0:0
     RDKit          3D

 38 39  0  0  0  0  0  0  0  0999 V2000
   -3.5970   24.1670  -27.2750 C   0  0  0  0  0  0  0  0  0  0  0  0
   -2.4710   24.6610  -28.1770 C   0  0  0  0  0  0  0  0  0  0  0  0
   -2.9900   25.1720  -29.4040 O   0  0  0  0  0  0  0  0  0  0  0  0
   -3.9610   24.5490  -30.2070 C   0  0  0  0  0  0  0  0  0  0  0  0
   -5.2510   25.0860  -30.3850 C   0  0  0  0  0  0  0  0  0  0  0  0
   -6.1820   24.4360  -31.1950 C   0  0  0  0  0  0  0  0  0  0  0  0
   -5.8460   23.2460  -31.8490 C   0  0  0  0  0  0  0  0  0  0  0  0
   -6.8280   22.5880  -32.6690 N   0  0  0  0  0  0  0  0  0  0  0  0
   -7.3230   21.2600  -32.4240 C   0  0  0  0  0  0  0  0  0  0  0  0
   -8.6090   21.0890  -31.8840 C   0  0  0  0  0  0  0  0  0  0  0  0
   -9.3680   22.1690  -31.5670 F   0  0  0  0  0  0  0  0  0  0  0  0
   -9.1090   19.8050  -31.6480 C   0  0  0  0  0  0  0  0  0  0  0  0
   -8.3380   18.6840  -31.9620 C   0  0  0  0  0  0  0  0  0  0  0  0
   -7.0700   18.8430  -32.5240 C   0  0  0  0  0  0  0  0  0  0  0  0
   -6.5630   20.1240  -32.7630 C   0  0  0  0  0  0  0  0  0  0  0  0
   -5.3500   20.2530  -33.3570 F   0  0  0  0  0  0  0  0  0  0  0  0
   -4.5710   22.6900  -31.6490 C   0  0  0  0  0  0  0  0  0  0  0  0
   -3.6210   23.3440  -30.8410 C   0  0  0  0  0  0  0  0  0  0  0  0
   -2.3280   22.8300  -30.6350 O   0  0  0  0  0  0  0  0  0  0  0  0
   -1.9130   21.4870  -30.8880 C   0  0  0  0  0  0  0  0  0  0  0  0
   -1.6310   21.2750  -32.3720 C   0  0  0  0  0  0  0  0  0  0  0  0
   -3.3060   24.2947  -26.2219 H   0  0  0  0  0  0  0  0  0  0  0  0
   -4.5094   24.7475  -27.4762 H   0  0  0  0  0  0  0  0  0  0  0  0
   -3.7878   23.1025  -27.4762 H   0  0  0  0  0  0  0  0  0  0  0  0
   -1.9184   25.4589  -27.6594 H   0  0  0  0  0  0  0  0  0  0  0  0
   -1.8037   23.8159  -28.4019 H   0  0  0  0  0  0  0  0  0  0  0  0
   -5.5261   26.0246  -29.8816 H   0  0  0  0  0  0  0  0  0  0  0  0
   -7.1882   24.8624  -31.3205 H   0  0  0  0  0  0  0  0  0  0  0  0
   -7.2380   23.1210  -33.4700 H   0  0  0  0  0  0  0  0  0  0  0  0
  -10.1117   19.6776  -31.2141 H   0  0  0  0  0  0  0  0  0  0  0  0
   -8.7300   17.6750  -31.7664 H   0  0  0  0  0  0  0  0  0  0  0  0
   -6.4682   17.9583  -32.7794 H   0  0  0  0  0  0  0  0  0  0  0  0
   -4.3124   21.7343  -32.1284 H   0  0  0  0  0  0  0  0  0  0  0  0
   -0.9980   21.2786  -30.3141 H   0  0  0  0  0  0  0  0  0  0  0  0
   -2.7212   20.8060  -30.5830 H   0  0  0  0  0  0  0  0  0  0  0  0
   -0.7567   20.6177  -32.4889 H   0  0  0  0  0  0  0  0  0  0  0  0
   -2.5062   20.8093  -32.8487 H   0  0  0  0  0  0  0  0  0  0  0  0
   -1.4268   22.2451  -32.8487 H   0  0  0  0  0  0  0  0  0  0  0  0
  1  2  1  0
  2  3  1  0
  3  4  1  0
  4  5  2  0
  5  6  1  0
  6  7  2  0
  7  8  1  0
  8  9  1  0
  9 10  2  0
 10 11  1  0
 10 12  1  0
 12 13  2  0
 13 14  1  0
 14 15  2  0
 15 16  1  0
  7 17  1  0
 17 18  2  0
 18 19  1  0
 19 20  1  0
 20 21  1  0
 18  4  1  0
 15  9  1  0
  1 22  1  0
  1 23  1  0
  1 24  1  0
  2 25  1  0
  2 26  1  0
  5 27  1  0
  6 28  1  0
  8 29  1  0
 12 30  1  0
 13 31  1  0
 14 32  1  0
 17 33  1  0
 20 34  1  0
 20 35  1  0
 21 36  1  0
 21 37  1  0
 21 38  1  0
M  END
>  <UniqueID>  (1) 
1

>  <SMILES>  (1) 
CCOc1ccc(Nc2c(F)cccc2F)cc1OCC

>  <Energy>  (1) 
40.27016536631617

>  <Genealogy>  (1) 
CCOc1ccc(Nc2c(F)cccc2F)cc1OCC (3D coordinates assigned)
CCOc1ccc(Nc2c(F)cccc2F)cc1OCC (optimized conformer: 40.27016536631617 kcal/mol)

>  <smiles>  (1) 
CCOc1ccc(Nc2c(F)cccc2F)cc1OCC

>  <score_type>  (1) 
oracle

>  <origin>  (1) 
adgpu

>  <m_score__min__energy>  (1) 
-7.1500000000000004

>  <m_primary>  (1) 
energy

$$$$
1:0
     RDKit          3D

 37 39  0  0  0  0  0  0  0  0999 V2000
   -6.8050   23.7650  -32.7250 N   0  0  0  0  0  0  0  0  0  0  0  0
   -7.4630   23.1340  -31.5860 C   0  0  0  0  0  0  0  0  0  0  0  0
   -7.9480   21.7540  -31.9640 C   0  0  0  0  0  0  0  0  0  0  0  0
   -9.3310   21.5020  -31.9550 C   0  0  0  0  0  0  0  0  0  0  0  0
   -9.8290   20.2490  -32.3180 C   0  0  0  0  0  0  0  0  0  0  0  0
   -8.9530   19.2310  -32.6930 C   0  0  0  0  0  0  0  0  0  0  0  0
   -7.5760   19.4580  -32.6950 C   0  0  0  0  0  0  0  0  0  0  0  0
   -7.0580   20.7080  -32.3170 C   0  0  0  0  0  0  0  0  0  0  0  0
   -5.5900   20.8890  -32.3150 C   0  0  0  0  0  0  0  0  0  0  0  0
   -4.7860   20.1990  -33.2340 C   0  0  0  0  0  0  0  0  0  0  0  0
   -3.4010   20.3760  -33.2270 C   0  0  0  0  0  0  0  0  0  0  0  0
   -2.8100   21.2510  -32.3130 C   0  0  0  0  0  0  0  0  0  0  0  0
   -3.6010   21.9670  -31.4000 C   0  0  0  0  0  0  0  0  0  0  0  0
   -2.9690   22.8950  -30.4280 C   0  0  0  0  0  0  0  0  0  0  0  0
   -1.9310   22.4390  -29.6000 C   0  0  0  0  0  0  0  0  0  0  0  0
   -1.3380   23.3000  -28.6780 C   0  0  0  0  0  0  0  0  0  0  0  0
   -1.7820   24.6180  -28.5880 C   0  0  0  0  0  0  0  0  0  0  0  0
   -2.7830   25.0600  -29.3980 N   0  0  0  0  0  0  0  0  0  0  0  0
   -3.3780   24.2410  -30.3110 C   0  0  0  0  0  0  0  0  0  0  0  0
   -4.2830   24.7040  -31.0580 O   0  0  0  0  0  0  0  0  0  0  0  0
   -4.9940   21.7780  -31.4050 C   0  0  0  0  0  0  0  0  0  0  0  0
   -6.6770   23.0430  -33.4710 H   0  0  0  0  0  0  0  0  0  0  0  0
   -5.8460   24.0510  -32.4210 H   0  0  0  0  0  0  0  0  0  0  0  0
   -6.7493   23.0530  -30.7529 H   0  0  0  0  0  0  0  0  0  0  0  0
   -8.3245   23.7474  -31.2834 H   0  0  0  0  0  0  0  0  0  0  0  0
  -10.0279   22.3000  -31.6590 H   0  0  0  0  0  0  0  0  0  0  0  0
  -10.9134   20.0648  -32.3081 H   0  0  0  0  0  0  0  0  0  0  0  0
   -9.3479   18.2475  -32.9877 H   0  0  0  0  0  0  0  0  0  0  0  0
   -6.8906   18.6516  -32.9950 H   0  0  0  0  0  0  0  0  0  0  0  0
   -5.2479   19.5164  -33.9625 H   0  0  0  0  0  0  0  0  0  0  0  0
   -2.7738   19.8249  -33.9432 H   0  0  0  0  0  0  0  0  0  0  0  0
   -1.7176   21.3802  -32.3082 H   0  0  0  0  0  0  0  0  0  0  0  0
   -1.5843   21.3981  -29.6791 H   0  0  0  0  0  0  0  0  0  0  0  0
   -0.5266   22.9423  -28.0271 H   0  0  0  0  0  0  0  0  0  0  0  0
   -1.3223   25.3031  -27.8604 H   0  0  0  0  0  0  0  0  0  0  0  0
   -3.0920   26.0540  -29.3160 H   0  0  0  0  0  0  0  0  0  0  0  0
   -5.6222   22.3305  -30.6908 H   0  0  0  0  0  0  0  0  0  0  0  0
  1  2  1  0
  2  3  1  0
  3  4  2  0
  4  5  1  0
  5  6  2  0
  6  7  1  0
  7  8  2  0
  8  9  1  0
  9 10  2  0
 10 11  1  0
 11 12  2  0
 12 13  1  0
 13 14  1  0
 14 15  2  0
 15 16  1  0
 16 17  2  0
 17 18  1  0
 18 19  1  0
 19 20  2  0
 13 21  2  0
  8  3  1  0
 21  9  1  0
 19 14  1  0
  1 22  1  0
  1 23  1  0
  2 24  1  0
  2 25  1  0
  4 26  1  0
  5 27  1  0
  6 28  1  0
  7 29  1  0
 10 30  1  0
 11 31  1  0
 12 32  1  0
 15 33  1  0
 16 34  1  0
 17 35  1  0
 18 36  1  0
 21 37  1  0
M  END
>  <UniqueID>  (2) 
2

>  <SMILES>  (2) 
NCc1ccccc1-c1cccc(-c2ccc[nH]c2=O)c1

>  <Energy>  (2) 
53.14232722217885

>  <Genealogy>  (2) 
NCc1ccccc1-c1cccc(-c2ccc[nH]c2=O)c1 (3D coordinates assigned)
NCc1ccccc1-c1cccc(-c2ccc[nH]c2=O)c1 (optimized conformer: 53.14232722217885 kcal/mol)

>  <smiles>  (2) 
NCc1ccccc1-c1cccc(-c2ccc[nH]c2=O)c1

>  <score_type>  (2) 
oracle

>  <origin>  (2) 
adgpu

>  <m_score__min__energy>  (2) 
-9.2599999999999998

>  <m_primary>  (2) 
energy

$$$$
2:0
     RDKit          3D

 24 25  0  0  0  0  0  0  0  0999 V2000
   -5.5660   26.3830  -30.4630 O   0  0  0  0  0  0  0  0  0  0  0  0
   -4.9410   25.3130  -30.6910 C   0  0  0  0  0  0  0  0  0  0  0  0
   -3.5340   25.2690  -30.4170 N   0  0  0  0  0  0  0  0  0  0  0  0
   -2.9020   24.5580  -29.3440 C   0  0  0  0  0  0  0  0  0  0  0  0
   -3.5210   23.4580  -28.7220 C   0  0  0  0  0  0  0  0  0  0  0  0
   -2.8680   22.7710  -27.6940 C   0  0  0  0  0  0  0  0  0  0  0  0
   -1.5880   23.1640  -27.2930 C   0  0  0  0  0  0  0  0  0  0  0  0
   -0.9560   24.2400  -27.9250 C   0  0  0  0  0  0  0  0  0  0  0  0
   -1.6090   24.9280  -28.9520 C   0  0  0  0  0  0  0  0  0  0  0  0
   -5.6800   24.1190  -31.1590 C   0  0  0  0  0  0  0  0  0  0  0  0
   -7.0310   23.9310  -30.8240 C   0  0  0  0  0  0  0  0  0  0  0  0
   -7.6960   22.7870  -31.2720 C   0  0  0  0  0  0  0  0  0  0  0  0
   -7.0160   21.8420  -32.0390 C   0  0  0  0  0  0  0  0  0  0  0  0
   -5.6700   22.0540  -32.3460 C   0  0  0  0  0  0  0  0  0  0  0  0
   -5.0400   23.1720  -31.9020 N   0  0  0  0  0  0  0  0  0  0  0  0
   -4.5222   23.1374  -29.0457 H   0  0  0  0  0  0  0  0  0  0  0  0
   -3.3619   21.9209  -27.2007 H   0  0  0  0  0  0  0  0  0  0  0  0
   -1.0774   22.6269  -26.4801 H   0  0  0  0  0  0  0  0  0  0  0  0
    0.0542   24.5446  -27.6141 H   0  0  0  0  0  0  0  0  0  0  0  0
   -1.1041   25.7655  -29.4556 H   0  0  0  0  0  0  0  0  0  0  0  0
   -7.5607   24.6778  -30.2144 H   0  0  0  0  0  0  0  0  0  0  0  0
   -8.7554   22.6319  -31.0198 H   0  0  0  0  0  0  0  0  0  0  0  0
   -7.5334   20.9401  -32.3981 H   0  0  0  0  0  0  0  0  0  0  0  0
   -5.1202   21.3152  -32.9476 H   0  0  0  0  0  0  0  0  0  0  0  0
  1  2  2  0
  2  3  1  0
  3  4  1  0
  4  5  2  0
  5  6  1  0
  6  7  2  0
  7  8  1  0
  8  9  2  0
  2 10  1  0
 10 11  2  0
 11 12  1  0
 12 13  2  0
 13 14  1  0
 14 15  2  0
  9  4  1  0
 15 10  1  0
  5 16  1  0
  6 17  1  0
  7 18  1  0
  8 19  1  0
  9 20  1  0
 11 21  1  0
 12 22  1  0
 13 23  1  0
 14 24  1  0
M  CHG  1   3  -1
M  END
>  <UniqueID>  (3) 
3

>  <SMILES>  (3) 
O=C([N-]c1ccccc1)c1ccccn1

>  <Energy>  (3) 
31.246505132354073

>  <Genealogy>  (3) 
O=C([N-]c1ccccc1)c1ccccn1 (protonated)
O=C([N-]c1ccccc1)c1ccccn1 (3D coordinates assigned)
O=C([N-]c1ccccc1)c1ccccn1 (optimized conformer: 31.246505132354073 kcal/mol)

>  <smiles>  (3) 
O=C(Nc1ccccc1)c1ccccn1

>  <score_type>  (3) 
oracle

>  <origin>  (3) 
adgpu

>  <m_score__min__energy>  (3) 
-7.6299999999999999

>  <m_primary>  (3) 
energy

$$$$
3:0
     RDKit          3D

 33 34  0  0  0  0  0  0  0  0999 V2000
   -6.2180   25.6660  -29.4990 C   0  0  0  0  0  0  0  0  0  0  0  0
   -5.0310   24.7130  -30.4230 S   0  0  0  0  0  0  0  0  0  0  0  0
   -3.8960   25.6110  -30.8210 O   0  0  0  0  0  0  0  0  0  0  0  0
   -4.4890   23.5910  -29.5830 O   0  0  0  0  0  0  0  0  0  0  0  0
   -5.7670   24.0770  -31.8600 N   0  0  0  0  0  0  0  0  0  0  0  0
   -5.7110   22.7120  -32.2980 C   0  0  0  0  0  0  0  0  0  0  0  0
   -4.5070   22.0900  -32.6700 C   0  0  0  0  0  0  0  0  0  0  0  0
   -4.5010   20.7560  -33.0910 C   0  0  0  0  0  0  0  0  0  0  0  0
   -5.6990   20.0210  -33.1550 C   0  0  0  0  0  0  0  0  0  0  0  0
   -5.7160   18.6040  -33.5930 C   0  0  0  0  0  0  0  0  0  0  0  0
   -5.8900   18.3490  -34.8160 O   0  0  0  0  0  0  0  0  0  0  0  0
   -5.5460   17.5280  -32.6510 N   0  0  0  0  0  0  0  0  0  0  0  0
   -5.4580   16.1430  -33.0260 C   0  0  0  0  0  0  0  0  0  0  0  0
   -4.4450   15.3090  -32.5220 C   0  0  0  0  0  0  0  0  0  0  0  0
   -4.3980   13.9600  -32.8820 C   0  0  0  0  0  0  0  0  0  0  0  0
   -5.3670   13.4220  -33.7370 C   0  0  0  0  0  0  0  0  0  0  0  0
   -5.2750   11.7200  -34.1660 Cl  0  0  0  0  0  0  0  0  0  0  0  0
   -6.3970   14.2430  -34.2250 C   0  0  0  0  0  0  0  0  0  0  0  0
   -7.6430   13.6050  -35.2890 Cl  0  0  0  0  0  0  0  0  0  0  0  0
   -6.4420   15.5940  -33.8610 C   0  0  0  0  0  0  0  0  0  0  0  0
   -6.8970   20.6460  -32.7690 C   0  0  0  0  0  0  0  0  0  0  0  0
   -6.9010   21.9790  -32.3500 C   0  0  0  0  0  0  0  0  0  0  0  0
   -6.0428   25.5253  -28.4222 H   0  0  0  0  0  0  0  0  0  0  0  0
   -6.1099   26.7310  -29.7520 H   0  0  0  0  0  0  0  0  0  0  0  0
   -7.2345   25.3303  -29.7520 H   0  0  0  0  0  0  0  0  0  0  0  0
   -3.5642   22.6552  -32.6299 H   0  0  0  0  0  0  0  0  0  0  0  0
   -3.5518   20.2777  -33.3744 H   0  0  0  0  0  0  0  0  0  0  0  0
   -5.5340   17.7420  -31.6290 H   0  0  0  0  0  0  0  0  0  0  0  0
   -3.6856   15.7205  -31.8408 H   0  0  0  0  0  0  0  0  0  0  0  0
   -3.5953   13.3172  -32.4915 H   0  0  0  0  0  0  0  0  0  0  0  0
   -7.2574   16.2314  -34.2337 H   0  0  0  0  0  0  0  0  0  0  0  0
   -7.8402   20.0807  -32.7970 H   0  0  0  0  0  0  0  0  0  0  0  0
   -7.8483   22.4560  -32.0585 H   0  0  0  0  0  0  0  0  0  0  0  0
  1  2  1  0
  2  3  2  0
  2  4  2  0
  2  5  1  0
  5  6  1  0
  6  7  2  0
  7  8  1  0
  8  9  2  0
  9 10  1  0
 10 11  2  0
 10 12  1  0
 12 13  1  0
 13 14  2  0
 14 15  1  0
 15 16  2  0
 16 17  1  0
 16 18  1  0
 18 19  1  0
 18 20  2  0
  9 21  1  0
 21 22  2  0
 22  6  1  0
 20 13  1  0
  1 23  1  0
  1 24  1  0
  1 25  1  0
  7 26  1  0
  8 27  1  0
 12 28  1  0
 14 29  1  0
 15 30  1  0
 20 31  1  0
 21 32  1  0
 22 33  1  0
M  CHG  1   5  -1
M  END
>  <UniqueID>  (4) 
4

>  <SMILES>  (4) 
CS(=O)(=O)[N-]c1ccc(C(=O)Nc2ccc(Cl)c(Cl)c2)cc1

>  <Energy>  (4) 
40.44660819531384

>  <Genealogy>  (4) 
CS(=O)(=O)[N-]c1ccc(C(=O)Nc2ccc(Cl)c(Cl)c2)cc1 (protonated)
CS(=O)(=O)[N-]c1ccc(C(=O)Nc2ccc(Cl)c(Cl)c2)cc1 (3D coordinates assigned)
CS(=O)(=O)[N-]c1ccc(C(=O)Nc2ccc(Cl)c(Cl)c2)cc1 (optimized conformer: 40.44660819531384 kcal/mol)

>  <smiles>  (4) 
CS(=O)(=O)Nc1ccc(C(=O)Nc2ccc(Cl)c(Cl)c2)cc1

>  <score_type>  (4) 
oracle

>  <origin>  (4) 
adgpu

>  <m_score__min__energy>  (4) 
-8.7699999999999996

>  <m_primary>  (4) 
energy

$$$$
4:0
     RDKit          3D

 28 30  0  0  0  0  0  0  0  0999 V2000
   -7.5120   18.4580  -32.6700 Cl  0  0  0  0  0  0  0  0  0  0  0  0
   -7.8090   20.1260  -32.2180 C   0  0  0  0  0  0  0  0  0  0  0  0
   -9.0980   20.6570  -32.3170 C   0  0  0  0  0  0  0  0  0  0  0  0
   -9.3350   21.9860  -31.9620 C   0  0  0  0  0  0  0  0  0  0  0  0
   -8.2840   22.7890  -31.5050 C   0  0  0  0  0  0  0  0  0  0  0  0
   -6.9810   22.2680  -31.3940 C   0  0  0  0  0  0  0  0  0  0  0  0
   -5.9080   23.1090  -30.9200 N   0  0  0  0  0  0  0  0  0  0  0  0
   -5.2870   23.0690  -29.7240 C   0  0  0  0  0  0  0  0  0  0  0  0
   -4.3370   24.0730  -29.7420 C   0  0  0  0  0  0  0  0  0  0  0  0
   -3.3900   24.4490  -28.6660 C   0  0  0  0  0  0  0  0  0  0  0  0
   -3.8120   24.5560  -27.3250 C   0  0  0  0  0  0  0  0  0  0  0  0
   -2.9040   24.9120  -26.3230 C   0  0  0  0  0  0  0  0  0  0  0  0
   -1.5680   25.1640  -26.6450 C   0  0  0  0  0  0  0  0  0  0  0  0
   -1.1380   25.0620  -27.9690 C   0  0  0  0  0  0  0  0  0  0  0  0
   -2.0420   24.7060  -28.9750 C   0  0  0  0  0  0  0  0  0  0  0  0
   -4.4090   24.6900  -30.9390 N   0  0  0  0  0  0  0  0  0  0  0  0
   -5.3660   24.0880  -31.6290 N   0  0  0  0  0  0  0  0  0  0  0  0
   -6.7550   20.9250  -31.7600 C   0  0  0  0  0  0  0  0  0  0  0  0
   -9.9260   20.0274  -32.6748 H   0  0  0  0  0  0  0  0  0  0  0  0
  -10.3498   22.4029  -32.0416 H   0  0  0  0  0  0  0  0  0  0  0  0
   -8.4777   23.8363  -31.2301 H   0  0  0  0  0  0  0  0  0  0  0  0
   -5.4952   22.3744  -28.8969 H   0  0  0  0  0  0  0  0  0  0  0  0
   -4.8624   24.3581  -27.0653 H   0  0  0  0  0  0  0  0  0  0  0  0
   -3.2421   24.9938  -25.2795 H   0  0  0  0  0  0  0  0  0  0  0  0
   -0.8550   25.4428  -25.8551 H   0  0  0  0  0  0  0  0  0  0  0  0
   -0.0862   25.2620  -28.2216 H   0  0  0  0  0  0  0  0  0  0  0  0
   -1.6961   24.6263  -30.0162 H   0  0  0  0  0  0  0  0  0  0  0  0
   -5.7424   20.5020  -31.6850 H   0  0  0  0  0  0  0  0  0  0  0  0
  1  2  1  0
  2  3  2  0
  3  4  1  0
  4  5  2  0
  5  6  1  0
  6  7  1  0
  7  8  1  0
  8  9  2  0
  9 10  1  0
 10 11  2  0
 11 12  1  0
 12 13  2  0
 13 14  1  0
 14 15  2  0
  9 16  1  0
 16 17  2  0
  6 18  2  0
 18  2  1  0
 17  7  1  0
 15 10  1  0
  3 19  1  0
  4 20  1  0
  5 21  1  0
  8 22  1  0
 11 23  1  0
 12 24  1  0
 13 25  1  0
 14 26  1  0
 15 27  1  0
 18 28  1  0
M  END
>  <UniqueID>  (5) 
5

>  <SMILES>  (5) 
Clc1cccc(-n2cc(-c3ccccc3)nn2)c1

>  <Energy>  (5) 
69.43882012294314

>  <Genealogy>  (5) 
Clc1cccc(-n2cc(-c3ccccc3)nn2)c1 (3D coordinates assigned)
Clc1cccc(-n2cc(-c3ccccc3)nn2)c1 (optimized conformer: 69.43882012294314 kcal/mol)

>  <smiles>  (5) 
Clc1cccc(-n2cc(-c3ccccc3)nn2)c1

>  <score_type>  (5) 
oracle

>  <origin>  (5) 
adgpu

>  <m_score__min__energy>  (5) 
-8.2899999999999991

>  <m_primary>  (5) 
energy

$$$$
5:0
     RDKit          3D

 32 34  0  0  0  0  0  0  0  0999 V2000
   -6.7514   25.0252  -30.2220 H   0  0  0  0  0  0  0  0  0  0  0  0
   -6.7650   24.0460  -30.7230 C   0  0  0  0  0  0  0  0  0  0  0  0
   -8.0130   23.4420  -31.6790 S   0  0  0  0  0  0  0  0  0  0  0  0
   -7.2320   21.9860  -31.9670 C   0  0  0  0  0  0  0  0  0  0  0  0
   -7.7270   21.0450  -32.7190 N   0  0  0  0  0  0  0  0  0  0  0  0
   -7.1570   19.7480  -32.9410 C   0  0  0  0  0  0  0  0  0  0  0  0
   -7.7960   18.6240  -32.4070 C   0  0  0  0  0  0  0  0  0  0  0  0
   -8.7410   18.7414  -31.8564 H   0  0  0  0  0  0  0  0  0  0  0  0
   -7.2390   17.3520  -32.5700 C   0  0  0  0  0  0  0  0  0  0  0  0
   -7.7583   16.4711  -32.1645 H   0  0  0  0  0  0  0  0  0  0  0  0
   -6.0250   17.1940  -33.2460 C   0  0  0  0  0  0  0  0  0  0  0  0
   -5.3550   15.5790  -33.4310 Cl  0  0  0  0  0  0  0  0  0  0  0  0
   -5.3580   18.3220  -33.7540 C   0  0  0  0  0  0  0  0  0  0  0  0
   -3.8160   18.1730  -34.5860 Cl  0  0  0  0  0  0  0  0  0  0  0  0
   -5.9180   19.5950  -33.5890 C   0  0  0  0  0  0  0  0  0  0  0  0
   -5.3860   20.4800  -33.9682 H   0  0  0  0  0  0  0  0  0  0  0  0
   -6.0190   21.9440  -31.3660 N   0  0  0  0  0  0  0  0  0  0  0  0
   -5.3360   21.1590  -31.4500 H   0  0  0  0  0  0  0  0  0  0  0  0
   -5.7510   23.0880  -30.6770 C   0  0  0  0  0  0  0  0  0  0  0  0
   -4.5070   23.2580  -29.8930 C   0  0  0  0  0  0  0  0  0  0  0  0
   -4.0050   22.1480  -29.1900 C   0  0  0  0  0  0  0  0  0  0  0  0
   -4.5129   21.1757  -29.2721 H   0  0  0  0  0  0  0  0  0  0  0  0
   -2.8680   22.2690  -28.3890 C   0  0  0  0  0  0  0  0  0  0  0  0
   -2.4854   21.3944  -27.8425 H   0  0  0  0  0  0  0  0  0  0  0  0
   -2.2170   23.4970  -28.2810 C   0  0  0  0  0  0  0  0  0  0  0  0
   -1.3293   23.5933  -27.6386 H   0  0  0  0  0  0  0  0  0  0  0  0
   -2.6900   24.6050  -28.9870 C   0  0  0  0  0  0  0  0  0  0  0  0
   -2.1696   25.5701  -28.8992 H   0  0  0  0  0  0  0  0  0  0  0  0
   -3.8240   24.4980  -29.8080 C   0  0  0  0  0  0  0  0  0  0  0  0
   -4.2260   25.6350  -30.5840 N   0  0  0  0  0  0  0  0  0  0  0  0
   -4.0120   25.6800  -31.6050 H   0  0  0  0  0  0  0  0  0  0  0  0
   -4.8260   26.3900  -30.1880 H   0  0  0  0  0  0  0  0  0  0  0  0
  1  2  1  0
  2  3  1  0
  3  4  1  0
  4  5  2  0
  5  6  1  0
  6  7  2  0
  7  8  1  0
  7  9  1  0
  9 10  1  0
  9 11  2  0
 11 12  1  0
 11 13  1  0
 13 14  1  0
 13 15  2  0
 15 16  1  0
  4 17  1  0
 17 18  1  0
 17 19  1  0
 19 20  1  0
 20 21  2  0
 21 22  1  0
 21 23  1  0
 23 24  1  0
 23 25  2  0
 25 26  1  0
 25 27  1  0
 27 28  1  0
 27 29  2  0
 29 30  1  0
 30 31  1  0
 30 32  1  0
 19  2  2  0
 29 20  1  0
 15  6  1  0
M  END
>  <UniqueID>  (6) 
6

>  <SMILES>  (6) 
Nc1ccccc1-c1cs/c(=N/c2ccc(Cl)c(Cl)c2)[nH]1

>  <Energy>  (6) 
78.74234830078088

>  <Genealogy>  (6) 
Nc1ccccc1-c1cs/c(=N/c2ccc(Cl)c(Cl)c2)[nH]1 (cis-trans isomerization)
Nc1ccccc1-c1cs/c(=N/c2ccc(Cl)c(Cl)c2)[nH]1 (3D coordinates assigned)
Nc1ccccc1-c1cs/c(=N/c2ccc(Cl)c(Cl)c2)[nH]1 (optimized conformer: 78.74234830078088 kcal/mol)

>  <smiles>  (6) 
Nc1ccccc1-c1csc(=Nc2ccc(Cl)c(Cl)c2)[nH]1

>  <score_type>  (6) 
oracle

>  <origin>  (6) 
adgpu

>  <m_score__min__energy>  (6) 
-8.6400000000000006

>  <m_primary>  (6) 
energy

$$$$
6:0
     RDKit          3D

 56 60  0  0  0  0  0  0  0  0999 V2000
   -3.7253   18.0875  -32.3286 H   0  0  0  0  0  0  0  0  0  0  0  0
   -3.1410   18.3390  -33.2260 C   0  0  0  0  0  0  0  0  0  0  0  0
   -2.8660   19.5840  -33.4760 N   0  0  0  0  0  0  0  0  0  0  0  0
   -3.2490   20.7120  -32.6690 C   0  0  0  0  0  0  0  0  0  0  0  0
   -4.4650   21.3470  -32.9480 C   0  0  0  0  0  0  0  0  0  0  0  0
   -5.1040   20.9690  -33.7597 H   0  0  0  0  0  0  0  0  0  0  0  0
   -4.8740   22.4570  -32.2040 C   0  0  0  0  0  0  0  0  0  0  0  0
   -5.8293   22.9501  -32.4371 H   0  0  0  0  0  0  0  0  0  0  0  0
   -4.0740   22.9450  -31.1630 C   0  0  0  0  0  0  0  0  0  0  0  0
   -4.5990   24.3530  -30.2450 S   0  0  0  0  0  0  0  0  0  0  0  0
   -4.0400   25.6070  -30.8570 O   0  0  0  0  0  0  0  0  0  0  0  0
   -6.1000   24.4130  -30.2650 O   0  0  0  0  0  0  0  0  0  0  0  0
   -4.0300   24.2050  -28.6150 N   0  0  0  0  0  0  0  0  0  0  0  0
   -2.8800   24.6550  -28.2220 C   0  0  0  0  0  0  0  0  0  0  0  0
   -1.9970   25.2790  -29.0310 N   0  0  0  0  0  0  0  0  0  0  0  0
   -0.8730   25.6370  -28.3550 C   0  0  0  0  0  0  0  0  0  0  0  0
   -0.0354   26.1616  -28.8380 H   0  0  0  0  0  0  0  0  0  0  0  0
   -0.8600   25.2910  -27.0070 C   0  0  0  0  0  0  0  0  0  0  0  0
   -0.0427   25.4891  -26.2979 H   0  0  0  0  0  0  0  0  0  0  0  0
   -2.3130   24.5160  -26.6490 S   0  0  0  0  0  0  0  0  0  0  0  0
   -2.8670   22.3040  -30.8650 C   0  0  0  0  0  0  0  0  0  0  0  0
   -2.2386   22.6760  -30.0424 H   0  0  0  0  0  0  0  0  0  0  0  0
   -2.4550   21.1930  -31.6070 C   0  0  0  0  0  0  0  0  0  0  0  0
   -1.5072   20.6916  -31.3615 H   0  0  0  0  0  0  0  0  0  0  0  0
   -2.6830   17.2440  -34.1270 C   0  0  0  0  0  0  0  0  0  0  0  0
   -3.4510   16.8900  -35.2540 C   0  0  0  0  0  0  0  0  0  0  0  0
   -4.7190   17.5130  -35.5180 N   0  0  0  0  0  0  0  0  0  0  0  0
   -4.9570   17.7390  -36.5100 H   0  0  0  0  0  0  0  0  0  0  0  0
   -5.6800   17.8430  -34.4990 C   0  0  0  0  0  0  0  0  0  0  0  0
   -6.1230   19.1720  -34.3750 C   0  0  0  0  0  0  0  0  0  0  0  0
   -5.7038   19.9490  -35.0312 H   0  0  0  0  0  0  0  0  0  0  0  0
   -7.0910   19.5160  -33.4260 C   0  0  0  0  0  0  0  0  0  0  0  0
   -7.4207   20.5611  -33.3305 H   0  0  0  0  0  0  0  0  0  0  0  0
   -7.6420   18.5270  -32.5950 C   0  0  0  0  0  0  0  0  0  0  0  0
   -8.8920   18.9500  -31.4410 Cl  0  0  0  0  0  0  0  0  0  0  0  0
   -7.2130   17.2040  -32.7130 C   0  0  0  0  0  0  0  0  0  0  0  0
   -7.6363   16.4305  -32.0553 H   0  0  0  0  0  0  0  0  0  0  0  0
   -6.2470   16.8570  -33.6640 C   0  0  0  0  0  0  0  0  0  0  0  0
   -5.9276   15.8089  -33.7613 H   0  0  0  0  0  0  0  0  0  0  0  0
   -3.0160   15.9080  -36.0810 N   0  0  0  0  0  0  0  0  0  0  0  0
   -1.8460   15.2570  -35.8760 C   0  0  0  0  0  0  0  0  0  0  0  0
   -1.4360   14.0630  -36.9290 S   0  0  0  0  0  0  0  0  0  0  0  0
   -1.0590   15.5820  -34.7990 N   0  0  0  0  0  0  0  0  0  0  0  0
    0.2030   14.9200  -34.5770 C   0  0  0  0  0  0  0  0  0  0  0  0
    0.2830   13.8280  -33.6980 C   0  0  0  0  0  0  0  0  0  0  0  0
   -0.6203   13.4708  -33.1819 H   0  0  0  0  0  0  0  0  0  0  0  0
    1.5100   13.1940  -33.4780 C   0  0  0  0  0  0  0  0  0  0  0  0
    1.5702   12.3391  -32.7884 H   0  0  0  0  0  0  0  0  0  0  0  0
    2.6590   13.6440  -34.1320 C   0  0  0  0  0  0  0  0  0  0  0  0
    3.6224   13.1420  -33.9592 H   0  0  0  0  0  0  0  0  0  0  0  0
    2.5850   14.7320  -35.0060 C   0  0  0  0  0  0  0  0  0  0  0  0
    3.4904   15.0847  -35.5217 H   0  0  0  0  0  0  0  0  0  0  0  0
    1.3620   15.3730  -35.2260 C   0  0  0  0  0  0  0  0  0  0  0  0
    1.3082   16.2337  -35.9088 H   0  0  0  0  0  0  0  0  0  0  0  0
   -1.4610   16.5620  -33.9260 C   0  0  0  0  0  0  0  0  0  0  0  0
   -0.7250   16.8670  -32.9470 O   0  0  0  0  0  0  0  0  0  0  0  0
  1  2  1  0
  2  3  2  0
  3  4  1  0
  4  5  2  0
  5  6  1  0
  5  7  1  0
  7  8  1  0
  7  9  2  0
  9 10  1  0
 10 11  2  0
 10 12  2  0
 10 13  1  0
 13 14  2  3
 14 15  1  0
 15 16  1  0
 16 17  1  0
 16 18  2  0
 18 19  1  0
 18 20  1  0
  9 21  1  0
 21 22  1  0
 21 23  2  0
 23 24  1  0
  2 25  1  0
 25 26  2  0
 26 27  1  0
 27 28  1  0
 27 29  1  0
 29 30  2  0
 30 31  1  0
 30 32  1  0
 32 33  1  0
 32 34  2  0
 34 35  1  0
 34 36  1  0
 36 37  1  0
 36 38  2  0
 38 39  1  0
 26 40  1  0
 40 41  1  0
 41 42  2  0
 41 43  1  0
 43 44  1  0
 44 45  2  0
 45 46  1  0
 45 47  1  0
 47 48  1  0
 47 49  2  0
 49 50  1  0
 49 51  1  0
 51 52  1  0
 51 53  2  0
 53 54  1  0
 43 55  1  0
 55 56  2  0
 23  4  1  0
 55 25  1  0
 20 14  1  0
 38 29  1  0
 53 44  1  0
M  CHG  2  15  -1  40  -1
M  END
>  <UniqueID>  (7) 
7

>  <SMILES>  (7) 
O=c1c(/C=N/c2ccc(S(=O)(=O)N=c3[n-]ccs3)cc2)c(Nc2ccc(Cl)cc2)[n-]c(=S)n1-c1ccccc1

>  <Energy>  (7) 
121.00423016176822

>  <Genealogy>  (7) 
O=c1c(C=Nc2ccc(S(=O)(=O)N=c3[n-]ccs3)cc2)c(Nc2ccc(Cl)cc2)[n-]c(=S)n1-c1ccccc1 (protonated)
O=c1c(/C=N/c2ccc(S(=O)(=O)N=c3[n-]ccs3)cc2)c(Nc2ccc(Cl)cc2)[n-]c(=S)n1-c1ccccc1 (cis-trans isomerization)
O=c1c(/C=N/c2ccc(S(=O)(=O)N=c3[n-]ccs3)cc2)c(Nc2ccc(Cl)cc2)[n-]c(=S)n1-c1ccccc1 (3D coordinates assigned)
O=c1c(/C=N/c2ccc(S(=O)(=O)N=c3[n-]ccs3)cc2)c(Nc2ccc(Cl)cc2)[n-]c(=S)n1-c1ccccc1 (optimized conformer: 121.00423016176822 kcal/mol)

>  <smiles>  (7) 
O=c1c(C=Nc2ccc(S(=O)(=O)N=c3[nH]ccs3)cc2)c(Nc2ccc(Cl)cc2)[nH]c(=S)n1-c1ccccc1

>  <score_type>  (7) 
oracle

>  <origin>  (7) 
adgpu

>  <m_score__min__energy>  (7) 
-11.539999999999999

>  <m_primary>  (7) 
energy

$$$$
7:0
     RDKit          3D

 31 32  0  0  0  0  0  0  0  0999 V2000
   -2.7320   25.3030  -26.3180 C   0  0  0  0  0  0  0  0  0  0  0  0
   -3.8200   24.4810  -27.0020 C   0  0  0  0  0  0  0  0  0  0  0  0
   -3.2770   23.1300  -27.4730 C   0  0  0  0  0  0  0  0  0  0  0  0
   -2.2490   23.3220  -28.9720 S   0  0  0  0  0  0  0  0  0  0  0  0
   -3.6280   23.6910  -30.0530 C   0  0  0  0  0  0  0  0  0  0  0  0
   -3.9220   24.9330  -30.4940 N   0  0  0  0  0  0  0  0  0  0  0  0
   -5.0170   24.9720  -31.2520 N   0  0  0  0  0  0  0  0  0  0  0  0
   -5.5910   23.7620  -31.4120 C   0  0  0  0  0  0  0  0  0  0  0  0
   -7.1140   23.4970  -32.3150 S   0  0  0  0  0  0  0  0  0  0  0  0
   -7.7970   22.2990  -31.1150 C   0  0  0  0  0  0  0  0  0  0  0  0
   -7.7950   20.9010  -31.6730 C   0  0  0  0  0  0  0  0  0  0  0  0
   -8.7420   19.9570  -31.2390 C   0  0  0  0  0  0  0  0  0  0  0  0
   -8.7110   18.6510  -31.7350 C   0  0  0  0  0  0  0  0  0  0  0  0
   -7.7400   18.2770  -32.6660 C   0  0  0  0  0  0  0  0  0  0  0  0
   -6.7930   19.2100  -33.1040 C   0  0  0  0  0  0  0  0  0  0  0  0
   -5.5710   18.7370  -34.2690 Cl  0  0  0  0  0  0  0  0  0  0  0  0
   -6.8200   20.5180  -32.6100 C   0  0  0  0  0  0  0  0  0  0  0  0
   -4.7350   22.5530  -30.6100 S   0  0  0  0  0  0  0  0  0  0  0  0
   -2.8415   25.2203  -25.2266 H   0  0  0  0  0  0  0  0  0  0  0  0
   -1.7436   24.9241  -26.6171 H   0  0  0  0  0  0  0  0  0  0  0  0
   -2.8264   26.3573  -26.6171 H   0  0  0  0  0  0  0  0  0  0  0  0
   -4.6413   24.3096  -26.2906 H   0  0  0  0  0  0  0  0  0  0  0  0
   -4.1784   25.0383  -27.8800 H   0  0  0  0  0  0  0  0  0  0  0  0
   -2.6656   22.6893  -26.6718 H   0  0  0  0  0  0  0  0  0  0  0  0
   -4.1278   22.4756  -27.7137 H   0  0  0  0  0  0  0  0  0  0  0  0
   -7.1858   22.3203  -30.2007 H   0  0  0  0  0  0  0  0  0  0  0  0
   -8.8369   22.5829  -30.8960 H   0  0  0  0  0  0  0  0  0  0  0  0
   -9.5098   20.2473  -30.5067 H   0  0  0  0  0  0  0  0  0  0  0  0
   -9.4534   17.9158  -31.3911 H   0  0  0  0  0  0  0  0  0  0  0  0
   -7.7192   17.2485  -33.0555 H   0  0  0  0  0  0  0  0  0  0  0  0
   -6.0753   21.2499  -32.9561 H   0  0  0  0  0  0  0  0  0  0  0  0
  1  2  1  0
  2  3  1  0
  3  4  1  0
  4  5  1  0
  5  6  2  0
  6  7  1  0
  7  8  2  0
  8  9  1  0
  9 10  1  0
 10 11  1  0
 11 12  2  0
 12 13  1  0
 13 14  2  0
 14 15  1  0
 15 16  1  0
 15 17  2  0
  8 18  1  0
 18  5  1  0
 17 11  1  0
  1 19  1  0
  1 20  1  0
  1 21  1  0
  2 22  1  0
  2 23  1  0
  3 24  1  0
  3 25  1  0
 10 26  1  0
 10 27  1  0
 12 28  1  0
 13 29  1  0
 14 30  1  0
 17 31  1  0
M  END
>  <UniqueID>  (8) 
8

>  <SMILES>  (8) 
CCCSc1nnc(SCc2cccc(Cl)c2)s1

>  <Energy>  (8) 
50.56294790291326

>  <Genealogy>  (8) 
CCCSc1nnc(SCc2cccc(Cl)c2)s1 (3D coordinates assigned)
CCCSc1nnc(SCc2cccc(Cl)c2)s1 (optimized conformer: 50.56294790291326 kcal/mol)

>  <smiles>  (8) 
CCCSc1nnc(SCc2cccc(Cl)c2)s1

>  <score_type>  (8) 
oracle

>  <origin>  (8) 
adgpu

>  <m_score__min__energy>  (8) 
-8.3399999999999999

>  <m_primary>  (8) 
energy

$$$$
8:0
     RDKit          3D

 51 54  0  0  0  0  0  0  0  0999 V2000
   -0.5030   25.2780  -24.2210 C   0  0  0  0  0  0  0  0  0  0  0  0
   -1.3330   26.0390  -25.0920 O   0  0  0  0  0  0  0  0  0  0  0  0
   -2.1300   25.4890  -26.1080 C   0  0  0  0  0  0  0  0  0  0  0  0
   -3.5080   25.2670  -25.9470 C   0  0  0  0  0  0  0  0  0  0  0  0
   -4.2610   24.7270  -26.9910 C   0  0  0  0  0  0  0  0  0  0  0  0
   -3.6530   24.3890  -28.2090 C   0  0  0  0  0  0  0  0  0  0  0  0
   -4.4780   23.8490  -29.3150 C   0  0  0  0  0  0  0  0  0  0  0  0
   -4.2680   22.6430  -29.9540 C   0  0  0  0  0  0  0  0  0  0  0  0
   -5.2500   22.5910  -30.9320 C   0  0  0  0  0  0  0  0  0  0  0  0
   -5.4700   21.5040  -31.9150 C   0  0  0  0  0  0  0  0  0  0  0  0
   -6.7780   21.1030  -32.2370 C   0  0  0  0  0  0  0  0  0  0  0  0
   -7.0020   20.0740  -33.1580 C   0  0  0  0  0  0  0  0  0  0  0  0
   -5.9170   19.4320  -33.7800 C   0  0  0  0  0  0  0  0  0  0  0  0
   -6.0980   18.3790  -34.6880 O   0  0  0  0  0  0  0  0  0  0  0  0
   -5.6170   17.0710  -34.5220 C   0  0  0  0  0  0  0  0  0  0  0  0
   -4.2770   16.7320  -34.7870 C   0  0  0  0  0  0  0  0  0  0  0  0
   -3.8330   15.4190  -34.5960 C   0  0  0  0  0  0  0  0  0  0  0  0
   -4.7170   14.4420  -34.1310 C   0  0  0  0  0  0  0  0  0  0  0  0
   -6.0440   14.7780  -33.8470 C   0  0  0  0  0  0  0  0  0  0  0  0
   -6.4900   16.0900  -34.0340 C   0  0  0  0  0  0  0  0  0  0  0  0
   -4.6140   19.8180  -33.4500 C   0  0  0  0  0  0  0  0  0  0  0  0
   -4.3890   20.8470  -32.5330 C   0  0  0  0  0  0  0  0  0  0  0  0
   -6.0050   23.7080  -30.8700 N   0  0  0  0  0  0  0  0  0  0  0  0
   -5.5410   24.4600  -29.8860 N   0  0  0  0  0  0  0  0  0  0  0  0
   -6.1310   25.7440  -29.5210 C   0  0  0  0  0  0  0  0  0  0  0  0
   -2.2720   24.6080  -28.3830 C   0  0  0  0  0  0  0  0  0  0  0  0
   -1.6740   24.2580  -29.6050 O   0  0  0  0  0  0  0  0  0  0  0  0
   -0.9920   23.0310  -29.8520 C   0  0  0  0  0  0  0  0  0  0  0  0
   -1.5210   25.1590  -27.3240 C   0  0  0  0  0  0  0  0  0  0  0  0
   -0.7569   25.5108  -23.1763 H   0  0  0  0  0  0  0  0  0  0  0  0
   -0.6623   24.2056  -24.4068 H   0  0  0  0  0  0  0  0  0  0  0  0
    0.5516   25.5296  -24.4068 H   0  0  0  0  0  0  0  0  0  0  0  0
   -3.9957   25.5199  -24.9940 H   0  0  0  0  0  0  0  0  0  0  0  0
   -5.3408   24.5651  -26.8573 H   0  0  0  0  0  0  0  0  0  0  0  0
   -3.4948   21.8916  -29.7361 H   0  0  0  0  0  0  0  0  0  0  0  0
   -7.6339   21.6031  -31.7602 H   0  0  0  0  0  0  0  0  0  0  0  0
   -8.0308   19.7662  -33.3963 H   0  0  0  0  0  0  0  0  0  0  0  0
   -3.5770   17.5012  -35.1452 H   0  0  0  0  0  0  0  0  0  0  0  0
   -2.7871   15.1557  -34.8121 H   0  0  0  0  0  0  0  0  0  0  0  0
   -4.3688   13.4084  -33.9884 H   0  0  0  0  0  0  0  0  0  0  0  0
   -6.7380   14.0094  -33.4760 H   0  0  0  0  0  0  0  0  0  0  0  0
   -7.5314   16.3531  -33.7968 H   0  0  0  0  0  0  0  0  0  0  0  0
   -3.7591   19.3068  -33.9167 H   0  0  0  0  0  0  0  0  0  0  0  0
   -3.3585   21.1467  -32.2915 H   0  0  0  0  0  0  0  0  0  0  0  0
   -6.1709   25.8309  -28.4252 H   0  0  0  0  0  0  0  0  0  0  0  0
   -5.5173   26.5594  -29.9314 H   0  0  0  0  0  0  0  0  0  0  0  0
   -7.1495   25.8094  -29.9314 H   0  0  0  0  0  0  0  0  0  0  0  0
   -0.7293   22.5583  -28.8941 H   0  0  0  0  0  0  0  0  0  0  0  0
   -1.6452   22.3576  -30.4262 H   0  0  0  0  0  0  0  0  0  0  0  0
   -0.0752   23.2302  -30.4262 H   0  0  0  0  0  0  0  0  0  0  0  0
   -0.4426   25.3316  -27.4555 H   0  0  0  0  0  0  0  0  0  0  0  0
  1  2  1  0
  2  3  1  0
  3  4  2  0
  4  5  1  0
  5  6  2  0
  6  7  1  0
  7  8  2  0
  8  9  1  0
  9 10  1  0
 10 11  2  0
 11 12  1  0
 12 13  2  0
 13 14  1  0
 14 15  1  0
 15 16  2  0
 16 17  1  0
 17 18  2  0
 18 19  1  0
 19 20  2  0
 13 21  1  0
 21 22  2  0
  9 23  2  0
 23 24  1  0
 24 25  1  0
  6 26  1  0
 26 27  1  0
 27 28  1  0
 26 29  2  0
 29  3  1  0
 24  7  1  0
 22 10  1  0
 20 15  1  0
  1 30  1  0
  1 31  1  0
  1 32  1  0
  4 33  1  0
  5 34  1  0
  8 35  1  0
 11 36  1  0
 12 37  1  0
 16 38  1  0
 17 39  1  0
 18 40  1  0
 19 41  1  0
 20 42  1  0
 21 43  1  0
 22 44  1  0
 25 45  1  0
 25 46  1  0
 25 47  1  0
 28 48  1  0
 28 49  1  0
 28 50  1  0
 29 51  1  0
M  END
>  <UniqueID>  (9) 
9

>  <SMILES>  (9) 
COc1ccc(-c2cc(-c3ccc(Oc4ccccc4)cc3)nn2C)c(OC)c1

>  <Energy>  (9) 
97.25819011731389

>  <Genealogy>  (9) 
COc1ccc(-c2cc(-c3ccc(Oc4ccccc4)cc3)nn2C)c(OC)c1 (3D coordinates assigned)
COc1ccc(-c2cc(-c3ccc(Oc4ccccc4)cc3)nn2C)c(OC)c1 (optimized conformer: 97.25819011731389 kcal/mol)

>  <smiles>  (9) 
COc1ccc(-c2cc(-c3ccc(Oc4ccccc4)cc3)nn2C)c(OC)c1

>  <score_type>  (9) 
oracle

>  <origin>  (9) 
adgpu

>  <m_score__min__energy>  (9) 
-7.8600000000000003

>  <m_primary>  (9) 
energy

$$$$
9:0
     RDKit          3D

 31 33  0  0  0  0  0  0  0  0999 V2000
   -9.1520   18.3220  -31.9580 C   0  0  0  0  0  0  0  0  0  0  0  0
   -8.9270   19.5810  -32.5840 O   0  0  0  0  0  0  0  0  0  0  0  0
   -7.9710   20.5160  -32.1590 C   0  0  0  0  0  0  0  0  0  0  0  0
   -6.6610   20.5440  -32.6730 C   0  0  0  0  0  0  0  0  0  0  0  0
   -5.7440   21.4960  -32.2170 C   0  0  0  0  0  0  0  0  0  0  0  0
   -6.1190   22.4350  -31.2430 C   0  0  0  0  0  0  0  0  0  0  0  0
   -5.1570   23.4430  -30.7570 C   0  0  0  0  0  0  0  0  0  0  0  0
   -5.0490   24.6950  -31.2480 N   0  0  0  0  0  0  0  0  0  0  0  0
   -4.0840   25.2840  -30.5600 N   0  0  0  0  0  0  0  0  0  0  0  0
   -3.6420   24.3700  -29.6750 C   0  0  0  0  0  0  0  0  0  0  0  0
   -2.5670   24.6080  -28.7070 C   0  0  0  0  0  0  0  0  0  0  0  0
   -2.4980   24.0970  -27.4290 C   0  0  0  0  0  0  0  0  0  0  0  0
   -1.3630   24.5520  -26.8760 N   0  0  0  0  0  0  0  0  0  0  0  0
   -0.8280   24.2020  -25.5670 C   0  0  0  0  0  0  0  0  0  0  0  0
   -0.7620   25.3010  -27.8220 C   0  0  0  0  0  0  0  0  0  0  0  0
   -1.4790   25.3640  -28.9630 N   0  0  0  0  0  0  0  0  0  0  0  0
   -4.2940   23.2400  -29.7890 O   0  0  0  0  0  0  0  0  0  0  0  0
   -7.4260   22.4050  -30.7310 C   0  0  0  0  0  0  0  0  0  0  0  0
   -8.3420   21.4520  -31.1880 C   0  0  0  0  0  0  0  0  0  0  0  0
   -9.1297   18.4466  -30.8653 H   0  0  0  0  0  0  0  0  0  0  0  0
  -10.1342   17.9314  -32.2625 H   0  0  0  0  0  0  0  0  0  0  0  0
   -8.3659   17.6154  -32.2625 H   0  0  0  0  0  0  0  0  0  0  0  0
   -6.3571   19.8134  -33.4371 H   0  0  0  0  0  0  0  0  0  0  0  0
   -4.7222   21.5093  -32.6240 H   0  0  0  0  0  0  0  0  0  0  0  0
   -3.2370   23.4377  -26.9504 H   0  0  0  0  0  0  0  0  0  0  0  0
   -1.4732   24.6241  -24.7824 H   0  0  0  0  0  0  0  0  0  0  0  0
   -0.7951   23.1072  -25.4651 H   0  0  0  0  0  0  0  0  0  0  0  0
    0.1883   24.6104  -25.4651 H   0  0  0  0  0  0  0  0  0  0  0  0
    0.2054   25.8048  -27.6795 H   0  0  0  0  0  0  0  0  0  0  0  0
   -7.7311   23.1347  -29.9666 H   0  0  0  0  0  0  0  0  0  0  0  0
   -9.3635   21.4384  -30.7801 H   0  0  0  0  0  0  0  0  0  0  0  0
  1  2  1  0
  2  3  1  0
  3  4  2  0
  4  5  1  0
  5  6  2  0
  6  7  1  0
  7  8  2  0
  8  9  1  0
  9 10  2  0
 10 11  1  0
 11 12  2  0
 12 13  1  0
 13 14  1  0
 13 15  1  0
 15 16  2  0
 10 17  1  0
  6 18  1  0
 18 19  2  0
 19  3  1  0
 17  7  1  0
 16 11  1  0
  1 20  1  0
  1 21  1  0
  1 22  1  0
  4 23  1  0
  5 24  1  0
 12 25  1  0
 14 26  1  0
 14 27  1  0
 14 28  1  0
 15 29  1  0
 18 30  1  0
 19 31  1  0
M  END
>  <UniqueID>  (10) 
10

>  <SMILES>  (10) 
COc1ccc(-c2nnc(-c3cn(C)cn3)o2)cc1

>  <Energy>  (10) 
94.71653334397443

>  <Genealogy>  (10) 
COc1ccc(-c2nnc(-c3cn(C)cn3)o2)cc1 (3D coordinates assigned)
COc1ccc(-c2nnc(-c3cn(C)cn3)o2)cc1 (optimized conformer: 94.71653334397443 kcal/mol)

>  <smiles>  (10) 
COc1ccc(-c2nnc(-c3cn(C)cn3)o2)cc1

>  <score_type>  (10) 
oracle

>  <origin>  (10) 
adgpu

>  <m_score__min__energy>  (10) 
-6.6799999999999997

>  <m_primary>  (10) 
energy

$$$$
10:0
     RDKit          3D

 43 45  0  0  1  0  0  0  0  0999 V2000
   -5.7890   25.6730  -30.0880 C   0  0  0  0  0  0  0  0  0  0  0  0
   -4.6250   25.3390  -30.8040 O   0  0  0  0  0  0  0  0  0  0  0  0
   -4.1110   24.0290  -30.7840 C   0  0  0  0  0  0  0  0  0  0  0  0
   -4.6220   23.1130  -31.6670 C   0  0  0  0  0  0  0  0  0  0  0  0
   -4.1850   21.8030  -31.7250 C   0  0  0  0  0  0  0  0  0  0  0  0
   -4.7520   20.9280  -32.6500 O   0  0  0  0  0  0  0  0  0  0  0  0
   -5.9910   20.3610  -32.4980 C   0  0  0  0  0  0  0  0  0  0  0  0
   -7.1290   21.1210  -32.3450 C   0  0  0  0  0  0  0  0  0  0  0  0
   -8.3840   20.6040  -32.1910 C   0  0  0  0  0  0  0  0  0  0  0  0
   -8.4900   19.2100  -32.1910 C   0  0  0  0  0  0  0  0  0  0  0  0
   -7.3550   18.4410  -32.3420 C   0  0  0  0  0  0  0  0  0  0  0  0
   -6.0920   18.9740  -32.4980 C   0  0  0  0  0  0  0  0  0  0  0  0
   -3.2020   21.4320  -30.8550 C   0  0  0  0  0  0  0  0  0  0  0  0
   -2.6840   22.3650  -29.9580 C   0  0  0  0  0  0  0  0  0  0  0  0
   -3.1140   23.6640  -29.8970 C   0  0  0  0  0  0  0  0  0  0  0  0
   -2.6330   24.6500  -29.0170 N   0  0  0  0  0  0  0  0  0  0  0  0
   -1.2850   24.8830  -28.6780 C   0  0  0  0  0  0  0  0  0  0  0  0
   -0.3250   24.2220  -29.1310 O   0  0  0  0  0  0  0  0  0  0  0  0
   -0.9320   25.9370  -27.7550 N   0  0  0  0  0  0  0  0  0  0  0  0
   -0.7150   25.6400  -26.5040 C   0  0  0  0  0  0  0  0  0  0  0  0
   -0.3800   26.6530  -25.6330 C   0  0  0  0  0  0  0  0  0  0  0  0
   -0.1560   26.3020  -24.3130 C   0  0  0  0  0  0  0  0  0  0  0  0
    0.1990   27.3050  -23.3390 N   0  0  0  0  0  0  0  0  0  0  0  0
   -0.2760   25.0160  -23.9560 N   0  0  0  0  0  0  0  0  0  0  0  0
   -0.6080   24.0480  -24.8430 C   0  0  0  0  0  0  0  0  0  0  0  0
   -0.8320   24.3520  -26.1380 N   0  0  0  0  0  0  0  0  0  0  0  0
   -5.5850   25.6145  -29.0087 H   0  0  0  0  0  0  0  0  0  0  0  0
   -6.0983   26.6962  -30.3477 H   0  0  0  0  0  0  0  0  0  0  0  0
   -6.5938   24.9695  -30.3477 H   0  0  0  0  0  0  0  0  0  0  0  0
   -5.4141   23.4346  -32.3592 H   0  0  0  0  0  0  0  0  0  0  0  0
   -7.0204   22.2156  -32.3469 H   0  0  0  0  0  0  0  0  0  0  0  0
   -9.2657   21.2511  -32.0731 H   0  0  0  0  0  0  0  0  0  0  0  0
   -9.4723   18.7296  -32.0713 H   0  0  0  0  0  0  0  0  0  0  0  0
   -7.4623   17.3463  -32.3378 H   0  0  0  0  0  0  0  0  0  0  0  0
   -5.2066   18.3321  -32.6168 H   0  0  0  0  0  0  0  0  0  0  0  0
   -2.8195   20.4006  -30.8612 H   0  0  0  0  0  0  0  0  0  0  0  0
   -1.8920   22.0425  -29.2661 H   0  0  0  0  0  0  0  0  0  0  0  0
   -3.3340   25.3010  -28.5460 H   0  0  0  0  0  0  0  0  0  0  0  0
   -0.2942   27.6960  -25.9718 H   0  0  0  0  0  0  0  0  0  0  0  0
    0.8480   26.9850  -22.5950 H   0  0  0  0  0  0  0  0  0  0  0  0
   -0.1860   28.2830  -23.4000 H   0  0  0  0  0  0  0  0  0  0  0  0
   -0.1070   24.7700  -22.9710 H   0  0  0  0  0  0  0  0  0  0  0  0
   -0.6957   23.0050  -24.5046 H   0  0  0  0  0  0  0  0  0  0  0  0
  1  2  1  0
  2  3  1  0
  3  4  2  0
  4  5  1  0
  5  6  1  0
  6  7  1  0
  7  8  2  0
  8  9  1  0
  9 10  2  0
 10 11  1  0
 11 12  2  0
  5 13  2  0
 13 14  1  0
 14 15  2  0
 15 16  1  0
 16 17  1  0
 17 18  2  0
 17 19  1  0
 19 20  2  0
 20 21  1  0
 21 22  2  0
 22 23  1  0
 22 24  1  0
 24 25  1  0
 25 26  2  0
 15  3  1  0
 26 20  1  0
 12  7  1  0
  1 27  1  0
  1 28  1  0
  1 29  1  0
  4 30  1  0
  8 31  1  0
  9 32  1  0
 10 33  1  0
 11 34  1  0
 12 35  1  0
 13 36  1  0
 14 37  1  0
 16 38  1  0
 21 39  1  0
 23 40  1  0
 23 41  1  0
 24 42  1  0
 25 43  1  0
M  END
>  <smiles>  (11) 
COc1cc(Oc2ccccc2)ccc1NC(=O)N=c1cc(N)[nH]cn1

>  <score_type>  (11) 
oracle

>  <origin>  (11) 
adgpu

>  <m_score__min__energy>  (11) 
-9.2799999999999994

>  <m_primary>  (11) 
energy

$$$$
11:0
     RDKit          3D

 33 34  0  0  0  0  0  0  0  0999 V2000
   -0.5060   22.7750  -25.7680 C   0  0  0  0  0  0  0  0  0  0  0  0
   -0.4010   22.1190  -27.0280 O   0  0  0  0  0  0  0  0  0  0  0  0
   -1.2080   22.4060  -28.1380 C   0  0  0  0  0  0  0  0  0  0  0  0
   -0.7430   22.0460  -29.4090 C   0  0  0  0  0  0  0  0  0  0  0  0
   -1.5110   22.3090  -30.5470 C   0  0  0  0  0  0  0  0  0  0  0  0
   -2.7670   22.9320  -30.4260 C   0  0  0  0  0  0  0  0  0  0  0  0
   -3.5680   23.2190  -31.5420 O   0  0  0  0  0  0  0  0  0  0  0  0
   -4.9420   22.9490  -31.6280 C   0  0  0  0  0  0  0  0  0  0  0  0
   -5.3960   21.7350  -32.1890 C   0  0  0  0  0  0  0  0  0  0  0  0
   -4.4640   20.7220  -32.6190 C   0  0  0  0  0  0  0  0  0  0  0  0
   -3.7160   19.9100  -32.9650 N   0  0  0  0  0  0  0  0  0  0  0  0
   -6.7660   21.4790  -32.2910 C   0  0  0  0  0  0  0  0  0  0  0  0
   -7.7040   22.4210  -31.8500 C   0  0  0  0  0  0  0  0  0  0  0  0
   -9.1810   22.1190  -31.9220 C   0  0  0  0  0  0  0  0  0  0  0  0
   -9.6980   21.8970  -30.6570 F   0  0  0  0  0  0  0  0  0  0  0  0
   -9.8370   23.1930  -32.4940 F   0  0  0  0  0  0  0  0  0  0  0  0
   -9.4120   20.9890  -32.6870 F   0  0  0  0  0  0  0  0  0  0  0  0
   -7.2510   23.6020  -31.2430 C   0  0  0  0  0  0  0  0  0  0  0  0
   -5.8780   23.8830  -31.1250 C   0  0  0  0  0  0  0  0  0  0  0  0
   -5.4580   25.1180  -30.5060 N   0  0  0  0  0  0  0  0  0  0  0  0
   -6.1960   25.7230  -29.7010 O   0  0  0  0  0  0  0  0  0  0  0  0
   -4.2390   25.6730  -30.8180 O   0  0  0  0  0  0  0  0  0  0  0  0
   -3.2270   23.3030  -29.1580 C   0  0  0  0  0  0  0  0  0  0  0  0
   -2.4590   23.0410  -28.0190 C   0  0  0  0  0  0  0  0  0  0  0  0
   -0.3880   22.0380  -24.9600 H   0  0  0  0  0  0  0  0  0  0  0  0
    0.2813   23.5387  -25.6855 H   0  0  0  0  0  0  0  0  0  0  0  0
   -1.4924   23.2548  -25.6855 H   0  0  0  0  0  0  0  0  0  0  0  0
    0.2345   21.5523  -29.5127 H   0  0  0  0  0  0  0  0  0  0  0  0
   -1.1322   22.0279  -31.5407 H   0  0  0  0  0  0  0  0  0  0  0  0
   -7.1113   20.5277  -32.7221 H   0  0  0  0  0  0  0  0  0  0  0  0
   -7.9843   24.3225  -30.8516 H   0  0  0  0  0  0  0  0  0  0  0  0
   -4.2005   23.8048  -29.0560 H   0  0  0  0  0  0  0  0  0  0  0  0
   -2.8336   23.3321  -27.0266 H   0  0  0  0  0  0  0  0  0  0  0  0
  1  2  1  0
  2  3  1  0
  3  4  2  0
  4  5  1  0
  5  6  2  0
  6  7  1  0
  7  8  1  0
  8  9  2  0
  9 10  1  0
 10 11  3  0
  9 12  1  0
 12 13  2  0
 13 14  1  0
 14 15  1  0
 14 16  1  0
 14 17  1  0
 13 18  1  0
 18 19  2  0
 19 20  1  0
 20 21  2  0
 20 22  1  0
  6 23  1  0
 23 24  2  0
 24  3  1  0
 19  8  1  0
  1 25  1  0
  1 26  1  0
  1 27  1  0
  4 28  1  0
  5 29  1  0
 12 30  1  0
 18 31  1  0
 23 32  1  0
 24 33  1  0
M  CHG  2  20   1  22  -1
M  END
>  <UniqueID>  (12) 
11

>  <SMILES>  (12) 
COc1ccc(Oc2c(C#N)cc(C(F)(F)F)cc2[N+](=O)[O-])cc1

>  <Energy>  (12) 
44.274997074375634

>  <Genealogy>  (12) 
COc1ccc(Oc2c(C#N)cc(C(F)(F)F)cc2[N+](=O)[O-])cc1 (3D coordinates assigned)
COc1ccc(Oc2c(C#N)cc(C(F)(F)F)cc2[N+](=O)[O-])cc1 (optimized conformer: 44.274997074375634 kcal/mol)

>  <smiles>  (12) 
COc1ccc(Oc2c(C#N)cc(C(F)(F)F)cc2[N+](=O)[O-])cc1

>  <score_type>  (12) 
oracle

>  <origin>  (12) 
adgpu

>  <m_score__min__energy>  (12) 
-7.04

>  <m_primary>  (12) 
energy

$$$$
12:0
     RDKit          3D

 25 26  0  0  0  0  0  0  0  0999 V2000
   -5.1840   25.7160  -31.2740 H   0  0  0  0  0  0  0  0  0  0  0  0
   -4.2340   25.6640  -30.8450 N   0  0  0  0  0  0  0  0  0  0  0  0
   -3.9030   24.8620  -29.8800 C   0  0  0  0  0  0  0  0  0  0  0  0
   -2.6230   24.9050  -29.4210 N   0  0  0  0  0  0  0  0  0  0  0  0
   -2.1810   24.1080  -28.4160 C   0  0  0  0  0  0  0  0  0  0  0  0
   -0.5150   24.2240  -27.8840 Cl  0  0  0  0  0  0  0  0  0  0  0  0
   -3.0490   23.2030  -27.8140 C   0  0  0  0  0  0  0  0  0  0  0  0
   -2.6963   22.5539  -26.9989 H   0  0  0  0  0  0  0  0  0  0  0  0
   -4.3700   23.1260  -28.2530 C   0  0  0  0  0  0  0  0  0  0  0  0
   -5.0604   22.4124  -27.7796 H   0  0  0  0  0  0  0  0  0  0  0  0
   -4.8300   23.9540  -29.2980 C   0  0  0  0  0  0  0  0  0  0  0  0
   -6.2690   23.8860  -29.7910 C   0  0  0  0  0  0  0  0  0  0  0  0
   -6.9244   23.6875  -28.9302 H   0  0  0  0  0  0  0  0  0  0  0  0
   -6.4962   24.8499  -30.2699 H   0  0  0  0  0  0  0  0  0  0  0  0
   -6.4880   22.8360  -30.7970 N   0  0  0  0  0  0  0  0  0  0  0  0
   -7.7370   22.2990  -30.9580 C   0  0  0  0  0  0  0  0  0  0  0  0
   -8.5728   22.6676  -30.3452 H   0  0  0  0  0  0  0  0  0  0  0  0
   -7.9580   21.2860  -31.8950 C   0  0  0  0  0  0  0  0  0  0  0  0
   -8.9639   20.8600  -32.0245 H   0  0  0  0  0  0  0  0  0  0  0  0
   -6.8930   20.8200  -32.6640 C   0  0  0  0  0  0  0  0  0  0  0  0
   -7.0538   20.0236  -33.4055 H   0  0  0  0  0  0  0  0  0  0  0  0
   -5.6230   21.3680  -32.4890 C   0  0  0  0  0  0  0  0  0  0  0  0
   -4.7754   21.0067  -33.0898 H   0  0  0  0  0  0  0  0  0  0  0  0
   -5.4360   22.3800  -31.5440 C   0  0  0  0  0  0  0  0  0  0  0  0
   -4.4354   22.8135  -31.3994 H   0  0  0  0  0  0  0  0  0  0  0  0
  1  2  1  0
  2  3  2  0
  3  4  1  0
  4  5  1  0
  5  6  1  0
  5  7  2  0
  7  8  1  0
  7  9  1  0
  9 10  1  0
  9 11  2  0
 11 12  1  0
 12 13  1  0
 12 14  1  0
 12 15  1  0
 15 16  2  0
 16 17  1  0
 16 18  1  0
 18 19  1  0
 18 20  2  0
 20 21  1  0
 20 22  1  0
 22 23  1  0
 22 24  2  0
 24 25  1  0
 11  3  1  0
 24 15  1  0
M  CHG  2   4  -1  15   1
M  END
>  <UniqueID>  (13) 
12

>  <SMILES>  (13) 
[H]/N=c1/[n-]c(Cl)ccc1C[n+]1ccccc1

>  <Energy>  (13) 
31.423718816618923

>  <Genealogy>  (13) 
N=c1[n-]c(Cl)ccc1C[n+]1ccccc1 (protonated)
[H]/N=c1/[n-]c(Cl)ccc1C[n+]1ccccc1 (cis-trans isomerization)
[H]/N=c1/[n-]c(Cl)ccc1C[n+]1ccccc1 (3D coordinates assigned)
[H]/N=c1/[n-]c(Cl)ccc1C[n+]1ccccc1 (optimized conformer: 31.423718816618923 kcal/mol)

>  <smiles>  (13) 
N=c1[nH]c(Cl)ccc1C[n+]1ccccc1

>  <score_type>  (13) 
oracle

>  <origin>  (13) 
adgpu

>  <m_score__min__energy>  (13) 
-7.5

>  <m_primary>  (13) 
energy

$$$$
13:0
     RDKit          3D

 47 49  0  0  0  0  0  0  0  0999 V2000
   -4.3300   13.6610  -31.5770 C   0  0  0  0  0  0  0  0  0  0  0  0
   -4.9810   13.9910  -32.9000 C   0  0  0  0  0  0  0  0  0  0  0  0
   -5.7340   12.9180  -33.6420 C   0  0  0  0  0  0  0  0  0  0  0  0
   -4.9130   15.2250  -33.4470 C   0  0  0  0  0  0  0  0  0  0  0  0
   -4.1900   16.4090  -32.8360 C   0  0  0  0  0  0  0  0  0  0  0  0
   -5.0530   17.6120  -32.8100 N   0  0  0  0  0  0  0  0  0  0  0  0
   -6.2350   17.4040  -31.9270 C   0  0  0  0  0  0  0  0  0  0  0  0
   -7.4130   18.3470  -32.2510 C   0  0  0  0  0  0  0  0  0  0  0  0
   -6.9390   19.5350  -32.9620 N   0  0  0  0  0  0  0  0  0  0  0  0
   -6.9470   20.8140  -32.3000 C   0  0  0  0  0  0  0  0  0  0  0  0
   -5.7610   21.4080  -31.9940 N   0  0  0  0  0  0  0  0  0  0  0  0
   -5.7060   22.6200  -31.3860 C   0  0  0  0  0  0  0  0  0  0  0  0
   -4.4740   23.2140  -31.0880 C   0  0  0  0  0  0  0  0  0  0  0  0
   -4.4400   24.4680  -30.4670 C   0  0  0  0  0  0  0  0  0  0  0  0
   -5.6320   25.1270  -30.1450 C   0  0  0  0  0  0  0  0  0  0  0  0
   -6.8660   24.5360  -30.4430 C   0  0  0  0  0  0  0  0  0  0  0  0
   -6.9040   23.2830  -31.0630 C   0  0  0  0  0  0  0  0  0  0  0  0
   -8.0900   22.6900  -31.3530 N   0  0  0  0  0  0  0  0  0  0  0  0
   -8.1510   21.4690  -31.9530 C   0  0  0  0  0  0  0  0  0  0  0  0
   -9.4960   20.8630  -32.2180 C   0  0  0  0  0  0  0  0  0  0  0  0
   -6.1600   19.3440  -34.1920 C   0  0  0  0  0  0  0  0  0  0  0  0
   -5.4680   17.9700  -34.1840 C   0  0  0  0  0  0  0  0  0  0  0  0
   -4.9820   13.9915  -30.7550 H   0  0  0  0  0  0  0  0  0  0  0  0
   -4.1731   12.5745  -31.5064 H   0  0  0  0  0  0  0  0  0  0  0  0
   -3.3610   14.1767  -31.5064 H   0  0  0  0  0  0  0  0  0  0  0  0
   -6.2108   12.2386  -32.9201 H   0  0  0  0  0  0  0  0  0  0  0  0
   -6.5057   13.3818  -34.2739 H   0  0  0  0  0  0  0  0  0  0  0  0
   -5.0354   12.3500  -34.2739 H   0  0  0  0  0  0  0  0  0  0  0  0
   -5.4214   15.3823  -34.4097 H   0  0  0  0  0  0  0  0  0  0  0  0
   -3.8959   16.1568  -31.8065 H   0  0  0  0  0  0  0  0  0  0  0  0
   -3.3050   16.6301  -33.4507 H   0  0  0  0  0  0  0  0  0  0  0  0
   -4.4870   18.4070  -32.4270 H   0  0  0  0  0  0  0  0  0  0  0  0
   -6.5778   16.3651  -32.0416 H   0  0  0  0  0  0  0  0  0  0  0  0
   -5.9153   17.6241  -30.8977 H   0  0  0  0  0  0  0  0  0  0  0  0
   -8.1402   17.8142  -32.8813 H   0  0  0  0  0  0  0  0  0  0  0  0
   -7.8858   18.6617  -31.3090 H   0  0  0  0  0  0  0  0  0  0  0  0
   -3.5363   22.6974  -31.3408 H   0  0  0  0  0  0  0  0  0  0  0  0
   -3.4733   24.9370  -30.2313 H   0  0  0  0  0  0  0  0  0  0  0  0
   -5.5994   26.1120  -29.6564 H   0  0  0  0  0  0  0  0  0  0  0  0
   -7.8021   25.0554  -30.1903 H   0  0  0  0  0  0  0  0  0  0  0  0
   -9.9922   20.6394  -31.2621 H   0  0  0  0  0  0  0  0  0  0  0  0
  -10.1104   21.5713  -32.7932 H   0  0  0  0  0  0  0  0  0  0  0  0
   -9.3725   19.9335  -32.7932 H   0  0  0  0  0  0  0  0  0  0  0  0
   -6.8331   19.4052  -35.0599 H   0  0  0  0  0  0  0  0  0  0  0  0
   -5.3916   20.1288  -34.2518 H   0  0  0  0  0  0  0  0  0  0  0  0
   -6.1672   17.2094  -34.5616 H   0  0  0  0  0  0  0  0  0  0  0  0
   -4.5765   18.0147  -34.8268 H   0  0  0  0  0  0  0  0  0  0  0  0
  1  2  1  0
  2  3  1  0
  2  4  2  3
  4  5  1  0
  5  6  1  0
  6  7  1  0
  7  8  1  0
  8  9  1  0
  9 10  1  0
 10 11  2  0
 11 12  1  0
 12 13  2  0
 13 14  1  0
 14 15  2  0
 15 16  1  0
 16 17  2  0
 17 18  1  0
 18 19  2  0
 19 20  1  0
  9 21  1  0
 21 22  1  0
 22  6  1  0
 19 10  1  0
 17 12  1  0
  1 23  1  0
  1 24  1  0
  1 25  1  0
  3 26  1  0
  3 27  1  0
  3 28  1  0
  4 29  1  0
  5 30  1  0
  5 31  1  0
  6 32  1  0
  7 33  1  0
  7 34  1  0
  8 35  1  0
  8 36  1  0
 13 37  1  0
 14 38  1  0
 15 39  1  0
 16 40  1  0
 20 41  1  0
 20 42  1  0
 20 43  1  0
 21 44  1  0
 21 45  1  0
 22 46  1  0
 22 47  1  0
M  CHG  1   6   1
M  END
>  <UniqueID>  (14) 
13

>  <SMILES>  (14) 
CC(C)=CC[NH+]1CCN(c2nc3ccccc3nc2C)CC1

>  <Energy>  (14) 
59.857943885853025

>  <Genealogy>  (14) 
CC(C)=CC[NH+]1CCN(c2nc3ccccc3nc2C)CC1 (protonated)
CC(C)=CC[NH+]1CCN(c2nc3ccccc3nc2C)CC1 (3D coordinates assigned)
CC(C)=CC[NH+]1CCN(c2nc3ccccc3nc2C)CC1 (nonaromatic ring conformer: 59.857943885853025 kcal/mol)

>  <smiles>  (14) 
CC(C)=CCN1CCN(c2nc3ccccc3nc2C)CC1

>  <score_type>  (14) 
oracle

>  <origin>  (14) 
adgpu

>  <m_score__min__energy>  (14) 
-7.0199999999999996

>  <m_primary>  (14) 
energy

$$$$
14:0
     RDKit          3D

 37 39  0  0  0  0  0  0  0  0999 V2000
   -6.5985   24.6734  -32.1959 H   0  0  0  0  0  0  0  0  0  0  0  0
   -5.7150   24.4030  -31.5990 C   0  0  0  0  0  0  0  0  0  0  0  0
   -4.9730   25.2590  -30.8680 N   0  0  0  0  0  0  0  0  0  0  0  0
   -4.0280   24.4620  -30.3290 C   0  0  0  0  0  0  0  0  0  0  0  0
   -3.0890   24.9200  -29.5560 N   0  0  0  0  0  0  0  0  0  0  0  0
   -2.0680   24.1440  -28.9060 C   0  0  0  0  0  0  0  0  0  0  0  0
   -2.3410   22.9060  -28.2950 C   0  0  0  0  0  0  0  0  0  0  0  0
   -3.3623   22.4985  -28.3230 H   0  0  0  0  0  0  0  0  0  0  0  0
   -1.3260   22.1880  -27.6520 C   0  0  0  0  0  0  0  0  0  0  0  0
   -1.6540   20.9540  -27.0690 O   0  0  0  0  0  0  0  0  0  0  0  0
   -2.7500   20.1390  -27.4710 C   0  0  0  0  0  0  0  0  0  0  0  0
   -3.2672   19.7544  -26.5796 H   0  0  0  0  0  0  0  0  0  0  0  0
   -3.4507   20.7372  -28.0720 H   0  0  0  0  0  0  0  0  0  0  0  0
   -2.3788   19.2958  -28.0720 H   0  0  0  0  0  0  0  0  0  0  0  0
   -0.0250   22.7230  -27.6060 C   0  0  0  0  0  0  0  0  0  0  0  0
    0.7805   22.1593  -27.1126 H   0  0  0  0  0  0  0  0  0  0  0  0
    0.2520   23.9740  -28.1870 C   0  0  0  0  0  0  0  0  0  0  0  0
    1.5290   24.5540  -28.1530 O   0  0  0  0  0  0  0  0  0  0  0  0
    2.2990   24.7410  -26.9700 C   0  0  0  0  0  0  0  0  0  0  0  0
    1.6600   24.5858  -26.0882 H   0  0  0  0  0  0  0  0  0  0  0  0
    3.1279   24.0181  -26.9539 H   0  0  0  0  0  0  0  0  0  0  0  0
    2.7040   25.7636  -26.9539 H   0  0  0  0  0  0  0  0  0  0  0  0
   -0.7770   24.6760  -28.8230 C   0  0  0  0  0  0  0  0  0  0  0  0
   -0.5679   25.6615  -29.2647 H   0  0  0  0  0  0  0  0  0  0  0  0
   -4.1430   23.2050  -30.6900 O   0  0  0  0  0  0  0  0  0  0  0  0
   -5.1870   23.1300  -31.4780 C   0  0  0  0  0  0  0  0  0  0  0  0
   -5.6700   21.8780  -32.1010 C   0  0  0  0  0  0  0  0  0  0  0  0
   -4.7830   21.0940  -32.8600 C   0  0  0  0  0  0  0  0  0  0  0  0
   -3.7388   21.4163  -32.9853 H   0  0  0  0  0  0  0  0  0  0  0  0
   -5.2200   19.9080  -33.4560 C   0  0  0  0  0  0  0  0  0  0  0  0
   -4.5186   19.3008  -34.0470 H   0  0  0  0  0  0  0  0  0  0  0  0
   -6.5440   19.4910  -33.3040 C   0  0  0  0  0  0  0  0  0  0  0  0
   -6.8847   18.5575  -33.7756 H   0  0  0  0  0  0  0  0  0  0  0  0
   -7.4360   20.2610  -32.5520 C   0  0  0  0  0  0  0  0  0  0  0  0
   -9.0990   19.7370  -32.3620 Cl  0  0  0  0  0  0  0  0  0  0  0  0
   -7.0040   21.4500  -31.9530 C   0  0  0  0  0  0  0  0  0  0  0  0
   -7.7099   22.0535  -31.3635 H   0  0  0  0  0  0  0  0  0  0  0  0
  1  2  1  0
  2  3  1  0
  3  4  1  0
  4  5  2  0
  5  6  1  0
  6  7  2  0
  7  8  1  0
  7  9  1  0
  9 10  1  0
 10 11  1  0
 11 12  1  0
 11 13  1  0
 11 14  1  0
  9 15  2  0
 15 16  1  0
 15 17  1  0
 17 18  1  0
 18 19  1  0
 19 20  1  0
 19 21  1  0
 19 22  1  0
 17 23  2  0
 23 24  1  0
  4 25  1  0
 25 26  1  0
 26 27  1  0
 27 28  2  0
 28 29  1  0
 28 30  1  0
 30 31  1  0
 30 32  2  0
 32 33  1  0
 32 34  1  0
 34 35  1  0
 34 36  2  0
 36 37  1  0
 26  2  2  0
 36 27  1  0
 23  6  1  0
M  CHG  1   3  -1
M  END
>  <UniqueID>  (15) 
14

>  <SMILES>  (15) 
COc1cc(/N=c2/[n-]cc(-c3cccc(Cl)c3)o2)cc(OC)c1

>  <Energy>  (15) 
73.76362021733648

>  <Genealogy>  (15) 
COc1cc(N=c2[n-]cc(-c3cccc(Cl)c3)o2)cc(OC)c1 (protonated)
COc1cc(/N=c2/[n-]cc(-c3cccc(Cl)c3)o2)cc(OC)c1 (cis-trans isomerization)
COc1cc(/N=c2/[n-]cc(-c3cccc(Cl)c3)o2)cc(OC)c1 (3D coordinates assigned)
COc1cc(/N=c2/[n-]cc(-c3cccc(Cl)c3)o2)cc(OC)c1 (optimized conformer: 73.76362021733648 kcal/mol)

>  <smiles>  (15) 
COc1cc(N=c2[nH]cc(-c3cccc(Cl)c3)o2)cc(OC)c1

>  <score_type>  (15) 
oracle

>  <origin>  (15) 
adgpu

>  <m_score__min__energy>  (15) 
-9.1999999999999993

>  <m_primary>  (15) 
energy

$$$$
15:0
     RDKit          3D

 43 45  0  0  0  0  0  0  0  0999 V2000
   -1.7190   27.7980  -23.2360 H   0  0  0  0  0  0  0  0  0  0  0  0
   -0.9340   27.1930  -23.5650 N   0  0  0  0  0  0  0  0  0  0  0  0
   -0.6110   27.6300  -25.2040 S   0  0  0  0  0  0  0  0  0  0  0  0
   -1.2260   28.9700  -25.4990 O   0  0  0  0  0  0  0  0  0  0  0  0
    0.8750   27.7240  -25.4170 O   0  0  0  0  0  0  0  0  0  0  0  0
   -1.2890   26.4120  -26.2770 C   0  0  0  0  0  0  0  0  0  0  0  0
   -2.4200   25.6810  -25.8870 C   0  0  0  0  0  0  0  0  0  0  0  0
   -2.8795   25.8650  -24.9047 H   0  0  0  0  0  0  0  0  0  0  0  0
   -2.9660   24.7190  -26.7420 C   0  0  0  0  0  0  0  0  0  0  0  0
   -3.8391   24.1327  -26.4195 H   0  0  0  0  0  0  0  0  0  0  0  0
   -2.4070   24.4980  -28.0070 C   0  0  0  0  0  0  0  0  0  0  0  0
   -2.9520   23.4650  -28.8410 N   0  0  0  0  0  0  0  0  0  0  0  0
   -3.9820   23.5530  -29.6350 C   0  0  0  0  0  0  0  0  0  0  0  0
   -4.2810   22.4900  -30.4270 N   0  0  0  0  0  0  0  0  0  0  0  0
   -5.3430   22.4970  -31.2760 C   0  0  0  0  0  0  0  0  0  0  0  0
   -5.5940   21.2870  -32.0860 C   0  0  0  0  0  0  0  0  0  0  0  0
   -4.6240   20.7990  -32.9760 C   0  0  0  0  0  0  0  0  0  0  0  0
   -3.6536   21.3099  -33.0618 H   0  0  0  0  0  0  0  0  0  0  0  0
   -4.8850   19.6680  -33.7530 C   0  0  0  0  0  0  0  0  0  0  0  0
   -4.1127   19.2877  -34.4378 H   0  0  0  0  0  0  0  0  0  0  0  0
   -6.1190   19.0140  -33.6690 C   0  0  0  0  0  0  0  0  0  0  0  0
   -6.3260   17.8810  -34.4750 O   0  0  0  0  0  0  0  0  0  0  0  0
   -6.1780   16.5290  -34.0470 C   0  0  0  0  0  0  0  0  0  0  0  0
   -4.9970   16.0250  -34.5560 F   0  0  0  0  0  0  0  0  0  0  0  0
   -6.1300   16.4680  -32.6660 F   0  0  0  0  0  0  0  0  0  0  0  0
   -7.2300   15.7630  -34.5180 F   0  0  0  0  0  0  0  0  0  0  0  0
   -7.1000   19.5130  -32.7910 C   0  0  0  0  0  0  0  0  0  0  0  0
   -8.0758   19.0105  -32.7174 H   0  0  0  0  0  0  0  0  0  0  0  0
   -6.8390   20.6450  -32.0120 C   0  0  0  0  0  0  0  0  0  0  0  0
   -7.6152   21.0344  -31.3368 H   0  0  0  0  0  0  0  0  0  0  0  0
   -6.1460   23.6540  -31.3630 C   0  0  0  0  0  0  0  0  0  0  0  0
   -7.3050   23.7740  -32.3170 C   0  0  0  0  0  0  0  0  0  0  0  0
   -8.2407   23.8709  -31.7468 H   0  0  0  0  0  0  0  0  0  0  0  0
   -7.1679   24.6628  -32.9505 H   0  0  0  0  0  0  0  0  0  0  0  0
   -7.3529   22.8760  -32.9505 H   0  0  0  0  0  0  0  0  0  0  0  0
   -5.8490   24.7210  -30.5070 C   0  0  0  0  0  0  0  0  0  0  0  0
   -6.4811   25.6212  -30.5195 H   0  0  0  0  0  0  0  0  0  0  0  0
   -4.7880   24.6560  -29.6610 N   0  0  0  0  0  0  0  0  0  0  0  0
   -4.6350   25.4620  -29.0180 H   0  0  0  0  0  0  0  0  0  0  0  0
   -1.2560   25.2100  -28.3860 C   0  0  0  0  0  0  0  0  0  0  0  0
   -0.7831   25.0096  -29.3587 H   0  0  0  0  0  0  0  0  0  0  0  0
   -0.7100   26.1720  -27.5310 C   0  0  0  0  0  0  0  0  0  0  0  0
    0.1770   26.7426  -27.8433 H   0  0  0  0  0  0  0  0  0  0  0  0
  1  2  1  0
  2  3  1  0
  3  4  2  0
  3  5  2  0
  3  6  1  0
  6  7  2  0
  7  8  1  0
  7  9  1  0
  9 10  1  0
  9 11  2  0
 11 12  1  0
 12 13  2  0
 13 14  1  0
 14 15  2  0
 15 16  1  0
 16 17  2  0
 17 18  1  0
 17 19  1  0
 19 20  1  0
 19 21  2  0
 21 22  1  0
 22 23  1  0
 23 24  1  0
 23 25  1  0
 23 26  1  0
 21 27  1  0
 27 28  1  0
 27 29  2  0
 29 30  1  0
 15 31  1  0
 31 32  1  0
 32 33  1  0
 32 34  1  0
 32 35  1  0
 31 36  2  0
 36 37  1  0
 36 38  1  0
 38 39  1  0
 11 40  1  0
 40 41  1  0
 40 42  2  0
 42 43  1  0
 42  6  1  0
 38 13  1  0
 29 16  1  0
M  CHG  1   2  -1
M  END
>  <UniqueID>  (16) 
15

>  <SMILES>  (16) 
Cc1c[nH]/c(=N\c2ccc(S([NH-])(=O)=O)cc2)nc1-c1ccc(OC(F)(F)F)cc1

>  <Energy>  (16) 
61.552509567363366

>  <Genealogy>  (16) 
Cc1c[nH]c(=Nc2ccc(S([NH-])(=O)=O)cc2)nc1-c1ccc(OC(F)(F)F)cc1 (protonated)
Cc1c[nH]/c(=N\c2ccc(S([NH-])(=O)=O)cc2)nc1-c1ccc(OC(F)(F)F)cc1 (cis-trans isomerization)
Cc1c[nH]/c(=N\c2ccc(S([NH-])(=O)=O)cc2)nc1-c1ccc(OC(F)(F)F)cc1 (3D coordinates assigned)
Cc1c[nH]/c(=N\c2ccc(S([NH-])(=O)=O)cc2)nc1-c1ccc(OC(F)(F)F)cc1 (optimized conformer: 61.552509567363366 kcal/mol)

>  <smiles>  (16) 
Cc1c[nH]c(=Nc2ccc(S(N)(=O)=O)cc2)nc1-c1ccc(OC(F)(F)F)cc1

>  <score_type>  (16) 
oracle

>  <origin>  (16) 
adgpu

>  <m_score__min__energy>  (16) 
-7.7400000000000002

>  <m_primary>  (16) 
energy

$$$$
16:0
     RDKit          3D

 44 46  0  0  0  0  0  0  0  0999 V2000
   -0.4550   28.3020  -27.0860 C   0  0  0  0  0  0  0  0  0  0  0  0
   -0.7050   27.1380  -27.8670 O   0  0  0  0  0  0  0  0  0  0  0  0
   -0.8720   25.8480  -27.3360 C   0  0  0  0  0  0  0  0  0  0  0  0
   -0.3030   25.4630  -26.1060 C   0  0  0  0  0  0  0  0  0  0  0  0
   -0.4820   24.1640  -25.6220 C   0  0  0  0  0  0  0  0  0  0  0  0
   -1.2290   23.2390  -26.3550 C   0  0  0  0  0  0  0  0  0  0  0  0
   -1.7940   23.6100  -27.5760 C   0  0  0  0  0  0  0  0  0  0  0  0
   -1.6190   24.9090  -28.0690 C   0  0  0  0  0  0  0  0  0  0  0  0
   -2.1680   25.2640  -29.3370 N   0  0  0  0  0  0  0  0  0  0  0  0
   -3.5640   24.4470  -29.9450 S   0  0  0  0  0  0  0  0  0  0  0  0
   -4.3200   25.3800  -30.8510 O   0  0  0  0  0  0  0  0  0  0  0  0
   -4.4620   24.0520  -28.8080 O   0  0  0  0  0  0  0  0  0  0  0  0
   -3.0570   23.0190  -30.8390 C   0  0  0  0  0  0  0  0  0  0  0  0
   -1.8700   22.3530  -30.5070 C   0  0  0  0  0  0  0  0  0  0  0  0
   -1.5140   21.1810  -31.1780 C   0  0  0  0  0  0  0  0  0  0  0  0
   -2.3460   20.6570  -32.1710 C   0  0  0  0  0  0  0  0  0  0  0  0
   -3.5420   21.3140  -32.5100 C   0  0  0  0  0  0  0  0  0  0  0  0
   -4.4450   20.8000  -33.4970 N   0  0  0  0  0  0  0  0  0  0  0  0
   -5.7210   19.6650  -33.1960 S   0  0  0  0  0  0  0  0  0  0  0  0
   -6.0420   18.9230  -34.4640 O   0  0  0  0  0  0  0  0  0  0  0  0
   -5.2620   18.6700  -32.1670 O   0  0  0  0  0  0  0  0  0  0  0  0
   -7.1360   20.5100  -32.5820 C   0  0  0  0  0  0  0  0  0  0  0  0
   -7.0150   21.8390  -32.1500 C   0  0  0  0  0  0  0  0  0  0  0  0
   -8.1340   22.5240  -31.6650 C   0  0  0  0  0  0  0  0  0  0  0  0
   -9.3780   21.8870  -31.6140 C   0  0  0  0  0  0  0  0  0  0  0  0
   -9.5040   20.5630  -32.0460 C   0  0  0  0  0  0  0  0  0  0  0  0
   -8.3860   19.8730  -32.5260 C   0  0  0  0  0  0  0  0  0  0  0  0
   -3.8800   22.5020  -31.8500 C   0  0  0  0  0  0  0  0  0  0  0  0
   -0.5101   28.0456  -26.0177 H   0  0  0  0  0  0  0  0  0  0  0  0
    0.5472   28.6912  -27.3185 H   0  0  0  0  0  0  0  0  0  0  0  0
   -1.2090   29.0684  -27.3185 H   0  0  0  0  0  0  0  0  0  0  0  0
    0.2848   26.1880  -25.5239 H   0  0  0  0  0  0  0  0  0  0  0  0
   -0.0336   23.8695  -24.6617 H   0  0  0  0  0  0  0  0  0  0  0  0
   -1.3719   22.2185  -25.9700 H   0  0  0  0  0  0  0  0  0  0  0  0
   -2.3791   22.8791  -28.1534 H   0  0  0  0  0  0  0  0  0  0  0  0
   -1.2177   22.7536  -29.7170 H   0  0  0  0  0  0  0  0  0  0  0  0
   -0.5747   20.6682  -30.9238 H   0  0  0  0  0  0  0  0  0  0  0  0
   -2.0645   19.7282  -32.6888 H   0  0  0  0  0  0  0  0  0  0  0  0
   -6.0384   22.3434  -32.1927 H   0  0  0  0  0  0  0  0  0  0  0  0
   -8.0354   23.5649  -31.3233 H   0  0  0  0  0  0  0  0  0  0  0  0
  -10.2575   22.4275  -31.2340 H   0  0  0  0  0  0  0  0  0  0  0  0
  -10.4834   20.0636  -32.0083 H   0  0  0  0  0  0  0  0  0  0  0  0
   -8.4862   18.8298  -32.8601 H   0  0  0  0  0  0  0  0  0  0  0  0
   -4.8011   23.0354  -32.1276 H   0  0  0  0  0  0  0  0  0  0  0  0
  1  2  1  0
  2  3  1  0
  3  4  2  0
  4  5  1  0
  5  6  2  0
  6  7  1  0
  7  8  2  0
  8  9  1  0
  9 10  1  0
 10 11  2  0
 10 12  2  0
 10 13  1  0
 13 14  2  0
 14 15  1  0
 15 16  2  0
 16 17  1  0
 17 18  1  0
 18 19  1  0
 19 20  2  0
 19 21  2  0
 19 22  1  0
 22 23  2  0
 23 24  1  0
 24 25  2  0
 25 26  1  0
 26 27  2  0
 17 28  2  0
  8  3  1  0
 28 13  1  0
 27 22  1  0
  1 29  1  0
  1 30  1  0
  1 31  1  0
  4 32  1  0
  5 33  1  0
  6 34  1  0
  7 35  1  0
 14 36  1  0
 15 37  1  0
 16 38  1  0
 23 39  1  0
 24 40  1  0
 25 41  1  0
 26 42  1  0
 27 43  1  0
 28 44  1  0
M  CHG  2   9  -1  18  -1
M  END
>  <UniqueID>  (17) 
16

>  <SMILES>  (17) 
COc1ccccc1[N-]S(=O)(=O)c1cccc([N-]S(=O)(=O)c2ccccc2)c1

>  <Energy>  (17) 
57.49675817913405

>  <Genealogy>  (17) 
COc1ccccc1[N-]S(=O)(=O)c1cccc([N-]S(=O)(=O)c2ccccc2)c1 (protonated)
COc1ccccc1[N-]S(=O)(=O)c1cccc([N-]S(=O)(=O)c2ccccc2)c1 (3D coordinates assigned)
COc1ccccc1[N-]S(=O)(=O)c1cccc([N-]S(=O)(=O)c2ccccc2)c1 (optimized conformer: 57.49675817913405 kcal/mol)

>  <smiles>  (17) 
COc1ccccc1NS(=O)(=O)c1cccc(NS(=O)(=O)c2ccccc2)c1

>  <score_type>  (17) 
oracle

>  <origin>  (17) 
adgpu

>  <m_score__min__energy>  (17) 
-11.26

>  <m_primary>  (17) 
energy

$$$$
17:0
     RDKit          3D

 38 39  0  0  0  0  0  0  0  0999 V2000
   -6.1490   15.8770  -33.8560 C   0  0  0  0  0  0  0  0  0  0  0  0
   -7.2380   16.3920  -33.0960 O   0  0  0  0  0  0  0  0  0  0  0  0
   -7.4230   17.7490  -32.7950 C   0  0  0  0  0  0  0  0  0  0  0  0
   -8.5270   18.2120  -32.0580 C   0  0  0  0  0  0  0  0  0  0  0  0
   -8.6670   19.5740  -31.7850 C   0  0  0  0  0  0  0  0  0  0  0  0
   -7.7120   20.4960  -32.2390 C   0  0  0  0  0  0  0  0  0  0  0  0
   -7.9010   21.9700  -31.9500 C   0  0  0  0  0  0  0  0  0  0  0  0
   -6.7770   22.7800  -32.4530 N   0  0  0  0  0  0  0  0  0  0  0  0
   -6.7290   24.1090  -31.8220 C   0  0  0  0  0  0  0  0  0  0  0  0
   -5.3940   24.3370  -31.1820 C   0  0  0  0  0  0  0  0  0  0  0  0
   -4.9890   25.4820  -30.5380 C   0  0  0  0  0  0  0  0  0  0  0  0
   -3.7550   25.2890  -30.0430 N   0  0  0  0  0  0  0  0  0  0  0  0
   -3.4600   24.0180  -30.3890 C   0  0  0  0  0  0  0  0  0  0  0  0
   -2.1490   23.3760  -30.0840 C   0  0  0  0  0  0  0  0  0  0  0  0
   -4.4350   23.4000  -31.0900 N   0  0  0  0  0  0  0  0  0  0  0  0
   -6.6030   20.0430  -32.9820 C   0  0  0  0  0  0  0  0  0  0  0  0
   -5.6580   20.9790  -33.4330 O   0  0  0  0  0  0  0  0  0  0  0  0
   -4.2520   20.8670  -33.2420 C   0  0  0  0  0  0  0  0  0  0  0  0
   -6.4710   18.6660  -33.2510 C   0  0  0  0  0  0  0  0  0  0  0  0
   -5.3684   15.5079  -33.1745 H   0  0  0  0  0  0  0  0  0  0  0  0
   -6.5028   15.0508  -34.4902 H   0  0  0  0  0  0  0  0  0  0  0  0
   -5.7348   16.6746  -34.4902 H   0  0  0  0  0  0  0  0  0  0  0  0
   -9.2825   17.4993  -31.6955 H   0  0  0  0  0  0  0  0  0  0  0  0
   -9.5345   19.9276  -31.2084 H   0  0  0  0  0  0  0  0  0  0  0  0
   -8.8285   22.3106  -32.4335 H   0  0  0  0  0  0  0  0  0  0  0  0
   -7.9507   22.0985  -30.8587 H   0  0  0  0  0  0  0  0  0  0  0  0
   -5.8890   22.2700  -32.2340 H   0  0  0  0  0  0  0  0  0  0  0  0
   -6.8470   22.8840  -33.4930 H   0  0  0  0  0  0  0  0  0  0  0  0
   -6.8999   24.8799  -32.5878 H   0  0  0  0  0  0  0  0  0  0  0  0
   -7.5090   24.1643  -31.0483 H   0  0  0  0  0  0  0  0  0  0  0  0
   -5.5790   26.4055  -30.4434 H   0  0  0  0  0  0  0  0  0  0  0  0
   -2.0172   23.3114  -28.9938 H   0  0  0  0  0  0  0  0  0  0  0  0
   -2.1264   22.3649  -30.5166 H   0  0  0  0  0  0  0  0  0  0  0  0
   -1.3364   23.9781  -30.5166 H   0  0  0  0  0  0  0  0  0  0  0  0
   -4.0285   20.8492  -32.1651 H   0  0  0  0  0  0  0  0  0  0  0  0
   -3.8917   19.9373  -33.7067 H   0  0  0  0  0  0  0  0  0  0  0  0
   -3.7491   21.7279  -33.7067 H   0  0  0  0  0  0  0  0  0  0  0  0
   -5.6061   18.3072  -33.8283 H   0  0  0  0  0  0  0  0  0  0  0  0
  1  2  1  0
  2  3  1  0
  3  4  2  0
  4  5  1  0
  5  6  2  0
  6  7  1  0
  7  8  1  0
  8  9  1  0
  9 10  1  0
 10 11  2  0
 11 12  1  0
 12 13  1  0
 13 14  1  0
 13 15  2  0
  6 16  1  0
 16 17  1  0
 17 18  1  0
 16 19  2  0
 19  3  1  0
 15 10  1  0
  1 20  1  0
  1 21  1  0
  1 22  1  0
  4 23  1  0
  5 24  1  0
  7 25  1  0
  7 26  1  0
  8 27  1  0
  8 28  1  0
  9 29  1  0
  9 30  1  0
 11 31  1  0
 14 32  1  0
 14 33  1  0
 14 34  1  0
 18 35  1  0
 18 36  1  0
 18 37  1  0
 19 38  1  0
M  CHG  2   8   1  12  -1
M  END
>  <UniqueID>  (18) 
17

>  <SMILES>  (18) 
COc1ccc(C[NH2+]Cc2c[n-]c(C)n2)c(OC)c1

>  <Energy>  (18) 
61.33362057458605

>  <Genealogy>  (18) 
COc1ccc(C[NH2+]Cc2c[n-]c(C)n2)c(OC)c1 (protonated)
COc1ccc(C[NH2+]Cc2c[n-]c(C)n2)c(OC)c1 (3D coordinates assigned)
COc1ccc(C[NH2+]Cc2c[n-]c(C)n2)c(OC)c1 (optimized conformer: 61.33362057458605 kcal/mol)

>  <smiles>  (18) 
COc1ccc(CNCc2c[nH]c(C)n2)c(OC)c1

>  <score_type>  (18) 
oracle

>  <origin>  (18) 
adgpu

>  <m_score__min__energy>  (18) 
-6.6100000000000003

>  <m_primary>  (18) 
energy

$$$$
18:0
     RDKit          3D

 35 37  0  0  0  0  0  0  0  0999 V2000
   -4.4310   23.8100  -31.5330 N   0  0  0  0  0  0  0  0  0  0  0  0
   -5.2890   24.4590  -30.8170 C   0  0  0  0  0  0  0  0  0  0  0  0
   -5.1330   25.5950  -30.1140 N   0  0  0  0  0  0  0  0  0  0  0  0
   -6.2680   25.9240  -29.5200 N   0  0  0  0  0  0  0  0  0  0  0  0
   -7.2290   25.0180  -29.8030 C   0  0  0  0  0  0  0  0  0  0  0  0
   -6.6230   24.0860  -30.6220 C   0  0  0  0  0  0  0  0  0  0  0  0
   -7.2100   22.8810  -31.2280 C   0  0  0  0  0  0  0  0  0  0  0  0
   -8.5680   22.7930  -31.4510 C   0  0  0  0  0  0  0  0  0  0  0  0
   -9.1560   21.6810  -32.0140 C   0  0  0  0  0  0  0  0  0  0  0  0
   -8.3180   20.6230  -32.3610 C   0  0  0  0  0  0  0  0  0  0  0  0
   -6.9430   20.6920  -32.1430 C   0  0  0  0  0  0  0  0  0  0  0  0
   -6.1570   19.5310  -32.5420 C   0  0  0  0  0  0  0  0  0  0  0  0
   -5.3480   19.0230  -31.7220 O   0  0  0  0  0  0  0  0  0  0  0  0
   -6.2670   18.9460  -33.8280 N   0  0  0  0  0  0  0  0  0  0  0  0
   -5.4340   17.8030  -34.0940 C   0  0  0  0  0  0  0  0  0  0  0  0
   -5.9800   16.5480  -33.9730 C   0  0  0  0  0  0  0  0  0  0  0  0
   -7.2760   16.3400  -33.6130 F   0  0  0  0  0  0  0  0  0  0  0  0
   -5.1290   15.4720  -34.2420 C   0  0  0  0  0  0  0  0  0  0  0  0
   -3.8120   15.6570  -34.6090 C   0  0  0  0  0  0  0  0  0  0  0  0
   -3.2880   16.9280  -34.7230 C   0  0  0  0  0  0  0  0  0  0  0  0
   -4.1070   18.0070  -34.4640 C   0  0  0  0  0  0  0  0  0  0  0  0
   -3.5960   19.2760  -34.5740 F   0  0  0  0  0  0  0  0  0  0  0  0
   -6.3980   21.8050  -31.5860 C   0  0  0  0  0  0  0  0  0  0  0  0
   -3.4670   24.2040  -31.5900 H   0  0  0  0  0  0  0  0  0  0  0  0
   -4.2040   26.0970  -30.0890 H   0  0  0  0  0  0  0  0  0  0  0  0
   -6.3600   26.7690  -28.9270 H   0  0  0  0  0  0  0  0  0  0  0  0
   -8.2725   25.0218  -29.4550 H   0  0  0  0  0  0  0  0  0  0  0  0
   -9.2065   23.6431  -31.1686 H   0  0  0  0  0  0  0  0  0  0  0  0
  -10.2419   21.6306  -32.1825 H   0  0  0  0  0  0  0  0  0  0  0  0
   -8.7489   19.7182  -32.8146 H   0  0  0  0  0  0  0  0  0  0  0  0
   -6.9240   19.3310  -34.5410 H   0  0  0  0  0  0  0  0  0  0  0  0
   -5.5210   14.4476  -34.1586 H   0  0  0  0  0  0  0  0  0  0  0  0
   -3.1746   14.7839  -34.8124 H   0  0  0  0  0  0  0  0  0  0  0  0
   -2.2380   17.0779  -35.0146 H   0  0  0  0  0  0  0  0  0  0  0  0
   -5.3124   21.8577  -31.4168 H   0  0  0  0  0  0  0  0  0  0  0  0
  1  2  2  3
  2  3  1  0
  3  4  1  0
  4  5  1  0
  5  6  2  0
  6  7  1  0
  7  8  2  0
  8  9  1  0
  9 10  2  0
 10 11  1  0
 11 12  1  0
 12 13  2  0
 12 14  1  0
 14 15  1  0
 15 16  2  0
 16 17  1  0
 16 18  1  0
 18 19  2  0
 19 20  1  0
 20 21  2  0
 21 22  1  0
 11 23  2  0
  6  2  1  0
 23  7  1  0
 21 15  1  0
  1 24  1  0
  3 25  1  0
  4 26  1  0
  5 27  1  0
  8 28  1  0
  9 29  1  0
 10 30  1  0
 14 31  1  0
 18 32  1  0
 19 33  1  0
 20 34  1  0
 23 35  1  0
M  END
>  <smiles>  (19) 
N=c1[nH][nH]cc1-c1cccc(C(=O)Nc2c(F)cccc2F)c1

>  <score_type>  (19) 
oracle

>  <origin>  (19) 
adgpu

>  <m_score__min__energy>  (19) 
-8.2400000000000002

>  <m_primary>  (19) 
energy

$$$$
19:0
     RDKit          3D

 25 26  0  0  0  0  0  0  0  0999 V2000
   -7.9800   23.3470  -31.9870 C   0  0  0  0  0  0  0  0  0  0  0  0
   -7.6760   21.8740  -31.9820 C   0  0  0  0  0  0  0  0  0  0  0  0
   -8.6940   20.9570  -31.6660 C   0  0  0  0  0  0  0  0  0  0  0  0
   -8.4360   19.5860  -31.6610 C   0  0  0  0  0  0  0  0  0  0  0  0
   -7.1630   19.1110  -31.9830 C   0  0  0  0  0  0  0  0  0  0  0  0
   -6.8460   17.3860  -31.9900 Cl  0  0  0  0  0  0  0  0  0  0  0  0
   -6.1450   20.0090  -32.3110 C   0  0  0  0  0  0  0  0  0  0  0  0
   -6.3860   21.3960  -32.3040 C   0  0  0  0  0  0  0  0  0  0  0  0
   -5.3410   22.3110  -32.6840 N   0  0  0  0  0  0  0  0  0  0  0  0
   -4.6700   23.1960  -31.7720 C   0  0  0  0  0  0  0  0  0  0  0  0
   -3.5120   22.8030  -31.0830 C   0  0  0  0  0  0  0  0  0  0  0  0
   -2.9260   23.7040  -30.1920 C   0  0  0  0  0  0  0  0  0  0  0  0
   -1.8830   23.3860  -29.5640 O   0  0  0  0  0  0  0  0  0  0  0  0
   -3.4870   24.9250  -29.9970 N   0  0  0  0  0  0  0  0  0  0  0  0
   -4.6180   25.2860  -30.6570 C   0  0  0  0  0  0  0  0  0  0  0  0
   -5.1270   26.4190  -30.4570 O   0  0  0  0  0  0  0  0  0  0  0  0
   -5.2020   24.4240  -31.5290 N   0  0  0  0  0  0  0  0  0  0  0  0
   -8.0548   23.7095  -30.9511 H   0  0  0  0  0  0  0  0  0  0  0  0
   -7.1742   23.8859  -32.5068 H   0  0  0  0  0  0  0  0  0  0  0  0
   -8.9334   23.5229  -32.5068 H   0  0  0  0  0  0  0  0  0  0  0  0
   -9.7017   21.3235  -31.4208 H   0  0  0  0  0  0  0  0  0  0  0  0
   -9.2370   18.8777  -31.4029 H   0  0  0  0  0  0  0  0  0  0  0  0
   -5.1473   19.6297  -32.5768 H   0  0  0  0  0  0  0  0  0  0  0  0
   -5.0270   22.3170  -33.6800 H   0  0  0  0  0  0  0  0  0  0  0  0
   -3.0753   21.8059  -31.2417 H   0  0  0  0  0  0  0  0  0  0  0  0
  1  2  1  0
  2  3  2  0
  3  4  1  0
  4  5  2  0
  5  6  1  0
  5  7  1  0
  7  8  2  0
  8  9  1  0
  9 10  1  0
 10 11  2  0
 11 12  1  0
 12 13  2  0
 12 14  1  0
 14 15  1  0
 15 16  2  0
 15 17  1  0
  8  2  1  0
 17 10  1  0
  1 18  1  0
  1 19  1  0
  1 20  1  0
  3 21  1  0
  4 22  1  0
  7 23  1  0
  9 24  1  0
 11 25  1  0
M  CHG  2  14  -1  17  -1
M  END
>  <UniqueID>  (20) 
18

>  <SMILES>  (20) 
Cc1ccc(Cl)cc1Nc1cc(=O)[n-]c(=O)[n-]1

>  <Energy>  (20) 
32.44028256992902

>  <Genealogy>  (20) 
Cc1ccc(Cl)cc1Nc1cc(=O)[n-]c(=O)[n-]1 (protonated)
Cc1ccc(Cl)cc1Nc1cc(=O)[n-]c(=O)[n-]1 (3D coordinates assigned)
Cc1ccc(Cl)cc1Nc1cc(=O)[n-]c(=O)[n-]1 (optimized conformer: 32.44028256992902 kcal/mol)

>  <smiles>  (20) 
Cc1ccc(Cl)cc1Nc1cc(=O)[nH]c(=O)[nH]1

>  <score_type>  (20) 
oracle

>  <origin>  (20) 
adgpu

>  <m_score__min__energy>  (20) 
-9.5500000000000007

>  <m_primary>  (20) 
energy

$$$$
20:0
     RDKit          3D

 50 53  0  0  0  0  0  0  0  0999 V2000
   -0.6230   27.1020  -23.6110 C   0  0  0  0  0  0  0  0  0  0  0  0
   -0.8820   26.1050  -24.7070 C   0  0  0  0  0  0  0  0  0  0  0  0
   -2.1570   26.0200  -25.2900 C   0  0  0  0  0  0  0  0  0  0  0  0
   -2.4110   25.0980  -26.3080 C   0  0  0  0  0  0  0  0  0  0  0  0
   -1.3960   24.2430  -26.7620 C   0  0  0  0  0  0  0  0  0  0  0  0
   -1.6590   23.3020  -27.8230 N   0  0  0  0  0  0  0  0  0  0  0  0
   -0.7230   23.1840  -28.9500 C   0  0  0  0  0  0  0  0  0  0  0  0
   -1.3970   22.5220  -30.1580 C   0  0  0  0  0  0  0  0  0  0  0  0
   -2.8190   22.8990  -30.1810 N   0  0  0  0  0  0  0  0  0  0  0  0
   -3.4680   22.7040  -31.4990 C   0  0  0  0  0  0  0  0  0  0  0  0
   -4.9870   22.6100  -31.4420 C   0  0  0  0  0  0  0  0  0  0  0  0
   -5.5970   21.4190  -31.8830 C   0  0  0  0  0  0  0  0  0  0  0  0
   -6.9900   21.3000  -31.9400 C   0  0  0  0  0  0  0  0  0  0  0  0
   -7.5880   20.1150  -32.4000 C   0  0  0  0  0  0  0  0  0  0  0  0
   -8.9810   20.0100  -32.4610 C   0  0  0  0  0  0  0  0  0  0  0  0
   -9.7840   21.0830  -32.0650 C   0  0  0  0  0  0  0  0  0  0  0  0
   -9.2000   22.2660  -31.6050 C   0  0  0  0  0  0  0  0  0  0  0  0
   -7.8020   22.3830  -31.5410 C   0  0  0  0  0  0  0  0  0  0  0  0
   -7.2050   23.5600  -31.0740 C   0  0  0  0  0  0  0  0  0  0  0  0
   -5.8080   23.6800  -30.9990 C   0  0  0  0  0  0  0  0  0  0  0  0
   -5.2510   24.8800  -30.4430 N   0  0  0  0  0  0  0  0  0  0  0  0
   -4.1520   25.3030  -30.8580 O   0  0  0  0  0  0  0  0  0  0  0  0
   -6.0360   25.7110  -29.6790 O   0  0  0  0  0  0  0  0  0  0  0  0
   -3.5690   22.2990  -29.0560 C   0  0  0  0  0  0  0  0  0  0  0  0
   -2.7830   22.3620  -27.7290 C   0  0  0  0  0  0  0  0  0  0  0  0
   -0.1180   24.3330  -26.1880 C   0  0  0  0  0  0  0  0  0  0  0  0
    0.1420   25.2530  -25.1650 C   0  0  0  0  0  0  0  0  0  0  0  0
    1.7630   25.3130  -24.4800 Cl  0  0  0  0  0  0  0  0  0  0  0  0
   -0.7499   26.6136  -22.6336 H   0  0  0  0  0  0  0  0  0  0  0  0
    0.4044   27.4849  -23.6989 H   0  0  0  0  0  0  0  0  0  0  0  0
   -1.3341   27.9366  -23.6989 H   0  0  0  0  0  0  0  0  0  0  0  0
   -2.9616   26.6846  -24.9422 H   0  0  0  0  0  0  0  0  0  0  0  0
   -3.4138   25.0420  -26.7567 H   0  0  0  0  0  0  0  0  0  0  0  0
   -0.3770   24.1880  -29.2367 H   0  0  0  0  0  0  0  0  0  0  0  0
    0.1258   22.5586  -28.6363 H   0  0  0  0  0  0  0  0  0  0  0  0
   -0.9104   22.8625  -31.0839 H   0  0  0  0  0  0  0  0  0  0  0  0
   -1.3042   21.4286  -30.0816 H   0  0  0  0  0  0  0  0  0  0  0  0
   -3.1994   23.5534  -32.1443 H   0  0  0  0  0  0  0  0  0  0  0  0
   -3.1072   21.7405  -31.8882 H   0  0  0  0  0  0  0  0  0  0  0  0
   -4.9682   20.5693  -32.1873 H   0  0  0  0  0  0  0  0  0  0  0  0
   -6.9593   19.2683  -32.7127 H   0  0  0  0  0  0  0  0  0  0  0  0
   -9.4459   19.0806  -32.8216 H   0  0  0  0  0  0  0  0  0  0  0  0
  -10.8794   20.9959  -32.1156 H   0  0  0  0  0  0  0  0  0  0  0  0
   -9.8363   23.1071  -31.2925 H   0  0  0  0  0  0  0  0  0  0  0  0
   -7.8392   24.4027  -30.7614 H   0  0  0  0  0  0  0  0  0  0  0  0
   -4.5167   22.8435  -28.9321 H   0  0  0  0  0  0  0  0  0  0  0  0
   -3.7431   21.2393  -29.2944 H   0  0  0  0  0  0  0  0  0  0  0  0
   -3.4595   22.6905  -26.9263 H   0  0  0  0  0  0  0  0  0  0  0  0
   -2.3829   21.3604  -27.5127 H   0  0  0  0  0  0  0  0  0  0  0  0
    0.6871   23.6742  -26.5455 H   0  0  0  0  0  0  0  0  0  0  0  0
  1  2  1  0
  2  3  2  0
  3  4  1  0
  4  5  2  0
  5  6  1  0
  6  7  1  0
  7  8  1  0
  8  9  1  0
  9 10  1  0
 10 11  1  0
 11 12  2  0
 12 13  1  0
 13 14  2  0
 14 15  1  0
 15 16  2  0
 16 17  1  0
 17 18  2  0
 18 19  1  0
 19 20  2  0
 20 21  1  0
 21 22  2  0
 21 23  1  0
  9 24  1  0
 24 25  1  0
  5 26  1  0
 26 27  2  0
 27 28  1  0
 27  2  1  0
 25  6  1  0
 20 11  1  0
 18 13  1  0
  1 29  1  0
  1 30  1  0
  1 31  1  0
  3 32  1  0
  4 33  1  0
  7 34  1  0
  7 35  1  0
  8 36  1  0
  8 37  1  0
 10 38  1  0
 10 39  1  0
 12 40  1  0
 14 41  1  0
 15 42  1  0
 16 43  1  0
 17 44  1  0
 19 45  1  0
 24 46  1  0
 24 47  1  0
 25 48  1  0
 25 49  1  0
 26 50  1  0
M  CHG  2  21   1  23  -1
M  END
>  <UniqueID>  (21) 
19

>  <SMILES>  (21) 
Cc1ccc(N2CCN(Cc3cc4ccccc4cc3[N+](=O)[O-])CC2)cc1Cl

>  <Energy>  (21) 
77.28893134409579

>  <Genealogy>  (21) 
Cc1ccc(N2CCN(Cc3cc4ccccc4cc3[N+](=O)[O-])CC2)cc1Cl (3D coordinates assigned)
Cc1ccc(N2CCN(Cc3cc4ccccc4cc3[N+](=O)[O-])CC2)cc1Cl (nonaromatic ring conformer: 77.28893134409579 kcal/mol)

>  <smiles>  (21) 
Cc1ccc(N2CCN(Cc3cc4ccccc4cc3[N+](=O)[O-])CC2)cc1Cl

>  <score_type>  (21) 
oracle

>  <origin>  (21) 
adgpu

>  <m_score__min__energy>  (21) 
-10.630000000000001

>  <m_primary>  (21) 
energy

$$$$
21:0
     RDKit          3D

 31 32  0  0  0  0  0  0  0  0999 V2000
   -0.8290   26.4390  -23.8990 C   0  0  0  0  0  0  0  0  0  0  0  0
   -0.8480   26.7300  -25.2930 O   0  0  0  0  0  0  0  0  0  0  0  0
   -1.5240   25.9620  -26.2520 C   0  0  0  0  0  0  0  0  0  0  0  0
   -2.7410   25.3120  -25.9780 C   0  0  0  0  0  0  0  0  0  0  0  0
   -3.3770   24.5580  -26.9700 C   0  0  0  0  0  0  0  0  0  0  0  0
   -2.8210   24.4560  -28.2530 C   0  0  0  0  0  0  0  0  0  0  0  0
   -3.4860   23.6560  -29.2470 N   0  0  0  0  0  0  0  0  0  0  0  0
   -3.9130   24.1460  -30.5260 C   0  0  0  0  0  0  0  0  0  0  0  0
   -3.8720   25.3780  -30.7840 O   0  0  0  0  0  0  0  0  0  0  0  0
   -4.3760   23.2120  -31.5090 N   0  0  0  0  0  0  0  0  0  0  0  0
   -5.7220   22.7420  -31.6770 C   0  0  0  0  0  0  0  0  0  0  0  0
   -6.8370   23.5750  -31.4600 C   0  0  0  0  0  0  0  0  0  0  0  0
   -8.1310   23.0700  -31.6130 C   0  0  0  0  0  0  0  0  0  0  0  0
   -8.3270   21.7330  -31.9690 C   0  0  0  0  0  0  0  0  0  0  0  0
   -7.2250   20.8940  -32.1620 C   0  0  0  0  0  0  0  0  0  0  0  0
   -7.4680   19.2110  -32.5930 Cl  0  0  0  0  0  0  0  0  0  0  0  0
   -5.9270   21.3960  -32.0080 C   0  0  0  0  0  0  0  0  0  0  0  0
   -1.5940   25.0880  -28.5190 C   0  0  0  0  0  0  0  0  0  0  0  0
   -0.9590   25.8400  -27.5260 C   0  0  0  0  0  0  0  0  0  0  0  0
   -0.8902   27.3770  -23.3277 H   0  0  0  0  0  0  0  0  0  0  0  0
   -1.6873   25.7991  -23.6463 H   0  0  0  0  0  0  0  0  0  0  0  0
    0.1052   25.9161  -23.6463 H   0  0  0  0  0  0  0  0  0  0  0  0
   -3.1945   25.3969  -24.9795 H   0  0  0  0  0  0  0  0  0  0  0  0
   -4.3207   24.0411  -26.7416 H   0  0  0  0  0  0  0  0  0  0  0  0
   -3.7610   22.6800  -28.9920 H   0  0  0  0  0  0  0  0  0  0  0  0
   -6.6888   24.6255  -31.1694 H   0  0  0  0  0  0  0  0  0  0  0  0
   -8.9983   23.7273  -31.4526 H   0  0  0  0  0  0  0  0  0  0  0  0
   -9.3468   21.3410  -32.0972 H   0  0  0  0  0  0  0  0  0  0  0  0
   -5.0630   20.7297  -32.1477 H   0  0  0  0  0  0  0  0  0  0  0  0
   -1.1316   24.9906  -29.5123 H   0  0  0  0  0  0  0  0  0  0  0  0
   -0.0053   26.3409  -27.7488 H   0  0  0  0  0  0  0  0  0  0  0  0
  1  2  1  0
  2  3  1  0
  3  4  2  0
  4  5  1  0
  5  6  2  0
  6  7  1  0
  7  8  1  0
  8  9  2  0
  8 10  1  0
 10 11  1  0
 11 12  2  0
 12 13  1  0
 13 14  2  0
 14 15  1  0
 15 16  1  0
 15 17  2  0
  6 18  1  0
 18 19  2  0
 19  3  1  0
 17 11  1  0
  1 20  1  0
  1 21  1  0
  1 22  1  0
  4 23  1  0
  5 24  1  0
  7 25  1  0
 12 26  1  0
 13 27  1  0
 14 28  1  0
 17 29  1  0
 18 30  1  0
 19 31  1  0
M  CHG  1  10  -1
M  END
>  <UniqueID>  (22) 
20

>  <SMILES>  (22) 
COc1ccc(NC(=O)[N-]c2cccc(Cl)c2)cc1

>  <Energy>  (22) 
37.58854507787599

>  <Genealogy>  (22) 
COc1ccc(NC(=O)[N-]c2cccc(Cl)c2)cc1 (protonated)
COc1ccc(NC(=O)[N-]c2cccc(Cl)c2)cc1 (3D coordinates assigned)
COc1ccc(NC(=O)[N-]c2cccc(Cl)c2)cc1 (optimized conformer: 37.58854507787599 kcal/mol)

>  <smiles>  (22) 
COc1ccc(NC(=O)Nc2cccc(Cl)c2)cc1

>  <score_type>  (22) 
oracle

>  <origin>  (22) 
adgpu

>  <m_score__min__energy>  (22) 
-8.1300000000000008

>  <m_primary>  (22) 
energy

$$$$
22:0
     RDKit          3D

 35 36  0  0  0  0  0  0  0  0999 V2000
   -3.8710   23.1880  -27.8710 C   0  0  0  0  0  0  0  0  0  0  0  0
   -4.6130   24.5160  -28.0110 C   0  0  0  0  0  0  0  0  0  0  0  0
   -5.4430   24.5920  -29.2990 C   0  0  0  0  0  0  0  0  0  0  0  0
   -4.6290   24.2000  -30.5050 C   0  0  0  0  0  0  0  0  0  0  0  0
   -3.6330   24.9080  -30.8200 O   0  0  0  0  0  0  0  0  0  0  0  0
   -4.9170   23.0000  -31.2550 N   0  0  0  0  0  0  0  0  0  0  0  0
   -3.8400   22.2470  -31.8550 C   0  0  0  0  0  0  0  0  0  0  0  0
   -2.5920   22.1470  -31.2120 C   0  0  0  0  0  0  0  0  0  0  0  0
   -1.5560   21.4070  -31.7890 C   0  0  0  0  0  0  0  0  0  0  0  0
   -1.7530   20.7600  -33.0100 C   0  0  0  0  0  0  0  0  0  0  0  0
   -2.9880   20.8500  -33.6580 C   0  0  0  0  0  0  0  0  0  0  0  0
   -4.0270   21.5880  -33.0840 C   0  0  0  0  0  0  0  0  0  0  0  0
   -6.2780   22.5560  -31.4230 C   0  0  0  0  0  0  0  0  0  0  0  0
   -6.6120   21.2060  -31.2220 C   0  0  0  0  0  0  0  0  0  0  0  0
   -7.9300   20.7730  -31.3930 C   0  0  0  0  0  0  0  0  0  0  0  0
   -8.9230   21.6810  -31.7710 C   0  0  0  0  0  0  0  0  0  0  0  0
   -8.5980   23.0240  -31.9800 C   0  0  0  0  0  0  0  0  0  0  0  0
   -7.2800   23.4610  -31.8100 C   0  0  0  0  0  0  0  0  0  0  0  0
   -3.7393   22.9522  -26.8047 H   0  0  0  0  0  0  0  0  0  0  0  0
   -4.4538   22.3897  -28.3538 H   0  0  0  0  0  0  0  0  0  0  0  0
   -2.8857   23.2658  -28.3538 H   0  0  0  0  0  0  0  0  0  0  0  0
   -5.2865   24.6363  -27.1497 H   0  0  0  0  0  0  0  0  0  0  0  0
   -3.8602   25.3171  -28.0506 H   0  0  0  0  0  0  0  0  0  0  0  0
   -6.3023   23.9109  -29.2111 H   0  0  0  0  0  0  0  0  0  0  0  0
   -5.7786   25.6310  -29.4323 H   0  0  0  0  0  0  0  0  0  0  0  0
   -2.4309   22.6544  -30.2494 H   0  0  0  0  0  0  0  0  0  0  0  0
   -0.5836   21.3344  -31.2799 H   0  0  0  0  0  0  0  0  0  0  0  0
   -0.9358   20.1790  -33.4624 H   0  0  0  0  0  0  0  0  0  0  0  0
   -3.1424   20.3398  -34.6202 H   0  0  0  0  0  0  0  0  0  0  0  0
   -4.9979   21.6541  -33.5968 H   0  0  0  0  0  0  0  0  0  0  0  0
   -5.8330   20.4869  -30.9288 H   0  0  0  0  0  0  0  0  0  0  0  0
   -8.1861   19.7158  -31.2298 H   0  0  0  0  0  0  0  0  0  0  0  0
   -9.9599   21.3387  -31.9039 H   0  0  0  0  0  0  0  0  0  0  0  0
   -9.3794   23.7383  -32.2785 H   0  0  0  0  0  0  0  0  0  0  0  0
   -7.0273   24.5180  -31.9801 H   0  0  0  0  0  0  0  0  0  0  0  0
  1  2  1  0
  2  3  1  0
  3  4  1  0
  4  5  2  0
  4  6  1  0
  6  7  1  0
  7  8  2  0
  8  9  1  0
  9 10  2  0
 10 11  1  0
 11 12  2  0
  6 13  1  0
 13 14  2  0
 14 15  1  0
 15 16  2  0
 16 17  1  0
 17 18  2  0
 12  7  1  0
 18 13  1  0
  1 19  1  0
  1 20  1  0
  1 21  1  0
  2 22  1  0
  2 23  1  0
  3 24  1  0
  3 25  1  0
  8 26  1  0
  9 27  1  0
 10 28  1  0
 11 29  1  0
 12 30  1  0
 14 31  1  0
 15 32  1  0
 16 33  1  0
 17 34  1  0
 18 35  1  0
M  END
>  <UniqueID>  (23) 
21

>  <SMILES>  (23) 
CCCC(=O)N(c1ccccc1)c1ccccc1

>  <Energy>  (23) 
40.38817883715025

>  <Genealogy>  (23) 
CCCC(=O)N(c1ccccc1)c1ccccc1 (3D coordinates assigned)
CCCC(=O)N(c1ccccc1)c1ccccc1 (optimized conformer: 40.38817883715025 kcal/mol)

>  <smiles>  (23) 
CCCC(=O)N(c1ccccc1)c1ccccc1

>  <score_type>  (23) 
oracle

>  <origin>  (23) 
adgpu

>  <m_score__min__energy>  (23) 
-6.9400000000000004

>  <m_primary>  (23) 
energy

$$$$
23:0
     RDKit          3D

 56 60  0  0  0  0  0  0  0  0999 V2000
   -9.8270   21.2920  -32.1600 O   0  0  0  0  0  0  0  0  0  0  0  0
   -8.6290   21.3560  -31.7670 C   0  0  0  0  0  0  0  0  0  0  0  0
   -8.2160   22.4820  -31.0560 C   0  0  0  0  0  0  0  0  0  0  0  0
   -6.8920   22.5600  -30.6190 C   0  0  0  0  0  0  0  0  0  0  0  0
   -6.4130   23.7330  -29.8140 C   0  0  0  0  0  0  0  0  0  0  0  0
   -5.3310   24.8250  -30.8050 S   0  0  0  0  0  0  0  0  0  0  0  0
   -3.9390   23.6880  -30.8280 C   0  0  0  0  0  0  0  0  0  0  0  0
   -3.7490   22.8010  -31.8190 N   0  0  0  0  0  0  0  0  0  0  0  0
   -2.6730   22.0990  -31.5050 N   0  0  0  0  0  0  0  0  0  0  0  0
   -2.2200   22.5640  -30.3240 C   0  0  0  0  0  0  0  0  0  0  0  0
   -1.0380   21.9380  -29.6290 C   0  0  0  0  0  0  0  0  0  0  0  0
   -1.4450   20.9140  -28.5910 C   0  0  0  0  0  0  0  0  0  0  0  0
   -0.5290   19.9210  -28.1990 C   0  0  0  0  0  0  0  0  0  0  0  0
   -0.8940   18.9460  -27.2650 C   0  0  0  0  0  0  0  0  0  0  0  0
   -2.1840   18.9370  -26.7310 C   0  0  0  0  0  0  0  0  0  0  0  0
   -3.1140   19.8950  -27.1390 C   0  0  0  0  0  0  0  0  0  0  0  0
   -2.7540   20.8720  -28.0720 C   0  0  0  0  0  0  0  0  0  0  0  0
   -3.0000   23.5760  -29.8600 N   0  0  0  0  0  0  0  0  0  0  0  0
   -2.8640   24.4370  -28.6690 C   0  0  0  0  0  0  0  0  0  0  0  0
   -1.3800   24.6110  -28.2580 C   0  0  0  0  0  0  0  0  0  0  0  0
   -1.1980   24.8330  -26.7440 C   0  0  0  0  0  0  0  0  0  0  0  0
   -2.3500   25.6590  -26.1550 C   0  0  0  0  0  0  0  0  0  0  0  0
   -3.7220   24.9700  -26.3420 C   0  0  0  0  0  0  0  0  0  0  0  0
   -3.7460   23.9590  -27.5040 C   0  0  0  0  0  0  0  0  0  0  0  0
   -6.0410   21.5390  -30.8870 N   0  0  0  0  0  0  0  0  0  0  0  0
   -6.4420   20.4430  -31.5820 C   0  0  0  0  0  0  0  0  0  0  0  0
   -5.5220   19.4200  -31.8320 C   0  0  0  0  0  0  0  0  0  0  0  0
   -5.9250   18.2920  -32.5410 C   0  0  0  0  0  0  0  0  0  0  0  0
   -7.2390   18.1920  -32.9920 C   0  0  0  0  0  0  0  0  0  0  0  0
   -8.1390   19.2260  -32.7280 C   0  0  0  0  0  0  0  0  0  0  0  0
   -7.7430   20.3400  -32.0290 N   0  0  0  0  0  0  0  0  0  0  0  0
   -8.9230   23.2972  -30.8424 H   0  0  0  0  0  0  0  0  0  0  0  0
   -7.2838   24.3097  -29.4687 H   0  0  0  0  0  0  0  0  0  0  0  0
   -5.8329   23.3532  -28.9600 H   0  0  0  0  0  0  0  0  0  0  0  0
   -0.4080   21.4434  -30.3830 H   0  0  0  0  0  0  0  0  0  0  0  0
   -0.4955   22.7409  -29.1084 H   0  0  0  0  0  0  0  0  0  0  0  0
    0.4827   19.9112  -28.6306 H   0  0  0  0  0  0  0  0  0  0  0  0
   -0.1640   18.1855  -26.9508 H   0  0  0  0  0  0  0  0  0  0  0  0
   -2.4674   18.1756  -25.9894 H   0  0  0  0  0  0  0  0  0  0  0  0
   -4.1331   19.8811  -26.7251 H   0  0  0  0  0  0  0  0  0  0  0  0
   -3.4973   21.6123  -28.4028 H   0  0  0  0  0  0  0  0  0  0  0  0
   -3.2363   25.4347  -28.9446 H   0  0  0  0  0  0  0  0  0  0  0  0
   -0.8270   23.7056  -28.5487 H   0  0  0  0  0  0  0  0  0  0  0  0
   -0.9988   25.5065  -28.7706 H   0  0  0  0  0  0  0  0  0  0  0  0
   -1.1650   23.8555  -26.2406 H   0  0  0  0  0  0  0  0  0  0  0  0
   -0.2603   25.3860  -26.5861 H   0  0  0  0  0  0  0  0  0  0  0  0
   -2.1693   25.8013  -25.0793 H   0  0  0  0  0  0  0  0  0  0  0  0
   -2.3811   26.6208  -26.6879 H   0  0  0  0  0  0  0  0  0  0  0  0
   -3.9749   24.4389  -25.4125 H   0  0  0  0  0  0  0  0  0  0  0  0
   -4.4509   25.7580  -26.5823 H   0  0  0  0  0  0  0  0  0  0  0  0
   -3.3723   22.9889  -27.1445 H   0  0  0  0  0  0  0  0  0  0  0  0
   -4.7810   23.8639  -27.8643 H   0  0  0  0  0  0  0  0  0  0  0  0
   -4.4866   19.5061  -31.4707 H   0  0  0  0  0  0  0  0  0  0  0  0
   -5.2084   17.4826  -32.7444 H   0  0  0  0  0  0  0  0  0  0  0  0
   -7.5656   17.3038  -33.5527 H   0  0  0  0  0  0  0  0  0  0  0  0
   -9.1769   19.1477  -33.0838 H   0  0  0  0  0  0  0  0  0  0  0  0
  1  2  2  0
  2  3  1  0
  3  4  2  0
  4  5  1  0
  5  6  1  0
  6  7  1  0
  7  8  2  0
  8  9  1  0
  9 10  2  0
 10 11  1  0
 11 12  1  0
 12 13  2  0
 13 14  1  0
 14 15  2  0
 15 16  1  0
 16 17  2  0
 10 18  1  0
 18 19  1  0
 19 20  1  0
 20 21  1  0
 21 22  1  0
 22 23  1  0
 23 24  1  0
  4 25  1  0
 25 26  2  0
 26 27  1  0
 27 28  2  0
 28 29  1  0
 29 30  2  0
 30 31  1  0
 31  2  1  0
 18  7  1  0
 24 19  1  0
 31 26  1  0
 17 12  1  0
  3 32  1  0
  5 33  1  0
  5 34  1  0
 11 35  1  0
 11 36  1  0
 13 37  1  0
 14 38  1  0
 15 39  1  0
 16 40  1  0
 17 41  1  0
 19 42  1  0
 20 43  1  0
 20 44  1  0
 21 45  1  0
 21 46  1  0
 22 47  1  0
 22 48  1  0
 23 49  1  0
 23 50  1  0
 24 51  1  0
 24 52  1  0
 27 53  1  0
 28 54  1  0
 29 55  1  0
 30 56  1  0
M  END
>  <UniqueID>  (24) 
22

>  <SMILES>  (24) 
O=c1cc(CSc2nnc(Cc3ccccc3)n2C2CCCCC2)nc2ccccn12

>  <Energy>  (24) 
98.34931383657546

>  <Genealogy>  (24) 
O=c1cc(CSc2nnc(Cc3ccccc3)n2C2CCCCC2)nc2ccccn12 (3D coordinates assigned)
O=c1cc(CSc2nnc(Cc3ccccc3)n2C2CCCCC2)nc2ccccn12 (nonaromatic ring conformer: 98.34931383657546 kcal/mol)

>  <smiles>  (24) 
O=c1cc(CSc2nnc(Cc3ccccc3)n2C2CCCCC2)nc2ccccn12

>  <score_type>  (24) 
oracle

>  <origin>  (24) 
adgpu

>  <m_score__min__energy>  (24) 
-10.369999999999999

>  <m_primary>  (24) 
energy

$$$$
24:0
     RDKit          3D

 25 26  0  0  0  0  0  0  0  0999 V2000
   -4.7800   25.6720  -31.6470 H   0  0  0  0  0  0  0  0  0  0  0  0
   -4.1130   25.6710  -30.8460 N   0  0  0  0  0  0  0  0  0  0  0  0
   -3.5660   24.6060  -30.3490 C   0  0  0  0  0  0  0  0  0  0  0  0
   -2.7580   24.7340  -29.2630 N   0  0  0  0  0  0  0  0  0  0  0  0
   -2.2110   23.6540  -28.6480 C   0  0  0  0  0  0  0  0  0  0  0  0
   -1.5489   23.7861  -27.7796 H   0  0  0  0  0  0  0  0  0  0  0  0
   -2.4960   22.3770  -29.1270 C   0  0  0  0  0  0  0  0  0  0  0  0
   -2.0814   21.4905  -28.6249 H   0  0  0  0  0  0  0  0  0  0  0  0
   -3.2900   22.2370  -30.2190 N   0  0  0  0  0  0  0  0  0  0  0  0
   -3.8170   23.3100  -30.8650 C   0  0  0  0  0  0  0  0  0  0  0  0
   -4.5970   23.0800  -32.0070 O   0  0  0  0  0  0  0  0  0  0  0  0
   -5.7010   22.2130  -32.0780 C   0  0  0  0  0  0  0  0  0  0  0  0
   -5.5360   21.0130  -32.7870 C   0  0  0  0  0  0  0  0  0  0  0  0
   -4.3480   20.7320  -33.3760 F   0  0  0  0  0  0  0  0  0  0  0  0
   -6.5770   20.0850  -32.8640 C   0  0  0  0  0  0  0  0  0  0  0  0
   -6.4335   19.1435  -33.4144 H   0  0  0  0  0  0  0  0  0  0  0  0
   -7.7990   20.3500  -32.2440 C   0  0  0  0  0  0  0  0  0  0  0  0
   -9.0990   19.1760  -32.3350 Cl  0  0  0  0  0  0  0  0  0  0  0  0
   -7.9910   21.5550  -31.5660 C   0  0  0  0  0  0  0  0  0  0  0  0
   -8.9579   21.7598  -31.0830 H   0  0  0  0  0  0  0  0  0  0  0  0
   -6.9610   22.5100  -31.4940 C   0  0  0  0  0  0  0  0  0  0  0  0
   -7.2420   23.8260  -30.8200 C   0  0  0  0  0  0  0  0  0  0  0  0
   -7.2135   23.6924  -29.7285 H   0  0  0  0  0  0  0  0  0  0  0  0
   -6.4806   24.5613  -31.1194 H   0  0  0  0  0  0  0  0  0  0  0  0
   -8.2373   24.1862  -31.1194 H   0  0  0  0  0  0  0  0  0  0  0  0
  1  2  1  0
  2  3  2  0
  3  4  1  0
  4  5  1  0
  5  6  1  0
  5  7  2  0
  7  8  1  0
  7  9  1  0
  9 10  2  0
 10 11  1  0
 11 12  1  0
 12 13  2  0
 13 14  1  0
 13 15  1  0
 15 16  1  0
 15 17  2  0
 17 18  1  0
 17 19  1  0
 19 20  1  0
 19 21  2  0
 21 22  1  0
 22 23  1  0
 22 24  1  0
 22 25  1  0
 10  3  1  0
 21 12  1  0
M  CHG  1   4  -1
M  END
>  <UniqueID>  (25) 
23

>  <SMILES>  (25) 
[H]/N=c1/[n-]ccnc1Oc1c(C)cc(Cl)cc1F

>  <Energy>  (25) 
40.847074762019545

>  <Genealogy>  (25) 
Cc1cc(Cl)cc(F)c1Oc1ncc[n-]c1=N (protonated)
[H]/N=c1/[n-]ccnc1Oc1c(C)cc(Cl)cc1F (cis-trans isomerization)
[H]/N=c1/[n-]ccnc1Oc1c(C)cc(Cl)cc1F (3D coordinates assigned)
[H]/N=c1/[n-]ccnc1Oc1c(C)cc(Cl)cc1F (optimized conformer: 40.847074762019545 kcal/mol)

>  <smiles>  (25) 
Cc1cc(Cl)cc(F)c1Oc1ncc[nH]c1=N

>  <score_type>  (25) 
oracle

>  <origin>  (25) 
adgpu

>  <m_score__min__energy>  (25) 
-8.5800000000000001

>  <m_primary>  (25) 
energy

$$$$
25:0
     RDKit          3D

 38 40  0  0  0  0  0  0  0  0999 V2000
   -4.4850   22.3810  -30.1840 O   0  0  0  0  0  0  0  0  0  0  0  0
   -5.0500   22.8680  -31.4900 S   0  0  0  0  0  0  0  0  0  0  0  0
   -4.9860   24.3680  -31.5210 O   0  0  0  0  0  0  0  0  0  0  0  0
   -4.0990   22.2270  -32.7940 N   0  0  0  0  0  0  0  0  0  0  0  0
   -2.9000   21.4520  -32.6010 C   0  0  0  0  0  0  0  0  0  0  0  0
   -1.8550   21.9200  -31.7820 C   0  0  0  0  0  0  0  0  0  0  0  0
   -0.7000   21.1560  -31.5970 C   0  0  0  0  0  0  0  0  0  0  0  0
   -0.5730   19.9170  -32.2260 C   0  0  0  0  0  0  0  0  0  0  0  0
    0.8710   18.9520  -31.9770 Cl  0  0  0  0  0  0  0  0  0  0  0  0
   -1.5970   19.4430  -33.0470 C   0  0  0  0  0  0  0  0  0  0  0  0
   -2.7580   20.2110  -33.2550 C   0  0  0  0  0  0  0  0  0  0  0  0
   -3.8050   19.7350  -34.0610 O   0  0  0  0  0  0  0  0  0  0  0  0
   -4.8130   18.8510  -33.6480 C   0  0  0  0  0  0  0  0  0  0  0  0
   -5.1290   18.6630  -32.2890 C   0  0  0  0  0  0  0  0  0  0  0  0
   -6.1290   17.7590  -31.9180 C   0  0  0  0  0  0  0  0  0  0  0  0
   -6.8130   17.0300  -32.8960 C   0  0  0  0  0  0  0  0  0  0  0  0
   -6.4890   17.1990  -34.2450 C   0  0  0  0  0  0  0  0  0  0  0  0
   -5.4890   18.1020  -34.6180 C   0  0  0  0  0  0  0  0  0  0  0  0
   -6.7290   22.3700  -31.6690 C   0  0  0  0  0  0  0  0  0  0  0  0
   -7.7410   23.3260  -31.8410 C   0  0  0  0  0  0  0  0  0  0  0  0
   -9.0740   22.9220  -31.9700 C   0  0  0  0  0  0  0  0  0  0  0  0
   -9.4010   21.5630  -31.9290 C   0  0  0  0  0  0  0  0  0  0  0  0
  -10.6930   21.1720  -32.0530 F   0  0  0  0  0  0  0  0  0  0  0  0
   -8.3940   20.6070  -31.7620 C   0  0  0  0  0  0  0  0  0  0  0  0
   -7.0610   21.0080  -31.6340 C   0  0  0  0  0  0  0  0  0  0  0  0
   -4.4920   22.3390  -33.7550 H   0  0  0  0  0  0  0  0  0  0  0  0
   -1.9487   22.8959  -31.2832 H   0  0  0  0  0  0  0  0  0  0  0  0
    0.1102   21.5317  -30.9547 H   0  0  0  0  0  0  0  0  0  0  0  0
   -1.4961   18.4623  -33.5350 H   0  0  0  0  0  0  0  0  0  0  0  0
   -4.5875   19.2290  -31.5167 H   0  0  0  0  0  0  0  0  0  0  0  0
   -6.3781   17.6210  -30.8555 H   0  0  0  0  0  0  0  0  0  0  0  0
   -7.6049   16.3246  -32.6039 H   0  0  0  0  0  0  0  0  0  0  0  0
   -7.0216   16.6207  -35.0144 H   0  0  0  0  0  0  0  0  0  0  0  0
   -5.2319   18.2246  -35.6805 H   0  0  0  0  0  0  0  0  0  0  0  0
   -7.4859   24.3955  -31.8745 H   0  0  0  0  0  0  0  0  0  0  0  0
   -9.8656   23.6739  -32.1038 H   0  0  0  0  0  0  0  0  0  0  0  0
   -8.6513   19.5379  -31.7313 H   0  0  0  0  0  0  0  0  0  0  0  0
   -6.2708   20.2536  -31.5056 H   0  0  0  0  0  0  0  0  0  0  0  0
  1  2  2  0
  2  3  2  0
  2  4  1  0
  4  5  1  0
  5  6  2  0
  6  7  1  0
  7  8  2  0
  8  9  1  0
  8 10  1  0
 10 11  2  0
 11 12  1  0
 12 13  1  0
 13 14  2  0
 14 15  1  0
 15 16  2  0
 16 17  1  0
 17 18  2  0
  2 19  1  0
 19 20  2  0
 20 21  1  0
 21 22  2  0
 22 23  1  0
 22 24  1  0
 24 25  2  0
 11  5  1  0
 18 13  1  0
 25 19  1  0
  4 26  1  0
  6 27  1  0
  7 28  1  0
 10 29  1  0
 14 30  1  0
 15 31  1  0
 16 32  1  0
 17 33  1  0
 18 34  1  0
 20 35  1  0
 21 36  1  0
 24 37  1  0
 25 38  1  0
M  END
>  <UniqueID>  (26) 
24

>  <SMILES>  (26) 
O=S(=O)(Nc1ccc(Cl)cc1Oc1ccccc1)c1ccc(F)cc1

>  <Energy>  (26) 
50.487410687694116

>  <Genealogy>  (26) 
O=S(=O)(Nc1ccc(Cl)cc1Oc1ccccc1)c1ccc(F)cc1 (3D coordinates assigned)
O=S(=O)(Nc1ccc(Cl)cc1Oc1ccccc1)c1ccc(F)cc1 (optimized conformer: 50.487410687694116 kcal/mol)

>  <smiles>  (26) 
O=S(=O)(Nc1ccc(Cl)cc1Oc1ccccc1)c1ccc(F)cc1

>  <score_type>  (26) 
oracle

>  <origin>  (26) 
adgpu

>  <m_score__min__energy>  (26) 
-9.0299999999999994

>  <m_primary>  (26) 
energy

$$$$
26:0
     RDKit          3D

 50 53  0  0  1  0  0  0  0  0999 V2000
   -5.6110   25.7210  -30.4030 C   0  0  0  0  0  0  0  0  0  0  0  0
   -4.1950   25.6480  -30.5870 O   0  0  0  0  0  0  0  0  0  0  0  0
   -3.6810   24.3550  -30.4670 C   0  0  0  0  0  0  0  0  0  0  0  0
   -4.2410   23.2680  -31.1070 C   0  0  0  0  0  0  0  0  0  0  0  0
   -3.6770   22.0200  -30.9420 C   0  0  0  0  0  0  0  0  0  0  0  0
   -4.2210   20.8490  -31.5870 N   0  0  0  0  0  0  0  0  0  0  0  0
   -3.4630   20.1250  -32.3480 C   0  0  0  0  0  0  0  0  0  0  0  0
   -3.9310   19.0120  -32.9760 N   0  0  0  0  0  0  0  0  0  0  0  0
   -3.1170   18.2720  -33.7670 C   0  0  0  0  0  0  0  0  0  0  0  0
   -3.6230   17.1490  -34.3910 C   0  0  0  0  0  0  0  0  0  0  0  0
   -4.8540   16.7950  -34.2330 N   0  0  0  0  0  0  0  0  0  0  0  0
   -5.7590   17.5310  -33.4160 C   0  0  0  0  0  0  0  0  0  0  0  0
   -5.8810   17.1060  -32.0870 C   0  0  0  0  0  0  0  0  0  0  0  0
   -6.7470   17.7700  -31.2120 C   0  0  0  0  0  0  0  0  0  0  0  0
   -7.4690   18.8440  -31.6950 C   0  0  0  0  0  0  0  0  0  0  0  0
   -7.3530   19.2690  -33.0130 C   0  0  0  0  0  0  0  0  0  0  0  0
   -6.4890   18.6120  -33.8950 C   0  0  0  0  0  0  0  0  0  0  0  0
   -2.8060   16.4120  -35.1800 N   0  0  0  0  0  0  0  0  0  0  0  0
   -1.5120   16.7490  -35.3690 C   0  0  0  0  0  0  0  0  0  0  0  0
   -1.0290   17.8630  -34.7440 N   0  0  0  0  0  0  0  0  0  0  0  0
   -1.8010   18.6080  -33.9650 C   0  0  0  0  0  0  0  0  0  0  0  0
   -1.3380   19.7380  -33.3210 C   0  0  0  0  0  0  0  0  0  0  0  0
   -2.1740   20.4690  -32.5310 N   0  0  0  0  0  0  0  0  0  0  0  0
   -2.5620   21.8450  -30.1450 C   0  0  0  0  0  0  0  0  0  0  0  0
   -1.9980   22.9270  -29.5020 C   0  0  0  0  0  0  0  0  0  0  0  0
   -0.8780   22.8300  -28.6850 O   0  0  0  0  0  0  0  0  0  0  0  0
   -0.6100   21.6590  -27.9170 C   0  0  0  0  0  0  0  0  0  0  0  0
   -2.5520   24.1820  -29.6590 C   0  0  0  0  0  0  0  0  0  0  0  0
   -1.9960   25.2950  -29.0150 O   0  0  0  0  0  0  0  0  0  0  0  0
   -1.8370   25.3320  -27.6090 C   0  0  0  0  0  0  0  0  0  0  0  0
   -5.8408   25.7328  -29.3273 H   0  0  0  0  0  0  0  0  0  0  0  0
   -5.9945   26.6401  -30.8700 H   0  0  0  0  0  0  0  0  0  0  0  0
   -6.0870   24.8462  -30.8700 H   0  0  0  0  0  0  0  0  0  0  0  0
   -5.1293   23.3957  -31.7431 H   0  0  0  0  0  0  0  0  0  0  0  0
   -5.2937   16.2471  -31.7301 H   0  0  0  0  0  0  0  0  0  0  0  0
   -6.8504   17.4453  -30.1661 H   0  0  0  0  0  0  0  0  0  0  0  0
   -8.1537   19.3768  -31.0187 H   0  0  0  0  0  0  0  0  0  0  0  0
   -7.9443   20.1273  -33.3647 H   0  0  0  0  0  0  0  0  0  0  0  0
   -6.3900   18.9421  -34.9396 H   0  0  0  0  0  0  0  0  0  0  0  0
   -3.1500   15.5560  -35.6690 H   0  0  0  0  0  0  0  0  0  0  0  0
   -0.8609   16.1392  -36.0126 H   0  0  0  0  0  0  0  0  0  0  0  0
   -0.2905   20.0495  -33.4460 H   0  0  0  0  0  0  0  0  0  0  0  0
   -1.7440   21.3100  -32.0800 H   0  0  0  0  0  0  0  0  0  0  0  0
   -2.1243   20.8432  -30.0234 H   0  0  0  0  0  0  0  0  0  0  0  0
   -0.6657   21.9024  -26.8457 H   0  0  0  0  0  0  0  0  0  0  0  0
   -1.3543   20.8852  -28.1564 H   0  0  0  0  0  0  0  0  0  0  0  0
    0.3967   21.2860  -28.1564 H   0  0  0  0  0  0  0  0  0  0  0  0
   -2.7992   25.1081  -27.1252 H   0  0  0  0  0  0  0  0  0  0  0  0
   -1.0906   24.5836  -27.3046 H   0  0  0  0  0  0  0  0  0  0  0  0
   -1.4977   26.3331  -27.3046 H   0  0  0  0  0  0  0  0  0  0  0  0
  1  2  1  0
  2  3  1  0
  3  4  2  0
  4  5  1  0
  5  6  1  0
  6  7  2  0
  7  8  1  0
  8  9  2  0
  9 10  1  0
 10 11  2  0
 11 12  1  0
 12 13  2  0
 13 14  1  0
 14 15  2  0
 15 16  1  0
 16 17  2  0
 10 18  1  0
 18 19  1  0
 19 20  2  0
 20 21  1  0
 21 22  2  0
 22 23  1  0
  5 24  2  0
 24 25  1  0
 25 26  1  0
 26 27  1  0
 25 28  2  0
 28 29  1  0
 29 30  1  0
 28  3  1  0
 23  7  1  0
 21  9  1  0
 17 12  1  0
  1 31  1  0
  1 32  1  0
  1 33  1  0
  4 34  1  0
 13 35  1  0
 14 36  1  0
 15 37  1  0
 16 38  1  0
 17 39  1  0
 18 40  1  0
 19 41  1  0
 22 42  1  0
 23 43  1  0
 24 44  1  0
 27 45  1  0
 27 46  1  0
 27 47  1  0
 30 48  1  0
 30 49  1  0
 30 50  1  0
M  END
>  <smiles>  (27) 
COc1cc(N=c2nc3c(=Nc4ccccc4)[nH]cnc3c[nH]2)cc(OC)c1OC

>  <score_type>  (27) 
oracle

>  <origin>  (27) 
adgpu

>  <m_score__min__energy>  (27) 
-8.4199999999999999

>  <m_primary>  (27) 
energy

$$$$
27:0
     RDKit          3D

 37 39  0  0  0  0  0  0  0  0999 V2000
   -2.0277   21.5452  -27.7258 H   0  0  0  0  0  0  0  0  0  0  0  0
   -2.5130   22.3050  -28.3560 C   0  0  0  0  0  0  0  0  0  0  0  0
   -3.3730   23.2440  -27.7820 C   0  0  0  0  0  0  0  0  0  0  0  0
   -3.5630   23.2234  -26.6987 H   0  0  0  0  0  0  0  0  0  0  0  0
   -3.9930   24.2100  -28.5800 C   0  0  0  0  0  0  0  0  0  0  0  0
   -4.6697   24.9461  -28.1214 H   0  0  0  0  0  0  0  0  0  0  0  0
   -3.7560   24.2460  -29.9680 C   0  0  0  0  0  0  0  0  0  0  0  0
   -4.3770   25.2270  -30.8200 N   0  0  0  0  0  0  0  0  0  0  0  0
   -3.8030   25.6300  -31.5920 H   0  0  0  0  0  0  0  0  0  0  0  0
   -5.7590   25.6780  -30.6470 C   0  0  0  0  0  0  0  0  0  0  0  0
   -6.0560   26.2578  -31.5334 H   0  0  0  0  0  0  0  0  0  0  0  0
   -5.8024   26.2909  -29.7346 H   0  0  0  0  0  0  0  0  0  0  0  0
   -6.7330   24.5070  -30.4740 C   0  0  0  0  0  0  0  0  0  0  0  0
   -7.7163   24.7930  -30.8757 H   0  0  0  0  0  0  0  0  0  0  0  0
   -6.8125   24.2688  -29.4031 H   0  0  0  0  0  0  0  0  0  0  0  0
   -6.2490   23.3200  -31.1860 N   0  0  0  0  0  0  0  0  0  0  0  0
   -6.9250   22.3490  -31.7440 C   0  0  0  0  0  0  0  0  0  0  0  0
   -8.3330   22.2850  -31.7000 C   0  0  0  0  0  0  0  0  0  0  0  0
   -8.9027   23.0717  -31.1837 H   0  0  0  0  0  0  0  0  0  0  0  0
   -9.0040   21.2260  -32.3100 C   0  0  0  0  0  0  0  0  0  0  0  0
  -10.1026   21.1842  -32.2742 H   0  0  0  0  0  0  0  0  0  0  0  0
   -8.3150   20.2470  -32.9470 N   0  0  0  0  0  0  0  0  0  0  0  0
   -8.8560   19.4700  -33.3910 H   0  0  0  0  0  0  0  0  0  0  0  0
   -6.9540   20.2600  -33.0130 C   0  0  0  0  0  0  0  0  0  0  0  0
   -6.2720   19.2290  -33.6790 C   0  0  0  0  0  0  0  0  0  0  0  0
   -6.8395   18.4102  -34.1452 H   0  0  0  0  0  0  0  0  0  0  0  0
   -4.8770   19.2370  -33.7530 C   0  0  0  0  0  0  0  0  0  0  0  0
   -4.0360   17.9440  -34.5890 Cl  0  0  0  0  0  0  0  0  0  0  0  0
   -4.1510   20.2730  -33.1620 C   0  0  0  0  0  0  0  0  0  0  0  0
   -3.0526   20.2760  -33.2216 H   0  0  0  0  0  0  0  0  0  0  0  0
   -4.8150   21.3060  -32.4950 C   0  0  0  0  0  0  0  0  0  0  0  0
   -4.2352   22.1184  -32.0326 H   0  0  0  0  0  0  0  0  0  0  0  0
   -6.2240   21.3150  -32.4100 C   0  0  0  0  0  0  0  0  0  0  0  0
   -2.8860   23.2960  -30.5330 C   0  0  0  0  0  0  0  0  0  0  0  0
   -2.6890   23.3122  -31.6151 H   0  0  0  0  0  0  0  0  0  0  0  0
   -2.2700   22.3320  -29.7310 C   0  0  0  0  0  0  0  0  0  0  0  0
   -1.5924   21.5930  -30.1834 H   0  0  0  0  0  0  0  0  0  0  0  0
  1  2  1  0
  2  3  2  0
  3  4  1  0
  3  5  1  0
  5  6  1  0
  5  7  2  0
  7  8  1  0
  8  9  1  0
  8 10  1  0
 10 11  1  0
 10 12  1  0
 10 13  1  0
 13 14  1  0
 13 15  1  0
 13 16  1  0
 16 17  2  0
 17 18  1  0
 18 19  1  0
 18 20  2  0
 20 21  1  0
 20 22  1  0
 22 23  1  0
 22 24  1  0
 24 25  2  0
 25 26  1  0
 25 27  1  0
 27 28  1  0
 27 29  2  0
 29 30  1  0
 29 31  1  0
 31 32  1  0
 31 33  2  0
  7 34  1  0
 34 35  1  0
 34 36  2  0
 36 37  1  0
 36  2  1  0
 33 17  1  0
 33 24  1  0
M  END
>  <UniqueID>  (28) 
25

>  <SMILES>  (28) 
Clc1ccc2/c(=N/CCNc3ccccc3)cc[nH]c2c1

>  <Energy>  (28) 
47.20948405550581

>  <Genealogy>  (28) 
Clc1ccc2/c(=N/CCNc3ccccc3)cc[nH]c2c1 (cis-trans isomerization)
Clc1ccc2/c(=N/CCNc3ccccc3)cc[nH]c2c1 (3D coordinates assigned)
Clc1ccc2/c(=N/CCNc3ccccc3)cc[nH]c2c1 (optimized conformer: 47.20948405550581 kcal/mol)

>  <smiles>  (28) 
Clc1ccc2c(=NCCNc3ccccc3)cc[nH]c2c1

>  <score_type>  (28) 
oracle

>  <origin>  (28) 
adgpu

>  <m_score__min__energy>  (28) 
-8.3900000000000006

>  <m_primary>  (28) 
energy

$$$$
28:0
     RDKit          3D

 52 56  0  0  0  0  0  0  0  0999 V2000
   -9.4890   21.6130  -31.9170 C   0  0  0  0  0  0  0  0  0  0  0  0
   -9.0680   20.2050  -32.3270 C   0  0  0  0  0  0  0  0  0  0  0  0
   -7.5750   20.0460  -32.2310 C   0  0  0  0  0  0  0  0  0  0  0  0
   -6.9450   18.9230  -32.7900 C   0  0  0  0  0  0  0  0  0  0  0  0
   -5.5560   18.7900  -32.7250 C   0  0  0  0  0  0  0  0  0  0  0  0
   -4.7840   19.7830  -32.1160 C   0  0  0  0  0  0  0  0  0  0  0  0
   -5.3960   20.9260  -31.5780 C   0  0  0  0  0  0  0  0  0  0  0  0
   -4.6090   21.9470  -30.9440 N   0  0  0  0  0  0  0  0  0  0  0  0
   -4.6100   23.2530  -31.2860 C   0  0  0  0  0  0  0  0  0  0  0  0
   -3.7660   23.9450  -30.4440 C   0  0  0  0  0  0  0  0  0  0  0  0
   -3.5090   25.3090  -30.4910 O   0  0  0  0  0  0  0  0  0  0  0  0
   -3.2060   23.0400  -29.5640 C   0  0  0  0  0  0  0  0  0  0  0  0
   -2.2110   23.3450  -28.5190 C   0  0  0  0  0  0  0  0  0  0  0  0
   -2.4770   24.3660  -27.6600 N   0  0  0  0  0  0  0  0  0  0  0  0
   -1.6410   24.6740  -26.6360 C   0  0  0  0  0  0  0  0  0  0  0  0
   -1.9400   25.7230  -25.7600 C   0  0  0  0  0  0  0  0  0  0  0  0
   -1.0710   26.0150  -24.7020 C   0  0  0  0  0  0  0  0  0  0  0  0
    0.0930   25.2610  -24.5200 C   0  0  0  0  0  0  0  0  0  0  0  0
    0.3970   24.2120  -25.3950 C   0  0  0  0  0  0  0  0  0  0  0  0
   -0.4690   23.9170  -26.4540 C   0  0  0  0  0  0  0  0  0  0  0  0
   -0.1860   22.9110  -27.3210 N   0  0  0  0  0  0  0  0  0  0  0  0
   -1.0100   22.6090  -28.3620 C   0  0  0  0  0  0  0  0  0  0  0  0
   -0.5860   21.5450  -29.3020 C   0  0  0  0  0  0  0  0  0  0  0  0
   -0.2000   20.2880  -28.8050 C   0  0  0  0  0  0  0  0  0  0  0  0
    0.2010   19.2760  -29.6810 C   0  0  0  0  0  0  0  0  0  0  0  0
    0.2360   19.5130  -31.0580 C   0  0  0  0  0  0  0  0  0  0  0  0
   -0.1230   20.7670  -31.5600 C   0  0  0  0  0  0  0  0  0  0  0  0
   -0.5230   21.7830  -30.6870 C   0  0  0  0  0  0  0  0  0  0  0  0
   -3.7610   21.8130  -29.8960 C   0  0  0  0  0  0  0  0  0  0  0  0
   -3.4760   20.5730  -29.2400 N   0  0  0  0  0  0  0  0  0  0  0  0
   -6.7940   21.0460  -31.6310 C   0  0  0  0  0  0  0  0  0  0  0  0
   -9.5103   21.6844  -30.8195 H   0  0  0  0  0  0  0  0  0  0  0  0
   -8.7696   22.3422  -32.3179 H   0  0  0  0  0  0  0  0  0  0  0  0
  -10.4906   21.8276  -32.3179 H   0  0  0  0  0  0  0  0  0  0  0  0
   -9.5522   19.4753  -31.6613 H   0  0  0  0  0  0  0  0  0  0  0  0
   -9.3751   20.0340  -33.3693 H   0  0  0  0  0  0  0  0  0  0  0  0
   -7.5475   18.1447  -33.2812 H   0  0  0  0  0  0  0  0  0  0  0  0
   -5.0689   17.9019  -33.1540 H   0  0  0  0  0  0  0  0  0  0  0  0
   -3.6915   19.6684  -32.0580 H   0  0  0  0  0  0  0  0  0  0  0  0
   -5.1927   23.6954  -32.1074 H   0  0  0  0  0  0  0  0  0  0  0  0
   -2.8551   26.3166  -25.9021 H   0  0  0  0  0  0  0  0  0  0  0  0
   -1.3041   26.8394  -24.0121 H   0  0  0  0  0  0  0  0  0  0  0  0
    0.7718   25.4934  -23.6862 H   0  0  0  0  0  0  0  0  0  0  0  0
    1.3137   23.6213  -25.2508 H   0  0  0  0  0  0  0  0  0  0  0  0
   -0.2137   20.1002  -27.7212 H   0  0  0  0  0  0  0  0  0  0  0  0
    0.4897   18.2908  -29.2861 H   0  0  0  0  0  0  0  0  0  0  0  0
    0.5460   18.7129  -31.7463 H   0  0  0  0  0  0  0  0  0  0  0  0
   -0.0908   20.9548  -32.6434 H   0  0  0  0  0  0  0  0  0  0  0  0
   -0.7897   22.7732  -31.0850 H   0  0  0  0  0  0  0  0  0  0  0  0
   -2.8330   20.5410  -28.4180 H   0  0  0  0  0  0  0  0  0  0  0  0
   -3.8820   19.6750  -29.5820 H   0  0  0  0  0  0  0  0  0  0  0  0
   -7.2816   21.9320  -31.1983 H   0  0  0  0  0  0  0  0  0  0  0  0
  1  2  1  0
  2  3  1  0
  3  4  2  0
  4  5  1  0
  5  6  2  0
  6  7  1  0
  7  8  1  0
  8  9  1  0
  9 10  2  0
 10 11  1  0
 10 12  1  0
 12 13  1  0
 13 14  2  0
 14 15  1  0
 15 16  2  0
 16 17  1  0
 17 18  2  0
 18 19  1  0
 19 20  2  0
 20 21  1  0
 21 22  2  0
 22 23  1  0
 23 24  2  0
 24 25  1  0
 25 26  2  0
 26 27  1  0
 27 28  2  0
 12 29  2  0
 29 30  1  0
  7 31  2  0
 31  3  1  0
 29  8  1  0
 22 13  1  0
 28 23  1  0
 20 15  1  0
  1 32  1  0
  1 33  1  0
  1 34  1  0
  2 35  1  0
  2 36  1  0
  4 37  1  0
  5 38  1  0
  6 39  1  0
  9 40  1  0
 16 41  1  0
 17 42  1  0
 18 43  1  0
 19 44  1  0
 24 45  1  0
 25 46  1  0
 26 47  1  0
 27 48  1  0
 28 49  1  0
 30 50  1  0
 30 51  1  0
 31 52  1  0
M  CHG  1  11  -1
M  END
>  <UniqueID>  (29) 
26

>  <SMILES>  (29) 
CCc1cccc(-n2cc([O-])c(-c3nc4ccccc4nc3-c3ccccc3)c2N)c1

>  <Energy>  (29) 
103.40784224333309

>  <Genealogy>  (29) 
CCc1cccc(-n2cc([O-])c(-c3nc4ccccc4nc3-c3ccccc3)c2N)c1 (protonated)
CCc1cccc(-n2cc([O-])c(-c3nc4ccccc4nc3-c3ccccc3)c2N)c1 (3D coordinates assigned)
CCc1cccc(-n2cc([O-])c(-c3nc4ccccc4nc3-c3ccccc3)c2N)c1 (optimized conformer: 103.40784224333309 kcal/mol)

>  <smiles>  (29) 
CCc1cccc(-n2cc(O)c(-c3nc4ccccc4nc3-c3ccccc3)c2N)c1

>  <score_type>  (29) 
oracle

>  <origin>  (29) 
adgpu

>  <m_score__min__energy>  (29) 
-11.880000000000001

>  <m_primary>  (29) 
energy

$$$$
29:0
     RDKit          3D

 40 42  0  0  0  0  0  0  0  0999 V2000
   -5.6520   26.0890  -30.3470 O   0  0  0  0  0  0  0  0  0  0  0  0
   -4.9160   25.1080  -30.6300 C   0  0  0  0  0  0  0  0  0  0  0  0
   -3.5090   25.2110  -30.3700 N   0  0  0  0  0  0  0  0  0  0  0  0
   -2.7860   24.5230  -29.3360 C   0  0  0  0  0  0  0  0  0  0  0  0
   -1.8400   25.1830  -28.5320 C   0  0  0  0  0  0  0  0  0  0  0  0
   -1.1600   24.4840  -27.5300 C   0  0  0  0  0  0  0  0  0  0  0  0
   -1.4290   23.1300  -27.3120 C   0  0  0  0  0  0  0  0  0  0  0  0
   -0.7650   22.4630  -26.3360 F   0  0  0  0  0  0  0  0  0  0  0  0
   -2.3890   22.4730  -28.0930 C   0  0  0  0  0  0  0  0  0  0  0  0
   -2.7440   20.7770  -27.8200 Cl  0  0  0  0  0  0  0  0  0  0  0  0
   -3.0690   23.1730  -29.0970 C   0  0  0  0  0  0  0  0  0  0  0  0
   -5.5270   23.8680  -31.1660 C   0  0  0  0  0  0  0  0  0  0  0  0
   -4.7360   22.9370  -31.8530 C   0  0  0  0  0  0  0  0  0  0  0  0
   -5.3000   21.7600  -32.3470 C   0  0  0  0  0  0  0  0  0  0  0  0
   -6.6670   21.4980  -32.1790 C   0  0  0  0  0  0  0  0  0  0  0  0
   -7.1940   20.2320  -32.6110 N   0  0  0  0  0  0  0  0  0  0  0  0
   -8.0550   19.4420  -31.7300 C   0  0  0  0  0  0  0  0  0  0  0  0
   -7.4470   18.0460  -31.5650 C   0  0  0  0  0  0  0  0  0  0  0  0
   -7.2020   17.4510  -32.8290 O   0  0  0  0  0  0  0  0  0  0  0  0
   -6.2240   18.1940  -33.5350 C   0  0  0  0  0  0  0  0  0  0  0  0
   -6.7330   19.6050  -33.8500 C   0  0  0  0  0  0  0  0  0  0  0  0
   -7.4850   22.4460  -31.5240 C   0  0  0  0  0  0  0  0  0  0  0  0
   -8.9040   22.2460  -31.3950 N   0  0  0  0  0  0  0  0  0  0  0  0
   -9.6710   22.5420  -32.3340 O   0  0  0  0  0  0  0  0  0  0  0  0
   -9.4170   21.5860  -30.3010 O   0  0  0  0  0  0  0  0  0  0  0  0
   -6.9020   23.6230  -31.0210 C   0  0  0  0  0  0  0  0  0  0  0  0
   -1.6344   26.2518  -28.6917 H   0  0  0  0  0  0  0  0  0  0  0  0
   -0.4114   25.0011  -26.9117 H   0  0  0  0  0  0  0  0  0  0  0  0
   -3.8305   22.6589  -29.7018 H   0  0  0  0  0  0  0  0  0  0  0  0
   -3.6645   23.1352  -32.0036 H   0  0  0  0  0  0  0  0  0  0  0  0
   -4.6661   21.0310  -32.8731 H   0  0  0  0  0  0  0  0  0  0  0  0
   -8.1273   19.9319  -30.7478 H   0  0  0  0  0  0  0  0  0  0  0  0
   -9.0615   19.3613  -32.1663 H   0  0  0  0  0  0  0  0  0  0  0  0
   -6.4978   18.1287  -31.0152 H   0  0  0  0  0  0  0  0  0  0  0  0
   -8.1571   17.4154  -31.0100 H   0  0  0  0  0  0  0  0  0  0  0  0
   -5.3145   18.2678  -32.9207 H   0  0  0  0  0  0  0  0  0  0  0  0
   -6.0063   17.6787  -34.4821 H   0  0  0  0  0  0  0  0  0  0  0  0
   -5.9183   20.2026  -34.2849 H   0  0  0  0  0  0  0  0  0  0  0  0
   -7.5630   19.5489  -34.5697 H   0  0  0  0  0  0  0  0  0  0  0  0
   -7.5327   24.3627  -30.5063 H   0  0  0  0  0  0  0  0  0  0  0  0
  1  2  2  0
  2  3  1  0
  3  4  1  0
  4  5  2  0
  5  6  1  0
  6  7  2  0
  7  8  1  0
  7  9  1  0
  9 10  1  0
  9 11  2  0
  2 12  1  0
 12 13  2  0
 13 14  1  0
 14 15  2  0
 15 16  1  0
 16 17  1  0
 17 18  1  0
 18 19  1  0
 19 20  1  0
 20 21  1  0
 15 22  1  0
 22 23  1  0
 23 24  2  0
 23 25  1  0
 22 26  2  0
 11  4  1  0
 26 12  1  0
 21 16  1  0
  5 27  1  0
  6 28  1  0
 11 29  1  0
 13 30  1  0
 14 31  1  0
 17 32  1  0
 17 33  1  0
 18 34  1  0
 18 35  1  0
 20 36  1  0
 20 37  1  0
 21 38  1  0
 21 39  1  0
 26 40  1  0
M  CHG  3   3  -1  23   1  25  -1
M  END
>  <UniqueID>  (30) 
27

>  <SMILES>  (30) 
O=C([N-]c1ccc(F)c(Cl)c1)c1ccc(N2CCOCC2)c([N+](=O)[O-])c1

>  <Energy>  (30) 
59.29606715096685

>  <Genealogy>  (30) 
O=C([N-]c1ccc(F)c(Cl)c1)c1ccc(N2CCOCC2)c([N+](=O)[O-])c1 (protonated)
O=C([N-]c1ccc(F)c(Cl)c1)c1ccc(N2CCOCC2)c([N+](=O)[O-])c1 (3D coordinates assigned)
O=C([N-]c1ccc(F)c(Cl)c1)c1ccc(N2CCOCC2)c([N+](=O)[O-])c1 (nonaromatic ring conformer: 59.29606715096685 kcal/mol)

>  <smiles>  (30) 
O=C(Nc1ccc(F)c(Cl)c1)c1ccc(N2CCOCC2)c([N+](=O)[O-])c1

>  <score_type>  (30) 
oracle

>  <origin>  (30) 
adgpu

>  <m_score__min__energy>  (30) 
-10.51

>  <m_primary>  (30) 
energy

$$$$
30:0
     RDKit          3D

 34 36  0  0  0  0  0  0  0  0999 V2000
   -0.7460   21.1520  -33.9350 C   0  0  0  0  0  0  0  0  0  0  0  0
   -1.8330   20.1210  -34.2170 C   0  0  0  0  0  0  0  0  0  0  0  0
   -3.0790   20.4500  -33.4590 C   0  0  0  0  0  0  0  0  0  0  0  0
   -4.2150   19.7260  -33.5420 N   0  0  0  0  0  0  0  0  0  0  0  0
   -5.0560   20.4210  -32.7480 C   0  0  0  0  0  0  0  0  0  0  0  0
   -6.4280   19.9580  -32.4460 C   0  0  0  0  0  0  0  0  0  0  0  0
   -7.5110   20.8370  -32.6080 C   0  0  0  0  0  0  0  0  0  0  0  0
   -8.8150   20.4070  -32.3410 C   0  0  0  0  0  0  0  0  0  0  0  0
   -9.0480   19.0940  -31.9270 C   0  0  0  0  0  0  0  0  0  0  0  0
   -7.9790   18.2050  -31.7860 C   0  0  0  0  0  0  0  0  0  0  0  0
   -6.6740   18.6320  -32.0520 C   0  0  0  0  0  0  0  0  0  0  0  0
   -4.4530   21.5190  -32.2360 N   0  0  0  0  0  0  0  0  0  0  0  0
   -5.0190   22.5760  -31.4420 C   0  0  0  0  0  0  0  0  0  0  0  0
   -4.6410   22.7180  -30.0970 C   0  0  0  0  0  0  0  0  0  0  0  0
   -5.1710   23.7530  -29.3210 C   0  0  0  0  0  0  0  0  0  0  0  0
   -6.0700   24.6620  -29.8860 C   0  0  0  0  0  0  0  0  0  0  0  0
   -6.4340   24.5410  -31.2290 C   0  0  0  0  0  0  0  0  0  0  0  0
   -5.9060   23.5080  -32.0090 C   0  0  0  0  0  0  0  0  0  0  0  0
   -3.2100   21.5410  -32.6820 N   0  0  0  0  0  0  0  0  0  0  0  0
   -0.6237   21.2680  -32.8480 H   0  0  0  0  0  0  0  0  0  0  0  0
    0.2031   20.8143  -34.3768 H   0  0  0  0  0  0  0  0  0  0  0  0
   -1.0330   22.1176  -34.3768 H   0  0  0  0  0  0  0  0  0  0  0  0
   -2.0558   20.1158  -35.2942 H   0  0  0  0  0  0  0  0  0  0  0  0
   -1.4746   19.1312  -33.8981 H   0  0  0  0  0  0  0  0  0  0  0  0
   -7.3331   21.8684  -32.9464 H   0  0  0  0  0  0  0  0  0  0  0  0
   -9.6579   21.1041  -32.4573 H   0  0  0  0  0  0  0  0  0  0  0  0
  -10.0735   18.7592  -31.7117 H   0  0  0  0  0  0  0  0  0  0  0  0
   -8.1640   17.1691  -31.4657 H   0  0  0  0  0  0  0  0  0  0  0  0
   -5.8362   17.9263  -31.9523 H   0  0  0  0  0  0  0  0  0  0  0  0
   -3.9247   22.0117  -29.6521 H   0  0  0  0  0  0  0  0  0  0  0  0
   -4.8803   23.8521  -28.2648 H   0  0  0  0  0  0  0  0  0  0  0  0
   -6.4908   25.4726  -29.2730 H   0  0  0  0  0  0  0  0  0  0  0  0
   -7.1376   25.2600  -31.6739 H   0  0  0  0  0  0  0  0  0  0  0  0
   -6.1853   23.4241  -33.0696 H   0  0  0  0  0  0  0  0  0  0  0  0
  1  2  1  0
  2  3  1  0
  3  4  1  0
  4  5  2  0
  5  6  1  0
  6  7  2  0
  7  8  1  0
  8  9  2  0
  9 10  1  0
 10 11  2  0
  5 12  1  0
 12 13  1  0
 13 14  2  0
 14 15  1  0
 15 16  2  0
 16 17  1  0
 17 18  2  0
 12 19  1  0
 19  3  2  0
 11  6  1  0
 18 13  1  0
  1 20  1  0
  1 21  1  0
  1 22  1  0
  2 23  1  0
  2 24  1  0
  7 25  1  0
  8 26  1  0
  9 27  1  0
 10 28  1  0
 11 29  1  0
 14 30  1  0
 15 31  1  0
 16 32  1  0
 17 33  1  0
 18 34  1  0
M  END
>  <UniqueID>  (31) 
28

>  <SMILES>  (31) 
CCc1nc(-c2ccccc2)n(-c2ccccc2)n1

>  <Energy>  (31) 
74.06038008159592

>  <Genealogy>  (31) 
CCc1nc(-c2ccccc2)n(-c2ccccc2)n1 (3D coordinates assigned)
CCc1nc(-c2ccccc2)n(-c2ccccc2)n1 (optimized conformer: 74.06038008159592 kcal/mol)

>  <smiles>  (31) 
CCc1nc(-c2ccccc2)n(-c2ccccc2)n1

>  <score_type>  (31) 
oracle

>  <origin>  (31) 
adgpu

>  <m_score__min__energy>  (31) 
-7.25

>  <m_primary>  (31) 
energy

$$$$
31:0
     RDKit          3D

 28 29  0  0  0  0  0  0  0  0999 V2000
   -1.2350   26.4230  -29.7130 H   0  0  0  0  0  0  0  0  0  0  0  0
   -1.2490   26.4040  -28.6690 N   0  0  0  0  0  0  0  0  0  0  0  0
   -1.0970   24.7490  -28.1920 S   0  0  0  0  0  0  0  0  0  0  0  0
    0.2690   24.2580  -28.5840 O   0  0  0  0  0  0  0  0  0  0  0  0
   -1.2570   24.6410  -26.7020 O   0  0  0  0  0  0  0  0  0  0  0  0
   -2.3340   23.7800  -28.9850 C   0  0  0  0  0  0  0  0  0  0  0  0
   -3.6580   24.2360  -29.0340 C   0  0  0  0  0  0  0  0  0  0  0  0
   -3.9213   25.2034  -28.5815 H   0  0  0  0  0  0  0  0  0  0  0  0
   -4.6460   23.4660  -29.6560 C   0  0  0  0  0  0  0  0  0  0  0  0
   -5.6831   23.8307  -29.6935 H   0  0  0  0  0  0  0  0  0  0  0  0
   -4.3170   22.2260  -30.2340 C   0  0  0  0  0  0  0  0  0  0  0  0
   -5.3030   21.4120  -30.8790 N   0  0  0  0  0  0  0  0  0  0  0  0
   -6.5490   21.6620  -30.7960 N   0  0  0  0  0  0  0  0  0  0  0  0
   -7.5350   20.8480  -31.4410 C   0  0  0  0  0  0  0  0  0  0  0  0
   -8.8130   21.3760  -31.6620 C   0  0  0  0  0  0  0  0  0  0  0  0
   -9.0437   22.4022  -31.3401 H   0  0  0  0  0  0  0  0  0  0  0  0
   -9.7970   20.6070  -32.2890 C   0  0  0  0  0  0  0  0  0  0  0  0
  -10.7985   21.0290  -32.4593 H   0  0  0  0  0  0  0  0  0  0  0  0
   -9.5100   19.3020  -32.7000 C   0  0  0  0  0  0  0  0  0  0  0  0
  -10.2852   18.6979  -33.1941 H   0  0  0  0  0  0  0  0  0  0  0  0
   -8.2380   18.7650  -32.4830 C   0  0  0  0  0  0  0  0  0  0  0  0
   -8.0132   17.7375  -32.8052 H   0  0  0  0  0  0  0  0  0  0  0  0
   -7.2510   19.5320  -31.8570 C   0  0  0  0  0  0  0  0  0  0  0  0
   -6.2504   19.1072  -31.6888 H   0  0  0  0  0  0  0  0  0  0  0  0
   -2.9950   21.7720  -30.1770 C   0  0  0  0  0  0  0  0  0  0  0  0
   -2.7304   20.8026  -30.6246 H   0  0  0  0  0  0  0  0  0  0  0  0
   -2.0080   22.5420  -29.5550 C   0  0  0  0  0  0  0  0  0  0  0  0
   -0.9719   22.1749  -29.5128 H   0  0  0  0  0  0  0  0  0  0  0  0
  1  2  1  0
  2  3  1  0
  3  4  2  0
  3  5  2  0
  3  6  1  0
  6  7  2  0
  7  8  1  0
  7  9  1  0
  9 10  1  0
  9 11  2  0
 11 12  1  0
 12 13  2  0
 13 14  1  0
 14 15  2  0
 15 16  1  0
 15 17  1  0
 17 18  1  0
 17 19  2  0
 19 20  1  0
 19 21  1  0
 21 22  1  0
 21 23  2  0
 23 24  1  0
 11 25  1  0
 25 26  1  0
 25 27  2  0
 27 28  1  0
 27  6  1  0
 23 14  1  0
M  CHG  1   2  -1
M  END
>  <UniqueID>  (32) 
29

>  <SMILES>  (32) 
[NH-]S(=O)(=O)c1ccc(/N=N/c2ccccc2)cc1

>  <Energy>  (32) 
28.608616221825116

>  <Genealogy>  (32) 
[NH-]S(=O)(=O)c1ccc(N=Nc2ccccc2)cc1 (protonated)
[NH-]S(=O)(=O)c1ccc(/N=N/c2ccccc2)cc1 (cis-trans isomerization)
[NH-]S(=O)(=O)c1ccc(/N=N/c2ccccc2)cc1 (3D coordinates assigned)
[NH-]S(=O)(=O)c1ccc(/N=N/c2ccccc2)cc1 (optimized conformer: 28.608616221825116 kcal/mol)

>  <smiles>  (32) 
NS(=O)(=O)c1ccc(N=Nc2ccccc2)cc1

>  <score_type>  (32) 
oracle

>  <origin>  (32) 
adgpu

>  <m_score__min__energy>  (32) 
-8.8699999999999992

>  <m_primary>  (32) 
energy

$$$$
32:0
     RDKit          3D

 33 34  0  0  0  0  0  0  0  0999 V2000
   -9.2070   19.2980  -32.6800 C   0  0  0  0  0  0  0  0  0  0  0  0
   -8.2810   20.3870  -32.2020 C   0  0  0  0  0  0  0  0  0  0  0  0
   -8.7500   21.3310  -31.2760 C   0  0  0  0  0  0  0  0  0  0  0  0
   -7.9170   22.3550  -30.8210 C   0  0  0  0  0  0  0  0  0  0  0  0
   -6.6000   22.4610  -31.2810 C   0  0  0  0  0  0  0  0  0  0  0  0
   -5.7700   23.5340  -30.7920 N   0  0  0  0  0  0  0  0  0  0  0  0
   -5.7110   23.9680  -29.3950 C   0  0  0  0  0  0  0  0  0  0  0  0
   -4.2900   23.9330  -28.8800 C   0  0  0  0  0  0  0  0  0  0  0  0
   -3.9950   23.2030  -27.7150 C   0  0  0  0  0  0  0  0  0  0  0  0
   -2.6860   23.1490  -27.2260 C   0  0  0  0  0  0  0  0  0  0  0  0
   -1.6590   23.8100  -27.9010 C   0  0  0  0  0  0  0  0  0  0  0  0
   -1.9370   24.5220  -29.0710 C   0  0  0  0  0  0  0  0  0  0  0  0
   -3.2440   24.5810  -29.5680 C   0  0  0  0  0  0  0  0  0  0  0  0
   -3.4880   25.2860  -30.7420 O   0  0  0  0  0  0  0  0  0  0  0  0
   -6.1230   21.5160  -32.2070 C   0  0  0  0  0  0  0  0  0  0  0  0
   -6.9540   20.4850  -32.6810 C   0  0  0  0  0  0  0  0  0  0  0  0
   -6.4060   19.4920  -33.6730 C   0  0  0  0  0  0  0  0  0  0  0  0
   -9.6453   18.7825  -31.8127 H   0  0  0  0  0  0  0  0  0  0  0  0
  -10.0100   19.7402  -33.2881 H   0  0  0  0  0  0  0  0  0  0  0  0
   -8.6415   18.5766  -33.2881 H   0  0  0  0  0  0  0  0  0  0  0  0
   -9.7834   21.2637  -30.9051 H   0  0  0  0  0  0  0  0  0  0  0  0
   -8.3001   23.0858  -30.0935 H   0  0  0  0  0  0  0  0  0  0  0  0
   -5.1340   24.0180  -31.4670 H   0  0  0  0  0  0  0  0  0  0  0  0
   -6.0962   24.9957  -29.3203 H   0  0  0  0  0  0  0  0  0  0  0  0
   -6.3223   23.2841  -28.7879 H   0  0  0  0  0  0  0  0  0  0  0  0
   -4.7989   22.6711  -27.1850 H   0  0  0  0  0  0  0  0  0  0  0  0
   -2.4656   22.5846  -26.3079 H   0  0  0  0  0  0  0  0  0  0  0  0
   -0.6307   23.7706  -27.5122 H   0  0  0  0  0  0  0  0  0  0  0  0
   -1.1249   25.0384  -29.6037 H   0  0  0  0  0  0  0  0  0  0  0  0
   -5.0853   21.5842  -32.5656 H   0  0  0  0  0  0  0  0  0  0  0  0
   -5.9428   18.6526  -33.1338 H   0  0  0  0  0  0  0  0  0  0  0  0
   -7.2239   19.1153  -34.3047 H   0  0  0  0  0  0  0  0  0  0  0  0
   -5.6512   19.9832  -34.3047 H   0  0  0  0  0  0  0  0  0  0  0  0
  1  2  1  0
  2  3  2  0
  3  4  1  0
  4  5  2  0
  5  6  1  0
  6  7  1  0
  7  8  1  0
  8  9  2  0
  9 10  1  0
 10 11  2  0
 11 12  1  0
 12 13  2  0
 13 14  1  0
  5 15  1  0
 15 16  2  0
 16 17  1  0
 16  2  1  0
 13  8  1  0
  1 18  1  0
  1 19  1  0
  1 20  1  0
  3 21  1  0
  4 22  1  0
  6 23  1  0
  7 24  1  0
  7 25  1  0
  9 26  1  0
 10 27  1  0
 11 28  1  0
 12 29  1  0
 15 30  1  0
 17 31  1  0
 17 32  1  0
 17 33  1  0
M  CHG  1  14  -1
M  END
>  <UniqueID>  (33) 
30

>  <SMILES>  (33) 
Cc1ccc(NCc2ccccc2[O-])cc1C

>  <Energy>  (33) 
33.58571252144454

>  <Genealogy>  (33) 
Cc1ccc(NCc2ccccc2[O-])cc1C (protonated)
Cc1ccc(NCc2ccccc2[O-])cc1C (3D coordinates assigned)
Cc1ccc(NCc2ccccc2[O-])cc1C (optimized conformer: 33.58571252144454 kcal/mol)

>  <smiles>  (33) 
Cc1ccc(NCc2ccccc2O)cc1C

>  <score_type>  (33) 
oracle

>  <origin>  (33) 
adgpu

>  <m_score__min__energy>  (33) 
-10.58

>  <m_primary>  (33) 
energy

$$$$
33:0
     RDKit          3D

 45 46  0  0  0  0  0  0  0  0999 V2000
   -5.7120   18.1210  -34.6840 C   0  0  0  0  0  0  0  0  0  0  0  0
   -5.7700   18.6940  -33.3810 O   0  0  0  0  0  0  0  0  0  0  0  0
   -6.8460   19.4380  -32.8750 C   0  0  0  0  0  0  0  0  0  0  0  0
   -8.0590   18.8100  -32.5330 C   0  0  0  0  0  0  0  0  0  0  0  0
   -9.1300   19.5510  -32.0420 C   0  0  0  0  0  0  0  0  0  0  0  0
   -9.0210   20.9300  -31.9010 C   0  0  0  0  0  0  0  0  0  0  0  0
   -7.8380   21.5940  -32.2610 C   0  0  0  0  0  0  0  0  0  0  0  0
   -7.7600   23.1050  -32.1090 C   0  0  0  0  0  0  0  0  0  0  0  0
   -7.0910   23.5390  -30.8540 N   0  0  1  0  0  0  0  0  0  0  0  0
   -7.4590   22.6350  -29.7470 C   0  0  0  0  0  0  0  0  0  0  0  0
   -5.6130   23.6970  -30.9530 C   0  0  0  0  0  0  0  0  0  0  0  0
   -5.1050   25.0740  -30.6160 C   0  0  0  0  0  0  0  0  0  0  0  0
   -5.9140   26.0280  -30.4680 O   0  0  0  0  0  0  0  0  0  0  0  0
   -3.6940   25.2660  -30.4550 N   0  0  0  0  0  0  0  0  0  0  0  0
   -2.7550   24.4700  -29.7170 C   0  0  0  0  0  0  0  0  0  0  0  0
   -2.0040   24.9790  -28.6400 C   0  0  0  0  0  0  0  0  0  0  0  0
   -1.1090   24.1500  -27.9550 C   0  0  0  0  0  0  0  0  0  0  0  0
   -0.9450   22.8180  -28.3440 C   0  0  0  0  0  0  0  0  0  0  0  0
   -1.6670   22.3140  -29.4280 C   0  0  0  0  0  0  0  0  0  0  0  0
   -1.5040   21.0240  -29.8120 F   0  0  0  0  0  0  0  0  0  0  0  0
   -2.5600   23.1400  -30.1170 C   0  0  0  0  0  0  0  0  0  0  0  0
   -6.7230   20.8440  -32.7120 C   0  0  0  0  0  0  0  0  0  0  0  0
   -5.5300   21.5440  -32.9850 O   0  0  0  0  0  0  0  0  0  0  0  0
   -4.2020   21.1080  -32.7120 C   0  0  0  0  0  0  0  0  0  0  0  0
   -5.6015   17.0298  -34.6001 H   0  0  0  0  0  0  0  0  0  0  0  0
   -6.6384   18.3549  -35.2290 H   0  0  0  0  0  0  0  0  0  0  0  0
   -4.8513   18.5358  -35.2290 H   0  0  0  0  0  0  0  0  0  0  0  0
   -8.1613   17.7216  -32.6552 H   0  0  0  0  0  0  0  0  0  0  0  0
  -10.0659   19.0440  -31.7645 H   0  0  0  0  0  0  0  0  0  0  0  0
   -9.8698   21.5059  -31.5036 H   0  0  0  0  0  0  0  0  0  0  0  0
   -7.1983   23.5127  -32.9624 H   0  0  0  0  0  0  0  0  0  0  0  0
   -8.7930   23.4813  -32.0729 H   0  0  0  0  0  0  0  0  0  0  0  0
   -7.4790   24.4760  -30.5920 H   0  0  0  0  0  0  0  0  0  0  0  0
   -7.2571   23.1309  -28.7861 H   0  0  0  0  0  0  0  0  0  0  0  0
   -8.5289   22.3888  -29.8149 H   0  0  0  0  0  0  0  0  0  0  0  0
   -6.8652   21.7115  -29.8149 H   0  0  0  0  0  0  0  0  0  0  0  0
   -5.1445   22.9801  -30.2626 H   0  0  0  0  0  0  0  0  0  0  0  0
   -5.3504   23.5173  -32.0060 H   0  0  0  0  0  0  0  0  0  0  0  0
   -2.1212   26.0299  -28.3368 H   0  0  0  0  0  0  0  0  0  0  0  0
   -0.5324   24.5483  -27.1071 H   0  0  0  0  0  0  0  0  0  0  0  0
   -0.2476   22.1668  -27.7967 H   0  0  0  0  0  0  0  0  0  0  0  0
   -3.1145   22.7434  -30.9803 H   0  0  0  0  0  0  0  0  0  0  0  0
   -4.0490   21.0578  -31.6239 H   0  0  0  0  0  0  0  0  0  0  0  0
   -4.0458   20.1114  -33.1506 H   0  0  0  0  0  0  0  0  0  0  0  0
   -3.4855   21.8181  -33.1506 H   0  0  0  0  0  0  0  0  0  0  0  0
  1  2  1  0
  2  3  1  0
  3  4  2  0
  4  5  1  0
  5  6  2  0
  6  7  1  0
  7  8  1  0
  8  9  1  0
  9 10  1  0
  9 11  1  0
 11 12  1  0
 12 13  2  0
 12 14  1  0
 14 15  1  0
 15 16  2  0
 16 17  1  0
 17 18  2  0
 18 19  1  0
 19 20  1  0
 19 21  2  0
  7 22  2  0
 22 23  1  0
 23 24  1  0
 22  3  1  0
 21 15  1  0
  1 25  1  0
  1 26  1  0
  1 27  1  0
  4 28  1  0
  5 29  1  0
  6 30  1  0
  8 31  1  0
  8 32  1  0
  9 33  1  1
 10 34  1  0
 10 35  1  0
 10 36  1  0
 11 37  1  0
 11 38  1  0
 16 39  1  0
 17 40  1  0
 18 41  1  0
 21 42  1  0
 24 43  1  0
 24 44  1  0
 24 45  1  0
M  CHG  2   9   1  14  -1
M  END
>  <UniqueID>  (34) 
31

>  <SMILES>  (34) 
COc1cccc(C[N@@H+](C)CC(=O)[N-]c2cccc(F)c2)c1OC

>  <Energy>  (34) 
54.08946673339101

>  <Genealogy>  (34) 
COc1cccc(C[NH+](C)CC(=O)[N-]c2cccc(F)c2)c1OC (protonated)
COc1cccc(C[N@@H+](C)CC(=O)[N-]c2cccc(F)c2)c1OC (chirality)
COc1cccc(C[N@@H+](C)CC(=O)[N-]c2cccc(F)c2)c1OC (3D coordinates assigned)
COc1cccc(C[N@@H+](C)CC(=O)[N-]c2cccc(F)c2)c1OC (optimized conformer: 54.08946673339101 kcal/mol)

>  <smiles>  (34) 
COc1cccc(CN(C)CC(=O)Nc2cccc(F)c2)c1OC

>  <score_type>  (34) 
oracle

>  <origin>  (34) 
adgpu

>  <m_score__min__energy>  (34) 
-7.6699999999999999

>  <m_primary>  (34) 
energy

$$$$
34:0
     RDKit          3D

 46 47  0  0  0  0  0  0  0  0999 V2000
   -0.5670   19.7900  -28.3100 C   0  0  0  0  0  0  0  0  0  0  0  0
   -1.8630   20.3540  -27.9100 N   0  0  0  0  0  0  0  0  0  0  0  0
   -2.6350   19.6860  -26.8560 C   0  0  0  0  0  0  0  0  0  0  0  0
   -2.3710   21.5530  -28.5470 C   0  0  0  0  0  0  0  0  0  0  0  0
   -3.2490   22.4190  -27.8650 C   0  0  0  0  0  0  0  0  0  0  0  0
   -3.7380   23.5750  -28.4800 C   0  0  0  0  0  0  0  0  0  0  0  0
   -3.3500   23.8990  -29.7890 C   0  0  0  0  0  0  0  0  0  0  0  0
   -3.8410   25.0670  -30.4640 N   0  0  0  0  0  0  0  0  0  0  0  0
   -5.1720   25.5950  -30.3920 C   0  0  0  0  0  0  0  0  0  0  0  0
   -5.3790   26.8380  -30.4350 O   0  0  0  0  0  0  0  0  0  0  0  0
   -6.3330   24.6570  -30.3820 C   0  0  0  0  0  0  0  0  0  0  0  0
   -6.4180   23.7990  -31.9400 S   0  0  0  0  0  0  0  0  0  0  0  0
   -4.9180   23.1420  -32.3240 O   0  0  0  0  0  0  0  0  0  0  0  0
   -7.6640   22.5260  -31.9000 C   0  0  0  0  0  0  0  0  0  0  0  0
   -7.0220   21.1880  -32.0770 C   0  0  0  0  0  0  0  0  0  0  0  0
   -7.2840   20.2660  -31.2580 O   0  0  0  0  0  0  0  0  0  0  0  0
   -6.0500   20.9900  -33.1160 N   0  0  0  0  0  0  0  0  0  0  0  0
   -5.4480   19.7210  -33.4180 C   0  0  0  0  0  0  0  0  0  0  0  0
   -4.0500   19.5980  -33.3930 C   0  0  0  0  0  0  0  0  0  0  0  0
   -3.4410   18.3760  -33.6920 C   0  0  0  0  0  0  0  0  0  0  0  0
   -4.2220   17.2680  -34.0330 C   0  0  0  0  0  0  0  0  0  0  0  0
   -3.6290   16.0830  -34.3200 F   0  0  0  0  0  0  0  0  0  0  0  0
   -5.6140   17.3860  -34.0870 C   0  0  0  0  0  0  0  0  0  0  0  0
   -6.3750   16.3170  -34.4340 F   0  0  0  0  0  0  0  0  0  0  0  0
   -6.2270   18.6100  -33.7880 C   0  0  0  0  0  0  0  0  0  0  0  0
   -2.4980   23.0340  -30.4820 C   0  0  0  0  0  0  0  0  0  0  0  0
   -2.0050   21.8790  -29.8690 C   0  0  0  0  0  0  0  0  0  0  0  0
    0.0155   19.5365  -27.4119 H   0  0  0  0  0  0  0  0  0  0  0  0
   -0.7314   18.8820  -28.9088 H   0  0  0  0  0  0  0  0  0  0  0  0
   -0.0146   20.5291  -28.9088 H   0  0  0  0  0  0  0  0  0  0  0  0
   -2.2646   20.0065  -25.8711 H   0  0  0  0  0  0  0  0  0  0  0  0
   -3.6973   19.9545  -26.9534 H   0  0  0  0  0  0  0  0  0  0  0  0
   -2.5219   18.5962  -26.9534 H   0  0  0  0  0  0  0  0  0  0  0  0
   -3.5536   22.1820  -26.8349 H   0  0  0  0  0  0  0  0  0  0  0  0
   -4.4302   24.2339  -27.9353 H   0  0  0  0  0  0  0  0  0  0  0  0
   -6.2078   23.9275  -29.5683 H   0  0  0  0  0  0  0  0  0  0  0  0
   -7.2617   25.2254  -30.2259 H   0  0  0  0  0  0  0  0  0  0  0  0
   -4.2610   23.7960  -31.9770 H   0  0  0  0  0  0  0  0  0  0  0  0
   -8.1865   22.5559  -30.9325 H   0  0  0  0  0  0  0  0  0  0  0  0
   -8.3844   22.6953  -32.7139 H   0  0  0  0  0  0  0  0  0  0  0  0
   -5.6790   21.8390  -33.6010 H   0  0  0  0  0  0  0  0  0  0  0  0
   -3.4295   20.4693  -33.1364 H   0  0  0  0  0  0  0  0  0  0  0  0
   -2.3452   18.2860  -33.6589 H   0  0  0  0  0  0  0  0  0  0  0  0
   -7.3217   18.7023  -33.8429 H   0  0  0  0  0  0  0  0  0  0  0  0
   -2.2131   23.2646  -31.5191 H   0  0  0  0  0  0  0  0  0  0  0  0
   -1.3240   21.2170  -30.4239 H   0  0  0  0  0  0  0  0  0  0  0  0
  1  2  1  0
  2  3  1  0
  2  4  1  0
  4  5  2  0
  5  6  1  0
  6  7  2  0
  7  8  1  0
  8  9  1  0
  9 10  2  0
  9 11  1  0
 11 12  1  0
 12 13  1  1
 12 14  1  0
 14 15  1  0
 15 16  2  0
 15 17  1  0
 17 18  1  0
 18 19  2  0
 19 20  1  0
 20 21  2  0
 21 22  1  0
 21 23  1  0
 23 24  1  0
 23 25  2  0
  7 26  1  0
 26 27  2  0
 27  4  1  0
 25 18  1  0
  1 28  1  0
  1 29  1  0
  1 30  1  0
  3 31  1  0
  3 32  1  0
  3 33  1  0
  5 34  1  0
  6 35  1  0
 11 36  1  0
 11 37  1  0
 13 38  1  0
 14 39  1  0
 14 40  1  0
 17 41  1  0
 19 42  1  0
 20 43  1  0
 25 44  1  0
 26 45  1  0
 27 46  1  0
M  CHG  2   8  -1  12   1
M  END
>  <UniqueID>  (35) 
32

>  <SMILES>  (35) 
CN(C)c1ccc([N-]C(=O)C[S@@+](O)CC(=O)Nc2ccc(F)c(F)c2)cc1

>  <Energy>  (35) 
44.91704737965311

>  <Genealogy>  (35) 
CN(C)c1ccc([N-]C(=O)C[S+](O)CC(=O)Nc2ccc(F)c(F)c2)cc1 (protonated)
CN(C)c1ccc([N-]C(=O)C[S@@+](O)CC(=O)Nc2ccc(F)c(F)c2)cc1 (chirality)
CN(C)c1ccc([N-]C(=O)C[S@@+](O)CC(=O)Nc2ccc(F)c(F)c2)cc1 (3D coordinates assigned)
CN(C)c1ccc([N-]C(=O)C[S@@+](O)CC(=O)Nc2ccc(F)c(F)c2)cc1 (optimized conformer: 44.91704737965311 kcal/mol)

>  <smiles>  (35) 
CN(C)c1ccc(NC(=O)C[S+]([O-])CC(=O)Nc2ccc(F)c(F)c2)cc1

>  <score_type>  (35) 
oracle

>  <origin>  (35) 
adgpu

>  <m_score__min__energy>  (35) 
-8.9499999999999993

>  <m_primary>  (35) 
energy

$$$$
35:0
     RDKit          3D

 40 42  0  0  0  0  0  0  0  0999 V2000
   -5.4919   25.7160  -30.1869 H   0  0  0  0  0  0  0  0  0  0  0  0
   -4.6680   24.9900  -30.2520 C   0  0  0  0  0  0  0  0  0  0  0  0
   -3.4600   25.2950  -29.7220 N   0  0  0  0  0  0  0  0  0  0  0  0
   -2.4460   24.3950  -29.6740 C   0  0  0  0  0  0  0  0  0  0  0  0
   -1.2460   24.7620  -29.0610 C   0  0  0  0  0  0  0  0  0  0  0  0
   -1.0953   25.8028  -28.7385 H   0  0  0  0  0  0  0  0  0  0  0  0
   -0.2380   23.8230  -28.8540 C   0  0  0  0  0  0  0  0  0  0  0  0
    0.9620   24.2540  -28.2710 O   0  0  0  0  0  0  0  0  0  0  0  0
    1.0710   24.8010  -26.9600 C   0  0  0  0  0  0  0  0  0  0  0  0
    0.9126   24.0059  -26.2166 H   0  0  0  0  0  0  0  0  0  0  0  0
    2.0731   25.2342  -26.8256 H   0  0  0  0  0  0  0  0  0  0  0  0
    0.3115   25.5853  -26.8256 H   0  0  0  0  0  0  0  0  0  0  0  0
   -0.4740   22.4820  -29.1970 C   0  0  0  0  0  0  0  0  0  0  0  0
    0.3024   21.7274  -29.0028 H   0  0  0  0  0  0  0  0  0  0  0  0
   -1.6930   22.0900  -29.7870 C   0  0  0  0  0  0  0  0  0  0  0  0
   -2.0280   20.7310  -29.9000 O   0  0  0  0  0  0  0  0  0  0  0  0
   -1.2170   19.6470  -29.4560 C   0  0  0  0  0  0  0  0  0  0  0  0
   -1.2019   19.6268  -28.3563 H   0  0  0  0  0  0  0  0  0  0  0  0
   -1.6306   18.7006  -29.8345 H   0  0  0  0  0  0  0  0  0  0  0  0
   -0.1923   19.7767  -29.8345 H   0  0  0  0  0  0  0  0  0  0  0  0
   -2.6280   23.0860  -30.1840 C   0  0  0  0  0  0  0  0  0  0  0  0
   -3.8100   22.8270  -30.9520 C   0  0  0  0  0  0  0  0  0  0  0  0
   -3.9430   21.8220  -31.7820 N   0  0  0  0  0  0  0  0  0  0  0  0
   -2.9460   20.9830  -32.3860 C   0  0  0  0  0  0  0  0  0  0  0  0
   -3.0440   19.5810  -32.3340 C   0  0  0  0  0  0  0  0  0  0  0  0
   -3.9081   19.1088  -31.8436 H   0  0  0  0  0  0  0  0  0  0  0  0
   -2.0460   18.7870  -32.9040 C   0  0  0  0  0  0  0  0  0  0  0  0
   -2.1365   17.6910  -32.8801 H   0  0  0  0  0  0  0  0  0  0  0  0
   -0.9320   19.3820  -33.5050 C   0  0  0  0  0  0  0  0  0  0  0  0
    0.0300   18.6020  -34.0580 F   0  0  0  0  0  0  0  0  0  0  0  0
   -0.8100   20.7770  -33.5220 C   0  0  0  0  0  0  0  0  0  0  0  0
    0.5920   21.5360  -34.2580 Cl  0  0  0  0  0  0  0  0  0  0  0  0
   -1.8080   21.5730  -32.9500 C   0  0  0  0  0  0  0  0  0  0  0  0
   -1.6984   22.6675  -32.9432 H   0  0  0  0  0  0  0  0  0  0  0  0
   -4.8760   23.7580  -30.8820 C   0  0  0  0  0  0  0  0  0  0  0  0
   -6.1870   23.5230  -31.5330 C   0  0  0  0  0  0  0  0  0  0  0  0
   -7.2190   24.0670  -31.0580 O   0  0  0  0  0  0  0  0  0  0  0  0
   -6.2980   22.7310  -32.7190 N   0  0  0  0  0  0  0  0  0  0  0  0
   -5.4510   22.4170  -33.2400 H   0  0  0  0  0  0  0  0  0  0  0  0
   -7.2370   22.5370  -33.1310 H   0  0  0  0  0  0  0  0  0  0  0  0
  1  2  1  0
  2  3  1  0
  3  4  1  0
  4  5  2  0
  5  6  1  0
  5  7  1  0
  7  8  1  0
  8  9  1  0
  9 10  1  0
  9 11  1  0
  9 12  1  0
  7 13  2  0
 13 14  1  0
 13 15  1  0
 15 16  1  0
 16 17  1  0
 17 18  1  0
 17 19  1  0
 17 20  1  0
 15 21  2  0
 21 22  1  0
 22 23  2  0
 23 24  1  0
 24 25  2  0
 25 26  1  0
 25 27  1  0
 27 28  1  0
 27 29  2  0
 29 30  1  0
 29 31  1  0
 31 32  1  0
 31 33  2  0
 33 34  1  0
 22 35  1  0
 35 36  1  0
 36 37  2  0
 36 38  1  0
 38 39  1  0
 38 40  1  0
 35  2  2  0
 21  4  1  0
 33 24  1  0
M  CHG  1   3  -1
M  END
>  <UniqueID>  (36) 
33

>  <SMILES>  (36) 
COc1cc(OC)c2/c(=N\c3ccc(F)c(Cl)c3)c(C(N)=O)c[n-]c2c1

>  <Energy>  (36) 
75.44675284588553

>  <Genealogy>  (36) 
COc1cc(OC)c2c(=Nc3ccc(F)c(Cl)c3)c(C(N)=O)c[n-]c2c1 (protonated)
COc1cc(OC)c2/c(=N\c3ccc(F)c(Cl)c3)c(C(N)=O)c[n-]c2c1 (cis-trans isomerization)
COc1cc(OC)c2/c(=N\c3ccc(F)c(Cl)c3)c(C(N)=O)c[n-]c2c1 (3D coordinates assigned)
COc1cc(OC)c2/c(=N\c3ccc(F)c(Cl)c3)c(C(N)=O)c[n-]c2c1 (optimized conformer: 75.44675284588553 kcal/mol)

>  <smiles>  (36) 
COc1cc(OC)c2c(=Nc3ccc(F)c(Cl)c3)c(C(N)=O)c[nH]c2c1

>  <score_type>  (36) 
oracle

>  <origin>  (36) 
adgpu

>  <m_score__min__energy>  (36) 
-7.7999999999999998

>  <m_primary>  (36) 
energy

$$$$
36:0
     RDKit          3D

 27 28  0  0  0  0  0  0  0  0999 V2000
   -0.9610   22.1240  -29.9690 C   0  0  0  0  0  0  0  0  0  0  0  0
   -1.9030   22.4190  -28.8460 C   0  0  0  0  0  0  0  0  0  0  0  0
   -2.2570   21.5040  -27.9210 N   0  0  0  0  0  0  0  0  0  0  0  0
   -3.1020   22.0790  -27.1160 O   0  0  0  0  0  0  0  0  0  0  0  0
   -3.3170   23.3270  -27.4620 C   0  0  0  0  0  0  0  0  0  0  0  0
   -4.2430   24.2490  -26.7410 C   0  0  0  0  0  0  0  0  0  0  0  0
   -2.5520   23.6150  -28.5780 C   0  0  0  0  0  0  0  0  0  0  0  0
   -2.4960   24.8910  -29.3220 C   0  0  0  0  0  0  0  0  0  0  0  0
   -1.5160   25.6600  -29.1480 O   0  0  0  0  0  0  0  0  0  0  0  0
   -3.5440   25.2990  -30.2110 N   0  0  0  0  0  0  0  0  0  0  0  0
   -4.7290   24.5510  -30.5180 C   0  0  0  0  0  0  0  0  0  0  0  0
   -4.6020   23.3330  -31.1970 C   0  0  0  0  0  0  0  0  0  0  0  0
   -5.7360   22.5770  -31.5090 C   0  0  0  0  0  0  0  0  0  0  0  0
   -7.0050   23.0270  -31.1300 C   0  0  0  0  0  0  0  0  0  0  0  0
   -8.4270   22.0780  -31.5220 Cl  0  0  0  0  0  0  0  0  0  0  0  0
   -7.1370   24.2310  -30.4290 C   0  0  0  0  0  0  0  0  0  0  0  0
   -6.0040   24.9880  -30.1170 C   0  0  0  0  0  0  0  0  0  0  0  0
    0.0134   21.8189  -29.5597 H   0  0  0  0  0  0  0  0  0  0  0  0
   -1.3701   21.3110  -30.5867 H   0  0  0  0  0  0  0  0  0  0  0  0
   -0.8332   23.0251  -30.5867 H   0  0  0  0  0  0  0  0  0  0  0  0
   -4.1155   24.1220  -25.6558 H   0  0  0  0  0  0  0  0  0  0  0  0
   -4.0143   25.2887  -27.0179 H   0  0  0  0  0  0  0  0  0  0  0  0
   -5.2817   24.0158  -27.0179 H   0  0  0  0  0  0  0  0  0  0  0  0
   -3.6051   22.9691  -31.4864 H   0  0  0  0  0  0  0  0  0  0  0  0
   -5.6301   21.6270  -32.0533 H   0  0  0  0  0  0  0  0  0  0  0  0
   -8.1336   24.5821  -30.1231 H   0  0  0  0  0  0  0  0  0  0  0  0
   -6.1101   25.9283  -29.5561 H   0  0  0  0  0  0  0  0  0  0  0  0
  1  2  1  0
  2  3  2  0
  3  4  1  0
  4  5  1  0
  5  6  1  0
  5  7  2  0
  7  8  1  0
  8  9  2  0
  8 10  1  0
 10 11  1  0
 11 12  2  0
 12 13  1  0
 13 14  2  0
 14 15  1  0
 14 16  1  0
 16 17  2  0
  7  2  1  0
 17 11  1  0
  1 18  1  0
  1 19  1  0
  1 20  1  0
  6 21  1  0
  6 22  1  0
  6 23  1  0
 12 24  1  0
 13 25  1  0
 16 26  1  0
 17 27  1  0
M  CHG  1  10  -1
M  END
>  <UniqueID>  (37) 
34

>  <SMILES>  (37) 
Cc1noc(C)c1C(=O)[N-]c1ccc(Cl)cc1

>  <Energy>  (37) 
62.54618331279953

>  <Genealogy>  (37) 
Cc1noc(C)c1C(=O)[N-]c1ccc(Cl)cc1 (protonated)
Cc1noc(C)c1C(=O)[N-]c1ccc(Cl)cc1 (3D coordinates assigned)
Cc1noc(C)c1C(=O)[N-]c1ccc(Cl)cc1 (optimized conformer: 62.54618331279953 kcal/mol)

>  <smiles>  (37) 
Cc1noc(C)c1C(=O)Nc1ccc(Cl)cc1

>  <score_type>  (37) 
oracle

>  <origin>  (37) 
adgpu

>  <m_score__min__energy>  (37) 
-8.1400000000000006

>  <m_primary>  (37) 
energy

$$$$
37:0
     RDKit          3D

 47 49  0  0  0  0  0  0  0  0999 V2000
   -5.5410   24.1450  -29.4340 C   0  0  0  0  0  0  0  0  0  0  0  0
   -4.4830   24.9090  -30.1710 C   0  0  0  0  0  0  0  0  0  0  0  0
   -4.8000   25.5370  -31.2160 O   0  0  0  0  0  0  0  0  0  0  0  0
   -3.1160   24.9230  -29.7390 N   0  0  0  0  0  0  0  0  0  0  0  0
   -2.2500   23.7830  -29.6720 C   0  0  0  0  0  0  0  0  0  0  0  0
   -1.5660   23.4540  -28.4900 C   0  0  0  0  0  0  0  0  0  0  0  0
   -0.7320   22.3330  -28.4510 C   0  0  0  0  0  0  0  0  0  0  0  0
   -0.5780   21.5330  -29.5860 C   0  0  0  0  0  0  0  0  0  0  0  0
   -1.2370   21.8680  -30.7770 C   0  0  0  0  0  0  0  0  0  0  0  0
   -1.1670   20.7650  -32.1480 S   0  0  0  0  0  0  0  0  0  0  0  0
   -1.5510   19.3850  -31.6950 O   0  0  0  0  0  0  0  0  0  0  0  0
    0.2190   20.7190  -32.7280 O   0  0  0  0  0  0  0  0  0  0  0  0
   -2.2890   21.3180  -33.3480 N   0  0  0  0  0  0  0  0  0  0  0  0
   -3.6380   20.8440  -33.3190 C   0  0  0  0  0  0  0  0  0  0  0  0
   -4.0580   19.5360  -33.5000 C   0  0  0  0  0  0  0  0  0  0  0  0
   -3.1820   18.3800  -33.8790 C   0  0  0  0  0  0  0  0  0  0  0  0
   -5.3430   19.4340  -33.0720 N   0  0  0  0  0  0  0  0  0  0  0  0
   -6.1210   18.1950  -32.9810 C   0  0  0  0  0  0  0  0  0  0  0  0
   -5.7580   20.6360  -32.6680 N   0  0  0  0  0  0  0  0  0  0  0  0
   -7.0570   20.9440  -32.1270 C   0  0  0  0  0  0  0  0  0  0  0  0
   -7.1750   21.7780  -31.0030 C   0  0  0  0  0  0  0  0  0  0  0  0
   -8.4340   22.0730  -30.4720 C   0  0  0  0  0  0  0  0  0  0  0  0
   -9.5850   21.5490  -31.0670 C   0  0  0  0  0  0  0  0  0  0  0  0
   -9.4770   20.7310  -32.1950 C   0  0  0  0  0  0  0  0  0  0  0  0
   -8.2180   20.4320  -32.7270 C   0  0  0  0  0  0  0  0  0  0  0  0
   -4.7300   21.4990  -32.7910 C   0  0  0  0  0  0  0  0  0  0  0  0
   -4.7730   22.7150  -32.4650 O   0  0  0  0  0  0  0  0  0  0  0  0
   -2.0570   23.0050  -30.8200 C   0  0  0  0  0  0  0  0  0  0  0  0
   -5.3864   24.2567  -28.3507 H   0  0  0  0  0  0  0  0  0  0  0  0
   -6.5324   24.5369  -29.7052 H   0  0  0  0  0  0  0  0  0  0  0  0
   -5.4808   23.0807  -29.7052 H   0  0  0  0  0  0  0  0  0  0  0  0
   -1.6869   24.0797  -27.5934 H   0  0  0  0  0  0  0  0  0  0  0  0
   -0.1957   22.0801  -27.5245 H   0  0  0  0  0  0  0  0  0  0  0  0
    0.0614   20.6388  -29.5450 H   0  0  0  0  0  0  0  0  0  0  0  0
   -1.8990   21.6810  -34.2440 H   0  0  0  0  0  0  0  0  0  0  0  0
   -2.8094   17.8883  -32.9683 H   0  0  0  0  0  0  0  0  0  0  0  0
   -3.7627   17.6593  -34.4734 H   0  0  0  0  0  0  0  0  0  0  0  0
   -2.3311   18.7442  -34.4734 H   0  0  0  0  0  0  0  0  0  0  0  0
   -6.2814   17.9396  -31.9231 H   0  0  0  0  0  0  0  0  0  0  0  0
   -7.0934   18.3354  -33.4758 H   0  0  0  0  0  0  0  0  0  0  0  0
   -5.5721   17.3802  -33.4758 H   0  0  0  0  0  0  0  0  0  0  0  0
   -6.2722   22.2011  -30.5383 H   0  0  0  0  0  0  0  0  0  0  0  0
   -8.5189   22.7181  -29.5851 H   0  0  0  0  0  0  0  0  0  0  0  0
  -10.5753   21.7803  -30.6477 H   0  0  0  0  0  0  0  0  0  0  0  0
  -10.3832   20.3216  -32.6653 H   0  0  0  0  0  0  0  0  0  0  0  0
   -8.1377   19.7932  -33.6189 H   0  0  0  0  0  0  0  0  0  0  0  0
   -2.5514   23.2872  -31.7612 H   0  0  0  0  0  0  0  0  0  0  0  0
  1  2  1  0
  2  3  2  0
  2  4  1  0
  4  5  1  0
  5  6  2  0
  6  7  1  0
  7  8  2  0
  8  9  1  0
  9 10  1  0
 10 11  2  0
 10 12  2  0
 10 13  1  0
 13 14  1  0
 14 15  2  0
 15 16  1  0
 15 17  1  0
 17 18  1  0
 17 19  1  0
 19 20  1  0
 20 21  2  0
 21 22  1  0
 22 23  2  0
 23 24  1  0
 24 25  2  0
 19 26  1  0
 26 27  2  0
  9 28  2  0
 28  5  1  0
 26 14  1  0
 25 20  1  0
  1 29  1  0
  1 30  1  0
  1 31  1  0
  6 32  1  0
  7 33  1  0
  8 34  1  0
 13 35  1  0
 16 36  1  0
 16 37  1  0
 16 38  1  0
 18 39  1  0
 18 40  1  0
 18 41  1  0
 21 42  1  0
 22 43  1  0
 23 44  1  0
 24 45  1  0
 25 46  1  0
 28 47  1  0
M  CHG  1   4  -1
M  END
>  <UniqueID>  (38) 
35

>  <SMILES>  (38) 
CC(=O)[N-]c1cccc(S(=O)(=O)Nc2c(C)n(C)n(-c3ccccc3)c2=O)c1

>  <Energy>  (38) 
94.96301846490057

>  <Genealogy>  (38) 
CC(=O)[N-]c1cccc(S(=O)(=O)Nc2c(C)n(C)n(-c3ccccc3)c2=O)c1 (protonated)
CC(=O)[N-]c1cccc(S(=O)(=O)Nc2c(C)n(C)n(-c3ccccc3)c2=O)c1 (3D coordinates assigned)
CC(=O)[N-]c1cccc(S(=O)(=O)Nc2c(C)n(C)n(-c3ccccc3)c2=O)c1 (optimized conformer: 94.96301846490057 kcal/mol)

>  <smiles>  (38) 
CC(=O)Nc1cccc(S(=O)(=O)Nc2c(C)n(C)n(-c3ccccc3)c2=O)c1

>  <score_type>  (38) 
oracle

>  <origin>  (38) 
adgpu

>  <m_score__min__energy>  (38) 
-11.48

>  <m_primary>  (38) 
energy

$$$$
38:0
     RDKit          3D

 27 29  0  0  0  0  0  0  0  0999 V2000
   -4.2220   25.6790  -30.4350 O   0  0  0  0  0  0  0  0  0  0  0  0
   -4.1150   24.4250  -30.5070 C   0  0  0  0  0  0  0  0  0  0  0  0
   -4.7470   23.7710  -31.5100 N   0  0  0  0  0  0  0  0  0  0  0  0
   -4.6770   22.4260  -31.6370 C   0  0  0  0  0  0  0  0  0  0  0  0
   -5.3490   21.7970  -32.6910 C   0  0  0  0  0  0  0  0  0  0  0  0
   -5.2850   20.4090  -32.8370 C   0  0  0  0  0  0  0  0  0  0  0  0
   -6.1300   19.6250  -34.1590 Cl  0  0  0  0  0  0  0  0  0  0  0  0
   -4.5470   19.6460  -31.9290 C   0  0  0  0  0  0  0  0  0  0  0  0
   -3.8720   20.2650  -30.8740 C   0  0  0  0  0  0  0  0  0  0  0  0
   -3.9270   21.6690  -30.7120 C   0  0  0  0  0  0  0  0  0  0  0  0
   -3.2650   22.3610  -29.6670 C   0  0  0  0  0  0  0  0  0  0  0  0
   -2.3460   21.5310  -28.5660 S   0  0  0  0  0  0  0  0  0  0  0  0
   -3.3770   23.7320  -29.5830 N   0  0  0  0  0  0  0  0  0  0  0  0
   -2.7260   24.4690  -28.5290 C   0  0  0  0  0  0  0  0  0  0  0  0
   -3.3130   24.5510  -27.2570 C   0  0  0  0  0  0  0  0  0  0  0  0
   -2.6820   25.2690  -26.2370 C   0  0  0  0  0  0  0  0  0  0  0  0
   -1.4650   25.9120  -26.4840 C   0  0  0  0  0  0  0  0  0  0  0  0
   -0.8780   25.8380  -27.7490 C   0  0  0  0  0  0  0  0  0  0  0  0
   -1.5060   25.1190  -28.7720 C   0  0  0  0  0  0  0  0  0  0  0  0
   -5.9295   22.3973  -33.4069 H   0  0  0  0  0  0  0  0  0  0  0  0
   -4.4971   18.5533  -32.0451 H   0  0  0  0  0  0  0  0  0  0  0  0
   -3.2934   19.6559  -30.1640 H   0  0  0  0  0  0  0  0  0  0  0  0
   -4.2722   24.0490  -27.0621 H   0  0  0  0  0  0  0  0  0  0  0  0
   -3.1428   25.3282  -25.2399 H   0  0  0  0  0  0  0  0  0  0  0  0
   -0.9694   26.4769  -25.6807 H   0  0  0  0  0  0  0  0  0  0  0  0
    0.0789   26.3454  -27.9413 H   0  0  0  0  0  0  0  0  0  0  0  0
   -1.0428   25.0631  -29.7682 H   0  0  0  0  0  0  0  0  0  0  0  0
  1  2  2  0
  2  3  1  0
  3  4  1  0
  4  5  2  0
  5  6  1  0
  6  7  1  0
  6  8  2  0
  8  9  1  0
  9 10  2  0
 10 11  1  0
 11 12  2  0
 11 13  1  0
 13 14  1  0
 14 15  2  0
 15 16  1  0
 16 17  2  0
 17 18  1  0
 18 19  2  0
 13  2  1  0
 19 14  1  0
 10  4  1  0
  5 20  1  0
  8 21  1  0
  9 22  1  0
 15 23  1  0
 16 24  1  0
 17 25  1  0
 18 26  1  0
 19 27  1  0
M  CHG  1   3  -1
M  END
>  <UniqueID>  (39) 
36

>  <SMILES>  (39) 
O=c1[n-]c2cc(Cl)ccc2c(=S)n1-c1ccccc1

>  <Energy>  (39) 
48.90941387219678

>  <Genealogy>  (39) 
O=c1[n-]c2cc(Cl)ccc2c(=S)n1-c1ccccc1 (protonated)
O=c1[n-]c2cc(Cl)ccc2c(=S)n1-c1ccccc1 (3D coordinates assigned)
O=c1[n-]c2cc(Cl)ccc2c(=S)n1-c1ccccc1 (optimized conformer: 48.90941387219678 kcal/mol)

>  <smiles>  (39) 
O=c1[nH]c2cc(Cl)ccc2c(=S)n1-c1ccccc1

>  <score_type>  (39) 
oracle

>  <origin>  (39) 
adgpu

>  <m_score__min__energy>  (39) 
-7.9500000000000002

>  <m_primary>  (39) 
energy

$$$$
39:0
     RDKit          3D

 20 20  0  0  0  0  0  0  0  0999 V2000
   -6.8660   23.6390  -31.5870 C   0  0  0  0  0  0  0  0  0  0  0  0
   -6.4830   24.2480  -30.2440 C   0  0  0  0  0  0  0  0  0  0  0  0
   -5.2760   25.6030  -30.4580 S   0  0  0  0  0  0  0  0  0  0  0  0
   -3.8340   24.5520  -30.3030 C   0  0  0  0  0  0  0  0  0  0  0  0
   -2.8070   24.9240  -29.4940 N   0  0  0  0  0  0  0  0  0  0  0  0
   -1.7030   24.1440  -29.3670 C   0  0  0  0  0  0  0  0  0  0  0  0
   -0.7640   24.5060  -28.6110 O   0  0  0  0  0  0  0  0  0  0  0  0
   -1.6120   22.9450  -30.0760 C   0  0  0  0  0  0  0  0  0  0  0  0
   -2.6750   22.5790  -30.9070 C   0  0  0  0  0  0  0  0  0  0  0  0
   -2.6200   21.3080  -31.6920 C   0  0  0  0  0  0  0  0  0  0  0  0
   -3.7600   23.3910  -31.0060 N   0  0  0  0  0  0  0  0  0  0  0  0
   -7.4449   22.7186  -31.4205 H   0  0  0  0  0  0  0  0  0  0  0  0
   -7.4751   24.3575  -32.1551 H   0  0  0  0  0  0  0  0  0  0  0  0
   -5.9545   23.4012  -32.1551 H   0  0  0  0  0  0  0  0  0  0  0  0
   -7.3867   24.6449  -29.7585 H   0  0  0  0  0  0  0  0  0  0  0  0
   -6.0235   23.4649  -29.6230 H   0  0  0  0  0  0  0  0  0  0  0  0
   -0.7239   22.3026  -29.9830 H   0  0  0  0  0  0  0  0  0  0  0  0
   -2.5830   20.4522  -31.0020 H   0  0  0  0  0  0  0  0  0  0  0  0
   -3.5156   21.2295  -32.3258 H   0  0  0  0  0  0  0  0  0  0  0  0
   -1.7210   21.3071  -32.3258 H   0  0  0  0  0  0  0  0  0  0  0  0
  1  2  1  0
  2  3  1  0
  3  4  1  0
  4  5  2  0
  5  6  1  0
  6  7  2  0
  6  8  1  0
  8  9  2  0
  9 10  1  0
  9 11  1  0
 11  4  1  0
  1 12  1  0
  1 13  1  0
  1 14  1  0
  2 15  1  0
  2 16  1  0
  8 17  1  0
 10 18  1  0
 10 19  1  0
 10 20  1  0
M  CHG  1  11  -1
M  END
>  <UniqueID>  (40) 
37

>  <SMILES>  (40) 
CCSc1nc(=O)cc(C)[n-]1

>  <Energy>  (40) 
11.75718571336622

>  <Genealogy>  (40) 
CCSc1nc(=O)cc(C)[n-]1 (protonated)
CCSc1nc(=O)cc(C)[n-]1 (3D coordinates assigned)
CCSc1nc(=O)cc(C)[n-]1 (optimized conformer: 11.75718571336622 kcal/mol)

>  <smiles>  (40) 
CCSc1nc(=O)cc(C)[nH]1

>  <score_type>  (40) 
oracle

>  <origin>  (40) 
adgpu

>  <m_score__min__energy>  (40) 
-5.5999999999999996

>  <m_primary>  (40) 
energy

$$$$
40:0
     RDKit          3D

 35 37  0  0  0  0  0  0  0  0999 V2000
   -9.0970   20.0750  -32.2400 C   0  0  0  0  0  0  0  0  0  0  0  0
   -8.2600   21.1310  -32.7010 O   0  0  0  0  0  0  0  0  0  0  0  0
   -7.1840   21.6670  -31.9760 C   0  0  0  0  0  0  0  0  0  0  0  0
   -7.3780   22.5420  -30.8900 C   0  0  0  0  0  0  0  0  0  0  0  0
   -6.2840   23.0560  -30.1930 C   0  0  0  0  0  0  0  0  0  0  0  0
   -4.9790   22.7070  -30.5660 C   0  0  0  0  0  0  0  0  0  0  0  0
   -3.8500   23.2390  -29.8430 N   0  0  0  0  0  0  0  0  0  0  0  0
   -3.4840   24.5510  -30.0150 C   0  0  0  0  0  0  0  0  0  0  0  0
   -4.1190   25.2980  -30.8090 O   0  0  0  0  0  0  0  0  0  0  0  0
   -2.4250   25.0630  -29.3380 N   0  0  0  0  0  0  0  0  0  0  0  0
   -1.6990   24.3040  -28.4820 C   0  0  0  0  0  0  0  0  0  0  0  0
   -0.6100   24.8620  -27.8010 C   0  0  0  0  0  0  0  0  0  0  0  0
    0.1380   24.0800  -26.9190 C   0  0  0  0  0  0  0  0  0  0  0  0
   -0.1950   22.7390  -26.7140 C   0  0  0  0  0  0  0  0  0  0  0  0
   -1.2810   22.1730  -27.3900 C   0  0  0  0  0  0  0  0  0  0  0  0
   -2.0410   22.9530  -28.2810 C   0  0  0  0  0  0  0  0  0  0  0  0
   -3.1430   22.4350  -28.9850 C   0  0  0  0  0  0  0  0  0  0  0  0
   -3.4860   21.2310  -28.8150 O   0  0  0  0  0  0  0  0  0  0  0  0
   -4.7810   21.8360  -31.6460 C   0  0  0  0  0  0  0  0  0  0  0  0
   -5.8800   21.3130  -32.3560 C   0  0  0  0  0  0  0  0  0  0  0  0
   -5.7170   20.4390  -33.4420 O   0  0  0  0  0  0  0  0  0  0  0  0
   -6.0710   19.0600  -33.4290 C   0  0  0  0  0  0  0  0  0  0  0  0
   -9.1040   20.0662  -31.1401 H   0  0  0  0  0  0  0  0  0  0  0  0
  -10.1206   20.2295  -32.6119 H   0  0  0  0  0  0  0  0  0  0  0  0
   -8.7129   19.1137  -32.6119 H   0  0  0  0  0  0  0  0  0  0  0  0
   -8.3983   22.8221  -30.5892 H   0  0  0  0  0  0  0  0  0  0  0  0
   -6.4467   23.7389  -29.3461 H   0  0  0  0  0  0  0  0  0  0  0  0
   -0.3438   25.9172  -27.9611 H   0  0  0  0  0  0  0  0  0  0  0  0
    0.9920   24.5211  -26.3840 H   0  0  0  0  0  0  0  0  0  0  0  0
    0.3983   22.1265  -26.0192 H   0  0  0  0  0  0  0  0  0  0  0  0
   -1.5411   21.1170  -27.2249 H   0  0  0  0  0  0  0  0  0  0  0  0
   -3.7586   21.5582  -31.9420 H   0  0  0  0  0  0  0  0  0  0  0  0
   -6.1598   18.7140  -32.3886 H   0  0  0  0  0  0  0  0  0  0  0  0
   -7.0333   18.9236  -33.9442 H   0  0  0  0  0  0  0  0  0  0  0  0
   -5.2934   18.4770  -33.9442 H   0  0  0  0  0  0  0  0  0  0  0  0
  1  2  1  0
  2  3  1  0
  3  4  2  0
  4  5  1  0
  5  6  2  0
  6  7  1  0
  7  8  1  0
  8  9  2  0
  8 10  1  0
 10 11  1  0
 11 12  2  0
 12 13  1  0
 13 14  2  0
 14 15  1  0
 15 16  2  0
 16 17  1  0
 17 18  2  0
  6 19  1  0
 19 20  2  0
 20 21  1  0
 21 22  1  0
 20  3  1  0
 17  7  1  0
 16 11  1  0
  1 23  1  0
  1 24  1  0
  1 25  1  0
  4 26  1  0
  5 27  1  0
 12 28  1  0
 13 29  1  0
 14 30  1  0
 15 31  1  0
 19 32  1  0
 22 33  1  0
 22 34  1  0
 22 35  1  0
M  CHG  1  10  -1
M  END
>  <UniqueID>  (41) 
38

>  <SMILES>  (41) 
COc1ccc(-n2c(=O)[n-]c3ccccc3c2=O)cc1OC

>  <Energy>  (41) 
51.25804125116334

>  <Genealogy>  (41) 
COc1ccc(-n2c(=O)[n-]c3ccccc3c2=O)cc1OC (protonated)
COc1ccc(-n2c(=O)[n-]c3ccccc3c2=O)cc1OC (3D coordinates assigned)
COc1ccc(-n2c(=O)[n-]c3ccccc3c2=O)cc1OC (optimized conformer: 51.25804125116334 kcal/mol)

>  <smiles>  (41) 
COc1ccc(-n2c(=O)[nH]c3ccccc3c2=O)cc1OC

>  <score_type>  (41) 
oracle

>  <origin>  (41) 
adgpu

>  <m_score__min__energy>  (41) 
-7.7699999999999996

>  <m_primary>  (41) 
energy

$$$$
41:0
     RDKit          3D

 39 41  0  0  0  0  0  0  0  0999 V2000
   -8.4460   22.0040  -31.9820 O   0  0  0  0  0  0  0  0  0  0  0  0
   -7.1850   22.0540  -31.9940 C   0  0  0  0  0  0  0  0  0  0  0  0
   -6.4290   21.1770  -32.8470 N   0  0  0  0  0  0  0  0  0  0  0  0
   -6.5820   19.8980  -33.0550 C   0  0  0  0  0  0  0  0  0  0  0  0
   -7.5010   19.1020  -32.3400 C   0  0  0  0  0  0  0  0  0  0  0  0
   -7.5900   17.7340  -32.6170 C   0  0  0  0  0  0  0  0  0  0  0  0
   -6.7910   17.1720  -33.5620 N   0  0  0  0  0  0  0  0  0  0  0  0
   -5.8830   17.9120  -34.2540 C   0  0  0  0  0  0  0  0  0  0  0  0
   -5.7610   19.2810  -34.0070 C   0  0  0  0  0  0  0  0  0  0  0  0
   -6.4820   23.0730  -31.1800 C   0  0  0  0  0  0  0  0  0  0  0  0
   -7.1770   24.1810  -30.6610 C   0  0  0  0  0  0  0  0  0  0  0  0
   -6.5160   25.1230  -29.8680 C   0  0  0  0  0  0  0  0  0  0  0  0
   -5.1590   24.9670  -29.5760 C   0  0  0  0  0  0  0  0  0  0  0  0
   -4.4520   23.8700  -30.0830 C   0  0  0  0  0  0  0  0  0  0  0  0
   -2.7460   23.6670  -29.6940 S   0  0  0  0  0  0  0  0  0  0  0  0
   -2.0210   23.0290  -30.8470 O   0  0  0  0  0  0  0  0  0  0  0  0
   -2.6270   22.7830  -28.4850 O   0  0  0  0  0  0  0  0  0  0  0  0
   -2.0110   25.1990  -29.3430 N   0  0  0  0  0  0  0  0  0  0  0  0
   -1.6150   25.6500  -28.0400 C   0  0  0  0  0  0  0  0  0  0  0  0
   -0.5210   26.5150  -27.8480 C   0  0  0  0  0  0  0  0  0  0  0  0
   -0.1850   26.9490  -26.5610 C   0  0  0  0  0  0  0  0  0  0  0  0
   -0.9350   26.5250  -25.4610 C   0  0  0  0  0  0  0  0  0  0  0  0
   -2.0170   25.6620  -25.6440 C   0  0  0  0  0  0  0  0  0  0  0  0
   -2.3550   25.2250  -26.9300 C   0  0  0  0  0  0  0  0  0  0  0  0
   -5.1110   22.9350  -30.8940 C   0  0  0  0  0  0  0  0  0  0  0  0
   -8.1433   19.5540  -31.5698 H   0  0  0  0  0  0  0  0  0  0  0  0
   -8.3101   17.1099  -32.0674 H   0  0  0  0  0  0  0  0  0  0  0  0
   -6.8690   16.1480  -33.7550 H   0  0  0  0  0  0  0  0  0  0  0  0
   -5.2439   17.4312  -35.0093 H   0  0  0  0  0  0  0  0  0  0  0  0
   -5.0193   19.8753  -34.5608 H   0  0  0  0  0  0  0  0  0  0  0  0
   -8.2475   24.3065  -30.8809 H   0  0  0  0  0  0  0  0  0  0  0  0
   -7.0659   25.9898  -29.4727 H   0  0  0  0  0  0  0  0  0  0  0  0
   -4.6446   25.7078  -28.9462 H   0  0  0  0  0  0  0  0  0  0  0  0
    0.0712   26.8506  -28.7121 H   0  0  0  0  0  0  0  0  0  0  0  0
    0.6706   27.6248  -26.4150 H   0  0  0  0  0  0  0  0  0  0  0  0
   -0.6728   26.8713  -24.4504 H   0  0  0  0  0  0  0  0  0  0  0  0
   -2.6043   25.3253  -24.7770 H   0  0  0  0  0  0  0  0  0  0  0  0
   -3.2072   24.5435  -27.0695 H   0  0  0  0  0  0  0  0  0  0  0  0
   -4.5507   22.0851  -31.3108 H   0  0  0  0  0  0  0  0  0  0  0  0
  1  2  2  0
  2  3  1  0
  3  4  2  3
  4  5  1  0
  5  6  2  0
  6  7  1  0
  7  8  1  0
  8  9  2  0
  2 10  1  0
 10 11  2  0
 11 12  1  0
 12 13  2  0
 13 14  1  0
 14 15  1  0
 15 16  2  0
 15 17  2  0
 15 18  1  0
 18 19  1  0
 19 20  2  0
 20 21  1  0
 21 22  2  0
 22 23  1  0
 23 24  2  0
 14 25  2  0
  9  4  1  0
 25 10  1  0
 24 19  1  0
  5 26  1  0
  6 27  1  0
  7 28  1  0
  8 29  1  0
  9 30  1  0
 11 31  1  0
 12 32  1  0
 13 33  1  0
 20 34  1  0
 21 35  1  0
 22 36  1  0
 23 37  1  0
 24 38  1  0
 25 39  1  0
M  CHG  1  18  -1
M  END
>  <UniqueID>  (42) 
39

>  <SMILES>  (42) 
O=C(N=c1cc[nH]cc1)c1cccc(S(=O)(=O)[N-]c2ccccc2)c1

>  <Energy>  (42) 
52.77381656820946

>  <Genealogy>  (42) 
O=C(N=c1cc[nH]cc1)c1cccc(S(=O)(=O)[N-]c2ccccc2)c1 (protonated)
O=C(N=c1cc[nH]cc1)c1cccc(S(=O)(=O)[N-]c2ccccc2)c1 (3D coordinates assigned)
O=C(N=c1cc[nH]cc1)c1cccc(S(=O)(=O)[N-]c2ccccc2)c1 (optimized conformer: 52.77381656820946 kcal/mol)

>  <smiles>  (42) 
O=C(N=c1cc[nH]cc1)c1cccc(S(=O)(=O)Nc2ccccc2)c1

>  <score_type>  (42) 
oracle

>  <origin>  (42) 
adgpu

>  <m_score__min__energy>  (42) 
-10.17

>  <m_primary>  (42) 
energy

$$$$
42:0
     RDKit          3D

 53 55  0  0  1  0  0  0  0  0999 V2000
   -2.7630   20.1990  -27.2610 C   0  0  0  0  0  0  0  0  0  0  0  0
   -2.6920   21.0220  -28.5120 C   0  0  0  0  0  0  0  0  0  0  0  0
   -2.4550   22.4100  -28.2730 N   0  0  0  0  0  0  0  0  0  0  0  0
   -1.2960   22.8410  -29.0290 C   0  0  0  0  0  0  0  0  0  0  0  0
   -0.7220   21.7000  -29.8580 C   0  0  0  0  0  0  0  0  0  0  0  0
   -3.6010   23.2690  -28.5090 C   0  0  0  0  0  0  0  0  0  0  0  0
   -3.3120   24.1770  -29.6560 C   0  0  0  0  0  0  0  0  0  0  0  0
   -3.8240   23.8070  -30.8810 O   0  0  0  0  0  0  0  0  0  0  0  0
   -4.9060   23.0550  -31.2120 C   0  0  0  0  0  0  0  0  0  0  0  0
   -6.1440   23.6440  -31.2610 C   0  0  0  0  0  0  0  0  0  0  0  0
   -7.2080   22.8480  -31.6060 C   0  0  0  0  0  0  0  0  0  0  0  0
   -8.4200   23.4250  -31.6560 N   0  0  0  0  0  0  0  0  0  0  0  0
   -9.4900   22.6940  -31.9880 C   0  0  0  0  0  0  0  0  0  0  0  0
   -9.3150   21.4090  -32.2580 N   0  0  0  0  0  0  0  0  0  0  0  0
   -8.1170   20.7900  -32.2200 C   0  0  0  0  0  0  0  0  0  0  0  0
   -8.0600   19.6000  -32.4930 N   0  0  0  0  0  0  0  0  0  0  0  0
   -7.0510   18.7060  -32.5510 C   0  0  0  0  0  0  0  0  0  0  0  0
   -6.8030   17.8500  -31.4490 C   0  0  0  0  0  0  0  0  0  0  0  0
   -5.8330   16.8600  -31.6100 C   0  0  0  0  0  0  0  0  0  0  0  0
   -5.1410   16.7250  -32.8050 C   0  0  0  0  0  0  0  0  0  0  0  0
   -3.9240   15.4750  -32.9920 Cl  0  0  0  0  0  0  0  0  0  0  0  0
   -5.3780   17.5510  -33.8730 C   0  0  0  0  0  0  0  0  0  0  0  0
   -4.5250   17.4100  -35.3890 Cl  0  0  0  0  0  0  0  0  0  0  0  0
   -6.3280   18.5350  -33.7400 C   0  0  0  0  0  0  0  0  0  0  0  0
   -6.9970   21.5030  -31.8850 C   0  0  0  0  0  0  0  0  0  0  0  0
   -5.7660   20.9350  -31.8300 C   0  0  0  0  0  0  0  0  0  0  0  0
   -4.6670   21.7290  -31.4810 C   0  0  0  0  0  0  0  0  0  0  0  0
   -3.3780   21.2250  -31.4040 O   0  0  0  0  0  0  0  0  0  0  0  0
   -2.8790   20.4960  -32.5060 C   0  0  0  0  0  0  0  0  0  0  0  0
   -2.7060   20.8599  -26.3836 H   0  0  0  0  0  0  0  0  0  0  0  0
   -3.7124   19.6438  -27.2408 H   0  0  0  0  0  0  0  0  0  0  0  0
   -1.9227   19.4894  -27.2408 H   0  0  0  0  0  0  0  0  0  0  0  0
   -1.8754   20.6329  -29.1379 H   0  0  0  0  0  0  0  0  0  0  0  0
   -3.6723   20.9433  -29.0048 H   0  0  0  0  0  0  0  0  0  0  0  0
   -1.5909   23.6598  -29.7017 H   0  0  0  0  0  0  0  0  0  0  0  0
   -0.5248   23.1785  -28.3209 H   0  0  0  0  0  0  0  0  0  0  0  0
   -0.3300   20.9209  -29.1877 H   0  0  0  0  0  0  0  0  0  0  0  0
   -1.5130   21.2738  -30.4926 H   0  0  0  0  0  0  0  0  0  0  0  0
    0.0917   22.0811  -30.4926 H   0  0  0  0  0  0  0  0  0  0  0  0
   -4.4807   22.6513  -28.7426 H   0  0  0  0  0  0  0  0  0  0  0  0
   -3.8029   23.8676  -27.6085 H   0  0  0  0  0  0  0  0  0  0  0  0
   -3.7215   25.1675  -29.4087 H   0  0  0  0  0  0  0  0  0  0  0  0
   -2.2192   24.1500  -29.7786 H   0  0  0  0  0  0  0  0  0  0  0  0
   -6.2788   24.7116  -31.0329 H   0  0  0  0  0  0  0  0  0  0  0  0
   -8.5800   24.4370  -31.4460 H   0  0  0  0  0  0  0  0  0  0  0  0
  -10.4905   23.1487  -32.0356 H   0  0  0  0  0  0  0  0  0  0  0  0
   -7.3538   17.9618  -30.5034 H   0  0  0  0  0  0  0  0  0  0  0  0
   -5.6136   16.1761  -30.7768 H   0  0  0  0  0  0  0  0  0  0  0  0
   -6.5264   19.2061  -34.5887 H   0  0  0  0  0  0  0  0  0  0  0  0
   -5.6335   19.8667  -32.0562 H   0  0  0  0  0  0  0  0  0  0  0  0
   -2.2924   19.6390  -32.1434 H   0  0  0  0  0  0  0  0  0  0  0  0
   -3.7191   20.1333  -33.1164 H   0  0  0  0  0  0  0  0  0  0  0  0
   -2.2368   21.1479  -33.1164 H   0  0  0  0  0  0  0  0  0  0  0  0
  1  2  1  0
  2  3  1  0
  3  4  1  0
  4  5  1  0
  3  6  1  0
  6  7  1  0
  7  8  1  0
  8  9  1  0
  9 10  2  0
 10 11  1  0
 11 12  1  0
 12 13  1  0
 13 14  2  0
 14 15  1  0
 15 16  2  0
 16 17  1  0
 17 18  2  0
 18 19  1  0
 19 20  2  0
 20 21  1  0
 20 22  1  0
 22 23  1  0
 22 24  2  0
 15 25  1  0
 25 26  1  0
 26 27  2  0
 27 28  1  0
 28 29  1  0
 27  9  1  0
 25 11  2  0
 24 17  1  0
  1 30  1  0
  1 31  1  0
  1 32  1  0
  2 33  1  0
  2 34  1  0
  4 35  1  0
  4 36  1  0
  5 37  1  0
  5 38  1  0
  5 39  1  0
  6 40  1  0
  6 41  1  0
  7 42  1  0
  7 43  1  0
 10 44  1  0
 12 45  1  0
 13 46  1  0
 18 47  1  0
 19 48  1  0
 24 49  1  0
 26 50  1  0
 29 51  1  0
 29 52  1  0
 29 53  1  0
M  END
>  <smiles>  (43) 
CCN(CC)CCOc1cc2[nH]cnc(=Nc3ccc(Cl)c(Cl)c3)c2cc1OC

>  <score_type>  (43) 
oracle

>  <origin>  (43) 
adgpu

>  <m_score__min__energy>  (43) 
-8.4700000000000006

>  <m_primary>  (43) 
energy

$$$$
43:0
     RDKit          3D

 37 39  0  0  0  0  0  0  0  0999 V2000
   -7.1407   20.5621  -31.5903 H   0  0  0  0  0  0  0  0  0  0  0  0
   -6.3420   19.8770  -31.9110 C   0  0  0  0  0  0  0  0  0  0  0  0
   -6.6470   18.6020  -32.2630 N   0  0  0  0  0  0  0  0  0  0  0  0
   -5.6820   17.7320  -32.6510 C   0  0  0  0  0  0  0  0  0  0  0  0
   -6.0140   16.5230  -32.9950 N   0  0  0  0  0  0  0  0  0  0  0  0
   -5.0860   15.5020  -33.3890 C   0  0  0  0  0  0  0  0  0  0  0  0
   -4.9700   14.3540  -32.5940 C   0  0  0  0  0  0  0  0  0  0  0  0
   -5.5873   14.2510  -31.6894 H   0  0  0  0  0  0  0  0  0  0  0  0
   -4.0750   13.3390  -32.9430 C   0  0  0  0  0  0  0  0  0  0  0  0
   -3.9998   12.4345  -32.3216 H   0  0  0  0  0  0  0  0  0  0  0  0
   -3.2750   13.4730  -34.0820 C   0  0  0  0  0  0  0  0  0  0  0  0
   -2.5772   12.6699  -34.3616 H   0  0  0  0  0  0  0  0  0  0  0  0
   -3.3620   14.6270  -34.8650 C   0  0  0  0  0  0  0  0  0  0  0  0
   -2.7246   14.7337  -35.7552 H   0  0  0  0  0  0  0  0  0  0  0  0
   -4.2570   15.6490  -34.5220 C   0  0  0  0  0  0  0  0  0  0  0  0
   -4.2610   17.1210  -35.4860 Cl  0  0  0  0  0  0  0  0  0  0  0  0
   -4.3840   18.1410  -32.6930 N   0  0  0  0  0  0  0  0  0  0  0  0
   -4.0180   19.4060  -32.3510 C   0  0  0  0  0  0  0  0  0  0  0  0
   -2.5500   19.7490  -32.3880 C   0  0  0  0  0  0  0  0  0  0  0  0
   -1.9620   18.8247  -32.2883 H   0  0  0  0  0  0  0  0  0  0  0  0
   -2.3299   20.4372  -31.5586 H   0  0  0  0  0  0  0  0  0  0  0  0
   -2.1820   20.4350  -33.6990 C   0  0  0  0  0  0  0  0  0  0  0  0
   -1.6720   21.3858  -33.4848 H   0  0  0  0  0  0  0  0  0  0  0  0
   -1.5128   19.7825  -34.2790 H   0  0  0  0  0  0  0  0  0  0  0  0
   -3.0957   20.6316  -34.2790 H   0  0  0  0  0  0  0  0  0  0  0  0
   -5.0150   20.3250  -31.9540 C   0  0  0  0  0  0  0  0  0  0  0  0
   -4.7150   21.7200  -31.5720 C   0  0  0  0  0  0  0  0  0  0  0  0
   -5.5980   22.7570  -31.9150 C   0  0  0  0  0  0  0  0  0  0  0  0
   -6.5161   22.5321  -32.4776 H   0  0  0  0  0  0  0  0  0  0  0  0
   -5.3130   24.0750  -31.5430 C   0  0  0  0  0  0  0  0  0  0  0  0
   -6.0029   24.8855  -31.8210 H   0  0  0  0  0  0  0  0  0  0  0  0
   -4.1520   24.3640  -30.8180 C   0  0  0  0  0  0  0  0  0  0  0  0
   -3.8700   25.6740  -30.4500 O   0  0  0  0  0  0  0  0  0  0  0  0
   -3.2770   23.3330  -30.4620 C   0  0  0  0  0  0  0  0  0  0  0  0
   -2.3655   23.5595  -29.8893 H   0  0  0  0  0  0  0  0  0  0  0  0
   -3.5590   22.0140  -30.8330 C   0  0  0  0  0  0  0  0  0  0  0  0
   -2.8722   21.2046  -30.5444 H   0  0  0  0  0  0  0  0  0  0  0  0
  1  2  1  0
  2  3  2  0
  3  4  1  0
  4  5  2  0
  5  6  1  0
  6  7  2  0
  7  8  1  0
  7  9  1  0
  9 10  1  0
  9 11  2  0
 11 12  1  0
 11 13  1  0
 13 14  1  0
 13 15  2  0
 15 16  1  0
  4 17  1  0
 17 18  1  0
 18 19  1  0
 19 20  1  0
 19 21  1  0
 19 22  1  0
 22 23  1  0
 22 24  1  0
 22 25  1  0
 18 26  2  0
 26 27  1  0
 27 28  2  0
 28 29  1  0
 28 30  1  0
 30 31  1  0
 30 32  2  0
 32 33  1  0
 32 34  1  0
 34 35  1  0
 34 36  2  0
 36 37  1  0
 26  2  1  0
 36 27  1  0
 15  6  1  0
M  CHG  2  17  -1  33  -1
M  END
>  <UniqueID>  (44) 
40

>  <SMILES>  (44) 
CCc1[n-]/c(=N\c2ccccc2Cl)ncc1-c1ccc([O-])cc1

>  <Energy>  (44) 
54.137962824894295

>  <Genealogy>  (44) 
CCc1[n-]c(=Nc2ccccc2Cl)ncc1-c1ccc([O-])cc1 (protonated)
CCc1[n-]/c(=N\c2ccccc2Cl)ncc1-c1ccc([O-])cc1 (cis-trans isomerization)
CCc1[n-]/c(=N\c2ccccc2Cl)ncc1-c1ccc([O-])cc1 (3D coordinates assigned)
CCc1[n-]/c(=N\c2ccccc2Cl)ncc1-c1ccc([O-])cc1 (optimized conformer: 54.137962824894295 kcal/mol)

>  <smiles>  (44) 
CCc1[nH]c(=Nc2ccccc2Cl)ncc1-c1ccc(O)cc1

>  <score_type>  (44) 
oracle

>  <origin>  (44) 
adgpu

>  <m_score__min__energy>  (44) 
-9.3200000000000003

>  <m_primary>  (44) 
energy

$$$$
44:0
     RDKit          3D

 27 28  0  0  1  0  0  0  0  0999 V2000
   -9.4810   21.6990  -31.1070 C   0  0  0  0  0  0  0  0  0  0  0  0
   -8.9790   21.2740  -32.3410 O   0  0  0  0  0  0  0  0  0  0  0  0
   -7.7670   20.6460  -32.4150 C   0  0  0  0  0  0  0  0  0  0  0  0
   -6.6120   21.1220  -31.8360 C   0  0  0  0  0  0  0  0  0  0  0  0
   -5.4340   20.4140  -31.9650 C   0  0  0  0  0  0  0  0  0  0  0  0
   -4.3690   20.8740  -31.4190 N   0  0  0  0  0  0  0  0  0  0  0  0
   -4.3020   22.0840  -30.6710 C   0  0  0  0  0  0  0  0  0  0  0  0
   -4.3090   23.3290  -31.2180 C   0  0  0  0  0  0  0  0  0  0  0  0
   -4.2370   24.4280  -30.3600 C   0  0  0  0  0  0  0  0  0  0  0  0
   -4.2400   25.6360  -30.8470 N   0  0  0  0  0  0  0  0  0  0  0  0
   -4.1630   24.2510  -29.0080 N   0  0  0  0  0  0  0  0  0  0  0  0
   -4.1590   23.0030  -28.4940 C   0  0  0  0  0  0  0  0  0  0  0  0
   -4.2270   21.9430  -29.3210 N   0  0  0  0  0  0  0  0  0  0  0  0
   -5.3690   19.2400  -32.6580 C   0  0  0  0  0  0  0  0  0  0  0  0
   -6.5540   18.7820  -33.2340 C   0  0  0  0  0  0  0  0  0  0  0  0
   -7.6920   19.4880  -33.0960 N   0  0  0  0  0  0  0  0  0  0  0  0
   -8.9141   21.2191  -30.2956 H   0  0  0  0  0  0  0  0  0  0  0  0
   -9.3815   22.7916  -31.0273 H   0  0  0  0  0  0  0  0  0  0  0  0
  -10.5422   21.4206  -31.0273 H   0  0  0  0  0  0  0  0  0  0  0  0
   -6.6280   22.0657  -31.2711 H   0  0  0  0  0  0  0  0  0  0  0  0
   -4.3698   23.4665  -32.3077 H   0  0  0  0  0  0  0  0  0  0  0  0
   -4.2990   25.6950  -31.8940 H   0  0  0  0  0  0  0  0  0  0  0  0
   -4.1090   25.0590  -28.3500 H   0  0  0  0  0  0  0  0  0  0  0  0
   -4.1005   22.8530  -27.4059 H   0  0  0  0  0  0  0  0  0  0  0  0
   -4.4267   18.6814  -32.7576 H   0  0  0  0  0  0  0  0  0  0  0  0
   -6.5587   17.8406  -33.8030 H   0  0  0  0  0  0  0  0  0  0  0  0
   -8.5440   19.0610  -33.5680 H   0  0  0  0  0  0  0  0  0  0  0  0
  1  2  1  0
  2  3  1  0
  3  4  2  0
  4  5  1  0
  5  6  2  0
  6  7  1  0
  7  8  2  0
  8  9  1  0
  9 10  2  3
  9 11  1  0
 11 12  1  0
 12 13  2  0
  5 14  1  0
 14 15  2  0
 15 16  1  0
 16  3  1  0
 13  7  1  0
  1 17  1  0
  1 18  1  0
  1 19  1  0
  4 20  1  0
  8 21  1  0
 10 22  1  0
 11 23  1  0
 12 24  1  0
 14 25  1  0
 15 26  1  0
 16 27  1  0
M  END
>  <smiles>  (45) 
COc1cc(=Nc2cc(=N)[nH]cn2)cc[nH]1

>  <score_type>  (45) 
oracle

>  <origin>  (45) 
adgpu

>  <m_score__min__energy>  (45) 
-6.1799999999999997

>  <m_primary>  (45) 
energy

$$$$
45:0
     RDKit          3D

 44 47  0  0  0  0  0  0  0  0999 V2000
   -5.2890   26.8590  -30.1120 H   0  0  0  0  0  0  0  0  0  0  0  0
   -5.4030   26.0300  -30.7370 N   0  0  0  0  0  0  0  0  0  0  0  0
   -4.8410   24.8970  -30.4650 C   0  0  0  0  0  0  0  0  0  0  0  0
   -4.0700   24.7680  -29.3380 N   0  0  0  0  0  0  0  0  0  0  0  0
   -3.4580   23.5920  -29.0090 C   0  0  0  0  0  0  0  0  0  0  0  0
   -2.5930   23.5310  -27.7880 C   0  0  0  0  0  0  0  0  0  0  0  0
   -3.2247   23.5755  -26.8886 H   0  0  0  0  0  0  0  0  0  0  0  0
   -2.0227   22.5904  -27.7893 H   0  0  0  0  0  0  0  0  0  0  0  0
   -1.8963   24.3822  -27.7893 H   0  0  0  0  0  0  0  0  0  0  0  0
   -3.6700   22.4980  -29.8560 C   0  0  0  0  0  0  0  0  0  0  0  0
   -3.2510   21.1720  -29.8990 C   0  0  0  0  0  0  0  0  0  0  0  0
   -2.4730   20.4280  -28.8960 C   0  0  0  0  0  0  0  0  0  0  0  0
   -1.1100   20.1850  -29.1110 C   0  0  0  0  0  0  0  0  0  0  0  0
   -0.6198   20.5735  -30.0158 H   0  0  0  0  0  0  0  0  0  0  0  0
   -0.3720   19.4510  -28.1800 C   0  0  0  0  0  0  0  0  0  0  0  0
    0.6998   19.2706  -28.3493 H   0  0  0  0  0  0  0  0  0  0  0  0
   -0.9910   18.9450  -27.0340 C   0  0  0  0  0  0  0  0  0  0  0  0
   -0.4059   18.3660  -26.3043 H   0  0  0  0  0  0  0  0  0  0  0  0
   -2.3580   19.1740  -26.8120 C   0  0  0  0  0  0  0  0  0  0  0  0
   -3.0380   18.5860  -25.6110 C   0  0  0  0  0  0  0  0  0  0  0  0
   -2.5762   18.9853  -24.6960 H   0  0  0  0  0  0  0  0  0  0  0  0
   -4.1057   18.8501  -25.6282 H   0  0  0  0  0  0  0  0  0  0  0  0
   -2.9308   17.4914  -25.6282 H   0  0  0  0  0  0  0  0  0  0  0  0
   -3.1000   19.8940  -27.7600 C   0  0  0  0  0  0  0  0  0  0  0  0
   -4.1800   20.0409  -27.6119 H   0  0  0  0  0  0  0  0  0  0  0  0
   -3.7320   20.5980  -31.0300 N   0  0  0  0  0  0  0  0  0  0  0  0
   -4.4330   21.5100  -31.6930 N   0  0  0  0  0  0  0  0  0  0  0  0
   -5.1600   21.2320  -32.9290 C   0  0  0  0  0  0  0  0  0  0  0  0
   -5.2273   22.1530  -33.5267 H   0  0  0  0  0  0  0  0  0  0  0  0
   -4.6237   20.4567  -33.4959 H   0  0  0  0  0  0  0  0  0  0  0  0
   -6.5470   20.7410  -32.6130 C   0  0  0  0  0  0  0  0  0  0  0  0
   -6.8770   19.3900  -32.8190 C   0  0  0  0  0  0  0  0  0  0  0  0
   -6.1261   18.6988  -33.2295 H   0  0  0  0  0  0  0  0  0  0  0  0
   -8.1560   18.9220  -32.5040 C   0  0  0  0  0  0  0  0  0  0  0  0
   -8.4098   17.8644  -32.6687 H   0  0  0  0  0  0  0  0  0  0  0  0
   -9.1130   19.7960  -31.9800 C   0  0  0  0  0  0  0  0  0  0  0  0
  -10.1189   19.4258  -31.7329 H   0  0  0  0  0  0  0  0  0  0  0  0
   -8.7920   21.1400  -31.7700 C   0  0  0  0  0  0  0  0  0  0  0  0
   -9.5460   21.8269  -31.3581 H   0  0  0  0  0  0  0  0  0  0  0  0
   -7.5130   21.6130  -32.0830 C   0  0  0  0  0  0  0  0  0  0  0  0
   -7.2629   22.6707  -31.9137 H   0  0  0  0  0  0  0  0  0  0  0  0
   -4.4130   22.6560  -30.9880 C   0  0  0  0  0  0  0  0  0  0  0  0
   -5.0080   23.8330  -31.3100 N   0  0  0  0  0  0  0  0  0  0  0  0
   -5.5760   23.9300  -32.1800 H   0  0  0  0  0  0  0  0  0  0  0  0
  1  2  1  0
  2  3  2  0
  3  4  1  0
  4  5  2  0
  5  6  1  0
  6  7  1  0
  6  8  1  0
  6  9  1  0
  5 10  1  0
 10 11  1  0
 11 12  1  0
 12 13  2  0
 13 14  1  0
 13 15  1  0
 15 16  1  0
 15 17  2  0
 17 18  1  0
 17 19  1  0
 19 20  1  0
 20 21  1  0
 20 22  1  0
 20 23  1  0
 19 24  2  0
 24 25  1  0
 11 26  2  0
 26 27  1  0
 27 28  1  0
 28 29  1  0
 28 30  1  0
 28 31  1  0
 31 32  2  0
 32 33  1  0
 32 34  1  0
 34 35  1  0
 34 36  2  0
 36 37  1  0
 36 38  1  0
 38 39  1  0
 38 40  2  0
 40 41  1  0
 27 42  1  0
 42 43  1  0
 43 44  1  0
 43  3  1  0
 42 10  2  0
 24 12  1  0
 40 31  1  0
M  END
>  <UniqueID>  (46) 
41

>  <SMILES>  (46) 
[H]/N=c1\nc(C)c2c(-c3cccc(C)c3)nn(Cc3ccccc3)c2[nH]1

>  <Energy>  (46) 
92.98361332019742

>  <Genealogy>  (46) 
[H]/N=c1\nc(C)c2c(-c3cccc(C)c3)nn(Cc3ccccc3)c2[nH]1 (cis-trans isomerization)
[H]/N=c1\nc(C)c2c(-c3cccc(C)c3)nn(Cc3ccccc3)c2[nH]1 (3D coordinates assigned)
[H]/N=c1\nc(C)c2c(-c3cccc(C)c3)nn(Cc3ccccc3)c2[nH]1 (optimized conformer: 92.98361332019742 kcal/mol)

>  <smiles>  (46) 
Cc1cccc(-c2nn(Cc3ccccc3)c3[nH]c(=N)nc(C)c23)c1

>  <score_type>  (46) 
oracle

>  <origin>  (46) 
adgpu

>  <m_score__min__energy>  (46) 
-8.6899999999999995

>  <m_primary>  (46) 
energy

$$$$
46:0
     RDKit          3D

 53 57  0  0  0  0  0  0  0  0999 V2000
   -2.9410   18.9310  -26.9460 C   0  0  0  0  0  0  0  0  0  0  0  0
   -1.5170   19.3160  -26.8740 N   0  0  0  0  0  0  0  0  0  0  0  0
   -0.8760   19.2730  -28.2200 C   0  0  0  0  0  0  0  0  0  0  0  0
   -0.7260   20.6540  -28.8950 C   0  0  0  0  0  0  0  0  0  0  0  0
   -1.7630   21.5850  -28.4350 N   0  0  0  0  0  0  0  0  0  0  0  0
   -2.6550   22.2130  -29.3710 C   0  0  0  0  0  0  0  0  0  0  0  0
   -3.2980   21.4340  -30.2800 N   0  0  0  0  0  0  0  0  0  0  0  0
   -4.1010   21.9600  -31.2400 C   0  0  0  0  0  0  0  0  0  0  0  0
   -4.7960   21.0960  -32.1610 N   0  0  0  0  0  0  0  0  0  0  0  0
   -6.2180   21.3420  -32.4370 C   0  0  0  0  0  0  0  0  0  0  0  0
   -6.8720   20.1170  -33.0920 C   0  0  0  0  0  0  0  0  0  0  0  0
   -6.0950   19.6560  -34.1790 O   0  0  0  0  0  0  0  0  0  0  0  0
   -4.8640   19.1590  -33.6940 C   0  0  0  0  0  0  0  0  0  0  0  0
   -4.0150   20.2930  -33.1150 C   0  0  0  0  0  0  0  0  0  0  0  0
   -4.2610   23.3060  -31.3040 N   0  0  0  0  0  0  0  0  0  0  0  0
   -3.6630   24.1390  -30.4160 C   0  0  0  0  0  0  0  0  0  0  0  0
   -3.8760   25.3780  -30.5070 O   0  0  0  0  0  0  0  0  0  0  0  0
   -2.8460   23.6130  -29.3940 C   0  0  0  0  0  0  0  0  0  0  0  0
   -2.3060   24.4820  -28.3180 C   0  0  0  0  0  0  0  0  0  0  0  0
   -1.1130   25.1220  -28.4170 N   0  0  0  0  0  0  0  0  0  0  0  0
   -0.8270   25.8150  -27.2860 C   0  0  0  0  0  0  0  0  0  0  0  0
    0.3350   26.5620  -27.0940 C   0  0  0  0  0  0  0  0  0  0  0  0
    0.5210   27.2160  -25.8660 C   0  0  0  0  0  0  0  0  0  0  0  0
   -0.4510   27.1130  -24.8490 C   0  0  0  0  0  0  0  0  0  0  0  0
   -1.6170   26.3610  -25.0560 C   0  0  0  0  0  0  0  0  0  0  0  0
   -1.7770   25.7270  -26.2830 C   0  0  0  0  0  0  0  0  0  0  0  0
   -3.0380   24.7580  -26.8100 S   0  0  0  0  0  0  0  0  0  0  0  0
   -1.9790   21.7690  -26.9940 C   0  0  0  0  0  0  0  0  0  0  0  0
   -1.3360   20.6190  -26.1980 C   0  0  0  0  0  0  0  0  0  0  0  0
   -3.3433   18.8222  -25.9280 H   0  0  0  0  0  0  0  0  0  0  0  0
   -3.5045   19.7090  -27.4818 H   0  0  0  0  0  0  0  0  0  0  0  0
   -3.0357   17.9750  -27.4818 H   0  0  0  0  0  0  0  0  0  0  0  0
   -1.0450   18.5930  -26.2740 H   0  0  0  0  0  0  0  0  0  0  0  0
    0.1258   18.8319  -28.1109 H   0  0  0  0  0  0  0  0  0  0  0  0
   -1.5370   18.6761  -28.8656 H   0  0  0  0  0  0  0  0  0  0  0  0
    0.2628   21.0682  -28.6488 H   0  0  0  0  0  0  0  0  0  0  0  0
   -0.8322   20.5237  -29.9821 H   0  0  0  0  0  0  0  0  0  0  0  0
   -6.7348   21.5631  -31.4915 H   0  0  0  0  0  0  0  0  0  0  0  0
   -6.2982   22.1936  -33.1287 H   0  0  0  0  0  0  0  0  0  0  0  0
   -6.9616   19.3136  -32.3460 H   0  0  0  0  0  0  0  0  0  0  0  0
   -7.8660   20.4045  -33.4652 H   0  0  0  0  0  0  0  0  0  0  0  0
   -5.0593   18.4157  -32.9070 H   0  0  0  0  0  0  0  0  0  0  0  0
   -4.3157   18.6960  -34.5277 H   0  0  0  0  0  0  0  0  0  0  0  0
   -3.1446   19.8636  -32.5972 H   0  0  0  0  0  0  0  0  0  0  0  0
   -3.6877   20.9443  -33.9388 H   0  0  0  0  0  0  0  0  0  0  0  0
    1.0910   26.6372  -27.8895 H   0  0  0  0  0  0  0  0  0  0  0  0
    1.4297   27.8121  -25.6958 H   0  0  0  0  0  0  0  0  0  0  0  0
   -0.2938   27.6252  -23.8883 H   0  0  0  0  0  0  0  0  0  0  0  0
   -2.3823   26.2754  -24.2705 H   0  0  0  0  0  0  0  0  0  0  0  0
   -1.5285   22.7221  -26.6798 H   0  0  0  0  0  0  0  0  0  0  0  0
   -3.0610   21.7756  -26.7958 H   0  0  0  0  0  0  0  0  0  0  0  0
   -0.2595   20.8182  -26.0908 H   0  0  0  0  0  0  0  0  0  0  0  0
   -1.8275   20.5661  -25.2153 H   0  0  0  0  0  0  0  0  0  0  0  0
  1  2  1  0
  2  3  1  0
  3  4  1  0
  4  5  1  0
  5  6  1  0
  6  7  1  0
  7  8  1  0
  8  9  1  0
  9 10  1  0
 10 11  1  0
 11 12  1  0
 12 13  1  0
 13 14  1  0
  8 15  2  0
 15 16  1  0
 16 17  2  0
 16 18  1  0
 18 19  1  0
 19 20  2  0
 20 21  1  0
 21 22  2  0
 22 23  1  0
 23 24  2  0
 24 25  1  0
 25 26  2  0
 26 27  1  0
  5 28  1  0
 28 29  1  0
 29  2  1  0
 18  6  2  0
 27 19  1  0
 14  9  1  0
 26 21  1  0
  1 30  1  0
  1 31  1  0
  1 32  1  0
  2 33  1  0
  3 34  1  0
  3 35  1  0
  4 36  1  0
  4 37  1  0
 10 38  1  0
 10 39  1  0
 11 40  1  0
 11 41  1  0
 13 42  1  0
 13 43  1  0
 14 44  1  0
 14 45  1  0
 22 46  1  0
 23 47  1  0
 24 48  1  0
 25 49  1  0
 28 50  1  0
 28 51  1  0
 29 52  1  0
 29 53  1  0
M  CHG  2   2   1   7  -1
M  END
>  <UniqueID>  (47) 
42

>  <SMILES>  (47) 
C[NH+]1CCN(c2[n-]c(N3CCOCC3)nc(=O)c2-c2nc3ccccc3s2)CC1

>  <Energy>  (47) 
111.89622879076072

>  <Genealogy>  (47) 
C[NH+]1CCN(c2[n-]c(N3CCOCC3)nc(=O)c2-c2nc3ccccc3s2)CC1 (protonated)
C[NH+]1CCN(c2[n-]c(N3CCOCC3)nc(=O)c2-c2nc3ccccc3s2)CC1 (3D coordinates assigned)
C[NH+]1CCN(c2[n-]c(N3CCOCC3)nc(=O)c2-c2nc3ccccc3s2)CC1 (nonaromatic ring conformer: 111.89622879076072 kcal/mol)

>  <smiles>  (47) 
CN1CCN(c2[nH]c(N3CCOCC3)nc(=O)c2-c2nc3ccccc3s2)CC1

>  <score_type>  (47) 
oracle

>  <origin>  (47) 
adgpu

>  <m_score__min__energy>  (47) 
-9

>  <m_primary>  (47) 
energy

$$$$
47:0
     RDKit          3D

 33 35  0  0  0  0  0  0  0  0999 V2000
   -5.5911   25.3424  -31.7094 H   0  0  0  0  0  0  0  0  0  0  0  0
   -5.0510   24.8170  -30.9080 C   0  0  0  0  0  0  0  0  0  0  0  0
   -3.8580   25.2950  -30.4710 N   0  0  0  0  0  0  0  0  0  0  0  0
   -3.1370   24.6990  -29.4850 C   0  0  0  0  0  0  0  0  0  0  0  0
   -2.0110   25.2640  -29.1400 N   0  0  0  0  0  0  0  0  0  0  0  0
   -1.1340   24.9250  -28.0570 C   0  0  0  0  0  0  0  0  0  0  0  0
   -1.4180   25.3880  -26.7670 C   0  0  0  0  0  0  0  0  0  0  0  0
   -2.2857   26.0426  -26.5981 H   0  0  0  0  0  0  0  0  0  0  0  0
   -0.6020   25.0210  -25.6920 C   0  0  0  0  0  0  0  0  0  0  0  0
   -0.8177   25.4018  -24.6828 H   0  0  0  0  0  0  0  0  0  0  0  0
    0.4880   24.1700  -25.9000 C   0  0  0  0  0  0  0  0  0  0  0  0
    1.2790   23.8140  -24.8570 F   0  0  0  0  0  0  0  0  0  0  0  0
    0.7560   23.6770  -27.1800 C   0  0  0  0  0  0  0  0  0  0  0  0
    1.6088   23.0011  -27.3409 H   0  0  0  0  0  0  0  0  0  0  0  0
   -0.0590   24.0420  -28.2570 C   0  0  0  0  0  0  0  0  0  0  0  0
    0.1416   23.6379  -29.2602 H   0  0  0  0  0  0  0  0  0  0  0  0
   -3.6220   23.4960  -28.9100 C   0  0  0  0  0  0  0  0  0  0  0  0
   -2.8550   22.7950  -27.9640 O   0  0  0  0  0  0  0  0  0  0  0  0
   -2.8080   21.3790  -27.8330 C   0  0  0  0  0  0  0  0  0  0  0  0
   -2.7991   21.1095  -26.7666 H   0  0  0  0  0  0  0  0  0  0  0  0
   -3.6920   20.9366  -28.3156 H   0  0  0  0  0  0  0  0  0  0  0  0
   -1.8967   20.9962  -28.3156 H   0  0  0  0  0  0  0  0  0  0  0  0
   -4.8680   23.0020  -29.3410 C   0  0  0  0  0  0  0  0  0  0  0  0
   -5.2756   22.0878  -28.8848 H   0  0  0  0  0  0  0  0  0  0  0  0
   -5.5970   23.6580  -30.3430 C   0  0  0  0  0  0  0  0  0  0  0  0
   -6.9060   23.1190  -30.7910 C   0  0  0  0  0  0  0  0  0  0  0  0
   -7.6480   22.2570  -30.0660 N   0  0  0  0  0  0  0  0  0  0  0  0
   -8.7430   21.9870  -30.7570 N   0  0  0  0  0  0  0  0  0  0  0  0
   -9.4990   21.3440  -30.4330 H   0  0  0  0  0  0  0  0  0  0  0  0
   -8.7220   22.6610  -31.9190 C   0  0  0  0  0  0  0  0  0  0  0  0
   -9.5029   22.6284  -32.6930 H   0  0  0  0  0  0  0  0  0  0  0  0
   -7.5620   23.3990  -31.9810 C   0  0  0  0  0  0  0  0  0  0  0  0
   -7.2293   24.0626  -32.7927 H   0  0  0  0  0  0  0  0  0  0  0  0
  1  2  1  0
  2  3  1  0
  3  4  1  0
  4  5  2  0
  5  6  1  0
  6  7  2  0
  7  8  1  0
  7  9  1  0
  9 10  1  0
  9 11  2  0
 11 12  1  0
 11 13  1  0
 13 14  1  0
 13 15  2  0
 15 16  1  0
  4 17  1  0
 17 18  1  0
 18 19  1  0
 19 20  1  0
 19 21  1  0
 19 22  1  0
 17 23  2  0
 23 24  1  0
 23 25  1  0
 25 26  1  0
 26 27  2  0
 27 28  1  0
 28 29  1  0
 28 30  1  0
 30 31  1  0
 30 32  2  0
 32 33  1  0
 25  2  2  0
 32 26  1  0
 15  6  1  0
M  CHG  1   3  -1
M  END
>  <UniqueID>  (48) 
43

>  <SMILES>  (48) 
COc1cc(-c2cc[nH]n2)c[n-]/c1=N/c1ccc(F)cc1

>  <Energy>  (48) 
79.44461361656525

>  <Genealogy>  (48) 
COc1cc(-c2cc[nH]n2)c[n-]c1=Nc1ccc(F)cc1 (protonated)
COc1cc(-c2cc[nH]n2)c[n-]/c1=N/c1ccc(F)cc1 (cis-trans isomerization)
COc1cc(-c2cc[nH]n2)c[n-]/c1=N/c1ccc(F)cc1 (3D coordinates assigned)
COc1cc(-c2cc[nH]n2)c[n-]/c1=N/c1ccc(F)cc1 (optimized conformer: 79.44461361656525 kcal/mol)

>  <smiles>  (48) 
COc1cc(-c2cc[nH]n2)c[nH]c1=Nc1ccc(F)cc1

>  <score_type>  (48) 
oracle

>  <origin>  (48) 
adgpu

>  <m_score__min__energy>  (48) 
-8.2599999999999998

>  <m_primary>  (48) 
energy

$$$$
48:0
     RDKit          3D

 43 46  0  0  0  0  0  0  0  0999 V2000
   -5.3810   25.0850  -29.8840 C   0  0  0  0  0  0  0  0  0  0  0  0
   -4.2310   24.5360  -30.5190 O   0  0  0  0  0  0  0  0  0  0  0  0
   -4.2060   23.3000  -31.1820 C   0  0  0  0  0  0  0  0  0  0  0  0
   -3.3650   22.2970  -30.6890 C   0  0  0  0  0  0  0  0  0  0  0  0
   -3.3070   21.0470  -31.3120 C   0  0  0  0  0  0  0  0  0  0  0  0
   -4.1060   20.7780  -32.4360 C   0  0  0  0  0  0  0  0  0  0  0  0
   -4.0480   19.4640  -33.1140 C   0  0  0  0  0  0  0  0  0  0  0  0
   -2.8600   19.0730  -33.6540 N   0  0  0  0  0  0  0  0  0  0  0  0
   -2.7020   17.8560  -34.2320 C   0  0  0  0  0  0  0  0  0  0  0  0
   -1.4670   17.4770  -34.7700 C   0  0  0  0  0  0  0  0  0  0  0  0
   -1.3170   16.2120  -35.3470 C   0  0  0  0  0  0  0  0  0  0  0  0
   -2.4040   15.3230  -35.4030 C   0  0  0  0  0  0  0  0  0  0  0  0
   -2.2290   13.9520  -35.9880 C   0  0  0  0  0  0  0  0  0  0  0  0
   -3.6380   15.7000  -34.8470 C   0  0  0  0  0  0  0  0  0  0  0  0
   -3.7880   16.9650  -34.2690 C   0  0  0  0  0  0  0  0  0  0  0  0
   -4.9800   17.3510  -33.7490 N   0  0  0  0  0  0  0  0  0  0  0  0
   -5.1550   18.5780  -33.1850 C   0  0  0  0  0  0  0  0  0  0  0  0
   -6.5120   18.9420  -32.7150 C   0  0  0  0  0  0  0  0  0  0  0  0
   -7.1010   18.2240  -31.6620 C   0  0  0  0  0  0  0  0  0  0  0  0
   -8.3870   18.5500  -31.2190 C   0  0  0  0  0  0  0  0  0  0  0  0
   -9.0980   19.5850  -31.8320 C   0  0  0  0  0  0  0  0  0  0  0  0
   -8.5290   20.2890  -32.8960 C   0  0  0  0  0  0  0  0  0  0  0  0
   -7.2440   19.9670  -33.3420 C   0  0  0  0  0  0  0  0  0  0  0  0
   -4.9350   21.7890  -32.9450 C   0  0  0  0  0  0  0  0  0  0  0  0
   -4.9920   23.0390  -32.3210 C   0  0  0  0  0  0  0  0  0  0  0  0
   -5.2597   25.0271  -28.7922 H   0  0  0  0  0  0  0  0  0  0  0  0
   -5.4989   26.1365  -30.1846 H   0  0  0  0  0  0  0  0  0  0  0  0
   -6.2728   24.5155  -30.1846 H   0  0  0  0  0  0  0  0  0  0  0  0
   -2.7436   22.4936  -29.8029 H   0  0  0  0  0  0  0  0  0  0  0  0
   -2.6330   20.2707  -30.9207 H   0  0  0  0  0  0  0  0  0  0  0  0
   -0.6157   18.1729  -34.7391 H   0  0  0  0  0  0  0  0  0  0  0  0
   -0.3426   15.9111  -35.7594 H   0  0  0  0  0  0  0  0  0  0  0  0
   -2.1351   13.2161  -35.1759 H   0  0  0  0  0  0  0  0  0  0  0  0
   -3.1028   13.7038  -36.6085 H   0  0  0  0  0  0  0  0  0  0  0  0
   -1.3209   13.9313  -36.6085 H   0  0  0  0  0  0  0  0  0  0  0  0
   -4.4865   15.0002  -34.8662 H   0  0  0  0  0  0  0  0  0  0  0  0
   -6.5488   17.4017  -31.1835 H   0  0  0  0  0  0  0  0  0  0  0  0
   -8.8394   17.9908  -30.3868 H   0  0  0  0  0  0  0  0  0  0  0  0
  -10.1059   19.8455  -31.4767 H   0  0  0  0  0  0  0  0  0  0  0  0
   -9.0930   21.0979  -33.3835 H   0  0  0  0  0  0  0  0  0  0  0  0
   -6.8033   20.5171  -34.1865 H   0  0  0  0  0  0  0  0  0  0  0  0
   -5.5440   21.5971  -33.8407 H   0  0  0  0  0  0  0  0  0  0  0  0
   -5.6533   23.8215  -32.7213 H   0  0  0  0  0  0  0  0  0  0  0  0
  1  2  1  0
  2  3  1  0
  3  4  2  0
  4  5  1  0
  5  6  2  0
  6  7  1  0
  7  8  2  0
  8  9  1  0
  9 10  2  0
 10 11  1  0
 11 12  2  0
 12 13  1  0
 12 14  1  0
 14 15  2  0
 15 16  1  0
 16 17  2  0
 17 18  1  0
 18 19  2  0
 19 20  1  0
 20 21  2  0
 21 22  1  0
 22 23  2  0
  6 24  1  0
 24 25  2  0
 25  3  1  0
 17  7  1  0
 23 18  1  0
 15  9  1  0
  1 26  1  0
  1 27  1  0
  1 28  1  0
  4 29  1  0
  5 30  1  0
 10 31  1  0
 11 32  1  0
 13 33  1  0
 13 34  1  0
 13 35  1  0
 14 36  1  0
 19 37  1  0
 20 38  1  0
 21 39  1  0
 22 40  1  0
 23 41  1  0
 24 42  1  0
 25 43  1  0
M  END
>  <UniqueID>  (49) 
44

>  <SMILES>  (49) 
COc1ccc(-c2nc3ccc(C)cc3nc2-c2ccccc2)cc1

>  <Energy>  (49) 
61.2272180877462

>  <Genealogy>  (49) 
COc1ccc(-c2nc3ccc(C)cc3nc2-c2ccccc2)cc1 (3D coordinates assigned)
COc1ccc(-c2nc3ccc(C)cc3nc2-c2ccccc2)cc1 (optimized conformer: 61.2272180877462 kcal/mol)

>  <smiles>  (49) 
COc1ccc(-c2nc3ccc(C)cc3nc2-c2ccccc2)cc1

>  <score_type>  (49) 
oracle

>  <origin>  (49) 
adgpu

>  <m_score__min__energy>  (49) 
-7.9800000000000004

>  <m_primary>  (49) 
energy

$$$$
49:0
     RDKit          3D

 39 40  0  0  0  0  0  0  0  0999 V2000
   -4.0840   20.3230  -31.8760 C   0  0  0  0  0  0  0  0  0  0  0  0
   -4.1880   21.7290  -33.0270 S   0  0  0  0  0  0  0  0  0  0  0  0
   -5.2190   22.7060  -31.9230 C   0  0  0  0  0  0  0  0  0  0  0  0
   -4.6360   23.7280  -31.2390 N   0  0  0  0  0  0  0  0  0  0  0  0
   -5.3430   24.5350  -30.4050 C   0  0  0  0  0  0  0  0  0  0  0  0
   -6.7100   24.3310  -30.2310 C   0  0  0  0  0  0  0  0  0  0  0  0
   -7.3390   23.2930  -30.9160 C   0  0  0  0  0  0  0  0  0  0  0  0
   -6.6030   22.4620  -31.7760 C   0  0  0  0  0  0  0  0  0  0  0  0
   -7.2850   21.3410  -32.4590 C   0  0  0  0  0  0  0  0  0  0  0  0
   -6.7450   20.8070  -33.4660 O   0  0  0  0  0  0  0  0  0  0  0  0
   -8.5270   20.8130  -31.9590 N   0  0  0  0  0  0  0  0  0  0  0  0
   -9.7760   21.5490  -32.1760 C   0  0  0  0  0  0  0  0  0  0  0  0
   -8.5350   19.5570  -31.2010 C   0  0  0  0  0  0  0  0  0  0  0  0
   -7.4460   18.6610  -31.7070 C   0  0  0  0  0  0  0  0  0  0  0  0
   -6.6010   18.2000  -30.8940 O   0  0  0  0  0  0  0  0  0  0  0  0
   -7.3160   18.4240  -33.1170 N   0  0  0  0  0  0  0  0  0  0  0  0
   -6.2740   17.6280  -33.7030 C   0  0  0  0  0  0  0  0  0  0  0  0
   -5.3670   18.2270  -34.5910 C   0  0  0  0  0  0  0  0  0  0  0  0
   -4.3540   17.4690  -35.1870 C   0  0  0  0  0  0  0  0  0  0  0  0
   -4.2490   16.1030  -34.9120 C   0  0  0  0  0  0  0  0  0  0  0  0
   -5.1600   15.4920  -34.0460 C   0  0  0  0  0  0  0  0  0  0  0  0
   -6.1740   16.2480  -33.4470 C   0  0  0  0  0  0  0  0  0  0  0  0
   -4.1114   20.6938  -30.8408 H   0  0  0  0  0  0  0  0  0  0  0  0
   -4.9346   19.6464  -32.0458 H   0  0  0  0  0  0  0  0  0  0  0  0
   -3.1432   19.7790  -32.0458 H   0  0  0  0  0  0  0  0  0  0  0  0
   -4.8357   25.3495  -29.8672 H   0  0  0  0  0  0  0  0  0  0  0  0
   -7.2875   24.9831  -29.5593 H   0  0  0  0  0  0  0  0  0  0  0  0
   -8.4177   23.1238  -30.7823 H   0  0  0  0  0  0  0  0  0  0  0  0
  -10.2207   21.8110  -31.2046 H   0  0  0  0  0  0  0  0  0  0  0  0
   -9.5663   22.4679  -32.7431 H   0  0  0  0  0  0  0  0  0  0  0  0
  -10.4783   20.9203  -32.7431 H   0  0  0  0  0  0  0  0  0  0  0  0
   -8.3680   19.7710  -30.1350 H   0  0  0  0  0  0  0  0  0  0  0  0
   -9.5077   19.0590  -31.3271 H   0  0  0  0  0  0  0  0  0  0  0  0
   -7.9240   18.9790  -33.7620 H   0  0  0  0  0  0  0  0  0  0  0  0
   -5.4535   19.2995  -34.8196 H   0  0  0  0  0  0  0  0  0  0  0  0
   -3.6396   17.9483  -35.8725 H   0  0  0  0  0  0  0  0  0  0  0  0
   -3.4490   15.5084  -35.3773 H   0  0  0  0  0  0  0  0  0  0  0  0
   -5.0799   14.4154  -33.8349 H   0  0  0  0  0  0  0  0  0  0  0  0
   -6.8953   15.7617  -32.7737 H   0  0  0  0  0  0  0  0  0  0  0  0
  1  2  1  0
  2  3  1  0
  3  4  2  0
  4  5  1  0
  5  6  2  0
  6  7  1  0
  7  8  2  0
  8  9  1  0
  9 10  2  0
  9 11  1  0
 11 12  1  0
 11 13  1  0
 13 14  1  0
 14 15  2  0
 14 16  1  0
 16 17  1  0
 17 18  2  0
 18 19  1  0
 19 20  2  0
 20 21  1  0
 21 22  2  0
  8  3  1  0
 22 17  1  0
  1 23  1  0
  1 24  1  0
  1 25  1  0
  5 26  1  0
  6 27  1  0
  7 28  1  0
 12 29  1  0
 12 30  1  0
 12 31  1  0
 13 32  1  0
 13 33  1  0
 16 34  1  0
 18 35  1  0
 19 36  1  0
 20 37  1  0
 21 38  1  0
 22 39  1  0
M  END
>  <UniqueID>  (50) 
45

>  <SMILES>  (50) 
CSc1ncccc1C(=O)N(C)CC(=O)Nc1ccccc1

>  <Energy>  (50) 
42.45778249398734

>  <Genealogy>  (50) 
CSc1ncccc1C(=O)N(C)CC(=O)Nc1ccccc1 (3D coordinates assigned)
CSc1ncccc1C(=O)N(C)CC(=O)Nc1ccccc1 (optimized conformer: 42.45778249398734 kcal/mol)

>  <smiles>  (50) 
CSc1ncccc1C(=O)N(C)CC(=O)Nc1ccccc1

>  <score_type>  (50) 
oracle

>  <origin>  (50) 
adgpu

>  <m_score__min__energy>  (50) 
-7.7199999999999998

>  <m_primary>  (50) 
energy

$$$$
