0:0
     RDKit          3D

 33 35  0  0  0  0  0  0  0  0999 V2000
   -8.4020   24.3480  -31.5530 H   0  0  0  0  0  0  0  0  0  0  0  0
   -8.0450   23.5020  -32.0500 N   0  0  0  0  0  0  0  0  0  0  0  0
   -6.9020   22.9390  -31.8030 C   0  0  0  0  0  0  0  0  0  0  0  0
   -6.5540   21.8410  -32.5230 N   0  0  0  0  0  0  0  0  0  0  0  0
   -5.3800   21.1780  -32.3430 C   0  0  0  0  0  0  0  0  0  0  0  0
   -5.0870   19.9830  -33.1750 C   0  0  0  0  0  0  0  0  0  0  0  0
   -6.1190   19.2500  -33.7970 C   0  0  0  0  0  0  0  0  0  0  0  0
   -7.1650   19.5674  -33.6738 H   0  0  0  0  0  0  0  0  0  0  0  0
   -5.8220   18.1230  -34.5690 C   0  0  0  0  0  0  0  0  0  0  0  0
   -6.6334   17.5610  -35.0546 H   0  0  0  0  0  0  0  0  0  0  0  0
   -4.4970   17.7090  -34.7250 C   0  0  0  0  0  0  0  0  0  0  0  0
   -4.2050   16.5880  -35.4940 O   0  0  0  0  0  0  0  0  0  0  0  0
   -3.4660   18.4190  -34.1050 C   0  0  0  0  0  0  0  0  0  0  0  0
   -2.4230   18.0909  -34.2254 H   0  0  0  0  0  0  0  0  0  0  0  0
   -3.7590   19.5470  -33.3310 C   0  0  0  0  0  0  0  0  0  0  0  0
   -2.9433   20.0979  -32.8400 H   0  0  0  0  0  0  0  0  0  0  0  0
   -4.4850   21.6320  -31.3620 C   0  0  0  0  0  0  0  0  0  0  0  0
   -3.5376   21.0988  -31.1942 H   0  0  0  0  0  0  0  0  0  0  0  0
   -4.7960   22.7630  -30.5960 C   0  0  0  0  0  0  0  0  0  0  0  0
   -3.8220   23.2250  -29.5780 C   0  0  0  0  0  0  0  0  0  0  0  0
   -3.5140   22.4060  -28.4790 C   0  0  0  0  0  0  0  0  0  0  0  0
   -3.9890   21.4185  -28.3831 H   0  0  0  0  0  0  0  0  0  0  0  0
   -2.6080   22.8380  -27.5070 C   0  0  0  0  0  0  0  0  0  0  0  0
   -2.3684   22.1888  -26.6520 H   0  0  0  0  0  0  0  0  0  0  0  0
   -2.0060   24.0940  -27.6200 C   0  0  0  0  0  0  0  0  0  0  0  0
   -1.1070   24.5230  -26.6500 O   0  0  0  0  0  0  0  0  0  0  0  0
   -2.3080   24.9190  -28.7060 C   0  0  0  0  0  0  0  0  0  0  0  0
   -1.8338   25.9078  -28.7915 H   0  0  0  0  0  0  0  0  0  0  0  0
   -3.2120   24.4920  -29.6860 C   0  0  0  0  0  0  0  0  0  0  0  0
   -3.4890   25.3230  -30.7660 O   0  0  0  0  0  0  0  0  0  0  0  0
   -6.0210   23.4330  -30.8130 C   0  0  0  0  0  0  0  0  0  0  0  0
   -6.3790   24.5780  -30.0020 C   0  0  0  0  0  0  0  0  0  0  0  0
   -6.6650   25.4940  -29.3540 N   0  0  0  0  0  0  0  0  0  0  0  0
  1  2  1  0
  2  3  2  0
  3  4  1  0
  4  5  1  0
  5  6  1  0
  6  7  2  0
  7  8  1  0
  7  9  1  0
  9 10  1  0
  9 11  2  0
 11 12  1  0
 11 13  1  0
 13 14  1  0
 13 15  2  0
 15 16  1  0
  5 17  2  0
 17 18  1  0
 17 19  1  0
 19 20  1  0
 20 21  2  0
 21 22  1  0
 21 23  1  0
 23 24  1  0
 23 25  2  0
 25 26  1  0
 25 27  1  0
 27 28  1  0
 27 29  2  0
 29 30  1  0
 19 31  2  0
 31 32  1  0
 32 33  3  0
 31  3  1  0
 15  6  1  0
 29 20  1  0
M  CHG  4   4  -1  12  -1  26  -1  30  -1
M  END
>  <UniqueID>  (1) 
1

>  <SMILES>  (1) 
[H]/N=c1/[n-]c(-c2ccc([O-])cc2)cc(-c2ccc([O-])cc2[O-])c1C#N

>  <Energy>  (1) 
51.26104146608959

>  <Genealogy>  (1) 
N#Cc1c(-c2ccc([O-])cc2[O-])cc(-c2ccc([O-])cc2)[n-]c1=N (protonated)
[H]/N=c1/[n-]c(-c2ccc([O-])cc2)cc(-c2ccc([O-])cc2[O-])c1C#N (cis-trans isomerization)
[H]/N=c1/[n-]c(-c2ccc([O-])cc2)cc(-c2ccc([O-])cc2[O-])c1C#N (3D coordinates assigned)
[H]/N=c1/[n-]c(-c2ccc([O-])cc2)cc(-c2ccc([O-])cc2[O-])c1C#N (optimized conformer: 51.26104146608959 kcal/mol)

>  <smiles>  (1) 
N#Cc1c(-c2ccc(O)cc2O)cc(-c2ccc(O)cc2)[nH]c1=N

>  <score_type>  (1) 
oracle

>  <origin>  (1) 
adgpu

>  <m_score__min__energy>  (1) 
-10.960000000000001

>  <m_primary>  (1) 
energy

$$$$
1:0
     RDKit          3D

 27 29  0  0  0  0  0  0  0  0999 V2000
   -8.8130   23.3430  -31.9430 N   0  0  0  0  0  0  0  0  0  0  0  0
   -7.5280   23.1710  -31.9460 C   0  0  0  0  0  0  0  0  0  0  0  0
   -6.7410   24.1880  -31.5760 N   0  0  0  0  0  0  0  0  0  0  0  0
   -5.3960   24.0500  -31.5660 C   0  0  0  0  0  0  0  0  0  0  0  0
   -4.6160   25.0100  -31.2160 N   0  0  0  0  0  0  0  0  0  0  0  0
   -4.9060   22.8200  -31.9550 C   0  0  0  0  0  0  0  0  0  0  0  0
   -3.6050   22.3360  -32.0620 C   0  0  0  0  0  0  0  0  0  0  0  0
   -3.7190   21.0750  -32.4850 N   0  0  0  0  0  0  0  0  0  0  0  0
   -4.9780   20.7220  -32.6550 N   0  0  0  0  0  0  0  0  0  0  0  0
   -5.3760   19.4300  -33.0990 C   0  0  0  0  0  0  0  0  0  0  0  0
   -4.9010   18.8280  -34.2330 C   0  0  0  0  0  0  0  0  0  0  0  0
   -5.3550   17.5670  -34.5750 C   0  0  0  0  0  0  0  0  0  0  0  0
   -6.2870   16.8950  -33.7910 C   0  0  0  0  0  0  0  0  0  0  0  0
   -6.8680   15.2930  -34.2180 Cl  0  0  0  0  0  0  0  0  0  0  0  0
   -6.7670   17.4970  -32.6500 C   0  0  0  0  0  0  0  0  0  0  0  0
   -6.3120   18.7590  -32.3070 C   0  0  0  0  0  0  0  0  0  0  0  0
   -5.7360   21.7840  -32.3330 C   0  0  0  0  0  0  0  0  0  0  0  0
   -7.0700   21.9660  -32.3280 N   0  0  0  0  0  0  0  0  0  0  0  0
   -9.1480   24.2860  -31.6430 H   0  0  0  0  0  0  0  0  0  0  0  0
   -7.1030   25.1260  -31.2800 H   0  0  0  0  0  0  0  0  0  0  0  0
   -3.5690   24.9220  -31.2010 H   0  0  0  0  0  0  0  0  0  0  0  0
   -2.6747   22.8806  -31.8431 H   0  0  0  0  0  0  0  0  0  0  0  0
   -4.1643   19.3429  -34.8671 H   0  0  0  0  0  0  0  0  0  0  0  0
   -4.9709   17.0854  -35.4863 H   0  0  0  0  0  0  0  0  0  0  0  0
   -7.5042   16.9810  -32.0174 H   0  0  0  0  0  0  0  0  0  0  0  0
   -6.6938   19.2419  -31.3954 H   0  0  0  0  0  0  0  0  0  0  0  0
   -7.7010   21.1740  -32.6170 H   0  0  0  0  0  0  0  0  0  0  0  0
  1  2  2  3
  2  3  1  0
  3  4  1  0
  4  5  2  3
  4  6  1  0
  6  7  1  0
  7  8  2  0
  8  9  1  0
  9 10  1  0
 10 11  2  0
 11 12  1  0
 12 13  2  0
 13 14  1  0
 13 15  1  0
 15 16  2  0
  9 17  1  0
 17 18  1  0
 18  2  1  0
 17  6  2  0
 16 10  1  0
  1 19  1  0
  3 20  1  0
  5 21  1  0
  7 22  1  0
 11 23  1  0
 12 24  1  0
 15 25  1  0
 16 26  1  0
 18 27  1  0
M  END
>  <smiles>  (2) 
N=c1[nH]c(=N)c2cnn(-c3ccc(Cl)cc3)c2[nH]1

>  <score_type>  (2) 
oracle

>  <origin>  (2) 
adgpu

>  <m_score__min__energy>  (2) 
-6.6699999999999999

>  <m_primary>  (2) 
energy

$$$$
2:0
     RDKit          3D

 51 53  0  0  1  0  0  0  0  0999 V2000
   -1.1670   25.9940  -27.8870 C   0  0  0  0  0  0  0  0  0  0  0  0
   -1.9890   25.6780  -28.9660 O   0  0  0  0  0  0  0  0  0  0  0  0
   -2.7120   24.5210  -29.1260 C   0  0  0  0  0  0  0  0  0  0  0  0
   -3.4710   24.3890  -30.2670 C   0  0  0  0  0  0  0  0  0  0  0  0
   -4.2420   23.2700  -30.5410 C   0  0  0  0  0  0  0  0  0  0  0  0
   -5.0540   23.1620  -31.7890 C   0  0  0  0  0  0  0  0  0  0  0  0
   -5.3340   21.8170  -32.1730 N   0  0  0  0  0  0  0  0  0  0  0  0
   -6.4630   21.2090  -32.0800 C   0  0  0  0  0  0  0  0  0  0  0  0
   -7.5160   21.8710  -31.5770 N   0  0  0  0  0  0  0  0  0  0  0  0
   -8.6770   21.2000  -31.4970 C   0  0  0  0  0  0  0  0  0  0  0  0
   -9.8800   21.8650  -30.9530 C   0  0  0  0  0  0  0  0  0  0  0  0
   -8.7670   19.8740  -31.9240 C   0  0  0  0  0  0  0  0  0  0  0  0
   -7.6690   19.2140  -32.4380 C   0  0  0  0  0  0  0  0  0  0  0  0
   -7.7260   17.9800  -32.8420 N   0  0  0  0  0  0  0  0  0  0  0  0
   -6.4970   17.4570  -33.3460 C   0  0  0  0  0  0  0  0  0  0  0  0
   -5.7160   16.5650  -32.6370 C   0  0  0  0  0  0  0  0  0  0  0  0
   -4.5280   16.0730  -33.1470 C   0  0  0  0  0  0  0  0  0  0  0  0
   -4.1500   16.5150  -34.4130 C   0  0  0  0  0  0  0  0  0  0  0  0
   -2.8840   16.0160  -35.0030 C   0  0  0  0  0  0  0  0  0  0  0  0
   -2.0470   17.1180  -35.1120 F   0  0  0  0  0  0  0  0  0  0  0  0
   -2.2330   15.1050  -34.2020 F   0  0  0  0  0  0  0  0  0  0  0  0
   -3.0640   15.5450  -36.2820 F   0  0  0  0  0  0  0  0  0  0  0  0
   -4.9110   17.4000  -35.1330 C   0  0  0  0  0  0  0  0  0  0  0  0
   -6.1020   17.8830  -34.6010 C   0  0  0  0  0  0  0  0  0  0  0  0
   -6.5180   19.9310  -32.5000 N   0  0  0  0  0  0  0  0  0  0  0  0
   -4.2110   22.2660  -29.5890 C   0  0  0  0  0  0  0  0  0  0  0  0
   -3.4610   22.3670  -28.4340 C   0  0  0  0  0  0  0  0  0  0  0  0
   -3.4680   21.3280  -27.5120 O   0  0  0  0  0  0  0  0  0  0  0  0
   -2.5050   20.2940  -27.5250 C   0  0  0  0  0  0  0  0  0  0  0  0
   -2.7210   23.4900  -28.2140 C   0  0  0  0  0  0  0  0  0  0  0  0
   -1.7005   25.7889  -26.9472 H   0  0  0  0  0  0  0  0  0  0  0  0
   -0.2533   25.3830  -27.9308 H   0  0  0  0  0  0  0  0  0  0  0  0
   -0.8979   27.0597  -27.9308 H   0  0  0  0  0  0  0  0  0  0  0  0
   -3.4654   25.2118  -30.9970 H   0  0  0  0  0  0  0  0  0  0  0  0
   -6.0089   23.6840  -31.6289 H   0  0  0  0  0  0  0  0  0  0  0  0
   -4.4619   23.6124  -32.5993 H   0  0  0  0  0  0  0  0  0  0  0  0
   -7.4180   22.8610  -31.2670 H   0  0  0  0  0  0  0  0  0  0  0  0
   -9.8444   21.8453  -29.8538 H   0  0  0  0  0  0  0  0  0  0  0  0
   -9.9109   22.9083  -31.3002 H   0  0  0  0  0  0  0  0  0  0  0  0
  -10.7799   21.3362  -31.3002 H   0  0  0  0  0  0  0  0  0  0  0  0
   -9.7292   19.3461  -31.8496 H   0  0  0  0  0  0  0  0  0  0  0  0
   -6.0475   16.2373  -31.6406 H   0  0  0  0  0  0  0  0  0  0  0  0
   -3.9089   15.3639  -32.5779 H   0  0  0  0  0  0  0  0  0  0  0  0
   -4.5801   17.7274  -36.1296 H   0  0  0  0  0  0  0  0  0  0  0  0
   -6.7203   18.5930  -35.1699 H   0  0  0  0  0  0  0  0  0  0  0  0
   -5.6410   19.4700  -32.8880 H   0  0  0  0  0  0  0  0  0  0  0  0
   -4.8047   21.3556  -29.7584 H   0  0  0  0  0  0  0  0  0  0  0  0
   -2.2486   20.0187  -26.4913 H   0  0  0  0  0  0  0  0  0  0  0  0
   -2.9156   19.4171  -28.0469 H   0  0  0  0  0  0  0  0  0  0  0  0
   -1.6011   20.6413  -28.0469 H   0  0  0  0  0  0  0  0  0  0  0  0
   -2.1226   23.5737  -27.2948 H   0  0  0  0  0  0  0  0  0  0  0  0
  1  2  1  0
  2  3  1  0
  3  4  2  0
  4  5  1  0
  5  6  1  0
  6  7  1  0
  7  8  2  0
  8  9  1  0
  9 10  1  0
 10 11  1  0
 10 12  2  0
 12 13  1  0
 13 14  2  0
 14 15  1  0
 15 16  2  0
 16 17  1  0
 17 18  2  0
 18 19  1  0
 19 20  1  0
 19 21  1  0
 19 22  1  0
 18 23  1  0
 23 24  2  0
 13 25  1  0
  5 26  2  0
 26 27  1  0
 27 28  1  0
 28 29  1  0
 27 30  2  0
 30  3  1  0
 25  8  1  0
 24 15  1  0
  1 31  1  0
  1 32  1  0
  1 33  1  0
  4 34  1  0
  6 35  1  0
  6 36  1  0
  9 37  1  0
 11 38  1  0
 11 39  1  0
 11 40  1  0
 12 41  1  0
 16 42  1  0
 17 43  1  0
 23 44  1  0
 24 45  1  0
 25 46  1  0
 26 47  1  0
 29 48  1  0
 29 49  1  0
 29 50  1  0
 30 51  1  0
M  END
>  <smiles>  (3) 
COc1cc(CN=c2[nH]c(C)cc(=Nc3ccc(C(F)(F)F)cc3)[nH]2)cc(OC)c1

>  <score_type>  (3) 
oracle

>  <origin>  (3) 
adgpu

>  <m_score__min__energy>  (3) 
-7.8099999999999996

>  <m_primary>  (3) 
energy

$$$$
3:0
     RDKit          3D

 59 62  0  0  0  0  0  0  0  0999 V2000
   -0.4530   22.6070  -25.0840 C   0  0  0  0  0  0  0  0  0  0  0  0
   -1.0310   23.2090  -26.3250 C   0  0  0  0  0  0  0  0  0  0  0  0
   -0.4430   24.3380  -26.9130 C   0  0  0  0  0  0  0  0  0  0  0  0
   -1.0250   24.9000  -28.0520 C   0  0  0  0  0  0  0  0  0  0  0  0
   -2.1820   24.3350  -28.5990 C   0  0  0  0  0  0  0  0  0  0  0  0
   -2.7670   24.9270  -29.7700 N   0  0  0  0  0  0  0  0  0  0  0  0
   -3.7690   24.3320  -30.6040 C   0  0  0  0  0  0  0  0  0  0  0  0
   -4.8390   24.9640  -30.8080 O   0  0  0  0  0  0  0  0  0  0  0  0
   -3.5550   23.0250  -31.2620 C   0  0  0  0  0  0  0  0  0  0  0  0
   -2.4400   22.2180  -31.1670 C   0  0  0  0  0  0  0  0  0  0  0  0
   -1.2670   22.5070  -30.4770 O   0  0  0  0  0  0  0  0  0  0  0  0
   -2.6970   21.0700  -31.8900 C   0  0  0  0  0  0  0  0  0  0  0  0
   -3.9020   21.1520  -32.4060 O   0  0  0  0  0  0  0  0  0  0  0  0
   -4.4370   22.3040  -32.0560 C   0  0  0  0  0  0  0  0  0  0  0  0
   -5.7670   22.6990  -32.4170 N   0  0  0  0  0  0  0  0  0  0  0  0
   -6.9270   22.2870  -31.6350 C   0  0  0  0  0  0  0  0  0  0  0  0
   -7.3190   20.8720  -31.9620 C   0  0  0  0  0  0  0  0  0  0  0  0
   -8.3790   20.2520  -31.2820 C   0  0  0  0  0  0  0  0  0  0  0  0
   -8.7110   18.9190  -31.5590 C   0  0  0  0  0  0  0  0  0  0  0  0
   -7.9910   18.1980  -32.5170 C   0  0  0  0  0  0  0  0  0  0  0  0
   -6.9530   18.8200  -33.2310 C   0  0  0  0  0  0  0  0  0  0  0  0
   -6.1910   18.0820  -34.2530 C   0  0  0  0  0  0  0  0  0  0  0  0
   -5.6800   18.6970  -35.2250 O   0  0  0  0  0  0  0  0  0  0  0  0
   -6.0490   16.6630  -34.1400 N   0  0  0  0  0  0  0  0  0  0  0  0
   -4.8990   15.9560  -33.5730 C   0  0  2  0  0  0  0  0  0  0  0  0
   -5.0120   15.7730  -32.0510 C   0  0  0  0  0  0  0  0  0  0  0  0
   -3.6130   16.6430  -33.9960 C   0  0  0  0  0  0  0  0  0  0  0  0
   -3.1610   17.7760  -33.2900 C   0  0  0  0  0  0  0  0  0  0  0  0
   -1.9320   18.3720  -33.6080 C   0  0  0  0  0  0  0  0  0  0  0  0
   -1.1380   17.8390  -34.6250 C   0  0  0  0  0  0  0  0  0  0  0  0
   -1.5690   16.7080  -35.3260 C   0  0  0  0  0  0  0  0  0  0  0  0
   -2.7970   16.1110  -35.0140 C   0  0  0  0  0  0  0  0  0  0  0  0
   -6.6320   20.1590  -32.9570 C   0  0  0  0  0  0  0  0  0  0  0  0
   -2.7660   23.2300  -27.9520 C   0  0  0  0  0  0  0  0  0  0  0  0
   -2.1820   22.7010  -26.8460 N   0  0  0  0  0  0  0  0  0  0  0  0
   -0.9073   23.0802  -24.2010 H   0  0  0  0  0  0  0  0  0  0  0  0
   -0.6611   21.5270  -25.0691 H   0  0  0  0  0  0  0  0  0  0  0  0
    0.6346   22.7711  -25.0691 H   0  0  0  0  0  0  0  0  0  0  0  0
    0.4684   24.7773  -26.4813 H   0  0  0  0  0  0  0  0  0  0  0  0
   -0.5731   25.7875  -28.5191 H   0  0  0  0  0  0  0  0  0  0  0  0
   -1.0680   23.4490  -30.1640 H   0  0  0  0  0  0  0  0  0  0  0  0
   -2.0048   20.2241  -32.0137 H   0  0  0  0  0  0  0  0  0  0  0  0
   -5.9090   23.4120  -33.1640 H   0  0  0  0  0  0  0  0  0  0  0  0
   -6.6825   22.3549  -30.5647 H   0  0  0  0  0  0  0  0  0  0  0  0
   -7.7695   22.9507  -31.8792 H   0  0  0  0  0  0  0  0  0  0  0  0
   -8.9509   20.8143  -30.5292 H   0  0  0  0  0  0  0  0  0  0  0  0
   -9.5411   18.4379  -31.0209 H   0  0  0  0  0  0  0  0  0  0  0  0
   -8.2374   17.1438  -32.7115 H   0  0  0  0  0  0  0  0  0  0  0  0
   -4.8842   14.9338  -33.9791 H   0  0  0  0  0  0  0  0  0  0  0  0
   -4.4994   16.6031  -31.5428 H   0  0  0  0  0  0  0  0  0  0  0  0
   -6.0729   15.7644  -31.7605 H   0  0  0  0  0  0  0  0  0  0  0  0
   -4.5445   14.8206  -31.7605 H   0  0  0  0  0  0  0  0  0  0  0  0
   -3.7778   18.1966  -32.4822 H   0  0  0  0  0  0  0  0  0  0  0  0
   -1.5932   19.2607  -33.0553 H   0  0  0  0  0  0  0  0  0  0  0  0
   -0.1748   18.3078  -34.8747 H   0  0  0  0  0  0  0  0  0  0  0  0
   -0.9415   16.2860  -36.1249 H   0  0  0  0  0  0  0  0  0  0  0  0
   -3.1269   15.2198  -35.5681 H   0  0  0  0  0  0  0  0  0  0  0  0
   -5.8334   20.6548  -33.5283 H   0  0  0  0  0  0  0  0  0  0  0  0
   -3.6972   22.7940  -28.3429 H   0  0  0  0  0  0  0  0  0  0  0  0
  1  2  1  0
  2  3  2  0
  3  4  1  0
  4  5  2  0
  5  6  1  0
  6  7  1  0
  7  8  2  0
  7  9  1  0
  9 10  1  0
 10 11  1  0
 10 12  2  0
 12 13  1  0
 13 14  1  0
 14 15  1  0
 15 16  1  0
 16 17  1  0
 17 18  2  0
 18 19  1  0
 19 20  2  0
 20 21  1  0
 21 22  1  0
 22 23  2  0
 22 24  1  0
 24 25  1  0
 25 26  1  0
 25 27  1  0
 27 28  2  0
 28 29  1  0
 29 30  2  0
 30 31  1  0
 31 32  2  0
 21 33  2  0
  5 34  1  0
 34 35  2  0
 35  2  1  0
 14  9  2  0
 33 17  1  0
 32 27  1  0
  1 36  1  0
  1 37  1  0
  1 38  1  0
  3 39  1  0
  4 40  1  0
 11 41  1  0
 12 42  1  0
 15 43  1  0
 16 44  1  0
 16 45  1  0
 18 46  1  0
 19 47  1  0
 20 48  1  0
 25 49  1  6
 26 50  1  0
 26 51  1  0
 26 52  1  0
 28 53  1  0
 29 54  1  0
 30 55  1  0
 31 56  1  0
 32 57  1  0
 33 58  1  0
 34 59  1  0
M  CHG  2   6  -1  24  -1
M  END
>  <UniqueID>  (4) 
2

>  <SMILES>  (4) 
Cc1ccc([N-]C(=O)c2c(O)coc2NCc2cccc(C(=O)[N-][C@H](C)c3ccccc3)c2)cn1

>  <Energy>  (4) 
100.81592338413418

>  <Genealogy>  (4) 
Cc1ccc([N-]C(=O)c2c(O)coc2NCc2cccc(C(=O)[N-]C(C)c3ccccc3)c2)cn1 (protonated)
Cc1ccc([N-]C(=O)c2c(O)coc2NCc2cccc(C(=O)[N-][C@H](C)c3ccccc3)c2)cn1 (chirality)
Cc1ccc([N-]C(=O)c2c(O)coc2NCc2cccc(C(=O)[N-][C@H](C)c3ccccc3)c2)cn1 (3D coordinates assigned)
Cc1ccc([N-]C(=O)c2c(O)coc2NCc2cccc(C(=O)[N-][C@H](C)c3ccccc3)c2)cn1 (optimized conformer: 100.81592338413418 kcal/mol)

>  <smiles>  (4) 
Cc1ccc(NC(=O)c2c(O)coc2NCc2cccc(C(=O)NC(C)c3ccccc3)c2)cn1

>  <score_type>  (4) 
oracle

>  <origin>  (4) 
adgpu

>  <m_score__min__energy>  (4) 
-11.48

>  <m_primary>  (4) 
energy

$$$$
4:0
     RDKit          3D

 41 43  0  0  0  0  0  0  0  0999 V2000
   -6.1750   25.6770  -29.0400 C   0  0  0  0  0  0  0  0  0  0  0  0
   -6.4710   25.2920  -30.4870 C   0  0  0  0  0  0  0  0  0  0  0  0
   -5.6710   24.0710  -30.8940 C   0  0  0  0  0  0  0  0  0  0  0  0
   -6.2810   22.8910  -31.3940 C   0  0  0  0  0  0  0  0  0  0  0  0
   -7.7810   22.7340  -31.4950 C   0  0  0  0  0  0  0  0  0  0  0  0
   -8.1320   21.3370  -31.9000 C   0  0  0  0  0  0  0  0  0  0  0  0
   -8.9350   20.4680  -31.1880 C   0  0  0  0  0  0  0  0  0  0  0  0
   -8.9920   19.3160  -31.9410 C   0  0  0  0  0  0  0  0  0  0  0  0
   -8.2230   19.5530  -33.0630 C   0  0  0  0  0  0  0  0  0  0  0  0
   -7.7250   20.7670  -33.0100 O   0  0  0  0  0  0  0  0  0  0  0  0
   -5.4950   21.8350  -31.7560 N   0  0  0  0  0  0  0  0  0  0  0  0
   -4.1420   21.9040  -31.6860 C   0  0  0  0  0  0  0  0  0  0  0  0
   -3.1330   20.5250  -32.2290 S   0  0  0  0  0  0  0  0  0  0  0  0
   -4.1540   20.1630  -33.7030 C   0  0  0  0  0  0  0  0  0  0  0  0
   -4.9550   18.9050  -33.5140 C   0  0  0  0  0  0  0  0  0  0  0  0
   -5.4100   18.1830  -34.6290 C   0  0  0  0  0  0  0  0  0  0  0  0
   -6.1880   17.0330  -34.4540 C   0  0  0  0  0  0  0  0  0  0  0  0
   -6.5200   16.6010  -33.1670 C   0  0  0  0  0  0  0  0  0  0  0  0
   -6.0750   17.3160  -32.0530 C   0  0  0  0  0  0  0  0  0  0  0  0
   -5.2950   18.4640  -32.2230 C   0  0  0  0  0  0  0  0  0  0  0  0
   -3.5410   23.0290  -31.2300 N   0  0  0  0  0  0  0  0  0  0  0  0
   -4.2650   24.1060  -30.8400 C   0  0  0  0  0  0  0  0  0  0  0  0
   -3.6610   25.1340  -30.4340 O   0  0  0  0  0  0  0  0  0  0  0  0
   -6.7032   24.9900  -28.3624 H   0  0  0  0  0  0  0  0  0  0  0  0
   -5.0922   25.6118  -28.8574 H   0  0  0  0  0  0  0  0  0  0  0  0
   -6.5163   26.7066  -28.8574 H   0  0  0  0  0  0  0  0  0  0  0  0
   -7.5437   25.0706  -30.5890 H   0  0  0  0  0  0  0  0  0  0  0  0
   -6.1893   26.1314  -31.1396 H   0  0  0  0  0  0  0  0  0  0  0  0
   -8.2352   22.9531  -30.5174 H   0  0  0  0  0  0  0  0  0  0  0  0
   -8.1631   23.4327  -32.2538 H   0  0  0  0  0  0  0  0  0  0  0  0
   -9.4262   20.6563  -30.2219 H   0  0  0  0  0  0  0  0  0  0  0  0
   -9.5396   18.3935  -31.6976 H   0  0  0  0  0  0  0  0  0  0  0  0
   -8.0532   18.8339  -33.8779 H   0  0  0  0  0  0  0  0  0  0  0  0
   -5.9340   20.9540  -32.1090 H   0  0  0  0  0  0  0  0  0  0  0  0
   -4.8418   21.0034  -33.8782 H   0  0  0  0  0  0  0  0  0  0  0  0
   -3.4846   20.0235  -34.5646 H   0  0  0  0  0  0  0  0  0  0  0  0
   -5.1540   18.5225  -35.6435 H   0  0  0  0  0  0  0  0  0  0  0  0
   -6.5387   16.4684  -35.3305 H   0  0  0  0  0  0  0  0  0  0  0  0
   -7.1322   15.6972  -33.0314 H   0  0  0  0  0  0  0  0  0  0  0  0
   -6.3384   16.9757  -31.0407 H   0  0  0  0  0  0  0  0  0  0  0  0
   -4.9460   19.0244  -31.3431 H   0  0  0  0  0  0  0  0  0  0  0  0
  1  2  1  0
  2  3  1  0
  3  4  2  0
  4  5  1  0
  5  6  1  0
  6  7  2  0
  7  8  1  0
  8  9  2  0
  9 10  1  0
  4 11  1  0
 11 12  1  0
 12 13  1  0
 13 14  1  0
 14 15  1  0
 15 16  2  0
 16 17  1  0
 17 18  2  0
 18 19  1  0
 19 20  2  0
 12 21  2  0
 21 22  1  0
 22 23  2  0
 22  3  1  0
 10  6  1  0
 20 15  1  0
  1 24  1  0
  1 25  1  0
  1 26  1  0
  2 27  1  0
  2 28  1  0
  5 29  1  0
  5 30  1  0
  7 31  1  0
  8 32  1  0
  9 33  1  0
 11 34  1  0
 14 35  1  0
 14 36  1  0
 16 37  1  0
 17 38  1  0
 18 39  1  0
 19 40  1  0
 20 41  1  0
M  END
>  <UniqueID>  (5) 
3

>  <SMILES>  (5) 
CCc1c(Cc2ccco2)[nH]c(SCc2ccccc2)nc1=O

>  <Energy>  (5) 
61.83706386682872

>  <Genealogy>  (5) 
CCc1c(Cc2ccco2)[nH]c(SCc2ccccc2)nc1=O (3D coordinates assigned)
CCc1c(Cc2ccco2)[nH]c(SCc2ccccc2)nc1=O (optimized conformer: 61.83706386682872 kcal/mol)

>  <smiles>  (5) 
CCc1c(Cc2ccco2)[nH]c(SCc2ccccc2)nc1=O

>  <score_type>  (5) 
oracle

>  <origin>  (5) 
adgpu

>  <m_score__min__energy>  (5) 
-8.0800000000000001

>  <m_primary>  (5) 
energy

$$$$
5:0
     RDKit          3D

 32 34  0  0  0  0  0  0  0  0999 V2000
    0.9440   20.2020  -27.9180 H   0  0  0  0  0  0  0  0  0  0  0  0
    0.7710   21.0910  -27.4620 O   0  0  0  0  0  0  0  0  0  0  0  0
   -0.0870   22.0380  -28.0160 C   0  0  0  0  0  0  0  0  0  0  0  0
   -0.6280   21.8520  -29.2940 C   0  0  0  0  0  0  0  0  0  0  0  0
   -0.3751   20.9504  -29.8712 H   0  0  0  0  0  0  0  0  0  0  0  0
   -1.4890   22.8100  -29.8380 C   0  0  0  0  0  0  0  0  0  0  0  0
   -1.8975   22.6647  -30.8489 H   0  0  0  0  0  0  0  0  0  0  0  0
   -1.8360   23.9540  -29.1060 C   0  0  0  0  0  0  0  0  0  0  0  0
   -2.7070   24.9200  -29.7160 N   0  0  0  0  0  0  0  0  0  0  0  0
   -3.8310   24.6710  -30.3200 C   0  0  0  0  0  0  0  0  0  0  0  0
   -4.6140   25.6310  -30.8370 N   0  0  0  0  0  0  0  0  0  0  0  0
   -5.6420   25.0010  -31.3840 N   0  0  0  0  0  0  0  0  0  0  0  0
   -5.4470   23.6830  -31.1770 C   0  0  0  0  0  0  0  0  0  0  0  0
   -6.3400   22.5940  -31.6470 C   0  0  0  0  0  0  0  0  0  0  0  0
   -7.7150   22.7330  -31.3800 C   0  0  0  0  0  0  0  0  0  0  0  0
   -8.0795   23.6407  -30.8768 H   0  0  0  0  0  0  0  0  0  0  0  0
   -8.6220   21.7390  -31.7430 C   0  0  0  0  0  0  0  0  0  0  0  0
   -9.6931   21.8664  -31.5272 H   0  0  0  0  0  0  0  0  0  0  0  0
   -8.1730   20.5860  -32.3780 C   0  0  0  0  0  0  0  0  0  0  0  0
   -8.8879   19.7953  -32.6497 H   0  0  0  0  0  0  0  0  0  0  0  0
   -6.8190   20.4300  -32.6710 C   0  0  0  0  0  0  0  0  0  0  0  0
   -6.4753   19.5117  -33.1695 H   0  0  0  0  0  0  0  0  0  0  0  0
   -5.8820   21.4320  -32.3380 C   0  0  0  0  0  0  0  0  0  0  0  0
   -4.4280   21.2360  -32.7300 C   0  0  0  0  0  0  0  0  0  0  0  0
   -3.9680   22.3380  -33.4260 F   0  0  0  0  0  0  0  0  0  0  0  0
   -3.6630   21.0460  -31.5950 F   0  0  0  0  0  0  0  0  0  0  0  0
   -4.2640   20.1300  -33.5490 F   0  0  0  0  0  0  0  0  0  0  0  0
   -4.3240   23.4750  -30.5280 O   0  0  0  0  0  0  0  0  0  0  0  0
   -1.2680   24.1480  -27.8310 C   0  0  0  0  0  0  0  0  0  0  0  0
   -1.5036   25.0578  -27.2594 H   0  0  0  0  0  0  0  0  0  0  0  0
   -0.4060   23.1890  -27.2890 C   0  0  0  0  0  0  0  0  0  0  0  0
    0.0224   23.3408  -26.2873 H   0  0  0  0  0  0  0  0  0  0  0  0
  1  2  1  0
  2  3  1  0
  3  4  2  0
  4  5  1  0
  4  6  1  0
  6  7  1  0
  6  8  2  0
  8  9  1  0
  9 10  2  0
 10 11  1  0
 11 12  1  0
 12 13  2  0
 13 14  1  0
 14 15  2  0
 15 16  1  0
 15 17  1  0
 17 18  1  0
 17 19  2  0
 19 20  1  0
 19 21  1  0
 21 22  1  0
 21 23  2  0
 23 24  1  0
 24 25  1  0
 24 26  1  0
 24 27  1  0
 13 28  1  0
  8 29  1  0
 29 30  1  0
 29 31  2  0
 31 32  1  0
 31  3  1  0
 28 10  1  0
 23 14  1  0
M  CHG  1  11  -1
M  END
>  <UniqueID>  (6) 
4

>  <SMILES>  (6) 
Oc1ccc(/N=c2/[n-]nc(-c3ccccc3C(F)(F)F)o2)cc1

>  <Energy>  (6) 
81.18083749234374

>  <Genealogy>  (6) 
Oc1ccc(N=c2[n-]nc(-c3ccccc3C(F)(F)F)o2)cc1 (protonated)
Oc1ccc(/N=c2/[n-]nc(-c3ccccc3C(F)(F)F)o2)cc1 (cis-trans isomerization)
Oc1ccc(/N=c2/[n-]nc(-c3ccccc3C(F)(F)F)o2)cc1 (3D coordinates assigned)
Oc1ccc(/N=c2/[n-]nc(-c3ccccc3C(F)(F)F)o2)cc1 (optimized conformer: 81.18083749234374 kcal/mol)

>  <smiles>  (6) 
Oc1ccc(N=c2[nH]nc(-c3ccccc3C(F)(F)F)o2)cc1

>  <score_type>  (6) 
oracle

>  <origin>  (6) 
adgpu

>  <m_score__min__energy>  (6) 
-8.3000000000000007

>  <m_primary>  (6) 
energy

$$$$
6:0
     RDKit          3D

 41 43  0  0  0  0  0  0  0  0999 V2000
   -8.3917   19.7598  -32.5358 H   0  0  0  0  0  0  0  0  0  0  0  0
   -7.9200   20.7330  -32.3350 C   0  0  0  0  0  0  0  0  0  0  0  0
   -8.6880   21.7940  -31.8470 C   0  0  0  0  0  0  0  0  0  0  0  0
   -9.7631   21.6543  -31.6609 H   0  0  0  0  0  0  0  0  0  0  0  0
   -8.0900   23.0340  -31.5950 C   0  0  0  0  0  0  0  0  0  0  0  0
   -8.6955   23.8652  -31.2045 H   0  0  0  0  0  0  0  0  0  0  0  0
   -6.7190   23.2210  -31.8390 C   0  0  0  0  0  0  0  0  0  0  0  0
   -6.0670   24.5390  -31.5310 C   0  0  0  0  0  0  0  0  0  0  0  0
   -6.8160   25.2270  -31.1118 H   0  0  0  0  0  0  0  0  0  0  0  0
   -5.6502   24.9613  -32.4573 H   0  0  0  0  0  0  0  0  0  0  0  0
   -4.9650   24.3440  -30.5410 C   0  0  0  0  0  0  0  0  0  0  0  0
   -3.8720   25.1360  -30.4780 N   0  0  0  0  0  0  0  0  0  0  0  0
   -3.1500   24.5400  -29.5100 C   0  0  0  0  0  0  0  0  0  0  0  0
   -1.9900   25.0060  -29.1400 N   0  0  0  0  0  0  0  0  0  0  0  0
   -1.1220   24.4630  -28.1390 C   0  0  0  0  0  0  0  0  0  0  0  0
   -0.1210   23.5660  -28.5280 C   0  0  0  0  0  0  0  0  0  0  0  0
   -0.0072   23.3008  -29.5895 H   0  0  0  0  0  0  0  0  0  0  0  0
    0.7320   23.0070  -27.5800 C   0  0  0  0  0  0  0  0  0  0  0  0
    1.5185   22.3054  -27.8950 H   0  0  0  0  0  0  0  0  0  0  0  0
    0.5910   23.3350  -26.2320 C   0  0  0  0  0  0  0  0  0  0  0  0
    1.2746   22.8967  -25.4900 H   0  0  0  0  0  0  0  0  0  0  0  0
   -0.4160   24.2200  -25.8130 C   0  0  0  0  0  0  0  0  0  0  0  0
   -0.5360   24.5430  -24.3460 C   0  0  0  0  0  0  0  0  0  0  0  0
   -0.2136   23.6752  -23.7519 H   0  0  0  0  0  0  0  0  0  0  0  0
    0.1009   25.4076  -24.1076 H   0  0  0  0  0  0  0  0  0  0  0  0
   -1.5829   24.7820  -24.1076 H   0  0  0  0  0  0  0  0  0  0  0  0
   -1.3150   24.7610  -26.7690 C   0  0  0  0  0  0  0  0  0  0  0  0
   -2.4160   25.7050  -26.3420 C   0  0  0  0  0  0  0  0  0  0  0  0
   -2.4607   25.7433  -25.2436 H   0  0  0  0  0  0  0  0  0  0  0  0
   -2.2096   26.7111  -26.7359 H   0  0  0  0  0  0  0  0  0  0  0  0
   -3.3788   25.3474  -26.7359 H   0  0  0  0  0  0  0  0  0  0  0  0
   -3.7740   23.4370  -29.0240 N   0  0  0  0  0  0  0  0  0  0  0  0
   -3.3570   22.4980  -27.9860 C   0  0  0  0  0  0  0  0  0  0  0  0
   -3.5515   22.9359  -26.9958 H   0  0  0  0  0  0  0  0  0  0  0  0
   -3.9236   21.5609  -28.0902 H   0  0  0  0  0  0  0  0  0  0  0  0
   -2.2819   22.2900  -28.0902 H   0  0  0  0  0  0  0  0  0  0  0  0
   -4.9130   23.3110  -29.6790 N   0  0  0  0  0  0  0  0  0  0  0  0
   -5.9520   22.1450  -32.3170 C   0  0  0  0  0  0  0  0  0  0  0  0
   -4.8744   22.2765  -32.4944 H   0  0  0  0  0  0  0  0  0  0  0  0
   -6.5530   20.9080  -32.5680 C   0  0  0  0  0  0  0  0  0  0  0  0
   -5.9493   20.0713  -32.9494 H   0  0  0  0  0  0  0  0  0  0  0  0
  1  2  1  0
  2  3  2  0
  3  4  1  0
  3  5  1  0
  5  6  1  0
  5  7  2  0
  7  8  1  0
  8  9  1  0
  8 10  1  0
  8 11  1  0
 11 12  2  0
 12 13  1  0
 13 14  2  0
 14 15  1  0
 15 16  2  0
 16 17  1  0
 16 18  1  0
 18 19  1  0
 18 20  2  0
 20 21  1  0
 20 22  1  0
 22 23  1  0
 23 24  1  0
 23 25  1  0
 23 26  1  0
 22 27  2  0
 27 28  1  0
 28 29  1  0
 28 30  1  0
 28 31  1  0
 13 32  1  0
 32 33  1  0
 33 34  1  0
 33 35  1  0
 33 36  1  0
 32 37  1  0
  7 38  1  0
 38 39  1  0
 38 40  2  0
 40 41  1  0
 40  2  1  0
 37 11  1  0
 27 15  1  0
M  CHG  1  37  -1
M  END
>  <UniqueID>  (7) 
5

>  <SMILES>  (7) 
Cc1cccc(/N=c2/nc(Cc3ccccc3)[n-]n2C)c1C

>  <Energy>  (7) 
87.48851235287896

>  <Genealogy>  (7) 
Cc1cccc(N=c2nc(Cc3ccccc3)[n-]n2C)c1C (protonated)
Cc1cccc(/N=c2/nc(Cc3ccccc3)[n-]n2C)c1C (cis-trans isomerization)
Cc1cccc(/N=c2/nc(Cc3ccccc3)[n-]n2C)c1C (3D coordinates assigned)
Cc1cccc(/N=c2/nc(Cc3ccccc3)[n-]n2C)c1C (optimized conformer: 87.48851235287896 kcal/mol)

>  <smiles>  (7) 
Cc1cccc(N=c2nc(Cc3ccccc3)[nH]n2C)c1C

>  <score_type>  (7) 
oracle

>  <origin>  (7) 
adgpu

>  <m_score__min__energy>  (7) 
-9.0899999999999999

>  <m_primary>  (7) 
energy

$$$$
7:0
     RDKit          3D

 52 56  0  0  0  0  0  0  0  0999 V2000
   -1.9720   24.5410  -29.3430 O   0  0  0  0  0  0  0  0  0  0  0  0
   -3.0290   24.3010  -29.9860 C   0  0  0  0  0  0  0  0  0  0  0  0
   -3.9290   25.3010  -30.1720 N   0  0  0  0  0  0  0  0  0  0  0  0
   -5.0810   25.1120  -30.8650 C   0  0  0  0  0  0  0  0  0  0  0  0
   -5.3770   23.8620  -31.4010 C   0  0  0  0  0  0  0  0  0  0  0  0
   -4.4740   22.8010  -31.2370 C   0  0  0  0  0  0  0  0  0  0  0  0
   -4.8280   21.4880  -31.7030 N   0  0  0  0  0  0  0  0  0  0  0  0
   -5.6620   21.2770  -32.8860 C   0  0  0  0  0  0  0  0  0  0  0  0
   -6.8620   20.4420  -32.5250 C   0  0  0  0  0  0  0  0  0  0  0  0
   -7.9960   21.0720  -31.9830 C   0  0  0  0  0  0  0  0  0  0  0  0
   -9.1120   20.3220  -31.6060 C   0  0  0  0  0  0  0  0  0  0  0  0
   -9.1040   18.9340  -31.7540 C   0  0  0  0  0  0  0  0  0  0  0  0
   -7.9780   18.2930  -32.2740 C   0  0  0  0  0  0  0  0  0  0  0  0
   -6.8520   19.0350  -32.6550 C   0  0  0  0  0  0  0  0  0  0  0  0
   -5.3300   18.0800  -33.3330 Br  0  0  0  0  0  0  0  0  0  0  0  0
   -3.2720   23.0180  -30.5220 C   0  0  0  0  0  0  0  0  0  0  0  0
   -2.2700   21.9390  -30.3570 C   0  0  0  0  0  0  0  0  0  0  0  0
   -2.1890   20.8690  -31.1950 N   0  0  0  0  0  0  0  0  0  0  0  0
   -1.1690   20.1610  -30.6770 C   0  0  0  0  0  0  0  0  0  0  0  0
   -0.6450   18.9600  -31.1410 C   0  0  0  0  0  0  0  0  0  0  0  0
    0.4320   18.3970  -30.4310 C   0  0  0  0  0  0  0  0  0  0  0  0
    0.9600   19.0410  -29.2800 C   0  0  0  0  0  0  0  0  0  0  0  0
    2.0600   18.4490  -28.5640 N   0  0  0  0  0  0  0  0  0  0  0  0
    3.4220   18.9600  -28.7440 C   0  0  0  0  0  0  0  0  0  0  0  0
    4.2410   18.7000  -27.4760 C   0  0  0  0  0  0  0  0  0  0  0  0
    4.1690   17.3370  -27.0990 O   0  0  0  0  0  0  0  0  0  0  0  0
    2.8400   17.0080  -26.7420 C   0  0  0  0  0  0  0  0  0  0  0  0
    1.9090   17.1250  -27.9530 C   0  0  0  0  0  0  0  0  0  0  0  0
    0.3890   20.2590  -28.8390 C   0  0  0  0  0  0  0  0  0  0  0  0
   -0.6720   20.7820  -29.5720 C   0  0  0  0  0  0  0  0  0  0  0  0
   -1.3580   21.9080  -29.3520 N   0  0  0  0  0  0  0  0  0  0  0  0
   -5.7819   25.9484  -31.0032 H   0  0  0  0  0  0  0  0  0  0  0  0
   -6.3164   23.7065  -31.9517 H   0  0  0  0  0  0  0  0  0  0  0  0
   -4.2910   20.6710  -31.3350 H   0  0  0  0  0  0  0  0  0  0  0  0
   -5.9980   22.2501  -33.2736 H   0  0  0  0  0  0  0  0  0  0  0  0
   -5.0745   20.7534  -33.6545 H   0  0  0  0  0  0  0  0  0  0  0  0
   -8.0042   22.1645  -31.8549 H   0  0  0  0  0  0  0  0  0  0  0  0
   -9.9981   20.8254  -31.1921 H   0  0  0  0  0  0  0  0  0  0  0  0
   -9.9854   18.3449  -31.4607 H   0  0  0  0  0  0  0  0  0  0  0  0
   -7.9747   17.1987  -32.3853 H   0  0  0  0  0  0  0  0  0  0  0  0
   -1.0581   18.4663  -32.0330 H   0  0  0  0  0  0  0  0  0  0  0  0
    0.8701   17.4471  -30.7713 H   0  0  0  0  0  0  0  0  0  0  0  0
    3.8947   18.4496  -29.5960 H   0  0  0  0  0  0  0  0  0  0  0  0
    3.3832   20.0421  -28.9379 H   0  0  0  0  0  0  0  0  0  0  0  0
    5.2914   18.9665  -27.6647 H   0  0  0  0  0  0  0  0  0  0  0  0
    3.8299   19.3127  -26.6601 H   0  0  0  0  0  0  0  0  0  0  0  0
    2.8128   15.9753  -26.3641 H   0  0  0  0  0  0  0  0  0  0  0  0
    2.4990   17.7080  -25.9650 H   0  0  0  0  0  0  0  0  0  0  0  0
    2.1678   16.3503  -28.6898 H   0  0  0  0  0  0  0  0  0  0  0  0
    0.8671   16.9901  -27.6269 H   0  0  0  0  0  0  0  0  0  0  0  0
    0.7715   20.7752  -27.9461 H   0  0  0  0  0  0  0  0  0  0  0  0
   -1.2340   22.5860  -28.5660 H   0  0  0  0  0  0  0  0  0  0  0  0
  1  2  2  0
  2  3  1  0
  3  4  1  0
  4  5  2  0
  5  6  1  0
  6  7  1  0
  7  8  1  0
  8  9  1  0
  9 10  2  0
 10 11  1  0
 11 12  2  0
 12 13  1  0
 13 14  2  0
 14 15  1  0
  6 16  2  0
 16 17  1  0
 17 18  2  0
 18 19  1  0
 19 20  2  0
 20 21  1  0
 21 22  2  0
 22 23  1  0
 23 24  1  0
 24 25  1  0
 25 26  1  0
 26 27  1  0
 27 28  1  0
 22 29  1  0
 29 30  2  0
 30 31  1  0
 16  2  1  0
 31 17  1  0
 14  9  1  0
 30 19  1  0
 28 23  1  0
  4 32  1  0
  5 33  1  0
  7 34  1  0
  8 35  1  0
  8 36  1  0
 10 37  1  0
 11 38  1  0
 12 39  1  0
 13 40  1  0
 20 41  1  0
 21 42  1  0
 24 43  1  0
 24 44  1  0
 25 45  1  0
 25 46  1  0
 27 47  1  0
 27 48  1  0
 28 49  1  0
 28 50  1  0
 29 51  1  0
 31 52  1  0
M  CHG  1   3  -1
M  END
>  <UniqueID>  (8) 
6

>  <SMILES>  (8) 
O=c1[n-]ccc(NCc2ccccc2Br)c1-c1nc2ccc(N3CCOCC3)cc2[nH]1

>  <Energy>  (8) 
108.54245630690887

>  <Genealogy>  (8) 
O=c1[n-]ccc(NCc2ccccc2Br)c1-c1nc2ccc(N3CCOCC3)cc2[nH]1 (protonated)
O=c1[n-]ccc(NCc2ccccc2Br)c1-c1nc2ccc(N3CCOCC3)cc2[nH]1 (3D coordinates assigned)
O=c1[n-]ccc(NCc2ccccc2Br)c1-c1nc2ccc(N3CCOCC3)cc2[nH]1 (nonaromatic ring conformer: 108.54245630690887 kcal/mol)

>  <smiles>  (8) 
O=c1[nH]ccc(NCc2ccccc2Br)c1-c1nc2ccc(N3CCOCC3)cc2[nH]1

>  <score_type>  (8) 
oracle

>  <origin>  (8) 
adgpu

>  <m_score__min__energy>  (8) 
-10.880000000000001

>  <m_primary>  (8) 
energy

$$$$
8:0
     RDKit          3D

 30 32  0  0  0  0  0  0  0  0999 V2000
   -9.1380   21.4320  -32.2700 C   0  0  0  0  0  0  0  0  0  0  0  0
   -7.8120   21.7750  -31.6570 C   0  0  0  0  0  0  0  0  0  0  0  0
   -7.7470   22.6370  -30.5530 C   0  0  0  0  0  0  0  0  0  0  0  0
   -6.5160   22.9290  -29.9570 C   0  0  0  0  0  0  0  0  0  0  0  0
   -5.3320   22.3580  -30.4550 C   0  0  0  0  0  0  0  0  0  0  0  0
   -4.0610   22.6320  -29.8340 N   0  0  0  0  0  0  0  0  0  0  0  0
   -3.4640   21.6390  -29.1480 N   0  0  0  0  0  0  0  0  0  0  0  0
   -2.2620   21.7970  -28.5230 C   0  0  0  0  0  0  0  0  0  0  0  0
   -1.6540   23.0380  -28.6150 C   0  0  0  0  0  0  0  0  0  0  0  0
   -0.4670   23.5560  -28.1430 C   0  0  0  0  0  0  0  0  0  0  0  0
    0.5790   22.8320  -27.3620 C   0  0  0  0  0  0  0  0  0  0  0  0
   -0.3530   24.8360  -28.5750 N   0  0  0  0  0  0  0  0  0  0  0  0
   -1.4380   25.1300  -29.2830 N   0  0  0  0  0  0  0  0  0  0  0  0
   -2.2320   24.0460  -29.3130 C   0  0  0  0  0  0  0  0  0  0  0  0
   -3.4530   23.8630  -29.9500 C   0  0  0  0  0  0  0  0  0  0  0  0
   -3.9650   24.7950  -30.6310 O   0  0  0  0  0  0  0  0  0  0  0  0
   -5.4070   21.4670  -31.5370 C   0  0  0  0  0  0  0  0  0  0  0  0
   -6.6370   21.1770  -32.1340 C   0  0  0  0  0  0  0  0  0  0  0  0
   -9.8722   21.2421  -31.4732 H   0  0  0  0  0  0  0  0  0  0  0  0
   -9.4819   22.2708  -32.8931 H   0  0  0  0  0  0  0  0  0  0  0  0
   -9.0320   20.5317  -32.8931 H   0  0  0  0  0  0  0  0  0  0  0  0
   -8.6686   23.0857  -30.1538 H   0  0  0  0  0  0  0  0  0  0  0  0
   -6.4741   23.6093  -29.0936 H   0  0  0  0  0  0  0  0  0  0  0  0
   -1.7938   20.9710  -27.9676 H   0  0  0  0  0  0  0  0  0  0  0  0
    0.3898   22.9630  -26.2863 H   0  0  0  0  0  0  0  0  0  0  0  0
    0.5479   21.7613  -27.6121 H   0  0  0  0  0  0  0  0  0  0  0  0
    1.5702   23.2383  -27.6121 H   0  0  0  0  0  0  0  0  0  0  0  0
   -1.6170   26.0510  -29.7410 H   0  0  0  0  0  0  0  0  0  0  0  0
   -4.4904   20.9932  -31.9181 H   0  0  0  0  0  0  0  0  0  0  0  0
   -6.6834   20.4770  -32.9812 H   0  0  0  0  0  0  0  0  0  0  0  0
  1  2  1  0
  2  3  2  0
  3  4  1  0
  4  5  2  0
  5  6  1  0
  6  7  1  0
  7  8  2  0
  8  9  1  0
  9 10  1  0
 10 11  1  0
 10 12  2  0
 12 13  1  0
 13 14  1  0
 14 15  1  0
 15 16  2  0
  5 17  1  0
 17 18  2  0
 18  2  1  0
 15  6  1  0
 14  9  2  0
  1 19  1  0
  1 20  1  0
  1 21  1  0
  3 22  1  0
  4 23  1  0
  8 24  1  0
 11 25  1  0
 11 26  1  0
 11 27  1  0
 13 28  1  0
 17 29  1  0
 18 30  1  0
M  END
>  <UniqueID>  (9) 
7

>  <SMILES>  (9) 
Cc1ccc(-n2ncc3c(C)n[nH]c3c2=O)cc1

>  <Energy>  (9) 
78.80227671144407

>  <Genealogy>  (9) 
Cc1ccc(-n2ncc3c(C)n[nH]c3c2=O)cc1 (3D coordinates assigned)
Cc1ccc(-n2ncc3c(C)n[nH]c3c2=O)cc1 (optimized conformer: 78.80227671144407 kcal/mol)

>  <smiles>  (9) 
Cc1ccc(-n2ncc3c(C)n[nH]c3c2=O)cc1

>  <score_type>  (9) 
oracle

>  <origin>  (9) 
adgpu

>  <m_score__min__energy>  (9) 
-7.5099999999999998

>  <m_primary>  (9) 
energy

$$$$
9:0
     RDKit          3D

 53 55  0  0  1  0  0  0  0  0999 V2000
   -9.3440   21.5600  -30.8570 C   0  0  0  0  0  0  0  0  0  0  0  0
   -9.0950   20.4140  -31.7790 C   0  0  0  0  0  0  0  0  0  0  0  0
   -7.9260   20.6230  -32.6740 C   0  0  0  0  0  0  0  0  0  0  0  0
   -6.6230   21.0440  -32.1400 C   0  0  2  0  0  0  0  0  0  0  0  0
   -6.3890   22.4670  -32.1910 N   0  0  0  0  0  0  0  0  0  0  0  0
   -5.7750   23.1880  -31.3600 C   0  0  0  0  0  0  0  0  0  0  0  0
   -5.2300   22.6160  -30.2360 C   0  0  0  0  0  0  0  0  0  0  0  0
   -4.5700   23.4440  -29.3600 C   0  0  0  0  0  0  0  0  0  0  0  0
   -3.9790   22.9310  -28.1770 N   0  0  0  0  0  0  0  0  0  0  0  0
   -2.5590   22.8400  -27.9800 C   0  0  0  0  0  0  0  0  0  0  0  0
   -2.0650   23.8570  -26.9600 C   0  0  0  0  0  0  0  0  0  0  0  0
   -2.3580   25.2480  -27.4520 C   0  0  0  0  0  0  0  0  0  0  0  0
   -1.7720   25.4890  -28.6930 O   0  0  0  0  0  0  0  0  0  0  0  0
   -0.9760   24.4140  -29.0990 C   0  0  0  0  0  0  0  0  0  0  0  0
   -1.7880   23.1290  -29.2520 C   0  0  0  0  0  0  0  0  0  0  0  0
   -4.4880   24.7560  -29.6370 N   0  0  0  0  0  0  0  0  0  0  0  0
   -5.0120   25.3290  -30.7280 C   0  0  0  0  0  0  0  0  0  0  0  0
   -5.6620   24.5220  -31.5920 N   0  0  0  0  0  0  0  0  0  0  0  0
   -5.4090   20.3760  -32.6300 C   0  0  0  0  0  0  0  0  0  0  0  0
   -4.3260   21.1840  -33.0160 C   0  0  0  0  0  0  0  0  0  0  0  0
   -3.1470   20.7000  -33.4910 C   0  0  0  0  0  0  0  0  0  0  0  0
   -2.9930   19.3430  -33.6040 C   0  0  0  0  0  0  0  0  0  0  0  0
   -4.0340   18.5320  -33.2350 C   0  0  0  0  0  0  0  0  0  0  0  0
   -5.2560   19.0010  -32.7450 C   0  0  0  0  0  0  0  0  0  0  0  0
   -6.2730   18.0140  -32.4130 C   0  0  0  0  0  0  0  0  0  0  0  0
   -7.1530   17.6770  -33.4210 F   0  0  0  0  0  0  0  0  0  0  0  0
   -5.6250   16.7850  -32.1660 F   0  0  0  0  0  0  0  0  0  0  0  0
   -6.9280   18.2200  -31.2110 F   0  0  0  0  0  0  0  0  0  0  0  0
   -9.2691   21.2153  -29.8151 H   0  0  0  0  0  0  0  0  0  0  0  0
   -8.5956   22.3456  -31.0380 H   0  0  0  0  0  0  0  0  0  0  0  0
  -10.3509   21.9642  -31.0380 H   0  0  0  0  0  0  0  0  0  0  0  0
   -8.9156   19.5124  -31.1749 H   0  0  0  0  0  0  0  0  0  0  0  0
   -9.9828   20.3129  -32.4205 H   0  0  0  0  0  0  0  0  0  0  0  0
   -7.7563   19.6681  -33.1930 H   0  0  0  0  0  0  0  0  0  0  0  0
   -8.2336   21.4951  -33.2697 H   0  0  0  0  0  0  0  0  0  0  0  0
   -6.7666   20.6976  -31.1059 H   0  0  0  0  0  0  0  0  0  0  0  0
   -5.3186   21.5364  -30.0446 H   0  0  0  0  0  0  0  0  0  0  0  0
   -4.5940   22.5980  -27.3940 H   0  0  0  0  0  0  0  0  0  0  0  0
   -2.3854   21.8093  -27.6371 H   0  0  0  0  0  0  0  0  0  0  0  0
   -2.5778   23.6923  -26.0009 H   0  0  0  0  0  0  0  0  0  0  0  0
   -0.9800   23.7391  -26.8224 H   0  0  0  0  0  0  0  0  0  0  0  0
   -3.4472   25.3725  -27.5417 H   0  0  0  0  0  0  0  0  0  0  0  0
   -1.9381   25.9632  -26.7294 H   0  0  0  0  0  0  0  0  0  0  0  0
   -0.5134   24.6596  -30.0663 H   0  0  0  0  0  0  0  0  0  0  0  0
   -0.2124   24.2444  -28.3256 H   0  0  0  0  0  0  0  0  0  0  0  0
   -2.4950   23.2437  -30.0868 H   0  0  0  0  0  0  0  0  0  0  0  0
   -1.1013   22.2933  -29.4521 H   0  0  0  0  0  0  0  0  0  0  0  0
   -3.9770   25.3600  -28.9470 H   0  0  0  0  0  0  0  0  0  0  0  0
   -4.9167   26.4094  -30.9116 H   0  0  0  0  0  0  0  0  0  0  0  0
   -4.4387   22.2747  -32.9286 H   0  0  0  0  0  0  0  0  0  0  0  0
   -2.3343   21.3833  -33.7784 H   0  0  0  0  0  0  0  0  0  0  0  0
   -2.0537   18.9139  -33.9829 H   0  0  0  0  0  0  0  0  0  0  0  0
   -3.8996   17.4444  -33.3303 H   0  0  0  0  0  0  0  0  0  0  0  0
  1  2  1  0
  2  3  1  0
  3  4  1  0
  4  5  1  0
  5  6  2  0
  6  7  1  0
  7  8  2  0
  8  9  1  0
  9 10  1  0
 10 11  1  0
 11 12  1  0
 12 13  1  0
 13 14  1  0
 14 15  1  0
  8 16  1  0
 16 17  1  0
 17 18  2  0
  4 19  1  0
 19 20  2  0
 20 21  1  0
 21 22  2  0
 22 23  1  0
 23 24  2  0
 24 25  1  0
 25 26  1  0
 25 27  1  0
 25 28  1  0
 18  6  1  0
 24 19  1  0
 15 10  1  0
  1 29  1  0
  1 30  1  0
  1 31  1  0
  2 32  1  0
  2 33  1  0
  3 34  1  0
  3 35  1  0
  4 36  1  1
  7 37  1  0
  9 38  1  0
 10 39  1  0
 11 40  1  0
 11 41  1  0
 12 42  1  0
 12 43  1  0
 14 44  1  0
 14 45  1  0
 15 46  1  0
 15 47  1  0
 16 48  1  0
 17 49  1  0
 20 50  1  0
 21 51  1  0
 22 52  1  0
 23 53  1  0
M  END
>  <smiles>  (10) 
CCCC(N=c1cc(NC2CCOCC2)[nH]cn1)c1ccccc1C(F)(F)F

>  <score_type>  (10) 
oracle

>  <origin>  (10) 
adgpu

>  <m_score__min__energy>  (10) 
-8.9600000000000009

>  <m_primary>  (10) 
energy

$$$$
10:0
     RDKit          3D

 44 46  0  0  0  0  0  0  0  0999 V2000
   -4.6700   18.5060  -34.2290 C   0  0  0  0  0  0  0  0  0  0  0  0
   -5.0820   19.6650  -33.3160 C   0  0  2  0  0  0  0  0  0  0  0  0
   -4.1810   19.7470  -32.1680 N   0  0  0  0  0  0  0  0  0  0  0  0
   -3.2900   20.8440  -31.9300 C   0  0  0  0  0  0  0  0  0  0  0  0
   -2.0420   20.6730  -31.9940 O   0  0  0  0  0  0  0  0  0  0  0  0
   -3.8430   22.1650  -31.5790 C   0  0  0  0  0  0  0  0  0  0  0  0
   -5.1200   22.4880  -32.0670 C   0  0  0  0  0  0  0  0  0  0  0  0
   -5.7120   23.7110  -31.7550 C   0  0  0  0  0  0  0  0  0  0  0  0
   -5.0340   24.6310  -30.9560 C   0  0  0  0  0  0  0  0  0  0  0  0
   -3.7530   24.3430  -30.4770 C   0  0  0  0  0  0  0  0  0  0  0  0
   -3.1010   25.2980  -29.7020 O   0  0  0  0  0  0  0  0  0  0  0  0
   -3.1340   23.1080  -30.7820 C   0  0  0  0  0  0  0  0  0  0  0  0
   -1.6910   22.8770  -30.3680 C   0  0  0  0  0  0  0  0  0  0  0  0
   -1.6100   21.8300  -29.2840 C   0  0  0  0  0  0  0  0  0  0  0  0
   -0.4400   21.0660  -29.1300 C   0  0  0  0  0  0  0  0  0  0  0  0
   -0.3750   20.0670  -28.1530 C   0  0  0  0  0  0  0  0  0  0  0  0
   -1.4730   19.8190  -27.3280 C   0  0  0  0  0  0  0  0  0  0  0  0
   -2.6380   20.5740  -27.4740 C   0  0  0  0  0  0  0  0  0  0  0  0
   -2.7080   21.5760  -28.4470 C   0  0  0  0  0  0  0  0  0  0  0  0
   -6.5060   19.4810  -32.8350 C   0  0  0  0  0  0  0  0  0  0  0  0
   -6.8600   18.3340  -32.1000 C   0  0  0  0  0  0  0  0  0  0  0  0
   -8.1670   18.1720  -31.6290 C   0  0  0  0  0  0  0  0  0  0  0  0
   -9.1330   19.1490  -31.8870 C   0  0  0  0  0  0  0  0  0  0  0  0
   -8.7920   20.2910  -32.6180 C   0  0  0  0  0  0  0  0  0  0  0  0
   -7.4820   20.4650  -33.0810 C   0  0  0  0  0  0  0  0  0  0  0  0
   -4.3644   17.6462  -33.6148 H   0  0  0  0  0  0  0  0  0  0  0  0
   -5.5212   18.2190  -34.8639 H   0  0  0  0  0  0  0  0  0  0  0  0
   -3.8286   18.8206  -34.8639 H   0  0  0  0  0  0  0  0  0  0  0  0
   -5.0194   20.5997  -33.8926 H   0  0  0  0  0  0  0  0  0  0  0  0
   -5.6583   21.7687  -32.7017 H   0  0  0  0  0  0  0  0  0  0  0  0
   -6.7145   23.9504  -32.1393 H   0  0  0  0  0  0  0  0  0  0  0  0
   -5.5103   25.5892  -30.7012 H   0  0  0  0  0  0  0  0  0  0  0  0
   -1.1142   22.5384  -31.2413 H   0  0  0  0  0  0  0  0  0  0  0  0
   -1.2779   23.8203  -29.9813 H   0  0  0  0  0  0  0  0  0  0  0  0
    0.4272   21.2544  -29.7799 H   0  0  0  0  0  0  0  0  0  0  0  0
    0.5445   19.4750  -28.0346 H   0  0  0  0  0  0  0  0  0  0  0  0
   -1.4205   19.0296  -26.5637 H   0  0  0  0  0  0  0  0  0  0  0  0
   -3.5028   20.3804  -26.8223 H   0  0  0  0  0  0  0  0  0  0  0  0
   -3.6284   22.1683  -28.5571 H   0  0  0  0  0  0  0  0  0  0  0  0
   -6.1048   17.5609  -31.8949 H   0  0  0  0  0  0  0  0  0  0  0  0
   -8.4355   17.2735  -31.0541 H   0  0  0  0  0  0  0  0  0  0  0  0
  -10.1602   19.0194  -31.5153 H   0  0  0  0  0  0  0  0  0  0  0  0
   -9.5547   21.0547  -32.8299 H   0  0  0  0  0  0  0  0  0  0  0  0
   -7.2145   21.3743  -33.6392 H   0  0  0  0  0  0  0  0  0  0  0  0
  1  2  1  0
  2  3  1  0
  3  4  1  0
  4  5  2  0
  4  6  1  0
  6  7  2  0
  7  8  1  0
  8  9  2  0
  9 10  1  0
 10 11  1  0
 10 12  2  0
 12 13  1  0
 13 14  1  0
 14 15  2  0
 15 16  1  0
 16 17  2  0
 17 18  1  0
 18 19  2  0
  2 20  1  0
 20 21  2  0
 21 22  1  0
 22 23  2  0
 23 24  1  0
 24 25  2  0
 12  6  1  0
 19 14  1  0
 25 20  1  0
  1 26  1  0
  1 27  1  0
  1 28  1  0
  2 29  1  6
  7 30  1  0
  8 31  1  0
  9 32  1  0
 13 33  1  0
 13 34  1  0
 15 35  1  0
 16 36  1  0
 17 37  1  0
 18 38  1  0
 19 39  1  0
 21 40  1  0
 22 41  1  0
 23 42  1  0
 24 43  1  0
 25 44  1  0
M  CHG  2   3  -1  11  -1
M  END
>  <UniqueID>  (11) 
8

>  <SMILES>  (11) 
C[C@H]([N-]C(=O)c1cccc([O-])c1Cc1ccccc1)c1ccccc1

>  <Energy>  (11) 
49.029354493482145

>  <Genealogy>  (11) 
CC([N-]C(=O)c1cccc([O-])c1Cc1ccccc1)c1ccccc1 (protonated)
C[C@H]([N-]C(=O)c1cccc([O-])c1Cc1ccccc1)c1ccccc1 (chirality)
C[C@H]([N-]C(=O)c1cccc([O-])c1Cc1ccccc1)c1ccccc1 (3D coordinates assigned)
C[C@H]([N-]C(=O)c1cccc([O-])c1Cc1ccccc1)c1ccccc1 (optimized conformer: 49.029354493482145 kcal/mol)

>  <smiles>  (11) 
CC(NC(=O)c1cccc(O)c1Cc1ccccc1)c1ccccc1

>  <score_type>  (11) 
oracle

>  <origin>  (11) 
adgpu

>  <m_score__min__energy>  (11) 
-11.630000000000001

>  <m_primary>  (11) 
energy

$$$$
11:0
     RDKit          3D

 25 26  0  0  0  0  0  0  0  0999 V2000
   -6.4800   17.4550  -31.9910 C   0  0  0  0  0  0  0  0  0  0  0  0
   -6.4820   17.3430  -33.5100 C   0  0  0  0  0  0  0  0  0  0  0  0
   -5.3700   18.5830  -34.2590 S   0  0  0  0  0  0  0  0  0  0  0  0
   -6.1090   19.9790  -33.4150 C   0  0  0  0  0  0  0  0  0  0  0  0
   -5.4060   20.8930  -32.7180 N   0  0  0  0  0  0  0  0  0  0  0  0
   -6.3830   21.7190  -32.2770 C   0  0  0  0  0  0  0  0  0  0  0  0
   -6.1330   22.9170  -31.4490 C   0  0  0  0  0  0  0  0  0  0  0  0
   -7.2040   23.6230  -30.8710 C   0  0  0  0  0  0  0  0  0  0  0  0
   -6.9640   24.7560  -30.0880 C   0  0  0  0  0  0  0  0  0  0  0  0
   -5.6550   25.1970  -29.8750 C   0  0  0  0  0  0  0  0  0  0  0  0
   -4.5840   24.5040  -30.4450 C   0  0  0  0  0  0  0  0  0  0  0  0
   -3.3140   24.9340  -30.2380 F   0  0  0  0  0  0  0  0  0  0  0  0
   -4.8190   23.3700  -31.2280 C   0  0  0  0  0  0  0  0  0  0  0  0
   -7.6110   21.3270  -32.6800 N   0  0  0  0  0  0  0  0  0  0  0  0
   -7.4260   20.2330  -33.3920 N   0  0  0  0  0  0  0  0  0  0  0  0
   -6.4980   16.4478  -31.5491 H   0  0  0  0  0  0  0  0  0  0  0  0
   -5.5723   17.9830  -31.6635 H   0  0  0  0  0  0  0  0  0  0  0  0
   -7.3683   18.0151  -31.6635 H   0  0  0  0  0  0  0  0  0  0  0  0
   -6.1436   16.3364  -33.7969 H   0  0  0  0  0  0  0  0  0  0  0  0
   -7.5043   17.5240  -33.8735 H   0  0  0  0  0  0  0  0  0  0  0  0
   -8.2365   23.2814  -31.0362 H   0  0  0  0  0  0  0  0  0  0  0  0
   -7.8070   25.3014  -29.6387 H   0  0  0  0  0  0  0  0  0  0  0  0
   -5.4681   26.0890  -29.2591 H   0  0  0  0  0  0  0  0  0  0  0  0
   -3.9718   22.8285  -31.6741 H   0  0  0  0  0  0  0  0  0  0  0  0
   -8.1840   19.6800  -33.8500 H   0  0  0  0  0  0  0  0  0  0  0  0
  1  2  1  0
  2  3  1  0
  3  4  1  0
  4  5  2  0
  5  6  1  0
  6  7  1  0
  7  8  2  0
  8  9  1  0
  9 10  2  0
 10 11  1  0
 11 12  1  0
 11 13  2  0
  6 14  2  0
 14 15  1  0
 15  4  1  0
 13  7  1  0
  1 16  1  0
  1 17  1  0
  1 18  1  0
  2 19  1  0
  2 20  1  0
  8 21  1  0
  9 22  1  0
 10 23  1  0
 13 24  1  0
 15 25  1  0
M  END
>  <UniqueID>  (12) 
9

>  <SMILES>  (12) 
CCSc1nc(-c2cccc(F)c2)n[nH]1

>  <Energy>  (12) 
52.22873492748505

>  <Genealogy>  (12) 
CCSc1nc(-c2cccc(F)c2)n[nH]1 (3D coordinates assigned)
CCSc1nc(-c2cccc(F)c2)n[nH]1 (optimized conformer: 52.22873492748505 kcal/mol)

>  <smiles>  (12) 
CCSc1nc(-c2cccc(F)c2)n[nH]1

>  <score_type>  (12) 
oracle

>  <origin>  (12) 
adgpu

>  <m_score__min__energy>  (12) 
-6.54

>  <m_primary>  (12) 
energy

$$$$
12:0
     RDKit          3D

 42 45  0  0  0  0  0  0  0  0999 V2000
   -6.1186   25.8524  -28.9231 H   0  0  0  0  0  0  0  0  0  0  0  0
   -5.8050   25.0710  -29.6310 C   0  0  0  0  0  0  0  0  0  0  0  0
   -6.4760   24.9210  -30.8480 C   0  0  0  0  0  0  0  0  0  0  0  0
   -7.3213   25.5803  -31.0947 H   0  0  0  0  0  0  0  0  0  0  0  0
   -6.0730   23.9330  -31.7520 C   0  0  0  0  0  0  0  0  0  0  0  0
   -6.6111   23.8078  -32.7032 H   0  0  0  0  0  0  0  0  0  0  0  0
   -4.9860   23.1020  -31.4500 C   0  0  0  0  0  0  0  0  0  0  0  0
   -4.6060   22.0830  -32.3790 N   0  0  0  0  0  0  0  0  0  0  0  0
   -5.3250   21.0550  -32.7310 C   0  0  0  0  0  0  0  0  0  0  0  0
   -6.6590   20.6610  -32.2310 C   0  0  0  0  0  0  0  0  0  0  0  0
   -7.4280   21.1430  -31.1610 C   0  0  0  0  0  0  0  0  0  0  0  0
   -7.0664   21.9771  -30.5417 H   0  0  0  0  0  0  0  0  0  0  0  0
   -8.6680   20.5400  -30.8960 C   0  0  0  0  0  0  0  0  0  0  0  0
   -9.2931   20.9160  -30.0727 H   0  0  0  0  0  0  0  0  0  0  0  0
   -9.1170   19.4580  -31.6760 C   0  0  0  0  0  0  0  0  0  0  0  0
  -10.0942   18.9987  -31.4661 H   0  0  0  0  0  0  0  0  0  0  0  0
   -8.3220   18.9640  -32.7200 C   0  0  0  0  0  0  0  0  0  0  0  0
   -8.6566   18.1100  -33.3273 H   0  0  0  0  0  0  0  0  0  0  0  0
   -7.0960   19.5820  -32.9700 C   0  0  0  0  0  0  0  0  0  0  0  0
   -6.0810   19.2140  -33.9440 C   0  0  0  0  0  0  0  0  0  0  0  0
   -6.1920   18.2750  -34.7760 O   0  0  0  0  0  0  0  0  0  0  0  0
   -4.8850   20.1090  -33.8180 C   0  0  2  0  0  0  0  0  0  0  0  0
   -4.6023   20.6090  -34.7561 H   0  0  0  0  0  0  0  0  0  0  0  0
   -3.6460   19.3360  -33.4200 C   0  0  0  0  0  0  0  0  0  0  0  0
   -3.6250   17.9290  -33.4530 C   0  0  0  0  0  0  0  0  0  0  0  0
   -4.5197   17.3767  -33.7761 H   0  0  0  0  0  0  0  0  0  0  0  0
   -2.4750   17.2290  -33.0780 C   0  0  0  0  0  0  0  0  0  0  0  0
   -2.4713   16.1294  -33.1084 H   0  0  0  0  0  0  0  0  0  0  0  0
   -1.3280   17.9160  -32.6640 C   0  0  0  0  0  0  0  0  0  0  0  0
   -0.2000   17.1670  -32.2980 O   0  0  0  0  0  0  0  0  0  0  0  0
    0.2990   17.0650  -30.9680 C   0  0  0  0  0  0  0  0  0  0  0  0
   -0.5214   17.2327  -30.2547 H   0  0  0  0  0  0  0  0  0  0  0  0
    0.7220   16.0618  -30.8110 H   0  0  0  0  0  0  0  0  0  0  0  0
    1.0818   17.8217  -30.8110 H   0  0  0  0  0  0  0  0  0  0  0  0
   -1.3450   19.3230  -32.6300 C   0  0  0  0  0  0  0  0  0  0  0  0
   -0.4492   19.8736  -32.3069 H   0  0  0  0  0  0  0  0  0  0  0  0
   -2.4950   20.0240  -33.0050 C   0  0  0  0  0  0  0  0  0  0  0  0
   -2.4979   21.1236  -32.9746 H   0  0  0  0  0  0  0  0  0  0  0  0
   -4.3270   23.2380  -30.2120 C   0  0  0  0  0  0  0  0  0  0  0  0
   -2.9980   22.1750  -29.7680 Cl  0  0  0  0  0  0  0  0  0  0  0  0
   -4.7360   24.2290  -29.3130 C   0  0  0  0  0  0  0  0  0  0  0  0
   -4.2139   24.3458  -28.3519 H   0  0  0  0  0  0  0  0  0  0  0  0
  1  2  1  0
  2  3  2  0
  3  4  1  0
  3  5  1  0
  5  6  1  0
  5  7  2  0
  7  8  1  0
  8  9  2  0
  9 10  1  0
 10 11  2  0
 11 12  1  0
 11 13  1  0
 13 14  1  0
 13 15  2  0
 15 16  1  0
 15 17  1  0
 17 18  1  0
 17 19  2  0
 19 20  1  0
 20 21  2  0
 20 22  1  0
 22 23  1  6
 22 24  1  0
 24 25  2  0
 25 26  1  0
 25 27  1  0
 27 28  1  0
 27 29  2  0
 29 30  1  0
 30 31  1  0
 31 32  1  0
 31 33  1  0
 31 34  1  0
 29 35  1  0
 35 36  1  0
 35 37  2  0
 37 38  1  0
  7 39  1  0
 39 40  1  0
 39 41  2  0
 41 42  1  0
 41  2  1  0
 22  9  1  0
 37 24  1  0
 19 10  1  0
M  END
>  <UniqueID>  (13) 
10

>  <SMILES>  (13) 
COc1ccc([C@H]2C(=O)c3ccccc3/C2=N\c2ccccc2Cl)cc1

>  <Energy>  (13) 
76.61761262955388

>  <Genealogy>  (13) 
COc1ccc([C@H]2C(=O)c3ccccc3C2=Nc2ccccc2Cl)cc1 (chirality)
COc1ccc([C@H]2C(=O)c3ccccc3/C2=N\c2ccccc2Cl)cc1 (cis-trans isomerization)
COc1ccc([C@H]2C(=O)c3ccccc3/C2=N\c2ccccc2Cl)cc1 (3D coordinates assigned)
COc1ccc([C@H]2C(=O)c3ccccc3/C2=N\c2ccccc2Cl)cc1 (nonaromatic ring conformer: 76.61761262955388 kcal/mol)

>  <smiles>  (13) 
COc1ccc(C2C(=O)c3ccccc3C2=Nc2ccccc2Cl)cc1

>  <score_type>  (13) 
oracle

>  <origin>  (13) 
adgpu

>  <m_score__min__energy>  (13) 
-8.4100000000000001

>  <m_primary>  (13) 
energy

$$$$
13:0
     RDKit          3D

 59 62  0  0  1  0  0  0  0  0999 V2000
   -9.5570   21.7530  -31.6160 C   0  0  0  0  0  0  0  0  0  0  0  0
   -8.3080   21.0980  -31.5670 O   0  0  0  0  0  0  0  0  0  0  0  0
   -7.2060   21.7310  -31.0110 C   0  0  0  0  0  0  0  0  0  0  0  0
   -7.3050   22.9010  -30.2910 C   0  0  0  0  0  0  0  0  0  0  0  0
   -6.1910   23.5310  -29.7350 C   0  0  0  0  0  0  0  0  0  0  0  0
   -4.9290   22.9870  -29.8970 C   0  0  0  0  0  0  0  0  0  0  0  0
   -3.7480   23.5270  -29.3890 N   0  0  0  0  0  0  0  0  0  0  0  0
   -3.2030   24.6630  -29.8600 C   0  0  0  0  0  0  0  0  0  0  0  0
   -3.8230   25.2460  -30.8130 O   0  0  0  0  0  0  0  0  0  0  0  0
   -2.0630   25.1440  -29.3430 N   0  0  0  0  0  0  0  0  0  0  0  0
   -1.3940   24.5490  -28.3430 C   0  0  0  0  0  0  0  0  0  0  0  0
   -0.2140   25.0430  -27.8040 O   0  0  0  0  0  0  0  0  0  0  0  0
   -1.9300   23.3810  -27.8370 C   0  0  0  0  0  0  0  0  0  0  0  0
   -1.3260   22.6100  -26.7690 C   0  0  0  0  0  0  0  0  0  0  0  0
   -0.6780   21.5160  -26.8990 N   0  0  0  0  0  0  0  0  0  0  0  0
   -0.5090   20.9650  -28.1900 C   0  0  0  0  0  0  0  0  0  0  0  0
   -0.6430   19.5750  -28.2810 C   0  0  0  0  0  0  0  0  0  0  0  0
   -0.5030   18.9310  -29.4920 C   0  0  0  0  0  0  0  0  0  0  0  0
   -0.2270   19.6390  -30.6390 C   0  0  0  0  0  0  0  0  0  0  0  0
   -0.0460   18.8380  -32.2100 S   0  0  0  0  0  0  0  0  0  0  0  0
    0.2240   19.9330  -33.2570 O   0  0  0  0  0  0  0  0  0  0  0  0
    1.1910   17.9930  -32.2520 O   0  0  0  0  0  0  0  0  0  0  0  0
   -1.4660   18.0710  -32.7320 N   0  0  0  0  0  0  0  0  0  0  0  0
   -2.5360   18.6590  -33.0940 C   0  0  0  0  0  0  0  0  0  0  0  0
   -3.6110   17.8710  -33.4950 C   0  0  0  0  0  0  0  0  0  0  0  0
   -4.7740   18.5350  -33.8880 C   0  0  0  0  0  0  0  0  0  0  0  0
   -5.9860   17.8050  -34.3410 C   0  0  0  0  0  0  0  0  0  0  0  0
   -4.8240   19.8810  -33.8700 N   0  0  0  0  0  0  0  0  0  0  0  0
   -3.7420   20.5910  -33.4700 C   0  0  0  0  0  0  0  0  0  0  0  0
   -3.8540   22.0690  -33.4680 C   0  0  0  0  0  0  0  0  0  0  0  0
   -2.6120   19.9920  -33.0870 N   0  0  0  0  0  0  0  0  0  0  0  0
   -0.0970   21.0150  -30.5340 C   0  0  0  0  0  0  0  0  0  0  0  0
   -0.2340   21.6850  -29.3260 C   0  0  0  0  0  0  0  0  0  0  0  0
   -3.1230   22.8800  -28.3810 C   0  0  0  0  0  0  0  0  0  0  0  0
   -3.6210   21.8090  -27.9230 O   0  0  0  0  0  0  0  0  0  0  0  0
   -4.8320   21.8020  -30.6270 C   0  0  0  0  0  0  0  0  0  0  0  0
   -5.9380   21.1840  -31.1740 C   0  0  0  0  0  0  0  0  0  0  0  0
   -9.9134   21.9399  -30.5923 H   0  0  0  0  0  0  0  0  0  0  0  0
   -9.4485   22.7102  -32.1470 H   0  0  0  0  0  0  0  0  0  0  0  0
  -10.2827   21.1194  -32.1470 H   0  0  0  0  0  0  0  0  0  0  0  0
   -8.2970   23.3547  -30.1493 H   0  0  0  0  0  0  0  0  0  0  0  0
   -6.3165   24.4638  -29.1657 H   0  0  0  0  0  0  0  0  0  0  0  0
   -1.6550   26.0290  -29.7230 H   0  0  0  0  0  0  0  0  0  0  0  0
    0.2830   24.5600  -27.0880 H   0  0  0  0  0  0  0  0  0  0  0  0
   -1.4358   23.0043  -25.7480 H   0  0  0  0  0  0  0  0  0  0  0  0
   -0.8625   18.9895  -27.3760 H   0  0  0  0  0  0  0  0  0  0  0  0
   -0.6133   17.8377  -29.5418 H   0  0  0  0  0  0  0  0  0  0  0  0
   -3.5468   16.7729  -33.5019 H   0  0  0  0  0  0  0  0  0  0  0  0
   -6.5560   17.4617  -33.4651 H   0  0  0  0  0  0  0  0  0  0  0  0
   -6.6131   18.4758  -34.9467 H   0  0  0  0  0  0  0  0  0  0  0  0
   -5.6863   16.9370  -34.9467 H   0  0  0  0  0  0  0  0  0  0  0  0
   -3.8816   22.4332  -32.4304 H   0  0  0  0  0  0  0  0  0  0  0  0
   -2.9862   22.5032  -33.9860 H   0  0  0  0  0  0  0  0  0  0  0  0
   -4.7773   22.3675  -33.9860 H   0  0  0  0  0  0  0  0  0  0  0  0
   -1.7910   20.5350  -32.7810 H   0  0  0  0  0  0  0  0  0  0  0  0
    0.1227   21.5973  -31.4410 H   0  0  0  0  0  0  0  0  0  0  0  0
   -0.1237   22.7785  -29.2796 H   0  0  0  0  0  0  0  0  0  0  0  0
   -3.8417   21.3455  -30.7712 H   0  0  0  0  0  0  0  0  0  0  0  0
   -5.8155   20.2510  -31.7437 H   0  0  0  0  0  0  0  0  0  0  0  0
  1  2  1  0
  2  3  1  0
  3  4  2  0
  4  5  1  0
  5  6  2  0
  6  7  1  0
  7  8  1  0
  8  9  2  0
  8 10  1  0
 10 11  1  0
 11 12  1  0
 11 13  2  0
 13 14  1  0
 14 15  2  0
 15 16  1  0
 16 17  2  0
 17 18  1  0
 18 19  2  0
 19 20  1  0
 20 21  2  0
 20 22  2  0
 20 23  1  0
 23 24  2  0
 24 25  1  0
 25 26  2  0
 26 27  1  0
 26 28  1  0
 28 29  2  0
 29 30  1  0
 29 31  1  0
 19 32  1  0
 32 33  2  0
 13 34  1  0
 34 35  2  0
  6 36  1  0
 36 37  2  0
 37  3  1  0
 34  7  1  0
 33 16  1  0
 31 24  1  0
  1 38  1  0
  1 39  1  0
  1 40  1  0
  4 41  1  0
  5 42  1  0
 10 43  1  0
 12 44  1  0
 14 45  1  0
 17 46  1  0
 18 47  1  0
 25 48  1  0
 27 49  1  0
 27 50  1  0
 27 51  1  0
 30 52  1  0
 30 53  1  0
 30 54  1  0
 31 55  1  0
 32 56  1  0
 33 57  1  0
 36 58  1  0
 37 59  1  0
M  END
>  <smiles>  (14) 
COc1ccc(-n2c(=O)[nH]c(O)c(C=Nc3ccc(S(=O)(=O)N=c4cc(C)nc(C)[nH]4)cc3)c2=O)cc1

>  <score_type>  (14) 
oracle

>  <origin>  (14) 
adgpu

>  <m_score__min__energy>  (14) 
-9.7899999999999991

>  <m_primary>  (14) 
energy

$$$$
14:0
     RDKit          3D

 34 36  0  0  0  0  0  0  0  0999 V2000
   -2.4060   21.5680  -31.8170 C   0  0  0  0  0  0  0  0  0  0  0  0
   -3.5860   20.8100  -32.4170 C   0  0  0  0  0  0  0  0  0  0  0  0
   -4.6180   21.7130  -32.8150 O   0  0  0  0  0  0  0  0  0  0  0  0
   -5.9170   21.7760  -32.2780 C   0  0  0  0  0  0  0  0  0  0  0  0
   -6.9560   20.9500  -32.7590 C   0  0  0  0  0  0  0  0  0  0  0  0
   -8.2350   21.0240  -32.2070 C   0  0  0  0  0  0  0  0  0  0  0  0
   -8.4990   21.9150  -31.1690 C   0  0  0  0  0  0  0  0  0  0  0  0
   -7.4840   22.7370  -30.6770 C   0  0  0  0  0  0  0  0  0  0  0  0
   -6.1870   22.6810  -31.2200 C   0  0  0  0  0  0  0  0  0  0  0  0
   -5.1360   23.5780  -30.6720 C   0  0  0  0  0  0  0  0  0  0  0  0
   -4.8190   24.7740  -31.2100 N   0  0  0  0  0  0  0  0  0  0  0  0
   -3.8700   25.2430  -30.4600 O   0  0  0  0  0  0  0  0  0  0  0  0
   -3.6020   24.3900  -29.5020 C   0  0  0  0  0  0  0  0  0  0  0  0
   -2.5730   24.5990  -28.4640 C   0  0  0  0  0  0  0  0  0  0  0  0
   -1.2110   24.6510  -28.8060 C   0  0  0  0  0  0  0  0  0  0  0  0
   -0.2420   24.8490  -27.8170 C   0  0  0  0  0  0  0  0  0  0  0  0
   -0.6240   24.9970  -26.4820 C   0  0  0  0  0  0  0  0  0  0  0  0
   -1.9760   24.9470  -26.1320 C   0  0  0  0  0  0  0  0  0  0  0  0
   -2.9480   24.7500  -27.1180 C   0  0  0  0  0  0  0  0  0  0  0  0
   -4.3850   23.2970  -29.5860 N   0  0  0  0  0  0  0  0  0  0  0  0
   -2.4656   21.5297  -30.7193 H   0  0  0  0  0  0  0  0  0  0  0  0
   -1.4653   21.1048  -32.1495 H   0  0  0  0  0  0  0  0  0  0  0  0
   -2.4362   22.6161  -32.1495 H   0  0  0  0  0  0  0  0  0  0  0  0
   -3.2424   20.2447  -33.2959 H   0  0  0  0  0  0  0  0  0  0  0  0
   -3.9897   20.1258  -31.6561 H   0  0  0  0  0  0  0  0  0  0  0  0
   -6.7552   20.2417  -33.5763 H   0  0  0  0  0  0  0  0  0  0  0  0
   -9.0371   20.3773  -32.5922 H   0  0  0  0  0  0  0  0  0  0  0  0
   -9.5089   21.9707  -30.7366 H   0  0  0  0  0  0  0  0  0  0  0  0
   -7.7003   23.4362  -29.8558 H   0  0  0  0  0  0  0  0  0  0  0  0
   -0.9055   24.5354  -29.8564 H   0  0  0  0  0  0  0  0  0  0  0  0
    0.8226   24.8882  -28.0912 H   0  0  0  0  0  0  0  0  0  0  0  0
    0.1395   25.1530  -25.7057 H   0  0  0  0  0  0  0  0  0  0  0  0
   -2.2759   25.0627  -25.0800 H   0  0  0  0  0  0  0  0  0  0  0  0
   -4.0113   24.7131  -26.8387 H   0  0  0  0  0  0  0  0  0  0  0  0
  1  2  1  0
  2  3  1  0
  3  4  1  0
  4  5  2  0
  5  6  1  0
  6  7  2  0
  7  8  1  0
  8  9  2  0
  9 10  1  0
 10 11  2  0
 11 12  1  0
 12 13  1  0
 13 14  1  0
 14 15  2  0
 15 16  1  0
 16 17  2  0
 17 18  1  0
 18 19  2  0
 13 20  2  0
  9  4  1  0
 20 10  1  0
 19 14  1  0
  1 21  1  0
  1 22  1  0
  1 23  1  0
  2 24  1  0
  2 25  1  0
  5 26  1  0
  6 27  1  0
  7 28  1  0
  8 29  1  0
 15 30  1  0
 16 31  1  0
 17 32  1  0
 18 33  1  0
 19 34  1  0
M  END
>  <UniqueID>  (15) 
11

>  <SMILES>  (15) 
CCOc1ccccc1-c1noc(-c2ccccc2)n1

>  <Energy>  (15) 
69.71719950348218

>  <Genealogy>  (15) 
CCOc1ccccc1-c1noc(-c2ccccc2)n1 (3D coordinates assigned)
CCOc1ccccc1-c1noc(-c2ccccc2)n1 (optimized conformer: 69.71719950348218 kcal/mol)

>  <smiles>  (15) 
CCOc1ccccc1-c1noc(-c2ccccc2)n1

>  <score_type>  (15) 
oracle

>  <origin>  (15) 
adgpu

>  <m_score__min__energy>  (15) 
-7.8600000000000003

>  <m_primary>  (15) 
energy

$$$$
15:0
     RDKit          3D

 39 41  0  0  0  0  0  0  0  0999 V2000
   -1.3490   23.8120  -29.1300 C   0  0  0  0  0  0  0  0  0  0  0  0
   -2.3940   24.8030  -28.6290 C   0  0  0  0  0  0  0  0  0  0  0  0
   -3.1880   25.2910  -29.7120 O   0  0  0  0  0  0  0  0  0  0  0  0
   -4.3710   24.7020  -30.1890 C   0  0  0  0  0  0  0  0  0  0  0  0
   -5.6430   25.2590  -29.9640 C   0  0  0  0  0  0  0  0  0  0  0  0
   -6.7840   24.6250  -30.4580 C   0  0  0  0  0  0  0  0  0  0  0  0
   -6.6730   23.4350  -31.1810 C   0  0  0  0  0  0  0  0  0  0  0  0
   -5.4100   22.8650  -31.4210 C   0  0  0  0  0  0  0  0  0  0  0  0
   -5.2790   21.5970  -32.1790 C   0  0  0  0  0  0  0  0  0  0  0  0
   -4.1300   21.1560  -32.4580 O   0  0  0  0  0  0  0  0  0  0  0  0
   -6.4430   20.8920  -32.6440 N   0  0  0  0  0  0  0  0  0  0  0  0
   -6.4420   19.5010  -33.0110 C   0  0  0  0  0  0  0  0  0  0  0  0
   -5.7460   19.0900  -34.1560 C   0  0  0  0  0  0  0  0  0  0  0  0
   -5.7460   17.7480  -34.5450 C   0  0  0  0  0  0  0  0  0  0  0  0
   -6.4560   16.7900  -33.8000 C   0  0  0  0  0  0  0  0  0  0  0  0
   -6.4630   15.3640  -34.2030 C   0  0  0  0  0  0  0  0  0  0  0  0
   -7.5700   14.7140  -34.6310 N   0  0  0  0  0  0  0  0  0  0  0  0
   -7.3180   13.4140  -34.9390 C   0  0  0  0  0  0  0  0  0  0  0  0
   -6.0020   13.0080  -34.7610 C   0  0  0  0  0  0  0  0  0  0  0  0
   -5.1320   14.3300  -34.1960 S   0  0  0  0  0  0  0  0  0  0  0  0
   -7.1690   17.2060  -32.6640 C   0  0  0  0  0  0  0  0  0  0  0  0
   -7.1680   18.5490  -32.2750 C   0  0  0  0  0  0  0  0  0  0  0  0
   -4.2660   23.5060  -30.9090 C   0  0  0  0  0  0  0  0  0  0  0  0
   -0.8505   23.3392  -28.2710 H   0  0  0  0  0  0  0  0  0  0  0  0
   -1.8394   23.0392  -29.7402 H   0  0  0  0  0  0  0  0  0  0  0  0
   -0.6033   24.3426  -29.7402 H   0  0  0  0  0  0  0  0  0  0  0  0
   -3.0472   24.3011  -27.9000 H   0  0  0  0  0  0  0  0  0  0  0  0
   -1.8781   25.6527  -28.1580 H   0  0  0  0  0  0  0  0  0  0  0  0
   -5.7386   26.1968  -29.3971 H   0  0  0  0  0  0  0  0  0  0  0  0
   -7.7759   25.0647  -30.2770 H   0  0  0  0  0  0  0  0  0  0  0  0
   -7.5780   22.9413  -31.5646 H   0  0  0  0  0  0  0  0  0  0  0  0
   -7.3090   21.4460  -32.8340 H   0  0  0  0  0  0  0  0  0  0  0  0
   -5.1947   19.8307  -34.7539 H   0  0  0  0  0  0  0  0  0  0  0  0
   -5.1867   17.4388  -35.4403 H   0  0  0  0  0  0  0  0  0  0  0  0
   -8.1008   12.7324  -35.3032 H   0  0  0  0  0  0  0  0  0  0  0  0
   -5.6012   12.0021  -34.9549 H   0  0  0  0  0  0  0  0  0  0  0  0
   -7.7336   16.4684  -32.0747 H   0  0  0  0  0  0  0  0  0  0  0  0
   -7.7385   18.8621  -31.3882 H   0  0  0  0  0  0  0  0  0  0  0  0
   -3.2745   23.0603  -31.0772 H   0  0  0  0  0  0  0  0  0  0  0  0
  1  2  1  0
  2  3  1  0
  3  4  1  0
  4  5  2  0
  5  6  1  0
  6  7  2  0
  7  8  1  0
  8  9  1  0
  9 10  2  0
  9 11  1  0
 11 12  1  0
 12 13  2  0
 13 14  1  0
 14 15  2  0
 15 16  1  0
 16 17  2  0
 17 18  1  0
 18 19  2  0
 19 20  1  0
 15 21  1  0
 21 22  2  0
  8 23  2  0
 23  4  1  0
 22 12  1  0
 20 16  1  0
  1 24  1  0
  1 25  1  0
  1 26  1  0
  2 27  1  0
  2 28  1  0
  5 29  1  0
  6 30  1  0
  7 31  1  0
 11 32  1  0
 13 33  1  0
 14 34  1  0
 18 35  1  0
 19 36  1  0
 21 37  1  0
 22 38  1  0
 23 39  1  0
M  END
>  <UniqueID>  (16) 
12

>  <SMILES>  (16) 
CCOc1cccc(C(=O)Nc2ccc(-c3nccs3)cc2)c1

>  <Energy>  (16) 
75.6940498113378

>  <Genealogy>  (16) 
CCOc1cccc(C(=O)Nc2ccc(-c3nccs3)cc2)c1 (3D coordinates assigned)
CCOc1cccc(C(=O)Nc2ccc(-c3nccs3)cc2)c1 (optimized conformer: 75.6940498113378 kcal/mol)

>  <smiles>  (16) 
CCOc1cccc(C(=O)Nc2ccc(-c3nccs3)cc2)c1

>  <score_type>  (16) 
oracle

>  <origin>  (16) 
adgpu

>  <m_score__min__energy>  (16) 
-8.1500000000000004

>  <m_primary>  (16) 
energy

$$$$
16:0
     RDKit          3D

 32 33  0  0  0  0  0  0  0  0999 V2000
   -3.2710   18.1690  -34.0790 C   0  0  0  0  0  0  0  0  0  0  0  0
   -3.6370   19.5440  -34.1140 O   0  0  0  0  0  0  0  0  0  0  0  0
   -4.6540   20.1190  -33.3340 C   0  0  0  0  0  0  0  0  0  0  0  0
   -4.3820   21.0670  -32.3300 C   0  0  0  0  0  0  0  0  0  0  0  0
   -5.4230   21.6260  -31.5670 C   0  0  0  0  0  0  0  0  0  0  0  0
   -5.1570   22.6290  -30.4990 C   0  0  0  0  0  0  0  0  0  0  0  0
   -6.2750   23.7800  -30.1280 S   0  0  0  0  0  0  0  0  0  0  0  0
   -3.9840   22.4970  -29.6830 N   0  0  0  0  0  0  0  0  0  0  0  0
   -3.2400   23.6080  -29.1640 C   0  0  0  0  0  0  0  0  0  0  0  0
   -2.3450   23.5550  -28.1180 C   0  0  0  0  0  0  0  0  0  0  0  0
   -1.8090   24.8290  -28.0290 C   0  0  0  0  0  0  0  0  0  0  0  0
   -2.3200   25.6010  -28.9660 O   0  0  0  0  0  0  0  0  0  0  0  0
   -3.1720   24.8900  -29.6660 C   0  0  0  0  0  0  0  0  0  0  0  0
   -3.8530   25.3760  -30.7750 O   0  0  0  0  0  0  0  0  0  0  0  0
   -6.7450   21.2210  -31.8220 C   0  0  0  0  0  0  0  0  0  0  0  0
   -7.0310   20.2740  -32.8220 C   0  0  0  0  0  0  0  0  0  0  0  0
   -8.3430   19.8540  -33.0930 O   0  0  0  0  0  0  0  0  0  0  0  0
   -9.4920   20.2600  -32.3540 C   0  0  0  0  0  0  0  0  0  0  0  0
   -5.9770   19.7270  -33.5760 C   0  0  0  0  0  0  0  0  0  0  0  0
   -6.2300   18.7860  -34.5750 O   0  0  0  0  0  0  0  0  0  0  0  0
   -3.1833   17.8394  -33.0332 H   0  0  0  0  0  0  0  0  0  0  0  0
   -4.0414   17.5714  -34.5884 H   0  0  0  0  0  0  0  0  0  0  0  0
   -2.3055   18.0335  -34.5884 H   0  0  0  0  0  0  0  0  0  0  0  0
   -3.3431   21.3744  -32.1398 H   0  0  0  0  0  0  0  0  0  0  0  0
   -3.6630   21.5350  -29.4310 H   0  0  0  0  0  0  0  0  0  0  0  0
   -2.1067   22.6857  -27.4875 H   0  0  0  0  0  0  0  0  0  0  0  0
   -1.0652   25.1493  -27.2846 H   0  0  0  0  0  0  0  0  0  0  0  0
   -7.5673   21.6508  -31.2311 H   0  0  0  0  0  0  0  0  0  0  0  0
   -9.2806   20.1853  -31.2771 H   0  0  0  0  0  0  0  0  0  0  0  0
   -9.7419   21.3009  -32.6073 H   0  0  0  0  0  0  0  0  0  0  0  0
  -10.3404   19.6072  -32.6073 H   0  0  0  0  0  0  0  0  0  0  0  0
   -7.1570   18.6290  -34.9490 H   0  0  0  0  0  0  0  0  0  0  0  0
  1  2  1  0
  2  3  1  0
  3  4  2  0
  4  5  1  0
  5  6  1  0
  6  7  2  0
  6  8  1  0
  8  9  1  0
  9 10  1  0
 10 11  2  0
 11 12  1  0
 12 13  1  0
 13 14  1  0
  5 15  2  0
 15 16  1  0
 16 17  1  0
 17 18  1  0
 16 19  2  0
 19 20  1  0
 19  3  1  0
 13  9  2  0
  1 21  1  0
  1 22  1  0
  1 23  1  0
  4 24  1  0
  8 25  1  0
 10 26  1  0
 11 27  1  0
 15 28  1  0
 18 29  1  0
 18 30  1  0
 18 31  1  0
 20 32  1  0
M  CHG  1  14  -1
M  END
>  <UniqueID>  (17) 
13

>  <SMILES>  (17) 
COc1cc(C(=S)Nc2ccoc2[O-])cc(OC)c1O

>  <Energy>  (17) 
68.4786470752983

>  <Genealogy>  (17) 
COc1cc(C(=S)Nc2ccoc2[O-])cc(OC)c1O (protonated)
COc1cc(C(=S)Nc2ccoc2[O-])cc(OC)c1O (3D coordinates assigned)
COc1cc(C(=S)Nc2ccoc2[O-])cc(OC)c1O (optimized conformer: 68.4786470752983 kcal/mol)

>  <smiles>  (17) 
COc1cc(C(=S)Nc2ccoc2O)cc(OC)c1O

>  <score_type>  (17) 
oracle

>  <origin>  (17) 
adgpu

>  <m_score__min__energy>  (17) 
-8.5099999999999998

>  <m_primary>  (17) 
energy

$$$$
17:0
     RDKit          3D

 42 44  0  0  0  0  0  0  0  0999 V2000
   -1.6820   23.2590  -29.8980 O   0  0  0  0  0  0  0  0  0  0  0  0
   -1.8950   24.3780  -29.3580 C   0  0  0  0  0  0  0  0  0  0  0  0
   -0.8260   25.0950  -28.7280 N   0  0  0  0  0  0  0  0  0  0  0  0
   -0.7660   25.5020  -27.3520 C   0  0  0  0  0  0  0  0  0  0  0  0
   -0.8730   24.5810  -26.3000 C   0  0  0  0  0  0  0  0  0  0  0  0
   -0.7880   25.0130  -24.9760 C   0  0  0  0  0  0  0  0  0  0  0  0
   -0.5810   26.3650  -24.6820 C   0  0  0  0  0  0  0  0  0  0  0  0
   -0.4820   26.8390  -22.9880 Cl  0  0  0  0  0  0  0  0  0  0  0  0
   -0.4450   27.3040  -25.7300 C   0  0  0  0  0  0  0  0  0  0  0  0
   -0.2070   28.7690  -25.4300 C   0  0  0  0  0  0  0  0  0  0  0  0
   -1.3160   29.2970  -24.7930 F   0  0  0  0  0  0  0  0  0  0  0  0
    0.0100   29.4550  -26.6110 F   0  0  0  0  0  0  0  0  0  0  0  0
    0.8930   28.9560  -24.6120 F   0  0  0  0  0  0  0  0  0  0  0  0
   -0.5330   26.8520  -27.0620 C   0  0  0  0  0  0  0  0  0  0  0  0
   -3.2270   24.9050  -29.2800 N   0  0  0  0  0  0  0  0  0  0  0  0
   -4.3470   24.3860  -30.0180 C   0  0  0  0  0  0  0  0  0  0  0  0
   -4.2740   23.0960  -30.5630 C   0  0  0  0  0  0  0  0  0  0  0  0
   -5.3560   22.5590  -31.2670 C   0  0  0  0  0  0  0  0  0  0  0  0
   -6.5430   23.2970  -31.4120 C   0  0  0  0  0  0  0  0  0  0  0  0
   -7.6690   22.7940  -32.1450 N   0  0  0  0  0  0  0  0  0  0  0  0
   -8.3480   21.5500  -31.9230 C   0  0  0  0  0  0  0  0  0  0  0  0
   -9.4770   21.5310  -31.3620 O   0  0  0  0  0  0  0  0  0  0  0  0
   -7.7400   20.2980  -32.4080 C   0  0  0  0  0  0  0  0  0  0  0  0
   -8.1620   19.0470  -31.9280 C   0  0  0  0  0  0  0  0  0  0  0  0
   -7.5570   17.8850  -32.4130 C   0  0  0  0  0  0  0  0  0  0  0  0
   -6.5430   17.9760  -33.3680 C   0  0  0  0  0  0  0  0  0  0  0  0
   -6.1470   19.2350  -33.8240 C   0  0  0  0  0  0  0  0  0  0  0  0
   -6.7470   20.3550  -33.3400 N   0  0  0  0  0  0  0  0  0  0  0  0
   -6.6160   24.5860  -30.8710 C   0  0  0  0  0  0  0  0  0  0  0  0
   -5.5350   25.1240  -30.1670 C   0  0  0  0  0  0  0  0  0  0  0  0
   -1.0245   23.5138  -26.5194 H   0  0  0  0  0  0  0  0  0  0  0  0
   -0.8845   24.2849  -24.1571 H   0  0  0  0  0  0  0  0  0  0  0  0
   -0.4169   27.5708  -27.8865 H   0  0  0  0  0  0  0  0  0  0  0  0
   -3.4030   25.6650  -28.5850 H   0  0  0  0  0  0  0  0  0  0  0  0
   -3.3574   22.5014  -30.4355 H   0  0  0  0  0  0  0  0  0  0  0  0
   -5.2778   21.5548  -31.7091 H   0  0  0  0  0  0  0  0  0  0  0  0
   -8.9625   18.9829  -31.1762 H   0  0  0  0  0  0  0  0  0  0  0  0
   -7.8790   16.9004  -32.0431 H   0  0  0  0  0  0  0  0  0  0  0  0
   -6.0615   17.0666  -33.7568 H   0  0  0  0  0  0  0  0  0  0  0  0
   -5.3486   19.3208  -34.5758 H   0  0  0  0  0  0  0  0  0  0  0  0
   -7.5322   25.1807  -31.0011 H   0  0  0  0  0  0  0  0  0  0  0  0
   -5.6138   26.1293  -29.7274 H   0  0  0  0  0  0  0  0  0  0  0  0
  1  2  2  0
  2  3  1  0
  3  4  1  0
  4  5  2  0
  5  6  1  0
  6  7  2  0
  7  8  1  0
  7  9  1  0
  9 10  1  0
 10 11  1  0
 10 12  1  0
 10 13  1  0
  9 14  2  0
  2 15  1  0
 15 16  1  0
 16 17  2  0
 17 18  1  0
 18 19  2  0
 19 20  1  0
 20 21  1  0
 21 22  2  0
 21 23  1  0
 23 24  2  0
 24 25  1  0
 25 26  2  0
 26 27  1  0
 27 28  2  0
 19 29  1  0
 29 30  2  0
 14  4  1  0
 30 16  1  0
 28 23  1  0
  5 31  1  0
  6 32  1  0
 14 33  1  0
 15 34  1  0
 17 35  1  0
 18 36  1  0
 24 37  1  0
 25 38  1  0
 26 39  1  0
 27 40  1  0
 29 41  1  0
 30 42  1  0
M  CHG  2   3  -1  20  -1
M  END
>  <UniqueID>  (18) 
14

>  <SMILES>  (18) 
O=C([N-]c1ccc(Cl)c(C(F)(F)F)c1)Nc1ccc([N-]C(=O)c2ccccn2)cc1

>  <Energy>  (18) 
58.01663010335818

>  <Genealogy>  (18) 
O=C([N-]c1ccc(Cl)c(C(F)(F)F)c1)Nc1ccc([N-]C(=O)c2ccccn2)cc1 (protonated)
O=C([N-]c1ccc(Cl)c(C(F)(F)F)c1)Nc1ccc([N-]C(=O)c2ccccn2)cc1 (3D coordinates assigned)
O=C([N-]c1ccc(Cl)c(C(F)(F)F)c1)Nc1ccc([N-]C(=O)c2ccccn2)cc1 (optimized conformer: 58.01663010335818 kcal/mol)

>  <smiles>  (18) 
O=C(Nc1ccc(NC(=O)c2ccccn2)cc1)Nc1ccc(Cl)c(C(F)(F)F)c1

>  <score_type>  (18) 
oracle

>  <origin>  (18) 
adgpu

>  <m_score__min__energy>  (18) 
-10.42

>  <m_primary>  (18) 
energy

$$$$
18:0
     RDKit          3D

 40 42  0  0  0  0  0  0  0  0999 V2000
   -2.5240   18.9970  -26.7300 C   0  0  0  0  0  0  0  0  0  0  0  0
   -1.6250   20.0320  -26.0550 C   0  0  0  0  0  0  0  0  0  0  0  0
   -0.9240   20.9570  -27.0620 C   0  0  0  0  0  0  0  0  0  0  0  0
   -1.0240   22.4530  -26.7140 C   0  0  0  0  0  0  0  0  0  0  0  0
   -1.7730   23.2050  -27.7440 N   0  0  0  0  0  0  0  0  0  0  0  0
   -1.1790   24.2850  -28.3790 C   0  0  0  0  0  0  0  0  0  0  0  0
   -0.0100   24.6460  -28.0730 O   0  0  0  0  0  0  0  0  0  0  0  0
   -1.8490   24.9800  -29.3460 N   0  0  0  0  0  0  0  0  0  0  0  0
   -3.1030   24.5970  -29.6680 C   0  0  0  0  0  0  0  0  0  0  0  0
   -3.8950   25.1530  -30.5930 N   0  0  0  0  0  0  0  0  0  0  0  0
   -5.0150   24.3840  -30.4960 C   0  0  0  0  0  0  0  0  0  0  0  0
   -6.2000   24.5720  -31.3860 C   0  0  0  0  0  0  0  0  0  0  0  0
   -6.7750   23.2360  -31.7650 C   0  0  0  0  0  0  0  0  0  0  0  0
   -5.9430   22.2230  -32.2670 C   0  0  0  0  0  0  0  0  0  0  0  0
   -6.4720   20.9680  -32.5840 C   0  0  0  0  0  0  0  0  0  0  0  0
   -7.8340   20.7070  -32.3930 C   0  0  0  0  0  0  0  0  0  0  0  0
   -8.3740   19.4230  -32.7160 N   0  0  0  0  0  0  0  0  0  0  0  0
   -8.6660   21.7130  -31.8790 C   0  0  0  0  0  0  0  0  0  0  0  0
   -8.1380   22.9680  -31.5620 C   0  0  0  0  0  0  0  0  0  0  0  0
   -4.9400   23.3820  -29.5780 N   0  0  0  0  0  0  0  0  0  0  0  0
   -3.7120   23.5590  -29.0700 C   0  0  0  0  0  0  0  0  0  0  0  0
   -3.0570   22.8330  -28.0860 C   0  0  0  0  0  0  0  0  0  0  0  0
   -3.6340   21.8580  -27.5320 O   0  0  0  0  0  0  0  0  0  0  0  0
   -3.0401   18.4028  -25.9615 H   0  0  0  0  0  0  0  0  0  0  0  0
   -3.2676   19.5105  -27.3572 H   0  0  0  0  0  0  0  0  0  0  0  0
   -1.9114   18.3326  -27.3572 H   0  0  0  0  0  0  0  0  0  0  0  0
   -2.2405   20.6469  -25.3819 H   0  0  0  0  0  0  0  0  0  0  0  0
   -0.8435   19.4855  -25.5068 H   0  0  0  0  0  0  0  0  0  0  0  0
    0.1402   20.6816  -27.1016 H   0  0  0  0  0  0  0  0  0  0  0  0
   -1.4336   20.8204  -28.0272 H   0  0  0  0  0  0  0  0  0  0  0  0
   -1.5397   22.5607  -25.7484 H   0  0  0  0  0  0  0  0  0  0  0  0
   -0.0043   22.8625  -26.6640 H   0  0  0  0  0  0  0  0  0  0  0  0
   -6.9638   25.1603  -30.8563 H   0  0  0  0  0  0  0  0  0  0  0  0
   -5.8867   25.1021  -32.2975 H   0  0  0  0  0  0  0  0  0  0  0  0
   -4.8700   22.4173  -32.4117 H   0  0  0  0  0  0  0  0  0  0  0  0
   -5.8150   20.1823  -32.9853 H   0  0  0  0  0  0  0  0  0  0  0  0
   -8.4140   18.6640  -31.9990 H   0  0  0  0  0  0  0  0  0  0  0  0
   -8.7400   19.2220  -33.6740 H   0  0  0  0  0  0  0  0  0  0  0  0
   -9.7368   21.5137  -31.7250 H   0  0  0  0  0  0  0  0  0  0  0  0
   -8.7940   23.7497  -31.1513 H   0  0  0  0  0  0  0  0  0  0  0  0
  1  2  1  0
  2  3  1  0
  3  4  1  0
  4  5  1  0
  5  6  1  0
  6  7  2  0
  6  8  1  0
  8  9  1  0
  9 10  1  0
 10 11  2  0
 11 12  1  0
 12 13  1  0
 13 14  2  0
 14 15  1  0
 15 16  2  0
 16 17  1  0
 16 18  1  0
 18 19  2  0
 11 20  1  0
 20 21  1  0
 21 22  1  0
 22 23  2  0
 22  5  1  0
 21  9  2  0
 19 13  1  0
  1 24  1  0
  1 25  1  0
  1 26  1  0
  2 27  1  0
  2 28  1  0
  3 29  1  0
  3 30  1  0
  4 31  1  0
  4 32  1  0
 12 33  1  0
 12 34  1  0
 14 35  1  0
 15 36  1  0
 17 37  1  0
 17 38  1  0
 18 39  1  0
 19 40  1  0
M  CHG  2   8  -1  20  -1
M  END
>  <UniqueID>  (19) 
15

>  <SMILES>  (19) 
CCCCn1c(=O)[n-]c2nc(Cc3ccc(N)cc3)[n-]c2c1=O

>  <Energy>  (19) 
74.92829767867228

>  <Genealogy>  (19) 
CCCCn1c(=O)[n-]c2nc(Cc3ccc(N)cc3)[n-]c2c1=O (protonated)
CCCCn1c(=O)[n-]c2nc(Cc3ccc(N)cc3)[n-]c2c1=O (3D coordinates assigned)
CCCCn1c(=O)[n-]c2nc(Cc3ccc(N)cc3)[n-]c2c1=O (optimized conformer: 74.92829767867228 kcal/mol)

>  <smiles>  (19) 
CCCCn1c(=O)[nH]c2nc(Cc3ccc(N)cc3)[nH]c2c1=O

>  <score_type>  (19) 
oracle

>  <origin>  (19) 
adgpu

>  <m_score__min__energy>  (19) 
-10.02

>  <m_primary>  (19) 
energy

$$$$
19:0
     RDKit          3D

 40 42  0  0  1  0  0  0  0  0999 V2000
   -5.7710   24.8260  -30.7970 C   0  0  0  0  0  0  0  0  0  0  0  0
   -4.8790   24.0410  -31.5700 O   0  0  0  0  0  0  0  0  0  0  0  0
   -3.9820   23.1750  -30.9630 C   0  0  0  0  0  0  0  0  0  0  0  0
   -3.4000   23.4990  -29.7340 C   0  0  0  0  0  0  0  0  0  0  0  0
   -2.5170   22.7040  -29.0750 C   0  0  0  0  0  0  0  0  0  0  0  0
   -1.9630   22.8270  -27.7650 C   0  0  0  0  0  0  0  0  0  0  0  0
   -0.9450   23.5200  -27.3540 C   0  0  0  0  0  0  0  0  0  0  0  0
   -0.0830   24.3850  -28.0960 C   0  0  0  0  0  0  0  0  0  0  0  0
    1.2700   24.3120  -28.3130 O   0  0  0  0  0  0  0  0  0  0  0  0
   -0.6510   25.4210  -28.6690 N   0  0  0  0  0  0  0  0  0  0  0  0
   -1.9890   25.6950  -28.5870 O   0  0  0  0  0  0  0  0  0  0  0  0
   -2.2080   21.4920  -29.7330 C   0  0  0  0  0  0  0  0  0  0  0  0
   -2.7760   21.1680  -30.9390 C   0  0  0  0  0  0  0  0  0  0  0  0
   -3.6690   21.9960  -31.5770 C   0  0  0  0  0  0  0  0  0  0  0  0
   -4.4120   21.5930  -33.1330 S   0  0  0  0  0  0  0  0  0  0  0  0
   -5.7270   20.3880  -32.9550 C   0  0  0  0  0  0  0  0  0  0  0  0
   -5.5300   19.0720  -33.2320 N   0  0  0  0  0  0  0  0  0  0  0  0
   -6.5450   18.1760  -33.0890 C   0  0  0  0  0  0  0  0  0  0  0  0
   -7.7650   18.5620  -32.6730 N   0  0  0  0  0  0  0  0  0  0  0  0
   -7.9830   19.8390  -32.3970 C   0  0  0  0  0  0  0  0  0  0  0  0
   -9.2400   20.2550  -31.9660 C   0  0  0  0  0  0  0  0  0  0  0  0
   -9.5110   21.5800  -31.6660 C   0  0  0  0  0  0  0  0  0  0  0  0
   -8.4990   22.5050  -31.8030 C   0  0  0  0  0  0  0  0  0  0  0  0
   -7.2270   22.1320  -32.2320 C   0  0  0  0  0  0  0  0  0  0  0  0
   -6.9760   20.7980  -32.5270 C   0  0  0  0  0  0  0  0  0  0  0  0
   -5.5772   24.6554  -29.7277 H   0  0  0  0  0  0  0  0  0  0  0  0
   -5.6206   25.8901  -31.0317 H   0  0  0  0  0  0  0  0  0  0  0  0
   -6.8074   24.5416  -31.0317 H   0  0  0  0  0  0  0  0  0  0  0  0
   -3.6743   24.4584  -29.2711 H   0  0  0  0  0  0  0  0  0  0  0  0
   -2.4770   22.2461  -26.9850 H   0  0  0  0  0  0  0  0  0  0  0  0
   -0.7132   23.4283  -26.2826 H   0  0  0  0  0  0  0  0  0  0  0  0
    1.7180   24.5560  -29.1920 H   0  0  0  0  0  0  0  0  0  0  0  0
   -2.4360   26.5180  -28.9660 H   0  0  0  0  0  0  0  0  0  0  0  0
   -1.4967   20.7934  -29.2681 H   0  0  0  0  0  0  0  0  0  0  0  0
   -2.5075   20.2120  -31.4122 H   0  0  0  0  0  0  0  0  0  0  0  0
   -6.3641   17.1154  -33.3181 H   0  0  0  0  0  0  0  0  0  0  0  0
  -10.0417   19.5093  -31.8606 H   0  0  0  0  0  0  0  0  0  0  0  0
  -10.5112   21.8867  -31.3262 H   0  0  0  0  0  0  0  0  0  0  0  0
   -8.6997   23.5608  -31.5686 H   0  0  0  0  0  0  0  0  0  0  0  0
   -6.4314   22.8845  -32.3358 H   0  0  0  0  0  0  0  0  0  0  0  0
  1  2  1  0
  2  3  1  0
  3  4  2  0
  4  5  1  0
  5  6  1  0
  6  7  2  0
  7  8  1  0
  8  9  1  0
  8 10  2  0
 10 11  1  0
  5 12  2  0
 12 13  1  0
 13 14  2  0
 14 15  1  0
 15 16  1  0
 16 17  2  0
 17 18  1  0
 18 19  2  0
 19 20  1  0
 20 21  2  0
 21 22  1  0
 22 23  2  0
 23 24  1  0
 24 25  2  0
 14  3  1  0
 25 16  1  0
 25 20  1  0
  1 26  1  0
  1 27  1  0
  1 28  1  0
  4 29  1  0
  6 30  1  0
  7 31  1  0
  9 32  1  0
 11 33  1  0
 12 34  1  0
 13 35  1  0
 18 36  1  0
 21 37  1  0
 22 38  1  0
 23 39  1  0
 24 40  1  0
M  END
>  <smiles>  (20) 
COc1cc(C=CC(O)=NO)ccc1Sc1ncnc2ccccc12

>  <score_type>  (20) 
oracle

>  <origin>  (20) 
adgpu

>  <m_score__min__energy>  (20) 
-9.8100000000000005

>  <m_primary>  (20) 
energy

$$$$
20:0
     RDKit          3D

 72 76  0  0  1  0  0  0  0  0999 V2000
   -4.8990   25.5450  -30.7450 C   0  0  0  0  0  0  0  0  0  0  0  0
   -3.9300   24.5020  -30.7870 O   0  0  0  0  0  0  0  0  0  0  0  0
   -3.3480   24.0410  -29.6160 C   0  0  0  0  0  0  0  0  0  0  0  0
   -2.7000   24.9220  -28.7640 C   0  0  0  0  0  0  0  0  0  0  0  0
   -2.1030   24.5260  -27.5880 C   0  0  0  0  0  0  0  0  0  0  0  0
   -1.4350   25.4040  -26.6980 N   0  0  0  0  0  0  0  0  0  0  0  0
   -2.0880   25.8120  -25.4490 C   0  0  0  0  0  0  0  0  0  0  0  0
   -1.2470   26.7800  -24.6790 C   0  0  0  0  0  0  0  0  0  0  0  0
   -0.5680   27.7690  -25.4400 N   0  0  0  0  0  0  0  0  0  0  0  0
   -1.0730   29.1140  -25.2440 C   0  0  0  0  0  0  0  0  0  0  0  0
   -0.3040   27.4670  -26.8060 C   0  0  0  0  0  0  0  0  0  0  0  0
   -0.1170   25.9520  -26.9270 C   0  0  0  0  0  0  0  0  0  0  0  0
   -2.1760   23.1810  -27.2780 C   0  0  0  0  0  0  0  0  0  0  0  0
   -2.8100   22.2660  -28.0940 C   0  0  0  0  0  0  0  0  0  0  0  0
   -3.4010   22.6880  -29.2670 C   0  0  0  0  0  0  0  0  0  0  0  0
   -4.0720   21.8340  -30.1680 N   0  0  0  0  0  0  0  0  0  0  0  0
   -5.2840   22.0600  -30.5370 C   0  0  0  0  0  0  0  0  0  0  0  0
   -6.0030   23.1150  -30.1010 N   0  0  0  0  0  0  0  0  0  0  0  0
   -7.2460   23.2740  -30.5300 C   0  0  0  0  0  0  0  0  0  0  0  0
   -7.8190   22.3890  -31.4100 C   0  0  0  0  0  0  0  0  0  0  0  0
   -9.4790   22.6240  -31.9690 Cl  0  0  0  0  0  0  0  0  0  0  0  0
   -7.0750   21.3140  -31.8500 C   0  0  0  0  0  0  0  0  0  0  0  0
   -7.6210   20.4940  -32.6720 N   0  0  0  0  0  0  0  0  0  0  0  0
   -6.8520   19.3860  -33.1240 C   0  0  0  0  0  0  0  0  0  0  0  0
   -6.0290   19.5080  -34.2220 C   0  0  0  0  0  0  0  0  0  0  0  0
   -5.2660   18.4240  -34.6740 C   0  0  0  0  0  0  0  0  0  0  0  0
   -5.3020   17.1960  -34.0510 C   0  0  0  0  0  0  0  0  0  0  0  0
   -4.5170   16.1070  -34.5100 N   0  0  0  0  0  0  0  0  0  0  0  0
   -3.3270   16.2690  -35.3360 C   0  0  0  0  0  0  0  0  0  0  0  0
   -2.2250   15.5680  -34.5240 C   0  0  0  0  0  0  0  0  0  0  0  0
   -2.5830   14.2240  -34.4610 O   0  0  0  0  0  0  0  0  0  0  0  0
   -3.6440   14.0820  -33.5610 C   0  0  0  0  0  0  0  0  0  0  0  0
   -4.8520   14.7110  -34.1960 C   0  0  0  0  0  0  0  0  0  0  0  0
   -6.1250   17.0800  -32.9530 C   0  0  0  0  0  0  0  0  0  0  0  0
   -6.8830   18.1560  -32.5020 C   0  0  0  0  0  0  0  0  0  0  0  0
   -7.7190   18.0430  -31.3920 O   0  0  0  0  0  0  0  0  0  0  0  0
   -9.1200   18.2550  -31.5920 C   0  0  0  0  0  0  0  0  0  0  0  0
   -5.8130   21.1580  -31.4100 N   0  0  0  0  0  0  0  0  0  0  0  0
   -5.1276   25.7911  -29.6975 H   0  0  0  0  0  0  0  0  0  0  0  0
   -4.5009   26.4360  -31.2525 H   0  0  0  0  0  0  0  0  0  0  0  0
   -5.8169   25.2134  -31.2525 H   0  0  0  0  0  0  0  0  0  0  0  0
   -2.6610   25.9861  -29.0400 H   0  0  0  0  0  0  0  0  0  0  0  0
   -3.0508   26.2871  -25.6882 H   0  0  0  0  0  0  0  0  0  0  0  0
   -2.2357   24.9154  -24.8291 H   0  0  0  0  0  0  0  0  0  0  0  0
   -1.9028   27.2989  -23.9644 H   0  0  0  0  0  0  0  0  0  0  0  0
   -0.4557   26.1745  -24.2129 H   0  0  0  0  0  0  0  0  0  0  0  0
   -1.1514   29.3229  -24.1669 H   0  0  0  0  0  0  0  0  0  0  0  0
   -0.3845   29.8354  -25.7082 H   0  0  0  0  0  0  0  0  0  0  0  0
   -2.0662   29.2040  -25.7082 H   0  0  0  0  0  0  0  0  0  0  0  0
   -1.1502   27.7899  -27.4302 H   0  0  0  0  0  0  0  0  0  0  0  0
    0.6006   27.9925  -27.1461 H   0  0  0  0  0  0  0  0  0  0  0  0
    0.2463   25.6842  -27.9301 H   0  0  0  0  0  0  0  0  0  0  0  0
    0.6261   25.5645  -26.2145 H   0  0  0  0  0  0  0  0  0  0  0  0
   -1.7114   22.8265  -26.3461 H   0  0  0  0  0  0  0  0  0  0  0  0
   -2.8439   21.2038  -27.8100 H   0  0  0  0  0  0  0  0  0  0  0  0
   -5.5300   23.7570  -29.4380 H   0  0  0  0  0  0  0  0  0  0  0  0
   -7.8322   24.1338  -30.1736 H   0  0  0  0  0  0  0  0  0  0  0  0
   -5.9703   20.4705  -34.7513 H   0  0  0  0  0  0  0  0  0  0  0  0
   -4.6184   18.5573  -35.5531 H   0  0  0  0  0  0  0  0  0  0  0  0
   -3.4602   15.7866  -36.3156 H   0  0  0  0  0  0  0  0  0  0  0  0
   -3.0955   17.3228  -35.5500 H   0  0  0  0  0  0  0  0  0  0  0  0
   -1.2523   15.6802  -35.0253 H   0  0  0  0  0  0  0  0  0  0  0  0
   -2.1292   16.0044  -33.5188 H   0  0  0  0  0  0  0  0  0  0  0  0
   -3.8327   13.0160  -33.3659 H   0  0  0  0  0  0  0  0  0  0  0  0
   -3.4100   14.5666  -32.6016 H   0  0  0  0  0  0  0  0  0  0  0  0
   -5.1135   14.1720  -35.1186 H   0  0  0  0  0  0  0  0  0  0  0  0
   -5.7131   14.6661  -33.5130 H   0  0  0  0  0  0  0  0  0  0  0  0
   -6.1842   16.1183  -32.4224 H   0  0  0  0  0  0  0  0  0  0  0  0
   -9.6223   18.3310  -30.6163 H   0  0  0  0  0  0  0  0  0  0  0  0
   -9.2729   19.1865  -32.1567 H   0  0  0  0  0  0  0  0  0  0  0  0
   -9.5417   17.4104  -32.1567 H   0  0  0  0  0  0  0  0  0  0  0  0
   -5.2520   20.3490  -31.7400 H   0  0  0  0  0  0  0  0  0  0  0  0
  1  2  1  0
  2  3  1  0
  3  4  2  0
  4  5  1  0
  5  6  1  0
  6  7  1  0
  7  8  1  0
  8  9  1  0
  9 10  1  0
  9 11  1  0
 11 12  1  0
  5 13  2  0
 13 14  1  0
 14 15  2  0
 15 16  1  0
 16 17  2  0
 17 18  1  0
 18 19  1  0
 19 20  2  0
 20 21  1  0
 20 22  1  0
 22 23  2  0
 23 24  1  0
 24 25  2  0
 25 26  1  0
 26 27  2  0
 27 28  1  0
 28 29  1  0
 29 30  1  0
 30 31  1  0
 31 32  1  0
 32 33  1  0
 27 34  1  0
 34 35  2  0
 35 36  1  0
 36 37  1  0
 22 38  1  0
 15  3  1  0
 38 17  1  0
 12  6  1  0
 35 24  1  0
 33 28  1  0
  1 39  1  0
  1 40  1  0
  1 41  1  0
  4 42  1  0
  7 43  1  0
  7 44  1  0
  8 45  1  0
  8 46  1  0
 10 47  1  0
 10 48  1  0
 10 49  1  0
 11 50  1  0
 11 51  1  0
 12 52  1  0
 12 53  1  0
 13 54  1  0
 14 55  1  0
 18 56  1  0
 19 57  1  0
 25 58  1  0
 26 59  1  0
 29 60  1  0
 29 61  1  0
 30 62  1  0
 30 63  1  0
 32 64  1  0
 32 65  1  0
 33 66  1  0
 33 67  1  0
 34 68  1  0
 37 69  1  0
 37 70  1  0
 37 71  1  0
 38 72  1  0
M  END
>  <smiles>  (21) 
COc1cc(N2CCN(C)CC2)ccc1N=c1[nH]cc(Cl)c(=Nc2ccc(N3CCOCC3)cc2OC)[nH]1

>  <score_type>  (21) 
oracle

>  <origin>  (21) 
adgpu

>  <m_score__min__energy>  (21) 
-9.1799999999999997

>  <m_primary>  (21) 
energy

$$$$
21:0
     RDKit          3D

 30 31  0  0  0  0  0  0  0  0999 V2000
   -9.0270   21.5530  -30.5500 C   0  0  0  0  0  0  0  0  0  0  0  0
   -7.9820   21.1360  -31.5080 N   0  0  0  0  0  0  0  0  0  0  0  0
   -8.4750   20.0350  -32.3610 C   0  0  0  0  0  0  0  0  0  0  0  0
   -7.4230   18.9790  -32.5140 C   0  0  0  0  0  0  0  0  0  0  0  0
   -7.0800   18.0230  -31.5670 C   0  0  0  0  0  0  0  0  0  0  0  0
   -6.0360   17.1890  -31.9820 C   0  0  0  0  0  0  0  0  0  0  0  0
   -5.5520   17.4890  -33.2490 C   0  0  0  0  0  0  0  0  0  0  0  0
   -6.4250   18.7940  -33.8530 S   0  0  0  0  0  0  0  0  0  0  0  0
   -7.5600   22.2830  -32.3400 C   0  0  0  0  0  0  0  0  0  0  0  0
   -6.4650   23.0670  -31.6550 C   0  0  0  0  0  0  0  0  0  0  0  0
   -6.7980   24.1870  -30.8720 C   0  0  0  0  0  0  0  0  0  0  0  0
   -5.8010   24.9150  -30.2180 C   0  0  0  0  0  0  0  0  0  0  0  0
   -4.4630   24.5330  -30.3350 C   0  0  0  0  0  0  0  0  0  0  0  0
   -3.4980   25.2400  -29.6990 F   0  0  0  0  0  0  0  0  0  0  0  0
   -4.1190   23.4200  -31.1070 C   0  0  0  0  0  0  0  0  0  0  0  0
   -5.1110   22.6830  -31.7670 C   0  0  0  0  0  0  0  0  0  0  0  0
   -4.6210   21.2860  -32.7210 Cl  0  0  0  0  0  0  0  0  0  0  0  0
   -8.6618   21.4073  -29.5227 H   0  0  0  0  0  0  0  0  0  0  0  0
   -9.2657   22.6152  -30.7071 H   0  0  0  0  0  0  0  0  0  0  0  0
   -9.9314   20.9469  -30.7071 H   0  0  0  0  0  0  0  0  0  0  0  0
   -9.3690   19.5912  -31.8986 H   0  0  0  0  0  0  0  0  0  0  0  0
   -8.7224   20.4376  -33.3543 H   0  0  0  0  0  0  0  0  0  0  0  0
   -7.5781   17.9308  -30.5906 H   0  0  0  0  0  0  0  0  0  0  0  0
   -5.6360   16.3724  -31.3630 H   0  0  0  0  0  0  0  0  0  0  0  0
   -4.7373   16.9632  -33.7685 H   0  0  0  0  0  0  0  0  0  0  0  0
   -7.1873   21.9106  -33.3056 H   0  0  0  0  0  0  0  0  0  0  0  0
   -8.4250   22.9449  -32.4937 H   0  0  0  0  0  0  0  0  0  0  0  0
   -7.8504   24.4917  -30.7739 H   0  0  0  0  0  0  0  0  0  0  0  0
   -6.0705   25.7909  -29.6096 H   0  0  0  0  0  0  0  0  0  0  0  0
   -3.0642   23.1211  -31.1969 H   0  0  0  0  0  0  0  0  0  0  0  0
  1  2  1  0
  2  3  1  0
  3  4  1  0
  4  5  2  0
  5  6  1  0
  6  7  2  0
  7  8  1  0
  2  9  1  0
  9 10  1  0
 10 11  2  0
 11 12  1  0
 12 13  2  0
 13 14  1  0
 13 15  1  0
 15 16  2  0
 16 17  1  0
  8  4  1  0
 16 10  1  0
  1 18  1  0
  1 19  1  0
  1 20  1  0
  3 21  1  0
  3 22  1  0
  5 23  1  0
  6 24  1  0
  7 25  1  0
  9 26  1  0
  9 27  1  0
 11 28  1  0
 12 29  1  0
 15 30  1  0
M  END
>  <UniqueID>  (22) 
16

>  <SMILES>  (22) 
CN(Cc1cccs1)Cc1ccc(F)cc1Cl

>  <Energy>  (22) 
56.93973526327374

>  <Genealogy>  (22) 
CN(Cc1cccs1)Cc1ccc(F)cc1Cl (3D coordinates assigned)
CN(Cc1cccs1)Cc1ccc(F)cc1Cl (optimized conformer: 56.93973526327374 kcal/mol)

>  <smiles>  (22) 
CN(Cc1cccs1)Cc1ccc(F)cc1Cl

>  <score_type>  (22) 
oracle

>  <origin>  (22) 
adgpu

>  <m_score__min__energy>  (22) 
-6.8399999999999999

>  <m_primary>  (22) 
energy

$$$$
22:0
     RDKit          3D

 42 44  0  0  0  0  0  0  0  0999 V2000
   -6.0685   26.3006  -29.9465 H   0  0  0  0  0  0  0  0  0  0  0  0
   -5.8640   25.2460  -30.1830 C   0  0  0  0  0  0  0  0  0  0  0  0
   -4.4970   24.7520  -29.9270 C   0  0  0  0  0  0  0  0  0  0  0  0
   -3.4890   25.3020  -30.4480 O   0  0  0  0  0  0  0  0  0  0  0  0
   -4.3220   23.6160  -29.1510 O   0  0  0  0  0  0  0  0  0  0  0  0
   -6.8800   24.5220  -30.6790 C   0  0  0  0  0  0  0  0  0  0  0  0
   -7.8776   24.9854  -30.6784 H   0  0  0  0  0  0  0  0  0  0  0  0
   -6.7680   23.1530  -31.2260 C   0  0  0  0  0  0  0  0  0  0  0  0
   -7.6720   22.1450  -30.8550 C   0  0  0  0  0  0  0  0  0  0  0  0
   -8.5046   22.3801  -30.1757 H   0  0  0  0  0  0  0  0  0  0  0  0
   -7.5200   20.8440  -31.3440 C   0  0  0  0  0  0  0  0  0  0  0  0
   -8.2437   20.0658  -31.0598 H   0  0  0  0  0  0  0  0  0  0  0  0
   -6.4480   20.5230  -32.1970 C   0  0  0  0  0  0  0  0  0  0  0  0
   -6.2860   19.1430  -32.7180 C   0  0  0  0  0  0  0  0  0  0  0  0
   -6.2920   18.0410  -31.8440 C   0  0  0  0  0  0  0  0  0  0  0  0
   -6.4167   18.2033  -30.7632 H   0  0  0  0  0  0  0  0  0  0  0  0
   -6.1410   16.7420  -32.3360 C   0  0  0  0  0  0  0  0  0  0  0  0
   -6.1457   15.8897  -31.6406 H   0  0  0  0  0  0  0  0  0  0  0  0
   -5.9830   16.5180  -33.7160 C   0  0  0  0  0  0  0  0  0  0  0  0
   -5.8340   15.2330  -34.2650 O   0  0  0  0  0  0  0  0  0  0  0  0
   -4.5900   14.5580  -34.4580 C   0  0  0  0  0  0  0  0  0  0  0  0
   -4.5315   13.7050  -33.7659 H   0  0  0  0  0  0  0  0  0  0  0  0
   -4.5358   14.2102  -35.5002 H   0  0  0  0  0  0  0  0  0  0  0  0
   -3.4320   15.4850  -34.1980 C   0  0  0  0  0  0  0  0  0  0  0  0
   -2.7980   15.4870  -32.9440 C   0  0  0  0  0  0  0  0  0  0  0  0
   -3.1544   14.8156  -32.1489 H   0  0  0  0  0  0  0  0  0  0  0  0
   -1.7160   16.3390  -32.7030 C   0  0  0  0  0  0  0  0  0  0  0  0
   -1.2283   16.3413  -31.7170 H   0  0  0  0  0  0  0  0  0  0  0  0
   -1.2530   17.1870  -33.7110 C   0  0  0  0  0  0  0  0  0  0  0  0
   -0.4029   17.8580  -33.5182 H   0  0  0  0  0  0  0  0  0  0  0  0
   -1.8700   17.1830  -34.9650 C   0  0  0  0  0  0  0  0  0  0  0  0
   -1.5036   17.8500  -35.7593 H   0  0  0  0  0  0  0  0  0  0  0  0
   -2.9530   16.3320  -35.2120 C   0  0  0  0  0  0  0  0  0  0  0  0
   -3.4308   16.3260  -36.2028 H   0  0  0  0  0  0  0  0  0  0  0  0
   -5.9700   17.6130  -34.5850 C   0  0  0  0  0  0  0  0  0  0  0  0
   -5.8397   17.4496  -35.6650 H   0  0  0  0  0  0  0  0  0  0  0  0
   -6.1210   18.9140  -34.0950 C   0  0  0  0  0  0  0  0  0  0  0  0
   -6.1106   19.7646  -34.7924 H   0  0  0  0  0  0  0  0  0  0  0  0
   -5.5270   21.5300  -32.5390 C   0  0  0  0  0  0  0  0  0  0  0  0
   -4.6789   21.2927  -33.1980 H   0  0  0  0  0  0  0  0  0  0  0  0
   -5.6810   22.8300  -32.0480 C   0  0  0  0  0  0  0  0  0  0  0  0
   -4.9440   23.6038  -32.3089 H   0  0  0  0  0  0  0  0  0  0  0  0
  1  2  1  0
  2  3  1  0
  3  4  2  0
  3  5  1  0
  2  6  2  0
  6  7  1  0
  6  8  1  0
  8  9  2  0
  9 10  1  0
  9 11  1  0
 11 12  1  0
 11 13  2  0
 13 14  1  0
 14 15  2  0
 15 16  1  0
 15 17  1  0
 17 18  1  0
 17 19  2  0
 19 20  1  0
 20 21  1  0
 21 22  1  0
 21 23  1  0
 21 24  1  0
 24 25  2  0
 25 26  1  0
 25 27  1  0
 27 28  1  0
 27 29  2  0
 29 30  1  0
 29 31  1  0
 31 32  1  0
 31 33  2  0
 33 34  1  0
 19 35  1  0
 35 36  1  0
 35 37  2  0
 37 38  1  0
 13 39  1  0
 39 40  1  0
 39 41  2  0
 41 42  1  0
 41  8  1  0
 37 14  1  0
 33 24  1  0
M  CHG  1   5  -1
M  END
>  <UniqueID>  (23) 
17

>  <SMILES>  (23) 
O=C([O-])/C=C\c1ccc(-c2ccc(OCc3ccccc3)cc2)cc1

>  <Energy>  (23) 
57.32835594301074

>  <Genealogy>  (23) 
O=C([O-])C=Cc1ccc(-c2ccc(OCc3ccccc3)cc2)cc1 (protonated)
O=C([O-])/C=C\c1ccc(-c2ccc(OCc3ccccc3)cc2)cc1 (cis-trans isomerization)
O=C([O-])/C=C\c1ccc(-c2ccc(OCc3ccccc3)cc2)cc1 (3D coordinates assigned)
O=C([O-])/C=C\c1ccc(-c2ccc(OCc3ccccc3)cc2)cc1 (optimized conformer: 57.32835594301074 kcal/mol)

>  <smiles>  (23) 
O=C(O)C=Cc1ccc(-c2ccc(OCc3ccccc3)cc2)cc1

>  <score_type>  (23) 
oracle

>  <origin>  (23) 
adgpu

>  <m_score__min__energy>  (23) 
-10.25

>  <m_primary>  (23) 
energy

$$$$
23:0
     RDKit          3D

 50 52  0  0  0  0  0  0  0  0999 V2000
   -6.7370   16.3890  -33.9630 C   0  0  0  0  0  0  0  0  0  0  0  0
   -6.8370   17.7750  -33.4040 C   0  0  0  0  0  0  0  0  0  0  0  0
   -6.1150   18.8270  -33.9840 C   0  0  0  0  0  0  0  0  0  0  0  0
   -6.1900   20.1110  -33.4450 C   0  0  0  0  0  0  0  0  0  0  0  0
   -6.9790   20.3570  -32.3130 C   0  0  0  0  0  0  0  0  0  0  0  0
   -7.0790   21.9840  -31.6450 S   0  0  0  0  0  0  0  0  0  0  0  0
   -8.0450   21.9640  -30.4970 O   0  0  0  0  0  0  0  0  0  0  0  0
   -7.6290   22.8950  -32.7040 O   0  0  0  0  0  0  0  0  0  0  0  0
   -5.5070   22.5780  -31.1340 N   0  0  1  0  0  0  0  0  0  0  0  0
   -5.6360   23.6960  -30.1640 C   0  0  0  0  0  0  0  0  0  0  0  0
   -4.8990   24.9690  -30.5300 C   0  0  0  0  0  0  0  0  0  0  0  0
   -5.5150   25.8660  -31.1670 O   0  0  0  0  0  0  0  0  0  0  0  0
   -3.4920   25.1050  -30.2760 N   0  0  0  0  0  0  0  0  0  0  0  0
   -2.7420   24.5260  -29.1960 C   0  0  0  0  0  0  0  0  0  0  0  0
   -3.3190   23.4620  -28.4920 C   0  0  0  0  0  0  0  0  0  0  0  0
   -2.6660   22.9020  -27.3900 C   0  0  0  0  0  0  0  0  0  0  0  0
   -1.4390   23.4150  -26.9680 C   0  0  0  0  0  0  0  0  0  0  0  0
   -0.8320   22.9040  -25.8710 F   0  0  0  0  0  0  0  0  0  0  0  0
   -0.8620   24.4890  -27.6490 C   0  0  0  0  0  0  0  0  0  0  0  0
   -1.5010   25.0500  -28.7580 C   0  0  0  0  0  0  0  0  0  0  0  0
   -0.9430   26.1440  -29.3350 F   0  0  0  0  0  0  0  0  0  0  0  0
   -4.6050   21.4930  -30.6580 C   0  0  0  0  0  0  0  0  0  0  0  0
   -3.3090   21.4240  -31.4380 C   0  0  0  0  0  0  0  0  0  0  0  0
   -3.3210   21.2510  -32.8330 C   0  0  0  0  0  0  0  0  0  0  0  0
   -2.1210   21.1590  -33.5450 C   0  0  0  0  0  0  0  0  0  0  0  0
   -0.9010   21.2080  -32.8660 C   0  0  0  0  0  0  0  0  0  0  0  0
   -0.8780   21.3560  -31.4760 C   0  0  0  0  0  0  0  0  0  0  0  0
   -2.0750   21.4580  -30.7640 C   0  0  0  0  0  0  0  0  0  0  0  0
   -7.6840   19.3040  -31.7200 C   0  0  0  0  0  0  0  0  0  0  0  0
   -7.6100   18.0170  -32.2610 C   0  0  0  0  0  0  0  0  0  0  0  0
   -6.6847   15.6637  -33.1377 H   0  0  0  0  0  0  0  0  0  0  0  0
   -7.6223   16.1781  -34.5809 H   0  0  0  0  0  0  0  0  0  0  0  0
   -5.8306   16.3074  -34.5809 H   0  0  0  0  0  0  0  0  0  0  0  0
   -5.4870   18.6392  -34.8674 H   0  0  0  0  0  0  0  0  0  0  0  0
   -5.6277   20.9341  -33.9101 H   0  0  0  0  0  0  0  0  0  0  0  0
   -5.0950   23.0100  -31.9930 H   0  0  0  0  0  0  0  0  0  0  0  0
   -6.7045   23.9392  -30.0681 H   0  0  0  0  0  0  0  0  0  0  0  0
   -5.1755   23.3394  -29.2309 H   0  0  0  0  0  0  0  0  0  0  0  0
   -4.2941   23.0635  -28.8087 H   0  0  0  0  0  0  0  0  0  0  0  0
   -3.1204   22.0553  -26.8546 H   0  0  0  0  0  0  0  0  0  0  0  0
    0.1021   24.8962  -27.3102 H   0  0  0  0  0  0  0  0  0  0  0  0
   -4.3687   21.6716  -29.5986 H   0  0  0  0  0  0  0  0  0  0  0  0
   -5.1305   20.5376  -30.8030 H   0  0  0  0  0  0  0  0  0  0  0  0
   -4.2802   21.1876  -33.3678 H   0  0  0  0  0  0  0  0  0  0  0  0
   -2.1376   21.0481  -34.6393 H   0  0  0  0  0  0  0  0  0  0  0  0
    0.0427   21.1300  -33.4258 H   0  0  0  0  0  0  0  0  0  0  0  0
    0.0835   21.3921  -30.9429 H   0  0  0  0  0  0  0  0  0  0  0  0
   -2.0526   21.5656  -29.6695 H   0  0  0  0  0  0  0  0  0  0  0  0
   -8.2978   19.4891  -30.8262 H   0  0  0  0  0  0  0  0  0  0  0  0
   -8.1609   17.1911  -31.7873 H   0  0  0  0  0  0  0  0  0  0  0  0
  1  2  1  0
  2  3  2  0
  3  4  1  0
  4  5  2  0
  5  6  1  0
  6  7  2  0
  6  8  2  0
  6  9  1  0
  9 10  1  0
 10 11  1  0
 11 12  2  0
 11 13  1  0
 13 14  1  0
 14 15  2  0
 15 16  1  0
 16 17  2  0
 17 18  1  0
 17 19  1  0
 19 20  2  0
 20 21  1  0
  9 22  1  0
 22 23  1  0
 23 24  2  0
 24 25  1  0
 25 26  2  0
 26 27  1  0
 27 28  2  0
  5 29  1  0
 29 30  2  0
 30  2  1  0
 20 14  1  0
 28 23  1  0
  1 31  1  0
  1 32  1  0
  1 33  1  0
  3 34  1  0
  4 35  1  0
  9 36  1  6
 10 37  1  0
 10 38  1  0
 15 39  1  0
 16 40  1  0
 19 41  1  0
 22 42  1  0
 22 43  1  0
 24 44  1  0
 25 45  1  0
 26 46  1  0
 27 47  1  0
 28 48  1  0
 29 49  1  0
 30 50  1  0
M  CHG  2   9   1  13  -1
M  END
>  <UniqueID>  (24) 
18

>  <SMILES>  (24) 
Cc1ccc(S(=O)(=O)[N@@H+](CC(=O)[N-]c2ccc(F)cc2F)Cc2ccccc2)cc1

>  <Energy>  (24) 
62.03738691069318

>  <Genealogy>  (24) 
Cc1ccc(S(=O)(=O)[NH+](CC(=O)[N-]c2ccc(F)cc2F)Cc2ccccc2)cc1 (protonated)
Cc1ccc(S(=O)(=O)[N@@H+](CC(=O)[N-]c2ccc(F)cc2F)Cc2ccccc2)cc1 (chirality)
Cc1ccc(S(=O)(=O)[N@@H+](CC(=O)[N-]c2ccc(F)cc2F)Cc2ccccc2)cc1 (3D coordinates assigned)
Cc1ccc(S(=O)(=O)[N@@H+](CC(=O)[N-]c2ccc(F)cc2F)Cc2ccccc2)cc1 (optimized conformer: 62.03738691069318 kcal/mol)

>  <smiles>  (24) 
Cc1ccc(S(=O)(=O)N(CC(=O)Nc2ccc(F)cc2F)Cc2ccccc2)cc1

>  <score_type>  (24) 
oracle

>  <origin>  (24) 
adgpu

>  <m_score__min__energy>  (24) 
-10.27

>  <m_primary>  (24) 
energy

$$$$
24:0
     RDKit          3D

 46 48  0  0  0  0  0  0  0  0999 V2000
   -4.7530   15.4080  -32.8500 C   0  0  0  0  0  0  0  0  0  0  0  0
   -3.9610   16.6660  -33.0860 C   0  0  0  0  0  0  0  0  0  0  0  0
   -2.6140   16.5550  -33.4680 C   0  0  0  0  0  0  0  0  0  0  0  0
   -1.8310   17.6940  -33.6620 C   0  0  0  0  0  0  0  0  0  0  0  0
   -2.3720   18.9720  -33.4680 C   0  0  0  0  0  0  0  0  0  0  0  0
   -1.5320   20.1780  -33.6960 C   0  0  0  0  0  0  0  0  0  0  0  0
   -1.1910   20.4800  -34.8720 O   0  0  0  0  0  0  0  0  0  0  0  0
   -1.1380   21.0510  -32.6270 N   0  0  0  0  0  0  0  0  0  0  0  0
   -1.3020   20.8030  -31.2210 C   0  0  0  0  0  0  0  0  0  0  0  0
   -0.5530   19.8160  -30.5510 C   0  0  0  0  0  0  0  0  0  0  0  0
   -0.7450   19.5950  -29.1820 C   0  0  0  0  0  0  0  0  0  0  0  0
    0.1630   18.3390  -28.3600 Cl  0  0  0  0  0  0  0  0  0  0  0  0
   -1.6700   20.3710  -28.4730 C   0  0  0  0  0  0  0  0  0  0  0  0
   -2.3980   21.3700  -29.1280 C   0  0  0  0  0  0  0  0  0  0  0  0
   -3.5520   22.3480  -28.2350 Cl  0  0  0  0  0  0  0  0  0  0  0  0
   -2.2100   21.5880  -30.4980 C   0  0  0  0  0  0  0  0  0  0  0  0
   -3.7220   19.0900  -33.0890 C   0  0  0  0  0  0  0  0  0  0  0  0
   -4.5160   17.9510  -32.8770 C   0  0  0  0  0  0  0  0  0  0  0  0
   -6.1960   18.1660  -32.3510 S   0  0  0  0  0  0  0  0  0  0  0  0
   -7.0560   17.1220  -33.0080 O   0  0  0  0  0  0  0  0  0  0  0  0
   -6.3190   18.0010  -30.8580 O   0  0  0  0  0  0  0  0  0  0  0  0
   -6.7710   19.7430  -32.8020 N   0  0  0  0  0  0  0  0  0  0  0  0
   -6.3640   20.9830  -32.2070 C   0  0  0  0  0  0  0  0  0  0  0  0
   -7.1370   21.5140  -31.1660 C   0  0  0  0  0  0  0  0  0  0  0  0
   -6.7760   22.7200  -30.5570 C   0  0  0  0  0  0  0  0  0  0  0  0
   -5.6250   23.4050  -30.9740 C   0  0  0  0  0  0  0  0  0  0  0  0
   -5.1660   24.9150  -30.1910 S   0  0  0  0  0  0  0  0  0  0  0  0
   -3.5090   25.2710  -30.5370 N   0  0  0  0  0  0  0  0  0  0  0  0
   -6.0170   26.0440  -30.7100 O   0  0  0  0  0  0  0  0  0  0  0  0
   -5.3610   24.7910  -28.7040 O   0  0  0  0  0  0  0  0  0  0  0  0
   -4.8570   22.8890  -32.0270 C   0  0  0  0  0  0  0  0  0  0  0  0
   -5.2260   21.6890  -32.6430 C   0  0  0  0  0  0  0  0  0  0  0  0
   -4.8593   15.2392  -31.7682 H   0  0  0  0  0  0  0  0  0  0  0  0
   -5.7493   15.5112  -33.3046 H   0  0  0  0  0  0  0  0  0  0  0  0
   -4.2292   14.5542  -33.3046 H   0  0  0  0  0  0  0  0  0  0  0  0
   -2.1711   15.5590  -33.6160 H   0  0  0  0  0  0  0  0  0  0  0  0
   -0.7803   17.5875  -33.9698 H   0  0  0  0  0  0  0  0  0  0  0  0
    0.1849   19.2172  -31.1050 H   0  0  0  0  0  0  0  0  0  0  0  0
   -1.8246   20.1947  -27.3983 H   0  0  0  0  0  0  0  0  0  0  0  0
   -2.7778   22.3793  -31.0093 H   0  0  0  0  0  0  0  0  0  0  0  0
   -4.1621   20.0894  -32.9568 H   0  0  0  0  0  0  0  0  0  0  0  0
   -8.0350   20.9780  -30.8250 H   0  0  0  0  0  0  0  0  0  0  0  0
   -7.3967   23.1329  -29.7482 H   0  0  0  0  0  0  0  0  0  0  0  0
   -3.4910   26.0560  -31.2320 H   0  0  0  0  0  0  0  0  0  0  0  0
   -3.9621   23.4292  -32.3695 H   0  0  0  0  0  0  0  0  0  0  0  0
   -4.6232   21.2937  -33.4739 H   0  0  0  0  0  0  0  0  0  0  0  0
  1  2  1  0
  2  3  2  0
  3  4  1  0
  4  5  2  0
  5  6  1  0
  6  7  2  0
  6  8  1  0
  8  9  1  0
  9 10  2  0
 10 11  1  0
 11 12  1  0
 11 13  2  0
 13 14  1  0
 14 15  1  0
 14 16  2  0
  5 17  1  0
 17 18  2  0
 18 19  1  0
 19 20  2  0
 19 21  2  0
 19 22  1  0
 22 23  1  0
 23 24  2  0
 24 25  1  0
 25 26  2  0
 26 27  1  0
 27 28  1  0
 27 29  2  0
 27 30  2  0
 26 31  1  0
 31 32  2  0
 18  2  1  0
 32 23  1  0
 16  9  1  0
  1 33  1  0
  1 34  1  0
  1 35  1  0
  3 36  1  0
  4 37  1  0
 10 38  1  0
 13 39  1  0
 16 40  1  0
 17 41  1  0
 24 42  1  0
 25 43  1  0
 28 44  1  0
 31 45  1  0
 32 46  1  0
M  CHG  3   8  -1  22  -1  28  -1
M  END
>  <UniqueID>  (25) 
19

>  <SMILES>  (25) 
Cc1ccc(C(=O)[N-]c2cc(Cl)cc(Cl)c2)cc1S(=O)(=O)[N-]c1ccc(S([NH-])(=O)=O)cc1

>  <Energy>  (25) 
59.36947575803697

>  <Genealogy>  (25) 
Cc1ccc(C(=O)[N-]c2cc(Cl)cc(Cl)c2)cc1S(=O)(=O)[N-]c1ccc(S([NH-])(=O)=O)cc1 (protonated)
Cc1ccc(C(=O)[N-]c2cc(Cl)cc(Cl)c2)cc1S(=O)(=O)[N-]c1ccc(S([NH-])(=O)=O)cc1 (3D coordinates assigned)
Cc1ccc(C(=O)[N-]c2cc(Cl)cc(Cl)c2)cc1S(=O)(=O)[N-]c1ccc(S([NH-])(=O)=O)cc1 (optimized conformer: 59.36947575803697 kcal/mol)

>  <smiles>  (25) 
Cc1ccc(C(=O)Nc2cc(Cl)cc(Cl)c2)cc1S(=O)(=O)Nc1ccc(S(N)(=O)=O)cc1

>  <score_type>  (25) 
oracle

>  <origin>  (25) 
adgpu

>  <m_score__min__energy>  (25) 
-12.300000000000001

>  <m_primary>  (25) 
energy

$$$$
25:0
     RDKit          3D

 45 47  0  0  0  0  0  0  0  0999 V2000
   -1.9690   18.5680  -26.6570 C   0  0  0  0  0  0  0  0  0  0  0  0
   -0.8910   19.4020  -27.0650 O   0  0  0  0  0  0  0  0  0  0  0  0
   -1.0250   20.7480  -27.4430 C   0  0  0  0  0  0  0  0  0  0  0  0
   -1.4820   21.7330  -26.5480 C   0  0  0  0  0  0  0  0  0  0  0  0
   -1.6040   23.0610  -26.9580 C   0  0  0  0  0  0  0  0  0  0  0  0
   -1.2740   23.4360  -28.2700 C   0  0  0  0  0  0  0  0  0  0  0  0
   -1.4020   24.8480  -28.7050 C   0  0  0  0  0  0  0  0  0  0  0  0
   -0.4320   25.6410  -28.5620 O   0  0  0  0  0  0  0  0  0  0  0  0
   -2.6100   25.2970  -29.3370 N   0  0  0  0  0  0  0  0  0  0  0  0
   -3.6560   24.4700  -29.8700 C   0  0  0  0  0  0  0  0  0  0  0  0
   -4.9910   24.5870  -29.4440 C   0  0  0  0  0  0  0  0  0  0  0  0
   -5.9750   23.7450  -29.9700 C   0  0  0  0  0  0  0  0  0  0  0  0
   -5.6430   22.7630  -30.9220 C   0  0  0  0  0  0  0  0  0  0  0  0
   -6.6880   21.8690  -31.4810 C   0  0  0  0  0  0  0  0  0  0  0  0
   -8.0460   22.0740  -31.1760 C   0  0  0  0  0  0  0  0  0  0  0  0
   -9.0270   21.2310  -31.7050 C   0  0  0  0  0  0  0  0  0  0  0  0
   -8.6700   20.1710  -32.5460 C   0  0  0  0  0  0  0  0  0  0  0  0
   -9.6750   19.3080  -33.0860 N   0  0  0  0  0  0  0  0  0  0  0  0
   -7.3200   19.9600  -32.8560 C   0  0  0  0  0  0  0  0  0  0  0  0
   -6.3360   20.8020  -32.3280 C   0  0  0  0  0  0  0  0  0  0  0  0
   -4.3020   22.6360  -31.3240 C   0  0  0  0  0  0  0  0  0  0  0  0
   -3.3200   23.4760  -30.7950 C   0  0  0  0  0  0  0  0  0  0  0  0
   -0.8170   22.4510  -29.1650 C   0  0  0  0  0  0  0  0  0  0  0  0
   -0.6910   21.1090  -28.7570 C   0  0  0  0  0  0  0  0  0  0  0  0
   -0.2380   20.1040  -29.6270 O   0  0  0  0  0  0  0  0  0  0  0  0
   -0.7310   19.8940  -30.9460 C   0  0  0  0  0  0  0  0  0  0  0  0
   -2.0116   18.5351  -25.5583 H   0  0  0  0  0  0  0  0  0  0  0  0
   -2.9140   18.9724  -27.0486 H   0  0  0  0  0  0  0  0  0  0  0  0
   -1.8149   17.5517  -27.0486 H   0  0  0  0  0  0  0  0  0  0  0  0
   -1.7451   21.4538  -25.5171 H   0  0  0  0  0  0  0  0  0  0  0  0
   -1.9618   23.8205  -26.2473 H   0  0  0  0  0  0  0  0  0  0  0  0
   -5.2621   25.3443  -28.6937 H   0  0  0  0  0  0  0  0  0  0  0  0
   -7.0180   23.8508  -29.6369 H   0  0  0  0  0  0  0  0  0  0  0  0
   -8.3379   22.9042  -30.5161 H   0  0  0  0  0  0  0  0  0  0  0  0
  -10.0855   21.4016  -31.4590 H   0  0  0  0  0  0  0  0  0  0  0  0
   -9.8830   19.3050  -34.1100 H   0  0  0  0  0  0  0  0  0  0  0  0
  -10.2190   18.6690  -32.4670 H   0  0  0  0  0  0  0  0  0  0  0  0
   -7.0330   19.1290  -33.5171 H   0  0  0  0  0  0  0  0  0  0  0  0
   -5.2786   20.6287  -32.5768 H   0  0  0  0  0  0  0  0  0  0  0  0
   -4.0239   21.8686  -32.0614 H   0  0  0  0  0  0  0  0  0  0  0  0
   -2.2726   23.3549  -31.1086 H   0  0  0  0  0  0  0  0  0  0  0  0
   -0.5551   22.7326  -30.1956 H   0  0  0  0  0  0  0  0  0  0  0  0
   -1.7419   19.4634  -30.8953 H   0  0  0  0  0  0  0  0  0  0  0  0
   -0.7680   20.8545  -31.4809 H   0  0  0  0  0  0  0  0  0  0  0  0
   -0.0640   19.2019  -31.4809 H   0  0  0  0  0  0  0  0  0  0  0  0
  1  2  1  0
  2  3  1  0
  3  4  2  0
  4  5  1  0
  5  6  2  0
  6  7  1  0
  7  8  2  0
  7  9  1  0
  9 10  1  0
 10 11  2  0
 11 12  1  0
 12 13  2  0
 13 14  1  0
 14 15  2  0
 15 16  1  0
 16 17  2  0
 17 18  1  0
 17 19  1  0
 19 20  2  0
 13 21  1  0
 21 22  2  0
  6 23  1  0
 23 24  2  0
 24 25  1  0
 25 26  1  0
 24  3  1  0
 22 10  1  0
 20 14  1  0
  1 27  1  0
  1 28  1  0
  1 29  1  0
  4 30  1  0
  5 31  1  0
 11 32  1  0
 12 33  1  0
 15 34  1  0
 16 35  1  0
 18 36  1  0
 18 37  1  0
 19 38  1  0
 20 39  1  0
 21 40  1  0
 22 41  1  0
 23 42  1  0
 26 43  1  0
 26 44  1  0
 26 45  1  0
M  CHG  1   9  -1
M  END
>  <UniqueID>  (26) 
20

>  <SMILES>  (26) 
COc1ccc(C(=O)[N-]c2ccc(-c3ccc(N)cc3)cc2)cc1OC

>  <Energy>  (26) 
55.4264989365407

>  <Genealogy>  (26) 
COc1ccc(C(=O)[N-]c2ccc(-c3ccc(N)cc3)cc2)cc1OC (protonated)
COc1ccc(C(=O)[N-]c2ccc(-c3ccc(N)cc3)cc2)cc1OC (3D coordinates assigned)
COc1ccc(C(=O)[N-]c2ccc(-c3ccc(N)cc3)cc2)cc1OC (optimized conformer: 55.4264989365407 kcal/mol)

>  <smiles>  (26) 
COc1ccc(C(=O)Nc2ccc(-c3ccc(N)cc3)cc2)cc1OC

>  <score_type>  (26) 
oracle

>  <origin>  (26) 
adgpu

>  <m_score__min__energy>  (26) 
-9.9000000000000004

>  <m_primary>  (26) 
energy

$$$$
26:0
     RDKit          3D

 30 32  0  0  0  0  0  0  0  0999 V2000
    0.6790   28.2270  -26.5710 C   0  0  0  0  0  0  0  0  0  0  0  0
    0.3120   26.8760  -27.1090 C   0  0  0  0  0  0  0  0  0  0  0  0
    1.1870   25.7920  -26.9460 C   0  0  0  0  0  0  0  0  0  0  0  0
    0.8680   24.5380  -27.4770 C   0  0  0  0  0  0  0  0  0  0  0  0
   -0.3280   24.3570  -28.1920 C   0  0  0  0  0  0  0  0  0  0  0  0
   -0.6900   23.1110  -28.7390 C   0  0  0  0  0  0  0  0  0  0  0  0
    0.0520   22.1020  -28.5950 O   0  0  0  0  0  0  0  0  0  0  0  0
   -1.8880   22.9870  -29.4490 C   0  0  0  0  0  0  0  0  0  0  0  0
   -2.7230   24.1040  -29.6180 C   0  0  0  0  0  0  0  0  0  0  0  0
   -4.0060   24.0150  -30.3610 C   0  0  0  0  0  0  0  0  0  0  0  0
   -5.0310   24.9660  -30.1770 C   0  0  0  0  0  0  0  0  0  0  0  0
   -6.2340   24.8570  -30.8820 C   0  0  0  0  0  0  0  0  0  0  0  0
   -6.4320   23.8010  -31.7730 C   0  0  0  0  0  0  0  0  0  0  0  0
   -5.4300   22.8450  -31.9560 C   0  0  0  0  0  0  0  0  0  0  0  0
   -4.2260   22.9480  -31.2540 C   0  0  0  0  0  0  0  0  0  0  0  0
   -2.3550   25.2970  -29.0700 N   0  0  0  0  0  0  0  0  0  0  0  0
   -1.1990   25.4530  -28.3740 C   0  0  0  0  0  0  0  0  0  0  0  0
   -0.8730   26.7050  -27.8380 C   0  0  0  0  0  0  0  0  0  0  0  0
    0.6712   28.1983  -25.4714 H   0  0  0  0  0  0  0  0  0  0  0  0
    1.6842   28.5014  -26.9235 H   0  0  0  0  0  0  0  0  0  0  0  0
   -0.0492   28.9723  -26.9235 H   0  0  0  0  0  0  0  0  0  0  0  0
    2.1303   25.9290  -26.3970 H   0  0  0  0  0  0  0  0  0  0  0  0
    1.5553   23.6911  -27.3345 H   0  0  0  0  0  0  0  0  0  0  0  0
   -2.1767   22.0149  -29.8752 H   0  0  0  0  0  0  0  0  0  0  0  0
   -4.8833   25.7992  -29.4742 H   0  0  0  0  0  0  0  0  0  0  0  0
   -7.0263   25.6056  -30.7339 H   0  0  0  0  0  0  0  0  0  0  0  0
   -7.3767   23.7216  -32.3309 H   0  0  0  0  0  0  0  0  0  0  0  0
   -5.5889   22.0097  -32.6539 H   0  0  0  0  0  0  0  0  0  0  0  0
   -3.4432   22.1892  -31.4001 H   0  0  0  0  0  0  0  0  0  0  0  0
   -1.5502   27.5585  -27.9898 H   0  0  0  0  0  0  0  0  0  0  0  0
  1  2  1  0
  2  3  2  0
  3  4  1  0
  4  5  2  0
  5  6  1  0
  6  7  2  0
  6  8  1  0
  8  9  2  0
  9 10  1  0
 10 11  2  0
 11 12  1  0
 12 13  2  0
 13 14  1  0
 14 15  2  0
  9 16  1  0
 16 17  1  0
 17 18  2  0
 18  2  1  0
 17  5  1  0
 15 10  1  0
  1 19  1  0
  1 20  1  0
  1 21  1  0
  3 22  1  0
  4 23  1  0
  8 24  1  0
 11 25  1  0
 12 26  1  0
 13 27  1  0
 14 28  1  0
 15 29  1  0
 18 30  1  0
M  CHG  1  16  -1
M  END
>  <UniqueID>  (27) 
21

>  <SMILES>  (27) 
Cc1ccc2c(=O)cc(-c3ccccc3)[n-]c2c1

>  <Energy>  (27) 
40.49778579231635

>  <Genealogy>  (27) 
Cc1ccc2c(=O)cc(-c3ccccc3)[n-]c2c1 (protonated)
Cc1ccc2c(=O)cc(-c3ccccc3)[n-]c2c1 (3D coordinates assigned)
Cc1ccc2c(=O)cc(-c3ccccc3)[n-]c2c1 (optimized conformer: 40.49778579231635 kcal/mol)

>  <smiles>  (27) 
Cc1ccc2c(=O)cc(-c3ccccc3)[nH]c2c1

>  <score_type>  (27) 
oracle

>  <origin>  (27) 
adgpu

>  <m_score__min__energy>  (27) 
-7.75

>  <m_primary>  (27) 
energy

$$$$
27:0
     RDKit          3D

 63 68  0  0  0  0  0  0  0  0999 V2000
   -0.5650   24.7140  -24.0880 C   0  0  0  0  0  0  0  0  0  0  0  0
   -0.6720   25.4620  -25.3840 C   0  0  0  0  0  0  0  0  0  0  0  0
    0.0610   26.6410  -25.5740 C   0  0  0  0  0  0  0  0  0  0  0  0
   -0.0180   27.3320  -26.7840 C   0  0  0  0  0  0  0  0  0  0  0  0
   -0.8140   26.8400  -27.8230 C   0  0  0  0  0  0  0  0  0  0  0  0
   -1.5220   25.6340  -27.6620 C   0  0  0  0  0  0  0  0  0  0  0  0
   -2.3700   25.1000  -28.6930 N   0  0  0  0  0  0  0  0  0  0  0  0
   -2.2780   23.9310  -29.2560 C   0  0  0  0  0  0  0  0  0  0  0  0
   -1.3650   23.0600  -28.8290 O   0  0  0  0  0  0  0  0  0  0  0  0
   -1.2150   21.8430  -29.3370 C   0  0  0  0  0  0  0  0  0  0  0  0
   -0.2390   20.9870  -28.8230 C   0  0  0  0  0  0  0  0  0  0  0  0
    0.5280   21.4000  -27.9090 O   0  0  0  0  0  0  0  0  0  0  0  0
   -0.1150   19.7190  -29.3240 N   0  0  0  0  0  0  0  0  0  0  0  0
    0.8600   18.7910  -28.8090 C   0  0  0  0  0  0  0  0  0  0  0  0
    2.2330   18.9640  -29.0710 C   0  0  0  0  0  0  0  0  0  0  0  0
    3.1710   18.0700  -28.5440 C   0  0  0  0  0  0  0  0  0  0  0  0
    2.7510   17.0040  -27.7460 C   0  0  0  0  0  0  0  0  0  0  0  0
    1.3920   16.8330  -27.4660 C   0  0  0  0  0  0  0  0  0  0  0  0
    0.4510   17.7250  -27.9890 C   0  0  0  0  0  0  0  0  0  0  0  0
   -0.8900   19.3150  -30.3360 N   0  0  0  0  0  0  0  0  0  0  0  0
   -1.8390   20.1070  -30.9010 C   0  0  0  0  0  0  0  0  0  0  0  0
   -2.6140   19.5580  -32.0320 C   0  0  0  0  0  0  0  0  0  0  0  0
   -4.0160   19.6510  -32.0570 C   0  0  0  0  0  0  0  0  0  0  0  0
   -4.7370   19.1520  -33.1460 C   0  0  0  0  0  0  0  0  0  0  0  0
   -4.0630   18.5730  -34.2250 C   0  0  0  0  0  0  0  0  0  0  0  0
   -2.6670   18.4970  -34.2180 C   0  0  0  0  0  0  0  0  0  0  0  0
   -1.9430   18.9940  -33.1290 C   0  0  0  0  0  0  0  0  0  0  0  0
   -2.0380   21.4060  -30.3850 C   0  0  0  0  0  0  0  0  0  0  0  0
   -3.0350   22.2780  -30.8450 C   0  0  0  0  0  0  0  0  0  0  0  0
   -3.1690   23.5640  -30.2960 C   0  0  0  0  0  0  0  0  0  0  0  0
   -4.2270   24.4770  -30.8220 C   0  0  0  0  0  0  0  0  0  0  0  0
   -4.2590   25.6780  -30.4410 O   0  0  0  0  0  0  0  0  0  0  0  0
   -5.1810   24.0170  -31.7900 N   0  0  0  0  0  0  0  0  0  0  0  0
   -6.2470   23.0810  -31.5790 C   0  0  0  0  0  0  0  0  0  0  0  0
   -7.0720   23.1310  -30.4400 C   0  0  0  0  0  0  0  0  0  0  0  0
   -8.0820   22.1790  -30.2590 C   0  0  0  0  0  0  0  0  0  0  0  0
   -8.2690   21.1650  -31.2040 C   0  0  0  0  0  0  0  0  0  0  0  0
   -7.4350   21.0950  -32.3240 C   0  0  0  0  0  0  0  0  0  0  0  0
   -7.6060   20.1020  -33.2320 F   0  0  0  0  0  0  0  0  0  0  0  0
   -6.4240   22.0450  -32.5070 C   0  0  0  0  0  0  0  0  0  0  0  0
   -1.4600   24.9620  -26.4350 C   0  0  0  0  0  0  0  0  0  0  0  0
   -0.6657   25.4181  -23.2489 H   0  0  0  0  0  0  0  0  0  0  0  0
   -1.3645   23.9605  -24.0324 H   0  0  0  0  0  0  0  0  0  0  0  0
    0.4137   24.2149  -24.0324 H   0  0  0  0  0  0  0  0  0  0  0  0
    0.7016   27.0237  -24.7658 H   0  0  0  0  0  0  0  0  0  0  0  0
    0.5472   28.2658  -26.9206 H   0  0  0  0  0  0  0  0  0  0  0  0
   -0.8872   27.3969  -28.7688 H   0  0  0  0  0  0  0  0  0  0  0  0
    2.5694   19.8064  -29.6932 H   0  0  0  0  0  0  0  0  0  0  0  0
    4.2411   18.2070  -28.7586 H   0  0  0  0  0  0  0  0  0  0  0  0
    3.4896   16.2986  -27.3375 H   0  0  0  0  0  0  0  0  0  0  0  0
    1.0627   15.9956  -26.8334 H   0  0  0  0  0  0  0  0  0  0  0  0
   -0.6161   17.5918  -27.7574 H   0  0  0  0  0  0  0  0  0  0  0  0
   -4.5487   20.1186  -31.2158 H   0  0  0  0  0  0  0  0  0  0  0  0
   -5.8352   19.2151  -33.1537 H   0  0  0  0  0  0  0  0  0  0  0  0
   -4.6310   18.1771  -35.0798 H   0  0  0  0  0  0  0  0  0  0  0  0
   -2.1372   18.0458  -35.0699 H   0  0  0  0  0  0  0  0  0  0  0  0
   -0.8442   18.9428  -33.1321 H   0  0  0  0  0  0  0  0  0  0  0  0
   -3.7184   21.9521  -31.6430 H   0  0  0  0  0  0  0  0  0  0  0  0
   -6.9226   23.9210  -29.6893 H   0  0  0  0  0  0  0  0  0  0  0  0
   -8.7301   22.2284  -29.3716 H   0  0  0  0  0  0  0  0  0  0  0  0
   -9.0704   20.4242  -31.0664 H   0  0  0  0  0  0  0  0  0  0  0  0
   -5.7640   21.9786  -33.3845 H   0  0  0  0  0  0  0  0  0  0  0  0
   -2.0334   24.0341  -26.2924 H   0  0  0  0  0  0  0  0  0  0  0  0
  1  2  1  0
  2  3  2  0
  3  4  1  0
  4  5  2  0
  5  6  1  0
  6  7  1  0
  7  8  2  3
  8  9  1  0
  9 10  1  0
 10 11  1  0
 11 12  2  0
 11 13  1  0
 13 14  1  0
 14 15  2  0
 15 16  1  0
 16 17  2  0
 17 18  1  0
 18 19  2  0
 13 20  1  0
 20 21  2  0
 21 22  1  0
 22 23  2  0
 23 24  1  0
 24 25  2  0
 25 26  1  0
 26 27  2  0
 21 28  1  0
 28 29  1  0
 29 30  2  0
 30 31  1  0
 31 32  2  0
 31 33  1  0
 33 34  1  0
 34 35  2  0
 35 36  1  0
 36 37  2  0
 37 38  1  0
 38 39  1  0
 38 40  2  0
  6 41  2  0
 41  2  1  0
 30  8  1  0
 40 34  1  0
 28 10  2  0
 19 14  1  0
 27 22  1  0
  1 42  1  0
  1 43  1  0
  1 44  1  0
  3 45  1  0
  4 46  1  0
  5 47  1  0
 15 48  1  0
 16 49  1  0
 17 50  1  0
 18 51  1  0
 19 52  1  0
 23 53  1  0
 24 54  1  0
 25 55  1  0
 26 56  1  0
 27 57  1  0
 29 58  1  0
 35 59  1  0
 36 60  1  0
 37 61  1  0
 40 62  1  0
 41 63  1  0
M  CHG  1  33  -1
M  END
>  <UniqueID>  (28) 
22

>  <SMILES>  (28) 
Cc1cccc(N=c2oc3c(=O)n(-c4ccccc4)nc(-c4ccccc4)c3cc2C(=O)[N-]c2cccc(F)c2)c1

>  <Energy>  (28) 
103.25316130689923

>  <Genealogy>  (28) 
Cc1cccc(N=c2oc3c(=O)n(-c4ccccc4)nc(-c4ccccc4)c3cc2C(=O)[N-]c2cccc(F)c2)c1 (protonated)
Cc1cccc(N=c2oc3c(=O)n(-c4ccccc4)nc(-c4ccccc4)c3cc2C(=O)[N-]c2cccc(F)c2)c1 (3D coordinates assigned)
Cc1cccc(N=c2oc3c(=O)n(-c4ccccc4)nc(-c4ccccc4)c3cc2C(=O)[N-]c2cccc(F)c2)c1 (optimized conformer: 103.25316130689923 kcal/mol)

>  <smiles>  (28) 
Cc1cccc(N=c2oc3c(=O)n(-c4ccccc4)nc(-c4ccccc4)c3cc2C(=O)Nc2cccc(F)c2)c1

>  <score_type>  (28) 
oracle

>  <origin>  (28) 
adgpu

>  <m_score__min__energy>  (28) 
-11.390000000000001

>  <m_primary>  (28) 
energy

$$$$
28:0
     RDKit          3D

 38 40  0  0  0  0  0  0  0  0999 V2000
   -2.9500   19.1910  -26.6800 C   0  0  0  0  0  0  0  0  0  0  0  0
   -1.6330   20.4150  -26.3990 S   0  0  0  0  0  0  0  0  0  0  0  0
   -1.8010   21.1480  -28.0280 C   0  0  0  0  0  0  0  0  0  0  0  0
   -1.6700   20.3520  -29.1690 C   0  0  0  0  0  0  0  0  0  0  0  0
   -1.7970   20.9220  -30.4380 C   0  0  0  0  0  0  0  0  0  0  0  0
   -2.0540   22.2900  -30.5700 C   0  0  0  0  0  0  0  0  0  0  0  0
   -2.1870   23.1040  -29.4300 C   0  0  0  0  0  0  0  0  0  0  0  0
   -2.4580   24.5550  -29.5680 C   0  0  0  0  0  0  0  0  0  0  0  0
   -1.8090   25.3840  -28.8730 O   0  0  0  0  0  0  0  0  0  0  0  0
   -3.4910   25.0120  -30.4510 N   0  0  0  0  0  0  0  0  0  0  0  0
   -4.8410   24.5290  -30.5120 C   0  0  0  0  0  0  0  0  0  0  0  0
   -5.9240   25.2770  -30.0200 C   0  0  0  0  0  0  0  0  0  0  0  0
   -7.2240   24.7790  -30.1200 C   0  0  0  0  0  0  0  0  0  0  0  0
   -7.4600   23.5420  -30.7230 C   0  0  0  0  0  0  0  0  0  0  0  0
   -6.3920   22.7890  -31.2440 C   0  0  0  0  0  0  0  0  0  0  0  0
   -6.6300   21.4810  -31.8970 C   0  0  0  0  0  0  0  0  0  0  0  0
   -7.7080   20.7040  -31.6420 N   0  0  0  0  0  0  0  0  0  0  0  0
   -7.7000   19.5550  -32.3710 C   0  0  0  0  0  0  0  0  0  0  0  0
   -8.7690   18.5220  -32.2250 C   0  0  0  0  0  0  0  0  0  0  0  0
   -6.6000   19.3900  -33.2070 C   0  0  0  0  0  0  0  0  0  0  0  0
   -5.6240   20.7470  -33.0330 S   0  0  0  0  0  0  0  0  0  0  0  0
   -5.0850   23.3000  -31.1390 C   0  0  0  0  0  0  0  0  0  0  0  0
   -2.0550   22.5200  -28.1570 C   0  0  0  0  0  0  0  0  0  0  0  0
   -3.3327   18.8354  -25.7120 H   0  0  0  0  0  0  0  0  0  0  0  0
   -3.7681   19.6568  -27.2489 H   0  0  0  0  0  0  0  0  0  0  0  0
   -2.5453   18.3410  -27.2489 H   0  0  0  0  0  0  0  0  0  0  0  0
   -1.4667   19.2757  -29.0678 H   0  0  0  0  0  0  0  0  0  0  0  0
   -1.6946   20.2935  -31.3350 H   0  0  0  0  0  0  0  0  0  0  0  0
   -2.1529   22.7330  -31.5720 H   0  0  0  0  0  0  0  0  0  0  0  0
   -5.7467   26.2579  -29.5547 H   0  0  0  0  0  0  0  0  0  0  0  0
   -8.0664   25.3637  -29.7220 H   0  0  0  0  0  0  0  0  0  0  0  0
   -8.4870   23.1540  -30.7911 H   0  0  0  0  0  0  0  0  0  0  0  0
   -8.9585   18.3389  -31.1570 H   0  0  0  0  0  0  0  0  0  0  0  0
   -9.6920   18.8791  -32.7052 H   0  0  0  0  0  0  0  0  0  0  0  0
   -8.4437   17.5873  -32.7052 H   0  0  0  0  0  0  0  0  0  0  0  0
   -6.4048   18.5284  -33.8624 H   0  0  0  0  0  0  0  0  0  0  0  0
   -4.2434   22.7267  -31.5549 H   0  0  0  0  0  0  0  0  0  0  0  0
   -2.1518   23.1446  -27.2567 H   0  0  0  0  0  0  0  0  0  0  0  0
  1  2  1  0
  2  3  1  0
  3  4  2  0
  4  5  1  0
  5  6  2  0
  6  7  1  0
  7  8  1  0
  8  9  2  0
  8 10  1  0
 10 11  1  0
 11 12  2  0
 12 13  1  0
 13 14  2  0
 14 15  1  0
 15 16  1  0
 16 17  2  0
 17 18  1  0
 18 19  1  0
 18 20  2  0
 20 21  1  0
 15 22  2  0
  7 23  2  0
 23  3  1  0
 22 11  1  0
 21 16  1  0
  1 24  1  0
  1 25  1  0
  1 26  1  0
  4 27  1  0
  5 28  1  0
  6 29  1  0
 12 30  1  0
 13 31  1  0
 14 32  1  0
 19 33  1  0
 19 34  1  0
 19 35  1  0
 20 36  1  0
 22 37  1  0
 23 38  1  0
M  CHG  1  10  -1
M  END
>  <UniqueID>  (29) 
23

>  <SMILES>  (29) 
CSc1cccc(C(=O)[N-]c2cccc(-c3nc(C)cs3)c2)c1

>  <Energy>  (29) 
69.56201992548569

>  <Genealogy>  (29) 
CSc1cccc(C(=O)[N-]c2cccc(-c3nc(C)cs3)c2)c1 (protonated)
CSc1cccc(C(=O)[N-]c2cccc(-c3nc(C)cs3)c2)c1 (3D coordinates assigned)
CSc1cccc(C(=O)[N-]c2cccc(-c3nc(C)cs3)c2)c1 (optimized conformer: 69.56201992548569 kcal/mol)

>  <smiles>  (29) 
CSc1cccc(C(=O)Nc2cccc(-c3nc(C)cs3)c2)c1

>  <score_type>  (29) 
oracle

>  <origin>  (29) 
adgpu

>  <m_score__min__energy>  (29) 
-10.359999999999999

>  <m_primary>  (29) 
energy

$$$$
29:0
     RDKit          3D

 41 43  0  0  0  0  0  0  0  0999 V2000
   -8.3380   20.4510  -32.4800 C   0  0  0  0  0  0  0  0  0  0  0  0
   -8.6690   21.9350  -31.5560 S   0  0  0  0  0  0  0  0  0  0  0  0
   -9.3520   21.5790  -30.2660 O   0  0  0  0  0  0  0  0  0  0  0  0
   -9.5760   22.8320  -32.3500 O   0  0  0  0  0  0  0  0  0  0  0  0
   -7.1530   22.7660  -31.2230 C   0  0  0  0  0  0  0  0  0  0  0  0
   -7.1420   23.9040  -30.4070 C   0  0  0  0  0  0  0  0  0  0  0  0
   -5.9430   24.5770  -30.1570 C   0  0  0  0  0  0  0  0  0  0  0  0
   -4.7410   24.1180  -30.7090 C   0  0  0  0  0  0  0  0  0  0  0  0
   -3.5400   24.8590  -30.4510 N   0  0  0  0  0  0  0  0  0  0  0  0
   -2.6480   24.6890  -29.3400 C   0  0  0  0  0  0  0  0  0  0  0  0
   -1.9660   25.6650  -28.9230 O   0  0  0  0  0  0  0  0  0  0  0  0
   -2.4710   23.3450  -28.7410 C   0  0  0  0  0  0  0  0  0  0  0  0
   -3.6080   22.5580  -28.4830 C   0  0  0  0  0  0  0  0  0  0  0  0
   -3.4760   21.2800  -27.9430 C   0  0  0  0  0  0  0  0  0  0  0  0
   -2.2050   20.7870  -27.6560 C   0  0  0  0  0  0  0  0  0  0  0  0
   -1.1110   21.5560  -27.8900 N   0  0  0  0  0  0  0  0  0  0  0  0
   -1.2010   22.8090  -28.4120 C   0  0  0  0  0  0  0  0  0  0  0  0
    0.3230   23.7460  -28.5950 S   0  0  0  0  0  0  0  0  0  0  0  0
    0.0810   24.6190  -27.0470 C   0  0  0  0  0  0  0  0  0  0  0  0
    0.2810   26.0050  -26.9840 C   0  0  0  0  0  0  0  0  0  0  0  0
    0.1000   26.6840  -25.7760 C   0  0  0  0  0  0  0  0  0  0  0  0
   -0.2840   25.9830  -24.6270 C   0  0  0  0  0  0  0  0  0  0  0  0
   -0.5080   26.8350  -23.1100 Cl  0  0  0  0  0  0  0  0  0  0  0  0
   -0.4900   24.6000  -24.6900 C   0  0  0  0  0  0  0  0  0  0  0  0
   -0.3090   23.9190  -25.8980 C   0  0  0  0  0  0  0  0  0  0  0  0
   -4.7590   22.9910  -31.5510 C   0  0  0  0  0  0  0  0  0  0  0  0
   -5.9580   22.3190  -31.8030 C   0  0  0  0  0  0  0  0  0  0  0  0
   -8.1525   19.6195  -31.7841 H   0  0  0  0  0  0  0  0  0  0  0  0
   -9.2050   20.2125  -33.1136 H   0  0  0  0  0  0  0  0  0  0  0  0
   -7.4518   20.6035  -33.1136 H   0  0  0  0  0  0  0  0  0  0  0  0
   -8.0793   24.2690  -29.9618 H   0  0  0  0  0  0  0  0  0  0  0  0
   -5.9436   25.4747  -29.5213 H   0  0  0  0  0  0  0  0  0  0  0  0
   -4.6089   22.9543  -28.7092 H   0  0  0  0  0  0  0  0  0  0  0  0
   -4.3672   20.6662  -27.7452 H   0  0  0  0  0  0  0  0  0  0  0  0
   -2.0880   19.7754  -27.2401 H   0  0  0  0  0  0  0  0  0  0  0  0
    0.5806   26.5586  -27.8861 H   0  0  0  0  0  0  0  0  0  0  0  0
    0.2596   27.7713  -25.7281 H   0  0  0  0  0  0  0  0  0  0  0  0
   -0.7946   24.0482  -23.7885 H   0  0  0  0  0  0  0  0  0  0  0  0
   -0.4731   22.8324  -25.9460 H   0  0  0  0  0  0  0  0  0  0  0  0
   -3.8254   22.6374  -32.0129 H   0  0  0  0  0  0  0  0  0  0  0  0
   -5.9639   21.4360  -32.4590 H   0  0  0  0  0  0  0  0  0  0  0  0
  1  2  1  0
  2  3  2  0
  2  4  2  0
  2  5  1  0
  5  6  2  0
  6  7  1  0
  7  8  2  0
  8  9  1  0
  9 10  1  0
 10 11  2  0
 10 12  1  0
 12 13  2  0
 13 14  1  0
 14 15  2  0
 15 16  1  0
 16 17  2  0
 17 18  1  0
 18 19  1  0
 19 20  2  0
 20 21  1  0
 21 22  2  0
 22 23  1  0
 22 24  1  0
 24 25  2  0
  8 26  1  0
 26 27  2  0
 27  5  1  0
 17 12  1  0
 25 19  1  0
  1 28  1  0
  1 29  1  0
  1 30  1  0
  6 31  1  0
  7 32  1  0
 13 33  1  0
 14 34  1  0
 15 35  1  0
 20 36  1  0
 21 37  1  0
 24 38  1  0
 25 39  1  0
 26 40  1  0
 27 41  1  0
M  CHG  1   9  -1
M  END
>  <UniqueID>  (30) 
24

>  <SMILES>  (30) 
CS(=O)(=O)c1ccc([N-]C(=O)c2cccnc2Sc2ccc(Cl)cc2)cc1

>  <Energy>  (30) 
44.40496007949196

>  <Genealogy>  (30) 
CS(=O)(=O)c1ccc([N-]C(=O)c2cccnc2Sc2ccc(Cl)cc2)cc1 (protonated)
CS(=O)(=O)c1ccc([N-]C(=O)c2cccnc2Sc2ccc(Cl)cc2)cc1 (3D coordinates assigned)
CS(=O)(=O)c1ccc([N-]C(=O)c2cccnc2Sc2ccc(Cl)cc2)cc1 (optimized conformer: 44.40496007949196 kcal/mol)

>  <smiles>  (30) 
CS(=O)(=O)c1ccc(NC(=O)c2cccnc2Sc2ccc(Cl)cc2)cc1

>  <score_type>  (30) 
oracle

>  <origin>  (30) 
adgpu

>  <m_score__min__energy>  (30) 
-10.66

>  <m_primary>  (30) 
energy

$$$$
30:0
     RDKit          3D

 55 58  0  0  0  0  0  0  0  0999 V2000
   -2.1230   14.9570  -34.9290 C   0  0  0  0  0  0  0  0  0  0  0  0
   -3.1370   16.0050  -34.6090 C   0  0  0  0  0  0  0  0  0  0  0  0
   -4.4080   15.7510  -34.4110 O   0  0  0  0  0  0  0  0  0  0  0  0
   -5.0290   16.8750  -34.1230 C   0  0  0  0  0  0  0  0  0  0  0  0
   -6.4740   16.9270  -33.8380 C   0  0  0  0  0  0  0  0  0  0  0  0
   -7.2130   16.0760  -34.3960 O   0  0  0  0  0  0  0  0  0  0  0  0
   -7.0880   17.8770  -32.9560 N   0  0  0  0  0  0  0  0  0  0  0  0
   -6.5550   19.4760  -32.5400 S   0  0  0  0  0  0  0  0  0  0  0  0
   -5.3870   19.3940  -31.6000 O   0  0  0  0  0  0  0  0  0  0  0  0
   -6.0990   20.1550  -33.8000 O   0  0  0  0  0  0  0  0  0  0  0  0
   -7.8460   20.4800  -31.8130 C   0  0  0  0  0  0  0  0  0  0  0  0
   -7.3420   21.8400  -31.4190 C   0  0  0  0  0  0  0  0  0  0  0  0
   -7.5390   22.3200  -30.1130 C   0  0  0  0  0  0  0  0  0  0  0  0
   -7.0460   23.5740  -29.7430 C   0  0  0  0  0  0  0  0  0  0  0  0
   -6.3510   24.3550  -30.6690 C   0  0  0  0  0  0  0  0  0  0  0  0
   -6.1470   23.8820  -31.9690 C   0  0  0  0  0  0  0  0  0  0  0  0
   -6.6390   22.6300  -32.3430 C   0  0  0  0  0  0  0  0  0  0  0  0
   -4.1320   17.9280  -34.1650 C   0  0  0  0  0  0  0  0  0  0  0  0
   -2.9040   17.3590  -34.4420 C   0  0  0  0  0  0  0  0  0  0  0  0
   -1.5830   18.0750  -34.4940 C   0  0  0  0  0  0  0  0  0  0  0  0
   -1.7740   19.4910  -34.4470 O   0  0  0  0  0  0  0  0  0  0  0  0
   -2.1660   20.2100  -33.3050 C   0  0  0  0  0  0  0  0  0  0  0  0
   -3.1620   21.2030  -33.3420 C   0  0  0  0  0  0  0  0  0  0  0  0
   -3.4330   21.9740  -32.2090 C   0  0  0  0  0  0  0  0  0  0  0  0
   -2.7300   21.7530  -31.0120 C   0  0  0  0  0  0  0  0  0  0  0  0
   -2.9500   22.6330  -29.8380 C   0  0  0  0  0  0  0  0  0  0  0  0
   -3.9790   22.3530  -28.9190 C   0  0  0  0  0  0  0  0  0  0  0  0
   -4.2050   23.1970  -27.8290 C   0  0  0  0  0  0  0  0  0  0  0  0
   -3.4040   24.3250  -27.6380 C   0  0  0  0  0  0  0  0  0  0  0  0
   -2.3770   24.6120  -28.5390 C   0  0  0  0  0  0  0  0  0  0  0  0
   -2.1500   23.7750  -29.6360 C   0  0  0  0  0  0  0  0  0  0  0  0
   -1.7840   20.7140  -30.9600 C   0  0  0  0  0  0  0  0  0  0  0  0
   -1.5090   19.9500  -32.0980 C   0  0  0  0  0  0  0  0  0  0  0  0
   -1.7194   14.5399  -33.9946 H   0  0  0  0  0  0  0  0  0  0  0  0
   -2.5967   14.1550  -35.5141 H   0  0  0  0  0  0  0  0  0  0  0  0
   -1.3058   15.4040  -35.5141 H   0  0  0  0  0  0  0  0  0  0  0  0
   -8.6583   20.5999  -32.5450 H   0  0  0  0  0  0  0  0  0  0  0  0
   -8.2030   19.9720  -30.9050 H   0  0  0  0  0  0  0  0  0  0  0  0
   -8.0830   21.7066  -29.3797 H   0  0  0  0  0  0  0  0  0  0  0  0
   -7.2056   23.9467  -28.7205 H   0  0  0  0  0  0  0  0  0  0  0  0
   -5.9641   25.3421  -30.3757 H   0  0  0  0  0  0  0  0  0  0  0  0
   -5.5984   24.4969  -32.6977 H   0  0  0  0  0  0  0  0  0  0  0  0
   -6.4752   22.2607  -33.3661 H   0  0  0  0  0  0  0  0  0  0  0  0
   -4.3510   18.9948  -34.0102 H   0  0  0  0  0  0  0  0  0  0  0  0
   -0.9699   17.7646  -33.6351 H   0  0  0  0  0  0  0  0  0  0  0  0
   -1.0777   17.8172  -35.4364 H   0  0  0  0  0  0  0  0  0  0  0  0
   -3.7305   21.3732  -34.2682 H   0  0  0  0  0  0  0  0  0  0  0  0
   -4.2018   22.7594  -32.2539 H   0  0  0  0  0  0  0  0  0  0  0  0
   -4.6098   21.4630  -29.0603 H   0  0  0  0  0  0  0  0  0  0  0  0
   -5.0154   22.9727  -27.1198 H   0  0  0  0  0  0  0  0  0  0  0  0
   -3.5823   24.9871  -26.7779 H   0  0  0  0  0  0  0  0  0  0  0  0
   -1.7446   25.4989  -28.3856 H   0  0  0  0  0  0  0  0  0  0  0  0
   -1.3424   24.0095  -30.3451 H   0  0  0  0  0  0  0  0  0  0  0  0
   -1.2571   20.5010  -30.0182 H   0  0  0  0  0  0  0  0  0  0  0  0
   -0.7696   19.1374  -32.0437 H   0  0  0  0  0  0  0  0  0  0  0  0
  1  2  1  0
  2  3  1  0
  3  4  1  0
  4  5  1  0
  5  6  2  0
  5  7  1  0
  7  8  1  0
  8  9  2  0
  8 10  2  0
  8 11  1  0
 11 12  1  0
 12 13  2  0
 13 14  1  0
 14 15  2  0
 15 16  1  0
 16 17  2  0
  4 18  2  0
 18 19  1  0
 19 20  1  0
 20 21  1  0
 21 22  1  0
 22 23  2  0
 23 24  1  0
 24 25  2  0
 25 26  1  0
 26 27  2  0
 27 28  1  0
 28 29  2  0
 29 30  1  0
 30 31  2  0
 25 32  1  0
 32 33  2  0
 19  2  2  0
 33 22  1  0
 17 12  1  0
 31 26  1  0
  1 34  1  0
  1 35  1  0
  1 36  1  0
 11 37  1  0
 11 38  1  0
 13 39  1  0
 14 40  1  0
 15 41  1  0
 16 42  1  0
 17 43  1  0
 18 44  1  0
 20 45  1  0
 20 46  1  0
 23 47  1  0
 24 48  1  0
 27 49  1  0
 28 50  1  0
 29 51  1  0
 30 52  1  0
 31 53  1  0
 32 54  1  0
 33 55  1  0
M  CHG  1   7  -1
M  END
>  <UniqueID>  (31) 
25

>  <SMILES>  (31) 
Cc1oc(C(=O)[N-]S(=O)(=O)Cc2ccccc2)cc1COc1ccc(-c2ccccc2)cc1

>  <Energy>  (31) 
84.91891977211934

>  <Genealogy>  (31) 
Cc1oc(C(=O)[N-]S(=O)(=O)Cc2ccccc2)cc1COc1ccc(-c2ccccc2)cc1 (protonated)
Cc1oc(C(=O)[N-]S(=O)(=O)Cc2ccccc2)cc1COc1ccc(-c2ccccc2)cc1 (3D coordinates assigned)
Cc1oc(C(=O)[N-]S(=O)(=O)Cc2ccccc2)cc1COc1ccc(-c2ccccc2)cc1 (optimized conformer: 84.91891977211934 kcal/mol)

>  <smiles>  (31) 
Cc1oc(C(=O)NS(=O)(=O)Cc2ccccc2)cc1COc1ccc(-c2ccccc2)cc1

>  <score_type>  (31) 
oracle

>  <origin>  (31) 
adgpu

>  <m_score__min__energy>  (31) 
-11.130000000000001

>  <m_primary>  (31) 
energy

$$$$
31:0
     RDKit          3D

 38 40  0  0  0  0  0  0  0  0999 V2000
   -3.9130   24.3460  -27.1400 C   0  0  0  0  0  0  0  0  0  0  0  0
   -2.9740   24.1410  -28.1900 O   0  0  0  0  0  0  0  0  0  0  0  0
   -3.1840   23.2940  -29.2900 C   0  0  0  0  0  0  0  0  0  0  0  0
   -2.8670   21.9230  -29.2490 C   0  0  0  0  0  0  0  0  0  0  0  0
   -3.0900   21.1120  -30.3630 C   0  0  0  0  0  0  0  0  0  0  0  0
   -3.6260   21.6550  -31.5390 C   0  0  0  0  0  0  0  0  0  0  0  0
   -3.9050   20.7740  -32.7280 C   0  0  0  0  0  0  0  0  0  0  0  0
   -5.1260   19.9850  -32.5020 N   0  0  0  0  0  0  0  0  0  0  0  0
   -5.0330   18.6080  -32.4690 C   0  0  0  0  0  0  0  0  0  0  0  0
   -6.1740   17.8060  -32.2890 C   0  0  0  0  0  0  0  0  0  0  0  0
   -7.3890   18.4580  -32.1540 C   0  0  0  0  0  0  0  0  0  0  0  0
   -8.5830   17.9440  -31.9820 O   0  0  0  0  0  0  0  0  0  0  0  0
   -9.4770   18.8940  -31.9040 N   0  0  0  0  0  0  0  0  0  0  0  0
   -8.8250   20.0750  -32.0310 C   0  0  0  0  0  0  0  0  0  0  0  0
   -9.4880   21.4120  -32.0000 C   0  0  0  0  0  0  0  0  0  0  0  0
   -7.4800   19.8130  -32.1930 C   0  0  0  0  0  0  0  0  0  0  0  0
   -6.3500   20.6070  -32.3710 C   0  0  0  0  0  0  0  0  0  0  0  0
   -6.4540   21.8640  -32.4110 O   0  0  0  0  0  0  0  0  0  0  0  0
   -3.9510   23.0190  -31.5810 C   0  0  0  0  0  0  0  0  0  0  0  0
   -3.7300   23.8440  -30.4600 C   0  0  0  0  0  0  0  0  0  0  0  0
   -4.0420   25.2120  -30.4710 O   0  0  0  0  0  0  0  0  0  0  0  0
   -5.3660   25.7400  -30.4490 C   0  0  0  0  0  0  0  0  0  0  0  0
   -3.4075   24.2356  -26.1693 H   0  0  0  0  0  0  0  0  0  0  0  0
   -4.3370   25.3579  -27.2197 H   0  0  0  0  0  0  0  0  0  0  0  0
   -4.7201   23.6029  -27.2197 H   0  0  0  0  0  0  0  0  0  0  0  0
   -2.4407   21.4879  -28.3330 H   0  0  0  0  0  0  0  0  0  0  0  0
   -2.8438   20.0409  -30.3178 H   0  0  0  0  0  0  0  0  0  0  0  0
   -4.0384   21.4015  -33.6216 H   0  0  0  0  0  0  0  0  0  0  0  0
   -3.0570   20.0885  -32.8729 H   0  0  0  0  0  0  0  0  0  0  0  0
   -4.0492   18.1298  -32.5855 H   0  0  0  0  0  0  0  0  0  0  0  0
   -6.1049   16.7086  -32.2568 H   0  0  0  0  0  0  0  0  0  0  0  0
   -9.6413   21.7211  -30.9555 H   0  0  0  0  0  0  0  0  0  0  0  0
   -8.8510   22.1491  -32.5108 H   0  0  0  0  0  0  0  0  0  0  0  0
  -10.4603   21.3511  -32.5108 H   0  0  0  0  0  0  0  0  0  0  0  0
   -4.3823   23.4485  -32.4972 H   0  0  0  0  0  0  0  0  0  0  0  0
   -5.6917   25.8699  -29.4064 H   0  0  0  0  0  0  0  0  0  0  0  0
   -5.3813   26.7130  -30.9618 H   0  0  0  0  0  0  0  0  0  0  0  0
   -6.0467   25.0445  -30.9618 H   0  0  0  0  0  0  0  0  0  0  0  0
  1  2  1  0
  2  3  1  0
  3  4  2  0
  4  5  1  0
  5  6  2  0
  6  7  1  0
  7  8  1  0
  8  9  1  0
  9 10  2  0
 10 11  1  0
 11 12  1  0
 12 13  1  0
 13 14  2  0
 14 15  1  0
 14 16  1  0
 16 17  1  0
 17 18  2  0
  6 19  1  0
 19 20  2  0
 20 21  1  0
 21 22  1  0
 20  3  1  0
 17  8  1  0
 16 11  2  0
  1 23  1  0
  1 24  1  0
  1 25  1  0
  4 26  1  0
  5 27  1  0
  7 28  1  0
  7 29  1  0
  9 30  1  0
 10 31  1  0
 15 32  1  0
 15 33  1  0
 15 34  1  0
 19 35  1  0
 22 36  1  0
 22 37  1  0
 22 38  1  0
M  END
>  <UniqueID>  (32) 
26

>  <SMILES>  (32) 
COc1ccc(Cn2ccc3onc(C)c3c2=O)cc1OC

>  <Energy>  (32) 
79.76967346337156

>  <Genealogy>  (32) 
COc1ccc(Cn2ccc3onc(C)c3c2=O)cc1OC (3D coordinates assigned)
COc1ccc(Cn2ccc3onc(C)c3c2=O)cc1OC (optimized conformer: 79.76967346337156 kcal/mol)

>  <smiles>  (32) 
COc1ccc(Cn2ccc3onc(C)c3c2=O)cc1OC

>  <score_type>  (32) 
oracle

>  <origin>  (32) 
adgpu

>  <m_score__min__energy>  (32) 
-7.7199999999999998

>  <m_primary>  (32) 
energy

$$$$
32:0
     RDKit          3D

 37 39  0  0  0  0  0  0  0  0999 V2000
   -0.4184   28.0307  -23.2555 H   0  0  0  0  0  0  0  0  0  0  0  0
   -0.5840   27.7080  -24.2940 C   0  0  0  0  0  0  0  0  0  0  0  0
   -1.2190   26.4900  -24.5540 C   0  0  0  0  0  0  0  0  0  0  0  0
   -1.5625   25.8604  -23.7200 H   0  0  0  0  0  0  0  0  0  0  0  0
   -1.4180   26.0710  -25.8740 C   0  0  0  0  0  0  0  0  0  0  0  0
   -2.0370   24.8880  -26.1130 F   0  0  0  0  0  0  0  0  0  0  0  0
   -0.9660   26.8600  -26.9410 C   0  0  0  0  0  0  0  0  0  0  0  0
   -1.1970   26.4100  -28.2840 N   0  0  0  0  0  0  0  0  0  0  0  0
   -1.0740   25.0610  -28.7530 C   0  0  0  0  0  0  0  0  0  0  0  0
    0.0530   24.5030  -28.7120 O   0  0  0  0  0  0  0  0  0  0  0  0
   -2.2130   24.3380  -29.3420 C   0  0  0  0  0  0  0  0  0  0  0  0
   -2.4570   23.0260  -29.1470 N   0  0  0  0  0  0  0  0  0  0  0  0
   -3.5530   22.7430  -29.8340 N   0  0  0  0  0  0  0  0  0  0  0  0
   -3.9250   23.8950  -30.4240 C   0  0  0  0  0  0  0  0  0  0  0  0
   -4.9780   24.0430  -31.1720 N   0  0  0  0  0  0  0  0  0  0  0  0
   -5.8960   23.0070  -31.5720 C   0  0  0  0  0  0  0  0  0  0  0  0
   -7.2230   22.9830  -31.1020 C   0  0  0  0  0  0  0  0  0  0  0  0
   -7.5762   23.7774  -30.4281 H   0  0  0  0  0  0  0  0  0  0  0  0
   -8.0990   21.9570  -31.4840 C   0  0  0  0  0  0  0  0  0  0  0  0
   -9.5020   21.9250  -30.9530 C   0  0  0  0  0  0  0  0  0  0  0  0
   -9.4779   21.9255  -29.8533 H   0  0  0  0  0  0  0  0  0  0  0  0
  -10.0488   22.8109  -31.3082 H   0  0  0  0  0  0  0  0  0  0  0  0
  -10.0078   21.0151  -31.3082 H   0  0  0  0  0  0  0  0  0  0  0  0
   -7.6300   20.9200  -32.3010 C   0  0  0  0  0  0  0  0  0  0  0  0
   -8.3076   20.1039  -32.5924 H   0  0  0  0  0  0  0  0  0  0  0  0
   -6.3080   20.9170  -32.7470 C   0  0  0  0  0  0  0  0  0  0  0  0
   -5.9502   20.0983  -33.3887 H   0  0  0  0  0  0  0  0  0  0  0  0
   -5.4310   21.9510  -32.3830 C   0  0  0  0  0  0  0  0  0  0  0  0
   -4.0070   21.9320  -32.8670 C   0  0  0  0  0  0  0  0  0  0  0  0
   -3.3262   21.9229  -32.0031 H   0  0  0  0  0  0  0  0  0  0  0  0
   -3.8387   21.0315  -33.4760 H   0  0  0  0  0  0  0  0  0  0  0  0
   -3.8147   22.8277  -33.4760 H   0  0  0  0  0  0  0  0  0  0  0  0
   -3.1140   24.8780  -30.1300 O   0  0  0  0  0  0  0  0  0  0  0  0
   -0.3570   28.1020  -26.6730 C   0  0  0  0  0  0  0  0  0  0  0  0
    0.0100   28.9300  -27.6840 F   0  0  0  0  0  0  0  0  0  0  0  0
   -0.1600   28.5150  -25.3510 C   0  0  0  0  0  0  0  0  0  0  0  0
    0.3301   29.4778  -25.1441 H   0  0  0  0  0  0  0  0  0  0  0  0
  1  2  1  0
  2  3  2  0
  3  4  1  0
  3  5  1  0
  5  6  1  0
  5  7  2  0
  7  8  1  0
  8  9  1  0
  9 10  2  0
  9 11  1  0
 11 12  2  0
 12 13  1  0
 13 14  1  0
 14 15  2  0
 15 16  1  0
 16 17  2  0
 17 18  1  0
 17 19  1  0
 19 20  1  0
 20 21  1  0
 20 22  1  0
 20 23  1  0
 19 24  2  0
 24 25  1  0
 24 26  1  0
 26 27  1  0
 26 28  2  0
 28 29  1  0
 29 30  1  0
 29 31  1  0
 29 32  1  0
 14 33  1  0
  7 34  1  0
 34 35  1  0
 34 36  2  0
 36 37  1  0
 36  2  1  0
 33 11  1  0
 28 16  1  0
M  CHG  2   8  -1  13  -1
M  END
>  <UniqueID>  (33) 
27

>  <SMILES>  (33) 
Cc1ccc(C)c(/N=c2\[n-]nc(C(=O)[N-]c3c(F)cccc3F)o2)c1

>  <Energy>  (33) 
85.10515047168843

>  <Genealogy>  (33) 
Cc1ccc(C)c(N=c2[n-]nc(C(=O)[N-]c3c(F)cccc3F)o2)c1 (protonated)
Cc1ccc(C)c(/N=c2\[n-]nc(C(=O)[N-]c3c(F)cccc3F)o2)c1 (cis-trans isomerization)
Cc1ccc(C)c(/N=c2\[n-]nc(C(=O)[N-]c3c(F)cccc3F)o2)c1 (3D coordinates assigned)
Cc1ccc(C)c(/N=c2\[n-]nc(C(=O)[N-]c3c(F)cccc3F)o2)c1 (optimized conformer: 85.10515047168843 kcal/mol)

>  <smiles>  (33) 
Cc1ccc(C)c(N=c2[nH]nc(C(=O)Nc3c(F)cccc3F)o2)c1

>  <score_type>  (33) 
oracle

>  <origin>  (33) 
adgpu

>  <m_score__min__energy>  (33) 
-10.31

>  <m_primary>  (33) 
energy

$$$$
33:0
     RDKit          3D

 34 36  0  0  0  0  0  0  0  0999 V2000
   -6.2660   20.1590  -33.0520 C   0  0  0  0  0  0  0  0  0  0  0  0
   -6.4860   21.4100  -32.2550 C   0  0  0  0  0  0  0  0  0  0  0  0
   -7.7880   21.8190  -31.9300 C   0  0  0  0  0  0  0  0  0  0  0  0
   -7.9950   23.0030  -31.2180 C   0  0  0  0  0  0  0  0  0  0  0  0
   -6.9070   23.7950  -30.8410 C   0  0  0  0  0  0  0  0  0  0  0  0
   -5.5990   23.4180  -31.1890 C   0  0  0  0  0  0  0  0  0  0  0  0
   -4.4410   24.2650  -30.8180 C   0  0  0  0  0  0  0  0  0  0  0  0
   -4.5960   25.5110  -30.7190 O   0  0  0  0  0  0  0  0  0  0  0  0
   -3.1320   23.7160  -30.6100 N   0  0  0  0  0  0  0  0  0  0  0  0
   -2.5590   23.3370  -29.3490 C   0  0  0  0  0  0  0  0  0  0  0  0
   -2.5180   21.9920  -28.9390 C   0  0  0  0  0  0  0  0  0  0  0  0
   -1.9480   21.6340  -27.7040 C   0  0  0  0  0  0  0  0  0  0  0  0
   -1.8690   20.2550  -27.2920 N   0  0  0  0  0  0  0  0  0  0  0  0
   -0.9060   19.3490  -27.5530 C   0  0  0  0  0  0  0  0  0  0  0  0
   -1.2110   18.1790  -26.9620 N   0  0  0  0  0  0  0  0  0  0  0  0
   -2.3650   18.3890  -26.3430 N   0  0  0  0  0  0  0  0  0  0  0  0
   -2.7610   19.6370  -26.5380 N   0  0  0  0  0  0  0  0  0  0  0  0
   -1.4570   22.6460  -26.8640 C   0  0  0  0  0  0  0  0  0  0  0  0
   -1.5280   23.9860  -27.2520 C   0  0  0  0  0  0  0  0  0  0  0  0
   -2.0780   24.3350  -28.4910 C   0  0  0  0  0  0  0  0  0  0  0  0
   -2.1460   25.6730  -28.8780 O   0  0  0  0  0  0  0  0  0  0  0  0
   -5.3970   22.2160  -31.8910 C   0  0  0  0  0  0  0  0  0  0  0  0
   -6.1167   19.3102  -32.3684 H   0  0  0  0  0  0  0  0  0  0  0  0
   -7.1445   19.9690  -33.6861 H   0  0  0  0  0  0  0  0  0  0  0  0
   -5.3754   20.2801  -33.6861 H   0  0  0  0  0  0  0  0  0  0  0  0
   -8.6482   21.2058  -32.2366 H   0  0  0  0  0  0  0  0  0  0  0  0
   -9.0168   23.3126  -30.9535 H   0  0  0  0  0  0  0  0  0  0  0  0
   -7.0757   24.7190  -30.2684 H   0  0  0  0  0  0  0  0  0  0  0  0
   -2.9364   21.2115  -29.5915 H   0  0  0  0  0  0  0  0  0  0  0  0
   -0.0066   19.5374  -28.1577 H   0  0  0  0  0  0  0  0  0  0  0  0
   -1.0130   22.3817  -25.8929 H   0  0  0  0  0  0  0  0  0  0  0  0
   -1.1498   24.7709  -26.5805 H   0  0  0  0  0  0  0  0  0  0  0  0
   -2.9670   26.0530  -29.3320 H   0  0  0  0  0  0  0  0  0  0  0  0
   -4.3759   21.9052  -32.1570 H   0  0  0  0  0  0  0  0  0  0  0  0
  1  2  1  0
  2  3  2  0
  3  4  1  0
  4  5  2  0
  5  6  1  0
  6  7  1  0
  7  8  2  0
  7  9  1  0
  9 10  1  0
 10 11  2  0
 11 12  1  0
 12 13  1  0
 13 14  1  0
 14 15  2  0
 15 16  1  0
 16 17  2  0
 12 18  2  0
 18 19  1  0
 19 20  2  0
 20 21  1  0
  6 22  2  0
 22  2  1  0
 20 10  1  0
 17 13  1  0
  1 23  1  0
  1 24  1  0
  1 25  1  0
  3 26  1  0
  4 27  1  0
  5 28  1  0
 11 29  1  0
 14 30  1  0
 18 31  1  0
 19 32  1  0
 21 33  1  0
 22 34  1  0
M  CHG  1   9  -1
M  END
>  <UniqueID>  (34) 
28

>  <SMILES>  (34) 
Cc1cccc(C(=O)[N-]c2cc(-n3cnnn3)ccc2O)c1

>  <Energy>  (34) 
83.88807346502969

>  <Genealogy>  (34) 
Cc1cccc(C(=O)[N-]c2cc(-n3cnnn3)ccc2O)c1 (protonated)
Cc1cccc(C(=O)[N-]c2cc(-n3cnnn3)ccc2O)c1 (3D coordinates assigned)
Cc1cccc(C(=O)[N-]c2cc(-n3cnnn3)ccc2O)c1 (optimized conformer: 83.88807346502969 kcal/mol)

>  <smiles>  (34) 
Cc1cccc(C(=O)Nc2cc(-n3cnnn3)ccc2O)c1

>  <score_type>  (34) 
oracle

>  <origin>  (34) 
adgpu

>  <m_score__min__energy>  (34) 
-10.800000000000001

>  <m_primary>  (34) 
energy

$$$$
34:0
     RDKit          3D

 28 29  0  0  0  0  0  0  0  0999 V2000
   -0.5830   21.1010  -34.1830 C   0  0  0  0  0  0  0  0  0  0  0  0
   -1.8260   19.7710  -34.2240 S   0  0  0  0  0  0  0  0  0  0  0  0
   -2.9080   20.5870  -33.0490 C   0  0  0  0  0  0  0  0  0  0  0  0
   -2.9430   20.1630  -31.7160 C   0  0  0  0  0  0  0  0  0  0  0  0
   -3.7850   20.7990  -30.7990 C   0  0  0  0  0  0  0  0  0  0  0  0
   -4.5850   21.8770  -31.2020 C   0  0  0  0  0  0  0  0  0  0  0  0
   -5.4560   22.4940  -30.2390 N   0  0  0  0  0  0  0  0  0  0  0  0
   -5.1330   23.3710  -29.3300 C   0  0  0  0  0  0  0  0  0  0  0  0
   -3.7400   23.7780  -29.0280 C   0  0  0  0  0  0  0  0  0  0  0  0
   -3.1460   24.8950  -29.6420 C   0  0  0  0  0  0  0  0  0  0  0  0
   -3.8500   25.6500  -30.5740 O   0  0  0  0  0  0  0  0  0  0  0  0
   -1.8630   25.2330  -29.3410 N   0  0  0  0  0  0  0  0  0  0  0  0
   -1.1300   24.4880  -28.4710 C   0  0  0  0  0  0  0  0  0  0  0  0
    0.0560   24.8130  -28.2050 O   0  0  0  0  0  0  0  0  0  0  0  0
   -1.6730   23.3870  -27.8940 N   0  0  0  0  0  0  0  0  0  0  0  0
   -2.9510   23.0130  -28.1550 C   0  0  0  0  0  0  0  0  0  0  0  0
   -3.4210   21.9830  -27.5990 O   0  0  0  0  0  0  0  0  0  0  0  0
   -4.5780   22.2720  -32.5520 C   0  0  0  0  0  0  0  0  0  0  0  0
   -3.7350   21.6350  -33.4680 C   0  0  0  0  0  0  0  0  0  0  0  0
   -0.3486   21.3518  -33.1379 H   0  0  0  0  0  0  0  0  0  0  0  0
    0.3315   20.7641  -34.6932 H   0  0  0  0  0  0  0  0  0  0  0  0
   -0.9809   21.9906  -34.6932 H   0  0  0  0  0  0  0  0  0  0  0  0
   -2.3066   19.3275  -31.3889 H   0  0  0  0  0  0  0  0  0  0  0  0
   -3.8199   20.4516  -29.7559 H   0  0  0  0  0  0  0  0  0  0  0  0
   -5.9440   23.8376  -28.7516 H   0  0  0  0  0  0  0  0  0  0  0  0
   -1.4350   26.0720  -29.7950 H   0  0  0  0  0  0  0  0  0  0  0  0
   -5.2381   23.0850  -32.8884 H   0  0  0  0  0  0  0  0  0  0  0  0
   -3.7220   21.9582  -34.5194 H   0  0  0  0  0  0  0  0  0  0  0  0
  1  2  1  0
  2  3  1  0
  3  4  2  0
  4  5  1  0
  5  6  2  0
  6  7  1  0
  7  8  2  3
  8  9  1  0
  9 10  2  0
 10 11  1  0
 10 12  1  0
 12 13  1  0
 13 14  2  0
 13 15  1  0
 15 16  1  0
 16 17  2  0
  6 18  1  0
 18 19  2  0
 19  3  1  0
 16  9  1  0
  1 20  1  0
  1 21  1  0
  1 22  1  0
  4 23  1  0
  5 24  1  0
  8 25  1  0
 12 26  1  0
 18 27  1  0
 19 28  1  0
M  CHG  2  11  -1  15  -1
M  END
>  <UniqueID>  (35) 
29

>  <SMILES>  (35) 
CSc1ccc(N=Cc2c([O-])[nH]c(=O)[n-]c2=O)cc1

>  <Energy>  (35) 
38.51289276148883

>  <Genealogy>  (35) 
CSc1ccc(N=Cc2c([O-])[nH]c(=O)[n-]c2=O)cc1 (protonated)
CSc1ccc(N=Cc2c([O-])[nH]c(=O)[n-]c2=O)cc1 (3D coordinates assigned)
CSc1ccc(N=Cc2c([O-])[nH]c(=O)[n-]c2=O)cc1 (optimized conformer: 38.51289276148883 kcal/mol)

>  <smiles>  (35) 
CSc1ccc(N=Cc2c(O)[nH]c(=O)[nH]c2=O)cc1

>  <score_type>  (35) 
oracle

>  <origin>  (35) 
adgpu

>  <m_score__min__energy>  (35) 
-10.5

>  <m_primary>  (35) 
energy

$$$$
35:0
     RDKit          3D

 56 59  0  0  0  0  0  0  0  0999 V2000
   -1.2490   26.3180  -24.5060 C   0  0  0  0  0  0  0  0  0  0  0  0
   -0.8920   25.5360  -25.7390 C   0  0  0  0  0  0  0  0  0  0  0  0
    0.1250   24.5700  -25.6900 C   0  0  0  0  0  0  0  0  0  0  0  0
    0.4550   23.8380  -26.8320 C   0  0  0  0  0  0  0  0  0  0  0  0
   -0.2170   24.0710  -28.0340 C   0  0  0  0  0  0  0  0  0  0  0  0
   -1.2430   25.0260  -28.0980 C   0  0  0  0  0  0  0  0  0  0  0  0
   -1.9550   25.2940  -29.3130 N   0  0  0  0  0  0  0  0  0  0  0  0
   -3.3660   24.4340  -29.8460 S   0  0  0  0  0  0  0  0  0  0  0  0
   -4.1310   25.2870  -30.8190 O   0  0  0  0  0  0  0  0  0  0  0  0
   -4.2520   24.1780  -28.6580 O   0  0  0  0  0  0  0  0  0  0  0  0
   -2.9150   22.8900  -30.5670 C   0  0  0  0  0  0  0  0  0  0  0  0
   -1.7220   22.2500  -30.2090 C   0  0  0  0  0  0  0  0  0  0  0  0
   -1.3690   21.0400  -30.8100 C   0  0  0  0  0  0  0  0  0  0  0  0
   -2.2010   20.4640  -31.7740 C   0  0  0  0  0  0  0  0  0  0  0  0
   -3.4120   21.0850  -32.1310 C   0  0  0  0  0  0  0  0  0  0  0  0
   -4.2930   20.4940  -33.1670 C   0  0  0  0  0  0  0  0  0  0  0  0
   -3.9310   19.4460  -33.7650 O   0  0  0  0  0  0  0  0  0  0  0  0
   -5.5840   21.0430  -33.4650 N   0  0  0  0  0  0  0  0  0  0  0  0
   -6.7910   20.7490  -32.7500 C   0  0  0  0  0  0  0  0  0  0  0  0
   -7.5870   21.7900  -32.2400 C   0  0  0  0  0  0  0  0  0  0  0  0
   -8.7360   21.4950  -31.5020 C   0  0  0  0  0  0  0  0  0  0  0  0
   -9.0990   20.1680  -31.2750 C   0  0  0  0  0  0  0  0  0  0  0  0
   -8.3200   19.1270  -31.7900 C   0  0  0  0  0  0  0  0  0  0  0  0
   -7.1570   19.4080  -32.5240 C   0  0  0  0  0  0  0  0  0  0  0  0
   -6.3240   18.3450  -33.0210 N   0  0  0  0  0  0  0  0  0  0  0  0
   -5.9740   17.1940  -32.2380 C   0  0  0  0  0  0  0  0  0  0  0  0
   -6.4680   17.0450  -31.0900 O   0  0  0  0  0  0  0  0  0  0  0  0
   -5.0160   16.1810  -32.7400 C   0  0  0  0  0  0  0  0  0  0  0  0
   -4.4190   16.3500  -34.0070 C   0  0  0  0  0  0  0  0  0  0  0  0
   -3.5330   15.3900  -34.5050 C   0  0  0  0  0  0  0  0  0  0  0  0
   -3.2430   14.2490  -33.7560 C   0  0  0  0  0  0  0  0  0  0  0  0
   -3.8420   14.0620  -32.5040 C   0  0  0  0  0  0  0  0  0  0  0  0
   -4.7260   15.0200  -31.9990 C   0  0  0  0  0  0  0  0  0  0  0  0
   -3.7560   22.3050  -31.5250 C   0  0  0  0  0  0  0  0  0  0  0  0
   -1.5920   25.7360  -26.9400 C   0  0  0  0  0  0  0  0  0  0  0  0
   -0.9828   25.7349  -23.6121 H   0  0  0  0  0  0  0  0  0  0  0  0
   -0.6957   27.2687  -24.5018 H   0  0  0  0  0  0  0  0  0  0  0  0
   -2.3298   26.5227  -24.5018 H   0  0  0  0  0  0  0  0  0  0  0  0
    0.6640   24.3890  -24.7483 H   0  0  0  0  0  0  0  0  0  0  0  0
    1.2465   23.0756  -26.7850 H   0  0  0  0  0  0  0  0  0  0  0  0
    0.0594   23.5032  -28.9347 H   0  0  0  0  0  0  0  0  0  0  0  0
   -1.0621   22.7011  -29.4533 H   0  0  0  0  0  0  0  0  0  0  0  0
   -0.4328   20.5384  -30.5237 H   0  0  0  0  0  0  0  0  0  0  0  0
   -1.9074   19.5199  -32.2563 H   0  0  0  0  0  0  0  0  0  0  0  0
   -7.3048   22.8374  -32.4223 H   0  0  0  0  0  0  0  0  0  0  0  0
   -9.3549   22.3105  -31.0996 H   0  0  0  0  0  0  0  0  0  0  0  0
  -10.0012   19.9392  -30.6888 H   0  0  0  0  0  0  0  0  0  0  0  0
   -8.6202   18.0827  -31.6190 H   0  0  0  0  0  0  0  0  0  0  0  0
   -5.8790   18.4800  -33.9550 H   0  0  0  0  0  0  0  0  0  0  0  0
   -4.6520   17.2423  -34.6066 H   0  0  0  0  0  0  0  0  0  0  0  0
   -3.0636   15.5345  -35.4893 H   0  0  0  0  0  0  0  0  0  0  0  0
   -2.5438   13.4963  -34.1490 H   0  0  0  0  0  0  0  0  0  0  0  0
   -3.6165   13.1596  -31.9169 H   0  0  0  0  0  0  0  0  0  0  0  0
   -5.1975   14.8656  -31.0172 H   0  0  0  0  0  0  0  0  0  0  0  0
   -4.6943   22.8064  -31.8047 H   0  0  0  0  0  0  0  0  0  0  0  0
   -2.4223   26.4568  -26.9727 H   0  0  0  0  0  0  0  0  0  0  0  0
  1  2  1  0
  2  3  2  0
  3  4  1  0
  4  5  2  0
  5  6  1  0
  6  7  1  0
  7  8  1  0
  8  9  2  0
  8 10  2  0
  8 11  1  0
 11 12  2  0
 12 13  1  0
 13 14  2  0
 14 15  1  0
 15 16  1  0
 16 17  2  0
 16 18  1  0
 18 19  1  0
 19 20  2  0
 20 21  1  0
 21 22  2  0
 22 23  1  0
 23 24  2  0
 24 25  1  0
 25 26  1  0
 26 27  2  0
 26 28  1  0
 28 29  2  0
 29 30  1  0
 30 31  2  0
 31 32  1  0
 32 33  2  0
 15 34  2  0
  6 35  2  0
 35  2  1  0
 34 11  1  0
 24 19  1  0
 33 28  1  0
  1 36  1  0
  1 37  1  0
  1 38  1  0
  3 39  1  0
  4 40  1  0
  5 41  1  0
 12 42  1  0
 13 43  1  0
 14 44  1  0
 20 45  1  0
 21 46  1  0
 22 47  1  0
 23 48  1  0
 25 49  1  0
 29 50  1  0
 30 51  1  0
 31 52  1  0
 32 53  1  0
 33 54  1  0
 34 55  1  0
 35 56  1  0
M  CHG  2   7  -1  18  -1
M  END
>  <UniqueID>  (36) 
30

>  <SMILES>  (36) 
Cc1cccc([N-]S(=O)(=O)c2cccc(C(=O)[N-]c3ccccc3NC(=O)c3ccccc3)c2)c1

>  <Energy>  (36) 
79.32030774161481

>  <Genealogy>  (36) 
Cc1cccc([N-]S(=O)(=O)c2cccc(C(=O)[N-]c3ccccc3NC(=O)c3ccccc3)c2)c1 (protonated)
Cc1cccc([N-]S(=O)(=O)c2cccc(C(=O)[N-]c3ccccc3NC(=O)c3ccccc3)c2)c1 (3D coordinates assigned)
Cc1cccc([N-]S(=O)(=O)c2cccc(C(=O)[N-]c3ccccc3NC(=O)c3ccccc3)c2)c1 (optimized conformer: 79.32030774161481 kcal/mol)

>  <smiles>  (36) 
Cc1cccc(NS(=O)(=O)c2cccc(C(=O)Nc3ccccc3NC(=O)c3ccccc3)c2)c1

>  <score_type>  (36) 
oracle

>  <origin>  (36) 
adgpu

>  <m_score__min__energy>  (36) 
-13.18

>  <m_primary>  (36) 
energy

$$$$
36:0
     RDKit          3D

 17 18  0  0  0  0  0  0  0  0999 V2000
   -3.4860   25.3030  -30.5000 O   0  0  0  0  0  0  0  0  0  0  0  0
   -4.7360   24.7050  -30.6130 C   0  0  0  0  0  0  0  0  0  0  0  0
   -5.8430   25.2820  -29.9870 C   0  0  0  0  0  0  0  0  0  0  0  0
   -7.0990   24.6840  -30.0990 C   0  0  0  0  0  0  0  0  0  0  0  0
   -7.2530   23.5060  -30.8380 C   0  0  0  0  0  0  0  0  0  0  0  0
   -6.1450   22.9150  -31.4740 C   0  0  0  0  0  0  0  0  0  0  0  0
   -6.2930   21.6680  -32.2590 C   0  0  0  0  0  0  0  0  0  0  0  0
   -7.4720   21.0190  -32.4190 N   0  0  0  0  0  0  0  0  0  0  0  0
   -7.3810   19.9180  -33.1620 N   0  0  0  0  0  0  0  0  0  0  0  0
   -6.1280   19.6810  -33.6000 C   0  0  0  0  0  0  0  0  0  0  0  0
   -5.7240   18.4020  -34.5300 S   0  0  0  0  0  0  0  0  0  0  0  0
   -5.0510   20.8560  -33.0720 S   0  0  0  0  0  0  0  0  0  0  0  0
   -4.8830   23.5280  -31.3540 C   0  0  0  0  0  0  0  0  0  0  0  0
   -5.7249   26.2082  -29.4054 H   0  0  0  0  0  0  0  0  0  0  0  0
   -7.9698   25.1398  -29.6052 H   0  0  0  0  0  0  0  0  0  0  0  0
   -8.2454   23.0391  -30.9225 H   0  0  0  0  0  0  0  0  0  0  0  0
   -4.0078   23.0786  -31.8459 H   0  0  0  0  0  0  0  0  0  0  0  0
  1  2  1  0
  2  3  2  0
  3  4  1  0
  4  5  2  0
  5  6  1  0
  6  7  1  0
  7  8  2  0
  8  9  1  0
  9 10  1  0
 10 11  2  0
 10 12  1  0
  6 13  2  0
 13  2  1  0
 12  7  1  0
  3 14  1  0
  4 15  1  0
  5 16  1  0
 13 17  1  0
M  CHG  2   1  -1   9  -1
M  END
>  <UniqueID>  (37) 
31

>  <SMILES>  (37) 
[O-]c1cccc(-c2n[n-]c(=S)s2)c1

>  <Energy>  (37) 
53.166982602328645

>  <Genealogy>  (37) 
[O-]c1cccc(-c2n[n-]c(=S)s2)c1 (protonated)
[O-]c1cccc(-c2n[n-]c(=S)s2)c1 (3D coordinates assigned)
[O-]c1cccc(-c2n[n-]c(=S)s2)c1 (optimized conformer: 53.166982602328645 kcal/mol)

>  <smiles>  (37) 
Oc1cccc(-c2n[nH]c(=S)s2)c1

>  <score_type>  (37) 
oracle

>  <origin>  (37) 
adgpu

>  <m_score__min__energy>  (37) 
-8.9700000000000006

>  <m_primary>  (37) 
energy

$$$$
37:0
     RDKit          3D

 45 47  0  0  0  0  0  0  0  0999 V2000
   -0.8620   26.7400  -27.8240 C   0  0  0  0  0  0  0  0  0  0  0  0
   -1.4930   26.0070  -28.8690 O   0  0  0  0  0  0  0  0  0  0  0  0
   -1.5490   24.6080  -28.9540 C   0  0  0  0  0  0  0  0  0  0  0  0
   -0.6180   23.7830  -28.2830 C   0  0  0  0  0  0  0  0  0  0  0  0
   -0.7450   22.3900  -28.3200 C   0  0  0  0  0  0  0  0  0  0  0  0
   -1.8110   21.8060  -29.0020 C   0  0  0  0  0  0  0  0  0  0  0  0
   -2.7330   22.6110  -29.6800 C   0  0  0  0  0  0  0  0  0  0  0  0
   -2.5890   24.0030  -29.6930 C   0  0  0  0  0  0  0  0  0  0  0  0
   -3.5110   24.7820  -30.4700 N   0  0  0  0  0  0  0  0  0  0  0  0
   -5.1820   24.9970  -30.0300 S   0  0  0  0  0  0  0  0  0  0  0  0
   -5.6440   26.3550  -30.5000 O   0  0  0  0  0  0  0  0  0  0  0  0
   -5.3090   24.9370  -28.5300 O   0  0  0  0  0  0  0  0  0  0  0  0
   -6.1790   23.7490  -30.7730 C   0  0  0  0  0  0  0  0  0  0  0  0
   -7.5260   24.0070  -31.0850 C   0  0  0  0  0  0  0  0  0  0  0  0
   -8.3250   23.0020  -31.6290 C   0  0  0  0  0  0  0  0  0  0  0  0
   -7.7860   21.7230  -31.8530 C   0  0  0  0  0  0  0  0  0  0  0  0
   -8.5860   20.7060  -32.3720 O   0  0  0  0  0  0  0  0  0  0  0  0
   -6.4380   21.4610  -31.5450 C   0  0  0  0  0  0  0  0  0  0  0  0
   -5.9170   20.1420  -31.7560 N   0  0  0  0  0  0  0  0  0  0  0  0
   -6.2370   19.1640  -33.1490 S   0  0  0  0  0  0  0  0  0  0  0  0
   -6.8060   20.0390  -34.2310 O   0  0  0  0  0  0  0  0  0  0  0  0
   -7.2430   18.1000  -32.8030 O   0  0  0  0  0  0  0  0  0  0  0  0
   -4.7420   18.4050  -33.7040 C   0  0  0  0  0  0  0  0  0  0  0  0
   -3.5040   19.0090  -33.4370 C   0  0  0  0  0  0  0  0  0  0  0  0
   -2.3240   18.4340  -33.9280 C   0  0  0  0  0  0  0  0  0  0  0  0
   -2.3800   17.2670  -34.6980 C   0  0  0  0  0  0  0  0  0  0  0  0
   -3.6100   16.6660  -34.9710 C   0  0  0  0  0  0  0  0  0  0  0  0
   -4.7870   17.2270  -34.4700 C   0  0  0  0  0  0  0  0  0  0  0  0
   -5.6360   22.4910  -31.0250 C   0  0  0  0  0  0  0  0  0  0  0  0
   -1.1961   26.3519  -26.8505 H   0  0  0  0  0  0  0  0  0  0  0  0
    0.2294   26.6312  -27.9071 H   0  0  0  0  0  0  0  0  0  0  0  0
   -1.1319   27.8031  -27.9071 H   0  0  0  0  0  0  0  0  0  0  0  0
    0.2137   24.2400  -27.7268 H   0  0  0  0  0  0  0  0  0  0  0  0
   -0.0039   21.7562  -27.8111 H   0  0  0  0  0  0  0  0  0  0  0  0
   -1.9275   20.7122  -29.0072 H   0  0  0  0  0  0  0  0  0  0  0  0
   -3.5786   22.1456  -30.2075 H   0  0  0  0  0  0  0  0  0  0  0  0
   -7.9505   25.0047  -30.8993 H   0  0  0  0  0  0  0  0  0  0  0  0
   -9.3751   23.2095  -31.8824 H   0  0  0  0  0  0  0  0  0  0  0  0
   -8.2070   19.7980  -32.6070 H   0  0  0  0  0  0  0  0  0  0  0  0
   -3.4596   19.9335  -32.8425 H   0  0  0  0  0  0  0  0  0  0  0  0
   -1.3526   18.9007  -33.7078 H   0  0  0  0  0  0  0  0  0  0  0  0
   -1.4530   16.8223  -35.0890 H   0  0  0  0  0  0  0  0  0  0  0  0
   -3.6523   15.7512  -35.5803 H   0  0  0  0  0  0  0  0  0  0  0  0
   -5.7540   16.7447  -34.6758 H   0  0  0  0  0  0  0  0  0  0  0  0
   -4.5726   22.3028  -30.8156 H   0  0  0  0  0  0  0  0  0  0  0  0
  1  2  1  0
  2  3  1  0
  3  4  2  0
  4  5  1  0
  5  6  2  0
  6  7  1  0
  7  8  2  0
  8  9  1  0
  9 10  1  0
 10 11  2  0
 10 12  2  0
 10 13  1  0
 13 14  2  0
 14 15  1  0
 15 16  2  0
 16 17  1  0
 16 18  1  0
 18 19  1  0
 19 20  1  0
 20 21  2  0
 20 22  2  0
 20 23  1  0
 23 24  2  0
 24 25  1  0
 25 26  2  0
 26 27  1  0
 27 28  2  0
 18 29  2  0
  8  3  1  0
 29 13  1  0
 28 23  1  0
  1 30  1  0
  1 31  1  0
  1 32  1  0
  4 33  1  0
  5 34  1  0
  6 35  1  0
  7 36  1  0
 14 37  1  0
 15 38  1  0
 17 39  1  0
 24 40  1  0
 25 41  1  0
 26 42  1  0
 27 43  1  0
 28 44  1  0
 29 45  1  0
M  CHG  2   9  -1  19  -1
M  END
>  <UniqueID>  (38) 
32

>  <SMILES>  (38) 
COc1ccccc1[N-]S(=O)(=O)c1ccc(O)c([N-]S(=O)(=O)c2ccccc2)c1

>  <Energy>  (38) 
52.825855996600666

>  <Genealogy>  (38) 
COc1ccccc1[N-]S(=O)(=O)c1ccc(O)c([N-]S(=O)(=O)c2ccccc2)c1 (protonated)
COc1ccccc1[N-]S(=O)(=O)c1ccc(O)c([N-]S(=O)(=O)c2ccccc2)c1 (3D coordinates assigned)
COc1ccccc1[N-]S(=O)(=O)c1ccc(O)c([N-]S(=O)(=O)c2ccccc2)c1 (optimized conformer: 52.825855996600666 kcal/mol)

>  <smiles>  (38) 
COc1ccccc1NS(=O)(=O)c1ccc(O)c(NS(=O)(=O)c2ccccc2)c1

>  <score_type>  (38) 
oracle

>  <origin>  (38) 
adgpu

>  <m_score__min__energy>  (38) 
-10.56

>  <m_primary>  (38) 
energy

$$$$
38:0
     RDKit          3D

 47 49  0  0  0  0  0  0  0  0999 V2000
   -5.7740   19.6455  -35.3526 H   0  0  0  0  0  0  0  0  0  0  0  0
   -5.7780   18.9140  -34.5310 C   0  0  0  0  0  0  0  0  0  0  0  0
   -5.8840   17.5790  -34.6730 N   0  0  0  0  0  0  0  0  0  0  0  0
   -5.8350   17.1280  -33.4000 C   0  0  0  0  0  0  0  0  0  0  0  0
   -5.9240   15.8750  -33.0620 N   0  0  0  0  0  0  0  0  0  0  0  0
   -6.0060   14.7500  -33.9540 C   0  0  0  0  0  0  0  0  0  0  0  0
   -7.2350   14.2800  -34.4560 C   0  0  0  0  0  0  0  0  0  0  0  0
   -8.1742   14.7610  -34.1453 H   0  0  0  0  0  0  0  0  0  0  0  0
   -7.2650   13.2040  -35.3480 C   0  0  0  0  0  0  0  0  0  0  0  0
   -8.2286   12.8297  -35.7240 H   0  0  0  0  0  0  0  0  0  0  0  0
   -6.0740   12.6030  -35.7630 C   0  0  0  0  0  0  0  0  0  0  0  0
   -6.1012   11.7517  -36.4591 H   0  0  0  0  0  0  0  0  0  0  0  0
   -4.8480   13.0830  -35.2940 C   0  0  0  0  0  0  0  0  0  0  0  0
   -3.3510   12.3460  -35.8340 Cl  0  0  0  0  0  0  0  0  0  0  0  0
   -4.8150   14.1600  -34.3990 C   0  0  0  0  0  0  0  0  0  0  0  0
   -3.8481   14.5453  -34.0431 H   0  0  0  0  0  0  0  0  0  0  0  0
   -5.7180   18.0900  -32.5160 O   0  0  0  0  0  0  0  0  0  0  0  0
   -5.6750   19.2170  -33.1850 C   0  0  0  0  0  0  0  0  0  0  0  0
   -5.5400   20.5510  -32.5590 C   0  0  0  0  0  0  0  0  0  0  0  0
   -6.5110   20.9900  -31.6420 C   0  0  0  0  0  0  0  0  0  0  0  0
   -7.3686   20.3436  -31.4038 H   0  0  0  0  0  0  0  0  0  0  0  0
   -6.3950   22.2410  -31.0310 C   0  0  0  0  0  0  0  0  0  0  0  0
   -7.1593   22.5725  -30.3126 H   0  0  0  0  0  0  0  0  0  0  0  0
   -5.3100   23.0750  -31.3290 C   0  0  0  0  0  0  0  0  0  0  0  0
   -5.1530   24.6240  -30.5090 S   0  0  0  0  0  0  0  0  0  0  0  0
   -5.6850   24.4860  -29.1100 O   0  0  0  0  0  0  0  0  0  0  0  0
   -5.9560   25.6780  -31.2200 O   0  0  0  0  0  0  0  0  0  0  0  0
   -3.4830   25.1060  -30.4360 N   0  0  0  0  0  0  0  0  0  0  0  0
   -2.8080   24.5400  -29.2650 C   0  0  0  0  0  0  0  0  0  0  0  0
   -3.5661   24.1699  -28.5591 H   0  0  0  0  0  0  0  0  0  0  0  0
   -2.1965   25.3290  -28.8029 H   0  0  0  0  0  0  0  0  0  0  0  0
   -1.8830   23.3800  -29.6580 C   0  0  0  0  0  0  0  0  0  0  0  0
   -0.8463   23.6512  -29.4097 H   0  0  0  0  0  0  0  0  0  0  0  0
   -1.9967   23.2019  -30.7375 H   0  0  0  0  0  0  0  0  0  0  0  0
   -2.2360   22.1310  -28.9450 N   0  0  0  0  0  0  0  0  0  0  0  0
   -3.4940   22.3140  -28.2040 C   0  0  0  0  0  0  0  0  0  0  0  0
   -3.2906   22.2844  -27.1234 H   0  0  0  0  0  0  0  0  0  0  0  0
   -3.9366   23.2860  -28.4673 H   0  0  0  0  0  0  0  0  0  0  0  0
   -4.1952   21.5084  -28.4673 H   0  0  0  0  0  0  0  0  0  0  0  0
   -2.3810   21.0070  -29.8870 C   0  0  0  0  0  0  0  0  0  0  0  0
   -2.5019   20.0699  -29.3238 H   0  0  0  0  0  0  0  0  0  0  0  0
   -3.2654   21.1710  -30.5202 H   0  0  0  0  0  0  0  0  0  0  0  0
   -1.4839   20.9412  -30.5202 H   0  0  0  0  0  0  0  0  0  0  0  0
   -4.3390   22.6460  -32.2430 C   0  0  0  0  0  0  0  0  0  0  0  0
   -3.4843   23.2966  -32.4801 H   0  0  0  0  0  0  0  0  0  0  0  0
   -4.4520   21.3940  -32.8550 C   0  0  0  0  0  0  0  0  0  0  0  0
   -3.6857   21.0655  -33.5725 H   0  0  0  0  0  0  0  0  0  0  0  0
  1  2  1  0
  2  3  1  0
  3  4  1  0
  4  5  2  0
  5  6  1  0
  6  7  2  0
  7  8  1  0
  7  9  1  0
  9 10  1  0
  9 11  2  0
 11 12  1  0
 11 13  1  0
 13 14  1  0
 13 15  2  0
 15 16  1  0
  4 17  1  0
 17 18  1  0
 18 19  1  0
 19 20  2  0
 20 21  1  0
 20 22  1  0
 22 23  1  0
 22 24  2  0
 24 25  1  0
 25 26  2  0
 25 27  2  0
 25 28  1  0
 28 29  1  0
 29 30  1  0
 29 31  1  0
 29 32  1  0
 32 33  1  0
 32 34  1  0
 32 35  1  0
 35 36  1  0
 36 37  1  0
 36 38  1  0
 36 39  1  0
 35 40  1  0
 40 41  1  0
 40 42  1  0
 40 43  1  0
 24 44  1  0
 44 45  1  0
 44 46  2  0
 46 47  1  0
 18  2  2  0
 46 19  1  0
 15  6  1  0
M  CHG  2   3  -1  28  -1
M  END
>  <UniqueID>  (39) 
33

>  <SMILES>  (39) 
CN(C)CC[N-]S(=O)(=O)c1ccc(-c2c[n-]/c(=N\c3cccc(Cl)c3)o2)cc1

>  <Energy>  (39) 
83.40904125546592

>  <Genealogy>  (39) 
CN(C)CC[N-]S(=O)(=O)c1ccc(-c2c[n-]c(=Nc3cccc(Cl)c3)o2)cc1 (protonated)
CN(C)CC[N-]S(=O)(=O)c1ccc(-c2c[n-]/c(=N\c3cccc(Cl)c3)o2)cc1 (cis-trans isomerization)
CN(C)CC[N-]S(=O)(=O)c1ccc(-c2c[n-]/c(=N\c3cccc(Cl)c3)o2)cc1 (3D coordinates assigned)
CN(C)CC[N-]S(=O)(=O)c1ccc(-c2c[n-]/c(=N\c3cccc(Cl)c3)o2)cc1 (optimized conformer: 83.40904125546592 kcal/mol)

>  <smiles>  (39) 
CN(C)CCNS(=O)(=O)c1ccc(-c2c[nH]c(=Nc3cccc(Cl)c3)o2)cc1

>  <score_type>  (39) 
oracle

>  <origin>  (39) 
adgpu

>  <m_score__min__energy>  (39) 
-9.0299999999999994

>  <m_primary>  (39) 
energy

$$$$
39:0
     RDKit          3D

 43 45  0  0  0  0  0  0  0  0999 V2000
   -0.8140   21.9290  -29.6600 C   0  0  0  0  0  0  0  0  0  0  0  0
   -0.9160   22.0090  -31.0780 O   0  0  0  0  0  0  0  0  0  0  0  0
   -1.7720   21.2160  -31.8560 C   0  0  0  0  0  0  0  0  0  0  0  0
   -1.5710   19.8350  -32.0320 C   0  0  0  0  0  0  0  0  0  0  0  0
   -2.4550   19.0890  -32.8170 C   0  0  0  0  0  0  0  0  0  0  0  0
   -3.5540   19.7020  -33.4400 C   0  0  0  0  0  0  0  0  0  0  0  0
   -4.4420   18.9010  -34.2390 N   0  0  0  0  0  0  0  0  0  0  0  0
   -5.7240   17.9270  -33.5920 S   0  0  0  0  0  0  0  0  0  0  0  0
   -6.3720   17.1350  -34.6930 O   0  0  0  0  0  0  0  0  0  0  0  0
   -5.1770   16.9850  -32.5570 O   0  0  0  0  0  0  0  0  0  0  0  0
   -6.9230   18.9800  -32.8480 C   0  0  0  0  0  0  0  0  0  0  0  0
   -8.1840   18.4760  -32.5010 C   0  0  0  0  0  0  0  0  0  0  0  0
   -9.1260   19.3060  -31.8860 C   0  0  0  0  0  0  0  0  0  0  0  0
   -8.8150   20.6400  -31.6160 C   0  0  0  0  0  0  0  0  0  0  0  0
   -7.5570   21.1590  -31.9720 C   0  0  0  0  0  0  0  0  0  0  0  0
   -7.1950   22.5190  -31.6910 N   0  0  0  0  0  0  0  0  0  0  0  0
   -6.8940   23.0640  -30.3980 C   0  0  0  0  0  0  0  0  0  0  0  0
   -7.7680   22.9870  -29.4940 O   0  0  0  0  0  0  0  0  0  0  0  0
   -5.5750   23.6600  -30.0830 C   0  0  0  0  0  0  0  0  0  0  0  0
   -4.7640   23.1010  -29.0840 C   0  0  0  0  0  0  0  0  0  0  0  0
   -3.5190   23.6630  -28.7930 C   0  0  0  0  0  0  0  0  0  0  0  0
   -3.0870   24.7780  -29.5150 C   0  0  0  0  0  0  0  0  0  0  0  0
   -1.9690   25.2980  -29.2650 O   0  0  0  0  0  0  0  0  0  0  0  0
   -3.8740   25.3010  -30.4920 N   0  0  0  0  0  0  0  0  0  0  0  0
   -5.0910   24.7730  -30.7920 C   0  0  0  0  0  0  0  0  0  0  0  0
   -6.6100   20.3170  -32.5670 C   0  0  0  0  0  0  0  0  0  0  0  0
   -3.7500   21.0830  -33.2620 C   0  0  0  0  0  0  0  0  0  0  0  0
   -2.8660   21.8290  -32.4760 C   0  0  0  0  0  0  0  0  0  0  0  0
   -1.6004   22.5458  -29.2004 H   0  0  0  0  0  0  0  0  0  0  0  0
   -0.9357   20.8830  -29.3421 H   0  0  0  0  0  0  0  0  0  0  0  0
    0.1729   22.2964  -29.3421 H   0  0  0  0  0  0  0  0  0  0  0  0
   -0.7149   19.3401  -31.5501 H   0  0  0  0  0  0  0  0  0  0  0  0
   -2.2878   18.0097  -32.9481 H   0  0  0  0  0  0  0  0  0  0  0  0
   -4.3240   18.8960  -35.2770 H   0  0  0  0  0  0  0  0  0  0  0  0
   -8.4329   17.4257  -32.7129 H   0  0  0  0  0  0  0  0  0  0  0  0
  -10.1144   18.9071  -31.6142 H   0  0  0  0  0  0  0  0  0  0  0  0
   -9.5558   21.2870  -31.1235 H   0  0  0  0  0  0  0  0  0  0  0  0
   -5.1099   22.2171  -28.5280 H   0  0  0  0  0  0  0  0  0  0  0  0
   -2.8854   23.2322  -28.0037 H   0  0  0  0  0  0  0  0  0  0  0  0
   -5.6991   25.2189  -31.5929 H   0  0  0  0  0  0  0  0  0  0  0  0
   -5.6123   20.7078  -32.8160 H   0  0  0  0  0  0  0  0  0  0  0  0
   -4.6046   21.5800  -33.7444 H   0  0  0  0  0  0  0  0  0  0  0  0
   -3.0325   22.9083  -32.3440 H   0  0  0  0  0  0  0  0  0  0  0  0
  1  2  1  0
  2  3  1  0
  3  4  2  0
  4  5  1  0
  5  6  2  0
  6  7  1  0
  7  8  1  0
  8  9  2  0
  8 10  2  0
  8 11  1  0
 11 12  2  0
 12 13  1  0
 13 14  2  0
 14 15  1  0
 15 16  1  0
 16 17  1  0
 17 18  2  0
 17 19  1  0
 19 20  1  0
 20 21  2  0
 21 22  1  0
 22 23  2  0
 22 24  1  0
 24 25  1  0
 15 26  2  0
  6 27  1  0
 27 28  2  0
 28  3  1  0
 26 11  1  0
 25 19  2  0
  1 29  1  0
  1 30  1  0
  1 31  1  0
  4 32  1  0
  5 33  1  0
  7 34  1  0
 12 35  1  0
 13 36  1  0
 14 37  1  0
 20 38  1  0
 21 39  1  0
 25 40  1  0
 26 41  1  0
 27 42  1  0
 28 43  1  0
M  CHG  2  16  -1  24  -1
M  END
>  <UniqueID>  (40) 
34

>  <SMILES>  (40) 
COc1ccc(NS(=O)(=O)c2cccc([N-]C(=O)c3ccc(=O)[n-]c3)c2)cc1

>  <Energy>  (40) 
56.77292836553473

>  <Genealogy>  (40) 
COc1ccc(NS(=O)(=O)c2cccc([N-]C(=O)c3ccc(=O)[n-]c3)c2)cc1 (protonated)
COc1ccc(NS(=O)(=O)c2cccc([N-]C(=O)c3ccc(=O)[n-]c3)c2)cc1 (3D coordinates assigned)
COc1ccc(NS(=O)(=O)c2cccc([N-]C(=O)c3ccc(=O)[n-]c3)c2)cc1 (optimized conformer: 56.77292836553473 kcal/mol)

>  <smiles>  (40) 
COc1ccc(NS(=O)(=O)c2cccc(NC(=O)c3ccc(=O)[nH]c3)c2)cc1

>  <score_type>  (40) 
oracle

>  <origin>  (40) 
adgpu

>  <m_score__min__energy>  (40) 
-11

>  <m_primary>  (40) 
energy

$$$$
40:0
     RDKit          3D

 51 53  0  0  1  0  0  0  0  0999 V2000
   -0.5180   30.1300  -38.2820 C   0  0  0  0  0  0  0  0  0  0  0  0
   -0.4830   28.7590  -37.7560 C   0  0  0  0  0  0  0  0  0  0  0  0
   -0.4770   27.6990  -38.6670 C   0  0  0  0  0  0  0  0  0  0  0  0
   -0.4460   26.4210  -38.1890 C   0  0  0  0  0  0  0  0  0  0  0  0
   -0.4200   26.0820  -36.8540 C   0  0  0  0  0  0  0  0  0  0  0  0
   -0.3890   24.7190  -36.4520 N   0  0  0  0  0  0  0  0  0  0  0  0
    0.8160   23.9690  -36.4680 C   0  0  0  0  0  0  0  0  0  0  0  0
    1.8910   24.5320  -36.8540 O   0  0  0  0  0  0  0  0  0  0  0  0
    0.9060   22.5730  -36.0650 C   0  0  0  0  0  0  0  0  0  0  0  0
    2.0090   21.8610  -36.4510 C   0  0  0  0  0  0  0  0  0  0  0  0
    2.1570   20.5270  -36.0960 C   0  0  0  0  0  0  0  0  0  0  0  0
    1.1500   19.9440  -35.3390 C   0  0  0  0  0  0  0  0  0  0  0  0
    0.0280   20.6160  -34.9290 C   0  0  0  0  0  0  0  0  0  0  0  0
   -1.0360   20.0110  -34.1300 C   0  0  0  0  0  0  0  0  0  0  0  0
   -1.5920   18.9790  -34.5800 O   0  0  0  0  0  0  0  0  0  0  0  0
   -1.4690   20.5230  -32.8870 N   0  0  0  0  0  0  0  0  0  0  0  0
   -2.5100   19.9580  -32.0630 C   0  0  0  0  0  0  0  0  0  0  0  0
   -3.1040   21.0470  -31.2530 C   0  0  0  0  0  0  0  0  0  0  0  0
   -2.8730   21.2340  -29.9140 C   0  0  0  0  0  0  0  0  0  0  0  0
   -3.4890   22.3040  -29.2780 C   0  0  0  0  0  0  0  0  0  0  0  0
   -4.3180   23.1880  -29.9190 C   0  0  0  0  0  0  0  0  0  0  0  0
   -4.9690   24.3140  -29.2600 C   0  0  0  0  0  0  0  0  0  0  0  0
   -4.5970   24.6300  -27.9490 O   0  0  0  0  0  0  0  0  0  0  0  0
   -5.8620   25.0130  -29.8450 N   0  0  0  0  0  0  0  0  0  0  0  0
   -6.5020   26.0760  -29.2770 O   0  0  0  0  0  0  0  0  0  0  0  0
   -4.5480   22.9940  -31.2660 C   0  0  0  0  0  0  0  0  0  0  0  0
   -3.9400   21.9290  -31.9220 C   0  0  0  0  0  0  0  0  0  0  0  0
   -0.0660   21.9510  -35.3150 C   0  0  0  0  0  0  0  0  0  0  0  0
   -0.4250   27.1360  -35.9510 C   0  0  0  0  0  0  0  0  0  0  0  0
   -0.4570   28.4310  -36.4260 C   0  0  0  0  0  0  0  0  0  0  0  0
   -0.4620   29.4490  -35.5110 F   0  0  0  0  0  0  0  0  0  0  0  0
   -0.5362   30.8435  -37.4450 H   0  0  0  0  0  0  0  0  0  0  0  0
    0.3759   30.3095  -38.8975 H   0  0  0  0  0  0  0  0  0  0  0  0
   -1.4199   30.2637  -38.8975 H   0  0  0  0  0  0  0  0  0  0  0  0
   -0.4969   27.8914  -39.7499 H   0  0  0  0  0  0  0  0  0  0  0  0
   -0.4414   25.6019  -38.9233 H   0  0  0  0  0  0  0  0  0  0  0  0
   -1.2750   24.2680  -36.1390 H   0  0  0  0  0  0  0  0  0  0  0  0
    2.7892   22.3524  -37.0509 H   0  0  0  0  0  0  0  0  0  0  0  0
    3.0423   19.9515  -36.4042 H   0  0  0  0  0  0  0  0  0  0  0  0
    1.2582   18.8873  -35.0532 H   0  0  0  0  0  0  0  0  0  0  0  0
   -0.9710   21.3990  -32.5470 H   0  0  0  0  0  0  0  0  0  0  0  0
   -3.2833   19.5038  -32.6999 H   0  0  0  0  0  0  0  0  0  0  0  0
   -2.0934   19.1805  -31.4058 H   0  0  0  0  0  0  0  0  0  0  0  0
   -2.2146   20.5517  -29.3563 H   0  0  0  0  0  0  0  0  0  0  0  0
   -3.3020   22.4498  -28.2039 H   0  0  0  0  0  0  0  0  0  0  0  0
   -4.9120   25.5210  -27.5510 H   0  0  0  0  0  0  0  0  0  0  0  0
   -6.0750   26.6310  -28.5540 H   0  0  0  0  0  0  0  0  0  0  0  0
   -5.2090   23.6784  -31.8180 H   0  0  0  0  0  0  0  0  0  0  0  0
   -4.1263   21.7827  -32.9962 H   0  0  0  0  0  0  0  0  0  0  0  0
   -0.9500   22.5297  -35.0090 H   0  0  0  0  0  0  0  0  0  0  0  0
   -0.4037   26.9411  -34.8686 H   0  0  0  0  0  0  0  0  0  0  0  0
  1  2  1  0
  2  3  2  0
  3  4  1  0
  4  5  2  0
  5  6  1  0
  6  7  1  0
  7  8  2  0
  7  9  1  0
  9 10  2  0
 10 11  1  0
 11 12  2  0
 12 13  1  0
 13 14  1  0
 14 15  2  0
 14 16  1  0
 16 17  1  0
 17 18  1  0
 18 19  2  0
 19 20  1  0
 20 21  2  0
 21 22  1  0
 22 23  1  0
 22 24  2  0
 24 25  1  0
 21 26  1  0
 26 27  2  0
 13 28  2  0
  5 29  1  0
 29 30  2  0
 30 31  1  0
 30  2  1  0
 28  9  1  0
 27 18  1  0
  1 32  1  0
  1 33  1  0
  1 34  1  0
  3 35  1  0
  4 36  1  0
  6 37  1  0
 10 38  1  0
 11 39  1  0
 12 40  1  0
 16 41  1  0
 17 42  1  0
 17 43  1  0
 19 44  1  0
 20 45  1  0
 23 46  1  0
 25 47  1  0
 26 48  1  0
 27 49  1  0
 28 50  1  0
 29 51  1  0
M  END
>  <smiles>  (41) 
Cc1ccc(NC(=O)c2cccc(C(=O)NCc3ccc(C(O)=NO)cc3)c2)cc1F

>  <score_type>  (41) 
oracle

>  <origin>  (41) 
adgpu

>  <m_score__min__energy>  (41) 
-10.32

>  <m_primary>  (41) 
energy

$$$$
41:0
     RDKit          3D

 48 50  0  0  0  0  0  0  0  0999 V2000
    1.3790   15.9510  -31.8190 C   0  0  0  0  0  0  0  0  0  0  0  0
   -0.0840   16.1530  -32.0430 C   0  0  0  0  0  0  0  0  0  0  0  0
   -0.6120   17.2530  -31.7220 O   0  0  0  0  0  0  0  0  0  0  0  0
   -0.8890   15.0690  -32.5320 N   0  0  0  0  0  0  0  0  0  0  0  0
   -2.2560   15.2050  -32.9560 C   0  0  0  0  0  0  0  0  0  0  0  0
   -3.2960   14.5090  -32.3160 C   0  0  0  0  0  0  0  0  0  0  0  0
   -4.6200   14.6790  -32.7330 C   0  0  0  0  0  0  0  0  0  0  0  0
   -4.9330   15.5680  -33.7740 C   0  0  0  0  0  0  0  0  0  0  0  0
   -6.3720   15.7550  -34.2140 C   0  0  0  0  0  0  0  0  0  0  0  0
   -6.8690   17.1420  -34.0660 N   0  0  0  0  0  0  0  0  0  0  0  0
   -7.2200   17.5030  -32.6740 C   0  0  0  0  0  0  0  0  0  0  0  0
   -7.4360   19.0100  -32.5170 C   0  0  0  0  0  0  0  0  0  0  0  0
   -6.2260   19.7350  -32.9290 N   0  0  0  0  0  0  0  0  0  0  0  0
   -5.9230   21.0320  -32.3680 C   0  0  0  0  0  0  0  0  0  0  0  0
   -6.9560   21.9260  -32.0340 C   0  0  0  0  0  0  0  0  0  0  0  0
   -6.6630   23.1820  -31.4950 C   0  0  0  0  0  0  0  0  0  0  0  0
   -5.3310   23.5730  -31.2770 C   0  0  0  0  0  0  0  0  0  0  0  0
   -5.0250   24.8650  -30.7230 N   0  0  0  0  0  0  0  0  0  0  0  0
   -3.8540   25.2950  -30.7200 O   0  0  0  0  0  0  0  0  0  0  0  0
   -6.0200   25.6480  -30.1840 O   0  0  0  0  0  0  0  0  0  0  0  0
   -4.2990   22.6800  -31.6090 C   0  0  0  0  0  0  0  0  0  0  0  0
   -4.5910   21.4250  -32.1500 C   0  0  0  0  0  0  0  0  0  0  0  0
   -5.3140   19.1100  -33.8980 C   0  0  0  0  0  0  0  0  0  0  0  0
   -6.0900   18.1570  -34.8160 C   0  0  0  0  0  0  0  0  0  0  0  0
   -3.8900   16.2590  -34.4140 C   0  0  0  0  0  0  0  0  0  0  0  0
   -2.5670   16.0890  -33.9980 C   0  0  0  0  0  0  0  0  0  0  0  0
    1.5841   15.9227  -30.7387 H   0  0  0  0  0  0  0  0  0  0  0  0
    1.6923   15.0011  -32.2767 H   0  0  0  0  0  0  0  0  0  0  0  0
    1.9380   16.7805  -32.2767 H   0  0  0  0  0  0  0  0  0  0  0  0
   -0.4780   14.1080  -32.5000 H   0  0  0  0  0  0  0  0  0  0  0  0
   -3.0675   13.8275  -31.4833 H   0  0  0  0  0  0  0  0  0  0  0  0
   -5.4235   14.1112  -32.2411 H   0  0  0  0  0  0  0  0  0  0  0  0
   -6.4500   15.4703  -35.2737 H   0  0  0  0  0  0  0  0  0  0  0  0
   -6.9906   15.1226  -33.5603 H   0  0  0  0  0  0  0  0  0  0  0  0
   -8.1453   16.9791  -32.3924 H   0  0  0  0  0  0  0  0  0  0  0  0
   -6.3850   17.2067  -32.0221 H   0  0  0  0  0  0  0  0  0  0  0  0
   -8.2816   19.3246  -33.1463 H   0  0  0  0  0  0  0  0  0  0  0  0
   -7.6522   19.2366  -31.4625 H   0  0  0  0  0  0  0  0  0  0  0  0
   -8.0038   21.6343  -32.1984 H   0  0  0  0  0  0  0  0  0  0  0  0
   -7.4821   23.8702  -31.2393 H   0  0  0  0  0  0  0  0  0  0  0  0
   -3.2515   22.9711  -31.4417 H   0  0  0  0  0  0  0  0  0  0  0  0
   -3.7711   20.7384  -32.4076 H   0  0  0  0  0  0  0  0  0  0  0  0
   -4.8376   19.8930  -34.5062 H   0  0  0  0  0  0  0  0  0  0  0  0
   -4.5472   18.5395  -33.3535 H   0  0  0  0  0  0  0  0  0  0  0  0
   -6.7842   18.7489  -35.4306 H   0  0  0  0  0  0  0  0  0  0  0  0
   -5.3544   17.6199  -35.4328 H   0  0  0  0  0  0  0  0  0  0  0  0
   -4.1168   16.9387  -35.2486 H   0  0  0  0  0  0  0  0  0  0  0  0
   -1.7629   16.6537  -34.4925 H   0  0  0  0  0  0  0  0  0  0  0  0
  1  2  1  0
  2  3  2  0
  2  4  1  0
  4  5  1  0
  5  6  2  0
  6  7  1  0
  7  8  2  0
  8  9  1  0
  9 10  1  0
 10 11  1  0
 11 12  1  0
 12 13  1  0
 13 14  1  0
 14 15  2  0
 15 16  1  0
 16 17  2  0
 17 18  1  0
 18 19  2  0
 18 20  1  0
 17 21  1  0
 21 22  2  0
 13 23  1  0
 23 24  1  0
  8 25  1  0
 25 26  2  0
 26  5  1  0
 24 10  1  0
 22 14  1  0
  1 27  1  0
  1 28  1  0
  1 29  1  0
  4 30  1  0
  6 31  1  0
  7 32  1  0
  9 33  1  0
  9 34  1  0
 11 35  1  0
 11 36  1  0
 12 37  1  0
 12 38  1  0
 15 39  1  0
 16 40  1  0
 21 41  1  0
 22 42  1  0
 23 43  1  0
 23 44  1  0
 24 45  1  0
 24 46  1  0
 25 47  1  0
 26 48  1  0
M  CHG  2  18   1  20  -1
M  END
>  <UniqueID>  (42) 
35

>  <SMILES>  (42) 
CC(=O)Nc1ccc(CN2CCN(c3ccc([N+](=O)[O-])cc3)CC2)cc1

>  <Energy>  (42) 
64.66423980423201

>  <Genealogy>  (42) 
CC(=O)Nc1ccc(CN2CCN(c3ccc([N+](=O)[O-])cc3)CC2)cc1 (3D coordinates assigned)
CC(=O)Nc1ccc(CN2CCN(c3ccc([N+](=O)[O-])cc3)CC2)cc1 (nonaromatic ring conformer: 64.66423980423201 kcal/mol)

>  <smiles>  (42) 
CC(=O)Nc1ccc(CN2CCN(c3ccc([N+](=O)[O-])cc3)CC2)cc1

>  <score_type>  (42) 
oracle

>  <origin>  (42) 
adgpu

>  <m_score__min__energy>  (42) 
-8.2899999999999991

>  <m_primary>  (42) 
energy

$$$$
42:0
     RDKit          3D

 17 17  0  0  0  0  0  0  0  0999 V2000
   -5.0110   20.9010  -32.9890 C   0  0  0  0  0  0  0  0  0  0  0  0
   -5.9010   21.3300  -31.9640 O   0  0  0  0  0  0  0  0  0  0  0  0
   -5.8630   22.5960  -31.3580 C   0  0  0  0  0  0  0  0  0  0  0  0
   -4.6640   23.3230  -31.2100 C   0  0  0  0  0  0  0  0  0  0  0  0
   -4.6730   24.5810  -30.5990 C   0  0  0  0  0  0  0  0  0  0  0  0
   -3.4870   25.2910  -30.4570 O   0  0  0  0  0  0  0  0  0  0  0  0
   -5.8720   25.1240  -30.1330 C   0  0  0  0  0  0  0  0  0  0  0  0
   -7.0650   24.4120  -30.2770 C   0  0  0  0  0  0  0  0  0  0  0  0
   -7.0640   23.1490  -30.8870 C   0  0  0  0  0  0  0  0  0  0  0  0
   -8.2540   22.4380  -31.0300 O   0  0  0  0  0  0  0  0  0  0  0  0
   -4.1092   20.4663  -32.5333 H   0  0  0  0  0  0  0  0  0  0  0  0
   -5.5081   20.1436  -33.6129 H   0  0  0  0  0  0  0  0  0  0  0  0
   -4.7281   21.7617  -33.6129 H   0  0  0  0  0  0  0  0  0  0  0  0
   -3.7176   22.8989  -31.5766 H   0  0  0  0  0  0  0  0  0  0  0  0
   -5.8770   26.1133  -29.6521 H   0  0  0  0  0  0  0  0  0  0  0  0
   -8.0084   24.8432  -29.9108 H   0  0  0  0  0  0  0  0  0  0  0  0
   -8.2700   21.5050  -31.4270 H   0  0  0  0  0  0  0  0  0  0  0  0
  1  2  1  0
  2  3  1  0
  3  4  2  0
  4  5  1  0
  5  6  1  0
  5  7  2  0
  7  8  1  0
  8  9  2  0
  9 10  1  0
  9  3  1  0
  1 11  1  0
  1 12  1  0
  1 13  1  0
  4 14  1  0
  7 15  1  0
  8 16  1  0
 10 17  1  0
M  CHG  1   6  -1
M  END
>  <UniqueID>  (43) 
36

>  <SMILES>  (43) 
COc1cc([O-])ccc1O

>  <Energy>  (43) 
14.775934733016818

>  <Genealogy>  (43) 
COc1cc([O-])ccc1O (protonated)
COc1cc([O-])ccc1O (3D coordinates assigned)
COc1cc([O-])ccc1O (optimized conformer: 14.775934733016818 kcal/mol)

>  <smiles>  (43) 
COc1cc(O)ccc1O

>  <score_type>  (43) 
oracle

>  <origin>  (43) 
adgpu

>  <m_score__min__energy>  (43) 
-6.2699999999999996

>  <m_primary>  (43) 
energy

$$$$
43:0
     RDKit          3D

 31 32  0  0  0  0  0  0  0  0999 V2000
   -5.0363   18.4786  -34.4832 H   0  0  0  0  0  0  0  0  0  0  0  0
   -5.1760   19.1650  -33.6350 C   0  0  0  0  0  0  0  0  0  0  0  0
   -4.1110   19.8860  -33.2360 C   0  0  0  0  0  0  0  0  0  0  0  0
   -2.8310   19.6140  -33.8410 C   0  0  0  0  0  0  0  0  0  0  0  0
   -1.8030   19.3950  -34.3260 N   0  0  0  0  0  0  0  0  0  0  0  0
   -4.1890   20.9780  -32.2390 C   0  0  0  0  0  0  0  0  0  0  0  0
   -3.6960   20.8030  -31.0920 O   0  0  0  0  0  0  0  0  0  0  0  0
   -4.7360   22.2590  -32.5970 N   0  0  0  0  0  0  0  0  0  0  0  0
   -4.6970   22.5400  -33.6030 H   0  0  0  0  0  0  0  0  0  0  0  0
   -5.2860   23.1920  -31.6520 C   0  0  0  0  0  0  0  0  0  0  0  0
   -6.6790   23.2970  -31.5190 C   0  0  0  0  0  0  0  0  0  0  0  0
   -7.3355   22.6849  -32.1550 H   0  0  0  0  0  0  0  0  0  0  0  0
   -7.2390   24.1730  -30.5850 C   0  0  0  0  0  0  0  0  0  0  0  0
   -8.3322   24.2558  -30.4951 H   0  0  0  0  0  0  0  0  0  0  0  0
   -6.4100   24.9440  -29.7650 C   0  0  0  0  0  0  0  0  0  0  0  0
   -6.8512   25.6386  -29.0350 H   0  0  0  0  0  0  0  0  0  0  0  0
   -5.0220   24.8330  -29.8720 C   0  0  0  0  0  0  0  0  0  0  0  0
   -4.3708   25.4342  -29.2204 H   0  0  0  0  0  0  0  0  0  0  0  0
   -4.4590   23.9580  -30.8070 C   0  0  0  0  0  0  0  0  0  0  0  0
   -3.3653   23.8676  -30.8828 H   0  0  0  0  0  0  0  0  0  0  0  0
   -6.5200   19.2260  -33.0190 C   0  0  0  0  0  0  0  0  0  0  0  0
   -7.3130   20.3850  -33.1080 C   0  0  0  0  0  0  0  0  0  0  0  0
   -6.9384   21.2650  -33.6513 H   0  0  0  0  0  0  0  0  0  0  0  0
   -8.5760   20.4220  -32.5080 C   0  0  0  0  0  0  0  0  0  0  0  0
   -9.2001   21.3235  -32.5966 H   0  0  0  0  0  0  0  0  0  0  0  0
   -9.0460   19.3150  -31.7960 C   0  0  0  0  0  0  0  0  0  0  0  0
  -10.0427   19.3417  -31.3314 H   0  0  0  0  0  0  0  0  0  0  0  0
   -8.2480   18.1740  -31.6750 C   0  0  0  0  0  0  0  0  0  0  0  0
   -8.6137   17.3071  -31.1052 H   0  0  0  0  0  0  0  0  0  0  0  0
   -6.9860   18.1310  -32.2760 C   0  0  0  0  0  0  0  0  0  0  0  0
   -6.3566   17.2356  -32.1658 H   0  0  0  0  0  0  0  0  0  0  0  0
  1  2  1  0
  2  3  2  0
  3  4  1  0
  4  5  3  0
  3  6  1  0
  6  7  2  0
  6  8  1  0
  8  9  1  0
  8 10  1  0
 10 11  2  0
 11 12  1  0
 11 13  1  0
 13 14  1  0
 13 15  2  0
 15 16  1  0
 15 17  1  0
 17 18  1  0
 17 19  2  0
 19 20  1  0
  2 21  1  0
 21 22  2  0
 22 23  1  0
 22 24  1  0
 24 25  1  0
 24 26  2  0
 26 27  1  0
 26 28  1  0
 28 29  1  0
 28 30  2  0
 30 31  1  0
 19 10  1  0
 30 21  1  0
M  END
>  <UniqueID>  (44) 
37

>  <SMILES>  (44) 
N#C/C(=C/c1ccccc1)C(=O)Nc1ccccc1

>  <Energy>  (44) 
41.84489380189887

>  <Genealogy>  (44) 
N#C/C(=C/c1ccccc1)C(=O)Nc1ccccc1 (cis-trans isomerization)
N#C/C(=C/c1ccccc1)C(=O)Nc1ccccc1 (3D coordinates assigned)
N#C/C(=C/c1ccccc1)C(=O)Nc1ccccc1 (optimized conformer: 41.84489380189887 kcal/mol)

>  <smiles>  (44) 
N#CC(=Cc1ccccc1)C(=O)Nc1ccccc1

>  <score_type>  (44) 
oracle

>  <origin>  (44) 
adgpu

>  <m_score__min__energy>  (44) 
-7.7300000000000004

>  <m_primary>  (44) 
energy

$$$$
44:0
     RDKit          3D

 51 54  0  0  0  0  0  0  0  0999 V2000
   -9.8630   21.5900  -31.6570 C   0  0  0  0  0  0  0  0  0  0  0  0
   -8.4240   21.2060  -31.7960 C   0  0  0  0  0  0  0  0  0  0  0  0
   -8.0640   20.0370  -32.4720 C   0  0  0  0  0  0  0  0  0  0  0  0
   -6.7020   19.7230  -32.6040 C   0  0  0  0  0  0  0  0  0  0  0  0
   -6.2600   18.5270  -33.2860 N   0  0  0  0  0  0  0  0  0  0  0  0
   -6.8750   17.2370  -32.9400 C   0  0  0  0  0  0  0  0  0  0  0  0
   -6.7600   16.2590  -34.1120 C   0  0  0  0  0  0  0  0  0  0  0  0
   -5.4230   16.1750  -34.5610 O   0  0  0  0  0  0  0  0  0  0  0  0
   -5.0370   17.4150  -35.1210 C   0  0  0  0  0  0  0  0  0  0  0  0
   -5.0060   18.5130  -34.0540 C   0  0  0  0  0  0  0  0  0  0  0  0
   -5.7800   20.5800  -32.0860 N   0  0  0  0  0  0  0  0  0  0  0  0
   -6.1380   21.7220  -31.4400 C   0  0  0  0  0  0  0  0  0  0  0  0
   -5.0990   22.6340  -30.9000 C   0  0  0  0  0  0  0  0  0  0  0  0
   -5.4100   23.9710  -30.5890 C   0  0  0  0  0  0  0  0  0  0  0  0
   -4.4320   24.8260  -30.0720 C   0  0  0  0  0  0  0  0  0  0  0  0
   -3.1340   24.3620  -29.8410 C   0  0  0  0  0  0  0  0  0  0  0  0
   -2.1490   25.2750  -29.3400 N   0  0  0  0  0  0  0  0  0  0  0  0
   -1.7120   25.3780  -27.9800 C   0  0  0  0  0  0  0  0  0  0  0  0
   -1.8960   24.3970  -27.2110 O   0  0  0  0  0  0  0  0  0  0  0  0
   -1.0490   26.5630  -27.5050 N   0  0  0  0  0  0  0  0  0  0  0  0
   -0.6530   26.7670  -26.1400 C   0  0  0  0  0  0  0  0  0  0  0  0
    0.6130   27.2860  -25.8100 C   0  0  0  0  0  0  0  0  0  0  0  0
    0.9650   27.4900  -24.4720 C   0  0  0  0  0  0  0  0  0  0  0  0
    0.0540   27.1930  -23.4540 C   0  0  0  0  0  0  0  0  0  0  0  0
   -1.2140   26.7000  -23.7750 C   0  0  0  0  0  0  0  0  0  0  0  0
   -1.5690   26.4960  -25.1110 C   0  0  0  0  0  0  0  0  0  0  0  0
   -2.8080   23.0380  -30.1770 C   0  0  0  0  0  0  0  0  0  0  0  0
   -3.7830   22.1790  -30.6930 C   0  0  0  0  0  0  0  0  0  0  0  0
   -7.4570   22.0240  -31.3040 N   0  0  0  0  0  0  0  0  0  0  0  0
  -10.1226   21.6593  -30.5903 H   0  0  0  0  0  0  0  0  0  0  0  0
  -10.0307   22.5643  -32.1392 H   0  0  0  0  0  0  0  0  0  0  0  0
  -10.4939   20.8288  -32.1392 H   0  0  0  0  0  0  0  0  0  0  0  0
   -8.8344   19.3744  -32.8933 H   0  0  0  0  0  0  0  0  0  0  0  0
   -6.3618   16.8143  -32.0637 H   0  0  0  0  0  0  0  0  0  0  0  0
   -7.9392   17.3986  -32.7135 H   0  0  0  0  0  0  0  0  0  0  0  0
   -7.0950   15.2633  -33.7860 H   0  0  0  0  0  0  0  0  0  0  0  0
   -7.3893   16.6208  -34.9385 H   0  0  0  0  0  0  0  0  0  0  0  0
   -4.0345   17.3139  -35.5624 H   0  0  0  0  0  0  0  0  0  0  0  0
   -5.7706   17.6953  -35.8912 H   0  0  0  0  0  0  0  0  0  0  0  0
   -4.1653   18.3275  -33.3693 H   0  0  0  0  0  0  0  0  0  0  0  0
   -4.8852   19.4865  -34.5517 H   0  0  0  0  0  0  0  0  0  0  0  0
   -6.4308   24.3463  -30.7540 H   0  0  0  0  0  0  0  0  0  0  0  0
   -4.6861   25.8720  -29.8453 H   0  0  0  0  0  0  0  0  0  0  0  0
   -0.9250   27.3630  -28.1650 H   0  0  0  0  0  0  0  0  0  0  0  0
    1.3288   27.5323  -26.6081 H   0  0  0  0  0  0  0  0  0  0  0  0
    1.9603   27.8848  -24.2201 H   0  0  0  0  0  0  0  0  0  0  0  0
    0.3347   27.3471  -22.4016 H   0  0  0  0  0  0  0  0  0  0  0  0
   -1.9335   26.4723  -22.9747 H   0  0  0  0  0  0  0  0  0  0  0  0
   -2.5729   26.1205  -25.3582 H   0  0  0  0  0  0  0  0  0  0  0  0
   -1.7797   22.6747  -30.0334 H   0  0  0  0  0  0  0  0  0  0  0  0
   -3.5198   21.1397  -30.9391 H   0  0  0  0  0  0  0  0  0  0  0  0
  1  2  1  0
  2  3  2  0
  3  4  1  0
  4  5  1  0
  5  6  1  0
  6  7  1  0
  7  8  1  0
  8  9  1  0
  9 10  1  0
  4 11  2  0
 11 12  1  0
 12 13  1  0
 13 14  2  0
 14 15  1  0
 15 16  2  0
 16 17  1  0
 17 18  1  0
 18 19  2  0
 18 20  1  0
 20 21  1  0
 21 22  2  0
 22 23  1  0
 23 24  2  0
 24 25  1  0
 25 26  2  0
 16 27  1  0
 27 28  2  0
 12 29  2  0
 29  2  1  0
 10  5  1  0
 28 13  1  0
 26 21  1  0
  1 30  1  0
  1 31  1  0
  1 32  1  0
  3 33  1  0
  6 34  1  0
  6 35  1  0
  7 36  1  0
  7 37  1  0
  9 38  1  0
  9 39  1  0
 10 40  1  0
 10 41  1  0
 14 42  1  0
 15 43  1  0
 20 44  1  0
 22 45  1  0
 23 46  1  0
 24 47  1  0
 25 48  1  0
 26 49  1  0
 27 50  1  0
 28 51  1  0
M  CHG  1  17  -1
M  END
>  <UniqueID>  (45) 
38

>  <SMILES>  (45) 
Cc1cc(N2CCOCC2)nc(-c2ccc([N-]C(=O)Nc3ccccc3)cc2)n1

>  <Energy>  (45) 
67.5468685495408

>  <Genealogy>  (45) 
Cc1cc(N2CCOCC2)nc(-c2ccc([N-]C(=O)Nc3ccccc3)cc2)n1 (protonated)
Cc1cc(N2CCOCC2)nc(-c2ccc([N-]C(=O)Nc3ccccc3)cc2)n1 (3D coordinates assigned)
Cc1cc(N2CCOCC2)nc(-c2ccc([N-]C(=O)Nc3ccccc3)cc2)n1 (nonaromatic ring conformer: 67.5468685495408 kcal/mol)

>  <smiles>  (45) 
Cc1cc(N2CCOCC2)nc(-c2ccc(NC(=O)Nc3ccccc3)cc2)n1

>  <score_type>  (45) 
oracle

>  <origin>  (45) 
adgpu

>  <m_score__min__energy>  (45) 
-9.9800000000000004

>  <m_primary>  (45) 
energy

$$$$
45:0
     RDKit          3D

 41 43  0  0  0  0  0  0  0  0999 V2000
   -0.2174   25.5049  -28.1830 H   0  0  0  0  0  0  0  0  0  0  0  0
   -1.0640   24.8460  -28.4260 C   0  0  0  0  0  0  0  0  0  0  0  0
   -2.0080   25.2520  -29.3150 N   0  0  0  0  0  0  0  0  0  0  0  0
   -3.0610   24.4540  -29.6340 C   0  0  0  0  0  0  0  0  0  0  0  0
   -3.9520   24.8860  -30.4790 N   0  0  0  0  0  0  0  0  0  0  0  0
   -5.0920   24.1520  -30.9570 C   0  0  0  0  0  0  0  0  0  0  0  0
   -6.2290   24.6880  -30.8740 O   0  0  0  0  0  0  0  0  0  0  0  0
   -4.9680   22.8160  -31.5880 C   0  0  0  0  0  0  0  0  0  0  0  0
   -5.4900   21.6810  -30.9440 C   0  0  0  0  0  0  0  0  0  0  0  0
   -5.9906   21.7869  -29.9703 H   0  0  0  0  0  0  0  0  0  0  0  0
   -5.3770   20.4190  -31.5330 C   0  0  0  0  0  0  0  0  0  0  0  0
   -5.7828   19.5355  -31.0184 H   0  0  0  0  0  0  0  0  0  0  0  0
   -4.7480   20.2750  -32.7780 C   0  0  0  0  0  0  0  0  0  0  0  0
   -4.6190   18.6920  -33.5420 S   0  0  0  0  0  0  0  0  0  0  0  0
   -3.5290   18.7440  -34.5750 O   0  0  0  0  0  0  0  0  0  0  0  0
   -4.2510   17.6530  -32.5190 O   0  0  0  0  0  0  0  0  0  0  0  0
   -6.1160   18.2440  -34.3150 N   0  0  0  0  0  0  0  0  0  0  0  0
   -6.5200   19.1240  -34.7130 H   0  0  0  0  0  0  0  0  0  0  0  0
   -7.0800   17.7120  -33.3490 C   0  0  0  0  0  0  0  0  0  0  0  0
   -7.7871   17.0518  -33.8726 H   0  0  0  0  0  0  0  0  0  0  0  0
   -6.5309   17.1530  -32.5770 H   0  0  0  0  0  0  0  0  0  0  0  0
   -7.8410   18.8180  -32.6870 C   0  0  0  0  0  0  0  0  0  0  0  0
   -7.9060   20.0440  -33.1510 O   0  0  0  0  0  0  0  0  0  0  0  0
   -8.6520   20.7580  -32.3390 C   0  0  0  0  0  0  0  0  0  0  0  0
   -8.8868   21.8248  -32.4683 H   0  0  0  0  0  0  0  0  0  0  0  0
   -9.0970   19.9660  -31.2980 C   0  0  0  0  0  0  0  0  0  0  0  0
   -9.7411   20.2737  -30.4611 H   0  0  0  0  0  0  0  0  0  0  0  0
   -8.5700   18.7120  -31.5210 C   0  0  0  0  0  0  0  0  0  0  0  0
   -8.7030   17.8145  -30.8991 H   0  0  0  0  0  0  0  0  0  0  0  0
   -4.2480   21.4060  -33.4340 C   0  0  0  0  0  0  0  0  0  0  0  0
   -3.7639   21.3000  -34.4161 H   0  0  0  0  0  0  0  0  0  0  0  0
   -4.3610   22.6690  -32.8470 C   0  0  0  0  0  0  0  0  0  0  0  0
   -3.9726   23.5533  -33.3734 H   0  0  0  0  0  0  0  0  0  0  0  0
   -3.1820   23.2330  -29.0430 N   0  0  0  0  0  0  0  0  0  0  0  0
   -2.2570   22.7810  -28.1560 C   0  0  0  0  0  0  0  0  0  0  0  0
   -2.4270   21.4370  -27.5240 C   0  0  0  0  0  0  0  0  0  0  0  0
   -2.4137   21.5423  -26.4291 H   0  0  0  0  0  0  0  0  0  0  0  0
   -3.3873   21.0025  -27.8389 H   0  0  0  0  0  0  0  0  0  0  0  0
   -1.6052   20.7771  -27.8389 H   0  0  0  0  0  0  0  0  0  0  0  0
   -1.1690   23.5940  -27.8220 C   0  0  0  0  0  0  0  0  0  0  0  0
   -0.4132   23.2532  -27.0990 H   0  0  0  0  0  0  0  0  0  0  0  0
  1  2  1  0
  2  3  2  0
  3  4  1  0
  4  5  2  0
  5  6  1  0
  6  7  2  0
  6  8  1  0
  8  9  2  0
  9 10  1  0
  9 11  1  0
 11 12  1  0
 11 13  2  0
 13 14  1  0
 14 15  2  0
 14 16  2  0
 14 17  1  0
 17 18  1  0
 17 19  1  0
 19 20  1  0
 19 21  1  0
 19 22  1  0
 22 23  1  0
 23 24  1  0
 24 25  1  0
 24 26  2  0
 26 27  1  0
 26 28  1  0
 28 29  1  0
 13 30  1  0
 30 31  1  0
 30 32  2  0
 32 33  1  0
  4 34  1  0
 34 35  1  0
 35 36  1  0
 36 37  1  0
 36 38  1  0
 36 39  1  0
 35 40  2  0
 40 41  1  0
 40  2  1  0
 32  8  1  0
 28 22  2  0
M  CHG  1  34  -1
M  END
>  <UniqueID>  (46) 
39

>  <SMILES>  (46) 
Cc1ccn/c(=N/C(=O)c2ccc(S(=O)(=O)NCc3ccco3)cc2)[n-]1

>  <Energy>  (46) 
73.16336010921759

>  <Genealogy>  (46) 
Cc1ccnc(=NC(=O)c2ccc(S(=O)(=O)NCc3ccco3)cc2)[n-]1 (protonated)
Cc1ccn/c(=N/C(=O)c2ccc(S(=O)(=O)NCc3ccco3)cc2)[n-]1 (cis-trans isomerization)
Cc1ccn/c(=N/C(=O)c2ccc(S(=O)(=O)NCc3ccco3)cc2)[n-]1 (3D coordinates assigned)
Cc1ccn/c(=N/C(=O)c2ccc(S(=O)(=O)NCc3ccco3)cc2)[n-]1 (optimized conformer: 73.16336010921759 kcal/mol)

>  <smiles>  (46) 
Cc1ccnc(=NC(=O)c2ccc(S(=O)(=O)NCc3ccco3)cc2)[nH]1

>  <score_type>  (46) 
oracle

>  <origin>  (46) 
adgpu

>  <m_score__min__energy>  (46) 
-10.529999999999999

>  <m_primary>  (46) 
energy

$$$$
46:0
     RDKit          3D

 56 58  0  0  0  0  0  0  0  0999 V2000
   -6.4580   25.9220  -29.0510 C   0  0  0  0  0  0  0  0  0  0  0  0
   -6.5680   25.5820  -30.4280 O   0  0  0  0  0  0  0  0  0  0  0  0
   -6.3340   24.3030  -30.9590 C   0  0  0  0  0  0  0  0  0  0  0  0
   -7.3940   23.4490  -31.3230 C   0  0  0  0  0  0  0  0  0  0  0  0
   -7.1400   22.2020  -31.9130 C   0  0  0  0  0  0  0  0  0  0  0  0
   -8.2770   21.2850  -32.2710 C   0  0  0  0  0  0  0  0  0  0  0  0
   -7.7470   20.0220  -32.8780 C   0  0  0  0  0  0  0  0  0  0  0  0
   -7.1950   20.0620  -34.0100 O   0  0  0  0  0  0  0  0  0  0  0  0
   -7.8300   18.7870  -32.1540 N   0  0  0  0  0  0  0  0  0  0  0  0
   -7.3310   17.5250  -32.6950 C   0  0  0  0  0  0  0  0  0  0  0  0
   -5.9160   17.6890  -33.1810 C   0  0  0  0  0  0  0  0  0  0  0  0
   -5.4920   17.0740  -34.3690 C   0  0  0  0  0  0  0  0  0  0  0  0
   -4.1710   17.2210  -34.8060 C   0  0  0  0  0  0  0  0  0  0  0  0
   -3.2560   17.9720  -34.0540 C   0  0  0  0  0  0  0  0  0  0  0  0
   -1.8510   18.1560  -34.5470 C   0  0  0  0  0  0  0  0  0  0  0  0
   -3.6820   18.5970  -32.8730 C   0  0  0  0  0  0  0  0  0  0  0  0
   -5.0020   18.4510  -32.4360 C   0  0  0  0  0  0  0  0  0  0  0  0
   -5.8150   21.8020  -32.1310 C   0  0  0  0  0  0  0  0  0  0  0  0
   -4.7580   22.6370  -31.7670 C   0  0  0  0  0  0  0  0  0  0  0  0
   -5.0040   23.8720  -31.1570 C   0  0  0  0  0  0  0  0  0  0  0  0
   -3.8830   24.6890  -30.7930 N   0  0  0  0  0  0  0  0  0  0  0  0
   -3.2370   24.6650  -29.5160 C   0  0  0  0  0  0  0  0  0  0  0  0
   -3.8390   24.1610  -28.5330 O   0  0  0  0  0  0  0  0  0  0  0  0
   -1.9590   25.2910  -29.3440 N   0  0  0  0  0  0  0  0  0  0  0  0
   -1.1010   25.1700  -28.2020 C   0  0  0  0  0  0  0  0  0  0  0  0
   -0.0550   24.2330  -28.1560 C   0  0  0  0  0  0  0  0  0  0  0  0
    0.7920   24.1790  -27.0470 C   0  0  0  0  0  0  0  0  0  0  0  0
    0.6090   25.0610  -25.9790 C   0  0  0  0  0  0  0  0  0  0  0  0
   -0.4350   26.0020  -26.0050 C   0  0  0  0  0  0  0  0  0  0  0  0
   -0.5940   27.0000  -24.8880 C   0  0  0  0  0  0  0  0  0  0  0  0
   -1.6080   26.6170  -24.0270 F   0  0  0  0  0  0  0  0  0  0  0  0
   -0.9040   28.2520  -25.3920 F   0  0  0  0  0  0  0  0  0  0  0  0
    0.5900   27.0810  -24.1790 F   0  0  0  0  0  0  0  0  0  0  0  0
   -1.2660   26.0670  -27.1390 C   0  0  0  0  0  0  0  0  0  0  0  0
   -6.7386   25.0545  -28.4356 H   0  0  0  0  0  0  0  0  0  0  0  0
   -5.4206   26.2107  -28.8263 H   0  0  0  0  0  0  0  0  0  0  0  0
   -7.1297   26.7636  -28.8263 H   0  0  0  0  0  0  0  0  0  0  0  0
   -8.4324   23.7637  -31.1425 H   0  0  0  0  0  0  0  0  0  0  0  0
   -8.8475   21.0409  -31.3628 H   0  0  0  0  0  0  0  0  0  0  0  0
   -8.9304   21.7882  -32.9989 H   0  0  0  0  0  0  0  0  0  0  0  0
   -8.2530   18.7840  -31.1990 H   0  0  0  0  0  0  0  0  0  0  0  0
   -7.3578   16.7568  -31.9081 H   0  0  0  0  0  0  0  0  0  0  0  0
   -7.9668   17.2211  -33.5396 H   0  0  0  0  0  0  0  0  0  0  0  0
   -6.2008   16.4742  -34.9588 H   0  0  0  0  0  0  0  0  0  0  0  0
   -3.8486   16.7452  -35.7439 H   0  0  0  0  0  0  0  0  0  0  0  0
   -1.1697   18.2452  -33.6880 H   0  0  0  0  0  0  0  0  0  0  0  0
   -1.5599   17.2883  -35.1572 H   0  0  0  0  0  0  0  0  0  0  0  0
   -1.7932   19.0694  -35.1572 H   0  0  0  0  0  0  0  0  0  0  0  0
   -2.9751   19.2042  -32.2885 H   0  0  0  0  0  0  0  0  0  0  0  0
   -5.3262   18.9358  -31.5033 H   0  0  0  0  0  0  0  0  0  0  0  0
   -5.6070   20.8249  -32.5914 H   0  0  0  0  0  0  0  0  0  0  0  0
   -3.7223   22.3216  -31.9613 H   0  0  0  0  0  0  0  0  0  0  0  0
    0.0972   23.5397  -28.9963 H   0  0  0  0  0  0  0  0  0  0  0  0
    1.6058   23.4397  -27.0142 H   0  0  0  0  0  0  0  0  0  0  0  0
    1.2857   25.0188  -25.1128 H   0  0  0  0  0  0  0  0  0  0  0  0
   -2.0549   26.8318  -27.1911 H   0  0  0  0  0  0  0  0  0  0  0  0
  1  2  1  0
  2  3  1  0
  3  4  2  0
  4  5  1  0
  5  6  1  0
  6  7  1  0
  7  8  2  0
  7  9  1  0
  9 10  1  0
 10 11  1  0
 11 12  2  0
 12 13  1  0
 13 14  2  0
 14 15  1  0
 14 16  1  0
 16 17  2  0
  5 18  2  0
 18 19  1  0
 19 20  2  0
 20 21  1  0
 21 22  1  0
 22 23  2  0
 22 24  1  0
 24 25  1  0
 25 26  2  0
 26 27  1  0
 27 28  2  0
 28 29  1  0
 29 30  1  0
 30 31  1  0
 30 32  1  0
 30 33  1  0
 29 34  2  0
 20  3  1  0
 34 25  1  0
 17 11  1  0
  1 35  1  0
  1 36  1  0
  1 37  1  0
  4 38  1  0
  6 39  1  0
  6 40  1  0
  9 41  1  0
 10 42  1  0
 10 43  1  0
 12 44  1  0
 13 45  1  0
 15 46  1  0
 15 47  1  0
 15 48  1  0
 16 49  1  0
 17 50  1  0
 18 51  1  0
 19 52  1  0
 26 53  1  0
 27 54  1  0
 28 55  1  0
 34 56  1  0
M  CHG  2  21  -1  24  -1
M  END
>  <UniqueID>  (47) 
40

>  <SMILES>  (47) 
COc1cc(CC(=O)NCc2ccc(C)cc2)ccc1[N-]C(=O)[N-]c1cccc(C(F)(F)F)c1

>  <Energy>  (47) 
60.07885165989816

>  <Genealogy>  (47) 
COc1cc(CC(=O)NCc2ccc(C)cc2)ccc1[N-]C(=O)[N-]c1cccc(C(F)(F)F)c1 (protonated)
COc1cc(CC(=O)NCc2ccc(C)cc2)ccc1[N-]C(=O)[N-]c1cccc(C(F)(F)F)c1 (3D coordinates assigned)
COc1cc(CC(=O)NCc2ccc(C)cc2)ccc1[N-]C(=O)[N-]c1cccc(C(F)(F)F)c1 (optimized conformer: 60.07885165989816 kcal/mol)

>  <smiles>  (47) 
COc1cc(CC(=O)NCc2ccc(C)cc2)ccc1NC(=O)Nc1cccc(C(F)(F)F)c1

>  <score_type>  (47) 
oracle

>  <origin>  (47) 
adgpu

>  <m_score__min__energy>  (47) 
-12.630000000000001

>  <m_primary>  (47) 
energy

$$$$
