0:0
     RDKit          3D

 60 63  0  0  0  0  0  0  0  0999 V2000
   -0.9670   25.4580  -24.7580 C   0  0  0  0  0  0  0  0  0  0  0  0
    0.0890   24.4190  -25.1590 C   0  0  0  0  0  0  0  0  0  0  0  0
    0.1000   24.2260  -26.6920 C   0  0  0  0  0  0  0  0  0  0  0  0
    0.7230   22.8720  -27.0600 C   0  0  0  0  0  0  0  0  0  0  0  0
   -0.0200   21.7210  -26.4880 N   0  0  0  0  0  0  0  0  0  0  0  0
   -1.0360   20.9640  -27.6900 S   0  0  0  0  0  0  0  0  0  0  0  0
   -1.7030   19.7460  -27.1110 O   0  0  0  0  0  0  0  0  0  0  0  0
   -0.2100   20.5390  -28.8710 O   0  0  0  0  0  0  0  0  0  0  0  0
   -2.2550   22.1110  -28.2420 C   0  0  0  0  0  0  0  0  0  0  0  0
   -3.5840   21.9710  -27.8240 C   0  0  0  0  0  0  0  0  0  0  0  0
   -4.5640   22.8570  -28.2800 C   0  0  0  0  0  0  0  0  0  0  0  0
   -4.2250   23.8840  -29.1720 C   0  0  0  0  0  0  0  0  0  0  0  0
   -5.4880   24.9170  -29.8440 S   0  0  0  0  0  0  0  0  0  0  0  0
   -4.8720   25.8540  -30.8450 O   0  0  0  0  0  0  0  0  0  0  0  0
   -6.0920   25.7320  -28.7340 O   0  0  0  0  0  0  0  0  0  0  0  0
   -6.7450   24.0080  -30.6290 N   0  0  0  0  0  0  0  0  0  0  0  0
   -6.5720   22.7110  -31.2130 C   0  0  0  0  0  0  0  0  0  0  0  0
   -7.5290   21.7020  -31.0370 C   0  0  0  0  0  0  0  0  0  0  0  0
   -7.3940   20.4660  -31.6830 C   0  0  0  0  0  0  0  0  0  0  0  0
   -6.2260   20.1900  -32.4190 C   0  0  0  0  0  0  0  0  0  0  0  0
   -5.2360   21.1780  -32.5400 C   0  0  0  0  0  0  0  0  0  0  0  0
   -5.4060   22.4340  -31.9390 C   0  0  0  0  0  0  0  0  0  0  0  0
   -4.4270   23.4150  -32.0740 O   0  0  0  0  0  0  0  0  0  0  0  0
   -6.0670   18.8830  -33.1630 C   0  0  0  0  0  0  0  0  0  0  0  0
   -6.9430   17.8120  -32.6470 N   0  0  0  0  0  0  0  0  0  0  0  0
   -6.4200   17.2230  -31.4000 C   0  0  0  0  0  0  0  0  0  0  0  0
   -8.3380   18.2740  -32.5120 C   0  0  0  0  0  0  0  0  0  0  0  0
   -8.4790   19.4360  -31.5170 C   0  0  0  0  0  0  0  0  0  0  0  0
   -2.8920   24.0300  -29.5840 C   0  0  0  0  0  0  0  0  0  0  0  0
   -1.9110   23.1500  -29.1200 C   0  0  0  0  0  0  0  0  0  0  0  0
   -0.8250   22.0470  -25.2880 C   0  0  0  0  0  0  0  0  0  0  0  0
   -0.1200   23.0810  -24.4040 C   0  0  0  0  0  0  0  0  0  0  0  0
   -1.0261   25.5162  -23.6611 H   0  0  0  0  0  0  0  0  0  0  0  0
   -0.6860   26.4415  -25.1627 H   0  0  0  0  0  0  0  0  0  0  0  0
   -1.9458   25.1610  -25.1627 H   0  0  0  0  0  0  0  0  0  0  0  0
    1.0790   24.7963  -24.8630 H   0  0  0  0  0  0  0  0  0  0  0  0
   -0.9328   24.2634  -27.0688 H   0  0  0  0  0  0  0  0  0  0  0  0
    0.6995   25.0283  -27.1469 H   0  0  0  0  0  0  0  0  0  0  0  0
    0.7311   22.7753  -28.1557 H   0  0  0  0  0  0  0  0  0  0  0  0
    1.7396   22.8508  -26.6403 H   0  0  0  0  0  0  0  0  0  0  0  0
   -3.8581   21.1598  -27.1334 H   0  0  0  0  0  0  0  0  0  0  0  0
   -5.6039   22.7482  -27.9382 H   0  0  0  0  0  0  0  0  0  0  0  0
   -8.3958   21.8826  -30.3843 H   0  0  0  0  0  0  0  0  0  0  0  0
   -4.3198   20.9655  -33.1106 H   0  0  0  0  0  0  0  0  0  0  0  0
   -4.6230   24.3900  -31.8800 H   0  0  0  0  0  0  0  0  0  0  0  0
   -6.3080   19.0520  -34.2229 H   0  0  0  0  0  0  0  0  0  0  0  0
   -5.0274   18.5514  -33.0246 H   0  0  0  0  0  0  0  0  0  0  0  0
   -6.8722   17.7322  -30.5361 H   0  0  0  0  0  0  0  0  0  0  0  0
   -6.6705   16.1524  -31.3669 H   0  0  0  0  0  0  0  0  0  0  0  0
   -5.3273   17.3451  -31.3669 H   0  0  0  0  0  0  0  0  0  0  0  0
   -8.6960   18.6077  -33.4971 H   0  0  0  0  0  0  0  0  0  0  0  0
   -8.9335   17.4320  -32.1293 H   0  0  0  0  0  0  0  0  0  0  0  0
   -9.4538   19.9206  -31.6751 H   0  0  0  0  0  0  0  0  0  0  0  0
   -8.3962   19.0211  -30.5016 H   0  0  0  0  0  0  0  0  0  0  0  0
   -2.6180   24.8406  -30.2752 H   0  0  0  0  0  0  0  0  0  0  0  0
   -0.8668   23.2720  -29.4437 H   0  0  0  0  0  0  0  0  0  0  0  0
   -1.7960   22.4528  -25.6082 H   0  0  0  0  0  0  0  0  0  0  0  0
   -0.9601   21.1260  -24.7019 H   0  0  0  0  0  0  0  0  0  0  0  0
   -0.7337   23.2661  -23.5101 H   0  0  0  0  0  0  0  0  0  0  0  0
    0.8663   22.6830  -24.1234 H   0  0  0  0  0  0  0  0  0  0  0  0
  1  2  1  0
  2  3  1  0
  3  4  1  0
  4  5  1  0
  5  6  1  0
  6  7  2  0
  6  8  2  0
  6  9  1  0
  9 10  2  0
 10 11  1  0
 11 12  2  0
 12 13  1  0
 13 14  2  0
 13 15  2  0
 13 16  1  0
 16 17  1  0
 17 18  2  0
 18 19  1  0
 19 20  2  0
 20 21  1  0
 21 22  2  0
 22 23  1  0
 20 24  1  0
 24 25  1  0
 25 26  1  0
 25 27  1  0
 27 28  1  0
 12 29  1  0
 29 30  2  0
  5 31  1  0
 31 32  1  0
 32  2  1  0
 30  9  1  0
 22 17  1  0
 28 19  1  0
  1 33  1  0
  1 34  1  0
  1 35  1  0
  2 36  1  0
  3 37  1  0
  3 38  1  0
  4 39  1  0
  4 40  1  0
 10 41  1  0
 11 42  1  0
 18 43  1  0
 21 44  1  0
 23 45  1  0
 24 46  1  0
 24 47  1  0
 26 48  1  0
 26 49  1  0
 26 50  1  0
 27 51  1  0
 27 52  1  0
 28 53  1  0
 28 54  1  0
 29 55  1  0
 30 56  1  0
 31 57  1  0
 31 58  1  0
 32 59  1  0
 32 60  1  0
M  CHG  1  16  -1
M  END
>  <UniqueID>  (1) 
1

>  <SMILES>  (1) 
CC1CCN(S(=O)(=O)c2ccc(S(=O)(=O)[N-]c3cc4c(cc3O)CN(C)CC4)cc2)CC1

>  <Energy>  (1) 
77.20766751382992

>  <Genealogy>  (1) 
CC1CCN(S(=O)(=O)c2ccc(S(=O)(=O)[N-]c3cc4c(cc3O)CN(C)CC4)cc2)CC1 (protonated)
CC1CCN(S(=O)(=O)c2ccc(S(=O)(=O)[N-]c3cc4c(cc3O)CN(C)CC4)cc2)CC1 (3D coordinates assigned)
CC1CCN(S(=O)(=O)c2ccc(S(=O)(=O)[N-]c3cc4c(cc3O)CN(C)CC4)cc2)CC1 (nonaromatic ring conformer: 77.20766751382992 kcal/mol)

>  <smiles>  (1) 
CC1CCN(S(=O)(=O)c2ccc(S(=O)(=O)Nc3cc4c(cc3O)CN(C)CC4)cc2)CC1

>  <score_type>  (1) 
oracle

>  <origin>  (1) 
adgpu

>  <m_score__min__energy>  (1) 
-12.699999999999999

>  <m_primary>  (1) 
energy

$$$$
1:0
     RDKit          3D

 48 51  0  0  0  0  0  0  0  0999 V2000
   -1.3119   19.0391  -26.0758 H   0  0  0  0  0  0  0  0  0  0  0  0
   -1.0550   19.1100  -27.1430 C   0  0  0  0  0  0  0  0  0  0  0  0
   -1.7490   20.1630  -28.2550 S   0  0  0  0  0  0  0  0  0  0  0  0
   -0.8340   19.6650  -29.5750 C   0  0  0  0  0  0  0  0  0  0  0  0
   -0.9840   20.1850  -30.9730 C   0  0  0  0  0  0  0  0  0  0  0  0
   -1.4024   19.3911  -31.6091 H   0  0  0  0  0  0  0  0  0  0  0  0
    0.0062   20.4919  -31.3409 H   0  0  0  0  0  0  0  0  0  0  0  0
   -1.8750   21.3460  -31.0080 N   0  0  0  0  0  0  0  0  0  0  0  0
   -3.0990   21.3840  -31.4610 C   0  0  0  0  0  0  0  0  0  0  0  0
   -3.7390   20.2440  -32.0240 C   0  0  0  0  0  0  0  0  0  0  0  0
   -3.1936   19.2921  -32.1043 H   0  0  0  0  0  0  0  0  0  0  0  0
   -5.0650   20.3320  -32.4770 C   0  0  0  0  0  0  0  0  0  0  0  0
   -5.5812   19.4646  -32.9142 H   0  0  0  0  0  0  0  0  0  0  0  0
   -5.6950   21.5600  -32.3490 C   0  0  0  0  0  0  0  0  0  0  0  0
   -6.9640   21.8720  -32.6720 N   0  0  0  0  0  0  0  0  0  0  0  0
   -7.1290   23.1510  -32.3330 N   0  0  0  0  0  0  0  0  0  0  0  0
   -5.9560   23.5910  -31.8210 C   0  0  0  0  0  0  0  0  0  0  0  0
   -5.7460   24.9540  -31.2350 C   0  0  0  0  0  0  0  0  0  0  0  0
   -6.7236   25.4264  -31.0584 H   0  0  0  0  0  0  0  0  0  0  0  0
   -5.1548   25.5566  -31.9402 H   0  0  0  0  0  0  0  0  0  0  0  0
   -4.9880   24.8580  -29.9120 C   0  0  0  0  0  0  0  0  0  0  0  0
   -5.0303   23.8240  -29.5392 H   0  0  0  0  0  0  0  0  0  0  0  0
   -5.4490   25.5322  -29.1752 H   0  0  0  0  0  0  0  0  0  0  0  0
   -3.5940   25.2440  -30.1210 N   0  0  0  0  0  0  0  0  0  0  0  0
   -2.5480   24.2030  -29.2050 S   0  0  0  0  0  0  0  0  0  0  0  0
   -1.3780   23.7930  -30.0580 O   0  0  0  0  0  0  0  0  0  0  0  0
   -3.3030   22.9730  -28.7920 O   0  0  0  0  0  0  0  0  0  0  0  0
   -1.9940   25.0520  -27.7620 C   0  0  0  0  0  0  0  0  0  0  0  0
   -2.7430   24.9660  -26.5820 C   0  0  0  0  0  0  0  0  0  0  0  0
   -3.6483   24.3419  -26.5521 H   0  0  0  0  0  0  0  0  0  0  0  0
   -2.3450   25.6700  -25.4420 C   0  0  0  0  0  0  0  0  0  0  0  0
   -2.9401   25.6006  -24.5195 H   0  0  0  0  0  0  0  0  0  0  0  0
   -1.1890   26.4650  -25.4700 C   0  0  0  0  0  0  0  0  0  0  0  0
   -0.7830   27.2330  -24.2470 C   0  0  0  0  0  0  0  0  0  0  0  0
   -1.0789   26.6732  -23.3475 H   0  0  0  0  0  0  0  0  0  0  0  0
    0.3078   27.3747  -24.2484 H   0  0  0  0  0  0  0  0  0  0  0  0
   -1.2802   28.2142  -24.2484 H   0  0  0  0  0  0  0  0  0  0  0  0
   -0.4420   26.5550  -26.6560 C   0  0  0  0  0  0  0  0  0  0  0  0
    0.4629   27.1796  -26.6878 H   0  0  0  0  0  0  0  0  0  0  0  0
   -0.8450   25.8530  -27.7970 C   0  0  0  0  0  0  0  0  0  0  0  0
   -0.2582   25.9301  -28.7242 H   0  0  0  0  0  0  0  0  0  0  0  0
   -5.0510   22.5990  -31.8230 N   0  0  0  0  0  0  0  0  0  0  0  0
   -3.7950   22.5590  -31.3810 N   0  0  0  0  0  0  0  0  0  0  0  0
   -3.3480   23.4110  -30.9700 H   0  0  0  0  0  0  0  0  0  0  0  0
    0.0180   18.6490  -29.1630 C   0  0  0  0  0  0  0  0  0  0  0  0
    0.7174   18.1342  -29.8381 H   0  0  0  0  0  0  0  0  0  0  0  0
   -0.1030   18.3460  -27.8020 C   0  0  0  0  0  0  0  0  0  0  0  0
    0.5004   17.5742  -27.3017 H   0  0  0  0  0  0  0  0  0  0  0  0
  1  2  1  0
  2  3  1  0
  3  4  1  0
  4  5  1  0
  5  6  1  0
  5  7  1  0
  5  8  1  0
  8  9  2  0
  9 10  1  0
 10 11  1  0
 10 12  2  0
 12 13  1  0
 12 14  1  0
 14 15  2  0
 15 16  1  0
 16 17  2  0
 17 18  1  0
 18 19  1  0
 18 20  1  0
 18 21  1  0
 21 22  1  0
 21 23  1  0
 21 24  1  0
 24 25  1  0
 25 26  2  0
 25 27  2  0
 25 28  1  0
 28 29  2  0
 29 30  1  0
 29 31  1  0
 31 32  1  0
 31 33  2  0
 33 34  1  0
 34 35  1  0
 34 36  1  0
 34 37  1  0
 33 38  1  0
 38 39  1  0
 38 40  2  0
 40 41  1  0
 17 42  1  0
 42 43  1  0
 43 44  1  0
  4 45  2  0
 45 46  1  0
 45 47  1  0
 47 48  1  0
 47  2  2  0
 43  9  1  0
 42 14  1  0
 40 28  1  0
M  CHG  1  24  -1
M  END
>  <UniqueID>  (2) 
2

>  <SMILES>  (2) 
Cc1ccc(S(=O)(=O)[N-]CCc2nnc3cc/c(=N\Cc4cccs4)[nH]n23)cc1

>  <Energy>  (2) 
112.7358200296263

>  <Genealogy>  (2) 
Cc1ccc(S(=O)(=O)[N-]CCc2nnc3ccc(=NCc4cccs4)[nH]n23)cc1 (protonated)
Cc1ccc(S(=O)(=O)[N-]CCc2nnc3cc/c(=N\Cc4cccs4)[nH]n23)cc1 (cis-trans isomerization)
Cc1ccc(S(=O)(=O)[N-]CCc2nnc3cc/c(=N\Cc4cccs4)[nH]n23)cc1 (3D coordinates assigned)
Cc1ccc(S(=O)(=O)[N-]CCc2nnc3cc/c(=N\Cc4cccs4)[nH]n23)cc1 (optimized conformer: 112.7358200296263 kcal/mol)

>  <smiles>  (2) 
Cc1ccc(S(=O)(=O)NCCc2nnc3ccc(=NCc4cccs4)[nH]n23)cc1

>  <score_type>  (2) 
oracle

>  <origin>  (2) 
adgpu

>  <m_score__min__energy>  (2) 
-9.8900000000000006

>  <m_primary>  (2) 
energy

$$$$
2:0
     RDKit          3D

 48 51  0  0  0  0  0  0  0  0999 V2000
   -1.9850   25.2910  -29.2710 O   0  0  0  0  0  0  0  0  0  0  0  0
   -2.9510   24.5840  -29.6640 C   0  0  0  0  0  0  0  0  0  0  0  0
   -3.1020   23.2770  -29.2050 C   0  0  0  0  0  0  0  0  0  0  0  0
   -4.1750   22.5130  -29.6610 C   0  0  0  0  0  0  0  0  0  0  0  0
   -5.0830   23.0770  -30.5760 C   0  0  0  0  0  0  0  0  0  0  0  0
   -6.2390   22.3130  -31.1130 C   0  0  0  0  0  0  0  0  0  0  0  0
   -7.4080   22.9920  -31.5010 C   0  0  0  0  0  0  0  0  0  0  0  0
   -8.4900   22.2920  -32.0420 C   0  0  0  0  0  0  0  0  0  0  0  0
   -8.4210   20.9040  -32.2190 C   0  0  0  0  0  0  0  0  0  0  0  0
   -9.5080   20.2290  -32.7810 O   0  0  0  0  0  0  0  0  0  0  0  0
   -7.2560   20.2080  -31.8390 C   0  0  0  0  0  0  0  0  0  0  0  0
   -7.0850   18.4620  -32.0640 S   0  0  0  0  0  0  0  0  0  0  0  0
   -8.4450   17.8830  -32.3470 O   0  0  0  0  0  0  0  0  0  0  0  0
   -6.5460   17.7890  -30.8330 O   0  0  0  0  0  0  0  0  0  0  0  0
   -6.0530   18.1390  -33.4230 N   0  0  0  0  0  0  0  0  0  0  0  0
   -4.7470   18.6940  -33.6420 C   0  0  0  0  0  0  0  0  0  0  0  0
   -3.7120   17.8330  -34.0140 C   0  0  0  0  0  0  0  0  0  0  0  0
   -2.4150   18.3200  -34.2140 C   0  0  0  0  0  0  0  0  0  0  0  0
   -2.1140   19.6910  -34.0450 C   0  0  0  0  0  0  0  0  0  0  0  0
   -0.7550   20.2010  -34.2240 N   0  0  0  0  0  0  0  0  0  0  0  0
   -0.4500   21.0560  -35.3930 C   0  0  0  0  0  0  0  0  0  0  0  0
    1.0230   21.4800  -35.4790 C   0  0  0  0  0  0  0  0  0  0  0  0
    1.5700   21.7130  -34.2000 O   0  0  0  0  0  0  0  0  0  0  0  0
    1.6470   20.4800  -33.5200 C   0  0  0  0  0  0  0  0  0  0  0  0
    0.2500   19.9710  -33.1610 C   0  0  0  0  0  0  0  0  0  0  0  0
   -3.1770   20.5510  -33.6750 C   0  0  0  0  0  0  0  0  0  0  0  0
   -4.4720   20.0590  -33.4810 C   0  0  0  0  0  0  0  0  0  0  0  0
   -6.1750   20.9180  -31.2880 C   0  0  0  0  0  0  0  0  0  0  0  0
   -4.8890   24.3650  -30.9800 N   0  0  0  0  0  0  0  0  0  0  0  0
   -3.8570   25.0910  -30.5410 N   0  0  0  0  0  0  0  0  0  0  0  0
   -2.3818   22.8525  -28.4901 H   0  0  0  0  0  0  0  0  0  0  0  0
   -4.3105   21.4797  -29.3091 H   0  0  0  0  0  0  0  0  0  0  0  0
   -7.4712   24.0832  -31.3776 H   0  0  0  0  0  0  0  0  0  0  0  0
   -9.4022   22.8347  -32.3308 H   0  0  0  0  0  0  0  0  0  0  0  0
   -9.3870   19.4800  -33.4520 H   0  0  0  0  0  0  0  0  0  0  0  0
   -3.9182   16.7613  -34.1512 H   0  0  0  0  0  0  0  0  0  0  0  0
   -1.6158   17.6236  -34.5079 H   0  0  0  0  0  0  0  0  0  0  0  0
   -0.7052   20.4992  -36.3067 H   0  0  0  0  0  0  0  0  0  0  0  0
   -1.0436   21.9755  -35.2828 H   0  0  0  0  0  0  0  0  0  0  0  0
    1.5964   20.6816  -35.9728 H   0  0  0  0  0  0  0  0  0  0  0  0
    1.0794   22.4161  -36.0539 H   0  0  0  0  0  0  0  0  0  0  0  0
    2.1449   19.7420  -34.1661 H   0  0  0  0  0  0  0  0  0  0  0  0
    2.2198   20.6237  -32.5919 H   0  0  0  0  0  0  0  0  0  0  0  0
    0.3123   18.8896  -32.9692 H   0  0  0  0  0  0  0  0  0  0  0  0
   -0.0813   20.5339  -32.2760 H   0  0  0  0  0  0  0  0  0  0  0  0
   -2.9807   21.6246  -33.5378 H   0  0  0  0  0  0  0  0  0  0  0  0
   -5.2812   20.7490  -33.1998 H   0  0  0  0  0  0  0  0  0  0  0  0
   -5.2660   20.3754  -30.9893 H   0  0  0  0  0  0  0  0  0  0  0  0
  1  2  2  0
  2  3  1  0
  3  4  2  0
  4  5  1  0
  5  6  1  0
  6  7  2  0
  7  8  1  0
  8  9  2  0
  9 10  1  0
  9 11  1  0
 11 12  1  0
 12 13  2  0
 12 14  2  0
 12 15  1  0
 15 16  1  0
 16 17  2  0
 17 18  1  0
 18 19  2  0
 19 20  1  0
 20 21  1  0
 21 22  1  0
 22 23  1  0
 23 24  1  0
 24 25  1  0
 19 26  1  0
 26 27  2  0
 11 28  2  0
  5 29  2  0
 29 30  1  0
 30  2  1  0
 28  6  1  0
 27 16  1  0
 25 20  1  0
  3 31  1  0
  4 32  1  0
  7 33  1  0
  8 34  1  0
 10 35  1  0
 17 36  1  0
 18 37  1  0
 21 38  1  0
 21 39  1  0
 22 40  1  0
 22 41  1  0
 24 42  1  0
 24 43  1  0
 25 44  1  0
 25 45  1  0
 26 46  1  0
 27 47  1  0
 28 48  1  0
M  CHG  2  15  -1  30  -1
M  END
>  <UniqueID>  (3) 
3

>  <SMILES>  (3) 
O=c1ccc(-c2ccc(O)c(S(=O)(=O)[N-]c3ccc(N4CCOCC4)cc3)c2)n[n-]1

>  <Energy>  (3) 
70.2864454500296

>  <Genealogy>  (3) 
O=c1ccc(-c2ccc(O)c(S(=O)(=O)[N-]c3ccc(N4CCOCC4)cc3)c2)n[n-]1 (protonated)
O=c1ccc(-c2ccc(O)c(S(=O)(=O)[N-]c3ccc(N4CCOCC4)cc3)c2)n[n-]1 (3D coordinates assigned)
O=c1ccc(-c2ccc(O)c(S(=O)(=O)[N-]c3ccc(N4CCOCC4)cc3)c2)n[n-]1 (nonaromatic ring conformer: 70.2864454500296 kcal/mol)

>  <smiles>  (3) 
O=c1ccc(-c2ccc(O)c(S(=O)(=O)Nc3ccc(N4CCOCC4)cc3)c2)n[nH]1

>  <score_type>  (3) 
oracle

>  <origin>  (3) 
adgpu

>  <m_score__min__energy>  (3) 
-11.41

>  <m_primary>  (3) 
energy

$$$$
3:0
     RDKit          3D

 47 49  0  0  0  0  0  0  0  0999 V2000
   -5.9220   19.1650  -34.5290 N   0  0  0  0  0  0  0  0  0  0  0  0
   -5.4780   20.0280  -33.0990 S   0  0  0  0  0  0  0  0  0  0  0  0
   -4.3420   20.9600  -33.4210 O   0  0  0  0  0  0  0  0  0  0  0  0
   -5.0200   19.0620  -32.0430 O   0  0  0  0  0  0  0  0  0  0  0  0
   -6.8710   20.9430  -32.5060 C   0  0  0  0  0  0  0  0  0  0  0  0
   -8.1640   20.4550  -32.7550 C   0  0  0  0  0  0  0  0  0  0  0  0
   -9.2860   21.1630  -32.3190 C   0  0  0  0  0  0  0  0  0  0  0  0
   -9.1280   22.3610  -31.6250 C   0  0  0  0  0  0  0  0  0  0  0  0
   -7.8500   22.8560  -31.3640 C   0  0  0  0  0  0  0  0  0  0  0  0
   -6.7090   22.1620  -31.8060 C   0  0  0  0  0  0  0  0  0  0  0  0
   -5.3970   22.6640  -31.4920 N   0  0  0  0  0  0  0  0  0  0  0  0
   -5.1290   24.0480  -31.2140 C   0  0  0  0  0  0  0  0  0  0  0  0
   -5.9510   24.9350  -31.5650 O   0  0  0  0  0  0  0  0  0  0  0  0
   -3.8880   24.4490  -30.6220 N   0  0  0  0  0  0  0  0  0  0  0  0
   -3.1940   23.7580  -29.5740 C   0  0  0  0  0  0  0  0  0  0  0  0
   -3.6150   22.4910  -29.1320 C   0  0  0  0  0  0  0  0  0  0  0  0
   -2.9430   21.8520  -28.0880 C   0  0  0  0  0  0  0  0  0  0  0  0
   -1.8560   22.4720  -27.4700 C   0  0  0  0  0  0  0  0  0  0  0  0
   -1.4290   23.7390  -27.8910 C   0  0  0  0  0  0  0  0  0  0  0  0
   -0.0630   24.5080  -27.0780 S   0  0  0  0  0  0  0  0  0  0  0  0
    0.5850   23.5380  -26.1270 O   0  0  0  0  0  0  0  0  0  0  0  0
    0.9390   24.9230  -28.1190 O   0  0  0  0  0  0  0  0  0  0  0  0
   -0.6080   25.9110  -26.1920 N   0  0  0  0  0  0  0  0  0  0  0  0
   -0.3690   25.7270  -24.7530 C   0  0  0  0  0  0  0  0  0  0  0  0
   -0.8710   26.9620  -23.9750 C   0  0  0  0  0  0  0  0  0  0  0  0
   -1.2050   28.0410  -24.8320 O   0  0  0  0  0  0  0  0  0  0  0  0
   -0.1330   28.3030  -25.7160 C   0  0  0  0  0  0  0  0  0  0  0  0
    0.0940   27.1150  -26.6720 C   0  0  0  0  0  0  0  0  0  0  0  0
   -2.1170   24.3900  -28.9330 C   0  0  0  0  0  0  0  0  0  0  0  0
   -1.7380   25.6670  -29.3370 O   0  0  0  0  0  0  0  0  0  0  0  0
   -6.8640   19.5150  -34.8160 H   0  0  0  0  0  0  0  0  0  0  0  0
   -8.2941   19.5072  -33.2980 H   0  0  0  0  0  0  0  0  0  0  0  0
  -10.2947   20.7749  -32.5235 H   0  0  0  0  0  0  0  0  0  0  0  0
  -10.0127   22.9176  -31.2822 H   0  0  0  0  0  0  0  0  0  0  0  0
   -7.7335   23.7976  -30.8075 H   0  0  0  0  0  0  0  0  0  0  0  0
   -4.5870   22.0070  -31.5180 H   0  0  0  0  0  0  0  0  0  0  0  0
   -4.4764   22.0018  -29.6102 H   0  0  0  0  0  0  0  0  0  0  0  0
   -3.2712   20.8574  -27.7518 H   0  0  0  0  0  0  0  0  0  0  0  0
   -1.3313   21.9634  -26.6478 H   0  0  0  0  0  0  0  0  0  0  0  0
   -0.9075   24.8331  -24.4052 H   0  0  0  0  0  0  0  0  0  0  0  0
    0.7099   25.6027  -24.5780 H   0  0  0  0  0  0  0  0  0  0  0  0
   -1.7645   26.6780  -23.3997 H   0  0  0  0  0  0  0  0  0  0  0  0
   -0.0569   27.2969  -23.3154 H   0  0  0  0  0  0  0  0  0  0  0  0
   -0.3646   29.2016  -26.3067 H   0  0  0  0  0  0  0  0  0  0  0  0
    0.7812   28.4577  -25.1241 H   0  0  0  0  0  0  0  0  0  0  0  0
   -0.2851   27.3788  -27.6704 H   0  0  0  0  0  0  0  0  0  0  0  0
    1.1718   26.8995  -26.7145 H   0  0  0  0  0  0  0  0  0  0  0  0
  1  2  1  0
  2  3  2  0
  2  4  2  0
  2  5  1  0
  5  6  2  0
  6  7  1  0
  7  8  2  0
  8  9  1  0
  9 10  2  0
 10 11  1  0
 11 12  1  0
 12 13  2  0
 12 14  1  0
 14 15  1  0
 15 16  2  0
 16 17  1  0
 17 18  2  0
 18 19  1  0
 19 20  1  0
 20 21  2  0
 20 22  2  0
 20 23  1  0
 23 24  1  0
 24 25  1  0
 25 26  1  0
 26 27  1  0
 27 28  1  0
 19 29  2  0
 29 30  1  0
 10  5  1  0
 29 15  1  0
 28 23  1  0
  1 31  1  0
  6 32  1  0
  7 33  1  0
  8 34  1  0
  9 35  1  0
 11 36  1  0
 16 37  1  0
 17 38  1  0
 18 39  1  0
 24 40  1  0
 24 41  1  0
 25 42  1  0
 25 43  1  0
 27 44  1  0
 27 45  1  0
 28 46  1  0
 28 47  1  0
M  CHG  3   1  -1  14  -1  30  -1
M  END
>  <UniqueID>  (4) 
4

>  <SMILES>  (4) 
[NH-]S(=O)(=O)c1ccccc1NC(=O)[N-]c1cccc(S(=O)(=O)N2CCOCC2)c1[O-]

>  <Energy>  (4) 
65.55959562957979

>  <Genealogy>  (4) 
[NH-]S(=O)(=O)c1ccccc1NC(=O)[N-]c1cccc(S(=O)(=O)N2CCOCC2)c1[O-] (protonated)
[NH-]S(=O)(=O)c1ccccc1NC(=O)[N-]c1cccc(S(=O)(=O)N2CCOCC2)c1[O-] (3D coordinates assigned)
[NH-]S(=O)(=O)c1ccccc1NC(=O)[N-]c1cccc(S(=O)(=O)N2CCOCC2)c1[O-] (nonaromatic ring conformer: 65.55959562957979 kcal/mol)

>  <smiles>  (4) 
NS(=O)(=O)c1ccccc1NC(=O)Nc1cccc(S(=O)(=O)N2CCOCC2)c1O

>  <score_type>  (4) 
oracle

>  <origin>  (4) 
adgpu

>  <m_score__min__energy>  (4) 
-13.699999999999999

>  <m_primary>  (4) 
energy

$$$$
4:0
     RDKit          3D

 54 57  0  0  0  0  0  0  0  0999 V2000
   -2.3110   18.5260  -26.3440 C   0  0  0  0  0  0  0  0  0  0  0  0
   -1.8700   19.8250  -26.8740 N   0  0  0  0  0  0  0  0  0  0  0  0
   -1.3790   20.6810  -25.7790 C   0  0  0  0  0  0  0  0  0  0  0  0
   -0.7060   21.9280  -26.3600 C   0  0  0  0  0  0  0  0  0  0  0  0
   -1.5420   22.5690  -27.4400 C   0  0  0  0  0  0  0  0  0  0  0  0
   -1.2110   23.8520  -27.8920 C   0  0  0  0  0  0  0  0  0  0  0  0
   -1.9440   24.4560  -28.9170 C   0  0  0  0  0  0  0  0  0  0  0  0
   -1.5900   25.7330  -29.3370 O   0  0  0  0  0  0  0  0  0  0  0  0
   -3.0240   23.7800  -29.5140 C   0  0  0  0  0  0  0  0  0  0  0  0
   -3.7750   24.4230  -30.5650 N   0  0  0  0  0  0  0  0  0  0  0  0
   -5.4720   24.7820  -30.4760 S   0  0  0  0  0  0  0  0  0  0  0  0
   -5.8600   24.9540  -29.0320 O   0  0  0  0  0  0  0  0  0  0  0  0
   -5.7430   26.0640  -31.2120 O   0  0  0  0  0  0  0  0  0  0  0  0
   -6.4150   23.4950  -31.2180 C   0  0  0  0  0  0  0  0  0  0  0  0
   -7.8050   23.6250  -31.3450 C   0  0  0  0  0  0  0  0  0  0  0  0
   -8.5560   22.5940  -31.9140 C   0  0  0  0  0  0  0  0  0  0  0  0
   -7.9250   21.4280  -32.3550 C   0  0  0  0  0  0  0  0  0  0  0  0
   -6.5360   21.2850  -32.2240 C   0  0  0  0  0  0  0  0  0  0  0  0
   -5.7390   19.8030  -32.7640 S   0  0  0  0  0  0  0  0  0  0  0  0
   -6.1500   18.6690  -31.8660 O   0  0  0  0  0  0  0  0  0  0  0  0
   -6.1990   19.4820  -34.1590 O   0  0  0  0  0  0  0  0  0  0  0  0
   -3.9970   19.9290  -32.7540 N   0  0  0  0  0  0  0  0  0  0  0  0
   -3.4570   20.0700  -31.4010 C   0  0  0  0  0  0  0  0  0  0  0  0
   -2.1350   20.8190  -31.5360 C   0  0  0  0  0  0  0  0  0  0  0  0
   -2.1410   21.3980  -32.9430 C   0  0  0  0  0  0  0  0  0  0  0  0
   -3.5290   21.1050  -33.4820 C   0  0  0  0  0  0  0  0  0  0  0  0
   -5.7820   22.3290  -31.6710 C   0  0  0  0  0  0  0  0  0  0  0  0
   -3.3460   22.4840  -29.0660 C   0  0  0  0  0  0  0  0  0  0  0  0
   -2.5950   21.8660  -28.0550 C   0  0  0  0  0  0  0  0  0  0  0  0
   -2.9880   20.4900  -27.5740 C   0  0  0  0  0  0  0  0  0  0  0  0
   -2.3008   18.5560  -25.2445 H   0  0  0  0  0  0  0  0  0  0  0  0
   -3.3315   18.3139  -26.6956 H   0  0  0  0  0  0  0  0  0  0  0  0
   -1.6306   17.7364  -26.6956 H   0  0  0  0  0  0  0  0  0  0  0  0
   -2.2249   20.9842  -25.1446 H   0  0  0  0  0  0  0  0  0  0  0  0
   -0.6486   20.1198  -25.1777 H   0  0  0  0  0  0  0  0  0  0  0  0
   -0.5504   22.6572  -25.5513 H   0  0  0  0  0  0  0  0  0  0  0  0
    0.2507   21.6209  -26.8077 H   0  0  0  0  0  0  0  0  0  0  0  0
   -0.3664   24.3894  -27.4362 H   0  0  0  0  0  0  0  0  0  0  0  0
   -3.2960   24.6820  -31.4550 H   0  0  0  0  0  0  0  0  0  0  0  0
   -8.3051   24.5405  -30.9960 H   0  0  0  0  0  0  0  0  0  0  0  0
   -9.6462   22.7002  -32.0151 H   0  0  0  0  0  0  0  0  0  0  0  0
   -8.5194   20.6199  -32.8062 H   0  0  0  0  0  0  0  0  0  0  0  0
   -4.1547   20.6417  -30.7714 H   0  0  0  0  0  0  0  0  0  0  0  0
   -3.3103   19.0879  -30.9278 H   0  0  0  0  0  0  0  0  0  0  0  0
   -2.0705   21.6237  -30.7889 H   0  0  0  0  0  0  0  0  0  0  0  0
   -1.2715   20.1584  -31.3690 H   0  0  0  0  0  0  0  0  0  0  0  0
   -1.9577   22.4823  -32.9157 H   0  0  0  0  0  0  0  0  0  0  0  0
   -1.3522   20.9612  -33.5731 H   0  0  0  0  0  0  0  0  0  0  0  0
   -4.1984   21.9590  -33.3015 H   0  0  0  0  0  0  0  0  0  0  0  0
   -3.5136   20.9300  -34.5679 H   0  0  0  0  0  0  0  0  0  0  0  0
   -4.6890   22.2331  -31.5921 H   0  0  0  0  0  0  0  0  0  0  0  0
   -4.1967   21.9499  -29.5144 H   0  0  0  0  0  0  0  0  0  0  0  0
   -3.8391   20.5817  -26.8832 H   0  0  0  0  0  0  0  0  0  0  0  0
   -3.2600   19.8815  -28.4491 H   0  0  0  0  0  0  0  0  0  0  0  0
  1  2  1  0
  2  3  1  0
  3  4  1  0
  4  5  1  0
  5  6  2  0
  6  7  1  0
  7  8  1  0
  7  9  2  0
  9 10  1  0
 10 11  1  0
 11 12  2  0
 11 13  2  0
 11 14  1  0
 14 15  2  0
 15 16  1  0
 16 17  2  0
 17 18  1  0
 18 19  1  0
 19 20  2  0
 19 21  2  0
 19 22  1  0
 22 23  1  0
 23 24  1  0
 24 25  1  0
 25 26  1  0
 18 27  2  0
  9 28  1  0
 28 29  2  0
 29 30  1  0
 30  2  1  0
 29  5  1  0
 27 14  1  0
 26 22  1  0
  1 31  1  0
  1 32  1  0
  1 33  1  0
  3 34  1  0
  3 35  1  0
  4 36  1  0
  4 37  1  0
  6 38  1  0
 10 39  1  0
 15 40  1  0
 16 41  1  0
 17 42  1  0
 23 43  1  0
 23 44  1  0
 24 45  1  0
 24 46  1  0
 25 47  1  0
 25 48  1  0
 26 49  1  0
 26 50  1  0
 27 51  1  0
 28 52  1  0
 30 53  1  0
 30 54  1  0
M  CHG  1   8  -1
M  END
>  <UniqueID>  (5) 
5

>  <SMILES>  (5) 
CN1CCc2cc([O-])c(NS(=O)(=O)c3cccc(S(=O)(=O)N4CCCC4)c3)cc2C1

>  <Energy>  (5) 
57.53943913767181

>  <Genealogy>  (5) 
CN1CCc2cc([O-])c(NS(=O)(=O)c3cccc(S(=O)(=O)N4CCCC4)c3)cc2C1 (protonated)
CN1CCc2cc([O-])c(NS(=O)(=O)c3cccc(S(=O)(=O)N4CCCC4)c3)cc2C1 (3D coordinates assigned)
CN1CCc2cc([O-])c(NS(=O)(=O)c3cccc(S(=O)(=O)N4CCCC4)c3)cc2C1 (nonaromatic ring conformer: 57.53943913767181 kcal/mol)

>  <smiles>  (5) 
CN1CCc2cc(O)c(NS(=O)(=O)c3cccc(S(=O)(=O)N4CCCC4)c3)cc2C1

>  <score_type>  (5) 
oracle

>  <origin>  (5) 
adgpu

>  <m_score__min__energy>  (5) 
-13.960000000000001

>  <m_primary>  (5) 
energy

$$$$
5:0
     RDKit          3D

 49 51  0  0  0  0  0  0  0  0999 V2000
   -9.4280   21.7150  -32.0290 C   0  0  0  0  0  0  0  0  0  0  0  0
   -8.0660   22.2660  -31.6940 C   0  0  0  0  0  0  0  0  0  0  0  0
   -7.9780   23.5770  -31.1970 C   0  0  0  0  0  0  0  0  0  0  0  0
   -6.7460   24.1180  -30.8280 C   0  0  0  0  0  0  0  0  0  0  0  0
   -5.5800   23.3580  -30.9450 C   0  0  0  0  0  0  0  0  0  0  0  0
   -4.0220   24.0330  -30.4770 S   0  0  0  0  0  0  0  0  0  0  0  0
   -3.9940   25.4930  -30.8420 O   0  0  0  0  0  0  0  0  0  0  0  0
   -2.9070   23.3420  -31.2160 O   0  0  0  0  0  0  0  0  0  0  0  0
   -3.7560   23.8750  -28.7710 N   0  0  0  0  0  0  0  0  0  0  0  0
   -2.8870   22.8820  -28.2120 C   0  0  0  0  0  0  0  0  0  0  0  0
   -3.3300   21.5540  -28.1220 C   0  0  0  0  0  0  0  0  0  0  0  0
   -2.5180   20.5690  -27.5680 C   0  0  0  0  0  0  0  0  0  0  0  0
   -1.2590   20.9010  -27.0740 C   0  0  0  0  0  0  0  0  0  0  0  0
   -0.7960   22.2290  -27.1210 C   0  0  0  0  0  0  0  0  0  0  0  0
    0.5840   22.5200  -26.5860 C   0  0  0  0  0  0  0  0  0  0  0  0
   -1.6080   23.2350  -27.7170 C   0  0  0  0  0  0  0  0  0  0  0  0
   -1.0070   24.9090  -27.8600 S   0  0  0  0  0  0  0  0  0  0  0  0
   -1.6020   25.6090  -29.3230 N   0  0  0  0  0  0  0  0  0  0  0  0
   -1.4880   25.7170  -26.6900 O   0  0  0  0  0  0  0  0  0  0  0  0
    0.4960   24.9640  -27.8760 O   0  0  0  0  0  0  0  0  0  0  0  0
   -5.6550   22.0500  -31.4340 C   0  0  0  0  0  0  0  0  0  0  0  0
   -6.8880   21.4860  -31.8000 C   0  0  0  0  0  0  0  0  0  0  0  0
   -6.9230   19.8010  -32.3540 S   0  0  0  0  0  0  0  0  0  0  0  0
   -7.9200   19.6310  -33.4660 O   0  0  0  0  0  0  0  0  0  0  0  0
   -7.3310   18.9200  -31.2070 O   0  0  0  0  0  0  0  0  0  0  0  0
   -5.3370   19.3410  -32.9660 C   0  0  0  0  0  0  0  0  0  0  0  0
   -5.2120   18.5860  -34.1430 C   0  0  0  0  0  0  0  0  0  0  0  0
   -3.9450   18.2200  -34.6130 C   0  0  0  0  0  0  0  0  0  0  0  0
   -2.8000   18.6060  -33.9120 C   0  0  0  0  0  0  0  0  0  0  0  0
   -2.9180   19.3640  -32.7430 C   0  0  0  0  0  0  0  0  0  0  0  0
   -4.1840   19.7320  -32.2710 C   0  0  0  0  0  0  0  0  0  0  0  0
   -9.9731   21.4945  -31.0994 H   0  0  0  0  0  0  0  0  0  0  0  0
   -9.9894   22.4568  -32.6161 H   0  0  0  0  0  0  0  0  0  0  0  0
   -9.3157   20.7916  -32.6161 H   0  0  0  0  0  0  0  0  0  0  0  0
   -8.8903   24.1836  -31.0977 H   0  0  0  0  0  0  0  0  0  0  0  0
   -6.6928   25.1472  -30.4434 H   0  0  0  0  0  0  0  0  0  0  0  0
   -4.3307   21.2883  -28.4936 H   0  0  0  0  0  0  0  0  0  0  0  0
   -2.8706   19.5281  -27.5203 H   0  0  0  0  0  0  0  0  0  0  0  0
   -0.6196   20.1168  -26.6425 H   0  0  0  0  0  0  0  0  0  0  0  0
    0.5595   22.5148  -25.4863 H   0  0  0  0  0  0  0  0  0  0  0  0
    1.2847   21.7499  -26.9408 H   0  0  0  0  0  0  0  0  0  0  0  0
    0.9141   23.5075  -26.9408 H   0  0  0  0  0  0  0  0  0  0  0  0
   -2.1470   24.8660  -29.8150 H   0  0  0  0  0  0  0  0  0  0  0  0
   -4.7354   21.4546  -31.5334 H   0  0  0  0  0  0  0  0  0  0  0  0
   -6.1119   18.2812  -34.6974 H   0  0  0  0  0  0  0  0  0  0  0  0
   -3.8511   17.6279  -35.5352 H   0  0  0  0  0  0  0  0  0  0  0  0
   -1.8054   18.3136  -34.2797 H   0  0  0  0  0  0  0  0  0  0  0  0
   -2.0159   19.6714  -32.1938 H   0  0  0  0  0  0  0  0  0  0  0  0
   -4.2741   20.3298  -31.3520 H   0  0  0  0  0  0  0  0  0  0  0  0
  1  2  1  0
  2  3  2  0
  3  4  1  0
  4  5  2  0
  5  6  1  0
  6  7  2  0
  6  8  2  0
  6  9  1  0
  9 10  1  0
 10 11  2  0
 11 12  1  0
 12 13  2  0
 13 14  1  0
 14 15  1  0
 14 16  2  0
 16 17  1  0
 17 18  1  0
 17 19  2  0
 17 20  2  0
  5 21  1  0
 21 22  2  0
 22 23  1  0
 23 24  2  0
 23 25  2  0
 23 26  1  0
 26 27  2  0
 27 28  1  0
 28 29  2  0
 29 30  1  0
 30 31  2  0
 22  2  1  0
 31 26  1  0
 16 10  1  0
  1 32  1  0
  1 33  1  0
  1 34  1  0
  3 35  1  0
  4 36  1  0
 11 37  1  0
 12 38  1  0
 13 39  1  0
 15 40  1  0
 15 41  1  0
 15 42  1  0
 18 43  1  0
 21 44  1  0
 27 45  1  0
 28 46  1  0
 29 47  1  0
 30 48  1  0
 31 49  1  0
M  CHG  2   9  -1  18  -1
M  END
>  <UniqueID>  (6) 
6

>  <SMILES>  (6) 
Cc1ccc(S(=O)(=O)[N-]c2cccc(C)c2S([NH-])(=O)=O)cc1S(=O)(=O)c1ccccc1

>  <Energy>  (6) 
65.99019549126562

>  <Genealogy>  (6) 
Cc1ccc(S(=O)(=O)[N-]c2cccc(C)c2S([NH-])(=O)=O)cc1S(=O)(=O)c1ccccc1 (protonated)
Cc1ccc(S(=O)(=O)[N-]c2cccc(C)c2S([NH-])(=O)=O)cc1S(=O)(=O)c1ccccc1 (3D coordinates assigned)
Cc1ccc(S(=O)(=O)[N-]c2cccc(C)c2S([NH-])(=O)=O)cc1S(=O)(=O)c1ccccc1 (optimized conformer: 65.99019549126562 kcal/mol)

>  <smiles>  (6) 
Cc1ccc(S(=O)(=O)Nc2cccc(C)c2S(N)(=O)=O)cc1S(=O)(=O)c1ccccc1

>  <score_type>  (6) 
oracle

>  <origin>  (6) 
adgpu

>  <m_score__min__energy>  (6) 
-13.800000000000001

>  <m_primary>  (6) 
energy

$$$$
6:0
     RDKit          3D

 54 57  0  0  0  0  0  0  0  0999 V2000
   -0.3910   24.0910  -29.3580 O   0  0  0  0  0  0  0  0  0  0  0  0
   -1.2770   24.6660  -28.6690 C   0  0  0  0  0  0  0  0  0  0  0  0
   -2.3940   25.2950  -29.3140 N   0  0  0  0  0  0  0  0  0  0  0  0
   -3.5560   24.6360  -29.8400 C   0  0  0  0  0  0  0  0  0  0  0  0
   -3.6030   23.2360  -29.8120 C   0  0  0  0  0  0  0  0  0  0  0  0
   -4.7130   22.5530  -30.3190 C   0  0  0  0  0  0  0  0  0  0  0  0
   -5.7830   23.2670  -30.8830 C   0  0  0  0  0  0  0  0  0  0  0  0
   -7.2040   22.4350  -31.5140 S   0  0  0  0  0  0  0  0  0  0  0  0
   -8.2290   22.3100  -30.4220 O   0  0  0  0  0  0  0  0  0  0  0  0
   -7.7900   23.2450  -32.6370 O   0  0  0  0  0  0  0  0  0  0  0  0
   -6.8070   20.8250  -32.1110 C   0  0  0  0  0  0  0  0  0  0  0  0
   -5.8120   20.6650  -33.0860 C   0  0  0  0  0  0  0  0  0  0  0  0
   -5.5020   19.3920  -33.5720 C   0  0  0  0  0  0  0  0  0  0  0  0
   -6.1840   18.2670  -33.0880 C   0  0  0  0  0  0  0  0  0  0  0  0
   -5.7860   16.6530  -33.6740 S   0  0  0  0  0  0  0  0  0  0  0  0
   -5.6690   15.7270  -32.4930 O   0  0  0  0  0  0  0  0  0  0  0  0
   -6.8820   16.1480  -34.5720 O   0  0  0  0  0  0  0  0  0  0  0  0
   -4.2710   16.6960  -34.5470 N   0  0  0  0  0  0  0  0  0  0  0  0
   -3.2330   17.3460  -33.7180 C   0  0  0  0  0  0  0  0  0  0  0  0
   -1.8260   16.9300  -34.1820 C   0  0  0  0  0  0  0  0  0  0  0  0
   -1.5790   15.5300  -34.1040 O   0  0  0  0  0  0  0  0  0  0  0  0
   -2.7590   14.7380  -34.1300 C   0  0  0  0  0  0  0  0  0  0  0  0
   -3.8760   15.3380  -35.0020 C   0  0  0  0  0  0  0  0  0  0  0  0
   -7.1780   18.4260  -32.1140 C   0  0  0  0  0  0  0  0  0  0  0  0
   -7.4920   19.7000  -31.6320 C   0  0  0  0  0  0  0  0  0  0  0  0
   -5.7250   24.6640  -30.9370 C   0  0  0  0  0  0  0  0  0  0  0  0
   -4.6160   25.3470  -30.4280 C   0  0  0  0  0  0  0  0  0  0  0  0
   -1.1300   24.7440  -27.1970 C   0  0  0  0  0  0  0  0  0  0  0  0
   -1.4920   25.9070  -26.4930 C   0  0  0  0  0  0  0  0  0  0  0  0
   -1.3310   25.9700  -25.1070 C   0  0  0  0  0  0  0  0  0  0  0  0
   -0.8030   24.8690  -24.4300 C   0  0  0  0  0  0  0  0  0  0  0  0
   -0.4520   23.7500  -25.1190 N   0  0  0  0  0  0  0  0  0  0  0  0
   -0.6060   23.6610  -26.4680 C   0  0  0  0  0  0  0  0  0  0  0  0
   -2.7605   22.6699  -29.3881 H   0  0  0  0  0  0  0  0  0  0  0  0
   -4.7482   21.4544  -30.2760 H   0  0  0  0  0  0  0  0  0  0  0  0
   -5.2738   21.5443  -33.4695 H   0  0  0  0  0  0  0  0  0  0  0  0
   -4.7204   19.2724  -34.3367 H   0  0  0  0  0  0  0  0  0  0  0  0
   -4.4280   17.2900  -35.3960 H   0  0  0  0  0  0  0  0  0  0  0  0
   -3.3334   18.4380  -33.8045 H   0  0  0  0  0  0  0  0  0  0  0  0
   -3.3676   17.0316  -32.6725 H   0  0  0  0  0  0  0  0  0  0  0  0
   -1.6999   17.2454  -35.2282 H   0  0  0  0  0  0  0  0  0  0  0  0
   -1.1108   17.4169  -33.5026 H   0  0  0  0  0  0  0  0  0  0  0  0
   -2.5035   13.7438  -34.5253 H   0  0  0  0  0  0  0  0  0  0  0  0
   -3.1410   14.6889  -33.0996 H   0  0  0  0  0  0  0  0  0  0  0  0
   -3.5197   15.4015  -36.0408 H   0  0  0  0  0  0  0  0  0  0  0  0
   -4.7569   14.6841  -34.9217 H   0  0  0  0  0  0  0  0  0  0  0  0
   -7.7129   17.5460  -31.7274 H   0  0  0  0  0  0  0  0  0  0  0  0
   -8.2798   19.8200  -30.8738 H   0  0  0  0  0  0  0  0  0  0  0  0
   -6.5572   25.2286  -31.3827 H   0  0  0  0  0  0  0  0  0  0  0  0
   -4.5732   26.4445  -30.4881 H   0  0  0  0  0  0  0  0  0  0  0  0
   -1.9036   26.7703  -27.0364 H   0  0  0  0  0  0  0  0  0  0  0  0
   -1.6171   26.8773  -24.5548 H   0  0  0  0  0  0  0  0  0  0  0  0
   -0.6708   24.9065  -23.3386 H   0  0  0  0  0  0  0  0  0  0  0  0
   -0.3192   22.7370  -26.9914 H   0  0  0  0  0  0  0  0  0  0  0  0
  1  2  2  0
  2  3  1  0
  3  4  1  0
  4  5  2  0
  5  6  1  0
  6  7  2  0
  7  8  1  0
  8  9  2  0
  8 10  2  0
  8 11  1  0
 11 12  2  0
 12 13  1  0
 13 14  2  0
 14 15  1  0
 15 16  2  0
 15 17  2  0
 15 18  1  0
 18 19  1  0
 19 20  1  0
 20 21  1  0
 21 22  1  0
 22 23  1  0
 14 24  1  0
 24 25  2  0
  7 26  1  0
 26 27  2  0
  2 28  1  0
 28 29  2  0
 29 30  1  0
 30 31  2  0
 31 32  1  0
 32 33  2  0
 27  4  1  0
 33 28  1  0
 25 11  1  0
 23 18  1  0
  5 34  1  0
  6 35  1  0
 12 36  1  0
 13 37  1  0
 18 38  1  0
 19 39  1  0
 19 40  1  0
 20 41  1  0
 20 42  1  0
 22 43  1  0
 22 44  1  0
 23 45  1  0
 23 46  1  0
 24 47  1  0
 25 48  1  0
 26 49  1  0
 27 50  1  0
 29 51  1  0
 30 52  1  0
 31 53  1  0
 33 54  1  0
M  CHG  2   3  -1  18   1
M  END
>  <UniqueID>  (7) 
7

>  <SMILES>  (7) 
O=C([N-]c1ccc(S(=O)(=O)c2ccc(S(=O)(=O)[NH+]3CCOCC3)cc2)cc1)c1cccnc1

>  <Energy>  (7) 
77.65703492055842

>  <Genealogy>  (7) 
O=C([N-]c1ccc(S(=O)(=O)c2ccc(S(=O)(=O)[NH+]3CCOCC3)cc2)cc1)c1cccnc1 (protonated)
O=C([N-]c1ccc(S(=O)(=O)c2ccc(S(=O)(=O)[NH+]3CCOCC3)cc2)cc1)c1cccnc1 (3D coordinates assigned)
O=C([N-]c1ccc(S(=O)(=O)c2ccc(S(=O)(=O)[NH+]3CCOCC3)cc2)cc1)c1cccnc1 (nonaromatic ring conformer: 77.65703492055842 kcal/mol)

>  <smiles>  (7) 
O=C(Nc1ccc(S(=O)(=O)c2ccc(S(=O)(=O)N3CCOCC3)cc2)cc1)c1cccnc1

>  <score_type>  (7) 
oracle

>  <origin>  (7) 
adgpu

>  <m_score__min__energy>  (7) 
-11.51

>  <m_primary>  (7) 
energy

$$$$
7:0
     RDKit          3D

 62 65  0  0  0  0  0  0  0  0999 V2000
   -7.5950   23.0580  -30.6300 C   0  0  0  0  0  0  0  0  0  0  0  0
   -7.5210   21.6050  -31.1110 C   0  0  0  0  0  0  0  0  0  0  0  0
   -7.0240   21.5220  -32.5720 C   0  0  0  0  0  0  0  0  0  0  0  0
   -7.7220   20.4300  -33.4110 C   0  0  0  0  0  0  0  0  0  0  0  0
   -8.0780   19.2160  -32.6480 N   0  0  0  0  0  0  0  0  0  0  0  0
   -6.7720   18.0520  -32.5740 S   0  0  0  0  0  0  0  0  0  0  0  0
   -6.7880   17.3640  -31.2370 O   0  0  0  0  0  0  0  0  0  0  0  0
   -6.9900   17.0050  -33.6320 O   0  0  0  0  0  0  0  0  0  0  0  0
   -5.1940   18.8000  -32.8130 C   0  0  0  0  0  0  0  0  0  0  0  0
   -4.4970   18.6130  -34.0150 C   0  0  0  0  0  0  0  0  0  0  0  0
   -3.2550   19.2210  -34.2090 C   0  0  0  0  0  0  0  0  0  0  0  0
   -2.7030   20.0250  -33.2090 C   0  0  0  0  0  0  0  0  0  0  0  0
   -3.3940   20.2280  -32.0030 C   0  0  0  0  0  0  0  0  0  0  0  0
   -2.8430   21.0370  -30.9510 N   0  0  0  0  0  0  0  0  0  0  0  0
   -3.1460   22.4310  -30.7720 C   0  0  0  0  0  0  0  0  0  0  0  0
   -3.9030   23.0280  -31.5840 O   0  0  0  0  0  0  0  0  0  0  0  0
   -2.5730   23.1900  -29.6400 C   0  0  0  0  0  0  0  0  0  0  0  0
   -1.7860   22.5160  -28.6900 C   0  0  0  0  0  0  0  0  0  0  0  0
   -1.2250   23.2060  -27.6060 C   0  0  0  0  0  0  0  0  0  0  0  0
   -0.2530   22.3420  -26.4090 S   0  0  0  0  0  0  0  0  0  0  0  0
   -0.5500   22.8970  -25.0430 O   0  0  0  0  0  0  0  0  0  0  0  0
    1.2040   22.5780  -26.6990 O   0  0  0  0  0  0  0  0  0  0  0  0
   -0.5580   20.6210  -26.4000 N   0  0  0  0  0  0  0  0  0  0  0  0
   -1.9860   20.3150  -26.3610 C   0  0  0  0  0  0  0  0  0  0  0  0
   -2.1470   18.9350  -26.9770 C   0  0  0  0  0  0  0  0  0  0  0  0
   -0.8790   18.7050  -27.7870 C   0  0  0  0  0  0  0  0  0  0  0  0
   -0.0500   19.9670  -27.6040 C   0  0  0  0  0  0  0  0  0  0  0  0
   -1.4590   24.5790  -27.4660 C   0  0  0  0  0  0  0  0  0  0  0  0
   -2.2220   25.2620  -28.4150 C   0  0  0  0  0  0  0  0  0  0  0  0
   -2.7690   24.5790  -29.5060 C   0  0  0  0  0  0  0  0  0  0  0  0
   -3.4780   25.2990  -30.4630 O   0  0  0  0  0  0  0  0  0  0  0  0
   -4.6240   19.5860  -31.8010 C   0  0  0  0  0  0  0  0  0  0  0  0
   -8.7420   19.4300  -31.3390 C   0  0  0  0  0  0  0  0  0  0  0  0
   -8.8740   20.9080  -30.9490 C   0  0  0  0  0  0  0  0  0  0  0  0
   -7.5961   23.0806  -29.5302 H   0  0  0  0  0  0  0  0  0  0  0  0
   -6.7240   23.6139  -31.0072 H   0  0  0  0  0  0  0  0  0  0  0  0
   -8.5180   23.5226  -31.0072 H   0  0  0  0  0  0  0  0  0  0  0  0
   -6.7889   21.0786  -30.4809 H   0  0  0  0  0  0  0  0  0  0  0  0
   -7.2016   22.4948  -33.0537 H   0  0  0  0  0  0  0  0  0  0  0  0
   -5.9568   21.2586  -32.5309 H   0  0  0  0  0  0  0  0  0  0  0  0
   -8.6446   20.8556  -33.8324 H   0  0  0  0  0  0  0  0  0  0  0  0
   -7.0046   20.1185  -34.1845 H   0  0  0  0  0  0  0  0  0  0  0  0
   -4.9299   17.9853  -34.8078 H   0  0  0  0  0  0  0  0  0  0  0  0
   -2.7099   19.0664  -35.1518 H   0  0  0  0  0  0  0  0  0  0  0  0
   -1.7238   20.5008  -33.3665 H   0  0  0  0  0  0  0  0  0  0  0  0
   -2.2480   20.5570  -30.2390 H   0  0  0  0  0  0  0  0  0  0  0  0
   -1.6084   21.4358  -28.7982 H   0  0  0  0  0  0  0  0  0  0  0  0
   -2.3460   20.3118  -25.3216 H   0  0  0  0  0  0  0  0  0  0  0  0
   -2.5699   21.0675  -26.9113 H   0  0  0  0  0  0  0  0  0  0  0  0
   -2.2457   18.1716  -26.1912 H   0  0  0  0  0  0  0  0  0  0  0  0
   -3.0499   18.8681  -27.6017 H   0  0  0  0  0  0  0  0  0  0  0  0
   -0.3339   17.8279  -27.4082 H   0  0  0  0  0  0  0  0  0  0  0  0
   -1.0997   18.5100  -28.8468 H   0  0  0  0  0  0  0  0  0  0  0  0
    1.0122   19.7100  -27.4784 H   0  0  0  0  0  0  0  0  0  0  0  0
   -0.1282   20.6270  -28.4805 H   0  0  0  0  0  0  0  0  0  0  0  0
   -1.0404   25.1215  -26.6055 H   0  0  0  0  0  0  0  0  0  0  0  0
   -2.3938   26.3428  -28.3040 H   0  0  0  0  0  0  0  0  0  0  0  0
   -5.1467   19.6999  -30.8399 H   0  0  0  0  0  0  0  0  0  0  0  0
   -9.7498   18.9916  -31.3850 H   0  0  0  0  0  0  0  0  0  0  0  0
   -8.1106   18.9513  -30.5760 H   0  0  0  0  0  0  0  0  0  0  0  0
   -9.6161   21.3934  -31.5999 H   0  0  0  0  0  0  0  0  0  0  0  0
   -9.1993   20.9814  -29.9008 H   0  0  0  0  0  0  0  0  0  0  0  0
  1  2  1  0
  2  3  1  0
  3  4  1  0
  4  5  1  0
  5  6  1  0
  6  7  2  0
  6  8  2  0
  6  9  1  0
  9 10  2  0
 10 11  1  0
 11 12  2  0
 12 13  1  0
 13 14  1  0
 14 15  1  0
 15 16  2  0
 15 17  1  0
 17 18  2  0
 18 19  1  0
 19 20  1  0
 20 21  2  0
 20 22  2  0
 20 23  1  0
 23 24  1  0
 24 25  1  0
 25 26  1  0
 26 27  1  0
 19 28  2  0
 28 29  1  0
 29 30  2  0
 30 31  1  0
 13 32  2  0
  5 33  1  0
 33 34  1  0
 34  2  1  0
 32  9  1  0
 30 17  1  0
 27 23  1  0
  1 35  1  0
  1 36  1  0
  1 37  1  0
  2 38  1  0
  3 39  1  0
  3 40  1  0
  4 41  1  0
  4 42  1  0
 10 43  1  0
 11 44  1  0
 12 45  1  0
 14 46  1  0
 18 47  1  0
 24 48  1  0
 24 49  1  0
 25 50  1  0
 25 51  1  0
 26 52  1  0
 26 53  1  0
 27 54  1  0
 27 55  1  0
 28 56  1  0
 29 57  1  0
 32 58  1  0
 33 59  1  0
 33 60  1  0
 34 61  1  0
 34 62  1  0
M  CHG  1  31  -1
M  END
>  <UniqueID>  (8) 
8

>  <SMILES>  (8) 
CC1CCN(S(=O)(=O)c2cccc(NC(=O)c3cc(S(=O)(=O)N4CCCC4)ccc3[O-])c2)CC1

>  <Energy>  (8) 
79.40550845806162

>  <Genealogy>  (8) 
CC1CCN(S(=O)(=O)c2cccc(NC(=O)c3cc(S(=O)(=O)N4CCCC4)ccc3[O-])c2)CC1 (protonated)
CC1CCN(S(=O)(=O)c2cccc(NC(=O)c3cc(S(=O)(=O)N4CCCC4)ccc3[O-])c2)CC1 (3D coordinates assigned)
CC1CCN(S(=O)(=O)c2cccc(NC(=O)c3cc(S(=O)(=O)N4CCCC4)ccc3[O-])c2)CC1 (nonaromatic ring conformer: 79.40550845806162 kcal/mol)

>  <smiles>  (8) 
CC1CCN(S(=O)(=O)c2cccc(NC(=O)c3cc(S(=O)(=O)N4CCCC4)ccc3O)c2)CC1

>  <score_type>  (8) 
oracle

>  <origin>  (8) 
adgpu

>  <m_score__min__energy>  (8) 
-14.050000000000001

>  <m_primary>  (8) 
energy

$$$$
8:0
     RDKit          3D

 52 55  0  0  0  0  0  0  0  0999 V2000
   -4.1980   25.7000  -30.6230 O   0  0  0  0  0  0  0  0  0  0  0  0
   -4.2310   24.4470  -30.4860 C   0  0  0  0  0  0  0  0  0  0  0  0
   -5.0090   23.6440  -31.3850 N   0  0  0  0  0  0  0  0  0  0  0  0
   -4.6010   22.4240  -32.0270 C   0  0  0  0  0  0  0  0  0  0  0  0
   -3.2650   22.1970  -32.4040 C   0  0  0  0  0  0  0  0  0  0  0  0
   -2.8910   20.9860  -33.0010 C   0  0  0  0  0  0  0  0  0  0  0  0
   -1.2200   20.7170  -33.4910 S   0  0  0  0  0  0  0  0  0  0  0  0
   -1.1450   19.5190  -34.3980 O   0  0  0  0  0  0  0  0  0  0  0  0
   -0.7270   21.9190  -34.2470 O   0  0  0  0  0  0  0  0  0  0  0  0
   -0.2340   20.4780  -32.0710 N   0  0  0  0  0  0  0  0  0  0  0  0
   -0.5030   21.4990  -31.0600 C   0  0  0  0  0  0  0  0  0  0  0  0
   -0.1660   20.8740  -29.7150 C   0  0  0  0  0  0  0  0  0  0  0  0
   -0.1990   19.3720  -29.9510 C   0  0  0  0  0  0  0  0  0  0  0  0
   -0.5320   19.2010  -31.4250 C   0  0  0  0  0  0  0  0  0  0  0  0
   -3.8590   20.0050  -33.2460 C   0  0  0  0  0  0  0  0  0  0  0  0
   -5.1910   20.2340  -32.9020 C   0  0  0  0  0  0  0  0  0  0  0  0
   -5.5720   21.4450  -32.3090 C   0  0  0  0  0  0  0  0  0  0  0  0
   -6.9500   21.6760  -31.9960 N   0  0  0  0  0  0  0  0  0  0  0  0
   -7.5980   22.9600  -32.1800 C   0  0  0  0  0  0  0  0  0  0  0  0
   -9.0850   22.6970  -31.9620 C   0  0  0  0  0  0  0  0  0  0  0  0
   -9.1790   21.3220  -31.3000 C   0  0  0  0  0  0  0  0  0  0  0  0
   -7.8610   20.6210  -31.6000 C   0  0  0  0  0  0  0  0  0  0  0  0
   -3.4320   23.8110  -29.4090 C   0  0  0  0  0  0  0  0  0  0  0  0
   -3.8450   22.5720  -28.8820 C   0  0  0  0  0  0  0  0  0  0  0  0
   -3.1070   21.9430  -27.8760 C   0  0  0  0  0  0  0  0  0  0  0  0
   -1.9500   22.5430  -27.3790 C   0  0  0  0  0  0  0  0  0  0  0  0
   -1.5310   23.7750  -27.8820 C   0  0  0  0  0  0  0  0  0  0  0  0
   -2.2660   24.4160  -28.8860 C   0  0  0  0  0  0  0  0  0  0  0  0
   -1.8360   25.6600  -29.3370 O   0  0  0  0  0  0  0  0  0  0  0  0
   -2.5084   22.9760  -32.2288 H   0  0  0  0  0  0  0  0  0  0  0  0
    0.1265   22.3836  -31.2364 H   0  0  0  0  0  0  0  0  0  0  0  0
   -1.5525   21.8265  -31.0947 H   0  0  0  0  0  0  0  0  0  0  0  0
    0.8340   21.1900  -29.3830 H   0  0  0  0  0  0  0  0  0  0  0  0
   -0.8736   21.1816  -28.9310 H   0  0  0  0  0  0  0  0  0  0  0  0
    0.7801   18.9252  -29.7235 H   0  0  0  0  0  0  0  0  0  0  0  0
   -0.9362   18.8729  -29.3049 H   0  0  0  0  0  0  0  0  0  0  0  0
    0.0834   18.4013  -31.8629 H   0  0  0  0  0  0  0  0  0  0  0  0
   -1.5871   18.9227  -31.5638 H   0  0  0  0  0  0  0  0  0  0  0  0
   -3.5684   19.0513  -33.7109 H   0  0  0  0  0  0  0  0  0  0  0  0
   -5.9470   19.4593  -33.0974 H   0  0  0  0  0  0  0  0  0  0  0  0
   -7.2241   23.6887  -31.4457 H   0  0  0  0  0  0  0  0  0  0  0  0
   -7.3983   23.3805  -33.1767 H   0  0  0  0  0  0  0  0  0  0  0  0
   -9.5169   23.4671  -31.3059 H   0  0  0  0  0  0  0  0  0  0  0  0
   -9.6418   22.7257  -32.9103 H   0  0  0  0  0  0  0  0  0  0  0  0
   -9.3163   21.4293  -30.2139 H   0  0  0  0  0  0  0  0  0  0  0  0
  -10.0365   20.7486  -31.6820 H   0  0  0  0  0  0  0  0  0  0  0  0
   -7.4864   20.1043  -30.7041 H   0  0  0  0  0  0  0  0  0  0  0  0
   -7.9711   19.8575  -32.3842 H   0  0  0  0  0  0  0  0  0  0  0  0
   -4.7583   22.0944  -29.2664 H   0  0  0  0  0  0  0  0  0  0  0  0
   -3.4388   20.9737  -27.4756 H   0  0  0  0  0  0  0  0  0  0  0  0
   -1.3677   22.0445  -26.5901 H   0  0  0  0  0  0  0  0  0  0  0  0
   -0.6181   24.2451  -27.4875 H   0  0  0  0  0  0  0  0  0  0  0  0
  1  2  2  0
  2  3  1  0
  3  4  1  0
  4  5  2  0
  5  6  1  0
  6  7  1  0
  7  8  2  0
  7  9  2  0
  7 10  1  0
 10 11  1  0
 11 12  1  0
 12 13  1  0
 13 14  1  0
  6 15  2  0
 15 16  1  0
 16 17  2  0
 17 18  1  0
 18 19  1  0
 19 20  1  0
 20 21  1  0
 21 22  1  0
  2 23  1  0
 23 24  2  0
 24 25  1  0
 25 26  2  0
 26 27  1  0
 27 28  2  0
 28 29  1  0
 17  4  1  0
 22 18  1  0
 28 23  1  0
 14 10  1  0
  5 30  1  0
 11 31  1  0
 11 32  1  0
 12 33  1  0
 12 34  1  0
 13 35  1  0
 13 36  1  0
 14 37  1  0
 14 38  1  0
 15 39  1  0
 16 40  1  0
 19 41  1  0
 19 42  1  0
 20 43  1  0
 20 44  1  0
 21 45  1  0
 21 46  1  0
 22 47  1  0
 22 48  1  0
 24 49  1  0
 25 50  1  0
 26 51  1  0
 27 52  1  0
M  CHG  2   3  -1  29  -1
M  END
>  <UniqueID>  (9) 
9

>  <SMILES>  (9) 
O=C([N-]c1cc(S(=O)(=O)N2CCCC2)ccc1N1CCCC1)c1ccccc1[O-]

>  <Energy>  (9) 
66.05590103413398

>  <Genealogy>  (9) 
O=C([N-]c1cc(S(=O)(=O)N2CCCC2)ccc1N1CCCC1)c1ccccc1[O-] (protonated)
O=C([N-]c1cc(S(=O)(=O)N2CCCC2)ccc1N1CCCC1)c1ccccc1[O-] (3D coordinates assigned)
O=C([N-]c1cc(S(=O)(=O)N2CCCC2)ccc1N1CCCC1)c1ccccc1[O-] (nonaromatic ring conformer: 66.05590103413398 kcal/mol)

>  <smiles>  (9) 
O=C(Nc1cc(S(=O)(=O)N2CCCC2)ccc1N1CCCC1)c1ccccc1O

>  <score_type>  (9) 
oracle

>  <origin>  (9) 
adgpu

>  <m_score__min__energy>  (9) 
-13.609999999999999

>  <m_primary>  (9) 
energy

$$$$
9:0
     RDKit          3D

 56 59  0  0  0  0  0  0  0  0999 V2000
    1.2740   27.8850  -23.3150 N   0  0  0  0  0  0  0  0  0  0  0  0
    0.5750   27.1680  -23.8960 C   0  0  0  0  0  0  0  0  0  0  0  0
   -0.2950   26.2770  -24.6180 C   0  0  0  0  0  0  0  0  0  0  0  0
   -1.5170   26.7420  -25.1180 C   0  0  0  0  0  0  0  0  0  0  0  0
   -2.3620   25.8760  -25.8180 C   0  0  0  0  0  0  0  0  0  0  0  0
   -1.9910   24.5350  -26.0330 C   0  0  0  0  0  0  0  0  0  0  0  0
   -2.8530   23.6170  -26.7310 N   0  0  0  0  0  0  0  0  0  0  0  0
   -2.4210   22.8110  -27.8380 C   0  0  0  0  0  0  0  0  0  0  0  0
   -2.1670   21.4440  -27.6400 C   0  0  0  0  0  0  0  0  0  0  0  0
   -1.7120   20.6480  -28.6920 C   0  0  0  0  0  0  0  0  0  0  0  0
   -1.5080   21.2070  -29.9530 C   0  0  0  0  0  0  0  0  0  0  0  0
   -1.7600   22.5630  -30.1660 C   0  0  0  0  0  0  0  0  0  0  0  0
   -2.2230   23.3780  -29.1180 C   0  0  0  0  0  0  0  0  0  0  0  0
   -2.4500   24.8200  -29.3750 C   0  0  0  0  0  0  0  0  0  0  0  0
   -1.6200   25.6670  -28.9530 O   0  0  0  0  0  0  0  0  0  0  0  0
   -3.6420   25.2870  -30.0220 N   0  0  0  0  0  0  0  0  0  0  0  0
   -4.7810   24.4860  -30.3680 C   0  0  0  0  0  0  0  0  0  0  0  0
   -5.2680   23.5610  -29.4370 C   0  0  0  0  0  0  0  0  0  0  0  0
   -6.3850   22.7760  -29.7360 C   0  0  0  0  0  0  0  0  0  0  0  0
   -7.0390   22.9200  -30.9680 C   0  0  0  0  0  0  0  0  0  0  0  0
   -8.4560   21.9380  -31.3480 S   0  0  0  0  0  0  0  0  0  0  0  0
   -9.3540   22.7000  -32.2820 O   0  0  0  0  0  0  0  0  0  0  0  0
   -9.2200   21.6690  -30.0820 O   0  0  0  0  0  0  0  0  0  0  0  0
   -8.0070   20.4190  -32.0840 N   0  0  0  0  0  0  0  0  0  0  0  0
   -8.4850   19.2920  -31.2670 C   0  0  0  0  0  0  0  0  0  0  0  0
   -8.3160   17.9660  -32.0350 C   0  0  0  0  0  0  0  0  0  0  0  0
   -7.2120   18.0420  -33.1030 C   0  0  0  0  0  0  0  0  0  0  0  0
   -6.0560   18.9340  -32.6390 C   0  0  0  0  0  0  0  0  0  0  0  0
   -6.5420   20.3540  -32.2680 C   0  0  0  0  0  0  0  0  0  0  0  0
   -6.5690   23.8620  -31.8930 C   0  0  0  0  0  0  0  0  0  0  0  0
   -5.4540   24.6480  -31.5920 C   0  0  0  0  0  0  0  0  0  0  0  0
   -0.7690   24.0760  -25.5170 C   0  0  0  0  0  0  0  0  0  0  0  0
    0.0770   24.9420  -24.8170 C   0  0  0  0  0  0  0  0  0  0  0  0
   -1.8125   27.7897  -24.9599 H   0  0  0  0  0  0  0  0  0  0  0  0
   -3.3238   26.2450  -26.2037 H   0  0  0  0  0  0  0  0  0  0  0  0
   -3.8340   23.4990  -26.3920 H   0  0  0  0  0  0  0  0  0  0  0  0
   -2.3280   20.9972  -26.6478 H   0  0  0  0  0  0  0  0  0  0  0  0
   -1.5141   19.5787  -28.5263 H   0  0  0  0  0  0  0  0  0  0  0  0
   -1.1480   20.5785  -30.7809 H   0  0  0  0  0  0  0  0  0  0  0  0
   -1.5949   22.9981  -31.1627 H   0  0  0  0  0  0  0  0  0  0  0  0
   -4.7681   23.4512  -28.4633 H   0  0  0  0  0  0  0  0  0  0  0  0
   -6.7522   22.0430  -29.0026 H   0  0  0  0  0  0  0  0  0  0  0  0
   -7.9039   19.2478  -30.3341 H   0  0  0  0  0  0  0  0  0  0  0  0
   -9.5509   19.4410  -31.0398 H   0  0  0  0  0  0  0  0  0  0  0  0
   -8.0590   17.1728  -31.3175 H   0  0  0  0  0  0  0  0  0  0  0  0
   -9.2650   17.7536  -32.5490 H   0  0  0  0  0  0  0  0  0  0  0  0
   -6.8289   17.0292  -33.2964 H   0  0  0  0  0  0  0  0  0  0  0  0
   -7.6411   18.4745  -34.0188 H   0  0  0  0  0  0  0  0  0  0  0  0
   -5.5850   18.4766  -31.7564 H   0  0  0  0  0  0  0  0  0  0  0  0
   -5.3381   19.0231  -33.4676 H   0  0  0  0  0  0  0  0  0  0  0  0
   -6.0545   20.6604  -31.3307 H   0  0  0  0  0  0  0  0  0  0  0  0
   -6.2786   21.0258  -33.0983 H   0  0  0  0  0  0  0  0  0  0  0  0
   -7.0799   23.9830  -32.8596 H   0  0  0  0  0  0  0  0  0  0  0  0
   -5.1008   25.3972  -32.3159 H   0  0  0  0  0  0  0  0  0  0  0  0
   -0.4744   23.0265  -25.6644 H   0  0  0  0  0  0  0  0  0  0  0  0
    1.0356   24.5740  -24.4224 H   0  0  0  0  0  0  0  0  0  0  0  0
  1  2  3  0
  2  3  1  0
  3  4  2  0
  4  5  1  0
  5  6  2  0
  6  7  1  0
  7  8  1  0
  8  9  2  0
  9 10  1  0
 10 11  2  0
 11 12  1  0
 12 13  2  0
 13 14  1  0
 14 15  2  0
 14 16  1  0
 16 17  1  0
 17 18  2  0
 18 19  1  0
 19 20  2  0
 20 21  1  0
 21 22  2  0
 21 23  2  0
 21 24  1  0
 24 25  1  0
 25 26  1  0
 26 27  1  0
 27 28  1  0
 28 29  1  0
 20 30  1  0
 30 31  2  0
  6 32  1  0
 32 33  2  0
 33  3  1  0
 13  8  1  0
 31 17  1  0
 29 24  1  0
  4 34  1  0
  5 35  1  0
  7 36  1  0
  9 37  1  0
 10 38  1  0
 11 39  1  0
 12 40  1  0
 18 41  1  0
 19 42  1  0
 25 43  1  0
 25 44  1  0
 26 45  1  0
 26 46  1  0
 27 47  1  0
 27 48  1  0
 28 49  1  0
 28 50  1  0
 29 51  1  0
 29 52  1  0
 30 53  1  0
 31 54  1  0
 32 55  1  0
 33 56  1  0
M  CHG  1  16  -1
M  END
>  <UniqueID>  (10) 
10

>  <SMILES>  (10) 
N#Cc1ccc(Nc2ccccc2C(=O)[N-]c2ccc(S(=O)(=O)N3CCCCC3)cc2)cc1

>  <Energy>  (10) 
75.68650241220497

>  <Genealogy>  (10) 
N#Cc1ccc(Nc2ccccc2C(=O)[N-]c2ccc(S(=O)(=O)N3CCCCC3)cc2)cc1 (protonated)
N#Cc1ccc(Nc2ccccc2C(=O)[N-]c2ccc(S(=O)(=O)N3CCCCC3)cc2)cc1 (3D coordinates assigned)
N#Cc1ccc(Nc2ccccc2C(=O)[N-]c2ccc(S(=O)(=O)N3CCCCC3)cc2)cc1 (nonaromatic ring conformer: 75.68650241220497 kcal/mol)

>  <smiles>  (10) 
N#Cc1ccc(Nc2ccccc2C(=O)Nc2ccc(S(=O)(=O)N3CCCCC3)cc2)cc1

>  <score_type>  (10) 
oracle

>  <origin>  (10) 
adgpu

>  <m_score__min__energy>  (10) 
-12.15

>  <m_primary>  (10) 
energy

$$$$
10:0
     RDKit          3D

 49 51  0  0  0  0  0  0  0  0999 V2000
   -8.5010   20.9930  -30.4190 O   0  0  0  0  0  0  0  0  0  0  0  0
   -7.8190   21.3590  -31.7090 S   0  0  0  0  0  0  0  0  0  0  0  0
   -8.8510   21.8580  -32.6820 O   0  0  0  0  0  0  0  0  0  0  0  0
   -7.0650   19.9250  -32.4030 C   0  0  0  0  0  0  0  0  0  0  0  0
   -6.7090   19.9090  -33.7590 C   0  0  0  0  0  0  0  0  0  0  0  0
   -6.0920   18.7830  -34.3120 C   0  0  0  0  0  0  0  0  0  0  0  0
   -5.8240   17.6670  -33.5120 C   0  0  0  0  0  0  0  0  0  0  0  0
   -5.0490   16.2550  -34.2060 Cl  0  0  0  0  0  0  0  0  0  0  0  0
   -6.1720   17.6810  -32.1560 C   0  0  0  0  0  0  0  0  0  0  0  0
   -6.7890   18.8070  -31.6020 C   0  0  0  0  0  0  0  0  0  0  0  0
   -6.6250   22.6310  -31.3980 C   0  0  0  0  0  0  0  0  0  0  0  0
   -7.0640   23.8860  -30.9420 C   0  0  0  0  0  0  0  0  0  0  0  0
   -6.1470   24.8920  -30.6370 C   0  0  0  0  0  0  0  0  0  0  0  0
   -4.7800   24.6600  -30.7860 C   0  0  0  0  0  0  0  0  0  0  0  0
   -3.8690   25.6630  -30.4780 O   0  0  0  0  0  0  0  0  0  0  0  0
   -4.3260   23.4240  -31.2500 C   0  0  0  0  0  0  0  0  0  0  0  0
   -5.2380   22.3980  -31.5680 C   0  0  0  0  0  0  0  0  0  0  0  0
   -4.7620   21.1370  -32.0830 N   0  0  0  0  0  0  0  0  0  0  0  0
   -3.9580   20.1890  -31.3110 C   0  0  0  0  0  0  0  0  0  0  0  0
   -2.4790   20.2480  -31.7430 C   0  0  0  0  0  0  0  0  0  0  0  0
   -2.3010   20.6690  -33.1590 N   0  0  0  0  0  0  0  0  0  0  0  0
   -0.9030   21.1390  -33.4140 C   0  0  0  0  0  0  0  0  0  0  0  0
   -0.0250   20.1400  -34.2000 C   0  0  0  0  0  0  0  0  0  0  0  0
   -0.3610   18.6940  -33.8420 C   0  0  0  0  0  0  0  0  0  0  0  0
   -1.8450   18.3760  -34.0910 C   0  0  0  0  0  0  0  0  0  0  0  0
   -2.7240   19.6410  -34.1400 C   0  0  0  0  0  0  0  0  0  0  0  0
   -6.9160   20.7858  -34.3902 H   0  0  0  0  0  0  0  0  0  0  0  0
   -5.8170   18.7745  -35.3770 H   0  0  0  0  0  0  0  0  0  0  0  0
   -5.9598   16.8050  -31.5255 H   0  0  0  0  0  0  0  0  0  0  0  0
   -7.0585   18.8160  -30.5356 H   0  0  0  0  0  0  0  0  0  0  0  0
   -8.1410   24.0767  -30.8245 H   0  0  0  0  0  0  0  0  0  0  0  0
   -6.5026   25.8693  -30.2786 H   0  0  0  0  0  0  0  0  0  0  0  0
   -3.2464   23.2495  -31.3684 H   0  0  0  0  0  0  0  0  0  0  0  0
   -5.0170   20.8600  -33.0560 H   0  0  0  0  0  0  0  0  0  0  0  0
   -4.0321   20.4394  -30.2425 H   0  0  0  0  0  0  0  0  0  0  0  0
   -4.3387   19.1731  -31.4929 H   0  0  0  0  0  0  0  0  0  0  0  0
   -1.9536   20.9656  -31.0957 H   0  0  0  0  0  0  0  0  0  0  0  0
   -2.0690   19.2316  -31.6489 H   0  0  0  0  0  0  0  0  0  0  0  0
   -2.9260   21.4980  -33.3040 H   0  0  0  0  0  0  0  0  0  0  0  0
   -0.9548   22.0762  -33.9876 H   0  0  0  0  0  0  0  0  0  0  0  0
   -0.4300   21.2635  -32.4287 H   0  0  0  0  0  0  0  0  0  0  0  0
   -0.1915   20.2890  -35.2771 H   0  0  0  0  0  0  0  0  0  0  0  0
    1.0268   20.3244  -33.9359 H   0  0  0  0  0  0  0  0  0  0  0  0
    0.2556   18.0221  -34.4571 H   0  0  0  0  0  0  0  0  0  0  0  0
   -0.1544   18.5491  -32.7713 H   0  0  0  0  0  0  0  0  0  0  0  0
   -1.9353   17.8472  -35.0513 H   0  0  0  0  0  0  0  0  0  0  0  0
   -2.1979   17.7584  -33.2519 H   0  0  0  0  0  0  0  0  0  0  0  0
   -2.6641   20.0725  -35.1501 H   0  0  0  0  0  0  0  0  0  0  0  0
   -3.7517   19.3420  -33.8862 H   0  0  0  0  0  0  0  0  0  0  0  0
  1  2  2  0
  2  3  2  0
  2  4  1  0
  4  5  2  0
  5  6  1  0
  6  7  2  0
  7  8  1  0
  7  9  1  0
  9 10  2  0
  2 11  1  0
 11 12  2  0
 12 13  1  0
 13 14  2  0
 14 15  1  0
 14 16  1  0
 16 17  2  0
 17 18  1  0
 18 19  1  0
 19 20  1  0
 20 21  1  0
 21 22  1  0
 22 23  1  0
 23 24  1  0
 24 25  1  0
 25 26  1  0
 10  4  1  0
 17 11  1  0
 26 21  1  0
  5 27  1  0
  6 28  1  0
  9 29  1  0
 10 30  1  0
 12 31  1  0
 13 32  1  0
 16 33  1  0
 18 34  1  0
 19 35  1  0
 19 36  1  0
 20 37  1  0
 20 38  1  0
 21 39  1  0
 22 40  1  0
 22 41  1  0
 23 42  1  0
 23 43  1  0
 24 44  1  0
 24 45  1  0
 25 46  1  0
 25 47  1  0
 26 48  1  0
 26 49  1  0
M  CHG  2  15  -1  21   1
M  END
>  <UniqueID>  (11) 
11

>  <SMILES>  (11) 
O=S(=O)(c1ccc(Cl)cc1)c1ccc([O-])cc1NCC[NH+]1CCCCC1

>  <Energy>  (11) 
64.01536325671002

>  <Genealogy>  (11) 
O=S(=O)(c1ccc(Cl)cc1)c1ccc([O-])cc1NCC[NH+]1CCCCC1 (protonated)
O=S(=O)(c1ccc(Cl)cc1)c1ccc([O-])cc1NCC[NH+]1CCCCC1 (3D coordinates assigned)
O=S(=O)(c1ccc(Cl)cc1)c1ccc([O-])cc1NCC[NH+]1CCCCC1 (nonaromatic ring conformer: 64.01536325671002 kcal/mol)

>  <smiles>  (11) 
O=S(=O)(c1ccc(Cl)cc1)c1ccc(O)cc1NCCN1CCCCC1

>  <score_type>  (11) 
oracle

>  <origin>  (11) 
adgpu

>  <m_score__min__energy>  (11) 
-11.529999999999999

>  <m_primary>  (11) 
energy

$$$$
11:0
     RDKit          3D

 63 67  0  0  0  0  0  0  0  0999 V2000
    0.9620   27.3240  -23.3520 C   0  0  0  0  0  0  0  0  0  0  0  0
   -0.3900   27.2750  -23.7950 O   0  0  0  0  0  0  0  0  0  0  0  0
   -0.7920   26.8190  -25.0590 C   0  0  0  0  0  0  0  0  0  0  0  0
   -1.9500   26.0410  -25.2490 C   0  0  0  0  0  0  0  0  0  0  0  0
   -2.3100   25.6100  -26.5310 C   0  0  0  0  0  0  0  0  0  0  0  0
   -1.5230   25.9630  -27.6430 C   0  0  0  0  0  0  0  0  0  0  0  0
   -1.8370   25.5430  -28.9440 O   0  0  0  0  0  0  0  0  0  0  0  0
   -2.8980   24.6910  -29.2920 C   0  0  0  0  0  0  0  0  0  0  0  0
   -3.9360   25.1620  -30.0330 N   0  0  0  0  0  0  0  0  0  0  0  0
   -4.9720   24.3660  -30.3920 C   0  0  0  0  0  0  0  0  0  0  0  0
   -6.0250   24.8890  -31.1500 C   0  0  0  0  0  0  0  0  0  0  0  0
   -7.0920   24.0670  -31.5270 C   0  0  0  0  0  0  0  0  0  0  0  0
   -7.1140   22.7200  -31.1470 C   0  0  0  0  0  0  0  0  0  0  0  0
   -8.4440   21.6870  -31.6710 S   0  0  0  0  0  0  0  0  0  0  0  0
   -9.5600   22.5660  -32.1630 O   0  0  0  0  0  0  0  0  0  0  0  0
   -8.9540   20.8840  -30.5070 O   0  0  0  0  0  0  0  0  0  0  0  0
   -7.9300   20.6280  -32.9660 N   0  0  0  0  0  0  0  0  0  0  0  0
   -6.4670   20.4320  -32.9830 C   0  0  0  0  0  0  0  0  0  0  0  0
   -5.9700   19.5160  -31.8490 C   0  0  0  0  0  0  0  0  0  0  0  0
   -6.9130   18.3170  -31.5810 C   0  0  0  0  0  0  0  0  0  0  0  0
   -6.1170   17.0380  -31.2960 C   0  0  0  0  0  0  0  0  0  0  0  0
   -7.8890   18.0990  -32.7450 C   0  0  0  0  0  0  0  0  0  0  0  0
   -8.7180   19.3710  -33.0030 C   0  0  0  0  0  0  0  0  0  0  0  0
   -6.0580   22.1920  -30.3880 C   0  0  0  0  0  0  0  0  0  0  0  0
   -4.9820   23.0140  -30.0060 C   0  0  0  0  0  0  0  0  0  0  0  0
   -3.8980   22.5330  -29.2520 C   0  0  0  0  0  0  0  0  0  0  0  0
   -3.8640   21.3180  -28.9030 O   0  0  0  0  0  0  0  0  0  0  0  0
   -2.8710   23.3760  -28.9080 N   0  0  0  0  0  0  0  0  0  0  0  0
   -1.7580   22.8850  -28.1360 C   0  0  0  0  0  0  0  0  0  0  0  0
   -1.9700   22.3280  -26.8650 C   0  0  0  0  0  0  0  0  0  0  0  0
   -0.8890   21.8590  -26.1130 C   0  0  0  0  0  0  0  0  0  0  0  0
    0.4100   21.9420  -26.6250 C   0  0  0  0  0  0  0  0  0  0  0  0
    0.6280   22.4950  -27.8900 C   0  0  0  0  0  0  0  0  0  0  0  0
   -0.4510   22.9660  -28.6450 C   0  0  0  0  0  0  0  0  0  0  0  0
   -0.3640   26.7190  -27.4480 C   0  0  0  0  0  0  0  0  0  0  0  0
   -0.0040   27.1500  -26.1680 C   0  0  0  0  0  0  0  0  0  0  0  0
    0.9877   27.3249  -22.2523 H   0  0  0  0  0  0  0  0  0  0  0  0
    1.5040   26.4449  -23.7307 H   0  0  0  0  0  0  0  0  0  0  0  0
    1.4390   28.2400  -23.7307 H   0  0  0  0  0  0  0  0  0  0  0  0
   -2.5751   25.7705  -24.3853 H   0  0  0  0  0  0  0  0  0  0  0  0
   -3.2105   24.9937  -26.6698 H   0  0  0  0  0  0  0  0  0  0  0  0
   -6.0139   25.9473  -31.4497 H   0  0  0  0  0  0  0  0  0  0  0  0
   -7.9175   24.4809  -32.1247 H   0  0  0  0  0  0  0  0  0  0  0  0
   -6.1846   19.9822  -33.9463 H   0  0  0  0  0  0  0  0  0  0  0  0
   -6.0010   21.4178  -32.8382 H   0  0  0  0  0  0  0  0  0  0  0  0
   -4.9779   19.1272  -32.1220 H   0  0  0  0  0  0  0  0  0  0  0  0
   -5.9364   20.1195  -30.9299 H   0  0  0  0  0  0  0  0  0  0  0  0
   -7.5039   18.5597  -30.6855 H   0  0  0  0  0  0  0  0  0  0  0  0
   -6.0285   16.8958  -30.2088 H   0  0  0  0  0  0  0  0  0  0  0  0
   -6.6382   16.1757  -31.7373 H   0  0  0  0  0  0  0  0  0  0  0  0
   -5.1132   17.1249  -31.7373 H   0  0  0  0  0  0  0  0  0  0  0  0
   -7.3195   17.8485  -33.6522 H   0  0  0  0  0  0  0  0  0  0  0  0
   -8.5724   17.2770  -32.4855 H   0  0  0  0  0  0  0  0  0  0  0  0
   -9.1830   19.2843  -33.9961 H   0  0  0  0  0  0  0  0  0  0  0  0
   -9.4571   19.4370  -32.1910 H   0  0  0  0  0  0  0  0  0  0  0  0
   -6.0717   21.1329  -30.0911 H   0  0  0  0  0  0  0  0  0  0  0  0
   -2.9903   22.2604  -26.4594 H   0  0  0  0  0  0  0  0  0  0  0  0
   -1.0602   21.4241  -25.1172 H   0  0  0  0  0  0  0  0  0  0  0  0
    1.2597   21.5722  -26.0323 H   0  0  0  0  0  0  0  0  0  0  0  0
    1.6497   22.5599  -28.2924 H   0  0  0  0  0  0  0  0  0  0  0  0
   -0.2758   23.4010  -29.6400 H   0  0  0  0  0  0  0  0  0  0  0  0
    0.2702   26.9770  -28.3089 H   0  0  0  0  0  0  0  0  0  0  0  0
    0.9052   27.7538  -26.0309 H   0  0  0  0  0  0  0  0  0  0  0  0
  1  2  1  0
  2  3  1  0
  3  4  2  0
  4  5  1  0
  5  6  2  0
  6  7  1  0
  7  8  1  0
  8  9  2  0
  9 10  1  0
 10 11  2  0
 11 12  1  0
 12 13  2  0
 13 14  1  0
 14 15  2  0
 14 16  2  0
 14 17  1  0
 17 18  1  0
 18 19  1  0
 19 20  1  0
 20 21  1  0
 20 22  1  0
 22 23  1  0
 13 24  1  0
 24 25  2  0
 25 26  1  0
 26 27  2  0
 26 28  1  0
 28 29  1  0
 29 30  2  0
 30 31  1  0
 31 32  2  0
 32 33  1  0
 33 34  2  0
  6 35  1  0
 35 36  2  0
 36  3  1  0
 28  8  1  0
 34 29  1  0
 25 10  1  0
 23 17  1  0
  1 37  1  0
  1 38  1  0
  1 39  1  0
  4 40  1  0
  5 41  1  0
 11 42  1  0
 12 43  1  0
 18 44  1  0
 18 45  1  0
 19 46  1  0
 19 47  1  0
 20 48  1  0
 21 49  1  0
 21 50  1  0
 21 51  1  0
 22 52  1  0
 22 53  1  0
 23 54  1  0
 23 55  1  0
 24 56  1  0
 30 57  1  0
 31 58  1  0
 32 59  1  0
 33 60  1  0
 34 61  1  0
 35 62  1  0
 36 63  1  0
M  END
>  <UniqueID>  (12) 
12

>  <SMILES>  (12) 
COc1ccc(Oc2nc3ccc(S(=O)(=O)N4CCC(C)CC4)cc3c(=O)n2-c2ccccc2)cc1

>  <Energy>  (12) 
91.4787604696052

>  <Genealogy>  (12) 
COc1ccc(Oc2nc3ccc(S(=O)(=O)N4CCC(C)CC4)cc3c(=O)n2-c2ccccc2)cc1 (3D coordinates assigned)
COc1ccc(Oc2nc3ccc(S(=O)(=O)N4CCC(C)CC4)cc3c(=O)n2-c2ccccc2)cc1 (nonaromatic ring conformer: 91.4787604696052 kcal/mol)

>  <smiles>  (12) 
COc1ccc(Oc2nc3ccc(S(=O)(=O)N4CCC(C)CC4)cc3c(=O)n2-c2ccccc2)cc1

>  <score_type>  (12) 
oracle

>  <origin>  (12) 
adgpu

>  <m_score__min__energy>  (12) 
-10.91

>  <m_primary>  (12) 
energy

$$$$
12:0
     RDKit          3D

 58 61  0  0  0  0  0  0  0  0999 V2000
   -6.0150   24.3420  -29.3310 O   0  0  0  0  0  0  0  0  0  0  0  0
   -5.5660   23.5410  -30.5200 S   0  0  0  0  0  0  0  0  0  0  0  0
   -5.1270   24.4780  -31.6080 O   0  0  0  0  0  0  0  0  0  0  0  0
   -4.2200   22.5430  -30.0680 N   0  0  0  0  0  0  0  0  0  0  0  0
   -3.2640   22.0210  -31.0130 C   0  0  0  0  0  0  0  0  0  0  0  0
   -3.5520   21.9360  -32.3920 C   0  0  0  0  0  0  0  0  0  0  0  0
   -2.5940   21.4500  -33.2850 C   0  0  0  0  0  0  0  0  0  0  0  0
   -1.3380   21.0370  -32.8200 C   0  0  0  0  0  0  0  0  0  0  0  0
   -0.1090   20.5300  -33.9770 S   0  0  0  0  0  0  0  0  0  0  0  0
    0.7960   19.5030  -33.3530 O   0  0  0  0  0  0  0  0  0  0  0  0
   -0.7840   19.9170  -35.1690 O   0  0  0  0  0  0  0  0  0  0  0  0
    0.8160   21.9220  -34.4760 N   0  0  0  0  0  0  0  0  0  0  0  0
    2.2210   21.5420  -34.6960 C   0  0  0  0  0  0  0  0  0  0  0  0
    2.9820   22.6480  -35.4520 C   0  0  0  0  0  0  0  0  0  0  0  0
    2.2700   23.8700  -35.4080 O   0  0  0  0  0  0  0  0  0  0  0  0
    1.0560   23.7420  -36.1320 C   0  0  0  0  0  0  0  0  0  0  0  0
    0.2370   22.5070  -35.6960 C   0  0  0  0  0  0  0  0  0  0  0  0
   -1.0470   21.1070  -31.4480 C   0  0  0  0  0  0  0  0  0  0  0  0
   -2.0060   21.5910  -30.5520 C   0  0  0  0  0  0  0  0  0  0  0  0
   -6.8910   22.5240  -31.0830 C   0  0  0  0  0  0  0  0  0  0  0  0
   -8.1220   23.0890  -31.4350 C   0  0  0  0  0  0  0  0  0  0  0  0
   -9.1310   22.2890  -31.9790 C   0  0  0  0  0  0  0  0  0  0  0  0
   -8.9110   20.9250  -32.1880 C   0  0  0  0  0  0  0  0  0  0  0  0
   -7.6780   20.3520  -31.8410 C   0  0  0  0  0  0  0  0  0  0  0  0
   -7.3740   18.6370  -32.1170 S   0  0  0  0  0  0  0  0  0  0  0  0
   -8.6400   17.8570  -31.8920 O   0  0  0  0  0  0  0  0  0  0  0  0
   -6.3200   18.1810  -31.1430 O   0  0  0  0  0  0  0  0  0  0  0  0
   -6.8090   18.3910  -33.7550 N   0  0  0  0  0  0  0  0  0  0  0  0
   -6.1880   17.0680  -33.8960 C   0  0  0  0  0  0  0  0  0  0  0  0
   -4.6780   17.2240  -33.7760 C   0  0  0  0  0  0  0  0  0  0  0  0
   -4.4190   18.7200  -33.7680 C   0  0  0  0  0  0  0  0  0  0  0  0
   -5.7600   19.3580  -34.0960 C   0  0  0  0  0  0  0  0  0  0  0  0
   -6.6820   21.1490  -31.2670 C   0  0  0  0  0  0  0  0  0  0  0  0
   -4.1310   22.2940  -29.0560 H   0  0  0  0  0  0  0  0  0  0  0  0
   -4.5364   22.2542  -32.7657 H   0  0  0  0  0  0  0  0  0  0  0  0
   -2.8266   21.3912  -34.3585 H   0  0  0  0  0  0  0  0  0  0  0  0
    2.7046   21.3741  -33.7224 H   0  0  0  0  0  0  0  0  0  0  0  0
    2.2443   20.6244  -35.3022 H   0  0  0  0  0  0  0  0  0  0  0  0
    3.9688   22.7890  -34.9868 H   0  0  0  0  0  0  0  0  0  0  0  0
    3.0933   22.3432  -36.5031 H   0  0  0  0  0  0  0  0  0  0  0  0
    0.4493   24.6445  -35.9665 H   0  0  0  0  0  0  0  0  0  0  0  0
    1.3112   23.6168  -37.1946 H   0  0  0  0  0  0  0  0  0  0  0  0
   -0.8013   22.8107  -35.4966 H   0  0  0  0  0  0  0  0  0  0  0  0
    0.2594   21.7574  -36.5007 H   0  0  0  0  0  0  0  0  0  0  0  0
   -0.0640   20.7809  -31.0775 H   0  0  0  0  0  0  0  0  0  0  0  0
   -1.7747   21.6358  -29.4775 H   0  0  0  0  0  0  0  0  0  0  0  0
   -8.2959   24.1645  -31.2833 H   0  0  0  0  0  0  0  0  0  0  0  0
  -10.1013   22.7346  -32.2434 H   0  0  0  0  0  0  0  0  0  0  0  0
   -9.7043   20.3005  -32.6245 H   0  0  0  0  0  0  0  0  0  0  0  0
   -6.5556   16.3999  -33.1032 H   0  0  0  0  0  0  0  0  0  0  0  0
   -6.4442   16.6353  -34.8743 H   0  0  0  0  0  0  0  0  0  0  0  0
   -4.3183   16.7675  -32.8421 H   0  0  0  0  0  0  0  0  0  0  0  0
   -4.1513   16.7251  -34.6029 H   0  0  0  0  0  0  0  0  0  0  0  0
   -4.0688   19.0457  -32.7774 H   0  0  0  0  0  0  0  0  0  0  0  0
   -3.6397   19.0064  -34.4896 H   0  0  0  0  0  0  0  0  0  0  0  0
   -5.8918   20.2772  -33.5064 H   0  0  0  0  0  0  0  0  0  0  0  0
   -5.8108   19.6215  -35.1628 H   0  0  0  0  0  0  0  0  0  0  0  0
   -5.7290   20.6948  -30.9580 H   0  0  0  0  0  0  0  0  0  0  0  0
  1  2  2  0
  2  3  2  0
  2  4  1  0
  4  5  1  0
  5  6  2  0
  6  7  1  0
  7  8  2  0
  8  9  1  0
  9 10  2  0
  9 11  2  0
  9 12  1  0
 12 13  1  0
 13 14  1  0
 14 15  1  0
 15 16  1  0
 16 17  1  0
  8 18  1  0
 18 19  2  0
  2 20  1  0
 20 21  2  0
 21 22  1  0
 22 23  2  0
 23 24  1  0
 24 25  1  0
 25 26  2  0
 25 27  2  0
 25 28  1  0
 28 29  1  0
 29 30  1  0
 30 31  1  0
 31 32  1  0
 24 33  2  0
 19  5  1  0
 33 20  1  0
 17 12  1  0
 32 28  1  0
  4 34  1  0
  6 35  1  0
  7 36  1  0
 13 37  1  0
 13 38  1  0
 14 39  1  0
 14 40  1  0
 16 41  1  0
 16 42  1  0
 17 43  1  0
 17 44  1  0
 18 45  1  0
 19 46  1  0
 21 47  1  0
 22 48  1  0
 23 49  1  0
 29 50  1  0
 29 51  1  0
 30 52  1  0
 30 53  1  0
 31 54  1  0
 31 55  1  0
 32 56  1  0
 32 57  1  0
 33 58  1  0
M  END
>  <UniqueID>  (13) 
13

>  <SMILES>  (13) 
O=S(=O)(Nc1ccc(S(=O)(=O)N2CCOCC2)cc1)c1cccc(S(=O)(=O)N2CCCC2)c1

>  <Energy>  (13) 
68.09176196968676

>  <Genealogy>  (13) 
O=S(=O)(Nc1ccc(S(=O)(=O)N2CCOCC2)cc1)c1cccc(S(=O)(=O)N2CCCC2)c1 (3D coordinates assigned)
O=S(=O)(Nc1ccc(S(=O)(=O)N2CCOCC2)cc1)c1cccc(S(=O)(=O)N2CCCC2)c1 (nonaromatic ring conformer: 68.09176196968676 kcal/mol)

>  <smiles>  (13) 
O=S(=O)(Nc1ccc(S(=O)(=O)N2CCOCC2)cc1)c1cccc(S(=O)(=O)N2CCCC2)c1

>  <score_type>  (13) 
oracle

>  <origin>  (13) 
adgpu

>  <m_score__min__energy>  (13) 
-11.33

>  <m_primary>  (13) 
energy

$$$$
13:0
     RDKit          3D

 52 54  0  0  0  0  0  0  0  0999 V2000
   -5.0850   15.8160  -32.0700 C   0  0  0  0  0  0  0  0  0  0  0  0
   -4.4800   16.2480  -33.4010 C   0  0  0  0  0  0  0  0  0  0  0  0
   -5.6760   17.1220  -34.3980 S   0  0  0  0  0  0  0  0  0  0  0  0
   -5.0850   17.4240  -35.7480 O   0  0  0  0  0  0  0  0  0  0  0  0
   -6.8890   16.2560  -34.5920 O   0  0  0  0  0  0  0  0  0  0  0  0
   -6.1500   18.6170  -33.5990 C   0  0  0  0  0  0  0  0  0  0  0  0
   -5.3420   19.7600  -33.6890 C   0  0  0  0  0  0  0  0  0  0  0  0
   -5.7140   20.9360  -33.0310 C   0  0  0  0  0  0  0  0  0  0  0  0
   -6.8950   20.9810  -32.2790 C   0  0  0  0  0  0  0  0  0  0  0  0
   -7.3360   22.4550  -31.4250 S   0  0  0  0  0  0  0  0  0  0  0  0
   -8.2740   22.1420  -30.2930 O   0  0  0  0  0  0  0  0  0  0  0  0
   -8.0370   23.3910  -32.3700 O   0  0  0  0  0  0  0  0  0  0  0  0
   -5.8760   23.2030  -30.7890 C   0  0  0  0  0  0  0  0  0  0  0  0
   -5.7280   24.5960  -30.7930 C   0  0  0  0  0  0  0  0  0  0  0  0
   -4.5550   25.1810  -30.3070 C   0  0  0  0  0  0  0  0  0  0  0  0
   -3.5150   24.3760  -29.8060 C   0  0  0  0  0  0  0  0  0  0  0  0
   -2.2860   24.9500  -29.3290 N   0  0  0  0  0  0  0  0  0  0  0  0
   -2.0540   25.3320  -27.9640 C   0  0  0  0  0  0  0  0  0  0  0  0
   -2.7460   24.8300  -27.0390 O   0  0  0  0  0  0  0  0  0  0  0  0
   -0.9710   26.2030  -27.6210 N   0  0  0  0  0  0  0  0  0  0  0  0
   -0.1220   26.0720  -26.4710 C   0  0  0  0  0  0  0  0  0  0  0  0
   -0.0790   27.0670  -25.4810 C   0  0  0  0  0  0  0  0  0  0  0  0
    0.7310   26.9020  -24.3570 C   0  0  0  0  0  0  0  0  0  0  0  0
    1.4820   25.7350  -24.2220 C   0  0  0  0  0  0  0  0  0  0  0  0
    1.4150   24.7700  -25.1760 N   0  0  0  0  0  0  0  0  0  0  0  0
    0.6340   24.9000  -26.2830 C   0  0  0  0  0  0  0  0  0  0  0  0
    0.6220   23.6010  -27.4710 S   0  0  0  0  0  0  0  0  0  0  0  0
   -0.6410   22.4800  -27.1020 N   0  0  0  0  0  0  0  0  0  0  0  0
    0.3800   24.1760  -28.8380 O   0  0  0  0  0  0  0  0  0  0  0  0
    1.9500   22.8950  -27.4690 O   0  0  0  0  0  0  0  0  0  0  0  0
   -3.6580   22.9810  -29.8330 C   0  0  0  0  0  0  0  0  0  0  0  0
   -4.8330   22.3980  -30.3160 C   0  0  0  0  0  0  0  0  0  0  0  0
   -7.6960   19.8350  -32.1770 C   0  0  0  0  0  0  0  0  0  0  0  0
   -7.3240   18.6590  -32.8350 C   0  0  0  0  0  0  0  0  0  0  0  0
   -4.4936   16.2383  -31.2442 H   0  0  0  0  0  0  0  0  0  0  0  0
   -6.1209   16.1800  -32.0027 H   0  0  0  0  0  0  0  0  0  0  0  0
   -5.0770   14.7181  -32.0027 H   0  0  0  0  0  0  0  0  0  0  0  0
   -3.6220   16.9087  -33.2079 H   0  0  0  0  0  0  0  0  0  0  0  0
   -4.1604   15.3485  -33.9476 H   0  0  0  0  0  0  0  0  0  0  0  0
   -4.4138   19.7310  -34.2785 H   0  0  0  0  0  0  0  0  0  0  0  0
   -5.0767   21.8296  -33.1041 H   0  0  0  0  0  0  0  0  0  0  0  0
   -6.5378   25.2319  -31.1800 H   0  0  0  0  0  0  0  0  0  0  0  0
   -4.4444   26.2754  -30.3162 H   0  0  0  0  0  0  0  0  0  0  0  0
   -1.4810   25.0140  -29.9940 H   0  0  0  0  0  0  0  0  0  0  0  0
   -0.6851   27.9782  -25.5919 H   0  0  0  0  0  0  0  0  0  0  0  0
    0.7767   27.6845  -23.5853 H   0  0  0  0  0  0  0  0  0  0  0  0
    2.1287   25.5957  -23.3431 H   0  0  0  0  0  0  0  0  0  0  0  0
   -1.5300   23.0240  -27.0380 H   0  0  0  0  0  0  0  0  0  0  0  0
   -2.8396   22.3411  -29.4715 H   0  0  0  0  0  0  0  0  0  0  0  0
   -4.9384   21.3031  -30.3244 H   0  0  0  0  0  0  0  0  0  0  0  0
   -8.6185   19.8612  -31.5784 H   0  0  0  0  0  0  0  0  0  0  0  0
   -7.9559   17.7624  -32.7526 H   0  0  0  0  0  0  0  0  0  0  0  0
  1  2  1  0
  2  3  1  0
  3  4  2  0
  3  5  2  0
  3  6  1  0
  6  7  2  0
  7  8  1  0
  8  9  2  0
  9 10  1  0
 10 11  2  0
 10 12  2  0
 10 13  1  0
 13 14  2  0
 14 15  1  0
 15 16  2  0
 16 17  1  0
 17 18  1  0
 18 19  2  0
 18 20  1  0
 20 21  1  0
 21 22  2  0
 22 23  1  0
 23 24  2  0
 24 25  1  0
 25 26  2  0
 26 27  1  0
 27 28  1  0
 27 29  2  0
 27 30  2  0
 16 31  1  0
 31 32  2  0
  9 33  1  0
 33 34  2  0
 34  6  1  0
 32 13  1  0
 26 21  1  0
  1 35  1  0
  1 36  1  0
  1 37  1  0
  2 38  1  0
  2 39  1  0
  7 40  1  0
  8 41  1  0
 14 42  1  0
 15 43  1  0
 17 44  1  0
 22 45  1  0
 23 46  1  0
 24 47  1  0
 28 48  1  0
 31 49  1  0
 32 50  1  0
 33 51  1  0
 34 52  1  0
M  CHG  2  20  -1  28  -1
M  END
>  <UniqueID>  (14) 
14

>  <SMILES>  (14) 
CCS(=O)(=O)c1ccc(S(=O)(=O)c2ccc(NC(=O)[N-]c3cccnc3S([NH-])(=O)=O)cc2)cc1

>  <Energy>  (14) 
58.29353886688317

>  <Genealogy>  (14) 
CCS(=O)(=O)c1ccc(S(=O)(=O)c2ccc(NC(=O)[N-]c3cccnc3S([NH-])(=O)=O)cc2)cc1 (protonated)
CCS(=O)(=O)c1ccc(S(=O)(=O)c2ccc(NC(=O)[N-]c3cccnc3S([NH-])(=O)=O)cc2)cc1 (3D coordinates assigned)
CCS(=O)(=O)c1ccc(S(=O)(=O)c2ccc(NC(=O)[N-]c3cccnc3S([NH-])(=O)=O)cc2)cc1 (optimized conformer: 58.29353886688317 kcal/mol)

>  <smiles>  (14) 
CCS(=O)(=O)c1ccc(S(=O)(=O)c2ccc(NC(=O)Nc3cccnc3S(N)(=O)=O)cc2)cc1

>  <score_type>  (14) 
oracle

>  <origin>  (14) 
adgpu

>  <m_score__min__energy>  (14) 
-12.359999999999999

>  <m_primary>  (14) 
energy

$$$$
14:0
     RDKit          3D

 44 46  0  0  0  0  0  0  0  0999 V2000
   -4.9220   24.9190  -28.5980 O   0  0  0  0  0  0  0  0  0  0  0  0
   -4.6550   24.0700  -29.8090 S   0  0  0  0  0  0  0  0  0  0  0  0
   -3.9130   24.9010  -30.8190 O   0  0  0  0  0  0  0  0  0  0  0  0
   -6.1670   23.5240  -30.5280 C   0  0  0  0  0  0  0  0  0  0  0  0
   -7.0170   22.6520  -29.8320 C   0  0  0  0  0  0  0  0  0  0  0  0
   -8.2040   22.2080  -30.4250 C   0  0  0  0  0  0  0  0  0  0  0  0
   -8.5450   22.6310  -31.7130 C   0  0  0  0  0  0  0  0  0  0  0  0
   -7.6980   23.4980  -32.4110 C   0  0  0  0  0  0  0  0  0  0  0  0
   -6.5110   23.9430  -31.8210 C   0  0  0  0  0  0  0  0  0  0  0  0
   -3.6960   22.6690  -29.3300 C   0  0  0  0  0  0  0  0  0  0  0  0
   -3.8020   22.1530  -28.0320 C   0  0  0  0  0  0  0  0  0  0  0  0
   -3.0720   21.0680  -27.6640 N   0  0  0  0  0  0  0  0  0  0  0  0
   -2.2230   20.4550  -28.5280 C   0  0  0  0  0  0  0  0  0  0  0  0
   -2.0810   20.9320  -29.8310 C   0  0  0  0  0  0  0  0  0  0  0  0
   -2.8250   22.0520  -30.2480 C   0  0  0  0  0  0  0  0  0  0  0  0
   -2.7280   22.5910  -31.5430 O   0  0  0  0  0  0  0  0  0  0  0  0
   -2.9270   21.8990  -32.7770 C   0  0  0  0  0  0  0  0  0  0  0  0
   -3.8960   20.7240  -32.6030 C   0  0  0  0  0  0  0  0  0  0  0  0
   -5.3660   21.1500  -32.6820 C   0  0  0  0  0  0  0  0  0  0  0  0
   -6.2690   19.9710  -32.4300 C   0  0  0  0  0  0  0  0  0  0  0  0
   -7.5810   19.9630  -32.9310 C   0  0  0  0  0  0  0  0  0  0  0  0
   -8.4270   18.8810  -32.6690 C   0  0  0  0  0  0  0  0  0  0  0  0
   -7.9740   17.8060  -31.8990 C   0  0  0  0  0  0  0  0  0  0  0  0
   -6.6740   17.8150  -31.3850 C   0  0  0  0  0  0  0  0  0  0  0  0
   -5.8240   18.8950  -31.6450 C   0  0  0  0  0  0  0  0  0  0  0  0
   -6.7501   22.3168  -28.8189 H   0  0  0  0  0  0  0  0  0  0  0  0
   -8.8698   21.5251  -29.8769 H   0  0  0  0  0  0  0  0  0  0  0  0
   -9.4791   22.2821  -32.1774 H   0  0  0  0  0  0  0  0  0  0  0  0
   -7.9659   23.8300  -33.4249 H   0  0  0  0  0  0  0  0  0  0  0  0
   -5.8455   24.6234  -32.3726 H   0  0  0  0  0  0  0  0  0  0  0  0
   -4.4794   22.6285  -27.3074 H   0  0  0  0  0  0  0  0  0  0  0  0
   -1.6449   19.5788  -28.1992 H   0  0  0  0  0  0  0  0  0  0  0  0
   -1.3911   20.4355  -30.5293 H   0  0  0  0  0  0  0  0  0  0  0  0
   -3.3407   22.5987  -33.5182 H   0  0  0  0  0  0  0  0  0  0  0  0
   -1.9577   21.5042  -33.1155 H   0  0  0  0  0  0  0  0  0  0  0  0
   -3.7006   19.9869  -33.3958 H   0  0  0  0  0  0  0  0  0  0  0  0
   -3.7271   20.3008  -31.6018 H   0  0  0  0  0  0  0  0  0  0  0  0
   -5.5603   21.9237  -31.9246 H   0  0  0  0  0  0  0  0  0  0  0  0
   -5.5690   21.5461  -33.6879 H   0  0  0  0  0  0  0  0  0  0  0  0
   -7.9441   20.8103  -33.5312 H   0  0  0  0  0  0  0  0  0  0  0  0
   -9.4514   18.8758  -33.0698 H   0  0  0  0  0  0  0  0  0  0  0  0
   -8.6397   16.9538  -31.6977 H   0  0  0  0  0  0  0  0  0  0  0  0
   -6.3189   16.9713  -30.7750 H   0  0  0  0  0  0  0  0  0  0  0  0
   -4.8040   18.9015  -31.2333 H   0  0  0  0  0  0  0  0  0  0  0  0
  1  2  2  0
  2  3  2  0
  2  4  1  0
  4  5  2  0
  5  6  1  0
  6  7  2  0
  7  8  1  0
  8  9  2  0
  2 10  1  0
 10 11  2  0
 11 12  1  0
 12 13  2  0
 13 14  1  0
 14 15  2  0
 15 16  1  0
 16 17  1  0
 17 18  1  0
 18 19  1  0
 19 20  1  0
 20 21  2  0
 21 22  1  0
 22 23  2  0
 23 24  1  0
 24 25  2  0
  9  4  1  0
 15 10  1  0
 25 20  1  0
  5 26  1  0
  6 27  1  0
  7 28  1  0
  8 29  1  0
  9 30  1  0
 11 31  1  0
 13 32  1  0
 14 33  1  0
 17 34  1  0
 17 35  1  0
 18 36  1  0
 18 37  1  0
 19 38  1  0
 19 39  1  0
 21 40  1  0
 22 41  1  0
 23 42  1  0
 24 43  1  0
 25 44  1  0
M  END
>  <UniqueID>  (15) 
15

>  <SMILES>  (15) 
O=S(=O)(c1ccccc1)c1cnccc1OCCCc1ccccc1

>  <Energy>  (15) 
46.75465668370719

>  <Genealogy>  (15) 
O=S(=O)(c1ccccc1)c1cnccc1OCCCc1ccccc1 (3D coordinates assigned)
O=S(=O)(c1ccccc1)c1cnccc1OCCCc1ccccc1 (optimized conformer: 46.75465668370719 kcal/mol)

>  <smiles>  (15) 
O=S(=O)(c1ccccc1)c1cnccc1OCCCc1ccccc1

>  <score_type>  (15) 
oracle

>  <origin>  (15) 
adgpu

>  <m_score__min__energy>  (15) 
-8.5899999999999999

>  <m_primary>  (15) 
energy

$$$$
15:0
     RDKit          3D

 58 61  0  0  0  0  0  0  0  0999 V2000
   -6.0180   25.9440  -30.0920 O   0  0  0  0  0  0  0  0  0  0  0  0
   -5.2040   25.2880  -30.7960 C   0  0  0  0  0  0  0  0  0  0  0  0
   -5.7040   24.5300  -31.9030 N   0  0  0  0  0  0  0  0  0  0  0  0
   -6.2090   23.1850  -31.8760 C   0  0  0  0  0  0  0  0  0  0  0  0
   -7.4930   22.8810  -31.3870 C   0  0  0  0  0  0  0  0  0  0  0  0
   -7.9410   21.5590  -31.3610 C   0  0  0  0  0  0  0  0  0  0  0  0
   -7.1110   20.5270  -31.8000 C   0  0  0  0  0  0  0  0  0  0  0  0
   -5.8140   20.8040  -32.2510 C   0  0  0  0  0  0  0  0  0  0  0  0
   -4.7570   19.4670  -32.7320 S   0  0  0  0  0  0  0  0  0  0  0  0
   -4.7850   19.3090  -34.2260 O   0  0  0  0  0  0  0  0  0  0  0  0
   -5.2760   18.1920  -32.1270 O   0  0  0  0  0  0  0  0  0  0  0  0
   -3.1080   19.7260  -32.2140 N   0  0  0  0  0  0  0  0  0  0  0  0
   -3.0760   20.5230  -30.9760 C   0  0  0  0  0  0  0  0  0  0  0  0
   -1.6220   20.8790  -30.6000 C   0  0  0  0  0  0  0  0  0  0  0  0
   -0.6940   20.2340  -31.4520 O   0  0  0  0  0  0  0  0  0  0  0  0
   -0.8920   20.6640  -32.7850 C   0  0  0  0  0  0  0  0  0  0  0  0
   -2.3310   20.3950  -33.2700 C   0  0  0  0  0  0  0  0  0  0  0  0
   -5.3640   22.1400  -32.2840 C   0  0  0  0  0  0  0  0  0  0  0  0
   -4.0740   22.4380  -32.7150 O   0  0  0  0  0  0  0  0  0  0  0  0
   -3.8060   25.2980  -30.4810 N   0  0  0  0  0  0  0  0  0  0  0  0
   -3.1950   24.5300  -29.4370 C   0  0  0  0  0  0  0  0  0  0  0  0
   -3.8890   23.4300  -28.9180 C   0  0  0  0  0  0  0  0  0  0  0  0
   -3.3260   22.6530  -27.9050 C   0  0  0  0  0  0  0  0  0  0  0  0
   -2.0670   22.9760  -27.3910 C   0  0  0  0  0  0  0  0  0  0  0  0
   -1.3660   24.0880  -27.8830 C   0  0  0  0  0  0  0  0  0  0  0  0
    0.2180   24.4880  -27.2080 S   0  0  0  0  0  0  0  0  0  0  0  0
    1.2520   24.3260  -28.2860 O   0  0  0  0  0  0  0  0  0  0  0  0
    0.5290   23.5470  -26.0750 O   0  0  0  0  0  0  0  0  0  0  0  0
    0.1990   26.1400  -26.6220 N   0  0  0  0  0  0  0  0  0  0  0  0
   -1.1790   26.6280  -26.4000 C   0  0  0  0  0  0  0  0  0  0  0  0
   -1.6200   26.5150  -24.9280 C   0  0  0  0  0  0  0  0  0  0  0  0
   -0.9770   25.4260  -24.3020 O   0  0  0  0  0  0  0  0  0  0  0  0
    0.4090   25.6920  -24.1640 C   0  0  0  0  0  0  0  0  0  0  0  0
    1.0470   26.3120  -25.4290 C   0  0  0  0  0  0  0  0  0  0  0  0
   -1.9420   24.8840  -28.8920 C   0  0  0  0  0  0  0  0  0  0  0  0
   -1.2930   26.0350  -29.3290 O   0  0  0  0  0  0  0  0  0  0  0  0
   -8.1462   23.6881  -31.0238 H   0  0  0  0  0  0  0  0  0  0  0  0
   -8.9521   21.3302  -30.9931 H   0  0  0  0  0  0  0  0  0  0  0  0
   -7.4772   19.4898  -31.7919 H   0  0  0  0  0  0  0  0  0  0  0  0
   -3.6482   21.4502  -31.1275 H   0  0  0  0  0  0  0  0  0  0  0  0
   -3.5199   19.9324  -30.1610 H   0  0  0  0  0  0  0  0  0  0  0  0
   -1.4874   21.9675  -30.6834 H   0  0  0  0  0  0  0  0  0  0  0  0
   -1.4387   20.5400  -29.5697 H   0  0  0  0  0  0  0  0  0  0  0  0
   -0.6936   21.7444  -32.8430 H   0  0  0  0  0  0  0  0  0  0  0  0
   -0.2041   20.0984  -33.4307 H   0  0  0  0  0  0  0  0  0  0  0  0
   -2.8127   21.3504  -33.5253 H   0  0  0  0  0  0  0  0  0  0  0  0
   -2.2948   19.7435  -34.1556 H   0  0  0  0  0  0  0  0  0  0  0  0
   -4.8845   23.1768  -29.3115 H   0  0  0  0  0  0  0  0  0  0  0  0
   -3.8739   21.7847  -27.5102 H   0  0  0  0  0  0  0  0  0  0  0  0
   -1.6238   22.3562  -26.5977 H   0  0  0  0  0  0  0  0  0  0  0  0
   -1.2314   27.6842  -26.7029 H   0  0  0  0  0  0  0  0  0  0  0  0
   -1.8546   25.9991  -26.9984 H   0  0  0  0  0  0  0  0  0  0  0  0
   -1.3575   27.4431  -24.3991 H   0  0  0  0  0  0  0  0  0  0  0  0
   -2.7076   26.3538  -24.8937 H   0  0  0  0  0  0  0  0  0  0  0  0
    0.5477   26.3908  -23.3259 H   0  0  0  0  0  0  0  0  0  0  0  0
    0.9079   24.7273  -23.9896 H   0  0  0  0  0  0  0  0  0  0  0  0
    1.2021   27.3873  -25.2567 H   0  0  0  0  0  0  0  0  0  0  0  0
    1.9998   25.7946  -25.6147 H   0  0  0  0  0  0  0  0  0  0  0  0
  1  2  2  0
  2  3  1  0
  3  4  1  0
  4  5  2  0
  5  6  1  0
  6  7  2  0
  7  8  1  0
  8  9  1  0
  9 10  2  0
  9 11  2  0
  9 12  1  0
 12 13  1  0
 13 14  1  0
 14 15  1  0
 15 16  1  0
 16 17  1  0
  8 18  2  0
 18 19  1  0
  2 20  1  0
 20 21  1  0
 21 22  2  0
 22 23  1  0
 23 24  2  0
 24 25  1  0
 25 26  1  0
 26 27  2  0
 26 28  2  0
 26 29  1  0
 29 30  1  0
 30 31  1  0
 31 32  1  0
 32 33  1  0
 33 34  1  0
 25 35  2  0
 35 36  1  0
 18  4  1  0
 35 21  1  0
 17 12  1  0
 34 29  1  0
  5 37  1  0
  6 38  1  0
  7 39  1  0
 13 40  1  0
 13 41  1  0
 14 42  1  0
 14 43  1  0
 16 44  1  0
 16 45  1  0
 17 46  1  0
 17 47  1  0
 22 48  1  0
 23 49  1  0
 24 50  1  0
 30 51  1  0
 30 52  1  0
 31 53  1  0
 31 54  1  0
 33 55  1  0
 33 56  1  0
 34 57  1  0
 34 58  1  0
M  CHG  4   3  -1  19  -1  20  -1  36  -1
M  END
>  <UniqueID>  (16) 
16

>  <SMILES>  (16) 
O=C([N-]c1cccc(S(=O)(=O)N2CCOCC2)c1[O-])[N-]c1cccc(S(=O)(=O)N2CCOCC2)c1[O-]

>  <Energy>  (16) 
90.54303927782057

>  <Genealogy>  (16) 
O=C([N-]c1cccc(S(=O)(=O)N2CCOCC2)c1[O-])[N-]c1cccc(S(=O)(=O)N2CCOCC2)c1[O-] (protonated)
O=C([N-]c1cccc(S(=O)(=O)N2CCOCC2)c1[O-])[N-]c1cccc(S(=O)(=O)N2CCOCC2)c1[O-] (3D coordinates assigned)
O=C([N-]c1cccc(S(=O)(=O)N2CCOCC2)c1[O-])[N-]c1cccc(S(=O)(=O)N2CCOCC2)c1[O-] (nonaromatic ring conformer: 90.54303927782057 kcal/mol)

>  <smiles>  (16) 
O=C(Nc1cccc(S(=O)(=O)N2CCOCC2)c1O)Nc1cccc(S(=O)(=O)N2CCOCC2)c1O

>  <score_type>  (16) 
oracle

>  <origin>  (16) 
adgpu

>  <m_score__min__energy>  (16) 
-16.329999999999998

>  <m_primary>  (16) 
energy

$$$$
16:0
     RDKit          3D

 56 60  0  0  0  0  0  0  0  0999 V2000
   -5.0510   24.4070  -31.2250 O   0  0  0  0  0  0  0  0  0  0  0  0
   -5.2660   23.2300  -30.8210 C   0  0  0  0  0  0  0  0  0  0  0  0
   -4.2910   22.5750  -29.9920 N   0  0  0  0  0  0  0  0  0  0  0  0
   -3.2240   23.2820  -29.3390 C   0  0  0  0  0  0  0  0  0  0  0  0
   -3.5230   24.1520  -28.2750 C   0  0  0  0  0  0  0  0  0  0  0  0
   -2.5020   24.7750  -27.5580 C   0  0  0  0  0  0  0  0  0  0  0  0
   -1.1700   24.5310  -27.8840 C   0  0  0  0  0  0  0  0  0  0  0  0
   -0.8530   23.6700  -28.9370 C   0  0  0  0  0  0  0  0  0  0  0  0
   -1.8690   23.0450  -29.6830 C   0  0  0  0  0  0  0  0  0  0  0  0
   -1.4850   22.1940  -30.8370 C   0  0  0  0  0  0  0  0  0  0  0  0
   -2.3360   21.9250  -31.8640 N   0  0  0  0  0  0  0  0  0  0  0  0
   -1.6090   21.1100  -32.6430 C   0  0  0  0  0  0  0  0  0  0  0  0
   -1.9870   20.5180  -33.8460 C   0  0  0  0  0  0  0  0  0  0  0  0
   -1.0520   19.6810  -34.4840 C   0  0  0  0  0  0  0  0  0  0  0  0
    0.2210   19.4630  -33.9080 C   0  0  0  0  0  0  0  0  0  0  0  0
    0.5670   20.0790  -32.6900 C   0  0  0  0  0  0  0  0  0  0  0  0
   -0.3850   20.9000  -32.0890 C   0  0  0  0  0  0  0  0  0  0  0  0
   -0.2780   21.5720  -30.9350 N   0  0  0  0  0  0  0  0  0  0  0  0
   -6.5000   22.5290  -31.2450 C   0  0  0  0  0  0  0  0  0  0  0  0
   -7.6770   23.2570  -31.4910 C   0  0  0  0  0  0  0  0  0  0  0  0
   -8.8450   22.6030  -31.8880 C   0  0  0  0  0  0  0  0  0  0  0  0
   -8.8560   21.2140  -32.0390 C   0  0  0  0  0  0  0  0  0  0  0  0
   -7.6940   20.4730  -31.7900 C   0  0  0  0  0  0  0  0  0  0  0  0
   -7.6990   18.7170  -31.9390 S   0  0  0  0  0  0  0  0  0  0  0  0
   -6.8420   18.1090  -30.8630 O   0  0  0  0  0  0  0  0  0  0  0  0
   -9.1110   18.2280  -31.7640 O   0  0  0  0  0  0  0  0  0  0  0  0
   -7.0960   18.2770  -33.5210 N   0  0  0  0  0  0  0  0  0  0  0  0
   -6.0820   19.2420  -34.0190 C   0  0  0  0  0  0  0  0  0  0  0  0
   -4.6910   18.6280  -34.2470 C   0  0  0  0  0  0  0  0  0  0  0  0
   -4.3080   17.7210  -33.0800 C   0  0  0  0  0  0  0  0  0  0  0  0
   -5.3430   16.6040  -32.8570 C   0  0  0  0  0  0  0  0  0  0  0  0
   -6.6790   16.8620  -33.5770 C   0  0  0  0  0  0  0  0  0  0  0  0
   -6.5240   21.1290  -31.3880 C   0  0  0  0  0  0  0  0  0  0  0  0
   -4.3150   21.5340  -29.9100 H   0  0  0  0  0  0  0  0  0  0  0  0
   -4.5724   24.3428  -28.0059 H   0  0  0  0  0  0  0  0  0  0  0  0
   -2.7490   25.4602  -26.7337 H   0  0  0  0  0  0  0  0  0  0  0  0
   -0.3665   25.0172  -27.3112 H   0  0  0  0  0  0  0  0  0  0  0  0
    0.2013   23.4787  -29.1855 H   0  0  0  0  0  0  0  0  0  0  0  0
   -2.9807   20.6981  -34.2819 H   0  0  0  0  0  0  0  0  0  0  0  0
   -1.3129   19.1942  -35.4353 H   0  0  0  0  0  0  0  0  0  0  0  0
    0.9453   18.8082  -34.4146 H   0  0  0  0  0  0  0  0  0  0  0  0
    1.5530   19.9179  -32.2297 H   0  0  0  0  0  0  0  0  0  0  0  0
   -7.6779   24.3503  -31.3698 H   0  0  0  0  0  0  0  0  0  0  0  0
   -9.7592   23.1830  -32.0825 H   0  0  0  0  0  0  0  0  0  0  0  0
   -9.7776   20.7024  -32.3535 H   0  0  0  0  0  0  0  0  0  0  0  0
   -6.4381   19.6553  -34.9742 H   0  0  0  0  0  0  0  0  0  0  0  0
   -5.9661   20.0107  -33.2408 H   0  0  0  0  0  0  0  0  0  0  0  0
   -4.7038   18.0376  -35.1750 H   0  0  0  0  0  0  0  0  0  0  0  0
   -3.9525   19.4396  -34.3235 H   0  0  0  0  0  0  0  0  0  0  0  0
   -3.3306   17.2629  -33.2916 H   0  0  0  0  0  0  0  0  0  0  0  0
   -4.2690   18.3362  -32.1689 H   0  0  0  0  0  0  0  0  0  0  0  0
   -4.9223   15.6583  -33.2292 H   0  0  0  0  0  0  0  0  0  0  0  0
   -5.5552   16.5659  -31.7783 H   0  0  0  0  0  0  0  0  0  0  0  0
   -6.5720   16.5688  -34.6318 H   0  0  0  0  0  0  0  0  0  0  0  0
   -7.4509   16.2691  -33.0645 H   0  0  0  0  0  0  0  0  0  0  0  0
   -5.6151   20.5447  -31.1820 H   0  0  0  0  0  0  0  0  0  0  0  0
  1  2  2  0
  2  3  1  0
  3  4  1  0
  4  5  2  0
  5  6  1  0
  6  7  2  0
  7  8  1  0
  8  9  2  0
  9 10  1  0
 10 11  2  0
 11 12  1  0
 12 13  2  0
 13 14  1  0
 14 15  2  0
 15 16  1  0
 16 17  2  0
 17 18  1  0
  2 19  1  0
 19 20  2  0
 20 21  1  0
 21 22  2  0
 22 23  1  0
 23 24  1  0
 24 25  2  0
 24 26  2  0
 24 27  1  0
 27 28  1  0
 28 29  1  0
 29 30  1  0
 30 31  1  0
 31 32  1  0
 23 33  2  0
  9  4  1  0
 18 10  1  0
 33 19  1  0
 17 12  1  0
 32 27  1  0
  3 34  1  0
  5 35  1  0
  6 36  1  0
  7 37  1  0
  8 38  1  0
 13 39  1  0
 14 40  1  0
 15 41  1  0
 16 42  1  0
 20 43  1  0
 21 44  1  0
 22 45  1  0
 28 46  1  0
 28 47  1  0
 29 48  1  0
 29 49  1  0
 30 50  1  0
 30 51  1  0
 31 52  1  0
 31 53  1  0
 32 54  1  0
 32 55  1  0
 33 56  1  0
M  CHG  1  18  -1
M  END
>  <UniqueID>  (17) 
17

>  <SMILES>  (17) 
O=C(Nc1ccccc1-c1nc2ccccc2[n-]1)c1cccc(S(=O)(=O)N2CCCCC2)c1

>  <Energy>  (17) 
113.06728817121721

>  <Genealogy>  (17) 
O=C(Nc1ccccc1-c1nc2ccccc2[n-]1)c1cccc(S(=O)(=O)N2CCCCC2)c1 (protonated)
O=C(Nc1ccccc1-c1nc2ccccc2[n-]1)c1cccc(S(=O)(=O)N2CCCCC2)c1 (3D coordinates assigned)
O=C(Nc1ccccc1-c1nc2ccccc2[n-]1)c1cccc(S(=O)(=O)N2CCCCC2)c1 (nonaromatic ring conformer: 113.06728817121721 kcal/mol)

>  <smiles>  (17) 
O=C(Nc1ccccc1-c1nc2ccccc2[nH]1)c1cccc(S(=O)(=O)N2CCCCC2)c1

>  <score_type>  (17) 
oracle

>  <origin>  (17) 
adgpu

>  <m_score__min__energy>  (17) 
-11.359999999999999

>  <m_primary>  (17) 
energy

$$$$
17:0
     RDKit          3D

 64 68  0  0  0  0  0  0  0  0999 V2000
   -6.7410   17.7760  -31.2980 C   0  0  0  0  0  0  0  0  0  0  0  0
   -7.6110   18.4320  -32.2930 N   0  0  0  0  0  0  0  0  0  0  0  0
   -6.8330   18.9290  -33.4500 C   0  0  0  0  0  0  0  0  0  0  0  0
   -5.8980   20.0810  -33.0530 C   0  0  0  0  0  0  0  0  0  0  0  0
   -6.5840   21.0370  -32.1740 N   0  0  0  0  0  0  0  0  0  0  0  0
   -5.8790   22.2080  -31.7180 C   0  0  0  0  0  0  0  0  0  0  0  0
   -6.5430   23.4380  -31.6100 C   0  0  0  0  0  0  0  0  0  0  0  0
   -5.8590   24.5730  -31.1780 C   0  0  0  0  0  0  0  0  0  0  0  0
   -4.5040   24.5020  -30.8440 C   0  0  0  0  0  0  0  0  0  0  0  0
   -3.8610   25.6690  -30.4480 O   0  0  0  0  0  0  0  0  0  0  0  0
   -3.8160   23.2690  -30.9320 C   0  0  0  0  0  0  0  0  0  0  0  0
   -2.4200   23.1220  -30.6000 N   0  0  0  0  0  0  0  0  0  0  0  0
   -1.9130   22.8540  -29.2520 C   0  0  0  0  0  0  0  0  0  0  0  0
   -1.1970   21.5190  -29.2020 C   0  0  0  0  0  0  0  0  0  0  0  0
   -0.1820   21.2730  -30.1400 C   0  0  0  0  0  0  0  0  0  0  0  0
    0.5150   20.0690  -30.1420 C   0  0  0  0  0  0  0  0  0  0  0  0
    0.2110   19.0690  -29.2150 C   0  0  0  0  0  0  0  0  0  0  0  0
    0.9430   17.8340  -29.2530 N   0  0  0  0  0  0  0  0  0  0  0  0
    0.8840   17.0090  -30.4600 C   0  0  0  0  0  0  0  0  0  0  0  0
    1.2240   15.5570  -30.1080 C   0  0  0  0  0  0  0  0  0  0  0  0
    2.4430   15.4840  -29.3920 O   0  0  0  0  0  0  0  0  0  0  0  0
    2.3050   16.1340  -28.1430 C   0  0  0  0  0  0  0  0  0  0  0  0
    2.0640   17.6330  -28.3340 C   0  0  0  0  0  0  0  0  0  0  0  0
   -0.8130   19.2790  -28.2650 C   0  0  0  0  0  0  0  0  0  0  0  0
   -1.1280   18.2880  -27.3130 C   0  0  0  0  0  0  0  0  0  0  0  0
   -2.1450   18.4970  -26.3830 C   0  0  0  0  0  0  0  0  0  0  0  0
   -2.8600   19.6910  -26.3830 C   0  0  0  0  0  0  0  0  0  0  0  0
   -2.5600   20.6920  -27.3090 C   0  0  0  0  0  0  0  0  0  0  0  0
   -1.5300   20.5110  -28.2590 C   0  0  0  0  0  0  0  0  0  0  0  0
   -4.5170   22.1350  -31.3780 C   0  0  0  0  0  0  0  0  0  0  0  0
   -8.0360   20.9310  -31.9950 C   0  0  0  0  0  0  0  0  0  0  0  0
   -8.4580   19.4850  -31.6630 C   0  0  0  0  0  0  0  0  0  0  0  0
   -7.0832   18.0340  -30.2849 H   0  0  0  0  0  0  0  0  0  0  0  0
   -6.7863   16.6853  -31.4337 H   0  0  0  0  0  0  0  0  0  0  0  0
   -5.7049   18.1196  -31.4337 H   0  0  0  0  0  0  0  0  0  0  0  0
   -8.2510   17.6860  -32.6590 H   0  0  0  0  0  0  0  0  0  0  0  0
   -6.2294   18.1033  -33.8549 H   0  0  0  0  0  0  0  0  0  0  0  0
   -7.5409   19.3058  -34.2029 H   0  0  0  0  0  0  0  0  0  0  0  0
   -5.0247   19.6699  -32.5253 H   0  0  0  0  0  0  0  0  0  0  0  0
   -5.5839   20.6078  -33.9661 H   0  0  0  0  0  0  0  0  0  0  0  0
   -7.6101   23.5078  -31.8677 H   0  0  0  0  0  0  0  0  0  0  0  0
   -6.3904   25.5329  -31.0993 H   0  0  0  0  0  0  0  0  0  0  0  0
   -1.7350   23.1140  -31.3920 H   0  0  0  0  0  0  0  0  0  0  0  0
   -1.2108   23.6508  -28.9657 H   0  0  0  0  0  0  0  0  0  0  0  0
   -2.7633   22.8245  -28.5548 H   0  0  0  0  0  0  0  0  0  0  0  0
    0.0660   22.0438  -30.8846 H   0  0  0  0  0  0  0  0  0  0  0  0
    1.3131   19.9028  -30.8805 H   0  0  0  0  0  0  0  0  0  0  0  0
   -0.1294   17.0548  -30.8854 H   0  0  0  0  0  0  0  0  0  0  0  0
    1.6098   17.3859  -31.1956 H   0  0  0  0  0  0  0  0  0  0  0  0
    0.4170   15.1378  -29.4892 H   0  0  0  0  0  0  0  0  0  0  0  0
    1.3291   14.9840  -31.0411 H   0  0  0  0  0  0  0  0  0  0  0  0
    1.4525   15.6978  -27.6017 H   0  0  0  0  0  0  0  0  0  0  0  0
    3.2336   15.9965  -27.5696 H   0  0  0  0  0  0  0  0  0  0  0  0
    1.8290   18.0932  -27.3629 H   0  0  0  0  0  0  0  0  0  0  0  0
    2.9685   18.0993  -28.7517 H   0  0  0  0  0  0  0  0  0  0  0  0
   -0.5666   17.3421  -27.3041 H   0  0  0  0  0  0  0  0  0  0  0  0
   -2.3833   17.7155  -25.6465 H   0  0  0  0  0  0  0  0  0  0  0  0
   -3.6653   19.8468  -25.6500 H   0  0  0  0  0  0  0  0  0  0  0  0
   -3.1317   21.6317  -27.2988 H   0  0  0  0  0  0  0  0  0  0  0  0
   -3.9901   21.1731  -31.4625 H   0  0  0  0  0  0  0  0  0  0  0  0
   -8.3443   21.5918  -31.1714 H   0  0  0  0  0  0  0  0  0  0  0  0
   -8.5233   21.2265  -32.9359 H   0  0  0  0  0  0  0  0  0  0  0  0
   -8.4112   19.3557  -30.5716 H   0  0  0  0  0  0  0  0  0  0  0  0
   -9.4718   19.3546  -32.0693 H   0  0  0  0  0  0  0  0  0  0  0  0
  1  2  1  0
  2  3  1  0
  3  4  1  0
  4  5  1  0
  5  6  1  0
  6  7  2  0
  7  8  1  0
  8  9  2  0
  9 10  1  0
  9 11  1  0
 11 12  1  0
 12 13  1  0
 13 14  1  0
 14 15  2  0
 15 16  1  0
 16 17  2  0
 17 18  1  0
 18 19  1  0
 19 20  1  0
 20 21  1  0
 21 22  1  0
 22 23  1  0
 17 24  1  0
 24 25  2  0
 25 26  1  0
 26 27  2  0
 27 28  1  0
 28 29  2  0
 11 30  2  0
  5 31  1  0
 31 32  1  0
 32  2  1  0
 30  6  1  0
 29 14  1  0
 23 18  1  0
 29 24  1  0
  1 33  1  0
  1 34  1  0
  1 35  1  0
  2 36  1  0
  3 37  1  0
  3 38  1  0
  4 39  1  0
  4 40  1  0
  7 41  1  0
  8 42  1  0
 12 43  1  0
 13 44  1  0
 13 45  1  0
 15 46  1  0
 16 47  1  0
 19 48  1  0
 19 49  1  0
 20 50  1  0
 20 51  1  0
 22 52  1  0
 22 53  1  0
 23 54  1  0
 23 55  1  0
 25 56  1  0
 26 57  1  0
 27 58  1  0
 28 59  1  0
 30 60  1  0
 31 61  1  0
 31 62  1  0
 32 63  1  0
 32 64  1  0
M  CHG  2   2   1  10  -1
M  END
>  <UniqueID>  (18) 
18

>  <SMILES>  (18) 
C[NH+]1CCN(c2ccc([O-])c(NCc3ccc(N4CCOCC4)c4ccccc34)c2)CC1

>  <Energy>  (18) 
94.5255661355681

>  <Genealogy>  (18) 
C[NH+]1CCN(c2ccc([O-])c(NCc3ccc(N4CCOCC4)c4ccccc34)c2)CC1 (protonated)
C[NH+]1CCN(c2ccc([O-])c(NCc3ccc(N4CCOCC4)c4ccccc34)c2)CC1 (3D coordinates assigned)
C[NH+]1CCN(c2ccc([O-])c(NCc3ccc(N4CCOCC4)c4ccccc34)c2)CC1 (nonaromatic ring conformer: 94.5255661355681 kcal/mol)

>  <smiles>  (18) 
CN1CCN(c2ccc(O)c(NCc3ccc(N4CCOCC4)c4ccccc34)c2)CC1

>  <score_type>  (18) 
oracle

>  <origin>  (18) 
adgpu

>  <m_score__min__energy>  (18) 
-12.23

>  <m_primary>  (18) 
energy

$$$$
18:0
     RDKit          3D

 60 64  0  0  0  0  0  0  0  0999 V2000
   -2.8630   21.4490  -33.8200 O   0  0  0  0  0  0  0  0  0  0  0  0
   -3.2320   21.2370  -32.6320 C   0  0  0  0  0  0  0  0  0  0  0  0
   -3.9570   20.0500  -32.2950 N   0  0  0  0  0  0  0  0  0  0  0  0
   -5.3840   19.8990  -32.3100 C   0  0  0  0  0  0  0  0  0  0  0  0
   -6.2210   20.9170  -31.8200 C   0  0  0  0  0  0  0  0  0  0  0  0
   -7.6130   20.7820  -31.8660 C   0  0  0  0  0  0  0  0  0  0  0  0
   -8.6310   22.0740  -31.2370 S   0  0  0  0  0  0  0  0  0  0  0  0
   -9.5260   22.5620  -32.3420 O   0  0  0  0  0  0  0  0  0  0  0  0
   -9.4790   21.5560  -30.1070 O   0  0  0  0  0  0  0  0  0  0  0  0
   -7.6200   23.3790  -30.6690 N   0  0  0  0  0  0  0  0  0  0  0  0
   -6.8580   23.9540  -31.7890 C   0  0  0  0  0  0  0  0  0  0  0  0
   -5.9310   25.0780  -31.2790 C   0  0  0  0  0  0  0  0  0  0  0  0
   -5.9850   25.2130  -29.8710 O   0  0  0  0  0  0  0  0  0  0  0  0
   -5.6710   23.9770  -29.2600 C   0  0  0  0  0  0  0  0  0  0  0  0
   -6.7000   22.8890  -29.6310 C   0  0  0  0  0  0  0  0  0  0  0  0
   -8.1810   19.6360  -32.4310 C   0  0  0  0  0  0  0  0  0  0  0  0
   -7.3600   18.6320  -32.9500 C   0  0  0  0  0  0  0  0  0  0  0  0
   -5.9610   18.7530  -32.9010 C   0  0  0  0  0  0  0  0  0  0  0  0
   -5.1460   17.7010  -33.4550 N   0  0  0  0  0  0  0  0  0  0  0  0
   -5.0650   16.4030  -32.7790 C   0  0  0  0  0  0  0  0  0  0  0  0
   -3.6600   15.8180  -32.9640 C   0  0  0  0  0  0  0  0  0  0  0  0
   -3.3050   15.7930  -34.3360 O   0  0  0  0  0  0  0  0  0  0  0  0
   -3.2040   17.1150  -34.8310 C   0  0  0  0  0  0  0  0  0  0  0  0
   -4.5690   17.8130  -34.7980 C   0  0  0  0  0  0  0  0  0  0  0  0
   -2.9720   22.2460  -31.5990 C   0  0  0  0  0  0  0  0  0  0  0  0
   -2.0940   22.1210  -30.5440 C   0  0  0  0  0  0  0  0  0  0  0  0
   -2.2200   23.3180  -29.8590 C   0  0  0  0  0  0  0  0  0  0  0  0
   -1.5280   23.7210  -28.6100 C   0  0  0  0  0  0  0  0  0  0  0  0
   -1.3450   22.7640  -27.5950 C   0  0  0  0  0  0  0  0  0  0  0  0
   -0.6950   23.0980  -26.4090 C   0  0  0  0  0  0  0  0  0  0  0  0
   -0.2130   24.3940  -26.2140 C   0  0  0  0  0  0  0  0  0  0  0  0
   -0.3940   25.3600  -27.2030 C   0  0  0  0  0  0  0  0  0  0  0  0
   -1.0560   25.0390  -28.3930 C   0  0  0  0  0  0  0  0  0  0  0  0
   -1.2550   26.0430  -29.3300 O   0  0  0  0  0  0  0  0  0  0  0  0
   -3.1320   24.0910  -30.4830 N   0  0  0  0  0  0  0  0  0  0  0  0
   -3.5870   23.4400  -31.5440 N   0  0  0  0  0  0  0  0  0  0  0  0
   -5.7767   21.8295  -31.3959 H   0  0  0  0  0  0  0  0  0  0  0  0
   -6.2503   23.1661  -32.2580 H   0  0  0  0  0  0  0  0  0  0  0  0
   -7.5604   24.3730  -32.5246 H   0  0  0  0  0  0  0  0  0  0  0  0
   -4.8969   24.8465  -31.5740 H   0  0  0  0  0  0  0  0  0  0  0  0
   -6.2696   26.0253  -31.7240 H   0  0  0  0  0  0  0  0  0  0  0  0
   -4.6736   23.6554  -29.5944 H   0  0  0  0  0  0  0  0  0  0  0  0
   -5.6907   24.1149  -28.1689 H   0  0  0  0  0  0  0  0  0  0  0  0
   -6.1689   22.0025  -30.0079 H   0  0  0  0  0  0  0  0  0  0  0  0
   -7.2823   22.6309  -28.7341 H   0  0  0  0  0  0  0  0  0  0  0  0
   -9.2748   19.5250  -32.4668 H   0  0  0  0  0  0  0  0  0  0  0  0
   -7.8135   17.7374  -33.4017 H   0  0  0  0  0  0  0  0  0  0  0  0
   -5.2691   16.5348  -31.7062 H   0  0  0  0  0  0  0  0  0  0  0  0
   -5.8080   15.7169  -33.2117 H   0  0  0  0  0  0  0  0  0  0  0  0
   -2.9357   16.4374  -32.4147 H   0  0  0  0  0  0  0  0  0  0  0  0
   -3.6517   14.7882  -32.5775 H   0  0  0  0  0  0  0  0  0  0  0  0
   -2.4945   17.6802  -34.2087 H   0  0  0  0  0  0  0  0  0  0  0  0
   -2.8522   17.0763  -35.8725 H   0  0  0  0  0  0  0  0  0  0  0  0
   -4.4434   18.8751  -35.0551 H   0  0  0  0  0  0  0  0  0  0  0  0
   -5.2415   17.3351  -35.5256 H   0  0  0  0  0  0  0  0  0  0  0  0
   -1.4435   21.2676  -30.3020 H   0  0  0  0  0  0  0  0  0  0  0  0
   -1.7196   21.7399  -27.7397 H   0  0  0  0  0  0  0  0  0  0  0  0
   -0.5611   22.3390  -25.6242 H   0  0  0  0  0  0  0  0  0  0  0  0
    0.3090   24.6526  -25.2809 H   0  0  0  0  0  0  0  0  0  0  0  0
   -0.0141   26.3804  -27.0467 H   0  0  0  0  0  0  0  0  0  0  0  0
  1  2  2  0
  2  3  1  0
  3  4  1  0
  4  5  2  0
  5  6  1  0
  6  7  1  0
  7  8  2  0
  7  9  2  0
  7 10  1  0
 10 11  1  0
 11 12  1  0
 12 13  1  0
 13 14  1  0
 14 15  1  0
  6 16  2  0
 16 17  1  0
 17 18  2  0
 18 19  1  0
 19 20  1  0
 20 21  1  0
 21 22  1  0
 22 23  1  0
 23 24  1  0
  2 25  1  0
 25 26  1  0
 26 27  2  0
 27 28  1  0
 28 29  2  0
 29 30  1  0
 30 31  2  0
 31 32  1  0
 32 33  2  0
 33 34  1  0
 27 35  1  0
 35 36  1  0
 18  4  1  0
 24 19  1  0
 36 25  2  0
 15 10  1  0
 33 28  1  0
  5 37  1  0
 11 38  1  0
 11 39  1  0
 12 40  1  0
 12 41  1  0
 14 42  1  0
 14 43  1  0
 15 44  1  0
 15 45  1  0
 16 46  1  0
 17 47  1  0
 20 48  1  0
 20 49  1  0
 21 50  1  0
 21 51  1  0
 23 52  1  0
 23 53  1  0
 24 54  1  0
 24 55  1  0
 26 56  1  0
 29 57  1  0
 30 58  1  0
 31 59  1  0
 32 60  1  0
M  CHG  3   3  -1  34  -1  35  -1
M  END
>  <UniqueID>  (19) 
19

>  <SMILES>  (19) 
O=C([N-]c1cc(S(=O)(=O)N2CCOCC2)ccc1N1CCOCC1)c1cc(-c2ccccc2[O-])[n-]n1

>  <Energy>  (19) 
113.78977045885344

>  <Genealogy>  (19) 
O=C([N-]c1cc(S(=O)(=O)N2CCOCC2)ccc1N1CCOCC1)c1cc(-c2ccccc2[O-])[n-]n1 (protonated)
O=C([N-]c1cc(S(=O)(=O)N2CCOCC2)ccc1N1CCOCC1)c1cc(-c2ccccc2[O-])[n-]n1 (3D coordinates assigned)
O=C([N-]c1cc(S(=O)(=O)N2CCOCC2)ccc1N1CCOCC1)c1cc(-c2ccccc2[O-])[n-]n1 (nonaromatic ring conformer: 113.78977045885344 kcal/mol)

>  <smiles>  (19) 
O=C(Nc1cc(S(=O)(=O)N2CCOCC2)ccc1N1CCOCC1)c1cc(-c2ccccc2O)[nH]n1

>  <score_type>  (19) 
oracle

>  <origin>  (19) 
adgpu

>  <m_score__min__energy>  (19) 
-15.300000000000001

>  <m_primary>  (19) 
energy

$$$$
19:0
     RDKit          3D

 56 59  0  0  0  0  0  0  0  0999 V2000
   -1.2250   28.2030  -34.9890 C   0  0  0  0  0  0  0  0  0  0  0  0
   -1.2360   27.5070  -36.3470 C   0  0  0  0  0  0  0  0  0  0  0  0
   -0.0330   26.6160  -36.4980 C   0  0  0  0  0  0  0  0  0  0  0  0
    0.6880   26.2020  -35.3670 C   0  0  0  0  0  0  0  0  0  0  0  0
    1.7870   25.3500  -35.5050 C   0  0  0  0  0  0  0  0  0  0  0  0
    2.1680   24.8790  -36.7680 C   0  0  0  0  0  0  0  0  0  0  0  0
    3.3150   24.0210  -36.8640 N   0  0  0  0  0  0  0  0  0  0  0  0
    3.3310   22.5910  -36.7400 C   0  0  0  0  0  0  0  0  0  0  0  0
    3.9600   21.8910  -37.5800 O   0  0  0  0  0  0  0  0  0  0  0  0
    2.5640   21.9320  -35.6580 C   0  0  0  0  0  0  0  0  0  0  0  0
    3.2000   21.0540  -34.7610 C   0  0  0  0  0  0  0  0  0  0  0  0
    2.4780   20.4350  -33.7380 C   0  0  0  0  0  0  0  0  0  0  0  0
    1.1020   20.6820  -33.5920 C   0  0  0  0  0  0  0  0  0  0  0  0
    0.3330   20.0840  -32.5800 C   0  0  0  0  0  0  0  0  0  0  0  0
    0.8920   19.3060  -31.7550 O   0  0  0  0  0  0  0  0  0  0  0  0
   -1.0170   20.3390  -32.4840 N   0  0  0  0  0  0  0  0  0  0  0  0
   -1.8040   19.6420  -31.4390 C   0  0  0  0  0  0  0  0  0  0  0  0
   -1.3640   20.0560  -30.0240 C   0  0  0  0  0  0  0  0  0  0  0  0
   -1.5390   21.5330  -29.7880 C   0  0  0  0  0  0  0  0  0  0  0  0
   -2.7460   22.1660  -30.1250 C   0  0  0  0  0  0  0  0  0  0  0  0
   -2.8940   23.5430  -29.9450 C   0  0  0  0  0  0  0  0  0  0  0  0
   -1.8390   24.3010  -29.4270 C   0  0  0  0  0  0  0  0  0  0  0  0
   -1.9940   25.6710  -29.2500 O   0  0  0  0  0  0  0  0  0  0  0  0
   -0.6290   23.6800  -29.0890 C   0  0  0  0  0  0  0  0  0  0  0  0
    0.4190   24.4420  -28.5780 O   0  0  0  0  0  0  0  0  0  0  0  0
   -0.4800   22.2980  -29.2720 C   0  0  0  0  0  0  0  0  0  0  0  0
   -1.6060   21.2150  -33.3730 C   0  0  0  0  0  0  0  0  0  0  0  0
   -3.0600   21.5950  -33.3000 C   0  0  0  0  0  0  0  0  0  0  0  0
   -0.8610   21.8000  -34.3480 N   0  0  0  0  0  0  0  0  0  0  0  0
    0.4620   21.5530  -34.4850 C   0  0  0  0  0  0  0  0  0  0  0  0
    1.1850   22.1750  -35.5090 C   0  0  0  0  0  0  0  0  0  0  0  0
    1.4540   25.3030  -37.9030 C   0  0  0  0  0  0  0  0  0  0  0  0
    0.3540   26.1560  -37.7660 C   0  0  0  0  0  0  0  0  0  0  0  0
   -1.2369   27.4474  -34.1896 H   0  0  0  0  0  0  0  0  0  0  0  0
   -0.3170   28.8174  -34.8992 H   0  0  0  0  0  0  0  0  0  0  0  0
   -2.1131   28.8458  -34.8992 H   0  0  0  0  0  0  0  0  0  0  0  0
   -2.1487   26.8991  -36.4338 H   0  0  0  0  0  0  0  0  0  0  0  0
   -1.2105   28.2723  -37.1367 H   0  0  0  0  0  0  0  0  0  0  0  0
    0.3866   26.5497  -34.3679 H   0  0  0  0  0  0  0  0  0  0  0  0
    2.3575   25.0468  -34.6147 H   0  0  0  0  0  0  0  0  0  0  0  0
    4.2764   20.8531  -34.8665 H   0  0  0  0  0  0  0  0  0  0  0  0
    2.9884   19.7513  -33.0437 H   0  0  0  0  0  0  0  0  0  0  0  0
   -2.8677   19.8907  -31.5686 H   0  0  0  0  0  0  0  0  0  0  0  0
   -1.6359   18.5604  -31.5476 H   0  0  0  0  0  0  0  0  0  0  0  0
   -1.9686   19.5048  -29.2887 H   0  0  0  0  0  0  0  0  0  0  0  0
   -0.2950   19.8194  -29.9179 H   0  0  0  0  0  0  0  0  0  0  0  0
   -3.5790   21.5746  -30.5327 H   0  0  0  0  0  0  0  0  0  0  0  0
   -3.8424   24.0325  -30.2112 H   0  0  0  0  0  0  0  0  0  0  0  0
    0.3720   25.4540  -28.5450 H   0  0  0  0  0  0  0  0  0  0  0  0
    0.4707   21.8105  -29.0103 H   0  0  0  0  0  0  0  0  0  0  0  0
   -3.3656   21.6749  -32.2463 H   0  0  0  0  0  0  0  0  0  0  0  0
   -3.2116   22.5629  -33.8001 H   0  0  0  0  0  0  0  0  0  0  0  0
   -3.6658   20.8250  -33.8001 H   0  0  0  0  0  0  0  0  0  0  0  0
    0.6727   22.8584  -36.2022 H   0  0  0  0  0  0  0  0  0  0  0  0
    1.7619   24.9624  -38.9026 H   0  0  0  0  0  0  0  0  0  0  0  0
   -0.2107   26.4679  -38.6570 H   0  0  0  0  0  0  0  0  0  0  0  0
  1  2  1  0
  2  3  1  0
  3  4  2  0
  4  5  1  0
  5  6  2  0
  6  7  1  0
  7  8  1  0
  8  9  2  0
  8 10  1  0
 10 11  2  0
 11 12  1  0
 12 13  2  0
 13 14  1  0
 14 15  2  0
 14 16  1  0
 16 17  1  0
 17 18  1  0
 18 19  1  0
 19 20  2  0
 20 21  1  0
 21 22  2  0
 22 23  1  0
 22 24  1  0
 24 25  1  0
 24 26  2  0
 16 27  1  0
 27 28  1  0
 27 29  2  0
 29 30  1  0
 30 31  2  0
  6 32  1  0
 32 33  2  0
 33  3  1  0
 31 10  1  0
 30 13  1  0
 26 19  1  0
  1 34  1  0
  1 35  1  0
  1 36  1  0
  2 37  1  0
  2 38  1  0
  4 39  1  0
  5 40  1  0
 11 41  1  0
 12 42  1  0
 17 43  1  0
 17 44  1  0
 18 45  1  0
 18 46  1  0
 20 47  1  0
 21 48  1  0
 25 49  1  0
 26 50  1  0
 28 51  1  0
 28 52  1  0
 28 53  1  0
 31 54  1  0
 32 55  1  0
 33 56  1  0
M  CHG  2   7  -1  23  -1
M  END
>  <UniqueID>  (20) 
20

>  <SMILES>  (20) 
CCc1ccc([N-]C(=O)c2ccc3c(=O)n(CCc4ccc([O-])c(O)c4)c(C)nc3c2)cc1

>  <Energy>  (20) 
66.02458535014652

>  <Genealogy>  (20) 
CCc1ccc([N-]C(=O)c2ccc3c(=O)n(CCc4ccc([O-])c(O)c4)c(C)nc3c2)cc1 (protonated)
CCc1ccc([N-]C(=O)c2ccc3c(=O)n(CCc4ccc([O-])c(O)c4)c(C)nc3c2)cc1 (3D coordinates assigned)
CCc1ccc([N-]C(=O)c2ccc3c(=O)n(CCc4ccc([O-])c(O)c4)c(C)nc3c2)cc1 (optimized conformer: 66.02458535014652 kcal/mol)

>  <smiles>  (20) 
CCc1ccc(NC(=O)c2ccc3c(=O)n(CCc4ccc(O)c(O)c4)c(C)nc3c2)cc1

>  <score_type>  (20) 
oracle

>  <origin>  (20) 
adgpu

>  <m_score__min__energy>  (20) 
-12.1

>  <m_primary>  (20) 
energy

$$$$
20:0
     RDKit          3D

 76 80  0  0  0  0  0  0  0  0999 V2000
   -3.8870   25.1010  -30.4610 O   0  0  0  0  0  0  0  0  0  0  0  0
   -3.5900   23.8910  -30.6490 C   0  0  0  0  0  0  0  0  0  0  0  0
   -2.4140   23.2930  -29.9450 C   0  0  0  0  0  0  0  0  0  0  0  0
   -2.9650   22.5560  -28.3690 S   0  0  0  0  0  0  0  0  0  0  0  0
   -1.6670   23.3110  -27.3840 C   0  0  0  0  0  0  0  0  0  0  0  0
   -1.1280   24.5530  -27.7450 C   0  0  0  0  0  0  0  0  0  0  0  0
   -0.1450   25.1500  -26.9450 C   0  0  0  0  0  0  0  0  0  0  0  0
    0.3020   24.5070  -25.7790 C   0  0  0  0  0  0  0  0  0  0  0  0
    1.5340   25.2420  -24.7540 S   0  0  0  0  0  0  0  0  0  0  0  0
    2.4130   24.1720  -24.1730 O   0  0  0  0  0  0  0  0  0  0  0  0
    2.3840   26.1350  -25.6150 O   0  0  0  0  0  0  0  0  0  0  0  0
    0.7640   26.1880  -23.4960 N   0  0  0  0  0  0  0  0  0  0  0  0
   -0.7090   26.1640  -23.6030 C   0  0  0  0  0  0  0  0  0  0  0  0
   -1.2290   27.1570  -24.6530 C   0  0  0  0  0  0  0  0  0  0  0  0
   -0.7670   28.4610  -24.3770 O   0  0  0  0  0  0  0  0  0  0  0  0
    0.6430   28.4930  -24.4760 C   0  0  0  0  0  0  0  0  0  0  0  0
    1.2920   27.5680  -23.4310 C   0  0  0  0  0  0  0  0  0  0  0  0
   -0.2370   23.2620  -25.4260 C   0  0  0  0  0  0  0  0  0  0  0  0
   -1.2190   22.6690  -26.2240 C   0  0  0  0  0  0  0  0  0  0  0  0
   -4.4030   23.0690  -31.4970 N   0  0  0  0  0  0  0  0  0  0  0  0
   -3.9410   21.9890  -32.3230 C   0  0  0  0  0  0  0  0  0  0  0  0
   -2.6000   21.9130  -32.7460 C   0  0  0  0  0  0  0  0  0  0  0  0
   -2.1480   20.8060  -33.4790 C   0  0  0  0  0  0  0  0  0  0  0  0
   -0.4680   20.7320  -34.0090 S   0  0  0  0  0  0  0  0  0  0  0  0
   -0.3040   19.5240  -34.8890 O   0  0  0  0  0  0  0  0  0  0  0  0
   -0.1380   21.9560  -34.8210 O   0  0  0  0  0  0  0  0  0  0  0  0
    0.5770   20.6020  -32.6080 N   0  0  0  0  0  0  0  0  0  0  0  0
    1.3670   19.3520  -32.5870 C   0  0  0  0  0  0  0  0  0  0  0  0
    0.5660   18.1290  -32.1020 C   0  0  0  0  0  0  0  0  0  0  0  0
   -0.1240   18.4160  -30.7690 C   0  0  0  0  0  0  0  0  0  0  0  0
   -0.9770   19.6790  -30.8650 C   0  0  0  0  0  0  0  0  0  0  0  0
   -0.1270   20.8680  -31.3380 C   0  0  0  0  0  0  0  0  0  0  0  0
   -3.0400   19.7710  -33.7940 C   0  0  0  0  0  0  0  0  0  0  0  0
   -4.3660   19.8350  -33.3670 C   0  0  0  0  0  0  0  0  0  0  0  0
   -4.8200   20.9360  -32.6280 C   0  0  0  0  0  0  0  0  0  0  0  0
   -6.1920   20.9970  -32.2260 N   0  0  0  0  0  0  0  0  0  0  0  0
   -6.9630   19.8300  -31.8460 C   0  0  0  0  0  0  0  0  0  0  0  0
   -8.4160   20.2930  -31.8290 C   0  0  0  0  0  0  0  0  0  0  0  0
   -8.3810   21.8250  -31.8710 C   0  0  0  0  0  0  0  0  0  0  0  0
   -6.9880   22.2060  -32.3470 C   0  0  0  0  0  0  0  0  0  0  0  0
   -1.9643   22.5136  -30.5777 H   0  0  0  0  0  0  0  0  0  0  0  0
   -1.6675   24.0757  -29.7446 H   0  0  0  0  0  0  0  0  0  0  0  0
   -1.4769   25.0595  -28.6570 H   0  0  0  0  0  0  0  0  0  0  0  0
    0.2777   26.1245  -27.2307 H   0  0  0  0  0  0  0  0  0  0  0  0
    1.0150   25.7160  -22.5960 H   0  0  0  0  0  0  0  0  0  0  0  0
   -1.0275   25.1498  -23.8858 H   0  0  0  0  0  0  0  0  0  0  0  0
   -1.1240   26.4554  -22.6269 H   0  0  0  0  0  0  0  0  0  0  0  0
   -0.8728   26.8505  -25.6476 H   0  0  0  0  0  0  0  0  0  0  0  0
   -2.3287   27.1578  -24.6254 H   0  0  0  0  0  0  0  0  0  0  0  0
    0.9403   28.1628  -25.4823 H   0  0  0  0  0  0  0  0  0  0  0  0
    0.9833   29.5226  -24.2912 H   0  0  0  0  0  0  0  0  0  0  0  0
    2.3771   27.5400  -23.6090 H   0  0  0  0  0  0  0  0  0  0  0  0
    1.0579   27.9706  -22.4345 H   0  0  0  0  0  0  0  0  0  0  0  0
    0.1142   22.7502  -24.5179 H   0  0  0  0  0  0  0  0  0  0  0  0
   -1.6414   21.6940  -25.9393 H   0  0  0  0  0  0  0  0  0  0  0  0
   -1.9024   22.7272  -32.4999 H   0  0  0  0  0  0  0  0  0  0  0  0
    1.7276   19.1505  -33.6065 H   0  0  0  0  0  0  0  0  0  0  0  0
    2.1924   19.5020  -31.8755 H   0  0  0  0  0  0  0  0  0  0  0  0
   -0.1962   17.8776  -32.8542 H   0  0  0  0  0  0  0  0  0  0  0  0
    1.2622   17.2891  -31.9611 H   0  0  0  0  0  0  0  0  0  0  0  0
   -0.7680   17.5643  -30.5048 H   0  0  0  0  0  0  0  0  0  0  0  0
    0.6452   18.5660  -29.9971 H   0  0  0  0  0  0  0  0  0  0  0  0
   -1.7941   19.5103  -31.5819 H   0  0  0  0  0  0  0  0  0  0  0  0
   -1.3865   19.9081  -29.8701 H   0  0  0  0  0  0  0  0  0  0  0  0
   -0.7864   21.7373  -31.4777 H   0  0  0  0  0  0  0  0  0  0  0  0
    0.6377   21.0535  -30.5694 H   0  0  0  0  0  0  0  0  0  0  0  0
   -2.6930   18.9066  -34.3792 H   0  0  0  0  0  0  0  0  0  0  0  0
   -5.0595   19.0169  -33.6115 H   0  0  0  0  0  0  0  0  0  0  0  0
   -6.8250   19.0219  -32.5795 H   0  0  0  0  0  0  0  0  0  0  0  0
   -6.6488   19.4321  -30.8698 H   0  0  0  0  0  0  0  0  0  0  0  0
   -8.9510   19.9002  -32.7062 H   0  0  0  0  0  0  0  0  0  0  0  0
   -8.9404   19.9299  -30.9328 H   0  0  0  0  0  0  0  0  0  0  0  0
   -9.1400   22.2045  -32.5710 H   0  0  0  0  0  0  0  0  0  0  0  0
   -8.5988   22.2576  -30.8834 H   0  0  0  0  0  0  0  0  0  0  0  0
   -7.0183   22.5431  -33.3936 H   0  0  0  0  0  0  0  0  0  0  0  0
   -6.5668   23.0326  -31.7560 H   0  0  0  0  0  0  0  0  0  0  0  0
  1  2  2  0
  2  3  1  0
  3  4  1  0
  4  5  1  0
  5  6  2  0
  6  7  1  0
  7  8  2  0
  8  9  1  0
  9 10  2  0
  9 11  2  0
  9 12  1  0
 12 13  1  0
 13 14  1  0
 14 15  1  0
 15 16  1  0
 16 17  1  0
  8 18  1  0
 18 19  2  0
  2 20  1  0
 20 21  1  0
 21 22  2  0
 22 23  1  0
 23 24  1  0
 24 25  2  0
 24 26  2  0
 24 27  1  0
 27 28  1  0
 28 29  1  0
 29 30  1  0
 30 31  1  0
 31 32  1  0
 23 33  2  0
 33 34  1  0
 34 35  2  0
 35 36  1  0
 36 37  1  0
 37 38  1  0
 38 39  1  0
 39 40  1  0
 19  5  1  0
 35 21  1  0
 40 36  1  0
 17 12  1  0
 32 27  1  0
  3 41  1  0
  3 42  1  0
  6 43  1  0
  7 44  1  0
 12 45  1  0
 13 46  1  0
 13 47  1  0
 14 48  1  0
 14 49  1  0
 16 50  1  0
 16 51  1  0
 17 52  1  0
 17 53  1  0
 18 54  1  0
 19 55  1  0
 22 56  1  0
 28 57  1  0
 28 58  1  0
 29 59  1  0
 29 60  1  0
 30 61  1  0
 30 62  1  0
 31 63  1  0
 31 64  1  0
 32 65  1  0
 32 66  1  0
 33 67  1  0
 34 68  1  0
 37 69  1  0
 37 70  1  0
 38 71  1  0
 38 72  1  0
 39 73  1  0
 39 74  1  0
 40 75  1  0
 40 76  1  0
M  CHG  2  12   1  20  -1
M  END
>  <UniqueID>  (21) 
21

>  <SMILES>  (21) 
O=C(CSc1ccc(S(=O)(=O)[NH+]2CCOCC2)cc1)[N-]c1cc(S(=O)(=O)N2CCCCC2)ccc1N1CCCC1

>  <Energy>  (21) 
86.95195339041828

>  <Genealogy>  (21) 
O=C(CSc1ccc(S(=O)(=O)[NH+]2CCOCC2)cc1)[N-]c1cc(S(=O)(=O)N2CCCCC2)ccc1N1CCCC1 (protonated)
O=C(CSc1ccc(S(=O)(=O)[NH+]2CCOCC2)cc1)[N-]c1cc(S(=O)(=O)N2CCCCC2)ccc1N1CCCC1 (3D coordinates assigned)
O=C(CSc1ccc(S(=O)(=O)[NH+]2CCOCC2)cc1)[N-]c1cc(S(=O)(=O)N2CCCCC2)ccc1N1CCCC1 (nonaromatic ring conformer: 86.95195339041828 kcal/mol)

>  <smiles>  (21) 
O=C(CSc1ccc(S(=O)(=O)N2CCOCC2)cc1)Nc1cc(S(=O)(=O)N2CCCCC2)ccc1N1CCCC1

>  <score_type>  (21) 
oracle

>  <origin>  (21) 
adgpu

>  <m_score__min__energy>  (21) 
-12.220000000000001

>  <m_primary>  (21) 
energy

$$$$
21:0
     RDKit          3D

 68 72  0  0  0  0  0  0  0  0999 V2000
   -4.9300   25.3930  -30.2870 C   0  0  0  0  0  0  0  0  0  0  0  0
   -3.4860   25.2130  -30.2230 N   0  0  0  0  0  0  0  0  0  0  0  0
   -2.8310   24.1100  -29.5850 C   0  0  0  0  0  0  0  0  0  0  0  0
   -2.9690   22.9570  -30.0690 O   0  0  0  0  0  0  0  0  0  0  0  0
   -2.0010   24.2830  -28.3740 C   0  0  0  0  0  0  0  0  0  0  0  0
   -2.3840   25.2320  -27.4140 C   0  0  0  0  0  0  0  0  0  0  0  0
   -1.5750   25.4820  -26.2950 C   0  0  0  0  0  0  0  0  0  0  0  0
   -1.9620   26.4250  -25.3300 C   0  0  0  0  0  0  0  0  0  0  0  0
   -1.1470   26.6660  -24.2190 C   0  0  0  0  0  0  0  0  0  0  0  0
    0.0570   25.9730  -24.0650 C   0  0  0  0  0  0  0  0  0  0  0  0
    0.4560   25.0370  -25.0250 C   0  0  0  0  0  0  0  0  0  0  0  0
   -0.3540   24.7870  -26.1440 C   0  0  0  0  0  0  0  0  0  0  0  0
    0.0370   23.8530  -27.1140 C   0  0  0  0  0  0  0  0  0  0  0  0
   -0.7820   23.5870  -28.2170 C   0  0  0  0  0  0  0  0  0  0  0  0
   -0.3550   22.5970  -29.1580 N   0  0  0  0  0  0  0  0  0  0  0  0
   -0.1630   20.9300  -28.7230 S   0  0  0  0  0  0  0  0  0  0  0  0
    1.2390   20.7130  -28.2250 O   0  0  0  0  0  0  0  0  0  0  0  0
   -1.1230   20.6010  -27.6140 O   0  0  0  0  0  0  0  0  0  0  0  0
   -0.4390   19.9070  -30.1360 C   0  0  0  0  0  0  0  0  0  0  0  0
   -1.1780   20.4300  -31.2060 C   0  0  0  0  0  0  0  0  0  0  0  0
   -1.3970   19.6720  -32.3690 C   0  0  0  0  0  0  0  0  0  0  0  0
   -2.1580   20.2410  -33.4990 C   0  0  0  0  0  0  0  0  0  0  0  0
   -1.9920   19.7860  -34.6620 O   0  0  0  0  0  0  0  0  0  0  0  0
   -3.1460   21.2530  -33.2650 N   0  0  0  0  0  0  0  0  0  0  0  0
   -4.4100   21.0150  -32.6310 C   0  0  0  0  0  0  0  0  0  0  0  0
   -4.8960   19.7060  -32.4840 C   0  0  0  0  0  0  0  0  0  0  0  0
   -6.1550   19.4750  -31.9170 C   0  0  0  0  0  0  0  0  0  0  0  0
   -6.7840   17.8320  -31.8170 S   0  0  0  0  0  0  0  0  0  0  0  0
   -6.4210   17.2500  -30.4780 O   0  0  0  0  0  0  0  0  0  0  0  0
   -8.2840   17.8540  -31.9340 O   0  0  0  0  0  0  0  0  0  0  0  0
   -6.0920   16.8510  -33.0870 N   0  0  0  0  0  0  0  0  0  0  0  0
   -4.6650   16.6010  -32.8090 C   0  0  0  0  0  0  0  0  0  0  0  0
   -3.9330   16.1600  -34.0880 C   0  0  0  0  0  0  0  0  0  0  0  0
   -4.0030   17.0920  -35.1620 O   0  0  0  0  0  0  0  0  0  0  0  0
   -5.0400   18.0490  -35.0220 C   0  0  0  0  0  0  0  0  0  0  0  0
   -6.3250   17.4540  -34.4190 C   0  0  0  0  0  0  0  0  0  0  0  0
   -6.9320   20.5590  -31.4900 C   0  0  0  0  0  0  0  0  0  0  0  0
   -6.4550   21.8650  -31.6330 C   0  0  0  0  0  0  0  0  0  0  0  0
   -5.2020   22.1010  -32.2100 C   0  0  0  0  0  0  0  0  0  0  0  0
   -4.7590   23.4180  -32.3420 O   0  0  0  0  0  0  0  0  0  0  0  0
   -0.8670   18.3740  -32.4470 C   0  0  0  0  0  0  0  0  0  0  0  0
   -0.1340   17.8460  -31.3810 C   0  0  0  0  0  0  0  0  0  0  0  0
    0.0880   18.6050  -30.2280 C   0  0  0  0  0  0  0  0  0  0  0  0
    0.8290   18.0550  -29.1910 O   0  0  0  0  0  0  0  0  0  0  0  0
   -5.3387   25.4439  -29.2670 H   0  0  0  0  0  0  0  0  0  0  0  0
   -5.1598   26.3267  -30.8212 H   0  0  0  0  0  0  0  0  0  0  0  0
   -5.3820   24.5442  -30.8212 H   0  0  0  0  0  0  0  0  0  0  0  0
   -3.3267   25.7848  -27.5397 H   0  0  0  0  0  0  0  0  0  0  0  0
   -2.9073   26.9751  -25.4476 H   0  0  0  0  0  0  0  0  0  0  0  0
   -1.4549   27.4039  -23.4635 H   0  0  0  0  0  0  0  0  0  0  0  0
    0.6920   26.1640  -23.1873 H   0  0  0  0  0  0  0  0  0  0  0  0
    1.4060   24.4960  -24.9029 H   0  0  0  0  0  0  0  0  0  0  0  0
    0.9959   23.3248  -27.0070 H   0  0  0  0  0  0  0  0  0  0  0  0
   -1.5918   21.4467  -31.1345 H   0  0  0  0  0  0  0  0  0  0  0  0
   -4.2829   18.8555  -32.8169 H   0  0  0  0  0  0  0  0  0  0  0  0
   -4.2037   17.5243  -32.4287 H   0  0  0  0  0  0  0  0  0  0  0  0
   -4.5849   15.7991  -32.0604 H   0  0  0  0  0  0  0  0  0  0  0  0
   -2.8732   16.0017  -33.8396 H   0  0  0  0  0  0  0  0  0  0  0  0
   -4.4358   15.2454  -34.4355 H   0  0  0  0  0  0  0  0  0  0  0  0
   -4.6856   18.8574  -34.3656 H   0  0  0  0  0  0  0  0  0  0  0  0
   -5.2872   18.4183  -36.0282 H   0  0  0  0  0  0  0  0  0  0  0  0
   -7.0729   18.2545  -34.3193 H   0  0  0  0  0  0  0  0  0  0  0  0
   -6.6765   16.6584  -35.0924 H   0  0  0  0  0  0  0  0  0  0  0  0
   -7.9204   20.3822  -31.0408 H   0  0  0  0  0  0  0  0  0  0  0  0
   -7.0677   22.7118  -31.2902 H   0  0  0  0  0  0  0  0  0  0  0  0
   -3.9750   23.7800  -31.8140 H   0  0  0  0  0  0  0  0  0  0  0  0
   -1.0297   17.7699  -33.3518 H   0  0  0  0  0  0  0  0  0  0  0  0
    0.2714   16.8257  -31.4494 H   0  0  0  0  0  0  0  0  0  0  0  0
  1  2  1  0
  2  3  1  0
  3  4  2  0
  3  5  1  0
  5  6  2  0
  6  7  1  0
  7  8  2  0
  8  9  1  0
  9 10  2  0
 10 11  1  0
 11 12  2  0
 12 13  1  0
 13 14  2  0
 14 15  1  0
 15 16  1  0
 16 17  2  0
 16 18  2  0
 16 19  1  0
 19 20  2  0
 20 21  1  0
 21 22  1  0
 22 23  2  0
 22 24  1  0
 24 25  1  0
 25 26  2  0
 26 27  1  0
 27 28  1  0
 28 29  2  0
 28 30  2  0
 28 31  1  0
 31 32  1  0
 32 33  1  0
 33 34  1  0
 34 35  1  0
 35 36  1  0
 27 37  2  0
 37 38  1  0
 38 39  2  0
 39 40  1  0
 21 41  2  0
 41 42  1  0
 42 43  2  0
 43 44  1  0
 14  5  1  0
 43 19  1  0
 12  7  1  0
 39 25  1  0
 36 31  1  0
  1 45  1  0
  1 46  1  0
  1 47  1  0
  6 48  1  0
  8 49  1  0
  9 50  1  0
 10 51  1  0
 11 52  1  0
 13 53  1  0
 20 54  1  0
 26 55  1  0
 32 56  1  0
 32 57  1  0
 33 58  1  0
 33 59  1  0
 35 60  1  0
 35 61  1  0
 36 62  1  0
 36 63  1  0
 37 64  1  0
 38 65  1  0
 40 66  1  0
 41 67  1  0
 42 68  1  0
M  CHG  4   2  -1  15  -1  24  -1  44  -1
M  END
>  <UniqueID>  (22) 
22

>  <SMILES>  (22) 
C[N-]C(=O)c1cc2ccccc2cc1[N-]S(=O)(=O)c1cc(C(=O)[N-]c2cc(S(=O)(=O)N3CCOCC3)ccc2O)ccc1[O-]

>  <Energy>  (22) 
108.32531500001643

>  <Genealogy>  (22) 
C[N-]C(=O)c1cc2ccccc2cc1[N-]S(=O)(=O)c1cc(C(=O)[N-]c2cc(S(=O)(=O)N3CCOCC3)ccc2O)ccc1[O-] (protonated)
C[N-]C(=O)c1cc2ccccc2cc1[N-]S(=O)(=O)c1cc(C(=O)[N-]c2cc(S(=O)(=O)N3CCOCC3)ccc2O)ccc1[O-] (3D coordinates assigned)
C[N-]C(=O)c1cc2ccccc2cc1[N-]S(=O)(=O)c1cc(C(=O)[N-]c2cc(S(=O)(=O)N3CCOCC3)ccc2O)ccc1[O-] (nonaromatic ring conformer: 108.32531500001643 kcal/mol)

>  <smiles>  (22) 
CNC(=O)c1cc2ccccc2cc1NS(=O)(=O)c1cc(C(=O)Nc2cc(S(=O)(=O)N3CCOCC3)ccc2O)ccc1O

>  <score_type>  (22) 
oracle

>  <origin>  (22) 
adgpu

>  <m_score__min__energy>  (22) 
-14.869999999999999

>  <m_primary>  (22) 
energy

$$$$
22:0
     RDKit          3D

 56 59  0  0  0  0  0  0  0  0999 V2000
   -2.9480   18.9130  -25.6960 C   0  0  0  0  0  0  0  0  0  0  0  0
   -2.4750   19.8020  -26.8030 C   0  0  0  0  0  0  0  0  0  0  0  0
   -1.7430   19.2800  -27.8630 C   0  0  0  0  0  0  0  0  0  0  0  0
   -1.2780   20.1270  -28.8780 C   0  0  0  0  0  0  0  0  0  0  0  0
   -0.4760   19.5050  -29.9940 C   0  0  0  0  0  0  0  0  0  0  0  0
   -1.5940   21.5160  -28.8420 C   0  0  0  0  0  0  0  0  0  0  0  0
   -1.0110   22.5750  -30.1610 S   0  0  0  0  0  0  0  0  0  0  0  0
   -0.0120   23.5560  -29.6180 O   0  0  0  0  0  0  0  0  0  0  0  0
   -0.3280   21.8300  -31.2690 O   0  0  0  0  0  0  0  0  0  0  0  0
   -2.3580   23.4470  -30.8080 N   0  0  0  0  0  0  0  0  0  0  0  0
   -3.5070   22.7540  -31.2960 C   0  0  0  0  0  0  0  0  0  0  0  0
   -3.3480   21.4740  -31.8330 C   0  0  0  0  0  0  0  0  0  0  0  0
   -4.4550   20.7390  -32.2510 C   0  0  0  0  0  0  0  0  0  0  0  0
   -5.7400   21.2800  -32.1330 C   0  0  0  0  0  0  0  0  0  0  0  0
   -5.9210   22.5770  -31.6150 C   0  0  0  0  0  0  0  0  0  0  0  0
   -4.7940   23.3260  -31.1840 C   0  0  0  0  0  0  0  0  0  0  0  0
   -4.9380   24.6680  -30.5860 C   0  0  0  0  0  0  0  0  0  0  0  0
   -5.9470   24.9420  -29.8830 O   0  0  0  0  0  0  0  0  0  0  0  0
   -3.9960   25.6570  -30.8410 O   0  0  0  0  0  0  0  0  0  0  0  0
   -7.3290   23.1330  -31.6540 C   0  0  0  0  0  0  0  0  0  0  0  0
   -8.3430   22.1080  -31.1160 C   0  0  0  0  0  0  0  0  0  0  0  0
   -8.0950   20.6510  -31.5890 C   0  0  0  0  0  0  0  0  0  0  0  0
   -6.9450   20.5070  -32.5990 C   0  0  0  0  0  0  0  0  0  0  0  0
   -2.3140   22.0030  -27.7100 C   0  0  0  0  0  0  0  0  0  0  0  0
   -2.7350   23.6970  -27.4320 S   0  0  0  0  0  0  0  0  0  0  0  0
   -2.4730   24.4700  -28.6940 O   0  0  0  0  0  0  0  0  0  0  0  0
   -4.1960   23.8120  -27.1100 O   0  0  0  0  0  0  0  0  0  0  0  0
   -1.7500   24.4030  -26.1520 C   0  0  0  0  0  0  0  0  0  0  0  0
   -0.6850   23.6810  -25.5940 C   0  0  0  0  0  0  0  0  0  0  0  0
    0.0890   24.2460  -24.5770 C   0  0  0  0  0  0  0  0  0  0  0  0
   -0.1900   25.5360  -24.1170 C   0  0  0  0  0  0  0  0  0  0  0  0
   -1.2450   26.2630  -24.6770 C   0  0  0  0  0  0  0  0  0  0  0  0
   -2.0230   25.7000  -25.6940 C   0  0  0  0  0  0  0  0  0  0  0  0
   -2.7230   21.1310  -26.7510 N   0  0  0  0  0  0  0  0  0  0  0  0
   -2.7035   19.3725  -24.7269 H   0  0  0  0  0  0  0  0  0  0  0  0
   -4.0370   18.7784  -25.7737 H   0  0  0  0  0  0  0  0  0  0  0  0
   -2.4512   17.9347  -25.7737 H   0  0  0  0  0  0  0  0  0  0  0  0
   -1.5287   18.2019  -27.9052 H   0  0  0  0  0  0  0  0  0  0  0  0
    0.3252   18.8836  -29.5675 H   0  0  0  0  0  0  0  0  0  0  0  0
   -1.1346   18.8792  -30.6142 H   0  0  0  0  0  0  0  0  0  0  0  0
   -0.0338   20.2986  -30.6142 H   0  0  0  0  0  0  0  0  0  0  0  0
   -2.3403   21.0431  -31.9265 H   0  0  0  0  0  0  0  0  0  0  0  0
   -4.3189   19.7328  -32.6741 H   0  0  0  0  0  0  0  0  0  0  0  0
   -7.3739   24.0417  -31.0358 H   0  0  0  0  0  0  0  0  0  0  0  0
   -7.5853   23.3638  -32.6985 H   0  0  0  0  0  0  0  0  0  0  0  0
   -8.2990   22.1250  -30.0170 H   0  0  0  0  0  0  0  0  0  0  0  0
   -9.3265   22.4028  -31.5108 H   0  0  0  0  0  0  0  0  0  0  0  0
   -7.8596   20.0368  -30.7074 H   0  0  0  0  0  0  0  0  0  0  0  0
   -9.0112   20.3234  -32.1021 H   0  0  0  0  0  0  0  0  0  0  0  0
   -6.6788   19.4442  -32.6966 H   0  0  0  0  0  0  0  0  0  0  0  0
   -7.2710   20.9048  -33.5714 H   0  0  0  0  0  0  0  0  0  0  0  0
   -0.4585   22.6679  -25.9577 H   0  0  0  0  0  0  0  0  0  0  0  0
    0.9197   23.6743  -24.1375 H   0  0  0  0  0  0  0  0  0  0  0  0
    0.4196   25.9787  -23.3155 H   0  0  0  0  0  0  0  0  0  0  0  0
   -1.4635   27.2793  -24.3172 H   0  0  0  0  0  0  0  0  0  0  0  0
   -2.8502   26.2755  -26.1352 H   0  0  0  0  0  0  0  0  0  0  0  0
  1  2  1  0
  2  3  2  0
  3  4  1  0
  4  5  1  0
  4  6  2  0
  6  7  1  0
  7  8  2  0
  7  9  2  0
  7 10  1  0
 10 11  1  0
 11 12  2  0
 12 13  1  0
 13 14  2  0
 14 15  1  0
 15 16  2  0
 16 17  1  0
 17 18  2  0
 17 19  1  0
 15 20  1  0
 20 21  1  0
 21 22  1  0
 22 23  1  0
  6 24  1  0
 24 25  1  0
 25 26  2  0
 25 27  2  0
 25 28  1  0
 28 29  2  0
 29 30  1  0
 30 31  2  0
 31 32  1  0
 32 33  2  0
 24 34  2  0
 34  2  1  0
 16 11  1  0
 33 28  1  0
 23 14  1  0
  1 35  1  0
  1 36  1  0
  1 37  1  0
  3 38  1  0
  5 39  1  0
  5 40  1  0
  5 41  1  0
 12 42  1  0
 13 43  1  0
 20 44  1  0
 20 45  1  0
 21 46  1  0
 21 47  1  0
 22 48  1  0
 22 49  1  0
 23 50  1  0
 23 51  1  0
 29 52  1  0
 30 53  1  0
 31 54  1  0
 32 55  1  0
 33 56  1  0
M  CHG  2  10  -1  19  -1
M  END
>  <UniqueID>  (23) 
23

>  <SMILES>  (23) 
Cc1cc(C)c(S(=O)(=O)[N-]c2ccc3c(c2C(=O)[O-])CCCC3)c(S(=O)(=O)c2ccccc2)n1

>  <Energy>  (23) 
88.03193754619744

>  <Genealogy>  (23) 
Cc1cc(C)c(S(=O)(=O)[N-]c2ccc3c(c2C(=O)[O-])CCCC3)c(S(=O)(=O)c2ccccc2)n1 (protonated)
Cc1cc(C)c(S(=O)(=O)[N-]c2ccc3c(c2C(=O)[O-])CCCC3)c(S(=O)(=O)c2ccccc2)n1 (3D coordinates assigned)
Cc1cc(C)c(S(=O)(=O)[N-]c2ccc3c(c2C(=O)[O-])CCCC3)c(S(=O)(=O)c2ccccc2)n1 (nonaromatic ring conformer: 88.03193754619744 kcal/mol)

>  <smiles>  (23) 
Cc1cc(C)c(S(=O)(=O)Nc2ccc3c(c2C(=O)O)CCCC3)c(S(=O)(=O)c2ccccc2)n1

>  <score_type>  (23) 
oracle

>  <origin>  (23) 
adgpu

>  <m_score__min__energy>  (23) 
-13.31

>  <m_primary>  (23) 
energy

$$$$
23:0
     RDKit          3D

 73 77  0  0  0  0  0  0  0  0999 V2000
   -1.7340   13.2040  -31.7410 C   0  0  0  0  0  0  0  0  0  0  0  0
   -2.6310   14.2120  -32.4100 C   0  0  0  0  0  0  0  0  0  0  0  0
   -2.0770   15.1310  -33.3190 C   0  0  0  0  0  0  0  0  0  0  0  0
   -2.8810   16.0790  -33.9490 C   0  0  0  0  0  0  0  0  0  0  0  0
   -4.2550   16.1260  -33.6820 C   0  0  0  0  0  0  0  0  0  0  0  0
   -5.2900   17.2860  -34.5100 S   0  0  0  0  0  0  0  0  0  0  0  0
   -4.7610   17.4830  -35.9030 O   0  0  0  0  0  0  0  0  0  0  0  0
   -6.6980   16.7680  -34.6010 O   0  0  0  0  0  0  0  0  0  0  0  0
   -5.3000   18.8180  -33.6280 C   0  0  0  0  0  0  0  0  0  0  0  0
   -6.5120   19.3010  -33.0910 C   0  0  0  0  0  0  0  0  0  0  0  0
   -6.4810   20.4890  -32.3640 C   0  0  0  0  0  0  0  0  0  0  0  0
   -5.3200   21.1860  -32.1690 C   0  0  0  0  0  0  0  0  0  0  0  0
   -4.1040   20.7500  -32.6910 C   0  0  0  0  0  0  0  0  0  0  0  0
   -4.0910   19.5430  -33.4230 C   0  0  0  0  0  0  0  0  0  0  0  0
   -2.8740   19.0790  -34.0130 N   0  0  0  0  0  0  0  0  0  0  0  0
   -1.3450   19.8470  -33.7590 S   0  0  0  0  0  0  0  0  0  0  0  0
   -1.2360   21.1070  -34.5720 O   0  0  0  0  0  0  0  0  0  0  0  0
   -0.2480   18.9120  -34.1850 O   0  0  0  0  0  0  0  0  0  0  0  0
   -1.1890   20.2200  -32.0500 C   0  0  0  0  0  0  0  0  0  0  0  0
   -0.9400   19.1990  -31.1210 C   0  0  0  0  0  0  0  0  0  0  0  0
   -0.8610   19.4950  -29.7570 C   0  0  0  0  0  0  0  0  0  0  0  0
   -1.0400   20.8120  -29.3090 C   0  0  0  0  0  0  0  0  0  0  0  0
   -0.9210   21.1920  -27.5930 S   0  0  0  0  0  0  0  0  0  0  0  0
    0.4910   21.5950  -27.2590 O   0  0  0  0  0  0  0  0  0  0  0  0
   -1.2660   19.9630  -26.7990 O   0  0  0  0  0  0  0  0  0  0  0  0
   -2.0300   22.4800  -27.1890 N   0  0  0  0  0  0  0  0  0  0  0  0
   -3.3310   22.2500  -27.8540 C   0  0  0  0  0  0  0  0  0  0  0  0
   -4.2430   23.4960  -27.8210 C   0  0  0  0  0  0  0  0  0  0  0  0
   -3.7690   24.5150  -26.7820 C   0  0  0  0  0  0  0  0  0  0  0  0
   -2.3140   24.9340  -27.0450 C   0  0  0  0  0  0  0  0  0  0  0  0
   -1.4560   23.7760  -27.5900 C   0  0  0  0  0  0  0  0  0  0  0  0
   -1.2900   21.8300  -30.2380 C   0  0  0  0  0  0  0  0  0  0  0  0
   -1.3720   21.5340  -31.6010 C   0  0  0  0  0  0  0  0  0  0  0  0
   -5.5860   22.3130  -31.4780 N   0  0  0  0  0  0  0  0  0  0  0  0
   -4.6640   23.3940  -31.1400 C   0  0  0  0  0  0  0  0  0  0  0  0
   -6.9280   22.2790  -31.2920 C   0  0  0  0  0  0  0  0  0  0  0  0
   -7.5760   23.2010  -30.7240 O   0  0  0  0  0  0  0  0  0  0  0  0
   -7.5060   21.1620  -31.8010 N   0  0  0  0  0  0  0  0  0  0  0  0
   -8.9280   20.8370  -31.8600 C   0  0  0  0  0  0  0  0  0  0  0  0
   -4.8180   15.2180  -32.7800 C   0  0  0  0  0  0  0  0  0  0  0  0
   -4.0170   14.2670  -32.1260 C   0  0  0  0  0  0  0  0  0  0  0  0
   -4.6620   13.2940  -31.1730 C   0  0  0  0  0  0  0  0  0  0  0  0
   -1.8219   13.3027  -30.6490 H   0  0  0  0  0  0  0  0  0  0  0  0
   -2.0334   12.1895  -32.0427 H   0  0  0  0  0  0  0  0  0  0  0  0
   -0.6915   13.3836  -32.0427 H   0  0  0  0  0  0  0  0  0  0  0  0
   -0.9988   15.1012  -33.5348 H   0  0  0  0  0  0  0  0  0  0  0  0
   -2.4352   16.7923  -34.6579 H   0  0  0  0  0  0  0  0  0  0  0  0
   -7.4549   18.7549  -33.2421 H   0  0  0  0  0  0  0  0  0  0  0  0
   -3.1815   21.3291  -32.5373 H   0  0  0  0  0  0  0  0  0  0  0  0
   -0.8066   18.1632  -31.4665 H   0  0  0  0  0  0  0  0  0  0  0  0
   -0.6578   18.6924  -29.0327 H   0  0  0  0  0  0  0  0  0  0  0  0
   -3.1468   21.9758  -28.9032 H   0  0  0  0  0  0  0  0  0  0  0  0
   -3.8462   21.4453  -27.3090 H   0  0  0  0  0  0  0  0  0  0  0  0
   -4.2364   23.9694  -28.8139 H   0  0  0  0  0  0  0  0  0  0  0  0
   -5.2577   23.1720  -27.5465 H   0  0  0  0  0  0  0  0  0  0  0  0
   -4.4139   25.4048  -26.8306 H   0  0  0  0  0  0  0  0  0  0  0  0
   -3.8256   24.0518  -25.7859 H   0  0  0  0  0  0  0  0  0  0  0  0
   -2.3099   25.7524  -27.7800 H   0  0  0  0  0  0  0  0  0  0  0  0
   -1.8785   25.2500  -26.0856 H   0  0  0  0  0  0  0  0  0  0  0  0
   -1.4237   23.8341  -28.6880 H   0  0  0  0  0  0  0  0  0  0  0  0
   -0.4397   23.8595  -27.1775 H   0  0  0  0  0  0  0  0  0  0  0  0
   -1.4222   22.8662  -29.8933 H   0  0  0  0  0  0  0  0  0  0  0  0
   -1.5811   22.3360  -32.3242 H   0  0  0  0  0  0  0  0  0  0  0  0
   -4.5883   23.4828  -30.0462 H   0  0  0  0  0  0  0  0  0  0  0  0
   -3.6713   23.1739  -31.5596 H   0  0  0  0  0  0  0  0  0  0  0  0
   -5.0380   24.3395  -31.5596 H   0  0  0  0  0  0  0  0  0  0  0  0
   -9.3260   20.7460  -30.8386 H   0  0  0  0  0  0  0  0  0  0  0  0
   -9.4648   21.6356  -32.3929 H   0  0  0  0  0  0  0  0  0  0  0  0
   -9.0646   19.8845  -32.3929 H   0  0  0  0  0  0  0  0  0  0  0  0
   -5.8993   15.2486  -32.5804 H   0  0  0  0  0  0  0  0  0  0  0  0
   -4.4566   13.6039  -30.1377 H   0  0  0  0  0  0  0  0  0  0  0  0
   -5.7487   13.2802  -31.3428 H   0  0  0  0  0  0  0  0  0  0  0  0
   -4.2515   12.2877  -31.3428 H   0  0  0  0  0  0  0  0  0  0  0  0
  1  2  1  0
  2  3  2  0
  3  4  1  0
  4  5  2  0
  5  6  1  0
  6  7  2  0
  6  8  2  0
  6  9  1  0
  9 10  2  0
 10 11  1  0
 11 12  2  0
 12 13  1  0
 13 14  2  0
 14 15  1  0
 15 16  1  0
 16 17  2  0
 16 18  2  0
 16 19  1  0
 19 20  2  0
 20 21  1  0
 21 22  2  0
 22 23  1  0
 23 24  2  0
 23 25  2  0
 23 26  1  0
 26 27  1  0
 27 28  1  0
 28 29  1  0
 29 30  1  0
 30 31  1  0
 22 32  1  0
 32 33  2  0
 12 34  1  0
 34 35  1  0
 34 36  1  0
 36 37  2  0
 36 38  1  0
 38 39  1  0
  5 40  1  0
 40 41  2  0
 41 42  1  0
 41  2  1  0
 14  9  1  0
 33 19  1  0
 38 11  1  0
 31 26  1  0
  1 43  1  0
  1 44  1  0
  1 45  1  0
  3 46  1  0
  4 47  1  0
 10 48  1  0
 13 49  1  0
 20 50  1  0
 21 51  1  0
 27 52  1  0
 27 53  1  0
 28 54  1  0
 28 55  1  0
 29 56  1  0
 29 57  1  0
 30 58  1  0
 30 59  1  0
 31 60  1  0
 31 61  1  0
 32 62  1  0
 33 63  1  0
 35 64  1  0
 35 65  1  0
 35 66  1  0
 39 67  1  0
 39 68  1  0
 39 69  1  0
 40 70  1  0
 42 71  1  0
 42 72  1  0
 42 73  1  0
M  CHG  1  15  -1
M  END
>  <UniqueID>  (24) 
24

>  <SMILES>  (24) 
Cc1ccc(S(=O)(=O)c2cc3c(cc2[N-]S(=O)(=O)c2ccc(S(=O)(=O)N4CCCCC4)cc2)n(C)c(=O)n3C)cc1C

>  <Energy>  (24) 
128.7343250525297

>  <Genealogy>  (24) 
Cc1ccc(S(=O)(=O)c2cc3c(cc2[N-]S(=O)(=O)c2ccc(S(=O)(=O)N4CCCCC4)cc2)n(C)c(=O)n3C)cc1C (protonated)
Cc1ccc(S(=O)(=O)c2cc3c(cc2[N-]S(=O)(=O)c2ccc(S(=O)(=O)N4CCCCC4)cc2)n(C)c(=O)n3C)cc1C (3D coordinates assigned)
Cc1ccc(S(=O)(=O)c2cc3c(cc2[N-]S(=O)(=O)c2ccc(S(=O)(=O)N4CCCCC4)cc2)n(C)c(=O)n3C)cc1C (nonaromatic ring conformer: 128.7343250525297 kcal/mol)

>  <smiles>  (24) 
Cc1ccc(S(=O)(=O)c2cc3c(cc2NS(=O)(=O)c2ccc(S(=O)(=O)N4CCCCC4)cc2)n(C)c(=O)n3C)cc1C

>  <score_type>  (24) 
oracle

>  <origin>  (24) 
adgpu

>  <m_score__min__energy>  (24) 
-12.65

>  <m_primary>  (24) 
energy

$$$$
24:0
     RDKit          3D

 47 50  0  0  0  0  0  0  0  0999 V2000
   -2.3470   25.2800  -29.3510 F   0  0  0  0  0  0  0  0  0  0  0  0
   -1.6220   24.5900  -28.3980 C   0  0  0  0  0  0  0  0  0  0  0  0
   -2.3890   24.4630  -27.2520 F   0  0  0  0  0  0  0  0  0  0  0  0
   -0.4880   25.3180  -28.0800 F   0  0  0  0  0  0  0  0  0  0  0  0
   -1.2470   23.2360  -28.9440 C   0  0  0  0  0  0  0  0  0  0  0  0
   -0.3940   22.3850  -28.2210 C   0  0  0  0  0  0  0  0  0  0  0  0
   -0.0970   21.1080  -28.7010 C   0  0  0  0  0  0  0  0  0  0  0  0
   -0.6580   20.6590  -29.8980 C   0  0  0  0  0  0  0  0  0  0  0  0
   -1.5230   21.4870  -30.6290 C   0  0  0  0  0  0  0  0  0  0  0  0
   -2.1300   21.0100  -31.8450 N   0  0  0  0  0  0  0  0  0  0  0  0
   -2.5020   19.5970  -31.9780 C   0  0  0  0  0  0  0  0  0  0  0  0
   -3.6570   19.4380  -32.9840 C   0  0  0  0  0  0  0  0  0  0  0  0
   -4.6170   20.5620  -32.8970 N   0  0  0  0  0  0  0  0  0  0  0  0
   -5.3320   20.5760  -31.6010 C   0  0  0  0  0  0  0  0  0  0  0  0
   -6.7410   21.1070  -31.7670 C   0  0  0  0  0  0  0  0  0  0  0  0
   -7.7310   20.2200  -32.2340 C   0  0  0  0  0  0  0  0  0  0  0  0
   -9.0590   20.6270  -32.3480 C   0  0  0  0  0  0  0  0  0  0  0  0
   -9.4250   21.9230  -31.9950 C   0  0  0  0  0  0  0  0  0  0  0  0
   -8.4620   22.8210  -31.5340 C   0  0  0  0  0  0  0  0  0  0  0  0
   -7.1110   22.4390  -31.4240 C   0  0  0  0  0  0  0  0  0  0  0  0
   -6.1410   23.4550  -30.9430 C   0  0  0  0  0  0  0  0  0  0  0  0
   -5.2260   24.0820  -31.7110 N   0  0  0  0  0  0  0  0  0  0  0  0
   -4.6110   24.9240  -30.8980 N   0  0  0  0  0  0  0  0  0  0  0  0
   -5.1350   24.8190  -29.6900 N   0  0  0  0  0  0  0  0  0  0  0  0
   -6.1000   23.9170  -29.6760 N   0  0  0  0  0  0  0  0  0  0  0  0
   -3.9890   21.8730  -33.2170 C   0  0  0  0  0  0  0  0  0  0  0  0
   -2.4740   21.9250  -32.9360 C   0  0  0  0  0  0  0  0  0  0  0  0
   -1.8270   22.7680  -30.1370 C   0  0  0  0  0  0  0  0  0  0  0  0
    0.0424   22.7270  -27.2710 H   0  0  0  0  0  0  0  0  0  0  0  0
    0.5813   20.4534  -28.1341 H   0  0  0  0  0  0  0  0  0  0  0  0
   -0.4207   19.6513  -30.2697 H   0  0  0  0  0  0  0  0  0  0  0  0
   -1.6317   19.0249  -32.3321 H   0  0  0  0  0  0  0  0  0  0  0  0
   -2.8287   19.2204  -30.9975 H   0  0  0  0  0  0  0  0  0  0  0  0
   -3.2411   19.4023  -34.0017 H   0  0  0  0  0  0  0  0  0  0  0  0
   -4.1945   18.5084  -32.7452 H   0  0  0  0  0  0  0  0  0  0  0  0
   -5.3777   19.5513  -31.2038 H   0  0  0  0  0  0  0  0  0  0  0  0
   -4.7882   21.2332  -30.9065 H   0  0  0  0  0  0  0  0  0  0  0  0
   -7.4522   19.1929  -32.5122 H   0  0  0  0  0  0  0  0  0  0  0  0
   -9.8193   19.9231  -32.7175 H   0  0  0  0  0  0  0  0  0  0  0  0
  -10.4751   22.2394  -32.0797 H   0  0  0  0  0  0  0  0  0  0  0  0
   -8.7620   23.8412  -31.2526 H   0  0  0  0  0  0  0  0  0  0  0  0
   -4.8330   25.3770  -28.8620 H   0  0  0  0  0  0  0  0  0  0  0  0
   -4.1507   22.0831  -34.2846 H   0  0  0  0  0  0  0  0  0  0  0  0
   -4.4609   22.6212  -32.5632 H   0  0  0  0  0  0  0  0  0  0  0  0
   -1.9259   21.6309  -33.8433 H   0  0  0  0  0  0  0  0  0  0  0  0
   -2.1978   22.9494  -32.6458 H   0  0  0  0  0  0  0  0  0  0  0  0
   -2.5262   23.4117  -30.6910 H   0  0  0  0  0  0  0  0  0  0  0  0
  1  2  1  0
  2  3  1  0
  2  4  1  0
  2  5  1  0
  5  6  2  0
  6  7  1  0
  7  8  2  0
  8  9  1  0
  9 10  1  0
 10 11  1  0
 11 12  1  0
 12 13  1  0
 13 14  1  0
 14 15  1  0
 15 16  2  0
 16 17  1  0
 17 18  2  0
 18 19  1  0
 19 20  2  0
 20 21  1  0
 21 22  1  0
 22 23  2  0
 23 24  1  0
 24 25  1  0
 13 26  1  0
 26 27  1  0
  9 28  2  0
 28  5  1  0
 27 10  1  0
 20 15  1  0
 25 21  2  0
  6 29  1  0
  7 30  1  0
  8 31  1  0
 11 32  1  0
 11 33  1  0
 12 34  1  0
 12 35  1  0
 14 36  1  0
 14 37  1  0
 16 38  1  0
 17 39  1  0
 18 40  1  0
 19 41  1  0
 24 42  1  0
 26 43  1  0
 26 44  1  0
 27 45  1  0
 27 46  1  0
 28 47  1  0
M  END
>  <UniqueID>  (25) 
25

>  <SMILES>  (25) 
FC(F)(F)c1cccc(N2CCN(Cc3ccccc3-c3nn[nH]n3)CC2)c1

>  <Energy>  (25) 
105.32091366129718

>  <Genealogy>  (25) 
FC(F)(F)c1cccc(N2CCN(Cc3ccccc3-c3nn[nH]n3)CC2)c1 (3D coordinates assigned)
FC(F)(F)c1cccc(N2CCN(Cc3ccccc3-c3nn[nH]n3)CC2)c1 (nonaromatic ring conformer: 105.32091366129718 kcal/mol)

>  <smiles>  (25) 
FC(F)(F)c1cccc(N2CCN(Cc3ccccc3-c3nn[nH]n3)CC2)c1

>  <score_type>  (25) 
oracle

>  <origin>  (25) 
adgpu

>  <m_score__min__energy>  (25) 
-9.0600000000000005

>  <m_primary>  (25) 
energy

$$$$
25:0
     RDKit          3D

 38 40  0  0  0  0  0  0  0  0999 V2000
   -7.8060   19.1290  -31.5780 C   0  0  0  0  0  0  0  0  0  0  0  0
   -6.5770   19.7270  -32.1820 C   0  0  0  0  0  0  0  0  0  0  0  0
   -5.6400   19.0040  -32.8260 N   0  0  0  0  0  0  0  0  0  0  0  0
   -4.6870   19.8360  -33.2180 N   0  0  0  0  0  0  0  0  0  0  0  0
   -3.4990   19.4030  -33.9460 C   0  0  0  0  0  0  0  0  0  0  0  0
   -4.9910   21.0940  -32.8310 C   0  0  0  0  0  0  0  0  0  0  0  0
   -4.1540   22.3120  -33.0830 C   0  0  0  0  0  0  0  0  0  0  0  0
   -6.2040   21.0630  -32.1670 C   0  0  0  0  0  0  0  0  0  0  0  0
   -7.0480   22.4260  -31.4320 S   0  0  0  0  0  0  0  0  0  0  0  0
   -8.1290   21.9370  -30.5100 O   0  0  0  0  0  0  0  0  0  0  0  0
   -7.6940   23.2430  -32.5140 O   0  0  0  0  0  0  0  0  0  0  0  0
   -5.9120   23.3650  -30.5020 N   0  0  0  0  0  0  0  0  0  0  0  0
   -6.2390   24.7680  -30.2270 C   0  0  0  0  0  0  0  0  0  0  0  0
   -5.1730   25.6680  -30.8590 C   0  0  0  0  0  0  0  0  0  0  0  0
   -3.8670   25.2590  -30.4480 O   0  0  0  0  0  0  0  0  0  0  0  0
   -3.5420   23.9140  -30.2370 C   0  0  0  0  0  0  0  0  0  0  0  0
   -2.2170   23.5490  -29.9780 C   0  0  0  0  0  0  0  0  0  0  0  0
   -1.8960   22.2140  -29.7210 C   0  0  0  0  0  0  0  0  0  0  0  0
   -2.9020   21.2440  -29.7040 C   0  0  0  0  0  0  0  0  0  0  0  0
   -4.2290   21.6020  -29.9590 C   0  0  0  0  0  0  0  0  0  0  0  0
   -4.5560   22.9370  -30.2560 C   0  0  0  0  0  0  0  0  0  0  0  0
   -7.7306   19.1657  -30.4812 H   0  0  0  0  0  0  0  0  0  0  0  0
   -8.6890   19.6982  -31.9041 H   0  0  0  0  0  0  0  0  0  0  0  0
   -7.9031   18.0829  -31.9041 H   0  0  0  0  0  0  0  0  0  0  0  0
   -2.7143   19.1170  -33.2302 H   0  0  0  0  0  0  0  0  0  0  0  0
   -3.7511   18.5389  -34.5783 H   0  0  0  0  0  0  0  0  0  0  0  0
   -3.1360   20.2266  -34.5783 H   0  0  0  0  0  0  0  0  0  0  0  0
   -3.8506   22.7536  -32.1223 H   0  0  0  0  0  0  0  0  0  0  0  0
   -3.2584   22.0294  -33.6558 H   0  0  0  0  0  0  0  0  0  0  0  0
   -4.7389   23.0467  -33.6558 H   0  0  0  0  0  0  0  0  0  0  0  0
   -7.2234   25.0070  -30.6559 H   0  0  0  0  0  0  0  0  0  0  0  0
   -6.2655   24.9346  -29.1400 H   0  0  0  0  0  0  0  0  0  0  0  0
   -5.2455   25.6011  -31.9546 H   0  0  0  0  0  0  0  0  0  0  0  0
   -5.3416   26.7044  -30.5311 H   0  0  0  0  0  0  0  0  0  0  0  0
   -1.4267   24.3141  -29.9767 H   0  0  0  0  0  0  0  0  0  0  0  0
   -0.8513   21.9262  -29.5320 H   0  0  0  0  0  0  0  0  0  0  0  0
   -2.6487   20.1953  -29.4892 H   0  0  0  0  0  0  0  0  0  0  0  0
   -5.0193   20.8375  -29.9272 H   0  0  0  0  0  0  0  0  0  0  0  0
  1  2  1  0
  2  3  2  0
  3  4  1  0
  4  5  1  0
  4  6  1  0
  6  7  1  0
  6  8  2  0
  8  9  1  0
  9 10  2  0
  9 11  2  0
  9 12  1  0
 12 13  1  0
 13 14  1  0
 14 15  1  0
 15 16  1  0
 16 17  2  0
 17 18  1  0
 18 19  2  0
 19 20  1  0
 20 21  2  0
  8  2  1  0
 21 12  1  0
 21 16  1  0
  1 22  1  0
  1 23  1  0
  1 24  1  0
  5 25  1  0
  5 26  1  0
  5 27  1  0
  7 28  1  0
  7 29  1  0
  7 30  1  0
 13 31  1  0
 13 32  1  0
 14 33  1  0
 14 34  1  0
 17 35  1  0
 18 36  1  0
 19 37  1  0
 20 38  1  0
M  END
>  <UniqueID>  (26) 
26

>  <SMILES>  (26) 
Cc1nn(C)c(C)c1S(=O)(=O)N1CCOc2ccccc21

>  <Energy>  (26) 
73.2158724989326

>  <Genealogy>  (26) 
Cc1nn(C)c(C)c1S(=O)(=O)N1CCOc2ccccc21 (3D coordinates assigned)
Cc1nn(C)c(C)c1S(=O)(=O)N1CCOc2ccccc21 (nonaromatic ring conformer: 73.2158724989326 kcal/mol)

>  <smiles>  (26) 
Cc1nn(C)c(C)c1S(=O)(=O)N1CCOc2ccccc21

>  <score_type>  (26) 
oracle

>  <origin>  (26) 
adgpu

>  <m_score__min__energy>  (26) 
-7.7300000000000004

>  <m_primary>  (26) 
energy

$$$$
26:0
     RDKit          3D

 53 56  0  0  0  0  0  0  0  0999 V2000
   -2.0910   19.6390  -26.8080 C   0  0  0  0  0  0  0  0  0  0  0  0
   -0.8510   19.1530  -27.5660 C   0  0  0  0  0  0  0  0  0  0  0  0
   -0.0010   20.2430  -28.0870 N   0  0  0  0  0  0  0  0  0  0  0  0
    0.1780   21.3650  -27.1210 C   0  0  0  0  0  0  0  0  0  0  0  0
    0.2370   22.7570  -27.7850 C   0  0  0  0  0  0  0  0  0  0  0  0
   -0.9070   22.8940  -28.7430 C   0  0  0  0  0  0  0  0  0  0  0  0
   -1.6700   24.0640  -28.8340 C   0  0  0  0  0  0  0  0  0  0  0  0
   -2.7480   24.1350  -29.7300 C   0  0  0  0  0  0  0  0  0  0  0  0
   -3.4990   25.3000  -29.8310 O   0  0  0  0  0  0  0  0  0  0  0  0
   -3.0800   23.0210  -30.5240 C   0  0  0  0  0  0  0  0  0  0  0  0
   -4.2330   23.0890  -31.3770 N   0  0  0  0  0  0  0  0  0  0  0  0
   -5.8080   23.6670  -30.9120 S   0  0  0  0  0  0  0  0  0  0  0  0
   -6.0400   25.0390  -31.4960 O   0  0  0  0  0  0  0  0  0  0  0  0
   -5.8600   23.8020  -29.4160 O   0  0  0  0  0  0  0  0  0  0  0  0
   -7.0700   22.5390  -31.4630 C   0  0  0  0  0  0  0  0  0  0  0  0
   -8.4000   23.0060  -31.5660 C   0  0  0  0  0  0  0  0  0  0  0  0
   -9.4160   22.1650  -32.0110 C   0  0  0  0  0  0  0  0  0  0  0  0
   -9.1340   20.8360  -32.3300 C   0  0  0  0  0  0  0  0  0  0  0  0
   -7.8310   20.3450  -32.2020 C   0  0  0  0  0  0  0  0  0  0  0  0
   -6.7880   21.1850  -31.7880 C   0  0  0  0  0  0  0  0  0  0  0  0
   -5.1560   20.4370  -31.5740 S   0  0  0  0  0  0  0  0  0  0  0  0
   -5.4920   18.9960  -32.5950 C   0  0  0  0  0  0  0  0  0  0  0  0
   -5.9660   17.8180  -32.0010 C   0  0  0  0  0  0  0  0  0  0  0  0
   -6.3180   16.7200  -32.8000 C   0  0  0  0  0  0  0  0  0  0  0  0
   -6.1940   16.7940  -34.1930 C   0  0  0  0  0  0  0  0  0  0  0  0
   -5.7480   17.9760  -34.7890 C   0  0  0  0  0  0  0  0  0  0  0  0
   -5.4100   19.0800  -33.9920 C   0  0  0  0  0  0  0  0  0  0  0  0
   -2.2720   21.8690  -30.4650 C   0  0  0  0  0  0  0  0  0  0  0  0
   -1.1950   21.8100  -29.5740 C   0  0  0  0  0  0  0  0  0  0  0  0
   -0.2990   20.6040  -29.4950 C   0  0  0  0  0  0  0  0  0  0  0  0
   -1.9101   19.5681  -25.7253 H   0  0  0  0  0  0  0  0  0  0  0  0
   -2.2988   20.6851  -27.0773 H   0  0  0  0  0  0  0  0  0  0  0  0
   -2.9542   19.0127  -27.0773 H   0  0  0  0  0  0  0  0  0  0  0  0
   -0.2461   18.5390  -26.8825 H   0  0  0  0  0  0  0  0  0  0  0  0
   -1.2117   18.5861  -28.4369 H   0  0  0  0  0  0  0  0  0  0  0  0
   -0.6660   21.3530  -26.4156 H   0  0  0  0  0  0  0  0  0  0  0  0
    1.1460   21.2069  -26.6231 H   0  0  0  0  0  0  0  0  0  0  0  0
    0.1654   23.5367  -27.0123 H   0  0  0  0  0  0  0  0  0  0  0  0
    1.1881   22.8686  -28.3263 H   0  0  0  0  0  0  0  0  0  0  0  0
   -1.4241   24.9299  -28.2017 H   0  0  0  0  0  0  0  0  0  0  0  0
   -4.5000   25.2690  -29.9630 H   0  0  0  0  0  0  0  0  0  0  0  0
   -8.6347   24.0450  -31.2916 H   0  0  0  0  0  0  0  0  0  0  0  0
  -10.4422   22.5483  -32.1113 H   0  0  0  0  0  0  0  0  0  0  0  0
   -9.9382   20.1735  -32.6828 H   0  0  0  0  0  0  0  0  0  0  0  0
   -7.6224   19.2890  -32.4285 H   0  0  0  0  0  0  0  0  0  0  0  0
   -6.0620   17.7546  -30.9070 H   0  0  0  0  0  0  0  0  0  0  0  0
   -6.6925   15.7982  -32.3310 H   0  0  0  0  0  0  0  0  0  0  0  0
   -6.4472   15.9236  -34.8162 H   0  0  0  0  0  0  0  0  0  0  0  0
   -5.6618   18.0412  -35.8837 H   0  0  0  0  0  0  0  0  0  0  0  0
   -5.0790   20.0161  -34.4655 H   0  0  0  0  0  0  0  0  0  0  0  0
   -2.4883   21.0132  -31.1213 H   0  0  0  0  0  0  0  0  0  0  0  0
   -0.7980   19.7546  -29.9844 H   0  0  0  0  0  0  0  0  0  0  0  0
    0.6489   20.8430  -29.9994 H   0  0  0  0  0  0  0  0  0  0  0  0
  1  2  1  0
  2  3  1  0
  3  4  1  0
  4  5  1  0
  5  6  1  0
  6  7  2  0
  7  8  1  0
  8  9  1  0
  8 10  2  0
 10 11  1  0
 11 12  1  0
 12 13  2  0
 12 14  2  0
 12 15  1  0
 15 16  2  0
 16 17  1  0
 17 18  2  0
 18 19  1  0
 19 20  2  0
 20 21  1  0
 21 22  1  0
 22 23  2  0
 23 24  1  0
 24 25  2  0
 25 26  1  0
 26 27  2  0
 10 28  1  0
 28 29  2  0
 29 30  1  0
 30  3  1  0
 29  6  1  0
 20 15  1  0
 27 22  1  0
  1 31  1  0
  1 32  1  0
  1 33  1  0
  2 34  1  0
  2 35  1  0
  4 36  1  0
  4 37  1  0
  5 38  1  0
  5 39  1  0
  7 40  1  0
  9 41  1  0
 16 42  1  0
 17 43  1  0
 18 44  1  0
 19 45  1  0
 23 46  1  0
 24 47  1  0
 25 48  1  0
 26 49  1  0
 27 50  1  0
 28 51  1  0
 30 52  1  0
 30 53  1  0
M  CHG  1  11  -1
M  END
>  <UniqueID>  (27) 
27

>  <SMILES>  (27) 
CCN1CCc2cc(O)c([N-]S(=O)(=O)c3ccccc3Sc3ccccc3)cc2C1

>  <Energy>  (27) 
68.17653486273063

>  <Genealogy>  (27) 
CCN1CCc2cc(O)c([N-]S(=O)(=O)c3ccccc3Sc3ccccc3)cc2C1 (protonated)
CCN1CCc2cc(O)c([N-]S(=O)(=O)c3ccccc3Sc3ccccc3)cc2C1 (3D coordinates assigned)
CCN1CCc2cc(O)c([N-]S(=O)(=O)c3ccccc3Sc3ccccc3)cc2C1 (nonaromatic ring conformer: 68.17653486273063 kcal/mol)

>  <smiles>  (27) 
CCN1CCc2cc(O)c(NS(=O)(=O)c3ccccc3Sc3ccccc3)cc2C1

>  <score_type>  (27) 
oracle

>  <origin>  (27) 
adgpu

>  <m_score__min__energy>  (27) 
-11.17

>  <m_primary>  (27) 
energy

$$$$
27:0
     RDKit          3D

 45 48  0  0  0  0  0  0  0  0999 V2000
    0.5559   24.5436  -27.4754 H   0  0  0  0  0  0  0  0  0  0  0  0
   -0.4340   24.6360  -27.9460 C   0  0  0  0  0  0  0  0  0  0  0  0
   -0.7190   25.3810  -28.9930 O   0  0  0  0  0  0  0  0  0  0  0  0
   -1.9750   25.2860  -29.3180 N   0  0  0  0  0  0  0  0  0  0  0  0
   -2.5240   24.4320  -28.4330 C   0  0  0  0  0  0  0  0  0  0  0  0
   -3.7720   24.0790  -28.4290 N   0  0  0  0  0  0  0  0  0  0  0  0
   -4.9250   24.6650  -29.5820 S   0  0  0  0  0  0  0  0  0  0  0  0
   -4.2400   25.5600  -30.5780 O   0  0  0  0  0  0  0  0  0  0  0  0
   -6.0020   25.4420  -28.8800 O   0  0  0  0  0  0  0  0  0  0  0  0
   -5.6420   23.2920  -30.4180 C   0  0  0  0  0  0  0  0  0  0  0  0
   -4.8650   22.1690  -30.7230 C   0  0  0  0  0  0  0  0  0  0  0  0
   -3.8004   22.1504  -30.4470 H   0  0  0  0  0  0  0  0  0  0  0  0
   -5.4310   21.0720  -31.3750 C   0  0  0  0  0  0  0  0  0  0  0  0
   -4.8088   20.1949  -31.6061 H   0  0  0  0  0  0  0  0  0  0  0  0
   -6.7930   21.0780  -31.7400 C   0  0  0  0  0  0  0  0  0  0  0  0
   -7.3970   19.9810  -32.4090 C   0  0  0  0  0  0  0  0  0  0  0  0
   -6.6290   18.7880  -32.8280 C   0  0  0  0  0  0  0  0  0  0  0  0
   -7.1430   17.5110  -32.5650 C   0  0  0  0  0  0  0  0  0  0  0  0
   -8.1083   17.4070  -32.0478 H   0  0  0  0  0  0  0  0  0  0  0  0
   -6.4400   16.3710  -32.9540 C   0  0  0  0  0  0  0  0  0  0  0  0
   -6.8455   15.3744  -32.7251 H   0  0  0  0  0  0  0  0  0  0  0  0
   -5.2180   16.4870  -33.6360 C   0  0  0  0  0  0  0  0  0  0  0  0
   -4.4320   15.2550  -34.0130 C   0  0  0  0  0  0  0  0  0  0  0  0
   -3.7970   15.4730  -35.2210 F   0  0  0  0  0  0  0  0  0  0  0  0
   -5.2710   14.1600  -34.1340 F   0  0  0  0  0  0  0  0  0  0  0  0
   -3.4810   14.9640  -33.0500 F   0  0  0  0  0  0  0  0  0  0  0  0
   -4.6930   17.7660  -33.8860 C   0  0  0  0  0  0  0  0  0  0  0  0
   -3.7203   17.8650  -34.3901 H   0  0  0  0  0  0  0  0  0  0  0  0
   -5.3970   18.9230  -33.4990 C   0  0  0  0  0  0  0  0  0  0  0  0
   -4.9100   20.2140  -33.7650 O   0  0  0  0  0  0  0  0  0  0  0  0
   -3.5320   20.5600  -33.8330 C   0  0  0  0  0  0  0  0  0  0  0  0
   -3.1287   20.6613  -32.8146 H   0  0  0  0  0  0  0  0  0  0  0  0
   -2.9821   19.7720  -34.3685 H   0  0  0  0  0  0  0  0  0  0  0  0
   -3.4195   21.5143  -34.3685 H   0  0  0  0  0  0  0  0  0  0  0  0
   -8.7690   20.0220  -32.7000 C   0  0  0  0  0  0  0  0  0  0  0  0
   -9.2444   19.1663  -33.2018 H   0  0  0  0  0  0  0  0  0  0  0  0
   -9.5370   21.1360  -32.3600 C   0  0  0  0  0  0  0  0  0  0  0  0
  -10.6110   21.1535  -32.5969 H   0  0  0  0  0  0  0  0  0  0  0  0
   -8.9500   22.2260  -31.7220 C   0  0  0  0  0  0  0  0  0  0  0  0
   -9.5606   23.1043  -31.4656 H   0  0  0  0  0  0  0  0  0  0  0  0
   -7.5840   22.2090  -31.4050 C   0  0  0  0  0  0  0  0  0  0  0  0
   -7.0020   23.3050  -30.7500 C   0  0  0  0  0  0  0  0  0  0  0  0
   -7.6183   24.1800  -30.4958 H   0  0  0  0  0  0  0  0  0  0  0  0
   -1.5810   23.9910  -27.5370 C   0  0  0  0  0  0  0  0  0  0  0  0
   -1.7100   23.2926  -26.6970 H   0  0  0  0  0  0  0  0  0  0  0  0
  1  2  1  0
  2  3  1  0
  3  4  1  0
  4  5  1  0
  5  6  2  0
  6  7  1  0
  7  8  2  0
  7  9  2  0
  7 10  1  0
 10 11  2  0
 11 12  1  0
 11 13  1  0
 13 14  1  0
 13 15  2  0
 15 16  1  0
 16 17  1  0
 17 18  2  0
 18 19  1  0
 18 20  1  0
 20 21  1  0
 20 22  2  0
 22 23  1  0
 23 24  1  0
 23 25  1  0
 23 26  1  0
 22 27  1  0
 27 28  1  0
 27 29  2  0
 29 30  1  0
 30 31  1  0
 31 32  1  0
 31 33  1  0
 31 34  1  0
 16 35  2  0
 35 36  1  0
 35 37  1  0
 37 38  1  0
 37 39  2  0
 39 40  1  0
 39 41  1  0
 41 42  2  0
 42 43  1  0
  5 44  1  0
 44 45  1  0
 44  2  2  0
 42 10  1  0
 41 15  1  0
 29 17  1  0
M  CHG  1   4  -1
M  END
>  <UniqueID>  (28) 
28

>  <SMILES>  (28) 
COc1cc(C(F)(F)F)ccc1-c1cccc2cc(S(=O)(=O)/N=c3/cco[n-]3)ccc12

>  <Energy>  (28) 
95.89196102799445

>  <Genealogy>  (28) 
COc1cc(C(F)(F)F)ccc1-c1cccc2cc(S(=O)(=O)N=c3cco[n-]3)ccc12 (protonated)
COc1cc(C(F)(F)F)ccc1-c1cccc2cc(S(=O)(=O)/N=c3/cco[n-]3)ccc12 (cis-trans isomerization)
COc1cc(C(F)(F)F)ccc1-c1cccc2cc(S(=O)(=O)/N=c3/cco[n-]3)ccc12 (3D coordinates assigned)
COc1cc(C(F)(F)F)ccc1-c1cccc2cc(S(=O)(=O)/N=c3/cco[n-]3)ccc12 (optimized conformer: 95.89196102799445 kcal/mol)

>  <smiles>  (28) 
COc1cc(C(F)(F)F)ccc1-c1cccc2cc(S(=O)(=O)N=c3cco[nH]3)ccc12

>  <score_type>  (28) 
oracle

>  <origin>  (28) 
adgpu

>  <m_score__min__energy>  (28) 
-11.85

>  <m_primary>  (28) 
energy

$$$$
28:0
     RDKit          3D

 54 57  0  0  0  0  0  0  0  0999 V2000
   -5.9690   18.4480  -33.3440 C   0  0  0  0  0  0  0  0  0  0  0  0
   -5.8280   19.8430  -32.7910 C   0  0  0  0  0  0  0  0  0  0  0  0
   -6.9820   20.5200  -32.3630 C   0  0  0  0  0  0  0  0  0  0  0  0
   -6.8990   21.8080  -31.8370 C   0  0  0  0  0  0  0  0  0  0  0  0
   -5.6630   22.4490  -31.7410 C   0  0  0  0  0  0  0  0  0  0  0  0
   -5.5680   24.0420  -30.9940 S   0  0  0  0  0  0  0  0  0  0  0  0
   -6.3820   24.0300  -29.7300 O   0  0  0  0  0  0  0  0  0  0  0  0
   -6.1080   25.1030  -31.9140 O   0  0  0  0  0  0  0  0  0  0  0  0
   -3.9150   24.3970  -30.6040 N   0  0  0  0  0  0  0  0  0  0  0  0
   -3.1410   23.6950  -29.6200 C   0  0  0  0  0  0  0  0  0  0  0  0
   -3.4310   22.3680  -29.2600 C   0  0  0  0  0  0  0  0  0  0  0  0
   -2.7140   21.7320  -28.2340 C   0  0  0  0  0  0  0  0  0  0  0  0
   -1.6520   22.4070  -27.6030 C   0  0  0  0  0  0  0  0  0  0  0  0
   -1.3480   23.7230  -27.9840 C   0  0  0  0  0  0  0  0  0  0  0  0
   -2.0850   24.3610  -28.9850 C   0  0  0  0  0  0  0  0  0  0  0  0
   -1.7750   25.6700  -29.3320 O   0  0  0  0  0  0  0  0  0  0  0  0
   -0.9050   21.7750  -26.4510 C   0  0  0  0  0  0  0  0  0  0  0  0
   -0.9970   20.3020  -26.4440 N   0  0  0  0  0  0  0  0  0  0  0  0
   -0.1150   19.6890  -27.4540 C   0  0  0  0  0  0  0  0  0  0  0  0
   -2.3980   19.8530  -26.5670 C   0  0  0  0  0  0  0  0  0  0  0  0
   -3.0530   20.3090  -27.8800 C   0  0  0  0  0  0  0  0  0  0  0  0
   -4.5070   21.7960  -32.1870 C   0  0  0  0  0  0  0  0  0  0  0  0
   -4.5720   20.4920  -32.7060 C   0  0  0  0  0  0  0  0  0  0  0  0
   -3.0760   19.6840  -33.2130 S   0  0  0  0  0  0  0  0  0  0  0  0
   -3.3050   18.1990  -33.2810 O   0  0  0  0  0  0  0  0  0  0  0  0
   -2.6750   20.1780  -34.5750 O   0  0  0  0  0  0  0  0  0  0  0  0
   -1.7500   19.9890  -32.0880 C   0  0  0  0  0  0  0  0  0  0  0  0
   -1.4470   21.3050  -31.7020 C   0  0  0  0  0  0  0  0  0  0  0  0
   -0.3850   21.5550  -30.8280 C   0  0  0  0  0  0  0  0  0  0  0  0
    0.3780   20.4940  -30.3350 C   0  0  0  0  0  0  0  0  0  0  0  0
    0.0840   19.1820  -30.7200 C   0  0  0  0  0  0  0  0  0  0  0  0
   -0.9760   18.9290  -31.5980 C   0  0  0  0  0  0  0  0  0  0  0  0
   -6.0416   17.7301  -32.5138 H   0  0  0  0  0  0  0  0  0  0  0  0
   -6.8778   18.3882  -33.9609 H   0  0  0  0  0  0  0  0  0  0  0  0
   -5.0906   18.2076  -33.9609 H   0  0  0  0  0  0  0  0  0  0  0  0
   -7.9625   20.0279  -32.4439 H   0  0  0  0  0  0  0  0  0  0  0  0
   -7.8105   22.3209  -31.4965 H   0  0  0  0  0  0  0  0  0  0  0  0
   -4.2274   21.8222  -29.7871 H   0  0  0  0  0  0  0  0  0  0  0  0
   -0.5225   24.2568  -27.4904 H   0  0  0  0  0  0  0  0  0  0  0  0
    0.1551   22.0598  -26.5220 H   0  0  0  0  0  0  0  0  0  0  0  0
   -1.3659   22.1383  -25.5206 H   0  0  0  0  0  0  0  0  0  0  0  0
    0.6877   19.1311  -26.9496 H   0  0  0  0  0  0  0  0  0  0  0  0
   -0.6999   19.0018  -28.0829 H   0  0  0  0  0  0  0  0  0  0  0  0
    0.3252   20.4768  -28.0829 H   0  0  0  0  0  0  0  0  0  0  0  0
   -2.4204   18.7540  -26.5255 H   0  0  0  0  0  0  0  0  0  0  0  0
   -2.9652   20.3026  -25.7387 H   0  0  0  0  0  0  0  0  0  0  0  0
   -2.7078   19.6524  -28.6922 H   0  0  0  0  0  0  0  0  0  0  0  0
   -4.1432   20.2505  -27.7456 H   0  0  0  0  0  0  0  0  0  0  0  0
   -3.5363   22.3104  -32.1302 H   0  0  0  0  0  0  0  0  0  0  0  0
   -2.0473   22.1417  -32.0887 H   0  0  0  0  0  0  0  0  0  0  0  0
   -0.1503   22.5871  -30.5286 H   0  0  0  0  0  0  0  0  0  0  0  0
    1.2106   20.6904  -29.6435 H   0  0  0  0  0  0  0  0  0  0  0  0
    0.6869   18.3477  -30.3321 H   0  0  0  0  0  0  0  0  0  0  0  0
   -1.2017   17.8967  -31.9037 H   0  0  0  0  0  0  0  0  0  0  0  0
  1  2  1  0
  2  3  2  0
  3  4  1  0
  4  5  2  0
  5  6  1  0
  6  7  2  0
  6  8  2  0
  6  9  1  0
  9 10  1  0
 10 11  2  0
 11 12  1  0
 12 13  2  0
 13 14  1  0
 14 15  2  0
 15 16  1  0
 13 17  1  0
 17 18  1  0
 18 19  1  0
 18 20  1  0
 20 21  1  0
  5 22  1  0
 22 23  2  0
 23 24  1  0
 24 25  2  0
 24 26  2  0
 24 27  1  0
 27 28  2  0
 28 29  1  0
 29 30  2  0
 30 31  1  0
 31 32  2  0
 23  2  1  0
 32 27  1  0
 15 10  1  0
 21 12  1  0
  1 33  1  0
  1 34  1  0
  1 35  1  0
  3 36  1  0
  4 37  1  0
 11 38  1  0
 14 39  1  0
 17 40  1  0
 17 41  1  0
 19 42  1  0
 19 43  1  0
 19 44  1  0
 20 45  1  0
 20 46  1  0
 21 47  1  0
 21 48  1  0
 22 49  1  0
 28 50  1  0
 29 51  1  0
 30 52  1  0
 31 53  1  0
 32 54  1  0
M  CHG  2   9  -1  16  -1
M  END
>  <UniqueID>  (29) 
29

>  <SMILES>  (29) 
Cc1ccc(S(=O)(=O)[N-]c2cc3c(cc2[O-])CN(C)CC3)cc1S(=O)(=O)c1ccccc1

>  <Energy>  (29) 
68.6905120135332

>  <Genealogy>  (29) 
Cc1ccc(S(=O)(=O)[N-]c2cc3c(cc2[O-])CN(C)CC3)cc1S(=O)(=O)c1ccccc1 (protonated)
Cc1ccc(S(=O)(=O)[N-]c2cc3c(cc2[O-])CN(C)CC3)cc1S(=O)(=O)c1ccccc1 (3D coordinates assigned)
Cc1ccc(S(=O)(=O)[N-]c2cc3c(cc2[O-])CN(C)CC3)cc1S(=O)(=O)c1ccccc1 (nonaromatic ring conformer: 68.6905120135332 kcal/mol)

>  <smiles>  (29) 
Cc1ccc(S(=O)(=O)Nc2cc3c(cc2O)CN(C)CC3)cc1S(=O)(=O)c1ccccc1

>  <score_type>  (29) 
oracle

>  <origin>  (29) 
adgpu

>  <m_score__min__energy>  (29) 
-15.48

>  <m_primary>  (29) 
energy

$$$$
29:0
     RDKit          3D

 60 63  0  0  0  0  0  0  0  0999 V2000
   -1.0560   14.3680  -36.4810 N   0  0  0  0  0  0  0  0  0  0  0  0
   -1.1790   15.3150  -35.8320 C   0  0  0  0  0  0  0  0  0  0  0  0
   -1.3420   16.4930  -35.0240 C   0  0  0  0  0  0  0  0  0  0  0  0
   -2.2330   16.4880  -33.9440 C   0  0  0  0  0  0  0  0  0  0  0  0
   -2.4390   17.6500  -33.1920 C   0  0  0  0  0  0  0  0  0  0  0  0
   -1.7430   18.8320  -33.5100 C   0  0  0  0  0  0  0  0  0  0  0  0
   -1.9950   20.0750  -32.8240 N   0  0  0  0  0  0  0  0  0  0  0  0
   -1.1020   21.2030  -32.8300 C   0  0  0  0  0  0  0  0  0  0  0  0
   -0.5750   21.5920  -33.9090 O   0  0  0  0  0  0  0  0  0  0  0  0
   -0.8010   21.9010  -31.6190 N   0  0  0  0  0  0  0  0  0  0  0  0
   -1.2500   21.3260  -30.0460 S   0  0  0  0  0  0  0  0  0  0  0  0
   -0.0080   21.1210  -29.2220 O   0  0  0  0  0  0  0  0  0  0  0  0
   -1.9630   20.0080  -30.1940 O   0  0  0  0  0  0  0  0  0  0  0  0
   -2.2930   22.4930  -29.2420 C   0  0  0  0  0  0  0  0  0  0  0  0
   -2.1500   22.7450  -27.8670 C   0  0  0  0  0  0  0  0  0  0  0  0
   -3.0310   23.6150  -27.2200 C   0  0  0  0  0  0  0  0  0  0  0  0
   -4.0600   24.2350  -27.9370 C   0  0  0  0  0  0  0  0  0  0  0  0
   -4.1970   24.0000  -29.3120 C   0  0  0  0  0  0  0  0  0  0  0  0
   -5.5260   24.7080  -30.2250 S   0  0  0  0  0  0  0  0  0  0  0  0
   -4.9890   25.6960  -31.2230 O   0  0  0  0  0  0  0  0  0  0  0  0
   -6.4740   25.4310  -29.3070 O   0  0  0  0  0  0  0  0  0  0  0  0
   -6.3800   23.4070  -31.0550 C   0  0  0  0  0  0  0  0  0  0  0  0
   -7.7800   23.3940  -31.1000 C   0  0  0  0  0  0  0  0  0  0  0  0
   -8.4510   22.3410  -31.7330 C   0  0  0  0  0  0  0  0  0  0  0  0
   -7.7250   21.3000  -32.3230 C   0  0  0  0  0  0  0  0  0  0  0  0
   -6.3240   21.3010  -32.2720 C   0  0  0  0  0  0  0  0  0  0  0  0
   -5.4010   19.9860  -33.0010 S   0  0  0  0  0  0  0  0  0  0  0  0
   -4.7710   19.1620  -31.9110 O   0  0  0  0  0  0  0  0  0  0  0  0
   -4.2950   20.5710  -33.8380 O   0  0  0  0  0  0  0  0  0  0  0  0
   -6.4060   18.9540  -33.9940 N   0  0  0  0  0  0  0  0  0  0  0  0
   -7.2040   18.0260  -33.1780 C   0  0  0  0  0  0  0  0  0  0  0  0
   -6.4970   16.6750  -33.1670 C   0  0  0  0  0  0  0  0  0  0  0  0
   -5.4290   16.7540  -34.2400 C   0  0  0  0  0  0  0  0  0  0  0  0
   -5.5960   18.1200  -34.8940 C   0  0  0  0  0  0  0  0  0  0  0  0
   -5.6580   22.3540  -31.6310 C   0  0  0  0  0  0  0  0  0  0  0  0
   -3.3020   23.1420  -29.9620 C   0  0  0  0  0  0  0  0  0  0  0  0
   -0.8360   18.8200  -34.5840 C   0  0  0  0  0  0  0  0  0  0  0  0
   -0.6340   17.6590  -35.3360 C   0  0  0  0  0  0  0  0  0  0  0  0
   -2.7739   15.5658  -33.6853 H   0  0  0  0  0  0  0  0  0  0  0  0
   -3.1467   17.6400  -32.3500 H   0  0  0  0  0  0  0  0  0  0  0  0
   -2.8400   20.1340  -32.2240 H   0  0  0  0  0  0  0  0  0  0  0  0
   -1.3438   22.2569  -27.2997 H   0  0  0  0  0  0  0  0  0  0  0  0
   -2.9154   23.8130  -26.1442 H   0  0  0  0  0  0  0  0  0  0  0  0
   -4.7618   24.9071  -27.4215 H   0  0  0  0  0  0  0  0  0  0  0  0
   -8.3525   24.2117  -30.6377 H   0  0  0  0  0  0  0  0  0  0  0  0
   -9.5504   22.3317  -31.7667 H   0  0  0  0  0  0  0  0  0  0  0  0
   -8.2550   20.4790  -32.8280 H   0  0  0  0  0  0  0  0  0  0  0  0
   -7.0420   19.5670  -34.5540 H   0  0  0  0  0  0  0  0  0  0  0  0
   -7.2883   18.4109  -32.1510 H   0  0  0  0  0  0  0  0  0  0  0  0
   -8.2154   17.9229  -33.5982 H   0  0  0  0  0  0  0  0  0  0  0  0
   -6.0385   16.4915  -32.1841 H   0  0  0  0  0  0  0  0  0  0  0  0
   -7.1999   15.8507  -33.3578 H   0  0  0  0  0  0  0  0  0  0  0  0
   -4.4285   16.6639  -33.7917 H   0  0  0  0  0  0  0  0  0  0  0  0
   -5.5309   15.9398  -34.9726 H   0  0  0  0  0  0  0  0  0  0  0  0
   -4.6106   18.5839  -35.0481 H   0  0  0  0  0  0  0  0  0  0  0  0
   -6.0892   18.0196  -35.8721 H   0  0  0  0  0  0  0  0  0  0  0  0
   -4.5592   22.3537  -31.5797 H   0  0  0  0  0  0  0  0  0  0  0  0
   -3.3926   22.9770  -31.0458 H   0  0  0  0  0  0  0  0  0  0  0  0
   -0.2789   19.7346  -34.8355 H   0  0  0  0  0  0  0  0  0  0  0  0
    0.0808   17.6620  -36.1721 H   0  0  0  0  0  0  0  0  0  0  0  0
  1  2  3  0
  2  3  1  0
  3  4  2  0
  4  5  1  0
  5  6  2  0
  6  7  1  0
  7  8  1  0
  8  9  2  0
  8 10  1  0
 10 11  1  0
 11 12  2  0
 11 13  2  0
 11 14  1  0
 14 15  2  0
 15 16  1  0
 16 17  2  0
 17 18  1  0
 18 19  1  0
 19 20  2  0
 19 21  2  0
 19 22  1  0
 22 23  2  0
 23 24  1  0
 24 25  2  0
 25 26  1  0
 26 27  1  0
 27 28  2  0
 27 29  2  0
 27 30  1  0
 30 31  1  0
 31 32  1  0
 32 33  1  0
 33 34  1  0
 26 35  2  0
 18 36  2  0
  6 37  1  0
 37 38  2  0
 38  3  1  0
 36 14  1  0
 35 22  1  0
 34 30  1  0
  4 39  1  0
  5 40  1  0
  7 41  1  0
 15 42  1  0
 16 43  1  0
 17 44  1  0
 23 45  1  0
 24 46  1  0
 25 47  1  0
 30 48  1  0
 31 49  1  0
 31 50  1  0
 32 51  1  0
 32 52  1  0
 33 53  1  0
 33 54  1  0
 34 55  1  0
 34 56  1  0
 35 57  1  0
 36 58  1  0
 37 59  1  0
 38 60  1  0
M  CHG  2  10  -1  30   1
M  END
>  <UniqueID>  (30) 
30

>  <SMILES>  (30) 
N#Cc1ccc(NC(=O)[N-]S(=O)(=O)c2cccc(S(=O)(=O)c3cccc(S(=O)(=O)[NH+]4CCCC4)c3)c2)cc1

>  <Energy>  (30) 
69.52932747090499

>  <Genealogy>  (30) 
N#Cc1ccc(NC(=O)[N-]S(=O)(=O)c2cccc(S(=O)(=O)c3cccc(S(=O)(=O)[NH+]4CCCC4)c3)c2)cc1 (protonated)
N#Cc1ccc(NC(=O)[N-]S(=O)(=O)c2cccc(S(=O)(=O)c3cccc(S(=O)(=O)[NH+]4CCCC4)c3)c2)cc1 (3D coordinates assigned)
N#Cc1ccc(NC(=O)[N-]S(=O)(=O)c2cccc(S(=O)(=O)c3cccc(S(=O)(=O)[NH+]4CCCC4)c3)c2)cc1 (nonaromatic ring conformer: 69.52932747090499 kcal/mol)

>  <smiles>  (30) 
N#Cc1ccc(NC(=O)NS(=O)(=O)c2cccc(S(=O)(=O)c3cccc(S(=O)(=O)N4CCCC4)c3)c2)cc1

>  <score_type>  (30) 
oracle

>  <origin>  (30) 
adgpu

>  <m_score__min__energy>  (30) 
-12.32

>  <m_primary>  (30) 
energy

$$$$
30:0
     RDKit          3D

 55 57  0  0  0  0  0  0  0  0999 V2000
   -4.7660   18.5460  -34.2310 C   0  0  0  0  0  0  0  0  0  0  0  0
   -6.0660   19.3430  -34.1330 C   0  0  0  0  0  0  0  0  0  0  0  0
   -7.0680   18.6280  -33.3100 N   0  0  0  0  0  0  0  0  0  0  0  0
   -6.4980   17.5120  -32.5230 C   0  0  0  0  0  0  0  0  0  0  0  0
   -6.0960   17.8970  -31.0920 C   0  0  0  0  0  0  0  0  0  0  0  0
   -8.0900   19.6970  -32.3540 S   0  0  0  0  0  0  0  0  0  0  0  0
   -8.6730   18.9260  -31.1950 O   0  0  0  0  0  0  0  0  0  0  0  0
   -9.2400   20.1600  -33.2060 O   0  0  0  0  0  0  0  0  0  0  0  0
   -7.2600   21.1320  -31.7230 C   0  0  0  0  0  0  0  0  0  0  0  0
   -7.8330   21.8870  -30.6870 C   0  0  0  0  0  0  0  0  0  0  0  0
   -7.2150   23.0580  -30.2400 C   0  0  0  0  0  0  0  0  0  0  0  0
   -6.0200   23.4920  -30.8260 C   0  0  0  0  0  0  0  0  0  0  0  0
   -5.3130   25.0260  -30.3260 S   0  0  0  0  0  0  0  0  0  0  0  0
   -5.7830   26.1090  -31.2540 O   0  0  0  0  0  0  0  0  0  0  0  0
   -5.7340   25.3900  -28.9290 O   0  0  0  0  0  0  0  0  0  0  0  0
   -3.5850   24.9120  -30.4360 N   0  0  0  0  0  0  0  0  0  0  0  0
   -2.7510   24.1160  -29.5820 C   0  0  0  0  0  0  0  0  0  0  0  0
   -3.0750   22.7850  -29.2640 C   0  0  0  0  0  0  0  0  0  0  0  0
   -2.2530   22.0320  -28.4140 C   0  0  0  0  0  0  0  0  0  0  0  0
   -1.0640   22.6030  -27.9080 C   0  0  0  0  0  0  0  0  0  0  0  0
   -0.7520   23.9380  -28.2130 C   0  0  0  0  0  0  0  0  0  0  0  0
   -1.5890   24.6880  -29.0430 C   0  0  0  0  0  0  0  0  0  0  0  0
   -1.2500   26.0060  -29.3450 O   0  0  0  0  0  0  0  0  0  0  0  0
   -0.1760   21.8320  -26.9650 C   0  0  0  0  0  0  0  0  0  0  0  0
   -0.4750   20.3260  -27.0060 C   0  0  0  0  0  0  0  0  0  0  0  0
   -1.9320   20.0980  -26.9030 N   0  0  0  0  0  0  0  0  0  0  0  0
   -2.2100   18.6560  -26.7170 C   0  0  0  0  0  0  0  0  0  0  0  0
   -2.6020   20.5850  -28.1280 C   0  0  0  0  0  0  0  0  0  0  0  0
   -5.4460   22.7410  -31.8620 C   0  0  0  0  0  0  0  0  0  0  0  0
   -6.0710   21.5780  -32.3190 C   0  0  0  0  0  0  0  0  0  0  0  0
   -4.3973   18.3200  -33.2196 H   0  0  0  0  0  0  0  0  0  0  0  0
   -4.9518   17.6064  -34.7720 H   0  0  0  0  0  0  0  0  0  0  0  0
   -4.0130   19.1378  -34.7720 H   0  0  0  0  0  0  0  0  0  0  0  0
   -5.8548   20.3200  -33.6738 H   0  0  0  0  0  0  0  0  0  0  0  0
   -6.4740   19.4726  -35.1463 H   0  0  0  0  0  0  0  0  0  0  0  0
   -7.2484   16.7097  -32.4673 H   0  0  0  0  0  0  0  0  0  0  0  0
   -5.5782   17.1974  -33.0377 H   0  0  0  0  0  0  0  0  0  0  0  0
   -6.6981   17.3204  -30.3743 H   0  0  0  0  0  0  0  0  0  0  0  0
   -5.0298   17.6746  -30.9383 H   0  0  0  0  0  0  0  0  0  0  0  0
   -6.2722   18.9719  -30.9383 H   0  0  0  0  0  0  0  0  0  0  0  0
   -8.7741   21.5547  -30.2244 H   0  0  0  0  0  0  0  0  0  0  0  0
   -7.6691   23.6407  -29.4249 H   0  0  0  0  0  0  0  0  0  0  0  0
   -3.9829   22.3300  -29.6867 H   0  0  0  0  0  0  0  0  0  0  0  0
    0.1570   24.3959  -27.7958 H   0  0  0  0  0  0  0  0  0  0  0  0
    0.8737   21.9949  -27.2506 H   0  0  0  0  0  0  0  0  0  0  0  0
   -0.3671   22.1917  -25.9432 H   0  0  0  0  0  0  0  0  0  0  0  0
   -0.1066   19.9069  -27.9540 H   0  0  0  0  0  0  0  0  0  0  0  0
    0.0286   19.8342  -26.1607 H   0  0  0  0  0  0  0  0  0  0  0  0
   -2.2542   18.4268  -25.6421 H   0  0  0  0  0  0  0  0  0  0  0  0
   -3.1731   18.4049  -27.1854 H   0  0  0  0  0  0  0  0  0  0  0  0
   -1.4093   18.0648  -27.1854 H   0  0  0  0  0  0  0  0  0  0  0  0
   -2.2841   19.9656  -28.9796 H   0  0  0  0  0  0  0  0  0  0  0  0
   -3.6894   20.5154  -27.9776 H   0  0  0  0  0  0  0  0  0  0  0  0
   -4.4996   23.0690  -32.3168 H   0  0  0  0  0  0  0  0  0  0  0  0
   -5.6286   21.0093  -33.1502 H   0  0  0  0  0  0  0  0  0  0  0  0
  1  2  1  0
  2  3  1  0
  3  4  1  0
  4  5  1  0
  3  6  1  0
  6  7  2  0
  6  8  2  0
  6  9  1  0
  9 10  2  0
 10 11  1  0
 11 12  2  0
 12 13  1  0
 13 14  2  0
 13 15  2  0
 13 16  1  0
 16 17  1  0
 17 18  2  0
 18 19  1  0
 19 20  2  0
 20 21  1  0
 21 22  2  0
 22 23  1  0
 20 24  1  0
 24 25  1  0
 25 26  1  0
 26 27  1  0
 26 28  1  0
 12 29  1  0
 29 30  2  0
 30  9  1  0
 22 17  1  0
 28 19  1  0
  1 31  1  0
  1 32  1  0
  1 33  1  0
  2 34  1  0
  2 35  1  0
  4 36  1  0
  4 37  1  0
  5 38  1  0
  5 39  1  0
  5 40  1  0
 10 41  1  0
 11 42  1  0
 18 43  1  0
 21 44  1  0
 24 45  1  0
 24 46  1  0
 25 47  1  0
 25 48  1  0
 27 49  1  0
 27 50  1  0
 27 51  1  0
 28 52  1  0
 28 53  1  0
 29 54  1  0
 30 55  1  0
M  CHG  2  16  -1  23  -1
M  END
>  <UniqueID>  (31) 
31

>  <SMILES>  (31) 
CCN(CC)S(=O)(=O)c1ccc(S(=O)(=O)[N-]c2cc3c(cc2[O-])CCN(C)C3)cc1

>  <Energy>  (31) 
64.55704324440386

>  <Genealogy>  (31) 
CCN(CC)S(=O)(=O)c1ccc(S(=O)(=O)[N-]c2cc3c(cc2[O-])CCN(C)C3)cc1 (protonated)
CCN(CC)S(=O)(=O)c1ccc(S(=O)(=O)[N-]c2cc3c(cc2[O-])CCN(C)C3)cc1 (3D coordinates assigned)
CCN(CC)S(=O)(=O)c1ccc(S(=O)(=O)[N-]c2cc3c(cc2[O-])CCN(C)C3)cc1 (nonaromatic ring conformer: 64.55704324440386 kcal/mol)

>  <smiles>  (31) 
CCN(CC)S(=O)(=O)c1ccc(S(=O)(=O)Nc2cc3c(cc2O)CCN(C)C3)cc1

>  <score_type>  (31) 
oracle

>  <origin>  (31) 
adgpu

>  <m_score__min__energy>  (31) 
-15.289999999999999

>  <m_primary>  (31) 
energy

$$$$
31:0
     RDKit          3D

 72 76  0  0  0  0  0  0  0  0999 V2000
   -3.8960   21.8910  -33.1230 C   0  0  0  0  0  0  0  0  0  0  0  0
   -3.7800   20.6220  -32.4890 O   0  0  0  0  0  0  0  0  0  0  0  0
   -2.9310   19.5900  -32.9200 C   0  0  0  0  0  0  0  0  0  0  0  0
   -3.2810   18.7300  -33.9790 C   0  0  0  0  0  0  0  0  0  0  0  0
   -2.4240   17.6930  -34.3590 C   0  0  0  0  0  0  0  0  0  0  0  0
   -1.2150   17.5020  -33.6880 C   0  0  0  0  0  0  0  0  0  0  0  0
   -0.8550   18.3510  -32.6400 C   0  0  0  0  0  0  0  0  0  0  0  0
   -1.7020   19.4020  -32.2580 C   0  0  0  0  0  0  0  0  0  0  0  0
   -1.3180   20.2690  -31.1810 N   0  0  0  0  0  0  0  0  0  0  0  0
   -1.0400   19.7040  -29.8560 C   0  0  0  0  0  0  0  0  0  0  0  0
   -1.6860   20.5780  -28.7750 C   0  0  0  0  0  0  0  0  0  0  0  0
   -1.4780   22.0060  -29.0510 N   0  0  0  0  0  0  0  0  0  0  0  0
   -2.1020   22.9740  -28.2010 C   0  0  0  0  0  0  0  0  0  0  0  0
   -1.3610   23.5640  -27.1680 C   0  0  0  0  0  0  0  0  0  0  0  0
   -1.9470   24.5320  -26.3480 C   0  0  0  0  0  0  0  0  0  0  0  0
   -3.2740   24.9110  -26.5530 C   0  0  0  0  0  0  0  0  0  0  0  0
   -4.0210   24.3270  -27.5800 C   0  0  0  0  0  0  0  0  0  0  0  0
   -3.4360   23.3600  -28.4200 C   0  0  0  0  0  0  0  0  0  0  0  0
   -4.1930   22.7230  -29.4590 N   0  0  0  0  0  0  0  0  0  0  0  0
   -4.9060   23.4040  -30.4990 C   0  0  0  0  0  0  0  0  0  0  0  0
   -4.4210   24.4660  -30.9690 O   0  0  0  0  0  0  0  0  0  0  0  0
   -6.2090   22.9090  -31.0010 C   0  0  0  0  0  0  0  0  0  0  0  0
   -7.2640   23.8000  -31.2630 C   0  0  0  0  0  0  0  0  0  0  0  0
   -8.4820   23.3270  -31.7560 C   0  0  0  0  0  0  0  0  0  0  0  0
   -8.6600   21.9630  -31.9960 C   0  0  0  0  0  0  0  0  0  0  0  0
   -7.6190   21.0620  -31.7390 C   0  0  0  0  0  0  0  0  0  0  0  0
   -7.8390   19.3440  -32.0690 S   0  0  0  0  0  0  0  0  0  0  0  0
   -8.3240   18.6480  -30.8260 O   0  0  0  0  0  0  0  0  0  0  0  0
   -8.8850   19.1860  -33.1400 O   0  0  0  0  0  0  0  0  0  0  0  0
   -6.3280   18.6450  -32.6040 N   0  0  0  0  0  0  0  0  0  0  0  0
   -5.8580   17.6510  -31.6060 C   0  0  0  0  0  0  0  0  0  0  0  0
   -4.8620   16.6610  -32.2170 C   0  0  0  0  0  0  0  0  0  0  0  0
   -5.5180   15.8440  -33.3440 C   0  0  0  0  0  0  0  0  0  0  0  0
   -6.6770   16.5930  -34.0250 C   0  0  0  0  0  0  0  0  0  0  0  0
   -6.4500   18.1120  -33.9900 C   0  0  0  0  0  0  0  0  0  0  0  0
   -6.3940   21.5380  -31.2510 C   0  0  0  0  0  0  0  0  0  0  0  0
   -0.6590   22.4440  -30.1840 C   0  0  0  0  0  0  0  0  0  0  0  0
   -1.0940   21.6980  -31.4500 C   0  0  0  0  0  0  0  0  0  0  0  0
   -3.9679   22.6780  -32.3578 H   0  0  0  0  0  0  0  0  0  0  0  0
   -3.0104   22.0697  -33.7506 H   0  0  0  0  0  0  0  0  0  0  0  0
   -4.7993   21.9061  -33.7506 H   0  0  0  0  0  0  0  0  0  0  0  0
   -4.2335   18.8750  -34.5098 H   0  0  0  0  0  0  0  0  0  0  0  0
   -2.7029   17.0263  -35.1883 H   0  0  0  0  0  0  0  0  0  0  0  0
   -0.5452   16.6816  -33.9853 H   0  0  0  0  0  0  0  0  0  0  0  0
    0.0970   18.1952  -32.1114 H   0  0  0  0  0  0  0  0  0  0  0  0
   -1.4534   18.6863  -29.7985 H   0  0  0  0  0  0  0  0  0  0  0  0
    0.0477   19.6708  -29.6953 H   0  0  0  0  0  0  0  0  0  0  0  0
   -2.7661   20.3720  -28.7453 H   0  0  0  0  0  0  0  0  0  0  0  0
   -1.2185   20.3386  -27.8085 H   0  0  0  0  0  0  0  0  0  0  0  0
   -0.3156   23.2644  -27.0023 H   0  0  0  0  0  0  0  0  0  0  0  0
   -1.3616   24.9955  -25.5403 H   0  0  0  0  0  0  0  0  0  0  0  0
   -3.7336   25.6715  -25.9046 H   0  0  0  0  0  0  0  0  0  0  0  0
   -5.0692   24.6237  -27.7325 H   0  0  0  0  0  0  0  0  0  0  0  0
   -7.1295   24.8761  -31.0787 H   0  0  0  0  0  0  0  0  0  0  0  0
   -9.3034   24.0309  -31.9558 H   0  0  0  0  0  0  0  0  0  0  0  0
   -9.6199   21.5953  -32.3877 H   0  0  0  0  0  0  0  0  0  0  0  0
   -5.6340   19.4300  -32.6260 H   0  0  0  0  0  0  0  0  0  0  0  0
   -5.3686   18.1827  -30.7767 H   0  0  0  0  0  0  0  0  0  0  0  0
   -6.7307   17.0835  -31.2506 H   0  0  0  0  0  0  0  0  0  0  0  0
   -4.0068   17.2180  -32.6273 H   0  0  0  0  0  0  0  0  0  0  0  0
   -4.5287   15.9683  -31.4301 H   0  0  0  0  0  0  0  0  0  0  0  0
   -4.7545   15.6139  -34.1018 H   0  0  0  0  0  0  0  0  0  0  0  0
   -5.9329   14.9305  -32.8931 H   0  0  0  0  0  0  0  0  0  0  0  0
   -6.7508   16.2648  -35.0723 H   0  0  0  0  0  0  0  0  0  0  0  0
   -7.6065   16.3660  -33.4824 H   0  0  0  0  0  0  0  0  0  0  0  0
   -5.5243   18.3419  -34.5379 H   0  0  0  0  0  0  0  0  0  0  0  0
   -7.3266   18.5890  -34.4527 H   0  0  0  0  0  0  0  0  0  0  0  0
   -5.5709   20.8331  -31.0622 H   0  0  0  0  0  0  0  0  0  0  0  0
   -0.7892   23.5260  -30.3334 H   0  0  0  0  0  0  0  0  0  0  0  0
    0.3990   22.2262  -29.9764 H   0  0  0  0  0  0  0  0  0  0  0  0
   -2.0281   22.1424  -31.8241 H   0  0  0  0  0  0  0  0  0  0  0  0
   -0.2920   21.7879  -32.1975 H   0  0  0  0  0  0  0  0  0  0  0  0
  1  2  1  0
  2  3  1  0
  3  4  2  0
  4  5  1  0
  5  6  2  0
  6  7  1  0
  7  8  2  0
  8  9  1  0
  9 10  1  0
 10 11  1  0
 11 12  1  0
 12 13  1  0
 13 14  2  0
 14 15  1  0
 15 16  2  0
 16 17  1  0
 17 18  2  0
 18 19  1  0
 19 20  1  0
 20 21  2  0
 20 22  1  0
 22 23  2  0
 23 24  1  0
 24 25  2  0
 25 26  1  0
 26 27  1  0
 27 28  2  0
 27 29  2  0
 27 30  1  0
 30 31  1  0
 31 32  1  0
 32 33  1  0
 33 34  1  0
 34 35  1  0
 26 36  2  0
 12 37  1  0
 37 38  1  0
  8  3  1  0
 38  9  1  0
 18 13  1  0
 36 22  1  0
 35 30  1  0
  1 39  1  0
  1 40  1  0
  1 41  1  0
  4 42  1  0
  5 43  1  0
  6 44  1  0
  7 45  1  0
 10 46  1  0
 10 47  1  0
 11 48  1  0
 11 49  1  0
 14 50  1  0
 15 51  1  0
 16 52  1  0
 17 53  1  0
 23 54  1  0
 24 55  1  0
 25 56  1  0
 30 57  1  0
 31 58  1  0
 31 59  1  0
 32 60  1  0
 32 61  1  0
 33 62  1  0
 33 63  1  0
 34 64  1  0
 34 65  1  0
 35 66  1  0
 35 67  1  0
 36 68  1  0
 37 69  1  0
 37 70  1  0
 38 71  1  0
 38 72  1  0
M  CHG  2  19  -1  30   1
M  END
>  <UniqueID>  (32) 
32

>  <SMILES>  (32) 
COc1ccccc1N1CCN(c2ccccc2[N-]C(=O)c2cccc(S(=O)(=O)[NH+]3CCCCC3)c2)CC1

>  <Energy>  (32) 
97.65921004214135

>  <Genealogy>  (32) 
COc1ccccc1N1CCN(c2ccccc2[N-]C(=O)c2cccc(S(=O)(=O)[NH+]3CCCCC3)c2)CC1 (protonated)
COc1ccccc1N1CCN(c2ccccc2[N-]C(=O)c2cccc(S(=O)(=O)[NH+]3CCCCC3)c2)CC1 (3D coordinates assigned)
COc1ccccc1N1CCN(c2ccccc2[N-]C(=O)c2cccc(S(=O)(=O)[NH+]3CCCCC3)c2)CC1 (nonaromatic ring conformer: 97.65921004214135 kcal/mol)

>  <smiles>  (32) 
COc1ccccc1N1CCN(c2ccccc2NC(=O)c2cccc(S(=O)(=O)N3CCCCC3)c2)CC1

>  <score_type>  (32) 
oracle

>  <origin>  (32) 
adgpu

>  <m_score__min__energy>  (32) 
-11.539999999999999

>  <m_primary>  (32) 
energy

$$$$
32:0
     RDKit          3D

 56 59  0  0  0  0  0  0  0  0999 V2000
    1.2950   19.2290  -27.8820 C   0  0  0  0  0  0  0  0  0  0  0  0
    0.1230   20.1010  -27.7080 N   0  0  0  0  0  0  0  0  0  0  0  0
   -1.1100   19.3650  -28.0430 C   0  0  0  0  0  0  0  0  0  0  0  0
   -2.3300   20.1950  -27.6380 C   0  0  0  0  0  0  0  0  0  0  0  0
   -2.2220   21.6190  -28.1200 C   0  0  0  0  0  0  0  0  0  0  0  0
   -3.3610   22.4360  -28.1090 C   0  0  0  0  0  0  0  0  0  0  0  0
   -3.2910   23.7660  -28.5480 C   0  0  0  0  0  0  0  0  0  0  0  0
   -4.4570   24.5950  -28.5690 N   0  0  0  0  0  0  0  0  0  0  0  0
   -5.3290   24.9740  -30.0220 S   0  0  0  0  0  0  0  0  0  0  0  0
   -6.4110   25.9650  -29.6980 O   0  0  0  0  0  0  0  0  0  0  0  0
   -4.3900   25.6040  -31.0110 O   0  0  0  0  0  0  0  0  0  0  0  0
   -6.0650   23.5400  -30.7300 C   0  0  0  0  0  0  0  0  0  0  0  0
   -7.4600   23.4310  -30.8140 C   0  0  0  0  0  0  0  0  0  0  0  0
   -8.0460   22.2590  -31.3000 C   0  0  0  0  0  0  0  0  0  0  0  0
   -7.2420   21.1850  -31.7050 C   0  0  0  0  0  0  0  0  0  0  0  0
   -7.9620   19.6970  -32.3120 S   0  0  0  0  0  0  0  0  0  0  0  0
   -8.9220   20.0030  -33.4300 O   0  0  0  0  0  0  0  0  0  0  0  0
   -8.7170   19.0390  -31.1890 O   0  0  0  0  0  0  0  0  0  0  0  0
   -6.7030   18.6310  -32.8860 N   0  0  0  0  0  0  0  0  0  0  0  0
   -6.1720   19.1280  -34.1670 C   0  0  0  0  0  0  0  0  0  0  0  0
   -4.9220   18.3250  -34.5780 C   0  0  0  0  0  0  0  0  0  0  0  0
   -4.8910   16.9220  -33.9490 C   0  0  0  0  0  0  0  0  0  0  0  0
   -6.3020   16.3410  -33.8450 C   0  0  0  0  0  0  0  0  0  0  0  0
   -7.2390   17.2600  -33.0290 C   0  0  0  0  0  0  0  0  0  0  0  0
   -5.8490   21.2990  -31.6340 C   0  0  0  0  0  0  0  0  0  0  0  0
   -5.2610   22.4700  -31.1480 C   0  0  0  0  0  0  0  0  0  0  0  0
   -2.0540   24.3030  -28.9270 C   0  0  0  0  0  0  0  0  0  0  0  0
   -1.9620   25.6290  -29.3370 O   0  0  0  0  0  0  0  0  0  0  0  0
   -0.9060   23.5040  -28.9120 C   0  0  0  0  0  0  0  0  0  0  0  0
   -0.9780   22.1640  -28.5020 C   0  0  0  0  0  0  0  0  0  0  0  0
    0.2550   21.2950  -28.5670 C   0  0  0  0  0  0  0  0  0  0  0  0
    1.6855   18.9384  -26.8956 H   0  0  0  0  0  0  0  0  0  0  0  0
    1.0018   18.3277  -28.4403 H   0  0  0  0  0  0  0  0  0  0  0  0
    2.0740   19.7688  -28.4403 H   0  0  0  0  0  0  0  0  0  0  0  0
   -1.1399   19.1748  -29.1260 H   0  0  0  0  0  0  0  0  0  0  0  0
   -1.1229   18.4082  -27.5004 H   0  0  0  0  0  0  0  0  0  0  0  0
   -3.2315   19.7390  -28.0732 H   0  0  0  0  0  0  0  0  0  0  0  0
   -2.3854   20.2087  -26.5395 H   0  0  0  0  0  0  0  0  0  0  0  0
   -4.3191   22.0299  -27.7525 H   0  0  0  0  0  0  0  0  0  0  0  0
   -8.0956   24.2707  -30.4963 H   0  0  0  0  0  0  0  0  0  0  0  0
   -9.1412   22.1793  -31.3648 H   0  0  0  0  0  0  0  0  0  0  0  0
   -6.9428   19.0219  -34.9445 H   0  0  0  0  0  0  0  0  0  0  0  0
   -5.8945   20.1862  -34.0519 H   0  0  0  0  0  0  0  0  0  0  0  0
   -4.9137   18.2210  -35.6730 H   0  0  0  0  0  0  0  0  0  0  0  0
   -4.0390   18.8729  -34.2173 H   0  0  0  0  0  0  0  0  0  0  0  0
   -4.2739   16.2602  -34.5744 H   0  0  0  0  0  0  0  0  0  0  0  0
   -4.4664   16.9990  -32.9372 H   0  0  0  0  0  0  0  0  0  0  0  0
   -6.7138   16.2209  -34.8579 H   0  0  0  0  0  0  0  0  0  0  0  0
   -6.2369   15.3718  -33.3288 H   0  0  0  0  0  0  0  0  0  0  0  0
   -8.2125   17.3131  -33.5383 H   0  0  0  0  0  0  0  0  0  0  0  0
   -7.3334   16.8309  -32.0206 H   0  0  0  0  0  0  0  0  0  0  0  0
   -5.2139   20.4630  -31.9623 H   0  0  0  0  0  0  0  0  0  0  0  0
   -4.1655   22.5524  -31.0933 H   0  0  0  0  0  0  0  0  0  0  0  0
    0.0596   23.9289  -29.2237 H   0  0  0  0  0  0  0  0  0  0  0  0
    0.4096   20.9716  -29.6069 H   0  0  0  0  0  0  0  0  0  0  0  0
    1.1115   21.8847  -28.2082 H   0  0  0  0  0  0  0  0  0  0  0  0
  1  2  1  0
  2  3  1  0
  3  4  1  0
  4  5  1  0
  5  6  2  0
  6  7  1  0
  7  8  1  0
  8  9  1  0
  9 10  2  0
  9 11  2  0
  9 12  1  0
 12 13  2  0
 13 14  1  0
 14 15  2  0
 15 16  1  0
 16 17  2  0
 16 18  2  0
 16 19  1  0
 19 20  1  0
 20 21  1  0
 21 22  1  0
 22 23  1  0
 23 24  1  0
 15 25  1  0
 25 26  2  0
  7 27  2  0
 27 28  1  0
 27 29  1  0
 29 30  2  0
 30 31  1  0
 31  2  1  0
 30  5  1  0
 26 12  1  0
 24 19  1  0
  1 32  1  0
  1 33  1  0
  1 34  1  0
  3 35  1  0
  3 36  1  0
  4 37  1  0
  4 38  1  0
  6 39  1  0
 13 40  1  0
 14 41  1  0
 20 42  1  0
 20 43  1  0
 21 44  1  0
 21 45  1  0
 22 46  1  0
 22 47  1  0
 23 48  1  0
 23 49  1  0
 24 50  1  0
 24 51  1  0
 25 52  1  0
 26 53  1  0
 29 54  1  0
 31 55  1  0
 31 56  1  0
M  CHG  2   8  -1  28  -1
M  END
>  <UniqueID>  (33) 
33

>  <SMILES>  (33) 
CN1CCc2cc([N-]S(=O)(=O)c3ccc(S(=O)(=O)N4CCCCC4)cc3)c([O-])cc2C1

>  <Energy>  (33) 
70.92829564196238

>  <Genealogy>  (33) 
CN1CCc2cc([N-]S(=O)(=O)c3ccc(S(=O)(=O)N4CCCCC4)cc3)c([O-])cc2C1 (protonated)
CN1CCc2cc([N-]S(=O)(=O)c3ccc(S(=O)(=O)N4CCCCC4)cc3)c([O-])cc2C1 (3D coordinates assigned)
CN1CCc2cc([N-]S(=O)(=O)c3ccc(S(=O)(=O)N4CCCCC4)cc3)c([O-])cc2C1 (nonaromatic ring conformer: 70.92829564196238 kcal/mol)

>  <smiles>  (33) 
CN1CCc2cc(NS(=O)(=O)c3ccc(S(=O)(=O)N4CCCCC4)cc3)c(O)cc2C1

>  <score_type>  (33) 
oracle

>  <origin>  (33) 
adgpu

>  <m_score__min__energy>  (33) 
-15.25

>  <m_primary>  (33) 
energy

$$$$
33:0
     RDKit          3D

 55 57  0  0  0  0  0  0  0  0999 V2000
   -2.3081   23.6782  -26.2431 H   0  0  0  0  0  0  0  0  0  0  0  0
   -1.8140   24.6050  -26.5700 C   0  0  0  0  0  0  0  0  0  0  0  0
   -1.4290   25.5590  -25.6230 C   0  0  0  0  0  0  0  0  0  0  0  0
   -1.6358   25.3879  -24.5563 H   0  0  0  0  0  0  0  0  0  0  0  0
   -0.7800   26.7330  -26.0300 C   0  0  0  0  0  0  0  0  0  0  0  0
   -0.2770   27.9210  -24.8320 S   0  0  0  0  0  0  0  0  0  0  0  0
   -1.2250   29.0850  -24.8440 O   0  0  0  0  0  0  0  0  0  0  0  0
    1.1040   28.4190  -25.1530 O   0  0  0  0  0  0  0  0  0  0  0  0
   -0.2750   27.1680  -23.2210 C   0  0  0  0  0  0  0  0  0  0  0  0
   -0.2771   27.9523  -22.4497 H   0  0  0  0  0  0  0  0  0  0  0  0
   -1.1715   26.5406  -23.1084 H   0  0  0  0  0  0  0  0  0  0  0  0
    0.6248   26.5454  -23.1084 H   0  0  0  0  0  0  0  0  0  0  0  0
   -0.4990   26.9350  -27.3880 C   0  0  0  0  0  0  0  0  0  0  0  0
    0.0270   27.8458  -27.7102 H   0  0  0  0  0  0  0  0  0  0  0  0
   -0.8860   25.9810  -28.3340 C   0  0  0  0  0  0  0  0  0  0  0  0
   -0.6511   26.1373  -29.3972 H   0  0  0  0  0  0  0  0  0  0  0  0
   -1.5740   24.8230  -27.9320 C   0  0  0  0  0  0  0  0  0  0  0  0
   -1.9280   23.8020  -28.8790 N   0  0  0  0  0  0  0  0  0  0  0  0
   -3.0220   23.7150  -29.5800 C   0  0  0  0  0  0  0  0  0  0  0  0
   -3.1230   22.7150  -30.4970 N   0  0  0  0  0  0  0  0  0  0  0  0
   -4.2270   22.5240  -31.2700 C   0  0  0  0  0  0  0  0  0  0  0  0
   -4.2440   21.4040  -32.2450 C   0  0  0  0  0  0  0  0  0  0  0  0
   -3.0560   20.9160  -32.8160 C   0  0  0  0  0  0  0  0  0  0  0  0
   -2.0927   21.3743  -32.5477 H   0  0  0  0  0  0  0  0  0  0  0  0
   -3.0900   19.8540  -33.7210 C   0  0  0  0  0  0  0  0  0  0  0  0
   -1.9330   19.3960  -34.2620 F   0  0  0  0  0  0  0  0  0  0  0  0
   -4.3050   19.2520  -34.0570 C   0  0  0  0  0  0  0  0  0  0  0  0
   -4.3110   18.1880  -34.9530 O   0  0  0  0  0  0  0  0  0  0  0  0
   -5.5070   19.7080  -33.4840 C   0  0  0  0  0  0  0  0  0  0  0  0
   -6.7510   19.0670  -33.8380 N   0  0  0  0  0  0  0  0  0  0  0  0
   -7.1900   19.3080  -34.7560 H   0  0  0  0  0  0  0  0  0  0  0  0
   -7.4300   18.0330  -33.0500 C   0  0  0  0  0  0  0  0  0  0  0  0
   -7.6043   18.4197  -32.0351 H   0  0  0  0  0  0  0  0  0  0  0  0
   -8.3759   17.7917  -33.5571 H   0  0  0  0  0  0  0  0  0  0  0  0
   -6.6030   16.7310  -32.9500 C   0  0  2  0  0  0  0  0  0  0  0  0
   -7.3289   15.9075  -32.8801 H   0  0  0  0  0  0  0  0  0  0  0  0
   -5.7360   16.6790  -31.6840 C   0  0  0  0  0  0  0  0  0  0  0  0
   -6.3826   16.7178  -30.7949 H   0  0  0  0  0  0  0  0  0  0  0  0
   -5.1559   15.7444  -31.6750 H   0  0  0  0  0  0  0  0  0  0  0  0
   -5.0483   17.5375  -31.6750 H   0  0  0  0  0  0  0  0  0  0  0  0
   -5.7810   16.5260  -34.1490 N   0  0  0  0  0  0  0  0  0  0  0  0
   -5.8270   17.3610  -34.7780 H   0  0  0  0  0  0  0  0  0  0  0  0
   -6.1130   15.6830  -34.6710 H   0  0  0  0  0  0  0  0  0  0  0  0
   -4.7850   16.3670  -33.8700 H   0  0  0  0  0  0  0  0  0  0  0  0
   -5.4640   20.7940  -32.5870 C   0  0  0  0  0  0  0  0  0  0  0  0
   -6.3995   21.1705  -32.1474 H   0  0  0  0  0  0  0  0  0  0  0  0
   -5.3280   23.3810  -31.1100 C   0  0  0  0  0  0  0  0  0  0  0  0
   -6.2355   23.2327  -31.7137 H   0  0  0  0  0  0  0  0  0  0  0  0
   -5.2660   24.4250  -30.1790 C   0  0  0  0  0  0  0  0  0  0  0  0
   -6.4580   25.3090  -29.9580 C   0  0  0  0  0  0  0  0  0  0  0  0
   -6.6266   25.4340  -28.8782 H   0  0  0  0  0  0  0  0  0  0  0  0
   -6.2756   26.2919  -30.4169 H   0  0  0  0  0  0  0  0  0  0  0  0
   -7.3457   24.8491  -30.4169 H   0  0  0  0  0  0  0  0  0  0  0  0
   -4.1160   24.5830  -29.3960 C   0  0  0  0  0  0  0  0  0  0  0  0
   -4.0671   25.3812  -28.6407 H   0  0  0  0  0  0  0  0  0  0  0  0
  1  2  1  0
  2  3  2  0
  3  4  1  0
  3  5  1  0
  5  6  1  0
  6  7  2  0
  6  8  2  0
  6  9  1  0
  9 10  1  0
  9 11  1  0
  9 12  1  0
  5 13  2  0
 13 14  1  0
 13 15  1  0
 15 16  1  0
 15 17  2  0
 17 18  1  0
 18 19  2  0
 19 20  1  0
 20 21  1  0
 21 22  1  0
 22 23  2  0
 23 24  1  0
 23 25  1  0
 25 26  1  0
 25 27  2  0
 27 28  1  0
 27 29  1  0
 29 30  1  0
 30 31  1  0
 30 32  1  0
 32 33  1  0
 32 34  1  0
 32 35  1  0
 35 36  1  1
 35 37  1  0
 37 38  1  0
 37 39  1  0
 37 40  1  0
 35 41  1  0
 41 42  1  0
 41 43  1  0
 41 44  1  0
 29 45  2  0
 45 46  1  0
 21 47  2  0
 47 48  1  0
 47 49  1  0
 49 50  1  0
 50 51  1  0
 50 52  1  0
 50 53  1  0
 49 54  2  0
 54 55  1  0
 17  2  1  0
 54 19  1  0
 45 22  1  0
M  CHG  3  20  -1  28  -1  41   1
M  END
>  <UniqueID>  (34) 
34

>  <SMILES>  (34) 
Cc1cc(-c2cc(F)c([O-])c(NC[C@H](C)[NH3+])c2)[n-]/c(=N/c2ccc(S(C)(=O)=O)cc2)c1

>  <Energy>  (34) 
65.76662665185016

>  <Genealogy>  (34) 
Cc1cc(-c2cc(F)c([O-])c(NCC(C)[NH3+])c2)[n-]c(=Nc2ccc(S(C)(=O)=O)cc2)c1 (protonated)
Cc1cc(-c2cc(F)c([O-])c(NC[C@H](C)[NH3+])c2)[n-]c(=Nc2ccc(S(C)(=O)=O)cc2)c1 (chirality)
Cc1cc(-c2cc(F)c([O-])c(NC[C@H](C)[NH3+])c2)[n-]/c(=N/c2ccc(S(C)(=O)=O)cc2)c1 (cis-trans isomerization)
Cc1cc(-c2cc(F)c([O-])c(NC[C@H](C)[NH3+])c2)[n-]/c(=N/c2ccc(S(C)(=O)=O)cc2)c1 (3D coordinates assigned)
Cc1cc(-c2cc(F)c([O-])c(NC[C@H](C)[NH3+])c2)[n-]/c(=N/c2ccc(S(C)(=O)=O)cc2)c1 (optimized conformer: 65.76662665185016 kcal/mol)

>  <smiles>  (34) 
Cc1cc(-c2cc(F)c(O)c(NCC(C)N)c2)[nH]c(=Nc2ccc(S(C)(=O)=O)cc2)c1

>  <score_type>  (34) 
oracle

>  <origin>  (34) 
adgpu

>  <m_score__min__energy>  (34) 
-10.67

>  <m_primary>  (34) 
energy

$$$$
34:0
     RDKit          3D

 48 50  0  0  0  0  0  0  0  0999 V2000
   -4.8860   16.3140  -33.1670 C   0  0  0  0  0  0  0  0  0  0  0  0
   -5.4560   17.2510  -34.1820 C   0  0  0  0  0  0  0  0  0  0  0  0
   -6.4570   16.8980  -34.8660 O   0  0  0  0  0  0  0  0  0  0  0  0
   -4.7940   18.4980  -34.4410 N   0  0  0  0  0  0  0  0  0  0  0  0
   -3.5410   18.9280  -33.8870 C   0  0  0  0  0  0  0  0  0  0  0  0
   -2.3680   18.2870  -34.3040 C   0  0  0  0  0  0  0  0  0  0  0  0
   -1.1330   18.6530  -33.7650 C   0  0  0  0  0  0  0  0  0  0  0  0
   -1.0590   19.6520  -32.7900 C   0  0  0  0  0  0  0  0  0  0  0  0
    0.1860   20.0190  -32.2890 O   0  0  0  0  0  0  0  0  0  0  0  0
   -2.2330   20.2750  -32.3280 C   0  0  0  0  0  0  0  0  0  0  0  0
   -2.1550   21.5240  -31.0860 S   0  0  0  0  0  0  0  0  0  0  0  0
   -2.7790   20.9890  -29.8290 O   0  0  0  0  0  0  0  0  0  0  0  0
   -0.7320   21.9080  -30.7890 O   0  0  0  0  0  0  0  0  0  0  0  0
   -3.0460   22.9200  -31.6030 N   0  0  0  0  0  0  0  0  0  0  0  0
   -4.3700   23.2670  -31.1750 C   0  0  0  0  0  0  0  0  0  0  0  0
   -5.4840   22.4570  -31.4650 C   0  0  0  0  0  0  0  0  0  0  0  0
   -6.7720   22.8600  -31.0780 C   0  0  0  0  0  0  0  0  0  0  0  0
   -8.1870   21.9300  -31.5810 S   0  0  0  0  0  0  0  0  0  0  0  0
   -9.1390   22.8440  -32.3030 O   0  0  0  0  0  0  0  0  0  0  0  0
   -8.8920   21.4160  -30.3570 O   0  0  0  0  0  0  0  0  0  0  0  0
   -7.7780   20.5660  -32.6010 N   0  0  0  0  0  0  0  0  0  0  0  0
   -8.9730   19.7910  -32.9960 C   0  0  0  0  0  0  0  0  0  0  0  0
   -9.3820   18.7240  -31.9470 C   0  0  0  0  0  0  0  0  0  0  0  0
   -8.3580   18.4020  -31.0190 O   0  0  0  0  0  0  0  0  0  0  0  0
   -7.1130   18.3350  -31.6760 C   0  0  0  0  0  0  0  0  0  0  0  0
   -6.6680   19.7460  -32.0640 C   0  0  0  0  0  0  0  0  0  0  0  0
   -6.9360   24.0470  -30.3490 C   0  0  0  0  0  0  0  0  0  0  0  0
   -5.8330   24.8490  -30.0520 C   0  0  0  0  0  0  0  0  0  0  0  0
   -4.5580   24.4740  -30.4810 C   0  0  0  0  0  0  0  0  0  0  0  0
   -3.4730   25.2990  -30.2070 O   0  0  0  0  0  0  0  0  0  0  0  0
   -3.4690   19.9090  -32.8800 C   0  0  0  0  0  0  0  0  0  0  0  0
   -5.1122   16.6859  -32.1568 H   0  0  0  0  0  0  0  0  0  0  0  0
   -5.3304   15.3164  -33.2985 H   0  0  0  0  0  0  0  0  0  0  0  0
   -3.7958   16.2500  -33.2985 H   0  0  0  0  0  0  0  0  0  0  0  0
   -2.4197   17.4903  -35.0607 H   0  0  0  0  0  0  0  0  0  0  0  0
   -0.2152   18.1535  -34.1088 H   0  0  0  0  0  0  0  0  0  0  0  0
   -5.3449   21.5043  -31.9970 H   0  0  0  0  0  0  0  0  0  0  0  0
   -9.8130   20.4882  -33.1317 H   0  0  0  0  0  0  0  0  0  0  0  0
   -8.7250   19.2579  -33.9257 H   0  0  0  0  0  0  0  0  0  0  0  0
  -10.2487   19.1047  -31.3868 H   0  0  0  0  0  0  0  0  0  0  0  0
   -9.6075   17.8022  -32.5033 H   0  0  0  0  0  0  0  0  0  0  0  0
   -6.3667   17.8865  -31.0038 H   0  0  0  0  0  0  0  0  0  0  0  0
   -7.2075   17.7171  -32.5811 H   0  0  0  0  0  0  0  0  0  0  0  0
   -6.2611   20.2448  -31.1720 H   0  0  0  0  0  0  0  0  0  0  0  0
   -5.9110   19.6504  -32.8563 H   0  0  0  0  0  0  0  0  0  0  0  0
   -7.9384   24.3472  -30.0098 H   0  0  0  0  0  0  0  0  0  0  0  0
   -5.9682   25.7782  -29.4790 H   0  0  0  0  0  0  0  0  0  0  0  0
   -4.3902   20.3926  -32.5231 H   0  0  0  0  0  0  0  0  0  0  0  0
  1  2  1  0
  2  3  2  0
  2  4  1  0
  4  5  1  0
  5  6  2  0
  6  7  1  0
  7  8  2  0
  8  9  1  0
  8 10  1  0
 10 11  1  0
 11 12  2  0
 11 13  2  0
 11 14  1  0
 14 15  1  0
 15 16  2  0
 16 17  1  0
 17 18  1  0
 18 19  2  0
 18 20  2  0
 18 21  1  0
 21 22  1  0
 22 23  1  0
 23 24  1  0
 24 25  1  0
 25 26  1  0
 17 27  2  0
 27 28  1  0
 28 29  2  0
 29 30  1  0
 10 31  2  0
 31  5  1  0
 29 15  1  0
 26 21  1  0
  1 32  1  0
  1 33  1  0
  1 34  1  0
  6 35  1  0
  7 36  1  0
 16 37  1  0
 22 38  1  0
 22 39  1  0
 23 40  1  0
 23 41  1  0
 25 42  1  0
 25 43  1  0
 26 44  1  0
 26 45  1  0
 27 46  1  0
 28 47  1  0
 31 48  1  0
M  CHG  4   4  -1   9  -1  14  -1  30  -1
M  END
>  <UniqueID>  (35) 
35

>  <SMILES>  (35) 
CC(=O)[N-]c1ccc([O-])c(S(=O)(=O)[N-]c2cc(S(=O)(=O)N3CCOCC3)ccc2[O-])c1

>  <Energy>  (35) 
65.63306456307777

>  <Genealogy>  (35) 
CC(=O)[N-]c1ccc([O-])c(S(=O)(=O)[N-]c2cc(S(=O)(=O)N3CCOCC3)ccc2[O-])c1 (protonated)
CC(=O)[N-]c1ccc([O-])c(S(=O)(=O)[N-]c2cc(S(=O)(=O)N3CCOCC3)ccc2[O-])c1 (3D coordinates assigned)
CC(=O)[N-]c1ccc([O-])c(S(=O)(=O)[N-]c2cc(S(=O)(=O)N3CCOCC3)ccc2[O-])c1 (nonaromatic ring conformer: 65.63306456307777 kcal/mol)

>  <smiles>  (35) 
CC(=O)Nc1ccc(O)c(S(=O)(=O)Nc2cc(S(=O)(=O)N3CCOCC3)ccc2O)c1

>  <score_type>  (35) 
oracle

>  <origin>  (35) 
adgpu

>  <m_score__min__energy>  (35) 
-13.6

>  <m_primary>  (35) 
energy

$$$$
35:0
     RDKit          3D

 25 26  0  0  0  0  0  0  0  0999 V2000
    0.2570   22.3470  -27.2430 O   0  0  0  0  0  0  0  0  0  0  0  0
   -0.7040   22.7320  -27.9690 C   0  0  0  0  0  0  0  0  0  0  0  0
   -1.6900   21.7710  -28.2710 C   0  0  0  0  0  0  0  0  0  0  0  0
   -1.5010   20.3940  -27.7410 C   0  0  0  0  0  0  0  0  0  0  0  0
   -2.5030   19.8100  -26.9490 C   0  0  0  0  0  0  0  0  0  0  0  0
   -2.3370   18.5220  -26.4370 C   0  0  0  0  0  0  0  0  0  0  0  0
   -1.1690   17.8060  -26.7080 C   0  0  0  0  0  0  0  0  0  0  0  0
   -0.1620   18.3740  -27.4950 C   0  0  0  0  0  0  0  0  0  0  0  0
    0.9930   17.6470  -27.7560 O   0  0  0  0  0  0  0  0  0  0  0  0
   -0.3220   19.6710  -28.0170 C   0  0  0  0  0  0  0  0  0  0  0  0
    0.6710   20.2450  -28.8120 O   0  0  0  0  0  0  0  0  0  0  0  0
   -2.8510   21.9570  -29.0250 C   0  0  0  0  0  0  0  0  0  0  0  0
   -3.3190   23.0960  -29.6560 C   0  0  0  0  0  0  0  0  0  0  0  0
   -2.7590   24.3610  -29.7250 C   0  0  0  0  0  0  0  0  0  0  0  0
   -3.4820   25.3020  -30.4550 O   0  0  0  0  0  0  0  0  0  0  0  0
   -1.5640   24.7980  -29.1550 C   0  0  0  0  0  0  0  0  0  0  0  0
   -1.2360   26.1320  -29.3920 O   0  0  0  0  0  0  0  0  0  0  0  0
   -0.6540   24.0750  -28.3730 C   0  0  0  0  0  0  0  0  0  0  0  0
    0.4560   24.7980  -27.9350 O   0  0  0  0  0  0  0  0  0  0  0  0
   -3.4239   20.3707  -26.7309 H   0  0  0  0  0  0  0  0  0  0  0  0
   -3.1272   18.0704  -25.8193 H   0  0  0  0  0  0  0  0  0  0  0  0
   -1.0406   16.7921  -26.3012 H   0  0  0  0  0  0  0  0  0  0  0  0
    1.1420   21.1030  -28.5490 H   0  0  0  0  0  0  0  0  0  0  0  0
   -3.4873   21.0663  -29.1331 H   0  0  0  0  0  0  0  0  0  0  0  0
   -4.2786   22.9796  -30.1810 H   0  0  0  0  0  0  0  0  0  0  0  0
  1  2  2  0
  2  3  1  0
  3  4  1  0
  4  5  2  0
  5  6  1  0
  6  7  2  0
  7  8  1  0
  8  9  1  0
  8 10  2  0
 10 11  1  0
  3 12  2  0
 12 13  1  0
 13 14  2  0
 14 15  1  0
 14 16  1  0
 16 17  1  0
 16 18  2  0
 18 19  1  0
 18  2  1  0
 10  4  1  0
  5 20  1  0
  6 21  1  0
  7 22  1  0
 11 23  1  0
 12 24  1  0
 13 25  1  0
M  CHG  4   9  -1  15  -1  17  -1  19  -1
M  END
>  <UniqueID>  (36) 
36

>  <SMILES>  (36) 
O=c1c(-c2cccc([O-])c2O)ccc([O-])c([O-])c1[O-]

>  <Energy>  (36) 
59.30420852412942

>  <Genealogy>  (36) 
O=c1c(-c2cccc([O-])c2O)ccc([O-])c([O-])c1[O-] (protonated)
O=c1c(-c2cccc([O-])c2O)ccc([O-])c([O-])c1[O-] (3D coordinates assigned)
O=c1c(-c2cccc([O-])c2O)ccc([O-])c([O-])c1[O-] (optimized conformer: 59.30420852412942 kcal/mol)

>  <smiles>  (36) 
O=c1c(-c2cccc(O)c2O)ccc(O)c(O)c1O

>  <score_type>  (36) 
oracle

>  <origin>  (36) 
adgpu

>  <m_score__min__energy>  (36) 
-12.67

>  <m_primary>  (36) 
energy

$$$$
36:0
     RDKit          3D

 49 53  0  0  0  0  0  0  0  0999 V2000
   -2.5590   15.4120  -33.1290 C   0  0  0  0  0  0  0  0  0  0  0  0
   -3.7200   16.3510  -33.1200 C   0  0  0  0  0  0  0  0  0  0  0  0
   -5.0180   16.0130  -32.7450 C   0  0  0  0  0  0  0  0  0  0  0  0
   -5.7560   17.1550  -32.9620 C   0  0  0  0  0  0  0  0  0  0  0  0
   -7.1120   17.4060  -32.7670 C   0  0  0  0  0  0  0  0  0  0  0  0
   -7.6040   18.6970  -33.0870 C   0  0  0  0  0  0  0  0  0  0  0  0
   -8.9520   19.0530  -32.9160 O   0  0  0  0  0  0  0  0  0  0  0  0
   -9.4680   19.8290  -31.8360 C   0  0  0  0  0  0  0  0  0  0  0  0
   -8.7280   21.1230  -31.7240 C   0  0  0  0  0  0  0  0  0  0  0  0
   -7.5510   21.2670  -31.0850 N   0  0  0  0  0  0  0  0  0  0  0  0
   -7.3020   22.5800  -31.2770 C   0  0  0  0  0  0  0  0  0  0  0  0
   -6.0960   23.2710  -30.7740 C   0  0  0  0  0  0  0  0  0  0  0  0
   -4.9250   22.5460  -30.4950 C   0  0  0  0  0  0  0  0  0  0  0  0
   -3.7830   23.1990  -30.0230 C   0  0  0  0  0  0  0  0  0  0  0  0
   -3.7900   24.5920  -29.8340 C   0  0  0  0  0  0  0  0  0  0  0  0
   -2.6680   25.2810  -29.3480 O   0  0  0  0  0  0  0  0  0  0  0  0
   -1.9090   24.9100  -28.2280 C   0  0  0  0  0  0  0  0  0  0  0  0
   -0.6800   24.2350  -28.3520 C   0  0  0  0  0  0  0  0  0  0  0  0
    0.0560   23.8980  -27.2120 C   0  0  0  0  0  0  0  0  0  0  0  0
   -0.4230   24.2400  -25.9440 C   0  0  0  0  0  0  0  0  0  0  0  0
   -1.6340   24.9260  -25.8150 C   0  0  0  0  0  0  0  0  0  0  0  0
   -2.3710   25.2660  -26.9550 C   0  0  0  0  0  0  0  0  0  0  0  0
   -4.9620   25.3120  -30.0890 C   0  0  0  0  0  0  0  0  0  0  0  0
   -6.1050   24.6600  -30.5630 C   0  0  0  0  0  0  0  0  0  0  0  0
   -8.2750   23.1880  -31.9880 N   0  0  0  0  0  0  0  0  0  0  0  0
   -9.1380   22.2520  -32.2450 O   0  0  0  0  0  0  0  0  0  0  0  0
   -6.7170   19.6740  -33.5990 C   0  0  0  0  0  0  0  0  0  0  0  0
   -5.3530   19.3850  -33.7890 C   0  0  0  0  0  0  0  0  0  0  0  0
   -4.9060   18.1090  -33.4550 C   0  0  0  0  0  0  0  0  0  0  0  0
   -3.6560   17.6280  -33.5640 N   0  0  0  0  0  0  0  0  0  0  0  0
   -2.2691   15.1775  -32.0941 H   0  0  0  0  0  0  0  0  0  0  0  0
   -2.8411   14.4851  -33.6497 H   0  0  0  0  0  0  0  0  0  0  0  0
   -1.7115   15.8817  -33.6497 H   0  0  0  0  0  0  0  0  0  0  0  0
   -5.3751   15.0464  -32.3601 H   0  0  0  0  0  0  0  0  0  0  0  0
   -7.7817   16.6257  -32.3762 H   0  0  0  0  0  0  0  0  0  0  0  0
  -10.5337   20.0352  -32.0145 H   0  0  0  0  0  0  0  0  0  0  0  0
   -9.3438   19.2648  -30.8999 H   0  0  0  0  0  0  0  0  0  0  0  0
   -4.9070   21.4570  -30.6492 H   0  0  0  0  0  0  0  0  0  0  0  0
   -2.8748   22.6204  -29.7984 H   0  0  0  0  0  0  0  0  0  0  0  0
   -0.2974   23.9718  -29.3491 H   0  0  0  0  0  0  0  0  0  0  0  0
    1.0122   23.3636  -27.3129 H   0  0  0  0  0  0  0  0  0  0  0  0
    0.1535   23.9691  -25.0472 H   0  0  0  0  0  0  0  0  0  0  0  0
   -2.0078   25.1987  -24.8171 H   0  0  0  0  0  0  0  0  0  0  0  0
   -3.3181   25.8157  -26.8505 H   0  0  0  0  0  0  0  0  0  0  0  0
   -4.9848   26.3980  -29.9156 H   0  0  0  0  0  0  0  0  0  0  0  0
   -7.0170   25.2385  -30.7720 H   0  0  0  0  0  0  0  0  0  0  0  0
   -7.0995   20.6738  -33.8521 H   0  0  0  0  0  0  0  0  0  0  0  0
   -4.6623   20.1423  -34.1883 H   0  0  0  0  0  0  0  0  0  0  0  0
   -2.8160   18.1310  -33.9250 H   0  0  0  0  0  0  0  0  0  0  0  0
  1  2  1  0
  2  3  2  0
  3  4  1  0
  4  5  2  0
  5  6  1  0
  6  7  1  0
  7  8  1  0
  8  9  1  0
  9 10  2  0
 10 11  1  0
 11 12  1  0
 12 13  2  0
 13 14  1  0
 14 15  2  0
 15 16  1  0
 16 17  1  0
 17 18  2  0
 18 19  1  0
 19 20  2  0
 20 21  1  0
 21 22  2  0
 15 23  1  0
 23 24  2  0
 11 25  2  0
 25 26  1  0
  6 27  2  0
 27 28  1  0
 28 29  2  0
 29 30  1  0
 30  2  1  0
 29  4  1  0
 26  9  1  0
 24 12  1  0
 22 17  1  0
  1 31  1  0
  1 32  1  0
  1 33  1  0
  3 34  1  0
  5 35  1  0
  8 36  1  0
  8 37  1  0
 13 38  1  0
 14 39  1  0
 18 40  1  0
 19 41  1  0
 20 42  1  0
 21 43  1  0
 22 44  1  0
 23 45  1  0
 24 46  1  0
 27 47  1  0
 28 48  1  0
 30 49  1  0
M  END
>  <UniqueID>  (37) 
37

>  <SMILES>  (37) 
Cc1cc2cc(OCc3nc(-c4ccc(Oc5ccccc5)cc4)no3)ccc2[nH]1

>  <Energy>  (37) 
125.49561526997404

>  <Genealogy>  (37) 
Cc1cc2cc(OCc3nc(-c4ccc(Oc5ccccc5)cc4)no3)ccc2[nH]1 (3D coordinates assigned)
Cc1cc2cc(OCc3nc(-c4ccc(Oc5ccccc5)cc4)no3)ccc2[nH]1 (optimized conformer: 125.49561526997404 kcal/mol)

>  <smiles>  (37) 
Cc1cc2cc(OCc3nc(-c4ccc(Oc5ccccc5)cc4)no3)ccc2[nH]1

>  <score_type>  (37) 
oracle

>  <origin>  (37) 
adgpu

>  <m_score__min__energy>  (37) 
-9.9900000000000002

>  <m_primary>  (37) 
energy

$$$$
37:0
     RDKit          3D

 67 71  0  0  0  0  0  0  0  0999 V2000
    0.1730   21.0270  -32.8740 C   0  0  0  0  0  0  0  0  0  0  0  0
    0.3100   19.6370  -32.4090 N   0  0  0  0  0  0  0  0  0  0  0  0
    1.7380   19.2710  -32.2120 C   0  0  0  0  0  0  0  0  0  0  0  0
    2.1520   19.2770  -30.7340 C   0  0  0  0  0  0  0  0  0  0  0  0
    1.3180   18.2540  -29.9350 C   0  0  0  0  0  0  0  0  0  0  0  0
    1.3570   18.6520  -28.1850 S   0  0  0  0  0  0  0  0  0  0  0  0
    2.6630   19.3110  -27.8380 O   0  0  0  0  0  0  0  0  0  0  0  0
    1.2320   17.3900  -27.3770 O   0  0  0  0  0  0  0  0  0  0  0  0
   -0.0110   19.7050  -27.8060 C   0  0  0  0  0  0  0  0  0  0  0  0
    0.0770   21.0610  -28.1480 C   0  0  0  0  0  0  0  0  0  0  0  0
   -0.9720   21.9400  -27.8570 C   0  0  0  0  0  0  0  0  0  0  0  0
   -0.8790   23.6140  -28.3920 S   0  0  0  0  0  0  0  0  0  0  0  0
    0.4910   24.1560  -28.0970 O   0  0  0  0  0  0  0  0  0  0  0  0
   -1.8980   24.4600  -27.6790 O   0  0  0  0  0  0  0  0  0  0  0  0
   -1.1650   23.6580  -30.0960 N   0  0  0  0  0  0  0  0  0  0  0  0
   -2.4000   23.1740  -30.6200 C   0  0  0  0  0  0  0  0  0  0  0  0
   -2.4740   21.8830  -31.1540 C   0  0  0  0  0  0  0  0  0  0  0  0
   -3.6730   21.4090  -31.7070 C   0  0  0  0  0  0  0  0  0  0  0  0
   -4.7950   22.2600  -31.7680 C   0  0  0  0  0  0  0  0  0  0  0  0
   -4.7190   23.5470  -31.2110 C   0  0  0  0  0  0  0  0  0  0  0  0
   -3.5280   24.0030  -30.6410 C   0  0  0  0  0  0  0  0  0  0  0  0
   -3.4640   25.2860  -30.1090 O   0  0  0  0  0  0  0  0  0  0  0  0
   -6.1110   21.7850  -32.3320 C   0  0  0  0  0  0  0  0  0  0  0  0
   -5.9770   20.5600  -33.1560 N   0  0  0  0  0  0  0  0  0  0  0  0
   -7.3040   20.0400  -33.5830 C   0  0  0  0  0  0  0  0  0  0  0  0
   -7.7790   18.7950  -32.7970 C   0  0  0  0  0  0  0  0  0  0  0  0
   -7.3150   18.8280  -31.3380 C   0  0  0  0  0  0  0  0  0  0  0  0
   -5.7850   18.9790  -31.2190 C   0  0  0  0  0  0  0  0  0  0  0  0
   -5.1420   19.5180  -32.5200 C   0  0  2  0  0  0  0  0  0  0  0  0
   -3.7100   20.0300  -32.3040 C   0  0  0  0  0  0  0  0  0  0  0  0
   -2.1240   21.4590  -27.2230 C   0  0  0  0  0  0  0  0  0  0  0  0
   -2.2170   20.1120  -26.8670 C   0  0  0  0  0  0  0  0  0  0  0  0
   -1.1640   19.2290  -27.1520 C   0  0  0  0  0  0  0  0  0  0  0  0
   -1.2700   17.8890  -26.7850 O   0  0  0  0  0  0  0  0  0  0  0  0
   -0.1330   18.1440  -30.4600 C   0  0  0  0  0  0  0  0  0  0  0  0
   -0.5520   19.4060  -31.2240 C   0  0  0  0  0  0  0  0  0  0  0  0
    0.1067   21.6992  -32.0058 H   0  0  0  0  0  0  0  0  0  0  0  0
    1.0488   21.2983  -33.4818 H   0  0  0  0  0  0  0  0  0  0  0  0
   -0.7389   21.1221  -33.4818 H   0  0  0  0  0  0  0  0  0  0  0  0
    1.9024   18.2626  -32.6195 H   0  0  0  0  0  0  0  0  0  0  0  0
    2.3489   20.0239  -32.7315 H   0  0  0  0  0  0  0  0  0  0  0  0
    3.2176   19.0155  -30.6555 H   0  0  0  0  0  0  0  0  0  0  0  0
    1.9762   20.2806  -30.3194 H   0  0  0  0  0  0  0  0  0  0  0  0
    1.7752   17.2638  -30.0782 H   0  0  0  0  0  0  0  0  0  0  0  0
    0.9799   21.4383  -28.6504 H   0  0  0  0  0  0  0  0  0  0  0  0
   -1.5854   21.2348  -31.1401 H   0  0  0  0  0  0  0  0  0  0  0  0
   -5.6037   24.2006  -31.2237 H   0  0  0  0  0  0  0  0  0  0  0  0
   -6.7948   21.5731  -31.4968 H   0  0  0  0  0  0  0  0  0  0  0  0
   -6.4970   22.5815  -32.9851 H   0  0  0  0  0  0  0  0  0  0  0  0
   -8.0479   20.8388  -33.4466 H   0  0  0  0  0  0  0  0  0  0  0  0
   -7.1996   19.7304  -34.6333 H   0  0  0  0  0  0  0  0  0  0  0  0
   -8.8782   18.7584  -32.8196 H   0  0  0  0  0  0  0  0  0  0  0  0
   -7.3421   17.9048  -33.2731 H   0  0  0  0  0  0  0  0  0  0  0  0
   -7.7957   19.6783  -30.8321 H   0  0  0  0  0  0  0  0  0  0  0  0
   -7.5985   17.8733  -30.8708 H   0  0  0  0  0  0  0  0  0  0  0  0
   -5.5617   19.6774  -30.3990 H   0  0  0  0  0  0  0  0  0  0  0  0
   -5.3637   17.9816  -31.0251 H   0  0  0  0  0  0  0  0  0  0  0  0
   -5.0827   18.6598  -33.2056 H   0  0  0  0  0  0  0  0  0  0  0  0
   -3.1871   19.3387  -31.6267 H   0  0  0  0  0  0  0  0  0  0  0  0
   -3.2220   20.0800  -33.2886 H   0  0  0  0  0  0  0  0  0  0  0  0
   -2.9571   22.1434  -27.0050 H   0  0  0  0  0  0  0  0  0  0  0  0
   -3.1203   19.7410  -26.3606 H   0  0  0  0  0  0  0  0  0  0  0  0
   -0.5100   17.3990  -26.3270 H   0  0  0  0  0  0  0  0  0  0  0  0
   -0.2043   17.2779  -31.1343 H   0  0  0  0  0  0  0  0  0  0  0  0
   -0.8041   18.0247  -29.5966 H   0  0  0  0  0  0  0  0  0  0  0  0
   -1.5942   19.2924  -31.5571 H   0  0  0  0  0  0  0  0  0  0  0  0
   -0.4478   20.2681  -30.5488 H   0  0  0  0  0  0  0  0  0  0  0  0
  1  2  1  0
  2  3  1  0
  3  4  1  0
  4  5  1  0
  5  6  1  0
  6  7  2  0
  6  8  2  0
  6  9  1  0
  9 10  2  0
 10 11  1  0
 11 12  1  0
 12 13  2  0
 12 14  2  0
 12 15  1  0
 15 16  1  0
 16 17  2  0
 17 18  1  0
 18 19  2  0
 19 20  1  0
 20 21  2  0
 21 22  1  0
 19 23  1  0
 23 24  1  0
 24 25  1  0
 25 26  1  0
 26 27  1  0
 27 28  1  0
 28 29  1  0
 29 30  1  0
 11 31  2  0
 31 32  1  0
 32 33  2  0
 33 34  1  0
  5 35  1  0
 35 36  1  0
 36  2  1  0
 33  9  1  0
 21 16  1  0
 29 24  1  0
 30 18  1  0
  1 37  1  0
  1 38  1  0
  1 39  1  0
  3 40  1  0
  3 41  1  0
  4 42  1  0
  4 43  1  0
  5 44  1  0
 10 45  1  0
 17 46  1  0
 20 47  1  0
 23 48  1  0
 23 49  1  0
 25 50  1  0
 25 51  1  0
 26 52  1  0
 26 53  1  0
 27 54  1  0
 27 55  1  0
 28 56  1  0
 28 57  1  0
 29 58  1  6
 30 59  1  0
 30 60  1  0
 31 61  1  0
 32 62  1  0
 34 63  1  0
 35 64  1  0
 35 65  1  0
 36 66  1  0
 36 67  1  0
M  CHG  2  15  -1  22  -1
M  END
>  <UniqueID>  (38) 
38

>  <SMILES>  (38) 
CN1CCC(S(=O)(=O)c2cc(S(=O)(=O)[N-]c3cc4c(cc3[O-])CN3CCCC[C@@H]3C4)ccc2O)CC1

>  <Energy>  (38) 
96.66418924866501

>  <Genealogy>  (38) 
CN1CCC(S(=O)(=O)c2cc(S(=O)(=O)[N-]c3cc4c(cc3[O-])CN3CCCCC3C4)ccc2O)CC1 (protonated)
CN1CCC(S(=O)(=O)c2cc(S(=O)(=O)[N-]c3cc4c(cc3[O-])CN3CCCC[C@@H]3C4)ccc2O)CC1 (chirality)
CN1CCC(S(=O)(=O)c2cc(S(=O)(=O)[N-]c3cc4c(cc3[O-])CN3CCCC[C@@H]3C4)ccc2O)CC1 (3D coordinates assigned)
CN1CCC(S(=O)(=O)c2cc(S(=O)(=O)[N-]c3cc4c(cc3[O-])CN3CCCC[C@@H]3C4)ccc2O)CC1 (nonaromatic ring conformer: 96.66418924866501 kcal/mol)

>  <smiles>  (38) 
CN1CCC(S(=O)(=O)c2cc(S(=O)(=O)Nc3cc4c(cc3O)CN3CCCCC3C4)ccc2O)CC1

>  <score_type>  (38) 
oracle

>  <origin>  (38) 
adgpu

>  <m_score__min__energy>  (38) 
-14.529999999999999

>  <m_primary>  (38) 
energy

$$$$
38:0
     RDKit          3D

 72 76  0  0  0  0  0  0  0  0999 V2000
    2.3250   24.7670  -36.0790 C   0  0  0  0  0  0  0  0  0  0  0  0
    2.1780   23.4320  -36.5510 O   0  0  0  0  0  0  0  0  0  0  0  0
    1.5650   22.3990  -35.8270 C   0  0  0  0  0  0  0  0  0  0  0  0
    2.2680   21.6050  -34.9020 C   0  0  0  0  0  0  0  0  0  0  0  0
    1.6130   20.5840  -34.2090 C   0  0  0  0  0  0  0  0  0  0  0  0
    0.2490   20.3360  -34.4270 C   0  0  0  0  0  0  0  0  0  0  0  0
   -0.4280   19.3010  -33.6920 N   0  0  0  0  0  0  0  0  0  0  0  0
   -1.0590   18.1760  -34.3950 C   0  0  0  0  0  0  0  0  0  0  0  0
   -2.4560   17.9000  -33.8760 C   0  0  0  0  0  0  0  0  0  0  0  0
   -3.4540   18.8870  -33.9570 C   0  0  0  0  0  0  0  0  0  0  0  0
   -4.7310   18.6490  -33.4390 C   0  0  0  0  0  0  0  0  0  0  0  0
   -5.7470   19.6130  -33.5390 C   0  0  0  0  0  0  0  0  0  0  0  0
   -7.0240   19.3520  -33.0020 C   0  0  0  0  0  0  0  0  0  0  0  0
   -8.0750   20.2790  -33.0750 O   0  0  0  0  0  0  0  0  0  0  0  0
   -9.4240   19.9990  -32.7170 C   0  0  0  0  0  0  0  0  0  0  0  0
   -7.2640   18.1260  -32.3680 C   0  0  0  0  0  0  0  0  0  0  0  0
   -6.2560   17.1630  -32.2710 C   0  0  0  0  0  0  0  0  0  0  0  0
   -4.9900   17.4190  -32.8060 C   0  0  0  0  0  0  0  0  0  0  0  0
   -4.0090   16.4840  -32.7140 N   0  0  0  0  0  0  0  0  0  0  0  0
   -2.7640   16.6900  -33.2220 C   0  0  0  0  0  0  0  0  0  0  0  0
   -1.8940   15.7870  -33.0950 O   0  0  0  0  0  0  0  0  0  0  0  0
   -0.4960   19.3540  -31.9530 S   0  0  0  0  0  0  0  0  0  0  0  0
    0.8420   19.7380  -31.3840 O   0  0  0  0  0  0  0  0  0  0  0  0
   -0.8560   17.9940  -31.4260 O   0  0  0  0  0  0  0  0  0  0  0  0
   -1.7060   20.5330  -31.4540 C   0  0  0  0  0  0  0  0  0  0  0  0
   -1.9460   20.7690  -30.0940 C   0  0  0  0  0  0  0  0  0  0  0  0
   -2.7990   21.8040  -29.6990 C   0  0  0  0  0  0  0  0  0  0  0  0
   -3.4320   22.6010  -30.6640 C   0  0  0  0  0  0  0  0  0  0  0  0
   -4.4140   23.9830  -30.1890 S   0  0  0  0  0  0  0  0  0  0  0  0
   -4.3710   24.1160  -28.6920 O   0  0  0  0  0  0  0  0  0  0  0  0
   -3.8650   25.2410  -30.8040 O   0  0  0  0  0  0  0  0  0  0  0  0
   -6.0620   23.7340  -30.7140 N   0  0  0  0  0  0  0  0  0  0  0  0
   -6.0930   23.4690  -32.1650 C   0  0  0  0  0  0  0  0  0  0  0  0
   -7.5420   23.4220  -32.6940 C   0  0  0  0  0  0  0  0  0  0  0  0
   -8.5560   23.0110  -31.6140 C   0  0  0  0  0  0  0  0  0  0  0  0
   -7.9340   22.0350  -30.6170 C   0  0  0  0  0  0  0  0  0  0  0  0
   -6.6780   22.6290  -29.9410 C   0  0  0  0  0  0  0  0  0  0  0  0
   -3.2190   22.3420  -32.0230 C   0  0  0  0  0  0  0  0  0  0  0  0
   -2.3590   21.3140  -32.4170 C   0  0  0  0  0  0  0  0  0  0  0  0
   -0.4530   21.1360  -35.3420 C   0  0  0  0  0  0  0  0  0  0  0  0
    0.2030   22.1560  -36.0370 C   0  0  0  0  0  0  0  0  0  0  0  0
    2.3252   24.7691  -34.9790 H   0  0  0  0  0  0  0  0  0  0  0  0
    3.2744   25.1834  -36.4466 H   0  0  0  0  0  0  0  0  0  0  0  0
    1.4889   25.3800  -36.4466 H   0  0  0  0  0  0  0  0  0  0  0  0
    3.3378   21.7890  -34.7238 H   0  0  0  0  0  0  0  0  0  0  0  0
    2.1707   19.9697  -33.4868 H   0  0  0  0  0  0  0  0  0  0  0  0
   -1.1182   18.4143  -35.4672 H   0  0  0  0  0  0  0  0  0  0  0  0
   -0.4468   17.2785  -34.2226 H   0  0  0  0  0  0  0  0  0  0  0  0
   -3.2287   19.8536  -34.4313 H   0  0  0  0  0  0  0  0  0  0  0  0
   -5.5462   20.5731  -34.0370 H   0  0  0  0  0  0  0  0  0  0  0  0
   -9.5161   19.9799  -31.6210 H   0  0  0  0  0  0  0  0  0  0  0  0
  -10.0817   20.7798  -33.1267 H   0  0  0  0  0  0  0  0  0  0  0  0
   -9.7166   19.0210  -33.1267 H   0  0  0  0  0  0  0  0  0  0  0  0
   -8.2568   17.9191  -31.9419 H   0  0  0  0  0  0  0  0  0  0  0  0
   -6.4587   16.2031  -31.7735 H   0  0  0  0  0  0  0  0  0  0  0  0
   -1.4617   20.1378  -29.3344 H   0  0  0  0  0  0  0  0  0  0  0  0
   -2.9739   21.9935  -28.6297 H   0  0  0  0  0  0  0  0  0  0  0  0
   -6.5830   24.6210  -30.5190 H   0  0  0  0  0  0  0  0  0  0  0  0
   -5.5463   24.2680  -32.6872 H   0  0  0  0  0  0  0  0  0  0  0  0
   -5.6232   22.4918  -32.3503 H   0  0  0  0  0  0  0  0  0  0  0  0
   -7.8123   24.4204  -33.0685 H   0  0  0  0  0  0  0  0  0  0  0  0
   -7.5800   22.6642  -33.4904 H   0  0  0  0  0  0  0  0  0  0  0  0
   -8.8910   23.9097  -31.0754 H   0  0  0  0  0  0  0  0  0  0  0  0
   -9.4061   22.5142  -32.1045 H   0  0  0  0  0  0  0  0  0  0  0  0
   -8.6767   21.7964  -29.8415 H   0  0  0  0  0  0  0  0  0  0  0  0
   -7.6319   21.1310  -31.1661 H   0  0  0  0  0  0  0  0  0  0  0  0
   -6.9634   23.0128  -28.9504 H   0  0  0  0  0  0  0  0  0  0  0  0
   -5.9323   21.8231  -29.8747 H   0  0  0  0  0  0  0  0  0  0  0  0
   -3.7307   22.9501  -32.7835 H   0  0  0  0  0  0  0  0  0  0  0  0
   -2.1939   21.1170  -33.4865 H   0  0  0  0  0  0  0  0  0  0  0  0
   -1.5252   20.9593  -35.5131 H   0  0  0  0  0  0  0  0  0  0  0  0
   -0.3564   22.7732  -36.7554 H   0  0  0  0  0  0  0  0  0  0  0  0
  1  2  1  0
  2  3  1  0
  3  4  2  0
  4  5  1  0
  5  6  2  0
  6  7  1  0
  7  8  1  0
  8  9  1  0
  9 10  2  0
 10 11  1  0
 11 12  2  0
 12 13  1  0
 13 14  1  0
 14 15  1  0
 13 16  2  0
 16 17  1  0
 17 18  2  0
 18 19  1  0
 19 20  1  0
 20 21  2  0
  7 22  1  0
 22 23  2  0
 22 24  2  0
 22 25  1  0
 25 26  2  0
 26 27  1  0
 27 28  2  0
 28 29  1  0
 29 30  2  0
 29 31  2  0
 29 32  1  0
 32 33  1  0
 33 34  1  0
 34 35  1  0
 35 36  1  0
 36 37  1  0
 28 38  1  0
 38 39  2  0
  6 40  1  0
 40 41  2  0
 41  3  1  0
 20  9  1  0
 39 25  1  0
 18 11  1  0
 37 32  1  0
  1 42  1  0
  1 43  1  0
  1 44  1  0
  4 45  1  0
  5 46  1  0
  8 47  1  0
  8 48  1  0
 10 49  1  0
 12 50  1  0
 15 51  1  0
 15 52  1  0
 15 53  1  0
 16 54  1  0
 17 55  1  0
 26 56  1  0
 27 57  1  0
 32 58  1  0
 33 59  1  0
 33 60  1  0
 34 61  1  0
 34 62  1  0
 35 63  1  0
 35 64  1  0
 36 65  1  0
 36 66  1  0
 37 67  1  0
 37 68  1  0
 38 69  1  0
 39 70  1  0
 40 71  1  0
 41 72  1  0
M  CHG  2  19  -1  32   1
M  END
>  <UniqueID>  (39) 
39

>  <SMILES>  (39) 
COc1ccc(N(Cc2cc3cc(OC)ccc3[n-]c2=O)S(=O)(=O)c2ccc(S(=O)(=O)[NH+]3CCCCC3)cc2)cc1

>  <Energy>  (39) 
81.28527046116591

>  <Genealogy>  (39) 
COc1ccc(N(Cc2cc3cc(OC)ccc3[n-]c2=O)S(=O)(=O)c2ccc(S(=O)(=O)[NH+]3CCCCC3)cc2)cc1 (protonated)
COc1ccc(N(Cc2cc3cc(OC)ccc3[n-]c2=O)S(=O)(=O)c2ccc(S(=O)(=O)[NH+]3CCCCC3)cc2)cc1 (3D coordinates assigned)
COc1ccc(N(Cc2cc3cc(OC)ccc3[n-]c2=O)S(=O)(=O)c2ccc(S(=O)(=O)[NH+]3CCCCC3)cc2)cc1 (nonaromatic ring conformer: 81.28527046116591 kcal/mol)

>  <smiles>  (39) 
COc1ccc(N(Cc2cc3cc(OC)ccc3[nH]c2=O)S(=O)(=O)c2ccc(S(=O)(=O)N3CCCCC3)cc2)cc1

>  <score_type>  (39) 
oracle

>  <origin>  (39) 
adgpu

>  <m_score__min__energy>  (39) 
-13.18

>  <m_primary>  (39) 
energy

$$$$
39:0
     RDKit          3D

 42 44  0  0  0  0  0  0  0  0999 V2000
   -1.6150   25.6740  -29.3420 O   0  0  0  0  0  0  0  0  0  0  0  0
   -2.2940   24.6130  -29.3330 C   0  0  0  0  0  0  0  0  0  0  0  0
   -1.7560   23.4590  -28.7770 O   0  0  0  0  0  0  0  0  0  0  0  0
   -3.6470   24.5900  -29.9030 C   0  0  0  0  0  0  0  0  0  0  0  0
   -4.5020   23.5040  -29.8930 C   0  0  0  0  0  0  0  0  0  0  0  0
   -5.6430   23.9370  -30.5260 C   0  0  0  0  0  0  0  0  0  0  0  0
   -7.1070   23.0060  -30.7850 S   0  0  0  0  0  0  0  0  0  0  0  0
   -8.0910   23.7950  -31.6010 O   0  0  0  0  0  0  0  0  0  0  0  0
   -7.7210   22.6840  -29.4510 O   0  0  0  0  0  0  0  0  0  0  0  0
   -6.7240   21.5290  -31.6130 N   0  0  0  0  0  0  0  0  0  0  0  0
   -5.4170   21.2080  -32.1230 C   0  0  0  0  0  0  0  0  0  0  0  0
   -4.9180   19.9070  -31.9520 C   0  0  0  0  0  0  0  0  0  0  0  0
   -3.6530   19.5610  -32.4320 C   0  0  0  0  0  0  0  0  0  0  0  0
   -2.8680   20.5080  -33.1010 C   0  0  0  0  0  0  0  0  0  0  0  0
   -1.2750   20.0680  -33.7240 S   0  0  0  0  0  0  0  0  0  0  0  0
   -0.8500   21.0770  -34.7550 O   0  0  0  0  0  0  0  0  0  0  0  0
   -1.3600   18.7250  -34.3950 O   0  0  0  0  0  0  0  0  0  0  0  0
   -0.0770   20.0060  -32.4500 N   0  0  0  0  0  0  0  0  0  0  0  0
   -0.1550   21.1940  -31.5700 C   0  0  0  0  0  0  0  0  0  0  0  0
   -0.8100   20.8660  -30.2170 C   0  0  0  0  0  0  0  0  0  0  0  0
   -0.1270   19.8510  -29.4940 O   0  0  0  0  0  0  0  0  0  0  0  0
    0.4710   18.8600  -30.3230 C   0  0  0  0  0  0  0  0  0  0  0  0
   -0.1720   18.7320  -31.7130 C   0  0  0  0  0  0  0  0  0  0  0  0
   -3.3580   21.8090  -33.2740 C   0  0  0  0  0  0  0  0  0  0  0  0
   -4.6240   22.1570  -32.7930 C   0  0  0  0  0  0  0  0  0  0  0  0
   -5.4400   25.2500  -30.8890 C   0  0  0  0  0  0  0  0  0  0  0  0
   -4.2130   25.6570  -30.5080 N   0  0  0  0  0  0  0  0  0  0  0  0
   -4.3105   22.5071  -29.4694 H   0  0  0  0  0  0  0  0  0  0  0  0
   -7.4850   20.8160  -31.6820 H   0  0  0  0  0  0  0  0  0  0  0  0
   -5.5294   19.1528  -31.4349 H   0  0  0  0  0  0  0  0  0  0  0  0
   -3.2716   18.5399  -32.2838 H   0  0  0  0  0  0  0  0  0  0  0  0
    0.8629   21.5703  -31.3900 H   0  0  0  0  0  0  0  0  0  0  0  0
   -0.7751   21.9502  -32.0736 H   0  0  0  0  0  0  0  0  0  0  0  0
   -0.8253   21.7803  -29.6056 H   0  0  0  0  0  0  0  0  0  0  0  0
   -1.8227   20.4914  -30.4272 H   0  0  0  0  0  0  0  0  0  0  0  0
    1.5326   19.1157  -30.4559 H   0  0  0  0  0  0  0  0  0  0  0  0
    0.3263   17.8941  -29.8169 H   0  0  0  0  0  0  0  0  0  0  0  0
    0.3484   17.9466  -32.2808 H   0  0  0  0  0  0  0  0  0  0  0  0
   -1.2339   18.4731  -31.5892 H   0  0  0  0  0  0  0  0  0  0  0  0
   -2.7435   22.5608  -33.7910 H   0  0  0  0  0  0  0  0  0  0  0  0
   -5.0022   23.1795  -32.9395 H   0  0  0  0  0  0  0  0  0  0  0  0
   -6.1748   25.8772  -31.4150 H   0  0  0  0  0  0  0  0  0  0  0  0
  1  2  2  0
  2  3  1  0
  2  4  1  0
  4  5  2  0
  5  6  1  0
  6  7  1  0
  7  8  2  0
  7  9  2  0
  7 10  1  0
 10 11  1  0
 11 12  2  0
 12 13  1  0
 13 14  2  0
 14 15  1  0
 15 16  2  0
 15 17  2  0
 15 18  1  0
 18 19  1  0
 19 20  1  0
 20 21  1  0
 21 22  1  0
 22 23  1  0
 14 24  1  0
 24 25  2  0
  6 26  2  0
 26 27  1  0
 27  4  1  0
 25 11  1  0
 23 18  1  0
  5 28  1  0
 10 29  1  0
 12 30  1  0
 13 31  1  0
 19 32  1  0
 19 33  1  0
 20 34  1  0
 20 35  1  0
 22 36  1  0
 22 37  1  0
 23 38  1  0
 23 39  1  0
 24 40  1  0
 25 41  1  0
 26 42  1  0
M  CHG  2   3  -1  27  -1
M  END
>  <UniqueID>  (40) 
40

>  <SMILES>  (40) 
O=C([O-])c1cc(S(=O)(=O)Nc2ccc(S(=O)(=O)N3CCOCC3)cc2)c[n-]1

>  <Energy>  (40) 
81.57535341456007

>  <Genealogy>  (40) 
O=C([O-])c1cc(S(=O)(=O)Nc2ccc(S(=O)(=O)N3CCOCC3)cc2)c[n-]1 (protonated)
O=C([O-])c1cc(S(=O)(=O)Nc2ccc(S(=O)(=O)N3CCOCC3)cc2)c[n-]1 (3D coordinates assigned)
O=C([O-])c1cc(S(=O)(=O)Nc2ccc(S(=O)(=O)N3CCOCC3)cc2)c[n-]1 (nonaromatic ring conformer: 81.57535341456007 kcal/mol)

>  <smiles>  (40) 
O=C(O)c1cc(S(=O)(=O)Nc2ccc(S(=O)(=O)N3CCOCC3)cc2)c[nH]1

>  <score_type>  (40) 
oracle

>  <origin>  (40) 
adgpu

>  <m_score__min__energy>  (40) 
-11.65

>  <m_primary>  (40) 
energy

$$$$
40:0
     RDKit          3D

 57 60  0  0  0  0  0  0  0  0999 V2000
   -0.5210   24.3630  -29.6230 O   0  0  0  0  0  0  0  0  0  0  0  0
   -1.3980   24.7680  -28.8170 C   0  0  0  0  0  0  0  0  0  0  0  0
   -2.6410   25.2920  -29.3080 N   0  0  0  0  0  0  0  0  0  0  0  0
   -3.7180   24.5370  -29.8820 C   0  0  0  0  0  0  0  0  0  0  0  0
   -3.7650   23.1560  -29.6560 C   0  0  0  0  0  0  0  0  0  0  0  0
   -4.8060   22.3860  -30.1820 C   0  0  0  0  0  0  0  0  0  0  0  0
   -5.8280   22.9950  -30.9240 C   0  0  0  0  0  0  0  0  0  0  0  0
   -7.1380   22.0360  -31.6080 S   0  0  0  0  0  0  0  0  0  0  0  0
   -8.0790   22.9640  -32.3270 O   0  0  0  0  0  0  0  0  0  0  0  0
   -7.8930   21.3490  -30.5040 O   0  0  0  0  0  0  0  0  0  0  0  0
   -6.4740   20.8630  -32.7290 N   0  0  0  0  0  0  0  0  0  0  0  0
   -5.4860   19.9720  -32.0710 C   0  0  0  0  0  0  0  0  0  0  0  0
   -6.0900   18.6170  -31.6590 C   0  0  0  0  0  0  0  0  0  0  0  0
   -7.4490   18.7660  -31.3190 O   0  0  0  0  0  0  0  0  0  0  0  0
   -8.2130   19.0690  -32.4720 C   0  0  0  0  0  0  0  0  0  0  0  0
   -7.5410   20.1030  -33.4090 C   0  0  0  0  0  0  0  0  0  0  0  0
   -5.7980   24.3790  -31.1330 C   0  0  0  0  0  0  0  0  0  0  0  0
   -4.7550   25.1490  -30.6090 C   0  0  0  0  0  0  0  0  0  0  0  0
   -1.1650   24.7050  -27.3550 C   0  0  0  0  0  0  0  0  0  0  0  0
   -1.4950   25.8410  -26.5930 C   0  0  0  0  0  0  0  0  0  0  0  0
   -1.3150   25.8530  -25.2100 C   0  0  0  0  0  0  0  0  0  0  0  0
   -0.8170   24.7280  -24.5620 C   0  0  0  0  0  0  0  0  0  0  0  0
   -0.4950   23.5850  -25.2940 C   0  0  0  0  0  0  0  0  0  0  0  0
   -0.6490   23.5530  -26.6920 C   0  0  0  0  0  0  0  0  0  0  0  0
   -0.2940   22.0400  -27.5550 S   0  0  0  0  0  0  0  0  0  0  0  0
   -1.0700   22.0450  -28.8440 O   0  0  0  0  0  0  0  0  0  0  0  0
    1.1770   21.9580  -27.8590 O   0  0  0  0  0  0  0  0  0  0  0  0
   -0.7650   20.6350  -26.6180 N   0  0  0  0  0  0  0  0  0  0  0  0
   -0.1620   19.4020  -27.1510 C   0  0  0  0  0  0  0  0  0  0  0  0
   -1.2820   18.5080  -27.6530 C   0  0  0  0  0  0  0  0  0  0  0  0
   -2.4930   18.9760  -26.8890 C   0  0  0  0  0  0  0  0  0  0  0  0
   -2.2250   20.4500  -26.6560 C   0  0  0  0  0  0  0  0  0  0  0  0
   -2.9765   22.6734  -29.0599 H   0  0  0  0  0  0  0  0  0  0  0  0
   -4.8236   21.2991  -30.0134 H   0  0  0  0  0  0  0  0  0  0  0  0
   -5.9720   21.4170  -33.4620 H   0  0  0  0  0  0  0  0  0  0  0  0
   -4.6563   19.7896  -32.7699 H   0  0  0  0  0  0  0  0  0  0  0  0
   -5.1430   20.4752  -31.1550 H   0  0  0  0  0  0  0  0  0  0  0  0
   -6.0020   17.9112  -32.4981 H   0  0  0  0  0  0  0  0  0  0  0  0
   -5.5439   18.2352  -30.7838 H   0  0  0  0  0  0  0  0  0  0  0  0
   -8.3719   18.1391  -33.0378 H   0  0  0  0  0  0  0  0  0  0  0  0
   -9.1567   19.5149  -32.1248 H   0  0  0  0  0  0  0  0  0  0  0  0
   -7.1049   19.5716  -34.2677 H   0  0  0  0  0  0  0  0  0  0  0  0
   -8.3124   20.8185  -33.7298 H   0  0  0  0  0  0  0  0  0  0  0  0
   -6.5984   24.8628  -31.7120 H   0  0  0  0  0  0  0  0  0  0  0  0
   -4.7455   26.2377  -30.7660 H   0  0  0  0  0  0  0  0  0  0  0  0
   -1.9005   26.7318  -27.0950 H   0  0  0  0  0  0  0  0  0  0  0  0
   -1.5673   26.7536  -24.6311 H   0  0  0  0  0  0  0  0  0  0  0  0
   -0.6768   24.7394  -23.4710 H   0  0  0  0  0  0  0  0  0  0  0  0
   -0.1150   22.6954  -24.7703 H   0  0  0  0  0  0  0  0  0  0  0  0
    0.5187   19.6477  -27.9794 H   0  0  0  0  0  0  0  0  0  0  0  0
    0.4126   18.8886  -26.3660 H   0  0  0  0  0  0  0  0  0  0  0  0
   -1.4291   18.6363  -28.7355 H   0  0  0  0  0  0  0  0  0  0  0  0
   -1.0716   17.4393  -27.4991 H   0  0  0  0  0  0  0  0  0  0  0  0
   -3.4092   18.8328  -27.4806 H   0  0  0  0  0  0  0  0  0  0  0  0
   -2.6480   18.4184  -25.9536 H   0  0  0  0  0  0  0  0  0  0  0  0
   -2.6574   21.0441  -27.4746 H   0  0  0  0  0  0  0  0  0  0  0  0
   -2.6817   20.7818  -25.7119 H   0  0  0  0  0  0  0  0  0  0  0  0
  1  2  2  0
  2  3  1  0
  3  4  1  0
  4  5  2  0
  5  6  1  0
  6  7  2  0
  7  8  1  0
  8  9  2  0
  8 10  2  0
  8 11  1  0
 11 12  1  0
 12 13  1  0
 13 14  1  0
 14 15  1  0
 15 16  1  0
  7 17  1  0
 17 18  2  0
  2 19  1  0
 19 20  2  0
 20 21  1  0
 21 22  2  0
 22 23  1  0
 23 24  2  0
 24 25  1  0
 25 26  2  0
 25 27  2  0
 25 28  1  0
 28 29  1  0
 29 30  1  0
 30 31  1  0
 31 32  1  0
 18  4  1  0
 24 19  1  0
 32 28  1  0
 16 11  1  0
  5 33  1  0
  6 34  1  0
 11 35  1  0
 12 36  1  0
 12 37  1  0
 13 38  1  0
 13 39  1  0
 15 40  1  0
 15 41  1  0
 16 42  1  0
 16 43  1  0
 17 44  1  0
 18 45  1  0
 20 46  1  0
 21 47  1  0
 22 48  1  0
 23 49  1  0
 29 50  1  0
 29 51  1  0
 30 52  1  0
 30 53  1  0
 31 54  1  0
 31 55  1  0
 32 56  1  0
 32 57  1  0
M  CHG  2   3  -1  11   1
M  END
>  <UniqueID>  (41) 
41

>  <SMILES>  (41) 
O=C([N-]c1ccc(S(=O)(=O)[NH+]2CCOCC2)cc1)c1ccccc1S(=O)(=O)N1CCCC1

>  <Energy>  (41) 
82.40976273162485

>  <Genealogy>  (41) 
O=C([N-]c1ccc(S(=O)(=O)[NH+]2CCOCC2)cc1)c1ccccc1S(=O)(=O)N1CCCC1 (protonated)
O=C([N-]c1ccc(S(=O)(=O)[NH+]2CCOCC2)cc1)c1ccccc1S(=O)(=O)N1CCCC1 (3D coordinates assigned)
O=C([N-]c1ccc(S(=O)(=O)[NH+]2CCOCC2)cc1)c1ccccc1S(=O)(=O)N1CCCC1 (nonaromatic ring conformer: 82.40976273162485 kcal/mol)

>  <smiles>  (41) 
O=C(Nc1ccc(S(=O)(=O)N2CCOCC2)cc1)c1ccccc1S(=O)(=O)N1CCCC1

>  <score_type>  (41) 
oracle

>  <origin>  (41) 
adgpu

>  <m_score__min__energy>  (41) 
-11.449999999999999

>  <m_primary>  (41) 
energy

$$$$
41:0
     RDKit          3D

 54 57  0  0  0  0  0  0  0  0999 V2000
   -2.4690   21.4830  -33.0980 C   0  0  0  0  0  0  0  0  0  0  0  0
   -3.1480   21.7730  -31.7520 C   0  0  0  0  0  0  0  0  0  0  0  0
   -2.6050   20.9460  -30.5810 C   0  0  0  0  0  0  0  0  0  0  0  0
   -4.6630   21.7420  -31.8290 C   0  0  0  0  0  0  0  0  0  0  0  0
   -5.3350   20.6900  -32.4530 C   0  0  0  0  0  0  0  0  0  0  0  0
   -6.6710   20.9450  -32.2800 C   0  0  0  0  0  0  0  0  0  0  0  0
   -7.7820   20.1950  -32.6640 C   0  0  0  0  0  0  0  0  0  0  0  0
   -9.0530   20.6760  -32.3060 C   0  0  0  0  0  0  0  0  0  0  0  0
   -9.1810   21.8740  -31.5730 C   0  0  0  0  0  0  0  0  0  0  0  0
   -8.0410   22.6050  -31.1960 C   0  0  0  0  0  0  0  0  0  0  0  0
   -6.7840   22.1180  -31.5800 C   0  0  0  0  0  0  0  0  0  0  0  0
   -5.5640   22.6370  -31.3090 N   0  0  0  0  0  0  0  0  0  0  0  0
   -5.3160   24.1090  -30.3930 S   0  0  0  0  0  0  0  0  0  0  0  0
   -5.0390   25.2950  -31.2680 O   0  0  0  0  0  0  0  0  0  0  0  0
   -6.5680   24.4010  -29.6110 O   0  0  0  0  0  0  0  0  0  0  0  0
   -3.9710   23.8910  -29.2790 C   0  0  0  0  0  0  0  0  0  0  0  0
   -2.6610   24.1960  -29.6780 C   0  0  0  0  0  0  0  0  0  0  0  0
   -1.5970   24.0180  -28.7910 C   0  0  0  0  0  0  0  0  0  0  0  0
   -1.8310   23.5300  -27.4970 C   0  0  0  0  0  0  0  0  0  0  0  0
   -0.5010   23.3170  -26.3620 S   0  0  0  0  0  0  0  0  0  0  0  0
    0.7350   22.8770  -27.0980 O   0  0  0  0  0  0  0  0  0  0  0  0
   -0.8730   22.2520  -25.3680 O   0  0  0  0  0  0  0  0  0  0  0  0
   -0.2050   24.8210  -25.5290 N   0  0  0  0  0  0  0  0  0  0  0  0
   -0.4740   24.7080  -24.0930 C   0  0  0  0  0  0  0  0  0  0  0  0
   -0.8530   26.1000  -23.6100 C   0  0  0  0  0  0  0  0  0  0  0  0
   -1.2570   26.8680  -24.8600 C   0  0  0  0  0  0  0  0  0  0  0  0
   -1.0740   25.8950  -26.0160 C   0  0  0  0  0  0  0  0  0  0  0  0
   -3.1410   23.2360  -27.0960 C   0  0  0  0  0  0  0  0  0  0  0  0
   -4.2050   23.4150  -27.9840 C   0  0  0  0  0  0  0  0  0  0  0  0
   -1.4706   21.0566  -32.9207 H   0  0  0  0  0  0  0  0  0  0  0  0
   -3.0777   20.7663  -33.6689 H   0  0  0  0  0  0  0  0  0  0  0  0
   -2.3722   22.4183  -33.6689 H   0  0  0  0  0  0  0  0  0  0  0  0
   -2.8677   22.8122  -31.5249 H   0  0  0  0  0  0  0  0  0  0  0  0
   -2.9099   21.4104  -29.6316 H   0  0  0  0  0  0  0  0  0  0  0  0
   -3.0085   19.9241  -30.6356 H   0  0  0  0  0  0  0  0  0  0  0  0
   -1.5069   20.9100  -30.6356 H   0  0  0  0  0  0  0  0  0  0  0  0
   -4.8855   19.8329  -32.9758 H   0  0  0  0  0  0  0  0  0  0  0  0
   -7.6674   19.2579  -33.2285 H   0  0  0  0  0  0  0  0  0  0  0  0
   -9.9527   20.1151  -32.5991 H   0  0  0  0  0  0  0  0  0  0  0  0
  -10.1805   22.2392  -31.2942 H   0  0  0  0  0  0  0  0  0  0  0  0
   -8.1330   23.5345  -30.6151 H   0  0  0  0  0  0  0  0  0  0  0  0
   -2.4713   24.5765  -30.6925 H   0  0  0  0  0  0  0  0  0  0  0  0
   -0.5722   24.2613  -29.1082 H   0  0  0  0  0  0  0  0  0  0  0  0
    0.7970   25.0940  -25.6730 H   0  0  0  0  0  0  0  0  0  0  0  0
   -1.3026   24.0064  -23.9163 H   0  0  0  0  0  0  0  0  0  0  0  0
    0.4059   24.3273  -23.5537 H   0  0  0  0  0  0  0  0  0  0  0  0
   -1.6942   26.0459  -22.9033 H   0  0  0  0  0  0  0  0  0  0  0  0
   -0.0215   26.5891  -23.0815 H   0  0  0  0  0  0  0  0  0  0  0  0
   -2.3069   27.1888  -24.7908 H   0  0  0  0  0  0  0  0  0  0  0  0
   -0.6509   27.7763  -24.9930 H   0  0  0  0  0  0  0  0  0  0  0  0
   -2.0471   25.4850  -26.3240 H   0  0  0  0  0  0  0  0  0  0  0  0
   -0.6313   26.3968  -26.8891 H   0  0  0  0  0  0  0  0  0  0  0  0
   -3.3324   22.8631  -26.0790 H   0  0  0  0  0  0  0  0  0  0  0  0
   -5.2309   23.1807  -27.6637 H   0  0  0  0  0  0  0  0  0  0  0  0
  1  2  1  0
  2  3  1  0
  2  4  1  0
  4  5  2  0
  5  6  1  0
  6  7  2  0
  7  8  1  0
  8  9  2  0
  9 10  1  0
 10 11  2  0
 11 12  1  0
 12 13  1  0
 13 14  2  0
 13 15  2  0
 13 16  1  0
 16 17  2  0
 17 18  1  0
 18 19  2  0
 19 20  1  0
 20 21  2  0
 20 22  2  0
 20 23  1  0
 23 24  1  0
 24 25  1  0
 25 26  1  0
 26 27  1  0
 19 28  1  0
 28 29  2  0
 12  4  1  0
 29 16  1  0
 11  6  1  0
 27 23  1  0
  1 30  1  0
  1 31  1  0
  1 32  1  0
  2 33  1  0
  3 34  1  0
  3 35  1  0
  3 36  1  0
  5 37  1  0
  7 38  1  0
  8 39  1  0
  9 40  1  0
 10 41  1  0
 17 42  1  0
 18 43  1  0
 23 44  1  0
 24 45  1  0
 24 46  1  0
 25 47  1  0
 25 48  1  0
 26 49  1  0
 26 50  1  0
 27 51  1  0
 27 52  1  0
 28 53  1  0
 29 54  1  0
M  CHG  1  23   1
M  END
>  <UniqueID>  (42) 
42

>  <SMILES>  (42) 
CC(C)c1cc2ccccc2n1S(=O)(=O)c1ccc(S(=O)(=O)[NH+]2CCCC2)cc1

>  <Energy>  (42) 
96.15855264367961

>  <Genealogy>  (42) 
CC(C)c1cc2ccccc2n1S(=O)(=O)c1ccc(S(=O)(=O)[NH+]2CCCC2)cc1 (protonated)
CC(C)c1cc2ccccc2n1S(=O)(=O)c1ccc(S(=O)(=O)[NH+]2CCCC2)cc1 (3D coordinates assigned)
CC(C)c1cc2ccccc2n1S(=O)(=O)c1ccc(S(=O)(=O)[NH+]2CCCC2)cc1 (nonaromatic ring conformer: 96.15855264367961 kcal/mol)

>  <smiles>  (42) 
CC(C)c1cc2ccccc2n1S(=O)(=O)c1ccc(S(=O)(=O)N2CCCC2)cc1

>  <score_type>  (42) 
oracle

>  <origin>  (42) 
adgpu

>  <m_score__min__energy>  (42) 
-10.07

>  <m_primary>  (42) 
energy

$$$$
42:0
     RDKit          3D

 51 52  0  0  0  0  0  0  0  0999 V2000
   -2.9660   21.4310  -31.3550 C   0  0  0  0  0  0  0  0  0  0  0  0
   -3.0620   21.9810  -29.9350 C   0  0  0  0  0  0  0  0  0  0  0  0
   -2.8210   23.5110  -29.9040 C   0  0  0  0  0  0  0  0  0  0  0  0
   -3.8100   24.2800  -29.1140 N   0  0  0  0  0  0  0  0  0  0  0  0
   -4.2100   23.6580  -27.8370 C   0  0  0  0  0  0  0  0  0  0  0  0
   -4.1710   24.6940  -26.7070 C   0  0  0  0  0  0  0  0  0  0  0  0
   -2.7460   25.1750  -26.4470 C   0  0  0  0  0  0  0  0  0  0  0  0
   -5.1790   24.7960  -30.0860 S   0  0  0  0  0  0  0  0  0  0  0  0
   -4.6730   25.6510  -31.2140 O   0  0  0  0  0  0  0  0  0  0  0  0
   -6.1220   25.6310  -29.2650 O   0  0  0  0  0  0  0  0  0  0  0  0
   -6.0750   23.4370  -30.7590 C   0  0  0  0  0  0  0  0  0  0  0  0
   -5.8390   23.0190  -32.0770 C   0  0  0  0  0  0  0  0  0  0  0  0
   -6.4970   21.8980  -32.5870 C   0  0  0  0  0  0  0  0  0  0  0  0
   -7.4040   21.1890  -31.7880 C   0  0  0  0  0  0  0  0  0  0  0  0
   -8.1670   19.7230  -32.3960 S   0  0  0  0  0  0  0  0  0  0  0  0
   -8.5060   18.8250  -31.2390 O   0  0  0  0  0  0  0  0  0  0  0  0
   -9.4390   20.0750  -33.1190 O   0  0  0  0  0  0  0  0  0  0  0  0
   -7.0600   18.9070  -33.4680 N   0  0  0  0  0  0  0  0  0  0  0  0
   -7.2370   17.4540  -33.4300 C   0  0  0  0  0  0  0  0  0  0  0  0
   -5.8970   16.8410  -33.8090 C   0  0  0  0  0  0  0  0  0  0  0  0
   -4.8700   17.9420  -33.5880 C   0  0  0  0  0  0  0  0  0  0  0  0
   -5.6620   19.1470  -33.1010 C   0  0  0  0  0  0  0  0  0  0  0  0
   -7.6490   21.6120  -30.4760 C   0  0  0  0  0  0  0  0  0  0  0  0
   -6.9920   22.7340  -29.9640 C   0  0  0  0  0  0  0  0  0  0  0  0
   -2.7770   20.3480  -31.3167 H   0  0  0  0  0  0  0  0  0  0  0  0
   -3.9107   21.6198  -31.8860 H   0  0  0  0  0  0  0  0  0  0  0  0
   -2.1411   21.9287  -31.8860 H   0  0  0  0  0  0  0  0  0  0  0  0
   -4.0648   21.7685  -29.5359 H   0  0  0  0  0  0  0  0  0  0  0  0
   -2.2874   21.4960  -29.3228 H   0  0  0  0  0  0  0  0  0  0  0  0
   -1.8247   23.6918  -29.4742 H   0  0  0  0  0  0  0  0  0  0  0  0
   -2.9156   23.8603  -30.9428 H   0  0  0  0  0  0  0  0  0  0  0  0
   -5.2316   23.2611  -27.9307 H   0  0  0  0  0  0  0  0  0  0  0  0
   -3.5101   22.8430  -27.6005 H   0  0  0  0  0  0  0  0  0  0  0  0
   -4.7945   25.5554  -26.9885 H   0  0  0  0  0  0  0  0  0  0  0  0
   -4.5519   24.2223  -25.7892 H   0  0  0  0  0  0  0  0  0  0  0  0
   -2.5711   25.2340  -25.3626 H   0  0  0  0  0  0  0  0  0  0  0  0
   -2.0327   24.4678  -26.8955 H   0  0  0  0  0  0  0  0  0  0  0  0
   -2.6072   26.1698  -26.8955 H   0  0  0  0  0  0  0  0  0  0  0  0
   -5.1333   23.5761  -32.7108 H   0  0  0  0  0  0  0  0  0  0  0  0
   -6.3028   21.5705  -33.6190 H   0  0  0  0  0  0  0  0  0  0  0  0
   -7.2250   19.2500  -34.4440 H   0  0  0  0  0  0  0  0  0  0  0  0
   -7.5281   17.1337  -32.4187 H   0  0  0  0  0  0  0  0  0  0  0  0
   -8.0292   17.1334  -34.1226 H   0  0  0  0  0  0  0  0  0  0  0  0
   -5.6756   15.9745  -33.1686 H   0  0  0  0  0  0  0  0  0  0  0  0
   -5.8921   16.4806  -34.8483 H   0  0  0  0  0  0  0  0  0  0  0  0
   -4.1340   17.6344  -32.8306 H   0  0  0  0  0  0  0  0  0  0  0  0
   -4.3097   18.1671  -34.5074 H   0  0  0  0  0  0  0  0  0  0  0  0
   -5.5681   19.2466  -32.0096 H   0  0  0  0  0  0  0  0  0  0  0  0
   -5.2875   20.0766  -33.5543 H   0  0  0  0  0  0  0  0  0  0  0  0
   -8.3613   21.0591  -29.8460 H   0  0  0  0  0  0  0  0  0  0  0  0
   -7.1945   23.0666  -28.9352 H   0  0  0  0  0  0  0  0  0  0  0  0
  1  2  1  0
  2  3  1  0
  3  4  1  0
  4  5  1  0
  5  6  1  0
  6  7  1  0
  4  8  1  0
  8  9  2  0
  8 10  2  0
  8 11  1  0
 11 12  2  0
 12 13  1  0
 13 14  2  0
 14 15  1  0
 15 16  2  0
 15 17  2  0
 15 18  1  0
 18 19  1  0
 19 20  1  0
 20 21  1  0
 21 22  1  0
 14 23  1  0
 23 24  2  0
 24 11  1  0
 22 18  1  0
  1 25  1  0
  1 26  1  0
  1 27  1  0
  2 28  1  0
  2 29  1  0
  3 30  1  0
  3 31  1  0
  5 32  1  0
  5 33  1  0
  6 34  1  0
  6 35  1  0
  7 36  1  0
  7 37  1  0
  7 38  1  0
 12 39  1  0
 13 40  1  0
 18 41  1  0
 19 42  1  0
 19 43  1  0
 20 44  1  0
 20 45  1  0
 21 46  1  0
 21 47  1  0
 22 48  1  0
 22 49  1  0
 23 50  1  0
 24 51  1  0
M  CHG  1  18   1
M  END
>  <UniqueID>  (43) 
43

>  <SMILES>  (43) 
CCCN(CCC)S(=O)(=O)c1ccc(S(=O)(=O)[NH+]2CCCC2)cc1

>  <Energy>  (43) 
45.87902710941001

>  <Genealogy>  (43) 
CCCN(CCC)S(=O)(=O)c1ccc(S(=O)(=O)[NH+]2CCCC2)cc1 (protonated)
CCCN(CCC)S(=O)(=O)c1ccc(S(=O)(=O)[NH+]2CCCC2)cc1 (3D coordinates assigned)
CCCN(CCC)S(=O)(=O)c1ccc(S(=O)(=O)[NH+]2CCCC2)cc1 (nonaromatic ring conformer: 45.87902710941001 kcal/mol)

>  <smiles>  (43) 
CCCN(CCC)S(=O)(=O)c1ccc(S(=O)(=O)N2CCCC2)cc1

>  <score_type>  (43) 
oracle

>  <origin>  (43) 
adgpu

>  <m_score__min__energy>  (43) 
-8.8000000000000007

>  <m_primary>  (43) 
energy

$$$$
43:0
     RDKit          3D

 62 65  0  0  0  0  0  0  0  0999 V2000
   -8.4300   18.2150  -30.9970 C   0  0  0  0  0  0  0  0  0  0  0  0
   -7.1970   18.0580  -31.8450 C   0  0  0  0  0  0  0  0  0  0  0  0
   -6.2290   17.1190  -31.4560 C   0  0  0  0  0  0  0  0  0  0  0  0
   -5.0590   16.9540  -32.2010 C   0  0  0  0  0  0  0  0  0  0  0  0
   -4.8480   17.7100  -33.3590 C   0  0  0  0  0  0  0  0  0  0  0  0
   -3.3460   17.5520  -34.2740 S   0  0  0  0  0  0  0  0  0  0  0  0
   -3.6720   17.2520  -35.7110 O   0  0  0  0  0  0  0  0  0  0  0  0
   -2.5430   16.4040  -33.7300 O   0  0  0  0  0  0  0  0  0  0  0  0
   -2.4010   19.0200  -34.1930 N   0  0  0  0  0  0  0  0  0  0  0  0
   -2.7360   19.7800  -32.9780 C   0  0  0  0  0  0  0  0  0  0  0  0
   -2.0620   21.1650  -32.9940 C   0  0  0  0  0  0  0  0  0  0  0  0
   -0.8910   21.2360  -33.9860 C   0  0  0  0  0  0  0  0  0  0  0  0
   -0.0760   19.9390  -33.9660 C   0  0  0  0  0  0  0  0  0  0  0  0
   -0.9610   18.6940  -34.2170 C   0  0  0  0  0  0  0  0  0  0  0  0
   -5.8090   18.6450  -33.7570 C   0  0  0  0  0  0  0  0  0  0  0  0
   -6.9580   18.8640  -32.9840 C   0  0  0  0  0  0  0  0  0  0  0  0
   -8.0670   20.2020  -33.4720 S   0  0  0  0  0  0  0  0  0  0  0  0
   -7.1360   21.4540  -32.5620 C   0  0  0  0  0  0  0  0  0  0  0  0
   -5.7360   21.3900  -32.6040 C   0  0  0  0  0  0  0  0  0  0  0  0
   -4.9620   22.2320  -31.8090 C   0  0  0  0  0  0  0  0  0  0  0  0
   -5.5770   23.1540  -30.9590 C   0  0  0  0  0  0  0  0  0  0  0  0
   -4.5860   24.1850  -29.9290 S   0  0  0  0  0  0  0  0  0  0  0  0
   -5.4900   24.9100  -28.9690 O   0  0  0  0  0  0  0  0  0  0  0  0
   -3.8630   25.2030  -30.7710 O   0  0  0  0  0  0  0  0  0  0  0  0
   -3.4380   23.2010  -29.0470 N   0  0  0  0  0  0  0  0  0  0  0  0
   -2.1840   22.9970  -29.8060 C   0  0  0  0  0  0  0  0  0  0  0  0
   -1.0500   23.9300  -29.3450 C   0  0  0  0  0  0  0  0  0  0  0  0
   -1.5780   25.1620  -28.9100 O   0  0  0  0  0  0  0  0  0  0  0  0
   -2.2920   24.9850  -27.6970 C   0  0  0  0  0  0  0  0  0  0  0  0
   -3.1990   23.7300  -27.6920 C   0  0  0  0  0  0  0  0  0  0  0  0
   -6.9750   23.2650  -30.9500 C   0  0  0  0  0  0  0  0  0  0  0  0
   -7.7670   22.4400  -31.7680 C   0  0  0  0  0  0  0  0  0  0  0  0
   -9.1920   22.6330  -31.7900 N   0  0  0  0  0  0  0  0  0  0  0  0
   -9.9620   21.7330  -31.3960 O   0  0  0  0  0  0  0  0  0  0  0  0
   -9.7270   23.7180  -32.4460 O   0  0  0  0  0  0  0  0  0  0  0  0
   -8.1507   18.1794  -29.9337 H   0  0  0  0  0  0  0  0  0  0  0  0
   -8.9069   19.1811  -31.2187 H   0  0  0  0  0  0  0  0  0  0  0  0
   -9.1338   17.3992  -31.2187 H   0  0  0  0  0  0  0  0  0  0  0  0
   -6.3932   16.5076  -30.5564 H   0  0  0  0  0  0  0  0  0  0  0  0
   -4.3005   16.2267  -31.8758 H   0  0  0  0  0  0  0  0  0  0  0  0
   -3.8269   19.9107  -32.9241 H   0  0  0  0  0  0  0  0  0  0  0  0
   -2.3727   19.2219  -32.1025 H   0  0  0  0  0  0  0  0  0  0  0  0
   -2.8111   21.9190  -33.2775 H   0  0  0  0  0  0  0  0  0  0  0  0
   -1.6603   21.3538  -31.9875 H   0  0  0  0  0  0  0  0  0  0  0  0
   -1.2872   21.3964  -34.9995 H   0  0  0  0  0  0  0  0  0  0  0  0
   -0.2335   22.0679  -33.6935 H   0  0  0  0  0  0  0  0  0  0  0  0
    0.6939   19.9913  -34.7499 H   0  0  0  0  0  0  0  0  0  0  0  0
    0.3775   19.8380  -32.9689 H   0  0  0  0  0  0  0  0  0  0  0  0
   -0.7093   18.2730  -35.2016 H   0  0  0  0  0  0  0  0  0  0  0  0
   -0.7645   17.9716  -33.4110 H   0  0  0  0  0  0  0  0  0  0  0  0
   -5.6618   19.2146  -34.6864 H   0  0  0  0  0  0  0  0  0  0  0  0
   -5.2439   20.6674  -33.2716 H   0  0  0  0  0  0  0  0  0  0  0  0
   -3.8645   22.1707  -31.8507 H   0  0  0  0  0  0  0  0  0  0  0  0
   -1.8580   21.9549  -29.6727 H   0  0  0  0  0  0  0  0  0  0  0  0
   -2.3940   23.2268  -30.8610 H   0  0  0  0  0  0  0  0  0  0  0  0
   -0.5042   23.4559  -28.5159 H   0  0  0  0  0  0  0  0  0  0  0  0
   -0.3688   24.1104  -30.1896 H   0  0  0  0  0  0  0  0  0  0  0  0
   -1.5660   24.8932  -26.8758 H   0  0  0  0  0  0  0  0  0  0  0  0
   -2.9486   25.8594  -27.5774 H   0  0  0  0  0  0  0  0  0  0  0  0
   -2.7157   22.9479  -27.0881 H   0  0  0  0  0  0  0  0  0  0  0  0
   -4.1722   24.0225  -27.2709 H   0  0  0  0  0  0  0  0  0  0  0  0
   -7.4574   24.0059  -30.2955 H   0  0  0  0  0  0  0  0  0  0  0  0
  1  2  1  0
  2  3  2  0
  3  4  1  0
  4  5  2  0
  5  6  1  0
  6  7  2  0
  6  8  2  0
  6  9  1  0
  9 10  1  0
 10 11  1  0
 11 12  1  0
 12 13  1  0
 13 14  1  0
  5 15  1  0
 15 16  2  0
 16 17  1  0
 17 18  1  0
 18 19  2  0
 19 20  1  0
 20 21  2  0
 21 22  1  0
 22 23  2  0
 22 24  2  0
 22 25  1  0
 25 26  1  0
 26 27  1  0
 27 28  1  0
 28 29  1  0
 29 30  1  0
 21 31  1  0
 31 32  2  0
 32 33  1  0
 33 34  2  0
 33 35  1  0
 16  2  1  0
 32 18  1  0
 14  9  1  0
 30 25  1  0
  1 36  1  0
  1 37  1  0
  1 38  1  0
  3 39  1  0
  4 40  1  0
 10 41  1  0
 10 42  1  0
 11 43  1  0
 11 44  1  0
 12 45  1  0
 12 46  1  0
 13 47  1  0
 13 48  1  0
 14 49  1  0
 14 50  1  0
 15 51  1  0
 19 52  1  0
 20 53  1  0
 26 54  1  0
 26 55  1  0
 27 56  1  0
 27 57  1  0
 29 58  1  0
 29 59  1  0
 30 60  1  0
 30 61  1  0
 31 62  1  0
M  CHG  2  33   1  35  -1
M  END
>  <UniqueID>  (44) 
44

>  <SMILES>  (44) 
Cc1ccc(S(=O)(=O)N2CCCCC2)cc1Sc1ccc(S(=O)(=O)N2CCOCC2)cc1[N+](=O)[O-]

>  <Energy>  (44) 
75.94481932452638

>  <Genealogy>  (44) 
Cc1ccc(S(=O)(=O)N2CCCCC2)cc1Sc1ccc(S(=O)(=O)N2CCOCC2)cc1[N+](=O)[O-] (3D coordinates assigned)
Cc1ccc(S(=O)(=O)N2CCCCC2)cc1Sc1ccc(S(=O)(=O)N2CCOCC2)cc1[N+](=O)[O-] (nonaromatic ring conformer: 75.94481932452638 kcal/mol)

>  <smiles>  (44) 
Cc1ccc(S(=O)(=O)N2CCCCC2)cc1Sc1ccc(S(=O)(=O)N2CCOCC2)cc1[N+](=O)[O-]

>  <score_type>  (44) 
oracle

>  <origin>  (44) 
adgpu

>  <m_score__min__energy>  (44) 
-11.08

>  <m_primary>  (44) 
energy

$$$$
44:0
     RDKit          3D

 36 37  0  0  0  0  0  0  0  0999 V2000
   -3.0970   25.6770  -30.7760 H   0  0  0  0  0  0  0  0  0  0  0  0
   -3.9090   25.4420  -30.2220 O   0  0  0  0  0  0  0  0  0  0  0  0
   -4.7350   24.3470  -30.4980 C   0  0  0  0  0  0  0  0  0  0  0  0
   -6.1350   24.4180  -30.3180 C   0  0  0  0  0  0  0  0  0  0  0  0
   -6.7930   25.6750  -29.8170 C   0  0  0  0  0  0  0  0  0  0  0  0
   -6.7932   25.6754  -28.7170 H   0  0  0  0  0  0  0  0  0  0  0  0
   -6.2377   26.5508  -30.1839 H   0  0  0  0  0  0  0  0  0  0  0  0
   -7.8291   25.7177  -30.1839 H   0  0  0  0  0  0  0  0  0  0  0  0
   -6.9270   23.2930  -30.6000 C   0  0  0  0  0  0  0  0  0  0  0  0
   -8.0153   23.3419  -30.4479 H   0  0  0  0  0  0  0  0  0  0  0  0
   -6.3460   22.1090  -31.0730 C   0  0  0  0  0  0  0  0  0  0  0  0
   -7.1960   20.9000  -31.3290 C   0  0  0  0  0  0  0  0  0  0  0  0
   -7.5056   20.4596  -30.3697 H   0  0  0  0  0  0  0  0  0  0  0  0
   -8.0876   21.1934  -31.9025 H   0  0  0  0  0  0  0  0  0  0  0  0
   -6.6182   20.1603  -31.9025 H   0  0  0  0  0  0  0  0  0  0  0  0
   -4.9570   22.0390  -31.2350 C   0  0  0  0  0  0  0  0  0  0  0  0
   -4.4955   21.1027  -31.5819 H   0  0  0  0  0  0  0  0  0  0  0  0
   -4.1480   23.1520  -30.9590 C   0  0  0  0  0  0  0  0  0  0  0  0
   -2.6510   23.0480  -31.1230 C   0  0  0  0  0  0  0  0  0  0  0  0
   -2.4199   22.2358  -31.8279 H   0  0  0  0  0  0  0  0  0  0  0  0
   -2.2685   24.0050  -31.5075 H   0  0  0  0  0  0  0  0  0  0  0  0
   -2.0120   22.7660  -29.8380 N   0  0  0  0  0  0  0  0  0  0  0  0
   -1.5500   23.6680  -29.0180 C   0  0  0  0  0  0  0  0  0  0  0  0
   -1.6550   24.9920  -29.3210 N   0  0  0  0  0  0  0  0  0  0  0  0
   -1.1830   25.9620  -28.4990 C   0  0  0  0  0  0  0  0  0  0  0  0
   -1.2863   27.0200  -28.7819 H   0  0  0  0  0  0  0  0  0  0  0  0
   -0.5670   25.6200  -27.2960 C   0  0  0  0  0  0  0  0  0  0  0  0
   -0.1835   26.4063  -26.6292 H   0  0  0  0  0  0  0  0  0  0  0  0
   -0.4380   24.2700  -26.9390 C   0  0  0  0  0  0  0  0  0  0  0  0
    0.2290   23.9050  -25.6400 C   0  0  0  0  0  0  0  0  0  0  0  0
   -0.3937   24.2457  -24.7997 H   0  0  0  0  0  0  0  0  0  0  0  0
    0.3529   22.8134  -25.5855 H   0  0  0  0  0  0  0  0  0  0  0  0
    1.2152   24.3891  -25.5855 H   0  0  0  0  0  0  0  0  0  0  0  0
   -0.9350   23.2770  -27.8120 C   0  0  0  0  0  0  0  0  0  0  0  0
   -0.8140   21.8740  -27.4760 C   0  0  0  0  0  0  0  0  0  0  0  0
   -0.7160   20.7520  -27.2080 N   0  0  0  0  0  0  0  0  0  0  0  0
  1  2  1  0
  2  3  1  0
  3  4  2  0
  4  5  1  0
  5  6  1  0
  5  7  1  0
  5  8  1  0
  4  9  1  0
  9 10  1  0
  9 11  2  0
 11 12  1  0
 12 13  1  0
 12 14  1  0
 12 15  1  0
 11 16  1  0
 16 17  1  0
 16 18  2  0
 18 19  1  0
 19 20  1  0
 19 21  1  0
 19 22  1  0
 22 23  2  0
 23 24  1  0
 24 25  1  0
 25 26  1  0
 25 27  2  0
 27 28  1  0
 27 29  1  0
 29 30  1  0
 30 31  1  0
 30 32  1  0
 30 33  1  0
 29 34  2  0
 34 35  1  0
 35 36  3  0
 18  3  1  0
 34 23  1  0
M  CHG  1  24  -1
M  END
>  <UniqueID>  (45) 
45

>  <SMILES>  (45) 
Cc1cc(C)c(O)c(C/N=c2\[n-]ccc(C)c2C#N)c1

>  <Energy>  (45) 
37.234163473975684

>  <Genealogy>  (45) 
Cc1cc(C)c(O)c(CN=c2[n-]ccc(C)c2C#N)c1 (protonated)
Cc1cc(C)c(O)c(C/N=c2\[n-]ccc(C)c2C#N)c1 (cis-trans isomerization)
Cc1cc(C)c(O)c(C/N=c2\[n-]ccc(C)c2C#N)c1 (3D coordinates assigned)
Cc1cc(C)c(O)c(C/N=c2\[n-]ccc(C)c2C#N)c1 (optimized conformer: 37.234163473975684 kcal/mol)

>  <smiles>  (45) 
Cc1cc(C)c(O)c(CN=c2[nH]ccc(C)c2C#N)c1

>  <score_type>  (45) 
oracle

>  <origin>  (45) 
adgpu

>  <m_score__min__energy>  (45) 
-8.9800000000000004

>  <m_primary>  (45) 
energy

$$$$
45:0
     RDKit          3D

 56 59  0  0  0  0  0  0  0  0999 V2000
   -4.6090   16.7420  -33.5290 C   0  0  0  0  0  0  0  0  0  0  0  0
   -6.3310   17.1850  -33.6490 S   0  0  0  0  0  0  0  0  0  0  0  0
   -6.4690   18.3430  -34.5980 O   0  0  0  0  0  0  0  0  0  0  0  0
   -7.0740   16.0050  -34.2110 O   0  0  0  0  0  0  0  0  0  0  0  0
   -6.9820   17.5730  -32.0660 N   0  0  0  0  0  0  0  0  0  0  0  0
   -6.0580   18.3650  -31.2300 C   0  0  0  0  0  0  0  0  0  0  0  0
   -6.0060   19.8450  -31.6310 C   0  0  0  0  0  0  0  0  0  0  0  0
   -7.3660   20.3790  -31.7440 N   0  0  0  0  0  0  0  0  0  0  0  0
   -7.7690   21.5760  -31.0480 C   0  0  0  0  0  0  0  0  0  0  0  0
   -8.9270   21.6360  -30.5480 O   0  0  0  0  0  0  0  0  0  0  0  0
   -6.8550   22.7340  -30.8880 C   0  0  0  0  0  0  0  0  0  0  0  0
   -6.9610   23.8580  -31.7200 C   0  0  0  0  0  0  0  0  0  0  0  0
   -6.0810   24.9310  -31.5710 C   0  0  0  0  0  0  0  0  0  0  0  0
   -5.0960   24.9100  -30.5790 C   0  0  0  0  0  0  0  0  0  0  0  0
   -4.2330   26.0010  -30.4680 O   0  0  0  0  0  0  0  0  0  0  0  0
   -4.9990   23.8070  -29.7100 C   0  0  0  0  0  0  0  0  0  0  0  0
   -3.9940   23.8120  -28.6840 N   0  0  0  0  0  0  0  0  0  0  0  0
   -2.2770   23.7840  -28.9290 S   0  0  0  0  0  0  0  0  0  0  0  0
   -1.7710   25.1510  -29.3040 O   0  0  0  0  0  0  0  0  0  0  0  0
   -1.6140   23.3820  -27.6410 O   0  0  0  0  0  0  0  0  0  0  0  0
   -1.8740   22.6030  -30.1740 C   0  0  0  0  0  0  0  0  0  0  0  0
   -0.6250   21.9450  -30.1640 C   0  0  0  0  0  0  0  0  0  0  0  0
   -0.2960   21.0350  -31.1790 C   0  0  0  0  0  0  0  0  0  0  0  0
   -1.2280   20.7860  -32.1880 C   0  0  0  0  0  0  0  0  0  0  0  0
   -2.4490   21.4120  -32.1960 C   0  0  0  0  0  0  0  0  0  0  0  0
   -2.7960   22.3330  -31.2040 C   0  0  0  0  0  0  0  0  0  0  0  0
   -3.2880   20.9830  -33.3370 C   0  0  0  0  0  0  0  0  0  0  0  0
   -2.3820   20.0140  -34.1230 C   0  0  0  0  0  0  0  0  0  0  0  0
   -1.0660   19.8610  -33.3340 C   0  0  0  0  0  0  0  0  0  0  0  0
   -5.8790   22.7230  -29.8780 C   0  0  0  0  0  0  0  0  0  0  0  0
   -8.3260   19.6340  -32.5610 C   0  0  0  0  0  0  0  0  0  0  0  0
   -8.3370   18.1590  -32.1380 C   0  0  0  0  0  0  0  0  0  0  0  0
   -4.3223   16.6683  -32.4696 H   0  0  0  0  0  0  0  0  0  0  0  0
   -4.4447   15.7723  -34.0217 H   0  0  0  0  0  0  0  0  0  0  0  0
   -3.9971   17.5120  -34.0217 H   0  0  0  0  0  0  0  0  0  0  0  0
   -6.3872   18.2970  -30.1826 H   0  0  0  0  0  0  0  0  0  0  0  0
   -5.0490   17.9502  -31.3710 H   0  0  0  0  0  0  0  0  0  0  0  0
   -5.4543   20.4110  -30.8660 H   0  0  0  0  0  0  0  0  0  0  0  0
   -5.4979   19.9396  -32.6020 H   0  0  0  0  0  0  0  0  0  0  0  0
   -7.7418   23.8941  -32.4940 H   0  0  0  0  0  0  0  0  0  0  0  0
   -6.1631   25.8005  -32.2397 H   0  0  0  0  0  0  0  0  0  0  0  0
   -3.5020   26.0490  -29.7680 H   0  0  0  0  0  0  0  0  0  0  0  0
    0.0936   22.1471  -29.3561 H   0  0  0  0  0  0  0  0  0  0  0  0
    0.6793   20.5263  -31.1801 H   0  0  0  0  0  0  0  0  0  0  0  0
   -3.7727   22.8386  -31.2271 H   0  0  0  0  0  0  0  0  0  0  0  0
   -4.1953   20.4707  -32.9843 H   0  0  0  0  0  0  0  0  0  0  0  0
   -3.6347   21.8287  -33.9490 H   0  0  0  0  0  0  0  0  0  0  0  0
   -2.8757   19.0360  -34.2219 H   0  0  0  0  0  0  0  0  0  0  0  0
   -2.1838   20.4039  -35.1323 H   0  0  0  0  0  0  0  0  0  0  0  0
   -0.9365   18.8256  -32.9859 H   0  0  0  0  0  0  0  0  0  0  0  0
   -0.1780   20.0898  -33.9416 H   0  0  0  0  0  0  0  0  0  0  0  0
   -5.8018   21.8536  -29.2085 H   0  0  0  0  0  0  0  0  0  0  0  0
   -9.3306   20.0605  -32.4234 H   0  0  0  0  0  0  0  0  0  0  0  0
   -8.0338   19.7054  -33.6191 H   0  0  0  0  0  0  0  0  0  0  0  0
   -8.8065   18.0814  -31.1462 H   0  0  0  0  0  0  0  0  0  0  0  0
   -8.8991   17.6002  -32.9008 H   0  0  0  0  0  0  0  0  0  0  0  0
  1  2  1  0
  2  3  2  0
  2  4  2  0
  2  5  1  0
  5  6  1  0
  6  7  1  0
  7  8  1  0
  8  9  1  0
  9 10  2  0
  9 11  1  0
 11 12  2  0
 12 13  1  0
 13 14  2  0
 14 15  1  0
 14 16  1  0
 16 17  1  0
 17 18  1  0
 18 19  2  0
 18 20  2  0
 18 21  1  0
 21 22  2  0
 22 23  1  0
 23 24  2  0
 24 25  1  0
 25 26  2  0
 25 27  1  0
 27 28  1  0
 28 29  1  0
 16 30  2  0
  8 31  1  0
 31 32  1  0
 32  5  1  0
 30 11  1  0
 26 21  1  0
 29 24  1  0
  1 33  1  0
  1 34  1  0
  1 35  1  0
  6 36  1  0
  6 37  1  0
  7 38  1  0
  7 39  1  0
 12 40  1  0
 13 41  1  0
 15 42  1  0
 22 43  1  0
 23 44  1  0
 26 45  1  0
 27 46  1  0
 27 47  1  0
 28 48  1  0
 28 49  1  0
 29 50  1  0
 29 51  1  0
 30 52  1  0
 31 53  1  0
 31 54  1  0
 32 55  1  0
 32 56  1  0
M  CHG  1  17  -1
M  END
>  <UniqueID>  (46) 
46

>  <SMILES>  (46) 
CS(=O)(=O)N1CCN(C(=O)c2ccc(O)c([N-]S(=O)(=O)c3ccc4c(c3)CCC4)c2)CC1

>  <Energy>  (46) 
74.41501333815421

>  <Genealogy>  (46) 
CS(=O)(=O)N1CCN(C(=O)c2ccc(O)c([N-]S(=O)(=O)c3ccc4c(c3)CCC4)c2)CC1 (protonated)
CS(=O)(=O)N1CCN(C(=O)c2ccc(O)c([N-]S(=O)(=O)c3ccc4c(c3)CCC4)c2)CC1 (3D coordinates assigned)
CS(=O)(=O)N1CCN(C(=O)c2ccc(O)c([N-]S(=O)(=O)c3ccc4c(c3)CCC4)c2)CC1 (nonaromatic ring conformer: 74.41501333815421 kcal/mol)

>  <smiles>  (46) 
CS(=O)(=O)N1CCN(C(=O)c2ccc(O)c(NS(=O)(=O)c3ccc4c(c3)CCC4)c2)CC1

>  <score_type>  (46) 
oracle

>  <origin>  (46) 
adgpu

>  <m_score__min__energy>  (46) 
-12.359999999999999

>  <m_primary>  (46) 
energy

$$$$
46:0
     RDKit          3D

 57 61  0  0  0  0  0  0  0  0999 V2000
    0.4880   23.2400  -28.7640 O   0  0  0  0  0  0  0  0  0  0  0  0
   -0.5880   23.5150  -28.1640 C   0  0  0  0  0  0  0  0  0  0  0  0
   -1.8390   23.6020  -28.9470 C   0  0  0  0  0  0  0  0  0  0  0  0
   -2.5250   22.4140  -29.2870 C   0  0  0  0  0  0  0  0  0  0  0  0
   -3.6870   22.5260  -30.0440 C   0  0  0  0  0  0  0  0  0  0  0  0
   -4.4750   21.5350  -30.4880 N   0  0  0  0  0  0  0  0  0  0  0  0
   -5.4430   22.2100  -31.1650 C   0  0  0  0  0  0  0  0  0  0  0  0
   -6.5360   21.5530  -31.8340 N   0  0  0  0  0  0  0  0  0  0  0  0
   -6.2530   20.6960  -32.9900 C   0  0  0  0  0  0  0  0  0  0  0  0
   -7.5250   19.9920  -33.4770 C   0  0  0  0  0  0  0  0  0  0  0  0
   -8.3530   19.5150  -32.3460 N   0  0  0  0  0  0  0  0  0  0  0  0
   -7.7140   18.4390  -31.5550 C   0  0  0  0  0  0  0  0  0  0  0  0
   -6.7650   17.6200  -32.3930 C   0  0  0  0  0  0  0  0  0  0  0  0
   -5.3830   17.8690  -32.3400 C   0  0  0  0  0  0  0  0  0  0  0  0
   -4.4990   17.0990  -33.1030 C   0  0  0  0  0  0  0  0  0  0  0  0
   -4.9860   16.0810  -33.9270 C   0  0  0  0  0  0  0  0  0  0  0  0
   -6.3620   15.8310  -33.9910 C   0  0  0  0  0  0  0  0  0  0  0  0
   -6.8450   14.8220  -34.8140 O   0  0  0  0  0  0  0  0  0  0  0  0
   -7.2490   16.5960  -33.2250 C   0  0  0  0  0  0  0  0  0  0  0  0
   -8.8240   20.6280  -31.4810 C   0  0  0  0  0  0  0  0  0  0  0  0
   -7.9300   21.8880  -31.5120 C   0  0  0  0  0  0  0  0  0  0  0  0
   -5.2930   23.5630  -31.1640 N   0  0  0  0  0  0  0  0  0  0  0  0
   -4.1740   23.7300  -30.4460 C   0  0  0  0  0  0  0  0  0  0  0  0
   -3.5460   24.9260  -30.1160 C   0  0  0  0  0  0  0  0  0  0  0  0
   -2.3690   24.8620  -29.3450 C   0  0  0  0  0  0  0  0  0  0  0  0
   -1.7500   26.0460  -28.9590 O   0  0  0  0  0  0  0  0  0  0  0  0
   -0.5660   23.7510  -26.7420 N   0  0  0  0  0  0  0  0  0  0  0  0
   -1.5510   24.6310  -26.0960 C   0  0  0  0  0  0  0  0  0  0  0  0
   -0.8530   25.5310  -25.0640 C   0  0  0  0  0  0  0  0  0  0  0  0
    0.0570   24.8110  -24.1440 N   0  0  0  0  0  0  0  0  0  0  0  0
    0.2260   23.3780  -24.4350 C   0  0  0  0  0  0  0  0  0  0  0  0
    0.4900   23.1410  -25.9260 C   0  0  0  0  0  0  0  0  0  0  0  0
   -2.1518   21.4312  -28.9632 H   0  0  0  0  0  0  0  0  0  0  0  0
   -5.8492   21.3139  -33.8056 H   0  0  0  0  0  0  0  0  0  0  0  0
   -5.5227   19.9307  -32.6883 H   0  0  0  0  0  0  0  0  0  0  0  0
   -8.1158   20.6987  -34.0784 H   0  0  0  0  0  0  0  0  0  0  0  0
   -7.2264   19.1191  -34.0760 H   0  0  0  0  0  0  0  0  0  0  0  0
   -7.1549   18.8920  -30.7230 H   0  0  0  0  0  0  0  0  0  0  0  0
   -8.5048   17.7720  -31.1812 H   0  0  0  0  0  0  0  0  0  0  0  0
   -4.9951   18.6722  -31.6963 H   0  0  0  0  0  0  0  0  0  0  0  0
   -3.4178   17.2953  -33.0542 H   0  0  0  0  0  0  0  0  0  0  0  0
   -4.2885   15.4763  -34.5252 H   0  0  0  0  0  0  0  0  0  0  0  0
   -8.3293   16.3950  -33.2744 H   0  0  0  0  0  0  0  0  0  0  0  0
   -9.8335   20.9152  -31.8103 H   0  0  0  0  0  0  0  0  0  0  0  0
   -8.7985   20.2524  -30.4474 H   0  0  0  0  0  0  0  0  0  0  0  0
   -8.3159   22.5811  -32.2740 H   0  0  0  0  0  0  0  0  0  0  0  0
   -7.9516   22.3504  -30.5141 H   0  0  0  0  0  0  0  0  0  0  0  0
   -3.9556   25.8918  -30.4467 H   0  0  0  0  0  0  0  0  0  0  0  0
   -2.0348   25.2586  -26.8590 H   0  0  0  0  0  0  0  0  0  0  0  0
   -2.3067   24.0152  -25.5864 H   0  0  0  0  0  0  0  0  0  0  0  0
   -0.2667   26.2870  -25.6068 H   0  0  0  0  0  0  0  0  0  0  0  0
   -1.6464   25.9710  -24.4419 H   0  0  0  0  0  0  0  0  0  0  0  0
   -0.3140   24.8970  -23.1670 H   0  0  0  0  0  0  0  0  0  0  0  0
    1.0770   22.9922  -23.8545 H   0  0  0  0  0  0  0  0  0  0  0  0
   -0.7017   22.8554  -24.1588 H   0  0  0  0  0  0  0  0  0  0  0  0
    1.4586   23.5866  -26.1967 H   0  0  0  0  0  0  0  0  0  0  0  0
    0.5026   22.0575  -26.1155 H   0  0  0  0  0  0  0  0  0  0  0  0
  1  2  2  0
  2  3  1  0
  3  4  2  0
  4  5  1  0
  5  6  1  0
  6  7  1  0
  7  8  1  0
  8  9  1  0
  9 10  1  0
 10 11  1  0
 11 12  1  0
 12 13  1  0
 13 14  2  0
 14 15  1  0
 15 16  2  0
 16 17  1  0
 17 18  1  0
 17 19  2  0
 11 20  1  0
 20 21  1  0
  7 22  2  0
 22 23  1  0
 23 24  1  0
 24 25  2  0
 25 26  1  0
  2 27  1  0
 27 28  1  0
 28 29  1  0
 29 30  1  0
 30 31  1  0
 31 32  1  0
 25  3  1  0
 32 27  1  0
 23  5  2  0
 21  8  1  0
 19 13  1  0
  4 33  1  0
  9 34  1  0
  9 35  1  0
 10 36  1  0
 10 37  1  0
 12 38  1  0
 12 39  1  0
 14 40  1  0
 15 41  1  0
 16 42  1  0
 19 43  1  0
 20 44  1  0
 20 45  1  0
 21 46  1  0
 21 47  1  0
 24 48  1  0
 28 49  1  0
 28 50  1  0
 29 51  1  0
 29 52  1  0
 30 53  1  0
 31 54  1  0
 31 55  1  0
 32 56  1  0
 32 57  1  0
M  CHG  3   6  -1  18  -1  26  -1
M  END
>  <UniqueID>  (47) 
47

>  <SMILES>  (47) 
O=C(c1cc2[n-]c(N3CCN(Cc4cccc([O-])c4)CC3)nc2cc1[O-])N1CCNCC1

>  <Energy>  (47) 
114.90334924306889

>  <Genealogy>  (47) 
O=C(c1cc2[n-]c(N3CCN(Cc4cccc([O-])c4)CC3)nc2cc1[O-])N1CCNCC1 (protonated)
O=C(c1cc2[n-]c(N3CCN(Cc4cccc([O-])c4)CC3)nc2cc1[O-])N1CCNCC1 (3D coordinates assigned)
O=C(c1cc2[n-]c(N3CCN(Cc4cccc([O-])c4)CC3)nc2cc1[O-])N1CCNCC1 (nonaromatic ring conformer: 114.90334924306889 kcal/mol)

>  <smiles>  (47) 
O=C(c1cc2[nH]c(N3CCN(Cc4cccc(O)c4)CC3)nc2cc1O)N1CCNCC1

>  <score_type>  (47) 
oracle

>  <origin>  (47) 
adgpu

>  <m_score__min__energy>  (47) 
-12.16

>  <m_primary>  (47) 
energy

$$$$
47:0
     RDKit          3D

 49 51  0  0  0  0  0  0  0  0999 V2000
   -1.1060   22.0770  -26.7600 C   0  0  0  0  0  0  0  0  0  0  0  0
   -0.5180   22.3460  -28.0290 O   0  0  0  0  0  0  0  0  0  0  0  0
   -0.7460   21.5900  -29.1930 C   0  0  0  0  0  0  0  0  0  0  0  0
   -0.1460   20.3320  -29.3820 C   0  0  0  0  0  0  0  0  0  0  0  0
   -0.3970   19.5970  -30.5390 C   0  0  0  0  0  0  0  0  0  0  0  0
   -1.2540   20.0960  -31.5180 C   0  0  0  0  0  0  0  0  0  0  0  0
   -1.8710   21.3510  -31.3520 C   0  0  0  0  0  0  0  0  0  0  0  0
   -2.7560   21.8680  -32.3120 O   0  0  0  0  0  0  0  0  0  0  0  0
   -3.2290   21.1500  -33.4480 C   0  0  0  0  0  0  0  0  0  0  0  0
   -1.5980   22.1090  -30.1930 C   0  0  0  0  0  0  0  0  0  0  0  0
   -2.2800   23.4380  -29.9820 C   0  0  0  0  0  0  0  0  0  0  0  0
   -3.5070   23.2270  -29.2160 N   0  0  0  0  0  0  0  0  0  0  0  0
   -4.7910   24.2050  -29.8550 S   0  0  0  0  0  0  0  0  0  0  0  0
   -4.2230   25.2070  -30.8190 O   0  0  0  0  0  0  0  0  0  0  0  0
   -5.4770   24.9420  -28.7370 O   0  0  0  0  0  0  0  0  0  0  0  0
   -5.9290   23.1660  -30.7060 C   0  0  0  0  0  0  0  0  0  0  0  0
   -7.2610   23.5530  -30.8810 C   0  0  0  0  0  0  0  0  0  0  0  0
   -8.1640   22.6960  -31.5130 C   0  0  0  0  0  0  0  0  0  0  0  0
   -7.7480   21.4360  -31.9740 C   0  0  0  0  0  0  0  0  0  0  0  0
   -6.3940   21.0470  -31.8260 C   0  0  0  0  0  0  0  0  0  0  0  0
   -5.5030   21.9160  -31.1720 C   0  0  0  0  0  0  0  0  0  0  0  0
   -5.8880   19.6870  -32.2800 C   0  0  0  0  0  0  0  0  0  0  0  0
   -6.5970   18.4440  -31.6760 C   0  0  0  0  0  0  0  0  0  0  0  0
   -7.9320   18.1780  -32.2380 N   0  0  0  0  0  0  0  0  0  0  0  0
   -8.9220   19.2150  -31.8950 C   0  0  0  0  0  0  0  0  0  0  0  0
   -8.7360   20.5350  -32.6640 C   0  0  0  0  0  0  0  0  0  0  0  0
   -0.4171   22.3922  -25.9625 H   0  0  0  0  0  0  0  0  0  0  0  0
   -2.0512   22.6323  -26.6687 H   0  0  0  0  0  0  0  0  0  0  0  0
   -1.3039   20.9988  -26.6687 H   0  0  0  0  0  0  0  0  0  0  0  0
    0.5257   19.9257  -28.6115 H   0  0  0  0  0  0  0  0  0  0  0  0
    0.0839   18.6178  -30.6802 H   0  0  0  0  0  0  0  0  0  0  0  0
   -1.4497   19.5062  -32.4257 H   0  0  0  0  0  0  0  0  0  0  0  0
   -3.8057   20.2747  -33.1145 H   0  0  0  0  0  0  0  0  0  0  0  0
   -3.8733   21.8046  -34.0533 H   0  0  0  0  0  0  0  0  0  0  0  0
   -2.3732   20.8164  -34.0533 H   0  0  0  0  0  0  0  0  0  0  0  0
   -1.6105   24.1122  -29.4277 H   0  0  0  0  0  0  0  0  0  0  0  0
   -2.5225   23.8899  -30.9551 H   0  0  0  0  0  0  0  0  0  0  0  0
   -7.5986   24.5356  -30.5197 H   0  0  0  0  0  0  0  0  0  0  0  0
   -9.2092   23.0099  -31.6510 H   0  0  0  0  0  0  0  0  0  0  0  0
   -4.4568   21.6098  -31.0243 H   0  0  0  0  0  0  0  0  0  0  0  0
   -6.0004   19.6370  -33.3731 H   0  0  0  0  0  0  0  0  0  0  0  0
   -4.8491   19.6302  -31.9231 H   0  0  0  0  0  0  0  0  0  0  0  0
   -5.9640   17.5631  -31.8587 H   0  0  0  0  0  0  0  0  0  0  0  0
   -6.7404   18.6511  -30.6052 H   0  0  0  0  0  0  0  0  0  0  0  0
   -7.8830   18.0370  -33.2750 H   0  0  0  0  0  0  0  0  0  0  0  0
   -9.9253   18.8230  -32.1179 H   0  0  0  0  0  0  0  0  0  0  0  0
   -8.7855   19.4456  -30.8281 H   0  0  0  0  0  0  0  0  0  0  0  0
   -8.3699   20.3110  -33.6768 H   0  0  0  0  0  0  0  0  0  0  0  0
   -9.7062   21.0517  -32.7059 H   0  0  0  0  0  0  0  0  0  0  0  0
  1  2  1  0
  2  3  1  0
  3  4  2  0
  4  5  1  0
  5  6  2  0
  6  7  1  0
  7  8  1  0
  8  9  1  0
  7 10  2  0
 10 11  1  0
 11 12  1  0
 12 13  1  0
 13 14  2  0
 13 15  2  0
 13 16  1  0
 16 17  2  0
 17 18  1  0
 18 19  2  0
 19 20  1  0
 20 21  2  0
 20 22  1  0
 22 23  1  0
 23 24  1  0
 24 25  1  0
 25 26  1  0
 10  3  1  0
 21 16  1  0
 26 19  1  0
  1 27  1  0
  1 28  1  0
  1 29  1  0
  4 30  1  0
  5 31  1  0
  6 32  1  0
  9 33  1  0
  9 34  1  0
  9 35  1  0
 11 36  1  0
 11 37  1  0
 17 38  1  0
 18 39  1  0
 21 40  1  0
 22 41  1  0
 22 42  1  0
 23 43  1  0
 23 44  1  0
 24 45  1  0
 25 46  1  0
 25 47  1  0
 26 48  1  0
 26 49  1  0
M  CHG  1  12  -1
M  END
>  <UniqueID>  (48) 
48

>  <SMILES>  (48) 
COc1cccc(OC)c1C[N-]S(=O)(=O)c1ccc2c(c1)CCNCC2

>  <Energy>  (48) 
57.31003581422575

>  <Genealogy>  (48) 
COc1cccc(OC)c1C[N-]S(=O)(=O)c1ccc2c(c1)CCNCC2 (protonated)
COc1cccc(OC)c1C[N-]S(=O)(=O)c1ccc2c(c1)CCNCC2 (3D coordinates assigned)
COc1cccc(OC)c1C[N-]S(=O)(=O)c1ccc2c(c1)CCNCC2 (nonaromatic ring conformer: 57.31003581422575 kcal/mol)

>  <smiles>  (48) 
COc1cccc(OC)c1CNS(=O)(=O)c1ccc2c(c1)CCNCC2

>  <score_type>  (48) 
oracle

>  <origin>  (48) 
adgpu

>  <m_score__min__energy>  (48) 
-8.0199999999999996

>  <m_primary>  (48) 
energy

$$$$
