0:0
     RDKit          3D

 27 28  0  0  0  0  0  0  0  0999 V2000
   -5.7270   15.2460  -33.8530 C   0  0  0  0  0  0  0  0  0  0  0  0
   -6.8480   16.1210  -33.9280 O   0  0  0  0  0  0  0  0  0  0  0  0
   -6.8480   17.4480  -33.4730 C   0  0  0  0  0  0  0  0  0  0  0  0
   -6.0750   18.4550  -34.0800 C   0  0  0  0  0  0  0  0  0  0  0  0
   -6.1120   19.7640  -33.5890 C   0  0  0  0  0  0  0  0  0  0  0  0
   -6.9290   20.0940  -32.4980 C   0  0  0  0  0  0  0  0  0  0  0  0
   -6.9340   21.4840  -31.9930 C   0  0  0  0  0  0  0  0  0  0  0  0
   -5.8340   22.1870  -31.8340 O   0  0  0  0  0  0  0  0  0  0  0  0
   -6.1560   23.3740  -31.3750 C   0  0  0  0  0  0  0  0  0  0  0  0
   -5.2020   24.4060  -31.0810 C   0  0  0  0  0  0  0  0  0  0  0  0
   -4.4320   25.2380  -30.8440 N   0  0  0  0  0  0  0  0  0  0  0  0
   -7.5220   23.4810  -31.2240 C   0  0  0  0  0  0  0  0  0  0  0  0
   -8.0310   22.2660  -31.6360 C   0  0  0  0  0  0  0  0  0  0  0  0
   -9.4850   21.9160  -31.6970 C   0  0  0  0  0  0  0  0  0  0  0  0
   -7.6850   19.0820  -31.8810 C   0  0  0  0  0  0  0  0  0  0  0  0
   -7.6470   17.7740  -32.3710 C   0  0  0  0  0  0  0  0  0  0  0  0
   -5.4814   15.0543  -32.7980 H   0  0  0  0  0  0  0  0  0  0  0  0
   -5.9695   14.2959  -34.3515 H   0  0  0  0  0  0  0  0  0  0  0  0
   -4.8642   15.7119  -34.3515 H   0  0  0  0  0  0  0  0  0  0  0  0
   -5.4392   18.2117  -34.9440 H   0  0  0  0  0  0  0  0  0  0  0  0
   -5.4948   20.5416  -34.0628 H   0  0  0  0  0  0  0  0  0  0  0  0
   -8.0862   24.3497  -30.8539 H   0  0  0  0  0  0  0  0  0  0  0  0
   -9.8823   21.8204  -30.6757 H   0  0  0  0  0  0  0  0  0  0  0  0
  -10.0308   22.7084  -32.2301 H   0  0  0  0  0  0  0  0  0  0  0  0
   -9.6104   20.9620  -32.2301 H   0  0  0  0  0  0  0  0  0  0  0  0
   -8.3098   19.3211  -31.0078 H   0  0  0  0  0  0  0  0  0  0  0  0
   -8.2509   16.9929  -31.8860 H   0  0  0  0  0  0  0  0  0  0  0  0
  1  2  1  0
  2  3  1  0
  3  4  2  0
  4  5  1  0
  5  6  2  0
  6  7  1  0
  7  8  1  0
  8  9  1  0
  9 10  1  0
 10 11  3  0
  9 12  2  0
 12 13  1  0
 13 14  1  0
  6 15  1  0
 15 16  2  0
 16  3  1  0
 13  7  2  0
  1 17  1  0
  1 18  1  0
  1 19  1  0
  4 20  1  0
  5 21  1  0
 12 22  1  0
 14 23  1  0
 14 24  1  0
 14 25  1  0
 15 26  1  0
 16 27  1  0
M  END
>  <UniqueID>  (1) 
1

>  <SMILES>  (1) 
COc1ccc(-c2oc(C#N)cc2C)cc1

>  <Energy>  (1) 
55.43993192822208

>  <Genealogy>  (1) 
COc1ccc(-c2oc(C#N)cc2C)cc1 (3D coordinates assigned)
COc1ccc(-c2oc(C#N)cc2C)cc1 (optimized conformer: 55.43993192822208 kcal/mol)

>  <smiles>  (1) 
COc1ccc(-c2oc(C#N)cc2C)cc1

>  <score_type>  (1) 
oracle

>  <origin>  (1) 
adgpu

>  <m_score__min__energy>  (1) 
-6.9500000000000002

>  <m_primary>  (1) 
energy

$$$$
1:0
     RDKit          3D

 33 36  0  0  0  0  0  0  0  0999 V2000
   -1.8800   21.3460  -29.6680 O   0  0  0  0  0  0  0  0  0  0  0  0
   -2.6250   22.3100  -28.7890 S   0  0  0  0  0  0  0  0  0  0  0  0
   -3.1870   21.5990  -27.5900 O   0  0  0  0  0  0  0  0  0  0  0  0
   -1.5520   23.5840  -28.2680 C   0  0  0  0  0  0  0  0  0  0  0  0
   -0.4150   23.2690  -27.5120 C   0  0  0  0  0  0  0  0  0  0  0  0
    0.4500   24.2820  -27.0910 C   0  0  0  0  0  0  0  0  0  0  0  0
    0.1830   25.6110  -27.4250 C   0  0  0  0  0  0  0  0  0  0  0  0
   -0.9500   25.9280  -28.1800 C   0  0  0  0  0  0  0  0  0  0  0  0
   -1.8250   24.9220  -28.6080 C   0  0  0  0  0  0  0  0  0  0  0  0
   -2.9470   25.2990  -29.3630 O   0  0  0  0  0  0  0  0  0  0  0  0
   -3.9370   24.4490  -29.8810 C   0  0  0  0  0  0  0  0  0  0  0  0
   -4.9810   25.0240  -30.6130 C   0  0  0  0  0  0  0  0  0  0  0  0
   -5.9960   24.2290  -31.1520 C   0  0  0  0  0  0  0  0  0  0  0  0
   -5.9850   22.8360  -30.9670 C   0  0  0  0  0  0  0  0  0  0  0  0
   -7.0630   21.9890  -31.5380 C   0  0  0  0  0  0  0  0  0  0  0  0
   -6.7620   20.7810  -32.1910 C   0  0  0  0  0  0  0  0  0  0  0  0
   -7.7860   19.9950  -32.7220 C   0  0  0  0  0  0  0  0  0  0  0  0
   -9.1090   20.4210  -32.5990 C   0  0  0  0  0  0  0  0  0  0  0  0
   -9.3900   21.5910  -31.9680 N   0  0  0  0  0  0  0  0  0  0  0  0
   -8.4120   22.3730  -31.4410 C   0  0  0  0  0  0  0  0  0  0  0  0
   -4.9360   22.2580  -30.2320 C   0  0  0  0  0  0  0  0  0  0  0  0
   -3.9190   23.0560  -29.6920 C   0  0  0  0  0  0  0  0  0  0  0  0
   -0.2031   22.2220  -27.2495 H   0  0  0  0  0  0  0  0  0  0  0  0
    1.3413   24.0326  -26.4965 H   0  0  0  0  0  0  0  0  0  0  0  0
    0.8642   26.4088  -27.0940 H   0  0  0  0  0  0  0  0  0  0  0  0
   -1.1560   26.9768  -28.4401 H   0  0  0  0  0  0  0  0  0  0  0  0
   -5.0033   26.1131  -30.7659 H   0  0  0  0  0  0  0  0  0  0  0  0
   -6.8097   24.6971  -31.7254 H   0  0  0  0  0  0  0  0  0  0  0  0
   -5.7158   20.4540  -32.2838 H   0  0  0  0  0  0  0  0  0  0  0  0
   -7.5523   19.0490  -33.2324 H   0  0  0  0  0  0  0  0  0  0  0  0
   -9.9244   19.8096  -33.0129 H   0  0  0  0  0  0  0  0  0  0  0  0
   -8.6774   23.3130  -30.9350 H   0  0  0  0  0  0  0  0  0  0  0  0
   -4.9132   21.1689  -30.0792 H   0  0  0  0  0  0  0  0  0  0  0  0
  1  2  2  0
  2  3  2  0
  2  4  1  0
  4  5  2  0
  5  6  1  0
  6  7  2  0
  7  8  1  0
  8  9  2  0
  9 10  1  0
 10 11  1  0
 11 12  2  0
 12 13  1  0
 13 14  2  0
 14 15  1  0
 15 16  2  0
 16 17  1  0
 17 18  2  0
 18 19  1  0
 19 20  2  0
 14 21  1  0
 21 22  2  0
 22  2  1  0
  9  4  1  0
 22 11  1  0
 20 15  1  0
  5 23  1  0
  6 24  1  0
  7 25  1  0
  8 26  1  0
 12 27  1  0
 13 28  1  0
 16 29  1  0
 17 30  1  0
 18 31  1  0
 20 32  1  0
 21 33  1  0
M  END
>  <UniqueID>  (2) 
2

>  <SMILES>  (2) 
O=S1(=O)c2ccccc2Oc2ccc(-c3cccnc3)cc21

>  <Energy>  (2) 
50.013654108011444

>  <Genealogy>  (2) 
O=S1(=O)c2ccccc2Oc2ccc(-c3cccnc3)cc21 (3D coordinates assigned)
O=S1(=O)c2ccccc2Oc2ccc(-c3cccnc3)cc21 (nonaromatic ring conformer: 50.013654108011444 kcal/mol)

>  <smiles>  (2) 
O=S1(=O)c2ccccc2Oc2ccc(-c3cccnc3)cc21

>  <score_type>  (2) 
oracle

>  <origin>  (2) 
adgpu

>  <m_score__min__energy>  (2) 
-8.1699999999999999

>  <m_primary>  (2) 
energy

$$$$
2:0
     RDKit          3D

 33 34  0  0  0  0  0  0  0  0999 V2000
   -3.1320   25.0330  -29.4120 F   0  0  0  0  0  0  0  0  0  0  0  0
   -4.1750   24.5600  -30.1380 C   0  0  0  0  0  0  0  0  0  0  0  0
   -5.4080   25.2150  -30.0970 C   0  0  0  0  0  0  0  0  0  0  0  0
   -6.4870   24.7300  -30.8440 C   0  0  0  0  0  0  0  0  0  0  0  0
   -6.3390   23.5800  -31.6430 C   0  0  0  0  0  0  0  0  0  0  0  0
   -7.4290   23.0540  -32.4250 N   0  0  0  0  0  0  0  0  0  0  0  0
   -8.7600   22.7910  -31.8710 C   0  0  0  0  0  0  0  0  0  0  0  0
   -9.2420   21.3720  -32.2010 C   0  0  0  0  0  0  0  0  0  0  0  0
   -8.4680   20.3050  -31.4150 C   0  0  0  0  0  0  0  0  0  0  0  0
   -7.6570   19.4470  -32.3480 C   0  0  0  0  0  0  0  0  0  0  0  0
   -7.6390   18.0510  -32.1940 C   0  0  0  0  0  0  0  0  0  0  0  0
   -6.8590   17.2580  -33.0410 C   0  0  0  0  0  0  0  0  0  0  0  0
   -6.0850   17.8530  -34.0410 C   0  0  0  0  0  0  0  0  0  0  0  0
   -6.0850   19.2430  -34.1920 C   0  0  0  0  0  0  0  0  0  0  0  0
   -6.8640   20.0400  -33.3460 C   0  0  0  0  0  0  0  0  0  0  0  0
   -5.0940   22.9290  -31.6760 C   0  0  0  0  0  0  0  0  0  0  0  0
   -4.0180   23.4160  -30.9270 C   0  0  0  0  0  0  0  0  0  0  0  0
   -2.8220   22.7780  -30.9690 F   0  0  0  0  0  0  0  0  0  0  0  0
   -5.5310   26.1144  -29.4758 H   0  0  0  0  0  0  0  0  0  0  0  0
   -7.4558   25.2497  -30.8070 H   0  0  0  0  0  0  0  0  0  0  0  0
   -7.2490   22.8410  -33.4330 H   0  0  0  0  0  0  0  0  0  0  0  0
   -8.7209   22.9090  -30.7780 H   0  0  0  0  0  0  0  0  0  0  0  0
   -9.4655   23.5058  -32.3197 H   0  0  0  0  0  0  0  0  0  0  0  0
  -10.3102   21.2925  -31.9506 H   0  0  0  0  0  0  0  0  0  0  0  0
   -9.0706   21.1955  -33.2731 H   0  0  0  0  0  0  0  0  0  0  0  0
   -7.7938   20.7999  -30.7005 H   0  0  0  0  0  0  0  0  0  0  0  0
   -9.1865   19.6670  -30.8795 H   0  0  0  0  0  0  0  0  0  0  0  0
   -8.2413   17.5795  -31.4035 H   0  0  0  0  0  0  0  0  0  0  0  0
   -6.8545   16.1647  -32.9202 H   0  0  0  0  0  0  0  0  0  0  0  0
   -5.4755   17.2274  -34.7097 H   0  0  0  0  0  0  0  0  0  0  0  0
   -5.4720   19.7105  -34.9767 H   0  0  0  0  0  0  0  0  0  0  0  0
   -6.8559   21.1338  -33.4621 H   0  0  0  0  0  0  0  0  0  0  0  0
   -4.9648   22.0294  -32.2957 H   0  0  0  0  0  0  0  0  0  0  0  0
  1  2  1  0
  2  3  2  0
  3  4  1  0
  4  5  2  0
  5  6  1  0
  6  7  1  0
  7  8  1  0
  8  9  1  0
  9 10  1  0
 10 11  2  0
 11 12  1  0
 12 13  2  0
 13 14  1  0
 14 15  2  0
  5 16  1  0
 16 17  2  0
 17 18  1  0
 17  2  1  0
 15 10  1  0
  3 19  1  0
  4 20  1  0
  6 21  1  0
  7 22  1  0
  7 23  1  0
  8 24  1  0
  8 25  1  0
  9 26  1  0
  9 27  1  0
 11 28  1  0
 12 29  1  0
 13 30  1  0
 14 31  1  0
 15 32  1  0
 16 33  1  0
M  END
>  <UniqueID>  (3) 
3

>  <SMILES>  (3) 
Fc1ccc(NCCCc2ccccc2)cc1F

>  <Energy>  (3) 
28.745875714867488

>  <Genealogy>  (3) 
Fc1ccc(NCCCc2ccccc2)cc1F (3D coordinates assigned)
Fc1ccc(NCCCc2ccccc2)cc1F (optimized conformer: 28.745875714867488 kcal/mol)

>  <smiles>  (3) 
Fc1ccc(NCCCc2ccccc2)cc1F

>  <score_type>  (3) 
oracle

>  <origin>  (3) 
adgpu

>  <m_score__min__energy>  (3) 
-7.0300000000000002

>  <m_primary>  (3) 
energy

$$$$
3:0
     RDKit          3D

 35 37  0  0  1  0  0  0  0  0999 V2000
   -4.3170   21.2050  -31.2420 C   0  0  0  0  0  0  0  0  0  0  0  0
   -4.8560   22.5580  -31.1500 C   0  0  0  0  0  0  0  0  0  0  0  0
   -6.1660   22.8530  -31.4630 C   0  0  0  0  0  0  0  0  0  0  0  0
   -7.1750   21.9100  -31.8560 C   0  0  0  0  0  0  0  0  0  0  0  0
   -8.4590   22.0870  -31.3250 C   0  0  0  0  0  0  0  0  0  0  0  0
   -9.4860   21.1960  -31.5710 C   0  0  0  0  0  0  0  0  0  0  0  0
   -9.3100   20.0760  -32.3520 C   0  0  0  0  0  0  0  0  0  0  0  0
   -8.0540   19.8850  -32.8820 C   0  0  0  0  0  0  0  0  0  0  0  0
   -7.0100   20.7920  -32.6310 C   0  0  0  0  0  0  0  0  0  0  0  0
   -6.5500   24.1630  -31.4480 N   0  0  0  0  0  0  0  0  0  0  0  0
   -5.7360   25.1750  -31.1480 C   0  0  0  0  0  0  0  0  0  0  0  0
   -4.4740   24.9120  -30.8410 N   0  0  0  0  0  0  0  0  0  0  0  0
   -4.0190   23.6090  -30.8370 C   0  0  0  0  0  0  0  0  0  0  0  0
   -2.8080   23.5080  -30.4820 N   0  0  0  0  0  0  0  0  0  0  0  0
   -2.0850   22.3450  -30.3330 C   0  0  0  0  0  0  0  0  0  0  0  0
   -1.2510   21.9220  -31.4000 C   0  0  0  0  0  0  0  0  0  0  0  0
   -0.4550   20.8030  -31.2650 C   0  0  0  0  0  0  0  0  0  0  0  0
   -0.4310   20.0540  -30.1070 C   0  0  0  0  0  0  0  0  0  0  0  0
   -1.2370   20.4560  -29.0620 C   0  0  0  0  0  0  0  0  0  0  0  0
   -2.0440   21.5670  -29.1630 C   0  0  0  0  0  0  0  0  0  0  0  0
   -3.0320   22.0630  -27.7740 Cl  0  0  0  0  0  0  0  0  0  0  0  0
   -4.1574   20.8043  -30.2301 H   0  0  0  0  0  0  0  0  0  0  0  0
   -5.0280   20.5630  -31.7826 H   0  0  0  0  0  0  0  0  0  0  0  0
   -3.3593   21.2278  -31.7826 H   0  0  0  0  0  0  0  0  0  0  0  0
   -8.6562   22.9642  -30.6913 H   0  0  0  0  0  0  0  0  0  0  0  0
  -10.4750   21.3875  -31.1291 H   0  0  0  0  0  0  0  0  0  0  0  0
  -10.1313   19.3696  -32.5428 H   0  0  0  0  0  0  0  0  0  0  0  0
   -7.8636   19.0053  -33.5144 H   0  0  0  0  0  0  0  0  0  0  0  0
   -6.0222   20.5968  -33.0739 H   0  0  0  0  0  0  0  0  0  0  0  0
   -7.5500   24.4420  -31.6710 H   0  0  0  0  0  0  0  0  0  0  0  0
   -6.1056   26.2110  -31.1551 H   0  0  0  0  0  0  0  0  0  0  0  0
   -1.2389   22.4903  -32.3418 H   0  0  0  0  0  0  0  0  0  0  0  0
    0.1815   20.4982  -32.1088 H   0  0  0  0  0  0  0  0  0  0  0  0
    0.2103   19.1646  -30.0195 H   0  0  0  0  0  0  0  0  0  0  0  0
   -1.2349   19.8760  -28.1273 H   0  0  0  0  0  0  0  0  0  0  0  0
  1  2  1  0
  2  3  2  0
  3  4  1  0
  4  5  2  0
  5  6  1  0
  6  7  2  0
  7  8  1  0
  8  9  2  0
  3 10  1  0
 10 11  1  0
 11 12  2  0
 12 13  1  0
 13 14  2  0
 14 15  1  0
 15 16  2  0
 16 17  1  0
 17 18  2  0
 18 19  1  0
 19 20  2  0
 20 21  1  0
 13  2  1  0
 20 15  1  0
  9  4  1  0
  1 22  1  0
  1 23  1  0
  1 24  1  0
  5 25  1  0
  6 26  1  0
  7 27  1  0
  8 28  1  0
  9 29  1  0
 10 30  1  0
 11 31  1  0
 16 32  1  0
 17 33  1  0
 18 34  1  0
 19 35  1  0
M  END
>  <smiles>  (4) 
Cc1c(-c2ccccc2)[nH]cnc1=Nc1ccccc1Cl

>  <score_type>  (4) 
oracle

>  <origin>  (4) 
adgpu

>  <m_score__min__energy>  (4) 
-7.8300000000000001

>  <m_primary>  (4) 
energy

$$$$
4:0
     RDKit          3D

 37 39  0  0  0  0  0  0  0  0999 V2000
   -0.1890   25.9250  -27.6450 C   0  0  0  0  0  0  0  0  0  0  0  0
   -1.2210   24.9450  -28.1040 C   0  0  0  0  0  0  0  0  0  0  0  0
   -1.2660   23.6570  -27.5610 C   0  0  0  0  0  0  0  0  0  0  0  0
   -2.2370   22.7680  -28.0300 C   0  0  0  0  0  0  0  0  0  0  0  0
   -2.3130   21.3750  -27.4940 C   0  0  0  0  0  0  0  0  0  0  0  0
   -3.0990   23.1670  -29.0030 N   0  0  0  0  0  0  0  0  0  0  0  0
   -3.0510   24.4260  -29.5190 C   0  0  0  0  0  0  0  0  0  0  0  0
   -3.8630   24.8010  -30.4640 N   0  0  0  0  0  0  0  0  0  0  0  0
   -4.9470   24.0370  -31.0220 C   0  0  0  0  0  0  0  0  0  0  0  0
   -6.2540   24.5110  -30.8620 C   0  0  0  0  0  0  0  0  0  0  0  0
   -7.3350   23.7890  -31.3680 C   0  0  0  0  0  0  0  0  0  0  0  0
   -7.1220   22.5740  -32.0250 C   0  0  0  0  0  0  0  0  0  0  0  0
   -5.8220   22.0600  -32.1670 C   0  0  0  0  0  0  0  0  0  0  0  0
   -5.5970   20.7570  -32.8440 C   0  0  0  0  0  0  0  0  0  0  0  0
   -6.6820   19.9180  -33.1570 C   0  0  0  0  0  0  0  0  0  0  0  0
   -6.4700   18.6930  -33.7970 C   0  0  0  0  0  0  0  0  0  0  0  0
   -5.1740   18.2920  -34.1300 C   0  0  0  0  0  0  0  0  0  0  0  0
   -4.0880   19.1150  -33.8240 C   0  0  0  0  0  0  0  0  0  0  0  0
   -4.2950   20.3420  -33.1860 C   0  0  0  0  0  0  0  0  0  0  0  0
   -4.7370   22.7950  -31.6520 C   0  0  0  0  0  0  0  0  0  0  0  0
   -2.1080   25.2970  -29.0740 N   0  0  0  0  0  0  0  0  0  0  0  0
   -0.1668   25.9461  -26.5454 H   0  0  0  0  0  0  0  0  0  0  0  0
    0.7979   25.6236  -28.0260 H   0  0  0  0  0  0  0  0  0  0  0  0
   -0.4390   26.9262  -28.0260 H   0  0  0  0  0  0  0  0  0  0  0  0
   -0.5527   23.3503  -26.7818 H   0  0  0  0  0  0  0  0  0  0  0  0
   -2.3114   21.4046  -26.3944 H   0  0  0  0  0  0  0  0  0  0  0  0
   -3.2386   20.8965  -27.8465 H   0  0  0  0  0  0  0  0  0  0  0  0
   -1.4450   20.7986  -27.8465 H   0  0  0  0  0  0  0  0  0  0  0  0
   -6.4301   25.4595  -30.3335 H   0  0  0  0  0  0  0  0  0  0  0  0
   -8.3575   24.1769  -31.2496 H   0  0  0  0  0  0  0  0  0  0  0  0
   -7.9777   22.0164  -32.4336 H   0  0  0  0  0  0  0  0  0  0  0  0
   -7.7047   20.2280  -32.8963 H   0  0  0  0  0  0  0  0  0  0  0  0
   -7.3249   18.0443  -34.0386 H   0  0  0  0  0  0  0  0  0  0  0  0
   -5.0088   17.3279  -34.6333 H   0  0  0  0  0  0  0  0  0  0  0  0
   -3.0678   18.7974  -34.0854 H   0  0  0  0  0  0  0  0  0  0  0  0
   -3.4359   20.9871  -32.9497 H   0  0  0  0  0  0  0  0  0  0  0  0
   -3.7161   22.3955  -31.7426 H   0  0  0  0  0  0  0  0  0  0  0  0
  1  2  1  0
  2  3  1  0
  3  4  2  0
  4  5  1  0
  4  6  1  0
  6  7  1  0
  7  8  2  3
  8  9  1  0
  9 10  2  0
 10 11  1  0
 11 12  2  0
 12 13  1  0
 13 14  1  0
 14 15  2  0
 15 16  1  0
 16 17  2  0
 17 18  1  0
 18 19  2  0
 13 20  2  0
  7 21  1  0
 21  2  2  0
 20  9  1  0
 19 14  1  0
  1 22  1  0
  1 23  1  0
  1 24  1  0
  3 25  1  0
  5 26  1  0
  5 27  1  0
  5 28  1  0
 10 29  1  0
 11 30  1  0
 12 31  1  0
 15 32  1  0
 16 33  1  0
 17 34  1  0
 18 35  1  0
 19 36  1  0
 20 37  1  0
M  CHG  1   6  -1
M  END
>  <UniqueID>  (5) 
4

>  <SMILES>  (5) 
Cc1cc(C)[n-]c(=Nc2cccc(-c3ccccc3)c2)n1

>  <Energy>  (5) 
49.175188075625506

>  <Genealogy>  (5) 
Cc1cc(C)[n-]c(=Nc2cccc(-c3ccccc3)c2)n1 (protonated)
Cc1cc(C)[n-]c(=Nc2cccc(-c3ccccc3)c2)n1 (3D coordinates assigned)
Cc1cc(C)[n-]c(=Nc2cccc(-c3ccccc3)c2)n1 (optimized conformer: 49.175188075625506 kcal/mol)

>  <smiles>  (5) 
Cc1cc(C)[nH]c(=Nc2cccc(-c3ccccc3)c2)n1

>  <score_type>  (5) 
oracle

>  <origin>  (5) 
adgpu

>  <m_score__min__energy>  (5) 
-9.7799999999999994

>  <m_primary>  (5) 
energy

$$$$
5:0
     RDKit          3D

 36 37  0  0  0  0  0  0  0  0999 V2000
   -1.2420   26.1000  -28.2300 C   0  0  0  0  0  0  0  0  0  0  0  0
   -2.0780   25.3040  -29.0620 O   0  0  0  0  0  0  0  0  0  0  0  0
   -2.3170   23.9320  -28.8770 C   0  0  0  0  0  0  0  0  0  0  0  0
   -1.4510   23.1250  -28.1140 C   0  0  0  0  0  0  0  0  0  0  0  0
   -1.7180   21.7640  -27.9450 C   0  0  0  0  0  0  0  0  0  0  0  0
   -2.8490   21.1950  -28.5310 C   0  0  0  0  0  0  0  0  0  0  0  0
   -3.1070   19.8740  -28.3620 F   0  0  0  0  0  0  0  0  0  0  0  0
   -3.7150   21.9840  -29.2900 C   0  0  0  0  0  0  0  0  0  0  0  0
   -3.4540   23.3500  -29.4720 C   0  0  0  0  0  0  0  0  0  0  0  0
   -4.5450   24.3220  -30.4650 S   0  0  0  0  0  0  0  0  0  0  0  0
   -3.8690   25.6240  -30.7910 O   0  0  0  0  0  0  0  0  0  0  0  0
   -5.8260   24.6060  -29.7330 O   0  0  0  0  0  0  0  0  0  0  0  0
   -4.9110   23.4870  -31.9400 N   0  0  0  0  0  0  0  0  0  0  0  0
   -5.8430   22.4020  -32.0680 C   0  0  0  0  0  0  0  0  0  0  0  0
   -7.1760   22.5260  -31.6370 C   0  0  0  0  0  0  0  0  0  0  0  0
   -8.0690   21.4500  -31.7530 C   0  0  0  0  0  0  0  0  0  0  0  0
   -9.4750   21.5800  -31.2460 C   0  0  0  0  0  0  0  0  0  0  0  0
   -7.6180   20.2340  -32.2790 C   0  0  0  0  0  0  0  0  0  0  0  0
   -6.3000   20.1020  -32.7180 C   0  0  0  0  0  0  0  0  0  0  0  0
   -5.4070   21.1830  -32.6260 C   0  0  0  0  0  0  0  0  0  0  0  0
   -3.9810   21.0150  -33.0760 C   0  0  0  0  0  0  0  0  0  0  0  0
   -1.4657   25.8870  -27.1743 H   0  0  0  0  0  0  0  0  0  0  0  0
   -0.1877   25.8637  -28.4363 H   0  0  0  0  0  0  0  0  0  0  0  0
   -1.4263   27.1646  -28.4363 H   0  0  0  0  0  0  0  0  0  0  0  0
   -0.5588   23.5689  -27.6482 H   0  0  0  0  0  0  0  0  0  0  0  0
   -1.0355   21.1403  -27.3491 H   0  0  0  0  0  0  0  0  0  0  0  0
   -4.6071   21.5319  -29.7479 H   0  0  0  0  0  0  0  0  0  0  0  0
   -7.5221   23.4764  -31.2045 H   0  0  0  0  0  0  0  0  0  0  0  0
   -9.4696   21.5795  -30.1460 H   0  0  0  0  0  0  0  0  0  0  0  0
   -9.9104   22.5222  -31.6101 H   0  0  0  0  0  0  0  0  0  0  0  0
  -10.0758   20.7336  -31.6101 H   0  0  0  0  0  0  0  0  0  0  0  0
   -8.3058   19.3782  -32.3467 H   0  0  0  0  0  0  0  0  0  0  0  0
   -5.9578   19.1451  -33.1390 H   0  0  0  0  0  0  0  0  0  0  0  0
   -3.3255   20.9378  -32.1960 H   0  0  0  0  0  0  0  0  0  0  0  0
   -3.8926   20.1002  -33.6805 H   0  0  0  0  0  0  0  0  0  0  0  0
   -3.6824   21.8842  -33.6805 H   0  0  0  0  0  0  0  0  0  0  0  0
  1  2  1  0
  2  3  1  0
  3  4  2  0
  4  5  1  0
  5  6  2  0
  6  7  1  0
  6  8  1  0
  8  9  2  0
  9 10  1  0
 10 11  2  0
 10 12  2  0
 10 13  1  0
 13 14  1  0
 14 15  2  0
 15 16  1  0
 16 17  1  0
 16 18  2  0
 18 19  1  0
 19 20  2  0
 20 21  1  0
  9  3  1  0
 20 14  1  0
  1 22  1  0
  1 23  1  0
  1 24  1  0
  4 25  1  0
  5 26  1  0
  8 27  1  0
 15 28  1  0
 17 29  1  0
 17 30  1  0
 17 31  1  0
 18 32  1  0
 19 33  1  0
 21 34  1  0
 21 35  1  0
 21 36  1  0
M  CHG  1  13  -1
M  END
>  <UniqueID>  (6) 
5

>  <SMILES>  (6) 
COc1ccc(F)cc1S(=O)(=O)[N-]c1cc(C)ccc1C

>  <Energy>  (6) 
37.71684846064194

>  <Genealogy>  (6) 
COc1ccc(F)cc1S(=O)(=O)[N-]c1cc(C)ccc1C (protonated)
COc1ccc(F)cc1S(=O)(=O)[N-]c1cc(C)ccc1C (3D coordinates assigned)
COc1ccc(F)cc1S(=O)(=O)[N-]c1cc(C)ccc1C (optimized conformer: 37.71684846064194 kcal/mol)

>  <smiles>  (6) 
COc1ccc(F)cc1S(=O)(=O)Nc1cc(C)ccc1C

>  <score_type>  (6) 
oracle

>  <origin>  (6) 
adgpu

>  <m_score__min__energy>  (6) 
-8.5299999999999994

>  <m_primary>  (6) 
energy

$$$$
6:0
     RDKit          3D

 32 33  0  0  0  0  0  0  0  0999 V2000
   -2.4020   21.4370  -31.0860 C   0  0  0  0  0  0  0  0  0  0  0  0
   -2.9250   21.8910  -32.4440 C   0  0  0  0  0  0  0  0  0  0  0  0
   -3.9100   22.9120  -32.2920 O   0  0  0  0  0  0  0  0  0  0  0  0
   -5.1690   22.7610  -31.6820 C   0  0  0  0  0  0  0  0  0  0  0  0
   -5.9390   21.5890  -31.8400 C   0  0  0  0  0  0  0  0  0  0  0  0
   -7.1940   21.4790  -31.2380 C   0  0  0  0  0  0  0  0  0  0  0  0
   -7.6970   22.5280  -30.4710 C   0  0  0  0  0  0  0  0  0  0  0  0
   -6.9490   23.6940  -30.3040 C   0  0  0  0  0  0  0  0  0  0  0  0
   -5.6860   23.8250  -30.9090 C   0  0  0  0  0  0  0  0  0  0  0  0
   -4.9050   25.0700  -30.7090 C   0  0  0  0  0  0  0  0  0  0  0  0
   -5.4780   26.1860  -30.8110 O   0  0  0  0  0  0  0  0  0  0  0  0
   -3.4900   25.0450  -30.4700 N   0  0  0  0  0  0  0  0  0  0  0  0
   -2.8340   24.5140  -29.3090 C   0  0  0  0  0  0  0  0  0  0  0  0
   -1.5550   24.9490  -28.9190 C   0  0  0  0  0  0  0  0  0  0  0  0
   -0.9380   24.3990  -27.7910 C   0  0  0  0  0  0  0  0  0  0  0  0
   -1.5860   23.4020  -27.0560 C   0  0  0  0  0  0  0  0  0  0  0  0
   -2.8460   22.9490  -27.4530 C   0  0  0  0  0  0  0  0  0  0  0  0
   -3.4650   23.4980  -28.5810 C   0  0  0  0  0  0  0  0  0  0  0  0
   -2.9739   21.9334  -30.2882 H   0  0  0  0  0  0  0  0  0  0  0  0
   -2.5161   20.3467  -30.9949 H   0  0  0  0  0  0  0  0  0  0  0  0
   -1.3386   21.7032  -30.9949 H   0  0  0  0  0  0  0  0  0  0  0  0
   -2.0879   22.2834  -33.0401 H   0  0  0  0  0  0  0  0  0  0  0  0
   -3.3851   21.0298  -32.9505 H   0  0  0  0  0  0  0  0  0  0  0  0
   -5.5475   20.7558  -32.4420 H   0  0  0  0  0  0  0  0  0  0  0  0
   -7.7871   20.5620  -31.3695 H   0  0  0  0  0  0  0  0  0  0  0  0
   -8.6852   22.4367  -29.9965 H   0  0  0  0  0  0  0  0  0  0  0  0
   -7.3502   24.5171  -29.6945 H   0  0  0  0  0  0  0  0  0  0  0  0
   -1.0380   25.7246  -29.5032 H   0  0  0  0  0  0  0  0  0  0  0  0
    0.0573   24.7509  -27.4820 H   0  0  0  0  0  0  0  0  0  0  0  0
   -1.1034   22.9742  -26.1649 H   0  0  0  0  0  0  0  0  0  0  0  0
   -3.3523   22.1596  -26.8781 H   0  0  0  0  0  0  0  0  0  0  0  0
   -4.4520   23.1298  -28.8975 H   0  0  0  0  0  0  0  0  0  0  0  0
  1  2  1  0
  2  3  1  0
  3  4  1  0
  4  5  2  0
  5  6  1  0
  6  7  2  0
  7  8  1  0
  8  9  2  0
  9 10  1  0
 10 11  2  0
 10 12  1  0
 12 13  1  0
 13 14  2  0
 14 15  1  0
 15 16  2  0
 16 17  1  0
 17 18  2  0
  9  4  1  0
 18 13  1  0
  1 19  1  0
  1 20  1  0
  1 21  1  0
  2 22  1  0
  2 23  1  0
  5 24  1  0
  6 25  1  0
  7 26  1  0
  8 27  1  0
 14 28  1  0
 15 29  1  0
 16 30  1  0
 17 31  1  0
 18 32  1  0
M  CHG  1  12  -1
M  END
>  <UniqueID>  (7) 
6

>  <SMILES>  (7) 
CCOc1ccccc1C(=O)[N-]c1ccccc1

>  <Energy>  (7) 
38.47122199491558

>  <Genealogy>  (7) 
CCOc1ccccc1C(=O)[N-]c1ccccc1 (protonated)
CCOc1ccccc1C(=O)[N-]c1ccccc1 (3D coordinates assigned)
CCOc1ccccc1C(=O)[N-]c1ccccc1 (optimized conformer: 38.47122199491558 kcal/mol)

>  <smiles>  (7) 
CCOc1ccccc1C(=O)Nc1ccccc1

>  <score_type>  (7) 
oracle

>  <origin>  (7) 
adgpu

>  <m_score__min__energy>  (7) 
-8.0500000000000007

>  <m_primary>  (7) 
energy

$$$$
7:0
     RDKit          3D

 45 48  0  0  0  0  0  0  0  0999 V2000
   -2.5530   21.0770  -31.1620 O   0  0  0  0  0  0  0  0  0  0  0  0
   -3.2710   21.4470  -32.1320 C   0  0  0  0  0  0  0  0  0  0  0  0
   -2.6990   21.5680  -33.4430 N   0  0  0  0  0  0  0  0  0  0  0  0
   -1.3150   21.1980  -33.7310 C   0  0  0  0  0  0  0  0  0  0  0  0
   -1.2420   19.7570  -34.1540 C   0  0  0  0  0  0  0  0  0  0  0  0
   -0.1170   19.2680  -34.8410 C   0  0  0  0  0  0  0  0  0  0  0  0
   -0.0490   17.9210  -35.2100 C   0  0  0  0  0  0  0  0  0  0  0  0
   -1.0970   17.0540  -34.8930 C   0  0  0  0  0  0  0  0  0  0  0  0
   -2.2140   17.5300  -34.2040 C   0  0  0  0  0  0  0  0  0  0  0  0
   -2.2880   18.8760  -33.8330 C   0  0  0  0  0  0  0  0  0  0  0  0
   -4.6900   21.7970  -31.9040 C   0  0  0  0  0  0  0  0  0  0  0  0
   -5.6740   20.9110  -32.3670 C   0  0  0  0  0  0  0  0  0  0  0  0
   -7.0260   21.2190  -32.2060 C   0  0  0  0  0  0  0  0  0  0  0  0
   -8.2820   20.0810  -32.7770 S   0  0  0  0  0  0  0  0  0  0  0  0
   -7.1490   18.6920  -32.7570 C   0  0  0  0  0  0  0  0  0  0  0  0
   -6.4790   18.3150  -33.9270 C   0  0  0  0  0  0  0  0  0  0  0  0
   -5.6060   17.2230  -33.9120 C   0  0  0  0  0  0  0  0  0  0  0  0
   -5.3980   16.5060  -32.7290 C   0  0  0  0  0  0  0  0  0  0  0  0
   -4.3040   15.1350  -32.7120 Cl  0  0  0  0  0  0  0  0  0  0  0  0
   -6.0650   16.8850  -31.5580 C   0  0  0  0  0  0  0  0  0  0  0  0
   -6.9360   17.9780  -31.5700 C   0  0  0  0  0  0  0  0  0  0  0  0
   -7.3930   22.3790  -31.6070 N   0  0  0  0  0  0  0  0  0  0  0  0
   -6.4790   23.2650  -31.1340 C   0  0  0  0  0  0  0  0  0  0  0  0
   -6.9160   24.4390  -30.5100 C   0  0  0  0  0  0  0  0  0  0  0  0
   -5.9900   25.3440  -29.9870 C   0  0  0  0  0  0  0  0  0  0  0  0
   -4.6240   25.0770  -30.0790 C   0  0  0  0  0  0  0  0  0  0  0  0
   -4.1710   23.9110  -30.7030 C   0  0  0  0  0  0  0  0  0  0  0  0
   -5.0910   22.9960  -31.2590 C   0  0  0  0  0  0  0  0  0  0  0  0
   -3.2990   21.8890  -34.2370 H   0  0  0  0  0  0  0  0  0  0  0  0
   -0.9293   21.8347  -34.5408 H   0  0  0  0  0  0  0  0  0  0  0  0
   -0.7090   21.3377  -32.8237 H   0  0  0  0  0  0  0  0  0  0  0  0
    0.7121   19.9471  -35.0889 H   0  0  0  0  0  0  0  0  0  0  0  0
    0.8314   17.5436  -35.7508 H   0  0  0  0  0  0  0  0  0  0  0  0
   -1.0423   15.9953  -35.1864 H   0  0  0  0  0  0  0  0  0  0  0  0
   -3.0372   16.8450  -33.9526 H   0  0  0  0  0  0  0  0  0  0  0  0
   -3.1686   19.2465  -33.2877 H   0  0  0  0  0  0  0  0  0  0  0  0
   -5.3797   19.9716  -32.8579 H   0  0  0  0  0  0  0  0  0  0  0  0
   -6.6394   18.8780  -34.8583 H   0  0  0  0  0  0  0  0  0  0  0  0
   -5.0815   16.9270  -34.8325 H   0  0  0  0  0  0  0  0  0  0  0  0
   -5.9034   16.3218  -30.6271 H   0  0  0  0  0  0  0  0  0  0  0  0
   -7.4545   18.2779  -30.6474 H   0  0  0  0  0  0  0  0  0  0  0  0
   -7.9928   24.6496  -30.4312 H   0  0  0  0  0  0  0  0  0  0  0  0
   -6.3380   26.2680  -29.5022 H   0  0  0  0  0  0  0  0  0  0  0  0
   -3.8986   25.7886  -29.6578 H   0  0  0  0  0  0  0  0  0  0  0  0
   -3.0919   23.7054  -30.7611 H   0  0  0  0  0  0  0  0  0  0  0  0
  1  2  2  0
  2  3  1  0
  3  4  1  0
  4  5  1  0
  5  6  2  0
  6  7  1  0
  7  8  2  0
  8  9  1  0
  9 10  2  0
  2 11  1  0
 11 12  2  0
 12 13  1  0
 13 14  1  0
 14 15  1  0
 15 16  2  0
 16 17  1  0
 17 18  2  0
 18 19  1  0
 18 20  1  0
 20 21  2  0
 13 22  2  0
 22 23  1  0
 23 24  2  0
 24 25  1  0
 25 26  2  0
 26 27  1  0
 27 28  2  0
 10  5  1  0
 28 11  1  0
 21 15  1  0
 28 23  1  0
  3 29  1  0
  4 30  1  0
  4 31  1  0
  6 32  1  0
  7 33  1  0
  8 34  1  0
  9 35  1  0
 10 36  1  0
 12 37  1  0
 16 38  1  0
 17 39  1  0
 20 40  1  0
 21 41  1  0
 24 42  1  0
 25 43  1  0
 26 44  1  0
 27 45  1  0
M  END
>  <UniqueID>  (8) 
7

>  <SMILES>  (8) 
O=C(NCc1ccccc1)c1cc(Sc2ccc(Cl)cc2)nc2ccccc12

>  <Energy>  (8) 
52.1178237912124

>  <Genealogy>  (8) 
O=C(NCc1ccccc1)c1cc(Sc2ccc(Cl)cc2)nc2ccccc12 (3D coordinates assigned)
O=C(NCc1ccccc1)c1cc(Sc2ccc(Cl)cc2)nc2ccccc12 (optimized conformer: 52.1178237912124 kcal/mol)

>  <smiles>  (8) 
O=C(NCc1ccccc1)c1cc(Sc2ccc(Cl)cc2)nc2ccccc12

>  <score_type>  (8) 
oracle

>  <origin>  (8) 
adgpu

>  <m_score__min__energy>  (8) 
-9.3900000000000006

>  <m_primary>  (8) 
energy

$$$$
8:0
     RDKit          3D

 28 30  0  0  0  0  0  0  0  0999 V2000
    1.7890   23.4750  -26.7900 O   0  0  0  0  0  0  0  0  0  0  0  0
    0.6110   23.5910  -27.5180 C   0  0  0  0  0  0  0  0  0  0  0  0
   -0.0690   22.4450  -27.9320 C   0  0  0  0  0  0  0  0  0  0  0  0
   -1.2530   22.5590  -28.6650 C   0  0  0  0  0  0  0  0  0  0  0  0
   -1.7740   23.8240  -28.9930 C   0  0  0  0  0  0  0  0  0  0  0  0
   -3.0330   23.9040  -29.7710 C   0  0  0  0  0  0  0  0  0  0  0  0
   -3.8550   22.8640  -30.0140 N   0  0  0  0  0  0  0  0  0  0  0  0
   -4.8310   23.4430  -30.7450 C   0  0  0  0  0  0  0  0  0  0  0  0
   -6.0160   22.7030  -31.2580 C   0  0  0  0  0  0  0  0  0  0  0  0
   -7.2870   23.0380  -30.7500 C   0  0  0  0  0  0  0  0  0  0  0  0
   -8.4350   22.3830  -31.2020 C   0  0  0  0  0  0  0  0  0  0  0  0
   -8.3350   21.3800  -32.1640 C   0  0  0  0  0  0  0  0  0  0  0  0
   -7.0860   21.0280  -32.6760 C   0  0  0  0  0  0  0  0  0  0  0  0
   -5.9250   21.6760  -32.2330 C   0  0  0  0  0  0  0  0  0  0  0  0
   -4.3960   21.1280  -32.9200 Cl  0  0  0  0  0  0  0  0  0  0  0  0
   -4.6100   24.7600  -30.9250 N   0  0  0  0  0  0  0  0  0  0  0  0
   -3.4920   25.0050  -30.3120 O   0  0  0  0  0  0  0  0  0  0  0  0
   -1.0810   24.9820  -28.5720 C   0  0  0  0  0  0  0  0  0  0  0  0
   -1.5650   26.2540  -28.8780 O   0  0  0  0  0  0  0  0  0  0  0  0
    0.1080   24.8550  -27.8370 C   0  0  0  0  0  0  0  0  0  0  0  0
    0.3277   21.4502  -27.6809 H   0  0  0  0  0  0  0  0  0  0  0  0
   -1.7829   21.6510  -28.9887 H   0  0  0  0  0  0  0  0  0  0  0  0
   -7.3763   23.8257  -29.9874 H   0  0  0  0  0  0  0  0  0  0  0  0
   -9.4199   22.6596  -30.7977 H   0  0  0  0  0  0  0  0  0  0  0  0
   -9.2403   20.8661  -32.5195 H   0  0  0  0  0  0  0  0  0  0  0  0
   -7.0117   20.2346  -33.4343 H   0  0  0  0  0  0  0  0  0  0  0  0
   -2.5580   26.4400  -28.9640 H   0  0  0  0  0  0  0  0  0  0  0  0
    0.6473   25.7563  -27.5100 H   0  0  0  0  0  0  0  0  0  0  0  0
  1  2  1  0
  2  3  2  0
  3  4  1  0
  4  5  2  0
  5  6  1  0
  6  7  2  0
  7  8  1  0
  8  9  1  0
  9 10  2  0
 10 11  1  0
 11 12  2  0
 12 13  1  0
 13 14  2  0
 14 15  1  0
  8 16  2  0
 16 17  1  0
  5 18  1  0
 18 19  1  0
 18 20  2  0
 20  2  1  0
 17  6  1  0
 14  9  1  0
  3 21  1  0
  4 22  1  0
 10 23  1  0
 11 24  1  0
 12 25  1  0
 13 26  1  0
 19 27  1  0
 20 28  1  0
M  CHG  1   1  -1
M  END
>  <UniqueID>  (9) 
8

>  <SMILES>  (9) 
[O-]c1ccc(-c2nc(-c3ccccc3Cl)no2)c(O)c1

>  <Energy>  (9) 
69.55162941807912

>  <Genealogy>  (9) 
[O-]c1ccc(-c2nc(-c3ccccc3Cl)no2)c(O)c1 (protonated)
[O-]c1ccc(-c2nc(-c3ccccc3Cl)no2)c(O)c1 (3D coordinates assigned)
[O-]c1ccc(-c2nc(-c3ccccc3Cl)no2)c(O)c1 (optimized conformer: 69.55162941807912 kcal/mol)

>  <smiles>  (9) 
Oc1ccc(-c2nc(-c3ccccc3Cl)no2)c(O)c1

>  <score_type>  (9) 
oracle

>  <origin>  (9) 
adgpu

>  <m_score__min__energy>  (9) 
-9.4800000000000004

>  <m_primary>  (9) 
energy

$$$$
9:0
     RDKit          3D

 41 42  0  0  0  0  0  0  0  0999 V2000
   -3.8750   24.5330  -26.9400 C   0  0  0  0  0  0  0  0  0  0  0  0
   -3.3110   23.8240  -27.9200 C   0  0  0  0  0  0  0  0  0  0  0  0
   -2.3980   24.4750  -28.9200 C   0  0  0  0  0  0  0  0  0  0  0  0
   -3.1320   24.9270  -30.0570 O   0  0  0  0  0  0  0  0  0  0  0  0
   -4.4120   24.4800  -30.4240 C   0  0  0  0  0  0  0  0  0  0  0  0
   -5.5890   25.1630  -30.0620 C   0  0  0  0  0  0  0  0  0  0  0  0
   -6.8360   24.6830  -30.4690 C   0  0  0  0  0  0  0  0  0  0  0  0
   -6.9300   23.5240  -31.2570 C   0  0  0  0  0  0  0  0  0  0  0  0
   -8.2760   23.0210  -31.7020 C   0  0  0  0  0  0  0  0  0  0  0  0
   -8.5910   21.7470  -31.0300 N   0  0  0  0  0  0  0  0  0  0  0  0
   -9.1440   20.7350  -31.9470 C   0  0  0  0  0  0  0  0  0  0  0  0
   -8.6470   19.3170  -31.6190 C   0  0  0  0  0  0  0  0  0  0  0  0
   -7.5760   18.8240  -32.5650 C   0  0  0  0  0  0  0  0  0  0  0  0
   -6.8230   19.7440  -33.3170 C   0  0  0  0  0  0  0  0  0  0  0  0
   -5.8320   19.2980  -34.1960 C   0  0  0  0  0  0  0  0  0  0  0  0
   -5.5660   17.9320  -34.3150 C   0  0  0  0  0  0  0  0  0  0  0  0
   -6.2820   17.0120  -33.5450 C   0  0  0  0  0  0  0  0  0  0  0  0
   -7.2760   17.4530  -32.6680 C   0  0  0  0  0  0  0  0  0  0  0  0
   -5.7580   22.8320  -31.5990 C   0  0  0  0  0  0  0  0  0  0  0  0
   -4.5110   23.3090  -31.1850 C   0  0  0  0  0  0  0  0  0  0  0  0
   -4.5408   24.0392  -26.2169 H   0  0  0  0  0  0  0  0  0  0  0  0
   -3.6740   25.6112  -26.8553 H   0  0  0  0  0  0  0  0  0  0  0  0
   -3.5178   22.7463  -27.9968 H   0  0  0  0  0  0  0  0  0  0  0  0
   -1.8997   25.3343  -28.4475 H   0  0  0  0  0  0  0  0  0  0  0  0
   -1.6539   23.7358  -29.2517 H   0  0  0  0  0  0  0  0  0  0  0  0
   -5.5261   26.0788  -29.4559 H   0  0  0  0  0  0  0  0  0  0  0  0
   -7.7506   25.2162  -30.1704 H   0  0  0  0  0  0  0  0  0  0  0  0
   -9.0445   23.7657  -31.4476 H   0  0  0  0  0  0  0  0  0  0  0  0
   -8.2566   22.8579  -32.7897 H   0  0  0  0  0  0  0  0  0  0  0  0
   -7.6980   21.3590  -30.6480 H   0  0  0  0  0  0  0  0  0  0  0  0
  -10.2413   20.7515  -31.8720 H   0  0  0  0  0  0  0  0  0  0  0  0
   -8.8073   20.9828  -32.9645 H   0  0  0  0  0  0  0  0  0  0  0  0
   -8.2372   19.3183  -30.5982 H   0  0  0  0  0  0  0  0  0  0  0  0
   -9.5074   18.6392  -31.7200 H   0  0  0  0  0  0  0  0  0  0  0  0
   -7.0155   20.8220  -33.2125 H   0  0  0  0  0  0  0  0  0  0  0  0
   -5.2612   20.0233  -34.7944 H   0  0  0  0  0  0  0  0  0  0  0  0
   -4.7932   17.5807  -35.0146 H   0  0  0  0  0  0  0  0  0  0  0  0
   -6.0625   15.9375  -33.6295 H   0  0  0  0  0  0  0  0  0  0  0  0
   -7.8270   16.7248  -32.0548 H   0  0  0  0  0  0  0  0  0  0  0  0
   -5.8209   21.9100  -32.1956 H   0  0  0  0  0  0  0  0  0  0  0  0
   -3.5988   22.7591  -31.4597 H   0  0  0  0  0  0  0  0  0  0  0  0
  1  2  2  0
  2  3  1  0
  3  4  1  0
  4  5  1  0
  5  6  2  0
  6  7  1  0
  7  8  2  0
  8  9  1  0
  9 10  1  0
 10 11  1  0
 11 12  1  0
 12 13  1  0
 13 14  2  0
 14 15  1  0
 15 16  2  0
 16 17  1  0
 17 18  2  0
  8 19  1  0
 19 20  2  0
 20  5  1  0
 18 13  1  0
  1 21  1  0
  1 22  1  0
  2 23  1  0
  3 24  1  0
  3 25  1  0
  6 26  1  0
  7 27  1  0
  9 28  1  0
  9 29  1  0
 10 30  1  0
 11 31  1  0
 11 32  1  0
 12 33  1  0
 12 34  1  0
 14 35  1  0
 15 36  1  0
 16 37  1  0
 17 38  1  0
 18 39  1  0
 19 40  1  0
 20 41  1  0
M  END
>  <UniqueID>  (10) 
9

>  <SMILES>  (10) 
C=CCOc1ccc(CNCCc2ccccc2)cc1

>  <Energy>  (10) 
34.98670489324283

>  <Genealogy>  (10) 
C=CCOc1ccc(CNCCc2ccccc2)cc1 (3D coordinates assigned)
C=CCOc1ccc(CNCCc2ccccc2)cc1 (optimized conformer: 34.98670489324283 kcal/mol)

>  <smiles>  (10) 
C=CCOc1ccc(CNCCc2ccccc2)cc1

>  <score_type>  (10) 
oracle

>  <origin>  (10) 
adgpu

>  <m_score__min__energy>  (10) 
-8.0700000000000003

>  <m_primary>  (10) 
energy

$$$$
10:0
     RDKit          3D

 25 26  0  0  0  0  0  0  0  0999 V2000
   -4.3770   25.6740  -30.8290 O   0  0  0  0  0  0  0  0  0  0  0  0
   -3.8980   24.5670  -30.4700 C   0  0  0  0  0  0  0  0  0  0  0  0
   -4.2470   23.3890  -31.2080 N   0  0  0  0  0  0  0  0  0  0  0  0
   -5.5770   22.9010  -31.4380 C   0  0  0  0  0  0  0  0  0  0  0  0
   -6.6330   23.8170  -31.4940 C   0  0  0  0  0  0  0  0  0  0  0  0
   -7.9350   23.3780  -31.7450 C   0  0  0  0  0  0  0  0  0  0  0  0
   -8.1910   22.0200  -31.9470 C   0  0  0  0  0  0  0  0  0  0  0  0
   -7.1440   21.0830  -31.8920 C   0  0  0  0  0  0  0  0  0  0  0  0
   -7.4050   19.6240  -32.1680 C   0  0  0  0  0  0  0  0  0  0  0  0
   -7.0780   19.3040  -33.4740 F   0  0  0  0  0  0  0  0  0  0  0  0
   -6.6390   18.8550  -31.3110 F   0  0  0  0  0  0  0  0  0  0  0  0
   -8.7410   19.3230  -31.9710 F   0  0  0  0  0  0  0  0  0  0  0  0
   -5.8320   21.5380  -31.6700 C   0  0  0  0  0  0  0  0  0  0  0  0
   -3.0450   24.5180  -29.2680 C   0  0  0  0  0  0  0  0  0  0  0  0
   -3.2060   23.6890  -28.1730 C   0  0  0  0  0  0  0  0  0  0  0  0
   -2.1860   24.0150  -27.3050 C   0  0  0  0  0  0  0  0  0  0  0  0
   -1.4730   25.0260  -27.9170 C   0  0  0  0  0  0  0  0  0  0  0  0
   -2.0100   25.3050  -29.0820 O   0  0  0  0  0  0  0  0  0  0  0  0
   -6.4369   24.8883  -31.3396 H   0  0  0  0  0  0  0  0  0  0  0  0
   -8.7608   24.1037  -31.7837 H   0  0  0  0  0  0  0  0  0  0  0  0
   -9.2177   21.6814  -32.1503 H   0  0  0  0  0  0  0  0  0  0  0  0
   -4.9978   20.8211  -31.6779 H   0  0  0  0  0  0  0  0  0  0  0  0
   -3.9860   22.9276  -28.0253 H   0  0  0  0  0  0  0  0  0  0  0  0
   -1.9818   23.5615  -26.3239 H   0  0  0  0  0  0  0  0  0  0  0  0
   -0.5882   25.5230  -27.4926 H   0  0  0  0  0  0  0  0  0  0  0  0
  1  2  2  0
  2  3  1  0
  3  4  1  0
  4  5  2  0
  5  6  1  0
  6  7  2  0
  7  8  1  0
  8  9  1  0
  9 10  1  0
  9 11  1  0
  9 12  1  0
  8 13  2  0
  2 14  1  0
 14 15  2  0
 15 16  1  0
 16 17  2  0
 17 18  1  0
 13  4  1  0
 18 14  1  0
  5 19  1  0
  6 20  1  0
  7 21  1  0
 13 22  1  0
 15 23  1  0
 16 24  1  0
 17 25  1  0
M  CHG  1   3  -1
M  END
>  <UniqueID>  (11) 
10

>  <SMILES>  (11) 
O=C([N-]c1cccc(C(F)(F)F)c1)c1ccco1

>  <Energy>  (11) 
56.696600816654744

>  <Genealogy>  (11) 
O=C([N-]c1cccc(C(F)(F)F)c1)c1ccco1 (protonated)
O=C([N-]c1cccc(C(F)(F)F)c1)c1ccco1 (3D coordinates assigned)
O=C([N-]c1cccc(C(F)(F)F)c1)c1ccco1 (optimized conformer: 56.696600816654744 kcal/mol)

>  <smiles>  (11) 
O=C(Nc1cccc(C(F)(F)F)c1)c1ccco1

>  <score_type>  (11) 
oracle

>  <origin>  (11) 
adgpu

>  <m_score__min__energy>  (11) 
-7.5499999999999998

>  <m_primary>  (11) 
energy

$$$$
11:0
     RDKit          3D

 18 19  0  0  0  0  0  0  0  0999 V2000
   -2.3860   24.7950  -28.1630 S   0  0  0  0  0  0  0  0  0  0  0  0
   -3.5000   24.3030  -29.2530 C   0  0  0  0  0  0  0  0  0  0  0  0
   -3.6680   24.8660  -30.4670 N   0  0  0  0  0  0  0  0  0  0  0  0
   -4.6360   24.3010  -31.1870 N   0  0  0  0  0  0  0  0  0  0  0  0
   -5.2510   23.2770  -30.5500 C   0  0  0  0  0  0  0  0  0  0  0  0
   -6.3580   22.4920  -31.1430 C   0  0  0  0  0  0  0  0  0  0  0  0
   -7.6800   22.6900  -30.7030 C   0  0  0  0  0  0  0  0  0  0  0  0
   -8.7300   21.9510  -31.2580 C   0  0  0  0  0  0  0  0  0  0  0  0
   -8.4730   21.0090  -32.2560 C   0  0  0  0  0  0  0  0  0  0  0  0
   -7.1660   20.8030  -32.7010 C   0  0  0  0  0  0  0  0  0  0  0  0
   -6.1120   21.5380  -32.1490 C   0  0  0  0  0  0  0  0  0  0  0  0
   -4.5800   23.0390  -29.0130 S   0  0  0  0  0  0  0  0  0  0  0  0
   -3.1030   25.6680  -30.8230 H   0  0  0  0  0  0  0  0  0  0  0  0
   -7.8890   23.4309  -29.9173 H   0  0  0  0  0  0  0  0  0  0  0  0
   -9.7601   22.1123  -30.9075 H   0  0  0  0  0  0  0  0  0  0  0  0
   -9.3002   20.4293  -32.6915 H   0  0  0  0  0  0  0  0  0  0  0  0
   -6.9647   20.0609  -33.4876 H   0  0  0  0  0  0  0  0  0  0  0  0
   -5.0842   21.3698  -32.5030 H   0  0  0  0  0  0  0  0  0  0  0  0
  1  2  2  0
  2  3  1  0
  3  4  1  0
  4  5  2  0
  5  6  1  0
  6  7  2  0
  7  8  1  0
  8  9  2  0
  9 10  1  0
 10 11  2  0
  5 12  1  0
 12  2  1  0
 11  6  1  0
  3 13  1  0
  7 14  1  0
  8 15  1  0
  9 16  1  0
 10 17  1  0
 11 18  1  0
M  END
>  <UniqueID>  (12) 
11

>  <SMILES>  (12) 
S=c1[nH]nc(-c2ccccc2)s1

>  <Energy>  (12) 
53.505517262386675

>  <Genealogy>  (12) 
S=c1[nH]nc(-c2ccccc2)s1 (3D coordinates assigned)
S=c1[nH]nc(-c2ccccc2)s1 (optimized conformer: 53.505517262386675 kcal/mol)

>  <smiles>  (12) 
S=c1[nH]nc(-c2ccccc2)s1

>  <score_type>  (12) 
oracle

>  <origin>  (12) 
adgpu

>  <m_score__min__energy>  (12) 
-6.46

>  <m_primary>  (12) 
energy

$$$$
12:0
     RDKit          3D

 39 42  0  0  0  0  0  0  0  0999 V2000
    0.0710   23.4758  -28.7634 H   0  0  0  0  0  0  0  0  0  0  0  0
   -0.7750   23.1400  -29.3810 C   0  0  0  0  0  0  0  0  0  0  0  0
   -1.8940   23.8660  -29.6270 N   0  0  0  0  0  0  0  0  0  0  0  0
   -2.6260   23.0510  -30.4140 C   0  0  0  0  0  0  0  0  0  0  0  0
   -3.8780   23.3290  -30.9610 C   0  0  0  0  0  0  0  0  0  0  0  0
   -4.4450   24.4810  -30.7280 N   0  0  0  0  0  0  0  0  0  0  0  0
   -5.7310   24.9470  -31.2490 C   0  0  0  0  0  0  0  0  0  0  0  0
   -5.6182   25.1989  -32.3138 H   0  0  0  0  0  0  0  0  0  0  0  0
   -6.0424   25.8325  -30.6754 H   0  0  0  0  0  0  0  0  0  0  0  0
   -6.7890   23.8820  -31.1030 C   0  0  0  0  0  0  0  0  0  0  0  0
   -7.0110   23.2750  -29.8560 C   0  0  0  0  0  0  0  0  0  0  0  0
   -6.4091   23.5751  -28.9856 H   0  0  0  0  0  0  0  0  0  0  0  0
   -7.9940   22.2910  -29.7170 C   0  0  0  0  0  0  0  0  0  0  0  0
   -8.1673   21.8228  -28.7368 H   0  0  0  0  0  0  0  0  0  0  0  0
   -8.7570   21.9010  -30.8210 C   0  0  0  0  0  0  0  0  0  0  0  0
   -9.5323   21.1288  -30.7086 H   0  0  0  0  0  0  0  0  0  0  0  0
   -8.5350   22.4920  -32.0680 C   0  0  0  0  0  0  0  0  0  0  0  0
   -9.1356   22.1844  -32.9367 H   0  0  0  0  0  0  0  0  0  0  0  0
   -7.5500   23.4740  -32.2120 C   0  0  0  0  0  0  0  0  0  0  0  0
   -7.3700   23.9290  -33.1972 H   0  0  0  0  0  0  0  0  0  0  0  0
   -4.4640   22.3630  -31.7420 N   0  0  0  0  0  0  0  0  0  0  0  0
   -5.4200   22.5130  -32.1300 H   0  0  0  0  0  0  0  0  0  0  0  0
   -3.8400   21.1660  -32.0050 C   0  0  0  0  0  0  0  0  0  0  0  0
   -4.4850   20.1590  -32.8850 C   0  0  0  0  0  0  0  0  0  0  0  0
   -3.7130   19.2100  -33.5790 C   0  0  0  0  0  0  0  0  0  0  0  0
   -2.6182   19.2125  -33.4724 H   0  0  0  0  0  0  0  0  0  0  0  0
   -4.3290   18.2630  -34.4040 C   0  0  0  0  0  0  0  0  0  0  0  0
   -3.7183   17.5248  -34.9445 H   0  0  0  0  0  0  0  0  0  0  0  0
   -5.7190   18.2540  -34.5420 C   0  0  0  0  0  0  0  0  0  0  0  0
   -6.2020   17.5080  -35.1902 H   0  0  0  0  0  0  0  0  0  0  0  0
   -6.4960   19.1910  -33.8580 C   0  0  0  0  0  0  0  0  0  0  0  0
   -7.5904   19.1825  -33.9684 H   0  0  0  0  0  0  0  0  0  0  0  0
   -5.8850   20.1400  -33.0330 C   0  0  0  0  0  0  0  0  0  0  0  0
   -6.5016   20.8761  -32.4964 H   0  0  0  0  0  0  0  0  0  0  0  0
   -2.5730   20.9160  -31.4410 C   0  0  0  0  0  0  0  0  0  0  0  0
   -2.0447   19.9691  -31.6265 H   0  0  0  0  0  0  0  0  0  0  0  0
   -2.0280   21.8810  -30.6630 N   0  0  0  0  0  0  0  0  0  0  0  0
   -0.8530   21.9140  -30.0210 C   0  0  0  0  0  0  0  0  0  0  0  0
   -0.0937   21.1182  -30.0050 H   0  0  0  0  0  0  0  0  0  0  0  0
  1  2  1  0
  2  3  1  0
  3  4  2  0
  4  5  1  0
  5  6  2  0
  6  7  1  0
  7  8  1  0
  7  9  1  0
  7 10  1  0
 10 11  2  0
 11 12  1  0
 11 13  1  0
 13 14  1  0
 13 15  2  0
 15 16  1  0
 15 17  1  0
 17 18  1  0
 17 19  2  0
 19 20  1  0
  5 21  1  0
 21 22  1  0
 21 23  1  0
 23 24  1  0
 24 25  2  0
 25 26  1  0
 25 27  1  0
 27 28  1  0
 27 29  2  0
 29 30  1  0
 29 31  1  0
 31 32  1  0
 31 33  2  0
 33 34  1  0
 23 35  2  0
 35 36  1  0
 35 37  1  0
 37 38  1  0
 38 39  1  0
 38  2  2  0
 37  4  1  0
 19 10  1  0
 33 24  1  0
M  END
>  <UniqueID>  (13) 
12

>  <SMILES>  (13) 
c1ccc(C/N=c2\[nH]c(-c3ccccc3)cn3ccnc23)cc1

>  <Energy>  (13) 
84.39621262873888

>  <Genealogy>  (13) 
c1ccc(C/N=c2\[nH]c(-c3ccccc3)cn3ccnc23)cc1 (cis-trans isomerization)
c1ccc(C/N=c2\[nH]c(-c3ccccc3)cn3ccnc23)cc1 (3D coordinates assigned)
c1ccc(C/N=c2\[nH]c(-c3ccccc3)cn3ccnc23)cc1 (optimized conformer: 84.39621262873888 kcal/mol)

>  <smiles>  (13) 
c1ccc(CN=c2[nH]c(-c3ccccc3)cn3ccnc23)cc1

>  <score_type>  (13) 
oracle

>  <origin>  (13) 
adgpu

>  <m_score__min__energy>  (13) 
-7.96

>  <m_primary>  (13) 
energy

$$$$
13:0
     RDKit          3D

 33 36  0  0  0  0  0  0  0  0999 V2000
   -0.6400   24.8650  -26.4690 C   0  0  0  0  0  0  0  0  0  0  0  0
   -1.9920   24.8830  -26.1180 C   0  0  0  0  0  0  0  0  0  0  0  0
   -2.9740   24.7340  -27.1020 C   0  0  0  0  0  0  0  0  0  0  0  0
   -2.6100   24.5640  -28.4480 C   0  0  0  0  0  0  0  0  0  0  0  0
   -3.6490   24.4070  -29.4840 C   0  0  0  0  0  0  0  0  0  0  0  0
   -3.8600   25.2750  -30.4930 N   0  0  0  0  0  0  0  0  0  0  0  0
   -4.8680   24.7880  -31.1990 N   0  0  0  0  0  0  0  0  0  0  0  0
   -5.2350   23.6400  -30.5970 C   0  0  0  0  0  0  0  0  0  0  0  0
   -6.3310   22.7660  -31.0580 C   0  0  0  0  0  0  0  0  0  0  0  0
   -7.6090   23.3010  -31.2840 C   0  0  0  0  0  0  0  0  0  0  0  0
   -8.6560   22.4840  -31.7210 C   0  0  0  0  0  0  0  0  0  0  0  0
   -8.4390   21.1170  -31.9390 C   0  0  0  0  0  0  0  0  0  0  0  0
   -9.4840   20.2880  -32.3770 C   0  0  0  0  0  0  0  0  0  0  0  0
   -9.2550   18.9250  -32.5900 C   0  0  0  0  0  0  0  0  0  0  0  0
   -7.9880   18.3820  -32.3680 C   0  0  0  0  0  0  0  0  0  0  0  0
   -6.9390   19.1960  -31.9310 C   0  0  0  0  0  0  0  0  0  0  0  0
   -7.1540   20.5660  -31.7130 C   0  0  0  0  0  0  0  0  0  0  0  0
   -6.1100   21.3950  -31.2750 C   0  0  0  0  0  0  0  0  0  0  0  0
   -4.4910   23.4020  -29.5430 O   0  0  0  0  0  0  0  0  0  0  0  0
   -1.2460   24.5460  -28.7930 C   0  0  0  0  0  0  0  0  0  0  0  0
   -0.2670   24.6970  -27.8050 C   0  0  0  0  0  0  0  0  0  0  0  0
    0.1311   24.9831  -25.6935 H   0  0  0  0  0  0  0  0  0  0  0  0
   -2.2845   25.0146  -25.0658 H   0  0  0  0  0  0  0  0  0  0  0  0
   -4.0373   24.7500  -26.8206 H   0  0  0  0  0  0  0  0  0  0  0  0
   -7.7884   24.3731  -31.1157 H   0  0  0  0  0  0  0  0  0  0  0  0
   -9.6529   22.9156  -31.8942 H   0  0  0  0  0  0  0  0  0  0  0  0
  -10.4840   20.7111  -32.5528 H   0  0  0  0  0  0  0  0  0  0  0  0
  -10.0759   18.2784  -32.9336 H   0  0  0  0  0  0  0  0  0  0  0  0
   -7.8146   17.3091  -32.5377 H   0  0  0  0  0  0  0  0  0  0  0  0
   -5.9431   18.7622  -31.7576 H   0  0  0  0  0  0  0  0  0  0  0  0
   -5.1111   20.9687  -31.1002 H   0  0  0  0  0  0  0  0  0  0  0  0
   -0.9483   24.4127  -29.8435 H   0  0  0  0  0  0  0  0  0  0  0  0
    0.7979   24.6834  -28.0804 H   0  0  0  0  0  0  0  0  0  0  0  0
  1  2  2  0
  2  3  1  0
  3  4  2  0
  4  5  1  0
  5  6  2  0
  6  7  1  0
  7  8  2  0
  8  9  1  0
  9 10  2  0
 10 11  1  0
 11 12  2  0
 12 13  1  0
 13 14  2  0
 14 15  1  0
 15 16  2  0
 16 17  1  0
 17 18  2  0
  8 19  1  0
  4 20  1  0
 20 21  2  0
 21  1  1  0
 19  5  1  0
 18  9  1  0
 17 12  1  0
  1 22  1  0
  2 23  1  0
  3 24  1  0
 10 25  1  0
 11 26  1  0
 13 27  1  0
 14 28  1  0
 15 29  1  0
 16 30  1  0
 18 31  1  0
 20 32  1  0
 21 33  1  0
M  END
>  <UniqueID>  (14) 
13

>  <SMILES>  (14) 
c1ccc(-c2nnc(-c3ccc4ccccc4c3)o2)cc1

>  <Energy>  (14) 
75.79605306821807

>  <Genealogy>  (14) 
c1ccc(-c2nnc(-c3ccc4ccccc4c3)o2)cc1 (3D coordinates assigned)
c1ccc(-c2nnc(-c3ccc4ccccc4c3)o2)cc1 (optimized conformer: 75.79605306821807 kcal/mol)

>  <smiles>  (14) 
c1ccc(-c2nnc(-c3ccc4ccccc4c3)o2)cc1

>  <score_type>  (14) 
oracle

>  <origin>  (14) 
adgpu

>  <m_score__min__energy>  (14) 
-8.9399999999999995

>  <m_primary>  (14) 
energy

$$$$
14:0
     RDKit          3D

 44 46  0  0  0  0  0  0  0  0999 V2000
   -4.7120   16.3120  -33.1940 C   0  0  0  0  0  0  0  0  0  0  0  0
   -6.2960   16.9610  -33.6640 S   0  0  0  0  0  0  0  0  0  0  0  0
   -6.1050   18.0510  -34.6890 O   0  0  0  0  0  0  0  0  0  0  0  0
   -7.1160   15.8450  -34.2460 O   0  0  0  0  0  0  0  0  0  0  0  0
   -7.0900   17.6080  -32.2640 N   0  0  0  0  0  0  0  0  0  0  0  0
   -7.6310   18.9330  -32.1640 C   0  0  0  0  0  0  0  0  0  0  0  0
   -8.9230   19.1780  -31.6580 C   0  0  0  0  0  0  0  0  0  0  0  0
   -9.3950   20.4880  -31.5440 C   0  0  0  0  0  0  0  0  0  0  0  0
   -8.5860   21.5620  -31.9210 C   0  0  0  0  0  0  0  0  0  0  0  0
   -7.2950   21.3350  -32.4130 C   0  0  0  0  0  0  0  0  0  0  0  0
   -6.5020   22.4390  -32.7680 O   0  0  0  0  0  0  0  0  0  0  0  0
   -5.5720   23.0850  -31.9380 C   0  0  0  0  0  0  0  0  0  0  0  0
   -5.8720   24.2810  -31.2570 C   0  0  0  0  0  0  0  0  0  0  0  0
   -4.9200   24.8770  -30.4270 C   0  0  0  0  0  0  0  0  0  0  0  0
   -3.6380   24.3100  -30.2870 C   0  0  0  0  0  0  0  0  0  0  0  0
   -2.6530   24.8700  -29.3960 N   0  0  0  0  0  0  0  0  0  0  0  0
   -2.4380   24.4130  -28.0520 C   0  0  0  0  0  0  0  0  0  0  0  0
   -3.4160   24.0370  -27.3500 O   0  0  0  0  0  0  0  0  0  0  0  0
   -1.0870   24.4600  -27.4530 C   0  0  0  0  0  0  0  0  0  0  0  0
   -0.3670   25.6710  -27.4560 C   0  0  0  0  0  0  0  0  0  0  0  0
   -0.8950   26.7920  -28.0110 F   0  0  0  0  0  0  0  0  0  0  0  0
    0.9080   25.7340  -26.8890 C   0  0  0  0  0  0  0  0  0  0  0  0
    1.4740   24.6010  -26.3080 C   0  0  0  0  0  0  0  0  0  0  0  0
    0.7710   23.3950  -26.2920 C   0  0  0  0  0  0  0  0  0  0  0  0
   -0.5050   23.3120  -26.8590 C   0  0  0  0  0  0  0  0  0  0  0  0
   -1.3680   21.7810  -26.7370 Cl  0  0  0  0  0  0  0  0  0  0  0  0
   -3.3320   23.1340  -30.9940 C   0  0  0  0  0  0  0  0  0  0  0  0
   -4.2870   22.5350  -31.8210 C   0  0  0  0  0  0  0  0  0  0  0  0
   -6.8360   20.0130  -32.5690 C   0  0  0  0  0  0  0  0  0  0  0  0
   -4.6389   16.2821  -32.0968 H   0  0  0  0  0  0  0  0  0  0  0  0
   -4.5983   15.2948  -33.5970 H   0  0  0  0  0  0  0  0  0  0  0  0
   -3.9173   16.9570  -33.5970 H   0  0  0  0  0  0  0  0  0  0  0  0
   -9.5614   18.3360  -31.3521 H   0  0  0  0  0  0  0  0  0  0  0  0
  -10.4073   20.6741  -31.1560 H   0  0  0  0  0  0  0  0  0  0  0  0
   -8.9647   22.5908  -31.8310 H   0  0  0  0  0  0  0  0  0  0  0  0
   -6.8606   24.7476  -31.3795 H   0  0  0  0  0  0  0  0  0  0  0  0
   -5.1731   25.7962  -29.8784 H   0  0  0  0  0  0  0  0  0  0  0  0
   -2.0640   25.6680  -29.7320 H   0  0  0  0  0  0  0  0  0  0  0  0
    1.4671   26.6812  -26.9012 H   0  0  0  0  0  0  0  0  0  0  0  0
    2.4774   24.6570  -25.8608 H   0  0  0  0  0  0  0  0  0  0  0  0
    1.2232   22.5047  -25.8307 H   0  0  0  0  0  0  0  0  0  0  0  0
   -2.3340   22.6819  -30.8958 H   0  0  0  0  0  0  0  0  0  0  0  0
   -4.0288   21.6259  -32.3839 H   0  0  0  0  0  0  0  0  0  0  0  0
   -5.8464   19.8270  -33.0119 H   0  0  0  0  0  0  0  0  0  0  0  0
  1  2  1  0
  2  3  2  0
  2  4  2  0
  2  5  1  0
  5  6  1  0
  6  7  2  0
  7  8  1  0
  8  9  2  0
  9 10  1  0
 10 11  1  0
 11 12  1  0
 12 13  2  0
 13 14  1  0
 14 15  2  0
 15 16  1  0
 16 17  1  0
 17 18  2  0
 17 19  1  0
 19 20  2  0
 20 21  1  0
 20 22  1  0
 22 23  2  0
 23 24  1  0
 24 25  2  0
 25 26  1  0
 15 27  1  0
 27 28  2  0
 10 29  2  0
 29  6  1  0
 28 12  1  0
 25 19  1  0
  1 30  1  0
  1 31  1  0
  1 32  1  0
  7 33  1  0
  8 34  1  0
  9 35  1  0
 13 36  1  0
 14 37  1  0
 16 38  1  0
 22 39  1  0
 23 40  1  0
 24 41  1  0
 27 42  1  0
 28 43  1  0
 29 44  1  0
M  CHG  1   5  -1
M  END
>  <UniqueID>  (15) 
14

>  <SMILES>  (15) 
CS(=O)(=O)[N-]c1cccc(Oc2ccc(NC(=O)c3c(F)cccc3Cl)cc2)c1

>  <Energy>  (15) 
62.7809013487055

>  <Genealogy>  (15) 
CS(=O)(=O)[N-]c1cccc(Oc2ccc(NC(=O)c3c(F)cccc3Cl)cc2)c1 (protonated)
CS(=O)(=O)[N-]c1cccc(Oc2ccc(NC(=O)c3c(F)cccc3Cl)cc2)c1 (3D coordinates assigned)
CS(=O)(=O)[N-]c1cccc(Oc2ccc(NC(=O)c3c(F)cccc3Cl)cc2)c1 (optimized conformer: 62.7809013487055 kcal/mol)

>  <smiles>  (15) 
CS(=O)(=O)Nc1cccc(Oc2ccc(NC(=O)c3c(F)cccc3Cl)cc2)c1

>  <score_type>  (15) 
oracle

>  <origin>  (15) 
adgpu

>  <m_score__min__energy>  (15) 
-10.41

>  <m_primary>  (15) 
energy

$$$$
15:0
     RDKit          3D

 28 29  0  0  0  0  0  0  0  0999 V2000
   -0.8610   22.4320  -26.1790 C   0  0  0  0  0  0  0  0  0  0  0  0
   -1.5680   23.1750  -27.2730 C   0  0  0  0  0  0  0  0  0  0  0  0
   -2.8340   22.7580  -27.7080 C   0  0  0  0  0  0  0  0  0  0  0  0
   -3.4770   23.4280  -28.7530 C   0  0  0  0  0  0  0  0  0  0  0  0
   -2.8650   24.5220  -29.3770 C   0  0  0  0  0  0  0  0  0  0  0  0
   -3.5470   25.1760  -30.4560 N   0  0  0  0  0  0  0  0  0  0  0  0
   -4.9250   25.0040  -30.8130 C   0  0  0  0  0  0  0  0  0  0  0  0
   -5.6970   25.9960  -30.7260 O   0  0  0  0  0  0  0  0  0  0  0  0
   -5.4510   23.7180  -31.3290 C   0  0  0  0  0  0  0  0  0  0  0  0
   -4.5960   22.7840  -31.9420 C   0  0  0  0  0  0  0  0  0  0  0  0
   -5.1020   21.5750  -32.4280 C   0  0  0  0  0  0  0  0  0  0  0  0
   -6.4650   21.2910  -32.3180 C   0  0  0  0  0  0  0  0  0  0  0  0
   -7.3270   22.2190  -31.7260 C   0  0  0  0  0  0  0  0  0  0  0  0
   -9.1920   21.8310  -31.5810 Br  0  0  0  0  0  0  0  0  0  0  0  0
   -6.8240   23.4290  -31.2370 C   0  0  0  0  0  0  0  0  0  0  0  0
   -1.5770   24.9140  -28.9700 C   0  0  0  0  0  0  0  0  0  0  0  0
   -0.9340   24.2440  -27.9240 C   0  0  0  0  0  0  0  0  0  0  0  0
   -1.2097   22.7984  -25.2022 H   0  0  0  0  0  0  0  0  0  0  0  0
   -1.0780   21.3571  -26.2662 H   0  0  0  0  0  0  0  0  0  0  0  0
    0.2233   22.5954  -26.2662 H   0  0  0  0  0  0  0  0  0  0  0  0
   -3.3236   21.8996  -27.2248 H   0  0  0  0  0  0  0  0  0  0  0  0
   -4.4702   23.0936  -29.0872 H   0  0  0  0  0  0  0  0  0  0  0  0
   -3.5231   23.0064  -32.0394 H   0  0  0  0  0  0  0  0  0  0  0  0
   -4.4255   20.8460  -32.8979 H   0  0  0  0  0  0  0  0  0  0  0  0
   -6.8604   20.3371  -32.6972 H   0  0  0  0  0  0  0  0  0  0  0  0
   -7.5067   24.1590  -30.7776 H   0  0  0  0  0  0  0  0  0  0  0  0
   -1.0734   25.7507  -29.4763 H   0  0  0  0  0  0  0  0  0  0  0  0
    0.0730   24.5565  -27.6105 H   0  0  0  0  0  0  0  0  0  0  0  0
  1  2  1  0
  2  3  2  0
  3  4  1  0
  4  5  2  0
  5  6  1  0
  6  7  1  0
  7  8  2  0
  7  9  1  0
  9 10  2  0
 10 11  1  0
 11 12  2  0
 12 13  1  0
 13 14  1  0
 13 15  2  0
  5 16  1  0
 16 17  2  0
 17  2  1  0
 15  9  1  0
  1 18  1  0
  1 19  1  0
  1 20  1  0
  3 21  1  0
  4 22  1  0
 10 23  1  0
 11 24  1  0
 12 25  1  0
 15 26  1  0
 16 27  1  0
 17 28  1  0
M  CHG  1   6  -1
M  END
>  <UniqueID>  (16) 
15

>  <SMILES>  (16) 
Cc1ccc([N-]C(=O)c2cccc(Br)c2)cc1

>  <Energy>  (16) 
34.51694317384419

>  <Genealogy>  (16) 
Cc1ccc([N-]C(=O)c2cccc(Br)c2)cc1 (protonated)
Cc1ccc([N-]C(=O)c2cccc(Br)c2)cc1 (3D coordinates assigned)
Cc1ccc([N-]C(=O)c2cccc(Br)c2)cc1 (optimized conformer: 34.51694317384419 kcal/mol)

>  <smiles>  (16) 
Cc1ccc(NC(=O)c2cccc(Br)c2)cc1

>  <score_type>  (16) 
oracle

>  <origin>  (16) 
adgpu

>  <m_score__min__energy>  (16) 
-8.9700000000000006

>  <m_primary>  (16) 
energy

$$$$
16:0
     RDKit          3D

 44 46  0  0  0  0  0  0  0  0999 V2000
   -5.9038   25.5228  -31.3956 H   0  0  0  0  0  0  0  0  0  0  0  0
   -5.1210   24.8700  -30.9820 C   0  0  0  0  0  0  0  0  0  0  0  0
   -3.9550   25.2850  -30.4570 N   0  0  0  0  0  0  0  0  0  0  0  0
   -3.3250   24.1480  -30.0890 C   0  0  0  0  0  0  0  0  0  0  0  0
   -1.9840   24.1440  -29.4400 C   0  0  0  0  0  0  0  0  0  0  0  0
   -1.0560   23.0760  -29.5500 C   0  0  0  0  0  0  0  0  0  0  0  0
   -1.3230   21.8370  -30.3550 C   0  0  0  0  0  0  0  0  0  0  0  0
   -1.5053   20.9909  -29.6761 H   0  0  0  0  0  0  0  0  0  0  0  0
   -2.2076   21.9954  -30.9893 H   0  0  0  0  0  0  0  0  0  0  0  0
   -0.4516   21.6170  -30.9893 H   0  0  0  0  0  0  0  0  0  0  0  0
    0.1420   23.1650  -28.9100 N   0  0  0  0  0  0  0  0  0  0  0  0
    0.4830   24.2480  -28.1710 C   0  0  0  0  0  0  0  0  0  0  0  0
    1.6400   24.2770  -27.5790 N   0  0  0  0  0  0  0  0  0  0  0  0
    2.1370   25.3870  -26.7640 C   0  0  0  0  0  0  0  0  0  0  0  0
    3.2274   25.2936  -26.6529 H   0  0  0  0  0  0  0  0  0  0  0  0
    1.8843   26.3338  -27.2637 H   0  0  0  0  0  0  0  0  0  0  0  0
    1.4880   25.3730  -25.3790 C   0  0  0  0  0  0  0  0  0  0  0  0
    1.9929   24.6264  -24.7484 H   0  0  0  0  0  0  0  0  0  0  0  0
    1.5833   26.3714  -24.9273 H   0  0  0  0  0  0  0  0  0  0  0  0
    0.0730   25.0330  -25.4900 N   0  0  0  0  0  0  0  0  0  0  0  0
   -0.0170   24.2220  -26.1450 H   0  0  0  0  0  0  0  0  0  0  0  0
   -0.4120   25.8390  -25.9470 H   0  0  0  0  0  0  0  0  0  0  0  0
   -0.3890   25.2840  -28.0570 N   0  0  0  0  0  0  0  0  0  0  0  0
   -1.5980   25.2540  -28.6720 C   0  0  0  0  0  0  0  0  0  0  0  0
   -2.2830   26.1084  -28.5678 H   0  0  0  0  0  0  0  0  0  0  0  0
   -4.0440   23.0380  -30.3530 N   0  0  0  0  0  0  0  0  0  0  0  0
   -5.1770   23.4920  -30.9180 C   0  0  0  0  0  0  0  0  0  0  0  0
   -6.2830   22.6140  -31.3850 C   0  0  0  0  0  0  0  0  0  0  0  0
   -6.0130   21.3270  -31.8900 C   0  0  0  0  0  0  0  0  0  0  0  0
   -4.9738   20.9690  -31.9321 H   0  0  0  0  0  0  0  0  0  0  0  0
   -7.0510   20.4930  -32.3410 C   0  0  0  0  0  0  0  0  0  0  0  0
   -6.7320   19.1090  -32.8480 C   0  0  0  0  0  0  0  0  0  0  0  0
   -5.6408   18.9978  -32.9308 H   0  0  0  0  0  0  0  0  0  0  0  0
   -7.2059   18.9756  -33.8317 H   0  0  0  0  0  0  0  0  0  0  0  0
   -7.2720   18.0470  -31.8970 C   0  0  0  0  0  0  0  0  0  0  0  0
   -7.1086   18.3683  -30.8577 H   0  0  0  0  0  0  0  0  0  0  0  0
   -8.3491   17.9103  -32.0735 H   0  0  0  0  0  0  0  0  0  0  0  0
   -6.7479   17.0961  -32.0735 H   0  0  0  0  0  0  0  0  0  0  0  0
   -8.3790   20.9440  -32.2630 C   0  0  0  0  0  0  0  0  0  0  0  0
   -9.4310   20.1320  -32.6740 O   0  0  0  0  0  0  0  0  0  0  0  0
   -8.6560   22.2200  -31.7670 C   0  0  0  0  0  0  0  0  0  0  0  0
   -9.6969   22.5722  -31.7179 H   0  0  0  0  0  0  0  0  0  0  0  0
   -7.6220   23.0520  -31.3330 C   0  0  0  0  0  0  0  0  0  0  0  0
   -7.9400   24.2800  -30.8480 F   0  0  0  0  0  0  0  0  0  0  0  0
  1  2  1  0
  2  3  1  0
  3  4  1  0
  4  5  1  0
  5  6  1  0
  6  7  1  0
  7  8  1  0
  7  9  1  0
  7 10  1  0
  6 11  2  0
 11 12  1  0
 12 13  2  0
 13 14  1  0
 14 15  1  0
 14 16  1  0
 14 17  1  0
 17 18  1  0
 17 19  1  0
 17 20  1  0
 20 21  1  0
 20 22  1  0
 12 23  1  0
 23 24  1  0
 24 25  1  0
  4 26  2  0
 26 27  1  0
 27 28  1  0
 28 29  2  0
 29 30  1  0
 29 31  1  0
 31 32  1  0
 32 33  1  0
 32 34  1  0
 32 35  1  0
 35 36  1  0
 35 37  1  0
 35 38  1  0
 31 39  2  0
 39 40  1  0
 39 41  1  0
 41 42  1  0
 41 43  2  0
 43 44  1  0
 27  2  2  0
 43 28  1  0
 24  5  2  0
M  CHG  3   3  -1  23  -1  40  -1
M  END
>  <UniqueID>  (17) 
16

>  <SMILES>  (17) 
CCc1cc(-c2c[n-]c(-c3c[n-]/c(=N\CCN)nc3C)n2)c(F)cc1[O-]

>  <Energy>  (17) 
73.58314069967508

>  <Genealogy>  (17) 
CCc1cc(-c2c[n-]c(-c3c[n-]c(=NCCN)nc3C)n2)c(F)cc1[O-] (protonated)
CCc1cc(-c2c[n-]c(-c3c[n-]/c(=N\CCN)nc3C)n2)c(F)cc1[O-] (cis-trans isomerization)
CCc1cc(-c2c[n-]c(-c3c[n-]/c(=N\CCN)nc3C)n2)c(F)cc1[O-] (3D coordinates assigned)
CCc1cc(-c2c[n-]c(-c3c[n-]/c(=N\CCN)nc3C)n2)c(F)cc1[O-] (optimized conformer: 73.58314069967508 kcal/mol)

>  <smiles>  (17) 
CCc1cc(-c2c[nH]c(-c3c[nH]c(=NCCN)nc3C)n2)c(F)cc1O

>  <score_type>  (17) 
oracle

>  <origin>  (17) 
adgpu

>  <m_score__min__energy>  (17) 
-9.2599999999999998

>  <m_primary>  (17) 
energy

$$$$
17:0
     RDKit          3D

 32 34  0  0  0  0  0  0  0  0999 V2000
   -7.0425   18.2493  -34.8202 H   0  0  0  0  0  0  0  0  0  0  0  0
   -6.4770   17.5180  -34.2240 C   0  0  0  0  0  0  0  0  0  0  0  0
   -6.5360   16.1580  -34.5490 C   0  0  0  0  0  0  0  0  0  0  0  0
   -7.1232   15.8273  -35.4184 H   0  0  0  0  0  0  0  0  0  0  0  0
   -5.8490   15.2150  -33.7700 C   0  0  0  0  0  0  0  0  0  0  0  0
   -5.8800   13.7620  -34.1410 C   0  0  0  0  0  0  0  0  0  0  0  0
   -5.8930   13.1504  -33.2268 H   0  0  0  0  0  0  0  0  0  0  0  0
   -6.7828   13.5542  -34.7341 H   0  0  0  0  0  0  0  0  0  0  0  0
   -4.9869   13.5159  -34.7341 H   0  0  0  0  0  0  0  0  0  0  0  0
   -5.0850   15.6500  -32.6760 C   0  0  0  0  0  0  0  0  0  0  0  0
   -4.5293   14.9185  -32.0709 H   0  0  0  0  0  0  0  0  0  0  0  0
   -5.0270   17.0080  -32.3520 C   0  0  0  0  0  0  0  0  0  0  0  0
   -4.4514   17.3371  -31.4743 H   0  0  0  0  0  0  0  0  0  0  0  0
   -5.6980   17.9520  -33.1390 C   0  0  0  0  0  0  0  0  0  0  0  0
   -5.6680   19.3350  -32.7510 N   0  0  0  0  0  0  0  0  0  0  0  0
   -6.6730   20.0880  -32.3860 C   0  0  0  0  0  0  0  0  0  0  0  0
   -8.0080   19.6390  -32.4650 C   0  0  0  0  0  0  0  0  0  0  0  0
   -8.2261   18.6260  -32.8342 H   0  0  0  0  0  0  0  0  0  0  0  0
   -9.0500   20.4770  -32.0760 C   0  0  0  0  0  0  0  0  0  0  0  0
  -10.0879   20.1168  -32.1304 H   0  0  0  0  0  0  0  0  0  0  0  0
   -8.7970   21.7350  -31.6300 N   0  0  0  0  0  0  0  0  0  0  0  0
   -9.6070   22.3320  -31.3480 H   0  0  0  0  0  0  0  0  0  0  0  0
   -7.5250   22.2220  -31.5570 C   0  0  0  0  0  0  0  0  0  0  0  0
   -7.2990   23.5310  -31.1030 C   0  0  0  0  0  0  0  0  0  0  0  0
   -8.1496   24.1615  -30.8049 H   0  0  0  0  0  0  0  0  0  0  0  0
   -5.9980   24.0370  -31.0280 C   0  0  0  0  0  0  0  0  0  0  0  0
   -5.7270   25.6750  -30.4600 Cl  0  0  0  0  0  0  0  0  0  0  0  0
   -4.9160   23.2410  -31.4040 C   0  0  0  0  0  0  0  0  0  0  0  0
   -3.8940   23.6434  -31.3441 H   0  0  0  0  0  0  0  0  0  0  0  0
   -5.1230   21.9360  -31.8560 C   0  0  0  0  0  0  0  0  0  0  0  0
   -4.2627   21.3157  -32.1476 H   0  0  0  0  0  0  0  0  0  0  0  0
   -6.4290   21.4080  -31.9410 C   0  0  0  0  0  0  0  0  0  0  0  0
  1  2  1  0
  2  3  2  0
  3  4  1  0
  3  5  1  0
  5  6  1  0
  6  7  1  0
  6  8  1  0
  6  9  1  0
  5 10  2  0
 10 11  1  0
 10 12  1  0
 12 13  1  0
 12 14  2  0
 14 15  1  0
 15 16  2  0
 16 17  1  0
 17 18  1  0
 17 19  2  0
 19 20  1  0
 19 21  1  0
 21 22  1  0
 21 23  1  0
 23 24  2  0
 24 25  1  0
 24 26  1  0
 26 27  1  0
 26 28  2  0
 28 29  1  0
 28 30  1  0
 30 31  1  0
 30 32  2  0
 14  2  1  0
 32 16  1  0
 32 23  1  0
M  END
>  <UniqueID>  (18) 
17

>  <SMILES>  (18) 
Cc1ccc(/N=c2\cc[nH]c3cc(Cl)ccc23)cc1

>  <Energy>  (18) 
48.328362182964966

>  <Genealogy>  (18) 
Cc1ccc(/N=c2\cc[nH]c3cc(Cl)ccc23)cc1 (cis-trans isomerization)
Cc1ccc(/N=c2\cc[nH]c3cc(Cl)ccc23)cc1 (3D coordinates assigned)
Cc1ccc(/N=c2\cc[nH]c3cc(Cl)ccc23)cc1 (optimized conformer: 48.328362182964966 kcal/mol)

>  <smiles>  (18) 
Cc1ccc(N=c2cc[nH]c3cc(Cl)ccc23)cc1

>  <score_type>  (18) 
oracle

>  <origin>  (18) 
adgpu

>  <m_score__min__energy>  (18) 
-7.2599999999999998

>  <m_primary>  (18) 
energy

$$$$
18:0
     RDKit          3D

 40 43  0  0  0  0  0  0  0  0999 V2000
   -9.1148   22.8551  -32.0198 H   0  0  0  0  0  0  0  0  0  0  0  0
   -8.1090   22.4190  -31.9300 C   0  0  0  0  0  0  0  0  0  0  0  0
   -7.1100   23.2420  -31.5810 C   0  0  0  0  0  0  0  0  0  0  0  0
   -7.3812   24.2503  -31.2348 H   0  0  0  0  0  0  0  0  0  0  0  0
   -5.6750   22.9010  -31.6250 C   0  0  0  0  0  0  0  0  0  0  0  0
   -4.7200   23.2680  -30.7040 C   0  0  0  0  0  0  0  0  0  0  0  0
   -4.7900   23.9490  -29.4920 C   0  0  0  0  0  0  0  0  0  0  0  0
   -5.7511   24.3053  -29.0929 H   0  0  0  0  0  0  0  0  0  0  0  0
   -3.5860   24.1650  -28.7960 C   0  0  0  0  0  0  0  0  0  0  0  0
   -3.6017   24.7083  -27.8397 H   0  0  0  0  0  0  0  0  0  0  0  0
   -2.3520   23.6910  -29.3120 C   0  0  0  0  0  0  0  0  0  0  0  0
   -1.1400   23.9560  -28.5870 N   0  0  0  0  0  0  0  0  0  0  0  0
   -0.2420   23.6130  -28.9990 H   0  0  0  0  0  0  0  0  0  0  0  0
   -1.0790   24.6570  -27.3340 C   0  0  0  0  0  0  0  0  0  0  0  0
   -0.8480   23.9380  -26.1510 C   0  0  0  0  0  0  0  0  0  0  0  0
   -0.7363   22.8443  -26.1890 H   0  0  0  0  0  0  0  0  0  0  0  0
   -0.7590   24.6030  -24.9250 C   0  0  0  0  0  0  0  0  0  0  0  0
   -0.5910   24.0302  -24.0011 H   0  0  0  0  0  0  0  0  0  0  0  0
   -0.8830   25.9950  -24.8700 C   0  0  0  0  0  0  0  0  0  0  0  0
   -0.7680   26.8290  -23.3320 Cl  0  0  0  0  0  0  0  0  0  0  0  0
   -1.0890   26.7220  -26.0470 C   0  0  0  0  0  0  0  0  0  0  0  0
   -1.1804   27.8174  -26.0063 H   0  0  0  0  0  0  0  0  0  0  0  0
   -1.1790   26.0600  -27.2750 C   0  0  0  0  0  0  0  0  0  0  0  0
   -1.3286   26.6378  -28.1990 H   0  0  0  0  0  0  0  0  0  0  0  0
   -2.3260   23.0240  -30.5620 C   0  0  0  0  0  0  0  0  0  0  0  0
   -1.3785   22.6740  -30.9977 H   0  0  0  0  0  0  0  0  0  0  0  0
   -3.5350   22.8250  -31.2220 C   0  0  0  0  0  0  0  0  0  0  0  0
   -3.7330   22.2360  -32.4150 N   0  0  0  0  0  0  0  0  0  0  0  0
   -5.0390   22.2920  -32.6550 N   0  0  0  0  0  0  0  0  0  0  0  0
   -5.4790   21.9490  -33.5380 H   0  0  0  0  0  0  0  0  0  0  0  0
   -7.9690   20.9730  -32.2040 C   0  0  0  0  0  0  0  0  0  0  0  0
   -7.0440   20.5180  -33.0970 N   0  0  0  0  0  0  0  0  0  0  0  0
   -6.8650   19.1920  -33.3370 C   0  0  0  0  0  0  0  0  0  0  0  0
   -6.1180   18.8626  -34.0742 H   0  0  0  0  0  0  0  0  0  0  0  0
   -7.6290   18.2480  -32.6480 C   0  0  0  0  0  0  0  0  0  0  0  0
   -7.4922   17.1737  -32.8408 H   0  0  0  0  0  0  0  0  0  0  0  0
   -8.5680   18.6830  -31.7120 C   0  0  0  0  0  0  0  0  0  0  0  0
   -9.1742   17.9507  -31.1585 H   0  0  0  0  0  0  0  0  0  0  0  0
   -8.7370   20.0500  -31.4790 C   0  0  0  0  0  0  0  0  0  0  0  0
   -9.4662   20.3996  -30.7333 H   0  0  0  0  0  0  0  0  0  0  0  0
  1  2  1  0
  2  3  2  0
  3  4  1  0
  3  5  1  0
  5  6  2  0
  6  7  1  0
  7  8  1  0
  7  9  2  0
  9 10  1  0
  9 11  1  0
 11 12  1  0
 12 13  1  0
 12 14  1  0
 14 15  2  0
 15 16  1  0
 15 17  1  0
 17 18  1  0
 17 19  2  0
 19 20  1  0
 19 21  1  0
 21 22  1  0
 21 23  2  0
 23 24  1  0
 11 25  2  0
 25 26  1  0
 25 27  1  0
 27 28  2  0
 28 29  1  0
 29 30  1  0
  2 31  1  0
 31 32  2  0
 32 33  1  0
 33 34  1  0
 33 35  2  0
 35 36  1  0
 35 37  1  0
 37 38  1  0
 37 39  2  0
 39 40  1  0
 29  5  1  0
 39 31  1  0
 27  6  1  0
 23 14  1  0
M  END
>  <UniqueID>  (19) 
18

>  <SMILES>  (19) 
Clc1ccc(Nc2ccc3c(/C=C\c4ccccn4)[nH]nc3c2)cc1

>  <Energy>  (19) 
95.53084213708554

>  <Genealogy>  (19) 
Clc1ccc(Nc2ccc3c(/C=C\c4ccccn4)[nH]nc3c2)cc1 (cis-trans isomerization)
Clc1ccc(Nc2ccc3c(/C=C\c4ccccn4)[nH]nc3c2)cc1 (3D coordinates assigned)
Clc1ccc(Nc2ccc3c(/C=C\c4ccccn4)[nH]nc3c2)cc1 (optimized conformer: 95.53084213708554 kcal/mol)

>  <smiles>  (19) 
Clc1ccc(Nc2ccc3c(C=Cc4ccccn4)[nH]nc3c2)cc1

>  <score_type>  (19) 
oracle

>  <origin>  (19) 
adgpu

>  <m_score__min__energy>  (19) 
-8.8200000000000003

>  <m_primary>  (19) 
energy

$$$$
19:0
     RDKit          3D

 35 36  0  0  0  0  0  0  0  0999 V2000
   -3.7100   24.9460  -30.4790 O   0  0  0  0  0  0  0  0  0  0  0  0
   -4.2060   24.2730  -29.5370 C   0  0  0  0  0  0  0  0  0  0  0  0
   -3.2990   23.5770  -28.5690 C   0  0  0  0  0  0  0  0  0  0  0  0
   -2.5890   24.5820  -27.7060 C   0  0  0  0  0  0  0  0  0  0  0  0
   -1.4210   25.2100  -28.1690 C   0  0  0  0  0  0  0  0  0  0  0  0
   -0.7480   26.1300  -27.3580 C   0  0  0  0  0  0  0  0  0  0  0  0
   -1.2310   26.4240  -26.0790 C   0  0  0  0  0  0  0  0  0  0  0  0
   -0.3030   27.6700  -24.9700 Br  0  0  0  0  0  0  0  0  0  0  0  0
   -2.3840   25.7900  -25.6070 C   0  0  0  0  0  0  0  0  0  0  0  0
   -3.0600   24.8700  -26.4140 C   0  0  0  0  0  0  0  0  0  0  0  0
   -5.6290   24.1480  -29.4030 N   0  0  0  0  0  0  0  0  0  0  0  0
   -6.5710   24.7550  -30.3410 C   0  0  0  0  0  0  0  0  0  0  0  0
   -6.4180   24.1710  -31.7530 C   0  0  0  0  0  0  0  0  0  0  0  0
   -7.0940   22.8280  -31.8850 C   0  0  0  0  0  0  0  0  0  0  0  0
   -8.4620   22.6970  -31.5890 C   0  0  0  0  0  0  0  0  0  0  0  0
   -9.0970   21.4590  -31.7150 C   0  0  0  0  0  0  0  0  0  0  0  0
   -8.3790   20.3460  -32.1580 C   0  0  0  0  0  0  0  0  0  0  0  0
   -8.9990   19.1470  -32.2880 F   0  0  0  0  0  0  0  0  0  0  0  0
   -7.0200   20.4670  -32.4640 C   0  0  0  0  0  0  0  0  0  0  0  0
   -6.3760   21.7010  -32.3270 C   0  0  0  0  0  0  0  0  0  0  0  0
   -5.0550   21.7970  -32.6220 F   0  0  0  0  0  0  0  0  0  0  0  0
   -3.8942   22.9069  -27.9313 H   0  0  0  0  0  0  0  0  0  0  0  0
   -2.5526   22.9967  -29.1312 H   0  0  0  0  0  0  0  0  0  0  0  0
   -1.0343   24.9777  -29.1723 H   0  0  0  0  0  0  0  0  0  0  0  0
    0.1632   26.6233  -27.7272 H   0  0  0  0  0  0  0  0  0  0  0  0
   -2.7603   26.0155  -24.5983 H   0  0  0  0  0  0  0  0  0  0  0  0
   -3.9639   24.3698  -26.0361 H   0  0  0  0  0  0  0  0  0  0  0  0
   -6.0160   23.6340  -28.5800 H   0  0  0  0  0  0  0  0  0  0  0  0
   -7.5961   24.5702  -29.9874 H   0  0  0  0  0  0  0  0  0  0  0  0
   -6.3609   25.8336  -30.3901 H   0  0  0  0  0  0  0  0  0  0  0  0
   -6.8674   24.8675  -32.4761 H   0  0  0  0  0  0  0  0  0  0  0  0
   -5.3446   24.0321  -31.9491 H   0  0  0  0  0  0  0  0  0  0  0  0
   -9.0359   23.5745  -31.2562 H   0  0  0  0  0  0  0  0  0  0  0  0
  -10.1637   21.3607  -31.4650 H   0  0  0  0  0  0  0  0  0  0  0  0
   -6.4560   19.5896  -32.8133 H   0  0  0  0  0  0  0  0  0  0  0  0
  1  2  2  0
  2  3  1  0
  3  4  1  0
  4  5  2  0
  5  6  1  0
  6  7  2  0
  7  8  1  0
  7  9  1  0
  9 10  2  0
  2 11  1  0
 11 12  1  0
 12 13  1  0
 13 14  1  0
 14 15  2  0
 15 16  1  0
 16 17  2  0
 17 18  1  0
 17 19  1  0
 19 20  2  0
 20 21  1  0
 10  4  1  0
 20 14  1  0
  3 22  1  0
  3 23  1  0
  5 24  1  0
  6 25  1  0
  9 26  1  0
 10 27  1  0
 11 28  1  0
 12 29  1  0
 12 30  1  0
 13 31  1  0
 13 32  1  0
 15 33  1  0
 16 34  1  0
 19 35  1  0
M  END
>  <UniqueID>  (20) 
19

>  <SMILES>  (20) 
O=C(Cc1ccc(Br)cc1)NCCc1ccc(F)cc1F

>  <Energy>  (20) 
25.038199568038205

>  <Genealogy>  (20) 
O=C(Cc1ccc(Br)cc1)NCCc1ccc(F)cc1F (3D coordinates assigned)
O=C(Cc1ccc(Br)cc1)NCCc1ccc(F)cc1F (optimized conformer: 25.038199568038205 kcal/mol)

>  <smiles>  (20) 
O=C(Cc1ccc(Br)cc1)NCCc1ccc(F)cc1F

>  <score_type>  (20) 
oracle

>  <origin>  (20) 
adgpu

>  <m_score__min__energy>  (20) 
-8.5999999999999996

>  <m_primary>  (20) 
energy

$$$$
20:0
     RDKit          3D

 43 46  0  0  0  0  0  0  0  0999 V2000
   -2.3900   23.0892  -28.9909 H   0  0  0  0  0  0  0  0  0  0  0  0
   -2.2570   24.1810  -29.0090 C   0  0  0  0  0  0  0  0  0  0  0  0
   -3.1120   24.9200  -29.6500 N   0  0  0  0  0  0  0  0  0  0  0  0
   -4.2430   24.3950  -30.3520 C   0  0  0  0  0  0  0  0  0  0  0  0
   -4.2450   23.2210  -31.0190 N   0  0  0  0  0  0  0  0  0  0  0  0
   -5.4520   22.9620  -31.5960 C   0  0  0  0  0  0  0  0  0  0  0  0
   -5.6800   21.7240  -32.3880 C   0  0  0  0  0  0  0  0  0  0  0  0
   -4.5900   21.0710  -32.9930 C   0  0  0  0  0  0  0  0  0  0  0  0
   -3.5766   21.4832  -32.8784 H   0  0  0  0  0  0  0  0  0  0  0  0
   -4.7820   19.9040  -33.7380 C   0  0  0  0  0  0  0  0  0  0  0  0
   -3.9215   19.4133  -34.2162 H   0  0  0  0  0  0  0  0  0  0  0  0
   -6.0660   19.3540  -33.8800 C   0  0  0  0  0  0  0  0  0  0  0  0
   -6.2900   18.1700  -34.6650 N   0  0  0  0  0  0  0  0  0  0  0  0
   -6.8610   18.2640  -35.5360 H   0  0  0  0  0  0  0  0  0  0  0  0
   -5.7840   16.8660  -34.3330 C   0  0  0  0  0  0  0  0  0  0  0  0
   -4.4010   16.6800  -34.1890 C   0  0  0  0  0  0  0  0  0  0  0  0
   -3.7186   17.5342  -34.3103 H   0  0  0  0  0  0  0  0  0  0  0  0
   -3.8850   15.4140  -33.8920 C   0  0  0  0  0  0  0  0  0  0  0  0
   -2.8004   15.2775  -33.7694 H   0  0  0  0  0  0  0  0  0  0  0  0
   -4.7460   14.3230  -33.7510 C   0  0  0  0  0  0  0  0  0  0  0  0
   -4.3393   13.3292  -33.5122 H   0  0  0  0  0  0  0  0  0  0  0  0
   -6.1230   14.4930  -33.9130 C   0  0  0  0  0  0  0  0  0  0  0  0
   -6.7994   13.6321  -33.8069 H   0  0  0  0  0  0  0  0  0  0  0  0
   -6.6420   15.7570  -34.2100 C   0  0  0  0  0  0  0  0  0  0  0  0
   -7.7257   15.8852  -34.3481 H   0  0  0  0  0  0  0  0  0  0  0  0
   -7.1560   20.0100  -33.2960 C   0  0  0  0  0  0  0  0  0  0  0  0
   -8.1700   19.6034  -33.4249 H   0  0  0  0  0  0  0  0  0  0  0  0
   -6.9670   21.1780  -32.5500 C   0  0  0  0  0  0  0  0  0  0  0  0
   -7.8320   21.6742  -32.0858 H   0  0  0  0  0  0  0  0  0  0  0  0
   -6.4160   23.9540  -31.3820 C   0  0  0  0  0  0  0  0  0  0  0  0
   -7.4486   23.9410  -31.7608 H   0  0  0  0  0  0  0  0  0  0  0  0
   -5.7250   25.1700  -30.4460 S   0  0  0  0  0  0  0  0  0  0  0  0
   -1.1100   24.7860  -28.3050 C   0  0  0  0  0  0  0  0  0  0  0  0
    0.0910   24.0630  -28.1970 C   0  0  0  0  0  0  0  0  0  0  0  0
    0.1657   23.0573  -28.6363 H   0  0  0  0  0  0  0  0  0  0  0  0
    1.1910   24.6160  -27.5340 C   0  0  0  0  0  0  0  0  0  0  0  0
    2.1273   24.0443  -27.4538 H   0  0  0  0  0  0  0  0  0  0  0  0
    1.1040   25.8930  -26.9730 C   0  0  0  0  0  0  0  0  0  0  0  0
    2.1980   26.4390  -26.3140 O   0  0  0  0  0  0  0  0  0  0  0  0
   -0.0860   26.6200  -27.0750 C   0  0  0  0  0  0  0  0  0  0  0  0
   -0.1548   27.6253  -26.6339 H   0  0  0  0  0  0  0  0  0  0  0  0
   -1.1890   26.0710  -27.7370 C   0  0  0  0  0  0  0  0  0  0  0  0
   -2.1231   26.6468  -27.8140 H   0  0  0  0  0  0  0  0  0  0  0  0
  1  2  1  0
  2  3  2  0
  3  4  1  0
  4  5  2  0
  5  6  1  0
  6  7  1  0
  7  8  2  0
  8  9  1  0
  8 10  1  0
 10 11  1  0
 10 12  2  0
 12 13  1  0
 13 14  1  0
 13 15  1  0
 15 16  2  0
 16 17  1  0
 16 18  1  0
 18 19  1  0
 18 20  2  0
 20 21  1  0
 20 22  1  0
 22 23  1  0
 22 24  2  0
 24 25  1  0
 12 26  1  0
 26 27  1  0
 26 28  2  0
 28 29  1  0
  6 30  2  0
 30 31  1  0
 30 32  1  0
  2 33  1  0
 33 34  2  0
 34 35  1  0
 34 36  1  0
 36 37  1  0
 36 38  2  0
 38 39  1  0
 38 40  1  0
 40 41  1  0
 40 42  2  0
 42 43  1  0
 32  4  1  0
 42 33  1  0
 28  7  1  0
 24 15  1  0
M  CHG  1  39  -1
M  END
>  <UniqueID>  (21) 
20

>  <SMILES>  (21) 
[O-]c1ccc(/C=N/c2nc(-c3ccc(Nc4ccccc4)cc3)cs2)cc1

>  <Energy>  (21) 
85.27221337399969

>  <Genealogy>  (21) 
[O-]c1ccc(C=Nc2nc(-c3ccc(Nc4ccccc4)cc3)cs2)cc1 (protonated)
[O-]c1ccc(/C=N/c2nc(-c3ccc(Nc4ccccc4)cc3)cs2)cc1 (cis-trans isomerization)
[O-]c1ccc(/C=N/c2nc(-c3ccc(Nc4ccccc4)cc3)cs2)cc1 (3D coordinates assigned)
[O-]c1ccc(/C=N/c2nc(-c3ccc(Nc4ccccc4)cc3)cs2)cc1 (optimized conformer: 85.27221337399969 kcal/mol)

>  <smiles>  (21) 
Oc1ccc(C=Nc2nc(-c3ccc(Nc4ccccc4)cc3)cs2)cc1

>  <score_type>  (21) 
oracle

>  <origin>  (21) 
adgpu

>  <m_score__min__energy>  (21) 
-8.9399999999999995

>  <m_primary>  (21) 
energy

$$$$
21:0
     RDKit          3D

 33 35  0  0  0  0  0  0  0  0999 V2000
   -9.8670   21.9470  -30.9080 O   0  0  0  0  0  0  0  0  0  0  0  0
   -9.0040   21.2150  -31.4640 C   0  0  0  0  0  0  0  0  0  0  0  0
   -9.0900   19.8300  -31.3290 C   0  0  0  0  0  0  0  0  0  0  0  0
   -8.1310   19.0220  -31.9310 C   0  0  0  0  0  0  0  0  0  0  0  0
   -7.0970   19.6160  -32.6670 C   0  0  0  0  0  0  0  0  0  0  0  0
   -6.0310   18.8130  -33.3180 C   0  0  0  0  0  0  0  0  0  0  0  0
   -6.2860   17.5210  -33.8190 C   0  0  0  0  0  0  0  0  0  0  0  0
   -5.2670   16.7860  -34.4350 C   0  0  0  0  0  0  0  0  0  0  0  0
   -3.9870   17.3300  -34.5640 C   0  0  0  0  0  0  0  0  0  0  0  0
   -2.7130   16.4050  -35.3380 Cl  0  0  0  0  0  0  0  0  0  0  0  0
   -3.7250   18.6140  -34.0810 C   0  0  0  0  0  0  0  0  0  0  0  0
   -4.7390   19.3540  -33.4660 C   0  0  0  0  0  0  0  0  0  0  0  0
   -7.0620   20.9740  -32.7600 N   0  0  0  0  0  0  0  0  0  0  0  0
   -7.9810   21.7600  -32.1940 N   0  0  0  0  0  0  0  0  0  0  0  0
   -7.8250   23.2130  -32.3270 C   0  0  0  0  0  0  0  0  0  0  0  0
   -6.6530   23.6810  -31.5090 C   0  0  0  0  0  0  0  0  0  0  0  0
   -6.8560   24.4480  -30.3530 C   0  0  0  0  0  0  0  0  0  0  0  0
   -5.7620   24.9090  -29.6190 C   0  0  0  0  0  0  0  0  0  0  0  0
   -4.4700   24.6020  -30.0530 C   0  0  0  0  0  0  0  0  0  0  0  0
   -4.2870   23.8660  -31.1820 N   0  0  0  0  0  0  0  0  0  0  0  0
   -5.3380   23.4070  -31.9140 C   0  0  0  0  0  0  0  0  0  0  0  0
   -9.9102   19.3796  -30.7507 H   0  0  0  0  0  0  0  0  0  0  0  0
   -8.1838   17.9279  -31.8303 H   0  0  0  0  0  0  0  0  0  0  0  0
   -7.2926   17.0874  -33.7253 H   0  0  0  0  0  0  0  0  0  0  0  0
   -5.4747   15.7763  -34.8190 H   0  0  0  0  0  0  0  0  0  0  0  0
   -2.7179   19.0442  -34.1848 H   0  0  0  0  0  0  0  0  0  0  0  0
   -4.5261   20.3673  -33.0945 H   0  0  0  0  0  0  0  0  0  0  0  0
   -7.6558   23.4661  -33.3840 H   0  0  0  0  0  0  0  0  0  0  0  0
   -8.7383   23.7089  -31.9665 H   0  0  0  0  0  0  0  0  0  0  0  0
   -7.8783   24.6866  -30.0243 H   0  0  0  0  0  0  0  0  0  0  0  0
   -5.9154   25.5074  -28.7089 H   0  0  0  0  0  0  0  0  0  0  0  0
   -3.5997   24.9560  -29.4809 H   0  0  0  0  0  0  0  0  0  0  0  0
   -5.1562   22.8194  -32.8260 H   0  0  0  0  0  0  0  0  0  0  0  0
  1  2  2  0
  2  3  1  0
  3  4  2  0
  4  5  1  0
  5  6  1  0
  6  7  2  0
  7  8  1  0
  8  9  2  0
  9 10  1  0
  9 11  1  0
 11 12  2  0
  5 13  2  0
 13 14  1  0
 14 15  1  0
 15 16  1  0
 16 17  2  0
 17 18  1  0
 18 19  2  0
 19 20  1  0
 20 21  2  0
 14  2  1  0
 21 16  1  0
 12  6  1  0
  3 22  1  0
  4 23  1  0
  7 24  1  0
  8 25  1  0
 11 26  1  0
 12 27  1  0
 15 28  1  0
 15 29  1  0
 17 30  1  0
 18 31  1  0
 19 32  1  0
 21 33  1  0
M  END
>  <UniqueID>  (22) 
21

>  <SMILES>  (22) 
O=c1ccc(-c2ccc(Cl)cc2)nn1Cc1cccnc1

>  <Energy>  (22) 
41.00597723122558

>  <Genealogy>  (22) 
O=c1ccc(-c2ccc(Cl)cc2)nn1Cc1cccnc1 (3D coordinates assigned)
O=c1ccc(-c2ccc(Cl)cc2)nn1Cc1cccnc1 (optimized conformer: 41.00597723122558 kcal/mol)

>  <smiles>  (22) 
O=c1ccc(-c2ccc(Cl)cc2)nn1Cc1cccnc1

>  <score_type>  (22) 
oracle

>  <origin>  (22) 
adgpu

>  <m_score__min__energy>  (22) 
-8.2899999999999991

>  <m_primary>  (22) 
energy

$$$$
22:0
     RDKit          3D

 29 31  0  0  0  0  0  0  0  0999 V2000
   -4.9650   17.5330  -35.3340 C   0  0  0  0  0  0  0  0  0  0  0  0
   -5.8470   17.9970  -34.2130 C   0  0  0  0  0  0  0  0  0  0  0  0
   -6.8130   17.1350  -33.6720 C   0  0  0  0  0  0  0  0  0  0  0  0
   -7.6070   17.5520  -32.6010 C   0  0  0  0  0  0  0  0  0  0  0  0
   -7.4320   18.8250  -32.0520 C   0  0  0  0  0  0  0  0  0  0  0  0
   -6.4580   19.6940  -32.5700 C   0  0  0  0  0  0  0  0  0  0  0  0
   -6.2730   21.0020  -32.0000 N   0  0  0  0  0  0  0  0  0  0  0  0
   -5.0390   21.7020  -31.7960 C   0  0  0  0  0  0  0  0  0  0  0  0
   -3.9070   21.2690  -32.1390 O   0  0  0  0  0  0  0  0  0  0  0  0
   -5.2970   23.0020  -31.1890 C   0  0  0  0  0  0  0  0  0  0  0  0
   -4.4240   24.0200  -30.8120 C   0  0  0  0  0  0  0  0  0  0  0  0
   -4.9710   25.1840  -30.2440 C   0  0  0  0  0  0  0  0  0  0  0  0
   -6.3670   25.3050  -30.0650 C   0  0  0  0  0  0  0  0  0  0  0  0
   -7.2280   24.2640  -30.4560 C   0  0  0  0  0  0  0  0  0  0  0  0
   -6.6610   23.1220  -31.0180 C   0  0  0  0  0  0  0  0  0  0  0  0
   -7.2790   21.8970  -31.5100 C   0  0  0  0  0  0  0  0  0  0  0  0
   -8.5090   21.6330  -31.4710 O   0  0  0  0  0  0  0  0  0  0  0  0
   -5.6630   19.2680  -33.6480 C   0  0  0  0  0  0  0  0  0  0  0  0
   -4.0634   17.0587  -34.9190 H   0  0  0  0  0  0  0  0  0  0  0  0
   -5.5105   16.8051  -35.9526 H   0  0  0  0  0  0  0  0  0  0  0  0
   -4.6742   18.3949  -35.9526 H   0  0  0  0  0  0  0  0  0  0  0  0
   -6.9455   16.1273  -34.0927 H   0  0  0  0  0  0  0  0  0  0  0  0
   -8.3715   16.8769  -32.1890 H   0  0  0  0  0  0  0  0  0  0  0  0
   -8.0607   19.1483  -31.2093 H   0  0  0  0  0  0  0  0  0  0  0  0
   -3.3382   23.9162  -30.9546 H   0  0  0  0  0  0  0  0  0  0  0  0
   -4.3075   26.0059  -29.9370 H   0  0  0  0  0  0  0  0  0  0  0  0
   -6.7833   26.2193  -29.6169 H   0  0  0  0  0  0  0  0  0  0  0  0
   -8.3165   24.3488  -30.3221 H   0  0  0  0  0  0  0  0  0  0  0  0
   -4.8894   19.9373  -34.0524 H   0  0  0  0  0  0  0  0  0  0  0  0
  1  2  1  0
  2  3  2  0
  3  4  1  0
  4  5  2  0
  5  6  1  0
  6  7  1  0
  7  8  1  0
  8  9  2  0
  8 10  1  0
 10 11  2  0
 11 12  1  0
 12 13  2  0
 13 14  1  0
 14 15  2  0
 15 16  1  0
 16 17  2  0
  6 18  2  0
 18  2  1  0
 16  7  1  0
 15 10  1  0
  1 19  1  0
  1 20  1  0
  1 21  1  0
  3 22  1  0
  4 23  1  0
  5 24  1  0
 11 25  1  0
 12 26  1  0
 13 27  1  0
 14 28  1  0
 18 29  1  0
M  END
>  <UniqueID>  (23) 
22

>  <SMILES>  (23) 
Cc1cccc(N2C(=O)c3ccccc3C2=O)c1

>  <Energy>  (23) 
67.78814412617989

>  <Genealogy>  (23) 
Cc1cccc(N2C(=O)c3ccccc3C2=O)c1 (3D coordinates assigned)
Cc1cccc(N2C(=O)c3ccccc3C2=O)c1 (nonaromatic ring conformer: 67.78814412617989 kcal/mol)

>  <smiles>  (23) 
Cc1cccc(N2C(=O)c3ccccc3C2=O)c1

>  <score_type>  (23) 
oracle

>  <origin>  (23) 
adgpu

>  <m_score__min__energy>  (23) 
-7.0999999999999996

>  <m_primary>  (23) 
energy

$$$$
23:0
     RDKit          3D

 24 25  0  0  0  0  0  0  0  0999 V2000
   -5.7220   26.3080  -30.5500 O   0  0  0  0  0  0  0  0  0  0  0  0
   -5.1190   25.2130  -30.7070 C   0  0  0  0  0  0  0  0  0  0  0  0
   -3.7050   25.1690  -30.4670 N   0  0  0  0  0  0  0  0  0  0  0  0
   -3.0480   24.4720  -29.3990 C   0  0  0  0  0  0  0  0  0  0  0  0
   -3.6030   23.2720  -28.9380 C   0  0  0  0  0  0  0  0  0  0  0  0
   -2.9910   22.5610  -27.9010 C   0  0  0  0  0  0  0  0  0  0  0  0
   -1.8090   23.0380  -27.3280 C   0  0  0  0  0  0  0  0  0  0  0  0
   -1.2320   24.2200  -27.8000 C   0  0  0  0  0  0  0  0  0  0  0  0
   -1.8390   24.9350  -28.8380 C   0  0  0  0  0  0  0  0  0  0  0  0
   -1.2250   26.0450  -29.3180 F   0  0  0  0  0  0  0  0  0  0  0  0
   -5.8740   24.0290  -31.1830 C   0  0  0  0  0  0  0  0  0  0  0  0
   -7.2230   23.8380  -30.8400 C   0  0  0  0  0  0  0  0  0  0  0  0
   -7.9100   22.7120  -31.2970 C   0  0  0  0  0  0  0  0  0  0  0  0
   -7.2400   21.7760  -32.0850 C   0  0  0  0  0  0  0  0  0  0  0  0
   -5.9320   21.9610  -32.3980 N   0  0  0  0  0  0  0  0  0  0  0  0
   -5.2390   23.0500  -31.9660 C   0  0  0  0  0  0  0  0  0  0  0  0
   -4.5264   22.8861  -29.3945 H   0  0  0  0  0  0  0  0  0  0  0  0
   -3.4403   21.6256  -27.5360 H   0  0  0  0  0  0  0  0  0  0  0  0
   -1.3331   22.4833  -26.5059 H   0  0  0  0  0  0  0  0  0  0  0  0
   -0.2970   24.5896  -27.3537 H   0  0  0  0  0  0  0  0  0  0  0  0
   -7.7390   24.5774  -30.2099 H   0  0  0  0  0  0  0  0  0  0  0  0
   -8.9689   22.5643  -31.0384 H   0  0  0  0  0  0  0  0  0  0  0  0
   -7.7723   20.8866  -32.4533 H   0  0  0  0  0  0  0  0  0  0  0  0
   -4.1775   23.1642  -32.2309 H   0  0  0  0  0  0  0  0  0  0  0  0
  1  2  2  0
  2  3  1  0
  3  4  1  0
  4  5  2  0
  5  6  1  0
  6  7  2  0
  7  8  1  0
  8  9  2  0
  9 10  1  0
  2 11  1  0
 11 12  2  0
 12 13  1  0
 13 14  2  0
 14 15  1  0
 15 16  2  0
  9  4  1  0
 16 11  1  0
  5 17  1  0
  6 18  1  0
  7 19  1  0
  8 20  1  0
 12 21  1  0
 13 22  1  0
 14 23  1  0
 16 24  1  0
M  CHG  1   3  -1
M  END
>  <UniqueID>  (24) 
23

>  <SMILES>  (24) 
O=C([N-]c1ccccc1F)c1cccnc1

>  <Energy>  (24) 
33.95829721683354

>  <Genealogy>  (24) 
O=C([N-]c1ccccc1F)c1cccnc1 (protonated)
O=C([N-]c1ccccc1F)c1cccnc1 (3D coordinates assigned)
O=C([N-]c1ccccc1F)c1cccnc1 (optimized conformer: 33.95829721683354 kcal/mol)

>  <smiles>  (24) 
O=C(Nc1ccccc1F)c1cccnc1

>  <score_type>  (24) 
oracle

>  <origin>  (24) 
adgpu

>  <m_score__min__energy>  (24) 
-7.8600000000000003

>  <m_primary>  (24) 
energy

$$$$
24:0
     RDKit          3D

 20 21  0  0  0  0  0  0  0  0999 V2000
   -7.5350   18.9760  -33.0950 F   0  0  0  0  0  0  0  0  0  0  0  0
   -7.4600   20.2170  -32.5540 C   0  0  0  0  0  0  0  0  0  0  0  0
   -6.2610   20.9340  -32.6150 C   0  0  0  0  0  0  0  0  0  0  0  0
   -6.1810   22.2150  -32.0590 C   0  0  0  0  0  0  0  0  0  0  0  0
   -7.3000   22.7830  -31.4280 C   0  0  0  0  0  0  0  0  0  0  0  0
   -7.2270   24.1740  -30.8620 C   0  0  0  0  0  0  0  0  0  0  0  0
   -5.8200   24.4900  -30.4720 C   0  0  0  0  0  0  0  0  0  0  0  0
   -4.9990   25.2890  -31.1810 N   0  0  0  0  0  0  0  0  0  0  0  0
   -3.8420   25.2980  -30.5360 N   0  0  0  0  0  0  0  0  0  0  0  0
   -4.0090   24.5010  -29.4660 C   0  0  0  0  0  0  0  0  0  0  0  0
   -2.8410   24.1980  -28.3650 S   0  0  0  0  0  0  0  0  0  0  0  0
   -5.2160   23.9980  -29.4160 O   0  0  0  0  0  0  0  0  0  0  0  0
   -8.5060   22.0620  -31.3830 C   0  0  0  0  0  0  0  0  0  0  0  0
   -8.5810   20.7810  -31.9400 C   0  0  0  0  0  0  0  0  0  0  0  0
   -5.3796   20.4901  -33.1009 H   0  0  0  0  0  0  0  0  0  0  0  0
   -5.2386   22.7795  -32.1161 H   0  0  0  0  0  0  0  0  0  0  0  0
   -7.5661   24.8949  -31.6205 H   0  0  0  0  0  0  0  0  0  0  0  0
   -7.8726   24.2383  -29.9737 H   0  0  0  0  0  0  0  0  0  0  0  0
   -9.3933   22.5064  -30.9084 H   0  0  0  0  0  0  0  0  0  0  0  0
   -9.5242   20.2168  -31.8945 H   0  0  0  0  0  0  0  0  0  0  0  0
  1  2  1  0
  2  3  2  0
  3  4  1  0
  4  5  2  0
  5  6  1  0
  6  7  1  0
  7  8  2  0
  8  9  1  0
  9 10  1  0
 10 11  2  0
 10 12  1  0
  5 13  1  0
 13 14  2  0
 14  2  1  0
 12  7  1  0
  3 15  1  0
  4 16  1  0
  6 17  1  0
  6 18  1  0
 13 19  1  0
 14 20  1  0
M  CHG  1   9  -1
M  END
>  <UniqueID>  (25) 
24

>  <SMILES>  (25) 
Fc1ccc(Cc2n[n-]c(=S)o2)cc1

>  <Energy>  (25) 
53.568211450674745

>  <Genealogy>  (25) 
Fc1ccc(Cc2n[n-]c(=S)o2)cc1 (protonated)
Fc1ccc(Cc2n[n-]c(=S)o2)cc1 (3D coordinates assigned)
Fc1ccc(Cc2n[n-]c(=S)o2)cc1 (optimized conformer: 53.568211450674745 kcal/mol)

>  <smiles>  (25) 
Fc1ccc(Cc2n[nH]c(=S)o2)cc1

>  <score_type>  (25) 
oracle

>  <origin>  (25) 
adgpu

>  <m_score__min__energy>  (25) 
-7.7000000000000002

>  <m_primary>  (25) 
energy

$$$$
25:0
     RDKit          3D

 34 36  0  0  0  0  0  0  0  0999 V2000
   -5.3310   24.0820  -27.1220 H   0  0  0  0  0  0  0  0  0  0  0  0
   -4.3470   24.3380  -26.8890 N   0  0  0  0  0  0  0  0  0  0  0  0
   -3.4330   24.5260  -27.7890 C   0  0  0  0  0  0  0  0  0  0  0  0
   -2.1370   24.9520  -27.5370 C   0  0  0  0  0  0  0  0  0  0  0  0
   -1.4700   25.1960  -26.2350 C   0  0  0  0  0  0  0  0  0  0  0  0
   -0.5290   24.2840  -25.7220 C   0  0  0  0  0  0  0  0  0  0  0  0
   -0.2843   23.3736  -26.2888 H   0  0  0  0  0  0  0  0  0  0  0  0
    0.0970   24.5290  -24.4950 C   0  0  0  0  0  0  0  0  0  0  0  0
    0.8287   23.8092  -24.0995 H   0  0  0  0  0  0  0  0  0  0  0  0
   -0.2040   25.6840  -23.7710 C   0  0  0  0  0  0  0  0  0  0  0  0
    0.2868   25.8716  -22.8046 H   0  0  0  0  0  0  0  0  0  0  0  0
   -1.1290   26.6010  -24.2750 C   0  0  0  0  0  0  0  0  0  0  0  0
   -1.3633   27.5131  -23.7065 H   0  0  0  0  0  0  0  0  0  0  0  0
   -1.7580   26.3620  -25.5010 C   0  0  0  0  0  0  0  0  0  0  0  0
   -2.4827   27.0901  -25.8943 H   0  0  0  0  0  0  0  0  0  0  0  0
   -1.5950   25.1480  -28.8000 C   0  0  0  0  0  0  0  0  0  0  0  0
   -0.5730   25.4975  -29.0081 H   0  0  0  0  0  0  0  0  0  0  0  0
   -2.5200   24.8420  -29.7300 N   0  0  0  0  0  0  0  0  0  0  0  0
   -2.3830   24.8810  -30.7650 H   0  0  0  0  0  0  0  0  0  0  0  0
   -3.6340   24.4570  -29.1250 N   0  0  0  0  0  0  0  0  0  0  0  0
   -4.8180   24.0410  -29.8270 C   0  0  0  0  0  0  0  0  0  0  0  0
   -5.9710   24.8380  -29.8180 C   0  0  0  0  0  0  0  0  0  0  0  0
   -5.9663   25.8013  -29.2870 H   0  0  0  0  0  0  0  0  0  0  0  0
   -7.1260   24.4150  -30.4800 C   0  0  0  0  0  0  0  0  0  0  0  0
   -8.0232   25.0514  -30.4754 H   0  0  0  0  0  0  0  0  0  0  0  0
   -7.1480   23.1860  -31.1490 C   0  0  0  0  0  0  0  0  0  0  0  0
   -8.6290   22.7000  -31.9670 Cl  0  0  0  0  0  0  0  0  0  0  0  0
   -6.0010   22.3660  -31.1500 C   0  0  0  0  0  0  0  0  0  0  0  0
   -6.0060   21.0380  -31.8560 C   0  0  0  0  0  0  0  0  0  0  0  0
   -6.0091   20.2274  -31.1124 H   0  0  0  0  0  0  0  0  0  0  0  0
   -6.9044   20.9610  -32.4860 H   0  0  0  0  0  0  0  0  0  0  0  0
   -5.1082   20.9543  -32.4860 H   0  0  0  0  0  0  0  0  0  0  0  0
   -4.8440   22.7990  -30.4810 C   0  0  0  0  0  0  0  0  0  0  0  0
   -3.9497   22.1586  -30.4695 H   0  0  0  0  0  0  0  0  0  0  0  0
  1  2  1  0
  2  3  2  0
  3  4  1  0
  4  5  1  0
  5  6  2  0
  6  7  1  0
  6  8  1  0
  8  9  1  0
  8 10  2  0
 10 11  1  0
 10 12  1  0
 12 13  1  0
 12 14  2  0
 14 15  1  0
  4 16  2  0
 16 17  1  0
 16 18  1  0
 18 19  1  0
 18 20  1  0
 20 21  1  0
 21 22  2  0
 22 23  1  0
 22 24  1  0
 24 25  1  0
 24 26  2  0
 26 27  1  0
 26 28  1  0
 28 29  1  0
 29 30  1  0
 29 31  1  0
 29 32  1  0
 28 33  2  0
 33 34  1  0
 20  3  1  0
 33 21  1  0
 14  5  1  0
M  END
>  <UniqueID>  (26) 
25

>  <SMILES>  (26) 
[H]/N=c1/c(-c2ccccc2)c[nH]n1-c1ccc(Cl)c(C)c1

>  <Energy>  (26) 
79.66721518047684

>  <Genealogy>  (26) 
[H]/N=c1/c(-c2ccccc2)c[nH]n1-c1ccc(Cl)c(C)c1 (cis-trans isomerization)
[H]/N=c1/c(-c2ccccc2)c[nH]n1-c1ccc(Cl)c(C)c1 (3D coordinates assigned)
[H]/N=c1/c(-c2ccccc2)c[nH]n1-c1ccc(Cl)c(C)c1 (optimized conformer: 79.66721518047684 kcal/mol)

>  <smiles>  (26) 
Cc1cc(-n2[nH]cc(-c3ccccc3)c2=N)ccc1Cl

>  <score_type>  (26) 
oracle

>  <origin>  (26) 
adgpu

>  <m_score__min__energy>  (26) 
-7.5

>  <m_primary>  (26) 
energy

$$$$
26:0
     RDKit          3D

 40 42  0  0  1  0  0  0  0  0999 V2000
   -1.5790   25.2380  -28.1210 C   0  0  0  0  0  0  0  0  0  0  0  0
   -2.2600   25.2860  -29.3590 O   0  0  0  0  0  0  0  0  0  0  0  0
   -3.3960   24.5360  -29.6280 C   0  0  0  0  0  0  0  0  0  0  0  0
   -3.4770   23.1820  -29.3320 C   0  0  0  0  0  0  0  0  0  0  0  0
   -4.6190   22.4370  -29.6050 C   0  0  0  0  0  0  0  0  0  0  0  0
   -5.6740   23.0980  -30.1820 C   0  0  0  0  0  0  0  0  0  0  0  0
   -6.9080   22.4740  -30.5200 N   0  0  0  0  0  0  0  0  0  0  0  0
   -6.9250   21.4740  -31.3440 C   0  0  0  0  0  0  0  0  0  0  0  0
   -5.8050   21.0110  -31.8870 N   0  0  0  0  0  0  0  0  0  0  0  0
   -5.8610   19.9710  -32.7390 C   0  0  0  0  0  0  0  0  0  0  0  0
   -4.6200   19.4790  -33.3220 C   0  0  0  0  0  0  0  0  0  0  0  0
   -4.5280   18.3040  -34.0370 C   0  0  0  0  0  0  0  0  0  0  0  0
   -3.3430   17.8560  -34.5820 C   0  0  0  0  0  0  0  0  0  0  0  0
   -2.1750   18.5920  -34.4240 C   0  0  0  0  0  0  0  0  0  0  0  0
   -2.2430   19.7800  -33.7080 C   0  0  0  0  0  0  0  0  0  0  0  0
   -3.4450   20.2000  -33.1750 C   0  0  0  0  0  0  0  0  0  0  0  0
   -7.0550   19.4250  -33.0190 N   0  0  0  0  0  0  0  0  0  0  0  0
   -8.2150   19.8750  -32.4810 C   0  0  0  0  0  0  0  0  0  0  0  0
   -9.5220   19.2470  -32.8130 C   0  0  0  0  0  0  0  0  0  0  0  0
   -8.1870   20.9400  -31.6050 C   0  0  0  0  0  0  0  0  0  0  0  0
   -9.3760   21.4720  -30.9960 C   0  0  0  0  0  0  0  0  0  0  0  0
  -10.3360   21.9180  -30.4930 N   0  0  0  0  0  0  0  0  0  0  0  0
   -5.5900   24.4630  -30.4800 C   0  0  0  0  0  0  0  0  0  0  0  0
   -4.4590   25.1960  -30.2080 C   0  0  0  0  0  0  0  0  0  0  0  0
   -2.3083   25.2894  -27.2991 H   0  0  0  0  0  0  0  0  0  0  0  0
   -1.0126   24.2977  -28.0503 H   0  0  0  0  0  0  0  0  0  0  0  0
   -0.8863   26.0895  -28.0503 H   0  0  0  0  0  0  0  0  0  0  0  0
   -2.6128   22.6841  -28.8681 H   0  0  0  0  0  0  0  0  0  0  0  0
   -4.6742   21.3641  -29.3686 H   0  0  0  0  0  0  0  0  0  0  0  0
   -5.4361   17.6996  -34.1785 H   0  0  0  0  0  0  0  0  0  0  0  0
   -3.3223   16.9111  -35.1447 H   0  0  0  0  0  0  0  0  0  0  0  0
   -1.2241   18.2437  -34.8536 H   0  0  0  0  0  0  0  0  0  0  0  0
   -1.3371   20.3875  -33.5653 H   0  0  0  0  0  0  0  0  0  0  0  0
   -3.4717   21.1442  -32.6113 H   0  0  0  0  0  0  0  0  0  0  0  0
   -7.1500   18.6180  -33.6720 H   0  0  0  0  0  0  0  0  0  0  0  0
  -10.0528   18.9920  -31.8839 H   0  0  0  0  0  0  0  0  0  0  0  0
  -10.1288   19.9519  -33.4003 H   0  0  0  0  0  0  0  0  0  0  0  0
   -9.3509   18.3328  -33.4003 H   0  0  0  0  0  0  0  0  0  0  0  0
   -6.4526   24.9631  -30.9446 H   0  0  0  0  0  0  0  0  0  0  0  0
   -4.4041   26.2689  -30.4442 H   0  0  0  0  0  0  0  0  0  0  0  0
  1  2  1  0
  2  3  1  0
  3  4  2  0
  4  5  1  0
  5  6  2  0
  6  7  1  0
  7  8  2  0
  8  9  1  0
  9 10  2  0
 10 11  1  0
 11 12  2  0
 12 13  1  0
 13 14  2  0
 14 15  1  0
 15 16  2  0
 10 17  1  0
 17 18  1  0
 18 19  1  0
 18 20  2  0
 20 21  1  0
 21 22  3  0
  6 23  1  0
 23 24  2  0
 24  3  1  0
 20  8  1  0
 16 11  1  0
  1 25  1  0
  1 26  1  0
  1 27  1  0
  4 28  1  0
  5 29  1  0
 12 30  1  0
 13 31  1  0
 14 32  1  0
 15 33  1  0
 16 34  1  0
 17 35  1  0
 19 36  1  0
 19 37  1  0
 19 38  1  0
 23 39  1  0
 24 40  1  0
M  END
>  <smiles>  (27) 
COc1ccc(N=c2nc(-c3ccccc3)[nH]c(C)c2C#N)cc1

>  <score_type>  (27) 
oracle

>  <origin>  (27) 
adgpu

>  <m_score__min__energy>  (27) 
-8.3499999999999996

>  <m_primary>  (27) 
energy

$$$$
27:0
     RDKit          3D

 30 31  0  0  0  0  0  0  0  0999 V2000
   -3.4740   21.4130  -32.2590 C   0  0  0  0  0  0  0  0  0  0  0  0
   -4.6360   21.3620  -33.0810 O   0  0  0  0  0  0  0  0  0  0  0  0
   -5.9480   21.5470  -32.6160 C   0  0  0  0  0  0  0  0  0  0  0  0
   -6.9250   20.5340  -32.7130 C   0  0  0  0  0  0  0  0  0  0  0  0
   -8.2220   20.7610  -32.2480 C   0  0  0  0  0  0  0  0  0  0  0  0
   -8.5630   21.9970  -31.6960 C   0  0  0  0  0  0  0  0  0  0  0  0
   -7.6040   23.0060  -31.5970 C   0  0  0  0  0  0  0  0  0  0  0  0
   -6.2870   22.7800  -32.0320 C   0  0  0  0  0  0  0  0  0  0  0  0
   -5.2970   23.8160  -31.9660 N   0  0  0  0  0  0  0  0  0  0  0  0
   -4.9790   24.6300  -30.8290 C   0  0  0  0  0  0  0  0  0  0  0  0
   -4.3060   25.6790  -31.0070 O   0  0  0  0  0  0  0  0  0  0  0  0
   -5.3240   24.2160  -29.4250 C   0  0  0  0  0  0  0  0  0  0  0  0
   -4.3130   22.7890  -28.8910 S   0  0  0  0  0  0  0  0  0  0  0  0
   -2.8290   23.7460  -28.5570 C   0  0  0  0  0  0  0  0  0  0  0  0
   -2.6230   24.9210  -29.2060 N   0  0  0  0  0  0  0  0  0  0  0  0
   -1.5380   25.6590  -28.9700 N   0  0  0  0  0  0  0  0  0  0  0  0
   -0.6070   25.2560  -28.0680 C   0  0  0  0  0  0  0  0  0  0  0  0
    0.4130   25.9600  -27.8560 O   0  0  0  0  0  0  0  0  0  0  0  0
   -0.7830   24.0910  -27.3950 N   0  0  0  0  0  0  0  0  0  0  0  0
   -1.8810   23.3250  -27.6190 C   0  0  0  0  0  0  0  0  0  0  0  0
   -2.0350   22.2480  -26.9850 O   0  0  0  0  0  0  0  0  0  0  0  0
   -3.7728   21.3999  -31.2004 H   0  0  0  0  0  0  0  0  0  0  0  0
   -2.8365   20.5420  -32.4708 H   0  0  0  0  0  0  0  0  0  0  0  0
   -2.9152   22.3365  -32.4708 H   0  0  0  0  0  0  0  0  0  0  0  0
   -6.6642   19.5618  -33.1565 H   0  0  0  0  0  0  0  0  0  0  0  0
   -8.9769   19.9639  -32.3169 H   0  0  0  0  0  0  0  0  0  0  0  0
   -9.5880   22.1757  -31.3389 H   0  0  0  0  0  0  0  0  0  0  0  0
   -7.8806   23.9839  -31.1760 H   0  0  0  0  0  0  0  0  0  0  0  0
   -5.1392   25.0612  -28.7457 H   0  0  0  0  0  0  0  0  0  0  0  0
   -6.3838   23.9224  -29.3982 H   0  0  0  0  0  0  0  0  0  0  0  0
  1  2  1  0
  2  3  1  0
  3  4  2  0
  4  5  1  0
  5  6  2  0
  6  7  1  0
  7  8  2  0
  8  9  1  0
  9 10  1  0
 10 11  2  0
 10 12  1  0
 12 13  1  0
 13 14  1  0
 14 15  2  0
 15 16  1  0
 16 17  1  0
 17 18  2  0
 17 19  1  0
 19 20  1  0
 20 21  2  0
  8  3  1  0
 20 14  1  0
  1 22  1  0
  1 23  1  0
  1 24  1  0
  4 25  1  0
  5 26  1  0
  6 27  1  0
  7 28  1  0
 12 29  1  0
 12 30  1  0
M  CHG  3   9  -1  16  -1  19  -1
M  END
>  <UniqueID>  (28) 
26

>  <SMILES>  (28) 
COc1ccccc1[N-]C(=O)CSc1n[n-]c(=O)[n-]c1=O

>  <Energy>  (28) 
34.687970230058234

>  <Genealogy>  (28) 
COc1ccccc1[N-]C(=O)CSc1n[n-]c(=O)[n-]c1=O (protonated)
COc1ccccc1[N-]C(=O)CSc1n[n-]c(=O)[n-]c1=O (3D coordinates assigned)
COc1ccccc1[N-]C(=O)CSc1n[n-]c(=O)[n-]c1=O (optimized conformer: 34.687970230058234 kcal/mol)

>  <smiles>  (28) 
COc1ccccc1NC(=O)CSc1n[nH]c(=O)[nH]c1=O

>  <score_type>  (28) 
oracle

>  <origin>  (28) 
adgpu

>  <m_score__min__energy>  (28) 
-9.9299999999999997

>  <m_primary>  (28) 
energy

$$$$
28:0
     RDKit          3D

 29 30  0  0  0  0  0  0  0  0999 V2000
    0.0260   24.8800  -28.1520 N   0  0  0  0  0  0  0  0  0  0  0  0
   -1.1380   24.4510  -28.5150 C   0  0  0  0  0  0  0  0  0  0  0  0
   -1.5090   23.2550  -27.9840 N   0  0  0  0  0  0  0  0  0  0  0  0
   -2.7070   22.7530  -28.3190 C   0  0  0  0  0  0  0  0  0  0  0  0
   -3.5700   23.4250  -29.1880 C   0  0  0  0  0  0  0  0  0  0  0  0
   -4.8480   22.7530  -29.4900 C   0  0  0  0  0  0  0  0  0  0  0  0
   -5.2730   22.9570  -30.8680 N   0  0  0  0  0  0  0  0  0  0  0  0
   -6.4350   22.2380  -31.2790 C   0  0  0  0  0  0  0  0  0  0  0  0
   -7.6970   22.6880  -30.9480 C   0  0  0  0  0  0  0  0  0  0  0  0
   -8.8050   21.9490  -31.3630 C   0  0  0  0  0  0  0  0  0  0  0  0
   -8.6650   20.7810  -32.0960 C   0  0  0  0  0  0  0  0  0  0  0  0
   -7.3890   20.3220  -32.4330 C   0  0  0  0  0  0  0  0  0  0  0  0
   -6.3020   21.0550  -32.0220 C   0  0  0  0  0  0  0  0  0  0  0  0
   -3.1640   24.6190  -29.6980 C   0  0  0  0  0  0  0  0  0  0  0  0
   -3.9180   25.2830  -30.4870 N   0  0  0  0  0  0  0  0  0  0  0  0
   -1.9480   25.1190  -29.3540 N   0  0  0  0  0  0  0  0  0  0  0  0
    0.6190   24.3330  -27.5000 H   0  0  0  0  0  0  0  0  0  0  0  0
   -0.9090   22.7130  -27.3350 H   0  0  0  0  0  0  0  0  0  0  0  0
   -3.0184   21.7857  -27.8979 H   0  0  0  0  0  0  0  0  0  0  0  0
   -4.7295   21.6738  -29.3134 H   0  0  0  0  0  0  0  0  0  0  0  0
   -5.6174   23.1877  -28.8349 H   0  0  0  0  0  0  0  0  0  0  0  0
   -4.7840   23.5760  -31.5270 H   0  0  0  0  0  0  0  0  0  0  0  0
   -7.8269   23.6131  -30.3672 H   0  0  0  0  0  0  0  0  0  0  0  0
   -9.8138   22.3016  -31.1023 H   0  0  0  0  0  0  0  0  0  0  0  0
   -9.5554   20.2173  -32.4114 H   0  0  0  0  0  0  0  0  0  0  0  0
   -7.2580   19.3966  -33.0131 H   0  0  0  0  0  0  0  0  0  0  0  0
   -5.2935   20.7026  -32.2842 H   0  0  0  0  0  0  0  0  0  0  0  0
   -4.8490   24.9200  -30.7500 H   0  0  0  0  0  0  0  0  0  0  0  0
   -1.6230   26.0540  -29.7490 H   0  0  0  0  0  0  0  0  0  0  0  0
  1  2  2  3
  2  3  1  0
  3  4  1  0
  4  5  2  0
  5  6  1  0
  6  7  1  0
  7  8  1  0
  8  9  2  0
  9 10  1  0
 10 11  2  0
 11 12  1  0
 12 13  2  0
  5 14  1  0
 14 15  2  3
 14 16  1  0
 16  2  1  0
 13  8  1  0
  1 17  1  0
  3 18  1  0
  4 19  1  0
  6 20  1  0
  6 21  1  0
  7 22  1  0
  9 23  1  0
 10 24  1  0
 11 25  1  0
 12 26  1  0
 13 27  1  0
 15 28  1  0
 16 29  1  0
M  END
>  <smiles>  (29) 
N=c1[nH]cc(CNc2ccccc2)c(=N)[nH]1

>  <score_type>  (29) 
oracle

>  <origin>  (29) 
adgpu

>  <m_score__min__energy>  (29) 
-6.6600000000000001

>  <m_primary>  (29) 
energy

$$$$
29:0
     RDKit          3D

 27 28  0  0  0  0  0  0  0  0999 V2000
   -0.5486   24.5861  -28.2225 H   0  0  0  0  0  0  0  0  0  0  0  0
   -1.4870   24.1860  -28.6340 C   0  0  0  0  0  0  0  0  0  0  0  0
   -2.3150   24.9930  -29.3450 N   0  0  0  0  0  0  0  0  0  0  0  0
   -3.4890   24.5640  -29.8850 C   0  0  0  0  0  0  0  0  0  0  0  0
   -4.2010   25.4510  -30.5280 N   0  0  0  0  0  0  0  0  0  0  0  0
   -5.4910   25.3180  -31.1940 C   0  0  0  0  0  0  0  0  0  0  0  0
   -6.2867   25.2360  -30.4390 H   0  0  0  0  0  0  0  0  0  0  0  0
   -5.6719   26.2023  -31.8228 H   0  0  0  0  0  0  0  0  0  0  0  0
   -5.4877   24.4154  -31.8228 H   0  0  0  0  0  0  0  0  0  0  0  0
   -3.8630   23.1970  -29.7010 C   0  0  0  0  0  0  0  0  0  0  0  0
   -5.0800   22.5800  -30.2470 C   0  0  0  0  0  0  0  0  0  0  0  0
   -5.1610   21.7380  -31.7040 S   0  0  0  0  0  0  0  0  0  0  0  0
   -6.8320   21.5440  -31.6760 C   0  0  0  0  0  0  0  0  0  0  0  0
   -7.5810   20.8650  -32.6890 N   0  0  0  0  0  0  0  0  0  0  0  0
   -7.2460   20.9100  -33.6770 H   0  0  0  0  0  0  0  0  0  0  0  0
   -8.7910   20.1090  -32.3910 C   0  0  0  0  0  0  0  0  0  0  0  0
   -8.9156   20.0312  -31.3008 H   0  0  0  0  0  0  0  0  0  0  0  0
   -9.6612   20.6243  -32.8236 H   0  0  0  0  0  0  0  0  0  0  0  0
   -8.7094   19.1009  -32.8236 H   0  0  0  0  0  0  0  0  0  0  0  0
   -7.3520   22.1610  -30.5420 C   0  0  0  0  0  0  0  0  0  0  0  0
   -8.4239   22.1769  -30.2953 H   0  0  0  0  0  0  0  0  0  0  0  0
   -6.3660   22.7590  -29.7490 C   0  0  0  0  0  0  0  0  0  0  0  0
   -6.5860   23.3144  -28.8253 H   0  0  0  0  0  0  0  0  0  0  0  0
   -3.0130   22.3630  -28.9590 C   0  0  0  0  0  0  0  0  0  0  0  0
   -3.2884   21.3104  -28.7970 H   0  0  0  0  0  0  0  0  0  0  0  0
   -1.8250   22.8540  -28.4260 C   0  0  0  0  0  0  0  0  0  0  0  0
   -1.1611   22.1955  -27.8467 H   0  0  0  0  0  0  0  0  0  0  0  0
  1  2  1  0
  2  3  1  0
  3  4  1  0
  4  5  2  0
  5  6  1  0
  6  7  1  0
  6  8  1  0
  6  9  1  0
  4 10  1  0
 10 11  1  0
 11 12  1  0
 12 13  1  0
 13 14  1  0
 14 15  1  0
 14 16  1  0
 16 17  1  0
 16 18  1  0
 16 19  1  0
 13 20  2  0
 20 21  1  0
 20 22  1  0
 22 23  1  0
 10 24  2  0
 24 25  1  0
 24 26  1  0
 26 27  1  0
 26  2  2  0
 22 11  2  0
M  CHG  1   3  -1
M  END
>  <UniqueID>  (30) 
27

>  <SMILES>  (30) 
C/N=c1/[n-]cccc1-c1ccc(NC)s1

>  <Energy>  (30) 
66.37263736754804

>  <Genealogy>  (30) 
CN=c1[n-]cccc1-c1ccc(NC)s1 (protonated)
C/N=c1/[n-]cccc1-c1ccc(NC)s1 (cis-trans isomerization)
C/N=c1/[n-]cccc1-c1ccc(NC)s1 (3D coordinates assigned)
C/N=c1/[n-]cccc1-c1ccc(NC)s1 (optimized conformer: 66.37263736754804 kcal/mol)

>  <smiles>  (30) 
CN=c1[nH]cccc1-c1ccc(NC)s1

>  <score_type>  (30) 
oracle

>  <origin>  (30) 
adgpu

>  <m_score__min__energy>  (30) 
-7.5099999999999998

>  <m_primary>  (30) 
energy

$$$$
30:0
     RDKit          3D

 30 32  0  0  0  0  0  0  0  0999 V2000
   -8.3350   18.1280  -32.3450 C   0  0  0  0  0  0  0  0  0  0  0  0
   -9.4280   18.9490  -32.6360 C   0  0  0  0  0  0  0  0  0  0  0  0
   -9.4290   20.2850  -32.2250 C   0  0  0  0  0  0  0  0  0  0  0  0
   -8.3350   20.8080  -31.5140 C   0  0  0  0  0  0  0  0  0  0  0  0
   -8.3600   22.2250  -31.0090 C   0  0  0  0  0  0  0  0  0  0  0  0
   -7.9060   23.4020  -32.3330 S   0  0  0  0  0  0  0  0  0  0  0  0
   -6.2890   23.7950  -31.6490 C   0  0  0  0  0  0  0  0  0  0  0  0
   -6.1640   24.9270  -30.9060 N   0  0  0  0  0  0  0  0  0  0  0  0
   -4.9840   25.2710  -30.3310 C   0  0  0  0  0  0  0  0  0  0  0  0
   -3.8930   24.4790  -30.4830 N   0  0  0  0  0  0  0  0  0  0  0  0
   -3.9540   23.3400  -31.2180 C   0  0  0  0  0  0  0  0  0  0  0  0
   -2.8160   22.5360  -31.3540 C   0  0  0  0  0  0  0  0  0  0  0  0
   -2.8730   21.3620  -32.1100 C   0  0  0  0  0  0  0  0  0  0  0  0
   -4.0640   20.9910  -32.7390 C   0  0  0  0  0  0  0  0  0  0  0  0
   -5.2060   21.7880  -32.6140 C   0  0  0  0  0  0  0  0  0  0  0  0
   -5.1650   22.9660  -31.8420 C   0  0  0  0  0  0  0  0  0  0  0  0
   -7.2400   19.9770  -31.2270 C   0  0  0  0  0  0  0  0  0  0  0  0
   -7.2410   18.6420  -31.6430 C   0  0  0  0  0  0  0  0  0  0  0  0
   -8.3357   17.0767  -32.6686 H   0  0  0  0  0  0  0  0  0  0  0  0
  -10.2881   18.5435  -33.1889 H   0  0  0  0  0  0  0  0  0  0  0  0
  -10.2892   20.9295  -32.4588 H   0  0  0  0  0  0  0  0  0  0  0  0
   -9.3726   22.4609  -30.6499 H   0  0  0  0  0  0  0  0  0  0  0  0
   -7.6294   22.3184  -30.1920 H   0  0  0  0  0  0  0  0  0  0  0  0
   -4.9117   26.1955  -29.7394 H   0  0  0  0  0  0  0  0  0  0  0  0
   -1.8753   22.8289  -30.8649 H   0  0  0  0  0  0  0  0  0  0  0  0
   -1.9788   20.7292  -32.2099 H   0  0  0  0  0  0  0  0  0  0  0  0
   -4.1035   20.0675  -33.3354 H   0  0  0  0  0  0  0  0  0  0  0  0
   -6.1381   21.4949  -33.1192 H   0  0  0  0  0  0  0  0  0  0  0  0
   -6.3783   20.3777  -30.6729 H   0  0  0  0  0  0  0  0  0  0  0  0
   -6.3800   17.9956  -31.4176 H   0  0  0  0  0  0  0  0  0  0  0  0
  1  2  2  0
  2  3  1  0
  3  4  2  0
  4  5  1  0
  5  6  1  0
  6  7  1  0
  7  8  2  0
  8  9  1  0
  9 10  2  0
 10 11  1  0
 11 12  2  0
 12 13  1  0
 13 14  2  0
 14 15  1  0
 15 16  2  0
  4 17  1  0
 17 18  2  0
 18  1  1  0
 16  7  1  0
 16 11  1  0
  1 19  1  0
  2 20  1  0
  3 21  1  0
  5 22  1  0
  5 23  1  0
  9 24  1  0
 12 25  1  0
 13 26  1  0
 14 27  1  0
 15 28  1  0
 17 29  1  0
 18 30  1  0
M  END
>  <UniqueID>  (31) 
28

>  <SMILES>  (31) 
c1ccc(CSc2ncnc3ccccc23)cc1

>  <Energy>  (31) 
31.51832108808159

>  <Genealogy>  (31) 
c1ccc(CSc2ncnc3ccccc23)cc1 (3D coordinates assigned)
c1ccc(CSc2ncnc3ccccc23)cc1 (optimized conformer: 31.51832108808159 kcal/mol)

>  <smiles>  (31) 
c1ccc(CSc2ncnc3ccccc23)cc1

>  <score_type>  (31) 
oracle

>  <origin>  (31) 
adgpu

>  <m_score__min__energy>  (31) 
-7.2999999999999998

>  <m_primary>  (31) 
energy

$$$$
31:0
     RDKit          3D

 46 49  0  0  0  0  0  0  0  0999 V2000
   -1.3140   19.8960  -32.3350 C   0  0  0  0  0  0  0  0  0  0  0  0
   -0.4660   20.0390  -31.2000 O   0  0  0  0  0  0  0  0  0  0  0  0
   -0.8090   19.6600  -29.8930 C   0  0  0  0  0  0  0  0  0  0  0  0
   -0.0680   18.6980  -29.1770 C   0  0  0  0  0  0  0  0  0  0  0  0
   -0.4060   18.3700  -27.8500 C   0  0  0  0  0  0  0  0  0  0  0  0
    0.3300   17.3940  -27.0900 N   0  0  0  0  0  0  0  0  0  0  0  0
    1.9930   16.9760  -27.3660 S   0  0  0  0  0  0  0  0  0  0  0  0
    2.1360   15.9420  -28.8090 C   0  0  0  0  0  0  0  0  0  0  0  0
    2.7760   18.2370  -27.6040 O   0  0  0  0  0  0  0  0  0  0  0  0
    2.5580   16.2780  -26.1610 O   0  0  0  0  0  0  0  0  0  0  0  0
   -1.4960   19.0160  -27.2480 C   0  0  0  0  0  0  0  0  0  0  0  0
   -2.2390   19.9630  -27.9540 C   0  0  0  0  0  0  0  0  0  0  0  0
   -1.9250   20.2650  -29.2810 C   0  0  0  0  0  0  0  0  0  0  0  0
   -2.6940   21.2650  -29.9650 N   0  0  0  0  0  0  0  0  0  0  0  0
   -2.6830   22.5720  -29.8550 C   0  0  0  0  0  0  0  0  0  0  0  0
   -3.7860   23.2800  -30.3970 C   0  0  0  0  0  0  0  0  0  0  0  0
   -4.7730   22.6400  -31.1790 C   0  0  0  0  0  0  0  0  0  0  0  0
   -5.8730   23.3560  -31.6610 C   0  0  0  0  0  0  0  0  0  0  0  0
   -6.0110   24.7130  -31.3640 C   0  0  0  0  0  0  0  0  0  0  0  0
   -5.0500   25.3600  -30.5850 C   0  0  0  0  0  0  0  0  0  0  0  0
   -3.9420   24.6540  -30.1030 C   0  0  0  0  0  0  0  0  0  0  0  0
   -3.0270   25.2970  -29.3400 N   0  0  0  0  0  0  0  0  0  0  0  0
   -1.9100   24.6830  -28.8780 C   0  0  0  0  0  0  0  0  0  0  0  0
   -0.9810   25.4340  -28.1480 C   0  0  0  0  0  0  0  0  0  0  0  0
    0.2320   24.8680  -27.7620 C   0  0  0  0  0  0  0  0  0  0  0  0
    0.5390   23.5630  -28.1370 C   0  0  0  0  0  0  0  0  0  0  0  0
   -0.3850   22.8000  -28.8570 C   0  0  0  0  0  0  0  0  0  0  0  0
   -1.6650   23.3150  -29.1740 C   0  0  0  0  0  0  0  0  0  0  0  0
   -2.3475   19.7217  -32.0009 H   0  0  0  0  0  0  0  0  0  0  0  0
   -1.2741   20.8135  -32.9404 H   0  0  0  0  0  0  0  0  0  0  0  0
   -0.9755   19.0423  -32.9404 H   0  0  0  0  0  0  0  0  0  0  0  0
    0.7841   18.1978  -29.6605 H   0  0  0  0  0  0  0  0  0  0  0  0
   -0.1370   16.9310  -26.2780 H   0  0  0  0  0  0  0  0  0  0  0  0
    2.2806   14.8968  -28.4982 H   0  0  0  0  0  0  0  0  0  0  0  0
    1.2182   16.0223  -29.4100 H   0  0  0  0  0  0  0  0  0  0  0  0
    2.9976   16.2683  -29.4100 H   0  0  0  0  0  0  0  0  0  0  0  0
   -1.7675   18.7738  -26.2099 H   0  0  0  0  0  0  0  0  0  0  0  0
   -3.0785   20.4756  -27.4616 H   0  0  0  0  0  0  0  0  0  0  0  0
   -4.6754   21.5691  -31.4108 H   0  0  0  0  0  0  0  0  0  0  0  0
   -6.6313   22.8489  -32.2756 H   0  0  0  0  0  0  0  0  0  0  0  0
   -6.8780   25.2732  -31.7442 H   0  0  0  0  0  0  0  0  0  0  0  0
   -5.1641   26.4284  -30.3493 H   0  0  0  0  0  0  0  0  0  0  0  0
   -1.2098   26.4755  -27.8780 H   0  0  0  0  0  0  0  0  0  0  0  0
    0.9460   25.4513  -27.1619 H   0  0  0  0  0  0  0  0  0  0  0  0
    1.5131   23.1302  -27.8655 H   0  0  0  0  0  0  0  0  0  0  0  0
   -0.1135   21.7848  -29.1819 H   0  0  0  0  0  0  0  0  0  0  0  0
  1  2  1  0
  2  3  1  0
  3  4  2  0
  4  5  1  0
  5  6  1  0
  6  7  1  0
  7  8  1  0
  7  9  2  0
  7 10  2  0
  5 11  2  0
 11 12  1  0
 12 13  2  0
 13 14  1  0
 14 15  2  3
 15 16  1  0
 16 17  2  0
 17 18  1  0
 18 19  2  0
 19 20  1  0
 20 21  2  0
 21 22  1  0
 22 23  1  0
 23 24  2  0
 24 25  1  0
 25 26  2  0
 26 27  1  0
 27 28  2  0
 13  3  1  0
 28 15  1  0
 21 16  1  0
 28 23  1  0
  1 29  1  0
  1 30  1  0
  1 31  1  0
  4 32  1  0
  6 33  1  0
  8 34  1  0
  8 35  1  0
  8 36  1  0
 11 37  1  0
 12 38  1  0
 17 39  1  0
 18 40  1  0
 19 41  1  0
 20 42  1  0
 24 43  1  0
 25 44  1  0
 26 45  1  0
 27 46  1  0
M  CHG  1  22  -1
M  END
>  <UniqueID>  (32) 
29

>  <SMILES>  (32) 
COc1cc(NS(C)(=O)=O)ccc1N=c1c2ccccc2[n-]c2ccccc12

>  <Energy>  (32) 
76.64647230758327

>  <Genealogy>  (32) 
COc1cc(NS(C)(=O)=O)ccc1N=c1c2ccccc2[n-]c2ccccc12 (protonated)
COc1cc(NS(C)(=O)=O)ccc1N=c1c2ccccc2[n-]c2ccccc12 (3D coordinates assigned)
COc1cc(NS(C)(=O)=O)ccc1N=c1c2ccccc2[n-]c2ccccc12 (optimized conformer: 76.64647230758327 kcal/mol)

>  <smiles>  (32) 
COc1cc(NS(C)(=O)=O)ccc1N=c1c2ccccc2[nH]c2ccccc12

>  <score_type>  (32) 
oracle

>  <origin>  (32) 
adgpu

>  <m_score__min__energy>  (32) 
-9.2599999999999998

>  <m_primary>  (32) 
energy

$$$$
32:0
     RDKit          3D

 27 28  0  0  0  0  0  0  0  0999 V2000
   -3.7100   25.2350  -30.0620 N   0  0  0  0  0  0  0  0  0  0  0  0
   -4.8250   24.4080  -30.4020 C   0  0  0  0  0  0  0  0  0  0  0  0
   -6.0360   24.9870  -30.8080 C   0  0  0  0  0  0  0  0  0  0  0  0
   -7.1270   24.1790  -31.1410 C   0  0  0  0  0  0  0  0  0  0  0  0
   -7.0230   22.7810  -31.0630 C   0  0  0  0  0  0  0  0  0  0  0  0
   -8.1840   21.9100  -31.4580 C   0  0  0  0  0  0  0  0  0  0  0  0
   -7.6870   20.6290  -32.0700 C   0  0  0  0  0  0  0  0  0  0  0  0
   -6.7200   20.6580  -33.0870 C   0  0  0  0  0  0  0  0  0  0  0  0
   -6.2330   19.4650  -33.6310 C   0  0  0  0  0  0  0  0  0  0  0  0
   -6.7010   18.2340  -33.1570 C   0  0  0  0  0  0  0  0  0  0  0  0
   -6.0870   16.7400  -33.8380 Cl  0  0  0  0  0  0  0  0  0  0  0  0
   -7.6560   18.1990  -32.1350 C   0  0  0  0  0  0  0  0  0  0  0  0
   -8.1450   19.3900  -31.5900 C   0  0  0  0  0  0  0  0  0  0  0  0
   -5.8060   22.2040  -30.6670 C   0  0  0  0  0  0  0  0  0  0  0  0
   -4.7160   23.0130  -30.3340 C   0  0  0  0  0  0  0  0  0  0  0  0
   -3.1110   25.6570  -30.8060 H   0  0  0  0  0  0  0  0  0  0  0  0
   -3.4750   25.4330  -29.0630 H   0  0  0  0  0  0  0  0  0  0  0  0
   -6.1278   26.0817  -30.8647 H   0  0  0  0  0  0  0  0  0  0  0  0
   -8.0713   24.6405  -31.4656 H   0  0  0  0  0  0  0  0  0  0  0  0
   -8.7842   21.6777  -30.5659 H   0  0  0  0  0  0  0  0  0  0  0  0
   -8.7999   22.4452  -32.1957 H   0  0  0  0  0  0  0  0  0  0  0  0
   -6.3437   21.6229  -33.4577 H   0  0  0  0  0  0  0  0  0  0  0  0
   -5.4807   19.4943  -34.4330 H   0  0  0  0  0  0  0  0  0  0  0  0
   -8.0228   17.2323  -31.7595 H   0  0  0  0  0  0  0  0  0  0  0  0
   -8.8911   19.3572  -30.7824 H   0  0  0  0  0  0  0  0  0  0  0  0
   -5.7098   21.1093  -30.6185 H   0  0  0  0  0  0  0  0  0  0  0  0
   -3.7686   22.5524  -30.0172 H   0  0  0  0  0  0  0  0  0  0  0  0
  1  2  1  0
  2  3  2  0
  3  4  1  0
  4  5  2  0
  5  6  1  0
  6  7  1  0
  7  8  2  0
  8  9  1  0
  9 10  2  0
 10 11  1  0
 10 12  1  0
 12 13  2  0
  5 14  1  0
 14 15  2  0
 15  2  1  0
 13  7  1  0
  1 16  1  0
  1 17  1  0
  3 18  1  0
  4 19  1  0
  6 20  1  0
  6 21  1  0
  8 22  1  0
  9 23  1  0
 12 24  1  0
 13 25  1  0
 14 26  1  0
 15 27  1  0
M  END
>  <UniqueID>  (33) 
30

>  <SMILES>  (33) 
Nc1ccc(Cc2ccc(Cl)cc2)cc1

>  <Energy>  (33) 
24.964581275083834

>  <Genealogy>  (33) 
Nc1ccc(Cc2ccc(Cl)cc2)cc1 (3D coordinates assigned)
Nc1ccc(Cc2ccc(Cl)cc2)cc1 (optimized conformer: 24.964581275083834 kcal/mol)

>  <smiles>  (33) 
Nc1ccc(Cc2ccc(Cl)cc2)cc1

>  <score_type>  (33) 
oracle

>  <origin>  (33) 
adgpu

>  <m_score__min__energy>  (33) 
-7.8799999999999999

>  <m_primary>  (33) 
energy

$$$$
33:0
     RDKit          3D

 33 34  0  0  0  0  0  0  0  0999 V2000
   -5.4800   19.4890  -33.8850 C   0  0  0  0  0  0  0  0  0  0  0  0
   -5.6360   20.5290  -32.7610 C   0  0  1  0  0  0  0  0  0  0  0  0
   -4.9660   21.8090  -33.0910 N   0  0  0  0  0  0  0  0  0  0  0  0
   -3.9770   22.2020  -32.0740 C   0  0  0  0  0  0  0  0  0  0  0  0
   -4.5650   23.2150  -31.1310 C   0  0  0  0  0  0  0  0  0  0  0  0
   -4.2150   23.2160  -29.7730 C   0  0  0  0  0  0  0  0  0  0  0  0
   -4.7500   24.1910  -28.9290 C   0  0  0  0  0  0  0  0  0  0  0  0
   -5.6160   25.1570  -29.4440 C   0  0  0  0  0  0  0  0  0  0  0  0
   -5.9340   25.1330  -30.8040 C   0  0  0  0  0  0  0  0  0  0  0  0
   -5.4030   24.1760  -31.6100 N   0  0  0  0  0  0  0  0  0  0  0  0
   -7.1110   20.7610  -32.4770 C   0  0  0  0  0  0  0  0  0  0  0  0
   -7.5620   21.9920  -31.9620 C   0  0  0  0  0  0  0  0  0  0  0  0
   -8.9210   22.1960  -31.7050 C   0  0  0  0  0  0  0  0  0  0  0  0
   -9.8430   21.1780  -31.9590 C   0  0  0  0  0  0  0  0  0  0  0  0
   -9.4080   19.9530  -32.4710 C   0  0  0  0  0  0  0  0  0  0  0  0
   -8.0500   19.7440  -32.7300 C   0  0  0  0  0  0  0  0  0  0  0  0
   -5.3305   18.4923  -33.4442 H   0  0  0  0  0  0  0  0  0  0  0  0
   -6.3872   19.4825  -34.5070 H   0  0  0  0  0  0  0  0  0  0  0  0
   -4.6108   19.7490  -34.5070 H   0  0  0  0  0  0  0  0  0  0  0  0
   -5.1461   20.1288  -31.8611 H   0  0  0  0  0  0  0  0  0  0  0  0
   -4.4940   21.7400  -34.0230 H   0  0  0  0  0  0  0  0  0  0  0  0
   -5.6920   22.5640  -33.1460 H   0  0  0  0  0  0  0  0  0  0  0  0
   -3.6705   21.3123  -31.5043 H   0  0  0  0  0  0  0  0  0  0  0  0
   -3.1069   22.6481  -32.5778 H   0  0  0  0  0  0  0  0  0  0  0  0
   -3.5256   22.4560  -29.3766 H   0  0  0  0  0  0  0  0  0  0  0  0
   -4.4896   24.1979  -27.8603 H   0  0  0  0  0  0  0  0  0  0  0  0
   -6.0432   25.9284  -28.7864 H   0  0  0  0  0  0  0  0  0  0  0  0
   -6.6145   25.8890  -31.2229 H   0  0  0  0  0  0  0  0  0  0  0  0
   -6.8406   22.7977  -31.7608 H   0  0  0  0  0  0  0  0  0  0  0  0
   -9.2648   23.1600  -31.3020 H   0  0  0  0  0  0  0  0  0  0  0  0
  -10.9118   21.3408  -31.7559 H   0  0  0  0  0  0  0  0  0  0  0  0
  -10.1349   19.1519  -32.6706 H   0  0  0  0  0  0  0  0  0  0  0  0
   -7.7134   18.7780  -33.1343 H   0  0  0  0  0  0  0  0  0  0  0  0
  1  2  1  0
  2  3  1  0
  3  4  1  0
  4  5  1  0
  5  6  2  0
  6  7  1  0
  7  8  2  0
  8  9  1  0
  9 10  2  0
  2 11  1  0
 11 12  2  0
 12 13  1  0
 13 14  2  0
 14 15  1  0
 15 16  2  0
 10  5  1  0
 16 11  1  0
  1 17  1  0
  1 18  1  0
  1 19  1  0
  2 20  1  1
  3 21  1  0
  3 22  1  0
  4 23  1  0
  4 24  1  0
  6 25  1  0
  7 26  1  0
  8 27  1  0
  9 28  1  0
 12 29  1  0
 13 30  1  0
 14 31  1  0
 15 32  1  0
 16 33  1  0
M  CHG  1   3   1
M  END
>  <UniqueID>  (34) 
31

>  <SMILES>  (34) 
C[C@@H]([NH2+]Cc1ccccn1)c1ccccc1

>  <Energy>  (34) 
33.55708198674388

>  <Genealogy>  (34) 
CC([NH2+]Cc1ccccn1)c1ccccc1 (protonated)
C[C@@H]([NH2+]Cc1ccccn1)c1ccccc1 (chirality)
C[C@@H]([NH2+]Cc1ccccn1)c1ccccc1 (3D coordinates assigned)
C[C@@H]([NH2+]Cc1ccccn1)c1ccccc1 (optimized conformer: 33.55708198674388 kcal/mol)

>  <smiles>  (34) 
CC(NCc1ccccn1)c1ccccc1

>  <score_type>  (34) 
oracle

>  <origin>  (34) 
adgpu

>  <m_score__min__energy>  (34) 
-6.3399999999999999

>  <m_primary>  (34) 
energy

$$$$
34:0
     RDKit          3D

 46 49  0  0  0  0  0  0  0  0999 V2000
   -2.5980   20.0870  -27.1760 C   0  0  0  0  0  0  0  0  0  0  0  0
   -2.2760   20.8780  -28.4090 C   0  0  0  0  0  0  0  0  0  0  0  0
   -1.8110   20.2300  -29.5630 C   0  0  0  0  0  0  0  0  0  0  0  0
   -1.5520   20.9620  -30.7240 C   0  0  0  0  0  0  0  0  0  0  0  0
   -1.7600   22.3430  -30.7440 C   0  0  0  0  0  0  0  0  0  0  0  0
   -2.2280   23.0090  -29.5980 C   0  0  0  0  0  0  0  0  0  0  0  0
   -2.4530   24.4740  -29.6300 C   0  0  0  0  0  0  0  0  0  0  0  0
   -1.6880   25.2310  -28.9760 O   0  0  0  0  0  0  0  0  0  0  0  0
   -3.4880   25.0690  -30.4260 N   0  0  0  0  0  0  0  0  0  0  0  0
   -4.8450   24.6120  -30.5280 C   0  0  0  0  0  0  0  0  0  0  0  0
   -5.9190   25.3800  -30.0480 C   0  0  0  0  0  0  0  0  0  0  0  0
   -7.2270   24.9080  -30.1660 C   0  0  0  0  0  0  0  0  0  0  0  0
   -7.4770   23.6760  -30.7740 C   0  0  0  0  0  0  0  0  0  0  0  0
   -6.4170   22.9040  -31.2830 C   0  0  0  0  0  0  0  0  0  0  0  0
   -6.6810   21.5980  -31.9370 C   0  0  0  0  0  0  0  0  0  0  0  0
   -7.9890   21.0910  -32.0140 C   0  0  0  0  0  0  0  0  0  0  0  0
   -8.2370   19.8640  -32.6290 C   0  0  0  0  0  0  0  0  0  0  0  0
   -7.1850   19.1250  -33.1740 C   0  0  0  0  0  0  0  0  0  0  0  0
   -5.8660   19.6080  -33.1120 C   0  0  0  0  0  0  0  0  0  0  0  0
   -4.7470   18.8260  -33.6950 C   0  0  0  0  0  0  0  0  0  0  0  0
   -4.9980   17.7960  -34.5510 N   0  0  0  0  0  0  0  0  0  0  0  0
   -3.9880   17.0690  -35.0960 C   0  0  0  0  0  0  0  0  0  0  0  0
   -2.6650   17.3720  -34.7790 C   0  0  0  0  0  0  0  0  0  0  0  0
   -2.4180   18.4250  -33.9020 C   0  0  0  0  0  0  0  0  0  0  0  0
   -3.4570   19.1290  -33.3790 N   0  0  0  0  0  0  0  0  0  0  0  0
   -5.6250   20.8480  -32.4900 C   0  0  0  0  0  0  0  0  0  0  0  0
   -5.1010   23.3900  -31.1600 C   0  0  0  0  0  0  0  0  0  0  0  0
   -2.5050   22.2620  -28.4390 C   0  0  0  0  0  0  0  0  0  0  0  0
   -2.3553   20.6833  -26.2841 H   0  0  0  0  0  0  0  0  0  0  0  0
   -3.6693   19.8374  -27.1698 H   0  0  0  0  0  0  0  0  0  0  0  0
   -2.0056   19.1602  -27.1698 H   0  0  0  0  0  0  0  0  0  0  0  0
   -1.6498   19.1419  -29.5535 H   0  0  0  0  0  0  0  0  0  0  0  0
   -1.1833   20.4496  -31.6248 H   0  0  0  0  0  0  0  0  0  0  0  0
   -1.5563   22.9131  -31.6624 H   0  0  0  0  0  0  0  0  0  0  0  0
   -5.7284   26.3560  -29.5779 H   0  0  0  0  0  0  0  0  0  0  0  0
   -8.0636   25.5083  -29.7789 H   0  0  0  0  0  0  0  0  0  0  0  0
   -8.5099   23.3067  -30.8555 H   0  0  0  0  0  0  0  0  0  0  0  0
   -8.8235   21.6659  -31.5862 H   0  0  0  0  0  0  0  0  0  0  0  0
   -9.2652   19.4770  -32.6849 H   0  0  0  0  0  0  0  0  0  0  0  0
   -7.3898   18.1575  -33.6556 H   0  0  0  0  0  0  0  0  0  0  0  0
   -4.2139   16.2428  -35.7862 H   0  0  0  0  0  0  0  0  0  0  0  0
   -1.8356   16.7930  -35.2114 H   0  0  0  0  0  0  0  0  0  0  0  0
   -1.3841   18.6868  -33.6328 H   0  0  0  0  0  0  0  0  0  0  0  0
   -4.5973   21.2365  -32.4352 H   0  0  0  0  0  0  0  0  0  0  0  0
   -4.2644   22.8021  -31.5655 H   0  0  0  0  0  0  0  0  0  0  0  0
   -2.9049   22.7675  -27.5476 H   0  0  0  0  0  0  0  0  0  0  0  0
  1  2  1  0
  2  3  2  0
  3  4  1  0
  4  5  2  0
  5  6  1  0
  6  7  1  0
  7  8  2  0
  7  9  1  0
  9 10  1  0
 10 11  2  0
 11 12  1  0
 12 13  2  0
 13 14  1  0
 14 15  1  0
 15 16  2  0
 16 17  1  0
 17 18  2  0
 18 19  1  0
 19 20  1  0
 20 21  2  0
 21 22  1  0
 22 23  2  0
 23 24  1  0
 24 25  2  0
 19 26  2  0
 14 27  2  0
  6 28  2  0
 28  2  1  0
 27 10  1  0
 26 15  1  0
 25 20  1  0
  1 29  1  0
  1 30  1  0
  1 31  1  0
  3 32  1  0
  4 33  1  0
  5 34  1  0
 11 35  1  0
 12 36  1  0
 13 37  1  0
 16 38  1  0
 17 39  1  0
 18 40  1  0
 22 41  1  0
 23 42  1  0
 24 43  1  0
 26 44  1  0
 27 45  1  0
 28 46  1  0
M  CHG  1   9  -1
M  END
>  <UniqueID>  (35) 
32

>  <SMILES>  (35) 
Cc1cccc(C(=O)[N-]c2cccc(-c3cccc(-c4ncccn4)c3)c2)c1

>  <Energy>  (35) 
64.69891090683372

>  <Genealogy>  (35) 
Cc1cccc(C(=O)[N-]c2cccc(-c3cccc(-c4ncccn4)c3)c2)c1 (protonated)
Cc1cccc(C(=O)[N-]c2cccc(-c3cccc(-c4ncccn4)c3)c2)c1 (3D coordinates assigned)
Cc1cccc(C(=O)[N-]c2cccc(-c3cccc(-c4ncccn4)c3)c2)c1 (optimized conformer: 64.69891090683372 kcal/mol)

>  <smiles>  (35) 
Cc1cccc(C(=O)Nc2cccc(-c3cccc(-c4ncccn4)c3)c2)c1

>  <score_type>  (35) 
oracle

>  <origin>  (35) 
adgpu

>  <m_score__min__energy>  (35) 
-11.68

>  <m_primary>  (35) 
energy

$$$$
35:0
     RDKit          3D

 38 40  0  0  0  0  0  0  0  0999 V2000
   -2.9230   24.5290  -27.2320 C   0  0  0  0  0  0  0  0  0  0  0  0
   -2.3100   24.7140  -28.6160 C   0  0  0  0  0  0  0  0  0  0  0  0
   -3.2200   24.1640  -29.6780 C   0  0  0  0  0  0  0  0  0  0  0  0
   -4.0010   24.9450  -30.4500 N   0  0  0  0  0  0  0  0  0  0  0  0
   -4.6260   24.1480  -31.3040 N   0  0  0  0  0  0  0  0  0  0  0  0
   -4.2230   22.8880  -31.0410 C   0  0  0  0  0  0  0  0  0  0  0  0
   -4.7030   21.7140  -31.8040 C   0  0  0  0  0  0  0  0  0  0  0  0
   -6.0160   21.2330  -31.6520 C   0  0  0  0  0  0  0  0  0  0  0  0
   -6.4460   20.1140  -32.3710 C   0  0  0  0  0  0  0  0  0  0  0  0
   -5.5750   19.4730  -33.2570 C   0  0  0  0  0  0  0  0  0  0  0  0
   -6.1170   18.0680  -34.1570 Cl  0  0  0  0  0  0  0  0  0  0  0  0
   -4.2750   19.9570  -33.4300 C   0  0  0  0  0  0  0  0  0  0  0  0
   -3.8420   21.0760  -32.7110 C   0  0  0  0  0  0  0  0  0  0  0  0
   -3.3370   22.8620  -30.0190 N   0  0  0  0  0  0  0  0  0  0  0  0
   -2.5720   21.7510  -29.5220 C   0  0  0  0  0  0  0  0  0  0  0  0
   -2.9540   21.1260  -28.3250 C   0  0  0  0  0  0  0  0  0  0  0  0
   -2.2370   20.0290  -27.8400 C   0  0  0  0  0  0  0  0  0  0  0  0
   -2.7270   19.2520  -26.3450 Cl  0  0  0  0  0  0  0  0  0  0  0  0
   -1.1370   19.5470  -28.5500 C   0  0  0  0  0  0  0  0  0  0  0  0
   -0.7470   20.1610  -29.7440 C   0  0  0  0  0  0  0  0  0  0  0  0
   -1.4590   21.2700  -30.2390 C   0  0  0  0  0  0  0  0  0  0  0  0
   -1.0910   21.9190  -31.4280 O   0  0  0  0  0  0  0  0  0  0  0  0
   -0.5340   21.2680  -32.5640 C   0  0  0  0  0  0  0  0  0  0  0  0
   -2.1693   24.7565  -26.4638 H   0  0  0  0  0  0  0  0  0  0  0  0
   -3.7804   25.2084  -27.1170 H   0  0  0  0  0  0  0  0  0  0  0  0
   -3.2614   23.4887  -27.1170 H   0  0  0  0  0  0  0  0  0  0  0  0
   -2.1485   25.7866  -28.7989 H   0  0  0  0  0  0  0  0  0  0  0  0
   -1.3536   24.1720  -28.6544 H   0  0  0  0  0  0  0  0  0  0  0  0
   -6.7081   21.7401  -30.9637 H   0  0  0  0  0  0  0  0  0  0  0  0
   -7.4711   19.7373  -32.2395 H   0  0  0  0  0  0  0  0  0  0  0  0
   -3.5917   19.4573  -34.1324 H   0  0  0  0  0  0  0  0  0  0  0  0
   -2.8210   21.4583  -32.8571 H   0  0  0  0  0  0  0  0  0  0  0  0
   -3.8231   21.5019  -27.7652 H   0  0  0  0  0  0  0  0  0  0  0  0
   -0.5750   18.6814  -28.1693 H   0  0  0  0  0  0  0  0  0  0  0  0
    0.1207   19.7755  -30.2995 H   0  0  0  0  0  0  0  0  0  0  0  0
    0.1478   20.4711  -32.2323 H   0  0  0  0  0  0  0  0  0  0  0  0
   -1.3421   20.8309  -33.1690 H   0  0  0  0  0  0  0  0  0  0  0  0
    0.0228   21.9987  -33.1690 H   0  0  0  0  0  0  0  0  0  0  0  0
  1  2  1  0
  2  3  1  0
  3  4  2  0
  4  5  1  0
  5  6  2  0
  6  7  1  0
  7  8  2  0
  8  9  1  0
  9 10  2  0
 10 11  1  0
 10 12  1  0
 12 13  2  0
  6 14  1  0
 14 15  1  0
 15 16  2  0
 16 17  1  0
 17 18  1  0
 17 19  2  0
 19 20  1  0
 20 21  2  0
 21 22  1  0
 22 23  1  0
 14  3  1  0
 21 15  1  0
 13  7  1  0
  1 24  1  0
  1 25  1  0
  1 26  1  0
  2 27  1  0
  2 28  1  0
  8 29  1  0
  9 30  1  0
 12 31  1  0
 13 32  1  0
 16 33  1  0
 19 34  1  0
 20 35  1  0
 23 36  1  0
 23 37  1  0
 23 38  1  0
M  END
>  <UniqueID>  (36) 
33

>  <SMILES>  (36) 
CCc1nnc(-c2ccc(Cl)cc2)n1-c1cc(Cl)ccc1OC

>  <Energy>  (36) 
79.76326417175954

>  <Genealogy>  (36) 
CCc1nnc(-c2ccc(Cl)cc2)n1-c1cc(Cl)ccc1OC (3D coordinates assigned)
CCc1nnc(-c2ccc(Cl)cc2)n1-c1cc(Cl)ccc1OC (optimized conformer: 79.76326417175954 kcal/mol)

>  <smiles>  (36) 
CCc1nnc(-c2ccc(Cl)cc2)n1-c1cc(Cl)ccc1OC

>  <score_type>  (36) 
oracle

>  <origin>  (36) 
adgpu

>  <m_score__min__energy>  (36) 
-7.96

>  <m_primary>  (36) 
energy

$$$$
36:0
     RDKit          3D

 28 29  0  0  0  0  0  0  0  0999 V2000
   -3.0920   20.4470  -32.4730 C   0  0  0  0  0  0  0  0  0  0  0  0
   -4.2160   21.3810  -32.0920 C   0  0  0  0  0  0  0  0  0  0  0  0
   -3.8980   22.6630  -31.6210 C   0  0  0  0  0  0  0  0  0  0  0  0
   -4.9160   23.5420  -31.2650 C   0  0  0  0  0  0  0  0  0  0  0  0
   -4.6360   24.6950  -30.8400 O   0  0  0  0  0  0  0  0  0  0  0  0
   -6.2450   23.1430  -31.3760 C   0  0  0  0  0  0  0  0  0  0  0  0
   -6.5500   21.8580  -31.8490 C   0  0  0  0  0  0  0  0  0  0  0  0
   -7.9990   21.4490  -31.9600 C   0  0  0  0  0  0  0  0  0  0  0  0
   -5.5340   20.9960  -32.1990 N   0  0  0  0  0  0  0  0  0  0  0  0
   -5.8530   19.6780  -32.6830 C   0  0  0  0  0  0  0  0  0  0  0  0
   -5.7950   19.3980  -34.0560 C   0  0  0  0  0  0  0  0  0  0  0  0
   -6.1050   18.1180  -34.5260 C   0  0  0  0  0  0  0  0  0  0  0  0
   -6.4740   17.1120  -33.6250 C   0  0  0  0  0  0  0  0  0  0  0  0
   -6.8630   15.5070  -34.2160 Cl  0  0  0  0  0  0  0  0  0  0  0  0
   -6.5340   17.3880  -32.2550 C   0  0  0  0  0  0  0  0  0  0  0  0
   -6.2240   18.6670  -31.7830 C   0  0  0  0  0  0  0  0  0  0  0  0
   -2.6179   20.0530  -31.5620 H   0  0  0  0  0  0  0  0  0  0  0  0
   -3.4937   19.6131  -33.0673 H   0  0  0  0  0  0  0  0  0  0  0  0
   -2.3457   20.9946  -33.0673 H   0  0  0  0  0  0  0  0  0  0  0  0
   -2.8462   22.9729  -31.5332 H   0  0  0  0  0  0  0  0  0  0  0  0
   -7.0536   23.8332  -31.0937 H   0  0  0  0  0  0  0  0  0  0  0  0
   -8.4243   21.3290  -30.9527 H   0  0  0  0  0  0  0  0  0  0  0  0
   -8.5582   22.2244  -32.5041 H   0  0  0  0  0  0  0  0  0  0  0  0
   -8.0703   20.4956  -32.5041 H   0  0  0  0  0  0  0  0  0  0  0  0
   -5.5049   20.1874  -34.7650 H   0  0  0  0  0  0  0  0  0  0  0  0
   -6.0589   17.9016  -35.6035 H   0  0  0  0  0  0  0  0  0  0  0  0
   -6.8256   16.5975  -31.5479 H   0  0  0  0  0  0  0  0  0  0  0  0
   -6.2709   18.8811  -30.7051 H   0  0  0  0  0  0  0  0  0  0  0  0
  1  2  1  0
  2  3  2  0
  3  4  1  0
  4  5  2  0
  4  6  1  0
  6  7  2  0
  7  8  1  0
  7  9  1  0
  9 10  1  0
 10 11  2  0
 11 12  1  0
 12 13  2  0
 13 14  1  0
 13 15  1  0
 15 16  2  0
  9  2  1  0
 16 10  1  0
  1 17  1  0
  1 18  1  0
  1 19  1  0
  3 20  1  0
  6 21  1  0
  8 22  1  0
  8 23  1  0
  8 24  1  0
 11 25  1  0
 12 26  1  0
 15 27  1  0
 16 28  1  0
M  END
>  <UniqueID>  (37) 
34

>  <SMILES>  (37) 
Cc1cc(=O)cc(C)n1-c1ccc(Cl)cc1

>  <Energy>  (37) 
38.746626834923504

>  <Genealogy>  (37) 
Cc1cc(=O)cc(C)n1-c1ccc(Cl)cc1 (3D coordinates assigned)
Cc1cc(=O)cc(C)n1-c1ccc(Cl)cc1 (optimized conformer: 38.746626834923504 kcal/mol)

>  <smiles>  (37) 
Cc1cc(=O)cc(C)n1-c1ccc(Cl)cc1

>  <score_type>  (37) 
oracle

>  <origin>  (37) 
adgpu

>  <m_score__min__energy>  (37) 
-6.9900000000000002

>  <m_primary>  (37) 
energy

$$$$
37:0
     RDKit          3D

 38 39  0  0  0  0  0  0  0  0999 V2000
   -2.7420   24.5220  -27.2950 C   0  0  0  0  0  0  0  0  0  0  0  0
   -2.4550   24.5640  -28.7910 C   0  0  0  0  0  0  0  0  0  0  0  0
   -3.6980   24.4470  -29.5460 N   0  0  0  0  0  0  0  0  0  0  0  0
   -4.8130   23.8060  -29.1590 C   0  0  0  0  0  0  0  0  0  0  0  0
   -5.6830   23.8890  -30.2240 C   0  0  0  0  0  0  0  0  0  0  0  0
   -7.0650   23.3060  -30.3010 C   0  0  0  0  0  0  0  0  0  0  0  0
   -7.6490   23.4430  -31.6470 N   0  0  0  0  0  0  0  0  0  0  0  0
   -8.6890   22.4390  -31.9460 C   0  0  0  0  0  0  0  0  0  0  0  0
   -8.1170   21.0480  -32.0870 C   0  0  0  0  0  0  0  0  0  0  0  0
   -8.8430   19.9330  -31.6420 C   0  0  0  0  0  0  0  0  0  0  0  0
   -8.3210   18.6440  -31.7910 C   0  0  0  0  0  0  0  0  0  0  0  0
   -7.0600   18.4500  -32.3860 C   0  0  0  0  0  0  0  0  0  0  0  0
   -6.4960   17.1360  -32.5550 N   0  0  0  0  0  0  0  0  0  0  0  0
   -6.4630   16.4300  -33.8310 C   0  0  0  0  0  0  0  0  0  0  0  0
   -6.3370   19.5700  -32.8270 C   0  0  0  0  0  0  0  0  0  0  0  0
   -6.8600   20.8570  -32.6780 C   0  0  0  0  0  0  0  0  0  0  0  0
   -5.0770   24.5640  -31.2220 N   0  0  0  0  0  0  0  0  0  0  0  0
   -3.8680   24.8850  -30.7830 N   0  0  0  0  0  0  0  0  0  0  0  0
   -1.8037   24.6593  -26.7376 H   0  0  0  0  0  0  0  0  0  0  0  0
   -3.4448   25.3269  -27.0337 H   0  0  0  0  0  0  0  0  0  0  0  0
   -3.1847   23.5495  -27.0337 H   0  0  0  0  0  0  0  0  0  0  0  0
   -1.9666   25.5175  -29.0407 H   0  0  0  0  0  0  0  0  0  0  0  0
   -1.7951   23.7240  -29.0536 H   0  0  0  0  0  0  0  0  0  0  0  0
   -4.9942   23.3157  -28.1911 H   0  0  0  0  0  0  0  0  0  0  0  0
   -7.0145   22.2379  -30.0431 H   0  0  0  0  0  0  0  0  0  0  0  0
   -7.7052   23.8564  -29.5958 H   0  0  0  0  0  0  0  0  0  0  0  0
   -6.8880   23.3590  -32.3620 H   0  0  0  0  0  0  0  0  0  0  0  0
   -8.0550   24.4030  -31.7410 H   0  0  0  0  0  0  0  0  0  0  0  0
   -9.4254   22.4379  -31.1288 H   0  0  0  0  0  0  0  0  0  0  0  0
   -9.1546   22.7110  -32.9048 H   0  0  0  0  0  0  0  0  0  0  0  0
   -9.8282   20.0733  -31.1733 H   0  0  0  0  0  0  0  0  0  0  0  0
   -8.8995   17.7763  -31.4410 H   0  0  0  0  0  0  0  0  0  0  0  0
   -6.0850   16.6530  -31.7240 H   0  0  0  0  0  0  0  0  0  0  0  0
   -6.4123   15.3463  -33.6492 H   0  0  0  0  0  0  0  0  0  0  0  0
   -7.3730   16.6637  -34.4030 H   0  0  0  0  0  0  0  0  0  0  0  0
   -5.5787   16.7476  -34.4030 H   0  0  0  0  0  0  0  0  0  0  0  0
   -5.3504   19.4330  -33.2938 H   0  0  0  0  0  0  0  0  0  0  0  0
   -6.2821   21.7257  -33.0265 H   0  0  0  0  0  0  0  0  0  0  0  0
  1  2  1  0
  2  3  1  0
  3  4  1  0
  4  5  2  0
  5  6  1  0
  6  7  1  0
  7  8  1  0
  8  9  1  0
  9 10  2  0
 10 11  1  0
 11 12  2  0
 12 13  1  0
 13 14  1  0
 12 15  1  0
 15 16  2  0
  5 17  1  0
 17 18  2  0
 18  3  1  0
 16  9  1  0
  1 19  1  0
  1 20  1  0
  1 21  1  0
  2 22  1  0
  2 23  1  0
  4 24  1  0
  6 25  1  0
  6 26  1  0
  7 27  1  0
  7 28  1  0
  8 29  1  0
  8 30  1  0
 10 31  1  0
 11 32  1  0
 13 33  1  0
 14 34  1  0
 14 35  1  0
 14 36  1  0
 15 37  1  0
 16 38  1  0
M  CHG  1   7   1
M  END
>  <UniqueID>  (38) 
35

>  <SMILES>  (38) 
CCn1cc(C[NH2+]Cc2ccc(NC)cc2)nn1

>  <Energy>  (38) 
66.32786912681097

>  <Genealogy>  (38) 
CCn1cc(C[NH2+]Cc2ccc(NC)cc2)nn1 (protonated)
CCn1cc(C[NH2+]Cc2ccc(NC)cc2)nn1 (3D coordinates assigned)
CCn1cc(C[NH2+]Cc2ccc(NC)cc2)nn1 (optimized conformer: 66.32786912681097 kcal/mol)

>  <smiles>  (38) 
CCn1cc(CNCc2ccc(NC)cc2)nn1

>  <score_type>  (38) 
oracle

>  <origin>  (38) 
adgpu

>  <m_score__min__energy>  (38) 
-6.3899999999999997

>  <m_primary>  (38) 
energy

$$$$
38:0
     RDKit          3D

 49 51  0  0  0  0  0  0  0  0999 V2000
   -8.9380   20.9800  -31.9440 C   0  0  0  0  0  0  0  0  0  0  0  0
   -8.4980   21.8750  -30.7760 C   0  0  0  0  0  0  0  0  0  0  0  0
   -7.0680   22.2780  -30.8500 N   0  0  1  0  0  0  0  0  0  0  0  0
   -6.6550   22.4510  -32.2730 C   0  0  0  0  0  0  0  0  0  0  0  0
   -5.4990   21.5640  -32.6840 C   0  0  0  0  0  0  0  0  0  0  0  0
   -4.1780   22.0250  -32.5560 C   0  0  0  0  0  0  0  0  0  0  0  0
   -3.1070   21.2080  -32.9230 C   0  0  0  0  0  0  0  0  0  0  0  0
   -3.3420   19.9270  -33.4240 C   0  0  0  0  0  0  0  0  0  0  0  0
   -4.6500   19.4540  -33.5790 C   0  0  0  0  0  0  0  0  0  0  0  0
   -4.8320   18.1510  -34.0660 O   0  0  0  0  0  0  0  0  0  0  0  0
   -6.0960   17.5030  -34.1720 C   0  0  0  0  0  0  0  0  0  0  0  0
   -5.7300   20.2890  -33.2320 C   0  0  0  0  0  0  0  0  0  0  0  0
   -6.8740   23.5300  -30.0570 C   0  0  0  0  0  0  0  0  0  0  0  0
   -5.4110   23.8550  -29.8230 C   0  0  0  0  0  0  0  0  0  0  0  0
   -4.6430   23.0560  -28.9620 C   0  0  0  0  0  0  0  0  0  0  0  0
   -3.3220   23.4080  -28.6640 C   0  0  0  0  0  0  0  0  0  0  0  0
   -2.5590   22.6650  -27.7520 C   0  0  0  0  0  0  0  0  0  0  0  0
   -1.2430   23.0510  -27.4520 C   0  0  0  0  0  0  0  0  0  0  0  0
   -0.4490   22.2870  -26.4340 C   0  0  0  0  0  0  0  0  0  0  0  0
   -0.7030   24.1970  -28.0560 C   0  0  0  0  0  0  0  0  0  0  0  0
   -1.4570   24.9370  -28.9710 C   0  0  0  0  0  0  0  0  0  0  0  0
   -2.7650   24.5500  -29.2760 C   0  0  0  0  0  0  0  0  0  0  0  0
   -3.5050   25.2760  -30.1540 N   0  0  0  0  0  0  0  0  0  0  0  0
   -4.7930   24.9590  -30.4470 C   0  0  0  0  0  0  0  0  0  0  0  0
   -5.4250   25.6640  -31.2800 O   0  0  0  0  0  0  0  0  0  0  0  0
   -9.3910   20.0585  -31.5494 H   0  0  0  0  0  0  0  0  0  0  0  0
   -9.6751   21.5165  -32.5596 H   0  0  0  0  0  0  0  0  0  0  0  0
   -8.0631   20.7240  -32.5596 H   0  0  0  0  0  0  0  0  0  0  0  0
   -9.1176   22.7839  -30.7799 H   0  0  0  0  0  0  0  0  0  0  0  0
   -8.6246   21.2911  -29.8524 H   0  0  0  0  0  0  0  0  0  0  0  0
   -6.5100   21.5040  -30.4250 H   0  0  0  0  0  0  0  0  0  0  0  0
   -7.5169   22.2179  -32.9154 H   0  0  0  0  0  0  0  0  0  0  0  0
   -6.3169   23.4917  -32.3850 H   0  0  0  0  0  0  0  0  0  0  0  0
   -3.9865   23.0350  -32.1645 H   0  0  0  0  0  0  0  0  0  0  0  0
   -2.0755   21.5750  -32.8170 H   0  0  0  0  0  0  0  0  0  0  0  0
   -2.4928   19.2842  -33.6992 H   0  0  0  0  0  0  0  0  0  0  0  0
   -6.4901   17.3010  -33.1651 H   0  0  0  0  0  0  0  0  0  0  0  0
   -6.7968   18.1530  -34.7164 H   0  0  0  0  0  0  0  0  0  0  0  0
   -5.9773   16.5546  -34.7164 H   0  0  0  0  0  0  0  0  0  0  0  0
   -6.7616   19.9416  -33.3906 H   0  0  0  0  0  0  0  0  0  0  0  0
   -7.3374   24.3663  -30.6010 H   0  0  0  0  0  0  0  0  0  0  0  0
   -7.3411   23.3754  -29.0732 H   0  0  0  0  0  0  0  0  0  0  0  0
   -5.0814   22.1493  -28.5196 H   0  0  0  0  0  0  0  0  0  0  0  0
   -2.9930   21.7766  -27.2699 H   0  0  0  0  0  0  0  0  0  0  0  0
   -0.7621   22.5882  -25.4234 H   0  0  0  0  0  0  0  0  0  0  0  0
   -0.6241   21.2091  -26.5661 H   0  0  0  0  0  0  0  0  0  0  0  0
    0.6214   22.5035  -26.5661 H   0  0  0  0  0  0  0  0  0  0  0  0
    0.3204   24.5149  -27.8076 H   0  0  0  0  0  0  0  0  0  0  0  0
   -1.0206   25.8250  -29.4517 H   0  0  0  0  0  0  0  0  0  0  0  0
  1  2  1  0
  2  3  1  0
  3  4  1  0
  4  5  1  0
  5  6  2  0
  6  7  1  0
  7  8  2  0
  8  9  1  0
  9 10  1  0
 10 11  1  0
  9 12  2  0
  3 13  1  0
 13 14  1  0
 14 15  2  0
 15 16  1  0
 16 17  2  0
 17 18  1  0
 18 19  1  0
 18 20  2  0
 20 21  1  0
 21 22  2  0
 22 23  1  0
 23 24  1  0
 24 25  2  0
 12  5  1  0
 24 14  1  0
 22 16  1  0
  1 26  1  0
  1 27  1  0
  1 28  1  0
  2 29  1  0
  2 30  1  0
  3 31  1  1
  4 32  1  0
  4 33  1  0
  6 34  1  0
  7 35  1  0
  8 36  1  0
 11 37  1  0
 11 38  1  0
 11 39  1  0
 12 40  1  0
 13 41  1  0
 13 42  1  0
 15 43  1  0
 17 44  1  0
 19 45  1  0
 19 46  1  0
 19 47  1  0
 20 48  1  0
 21 49  1  0
M  CHG  2   3   1  23  -1
M  END
>  <UniqueID>  (39) 
36

>  <SMILES>  (39) 
CC[N@@H+](Cc1cccc(OC)c1)Cc1cc2cc(C)ccc2[n-]c1=O

>  <Energy>  (39) 
54.22461451437438

>  <Genealogy>  (39) 
CC[NH+](Cc1cccc(OC)c1)Cc1cc2cc(C)ccc2[n-]c1=O (protonated)
CC[N@@H+](Cc1cccc(OC)c1)Cc1cc2cc(C)ccc2[n-]c1=O (chirality)
CC[N@@H+](Cc1cccc(OC)c1)Cc1cc2cc(C)ccc2[n-]c1=O (3D coordinates assigned)
CC[N@@H+](Cc1cccc(OC)c1)Cc1cc2cc(C)ccc2[n-]c1=O (optimized conformer: 54.22461451437438 kcal/mol)

>  <smiles>  (39) 
CCN(Cc1cccc(OC)c1)Cc1cc2cc(C)ccc2[nH]c1=O

>  <score_type>  (39) 
oracle

>  <origin>  (39) 
adgpu

>  <m_score__min__energy>  (39) 
-9.4100000000000001

>  <m_primary>  (39) 
energy

$$$$
39:0
     RDKit          3D

 48 53  0  0  0  0  0  0  0  0999 V2000
   -9.4730   19.5980  -33.0050 C   0  0  0  0  0  0  0  0  0  0  0  0
   -8.8420   20.7480  -32.2850 C   0  0  0  0  0  0  0  0  0  0  0  0
   -9.5280   21.8240  -31.8560 N   0  0  0  0  0  0  0  0  0  0  0  0
   -8.6980   22.6910  -31.3020 N   0  0  0  0  0  0  0  0  0  0  0  0
   -7.4550   22.1710  -31.3580 C   0  0  0  0  0  0  0  0  0  0  0  0
   -6.2690   22.8770  -30.8320 C   0  0  0  0  0  0  0  0  0  0  0  0
   -6.1980   24.2910  -30.9200 C   0  0  0  0  0  0  0  0  0  0  0  0
   -5.0360   24.9800  -30.5240 C   0  0  0  0  0  0  0  0  0  0  0  0
   -3.9660   24.2330  -30.0390 C   0  0  0  0  0  0  0  0  0  0  0  0
   -2.7380   24.6880  -29.7050 N   0  0  0  0  0  0  0  0  0  0  0  0
   -2.0360   23.5780  -29.3830 C   0  0  0  0  0  0  0  0  0  0  0  0
   -0.6890   23.5070  -29.0320 C   0  0  0  0  0  0  0  0  0  0  0  0
   -0.1350   22.2350  -28.7980 C   0  0  0  0  0  0  0  0  0  0  0  0
   -0.9270   21.0720  -28.9250 C   0  0  0  0  0  0  0  0  0  0  0  0
   -2.2840   21.1670  -29.2840 C   0  0  0  0  0  0  0  0  0  0  0  0
   -2.8080   22.4400  -29.4980 C   0  0  0  0  0  0  0  0  0  0  0  0
   -4.0470   22.8620  -29.9160 C   0  0  0  0  0  0  0  0  0  0  0  0
   -5.1920   22.1540  -30.2710 C   0  0  0  0  0  0  0  0  0  0  0  0
   -7.4970   20.9280  -31.9920 C   0  0  0  0  0  0  0  0  0  0  0  0
   -6.3550   20.0600  -32.3610 C   0  0  0  0  0  0  0  0  0  0  0  0
   -5.1540   20.5410  -32.7410 N   0  0  0  0  0  0  0  0  0  0  0  0
   -4.2230   19.5690  -32.9500 C   0  0  0  0  0  0  0  0  0  0  0  0
   -2.8150   19.9200  -33.2750 C   0  0  0  0  0  0  0  0  0  0  0  0
   -2.2900   21.1580  -32.8500 C   0  0  0  0  0  0  0  0  0  0  0  0
   -0.9520   21.4850  -33.0880 C   0  0  0  0  0  0  0  0  0  0  0  0
   -0.1210   20.5880  -33.7620 C   0  0  0  0  0  0  0  0  0  0  0  0
   -0.6280   19.3630  -34.1990 C   0  0  0  0  0  0  0  0  0  0  0  0
   -1.9650   19.0270  -33.9580 C   0  0  0  0  0  0  0  0  0  0  0  0
   -4.7030   18.2700  -32.7550 C   0  0  0  0  0  0  0  0  0  0  0  0
   -6.3160   18.3800  -32.2920 S   0  0  0  0  0  0  0  0  0  0  0  0
   -9.8677   18.8787  -32.2723 H   0  0  0  0  0  0  0  0  0  0  0  0
  -10.2950   19.9670  -33.6360 H   0  0  0  0  0  0  0  0  0  0  0  0
   -8.7202   19.1029  -33.6360 H   0  0  0  0  0  0  0  0  0  0  0  0
  -10.5560   21.9780  -31.9490 H   0  0  0  0  0  0  0  0  0  0  0  0
   -7.0611   24.8558  -31.3022 H   0  0  0  0  0  0  0  0  0  0  0  0
   -4.9753   26.0760  -30.5957 H   0  0  0  0  0  0  0  0  0  0  0  0
   -2.3930   25.6740  -29.7350 H   0  0  0  0  0  0  0  0  0  0  0  0
   -0.0780   24.4172  -28.9408 H   0  0  0  0  0  0  0  0  0  0  0  0
    0.9238   22.1453  -28.5137 H   0  0  0  0  0  0  0  0  0  0  0  0
   -0.4790   20.0842  -28.7417 H   0  0  0  0  0  0  0  0  0  0  0  0
   -2.9090   20.2682  -29.3919 H   0  0  0  0  0  0  0  0  0  0  0  0
   -5.2564   21.0664  -30.1196 H   0  0  0  0  0  0  0  0  0  0  0  0
   -2.9402   21.8738  -32.3257 H   0  0  0  0  0  0  0  0  0  0  0  0
   -0.5531   22.4506  -32.7437 H   0  0  0  0  0  0  0  0  0  0  0  0
    0.9319   20.8463  -33.9484 H   0  0  0  0  0  0  0  0  0  0  0  0
    0.0258   18.6591  -34.7348 H   0  0  0  0  0  0  0  0  0  0  0  0
   -2.3554   18.0587  -34.3042 H   0  0  0  0  0  0  0  0  0  0  0  0
   -4.1276   17.3411  -32.8819 H   0  0  0  0  0  0  0  0  0  0  0  0
  1  2  1  0
  2  3  1  0
  3  4  1  0
  4  5  2  0
  5  6  1  0
  6  7  2  0
  7  8  1  0
  8  9  2  0
  9 10  1  0
 10 11  1  0
 11 12  2  0
 12 13  1  0
 13 14  2  0
 14 15  1  0
 15 16  2  0
 16 17  1  0
 17 18  2  0
  5 19  1  0
 19 20  1  0
 20 21  2  0
 21 22  1  0
 22 23  1  0
 23 24  2  0
 24 25  1  0
 25 26  2  0
 26 27  1  0
 27 28  2  0
 22 29  2  0
 29 30  1  0
 19  2  2  0
 30 20  1  0
 18  6  1  0
 28 23  1  0
 17  9  1  0
 16 11  1  0
  1 31  1  0
  1 32  1  0
  1 33  1  0
  3 34  1  0
  7 35  1  0
  8 36  1  0
 10 37  1  0
 12 38  1  0
 13 39  1  0
 14 40  1  0
 15 41  1  0
 18 42  1  0
 24 43  1  0
 25 44  1  0
 26 45  1  0
 27 46  1  0
 28 47  1  0
 29 48  1  0
M  END
>  <UniqueID>  (40) 
37

>  <SMILES>  (40) 
Cc1[nH]nc(-c2ccc3[nH]c4ccccc4c3c2)c1-c1nc(-c2ccccc2)cs1

>  <Energy>  (40) 
161.23629686619412

>  <Genealogy>  (40) 
Cc1[nH]nc(-c2ccc3[nH]c4ccccc4c3c2)c1-c1nc(-c2ccccc2)cs1 (3D coordinates assigned)
Cc1[nH]nc(-c2ccc3[nH]c4ccccc4c3c2)c1-c1nc(-c2ccccc2)cs1 (optimized conformer: 161.23629686619412 kcal/mol)

>  <smiles>  (40) 
Cc1[nH]nc(-c2ccc3[nH]c4ccccc4c3c2)c1-c1nc(-c2ccccc2)cs1

>  <score_type>  (40) 
oracle

>  <origin>  (40) 
adgpu

>  <m_score__min__energy>  (40) 
-10.65

>  <m_primary>  (40) 
energy

$$$$
40:0
     RDKit          3D

 49 52  0  0  0  0  0  0  0  0999 V2000
    2.5595   17.0017  -30.3402 H   0  0  0  0  0  0  0  0  0  0  0  0
    1.8140   17.8100  -30.3110 C   0  0  0  0  0  0  0  0  0  0  0  0
    1.0350   18.0020  -29.1670 C   0  0  0  0  0  0  0  0  0  0  0  0
    1.1731   17.3491  -28.2926 H   0  0  0  0  0  0  0  0  0  0  0  0
    0.0800   19.0230  -29.1320 C   0  0  0  0  0  0  0  0  0  0  0  0
   -0.5188   19.1803  -28.2228 H   0  0  0  0  0  0  0  0  0  0  0  0
   -0.1190   19.8470  -30.2480 C   0  0  0  0  0  0  0  0  0  0  0  0
   -1.0860   20.9070  -30.1590 N   0  0  0  0  0  0  0  0  0  0  0  0
   -2.1590   21.0490  -30.8820 C   0  0  0  0  0  0  0  0  0  0  0  0
   -2.9390   22.1410  -30.7010 N   0  0  0  0  0  0  0  0  0  0  0  0
   -4.0810   22.3160  -31.4180 C   0  0  0  0  0  0  0  0  0  0  0  0
   -4.8840   23.5040  -31.2100 N   0  0  0  0  0  0  0  0  0  0  0  0
   -6.2100   23.6360  -31.8350 C   0  0  0  0  0  0  0  0  0  0  0  0
   -6.1417   24.3404  -32.6771 H   0  0  0  0  0  0  0  0  0  0  0  0
   -6.5312   22.6441  -32.1856 H   0  0  0  0  0  0  0  0  0  0  0  0
   -7.2510   24.1590  -30.8240 C   0  0  0  0  0  0  0  0  0  0  0  0
   -8.0128   24.7280  -31.3771 H   0  0  0  0  0  0  0  0  0  0  0  0
   -7.6639   23.2771  -30.3123 H   0  0  0  0  0  0  0  0  0  0  0  0
   -6.6920   25.0340  -29.7740 N   0  0  0  0  0  0  0  0  0  0  0  0
   -6.4900   24.4570  -28.9240 H   0  0  0  0  0  0  0  0  0  0  0  0
   -5.4490   25.6940  -30.1910 C   0  0  0  0  0  0  0  0  0  0  0  0
   -5.6333   26.2668  -31.1118 H   0  0  0  0  0  0  0  0  0  0  0  0
   -5.1150   26.3684  -29.3888 H   0  0  0  0  0  0  0  0  0  0  0  0
   -4.3560   24.6510  -30.4540 C   0  0  0  0  0  0  0  0  0  0  0  0
   -3.5455   25.1189  -31.0320 H   0  0  0  0  0  0  0  0  0  0  0  0
   -3.9824   24.2869  -29.4855 H   0  0  0  0  0  0  0  0  0  0  0  0
   -4.4440   21.3650  -32.3310 N   0  0  0  0  0  0  0  0  0  0  0  0
   -5.3220   21.4820  -32.8790 H   0  0  0  0  0  0  0  0  0  0  0  0
   -3.6680   20.2540  -32.5110 C   0  0  0  0  0  0  0  0  0  0  0  0
   -3.9850   19.3220  -33.3640 N   0  0  0  0  0  0  0  0  0  0  0  0
   -5.1610   19.3090  -34.2280 C   0  0  0  0  0  0  0  0  0  0  0  0
   -5.1051   18.4495  -34.9122 H   0  0  0  0  0  0  0  0  0  0  0  0
   -5.1986   20.2389  -34.8143 H   0  0  0  0  0  0  0  0  0  0  0  0
   -6.3960   19.1970  -33.3810 C   0  0  0  0  0  0  0  0  0  0  0  0
   -6.7530   17.9640  -32.8100 C   0  0  0  0  0  0  0  0  0  0  0  0
   -6.1418   17.0709  -33.0070 H   0  0  0  0  0  0  0  0  0  0  0  0
   -7.8830   17.8690  -31.9920 C   0  0  0  0  0  0  0  0  0  0  0  0
   -8.1641   16.8996  -31.5546 H   0  0  0  0  0  0  0  0  0  0  0  0
   -8.6560   19.0030  -31.7290 C   0  0  0  0  0  0  0  0  0  0  0  0
   -9.5459   18.9253  -31.0872 H   0  0  0  0  0  0  0  0  0  0  0  0
   -8.2980   20.2370  -32.2820 C   0  0  0  0  0  0  0  0  0  0  0  0
   -9.2630   21.6640  -31.9410 Cl  0  0  0  0  0  0  0  0  0  0  0  0
   -7.1680   20.3370  -33.1000 C   0  0  0  0  0  0  0  0  0  0  0  0
   -6.8828   21.3108  -33.5246 H   0  0  0  0  0  0  0  0  0  0  0  0
   -2.5340   20.1050  -31.7820 N   0  0  0  0  0  0  0  0  0  0  0  0
    0.6910   19.6670  -31.3870 C   0  0  0  0  0  0  0  0  0  0  0  0
    0.5720   20.3324  -32.2548 H   0  0  0  0  0  0  0  0  0  0  0  0
    1.6450   18.6460  -31.4180 C   0  0  0  0  0  0  0  0  0  0  0  0
    2.2640   18.5002  -32.3155 H   0  0  0  0  0  0  0  0  0  0  0  0
  1  2  1  0
  2  3  2  0
  3  4  1  0
  3  5  1  0
  5  6  1  0
  5  7  2  0
  7  8  1  0
  8  9  2  0
  9 10  1  0
 10 11  2  0
 11 12  1  0
 12 13  1  0
 13 14  1  0
 13 15  1  0
 13 16  1  0
 16 17  1  0
 16 18  1  0
 16 19  1  0
 19 20  1  0
 19 21  1  0
 21 22  1  0
 21 23  1  0
 21 24  1  0
 24 25  1  0
 24 26  1  0
 11 27  1  0
 27 28  1  0
 27 29  1  0
 29 30  2  0
 30 31  1  0
 31 32  1  0
 31 33  1  0
 31 34  1  0
 34 35  2  0
 35 36  1  0
 35 37  1  0
 37 38  1  0
 37 39  2  0
 39 40  1  0
 39 41  1  0
 41 42  1  0
 41 43  2  0
 43 44  1  0
 29 45  1  0
  7 46  1  0
 46 47  1  0
 46 48  2  0
 48 49  1  0
 48  2  1  0
 45  9  1  0
 24 12  1  0
 43 34  1  0
M  CHG  1  45  -1
M  END
>  <UniqueID>  (41) 
38

>  <SMILES>  (41) 
Clc1cccc(C/N=c2/[n-]/c(=N\c3ccccc3)nc(N3CCNCC3)[nH]2)c1

>  <Energy>  (41) 
65.28222876852091

>  <Genealogy>  (41) 
Clc1cccc(CN=c2[n-]c(=Nc3ccccc3)nc(N3CCNCC3)[nH]2)c1 (protonated)
Clc1cccc(C/N=c2/[n-]/c(=N\c3ccccc3)nc(N3CCNCC3)[nH]2)c1 (cis-trans isomerization)
Clc1cccc(C/N=c2/[n-]/c(=N\c3ccccc3)nc(N3CCNCC3)[nH]2)c1 (3D coordinates assigned)
Clc1cccc(C/N=c2/[n-]/c(=N\c3ccccc3)nc(N3CCNCC3)[nH]2)c1 (nonaromatic ring conformer: 65.28222876852091 kcal/mol)

>  <smiles>  (41) 
Clc1cccc(CN=c2[nH]c(N3CCNCC3)nc(=Nc3ccccc3)[nH]2)c1

>  <score_type>  (41) 
oracle

>  <origin>  (41) 
adgpu

>  <m_score__min__energy>  (41) 
-9.7300000000000004

>  <m_primary>  (41) 
energy

$$$$
41:0
     RDKit          3D

 42 45  0  0  1  0  0  0  0  0999 V2000
   -6.3770   16.3850  -33.9100 C   0  0  0  0  0  0  0  0  0  0  0  0
   -6.9980   16.9240  -32.7450 O   0  0  0  0  0  0  0  0  0  0  0  0
   -7.1680   18.2860  -32.5680 C   0  0  0  0  0  0  0  0  0  0  0  0
   -8.0780   18.8360  -31.6900 C   0  0  0  0  0  0  0  0  0  0  0  0
   -8.1790   20.2170  -31.5790 C   0  0  0  0  0  0  0  0  0  0  0  0
   -7.3820   21.0380  -32.3310 C   0  0  0  0  0  0  0  0  0  0  0  0
   -7.4710   22.4660  -32.2310 N   0  0  0  0  0  0  0  0  0  0  0  0
   -6.4690   23.0460  -31.6330 C   0  0  0  0  0  0  0  0  0  0  0  0
   -6.5380   24.3910  -31.5310 N   0  0  0  0  0  0  0  0  0  0  0  0
   -5.5320   25.0610  -30.9220 C   0  0  0  0  0  0  0  0  0  0  0  0
   -4.4490   24.3770  -30.4110 C   0  0  0  0  0  0  0  0  0  0  0  0
   -3.4200   25.0140  -29.7920 N   0  0  0  0  0  0  0  0  0  0  0  0
   -2.3610   24.3180  -29.2940 C   0  0  0  0  0  0  0  0  0  0  0  0
   -1.0450   25.1820  -28.5000 Cl  0  0  0  0  0  0  0  0  0  0  0  0
   -2.3020   22.9660  -29.4030 N   0  0  0  0  0  0  0  0  0  0  0  0
   -3.3160   22.3270  -30.0140 C   0  0  0  0  0  0  0  0  0  0  0  0
   -3.2390   21.0220  -30.1070 N   0  0  0  0  0  0  0  0  0  0  0  0
   -2.1040   20.3280  -29.5690 C   0  0  0  0  0  0  0  0  0  0  0  0
   -2.0270   20.0120  -28.2150 C   0  0  0  0  0  0  0  0  0  0  0  0
   -0.9400   19.3460  -27.6900 C   0  0  0  0  0  0  0  0  0  0  0  0
    0.1180   18.9710  -28.5230 C   0  0  0  0  0  0  0  0  0  0  0  0
    1.5100   18.1230  -27.8720 Cl  0  0  0  0  0  0  0  0  0  0  0  0
    0.0550   19.2760  -29.8620 C   0  0  0  0  0  0  0  0  0  0  0  0
   -1.0430   19.9440  -30.3680 C   0  0  0  0  0  0  0  0  0  0  0  0
   -4.4090   22.9980  -30.5310 C   0  0  0  0  0  0  0  0  0  0  0  0
   -5.4260   22.3350  -31.1460 N   0  0  0  0  0  0  0  0  0  0  0  0
   -6.4610   20.4900  -33.2190 C   0  0  0  0  0  0  0  0  0  0  0  0
   -6.3560   19.1140  -33.3350 C   0  0  0  0  0  0  0  0  0  0  0  0
   -5.5774   15.6910  -33.6115 H   0  0  0  0  0  0  0  0  0  0  0  0
   -7.1260   15.8458  -34.5086 H   0  0  0  0  0  0  0  0  0  0  0  0
   -5.9485   17.2024  -34.5086 H   0  0  0  0  0  0  0  0  0  0  0  0
   -8.7210   18.1842  -31.0803 H   0  0  0  0  0  0  0  0  0  0  0  0
   -8.9065   20.6553  -30.8800 H   0  0  0  0  0  0  0  0  0  0  0  0
   -5.5784   26.1565  -30.8342 H   0  0  0  0  0  0  0  0  0  0  0  0
   -3.4910   26.0520  -29.7230 H   0  0  0  0  0  0  0  0  0  0  0  0
   -2.8531   20.3006  -27.5485 H   0  0  0  0  0  0  0  0  0  0  0  0
   -0.9053   19.1099  -26.6162 H   0  0  0  0  0  0  0  0  0  0  0  0
    0.8795   18.9879  -30.5308 H   0  0  0  0  0  0  0  0  0  0  0  0
   -1.0743   20.1782  -31.4423 H   0  0  0  0  0  0  0  0  0  0  0  0
   -5.3950   21.3000  -31.2370 H   0  0  0  0  0  0  0  0  0  0  0  0
   -5.8198   21.1465  -33.8256 H   0  0  0  0  0  0  0  0  0  0  0  0
   -5.6293   18.6756  -34.0348 H   0  0  0  0  0  0  0  0  0  0  0  0
  1  2  1  0
  2  3  1  0
  3  4  2  0
  4  5  1  0
  5  6  2  0
  6  7  1  0
  7  8  2  0
  8  9  1  0
  9 10  2  0
 10 11  1  0
 11 12  1  0
 12 13  1  0
 13 14  1  0
 13 15  2  0
 15 16  1  0
 16 17  2  0
 17 18  1  0
 18 19  2  0
 19 20  1  0
 20 21  2  0
 21 22  1  0
 21 23  1  0
 23 24  2  0
 16 25  1  0
 25 26  1  0
  6 27  1  0
 27 28  2  0
 28  3  1  0
 26  8  1  0
 25 11  2  0
 24 18  1  0
  1 29  1  0
  1 30  1  0
  1 31  1  0
  4 32  1  0
  5 33  1  0
 10 34  1  0
 12 35  1  0
 19 36  1  0
 20 37  1  0
 23 38  1  0
 24 39  1  0
 26 40  1  0
 27 41  1  0
 28 42  1  0
M  END
>  <smiles>  (42) 
COc1ccc(N=c2ncc3[nH]c(Cl)nc(=Nc4ccc(Cl)cc4)c3[nH]2)cc1

>  <score_type>  (42) 
oracle

>  <origin>  (42) 
adgpu

>  <m_score__min__energy>  (42) 
-8.8000000000000007

>  <m_primary>  (42) 
energy

$$$$
42:0
     RDKit          3D

 36 38  0  0  0  0  0  0  0  0999 V2000
   -5.7634   16.3414  -32.4200 H   0  0  0  0  0  0  0  0  0  0  0  0
   -6.1300   17.3730  -32.5270 C   0  0  0  0  0  0  0  0  0  0  0  0
   -6.4270   18.1120  -31.4280 N   0  0  0  0  0  0  0  0  0  0  0  0
   -6.8830   19.3870  -31.5350 C   0  0  0  0  0  0  0  0  0  0  0  0
   -7.1189   19.9680  -30.6312 H   0  0  0  0  0  0  0  0  0  0  0  0
   -7.0520   19.9610  -32.8110 C   0  0  0  0  0  0  0  0  0  0  0  0
   -7.4900   21.1760  -32.9820 N   0  0  0  0  0  0  0  0  0  0  0  0
   -7.9450   22.3000  -31.7350 S   0  0  0  0  0  0  0  0  0  0  0  0
   -8.5580   21.5410  -30.5930 O   0  0  0  0  0  0  0  0  0  0  0  0
   -8.9640   23.2600  -32.2850 O   0  0  0  0  0  0  0  0  0  0  0  0
   -6.5290   23.1640  -31.1460 C   0  0  0  0  0  0  0  0  0  0  0  0
   -6.6840   24.3650  -30.4430 C   0  0  0  0  0  0  0  0  0  0  0  0
   -7.6910   24.7703  -30.2653 H   0  0  0  0  0  0  0  0  0  0  0  0
   -5.5620   25.0510  -29.9660 C   0  0  0  0  0  0  0  0  0  0  0  0
   -5.6905   25.9875  -29.4034 H   0  0  0  0  0  0  0  0  0  0  0  0
   -4.2710   24.5480  -30.2030 C   0  0  0  0  0  0  0  0  0  0  0  0
   -3.1220   25.1980  -29.7270 O   0  0  0  0  0  0  0  0  0  0  0  0
   -2.3380   24.7750  -28.6440 C   0  0  0  0  0  0  0  0  0  0  0  0
   -2.6480   23.6150  -27.9090 C   0  0  0  0  0  0  0  0  0  0  0  0
   -3.5205   23.0058  -28.1876 H   0  0  0  0  0  0  0  0  0  0  0  0
   -1.8490   23.2350  -26.8250 C   0  0  0  0  0  0  0  0  0  0  0  0
   -2.0882   22.3221  -26.2599 H   0  0  0  0  0  0  0  0  0  0  0  0
   -0.7470   24.0140  -26.4590 C   0  0  0  0  0  0  0  0  0  0  0  0
    0.2520   23.5370  -25.0980 Cl  0  0  0  0  0  0  0  0  0  0  0  0
   -0.4470   25.1780  -27.1740 C   0  0  0  0  0  0  0  0  0  0  0  0
    0.4163   25.7947  -26.8834 H   0  0  0  0  0  0  0  0  0  0  0  0
   -1.2440   25.5580  -28.2580 C   0  0  0  0  0  0  0  0  0  0  0  0
   -1.0095   26.4792  -28.8116 H   0  0  0  0  0  0  0  0  0  0  0  0
   -4.1220   23.3400  -30.8930 C   0  0  0  0  0  0  0  0  0  0  0  0
   -3.1163   22.9273  -31.0613 H   0  0  0  0  0  0  0  0  0  0  0  0
   -5.2430   22.6540  -31.3700 C   0  0  0  0  0  0  0  0  0  0  0  0
   -5.1152   21.7115  -31.9226 H   0  0  0  0  0  0  0  0  0  0  0  0
   -6.7490   19.2100  -33.9080 N   0  0  0  0  0  0  0  0  0  0  0  0
   -6.8680   19.6150  -34.8650 H   0  0  0  0  0  0  0  0  0  0  0  0
   -6.2940   17.9340  -33.7930 C   0  0  0  0  0  0  0  0  0  0  0  0
   -6.0567   17.3478  -34.6930 H   0  0  0  0  0  0  0  0  0  0  0  0
  1  2  1  0
  2  3  1  0
  3  4  2  0
  4  5  1  0
  4  6  1  0
  6  7  2  0
  7  8  1  0
  8  9  2  0
  8 10  2  0
  8 11  1  0
 11 12  2  0
 12 13  1  0
 12 14  1  0
 14 15  1  0
 14 16  2  0
 16 17  1  0
 17 18  1  0
 18 19  2  0
 19 20  1  0
 19 21  1  0
 21 22  1  0
 21 23  2  0
 23 24  1  0
 23 25  1  0
 25 26  1  0
 25 27  2  0
 27 28  1  0
 16 29  1  0
 29 30  1  0
 29 31  2  0
 31 32  1  0
  6 33  1  0
 33 34  1  0
 33 35  1  0
 35 36  1  0
 35  2  2  0
 31 11  1  0
 27 18  1  0
M  END
>  <UniqueID>  (43) 
39

>  <SMILES>  (43) 
O=S(=O)(/N=c1\cncc[nH]1)c1ccc(Oc2ccc(Cl)cc2)cc1

>  <Energy>  (43) 
52.20782738425167

>  <Genealogy>  (43) 
O=S(=O)(/N=c1\cncc[nH]1)c1ccc(Oc2ccc(Cl)cc2)cc1 (cis-trans isomerization)
O=S(=O)(/N=c1\cncc[nH]1)c1ccc(Oc2ccc(Cl)cc2)cc1 (3D coordinates assigned)
O=S(=O)(/N=c1\cncc[nH]1)c1ccc(Oc2ccc(Cl)cc2)cc1 (optimized conformer: 52.20782738425167 kcal/mol)

>  <smiles>  (43) 
O=S(=O)(N=c1cncc[nH]1)c1ccc(Oc2ccc(Cl)cc2)cc1

>  <score_type>  (43) 
oracle

>  <origin>  (43) 
adgpu

>  <m_score__min__energy>  (43) 
-8.9100000000000001

>  <m_primary>  (43) 
energy

$$$$
43:0
     RDKit          3D

 33 35  0  0  0  0  0  0  0  0999 V2000
   -5.1130   17.6970  -34.4980 N   0  0  0  0  0  0  0  0  0  0  0  0
   -5.2600   18.7160  -33.9700 C   0  0  0  0  0  0  0  0  0  0  0  0
   -5.4420   19.9920  -33.3090 C   0  0  0  0  0  0  0  0  0  0  0  0
   -4.3150   20.7430  -32.9070 C   0  0  0  0  0  0  0  0  0  0  0  0
   -2.9300   20.3020  -33.2050 C   0  0  0  0  0  0  0  0  0  0  0  0
   -2.5000   19.0180  -32.8260 C   0  0  0  0  0  0  0  0  0  0  0  0
   -1.1910   18.6050  -33.0930 C   0  0  0  0  0  0  0  0  0  0  0  0
   -0.3000   19.4710  -33.7340 C   0  0  0  0  0  0  0  0  0  0  0  0
   -0.7160   20.7520  -34.1050 C   0  0  0  0  0  0  0  0  0  0  0  0
   -2.0250   21.1700  -33.8400 C   0  0  0  0  0  0  0  0  0  0  0  0
   -4.4990   21.9360  -32.2000 C   0  0  0  0  0  0  0  0  0  0  0  0
   -5.7790   22.4080  -31.8870 C   0  0  0  0  0  0  0  0  0  0  0  0
   -5.8760   23.6730  -31.1180 C   0  0  0  0  0  0  0  0  0  0  0  0
   -6.7940   23.9800  -30.1290 C   0  0  0  0  0  0  0  0  0  0  0  0
   -6.4650   25.2440  -29.6900 C   0  0  0  0  0  0  0  0  0  0  0  0
   -5.3650   25.6310  -30.4280 C   0  0  0  0  0  0  0  0  0  0  0  0
   -5.0360   24.6740  -31.2640 O   0  0  0  0  0  0  0  0  0  0  0  0
   -6.9120   21.6830  -32.3270 C   0  0  0  0  0  0  0  0  0  0  0  0
   -8.2430   22.2170  -32.1270 C   0  0  0  0  0  0  0  0  0  0  0  0
   -9.3070   22.6440  -31.9700 N   0  0  0  0  0  0  0  0  0  0  0  0
   -6.7470   20.4650  -33.0280 C   0  0  0  0  0  0  0  0  0  0  0  0
   -7.8980   19.7110  -33.4590 N   0  0  0  0  0  0  0  0  0  0  0  0
   -3.1965   18.3353  -32.3172 H   0  0  0  0  0  0  0  0  0  0  0  0
   -0.8619   17.5976  -32.7984 H   0  0  0  0  0  0  0  0  0  0  0  0
    0.7285   19.1437  -33.9462 H   0  0  0  0  0  0  0  0  0  0  0  0
   -0.0131   21.4335  -34.6065 H   0  0  0  0  0  0  0  0  0  0  0  0
   -2.3467   22.1812  -34.1296 H   0  0  0  0  0  0  0  0  0  0  0  0
   -3.6192   22.5154  -31.8834 H   0  0  0  0  0  0  0  0  0  0  0  0
   -7.6168   23.3456  -29.7677 H   0  0  0  0  0  0  0  0  0  0  0  0
   -6.9758   25.8267  -28.9093 H   0  0  0  0  0  0  0  0  0  0  0  0
   -4.8434   26.5946  -30.3305 H   0  0  0  0  0  0  0  0  0  0  0  0
   -8.7490   20.1750  -33.8440 H   0  0  0  0  0  0  0  0  0  0  0  0
   -7.9310   18.6700  -33.3990 H   0  0  0  0  0  0  0  0  0  0  0  0
  1  2  3  0
  2  3  1  0
  3  4  2  0
  4  5  1  0
  5  6  2  0
  6  7  1  0
  7  8  2  0
  8  9  1  0
  9 10  2  0
  4 11  1  0
 11 12  2  0
 12 13  1  0
 13 14  2  0
 14 15  1  0
 15 16  2  0
 16 17  1  0
 12 18  1  0
 18 19  1  0
 19 20  3  0
 18 21  2  0
 21 22  1  0
 21  3  1  0
 10  5  1  0
 17 13  1  0
  6 23  1  0
  7 24  1  0
  8 25  1  0
  9 26  1  0
 10 27  1  0
 11 28  1  0
 14 29  1  0
 15 30  1  0
 16 31  1  0
 22 32  1  0
 22 33  1  0
M  END
>  <UniqueID>  (44) 
40

>  <SMILES>  (44) 
N#Cc1c(-c2ccccc2)cc(-c2ccco2)c(C#N)c1N

>  <Energy>  (44) 
76.9828524172664

>  <Genealogy>  (44) 
N#Cc1c(-c2ccccc2)cc(-c2ccco2)c(C#N)c1N (3D coordinates assigned)
N#Cc1c(-c2ccccc2)cc(-c2ccco2)c(C#N)c1N (optimized conformer: 76.9828524172664 kcal/mol)

>  <smiles>  (44) 
N#Cc1c(-c2ccccc2)cc(-c2ccco2)c(C#N)c1N

>  <score_type>  (44) 
oracle

>  <origin>  (44) 
adgpu

>  <m_score__min__energy>  (44) 
-8.25

>  <m_primary>  (44) 
energy

$$$$
44:0
     RDKit          3D

 59 61  0  0  0  0  0  0  0  0999 V2000
    2.3020   24.5040  -27.4400 C   0  0  0  0  0  0  0  0  0  0  0  0
    1.1790   24.9020  -28.2170 O   0  0  0  0  0  0  0  0  0  0  0  0
   -0.1400   24.9950  -27.7410 C   0  0  0  0  0  0  0  0  0  0  0  0
   -1.2000   24.3700  -28.4250 C   0  0  0  0  0  0  0  0  0  0  0  0
   -2.5190   24.4760  -27.9660 C   0  0  0  0  0  0  0  0  0  0  0  0
   -3.6030   23.8230  -28.6510 N   0  0  0  0  0  0  0  0  0  0  0  0
   -4.0550   24.1970  -29.9640 C   0  0  0  0  0  0  0  0  0  0  0  0
   -3.6920   25.2920  -30.4710 O   0  0  0  0  0  0  0  0  0  0  0  0
   -5.0270   23.3290  -30.7240 C   0  0  0  0  0  0  0  0  0  0  0  0
   -4.4940   21.8970  -30.9070 C   0  0  0  0  0  0  0  0  0  0  0  0
   -5.5310   20.9720  -31.5860 C   0  0  0  0  0  0  0  0  0  0  0  0
   -6.7810   21.6940  -31.9050 N   0  0  0  0  0  0  0  0  0  0  0  0
   -7.7460   20.8970  -32.6980 C   0  0  0  0  0  0  0  0  0  0  0  0
   -7.2200   19.5420  -33.1600 C   0  0  0  0  0  0  0  0  0  0  0  0
   -6.2510   19.5240  -34.1810 C   0  0  0  0  0  0  0  0  0  0  0  0
   -5.7040   18.3240  -34.6360 C   0  0  0  0  0  0  0  0  0  0  0  0
   -6.1190   17.1170  -34.0830 C   0  0  0  0  0  0  0  0  0  0  0  0
   -7.1020   17.1010  -33.0930 C   0  0  0  0  0  0  0  0  0  0  0  0
   -7.6860   18.2990  -32.6390 C   0  0  0  0  0  0  0  0  0  0  0  0
   -8.7750   18.1980  -31.5990 C   0  0  0  0  0  0  0  0  0  0  0  0
   -7.3750   22.3000  -30.7000 C   0  0  0  0  0  0  0  0  0  0  0  0
   -6.4090   23.3160  -30.0470 C   0  0  0  0  0  0  0  0  0  0  0  0
   -2.7790   25.1850  -26.7910 C   0  0  0  0  0  0  0  0  0  0  0  0
   -1.7400   25.8180  -26.0890 C   0  0  0  0  0  0  0  0  0  0  0  0
   -1.9790   26.5510  -24.9150 O   0  0  0  0  0  0  0  0  0  0  0  0
   -1.1980   26.4530  -23.7260 C   0  0  0  0  0  0  0  0  0  0  0  0
   -0.4170   25.7260  -26.5550 C   0  0  0  0  0  0  0  0  0  0  0  0
    0.5700   26.3820  -25.7940 O   0  0  0  0  0  0  0  0  0  0  0  0
    1.0800   27.6920  -26.0130 C   0  0  0  0  0  0  0  0  0  0  0  0
    2.0575   24.5906  -26.3710 H   0  0  0  0  0  0  0  0  0  0  0  0
    2.5584   23.4602  -27.6741 H   0  0  0  0  0  0  0  0  0  0  0  0
    3.1585   25.1533  -27.6741 H   0  0  0  0  0  0  0  0  0  0  0  0
   -0.9888   23.7889  -29.3348 H   0  0  0  0  0  0  0  0  0  0  0  0
   -4.1430   23.0990  -28.1260 H   0  0  0  0  0  0  0  0  0  0  0  0
   -5.1395   23.7704  -31.7253 H   0  0  0  0  0  0  0  0  0  0  0  0
   -3.5886   21.9326  -31.5307 H   0  0  0  0  0  0  0  0  0  0  0  0
   -4.2762   21.4869  -29.9098 H   0  0  0  0  0  0  0  0  0  0  0  0
   -5.1000   20.5765  -32.5176 H   0  0  0  0  0  0  0  0  0  0  0  0
   -5.7738   20.1577  -30.8874 H   0  0  0  0  0  0  0  0  0  0  0  0
   -8.6397   20.7258  -32.0799 H   0  0  0  0  0  0  0  0  0  0  0  0
   -7.9566   21.4772  -33.6085 H   0  0  0  0  0  0  0  0  0  0  0  0
   -5.9193   20.4728  -34.6279 H   0  0  0  0  0  0  0  0  0  0  0  0
   -4.9447   18.3323  -35.4319 H   0  0  0  0  0  0  0  0  0  0  0  0
   -5.6712   16.1730  -34.4270 H   0  0  0  0  0  0  0  0  0  0  0  0
   -7.4244   16.1415  -32.6623 H   0  0  0  0  0  0  0  0  0  0  0  0
   -8.3280   18.2395  -30.5948 H   0  0  0  0  0  0  0  0  0  0  0  0
   -9.4783   19.0348  -31.7221 H   0  0  0  0  0  0  0  0  0  0  0  0
   -9.3124   17.2462  -31.7221 H   0  0  0  0  0  0  0  0  0  0  0  0
   -8.3040   22.8181  -30.9803 H   0  0  0  0  0  0  0  0  0  0  0  0
   -7.5795   21.4995  -29.9738 H   0  0  0  0  0  0  0  0  0  0  0  0
   -6.8492   24.3212  -30.1229 H   0  0  0  0  0  0  0  0  0  0  0  0
   -6.2662   23.0171  -28.9981 H   0  0  0  0  0  0  0  0  0  0  0  0
   -3.8093   25.2484  -26.4110 H   0  0  0  0  0  0  0  0  0  0  0  0
   -1.8552   26.5355  -22.8478 H   0  0  0  0  0  0  0  0  0  0  0  0
   -0.6800   25.4828  -23.7065 H   0  0  0  0  0  0  0  0  0  0  0  0
   -0.4563   27.2651  -23.7065 H   0  0  0  0  0  0  0  0  0  0  0  0
    1.2694   28.1784  -25.0447 H   0  0  0  0  0  0  0  0  0  0  0  0
    2.0194   27.6294  -26.5818 H   0  0  0  0  0  0  0  0  0  0  0  0
    0.3455   28.2811  -26.5818 H   0  0  0  0  0  0  0  0  0  0  0  0
  1  2  1  0
  2  3  1  0
  3  4  2  0
  4  5  1  0
  5  6  1  0
  6  7  1  0
  7  8  2  0
  7  9  1  0
  9 10  1  0
 10 11  1  0
 11 12  1  0
 12 13  1  0
 13 14  1  0
 14 15  2  0
 15 16  1  0
 16 17  2  0
 17 18  1  0
 18 19  2  0
 19 20  1  0
 12 21  1  0
 21 22  1  0
  5 23  2  0
 23 24  1  0
 24 25  1  0
 25 26  1  0
 24 27  2  0
 27 28  1  0
 28 29  1  0
 27  3  1  0
 22  9  1  0
 19 14  1  0
  1 30  1  0
  1 31  1  0
  1 32  1  0
  4 33  1  0
  6 34  1  0
  9 35  1  0
 10 36  1  0
 10 37  1  0
 11 38  1  0
 11 39  1  0
 13 40  1  0
 13 41  1  0
 15 42  1  0
 16 43  1  0
 17 44  1  0
 18 45  1  0
 20 46  1  0
 20 47  1  0
 20 48  1  0
 21 49  1  0
 21 50  1  0
 22 51  1  0
 22 52  1  0
 23 53  1  0
 26 54  1  0
 26 55  1  0
 26 56  1  0
 29 57  1  0
 29 58  1  0
 29 59  1  0
M  END
>  <UniqueID>  (45) 
41

>  <SMILES>  (45) 
COc1cc(NC(=O)C2CCN(Cc3ccccc3C)CC2)cc(OC)c1OC

>  <Energy>  (45) 
76.0163088759303

>  <Genealogy>  (45) 
COc1cc(NC(=O)C2CCN(Cc3ccccc3C)CC2)cc(OC)c1OC (3D coordinates assigned)
COc1cc(NC(=O)C2CCN(Cc3ccccc3C)CC2)cc(OC)c1OC (nonaromatic ring conformer: 76.0163088759303 kcal/mol)

>  <smiles>  (45) 
COc1cc(NC(=O)C2CCN(Cc3ccccc3C)CC2)cc(OC)c1OC

>  <score_type>  (45) 
oracle

>  <origin>  (45) 
adgpu

>  <m_score__min__energy>  (45) 
-9.4000000000000004

>  <m_primary>  (45) 
energy

$$$$
45:0
     RDKit          3D

 32 33  0  0  0  0  0  0  0  0999 V2000
   -9.0906   22.6809  -30.9361 H   0  0  0  0  0  0  0  0  0  0  0  0
   -8.6450   21.8140  -31.4460 C   0  0  0  0  0  0  0  0  0  0  0  0
   -7.2930   21.6850  -31.5110 N   0  0  0  0  0  0  0  0  0  0  0  0
   -6.6970   20.6220  -32.1240 C   0  0  0  0  0  0  0  0  0  0  0  0
   -5.4010   20.5230  -32.1980 N   0  0  0  0  0  0  0  0  0  0  0  0
   -4.4330   21.4030  -31.6000 C   0  0  0  0  0  0  0  0  0  0  0  0
   -3.2570   20.8550  -31.0890 C   0  0  0  0  0  0  0  0  0  0  0  0
   -3.0771   19.7731  -31.1739 H   0  0  0  0  0  0  0  0  0  0  0  0
   -2.3070   21.6680  -30.4710 C   0  0  0  0  0  0  0  0  0  0  0  0
   -1.3756   21.2233  -30.0905 H   0  0  0  0  0  0  0  0  0  0  0  0
   -2.5260   23.0480  -30.3290 C   0  0  0  0  0  0  0  0  0  0  0  0
   -1.5590   23.8440  -29.6240 N   0  0  0  0  0  0  0  0  0  0  0  0
   -0.5460   23.3080  -29.1280 O   0  0  0  0  0  0  0  0  0  0  0  0
   -1.8350   25.1560  -29.3140 O   0  0  0  0  0  0  0  0  0  0  0  0
   -3.7200   23.6170  -30.8360 C   0  0  0  0  0  0  0  0  0  0  0  0
   -3.9270   25.0440  -30.7850 N   0  0  0  0  0  0  0  0  0  0  0  0
   -3.0960   25.6740  -30.8450 H   0  0  0  0  0  0  0  0  0  0  0  0
   -5.2380   25.6830  -30.6590 C   0  0  0  0  0  0  0  0  0  0  0  0
   -5.8197   25.4958  -31.5736 H   0  0  0  0  0  0  0  0  0  0  0  0
   -5.0909   26.7633  -30.5129 H   0  0  0  0  0  0  0  0  0  0  0  0
   -5.9990   25.1270  -29.4600 C   0  0  0  0  0  0  0  0  0  0  0  0
   -5.5236   25.4743  -28.5308 H   0  0  0  0  0  0  0  0  0  0  0  0
   -7.0410   25.4780  -29.4922 H   0  0  0  0  0  0  0  0  0  0  0  0
   -5.9813   24.0276  -29.4922 H   0  0  0  0  0  0  0  0  0  0  0  0
   -4.6730   22.7800  -31.4500 C   0  0  0  0  0  0  0  0  0  0  0  0
   -5.6169   23.2097  -31.8167 H   0  0  0  0  0  0  0  0  0  0  0  0
   -7.4940   19.6400  -32.7260 C   0  0  0  0  0  0  0  0  0  0  0  0
   -7.0279   18.7854  -33.2383 H   0  0  0  0  0  0  0  0  0  0  0  0
   -8.8850   19.7540  -32.6710 C   0  0  0  0  0  0  0  0  0  0  0  0
   -9.5199   18.9846  -33.1347 H   0  0  0  0  0  0  0  0  0  0  0  0
   -9.4680   20.8470  -32.0260 C   0  0  0  0  0  0  0  0  0  0  0  0
  -10.5625   20.9447  -31.9756 H   0  0  0  0  0  0  0  0  0  0  0  0
  1  2  1  0
  2  3  1  0
  3  4  1  0
  4  5  2  0
  5  6  1  0
  6  7  2  0
  7  8  1  0
  7  9  1  0
  9 10  1  0
  9 11  2  0
 11 12  1  0
 12 13  2  0
 12 14  1  0
 11 15  1  0
 15 16  1  0
 16 17  1  0
 16 18  1  0
 18 19  1  0
 18 20  1  0
 18 21  1  0
 21 22  1  0
 21 23  1  0
 21 24  1  0
 15 25  2  0
 25 26  1  0
  4 27  1  0
 27 28  1  0
 27 29  2  0
 29 30  1  0
 29 31  1  0
 31 32  1  0
 31  2  2  0
 25  6  1  0
M  CHG  3   3  -1  12   1  14  -1
M  END
>  <UniqueID>  (46) 
42

>  <SMILES>  (46) 
CCNc1cc(/N=c2/cccc[n-]2)ccc1[N+](=O)[O-]

>  <Energy>  (46) 
42.62573735198891

>  <Genealogy>  (46) 
CCNc1cc(N=c2cccc[n-]2)ccc1[N+](=O)[O-] (protonated)
CCNc1cc(/N=c2/cccc[n-]2)ccc1[N+](=O)[O-] (cis-trans isomerization)
CCNc1cc(/N=c2/cccc[n-]2)ccc1[N+](=O)[O-] (3D coordinates assigned)
CCNc1cc(/N=c2/cccc[n-]2)ccc1[N+](=O)[O-] (optimized conformer: 42.62573735198891 kcal/mol)

>  <smiles>  (46) 
CCNc1cc(N=c2cccc[nH]2)ccc1[N+](=O)[O-]

>  <score_type>  (46) 
oracle

>  <origin>  (46) 
adgpu

>  <m_score__min__energy>  (46) 
-7.5499999999999998

>  <m_primary>  (46) 
energy

$$$$
46:0
     RDKit          3D

 52 56  0  0  0  0  0  0  0  0999 V2000
   -6.4680   24.5500  -31.2000 C   0  0  0  0  0  0  0  0  0  0  0  0
   -5.2440   23.7010  -31.0670 C   0  0  0  0  0  0  0  0  0  0  0  0
   -5.0500   22.5960  -31.9270 C   0  0  0  0  0  0  0  0  0  0  0  0
   -3.8740   21.8250  -31.8350 C   0  0  0  0  0  0  0  0  0  0  0  0
   -3.6330   20.7930  -32.7960 N   0  0  0  0  0  0  0  0  0  0  0  0
   -2.4860   20.6520  -33.4350 N   0  0  0  0  0  0  0  0  0  0  0  0
   -2.6390   19.5760  -34.2300 C   0  0  0  0  0  0  0  0  0  0  0  0
   -3.8600   19.0120  -34.1100 N   0  0  0  0  0  0  0  0  0  0  0  0
   -4.4540   19.7910  -33.1830 C   0  0  0  0  0  0  0  0  0  0  0  0
   -5.8510   19.5860  -32.7360 C   0  0  0  0  0  0  0  0  0  0  0  0
   -6.8840   20.4600  -33.1220 C   0  0  0  0  0  0  0  0  0  0  0  0
   -8.1970   20.2310  -32.7000 C   0  0  0  0  0  0  0  0  0  0  0  0
   -8.4880   19.1430  -31.8730 C   0  0  0  0  0  0  0  0  0  0  0  0
   -7.4650   18.2870  -31.4610 C   0  0  0  0  0  0  0  0  0  0  0  0
   -6.1520   18.5090  -31.8840 C   0  0  0  0  0  0  0  0  0  0  0  0
   -2.9490   22.1770  -30.8390 C   0  0  0  0  0  0  0  0  0  0  0  0
   -1.7240   21.6770  -30.3980 C   0  0  0  0  0  0  0  0  0  0  0  0
   -1.0360   20.3930  -30.7870 C   0  0  0  0  0  0  0  0  0  0  0  0
   -0.5490   19.6610  -29.5350 C   0  0  0  0  0  0  0  0  0  0  0  0
    0.1310   20.6780  -31.7390 C   0  0  0  0  0  0  0  0  0  0  0  0
   -1.2810   22.4580  -29.3800 N   0  0  0  0  0  0  0  0  0  0  0  0
   -2.1680   23.4210  -29.1610 N   0  0  0  0  0  0  0  0  0  0  0  0
   -2.0060   24.4380  -28.1550 C   0  0  0  0  0  0  0  0  0  0  0  0
   -0.9710   25.3810  -28.2770 C   0  0  0  0  0  0  0  0  0  0  0  0
   -0.7950   26.3700  -27.3050 C   0  0  0  0  0  0  0  0  0  0  0  0
   -1.6410   26.4200  -26.1950 C   0  0  0  0  0  0  0  0  0  0  0  0
   -1.4680   27.3790  -25.2520 F   0  0  0  0  0  0  0  0  0  0  0  0
   -2.6630   25.4780  -26.0540 C   0  0  0  0  0  0  0  0  0  0  0  0
   -2.8440   24.4880  -27.0250 C   0  0  0  0  0  0  0  0  0  0  0  0
   -3.1830   23.2550  -30.0290 C   0  0  0  0  0  0  0  0  0  0  0  0
   -4.2960   24.0230  -30.1380 N   0  0  0  0  0  0  0  0  0  0  0  0
   -6.8439   24.8107  -30.1996 H   0  0  0  0  0  0  0  0  0  0  0  0
   -6.2183   25.4699  -31.7491 H   0  0  0  0  0  0  0  0  0  0  0  0
   -7.2421   23.9939  -31.7491 H   0  0  0  0  0  0  0  0  0  0  0  0
   -5.8189   22.3373  -32.6699 H   0  0  0  0  0  0  0  0  0  0  0  0
   -1.8555   19.1980  -34.9032 H   0  0  0  0  0  0  0  0  0  0  0  0
   -6.6573   21.3277  -33.7589 H   0  0  0  0  0  0  0  0  0  0  0  0
   -9.0025   20.9086  -33.0196 H   0  0  0  0  0  0  0  0  0  0  0  0
   -9.5226   18.9610  -31.5467 H   0  0  0  0  0  0  0  0  0  0  0  0
   -7.6931   17.4362  -30.8021 H   0  0  0  0  0  0  0  0  0  0  0  0
   -5.3487   17.8368  -31.5482 H   0  0  0  0  0  0  0  0  0  0  0  0
   -1.7554   19.7478  -31.3124 H   0  0  0  0  0  0  0  0  0  0  0  0
   -0.9024   20.1922  -28.6389 H   0  0  0  0  0  0  0  0  0  0  0  0
   -0.9450   18.6348  -29.5329 H   0  0  0  0  0  0  0  0  0  0  0  0
    0.5506   19.6297  -29.5329 H   0  0  0  0  0  0  0  0  0  0  0  0
    1.0359   20.8990  -31.1539 H   0  0  0  0  0  0  0  0  0  0  0  0
    0.3104   19.7973  -32.3731 H   0  0  0  0  0  0  0  0  0  0  0  0
   -0.1158   21.5423  -32.3731 H   0  0  0  0  0  0  0  0  0  0  0  0
   -0.2947   25.3405  -29.1435 H   0  0  0  0  0  0  0  0  0  0  0  0
    0.0113   27.1102  -27.4146 H   0  0  0  0  0  0  0  0  0  0  0  0
   -3.3266   25.5151  -25.1775 H   0  0  0  0  0  0  0  0  0  0  0  0
   -3.6456   23.7443  -26.9051 H   0  0  0  0  0  0  0  0  0  0  0  0
  1  2  1  0
  2  3  2  0
  3  4  1  0
  4  5  1  0
  5  6  1  0
  6  7  2  0
  7  8  1  0
  8  9  2  0
  9 10  1  0
 10 11  2  0
 11 12  1  0
 12 13  2  0
 13 14  1  0
 14 15  2  0
  4 16  2  0
 16 17  1  0
 17 18  1  0
 18 19  1  0
 18 20  1  0
 17 21  2  0
 21 22  1  0
 22 23  1  0
 23 24  2  0
 24 25  1  0
 25 26  2  0
 26 27  1  0
 26 28  1  0
 28 29  2  0
 22 30  1  0
 30 31  2  0
 31  2  1  0
  9  5  1  0
 15 10  1  0
 30 16  1  0
 29 23  1  0
  1 32  1  0
  1 33  1  0
  1 34  1  0
  3 35  1  0
  7 36  1  0
 11 37  1  0
 12 38  1  0
 13 39  1  0
 14 40  1  0
 15 41  1  0
 18 42  1  0
 19 43  1  0
 19 44  1  0
 19 45  1  0
 20 46  1  0
 20 47  1  0
 20 48  1  0
 24 49  1  0
 25 50  1  0
 28 51  1  0
 29 52  1  0
M  END
>  <UniqueID>  (47) 
43

>  <SMILES>  (47) 
Cc1cc(-n2ncnc2-c2ccccc2)c2c(C(C)C)nn(-c3ccc(F)cc3)c2n1

>  <Energy>  (47) 
140.4190669034238

>  <Genealogy>  (47) 
Cc1cc(-n2ncnc2-c2ccccc2)c2c(C(C)C)nn(-c3ccc(F)cc3)c2n1 (3D coordinates assigned)
Cc1cc(-n2ncnc2-c2ccccc2)c2c(C(C)C)nn(-c3ccc(F)cc3)c2n1 (optimized conformer: 140.4190669034238 kcal/mol)

>  <smiles>  (47) 
Cc1cc(-n2ncnc2-c2ccccc2)c2c(C(C)C)nn(-c3ccc(F)cc3)c2n1

>  <score_type>  (47) 
oracle

>  <origin>  (47) 
adgpu

>  <m_score__min__energy>  (47) 
-9.3399999999999999

>  <m_primary>  (47) 
energy

$$$$
47:0
     RDKit          3D

 24 26  0  0  0  0  0  0  0  0999 V2000
   -9.4490   19.8540  -32.3420 C   0  0  0  0  0  0  0  0  0  0  0  0
   -8.3570   19.0050  -32.4750 C   0  0  0  0  0  0  0  0  0  0  0  0
   -7.0740   19.4790  -32.2130 C   0  0  0  0  0  0  0  0  0  0  0  0
   -6.8600   20.8060  -31.8070 C   0  0  0  0  0  0  0  0  0  0  0  0
   -7.9730   21.7000  -31.7030 C   0  0  0  0  0  0  0  0  0  0  0  0
   -9.2590   21.1840  -31.9730 C   0  0  0  0  0  0  0  0  0  0  0  0
   -7.9220   23.2210  -31.5680 C   0  0  0  0  0  0  0  0  0  0  0  0
   -6.7070   23.8100  -30.9960 N   0  0  0  0  0  0  0  0  0  0  0  0
   -6.6800   24.8140  -30.1020 C   0  0  0  0  0  0  0  0  0  0  0  0
   -5.3960   25.3010  -30.0360 C   0  0  0  0  0  0  0  0  0  0  0  0
   -4.6130   24.6250  -30.8990 N   0  0  0  0  0  0  0  0  0  0  0  0
   -5.4560   23.7550  -31.4940 C   0  0  0  0  0  0  0  0  0  0  0  0
   -4.9920   22.6490  -32.3630 C   0  0  0  0  0  0  0  0  0  0  0  0
   -5.1640   21.1810  -31.3280 S   0  0  0  0  0  0  0  0  0  0  0  0
  -10.4649   19.4755  -32.5283 H   0  0  0  0  0  0  0  0  0  0  0  0
   -8.5057   17.9606  -32.7866 H   0  0  0  0  0  0  0  0  0  0  0  0
   -6.2139   18.8026  -32.3260 H   0  0  0  0  0  0  0  0  0  0  0  0
  -10.1321   21.8480  -31.8901 H   0  0  0  0  0  0  0  0  0  0  0  0
   -8.0515   23.6455  -32.5745 H   0  0  0  0  0  0  0  0  0  0  0  0
   -8.7172   23.4650  -30.8482 H   0  0  0  0  0  0  0  0  0  0  0  0
   -7.5389   25.1829  -29.5222 H   0  0  0  0  0  0  0  0  0  0  0  0
   -5.0598   26.1171  -29.3795 H   0  0  0  0  0  0  0  0  0  0  0  0
   -5.6195   22.5689  -33.2629 H   0  0  0  0  0  0  0  0  0  0  0  0
   -3.9629   22.7958  -32.7227 H   0  0  0  0  0  0  0  0  0  0  0  0
  1  2  2  0
  2  3  1  0
  3  4  2  0
  4  5  1  0
  5  6  2  0
  5  7  1  0
  7  8  1  0
  8  9  1  0
  9 10  2  0
 10 11  1  0
 11 12  2  0
 12 13  1  0
 13 14  1  0
  6  1  1  0
 12  8  1  0
 14  4  1  0
  1 15  1  0
  2 16  1  0
  3 17  1  0
  6 18  1  0
  7 19  1  0
  7 20  1  0
  9 21  1  0
 10 22  1  0
 13 23  1  0
 13 24  1  0
M  END
>  <UniqueID>  (48) 
44

>  <SMILES>  (48) 
c1ccc2c(c1)Cn1ccnc1CS2

>  <Energy>  (48) 
72.41388782477172

>  <Genealogy>  (48) 
c1ccc2c(c1)Cn1ccnc1CS2 (3D coordinates assigned)
c1ccc2c(c1)Cn1ccnc1CS2 (nonaromatic ring conformer: 72.41388782477172 kcal/mol)

>  <smiles>  (48) 
c1ccc2c(c1)Cn1ccnc1CS2

>  <score_type>  (48) 
oracle

>  <origin>  (48) 
adgpu

>  <m_score__min__energy>  (48) 
-7.1699999999999999

>  <m_primary>  (48) 
energy

$$$$
48:0
     RDKit          3D

 33 34  0  0  0  0  0  0  0  0999 V2000
   -5.3670   26.4050  -30.4920 O   0  0  0  0  0  0  0  0  0  0  0  0
   -4.9430   25.2310  -30.3300 C   0  0  0  0  0  0  0  0  0  0  0  0
   -5.9300   24.1310  -30.0450 C   0  0  0  0  0  0  0  0  0  0  0  0
   -5.4020   22.8460  -30.5190 N   0  0  0  0  0  0  0  0  0  0  0  0
   -5.8930   22.5380  -32.1610 S   0  0  0  0  0  0  0  0  0  0  0  0
   -4.6730   22.2800  -33.0000 O   0  0  0  0  0  0  0  0  0  0  0  0
   -6.5990   23.7490  -32.7070 O   0  0  0  0  0  0  0  0  0  0  0  0
   -6.9520   21.1320  -32.2480 C   0  0  0  0  0  0  0  0  0  0  0  0
   -6.4290   19.8900  -32.6350 C   0  0  0  0  0  0  0  0  0  0  0  0
   -7.2570   18.7640  -32.6900 C   0  0  0  0  0  0  0  0  0  0  0  0
   -8.6110   18.8760  -32.3620 C   0  0  0  0  0  0  0  0  0  0  0  0
   -9.1380   20.1110  -31.9780 C   0  0  0  0  0  0  0  0  0  0  0  0
   -8.3110   21.2370  -31.9150 C   0  0  0  0  0  0  0  0  0  0  0  0
   -3.5370   24.9810  -30.4680 N   0  0  0  0  0  0  0  0  0  0  0  0
   -2.7120   24.1910  -29.6020 C   0  0  0  0  0  0  0  0  0  0  0  0
   -2.0080   23.0660  -30.0700 C   0  0  0  0  0  0  0  0  0  0  0  0
   -1.2320   22.3060  -29.1910 C   0  0  0  0  0  0  0  0  0  0  0  0
   -1.1670   22.6490  -27.8370 C   0  0  0  0  0  0  0  0  0  0  0  0
   -1.8910   23.7440  -27.3590 C   0  0  0  0  0  0  0  0  0  0  0  0
   -2.6700   24.5040  -28.2360 C   0  0  0  0  0  0  0  0  0  0  0  0
   -6.1084   24.0738  -28.9611 H   0  0  0  0  0  0  0  0  0  0  0  0
   -6.8731   24.3483  -30.5679 H   0  0  0  0  0  0  0  0  0  0  0  0
   -4.3570   22.9090  -30.5320 H   0  0  0  0  0  0  0  0  0  0  0  0
   -5.3642   19.8008  -32.8962 H   0  0  0  0  0  0  0  0  0  0  0  0
   -6.8426   17.7906  -32.9913 H   0  0  0  0  0  0  0  0  0  0  0  0
   -9.2622   17.9906  -32.4064 H   0  0  0  0  0  0  0  0  0  0  0  0
  -10.2049   20.1982  -31.7248 H   0  0  0  0  0  0  0  0  0  0  0  0
   -8.7267   22.2067  -31.6038 H   0  0  0  0  0  0  0  0  0  0  0  0
   -2.0688   22.7839  -31.1315 H   0  0  0  0  0  0  0  0  0  0  0  0
   -0.6714   21.4365  -29.5648 H   0  0  0  0  0  0  0  0  0  0  0  0
   -0.5461   22.0569  -27.1486 H   0  0  0  0  0  0  0  0  0  0  0  0
   -1.8480   24.0082  -26.2921 H   0  0  0  0  0  0  0  0  0  0  0  0
   -3.2540   25.3534  -27.8519 H   0  0  0  0  0  0  0  0  0  0  0  0
  1  2  2  0
  2  3  1  0
  3  4  1  0
  4  5  1  0
  5  6  2  0
  5  7  2  0
  5  8  1  0
  8  9  2  0
  9 10  1  0
 10 11  2  0
 11 12  1  0
 12 13  2  0
  2 14  1  0
 14 15  1  0
 15 16  2  0
 16 17  1  0
 17 18  2  0
 18 19  1  0
 19 20  2  0
 13  8  1  0
 20 15  1  0
  3 21  1  0
  3 22  1  0
  4 23  1  0
  9 24  1  0
 10 25  1  0
 11 26  1  0
 12 27  1  0
 13 28  1  0
 16 29  1  0
 17 30  1  0
 18 31  1  0
 19 32  1  0
 20 33  1  0
M  CHG  1  14  -1
M  END
>  <UniqueID>  (49) 
45

>  <SMILES>  (49) 
O=C(CNS(=O)(=O)c1ccccc1)[N-]c1ccccc1

>  <Energy>  (49) 
33.79729194274829

>  <Genealogy>  (49) 
O=C(CNS(=O)(=O)c1ccccc1)[N-]c1ccccc1 (protonated)
O=C(CNS(=O)(=O)c1ccccc1)[N-]c1ccccc1 (3D coordinates assigned)
O=C(CNS(=O)(=O)c1ccccc1)[N-]c1ccccc1 (optimized conformer: 33.79729194274829 kcal/mol)

>  <smiles>  (49) 
O=C(CNS(=O)(=O)c1ccccc1)Nc1ccccc1

>  <score_type>  (49) 
oracle

>  <origin>  (49) 
adgpu

>  <m_score__min__energy>  (49) 
-9.6400000000000006

>  <m_primary>  (49) 
energy

$$$$
