0:0
     RDKit          3D

 44 46  0  0  0  0  0  0  0  0999 V2000
   -3.0340   19.3170  -26.6060 C   0  0  0  0  0  0  0  0  0  0  0  0
   -2.5120   20.3410  -27.5680 C   0  0  0  0  0  0  0  0  0  0  0  0
   -1.3770   21.1000  -27.2430 C   0  0  0  0  0  0  0  0  0  0  0  0
   -0.8490   22.0160  -28.1630 C   0  0  0  0  0  0  0  0  0  0  0  0
    0.3480   22.8460  -27.8010 C   0  0  0  0  0  0  0  0  0  0  0  0
   -1.4730   22.1860  -29.4070 C   0  0  0  0  0  0  0  0  0  0  0  0
   -2.5920   21.4140  -29.7510 C   0  0  0  0  0  0  0  0  0  0  0  0
   -3.3780   21.6300  -31.3130 S   0  0  0  0  0  0  0  0  0  0  0  0
   -2.6750   22.7030  -32.0970 O   0  0  0  0  0  0  0  0  0  0  0  0
   -3.2690   20.3450  -32.0850 O   0  0  0  0  0  0  0  0  0  0  0  0
   -5.0920   22.0480  -31.1210 C   0  0  0  0  0  0  0  0  0  0  0  0
   -6.0330   21.0100  -31.2320 C   0  0  0  0  0  0  0  0  0  0  0  0
   -7.4010   21.2760  -31.1720 C   0  0  0  0  0  0  0  0  0  0  0  0
   -7.8520   22.5860  -31.0170 C   0  0  0  0  0  0  0  0  0  0  0  0
   -6.9340   23.6310  -30.9060 C   0  0  0  0  0  0  0  0  0  0  0  0
   -5.5520   23.3770  -30.9280 C   0  0  0  0  0  0  0  0  0  0  0  0
   -4.6400   24.5300  -30.7840 C   0  0  0  0  0  0  0  0  0  0  0  0
   -4.9690   25.6270  -31.3070 O   0  0  0  0  0  0  0  0  0  0  0  0
   -3.3830   24.4450  -30.0980 N   0  0  0  0  0  0  0  0  0  0  0  0
   -3.1040   24.7010  -28.7120 C   0  0  0  0  0  0  0  0  0  0  0  0
   -3.9390   24.2340  -27.6790 C   0  0  0  0  0  0  0  0  0  0  0  0
   -3.6430   24.5310  -26.3450 C   0  0  0  0  0  0  0  0  0  0  0  0
   -2.5310   25.3150  -26.0310 C   0  0  0  0  0  0  0  0  0  0  0  0
   -1.7160   25.8100  -27.0510 C   0  0  0  0  0  0  0  0  0  0  0  0
   -2.0030   25.5100  -28.3870 C   0  0  0  0  0  0  0  0  0  0  0  0
   -1.1850   26.0150  -29.3920 O   0  0  0  0  0  0  0  0  0  0  0  0
   -3.1080   20.4950  -28.8290 C   0  0  0  0  0  0  0  0  0  0  0  0
   -2.8594   19.6595  -25.5754 H   0  0  0  0  0  0  0  0  0  0  0  0
   -4.1130   19.1779  -26.7683 H   0  0  0  0  0  0  0  0  0  0  0  0
   -2.5127   18.3621  -26.7683 H   0  0  0  0  0  0  0  0  0  0  0  0
   -0.8990   20.9752  -26.2602 H   0  0  0  0  0  0  0  0  0  0  0  0
    0.4349   22.9062  -26.7061 H   0  0  0  0  0  0  0  0  0  0  0  0
    1.2550   22.3820  -28.2158 H   0  0  0  0  0  0  0  0  0  0  0  0
    0.2314   23.8581  -28.2158 H   0  0  0  0  0  0  0  0  0  0  0  0
   -1.0824   22.9295  -30.1174 H   0  0  0  0  0  0  0  0  0  0  0  0
   -5.6864   19.9749  -31.3679 H   0  0  0  0  0  0  0  0  0  0  0  0
   -8.1248   20.4511  -31.2471 H   0  0  0  0  0  0  0  0  0  0  0  0
   -8.9312   22.7958  -30.9822 H   0  0  0  0  0  0  0  0  0  0  0  0
   -7.2958   24.6644  -30.8002 H   0  0  0  0  0  0  0  0  0  0  0  0
   -4.8277   23.6331  -27.9223 H   0  0  0  0  0  0  0  0  0  0  0  0
   -4.2877   24.1461  -25.5411 H   0  0  0  0  0  0  0  0  0  0  0  0
   -2.2972   25.5426  -24.9805 H   0  0  0  0  0  0  0  0  0  0  0  0
   -0.8467   26.4370  -26.8037 H   0  0  0  0  0  0  0  0  0  0  0  0
   -3.9869   19.8894  -29.0952 H   0  0  0  0  0  0  0  0  0  0  0  0
  1  2  1  0
  2  3  2  0
  3  4  1  0
  4  5  1  0
  4  6  2  0
  6  7  1  0
  7  8  1  0
  8  9  2  0
  8 10  2  0
  8 11  1  0
 11 12  2  0
 12 13  1  0
 13 14  2  0
 14 15  1  0
 15 16  2  0
 16 17  1  0
 17 18  2  0
 17 19  1  0
 19 20  1  0
 20 21  2  0
 21 22  1  0
 22 23  2  0
 23 24  1  0
 24 25  2  0
 25 26  1  0
  7 27  2  0
 27  2  1  0
 16 11  1  0
 25 20  1  0
  1 28  1  0
  1 29  1  0
  1 30  1  0
  3 31  1  0
  5 32  1  0
  5 33  1  0
  5 34  1  0
  6 35  1  0
 12 36  1  0
 13 37  1  0
 14 38  1  0
 15 39  1  0
 21 40  1  0
 22 41  1  0
 23 42  1  0
 24 43  1  0
 27 44  1  0
M  CHG  2  19  -1  26  -1
M  END
>  <UniqueID>  (1) 
1

>  <SMILES>  (1) 
Cc1cc(C)cc(S(=O)(=O)c2ccccc2C(=O)[N-]c2ccccc2[O-])c1

>  <Energy>  (1) 
53.82219516633566

>  <Genealogy>  (1) 
Cc1cc(C)cc(S(=O)(=O)c2ccccc2C(=O)[N-]c2ccccc2[O-])c1 (protonated)
Cc1cc(C)cc(S(=O)(=O)c2ccccc2C(=O)[N-]c2ccccc2[O-])c1 (3D coordinates assigned)
Cc1cc(C)cc(S(=O)(=O)c2ccccc2C(=O)[N-]c2ccccc2[O-])c1 (optimized conformer: 53.82219516633566 kcal/mol)

>  <smiles>  (1) 
Cc1cc(C)cc(S(=O)(=O)c2ccccc2C(=O)Nc2ccccc2O)c1

>  <score_type>  (1) 
oracle

>  <origin>  (1) 
adgpu

>  <m_score__min__energy>  (1) 
-13.18

>  <m_primary>  (1) 
energy

$$$$
1:0
     RDKit          3D

 53 56  0  0  0  0  0  0  0  0999 V2000
   -2.4240   20.8990  -33.4210 C   0  0  0  0  0  0  0  0  0  0  0  0
   -3.1580   19.8530  -32.5900 C   0  0  0  0  0  0  0  0  0  0  0  0
   -4.5680   20.0610  -32.6470 O   0  0  0  0  0  0  0  0  0  0  0  0
   -5.2080   21.1950  -32.1280 C   0  0  0  0  0  0  0  0  0  0  0  0
   -4.4920   22.1530  -31.4750 N   0  0  0  0  0  0  0  0  0  0  0  0
   -5.0680   23.2590  -30.9330 C   0  0  0  0  0  0  0  0  0  0  0  0
   -4.2080   24.2420  -30.2450 C   0  0  0  0  0  0  0  0  0  0  0  0
   -3.8690   25.3120  -30.8190 O   0  0  0  0  0  0  0  0  0  0  0  0
   -3.7200   23.9490  -28.9300 N   0  0  0  0  0  0  0  0  0  0  0  0
   -2.3980   24.2380  -28.4610 C   0  0  0  0  0  0  0  0  0  0  0  0
   -1.9820   25.4490  -27.9520 C   0  0  0  0  0  0  0  0  0  0  0  0
   -0.6650   25.3750  -27.6750 N   0  0  0  0  0  0  0  0  0  0  0  0
   -0.2450   24.1570  -27.9880 N   0  0  0  0  0  0  0  0  0  0  0  0
    1.1630   23.7750  -27.9690 C   0  0  0  0  0  0  0  0  0  0  0  0
   -1.2740   23.4330  -28.4860 C   0  0  0  0  0  0  0  0  0  0  0  0
   -1.1440   22.1110  -29.1280 C   0  0  0  0  0  0  0  0  0  0  0  0
   -0.8890   22.0550  -30.3620 O   0  0  0  0  0  0  0  0  0  0  0  0
   -1.3060   20.8960  -28.3730 N   0  0  0  0  0  0  0  0  0  0  0  0
   -2.3920   20.7900  -27.3910 C   0  0  0  0  0  0  0  0  0  0  0  0
   -2.0710   19.6980  -26.3650 C   0  0  0  0  0  0  0  0  0  0  0  0
   -1.7290   18.4860  -27.0090 O   0  0  0  0  0  0  0  0  0  0  0  0
   -0.5290   18.6580  -27.7380 C   0  0  0  0  0  0  0  0  0  0  0  0
   -0.7290   19.6500  -28.8860 C   0  0  0  0  0  0  0  0  0  0  0  0
   -6.4610   23.4250  -31.0350 C   0  0  0  0  0  0  0  0  0  0  0  0
   -7.0890   24.5010  -30.4950 F   0  0  0  0  0  0  0  0  0  0  0  0
   -7.2180   22.4610  -31.7020 C   0  0  0  0  0  0  0  0  0  0  0  0
   -6.5950   21.3480  -32.2810 C   0  0  0  0  0  0  0  0  0  0  0  0
   -7.4190   20.2920  -32.9730 C   0  0  0  0  0  0  0  0  0  0  0  0
   -7.6870   19.0340  -32.1550 C   0  0  0  0  0  0  0  0  0  0  0  0
   -8.7940   20.0510  -32.3610 C   0  0  0  0  0  0  0  0  0  0  0  0
   -1.9227   21.6134  -32.7515 H   0  0  0  0  0  0  0  0  0  0  0  0
   -1.6746   20.4033  -34.0556 H   0  0  0  0  0  0  0  0  0  0  0  0
   -3.1450   21.4351  -34.0556 H   0  0  0  0  0  0  0  0  0  0  0  0
   -2.9247   18.8520  -32.9819 H   0  0  0  0  0  0  0  0  0  0  0  0
   -2.8302   19.9396  -31.5436 H   0  0  0  0  0  0  0  0  0  0  0  0
   -2.6201   26.3315  -27.7971 H   0  0  0  0  0  0  0  0  0  0  0  0
    1.5038   23.6825  -26.9272 H   0  0  0  0  0  0  0  0  0  0  0  0
    1.2882   22.8104  -28.4827 H   0  0  0  0  0  0  0  0  0  0  0  0
    1.7585   24.5440  -28.4827 H   0  0  0  0  0  0  0  0  0  0  0  0
   -2.5087   21.7531  -26.8725 H   0  0  0  0  0  0  0  0  0  0  0  0
   -3.3247   20.5299  -27.9130 H   0  0  0  0  0  0  0  0  0  0  0  0
   -1.2257   20.0261  -25.7422 H   0  0  0  0  0  0  0  0  0  0  0  0
   -2.9621   19.5267  -25.7433 H   0  0  0  0  0  0  0  0  0  0  0  0
    0.2515   19.0396  -27.0633 H   0  0  0  0  0  0  0  0  0  0  0  0
   -0.2294   17.6869  -28.1589 H   0  0  0  0  0  0  0  0  0  0  0  0
    0.2420   19.8641  -29.3565 H   0  0  0  0  0  0  0  0  0  0  0  0
   -1.4130   19.2124  -29.6281 H   0  0  0  0  0  0  0  0  0  0  0  0
   -8.3097   22.5757  -31.7735 H   0  0  0  0  0  0  0  0  0  0  0  0
   -7.0348   20.4966  -33.9832 H   0  0  0  0  0  0  0  0  0  0  0  0
   -7.7402   18.0551  -32.6538 H   0  0  0  0  0  0  0  0  0  0  0  0
   -7.2183   18.5626  -31.2786 H   0  0  0  0  0  0  0  0  0  0  0  0
   -9.6492   19.8088  -33.0090 H   0  0  0  0  0  0  0  0  0  0  0  0
   -9.4590   20.6211  -31.6955 H   0  0  0  0  0  0  0  0  0  0  0  0
  1  2  1  0
  2  3  1  0
  3  4  1  0
  4  5  2  0
  5  6  1  0
  6  7  1  0
  7  8  2  0
  7  9  1  0
  9 10  1  0
 10 11  1  0
 11 12  2  0
 12 13  1  0
 13 14  1  0
 13 15  1  0
 15 16  1  0
 16 17  2  0
 16 18  1  0
 18 19  1  0
 19 20  1  0
 20 21  1  0
 21 22  1  0
 22 23  1  0
  6 24  2  0
 24 25  1  0
 24 26  1  0
 26 27  2  0
 27 28  1  0
 28 29  1  0
 29 30  1  0
 27  4  1  0
 30 28  1  0
 15 10  2  0
 23 18  1  0
  1 31  1  0
  1 32  1  0
  1 33  1  0
  2 34  1  0
  2 35  1  0
 11 36  1  0
 14 37  1  0
 14 38  1  0
 14 39  1  0
 19 40  1  0
 19 41  1  0
 20 42  1  0
 20 43  1  0
 22 44  1  0
 22 45  1  0
 23 46  1  0
 23 47  1  0
 26 48  1  0
 28 49  1  0
 29 50  1  0
 29 51  1  0
 30 52  1  0
 30 53  1  0
M  CHG  1   9  -1
M  END
>  <UniqueID>  (2) 
2

>  <SMILES>  (2) 
CCOc1nc(C(=O)[N-]c2cnn(C)c2C(=O)N2CCOCC2)c(F)cc1C1CC1

>  <Energy>  (2) 
356.62720817284475

>  <Genealogy>  (2) 
CCOc1nc(C(=O)[N-]c2cnn(C)c2C(=O)N2CCOCC2)c(F)cc1C1CC1 (protonated)
CCOc1nc(C(=O)[N-]c2cnn(C)c2C(=O)N2CCOCC2)c(F)cc1C1CC1 (3D coordinates assigned)
CCOc1nc(C(=O)[N-]c2cnn(C)c2C(=O)N2CCOCC2)c(F)cc1C1CC1 (nonaromatic ring conformer: 356.62720817284475 kcal/mol)

>  <smiles>  (2) 
CCOc1nc(C(=O)Nc2cnn(C)c2C(=O)N2CCOCC2)c(F)cc1C1CC1

>  <score_type>  (2) 
oracle

>  <origin>  (2) 
adgpu

>  <m_score__min__energy>  (2) 
-10.23

>  <m_primary>  (2) 
energy

$$$$
2:0
     RDKit          3D

 30 31  0  0  0  0  0  0  0  0999 V2000
   -5.8980   16.7480  -33.4720 C   0  0  0  0  0  0  0  0  0  0  0  0
   -6.6620   17.9600  -33.0290 C   0  0  0  0  0  0  0  0  0  0  0  0
   -6.3520   19.2230  -33.5560 C   0  0  0  0  0  0  0  0  0  0  0  0
   -7.0370   20.3590  -33.1130 C   0  0  0  0  0  0  0  0  0  0  0  0
   -8.0280   20.2460  -32.1290 C   0  0  0  0  0  0  0  0  0  0  0  0
   -8.8850   21.6730  -31.5560 S   0  0  0  0  0  0  0  0  0  0  0  0
   -9.2630   21.4640  -30.1170 O   0  0  0  0  0  0  0  0  0  0  0  0
  -10.1340   21.9040  -32.3610 O   0  0  0  0  0  0  0  0  0  0  0  0
   -7.8630   23.0710  -31.6820 N   0  0  0  0  0  0  0  0  0  0  0  0
   -6.5180   23.1330  -31.1720 C   0  0  0  0  0  0  0  0  0  0  0  0
   -5.8710   22.0020  -30.6380 C   0  0  0  0  0  0  0  0  0  0  0  0
   -4.5660   22.1020  -30.1460 C   0  0  0  0  0  0  0  0  0  0  0  0
   -3.8900   23.3240  -30.1840 C   0  0  0  0  0  0  0  0  0  0  0  0
   -2.2510   23.4280  -29.5590 Cl  0  0  0  0  0  0  0  0  0  0  0  0
   -4.5220   24.4530  -30.7200 C   0  0  0  0  0  0  0  0  0  0  0  0
   -3.8600   25.6750  -30.7650 O   0  0  0  0  0  0  0  0  0  0  0  0
   -5.8280   24.3560  -31.2120 C   0  0  0  0  0  0  0  0  0  0  0  0
   -8.3310   18.9870  -31.5940 C   0  0  0  0  0  0  0  0  0  0  0  0
   -7.6470   17.8510  -32.0340 C   0  0  0  0  0  0  0  0  0  0  0  0
   -5.5478   16.1925  -32.5895 H   0  0  0  0  0  0  0  0  0  0  0  0
   -6.5527   16.1023  -34.0757 H   0  0  0  0  0  0  0  0  0  0  0  0
   -5.0331   17.0602  -34.0757 H   0  0  0  0  0  0  0  0  0  0  0  0
   -5.5671   19.3200  -34.3206 H   0  0  0  0  0  0  0  0  0  0  0  0
   -6.7969   21.3445  -33.5385 H   0  0  0  0  0  0  0  0  0  0  0  0
   -8.2900   23.9320  -32.0900 H   0  0  0  0  0  0  0  0  0  0  0  0
   -6.3948   21.0352  -30.6078 H   0  0  0  0  0  0  0  0  0  0  0  0
   -4.0693   21.2144  -29.7271 H   0  0  0  0  0  0  0  0  0  0  0  0
   -6.3190   25.2453  -31.6339 H   0  0  0  0  0  0  0  0  0  0  0  0
   -9.1109   18.8926  -30.8241 H   0  0  0  0  0  0  0  0  0  0  0  0
   -7.8808   16.8678  -31.5996 H   0  0  0  0  0  0  0  0  0  0  0  0
  1  2  1  0
  2  3  2  0
  3  4  1  0
  4  5  2  0
  5  6  1  0
  6  7  2  0
  6  8  2  0
  6  9  1  0
  9 10  1  0
 10 11  2  0
 11 12  1  0
 12 13  2  0
 13 14  1  0
 13 15  1  0
 15 16  1  0
 15 17  2  0
  5 18  1  0
 18 19  2  0
 19  2  1  0
 17 10  1  0
  1 20  1  0
  1 21  1  0
  1 22  1  0
  3 23  1  0
  4 24  1  0
  9 25  1  0
 11 26  1  0
 12 27  1  0
 17 28  1  0
 18 29  1  0
 19 30  1  0
M  CHG  1  16  -1
M  END
>  <UniqueID>  (3) 
3

>  <SMILES>  (3) 
Cc1ccc(S(=O)(=O)Nc2ccc(Cl)c([O-])c2)cc1

>  <Energy>  (3) 
32.801148279351715

>  <Genealogy>  (3) 
Cc1ccc(S(=O)(=O)Nc2ccc(Cl)c([O-])c2)cc1 (protonated)
Cc1ccc(S(=O)(=O)Nc2ccc(Cl)c([O-])c2)cc1 (3D coordinates assigned)
Cc1ccc(S(=O)(=O)Nc2ccc(Cl)c([O-])c2)cc1 (optimized conformer: 32.801148279351715 kcal/mol)

>  <smiles>  (3) 
Cc1ccc(S(=O)(=O)Nc2ccc(Cl)c(O)c2)cc1

>  <score_type>  (3) 
oracle

>  <origin>  (3) 
adgpu

>  <m_score__min__energy>  (3) 
-11.109999999999999

>  <m_primary>  (3) 
energy

$$$$
3:0
     RDKit          3D

 52 55  0  0  0  0  0  0  0  0999 V2000
   -2.2830   12.2130  -32.7660 C   0  0  0  0  0  0  0  0  0  0  0  0
   -2.8890   13.5310  -33.1310 C   0  0  0  0  0  0  0  0  0  0  0  0
   -2.5290   14.2440  -34.2240 N   0  0  0  0  0  0  0  0  0  0  0  0
   -3.3070   15.3400  -34.2190 C   0  0  0  0  0  0  0  0  0  0  0  0
   -3.3240   16.3630  -35.1610 C   0  0  0  0  0  0  0  0  0  0  0  0
   -4.2420   17.4140  -34.9800 C   0  0  0  0  0  0  0  0  0  0  0  0
   -5.1240   17.4270  -33.8670 C   0  0  0  0  0  0  0  0  0  0  0  0
   -6.0990   18.5290  -33.6850 C   0  0  0  0  0  0  0  0  0  0  0  0
   -6.3080   19.3350  -34.6320 O   0  0  0  0  0  0  0  0  0  0  0  0
   -6.8440   18.6600  -32.4610 N   0  0  0  0  0  0  0  0  0  0  0  0
   -7.4830   19.8780  -32.0410 C   0  0  0  0  0  0  0  0  0  0  0  0
   -8.8850   19.9900  -31.9940 C   0  0  0  0  0  0  0  0  0  0  0  0
   -9.4820   21.1900  -31.5970 C   0  0  0  0  0  0  0  0  0  0  0  0
   -8.6900   22.2900  -31.2580 C   0  0  0  0  0  0  0  0  0  0  0  0
   -7.2960   22.2000  -31.3270 C   0  0  0  0  0  0  0  0  0  0  0  0
   -6.3120   23.5950  -30.8920 S   0  0  0  0  0  0  0  0  0  0  0  0
   -7.2220   24.7100  -30.4560 O   0  0  0  0  0  0  0  0  0  0  0  0
   -5.5160   24.0610  -32.0810 O   0  0  0  0  0  0  0  0  0  0  0  0
   -5.2350   23.1630  -29.5860 N   0  0  0  0  0  0  0  0  0  0  0  0
   -4.0150   22.4960  -30.0970 C   0  0  0  0  0  0  0  0  0  0  0  0
   -2.7840   23.4190  -30.0500 C   0  0  0  0  0  0  0  0  0  0  0  0
   -2.4950   23.8960  -28.7430 O   0  0  0  0  0  0  0  0  0  0  0  0
   -3.6520   24.1440  -27.9530 C   0  0  0  0  0  0  0  0  0  0  0  0
   -4.9400   24.3530  -28.7660 C   0  0  0  0  0  0  0  0  0  0  0  0
   -6.6960   20.9950  -31.7230 C   0  0  0  0  0  0  0  0  0  0  0  0
   -5.0830   16.3600  -32.9370 C   0  0  0  0  0  0  0  0  0  0  0  0
   -4.1550   15.3390  -33.1420 C   0  0  0  0  0  0  0  0  0  0  0  0
   -3.8910   14.1920  -32.4200 C   0  0  0  0  0  0  0  0  0  0  0  0
   -4.6170   13.7040  -31.2040 C   0  0  0  0  0  0  0  0  0  0  0  0
   -2.2402   12.1199  -31.6708 H   0  0  0  0  0  0  0  0  0  0  0  0
   -2.8976   11.3998  -33.1794 H   0  0  0  0  0  0  0  0  0  0  0  0
   -1.2656   12.1502  -33.1794 H   0  0  0  0  0  0  0  0  0  0  0  0
   -1.8060   13.9880  -34.9340 H   0  0  0  0  0  0  0  0  0  0  0  0
   -2.6399   16.3509  -36.0223 H   0  0  0  0  0  0  0  0  0  0  0  0
   -4.2769   18.2361  -35.7100 H   0  0  0  0  0  0  0  0  0  0  0  0
   -7.0320   17.7940  -31.9070 H   0  0  0  0  0  0  0  0  0  0  0  0
   -9.5132   19.1304  -32.2706 H   0  0  0  0  0  0  0  0  0  0  0  0
  -10.5782   21.2685  -31.5514 H   0  0  0  0  0  0  0  0  0  0  0  0
   -9.1640   23.2290  -30.9361 H   0  0  0  0  0  0  0  0  0  0  0  0
   -3.8141   21.6061  -29.4824 H   0  0  0  0  0  0  0  0  0  0  0  0
   -4.1936   22.2250  -31.1480 H   0  0  0  0  0  0  0  0  0  0  0  0
   -1.9121   22.8590  -30.4191 H   0  0  0  0  0  0  0  0  0  0  0  0
   -3.0064   24.2948  -30.6773 H   0  0  0  0  0  0  0  0  0  0  0  0
   -3.8028   23.2843  -27.2835 H   0  0  0  0  0  0  0  0  0  0  0  0
   -3.4670   25.0820  -27.4090 H   0  0  0  0  0  0  0  0  0  0  0  0
   -5.7776   24.5335  -28.0762 H   0  0  0  0  0  0  0  0  0  0  0  0
   -4.8026   25.2176  -29.4321 H   0  0  0  0  0  0  0  0  0  0  0  0
   -5.5999   20.9256  -31.7846 H   0  0  0  0  0  0  0  0  0  0  0  0
   -5.7657   16.3369  -32.0748 H   0  0  0  0  0  0  0  0  0  0  0  0
   -4.0960   14.0542  -30.3007 H   0  0  0  0  0  0  0  0  0  0  0  0
   -5.6451   14.0951  -31.2092 H   0  0  0  0  0  0  0  0  0  0  0  0
   -4.6430   12.6043  -31.2092 H   0  0  0  0  0  0  0  0  0  0  0  0
  1  2  1  0
  2  3  1  0
  3  4  1  0
  4  5  2  0
  5  6  1  0
  6  7  2  0
  7  8  1  0
  8  9  2  0
  8 10  1  0
 10 11  1  0
 11 12  2  0
 12 13  1  0
 13 14  2  0
 14 15  1  0
 15 16  1  0
 16 17  2  0
 16 18  2  0
 16 19  1  0
 19 20  1  0
 20 21  1  0
 21 22  1  0
 22 23  1  0
 23 24  1  0
 15 25  2  0
  7 26  1  0
 26 27  2  0
 27 28  1  0
 28 29  1  0
 28  2  2  0
 27  4  1  0
 25 11  1  0
 24 19  1  0
  1 30  1  0
  1 31  1  0
  1 32  1  0
  3 33  1  0
  5 34  1  0
  6 35  1  0
 10 36  1  0
 12 37  1  0
 13 38  1  0
 14 39  1  0
 20 40  1  0
 20 41  1  0
 21 42  1  0
 21 43  1  0
 23 44  1  0
 23 45  1  0
 24 46  1  0
 24 47  1  0
 25 48  1  0
 26 49  1  0
 29 50  1  0
 29 51  1  0
 29 52  1  0
M  END
>  <UniqueID>  (4) 
4

>  <SMILES>  (4) 
Cc1[nH]c2ccc(C(=O)Nc3cccc(S(=O)(=O)N4CCOCC4)c3)cc2c1C

>  <Energy>  (4) 
103.76651620564172

>  <Genealogy>  (4) 
Cc1[nH]c2ccc(C(=O)Nc3cccc(S(=O)(=O)N4CCOCC4)c3)cc2c1C (3D coordinates assigned)
Cc1[nH]c2ccc(C(=O)Nc3cccc(S(=O)(=O)N4CCOCC4)c3)cc2c1C (nonaromatic ring conformer: 103.76651620564172 kcal/mol)

>  <smiles>  (4) 
Cc1[nH]c2ccc(C(=O)Nc3cccc(S(=O)(=O)N4CCOCC4)c3)cc2c1C

>  <score_type>  (4) 
oracle

>  <origin>  (4) 
adgpu

>  <m_score__min__energy>  (4) 
-9.9600000000000009

>  <m_primary>  (4) 
energy

$$$$
4:0
     RDKit          3D

 48 51  0  0  0  0  0  0  0  0999 V2000
   -3.8320   23.1840  -31.4220 H   0  0  0  0  0  0  0  0  0  0  0  0
   -4.1300   22.6110  -32.2000 O   0  0  0  0  0  0  0  0  0  0  0  0
   -5.4100   22.0590  -32.2960 C   0  0  0  0  0  0  0  0  0  0  0  0
   -6.4950   22.8500  -31.9030 C   0  0  0  0  0  0  0  0  0  0  0  0
   -6.3258   23.8923  -31.5949 H   0  0  0  0  0  0  0  0  0  0  0  0
   -7.7910   22.3290  -31.8980 C   0  0  0  0  0  0  0  0  0  0  0  0
   -8.6366   22.9650  -31.5974 H   0  0  0  0  0  0  0  0  0  0  0  0
   -8.0170   20.9980  -32.2750 C   0  0  0  0  0  0  0  0  0  0  0  0
   -9.4110   20.4440  -32.2950 C   0  0  0  0  0  0  0  0  0  0  0  0
   -9.7646   20.3035  -31.2629 H   0  0  0  0  0  0  0  0  0  0  0  0
  -10.0770   21.1458  -32.8184 H   0  0  0  0  0  0  0  0  0  0  0  0
   -9.4136   19.4765  -32.8184 H   0  0  0  0  0  0  0  0  0  0  0  0
   -6.9400   20.2110  -32.7060 C   0  0  0  0  0  0  0  0  0  0  0  0
   -7.1186   19.1725  -33.0217 H   0  0  0  0  0  0  0  0  0  0  0  0
   -5.6340   20.7320  -32.7400 C   0  0  0  0  0  0  0  0  0  0  0  0
   -4.5510   19.8760  -33.2730 C   0  0  0  0  0  0  0  0  0  0  0  0
   -4.7440   18.9200  -34.2050 N   0  0  0  0  0  0  0  0  0  0  0  0
   -3.5670   18.4100  -34.5310 N   0  0  0  0  0  0  0  0  0  0  0  0
   -2.6190   19.0480  -33.8190 C   0  0  0  0  0  0  0  0  0  0  0  0
   -1.1820   18.7690  -33.9290 C   0  0  0  0  0  0  0  0  0  0  0  0
   -0.7060   18.3860  -35.0330 O   0  0  0  0  0  0  0  0  0  0  0  0
   -0.3450   18.8830  -32.7720 N   0  0  0  0  0  0  0  0  0  0  0  0
   -0.4470   19.8800  -31.7440 C   0  0  0  0  0  0  0  0  0  0  0  0
   -0.4930   19.4640  -30.4080 C   0  0  0  0  0  0  0  0  0  0  0  0
   -0.4311   18.3925  -30.1671 H   0  0  0  0  0  0  0  0  0  0  0  0
   -0.6170   20.4010  -29.3780 C   0  0  0  0  0  0  0  0  0  0  0  0
   -0.6330   20.0651  -28.3306 H   0  0  0  0  0  0  0  0  0  0  0  0
   -0.7210   21.7670  -29.6750 C   0  0  0  0  0  0  0  0  0  0  0  0
   -0.8760   22.9290  -28.3590 S   0  0  0  0  0  0  0  0  0  0  0  0
   -0.3050   22.3290  -27.1050 O   0  0  0  0  0  0  0  0  0  0  0  0
   -0.1120   24.1810  -28.6910 O   0  0  0  0  0  0  0  0  0  0  0  0
   -2.5420   23.3190  -28.0550 N   0  0  0  0  0  0  0  0  0  0  0  0
   -3.2810   24.0170  -28.8620 C   0  0  0  0  0  0  0  0  0  0  0  0
   -2.8640   24.5170  -30.0420 N   0  0  0  0  0  0  0  0  0  0  0  0
   -3.8870   25.1410  -30.5530 O   0  0  0  0  0  0  0  0  0  0  0  0
   -4.9350   25.0600  -29.7610 C   0  0  0  0  0  0  0  0  0  0  0  0
   -6.2620   25.6810  -30.0430 C   0  0  0  0  0  0  0  0  0  0  0  0
   -6.7656   25.9167  -29.0939 H   0  0  0  0  0  0  0  0  0  0  0  0
   -6.1187   26.6055  -30.6215 H   0  0  0  0  0  0  0  0  0  0  0  0
   -6.8800   24.9786  -30.6215 H   0  0  0  0  0  0  0  0  0  0  0  0
   -4.6000   24.3370  -28.6350 C   0  0  0  0  0  0  0  0  0  0  0  0
   -5.2303   24.0802  -27.7708 H   0  0  0  0  0  0  0  0  0  0  0  0
   -0.6990   22.1850  -31.0120 C   0  0  0  0  0  0  0  0  0  0  0  0
   -0.7851   23.2549  -31.2527 H   0  0  0  0  0  0  0  0  0  0  0  0
   -0.5680   21.2480  -32.0420 C   0  0  0  0  0  0  0  0  0  0  0  0
   -0.5596   21.5832  -33.0896 H   0  0  0  0  0  0  0  0  0  0  0  0
   -3.2010   20.0020  -33.0110 C   0  0  0  0  0  0  0  0  0  0  0  0
   -2.7059   20.6999  -32.3197 H   0  0  0  0  0  0  0  0  0  0  0  0
  1  2  1  0
  2  3  1  0
  3  4  2  0
  4  5  1  0
  4  6  1  0
  6  7  1  0
  6  8  2  0
  8  9  1  0
  9 10  1  0
  9 11  1  0
  9 12  1  0
  8 13  1  0
 13 14  1  0
 13 15  2  0
 15 16  1  0
 16 17  1  0
 17 18  1  0
 18 19  2  0
 19 20  1  0
 20 21  2  0
 20 22  1  0
 22 23  1  0
 23 24  2  0
 24 25  1  0
 24 26  1  0
 26 27  1  0
 26 28  2  0
 28 29  1  0
 29 30  2  0
 29 31  2  0
 29 32  1  0
 32 33  2  0
 33 34  1  0
 34 35  1  0
 35 36  1  0
 36 37  1  0
 37 38  1  0
 37 39  1  0
 37 40  1  0
 36 41  2  0
 41 42  1  0
 28 43  1  0
 43 44  1  0
 43 45  2  0
 45 46  1  0
 19 47  1  0
 47 48  1  0
 15  3  1  0
 47 16  2  0
 45 23  1  0
 41 33  1  0
M  CHG  3  17  -1  22  -1  34  -1
M  END
>  <UniqueID>  (5) 
5

>  <SMILES>  (5) 
Cc1ccc(O)c(-c2cc(C(=O)[N-]c3ccc(S(=O)(=O)/N=c4/cc(C)o[n-]4)cc3)n[n-]2)c1

>  <Energy>  (5) 
123.22062378941229

>  <Genealogy>  (5) 
Cc1ccc(O)c(-c2cc(C(=O)[N-]c3ccc(S(=O)(=O)N=c4cc(C)o[n-]4)cc3)n[n-]2)c1 (protonated)
Cc1ccc(O)c(-c2cc(C(=O)[N-]c3ccc(S(=O)(=O)/N=c4/cc(C)o[n-]4)cc3)n[n-]2)c1 (cis-trans isomerization)
Cc1ccc(O)c(-c2cc(C(=O)[N-]c3ccc(S(=O)(=O)/N=c4/cc(C)o[n-]4)cc3)n[n-]2)c1 (3D coordinates assigned)
Cc1ccc(O)c(-c2cc(C(=O)[N-]c3ccc(S(=O)(=O)/N=c4/cc(C)o[n-]4)cc3)n[n-]2)c1 (optimized conformer: 123.22062378941229 kcal/mol)

>  <smiles>  (5) 
Cc1ccc(O)c(-c2cc(C(=O)Nc3ccc(S(=O)(=O)N=c4cc(C)o[nH]4)cc3)n[nH]2)c1

>  <score_type>  (5) 
oracle

>  <origin>  (5) 
adgpu

>  <m_score__min__energy>  (5) 
-12.390000000000001

>  <m_primary>  (5) 
energy

$$$$
5:0
     RDKit          3D

 38 40  0  0  0  0  0  0  0  0999 V2000
   -6.0610   25.8260  -29.6200 O   0  0  0  0  0  0  0  0  0  0  0  0
   -5.1090   24.6820  -29.8320 S   0  0  0  0  0  0  0  0  0  0  0  0
   -3.8790   25.1970  -30.5240 O   0  0  0  0  0  0  0  0  0  0  0  0
   -4.6610   24.0250  -28.2890 N   0  0  0  0  0  0  0  0  0  0  0  0
   -3.3500   24.1870  -27.7200 C   0  0  0  0  0  0  0  0  0  0  0  0
   -3.1280   25.1150  -26.6840 C   0  0  0  0  0  0  0  0  0  0  0  0
   -1.8600   25.2540  -26.1150 C   0  0  0  0  0  0  0  0  0  0  0  0
   -0.8000   24.4690  -26.5670 C   0  0  0  0  0  0  0  0  0  0  0  0
   -1.0030   23.5450  -27.5930 C   0  0  0  0  0  0  0  0  0  0  0  0
   -2.2680   23.3990  -28.1760 C   0  0  0  0  0  0  0  0  0  0  0  0
   -2.4570   22.2290  -29.5300 S   0  0  0  0  0  0  0  0  0  0  0  0
   -2.1420   20.8140  -28.4750 C   0  0  0  0  0  0  0  0  0  0  0  0
   -0.9480   20.0900  -28.6060 C   0  0  0  0  0  0  0  0  0  0  0  0
   -0.6990   18.9940  -27.7730 C   0  0  0  0  0  0  0  0  0  0  0  0
   -1.6430   18.6150  -26.8150 C   0  0  0  0  0  0  0  0  0  0  0  0
   -2.8390   19.3290  -26.6880 C   0  0  0  0  0  0  0  0  0  0  0  0
   -3.0890   20.4270  -27.5180 C   0  0  0  0  0  0  0  0  0  0  0  0
   -5.8550   23.4370  -30.8270 C   0  0  0  0  0  0  0  0  0  0  0  0
   -7.2520   23.3350  -30.8960 C   0  0  0  0  0  0  0  0  0  0  0  0
   -7.8450   22.3500  -31.6920 C   0  0  0  0  0  0  0  0  0  0  0  0
   -7.0460   21.4600  -32.4170 C   0  0  0  0  0  0  0  0  0  0  0  0
   -5.6540   21.5560  -32.3480 C   0  0  0  0  0  0  0  0  0  0  0  0
   -5.0570   22.5400  -31.5530 C   0  0  0  0  0  0  0  0  0  0  0  0
   -5.3650   23.4170  -27.8170 H   0  0  0  0  0  0  0  0  0  0  0  0
   -3.9602   25.7355  -26.3200 H   0  0  0  0  0  0  0  0  0  0  0  0
   -1.6973   25.9843  -25.3086 H   0  0  0  0  0  0  0  0  0  0  0  0
    0.1967   24.5781  -26.1147 H   0  0  0  0  0  0  0  0  0  0  0  0
   -0.1640   22.9274  -27.9461 H   0  0  0  0  0  0  0  0  0  0  0  0
   -0.2071   20.3840  -29.3640 H   0  0  0  0  0  0  0  0  0  0  0  0
    0.2404   18.4303  -27.8722 H   0  0  0  0  0  0  0  0  0  0  0  0
   -1.4452   17.7539  -26.1598 H   0  0  0  0  0  0  0  0  0  0  0  0
   -3.5827   19.0273  -25.9358 H   0  0  0  0  0  0  0  0  0  0  0  0
   -4.0305   20.9872  -27.4190 H   0  0  0  0  0  0  0  0  0  0  0  0
   -7.8823   24.0310  -30.3230 H   0  0  0  0  0  0  0  0  0  0  0  0
   -8.9410   22.2751  -31.7480 H   0  0  0  0  0  0  0  0  0  0  0  0
   -7.5136   20.6845  -33.0415 H   0  0  0  0  0  0  0  0  0  0  0  0
   -5.0264   20.8566  -32.9198 H   0  0  0  0  0  0  0  0  0  0  0  0
   -3.9607   22.6106  -31.4970 H   0  0  0  0  0  0  0  0  0  0  0  0
  1  2  2  0
  2  3  2  0
  2  4  1  0
  4  5  1  0
  5  6  2  0
  6  7  1  0
  7  8  2  0
  8  9  1  0
  9 10  2  0
 10 11  1  0
 11 12  1  0
 12 13  2  0
 13 14  1  0
 14 15  2  0
 15 16  1  0
 16 17  2  0
  2 18  1  0
 18 19  2  0
 19 20  1  0
 20 21  2  0
 21 22  1  0
 22 23  2  0
 10  5  1  0
 17 12  1  0
 23 18  1  0
  4 24  1  0
  6 25  1  0
  7 26  1  0
  8 27  1  0
  9 28  1  0
 13 29  1  0
 14 30  1  0
 15 31  1  0
 16 32  1  0
 17 33  1  0
 19 34  1  0
 20 35  1  0
 21 36  1  0
 22 37  1  0
 23 38  1  0
M  END
>  <UniqueID>  (6) 
6

>  <SMILES>  (6) 
O=S(=O)(Nc1ccccc1Sc1ccccc1)c1ccccc1

>  <Energy>  (6) 
40.08302625380428

>  <Genealogy>  (6) 
O=S(=O)(Nc1ccccc1Sc1ccccc1)c1ccccc1 (3D coordinates assigned)
O=S(=O)(Nc1ccccc1Sc1ccccc1)c1ccccc1 (optimized conformer: 40.08302625380428 kcal/mol)

>  <smiles>  (6) 
O=S(=O)(Nc1ccccc1Sc1ccccc1)c1ccccc1

>  <score_type>  (6) 
oracle

>  <origin>  (6) 
adgpu

>  <m_score__min__energy>  (6) 
-9.3800000000000008

>  <m_primary>  (6) 
energy

$$$$
6:0
     RDKit          3D

 58 61  0  0  0  0  0  0  0  0999 V2000
    0.9380   17.0730  -27.8610 C   0  0  0  0  0  0  0  0  0  0  0  0
    1.0400   18.4820  -28.0420 O   0  0  0  0  0  0  0  0  0  0  0  0
   -0.0570   19.3520  -28.1110 C   0  0  0  0  0  0  0  0  0  0  0  0
   -1.1000   19.1790  -27.1960 C   0  0  0  0  0  0  0  0  0  0  0  0
   -2.2090   20.0300  -27.2140 C   0  0  0  0  0  0  0  0  0  0  0  0
   -2.2900   21.0780  -28.1440 C   0  0  0  0  0  0  0  0  0  0  0  0
   -3.5310   21.9440  -28.1500 C   0  0  0  0  0  0  0  0  0  0  0  0
   -3.8710   22.4890  -29.4860 N   0  0  0  0  0  0  0  0  0  0  0  0
   -3.9920   23.8420  -29.7490 C   0  0  0  0  0  0  0  0  0  0  0  0
   -3.5330   24.7950  -28.9800 N   0  0  0  0  0  0  0  0  0  0  0  0
   -2.6320   24.7520  -27.8700 C   0  0  0  0  0  0  0  0  0  0  0  0
   -3.0220   25.2750  -26.6310 C   0  0  0  0  0  0  0  0  0  0  0  0
   -2.1080   25.3280  -25.5730 C   0  0  0  0  0  0  0  0  0  0  0  0
   -0.7900   24.9040  -25.7650 C   0  0  0  0  0  0  0  0  0  0  0  0
   -0.3770   24.4310  -27.0170 C   0  0  0  0  0  0  0  0  0  0  0  0
    1.3050   23.9740  -27.2690 S   0  0  0  0  0  0  0  0  0  0  0  0
    2.2950   24.6220  -25.9410 C   0  0  0  0  0  0  0  0  0  0  0  0
    1.8050   24.5300  -28.5730 O   0  0  0  0  0  0  0  0  0  0  0  0
    1.4220   22.4780  -27.3020 O   0  0  0  0  0  0  0  0  0  0  0  0
   -1.2990   24.3670  -28.0710 C   0  0  0  0  0  0  0  0  0  0  0  0
   -4.6030   24.2380  -30.8890 N   0  0  0  0  0  0  0  0  0  0  0  0
   -5.0110   23.3560  -31.8250 C   0  0  0  0  0  0  0  0  0  0  0  0
   -5.5640   23.7900  -32.8720 O   0  0  0  0  0  0  0  0  0  0  0  0
   -4.8040   22.0210  -31.6390 N   0  0  0  0  0  0  0  0  0  0  0  0
   -5.1450   21.0520  -32.7020 C   0  0  0  0  0  0  0  0  0  0  0  0
   -6.5370   20.5180  -32.4940 C   0  0  0  0  0  0  0  0  0  0  0  0
   -7.5830   21.3800  -32.1210 C   0  0  0  0  0  0  0  0  0  0  0  0
   -8.8640   20.8740  -31.8850 C   0  0  0  0  0  0  0  0  0  0  0  0
   -9.1110   19.5050  -32.0150 C   0  0  0  0  0  0  0  0  0  0  0  0
   -8.0780   18.6400  -32.3800 C   0  0  0  0  0  0  0  0  0  0  0  0
   -6.7930   19.1420  -32.6160 C   0  0  0  0  0  0  0  0  0  0  0  0
   -4.2450   21.5920  -30.4640 C   0  0  0  0  0  0  0  0  0  0  0  0
   -4.0780   20.3530  -30.2740 O   0  0  0  0  0  0  0  0  0  0  0  0
   -1.2490   21.2410  -29.0790 C   0  0  0  0  0  0  0  0  0  0  0  0
   -0.1400   20.3900  -29.0580 C   0  0  0  0  0  0  0  0  0  0  0  0
    0.9213   16.8417  -26.7857 H   0  0  0  0  0  0  0  0  0  0  0  0
    0.0112   16.7094  -28.3287 H   0  0  0  0  0  0  0  0  0  0  0  0
    1.8028   16.5797  -28.3287 H   0  0  0  0  0  0  0  0  0  0  0  0
   -1.0475   18.3668  -26.4560 H   0  0  0  0  0  0  0  0  0  0  0  0
   -3.0254   19.8769  -26.4928 H   0  0  0  0  0  0  0  0  0  0  0  0
   -4.3785   21.3388  -27.7959 H   0  0  0  0  0  0  0  0  0  0  0  0
   -3.3263   22.8036  -27.4948 H   0  0  0  0  0  0  0  0  0  0  0  0
   -4.0483   25.6447  -26.4893 H   0  0  0  0  0  0  0  0  0  0  0  0
   -2.4268   25.7036  -24.5895 H   0  0  0  0  0  0  0  0  0  0  0  0
   -0.0748   24.9419  -24.9301 H   0  0  0  0  0  0  0  0  0  0  0  0
    1.8512   24.3315  -24.9773 H   0  0  0  0  0  0  0  0  0  0  0  0
    3.3149   24.2161  -26.0122 H   0  0  0  0  0  0  0  0  0  0  0  0
    2.3312   25.7191  -26.0122 H   0  0  0  0  0  0  0  0  0  0  0  0
   -0.9750   24.0129  -29.0608 H   0  0  0  0  0  0  0  0  0  0  0  0
   -5.0904   21.5521  -33.6802 H   0  0  0  0  0  0  0  0  0  0  0  0
   -4.4315   20.2156  -32.6665 H   0  0  0  0  0  0  0  0  0  0  0  0
   -7.3922   22.4581  -32.0144 H   0  0  0  0  0  0  0  0  0  0  0  0
   -9.6789   21.5543  -31.5965 H   0  0  0  0  0  0  0  0  0  0  0  0
  -10.1202   19.1085  -31.8296 H   0  0  0  0  0  0  0  0  0  0  0  0
   -8.2741   17.5625  -32.4823 H   0  0  0  0  0  0  0  0  0  0  0  0
   -5.9803   18.4565  -32.8981 H   0  0  0  0  0  0  0  0  0  0  0  0
   -1.3091   22.0425  -29.8300 H   0  0  0  0  0  0  0  0  0  0  0  0
    0.6724   20.5325  -29.7858 H   0  0  0  0  0  0  0  0  0  0  0  0
  1  2  1  0
  2  3  1  0
  3  4  2  0
  4  5  1  0
  5  6  2  0
  6  7  1  0
  7  8  1  0
  8  9  1  0
  9 10  2  3
 10 11  1  0
 11 12  2  0
 12 13  1  0
 13 14  2  0
 14 15  1  0
 15 16  1  0
 16 17  1  0
 16 18  2  0
 16 19  2  0
 15 20  2  0
  9 21  1  0
 21 22  1  0
 22 23  2  0
 22 24  1  0
 24 25  1  0
 25 26  1  0
 26 27  2  0
 27 28  1  0
 28 29  2  0
 29 30  1  0
 30 31  2  0
 24 32  1  0
 32 33  2  0
  6 34  1  0
 34 35  2  0
 35  3  1  0
 32  8  1  0
 20 11  1  0
 31 26  1  0
  1 36  1  0
  1 37  1  0
  1 38  1  0
  4 39  1  0
  5 40  1  0
  7 41  1  0
  7 42  1  0
 12 43  1  0
 13 44  1  0
 14 45  1  0
 17 46  1  0
 17 47  1  0
 17 48  1  0
 20 49  1  0
 25 50  1  0
 25 51  1  0
 27 52  1  0
 28 53  1  0
 29 54  1  0
 30 55  1  0
 31 56  1  0
 34 57  1  0
 35 58  1  0
M  CHG  1  21  -1
M  END
>  <UniqueID>  (7) 
7

>  <SMILES>  (7) 
COc1ccc(Cn2c(=Nc3cccc(S(C)(=O)=O)c3)[n-]c(=O)n(Cc3ccccc3)c2=O)cc1

>  <Energy>  (7) 
83.6330914414471

>  <Genealogy>  (7) 
COc1ccc(Cn2c(=Nc3cccc(S(C)(=O)=O)c3)[n-]c(=O)n(Cc3ccccc3)c2=O)cc1 (protonated)
COc1ccc(Cn2c(=Nc3cccc(S(C)(=O)=O)c3)[n-]c(=O)n(Cc3ccccc3)c2=O)cc1 (3D coordinates assigned)
COc1ccc(Cn2c(=Nc3cccc(S(C)(=O)=O)c3)[n-]c(=O)n(Cc3ccccc3)c2=O)cc1 (optimized conformer: 83.6330914414471 kcal/mol)

>  <smiles>  (7) 
COc1ccc(Cn2c(=Nc3cccc(S(C)(=O)=O)c3)[nH]c(=O)n(Cc3ccccc3)c2=O)cc1

>  <score_type>  (7) 
oracle

>  <origin>  (7) 
adgpu

>  <m_score__min__energy>  (7) 
-10.32

>  <m_primary>  (7) 
energy

$$$$
7:0
     RDKit          3D

 51 54  0  0  0  0  0  0  0  0999 V2000
   -2.7570   20.3840  -27.7150 C   0  0  0  0  0  0  0  0  0  0  0  0
   -2.9600   21.6880  -28.4200 C   0  0  0  0  0  0  0  0  0  0  0  0
   -2.3430   22.8530  -27.9520 C   0  0  0  0  0  0  0  0  0  0  0  0
   -2.5280   24.0520  -28.6440 C   0  0  0  0  0  0  0  0  0  0  0  0
   -3.3180   24.0770  -29.7960 C   0  0  0  0  0  0  0  0  0  0  0  0
   -3.4980   25.2760  -30.4750 O   0  0  0  0  0  0  0  0  0  0  0  0
   -3.9190   22.8870  -30.2460 C   0  0  0  0  0  0  0  0  0  0  0  0
   -4.7310   22.8350  -31.5100 C   0  0  0  0  0  0  0  0  0  0  0  0
   -4.6360   21.5010  -32.1130 N   0  0  0  0  0  0  0  0  0  0  0  0
   -3.5310   20.9020  -32.6070 C   0  0  0  0  0  0  0  0  0  0  0  0
   -1.8520   21.5090  -32.4150 S   0  0  0  0  0  0  0  0  0  0  0  0
   -1.2690   20.8620  -34.0210 C   0  0  0  0  0  0  0  0  0  0  0  0
    0.0390   21.4860  -34.3990 C   0  0  0  0  0  0  0  0  0  0  0  0
    1.0890   21.1270  -33.8000 O   0  0  0  0  0  0  0  0  0  0  0  0
    0.0730   22.5380  -35.3750 N   0  0  0  0  0  0  0  0  0  0  0  0
    1.2740   23.1900  -35.8230 C   0  0  0  0  0  0  0  0  0  0  0  0
    1.2300   24.5490  -36.1760 C   0  0  0  0  0  0  0  0  0  0  0  0
    2.3800   25.2000  -36.6340 C   0  0  0  0  0  0  0  0  0  0  0  0
    3.5810   24.4940  -36.7560 C   0  0  0  0  0  0  0  0  0  0  0  0
    3.6300   23.1360  -36.4290 C   0  0  0  0  0  0  0  0  0  0  0  0
    2.4810   22.4810  -35.9710 C   0  0  0  0  0  0  0  0  0  0  0  0
   -3.8370   19.7980  -33.3160 N   0  0  0  0  0  0  0  0  0  0  0  0
   -5.1560   19.6790  -33.2910 N   0  0  0  0  0  0  0  0  0  0  0  0
   -5.6330   20.7100  -32.5650 C   0  0  0  0  0  0  0  0  0  0  0  0
   -7.0680   20.9280  -32.3320 C   0  0  0  0  0  0  0  0  0  0  0  0
   -7.6900   22.1370  -32.0980 C   0  0  0  0  0  0  0  0  0  0  0  0
   -9.0220   21.8350  -31.8820 C   0  0  0  0  0  0  0  0  0  0  0  0
   -9.2080   20.5370  -31.9710 O   0  0  0  0  0  0  0  0  0  0  0  0
   -8.0560   19.9650  -32.2370 C   0  0  0  0  0  0  0  0  0  0  0  0
   -7.8750   18.4930  -32.4070 C   0  0  0  0  0  0  0  0  0  0  0  0
   -3.7160   21.7330  -29.5510 N   0  0  0  0  0  0  0  0  0  0  0  0
   -2.7824   20.5473  -26.6275 H   0  0  0  0  0  0  0  0  0  0  0  0
   -3.5571   19.6849  -27.9996 H   0  0  0  0  0  0  0  0  0  0  0  0
   -1.7822   19.9612  -27.9996 H   0  0  0  0  0  0  0  0  0  0  0  0
   -1.7179   22.8250  -27.0473 H   0  0  0  0  0  0  0  0  0  0  0  0
   -2.0523   24.9755  -28.2824 H   0  0  0  0  0  0  0  0  0  0  0  0
   -5.7831   23.0550  -31.2763 H   0  0  0  0  0  0  0  0  0  0  0  0
   -4.3426   23.5804  -32.2196 H   0  0  0  0  0  0  0  0  0  0  0  0
   -1.1410   19.7720  -33.9463 H   0  0  0  0  0  0  0  0  0  0  0  0
   -2.0139   21.1065  -34.7926 H   0  0  0  0  0  0  0  0  0  0  0  0
   -0.8420   22.9240  -35.7040 H   0  0  0  0  0  0  0  0  0  0  0  0
    0.2846   25.1049  -36.0916 H   0  0  0  0  0  0  0  0  0  0  0  0
    2.3398   26.2670  -36.8982 H   0  0  0  0  0  0  0  0  0  0  0  0
    4.4873   25.0076  -37.1094 H   0  0  0  0  0  0  0  0  0  0  0  0
    4.5739   22.5806  -36.5318 H   0  0  0  0  0  0  0  0  0  0  0  0
    2.5213   21.4094  -35.7261 H   0  0  0  0  0  0  0  0  0  0  0  0
   -7.2237   23.1332  -32.0858 H   0  0  0  0  0  0  0  0  0  0  0  0
   -9.8096   22.5723  -31.6674 H   0  0  0  0  0  0  0  0  0  0  0  0
   -7.8161   18.0142  -31.4184 H   0  0  0  0  0  0  0  0  0  0  0  0
   -8.7292   18.0804  -32.9639 H   0  0  0  0  0  0  0  0  0  0  0  0
   -6.9463   18.2997  -32.9639 H   0  0  0  0  0  0  0  0  0  0  0  0
  1  2  1  0
  2  3  2  0
  3  4  1  0
  4  5  2  0
  5  6  1  0
  5  7  1  0
  7  8  1  0
  8  9  1  0
  9 10  1  0
 10 11  1  0
 11 12  1  0
 12 13  1  0
 13 14  2  0
 13 15  1  0
 15 16  1  0
 16 17  2  0
 17 18  1  0
 18 19  2  0
 19 20  1  0
 20 21  2  0
 10 22  2  0
 22 23  1  0
 23 24  2  0
 24 25  1  0
 25 26  1  0
 26 27  2  0
 27 28  1  0
 28 29  1  0
 29 30  1  0
  7 31  2  0
 31  2  1  0
 24  9  1  0
 29 25  2  0
 21 16  1  0
  1 32  1  0
  1 33  1  0
  1 34  1  0
  3 35  1  0
  4 36  1  0
  8 37  1  0
  8 38  1  0
 12 39  1  0
 12 40  1  0
 15 41  1  0
 17 42  1  0
 18 43  1  0
 19 44  1  0
 20 45  1  0
 21 46  1  0
 26 47  1  0
 27 48  1  0
 30 49  1  0
 30 50  1  0
 30 51  1  0
M  CHG  1   6  -1
M  END
>  <UniqueID>  (8) 
8

>  <SMILES>  (8) 
Cc1ccc([O-])c(Cn2c(SCC(=O)Nc3ccccc3)nnc2-c2ccoc2C)n1

>  <Energy>  (8) 
114.3497818912642

>  <Genealogy>  (8) 
Cc1ccc([O-])c(Cn2c(SCC(=O)Nc3ccccc3)nnc2-c2ccoc2C)n1 (protonated)
Cc1ccc([O-])c(Cn2c(SCC(=O)Nc3ccccc3)nnc2-c2ccoc2C)n1 (3D coordinates assigned)
Cc1ccc([O-])c(Cn2c(SCC(=O)Nc3ccccc3)nnc2-c2ccoc2C)n1 (optimized conformer: 114.3497818912642 kcal/mol)

>  <smiles>  (8) 
Cc1ccc(O)c(Cn2c(SCC(=O)Nc3ccccc3)nnc2-c2ccoc2C)n1

>  <score_type>  (8) 
oracle

>  <origin>  (8) 
adgpu

>  <m_score__min__energy>  (8) 
-12.029999999999999

>  <m_primary>  (8) 
energy

$$$$
8:0
     RDKit          3D

 67 70  0  0  0  0  0  0  0  0999 V2000
   -9.4480   21.9090  -30.4550 C   0  0  0  0  0  0  0  0  0  0  0  0
   -8.0890   22.0070  -31.0940 C   0  0  0  0  0  0  0  0  0  0  0  0
   -7.2900   23.1360  -30.8640 C   0  0  0  0  0  0  0  0  0  0  0  0
   -6.0250   23.2610  -31.4570 C   0  0  0  0  0  0  0  0  0  0  0  0
   -5.2290   24.4850  -31.1870 C   0  0  0  0  0  0  0  0  0  0  0  0
   -5.7900   25.6120  -31.2170 O   0  0  0  0  0  0  0  0  0  0  0  0
   -3.8520   24.4150  -30.7930 N   0  0  0  0  0  0  0  0  0  0  0  0
   -3.3340   23.7120  -29.6550 C   0  0  0  0  0  0  0  0  0  0  0  0
   -3.9080   22.5100  -29.2030 C   0  0  0  0  0  0  0  0  0  0  0  0
   -3.3730   21.8490  -28.0940 C   0  0  0  0  0  0  0  0  0  0  0  0
   -2.2540   22.3710  -27.4400 C   0  0  0  0  0  0  0  0  0  0  0  0
   -1.6560   23.5500  -27.9010 C   0  0  0  0  0  0  0  0  0  0  0  0
   -0.2640   24.2330  -27.0640 S   0  0  0  0  0  0  0  0  0  0  0  0
    0.6210   24.9170  -28.0700 O   0  0  0  0  0  0  0  0  0  0  0  0
    0.5240   23.1350  -26.4040 O   0  0  0  0  0  0  0  0  0  0  0  0
   -0.8080   25.3870  -25.8740 N   0  0  0  0  0  0  0  0  0  0  0  0
   -0.3670   26.7430  -26.2410 C   0  0  0  0  0  0  0  0  0  0  0  0
   -0.8250   27.7710  -25.1810 C   0  0  0  0  0  0  0  0  0  0  0  0
   -1.3590   27.1540  -24.0210 O   0  0  0  0  0  0  0  0  0  0  0  0
   -0.4560   26.1820  -23.5350 C   0  0  0  0  0  0  0  0  0  0  0  0
   -0.3080   25.0160  -24.5350 C   0  0  0  0  0  0  0  0  0  0  0  0
   -2.1970   24.2150  -29.0100 C   0  0  0  0  0  0  0  0  0  0  0  0
   -5.5530   22.2310  -32.3050 C   0  0  0  0  0  0  0  0  0  0  0  0
   -4.1940   22.2970  -32.9500 C   0  0  0  0  0  0  0  0  0  0  0  0
   -6.3710   21.1190  -32.5590 C   0  0  0  0  0  0  0  0  0  0  0  0
   -7.6370   20.9950  -31.9570 C   0  0  0  0  0  0  0  0  0  0  0  0
   -8.4700   19.8840  -32.1930 O   0  0  0  0  0  0  0  0  0  0  0  0
   -8.0520   18.6510  -32.7790 C   0  0  0  0  0  0  0  0  0  0  0  0
   -6.6730   18.2840  -32.3000 C   0  0  0  0  0  0  0  0  0  0  0  0
   -6.5130   18.0240  -31.0760 O   0  0  0  0  0  0  0  0  0  0  0  0
   -5.5450   18.2170  -33.1960 N   0  0  0  0  0  0  0  0  0  0  0  0
   -5.7350   18.0750  -34.6450 C   0  0  0  0  0  0  0  0  0  0  0  0
   -4.5080   17.4100  -35.2760 C   0  0  0  0  0  0  0  0  0  0  0  0
   -3.3210   18.0750  -34.8940 O   0  0  0  0  0  0  0  0  0  0  0  0
   -3.1210   17.9250  -33.5020 C   0  0  0  0  0  0  0  0  0  0  0  0
   -4.2230   18.6380  -32.7140 C   0  0  0  0  0  0  0  0  0  0  0  0
   -9.3399   21.9168  -29.3604 H   0  0  0  0  0  0  0  0  0  0  0  0
  -10.0633   22.7651  -30.7688 H   0  0  0  0  0  0  0  0  0  0  0  0
   -9.9341   20.9735  -30.7688 H   0  0  0  0  0  0  0  0  0  0  0  0
   -7.6613   23.9369  -30.2077 H   0  0  0  0  0  0  0  0  0  0  0  0
   -4.7806   22.0891  -29.7240 H   0  0  0  0  0  0  0  0  0  0  0  0
   -3.8334   20.9165  -27.7355 H   0  0  0  0  0  0  0  0  0  0  0  0
   -1.8419   21.8543  -26.5607 H   0  0  0  0  0  0  0  0  0  0  0  0
   -1.8570   25.3590  -25.8690 H   0  0  0  0  0  0  0  0  0  0  0  0
    0.7307   26.7597  -26.3098 H   0  0  0  0  0  0  0  0  0  0  0  0
   -0.8137   27.0105  -27.2100 H   0  0  0  0  0  0  0  0  0  0  0  0
    0.0397   28.3845  -24.8879 H   0  0  0  0  0  0  0  0  0  0  0  0
   -1.6211   28.3826  -25.6307 H   0  0  0  0  0  0  0  0  0  0  0  0
    0.5273   26.6500  -23.3800 H   0  0  0  0  0  0  0  0  0  0  0  0
   -0.8466   25.7834  -22.5871 H   0  0  0  0  0  0  0  0  0  0  0  0
    0.7550   24.7441  -24.6127 H   0  0  0  0  0  0  0  0  0  0  0  0
   -0.9025   24.1669  -24.1668 H   0  0  0  0  0  0  0  0  0  0  0  0
   -1.7252   25.1386  -29.3764 H   0  0  0  0  0  0  0  0  0  0  0  0
   -3.4193   22.3346  -32.1699 H   0  0  0  0  0  0  0  0  0  0  0  0
   -4.0414   21.4052  -33.5756 H   0  0  0  0  0  0  0  0  0  0  0  0
   -4.1285   23.1994  -33.5756 H   0  0  0  0  0  0  0  0  0  0  0  0
   -6.0166   20.3312  -33.2400 H   0  0  0  0  0  0  0  0  0  0  0  0
   -8.7579   17.8567  -32.4947 H   0  0  0  0  0  0  0  0  0  0  0  0
   -8.0316   18.7643  -33.8730 H   0  0  0  0  0  0  0  0  0  0  0  0
   -6.6231   17.4548  -34.8361 H   0  0  0  0  0  0  0  0  0  0  0  0
   -5.8712   19.0722  -35.0889 H   0  0  0  0  0  0  0  0  0  0  0  0
   -4.4562   16.3623  -34.9450 H   0  0  0  0  0  0  0  0  0  0  0  0
   -4.6037   17.4632  -36.3705 H   0  0  0  0  0  0  0  0  0  0  0  0
   -3.1322   16.8544  -33.2494 H   0  0  0  0  0  0  0  0  0  0  0  0
   -2.1518   18.3715  -33.2351 H   0  0  0  0  0  0  0  0  0  0  0  0
   -4.1280   18.3861  -31.6474 H   0  0  0  0  0  0  0  0  0  0  0  0
   -4.1191   19.7241  -32.8542 H   0  0  0  0  0  0  0  0  0  0  0  0
  1  2  1  0
  2  3  2  0
  3  4  1  0
  4  5  1  0
  5  6  2  0
  5  7  1  0
  7  8  1  0
  8  9  2  0
  9 10  1  0
 10 11  2  0
 11 12  1  0
 12 13  1  0
 13 14  2  0
 13 15  2  0
 13 16  1  0
 16 17  1  0
 17 18  1  0
 18 19  1  0
 19 20  1  0
 20 21  1  0
 12 22  2  0
  4 23  2  0
 23 24  1  0
 23 25  1  0
 25 26  2  0
 26 27  1  0
 27 28  1  0
 28 29  1  0
 29 30  2  0
 29 31  1  0
 31 32  1  0
 32 33  1  0
 33 34  1  0
 34 35  1  0
 35 36  1  0
 26  2  1  0
 36 31  1  0
 22  8  1  0
 21 16  1  0
  1 37  1  0
  1 38  1  0
  1 39  1  0
  3 40  1  0
  9 41  1  0
 10 42  1  0
 11 43  1  0
 16 44  1  0
 17 45  1  0
 17 46  1  0
 18 47  1  0
 18 48  1  0
 20 49  1  0
 20 50  1  0
 21 51  1  0
 21 52  1  0
 22 53  1  0
 24 54  1  0
 24 55  1  0
 24 56  1  0
 25 57  1  0
 28 58  1  0
 28 59  1  0
 32 60  1  0
 32 61  1  0
 33 62  1  0
 33 63  1  0
 35 64  1  0
 35 65  1  0
 36 66  1  0
 36 67  1  0
M  CHG  2   7  -1  16   1
M  END
>  <UniqueID>  (9) 
9

>  <SMILES>  (9) 
Cc1cc(C(=O)[N-]c2cccc(S(=O)(=O)[NH+]3CCOCC3)c2)c(C)cc1OCC(=O)N1CCOCC1

>  <Energy>  (9) 
85.4721978170662

>  <Genealogy>  (9) 
Cc1cc(C(=O)[N-]c2cccc(S(=O)(=O)[NH+]3CCOCC3)c2)c(C)cc1OCC(=O)N1CCOCC1 (protonated)
Cc1cc(C(=O)[N-]c2cccc(S(=O)(=O)[NH+]3CCOCC3)c2)c(C)cc1OCC(=O)N1CCOCC1 (3D coordinates assigned)
Cc1cc(C(=O)[N-]c2cccc(S(=O)(=O)[NH+]3CCOCC3)c2)c(C)cc1OCC(=O)N1CCOCC1 (nonaromatic ring conformer: 85.4721978170662 kcal/mol)

>  <smiles>  (9) 
Cc1cc(C(=O)Nc2cccc(S(=O)(=O)N3CCOCC3)c2)c(C)cc1OCC(=O)N1CCOCC1

>  <score_type>  (9) 
oracle

>  <origin>  (9) 
adgpu

>  <m_score__min__energy>  (9) 
-11.91

>  <m_primary>  (9) 
energy

$$$$
9:0
     RDKit          3D

 64 67  0  0  0  0  0  0  0  0999 V2000
   -0.6990   26.4850  -23.8050 C   0  0  0  0  0  0  0  0  0  0  0  0
   -0.0270   25.4830  -24.7420 C   0  0  0  0  0  0  0  0  0  0  0  0
    0.0370   25.9870  -26.1920 C   0  0  0  0  0  0  0  0  0  0  0  0
   -0.8010   25.1650  -27.0880 N   0  0  0  0  0  0  0  0  0  0  0  0
   -0.2040   24.4170  -28.0790 C   0  0  0  0  0  0  0  0  0  0  0  0
    1.0480   24.4010  -28.2300 O   0  0  0  0  0  0  0  0  0  0  0  0
   -1.0120   23.6670  -28.9140 C   0  0  0  0  0  0  0  0  0  0  0  0
   -0.6590   22.8530  -29.9210 N   0  0  0  0  0  0  0  0  0  0  0  0
   -1.8610   22.3810  -30.3510 C   0  0  0  0  0  0  0  0  0  0  0  0
   -1.9980   21.4050  -31.4550 C   0  0  0  0  0  0  0  0  0  0  0  0
   -2.6040   21.7840  -32.6640 C   0  0  0  0  0  0  0  0  0  0  0  0
   -2.7790   20.8540  -33.6930 C   0  0  0  0  0  0  0  0  0  0  0  0
   -2.3400   19.5260  -33.5340 C   0  0  0  0  0  0  0  0  0  0  0  0
   -2.5180   18.5520  -34.5290 O   0  0  0  0  0  0  0  0  0  0  0  0
   -3.6320   17.6670  -34.5860 C   0  0  0  0  0  0  0  0  0  0  0  0
   -4.8990   18.4350  -34.3910 C   0  0  0  0  0  0  0  0  0  0  0  0
   -5.7270   18.5170  -35.3370 O   0  0  0  0  0  0  0  0  0  0  0  0
   -5.1650   19.0850  -33.1400 N   0  0  0  0  0  0  0  0  0  0  0  0
   -6.4860   19.4710  -32.7270 C   0  0  0  0  0  0  0  0  0  0  0  0
   -7.5070   18.5000  -32.6250 C   0  0  0  0  0  0  0  0  0  0  0  0
   -7.2240   17.0480  -32.8990 C   0  0  0  0  0  0  0  0  0  0  0  0
   -8.8060   18.8940  -32.2650 C   0  0  0  0  0  0  0  0  0  0  0  0
   -9.0910   20.2340  -32.0000 C   0  0  0  0  0  0  0  0  0  0  0  0
   -8.0890   21.1980  -32.1070 C   0  0  0  0  0  0  0  0  0  0  0  0
   -6.7820   20.8310  -32.4810 C   0  0  0  0  0  0  0  0  0  0  0  0
   -5.7660   21.7880  -32.6390 O   0  0  0  0  0  0  0  0  0  0  0  0
   -5.7480   23.0650  -32.0070 C   0  0  0  0  0  0  0  0  0  0  0  0
   -1.7130   19.1560  -32.3400 C   0  0  0  0  0  0  0  0  0  0  0  0
   -1.5490   20.0820  -31.3040 C   0  0  0  0  0  0  0  0  0  0  0  0
   -2.9290   22.8680  -29.6620 N   0  0  0  0  0  0  0  0  0  0  0  0
   -2.3500   23.6790  -28.7630 C   0  0  0  0  0  0  0  0  0  0  0  0
   -2.9710   24.4190  -27.8070 N   0  0  0  0  0  0  0  0  0  0  0  0
   -4.4360   24.3770  -27.6630 C   0  0  0  0  0  0  0  0  0  0  0  0
   -5.1110   24.6030  -29.0120 C   0  0  0  0  0  0  0  0  0  0  0  0
   -2.1810   25.1600  -26.9510 C   0  0  0  0  0  0  0  0  0  0  0  0
   -2.7250   25.8400  -26.0370 O   0  0  0  0  0  0  0  0  0  0  0  0
   -0.5060   26.1972  -22.7610 H   0  0  0  0  0  0  0  0  0  0  0  0
   -0.2915   27.4899  -23.9896 H   0  0  0  0  0  0  0  0  0  0  0  0
   -1.7834   26.4894  -23.9896 H   0  0  0  0  0  0  0  0  0  0  0  0
    0.9977   25.2995  -24.3865 H   0  0  0  0  0  0  0  0  0  0  0  0
   -0.6281   24.5618  -24.7339 H   0  0  0  0  0  0  0  0  0  0  0  0
   -0.3185   27.0274  -26.2248 H   0  0  0  0  0  0  0  0  0  0  0  0
    1.0797   25.9186  -26.5355 H   0  0  0  0  0  0  0  0  0  0  0  0
   -2.9437   22.8210  -32.8024 H   0  0  0  0  0  0  0  0  0  0  0  0
   -3.2624   21.1616  -34.6320 H   0  0  0  0  0  0  0  0  0  0  0  0
   -3.6536   17.1698  -35.5670 H   0  0  0  0  0  0  0  0  0  0  0  0
   -3.5381   16.9132  -33.7905 H   0  0  0  0  0  0  0  0  0  0  0  0
   -4.3630   19.2830  -32.4970 H   0  0  0  0  0  0  0  0  0  0  0  0
   -7.1189   16.5087  -31.9460 H   0  0  0  0  0  0  0  0  0  0  0  0
   -8.0547   16.6150  -33.4756 H   0  0  0  0  0  0  0  0  0  0  0  0
   -6.2915   16.9586  -33.4756 H   0  0  0  0  0  0  0  0  0  0  0  0
   -9.6044   18.1409  -32.1914 H   0  0  0  0  0  0  0  0  0  0  0  0
  -10.1086   20.5307  -31.7060 H   0  0  0  0  0  0  0  0  0  0  0  0
   -8.3213   22.2526  -31.8977 H   0  0  0  0  0  0  0  0  0  0  0  0
   -5.7499   22.9337  -30.9149 H   0  0  0  0  0  0  0  0  0  0  0  0
   -4.8421   23.6109  -32.3091 H   0  0  0  0  0  0  0  0  0  0  0  0
   -6.6382   23.6362  -32.3091 H   0  0  0  0  0  0  0  0  0  0  0  0
   -1.3452   18.1270  -32.2141 H   0  0  0  0  0  0  0  0  0  0  0  0
   -1.0657   19.7725  -30.3656 H   0  0  0  0  0  0  0  0  0  0  0  0
   -4.7332   23.3937  -27.2695 H   0  0  0  0  0  0  0  0  0  0  0  0
   -4.7488   25.1723  -26.9705 H   0  0  0  0  0  0  0  0  0  0  0  0
   -6.1430   24.9485  -28.8523 H   0  0  0  0  0  0  0  0  0  0  0  0
   -4.5532   25.3634  -29.5783 H   0  0  0  0  0  0  0  0  0  0  0  0
   -5.1235   23.6600  -29.5783 H   0  0  0  0  0  0  0  0  0  0  0  0
  1  2  1  0
  2  3  1  0
  3  4  1  0
  4  5  1  0
  5  6  2  0
  5  7  1  0
  7  8  1  0
  8  9  1  0
  9 10  1  0
 10 11  2  0
 11 12  1  0
 12 13  2  0
 13 14  1  0
 14 15  1  0
 15 16  1  0
 16 17  2  0
 16 18  1  0
 18 19  1  0
 19 20  2  0
 20 21  1  0
 20 22  1  0
 22 23  2  0
 23 24  1  0
 24 25  2  0
 25 26  1  0
 26 27  1  0
 13 28  1  0
 28 29  2  0
  9 30  2  0
 30 31  1  0
 31 32  1  0
 32 33  1  0
 33 34  1  0
 32 35  1  0
 35 36  2  0
 35  4  1  0
 31  7  2  0
 29 10  1  0
 25 19  1  0
  1 37  1  0
  1 38  1  0
  1 39  1  0
  2 40  1  0
  2 41  1  0
  3 42  1  0
  3 43  1  0
 11 44  1  0
 12 45  1  0
 15 46  1  0
 15 47  1  0
 18 48  1  0
 21 49  1  0
 21 50  1  0
 21 51  1  0
 22 52  1  0
 23 53  1  0
 24 54  1  0
 27 55  1  0
 27 56  1  0
 27 57  1  0
 28 58  1  0
 29 59  1  0
 33 60  1  0
 33 61  1  0
 34 62  1  0
 34 63  1  0
 34 64  1  0
M  CHG  1   8  -1
M  END
>  <UniqueID>  (10) 
10

>  <SMILES>  (10) 
CCCn1c(=O)c2[n-]c(-c3ccc(OCC(=O)Nc4c(C)cccc4OC)cc3)nc2n(CC)c1=O

>  <Energy>  (10) 
107.10770270458083

>  <Genealogy>  (10) 
CCCn1c(=O)c2[n-]c(-c3ccc(OCC(=O)Nc4c(C)cccc4OC)cc3)nc2n(CC)c1=O (protonated)
CCCn1c(=O)c2[n-]c(-c3ccc(OCC(=O)Nc4c(C)cccc4OC)cc3)nc2n(CC)c1=O (3D coordinates assigned)
CCCn1c(=O)c2[n-]c(-c3ccc(OCC(=O)Nc4c(C)cccc4OC)cc3)nc2n(CC)c1=O (optimized conformer: 107.10770270458083 kcal/mol)

>  <smiles>  (10) 
CCCn1c(=O)c2[nH]c(-c3ccc(OCC(=O)Nc4c(C)cccc4OC)cc3)nc2n(CC)c1=O

>  <score_type>  (10) 
oracle

>  <origin>  (10) 
adgpu

>  <m_score__min__energy>  (10) 
-10.07

>  <m_primary>  (10) 
energy

$$$$
10:0
     RDKit          3D

 53 56  0  0  0  0  0  0  0  0999 V2000
   -5.7670   24.3800  -29.4420 O   0  0  0  0  0  0  0  0  0  0  0  0
   -4.4240   24.3570  -30.1200 S   0  0  0  0  0  0  0  0  0  0  0  0
   -4.1990   25.6940  -30.7690 O   0  0  0  0  0  0  0  0  0  0  0  0
   -3.1600   24.0980  -28.9200 C   0  0  0  0  0  0  0  0  0  0  0  0
   -3.4660   23.5180  -27.6810 C   0  0  0  0  0  0  0  0  0  0  0  0
   -2.4660   23.3480  -26.7170 C   0  0  0  0  0  0  0  0  0  0  0  0
   -1.1530   23.7640  -26.9830 C   0  0  0  0  0  0  0  0  0  0  0  0
    0.1060   23.5790  -25.7650 S   0  0  0  0  0  0  0  0  0  0  0  0
    1.4340   23.4600  -26.4590 O   0  0  0  0  0  0  0  0  0  0  0  0
   -0.1450   22.2990  -25.0160 O   0  0  0  0  0  0  0  0  0  0  0  0
    0.0610   24.9660  -24.6850 N   0  0  0  0  0  0  0  0  0  0  0  0
    1.1330   25.9460  -24.9660 C   0  0  0  0  0  0  0  0  0  0  0  0
    0.8480   26.7850  -26.2170 C   0  0  0  0  0  0  0  0  0  0  0  0
   -0.4870   27.5090  -26.0690 C   0  0  0  0  0  0  0  0  0  0  0  0
   -1.6060   26.5020  -25.8100 C   0  0  0  0  0  0  0  0  0  0  0  0
   -1.2800   25.5910  -24.6080 C   0  0  0  0  0  0  0  0  0  0  0  0
   -0.8410   24.3180  -28.2320 C   0  0  0  0  0  0  0  0  0  0  0  0
   -1.8410   24.4860  -29.1950 C   0  0  0  0  0  0  0  0  0  0  0  0
   -4.3780   23.1010  -31.3320 N   0  0  0  0  0  0  0  0  0  0  0  0
   -3.2930   22.1580  -31.0240 C   0  0  0  0  0  0  0  0  0  0  0  0
   -3.1190   21.1680  -32.1770 C   0  0  0  0  0  0  0  0  0  0  0  0
   -4.4370   20.5860  -32.6170 C   0  0  0  0  0  0  0  0  0  0  0  0
   -4.4510   19.4270  -33.4060 C   0  0  0  0  0  0  0  0  0  0  0  0
   -5.6650   18.8640  -33.8130 C   0  0  0  0  0  0  0  0  0  0  0  0
   -6.8720   19.4670  -33.4540 C   0  0  0  0  0  0  0  0  0  0  0  0
   -6.8710   20.6410  -32.6940 C   0  0  0  0  0  0  0  0  0  0  0  0
   -5.6570   21.2140  -32.2800 C   0  0  0  0  0  0  0  0  0  0  0  0
   -5.6760   22.4010  -31.3490 C   0  0  0  0  0  0  0  0  0  0  0  0
   -4.4954   23.1955  -27.4659 H   0  0  0  0  0  0  0  0  0  0  0  0
   -2.7101   22.8871  -25.7485 H   0  0  0  0  0  0  0  0  0  0  0  0
    0.2610   24.5820  -23.7320 H   0  0  0  0  0  0  0  0  0  0  0  0
    1.2290   26.6211  -24.1028 H   0  0  0  0  0  0  0  0  0  0  0  0
    2.0614   25.3838  -25.1449 H   0  0  0  0  0  0  0  0  0  0  0  0
    1.6508   27.5253  -26.3494 H   0  0  0  0  0  0  0  0  0  0  0  0
    0.8029   26.1215  -27.0932 H   0  0  0  0  0  0  0  0  0  0  0  0
   -0.4278   28.2118  -25.2249 H   0  0  0  0  0  0  0  0  0  0  0  0
   -0.7040   28.0563  -26.9982 H   0  0  0  0  0  0  0  0  0  0  0  0
   -2.5376   27.0486  -25.6019 H   0  0  0  0  0  0  0  0  0  0  0  0
   -1.7144   25.8692  -26.7032 H   0  0  0  0  0  0  0  0  0  0  0  0
   -1.3301   26.1950  -23.6900 H   0  0  0  0  0  0  0  0  0  0  0  0
   -2.0174   24.7748  -24.6121 H   0  0  0  0  0  0  0  0  0  0  0  0
    0.1925   24.6213  -28.4552 H   0  0  0  0  0  0  0  0  0  0  0  0
   -1.5917   24.9245  -30.1725 H   0  0  0  0  0  0  0  0  0  0  0  0
   -2.3561   22.7155  -30.8777 H   0  0  0  0  0  0  0  0  0  0  0  0
   -3.5442   21.6047  -30.1071 H   0  0  0  0  0  0  0  0  0  0  0  0
   -2.6581   21.6902  -33.0284 H   0  0  0  0  0  0  0  0  0  0  0  0
   -2.4805   20.3435  -31.8269 H   0  0  0  0  0  0  0  0  0  0  0  0
   -3.5024   18.9581  -33.7064 H   0  0  0  0  0  0  0  0  0  0  0  0
   -5.6688   17.9446  -34.4169 H   0  0  0  0  0  0  0  0  0  0  0  0
   -7.8253   19.0179  -33.7695 H   0  0  0  0  0  0  0  0  0  0  0  0
   -7.8238   21.1172  -32.4195 H   0  0  0  0  0  0  0  0  0  0  0  0
   -6.4552   23.1026  -31.6816 H   0  0  0  0  0  0  0  0  0  0  0  0
   -5.8825   22.0362  -30.3320 H   0  0  0  0  0  0  0  0  0  0  0  0
  1  2  2  0
  2  3  2  0
  2  4  1  0
  4  5  2  0
  5  6  1  0
  6  7  2  0
  7  8  1  0
  8  9  2  0
  8 10  2  0
  8 11  1  0
 11 12  1  0
 12 13  1  0
 13 14  1  0
 14 15  1  0
 15 16  1  0
  7 17  1  0
 17 18  2  0
  2 19  1  0
 19 20  1  0
 20 21  1  0
 21 22  1  0
 22 23  2  0
 23 24  1  0
 24 25  2  0
 25 26  1  0
 26 27  2  0
 27 28  1  0
 18  4  1  0
 28 19  1  0
 16 11  1  0
 27 22  1  0
  5 29  1  0
  6 30  1  0
 11 31  1  0
 12 32  1  0
 12 33  1  0
 13 34  1  0
 13 35  1  0
 14 36  1  0
 14 37  1  0
 15 38  1  0
 15 39  1  0
 16 40  1  0
 16 41  1  0
 17 42  1  0
 18 43  1  0
 20 44  1  0
 20 45  1  0
 21 46  1  0
 21 47  1  0
 23 48  1  0
 24 49  1  0
 25 50  1  0
 26 51  1  0
 28 52  1  0
 28 53  1  0
M  CHG  1  11   1
M  END
>  <UniqueID>  (11) 
11

>  <SMILES>  (11) 
O=S(=O)(c1ccc(S(=O)(=O)[NH+]2CCCCC2)cc1)N1CCc2ccccc2C1

>  <Energy>  (11) 
57.64044819577632

>  <Genealogy>  (11) 
O=S(=O)(c1ccc(S(=O)(=O)[NH+]2CCCCC2)cc1)N1CCc2ccccc2C1 (protonated)
O=S(=O)(c1ccc(S(=O)(=O)[NH+]2CCCCC2)cc1)N1CCc2ccccc2C1 (3D coordinates assigned)
O=S(=O)(c1ccc(S(=O)(=O)[NH+]2CCCCC2)cc1)N1CCc2ccccc2C1 (nonaromatic ring conformer: 57.64044819577632 kcal/mol)

>  <smiles>  (11) 
O=S(=O)(c1ccc(S(=O)(=O)N2CCc3ccccc3C2)cc1)N1CCCCC1

>  <score_type>  (11) 
oracle

>  <origin>  (11) 
adgpu

>  <m_score__min__energy>  (11) 
-10.32

>  <m_primary>  (11) 
energy

$$$$
11:0
     RDKit          3D

 57 62  0  0  0  0  0  0  0  0999 V2000
   -4.2830   11.6780  -32.3470 C   0  0  0  0  0  0  0  0  0  0  0  0
   -4.5770   13.1190  -32.5910 C   0  0  0  0  0  0  0  0  0  0  0  0
   -5.5030   13.5590  -33.4640 N   0  0  0  0  0  0  0  0  0  0  0  0
   -5.4040   14.8950  -33.2980 C   0  0  0  0  0  0  0  0  0  0  0  0
   -6.2470   15.8900  -34.0450 C   0  0  0  0  0  0  0  0  0  0  0  0
   -6.0830   17.2630  -33.5110 N   0  0  0  0  0  0  0  0  0  0  0  0
   -7.1490   17.5480  -32.5160 C   0  0  0  0  0  0  0  0  0  0  0  0
   -7.3370   19.0600  -32.2270 C   0  0  0  0  0  0  0  0  0  0  0  0
   -6.2030   19.8520  -32.7120 N   0  0  0  0  0  0  0  0  0  0  0  0
   -5.6280   20.8640  -31.8730 C   0  0  0  0  0  0  0  0  0  0  0  0
   -6.4780   21.7950  -31.2700 C   0  0  0  0  0  0  0  0  0  0  0  0
   -5.9710   22.7800  -30.4290 C   0  0  0  0  0  0  0  0  0  0  0  0
   -4.5930   22.8530  -30.1630 C   0  0  0  0  0  0  0  0  0  0  0  0
   -3.7150   21.9220  -30.7650 C   0  0  0  0  0  0  0  0  0  0  0  0
   -2.3240   21.9740  -30.5110 C   0  0  0  0  0  0  0  0  0  0  0  0
   -1.4710   21.0460  -31.1330 C   0  0  0  0  0  0  0  0  0  0  0  0
   -1.9830   20.0830  -31.9990 C   0  0  0  0  0  0  0  0  0  0  0  0
   -3.3520   20.0200  -32.2530 C   0  0  0  0  0  0  0  0  0  0  0  0
   -4.2350   20.9250  -31.6350 C   0  0  0  0  0  0  0  0  0  0  0  0
   -1.7740   22.9910  -29.5830 C   0  0  0  0  0  0  0  0  0  0  0  0
   -0.5410   23.0020  -29.3170 O   0  0  0  0  0  0  0  0  0  0  0  0
   -2.6550   23.9450  -28.9610 N   0  0  0  0  0  0  0  0  0  0  0  0
   -2.1410   24.9150  -28.0300 C   0  0  0  0  0  0  0  0  0  0  0  0
   -2.6030   24.9440  -26.7040 C   0  0  0  0  0  0  0  0  0  0  0  0
   -2.0990   25.8920  -25.8120 C   0  0  0  0  0  0  0  0  0  0  0  0
   -1.1360   26.8040  -26.2530 C   0  0  0  0  0  0  0  0  0  0  0  0
   -0.6980   26.7640  -27.5420 N   0  0  0  0  0  0  0  0  0  0  0  0
   -1.1730   25.8500  -28.4300 C   0  0  0  0  0  0  0  0  0  0  0  0
   -4.0620   23.9010  -29.2630 C   0  0  0  0  0  0  0  0  0  0  0  0
   -4.8420   24.7670  -28.7740 O   0  0  0  0  0  0  0  0  0  0  0  0
   -5.6500   19.6290  -34.0520 C   0  0  0  0  0  0  0  0  0  0  0  0
   -6.0950   18.2670  -34.5990 C   0  0  0  0  0  0  0  0  0  0  0  0
   -4.4750   15.2370  -32.3820 N   0  0  0  0  0  0  0  0  0  0  0  0
   -3.9880   14.1080  -31.9660 O   0  0  0  0  0  0  0  0  0  0  0  0
   -4.2446   11.4899  -31.2639 H   0  0  0  0  0  0  0  0  0  0  0  0
   -5.0737   11.0609  -32.7985 H   0  0  0  0  0  0  0  0  0  0  0  0
   -3.3137   11.4200  -32.7985 H   0  0  0  0  0  0  0  0  0  0  0  0
   -5.9513   15.8826  -35.1045 H   0  0  0  0  0  0  0  0  0  0  0  0
   -7.3018   15.6012  -33.9262 H   0  0  0  0  0  0  0  0  0  0  0  0
   -5.1600   17.3130  -33.0100 H   0  0  0  0  0  0  0  0  0  0  0  0
   -8.0988   17.1459  -32.8984 H   0  0  0  0  0  0  0  0  0  0  0  0
   -6.8452   17.0733  -31.5713 H   0  0  0  0  0  0  0  0  0  0  0  0
   -8.2533   19.4068  -32.7271 H   0  0  0  0  0  0  0  0  0  0  0  0
   -7.4064   19.1938  -31.1374 H   0  0  0  0  0  0  0  0  0  0  0  0
   -7.5600   21.7483  -31.4626 H   0  0  0  0  0  0  0  0  0  0  0  0
   -6.6546   23.5082  -29.9681 H   0  0  0  0  0  0  0  0  0  0  0  0
   -0.3897   21.0807  -30.9340 H   0  0  0  0  0  0  0  0  0  0  0  0
   -1.3031   19.3680  -32.4853 H   0  0  0  0  0  0  0  0  0  0  0  0
   -3.7451   19.2574  -32.9414 H   0  0  0  0  0  0  0  0  0  0  0  0
   -3.3609   24.2207  -26.3689 H   0  0  0  0  0  0  0  0  0  0  0  0
   -2.4563   25.9210  -24.7720 H   0  0  0  0  0  0  0  0  0  0  0  0
   -0.7315   27.5548  -25.5583 H   0  0  0  0  0  0  0  0  0  0  0  0
   -0.7979   25.8433  -29.4641 H   0  0  0  0  0  0  0  0  0  0  0  0
   -6.0043   20.4227  -34.7261 H   0  0  0  0  0  0  0  0  0  0  0  0
   -4.5519   19.6450  -33.9900 H   0  0  0  0  0  0  0  0  0  0  0  0
   -7.1131   18.3519  -35.0067 H   0  0  0  0  0  0  0  0  0  0  0  0
   -5.4034   17.9505  -35.3937 H   0  0  0  0  0  0  0  0  0  0  0  0
  1  2  1  0
  2  3  2  0
  3  4  1  0
  4  5  1  0
  5  6  1  0
  6  7  1  0
  7  8  1  0
  8  9  1  0
  9 10  1  0
 10 11  2  0
 11 12  1  0
 12 13  2  0
 13 14  1  0
 14 15  2  0
 15 16  1  0
 16 17  2  0
 17 18  1  0
 18 19  2  0
 15 20  1  0
 20 21  2  0
 20 22  1  0
 22 23  1  0
 23 24  2  0
 24 25  1  0
 25 26  2  0
 26 27  1  0
 27 28  2  0
 22 29  1  0
 29 30  2  0
  9 31  1  0
 31 32  1  0
  4 33  2  0
 33 34  1  0
 34  2  1  0
 32  6  1  0
 19 10  1  0
 28 23  1  0
 29 13  1  0
 19 14  1  0
  1 35  1  0
  1 36  1  0
  1 37  1  0
  5 38  1  0
  5 39  1  0
  6 40  1  0
  7 41  1  0
  7 42  1  0
  8 43  1  0
  8 44  1  0
 11 45  1  0
 12 46  1  0
 16 47  1  0
 17 48  1  0
 18 49  1  0
 24 50  1  0
 25 51  1  0
 26 52  1  0
 28 53  1  0
 31 54  1  0
 31 55  1  0
 32 56  1  0
 32 57  1  0
M  CHG  1   6   1
M  END
>  <UniqueID>  (12) 
12

>  <SMILES>  (12) 
Cc1nc(C[NH+]2CCN(c3ccc4c5c(cccc35)C(=O)N(c3cccnc3)C4=O)CC2)no1

>  <Energy>  (12) 
122.54556275028773

>  <Genealogy>  (12) 
Cc1nc(C[NH+]2CCN(c3ccc4c5c(cccc35)C(=O)N(c3cccnc3)C4=O)CC2)no1 (protonated)
Cc1nc(C[NH+]2CCN(c3ccc4c5c(cccc35)C(=O)N(c3cccnc3)C4=O)CC2)no1 (3D coordinates assigned)
Cc1nc(C[NH+]2CCN(c3ccc4c5c(cccc35)C(=O)N(c3cccnc3)C4=O)CC2)no1 (nonaromatic ring conformer: 122.54556275028773 kcal/mol)

>  <smiles>  (12) 
Cc1nc(CN2CCN(c3ccc4c5c(cccc35)C(=O)N(c3cccnc3)C4=O)CC2)no1

>  <score_type>  (12) 
oracle

>  <origin>  (12) 
adgpu

>  <m_score__min__energy>  (12) 
-8.2699999999999996

>  <m_primary>  (12) 
energy

$$$$
12:0
     RDKit          3D

 59 62  0  0  0  0  0  0  0  0999 V2000
   -2.7180   19.8800  -27.7560 C   0  0  0  0  0  0  0  0  0  0  0  0
   -2.4220   21.3530  -27.8660 C   0  0  0  0  0  0  0  0  0  0  0  0
   -3.4850   22.2610  -27.9960 C   0  0  0  0  0  0  0  0  0  0  0  0
   -3.2440   23.6340  -28.1050 C   0  0  0  0  0  0  0  0  0  0  0  0
   -4.3460   24.5190  -28.3070 N   0  0  0  0  0  0  0  0  0  0  0  0
   -4.9990   24.7700  -29.8880 S   0  0  0  0  0  0  0  0  0  0  0  0
   -5.9140   25.9620  -29.8810 O   0  0  0  0  0  0  0  0  0  0  0  0
   -3.8740   25.0340  -30.8480 O   0  0  0  0  0  0  0  0  0  0  0  0
   -5.8830   23.3310  -30.3770 C   0  0  0  0  0  0  0  0  0  0  0  0
   -5.2600   22.3800  -31.1950 C   0  0  0  0  0  0  0  0  0  0  0  0
   -5.9840   21.2900  -31.6830 C   0  0  0  0  0  0  0  0  0  0  0  0
   -7.3380   21.1370  -31.3520 C   0  0  0  0  0  0  0  0  0  0  0  0
   -8.2760   19.8230  -32.0630 S   0  0  0  0  0  0  0  0  0  0  0  0
   -9.2410   20.3880  -33.0700 O   0  0  0  0  0  0  0  0  0  0  0  0
   -9.0740   19.1450  -30.9830 O   0  0  0  0  0  0  0  0  0  0  0  0
   -7.2430   18.6400  -32.8320 N   0  0  0  0  0  0  0  0  0  0  0  0
   -6.4600   19.2630  -33.9150 C   0  0  0  0  0  0  0  0  0  0  0  0
   -5.3020   18.3490  -34.3590 C   0  0  0  0  0  0  0  0  0  0  0  0
   -5.5270   17.0180  -33.9400 O   0  0  0  0  0  0  0  0  0  0  0  0
   -5.4770   16.9430  -32.5240 C   0  0  0  0  0  0  0  0  0  0  0  0
   -6.3530   18.0160  -31.8420 C   0  0  0  0  0  0  0  0  0  0  0  0
   -7.9530   22.0700  -30.5070 C   0  0  0  0  0  0  0  0  0  0  0  0
   -7.2310   23.1670  -30.0270 C   0  0  0  0  0  0  0  0  0  0  0  0
   -1.9220   24.1200  -28.0770 C   0  0  0  0  0  0  0  0  0  0  0  0
   -1.6200   25.4840  -28.2050 O   0  0  0  0  0  0  0  0  0  0  0  0
   -1.2610   26.3400  -27.1550 C   0  0  0  0  0  0  0  0  0  0  0  0
   -1.6220   26.0810  -25.8190 C   0  0  0  0  0  0  0  0  0  0  0  0
   -1.2330   26.9620  -24.8030 C   0  0  0  0  0  0  0  0  0  0  0  0
   -0.4740   28.0940  -25.1100 C   0  0  0  0  0  0  0  0  0  0  0  0
   -0.0960   28.3450  -26.4330 C   0  0  0  0  0  0  0  0  0  0  0  0
   -0.4830   27.4670  -27.4480 C   0  0  0  0  0  0  0  0  0  0  0  0
   -0.8610   23.2160  -27.9810 C   0  0  0  0  0  0  0  0  0  0  0  0
   -1.0910   21.8350  -27.8780 C   0  0  0  0  0  0  0  0  0  0  0  0
    0.0820   20.9000  -27.7500 C   0  0  0  0  0  0  0  0  0  0  0  0
   -2.7751   19.5957  -26.6949 H   0  0  0  0  0  0  0  0  0  0  0  0
   -3.6780   19.6613  -28.2464 H   0  0  0  0  0  0  0  0  0  0  0  0
   -1.9170   19.3074  -28.2464 H   0  0  0  0  0  0  0  0  0  0  0  0
   -4.5196   21.8878  -28.0123 H   0  0  0  0  0  0  0  0  0  0  0  0
   -4.1968   22.4920  -31.4540 H   0  0  0  0  0  0  0  0  0  0  0  0
   -5.4905   20.5491  -32.3291 H   0  0  0  0  0  0  0  0  0  0  0  0
   -7.1206   19.4491  -34.7746 H   0  0  0  0  0  0  0  0  0  0  0  0
   -6.0364   20.2069  -33.5413 H   0  0  0  0  0  0  0  0  0  0  0  0
   -5.2227   18.3737  -35.4559 H   0  0  0  0  0  0  0  0  0  0  0  0
   -4.3700   18.7112  -33.9006 H   0  0  0  0  0  0  0  0  0  0  0  0
   -5.8296   15.9491  -32.2110 H   0  0  0  0  0  0  0  0  0  0  0  0
   -4.4353   17.1187  -32.2173 H   0  0  0  0  0  0  0  0  0  0  0  0
   -6.9582   17.5452  -31.0533 H   0  0  0  0  0  0  0  0  0  0  0  0
   -5.7035   18.7874  -31.4024 H   0  0  0  0  0  0  0  0  0  0  0  0
   -9.0069   21.9392  -30.2203 H   0  0  0  0  0  0  0  0  0  0  0  0
   -7.7216   23.9032  -29.3732 H   0  0  0  0  0  0  0  0  0  0  0  0
   -2.2107   25.1849  -25.5731 H   0  0  0  0  0  0  0  0  0  0  0  0
   -1.5254   26.7627  -23.7615 H   0  0  0  0  0  0  0  0  0  0  0  0
   -0.1736   28.7880  -24.3111 H   0  0  0  0  0  0  0  0  0  0  0  0
    0.5059   29.2336  -26.6741 H   0  0  0  0  0  0  0  0  0  0  0  0
   -0.1743   27.6623  -28.4856 H   0  0  0  0  0  0  0  0  0  0  0  0
    0.1724   23.5929  -27.9862 H   0  0  0  0  0  0  0  0  0  0  0  0
    0.2987   20.7272  -26.6855 H   0  0  0  0  0  0  0  0  0  0  0  0
   -0.1577   19.9425  -28.2355 H   0  0  0  0  0  0  0  0  0  0  0  0
    0.9620   21.3471  -28.2355 H   0  0  0  0  0  0  0  0  0  0  0  0
  1  2  1  0
  2  3  2  0
  3  4  1  0
  4  5  1  0
  5  6  1  0
  6  7  2  0
  6  8  2  0
  6  9  1  0
  9 10  2  0
 10 11  1  0
 11 12  2  0
 12 13  1  0
 13 14  2  0
 13 15  2  0
 13 16  1  0
 16 17  1  0
 17 18  1  0
 18 19  1  0
 19 20  1  0
 20 21  1  0
 12 22  1  0
 22 23  2  0
  4 24  2  0
 24 25  1  0
 25 26  1  0
 26 27  2  0
 27 28  1  0
 28 29  2  0
 29 30  1  0
 30 31  2  0
 24 32  1  0
 32 33  2  0
 33 34  1  0
 33  2  1  0
 23  9  1  0
 31 26  1  0
 21 16  1  0
  1 35  1  0
  1 36  1  0
  1 37  1  0
  3 38  1  0
 10 39  1  0
 11 40  1  0
 17 41  1  0
 17 42  1  0
 18 43  1  0
 18 44  1  0
 20 45  1  0
 20 46  1  0
 21 47  1  0
 21 48  1  0
 22 49  1  0
 23 50  1  0
 27 51  1  0
 28 52  1  0
 29 53  1  0
 30 54  1  0
 31 55  1  0
 32 56  1  0
 34 57  1  0
 34 58  1  0
 34 59  1  0
M  CHG  1   5  -1
M  END
>  <UniqueID>  (13) 
13

>  <SMILES>  (13) 
Cc1cc([N-]S(=O)(=O)c2ccc(S(=O)(=O)N3CCOCC3)cc2)c(Oc2ccccc2)cc1C

>  <Energy>  (13) 
81.46326727716229

>  <Genealogy>  (13) 
Cc1cc([N-]S(=O)(=O)c2ccc(S(=O)(=O)N3CCOCC3)cc2)c(Oc2ccccc2)cc1C (protonated)
Cc1cc([N-]S(=O)(=O)c2ccc(S(=O)(=O)N3CCOCC3)cc2)c(Oc2ccccc2)cc1C (3D coordinates assigned)
Cc1cc([N-]S(=O)(=O)c2ccc(S(=O)(=O)N3CCOCC3)cc2)c(Oc2ccccc2)cc1C (nonaromatic ring conformer: 81.46326727716229 kcal/mol)

>  <smiles>  (13) 
Cc1cc(NS(=O)(=O)c2ccc(S(=O)(=O)N3CCOCC3)cc2)c(Oc2ccccc2)cc1C

>  <score_type>  (13) 
oracle

>  <origin>  (13) 
adgpu

>  <m_score__min__energy>  (13) 
-13.26

>  <m_primary>  (13) 
energy

$$$$
13:0
     RDKit          3D

 48 51  0  0  0  0  0  0  0  0999 V2000
   -0.2020   20.1650  -28.5680 H   0  0  0  0  0  0  0  0  0  0  0  0
   -0.6340   20.2140  -29.5190 N   0  0  0  0  0  0  0  0  0  0  0  0
   -1.3100   21.2490  -29.9020 C   0  0  0  0  0  0  0  0  0  0  0  0
   -1.5120   22.3900  -29.1550 C   0  0  0  0  0  0  0  0  0  0  0  0
   -1.1919   22.5943  -28.1226 H   0  0  0  0  0  0  0  0  0  0  0  0
   -2.2140   23.2170  -30.0150 C   0  0  0  0  0  0  0  0  0  0  0  0
   -2.6770   24.5770  -29.7160 C   0  0  0  0  0  0  0  0  0  0  0  0
   -2.0210   25.2950  -28.9150 O   0  0  0  0  0  0  0  0  0  0  0  0
   -3.8970   25.0560  -30.2970 N   0  0  0  0  0  0  0  0  0  0  0  0
   -5.0780   24.2870  -30.5670 C   0  0  0  0  0  0  0  0  0  0  0  0
   -5.6200   23.3940  -29.6240 C   0  0  0  0  0  0  0  0  0  0  0  0
   -5.1261   23.2588  -28.6505 H   0  0  0  0  0  0  0  0  0  0  0  0
   -6.7840   22.6780  -29.9200 C   0  0  0  0  0  0  0  0  0  0  0  0
   -7.1938   21.9704  -29.1842 H   0  0  0  0  0  0  0  0  0  0  0  0
   -7.4300   22.8580  -31.1490 C   0  0  0  0  0  0  0  0  0  0  0  0
   -8.8810   21.9290  -31.5210 S   0  0  0  0  0  0  0  0  0  0  0  0
   -9.5560   21.5520  -30.2320 O   0  0  0  0  0  0  0  0  0  0  0  0
   -9.8300   22.7650  -32.3350 O   0  0  0  0  0  0  0  0  0  0  0  0
   -8.4520   20.4830  -32.4040 N   0  0  0  0  0  0  0  0  0  0  0  0
   -8.8180   19.2880  -31.6210 C   0  0  0  0  0  0  0  0  0  0  0  0
   -8.5980   19.4707  -30.5588 H   0  0  0  0  0  0  0  0  0  0  0  0
   -9.8910   19.0890  -31.7591 H   0  0  0  0  0  0  0  0  0  0  0  0
   -8.0220   18.0630  -32.0980 C   0  0  0  0  0  0  0  0  0  0  0  0
   -8.3304   17.1953  -31.4964 H   0  0  0  0  0  0  0  0  0  0  0  0
   -8.2431   17.9388  -33.1684 H   0  0  0  0  0  0  0  0  0  0  0  0
   -6.6100   18.2060  -31.9850 O   0  0  0  0  0  0  0  0  0  0  0  0
   -6.1730   19.5550  -31.9340 C   0  0  0  0  0  0  0  0  0  0  0  0
   -6.2191   19.8981  -30.8899 H   0  0  0  0  0  0  0  0  0  0  0  0
   -5.1483   19.5817  -32.3332 H   0  0  0  0  0  0  0  0  0  0  0  0
   -7.0250   20.5020  -32.7980 C   0  0  0  0  0  0  0  0  0  0  0  0
   -6.6400   21.5264  -32.6868 H   0  0  0  0  0  0  0  0  0  0  0  0
   -6.9572   20.1612  -33.8417 H   0  0  0  0  0  0  0  0  0  0  0  0
   -6.9020   23.7590  -32.0830 C   0  0  0  0  0  0  0  0  0  0  0  0
   -7.4039   23.9029  -33.0512 H   0  0  0  0  0  0  0  0  0  0  0  0
   -5.7380   24.4760  -31.7870 C   0  0  0  0  0  0  0  0  0  0  0  0
   -5.3382   25.1938  -32.5184 H   0  0  0  0  0  0  0  0  0  0  0  0
   -2.4130   22.5990  -31.1990 N   0  0  0  0  0  0  0  0  0  0  0  0
   -1.8670   21.3930  -31.1250 N   0  0  0  0  0  0  0  0  0  0  0  0
   -1.8740   20.4570  -32.2200 C   0  0  0  0  0  0  0  0  0  0  0  0
   -0.6870   20.0880  -32.8800 C   0  0  0  0  0  0  0  0  0  0  0  0
    0.2722   20.5285  -32.5703 H   0  0  0  0  0  0  0  0  0  0  0  0
   -0.7220   19.1890  -33.8990 N   0  0  0  0  0  0  0  0  0  0  0  0
   -1.8840   18.6190  -34.3130 C   0  0  0  0  0  0  0  0  0  0  0  0
   -1.8785   17.9029  -35.1480 H   0  0  0  0  0  0  0  0  0  0  0  0
   -3.0840   18.9420  -33.6790 C   0  0  0  0  0  0  0  0  0  0  0  0
   -4.0269   18.4790  -34.0053 H   0  0  0  0  0  0  0  0  0  0  0  0
   -3.0760   19.8590  -32.6260 C   0  0  0  0  0  0  0  0  0  0  0  0
   -4.0154   20.1132  -32.1132 H   0  0  0  0  0  0  0  0  0  0  0  0
  1  2  1  0
  2  3  2  0
  3  4  1  0
  4  5  1  0
  4  6  2  0
  6  7  1  0
  7  8  2  0
  7  9  1  0
  9 10  1  0
 10 11  2  0
 11 12  1  0
 11 13  1  0
 13 14  1  0
 13 15  2  0
 15 16  1  0
 16 17  2  0
 16 18  2  0
 16 19  1  0
 19 20  1  0
 20 21  1  0
 20 22  1  0
 20 23  1  0
 23 24  1  0
 23 25  1  0
 23 26  1  0
 26 27  1  0
 27 28  1  0
 27 29  1  0
 27 30  1  0
 30 31  1  0
 30 32  1  0
 15 33  1  0
 33 34  1  0
 33 35  2  0
 35 36  1  0
  6 37  1  0
 37 38  1  0
 38 39  1  0
 39 40  2  0
 40 41  1  0
 40 42  1  0
 42 43  2  0
 43 44  1  0
 43 45  1  0
 45 46  1  0
 45 47  2  0
 47 48  1  0
 38  3  1  0
 47 39  1  0
 35 10  1  0
 30 19  1  0
M  CHG  2   9  -1  37  -1
M  END
>  <UniqueID>  (14) 
14

>  <SMILES>  (14) 
[H]/N=c1\cc(C(=O)[N-]c2ccc(S(=O)(=O)N3CCOCC3)cc2)[n-]n1-c1cccnc1

>  <Energy>  (14) 
103.31343995651783

>  <Genealogy>  (14) 
N=c1cc(C(=O)[N-]c2ccc(S(=O)(=O)N3CCOCC3)cc2)[n-]n1-c1cccnc1 (protonated)
[H]/N=c1\cc(C(=O)[N-]c2ccc(S(=O)(=O)N3CCOCC3)cc2)[n-]n1-c1cccnc1 (cis-trans isomerization)
[H]/N=c1\cc(C(=O)[N-]c2ccc(S(=O)(=O)N3CCOCC3)cc2)[n-]n1-c1cccnc1 (3D coordinates assigned)
[H]/N=c1\cc(C(=O)[N-]c2ccc(S(=O)(=O)N3CCOCC3)cc2)[n-]n1-c1cccnc1 (nonaromatic ring conformer: 103.31343995651783 kcal/mol)

>  <smiles>  (14) 
N=c1cc(C(=O)Nc2ccc(S(=O)(=O)N3CCOCC3)cc2)[nH]n1-c1cccnc1

>  <score_type>  (14) 
oracle

>  <origin>  (14) 
adgpu

>  <m_score__min__energy>  (14) 
-11.550000000000001

>  <m_primary>  (14) 
energy

$$$$
14:0
     RDKit          3D

 58 60  0  0  0  0  0  0  0  0999 V2000
   -4.3660   25.7880  -30.4740 O   0  0  0  0  0  0  0  0  0  0  0  0
   -4.8020   24.6280  -30.6990 C   0  0  0  0  0  0  0  0  0  0  0  0
   -5.9760   24.4800  -31.5070 N   0  0  0  0  0  0  0  0  0  0  0  0
   -6.6550   23.2480  -31.7850 C   0  0  0  0  0  0  0  0  0  0  0  0
   -8.0100   23.0800  -31.4680 C   0  0  0  0  0  0  0  0  0  0  0  0
   -8.6400   21.8590  -31.6980 C   0  0  0  0  0  0  0  0  0  0  0  0
   -7.9280   20.7840  -32.2390 C   0  0  0  0  0  0  0  0  0  0  0  0
   -8.7940   19.2680  -32.4640 Cl  0  0  0  0  0  0  0  0  0  0  0  0
   -6.5600   20.9310  -32.5580 C   0  0  0  0  0  0  0  0  0  0  0  0
   -5.6380   19.5640  -33.2260 S   0  0  0  0  0  0  0  0  0  0  0  0
   -6.0970   19.2370  -34.6200 O   0  0  0  0  0  0  0  0  0  0  0  0
   -5.8590   18.3480  -32.3710 O   0  0  0  0  0  0  0  0  0  0  0  0
   -3.8900   19.9730  -33.2640 C   0  0  0  0  0  0  0  0  0  0  0  0
   -3.3210   20.0220  -31.8310 C   0  0  0  0  0  0  0  0  0  0  0  0
   -1.9710   20.7520  -31.7860 C   0  0  0  0  0  0  0  0  0  0  0  0
   -0.8950   20.1820  -33.0910 S   0  0  0  0  0  0  0  0  0  0  0  0
   -0.7370   21.2560  -34.1310 O   0  0  0  0  0  0  0  0  0  0  0  0
    0.4520   19.8230  -32.5290 O   0  0  0  0  0  0  0  0  0  0  0  0
   -1.6480   18.7420  -33.8240 C   0  0  0  0  0  0  0  0  0  0  0  0
   -3.1240   18.9880  -34.1900 C   0  0  0  0  0  0  0  0  0  0  0  0
   -5.9260   22.1670  -32.3030 C   0  0  0  0  0  0  0  0  0  0  0  0
   -4.5700   22.3370  -32.5590 O   0  0  0  0  0  0  0  0  0  0  0  0
   -4.1510   23.4790  -30.1270 N   0  0  0  0  0  0  0  0  0  0  0  0
   -2.9690   23.5460  -29.3110 C   0  0  0  0  0  0  0  0  0  0  0  0
   -2.1840   24.6970  -29.3420 C   0  0  0  0  0  0  0  0  0  0  0  0
   -1.0120   24.7740  -28.5950 C   0  0  0  0  0  0  0  0  0  0  0  0
   -0.5710   23.6910  -27.8150 C   0  0  0  0  0  0  0  0  0  0  0  0
    0.9730   23.8760  -26.9360 S   0  0  0  0  0  0  0  0  0  0  0  0
    1.7840   25.0090  -27.4960 O   0  0  0  0  0  0  0  0  0  0  0  0
    1.7560   22.6010  -27.0860 O   0  0  0  0  0  0  0  0  0  0  0  0
    0.7870   24.2280  -25.1830 C   0  0  0  0  0  0  0  0  0  0  0  0
    1.7470   25.1590  -24.8280 F   0  0  0  0  0  0  0  0  0  0  0  0
    1.0050   23.0850  -24.4370 F   0  0  0  0  0  0  0  0  0  0  0  0
   -0.5950   24.8090  -24.8670 C   0  0  0  0  0  0  0  0  0  0  0  0
   -0.9200   25.7710  -25.8060 F   0  0  0  0  0  0  0  0  0  0  0  0
   -0.6120   25.3890  -23.6130 F   0  0  0  0  0  0  0  0  0  0  0  0
   -1.3950   22.5290  -27.7270 C   0  0  0  0  0  0  0  0  0  0  0  0
   -1.0640   21.3470  -26.8340 C   0  0  0  0  0  0  0  0  0  0  0  0
   -2.1060   20.4370  -26.7860 F   0  0  0  0  0  0  0  0  0  0  0  0
    0.0520   20.6950  -27.3210 F   0  0  0  0  0  0  0  0  0  0  0  0
   -0.8370   21.7720  -25.5380 F   0  0  0  0  0  0  0  0  0  0  0  0
   -2.5610   22.4610  -28.5240 C   0  0  0  0  0  0  0  0  0  0  0  0
   -8.5787   23.9164  -31.0355 H   0  0  0  0  0  0  0  0  0  0  0  0
   -9.7055   21.7396  -31.4522 H   0  0  0  0  0  0  0  0  0  0  0  0
   -3.7549   20.9771  -33.6925 H   0  0  0  0  0  0  0  0  0  0  0  0
   -4.0345   20.5497  -31.1810 H   0  0  0  0  0  0  0  0  0  0  0  0
   -3.1664   18.9891  -31.4857 H   0  0  0  0  0  0  0  0  0  0  0  0
   -2.1414   21.8321  -31.9057 H   0  0  0  0  0  0  0  0  0  0  0  0
   -1.4909   20.5438  -30.8185 H   0  0  0  0  0  0  0  0  0  0  0  0
   -1.0947   18.4774  -34.7371 H   0  0  0  0  0  0  0  0  0  0  0  0
   -1.6113   17.9261  -33.0871 H   0  0  0  0  0  0  0  0  0  0  0  0
   -3.1564   19.3907  -35.2131 H   0  0  0  0  0  0  0  0  0  0  0  0
   -3.6277   18.0165  -34.0783 H   0  0  0  0  0  0  0  0  0  0  0  0
   -4.5130   22.5290  -30.3660 H   0  0  0  0  0  0  0  0  0  0  0  0
   -2.4930   25.5516  -29.9618 H   0  0  0  0  0  0  0  0  0  0  0  0
   -0.4194   25.7005  -28.6155 H   0  0  0  0  0  0  0  0  0  0  0  0
   -1.3259   23.9873  -24.8920 H   0  0  0  0  0  0  0  0  0  0  0  0
   -3.1595   21.5381  -28.5262 H   0  0  0  0  0  0  0  0  0  0  0  0
  1  2  2  0
  2  3  1  0
  3  4  1  0
  4  5  2  0
  5  6  1  0
  6  7  2  0
  7  8  1  0
  7  9  1  0
  9 10  1  0
 10 11  2  0
 10 12  2  0
 10 13  1  0
 13 14  1  0
 14 15  1  0
 15 16  1  0
 16 17  2  0
 16 18  2  0
 16 19  1  0
 19 20  1  0
  9 21  2  0
 21 22  1  0
  2 23  1  0
 23 24  1  0
 24 25  2  0
 25 26  1  0
 26 27  2  0
 27 28  1  0
 28 29  2  0
 28 30  2  0
 28 31  1  0
 31 32  1  0
 31 33  1  0
 31 34  1  0
 34 35  1  0
 34 36  1  0
 27 37  1  0
 37 38  1  0
 38 39  1  0
 38 40  1  0
 38 41  1  0
 37 42  2  0
 21  4  1  0
 42 24  1  0
 20 13  1  0
  5 43  1  0
  6 44  1  0
 13 45  1  0
 14 46  1  0
 14 47  1  0
 15 48  1  0
 15 49  1  0
 19 50  1  0
 19 51  1  0
 20 52  1  0
 20 53  1  0
 23 54  1  0
 25 55  1  0
 26 56  1  0
 34 57  1  0
 42 58  1  0
M  CHG  2   3  -1  22  -1
M  END
>  <UniqueID>  (15) 
15

>  <SMILES>  (15) 
O=C([N-]c1ccc(Cl)c(S(=O)(=O)C2CCS(=O)(=O)CC2)c1[O-])Nc1ccc(S(=O)(=O)C(F)(F)C(F)F)c(C(F)(F)F)c1

>  <Energy>  (15) 
70.30374086275295

>  <Genealogy>  (15) 
O=C([N-]c1ccc(Cl)c(S(=O)(=O)C2CCS(=O)(=O)CC2)c1[O-])Nc1ccc(S(=O)(=O)C(F)(F)C(F)F)c(C(F)(F)F)c1 (protonated)
O=C([N-]c1ccc(Cl)c(S(=O)(=O)C2CCS(=O)(=O)CC2)c1[O-])Nc1ccc(S(=O)(=O)C(F)(F)C(F)F)c(C(F)(F)F)c1 (3D coordinates assigned)
O=C([N-]c1ccc(Cl)c(S(=O)(=O)C2CCS(=O)(=O)CC2)c1[O-])Nc1ccc(S(=O)(=O)C(F)(F)C(F)F)c(C(F)(F)F)c1 (nonaromatic ring conformer: 70.30374086275295 kcal/mol)

>  <smiles>  (15) 
O=C(Nc1ccc(S(=O)(=O)C(F)(F)C(F)F)c(C(F)(F)F)c1)Nc1ccc(Cl)c(S(=O)(=O)C2CCS(=O)(=O)CC2)c1O

>  <score_type>  (15) 
oracle

>  <origin>  (15) 
adgpu

>  <m_score__min__energy>  (15) 
-11.57

>  <m_primary>  (15) 
energy

$$$$
15:0
     RDKit          3D

 47 49  0  0  0  0  0  0  0  0999 V2000
   -3.3220   18.8970  -26.3850 C   0  0  0  0  0  0  0  0  0  0  0  0
   -2.4530   19.9640  -26.9840 C   0  0  0  0  0  0  0  0  0  0  0  0
   -1.5230   20.6400  -26.1800 C   0  0  0  0  0  0  0  0  0  0  0  0
   -0.6970   21.6250  -26.7320 C   0  0  0  0  0  0  0  0  0  0  0  0
   -0.7880   21.9320  -28.0930 C   0  0  0  0  0  0  0  0  0  0  0  0
   -1.7030   21.2530  -28.9090 C   0  0  0  0  0  0  0  0  0  0  0  0
   -1.8380   21.6410  -30.6230 S   0  0  0  0  0  0  0  0  0  0  0  0
   -0.4780   21.7460  -31.2580 O   0  0  0  0  0  0  0  0  0  0  0  0
   -2.6110   20.5510  -31.3080 O   0  0  0  0  0  0  0  0  0  0  0  0
   -2.6760   23.1480  -30.8200 N   0  0  0  0  0  0  0  0  0  0  0  0
   -4.1000   23.2890  -30.9230 C   0  0  0  0  0  0  0  0  0  0  0  0
   -4.9380   22.1940  -31.1960 C   0  0  0  0  0  0  0  0  0  0  0  0
   -6.3230   22.3700  -31.3090 C   0  0  0  0  0  0  0  0  0  0  0  0
   -7.3520   20.9670  -31.5970 S   0  0  0  0  0  0  0  0  0  0  0  0
   -8.3360   20.8080  -30.4690 O   0  0  0  0  0  0  0  0  0  0  0  0
   -8.1160   21.1850  -32.8750 O   0  0  0  0  0  0  0  0  0  0  0  0
   -6.3680   19.5290  -31.7400 N   0  0  0  0  0  0  0  0  0  0  0  0
   -7.2310   18.3260  -31.6890 C   0  0  0  0  0  0  0  0  0  0  0  0
   -6.4960   17.0930  -32.2250 C   0  0  0  0  0  0  0  0  0  0  0  0
   -6.1170   17.2740  -33.7060 C   0  0  0  0  0  0  0  0  0  0  0  0
   -5.9860   18.7530  -34.1100 C   0  0  0  0  0  0  0  0  0  0  0  0
   -5.4870   19.6070  -32.9340 C   0  0  0  0  0  0  0  0  0  0  0  0
   -6.8790   23.6420  -31.1340 C   0  0  0  0  0  0  0  0  0  0  0  0
   -6.0530   24.7340  -30.8550 C   0  0  0  0  0  0  0  0  0  0  0  0
   -4.6690   24.5620  -30.7520 C   0  0  0  0  0  0  0  0  0  0  0  0
   -3.8580   25.6620  -30.4840 O   0  0  0  0  0  0  0  0  0  0  0  0
   -2.5320   20.2670  -28.3530 C   0  0  0  0  0  0  0  0  0  0  0  0
   -3.2729   18.9573  -25.2877 H   0  0  0  0  0  0  0  0  0  0  0  0
   -4.3614   19.0430  -26.7141 H   0  0  0  0  0  0  0  0  0  0  0  0
   -2.9686   17.9087  -26.7141 H   0  0  0  0  0  0  0  0  0  0  0  0
   -1.4429   20.3944  -25.1108 H   0  0  0  0  0  0  0  0  0  0  0  0
    0.0242   22.1581  -26.0951 H   0  0  0  0  0  0  0  0  0  0  0  0
   -0.1395   22.7087  -28.5245 H   0  0  0  0  0  0  0  0  0  0  0  0
   -4.5029   21.1916  -31.3218 H   0  0  0  0  0  0  0  0  0  0  0  0
   -7.5278   18.1414  -30.6460 H   0  0  0  0  0  0  0  0  0  0  0  0
   -8.1153   18.5050  -32.3183 H   0  0  0  0  0  0  0  0  0  0  0  0
   -5.5800   16.9366  -31.6363 H   0  0  0  0  0  0  0  0  0  0  0  0
   -7.1640   16.2233  -32.1391 H   0  0  0  0  0  0  0  0  0  0  0  0
   -5.1542   16.7735  -33.8864 H   0  0  0  0  0  0  0  0  0  0  0  0
   -6.9239   16.8350  -34.3111 H   0  0  0  0  0  0  0  0  0  0  0  0
   -5.2717   18.8359  -34.9424 H   0  0  0  0  0  0  0  0  0  0  0  0
   -6.9775   19.1211  -34.4124 H   0  0  0  0  0  0  0  0  0  0  0  0
   -4.4825   19.2595  -32.6508 H   0  0  0  0  0  0  0  0  0  0  0  0
   -5.4820   20.6547  -33.2692 H   0  0  0  0  0  0  0  0  0  0  0  0
   -7.9669   23.7824  -31.2161 H   0  0  0  0  0  0  0  0  0  0  0  0
   -6.4930   25.7325  -30.7159 H   0  0  0  0  0  0  0  0  0  0  0  0
   -3.2472   19.7288  -28.9924 H   0  0  0  0  0  0  0  0  0  0  0  0
  1  2  1  0
  2  3  2  0
  3  4  1  0
  4  5  2  0
  5  6  1  0
  6  7  1  0
  7  8  2  0
  7  9  2  0
  7 10  1  0
 10 11  1  0
 11 12  2  0
 12 13  1  0
 13 14  1  0
 14 15  2  0
 14 16  2  0
 14 17  1  0
 17 18  1  0
 18 19  1  0
 19 20  1  0
 20 21  1  0
 21 22  1  0
 13 23  2  0
 23 24  1  0
 24 25  2  0
 25 26  1  0
  6 27  2  0
 27  2  1  0
 25 11  1  0
 22 17  1  0
  1 28  1  0
  1 29  1  0
  1 30  1  0
  3 31  1  0
  4 32  1  0
  5 33  1  0
 12 34  1  0
 18 35  1  0
 18 36  1  0
 19 37  1  0
 19 38  1  0
 20 39  1  0
 20 40  1  0
 21 41  1  0
 21 42  1  0
 22 43  1  0
 22 44  1  0
 23 45  1  0
 24 46  1  0
 27 47  1  0
M  CHG  2  10  -1  26  -1
M  END
>  <UniqueID>  (16) 
16

>  <SMILES>  (16) 
Cc1cccc(S(=O)(=O)[N-]c2cc(S(=O)(=O)N3CCCCC3)ccc2[O-])c1

>  <Energy>  (16) 
55.14000645095691

>  <Genealogy>  (16) 
Cc1cccc(S(=O)(=O)[N-]c2cc(S(=O)(=O)N3CCCCC3)ccc2[O-])c1 (protonated)
Cc1cccc(S(=O)(=O)[N-]c2cc(S(=O)(=O)N3CCCCC3)ccc2[O-])c1 (3D coordinates assigned)
Cc1cccc(S(=O)(=O)[N-]c2cc(S(=O)(=O)N3CCCCC3)ccc2[O-])c1 (nonaromatic ring conformer: 55.14000645095691 kcal/mol)

>  <smiles>  (16) 
Cc1cccc(S(=O)(=O)Nc2cc(S(=O)(=O)N3CCCCC3)ccc2O)c1

>  <score_type>  (16) 
oracle

>  <origin>  (16) 
adgpu

>  <m_score__min__energy>  (16) 
-13.74

>  <m_primary>  (16) 
energy

$$$$
16:0
     RDKit          3D

 39 40  0  0  0  0  0  0  0  0999 V2000
   -2.8770   19.0340  -26.4260 C   0  0  0  0  0  0  0  0  0  0  0  0
   -1.8900   20.1430  -26.7560 C   0  0  0  0  0  0  0  0  0  0  0  0
   -1.9130   20.4000  -28.1560 O   0  0  0  0  0  0  0  0  0  0  0  0
   -1.2700   21.5000  -28.7310 C   0  0  0  0  0  0  0  0  0  0  0  0
   -0.0100   21.5570  -28.7580 O   0  0  0  0  0  0  0  0  0  0  0  0
   -2.0740   22.5960  -29.3230 C   0  0  0  0  0  0  0  0  0  0  0  0
   -1.9050   23.9270  -28.8720 C   0  0  0  0  0  0  0  0  0  0  0  0
   -0.9120   24.2930  -27.8050 C   0  0  0  0  0  0  0  0  0  0  0  0
   -2.6560   24.9210  -29.4090 N   0  0  0  0  0  0  0  0  0  0  0  0
   -3.6010   24.6970  -30.3530 C   0  0  0  0  0  0  0  0  0  0  0  0
   -4.2410   25.6750  -30.8210 O   0  0  0  0  0  0  0  0  0  0  0  0
   -3.8400   23.3920  -30.8140 C   0  0  0  0  0  0  0  0  0  0  0  0
   -4.8530   23.1290  -31.8020 N   0  0  0  0  0  0  0  0  0  0  0  0
   -6.2690   23.2490  -31.6100 C   0  0  0  0  0  0  0  0  0  0  0  0
   -6.7320   24.3490  -31.2100 O   0  0  0  0  0  0  0  0  0  0  0  0
   -7.2000   22.1350  -31.9150 C   0  0  0  0  0  0  0  0  0  0  0  0
   -6.7060   20.9270  -32.4370 C   0  0  0  0  0  0  0  0  0  0  0  0
   -7.5770   19.8690  -32.7170 C   0  0  0  0  0  0  0  0  0  0  0  0
   -8.9450   20.0030  -32.4690 C   0  0  0  0  0  0  0  0  0  0  0  0
   -9.4450   21.1950  -31.9410 C   0  0  0  0  0  0  0  0  0  0  0  0
   -8.5780   22.2560  -31.6600 C   0  0  0  0  0  0  0  0  0  0  0  0
   -3.0340   22.3350  -30.3360 C   0  0  0  0  0  0  0  0  0  0  0  0
   -3.2360   20.9360  -30.8730 C   0  0  0  0  0  0  0  0  0  0  0  0
   -2.9654   18.9347  -25.3341 H   0  0  0  0  0  0  0  0  0  0  0  0
   -3.8607   19.2797  -26.8526 H   0  0  0  0  0  0  0  0  0  0  0  0
   -2.5189   18.0855  -26.8526 H   0  0  0  0  0  0  0  0  0  0  0  0
   -2.1700   21.0567  -26.2112 H   0  0  0  0  0  0  0  0  0  0  0  0
   -0.8778   19.8327  -26.4575 H   0  0  0  0  0  0  0  0  0  0  0  0
   -1.3606   24.1276  -26.8143 H   0  0  0  0  0  0  0  0  0  0  0  0
   -0.0137   23.6669  -27.9098 H   0  0  0  0  0  0  0  0  0  0  0  0
   -0.6349   25.3523  -27.9098 H   0  0  0  0  0  0  0  0  0  0  0  0
   -5.6284   20.8131  -32.6264 H   0  0  0  0  0  0  0  0  0  0  0  0
   -7.1839   18.9297  -33.1333 H   0  0  0  0  0  0  0  0  0  0  0  0
   -9.6283   19.1697  -32.6896 H   0  0  0  0  0  0  0  0  0  0  0  0
  -10.5224   21.2998  -31.7457 H   0  0  0  0  0  0  0  0  0  0  0  0
   -8.9760   23.1903  -31.2372 H   0  0  0  0  0  0  0  0  0  0  0  0
   -3.3376   20.2322  -30.0337 H   0  0  0  0  0  0  0  0  0  0  0  0
   -4.1476   20.9074  -31.4880 H   0  0  0  0  0  0  0  0  0  0  0  0
   -2.3697   20.6507  -31.4880 H   0  0  0  0  0  0  0  0  0  0  0  0
  1  2  1  0
  2  3  1  0
  3  4  1  0
  4  5  2  0
  4  6  1  0
  6  7  2  0
  7  8  1  0
  7  9  1  0
  9 10  1  0
 10 11  2  0
 10 12  1  0
 12 13  1  0
 13 14  1  0
 14 15  2  0
 14 16  1  0
 16 17  2  0
 17 18  1  0
 18 19  2  0
 19 20  1  0
 20 21  2  0
 12 22  2  0
 22 23  1  0
 22  6  1  0
 21 16  1  0
  1 24  1  0
  1 25  1  0
  1 26  1  0
  2 27  1  0
  2 28  1  0
  8 29  1  0
  8 30  1  0
  8 31  1  0
 17 32  1  0
 18 33  1  0
 19 34  1  0
 20 35  1  0
 21 36  1  0
 23 37  1  0
 23 38  1  0
 23 39  1  0
M  CHG  2   9  -1  13  -1
M  END
>  <UniqueID>  (17) 
17

>  <SMILES>  (17) 
CCOC(=O)c1c(C)[n-]c(=O)c([N-]C(=O)c2ccccc2)c1C

>  <Energy>  (17) 
51.37436892836801

>  <Genealogy>  (17) 
CCOC(=O)c1c(C)[n-]c(=O)c([N-]C(=O)c2ccccc2)c1C (protonated)
CCOC(=O)c1c(C)[n-]c(=O)c([N-]C(=O)c2ccccc2)c1C (3D coordinates assigned)
CCOC(=O)c1c(C)[n-]c(=O)c([N-]C(=O)c2ccccc2)c1C (optimized conformer: 51.37436892836801 kcal/mol)

>  <smiles>  (17) 
CCOC(=O)c1c(C)[nH]c(=O)c(NC(=O)c2ccccc2)c1C

>  <score_type>  (17) 
oracle

>  <origin>  (17) 
adgpu

>  <m_score__min__energy>  (17) 
-9.9299999999999997

>  <m_primary>  (17) 
energy

$$$$
17:0
     RDKit          3D

 37 38  0  0  0  0  0  0  0  0999 V2000
   -7.9430   19.9460  -32.7220 C   0  0  0  0  0  0  0  0  0  0  0  0
   -7.1550   21.0780  -32.1300 C   0  0  0  0  0  0  0  0  0  0  0  0
   -7.7000   21.8540  -31.0960 C   0  0  0  0  0  0  0  0  0  0  0  0
   -6.9540   22.8870  -30.5210 C   0  0  0  0  0  0  0  0  0  0  0  0
   -5.6500   23.1460  -30.9670 C   0  0  0  0  0  0  0  0  0  0  0  0
   -4.7080   24.4640  -30.2750 S   0  0  0  0  0  0  0  0  0  0  0  0
   -4.7180   25.6610  -31.1830 O   0  0  0  0  0  0  0  0  0  0  0  0
   -5.3130   24.8450  -28.9530 O   0  0  0  0  0  0  0  0  0  0  0  0
   -3.0700   23.9490  -30.0300 N   0  0  0  0  0  0  0  0  0  0  0  0
   -2.7160   22.9060  -29.1040 C   0  0  0  0  0  0  0  0  0  0  0  0
   -3.3980   21.6750  -29.1390 C   0  0  0  0  0  0  0  0  0  0  0  0
   -3.0650   20.6510  -28.2530 C   0  0  0  0  0  0  0  0  0  0  0  0
   -2.0470   20.8340  -27.3110 C   0  0  0  0  0  0  0  0  0  0  0  0
   -1.6630   19.7160  -26.3870 C   0  0  0  0  0  0  0  0  0  0  0  0
   -1.3440   22.0460  -27.2830 C   0  0  0  0  0  0  0  0  0  0  0  0
   -1.6730   23.0890  -28.1640 C   0  0  0  0  0  0  0  0  0  0  0  0
   -0.7920   24.6180  -28.0480 S   0  0  0  0  0  0  0  0  0  0  0  0
   -1.6180   25.8360  -28.9550 N   0  0  0  0  0  0  0  0  0  0  0  0
   -0.7090   25.0660  -26.6150 O   0  0  0  0  0  0  0  0  0  0  0  0
    0.5990   24.4390  -28.5840 O   0  0  0  0  0  0  0  0  0  0  0  0
   -5.0970   22.3580  -31.9850 C   0  0  0  0  0  0  0  0  0  0  0  0
   -5.8430   21.3260  -32.5600 C   0  0  0  0  0  0  0  0  0  0  0  0
   -8.3692   19.3337  -31.9136 H   0  0  0  0  0  0  0  0  0  0  0  0
   -8.7558   20.3504  -33.3431 H   0  0  0  0  0  0  0  0  0  0  0  0
   -7.2815   19.3242  -33.3431 H   0  0  0  0  0  0  0  0  0  0  0  0
   -8.7190   21.6486  -30.7361 H   0  0  0  0  0  0  0  0  0  0  0  0
   -7.3907   23.4978  -29.7172 H   0  0  0  0  0  0  0  0  0  0  0  0
   -2.3270   24.4970  -30.5140 H   0  0  0  0  0  0  0  0  0  0  0  0
   -4.2022   21.5192  -29.8731 H   0  0  0  0  0  0  0  0  0  0  0  0
   -3.6058   19.6940  -28.2950 H   0  0  0  0  0  0  0  0  0  0  0  0
   -1.7766   20.0468  -25.3441 H   0  0  0  0  0  0  0  0  0  0  0  0
   -2.3149   18.8490  -26.5697 H   0  0  0  0  0  0  0  0  0  0  0  0
   -0.6160   19.4325  -26.5697 H   0  0  0  0  0  0  0  0  0  0  0  0
   -0.5244   22.1821  -26.5621 H   0  0  0  0  0  0  0  0  0  0  0  0
   -1.5280   25.5810  -29.9640 H   0  0  0  0  0  0  0  0  0  0  0  0
   -4.0717   22.5525  -32.3328 H   0  0  0  0  0  0  0  0  0  0  0  0
   -5.3998   20.7056  -33.3529 H   0  0  0  0  0  0  0  0  0  0  0  0
  1  2  1  0
  2  3  2  0
  3  4  1  0
  4  5  2  0
  5  6  1  0
  6  7  2  0
  6  8  2  0
  6  9  1  0
  9 10  1  0
 10 11  2  0
 11 12  1  0
 12 13  2  0
 13 14  1  0
 13 15  1  0
 15 16  2  0
 16 17  1  0
 17 18  1  0
 17 19  2  0
 17 20  2  0
  5 21  1  0
 21 22  2  0
 22  2  1  0
 16 10  1  0
  1 23  1  0
  1 24  1  0
  1 25  1  0
  3 26  1  0
  4 27  1  0
  9 28  1  0
 11 29  1  0
 12 30  1  0
 14 31  1  0
 14 32  1  0
 14 33  1  0
 15 34  1  0
 18 35  1  0
 21 36  1  0
 22 37  1  0
M  CHG  1  18  -1
M  END
>  <UniqueID>  (18) 
18

>  <SMILES>  (18) 
Cc1ccc(S(=O)(=O)Nc2ccc(C)cc2S([NH-])(=O)=O)cc1

>  <Energy>  (18) 
40.13052905764693

>  <Genealogy>  (18) 
Cc1ccc(S(=O)(=O)Nc2ccc(C)cc2S([NH-])(=O)=O)cc1 (protonated)
Cc1ccc(S(=O)(=O)Nc2ccc(C)cc2S([NH-])(=O)=O)cc1 (3D coordinates assigned)
Cc1ccc(S(=O)(=O)Nc2ccc(C)cc2S([NH-])(=O)=O)cc1 (optimized conformer: 40.13052905764693 kcal/mol)

>  <smiles>  (18) 
Cc1ccc(S(=O)(=O)Nc2ccc(C)cc2S(N)(=O)=O)cc1

>  <score_type>  (18) 
oracle

>  <origin>  (18) 
adgpu

>  <m_score__min__energy>  (18) 
-10.82

>  <m_primary>  (18) 
energy

$$$$
18:0
     RDKit          3D

 56 59  0  0  0  0  0  0  0  0999 V2000
   -3.8830   20.8700  -33.4540 C   0  0  0  0  0  0  0  0  0  0  0  0
   -2.9340   21.4020  -32.4320 C   0  0  0  0  0  0  0  0  0  0  0  0
   -1.7780   21.7570  -32.7920 O   0  0  0  0  0  0  0  0  0  0  0  0
   -3.3500   21.5560  -31.0670 N   0  0  0  0  0  0  0  0  0  0  0  0
   -2.4540   21.9630  -30.0210 C   0  0  0  0  0  0  0  0  0  0  0  0
   -1.2480   21.2650  -29.8590 C   0  0  0  0  0  0  0  0  0  0  0  0
   -0.3880   21.5710  -28.8000 C   0  0  0  0  0  0  0  0  0  0  0  0
   -0.7270   22.5770  -27.8940 C   0  0  0  0  0  0  0  0  0  0  0  0
   -1.9110   23.2990  -28.0590 C   0  0  0  0  0  0  0  0  0  0  0  0
   -2.7640   23.0270  -29.1370 C   0  0  0  0  0  0  0  0  0  0  0  0
   -3.9290   23.8460  -29.3060 N   0  0  0  0  0  0  0  0  0  0  0  0
   -4.2950   24.4920  -30.5300 C   0  0  0  0  0  0  0  0  0  0  0  0
   -3.8860   25.6590  -30.7770 O   0  0  0  0  0  0  0  0  0  0  0  0
   -5.1400   23.7490  -31.5200 C   0  0  0  0  0  0  0  0  0  0  0  0
   -6.9320   24.0070  -31.2550 S   0  0  0  0  0  0  0  0  0  0  0  0
   -7.3790   22.2950  -31.5380 C   0  0  0  0  0  0  0  0  0  0  0  0
   -8.6530   21.9720  -31.8710 N   0  0  0  0  0  0  0  0  0  0  0  0
   -9.0180   20.6820  -32.0880 C   0  0  0  0  0  0  0  0  0  0  0  0
  -10.2130   20.4200  -32.3860 O   0  0  0  0  0  0  0  0  0  0  0  0
   -8.0620   19.6570  -31.9800 C   0  0  0  0  0  0  0  0  0  0  0  0
   -6.7540   20.0120  -31.6020 C   0  0  0  0  0  0  0  0  0  0  0  0
   -6.4440   21.3200  -31.4030 N   0  0  0  0  0  0  0  0  0  0  0  0
   -5.6640   18.9850  -31.4920 C   0  0  0  0  0  0  0  0  0  0  0  0
   -6.2070   17.5480  -31.4810 C   0  0  0  0  0  0  0  0  0  0  0  0
   -7.2940   17.3380  -32.4630 N   0  0  0  0  0  0  0  0  0  0  0  0
   -6.8600   17.4790  -33.8710 C   0  0  0  0  0  0  0  0  0  0  0  0
   -5.4620   16.9520  -34.0630 C   0  0  0  0  0  0  0  0  0  0  0  0
   -5.1710   15.5960  -33.8320 C   0  0  0  0  0  0  0  0  0  0  0  0
   -3.8760   15.1110  -34.0310 C   0  0  0  0  0  0  0  0  0  0  0  0
   -2.8630   15.9730  -34.4630 C   0  0  0  0  0  0  0  0  0  0  0  0
   -3.1460   17.3220  -34.6980 C   0  0  0  0  0  0  0  0  0  0  0  0
   -4.4410   17.8100  -34.5000 C   0  0  0  0  0  0  0  0  0  0  0  0
   -8.4500   18.2040  -32.1540 C   0  0  0  0  0  0  0  0  0  0  0  0
   -4.7355   20.3921  -32.9492 H   0  0  0  0  0  0  0  0  0  0  0  0
   -4.2456   21.6964  -34.0830 H   0  0  0  0  0  0  0  0  0  0  0  0
   -3.3672   20.1295  -34.0830 H   0  0  0  0  0  0  0  0  0  0  0  0
   -4.3730   21.5300  -30.8560 H   0  0  0  0  0  0  0  0  0  0  0  0
   -0.9769   20.4710  -30.5704 H   0  0  0  0  0  0  0  0  0  0  0  0
    0.5559   21.0188  -28.6809 H   0  0  0  0  0  0  0  0  0  0  0  0
   -0.0604   22.8016  -27.0484 H   0  0  0  0  0  0  0  0  0  0  0  0
   -2.1757   24.0864  -27.3380 H   0  0  0  0  0  0  0  0  0  0  0  0
   -4.8809   24.0934  -32.5321 H   0  0  0  0  0  0  0  0  0  0  0  0
   -4.9366   22.6758  -31.3904 H   0  0  0  0  0  0  0  0  0  0  0  0
   -4.9847   19.0986  -32.3497 H   0  0  0  0  0  0  0  0  0  0  0  0
   -5.1430   19.1522  -30.5377 H   0  0  0  0  0  0  0  0  0  0  0  0
   -5.3826   16.8590  -31.7167 H   0  0  0  0  0  0  0  0  0  0  0  0
   -6.6235   17.3591  -30.4806 H   0  0  0  0  0  0  0  0  0  0  0  0
   -7.5485   16.9149  -34.5173 H   0  0  0  0  0  0  0  0  0  0  0  0
   -6.8700   18.5470  -34.1344 H   0  0  0  0  0  0  0  0  0  0  0  0
   -5.9655   14.9147  -33.4935 H   0  0  0  0  0  0  0  0  0  0  0  0
   -3.6528   14.0496  -33.8476 H   0  0  0  0  0  0  0  0  0  0  0  0
   -1.8436   15.5898  -34.6179 H   0  0  0  0  0  0  0  0  0  0  0  0
   -2.3493   17.9996  -35.0388 H   0  0  0  0  0  0  0  0  0  0  0  0
   -4.6607   18.8714  -34.6876 H   0  0  0  0  0  0  0  0  0  0  0  0
   -9.1754   18.1297  -32.9776 H   0  0  0  0  0  0  0  0  0  0  0  0
   -8.8787   17.8584  -31.2017 H   0  0  0  0  0  0  0  0  0  0  0  0
  1  2  1  0
  2  3  2  0
  2  4  1  0
  4  5  1  0
  5  6  2  0
  6  7  1  0
  7  8  2  0
  8  9  1  0
  9 10  2  0
 10 11  1  0
 11 12  1  0
 12 13  2  0
 12 14  1  0
 14 15  1  0
 15 16  1  0
 16 17  2  0
 17 18  1  0
 18 19  2  0
 18 20  1  0
 20 21  2  0
 21 22  1  0
 21 23  1  0
 23 24  1  0
 24 25  1  0
 25 26  1  0
 26 27  1  0
 27 28  2  0
 28 29  1  0
 29 30  2  0
 30 31  1  0
 31 32  2  0
 25 33  1  0
 10  5  1  0
 22 16  1  0
 32 27  1  0
 33 20  1  0
  1 34  1  0
  1 35  1  0
  1 36  1  0
  4 37  1  0
  6 38  1  0
  7 39  1  0
  8 40  1  0
  9 41  1  0
 14 42  1  0
 14 43  1  0
 23 44  1  0
 23 45  1  0
 24 46  1  0
 24 47  1  0
 26 48  1  0
 26 49  1  0
 28 50  1  0
 29 51  1  0
 30 52  1  0
 31 53  1  0
 32 54  1  0
 33 55  1  0
 33 56  1  0
M  CHG  2  11  -1  22  -1
M  END
>  <UniqueID>  (19) 
19

>  <SMILES>  (19) 
CC(=O)Nc1ccccc1[N-]C(=O)CSc1nc(=O)c2c([n-]1)CCN(Cc1ccccc1)C2

>  <Energy>  (19) 
68.84809010388521

>  <Genealogy>  (19) 
CC(=O)Nc1ccccc1[N-]C(=O)CSc1nc(=O)c2c([n-]1)CCN(Cc1ccccc1)C2 (protonated)
CC(=O)Nc1ccccc1[N-]C(=O)CSc1nc(=O)c2c([n-]1)CCN(Cc1ccccc1)C2 (3D coordinates assigned)
CC(=O)Nc1ccccc1[N-]C(=O)CSc1nc(=O)c2c([n-]1)CCN(Cc1ccccc1)C2 (nonaromatic ring conformer: 68.84809010388521 kcal/mol)

>  <smiles>  (19) 
CC(=O)Nc1ccccc1NC(=O)CSc1nc(=O)c2c([nH]1)CCN(Cc1ccccc1)C2

>  <score_type>  (19) 
oracle

>  <origin>  (19) 
adgpu

>  <m_score__min__energy>  (19) 
-11.699999999999999

>  <m_primary>  (19) 
energy

$$$$
19:0
     RDKit          3D

 59 62  0  0  0  0  0  0  0  0999 V2000
   -4.1450   23.0070  -31.5350 O   0  0  0  0  0  0  0  0  0  0  0  0
   -4.4300   22.9910  -30.3060 C   0  0  0  0  0  0  0  0  0  0  0  0
   -5.8030   23.0740  -29.8900 N   0  0  0  0  0  0  0  0  0  0  0  0
   -6.9160   22.7270  -30.7310 C   0  0  0  0  0  0  0  0  0  0  0  0
   -7.7510   23.7410  -31.2230 C   0  0  0  0  0  0  0  0  0  0  0  0
   -8.8530   23.4240  -32.0220 C   0  0  0  0  0  0  0  0  0  0  0  0
   -9.1380   22.0920  -32.3270 C   0  0  0  0  0  0  0  0  0  0  0  0
   -8.3210   21.0670  -31.8320 C   0  0  0  0  0  0  0  0  0  0  0  0
   -8.6990   19.3790  -32.1690 S   0  0  0  0  0  0  0  0  0  0  0  0
   -9.9020   19.3270  -33.0700 O   0  0  0  0  0  0  0  0  0  0  0  0
   -9.0270   18.6610  -30.8880 O   0  0  0  0  0  0  0  0  0  0  0  0
   -7.3420   18.6080  -32.9560 N   0  0  0  0  0  0  0  0  0  0  0  0
   -6.6660   19.5740  -33.8520 C   0  0  0  0  0  0  0  0  0  0  0  0
   -5.2450   19.1170  -34.2000 C   0  0  0  0  0  0  0  0  0  0  0  0
   -4.3680   19.0280  -32.9380 C   0  0  0  0  0  0  0  0  0  0  0  0
   -5.1890   18.7790  -31.6610 C   0  0  0  0  0  0  0  0  0  0  0  0
   -6.4500   17.9570  -31.9630 C   0  0  0  0  0  0  0  0  0  0  0  0
   -7.2200   21.3850  -31.0250 C   0  0  0  0  0  0  0  0  0  0  0  0
   -3.3350   22.9590  -29.3080 C   0  0  0  0  0  0  0  0  0  0  0  0
   -3.0980   21.7790  -28.5790 C   0  0  0  0  0  0  0  0  0  0  0  0
   -2.0670   21.7180  -27.6320 C   0  0  0  0  0  0  0  0  0  0  0  0
   -1.7530   20.2230  -26.7530 S   0  0  0  0  0  0  0  0  0  0  0  0
   -2.9260   19.2900  -26.9040 O   0  0  0  0  0  0  0  0  0  0  0  0
   -1.5770   20.5370  -25.2930 O   0  0  0  0  0  0  0  0  0  0  0  0
   -0.2980   19.4860  -27.3710 N   0  0  0  0  0  0  0  0  0  0  0  0
   -0.0050   19.9420  -28.7290 C   0  0  0  0  0  0  0  0  0  0  0  0
    0.7910   18.8310  -29.3970 C   0  0  0  0  0  0  0  0  0  0  0  0
    0.4970   17.5800  -28.5820 C   0  0  0  0  0  0  0  0  0  0  0  0
   -0.4390   18.0330  -27.4710 C   0  0  0  0  0  0  0  0  0  0  0  0
   -1.2600   22.8390  -27.4130 C   0  0  0  0  0  0  0  0  0  0  0  0
   -1.4950   24.0210  -28.1180 C   0  0  0  0  0  0  0  0  0  0  0  0
   -2.5300   24.0920  -29.0550 C   0  0  0  0  0  0  0  0  0  0  0  0
   -2.7640   25.2980  -29.7070 O   0  0  0  0  0  0  0  0  0  0  0  0
   -6.0050   23.5170  -28.9640 H   0  0  0  0  0  0  0  0  0  0  0  0
   -7.5372   24.7920  -30.9785 H   0  0  0  0  0  0  0  0  0  0  0  0
   -9.4973   24.2260  -32.4114 H   0  0  0  0  0  0  0  0  0  0  0  0
  -10.0056   21.8466  -32.9571 H   0  0  0  0  0  0  0  0  0  0  0  0
   -7.2485   19.6687  -34.7803 H   0  0  0  0  0  0  0  0  0  0  0  0
   -6.6001   20.5406  -33.3310 H   0  0  0  0  0  0  0  0  0  0  0  0
   -5.2924   18.1262  -34.6754 H   0  0  0  0  0  0  0  0  0  0  0  0
   -4.7987   19.8530  -34.8850 H   0  0  0  0  0  0  0  0  0  0  0  0
   -3.6533   18.2013  -33.0637 H   0  0  0  0  0  0  0  0  0  0  0  0
   -3.8557   19.9943  -32.8205 H   0  0  0  0  0  0  0  0  0  0  0  0
   -4.5685   18.2310  -30.9367 H   0  0  0  0  0  0  0  0  0  0  0  0
   -5.4974   19.7516  -31.2501 H   0  0  0  0  0  0  0  0  0  0  0  0
   -6.1436   16.9766  -32.3565 H   0  0  0  0  0  0  0  0  0  0  0  0
   -7.0151   17.8637  -31.0239 H   0  0  0  0  0  0  0  0  0  0  0  0
   -6.5895   20.5803  -30.6189 H   0  0  0  0  0  0  0  0  0  0  0  0
   -3.7288   20.8951  -28.7544 H   0  0  0  0  0  0  0  0  0  0  0  0
   -0.9403   20.1226  -29.2791 H   0  0  0  0  0  0  0  0  0  0  0  0
    0.5614   20.8849  -28.7178 H   0  0  0  0  0  0  0  0  0  0  0  0
    0.4657   18.6971  -30.4392 H   0  0  0  0  0  0  0  0  0  0  0  0
    1.8669   19.0580  -29.4259 H   0  0  0  0  0  0  0  0  0  0  0  0
    0.0104   16.8179  -29.2085 H   0  0  0  0  0  0  0  0  0  0  0  0
    1.4161   17.1259  -28.1832 H   0  0  0  0  0  0  0  0  0  0  0  0
   -1.4777   17.7688  -27.7187 H   0  0  0  0  0  0  0  0  0  0  0  0
   -0.1888   17.5440  -26.5180 H   0  0  0  0  0  0  0  0  0  0  0  0
   -0.4381   22.7894  -26.6836 H   0  0  0  0  0  0  0  0  0  0  0  0
   -0.8619   24.9017  -27.9350 H   0  0  0  0  0  0  0  0  0  0  0  0
  1  2  2  0
  2  3  1  0
  3  4  1  0
  4  5  2  0
  5  6  1  0
  6  7  2  0
  7  8  1  0
  8  9  1  0
  9 10  2  0
  9 11  2  0
  9 12  1  0
 12 13  1  0
 13 14  1  0
 14 15  1  0
 15 16  1  0
 16 17  1  0
  8 18  2  0
  2 19  1  0
 19 20  2  0
 20 21  1  0
 21 22  1  0
 22 23  2  0
 22 24  2  0
 22 25  1  0
 25 26  1  0
 26 27  1  0
 27 28  1  0
 28 29  1  0
 21 30  2  0
 30 31  1  0
 31 32  2  0
 32 33  1  0
 18  4  1  0
 32 19  1  0
 17 12  1  0
 29 25  1  0
  3 34  1  0
  5 35  1  0
  6 36  1  0
  7 37  1  0
 13 38  1  0
 13 39  1  0
 14 40  1  0
 14 41  1  0
 15 42  1  0
 15 43  1  0
 16 44  1  0
 16 45  1  0
 17 46  1  0
 17 47  1  0
 18 48  1  0
 20 49  1  0
 26 50  1  0
 26 51  1  0
 27 52  1  0
 27 53  1  0
 28 54  1  0
 28 55  1  0
 29 56  1  0
 29 57  1  0
 30 58  1  0
 31 59  1  0
M  CHG  1  33  -1
M  END
>  <UniqueID>  (20) 
20

>  <SMILES>  (20) 
O=C(Nc1cccc(S(=O)(=O)N2CCCCC2)c1)c1cc(S(=O)(=O)N2CCCC2)ccc1[O-]

>  <Energy>  (20) 
73.73079359135622

>  <Genealogy>  (20) 
O=C(Nc1cccc(S(=O)(=O)N2CCCCC2)c1)c1cc(S(=O)(=O)N2CCCC2)ccc1[O-] (protonated)
O=C(Nc1cccc(S(=O)(=O)N2CCCCC2)c1)c1cc(S(=O)(=O)N2CCCC2)ccc1[O-] (3D coordinates assigned)
O=C(Nc1cccc(S(=O)(=O)N2CCCCC2)c1)c1cc(S(=O)(=O)N2CCCC2)ccc1[O-] (nonaromatic ring conformer: 73.73079359135622 kcal/mol)

>  <smiles>  (20) 
O=C(Nc1cccc(S(=O)(=O)N2CCCCC2)c1)c1cc(S(=O)(=O)N2CCCC2)ccc1O

>  <score_type>  (20) 
oracle

>  <origin>  (20) 
adgpu

>  <m_score__min__energy>  (20) 
-13.970000000000001

>  <m_primary>  (20) 
energy

$$$$
20:0
     RDKit          3D

 43 45  0  0  0  0  0  0  0  0999 V2000
   -5.3400   16.8770  -34.2230 C   0  0  0  0  0  0  0  0  0  0  0  0
   -4.7640   18.2150  -33.8680 C   0  0  0  0  0  0  0  0  0  0  0  0
   -3.4230   18.3250  -33.4680 C   0  0  0  0  0  0  0  0  0  0  0  0
   -2.8960   19.5660  -33.1020 C   0  0  0  0  0  0  0  0  0  0  0  0
   -3.6970   20.7140  -33.1320 C   0  0  0  0  0  0  0  0  0  0  0  0
   -3.1250   21.9710  -32.7410 N   0  0  0  0  0  0  0  0  0  0  0  0
   -3.3070   22.6150  -31.4730 C   0  0  0  0  0  0  0  0  0  0  0  0
   -2.3380   22.6660  -30.6710 O   0  0  0  0  0  0  0  0  0  0  0  0
   -4.5940   23.2360  -31.0940 C   0  0  0  0  0  0  0  0  0  0  0  0
   -5.7820   22.5040  -31.2390 C   0  0  0  0  0  0  0  0  0  0  0  0
   -7.0230   23.0990  -30.9710 C   0  0  0  0  0  0  0  0  0  0  0  0
   -8.5180   22.2010  -31.2560 S   0  0  0  0  0  0  0  0  0  0  0  0
   -9.1970   21.9490  -29.9380 O   0  0  0  0  0  0  0  0  0  0  0  0
   -9.4390   23.0370  -32.1010 O   0  0  0  0  0  0  0  0  0  0  0  0
   -8.2410   20.6720  -32.0570 N   0  0  0  0  0  0  0  0  0  0  0  0
   -9.4810   19.9290  -32.2710 C   0  0  0  0  0  0  0  0  0  0  0  0
   -9.0980   18.4600  -32.3460 C   0  0  0  0  0  0  0  0  0  0  0  0
   -7.7230   18.3680  -31.6980 C   0  0  0  0  0  0  0  0  0  0  0  0
   -7.3850   19.7870  -31.2690 C   0  0  0  0  0  0  0  0  0  0  0  0
   -7.0690   24.4160  -30.4980 C   0  0  0  0  0  0  0  0  0  0  0  0
   -5.8890   25.1420  -30.3200 C   0  0  0  0  0  0  0  0  0  0  0  0
   -4.6530   24.5610  -30.6200 C   0  0  0  0  0  0  0  0  0  0  0  0
   -3.4920   25.3020  -30.4270 O   0  0  0  0  0  0  0  0  0  0  0  0
   -5.0530   20.5970  -33.4890 C   0  0  0  0  0  0  0  0  0  0  0  0
   -5.5810   19.3560  -33.8560 C   0  0  0  0  0  0  0  0  0  0  0  0
   -5.5780   16.3243  -33.3022 H   0  0  0  0  0  0  0  0  0  0  0  0
   -6.2573   17.0177  -34.8136 H   0  0  0  0  0  0  0  0  0  0  0  0
   -4.6074   16.3074  -34.8136 H   0  0  0  0  0  0  0  0  0  0  0  0
   -2.7841   17.4299  -33.4426 H   0  0  0  0  0  0  0  0  0  0  0  0
   -1.8445   19.6417  -32.7881 H   0  0  0  0  0  0  0  0  0  0  0  0
   -5.7395   21.4545  -31.5657 H   0  0  0  0  0  0  0  0  0  0  0  0
  -10.1745   20.0984  -31.4341 H   0  0  0  0  0  0  0  0  0  0  0  0
   -9.9858   20.2555  -33.1922 H   0  0  0  0  0  0  0  0  0  0  0  0
   -9.8248   17.8441  -31.7961 H   0  0  0  0  0  0  0  0  0  0  0  0
   -9.0876   18.0920  -33.3826 H   0  0  0  0  0  0  0  0  0  0  0  0
   -7.7523   17.6986  -30.8257 H   0  0  0  0  0  0  0  0  0  0  0  0
   -6.9711   17.9586  -32.3887 H   0  0  0  0  0  0  0  0  0  0  0  0
   -7.5876   19.9183  -30.1958 H   0  0  0  0  0  0  0  0  0  0  0  0
   -6.3208   20.0106  -31.4346 H   0  0  0  0  0  0  0  0  0  0  0  0
   -8.0384   24.8809  -30.2656 H   0  0  0  0  0  0  0  0  0  0  0  0
   -5.9322   26.1743  -29.9425 H   0  0  0  0  0  0  0  0  0  0  0  0
   -5.7004   21.4862  -33.4792 H   0  0  0  0  0  0  0  0  0  0  0  0
   -6.6414   19.2733  -34.1366 H   0  0  0  0  0  0  0  0  0  0  0  0
  1  2  1  0
  2  3  2  0
  3  4  1  0
  4  5  2  0
  5  6  1  0
  6  7  1  0
  7  8  2  0
  7  9  1  0
  9 10  2  0
 10 11  1  0
 11 12  1  0
 12 13  2  0
 12 14  2  0
 12 15  1  0
 15 16  1  0
 16 17  1  0
 17 18  1  0
 18 19  1  0
 11 20  2  0
 20 21  1  0
 21 22  2  0
 22 23  1  0
  5 24  1  0
 24 25  2  0
 25  2  1  0
 22  9  1  0
 19 15  1  0
  1 26  1  0
  1 27  1  0
  1 28  1  0
  3 29  1  0
  4 30  1  0
 10 31  1  0
 16 32  1  0
 16 33  1  0
 17 34  1  0
 17 35  1  0
 18 36  1  0
 18 37  1  0
 19 38  1  0
 19 39  1  0
 20 40  1  0
 21 41  1  0
 24 42  1  0
 25 43  1  0
M  CHG  2   6  -1  23  -1
M  END
>  <UniqueID>  (21) 
21

>  <SMILES>  (21) 
Cc1ccc([N-]C(=O)c2cc(S(=O)(=O)N3CCCC3)ccc2[O-])cc1

>  <Energy>  (21) 
52.23490353130264

>  <Genealogy>  (21) 
Cc1ccc([N-]C(=O)c2cc(S(=O)(=O)N3CCCC3)ccc2[O-])cc1 (protonated)
Cc1ccc([N-]C(=O)c2cc(S(=O)(=O)N3CCCC3)ccc2[O-])cc1 (3D coordinates assigned)
Cc1ccc([N-]C(=O)c2cc(S(=O)(=O)N3CCCC3)ccc2[O-])cc1 (nonaromatic ring conformer: 52.23490353130264 kcal/mol)

>  <smiles>  (21) 
Cc1ccc(NC(=O)c2cc(S(=O)(=O)N3CCCC3)ccc2O)cc1

>  <score_type>  (21) 
oracle

>  <origin>  (21) 
adgpu

>  <m_score__min__energy>  (21) 
-12.69

>  <m_primary>  (21) 
energy

$$$$
21:0
     RDKit          3D

 40 42  0  0  0  0  0  0  0  0999 V2000
   -0.1120   18.1850  -32.3670 C   0  0  0  0  0  0  0  0  0  0  0  0
   -0.7530   18.5670  -33.5800 O   0  0  0  0  0  0  0  0  0  0  0  0
   -0.2870   19.5670  -34.4460 C   0  0  0  0  0  0  0  0  0  0  0  0
    0.2650   19.2600  -35.7070 C   0  0  0  0  0  0  0  0  0  0  0  0
    0.7680   20.2730  -36.5250 C   0  0  0  0  0  0  0  0  0  0  0  0
    0.7330   21.6010  -36.0980 C   0  0  0  0  0  0  0  0  0  0  0  0
    0.1820   21.9210  -34.8560 C   0  0  0  0  0  0  0  0  0  0  0  0
   -0.3520   20.9170  -34.0340 C   0  0  0  0  0  0  0  0  0  0  0  0
   -0.9130   21.2840  -32.7650 N   0  0  0  0  0  0  0  0  0  0  0  0
   -2.3110   21.1860  -32.4530 C   0  0  0  0  0  0  0  0  0  0  0  0
   -2.7930   21.4330  -30.9040 S   0  0  0  0  0  0  0  0  0  0  0  0
   -3.2880   21.0730  -33.5040 N   0  0  0  0  0  0  0  0  0  0  0  0
   -4.6560   20.8530  -33.2420 N   0  0  0  0  0  0  0  0  0  0  0  0
   -5.2060   19.6190  -33.4850 C   0  0  0  0  0  0  0  0  0  0  0  0
   -4.3860   18.5030  -34.0630 C   0  0  0  0  0  0  0  0  0  0  0  0
   -6.5160   19.3900  -33.2080 N   0  0  0  0  0  0  0  0  0  0  0  0
   -7.3100   20.3560  -32.6870 C   0  0  0  0  0  0  0  0  0  0  0  0
   -8.6570   20.0870  -32.4170 C   0  0  0  0  0  0  0  0  0  0  0  0
   -9.4750   21.0820  -31.8760 C   0  0  0  0  0  0  0  0  0  0  0  0
   -8.9510   22.3490  -31.6030 C   0  0  0  0  0  0  0  0  0  0  0  0
   -7.6070   22.6270  -31.8700 C   0  0  0  0  0  0  0  0  0  0  0  0
   -6.7760   21.6310  -32.4160 C   0  0  0  0  0  0  0  0  0  0  0  0
   -5.4190   21.8540  -32.7010 C   0  0  0  0  0  0  0  0  0  0  0  0
   -4.8970   22.9750  -32.4460 O   0  0  0  0  0  0  0  0  0  0  0  0
   -0.7058   18.5389  -31.5113 H   0  0  0  0  0  0  0  0  0  0  0  0
   -0.0273   17.0890  -32.3264 H   0  0  0  0  0  0  0  0  0  0  0  0
    0.8922   18.6321  -32.3264 H   0  0  0  0  0  0  0  0  0  0  0  0
    0.2994   18.2149  -36.0483 H   0  0  0  0  0  0  0  0  0  0  0  0
    1.1930   20.0239  -37.5085 H   0  0  0  0  0  0  0  0  0  0  0  0
    1.1397   22.3960  -36.7403 H   0  0  0  0  0  0  0  0  0  0  0  0
    0.1663   22.9680  -34.5192 H   0  0  0  0  0  0  0  0  0  0  0  0
   -0.2850   21.7510  -32.0710 H   0  0  0  0  0  0  0  0  0  0  0  0
   -2.9960   21.2920  -34.4830 H   0  0  0  0  0  0  0  0  0  0  0  0
   -3.9491   17.9084  -33.2471 H   0  0  0  0  0  0  0  0  0  0  0  0
   -5.0277   17.8595  -34.6828 H   0  0  0  0  0  0  0  0  0  0  0  0
   -3.5801   18.9231  -34.6828 H   0  0  0  0  0  0  0  0  0  0  0  0
   -9.0719   19.0910  -32.6311 H   0  0  0  0  0  0  0  0  0  0  0  0
  -10.5331   20.8681  -31.6645 H   0  0  0  0  0  0  0  0  0  0  0  0
   -9.5981   23.1297  -31.1768 H   0  0  0  0  0  0  0  0  0  0  0  0
   -7.1987   23.6251  -31.6531 H   0  0  0  0  0  0  0  0  0  0  0  0
  1  2  1  0
  2  3  1  0
  3  4  2  0
  4  5  1  0
  5  6  2  0
  6  7  1  0
  7  8  2  0
  8  9  1  0
  9 10  1  0
 10 11  2  0
 10 12  1  0
 12 13  1  0
 13 14  1  0
 14 15  1  0
 14 16  2  0
 16 17  1  0
 17 18  2  0
 18 19  1  0
 19 20  2  0
 20 21  1  0
 21 22  2  0
 22 23  1  0
 23 24  2  0
  8  3  1  0
 23 13  1  0
 22 17  1  0
  1 25  1  0
  1 26  1  0
  1 27  1  0
  4 28  1  0
  5 29  1  0
  6 30  1  0
  7 31  1  0
  9 32  1  0
 12 33  1  0
 15 34  1  0
 15 35  1  0
 15 36  1  0
 18 37  1  0
 19 38  1  0
 20 39  1  0
 21 40  1  0
M  END
>  <UniqueID>  (22) 
22

>  <SMILES>  (22) 
COc1ccccc1NC(=S)Nn1c(C)nc2ccccc2c1=O

>  <Energy>  (22) 
56.75834132123277

>  <Genealogy>  (22) 
COc1ccccc1NC(=S)Nn1c(C)nc2ccccc2c1=O (3D coordinates assigned)
COc1ccccc1NC(=S)Nn1c(C)nc2ccccc2c1=O (optimized conformer: 56.75834132123277 kcal/mol)

>  <smiles>  (22) 
COc1ccccc1NC(=S)Nn1c(C)nc2ccccc2c1=O

>  <score_type>  (22) 
oracle

>  <origin>  (22) 
adgpu

>  <m_score__min__energy>  (22) 
-7.9299999999999997

>  <m_primary>  (22) 
energy

$$$$
22:0
     RDKit          3D

 41 43  0  0  0  0  0  0  0  0999 V2000
   -3.7580   20.3330  -31.0030 O   0  0  0  0  0  0  0  0  0  0  0  0
   -3.4650   21.2090  -32.1880 S   0  0  0  0  0  0  0  0  0  0  0  0
   -4.3680   20.8590  -33.3380 O   0  0  0  0  0  0  0  0  0  0  0  0
   -3.7120   22.8680  -31.7400 N   0  0  0  0  0  0  0  0  0  0  0  0
   -4.8800   23.4650  -31.1520 C   0  0  0  0  0  0  0  0  0  0  0  0
   -6.0090   22.6480  -30.9960 C   0  0  0  0  0  0  0  0  0  0  0  0
   -7.1850   23.1520  -30.4370 C   0  0  0  0  0  0  0  0  0  0  0  0
   -7.2470   24.4820  -30.0210 C   0  0  0  0  0  0  0  0  0  0  0  0
   -6.1300   25.3090  -30.1630 C   0  0  0  0  0  0  0  0  0  0  0  0
   -4.9460   24.8130  -30.7220 C   0  0  0  0  0  0  0  0  0  0  0  0
   -3.8610   25.6720  -30.8290 O   0  0  0  0  0  0  0  0  0  0  0  0
   -1.7850   20.9630  -32.6830 C   0  0  0  0  0  0  0  0  0  0  0  0
   -1.4460   21.1140  -34.0380 C   0  0  0  0  0  0  0  0  0  0  0  0
   -0.1230   20.9680  -34.4600 C   0  0  0  0  0  0  0  0  0  0  0  0
    0.8750   20.6670  -33.5340 C   0  0  0  0  0  0  0  0  0  0  0  0
    0.5550   20.5060  -32.1860 C   0  0  0  0  0  0  0  0  0  0  0  0
   -0.7740   20.6510  -31.7420 C   0  0  0  0  0  0  0  0  0  0  0  0
   -1.0950   20.4620  -30.3500 N   0  0  0  0  0  0  0  0  0  0  0  0
   -0.4720   21.2280  -29.2700 C   0  0  0  0  0  0  0  0  0  0  0  0
   -1.3750   22.3540  -28.8430 C   0  0  0  0  0  0  0  0  0  0  0  0
   -2.6020   22.0730  -28.2220 C   0  0  0  0  0  0  0  0  0  0  0  0
   -3.4640   23.1120  -27.8610 C   0  0  0  0  0  0  0  0  0  0  0  0
   -3.1090   24.4390  -28.1220 C   0  0  0  0  0  0  0  0  0  0  0  0
   -1.8920   24.7280  -28.7450 C   0  0  0  0  0  0  0  0  0  0  0  0
   -1.5430   26.0470  -29.0070 O   0  0  0  0  0  0  0  0  0  0  0  0
   -1.0270   23.6900  -29.1070 C   0  0  0  0  0  0  0  0  0  0  0  0
   -5.9676   21.5970  -31.3180 H   0  0  0  0  0  0  0  0  0  0  0  0
   -8.0635   22.4996  -30.3245 H   0  0  0  0  0  0  0  0  0  0  0  0
   -8.1740   24.8791  -29.5818 H   0  0  0  0  0  0  0  0  0  0  0  0
   -6.1811   26.3572  -29.8333 H   0  0  0  0  0  0  0  0  0  0  0  0
   -2.2298   21.3493  -34.7730 H   0  0  0  0  0  0  0  0  0  0  0  0
    0.1319   21.0905  -35.5230 H   0  0  0  0  0  0  0  0  0  0  0  0
    1.9174   20.5562  -33.8674 H   0  0  0  0  0  0  0  0  0  0  0  0
    1.3477   20.2636  -31.4629 H   0  0  0  0  0  0  0  0  0  0  0  0
   -1.8680   19.8110  -30.0870 H   0  0  0  0  0  0  0  0  0  0  0  0
   -0.2889   20.5639  -28.4124 H   0  0  0  0  0  0  0  0  0  0  0  0
    0.4790   21.6476  -29.6300 H   0  0  0  0  0  0  0  0  0  0  0  0
   -2.8864   21.0301  -28.0185 H   0  0  0  0  0  0  0  0  0  0  0  0
   -4.4225   22.8857  -27.3711 H   0  0  0  0  0  0  0  0  0  0  0  0
   -3.7881   25.2560  -27.8367 H   0  0  0  0  0  0  0  0  0  0  0  0
   -0.0710   23.9201  -29.6001 H   0  0  0  0  0  0  0  0  0  0  0  0
  1  2  2  0
  2  3  2  0
  2  4  1  0
  4  5  1  0
  5  6  2  0
  6  7  1  0
  7  8  2  0
  8  9  1  0
  9 10  2  0
 10 11  1  0
  2 12  1  0
 12 13  2  0
 13 14  1  0
 14 15  2  0
 15 16  1  0
 16 17  2  0
 17 18  1  0
 18 19  1  0
 19 20  1  0
 20 21  2  0
 21 22  1  0
 22 23  2  0
 23 24  1  0
 24 25  1  0
 24 26  2  0
 10  5  1  0
 17 12  1  0
 26 20  1  0
  6 27  1  0
  7 28  1  0
  8 29  1  0
  9 30  1  0
 13 31  1  0
 14 32  1  0
 15 33  1  0
 16 34  1  0
 18 35  1  0
 19 36  1  0
 19 37  1  0
 21 38  1  0
 22 39  1  0
 23 40  1  0
 26 41  1  0
M  CHG  3   4  -1  11  -1  25  -1
M  END
>  <UniqueID>  (23) 
23

>  <SMILES>  (23) 
O=S(=O)([N-]c1ccccc1[O-])c1ccccc1NCc1cccc([O-])c1

>  <Energy>  (23) 
52.953262542316324

>  <Genealogy>  (23) 
O=S(=O)([N-]c1ccccc1[O-])c1ccccc1NCc1cccc([O-])c1 (protonated)
O=S(=O)([N-]c1ccccc1[O-])c1ccccc1NCc1cccc([O-])c1 (3D coordinates assigned)
O=S(=O)([N-]c1ccccc1[O-])c1ccccc1NCc1cccc([O-])c1 (optimized conformer: 52.953262542316324 kcal/mol)

>  <smiles>  (23) 
O=S(=O)(Nc1ccccc1O)c1ccccc1NCc1cccc(O)c1

>  <score_type>  (23) 
oracle

>  <origin>  (23) 
adgpu

>  <m_score__min__energy>  (23) 
-13.81

>  <m_primary>  (23) 
energy

$$$$
23:0
     RDKit          3D

 36 37  0  0  0  0  0  0  0  0999 V2000
   -2.6970   23.0500  -29.0850 C   0  0  0  0  0  0  0  0  0  0  0  0
   -2.6800   24.5620  -29.2760 C   0  0  0  0  0  0  0  0  0  0  0  0
   -3.4860   24.9350  -30.4400 N   0  0  0  0  0  0  0  0  0  0  0  0
   -5.1820   24.9740  -30.0500 S   0  0  0  0  0  0  0  0  0  0  0  0
   -5.7640   26.2780  -30.5160 O   0  0  0  0  0  0  0  0  0  0  0  0
   -5.3610   24.8810  -28.5590 O   0  0  0  0  0  0  0  0  0  0  0  0
   -6.0280   23.6490  -30.8450 C   0  0  0  0  0  0  0  0  0  0  0  0
   -5.3510   22.4670  -31.1690 C   0  0  0  0  0  0  0  0  0  0  0  0
   -6.0160   21.4360  -31.8390 C   0  0  0  0  0  0  0  0  0  0  0  0
   -7.3700   21.5810  -32.1990 C   0  0  0  0  0  0  0  0  0  0  0  0
   -8.0820   20.5850  -32.8890 O   0  0  0  0  0  0  0  0  0  0  0  0
   -8.1590   19.2120  -32.5040 C   0  0  0  0  0  0  0  0  0  0  0  0
   -6.9420   18.4570  -32.9680 C   0  0  0  0  0  0  0  0  0  0  0  0
   -6.5130   17.3050  -32.2880 C   0  0  0  0  0  0  0  0  0  0  0  0
   -5.3830   16.6070  -32.7260 C   0  0  0  0  0  0  0  0  0  0  0  0
   -4.6800   17.0490  -33.8490 C   0  0  0  0  0  0  0  0  0  0  0  0
   -5.1070   18.1860  -34.5400 C   0  0  0  0  0  0  0  0  0  0  0  0
   -6.2360   18.8870  -34.1050 C   0  0  0  0  0  0  0  0  0  0  0  0
   -8.0420   22.7620  -31.8640 C   0  0  0  0  0  0  0  0  0  0  0  0
   -7.3760   23.7920  -31.1950 C   0  0  0  0  0  0  0  0  0  0  0  0
   -2.6996   22.8162  -28.0101 H   0  0  0  0  0  0  0  0  0  0  0  0
   -3.5999   22.6314  -29.5535 H   0  0  0  0  0  0  0  0  0  0  0  0
   -1.8037   22.6112  -29.5535 H   0  0  0  0  0  0  0  0  0  0  0  0
   -3.0926   25.0460  -28.3785 H   0  0  0  0  0  0  0  0  0  0  0  0
   -1.6429   24.8911  -29.4379 H   0  0  0  0  0  0  0  0  0  0  0  0
   -4.2921   22.3493  -30.8954 H   0  0  0  0  0  0  0  0  0  0  0  0
   -5.4798   20.5079  -32.0860 H   0  0  0  0  0  0  0  0  0  0  0  0
   -8.2267   19.1482  -31.4079 H   0  0  0  0  0  0  0  0  0  0  0  0
   -9.0497   18.7649  -32.9696 H   0  0  0  0  0  0  0  0  0  0  0  0
   -7.0683   16.9504  -31.4072 H   0  0  0  0  0  0  0  0  0  0  0  0
   -5.0477   15.7094  -32.1857 H   0  0  0  0  0  0  0  0  0  0  0  0
   -3.7890   16.5013  -34.1899 H   0  0  0  0  0  0  0  0  0  0  0  0
   -4.5545   18.5299  -35.4269 H   0  0  0  0  0  0  0  0  0  0  0  0
   -6.5730   19.7783  -34.6546 H   0  0  0  0  0  0  0  0  0  0  0  0
   -9.1029   22.8803  -32.1295 H   0  0  0  0  0  0  0  0  0  0  0  0
   -7.9126   24.7184  -30.9424 H   0  0  0  0  0  0  0  0  0  0  0  0
  1  2  1  0
  2  3  1  0
  3  4  1  0
  4  5  2  0
  4  6  2  0
  4  7  1  0
  7  8  2  0
  8  9  1  0
  9 10  2  0
 10 11  1  0
 11 12  1  0
 12 13  1  0
 13 14  2  0
 14 15  1  0
 15 16  2  0
 16 17  1  0
 17 18  2  0
 10 19  1  0
 19 20  2  0
 20  7  1  0
 18 13  1  0
  1 21  1  0
  1 22  1  0
  1 23  1  0
  2 24  1  0
  2 25  1  0
  8 26  1  0
  9 27  1  0
 12 28  1  0
 12 29  1  0
 14 30  1  0
 15 31  1  0
 16 32  1  0
 17 33  1  0
 18 34  1  0
 19 35  1  0
 20 36  1  0
M  CHG  1   3  -1
M  END
>  <UniqueID>  (24) 
24

>  <SMILES>  (24) 
CC[N-]S(=O)(=O)c1ccc(OCc2ccccc2)cc1

>  <Energy>  (24) 
32.5136166117096

>  <Genealogy>  (24) 
CC[N-]S(=O)(=O)c1ccc(OCc2ccccc2)cc1 (protonated)
CC[N-]S(=O)(=O)c1ccc(OCc2ccccc2)cc1 (3D coordinates assigned)
CC[N-]S(=O)(=O)c1ccc(OCc2ccccc2)cc1 (optimized conformer: 32.5136166117096 kcal/mol)

>  <smiles>  (24) 
CCNS(=O)(=O)c1ccc(OCc2ccccc2)cc1

>  <score_type>  (24) 
oracle

>  <origin>  (24) 
adgpu

>  <m_score__min__energy>  (24) 
-8.9900000000000002

>  <m_primary>  (24) 
energy

$$$$
24:0
     RDKit          3D

 49 51  0  0  0  0  0  0  0  0999 V2000
   -1.4800   19.1330  -34.0160 C   0  0  0  0  0  0  0  0  0  0  0  0
   -0.9170   20.2350  -33.2400 N   0  0  0  0  0  0  0  0  0  0  0  0
   -0.0060   21.1880  -33.8760 C   0  0  0  0  0  0  0  0  0  0  0  0
   -1.2970   20.4420  -31.8710 C   0  0  0  0  0  0  0  0  0  0  0  0
   -0.4300   20.0300  -30.8500 C   0  0  0  0  0  0  0  0  0  0  0  0
   -0.8100   20.1430  -29.5130 C   0  0  0  0  0  0  0  0  0  0  0  0
   -2.0650   20.6590  -29.1850 C   0  0  0  0  0  0  0  0  0  0  0  0
   -2.5450   20.7900  -27.5020 Cl  0  0  0  0  0  0  0  0  0  0  0  0
   -2.9410   21.0660  -30.1940 C   0  0  0  0  0  0  0  0  0  0  0  0
   -2.5640   20.9660  -31.5390 C   0  0  0  0  0  0  0  0  0  0  0  0
   -3.5130   21.3870  -32.5860 C   0  0  0  0  0  0  0  0  0  0  0  0
   -3.0540   21.9120  -33.6350 O   0  0  0  0  0  0  0  0  0  0  0  0
   -4.9820   21.2130  -32.4120 C   0  0  0  0  0  0  0  0  0  0  0  0
   -5.5350   19.9240  -32.5050 C   0  0  0  0  0  0  0  0  0  0  0  0
   -6.9120   19.7280  -32.3930 C   0  0  0  0  0  0  0  0  0  0  0  0
   -7.7570   20.8110  -32.1640 C   0  0  0  0  0  0  0  0  0  0  0  0
   -9.4880   20.5580  -32.0240 Cl  0  0  0  0  0  0  0  0  0  0  0  0
   -7.2270   22.0960  -32.0520 C   0  0  0  0  0  0  0  0  0  0  0  0
   -5.8420   22.3170  -32.1880 C   0  0  0  0  0  0  0  0  0  0  0  0
   -5.2840   23.6400  -32.0730 N   0  0  0  0  0  0  0  0  0  0  0  0
   -5.1240   24.6070  -30.6380 S   0  0  0  0  0  0  0  0  0  0  0  0
   -4.0510   25.6420  -30.8080 O   0  0  0  0  0  0  0  0  0  0  0  0
   -6.4240   25.3190  -30.4130 O   0  0  0  0  0  0  0  0  0  0  0  0
   -4.8010   23.5850  -29.2090 C   0  0  0  0  0  0  0  0  0  0  0  0
   -3.6330   24.1080  -28.4190 C   0  0  0  0  0  0  0  0  0  0  0  0
   -3.8030   24.5310  -27.0890 C   0  0  0  0  0  0  0  0  0  0  0  0
   -2.7030   24.9750  -26.3440 C   0  0  0  0  0  0  0  0  0  0  0  0
   -1.4300   25.0050  -26.9210 C   0  0  0  0  0  0  0  0  0  0  0  0
   -1.2540   24.5930  -28.2450 C   0  0  0  0  0  0  0  0  0  0  0  0
   -2.3500   24.1440  -28.9930 C   0  0  0  0  0  0  0  0  0  0  0  0
   -1.8720   18.3657  -33.3322 H   0  0  0  0  0  0  0  0  0  0  0  0
   -2.2958   19.5103  -34.6501 H   0  0  0  0  0  0  0  0  0  0  0  0
   -0.6962   18.6931  -34.6501 H   0  0  0  0  0  0  0  0  0  0  0  0
    0.5336   21.7524  -33.1012 H   0  0  0  0  0  0  0  0  0  0  0  0
    0.7157   20.6432  -34.5024 H   0  0  0  0  0  0  0  0  0  0  0  0
   -0.5827   21.8845  -34.5024 H   0  0  0  0  0  0  0  0  0  0  0  0
    0.5563   19.6149  -31.1048 H   0  0  0  0  0  0  0  0  0  0  0  0
   -0.1207   19.8255  -28.7167 H   0  0  0  0  0  0  0  0  0  0  0  0
   -3.9311   21.4667  -29.9310 H   0  0  0  0  0  0  0  0  0  0  0  0
   -4.8744   19.0596  -32.6680 H   0  0  0  0  0  0  0  0  0  0  0  0
   -7.3312   18.7153  -32.4858 H   0  0  0  0  0  0  0  0  0  0  0  0
   -7.8971   22.9459  -31.8554 H   0  0  0  0  0  0  0  0  0  0  0  0
   -5.6934   23.5750  -28.5660 H   0  0  0  0  0  0  0  0  0  0  0  0
   -4.5606   22.5688  -29.5548 H   0  0  0  0  0  0  0  0  0  0  0  0
   -4.8033   24.5132  -26.6319 H   0  0  0  0  0  0  0  0  0  0  0  0
   -2.8412   25.3008  -25.3025 H   0  0  0  0  0  0  0  0  0  0  0  0
   -0.5675   25.3526  -26.3335 H   0  0  0  0  0  0  0  0  0  0  0  0
   -0.2531   24.6214  -28.7004 H   0  0  0  0  0  0  0  0  0  0  0  0
   -2.2063   23.8182  -30.0338 H   0  0  0  0  0  0  0  0  0  0  0  0
  1  2  1  0
  2  3  1  0
  2  4  1  0
  4  5  2  0
  5  6  1  0
  6  7  2  0
  7  8  1  0
  7  9  1  0
  9 10  2  0
 10 11  1  0
 11 12  2  0
 11 13  1  0
 13 14  2  0
 14 15  1  0
 15 16  2  0
 16 17  1  0
 16 18  1  0
 18 19  2  0
 19 20  1  0
 20 21  1  0
 21 22  2  0
 21 23  2  0
 21 24  1  0
 24 25  1  0
 25 26  2  0
 26 27  1  0
 27 28  2  0
 28 29  1  0
 29 30  2  0
 10  4  1  0
 19 13  1  0
 30 25  1  0
  1 31  1  0
  1 32  1  0
  1 33  1  0
  3 34  1  0
  3 35  1  0
  3 36  1  0
  5 37  1  0
  6 38  1  0
  9 39  1  0
 14 40  1  0
 15 41  1  0
 18 42  1  0
 24 43  1  0
 24 44  1  0
 26 45  1  0
 27 46  1  0
 28 47  1  0
 29 48  1  0
 30 49  1  0
M  CHG  1  20  -1
M  END
>  <UniqueID>  (25) 
25

>  <SMILES>  (25) 
CN(C)c1ccc(Cl)cc1C(=O)c1ccc(Cl)cc1[N-]S(=O)(=O)Cc1ccccc1

>  <Energy>  (25) 
61.98754543079904

>  <Genealogy>  (25) 
CN(C)c1ccc(Cl)cc1C(=O)c1ccc(Cl)cc1[N-]S(=O)(=O)Cc1ccccc1 (protonated)
CN(C)c1ccc(Cl)cc1C(=O)c1ccc(Cl)cc1[N-]S(=O)(=O)Cc1ccccc1 (3D coordinates assigned)
CN(C)c1ccc(Cl)cc1C(=O)c1ccc(Cl)cc1[N-]S(=O)(=O)Cc1ccccc1 (optimized conformer: 61.98754543079904 kcal/mol)

>  <smiles>  (25) 
CN(C)c1ccc(Cl)cc1C(=O)c1ccc(Cl)cc1NS(=O)(=O)Cc1ccccc1

>  <score_type>  (25) 
oracle

>  <origin>  (25) 
adgpu

>  <m_score__min__energy>  (25) 
-10.539999999999999

>  <m_primary>  (25) 
energy

$$$$
25:0
     RDKit          3D

 66 69  0  0  0  0  0  0  0  0999 V2000
   -0.1710   26.8230  -23.0890 C   0  0  0  0  0  0  0  0  0  0  0  0
   -1.2700   27.1190  -23.9460 O   0  0  0  0  0  0  0  0  0  0  0  0
   -1.3820   26.6690  -25.2730 C   0  0  0  0  0  0  0  0  0  0  0  0
   -2.1430   25.5290  -25.6090 C   0  0  0  0  0  0  0  0  0  0  0  0
   -2.2420   25.1100  -26.9410 C   0  0  0  0  0  0  0  0  0  0  0  0
   -1.5990   25.8160  -27.9570 C   0  0  0  0  0  0  0  0  0  0  0  0
   -1.6700   25.3140  -29.3010 N   0  0  0  0  0  0  0  0  0  0  0  0
   -2.4690   24.2010  -29.7160 C   0  0  0  0  0  0  0  0  0  0  0  0
   -3.6880   24.3900  -29.9660 O   0  0  0  0  0  0  0  0  0  0  0  0
   -1.8840   22.8370  -29.7510 C   0  0  0  0  0  0  0  0  0  0  0  0
   -1.5040   22.2040  -28.5580 C   0  0  0  0  0  0  0  0  0  0  0  0
   -0.9300   20.9270  -28.5770 C   0  0  0  0  0  0  0  0  0  0  0  0
   -0.7350   20.2540  -29.7930 C   0  0  0  0  0  0  0  0  0  0  0  0
   -0.1140   18.8840  -29.7880 C   0  0  0  0  0  0  0  0  0  0  0  0
   -1.0990   20.8940  -31.0010 C   0  0  0  0  0  0  0  0  0  0  0  0
   -0.9030   20.2520  -32.2710 N   0  0  0  0  0  0  0  0  0  0  0  0
   -0.0380   20.9000  -33.2520 C   0  0  0  0  0  0  0  0  0  0  0  0
   -1.7530   19.1640  -32.6810 C   0  0  0  0  0  0  0  0  0  0  0  0
   -1.1940   17.9710  -33.0250 N   0  0  0  0  0  0  0  0  0  0  0  0
   -1.9440   16.9090  -33.4140 C   0  0  0  0  0  0  0  0  0  0  0  0
   -3.3360   17.0170  -33.4720 C   0  0  0  0  0  0  0  0  0  0  0  0
   -3.9540   18.2290  -33.1270 C   0  0  0  0  0  0  0  0  0  0  0  0
   -5.3920   18.3380  -33.1390 N   0  0  0  0  0  0  0  0  0  0  0  0
   -6.1710   17.8670  -31.9890 C   0  0  0  0  0  0  0  0  0  0  0  0
   -7.5970   18.4440  -32.0240 C   0  0  0  0  0  0  0  0  0  0  0  0
   -7.6120   19.8540  -32.4720 N   0  0  0  0  0  0  0  0  0  0  0  0
   -7.0100   20.7510  -31.4700 C   0  0  0  0  0  0  0  0  0  0  0  0
   -7.0240   20.0550  -33.8230 C   0  0  0  0  0  0  0  0  0  0  0  0
   -6.1070   18.9050  -34.2860 C   0  0  0  0  0  0  0  0  0  0  0  0
   -3.1530   19.3110  -32.7210 C   0  0  0  0  0  0  0  0  0  0  0  0
   -3.7270   20.4670  -32.3000 F   0  0  0  0  0  0  0  0  0  0  0  0
   -1.6810   22.1720  -30.9690 C   0  0  0  0  0  0  0  0  0  0  0  0
   -0.8440   26.9550  -27.6320 C   0  0  0  0  0  0  0  0  0  0  0  0
   -0.7210   27.3850  -26.2930 C   0  0  0  0  0  0  0  0  0  0  0  0
    0.1080   28.6040  -25.9460 C   0  0  0  0  0  0  0  0  0  0  0  0
   -0.6200   29.4290  -25.1090 F   0  0  0  0  0  0  0  0  0  0  0  0
    0.4620   29.3220  -27.0730 F   0  0  0  0  0  0  0  0  0  0  0  0
    1.2700   28.2140  -25.3020 F   0  0  0  0  0  0  0  0  0  0  0  0
   -0.4905   26.9091  -22.0400 H   0  0  0  0  0  0  0  0  0  0  0  0
    0.1794   25.7985  -23.2827 H   0  0  0  0  0  0  0  0  0  0  0  0
    0.6466   27.5329  -23.2827 H   0  0  0  0  0  0  0  0  0  0  0  0
   -2.6617   24.9660  -24.8191 H   0  0  0  0  0  0  0  0  0  0  0  0
   -2.8325   24.2155  -27.1884 H   0  0  0  0  0  0  0  0  0  0  0  0
   -1.6587   22.7166  -27.5971 H   0  0  0  0  0  0  0  0  0  0  0  0
   -0.6301   20.4484  -27.6331 H   0  0  0  0  0  0  0  0  0  0  0  0
    0.0360   18.5532  -28.7497 H   0  0  0  0  0  0  0  0  0  0  0  0
   -0.7799   18.1777  -30.3053 H   0  0  0  0  0  0  0  0  0  0  0  0
    0.8561   18.9193  -30.3053 H   0  0  0  0  0  0  0  0  0  0  0  0
    0.7371   21.4807  -32.7305 H   0  0  0  0  0  0  0  0  0  0  0  0
    0.4389   20.1350  -33.8824 H   0  0  0  0  0  0  0  0  0  0  0  0
   -0.6381   21.5726  -33.8824 H   0  0  0  0  0  0  0  0  0  0  0  0
   -1.4552   15.9613  -33.6842 H   0  0  0  0  0  0  0  0  0  0  0  0
   -3.9445   16.1563  -33.7865 H   0  0  0  0  0  0  0  0  0  0  0  0
   -6.2253   16.7687  -32.0153 H   0  0  0  0  0  0  0  0  0  0  0  0
   -5.6764   18.2031  -31.0657 H   0  0  0  0  0  0  0  0  0  0  0  0
   -8.2061   17.8445  -32.7166 H   0  0  0  0  0  0  0  0  0  0  0  0
   -8.0044   18.4069  -31.0029 H   0  0  0  0  0  0  0  0  0  0  0  0
   -7.2532   20.3886  -30.4603 H   0  0  0  0  0  0  0  0  0  0  0  0
   -5.9179   20.7665  -31.6008 H   0  0  0  0  0  0  0  0  0  0  0  0
   -7.4094   21.7675  -31.6008 H   0  0  0  0  0  0  0  0  0  0  0  0
   -7.8464   20.1543  -34.5468 H   0  0  0  0  0  0  0  0  0  0  0  0
   -6.3980   20.9577  -33.7662 H   0  0  0  0  0  0  0  0  0  0  0  0
   -6.7170   18.1209  -34.7583 H   0  0  0  0  0  0  0  0  0  0  0  0
   -5.3757   19.2963  -35.0085 H   0  0  0  0  0  0  0  0  0  0  0  0
   -1.9809   22.6567  -31.9098 H   0  0  0  0  0  0  0  0  0  0  0  0
   -0.3419   27.5195  -28.4315 H   0  0  0  0  0  0  0  0  0  0  0  0
  1  2  1  0
  2  3  1  0
  3  4  2  0
  4  5  1  0
  5  6  2  0
  6  7  1  0
  7  8  1  0
  8  9  2  0
  8 10  1  0
 10 11  2  0
 11 12  1  0
 12 13  2  0
 13 14  1  0
 13 15  1  0
 15 16  1  0
 16 17  1  0
 16 18  1  0
 18 19  2  0
 19 20  1  0
 20 21  2  0
 21 22  1  0
 22 23  1  0
 23 24  1  0
 24 25  1  0
 25 26  1  0
 26 27  1  0
 26 28  1  0
 28 29  1  0
 22 30  2  0
 30 31  1  0
 15 32  2  0
  6 33  1  0
 33 34  2  0
 34 35  1  0
 35 36  1  0
 35 37  1  0
 35 38  1  0
 34  3  1  0
 32 10  1  0
 30 18  1  0
 29 23  1  0
  1 39  1  0
  1 40  1  0
  1 41  1  0
  4 42  1  0
  5 43  1  0
 11 44  1  0
 12 45  1  0
 14 46  1  0
 14 47  1  0
 14 48  1  0
 17 49  1  0
 17 50  1  0
 17 51  1  0
 20 52  1  0
 21 53  1  0
 24 54  1  0
 24 55  1  0
 25 56  1  0
 25 57  1  0
 27 58  1  0
 27 59  1  0
 27 60  1  0
 28 61  1  0
 28 62  1  0
 29 63  1  0
 29 64  1  0
 32 65  1  0
 33 66  1  0
M  CHG  1   7  -1
M  END
>  <UniqueID>  (26) 
26

>  <SMILES>  (26) 
COc1ccc([N-]C(=O)c2ccc(C)c(N(C)c3nccc(N4CCN(C)CC4)c3F)c2)cc1C(F)(F)F

>  <Energy>  (26) 
99.1783995063938

>  <Genealogy>  (26) 
COc1ccc([N-]C(=O)c2ccc(C)c(N(C)c3nccc(N4CCN(C)CC4)c3F)c2)cc1C(F)(F)F (protonated)
COc1ccc([N-]C(=O)c2ccc(C)c(N(C)c3nccc(N4CCN(C)CC4)c3F)c2)cc1C(F)(F)F (3D coordinates assigned)
COc1ccc([N-]C(=O)c2ccc(C)c(N(C)c3nccc(N4CCN(C)CC4)c3F)c2)cc1C(F)(F)F (nonaromatic ring conformer: 99.1783995063938 kcal/mol)

>  <smiles>  (26) 
COc1ccc(NC(=O)c2ccc(C)c(N(C)c3nccc(N4CCN(C)CC4)c3F)c2)cc1C(F)(F)F

>  <score_type>  (26) 
oracle

>  <origin>  (26) 
adgpu

>  <m_score__min__energy>  (26) 
-10.24

>  <m_primary>  (26) 
energy

$$$$
26:0
     RDKit          3D

 38 39  0  0  0  0  0  0  0  0999 V2000
   -2.2600   25.5620  -26.2110 C   0  0  0  0  0  0  0  0  0  0  0  0
   -2.7610   24.5410  -27.2250 C   0  0  0  0  0  0  0  0  0  0  0  0
   -2.1230   24.9100  -28.8970 S   0  0  0  0  0  0  0  0  0  0  0  0
   -3.5310   24.2140  -29.7630 C   0  0  0  0  0  0  0  0  0  0  0  0
   -3.8380   22.8590  -29.6330 C   0  0  0  0  0  0  0  0  0  0  0  0
   -4.9360   22.3380  -30.3190 C   0  0  0  0  0  0  0  0  0  0  0  0
   -5.7220   23.1690  -31.1360 C   0  0  0  0  0  0  0  0  0  0  0  0
   -6.8600   22.6320  -31.8470 N   0  0  0  0  0  0  0  0  0  0  0  0
   -8.0930   23.4190  -31.9670 C   0  0  0  0  0  0  0  0  0  0  0  0
   -6.8680   21.2390  -32.2180 C   0  0  0  0  0  0  0  0  0  0  0  0
   -5.8350   20.6910  -32.9930 C   0  0  0  0  0  0  0  0  0  0  0  0
   -5.8600   19.3280  -33.3180 C   0  0  0  0  0  0  0  0  0  0  0  0
   -4.7860   18.7360  -34.1810 C   0  0  0  0  0  0  0  0  0  0  0  0
   -6.9290   18.5360  -32.8790 C   0  0  0  0  0  0  0  0  0  0  0  0
   -7.9340   19.1100  -32.0900 C   0  0  0  0  0  0  0  0  0  0  0  0
   -9.0800   18.2820  -31.6050 C   0  0  0  0  0  0  0  0  0  0  0  0
   -7.8780   20.4350  -31.7840 N   0  0  0  0  0  0  0  0  0  0  0  0
   -5.3640   24.5250  -31.2440 C   0  0  0  0  0  0  0  0  0  0  0  0
   -4.2910   25.0080  -30.5640 N   0  0  0  0  0  0  0  0  0  0  0  0
   -2.4435   25.1881  -25.1929 H   0  0  0  0  0  0  0  0  0  0  0  0
   -1.1811   25.7218  -26.3540 H   0  0  0  0  0  0  0  0  0  0  0  0
   -2.7937   26.5131  -26.3540 H   0  0  0  0  0  0  0  0  0  0  0  0
   -2.4219   23.5389  -26.9238 H   0  0  0  0  0  0  0  0  0  0  0  0
   -3.8598   24.5845  -27.2520 H   0  0  0  0  0  0  0  0  0  0  0  0
   -3.2208   22.2081  -28.9963 H   0  0  0  0  0  0  0  0  0  0  0  0
   -5.1876   21.2718  -30.2199 H   0  0  0  0  0  0  0  0  0  0  0  0
   -8.4725   23.6612  -30.9634 H   0  0  0  0  0  0  0  0  0  0  0  0
   -7.8821   24.3499  -32.5138 H   0  0  0  0  0  0  0  0  0  0  0  0
   -8.8485   22.8357  -32.5138 H   0  0  0  0  0  0  0  0  0  0  0  0
   -5.0096   21.3279  -33.3438 H   0  0  0  0  0  0  0  0  0  0  0  0
   -4.0007   18.3031  -33.5439 H   0  0  0  0  0  0  0  0  0  0  0  0
   -5.2183   17.9487  -34.8161 H   0  0  0  0  0  0  0  0  0  0  0  0
   -4.3512   19.5219  -34.8161 H   0  0  0  0  0  0  0  0  0  0  0  0
   -6.9787   17.4715  -33.1518 H   0  0  0  0  0  0  0  0  0  0  0  0
   -9.0884   18.2760  -30.5050 H   0  0  0  0  0  0  0  0  0  0  0  0
  -10.0235   18.7083  -31.9765 H   0  0  0  0  0  0  0  0  0  0  0  0
   -8.9715   17.2523  -31.9765 H   0  0  0  0  0  0  0  0  0  0  0  0
   -5.9556   25.1979  -31.8821 H   0  0  0  0  0  0  0  0  0  0  0  0
  1  2  1  0
  2  3  1  0
  3  4  1  0
  4  5  2  0
  5  6  1  0
  6  7  2  0
  7  8  1  0
  8  9  1  0
  8 10  1  0
 10 11  2  0
 11 12  1  0
 12 13  1  0
 12 14  2  0
 14 15  1  0
 15 16  1  0
 15 17  2  0
  7 18  1  0
 18 19  2  0
 19  4  1  0
 17 10  1  0
  1 20  1  0
  1 21  1  0
  1 22  1  0
  2 23  1  0
  2 24  1  0
  5 25  1  0
  6 26  1  0
  9 27  1  0
  9 28  1  0
  9 29  1  0
 11 30  1  0
 13 31  1  0
 13 32  1  0
 13 33  1  0
 14 34  1  0
 16 35  1  0
 16 36  1  0
 16 37  1  0
 18 38  1  0
M  END
>  <UniqueID>  (27) 
27

>  <SMILES>  (27) 
CCSc1ccc(N(C)c2cc(C)cc(C)n2)cn1

>  <Energy>  (27) 
38.65007197766372

>  <Genealogy>  (27) 
CCSc1ccc(N(C)c2cc(C)cc(C)n2)cn1 (3D coordinates assigned)
CCSc1ccc(N(C)c2cc(C)cc(C)n2)cn1 (optimized conformer: 38.65007197766372 kcal/mol)

>  <smiles>  (27) 
CCSc1ccc(N(C)c2cc(C)cc(C)n2)cn1

>  <score_type>  (27) 
oracle

>  <origin>  (27) 
adgpu

>  <m_score__min__energy>  (27) 
-7.5

>  <m_primary>  (27) 
energy

$$$$
27:0
     RDKit          3D

 36 38  0  0  0  0  0  0  0  0999 V2000
  -10.3542   21.9677  -31.2303 H   0  0  0  0  0  0  0  0  0  0  0  0
   -9.2820   21.9720  -31.4760 C   0  0  0  0  0  0  0  0  0  0  0  0
   -8.5180   20.8180  -31.2870 C   0  0  0  0  0  0  0  0  0  0  0  0
   -8.9902   19.9051  -30.8950 H   0  0  0  0  0  0  0  0  0  0  0  0
   -7.1550   20.8210  -31.5950 C   0  0  0  0  0  0  0  0  0  0  0  0
   -6.5585   19.9083  -31.4496 H   0  0  0  0  0  0  0  0  0  0  0  0
   -6.5430   21.9860  -32.0900 C   0  0  0  0  0  0  0  0  0  0  0  0
   -5.0840   21.9780  -32.4560 C   0  0  0  0  0  0  0  0  0  0  0  0
   -4.9648   22.3567  -33.4818 H   0  0  0  0  0  0  0  0  0  0  0  0
   -4.7031   20.9482  -32.3888 H   0  0  0  0  0  0  0  0  0  0  0  0
   -4.3060   22.8510  -31.5110 C   0  0  0  0  0  0  0  0  0  0  0  0
   -4.6090   24.1720  -31.4170 N   0  0  0  0  0  0  0  0  0  0  0  0
   -3.9690   24.9730  -30.5640 N   0  0  0  0  0  0  0  0  0  0  0  0
   -2.9970   24.4910  -29.7500 C   0  0  0  0  0  0  0  0  0  0  0  0
   -2.3970   25.2920  -28.9230 N   0  0  0  0  0  0  0  0  0  0  0  0
   -1.1520   24.7870  -27.8270 S   0  0  0  0  0  0  0  0  0  0  0  0
    0.1410   24.6400  -28.5780 O   0  0  0  0  0  0  0  0  0  0  0  0
   -1.5180   23.4540  -27.2350 O   0  0  0  0  0  0  0  0  0  0  0  0
   -0.9450   25.9970  -26.5640 C   0  0  0  0  0  0  0  0  0  0  0  0
   -0.4970   27.2820  -26.9000 C   0  0  0  0  0  0  0  0  0  0  0  0
   -0.2594   27.5233  -27.9466 H   0  0  0  0  0  0  0  0  0  0  0  0
   -0.3510   28.2580  -25.9100 C   0  0  0  0  0  0  0  0  0  0  0  0
    0.0048   29.2639  -26.1777 H   0  0  0  0  0  0  0  0  0  0  0  0
   -0.6570   27.9560  -24.5800 C   0  0  0  0  0  0  0  0  0  0  0  0
   -0.5421   28.7244  -23.8013 H   0  0  0  0  0  0  0  0  0  0  0  0
   -1.1090   26.6780  -24.2390 C   0  0  0  0  0  0  0  0  0  0  0  0
   -1.3501   26.4417  -23.1921 H   0  0  0  0  0  0  0  0  0  0  0  0
   -1.2550   25.7000  -25.2270 C   0  0  0  0  0  0  0  0  0  0  0  0
   -1.6134   24.6958  -24.9566 H   0  0  0  0  0  0  0  0  0  0  0  0
   -2.6730   23.1710  -29.8090 N   0  0  0  0  0  0  0  0  0  0  0  0
   -3.3090   22.3380  -30.6690 C   0  0  0  0  0  0  0  0  0  0  0  0
   -2.9950   21.1180  -30.6980 O   0  0  0  0  0  0  0  0  0  0  0  0
   -7.3210   23.1400  -32.2880 C   0  0  0  0  0  0  0  0  0  0  0  0
   -6.8557   24.0525  -32.6889 H   0  0  0  0  0  0  0  0  0  0  0  0
   -8.6850   23.1320  -31.9770 C   0  0  0  0  0  0  0  0  0  0  0  0
   -9.2881   24.0396  -32.1270 H   0  0  0  0  0  0  0  0  0  0  0  0
  1  2  1  0
  2  3  2  0
  3  4  1  0
  3  5  1  0
  5  6  1  0
  5  7  2  0
  7  8  1  0
  8  9  1  0
  8 10  1  0
  8 11  1  0
 11 12  2  0
 12 13  1  0
 13 14  1  0
 14 15  2  0
 15 16  1  0
 16 17  2  0
 16 18  2  0
 16 19  1  0
 19 20  2  0
 20 21  1  0
 20 22  1  0
 22 23  1  0
 22 24  2  0
 24 25  1  0
 24 26  1  0
 26 27  1  0
 26 28  2  0
 28 29  1  0
 14 30  1  0
 30 31  1  0
 31 32  2  0
  7 33  1  0
 33 34  1  0
 33 35  2  0
 35 36  1  0
 35  2  1  0
 31 11  1  0
 28 19  1  0
M  CHG  2  13  -1  30  -1
M  END
>  <UniqueID>  (28) 
28

>  <SMILES>  (28) 
O=c1[n-]/c(=N\S(=O)(=O)c2ccccc2)[n-]nc1Cc1ccccc1

>  <Energy>  (28) 
42.89779939791823

>  <Genealogy>  (28) 
O=c1[n-]c(=NS(=O)(=O)c2ccccc2)[n-]nc1Cc1ccccc1 (protonated)
O=c1[n-]/c(=N\S(=O)(=O)c2ccccc2)[n-]nc1Cc1ccccc1 (cis-trans isomerization)
O=c1[n-]/c(=N\S(=O)(=O)c2ccccc2)[n-]nc1Cc1ccccc1 (3D coordinates assigned)
O=c1[n-]/c(=N\S(=O)(=O)c2ccccc2)[n-]nc1Cc1ccccc1 (optimized conformer: 42.89779939791823 kcal/mol)

>  <smiles>  (28) 
O=c1[nH]c(=NS(=O)(=O)c2ccccc2)[nH]nc1Cc1ccccc1

>  <score_type>  (28) 
oracle

>  <origin>  (28) 
adgpu

>  <m_score__min__energy>  (28) 
-11.58

>  <m_primary>  (28) 
energy

$$$$
28:0
     RDKit          3D

 43 45  0  0  0  0  0  0  0  0999 V2000
   -2.3150   21.7640  -33.6800 O   0  0  0  0  0  0  0  0  0  0  0  0
   -2.8180   21.4970  -32.2880 S   0  0  0  0  0  0  0  0  0  0  0  0
   -2.1500   20.2520  -31.7740 O   0  0  0  0  0  0  0  0  0  0  0  0
   -2.4070   22.8320  -31.2600 N   0  0  0  0  0  0  0  0  0  0  0  0
   -2.8740   23.0090  -29.9140 C   0  0  0  0  0  0  0  0  0  0  0  0
   -2.8070   21.9770  -28.9580 C   0  0  0  0  0  0  0  0  0  0  0  0
   -3.2880   22.1830  -27.6620 C   0  0  0  0  0  0  0  0  0  0  0  0
   -3.8300   23.4200  -27.3040 C   0  0  0  0  0  0  0  0  0  0  0  0
   -3.8880   24.4540  -28.2420 C   0  0  0  0  0  0  0  0  0  0  0  0
   -3.4120   24.2520  -29.5420 C   0  0  0  0  0  0  0  0  0  0  0  0
   -3.4790   25.2890  -30.4650 O   0  0  0  0  0  0  0  0  0  0  0  0
   -4.5750   21.3060  -32.3340 C   0  0  0  0  0  0  0  0  0  0  0  0
   -5.1170   20.0150  -32.4430 C   0  0  0  0  0  0  0  0  0  0  0  0
   -6.5030   19.8170  -32.4020 C   0  0  0  0  0  0  0  0  0  0  0  0
   -7.1730   18.1870  -32.4150 S   0  0  0  0  0  0  0  0  0  0  0  0
   -6.5460   17.4040  -31.2960 O   0  0  0  0  0  0  0  0  0  0  0  0
   -8.6580   18.2460  -32.1860 O   0  0  0  0  0  0  0  0  0  0  0  0
   -6.8140   17.4300  -33.9540 N   0  0  0  0  0  0  0  0  0  0  0  0
   -6.8790   15.9540  -33.8790 C   0  0  0  0  0  0  0  0  0  0  0  0
   -5.4930   15.3010  -33.7470 C   0  0  0  0  0  0  0  0  0  0  0  0
   -4.6250   16.1410  -33.0240 O   0  0  0  0  0  0  0  0  0  0  0  0
   -4.3120   17.2940  -33.7870 C   0  0  0  0  0  0  0  0  0  0  0  0
   -5.5350   17.9090  -34.5090 C   0  0  0  0  0  0  0  0  0  0  0  0
   -7.3560   20.9160  -32.2770 C   0  0  0  0  0  0  0  0  0  0  0  0
   -6.8290   22.2060  -32.1870 C   0  0  0  0  0  0  0  0  0  0  0  0
   -5.4450   22.4120  -32.2030 C   0  0  0  0  0  0  0  0  0  0  0  0
   -4.9760   23.7210  -32.0770 O   0  0  0  0  0  0  0  0  0  0  0  0
   -2.3739   21.0039  -29.2327 H   0  0  0  0  0  0  0  0  0  0  0  0
   -3.2398   21.3699  -26.9227 H   0  0  0  0  0  0  0  0  0  0  0  0
   -4.2108   23.5798  -26.2845 H   0  0  0  0  0  0  0  0  0  0  0  0
   -4.3091   25.4296  -27.9575 H   0  0  0  0  0  0  0  0  0  0  0  0
   -4.4466   19.1510  -32.5617 H   0  0  0  0  0  0  0  0  0  0  0  0
   -7.4843   15.6731  -33.0045 H   0  0  0  0  0  0  0  0  0  0  0  0
   -7.3257   15.5946  -34.8178 H   0  0  0  0  0  0  0  0  0  0  0  0
   -5.5927   14.3412  -33.2190 H   0  0  0  0  0  0  0  0  0  0  0  0
   -5.0774   15.1363  -34.7521 H   0  0  0  0  0  0  0  0  0  0  0  0
   -3.8882   18.0528  -33.1128 H   0  0  0  0  0  0  0  0  0  0  0  0
   -3.6003   16.9825  -34.5657 H   0  0  0  0  0  0  0  0  0  0  0  0
   -5.4928   19.0033  -34.4058 H   0  0  0  0  0  0  0  0  0  0  0  0
   -5.4911   17.6019  -35.5644 H   0  0  0  0  0  0  0  0  0  0  0  0
   -8.4452   20.7650  -32.2494 H   0  0  0  0  0  0  0  0  0  0  0  0
   -7.5076   23.0676  -32.1028 H   0  0  0  0  0  0  0  0  0  0  0  0
   -4.0930   23.9570  -31.6450 H   0  0  0  0  0  0  0  0  0  0  0  0
  1  2  2  0
  2  3  2  0
  2  4  1  0
  4  5  1  0
  5  6  2  0
  6  7  1  0
  7  8  2  0
  8  9  1  0
  9 10  2  0
 10 11  1  0
  2 12  1  0
 12 13  2  0
 13 14  1  0
 14 15  1  0
 15 16  2  0
 15 17  2  0
 15 18  1  0
 18 19  1  0
 19 20  1  0
 20 21  1  0
 21 22  1  0
 22 23  1  0
 14 24  2  0
 24 25  1  0
 25 26  2  0
 26 27  1  0
 10  5  1  0
 26 12  1  0
 23 18  1  0
  6 28  1  0
  7 29  1  0
  8 30  1  0
  9 31  1  0
 13 32  1  0
 19 33  1  0
 19 34  1  0
 20 35  1  0
 20 36  1  0
 22 37  1  0
 22 38  1  0
 23 39  1  0
 23 40  1  0
 24 41  1  0
 25 42  1  0
 27 43  1  0
M  CHG  2   4  -1  11  -1
M  END
>  <UniqueID>  (29) 
29

>  <SMILES>  (29) 
O=S(=O)([N-]c1ccccc1[O-])c1cc(S(=O)(=O)N2CCOCC2)ccc1O

>  <Energy>  (29) 
59.355651705034546

>  <Genealogy>  (29) 
O=S(=O)([N-]c1ccccc1[O-])c1cc(S(=O)(=O)N2CCOCC2)ccc1O (protonated)
O=S(=O)([N-]c1ccccc1[O-])c1cc(S(=O)(=O)N2CCOCC2)ccc1O (3D coordinates assigned)
O=S(=O)([N-]c1ccccc1[O-])c1cc(S(=O)(=O)N2CCOCC2)ccc1O (nonaromatic ring conformer: 59.355651705034546 kcal/mol)

>  <smiles>  (29) 
O=S(=O)(Nc1ccccc1O)c1cc(S(=O)(=O)N2CCOCC2)ccc1O

>  <score_type>  (29) 
oracle

>  <origin>  (29) 
adgpu

>  <m_score__min__energy>  (29) 
-12.73

>  <m_primary>  (29) 
energy

$$$$
29:0
     RDKit          3D

 32 35  0  0  0  0  0  0  0  0999 V2000
   -6.2630   17.2330  -30.5230 O   0  0  0  0  0  0  0  0  0  0  0  0
   -6.2920   17.7240  -31.6820 C   0  0  0  0  0  0  0  0  0  0  0  0
   -7.1400   18.8150  -32.1670 C   0  0  0  0  0  0  0  0  0  0  0  0
   -8.1960   19.5130  -31.3700 C   0  0  0  0  0  0  0  0  0  0  0  0
   -8.1000   20.9990  -31.5800 C   0  0  0  0  0  0  0  0  0  0  0  0
   -9.2310   21.7300  -31.9760 C   0  0  0  0  0  0  0  0  0  0  0  0
   -9.1530   23.1160  -32.1350 C   0  0  0  0  0  0  0  0  0  0  0  0
   -7.9510   23.7840  -31.8920 C   0  0  0  0  0  0  0  0  0  0  0  0
   -6.8120   23.0700  -31.4800 C   0  0  0  0  0  0  0  0  0  0  0  0
   -5.5420   23.7770  -31.2110 C   0  0  0  0  0  0  0  0  0  0  0  0
   -4.3460   23.1760  -31.0750 N   0  0  0  0  0  0  0  0  0  0  0  0
   -3.4960   24.1620  -30.8470 N   0  0  0  0  0  0  0  0  0  0  0  0
   -4.1400   25.3180  -30.8450 N   0  0  0  0  0  0  0  0  0  0  0  0
   -5.4280   25.1120  -31.0700 N   0  0  0  0  0  0  0  0  0  0  0  0
   -6.8970   21.6760  -31.3220 C   0  0  0  0  0  0  0  0  0  0  0  0
   -6.9310   19.0540  -33.4300 N   0  0  0  0  0  0  0  0  0  0  0  0
   -5.9090   18.1460  -33.8460 C   0  0  0  0  0  0  0  0  0  0  0  0
   -5.3540   18.0350  -35.1190 C   0  0  0  0  0  0  0  0  0  0  0  0
   -4.3590   17.0610  -35.3270 C   0  0  0  0  0  0  0  0  0  0  0  0
   -3.9450   16.2220  -34.2670 C   0  0  0  0  0  0  0  0  0  0  0  0
   -4.5230   16.3520  -32.9910 C   0  0  0  0  0  0  0  0  0  0  0  0
   -5.5010   17.3260  -32.8210 C   0  0  0  0  0  0  0  0  0  0  0  0
   -9.1875   19.1627  -31.6929 H   0  0  0  0  0  0  0  0  0  0  0  0
   -8.0507   19.2887  -30.3029 H   0  0  0  0  0  0  0  0  0  0  0  0
  -10.1822   21.2098  -32.1618 H   0  0  0  0  0  0  0  0  0  0  0  0
  -10.0409   23.6825  -32.4525 H   0  0  0  0  0  0  0  0  0  0  0  0
   -7.8950   24.8747  -32.0236 H   0  0  0  0  0  0  0  0  0  0  0  0
   -6.0130   21.1100  -30.9932 H   0  0  0  0  0  0  0  0  0  0  0  0
   -5.6840   18.6901  -35.9387 H   0  0  0  0  0  0  0  0  0  0  0  0
   -3.9006   16.9520  -36.3210 H   0  0  0  0  0  0  0  0  0  0  0  0
   -3.1672   15.4639  -34.4408 H   0  0  0  0  0  0  0  0  0  0  0  0
   -4.2122   15.7058  -32.1568 H   0  0  0  0  0  0  0  0  0  0  0  0
  1  2  2  0
  2  3  1  0
  3  4  1  0
  4  5  1  0
  5  6  2  0
  6  7  1  0
  7  8  2  0
  8  9  1  0
  9 10  1  0
 10 11  1  0
 11 12  2  0
 12 13  1  0
 13 14  1  0
  9 15  2  0
  3 16  2  0
 16 17  1  0
 17 18  2  0
 18 19  1  0
 19 20  2  0
 20 21  1  0
 21 22  2  0
 22  2  1  0
 15  5  1  0
 22 17  1  0
 14 10  2  0
  4 23  1  0
  4 24  1  0
  6 25  1  0
  7 26  1  0
  8 27  1  0
 15 28  1  0
 18 29  1  0
 19 30  1  0
 20 31  1  0
 21 32  1  0
M  CHG  1  13  -1
M  END
>  <UniqueID>  (30) 
30

>  <SMILES>  (30) 
O=C1C(Cc2cccc(-c3nn[n-]n3)c2)=Nc2ccccc21

>  <Energy>  (30) 
105.60328992108852

>  <Genealogy>  (30) 
O=C1C(Cc2cccc(-c3nn[n-]n3)c2)=Nc2ccccc21 (protonated)
O=C1C(Cc2cccc(-c3nn[n-]n3)c2)=Nc2ccccc21 (3D coordinates assigned)
O=C1C(Cc2cccc(-c3nn[n-]n3)c2)=Nc2ccccc21 (nonaromatic ring conformer: 105.60328992108852 kcal/mol)

>  <smiles>  (30) 
O=C1C(Cc2cccc(-c3nn[nH]n3)c2)=Nc2ccccc21

>  <score_type>  (30) 
oracle

>  <origin>  (30) 
adgpu

>  <m_score__min__energy>  (30) 
-10.550000000000001

>  <m_primary>  (30) 
energy

$$$$
30:0
     RDKit          3D

 50 52  0  0  0  0  0  0  0  0999 V2000
   -6.8700   16.9180  -33.4580 C   0  0  0  0  0  0  0  0  0  0  0  0
   -7.5980   18.0880  -33.1040 O   0  0  0  0  0  0  0  0  0  0  0  0
   -7.0200   19.3180  -32.7410 C   0  0  0  0  0  0  0  0  0  0  0  0
   -5.6300   19.4940  -32.7380 C   0  0  0  0  0  0  0  0  0  0  0  0
   -5.0700   20.7050  -32.3530 C   0  0  0  0  0  0  0  0  0  0  0  0
   -5.8750   21.7740  -31.9420 C   0  0  0  0  0  0  0  0  0  0  0  0
   -5.0630   23.2520  -31.3800 S   0  0  0  0  0  0  0  0  0  0  0  0
   -5.7580   24.4440  -31.9740 O   0  0  0  0  0  0  0  0  0  0  0  0
   -3.6260   23.2680  -31.8150 O   0  0  0  0  0  0  0  0  0  0  0  0
   -5.1240   23.3420  -29.6500 N   0  0  0  0  0  0  0  0  0  0  0  0
   -3.9390   23.1820  -28.8610 C   0  0  0  0  0  0  0  0  0  0  0  0
   -3.7810   22.0590  -28.0380 C   0  0  0  0  0  0  0  0  0  0  0  0
   -2.6600   21.9410  -27.2150 C   0  0  0  0  0  0  0  0  0  0  0  0
   -1.6920   22.9470  -27.2000 C   0  0  0  0  0  0  0  0  0  0  0  0
   -1.8320   24.0730  -28.0240 C   0  0  0  0  0  0  0  0  0  0  0  0
   -0.6570   25.3840  -27.9370 S   0  0  0  0  0  0  0  0  0  0  0  0
    0.7330   24.8730  -28.1970 O   0  0  0  0  0  0  0  0  0  0  0  0
   -0.9830   26.4180  -28.9790 O   0  0  0  0  0  0  0  0  0  0  0  0
   -0.7190   26.0850  -26.3230 C   0  0  0  0  0  0  0  0  0  0  0  0
   -0.6260   25.2700  -25.1850 C   0  0  0  0  0  0  0  0  0  0  0  0
   -0.6500   25.8430  -23.9090 C   0  0  0  0  0  0  0  0  0  0  0  0
   -0.7630   27.2300  -23.7640 C   0  0  0  0  0  0  0  0  0  0  0  0
   -0.8500   28.0450  -24.8960 C   0  0  0  0  0  0  0  0  0  0  0  0
   -0.8250   27.4740  -26.1720 C   0  0  0  0  0  0  0  0  0  0  0  0
   -2.9520   24.1820  -28.8670 C   0  0  0  0  0  0  0  0  0  0  0  0
   -3.1030   25.2980  -29.6840 O   0  0  0  0  0  0  0  0  0  0  0  0
   -7.2910   21.6210  -31.9300 C   0  0  0  0  0  0  0  0  0  0  0  0
   -8.2080   22.7500  -31.5000 C   0  0  0  0  0  0  0  0  0  0  0  0
   -7.8600   20.3920  -32.3690 C   0  0  0  0  0  0  0  0  0  0  0  0
   -9.3580   20.1790  -32.3620 C   0  0  0  0  0  0  0  0  0  0  0  0
   -6.5461   16.3974  -32.5448 H   0  0  0  0  0  0  0  0  0  0  0  0
   -7.5131   16.2515  -34.0515 H   0  0  0  0  0  0  0  0  0  0  0  0
   -5.9880   17.2005  -34.0515 H   0  0  0  0  0  0  0  0  0  0  0  0
   -4.9756   18.6644  -33.0438 H   0  0  0  0  0  0  0  0  0  0  0  0
   -3.9768   20.8262  -32.3713 H   0  0  0  0  0  0  0  0  0  0  0  0
   -6.0590   23.2340  -29.1970 H   0  0  0  0  0  0  0  0  0  0  0  0
   -4.5441   21.2667  -28.0406 H   0  0  0  0  0  0  0  0  0  0  0  0
   -2.5389   21.0534  -26.5767 H   0  0  0  0  0  0  0  0  0  0  0  0
   -0.8169   22.8561  -26.5398 H   0  0  0  0  0  0  0  0  0  0  0  0
   -0.5341   24.1795  -25.2961 H   0  0  0  0  0  0  0  0  0  0  0  0
   -0.5799   25.2018  -23.0179 H   0  0  0  0  0  0  0  0  0  0  0  0
   -0.7833   27.6786  -22.7598 H   0  0  0  0  0  0  0  0  0  0  0  0
   -0.9381   29.1356  -24.7831 H   0  0  0  0  0  0  0  0  0  0  0  0
   -0.8888   28.1181  -27.0614 H   0  0  0  0  0  0  0  0  0  0  0  0
   -8.2443   22.7947  -30.4015 H   0  0  0  0  0  0  0  0  0  0  0  0
   -7.8252   23.7033  -31.8933 H   0  0  0  0  0  0  0  0  0  0  0  0
   -9.2195   22.5708  -31.8933 H   0  0  0  0  0  0  0  0  0  0  0  0
   -9.7163   20.1281  -31.3232 H   0  0  0  0  0  0  0  0  0  0  0  0
   -9.8498   21.0162  -32.8788 H   0  0  0  0  0  0  0  0  0  0  0  0
   -9.5970   19.2378  -32.8788 H   0  0  0  0  0  0  0  0  0  0  0  0
  1  2  1  0
  2  3  1  0
  3  4  2  0
  4  5  1  0
  5  6  2  0
  6  7  1  0
  7  8  2  0
  7  9  2  0
  7 10  1  0
 10 11  1  0
 11 12  2  0
 12 13  1  0
 13 14  2  0
 14 15  1  0
 15 16  1  0
 16 17  2  0
 16 18  2  0
 16 19  1  0
 19 20  2  0
 20 21  1  0
 21 22  2  0
 22 23  1  0
 23 24  2  0
 15 25  2  0
 25 26  1  0
  6 27  1  0
 27 28  1  0
 27 29  2  0
 29 30  1  0
 29  3  1  0
 25 11  1  0
 24 19  1  0
  1 31  1  0
  1 32  1  0
  1 33  1  0
  4 34  1  0
  5 35  1  0
 10 36  1  0
 12 37  1  0
 13 38  1  0
 14 39  1  0
 20 40  1  0
 21 41  1  0
 22 42  1  0
 23 43  1  0
 24 44  1  0
 28 45  1  0
 28 46  1  0
 28 47  1  0
 30 48  1  0
 30 49  1  0
 30 50  1  0
M  CHG  1  26  -1
M  END
>  <UniqueID>  (31) 
31

>  <SMILES>  (31) 
COc1ccc(S(=O)(=O)Nc2cccc(S(=O)(=O)c3ccccc3)c2[O-])c(C)c1C

>  <Energy>  (31) 
61.5035487962868

>  <Genealogy>  (31) 
COc1ccc(S(=O)(=O)Nc2cccc(S(=O)(=O)c3ccccc3)c2[O-])c(C)c1C (protonated)
COc1ccc(S(=O)(=O)Nc2cccc(S(=O)(=O)c3ccccc3)c2[O-])c(C)c1C (3D coordinates assigned)
COc1ccc(S(=O)(=O)Nc2cccc(S(=O)(=O)c3ccccc3)c2[O-])c(C)c1C (optimized conformer: 61.5035487962868 kcal/mol)

>  <smiles>  (31) 
COc1ccc(S(=O)(=O)Nc2cccc(S(=O)(=O)c3ccccc3)c2O)c(C)c1C

>  <score_type>  (31) 
oracle

>  <origin>  (31) 
adgpu

>  <m_score__min__energy>  (31) 
-13.91

>  <m_primary>  (31) 
energy

$$$$
31:0
     RDKit          3D

 62 66  0  0  0  0  0  0  0  0999 V2000
   -5.1030   15.3680  -34.3420 C   0  0  0  0  0  0  0  0  0  0  0  0
   -5.5020   16.6990  -33.7750 C   0  0  0  0  0  0  0  0  0  0  0  0
   -5.8100   16.8260  -32.4140 C   0  0  0  0  0  0  0  0  0  0  0  0
   -6.1450   18.0740  -31.8780 C   0  0  0  0  0  0  0  0  0  0  0  0
   -6.1540   19.2190  -32.6940 C   0  0  0  0  0  0  0  0  0  0  0  0
   -6.5020   20.5120  -32.1610 N   0  0  0  0  0  0  0  0  0  0  0  0
   -7.5860   21.1940  -32.5220 N   0  0  0  0  0  0  0  0  0  0  0  0
   -7.5970   22.3680  -31.8410 C   0  0  0  0  0  0  0  0  0  0  0  0
   -8.6250   23.4330  -32.0160 C   0  0  0  0  0  0  0  0  0  0  0  0
   -6.4700   22.4300  -31.0480 C   0  0  0  0  0  0  0  0  0  0  0  0
   -5.9440   23.4040  -30.2080 C   0  0  0  0  0  0  0  0  0  0  0  0
   -4.6950   23.1410  -29.6070 C   0  0  0  0  0  0  0  0  0  0  0  0
   -4.1160   24.1310  -28.7460 N   0  0  0  0  0  0  0  0  0  0  0  0
   -2.7230   24.4690  -28.8010 C   0  0  0  0  0  0  0  0  0  0  0  0
   -2.0450   24.1470  -29.8160 O   0  0  0  0  0  0  0  0  0  0  0  0
   -2.0750   25.2110  -27.6930 C   0  0  0  0  0  0  0  0  0  0  0  0
   -2.5280   25.0730  -26.3690 C   0  0  0  0  0  0  0  0  0  0  0  0
   -1.8970   25.7610  -25.3270 C   0  0  0  0  0  0  0  0  0  0  0  0
   -0.8010   26.5920  -25.5920 C   0  0  0  0  0  0  0  0  0  0  0  0
   -0.0110   27.4730  -24.2880 S   0  0  0  0  0  0  0  0  0  0  0  0
    1.3860   26.9470  -24.1160 O   0  0  0  0  0  0  0  0  0  0  0  0
   -0.7640   27.2650  -23.0020 O   0  0  0  0  0  0  0  0  0  0  0  0
    0.0490   29.1710  -24.6920 N   0  0  0  0  0  0  0  0  0  0  0  0
    1.0430   29.4460  -25.7370 C   0  0  0  0  0  0  0  0  0  0  0  0
    0.4380   30.4650  -26.6990 C   0  0  0  0  0  0  0  0  0  0  0  0
   -0.9260   30.7960  -26.1280 C   0  0  0  0  0  0  0  0  0  0  0  0
   -1.2370   29.6330  -25.2120 C   0  0  0  0  0  0  0  0  0  0  0  0
   -0.3470   26.7370  -26.9080 C   0  0  0  0  0  0  0  0  0  0  0  0
   -0.9740   26.0480  -27.9500 C   0  0  0  0  0  0  0  0  0  0  0  0
   -4.0490   21.8880  -29.8520 C   0  0  0  0  0  0  0  0  0  0  0  0
   -2.7490   21.5310  -29.1950 C   0  0  0  0  0  0  0  0  0  0  0  0
   -4.6200   20.9800  -30.7030 N   0  0  0  0  0  0  0  0  0  0  0  0
   -5.8180   21.2590  -31.2720 C   0  0  0  0  0  0  0  0  0  0  0  0
   -5.8440   19.0870  -34.0570 C   0  0  0  0  0  0  0  0  0  0  0  0
   -5.5090   17.8390  -34.5910 C   0  0  0  0  0  0  0  0  0  0  0  0
   -4.8930   14.6675  -33.5203 H   0  0  0  0  0  0  0  0  0  0  0  0
   -5.9221   14.9726  -34.9606 H   0  0  0  0  0  0  0  0  0  0  0  0
   -4.2015   15.4884  -34.9606 H   0  0  0  0  0  0  0  0  0  0  0  0
   -5.7883   15.9394  -31.7633 H   0  0  0  0  0  0  0  0  0  0  0  0
   -6.4028   18.1600  -30.8121 H   0  0  0  0  0  0  0  0  0  0  0  0
   -8.9624   23.7826  -31.0291 H   0  0  0  0  0  0  0  0  0  0  0  0
   -8.1894   24.2749  -32.5740 H   0  0  0  0  0  0  0  0  0  0  0  0
   -9.4818   23.0274  -32.5740 H   0  0  0  0  0  0  0  0  0  0  0  0
   -6.4814   24.3449  -30.0187 H   0  0  0  0  0  0  0  0  0  0  0  0
   -4.7630   24.7570  -28.2160 H   0  0  0  0  0  0  0  0  0  0  0  0
   -3.3852   24.4190  -26.1508 H   0  0  0  0  0  0  0  0  0  0  0  0
   -2.2629   25.6489  -24.2957 H   0  0  0  0  0  0  0  0  0  0  0  0
    1.9581   29.8557  -25.2846 H   0  0  0  0  0  0  0  0  0  0  0  0
    1.3049   28.5210  -26.2715 H   0  0  0  0  0  0  0  0  0  0  0  0
    1.0645   31.3679  -26.7474 H   0  0  0  0  0  0  0  0  0  0  0  0
    0.3681   30.0698  -27.7232 H   0  0  0  0  0  0  0  0  0  0  0  0
   -0.8941   31.7395  -25.5635 H   0  0  0  0  0  0  0  0  0  0  0  0
   -1.6881   30.9324  -26.9094 H   0  0  0  0  0  0  0  0  0  0  0  0
   -1.8871   29.9600  -24.3871 H   0  0  0  0  0  0  0  0  0  0  0  0
   -1.7658   28.8304  -25.7470 H   0  0  0  0  0  0  0  0  0  0  0  0
    0.5070   27.3961  -27.1232 H   0  0  0  0  0  0  0  0  0  0  0  0
   -0.6034   26.1612  -28.9795 H   0  0  0  0  0  0  0  0  0  0  0  0
   -2.8693   21.5640  -28.1021 H   0  0  0  0  0  0  0  0  0  0  0  0
   -2.4499   20.5175  -29.5005 H   0  0  0  0  0  0  0  0  0  0  0  0
   -1.9743   22.2496  -29.5005 H   0  0  0  0  0  0  0  0  0  0  0  0
   -5.8648   19.9722  -34.7097 H   0  0  0  0  0  0  0  0  0  0  0  0
   -5.2497   17.7512  -35.6564 H   0  0  0  0  0  0  0  0  0  0  0  0
  1  2  1  0
  2  3  2  0
  3  4  1  0
  4  5  2  0
  5  6  1  0
  6  7  1  0
  7  8  2  0
  8  9  1  0
  8 10  1  0
 10 11  2  0
 11 12  1  0
 12 13  1  0
 13 14  1  0
 14 15  2  0
 14 16  1  0
 16 17  2  0
 17 18  1  0
 18 19  2  0
 19 20  1  0
 20 21  2  0
 20 22  2  0
 20 23  1  0
 23 24  1  0
 24 25  1  0
 25 26  1  0
 26 27  1  0
 19 28  1  0
 28 29  2  0
 12 30  2  0
 30 31  1  0
 30 32  1  0
 32 33  2  0
  5 34  1  0
 34 35  2  0
 35  2  1  0
 33  6  1  0
 33 10  1  0
 29 16  1  0
 27 23  1  0
  1 36  1  0
  1 37  1  0
  1 38  1  0
  3 39  1  0
  4 40  1  0
  9 41  1  0
  9 42  1  0
  9 43  1  0
 11 44  1  0
 13 45  1  0
 17 46  1  0
 18 47  1  0
 24 48  1  0
 24 49  1  0
 25 50  1  0
 25 51  1  0
 26 52  1  0
 26 53  1  0
 27 54  1  0
 27 55  1  0
 28 56  1  0
 29 57  1  0
 31 58  1  0
 31 59  1  0
 31 60  1  0
 34 61  1  0
 35 62  1  0
M  END
>  <UniqueID>  (32) 
32

>  <SMILES>  (32) 
Cc1ccc(-n2nc(C)c3cc(NC(=O)c4ccc(S(=O)(=O)N5CCCC5)cc4)c(C)nc32)cc1

>  <Energy>  (32) 
117.86492264301283

>  <Genealogy>  (32) 
Cc1ccc(-n2nc(C)c3cc(NC(=O)c4ccc(S(=O)(=O)N5CCCC5)cc4)c(C)nc32)cc1 (3D coordinates assigned)
Cc1ccc(-n2nc(C)c3cc(NC(=O)c4ccc(S(=O)(=O)N5CCCC5)cc4)c(C)nc32)cc1 (nonaromatic ring conformer: 117.86492264301283 kcal/mol)

>  <smiles>  (32) 
Cc1ccc(-n2nc(C)c3cc(NC(=O)c4ccc(S(=O)(=O)N5CCCC5)cc4)c(C)nc32)cc1

>  <score_type>  (32) 
oracle

>  <origin>  (32) 
adgpu

>  <m_score__min__energy>  (32) 
-9.6999999999999993

>  <m_primary>  (32) 
energy

$$$$
32:0
     RDKit          3D

 45 47  0  0  0  0  0  0  0  0999 V2000
   -1.0960   26.6840  -23.9810 C   0  0  0  0  0  0  0  0  0  0  0  0
   -1.2400   25.5500  -24.9520 C   0  0  0  0  0  0  0  0  0  0  0  0
   -0.4250   24.4140  -24.8370 C   0  0  0  0  0  0  0  0  0  0  0  0
   -0.5490   23.3660  -25.7500 C   0  0  0  0  0  0  0  0  0  0  0  0
   -1.4700   23.4510  -26.7980 C   0  0  0  0  0  0  0  0  0  0  0  0
   -2.2610   24.6000  -26.9540 C   0  0  0  0  0  0  0  0  0  0  0  0
   -3.2100   24.6570  -28.0330 N   0  0  0  0  0  0  0  0  0  0  0  0
   -4.0770   23.5690  -28.3990 C   0  0  0  0  0  0  0  0  0  0  0  0
   -4.0580   22.4910  -27.7450 O   0  0  0  0  0  0  0  0  0  0  0  0
   -4.9990   23.6910  -29.5490 C   0  0  0  0  0  0  0  0  0  0  0  0
   -6.0660   22.7850  -29.6680 C   0  0  0  0  0  0  0  0  0  0  0  0
   -6.9630   22.8750  -30.7420 C   0  0  0  0  0  0  0  0  0  0  0  0
   -8.3090   21.7370  -30.8740 S   0  0  0  0  0  0  0  0  0  0  0  0
   -9.0830   22.0310  -32.1290 O   0  0  0  0  0  0  0  0  0  0  0  0
   -9.2330   21.9250  -29.7030 O   0  0  0  0  0  0  0  0  0  0  0  0
   -7.7510   20.0800  -30.9140 N   0  0  0  0  0  0  0  0  0  0  0  0
   -8.8610   19.1340  -31.1640 C   0  0  0  0  0  0  0  0  0  0  0  0
   -8.8420   18.5890  -32.6040 C   0  0  0  0  0  0  0  0  0  0  0  0
   -7.6330   17.9200  -32.9340 O   0  0  0  0  0  0  0  0  0  0  0  0
   -6.4820   18.4650  -32.2980 C   0  0  0  0  0  0  0  0  0  0  0  0
   -6.6390   19.9340  -31.8720 C   0  0  0  0  0  0  0  0  0  0  0  0
   -6.7860   23.8730  -31.7080 C   0  0  0  0  0  0  0  0  0  0  0  0
   -5.7390   24.7880  -31.5880 C   0  0  0  0  0  0  0  0  0  0  0  0
   -4.8530   24.7120  -30.5090 C   0  0  0  0  0  0  0  0  0  0  0  0
   -3.8550   25.6730  -30.3880 O   0  0  0  0  0  0  0  0  0  0  0  0
   -2.1510   25.6420  -26.0160 C   0  0  0  0  0  0  0  0  0  0  0  0
   -1.1454   26.2952  -22.9532 H   0  0  0  0  0  0  0  0  0  0  0  0
   -0.1275   27.1811  -24.1388 H   0  0  0  0  0  0  0  0  0  0  0  0
   -1.9095   27.4074  -24.1388 H   0  0  0  0  0  0  0  0  0  0  0  0
    0.3140   24.3492  -24.0248 H   0  0  0  0  0  0  0  0  0  0  0  0
    0.0802   22.4699  -25.6446 H   0  0  0  0  0  0  0  0  0  0  0  0
   -1.5754   22.6137  -27.5036 H   0  0  0  0  0  0  0  0  0  0  0  0
   -3.3010   25.5640  -28.5410 H   0  0  0  0  0  0  0  0  0  0  0  0
   -6.1991   21.9976  -28.9115 H   0  0  0  0  0  0  0  0  0  0  0  0
   -8.7728   18.2902  -30.4639 H   0  0  0  0  0  0  0  0  0  0  0  0
   -9.8075   19.6751  -31.0183 H   0  0  0  0  0  0  0  0  0  0  0  0
   -9.6761   17.8814  -32.7209 H   0  0  0  0  0  0  0  0  0  0  0  0
   -8.9333   19.4514  -33.2808 H   0  0  0  0  0  0  0  0  0  0  0  0
   -6.2663   17.8660  -31.4010 H   0  0  0  0  0  0  0  0  0  0  0  0
   -5.6662   18.4331  -33.0352 H   0  0  0  0  0  0  0  0  0  0  0  0
   -5.7065   20.2748  -31.3984 H   0  0  0  0  0  0  0  0  0  0  0  0
   -6.8565   20.5407  -32.7634 H   0  0  0  0  0  0  0  0  0  0  0  0
   -7.4741   23.9361  -32.5639 H   0  0  0  0  0  0  0  0  0  0  0  0
   -5.6100   25.5738  -32.3469 H   0  0  0  0  0  0  0  0  0  0  0  0
   -2.7838   26.5361  -26.1169 H   0  0  0  0  0  0  0  0  0  0  0  0
  1  2  1  0
  2  3  2  0
  3  4  1  0
  4  5  2  0
  5  6  1  0
  6  7  1  0
  7  8  1  0
  8  9  2  0
  8 10  1  0
 10 11  2  0
 11 12  1  0
 12 13  1  0
 13 14  2  0
 13 15  2  0
 13 16  1  0
 16 17  1  0
 17 18  1  0
 18 19  1  0
 19 20  1  0
 20 21  1  0
 12 22  2  0
 22 23  1  0
 23 24  2  0
 24 25  1  0
  6 26  2  0
 26  2  1  0
 24 10  1  0
 21 16  1  0
  1 27  1  0
  1 28  1  0
  1 29  1  0
  3 30  1  0
  4 31  1  0
  5 32  1  0
  7 33  1  0
 11 34  1  0
 17 35  1  0
 17 36  1  0
 18 37  1  0
 18 38  1  0
 20 39  1  0
 20 40  1  0
 21 41  1  0
 21 42  1  0
 22 43  1  0
 23 44  1  0
 26 45  1  0
M  CHG  1  25  -1
M  END
>  <UniqueID>  (33) 
33

>  <SMILES>  (33) 
Cc1cccc(NC(=O)c2cc(S(=O)(=O)N3CCOCC3)ccc2[O-])c1

>  <Energy>  (33) 
66.16697058844998

>  <Genealogy>  (33) 
Cc1cccc(NC(=O)c2cc(S(=O)(=O)N3CCOCC3)ccc2[O-])c1 (protonated)
Cc1cccc(NC(=O)c2cc(S(=O)(=O)N3CCOCC3)ccc2[O-])c1 (3D coordinates assigned)
Cc1cccc(NC(=O)c2cc(S(=O)(=O)N3CCOCC3)ccc2[O-])c1 (nonaromatic ring conformer: 66.16697058844998 kcal/mol)

>  <smiles>  (33) 
Cc1cccc(NC(=O)c2cc(S(=O)(=O)N3CCOCC3)ccc2O)c1

>  <score_type>  (33) 
oracle

>  <origin>  (33) 
adgpu

>  <m_score__min__energy>  (33) 
-11.84

>  <m_primary>  (33) 
energy

$$$$
33:0
     RDKit          3D

 54 58  0  0  0  0  0  0  0  0999 V2000
    0.2490   25.2900  -28.5860 H   0  0  0  0  0  0  0  0  0  0  0  0
    0.2720   24.3320  -28.9150 O   0  0  0  0  0  0  0  0  0  0  0  0
   -0.8350   23.7450  -29.5250 C   0  0  0  0  0  0  0  0  0  0  0  0
   -0.7260   22.4850  -30.1320 C   0  0  0  0  0  0  0  0  0  0  0  0
    0.2394   21.9579  -30.1258 H   0  0  0  0  0  0  0  0  0  0  0  0
   -1.8390   21.8920  -30.7470 C   0  0  0  0  0  0  0  0  0  0  0  0
   -1.6980   20.5630  -31.3790 C   0  0  0  0  0  0  0  0  0  0  0  0
   -2.4592   19.7902  -31.1966 H   0  0  0  0  0  0  0  0  0  0  0  0
   -0.6840   20.2980  -32.1480 N   0  0  0  0  0  0  0  0  0  0  0  0
   -0.4290   19.0590  -32.8330 C   0  0  0  0  0  0  0  0  0  0  0  0
   -0.5260   19.0460  -34.2310 C   0  0  0  0  0  0  0  0  0  0  0  0
   -0.7800   19.9717  -34.7682 H   0  0  0  0  0  0  0  0  0  0  0  0
   -0.3030   17.8680  -34.9490 C   0  0  0  0  0  0  0  0  0  0  0  0
   -0.3728   17.8744  -36.0468 H   0  0  0  0  0  0  0  0  0  0  0  0
    0.0090   16.6790  -34.2770 C   0  0  0  0  0  0  0  0  0  0  0  0
    0.2170   15.4560  -35.0170 N   0  0  0  0  0  0  0  0  0  0  0  0
   -0.8280   14.5910  -35.2590 C   0  0  0  0  0  0  0  0  0  0  0  0
   -2.2240   14.9080  -34.8770 C   0  0  0  0  0  0  0  0  0  0  0  0
   -2.9270   15.9030  -35.5730 C   0  0  0  0  0  0  0  0  0  0  0  0
   -2.4394   16.4422  -36.3985 H   0  0  0  0  0  0  0  0  0  0  0  0
   -4.2440   16.2120  -35.2220 C   0  0  0  0  0  0  0  0  0  0  0  0
   -4.7945   16.9804  -35.7845 H   0  0  0  0  0  0  0  0  0  0  0  0
   -4.8670   15.5470  -34.1560 C   0  0  0  0  0  0  0  0  0  0  0  0
   -6.2950   15.8470  -33.8080 C   0  0  0  0  0  0  0  0  0  0  0  0
   -6.4086   15.8709  -32.7141 H   0  0  0  0  0  0  0  0  0  0  0  0
   -6.5771   16.8240  -34.2273 H   0  0  0  0  0  0  0  0  0  0  0  0
   -6.9464   15.0661  -34.2273 H   0  0  0  0  0  0  0  0  0  0  0  0
   -4.1640   14.5540  -33.4580 C   0  0  0  0  0  0  0  0  0  0  0  0
   -4.6520   14.0153  -32.6324 H   0  0  0  0  0  0  0  0  0  0  0  0
   -2.8460   14.2460  -33.8070 C   0  0  0  0  0  0  0  0  0  0  0  0
   -2.2939   13.4815  -33.2407 H   0  0  0  0  0  0  0  0  0  0  0  0
   -0.5960   13.4030  -35.8760 N   0  0  0  0  0  0  0  0  0  0  0  0
    0.6410   13.0430  -36.2900 C   0  0  0  0  0  0  0  0  0  0  0  0
    0.8360   11.8120  -36.9280 C   0  0  0  0  0  0  0  0  0  0  0  0
   -0.0163   11.1354  -37.0886 H   0  0  0  0  0  0  0  0  0  0  0  0
    2.1120   11.4420  -37.3610 C   0  0  0  0  0  0  0  0  0  0  0  0
    2.2635   10.4741  -37.8612 H   0  0  0  0  0  0  0  0  0  0  0  0
    3.1960   12.3010  -37.1590 C   0  0  0  0  0  0  0  0  0  0  0  0
    4.1990   12.0079  -37.5026 H   0  0  0  0  0  0  0  0  0  0  0  0
    3.0100   13.5310  -36.5220 C   0  0  0  0  0  0  0  0  0  0  0  0
    3.8667   14.2027  -36.3639 H   0  0  0  0  0  0  0  0  0  0  0  0
    1.7270   13.9120  -36.0820 C   0  0  0  0  0  0  0  0  0  0  0  0
    1.4870   15.1310  -35.4270 C   0  0  0  0  0  0  0  0  0  0  0  0
    2.4490   15.9190  -35.2000 O   0  0  0  0  0  0  0  0  0  0  0  0
    0.1030   16.6830  -32.8770 C   0  0  0  0  0  0  0  0  0  0  0  0
    0.3536   15.7546  -32.3428 H   0  0  0  0  0  0  0  0  0  0  0  0
   -0.1200   17.8600  -32.1580 C   0  0  0  0  0  0  0  0  0  0  0  0
   -0.0542   17.8514  -31.0600 H   0  0  0  0  0  0  0  0  0  0  0  0
   -3.0690   22.5770  -30.7470 C   0  0  0  0  0  0  0  0  0  0  0  0
   -3.9483   22.1214  -31.2259 H   0  0  0  0  0  0  0  0  0  0  0  0
   -3.1800   23.8330  -30.1420 C   0  0  0  0  0  0  0  0  0  0  0  0
   -4.8670   24.7370  -30.1590 Br  0  0  0  0  0  0  0  0  0  0  0  0
   -2.0630   24.4180  -29.5310 C   0  0  0  0  0  0  0  0  0  0  0  0
   -2.1700   25.6670  -28.9280 O   0  0  0  0  0  0  0  0  0  0  0  0
  1  2  1  0
  2  3  1  0
  3  4  2  0
  4  5  1  0
  4  6  1  0
  6  7  1  0
  7  8  1  0
  7  9  2  0
  9 10  1  0
 10 11  2  0
 11 12  1  0
 11 13  1  0
 13 14  1  0
 13 15  2  0
 15 16  1  0
 16 17  1  0
 17 18  1  0
 18 19  2  0
 19 20  1  0
 19 21  1  0
 21 22  1  0
 21 23  2  0
 23 24  1  0
 24 25  1  0
 24 26  1  0
 24 27  1  0
 23 28  1  0
 28 29  1  0
 28 30  2  0
 30 31  1  0
 17 32  2  0
 32 33  1  0
 33 34  2  0
 34 35  1  0
 34 36  1  0
 36 37  1  0
 36 38  2  0
 38 39  1  0
 38 40  1  0
 40 41  1  0
 40 42  2  0
 42 43  1  0
 43 44  2  0
 15 45  1  0
 45 46  1  0
 45 47  2  0
 47 48  1  0
  6 49  2  0
 49 50  1  0
 49 51  1  0
 51 52  1  0
 51 53  2  0
 53 54  1  0
 53  3  1  0
 47 10  1  0
 43 16  1  0
 30 18  1  0
 42 33  1  0
M  CHG  1  54  -1
M  END
>  <UniqueID>  (34) 
34

>  <SMILES>  (34) 
Cc1ccc(-c2nc3ccccc3c(=O)n2-c2ccc(/N=C/c3cc(O)c([O-])c(Br)c3)cc2)cc1

>  <Energy>  (34) 
82.88253396682977

>  <Genealogy>  (34) 
Cc1ccc(-c2nc3ccccc3c(=O)n2-c2ccc(N=Cc3cc(O)c([O-])c(Br)c3)cc2)cc1 (protonated)
Cc1ccc(-c2nc3ccccc3c(=O)n2-c2ccc(/N=C/c3cc(O)c([O-])c(Br)c3)cc2)cc1 (cis-trans isomerization)
Cc1ccc(-c2nc3ccccc3c(=O)n2-c2ccc(/N=C/c3cc(O)c([O-])c(Br)c3)cc2)cc1 (3D coordinates assigned)
Cc1ccc(-c2nc3ccccc3c(=O)n2-c2ccc(/N=C/c3cc(O)c([O-])c(Br)c3)cc2)cc1 (optimized conformer: 82.88253396682977 kcal/mol)

>  <smiles>  (34) 
Cc1ccc(-c2nc3ccccc3c(=O)n2-c2ccc(N=Cc3cc(O)c(O)c(Br)c3)cc2)cc1

>  <score_type>  (34) 
oracle

>  <origin>  (34) 
adgpu

>  <m_score__min__energy>  (34) 
-10.26

>  <m_primary>  (34) 
energy

$$$$
34:0
     RDKit          3D

 46 49  0  0  0  0  0  0  0  0999 V2000
   -0.7670   16.2050  -33.1660 H   0  0  0  0  0  0  0  0  0  0  0  0
   -1.6200   16.5840  -32.8300 O   0  0  0  0  0  0  0  0  0  0  0  0
   -2.5260   15.5200  -32.7800 C   0  0  0  0  0  0  0  0  0  0  0  0
   -2.4778   15.0430  -31.7900 H   0  0  0  0  0  0  0  0  0  0  0  0
   -2.2695   14.7819  -33.5542 H   0  0  0  0  0  0  0  0  0  0  0  0
   -3.9150   16.0370  -33.0200 C   0  0  0  0  0  0  0  0  0  0  0  0
   -4.8890   15.2070  -33.5960 C   0  0  0  0  0  0  0  0  0  0  0  0
   -4.6407   14.1665  -33.8523 H   0  0  0  0  0  0  0  0  0  0  0  0
   -6.1730   15.6980  -33.8450 C   0  0  0  0  0  0  0  0  0  0  0  0
   -6.9375   15.0389  -34.2822 H   0  0  0  0  0  0  0  0  0  0  0  0
   -6.4880   17.0240  -33.5400 C   0  0  0  0  0  0  0  0  0  0  0  0
   -7.5043   17.4014  -33.7263 H   0  0  0  0  0  0  0  0  0  0  0  0
   -5.5150   17.8780  -32.9970 C   0  0  0  0  0  0  0  0  0  0  0  0
   -5.8400   19.2850  -32.6700 C   0  0  0  0  0  0  0  0  0  0  0  0
   -7.0900   19.7310  -32.2790 C   0  0  0  0  0  0  0  0  0  0  0  0
   -7.9914   19.1346  -32.0747 H   0  0  0  0  0  0  0  0  0  0  0  0
   -6.9390   21.0990  -32.2060 C   0  0  0  0  0  0  0  0  0  0  0  0
   -7.8840   21.9280  -31.8850 N   0  0  0  0  0  0  0  0  0  0  0  0
   -7.7050   23.3800  -31.8150 C   0  0  2  0  0  0  0  0  0  0  0  0
   -8.5924   23.8286  -31.3447 H   0  0  0  0  0  0  0  0  0  0  0  0
   -7.5720   23.9140  -33.1080 O   0  0  0  0  0  0  0  0  0  0  0  0
   -6.8180   23.4390  -33.5470 H   0  0  0  0  0  0  0  0  0  0  0  0
   -6.5030   23.7130  -30.9740 C   0  0  0  0  0  0  0  0  0  0  0  0
   -5.5400   24.6670  -31.2620 C   0  0  0  0  0  0  0  0  0  0  0  0
   -5.5383   25.3812  -32.0986 H   0  0  0  0  0  0  0  0  0  0  0  0
   -4.5850   24.5310  -30.2780 C   0  0  0  0  0  0  0  0  0  0  0  0
   -3.4320   25.2980  -30.1760 O   0  0  0  0  0  0  0  0  0  0  0  0
   -4.9010   23.5450  -29.4220 N   0  0  0  0  0  0  0  0  0  0  0  0
   -4.3440   23.2270  -28.5990 H   0  0  0  0  0  0  0  0  0  0  0  0
   -6.0690   23.0290  -29.8490 C   0  0  0  0  0  0  0  0  0  0  0  0
   -6.5998   22.1898  -29.3757 H   0  0  0  0  0  0  0  0  0  0  0  0
   -5.6810   21.4620  -32.5190 N   0  0  0  0  0  0  0  0  0  0  0  0
   -5.0110   20.3530  -32.7960 N   0  0  0  0  0  0  0  0  0  0  0  0
   -3.6060   20.3540  -33.0970 C   0  0  0  0  0  0  0  0  0  0  0  0
   -3.1040   19.6440  -34.2020 C   0  0  0  0  0  0  0  0  0  0  0  0
   -3.7929   19.0889  -34.8557 H   0  0  0  0  0  0  0  0  0  0  0  0
   -1.7320   19.6410  -34.4730 C   0  0  0  0  0  0  0  0  0  0  0  0
   -1.3460   19.0943  -35.3460 H   0  0  0  0  0  0  0  0  0  0  0  0
   -0.8510   20.3310  -33.6370 C   0  0  0  0  0  0  0  0  0  0  0  0
    0.2272   20.3319  -33.8551 H   0  0  0  0  0  0  0  0  0  0  0  0
   -1.3390   21.0200  -32.5240 C   0  0  0  0  0  0  0  0  0  0  0  0
   -0.6438   21.5576  -31.8624 H   0  0  0  0  0  0  0  0  0  0  0  0
   -2.7110   21.0270  -32.2500 C   0  0  0  0  0  0  0  0  0  0  0  0
   -3.0902   21.5622  -31.3670 H   0  0  0  0  0  0  0  0  0  0  0  0
   -4.2310   17.3750  -32.7310 C   0  0  0  0  0  0  0  0  0  0  0  0
   -3.4668   18.0338  -32.2929 H   0  0  0  0  0  0  0  0  0  0  0  0
  1  2  1  0
  2  3  1  0
  3  4  1  0
  3  5  1  0
  3  6  1  0
  6  7  2  0
  7  8  1  0
  7  9  1  0
  9 10  1  0
  9 11  2  0
 11 12  1  0
 11 13  1  0
 13 14  1  0
 14 15  2  0
 15 16  1  0
 15 17  1  0
 17 18  2  0
 18 19  1  0
 19 20  1  1
 19 21  1  0
 21 22  1  0
 19 23  1  0
 23 24  1  0
 24 25  1  0
 24 26  2  0
 26 27  1  0
 26 28  1  0
 28 29  1  0
 28 30  1  0
 30 31  1  0
 17 32  1  0
 32 33  1  0
 33 34  1  0
 34 35  2  0
 35 36  1  0
 35 37  1  0
 37 38  1  0
 37 39  2  0
 39 40  1  0
 39 41  1  0
 41 42  1  0
 41 43  2  0
 43 44  1  0
 13 45  2  0
 45 46  1  0
 45  6  1  0
 33 14  1  0
 43 34  1  0
 30 23  2  0
M  CHG  2  27  -1  32  -1
M  END
>  <UniqueID>  (35) 
35

>  <SMILES>  (35) 
[O-]c1cc([C@@H](O)/N=c2/cc(-c3cccc(CO)c3)n(-c3ccccc3)[n-]2)c[nH]1

>  <Energy>  (35) 
115.39795314915078

>  <Genealogy>  (35) 
[O-]c1cc(C(O)N=c2cc(-c3cccc(CO)c3)n(-c3ccccc3)[n-]2)c[nH]1 (protonated)
[O-]c1cc([C@@H](O)N=c2cc(-c3cccc(CO)c3)n(-c3ccccc3)[n-]2)c[nH]1 (chirality)
[O-]c1cc([C@@H](O)/N=c2/cc(-c3cccc(CO)c3)n(-c3ccccc3)[n-]2)c[nH]1 (cis-trans isomerization)
[O-]c1cc([C@@H](O)/N=c2/cc(-c3cccc(CO)c3)n(-c3ccccc3)[n-]2)c[nH]1 (3D coordinates assigned)
[O-]c1cc([C@@H](O)/N=c2/cc(-c3cccc(CO)c3)n(-c3ccccc3)[n-]2)c[nH]1 (optimized conformer: 115.39795314915078 kcal/mol)

>  <smiles>  (35) 
OCc1cccc(-c2cc(=NC(O)c3c[nH]c(O)c3)[nH]n2-c2ccccc2)c1

>  <score_type>  (35) 
oracle

>  <origin>  (35) 
adgpu

>  <m_score__min__energy>  (35) 
-10.300000000000001

>  <m_primary>  (35) 
energy

$$$$
35:0
     RDKit          3D

 71 75  0  0  1  0  0  0  0  0999 V2000
    2.0580   29.0870  -21.6110 C   0  0  0  0  0  0  0  0  0  0  0  0
    1.1030   28.4380  -22.4540 N   0  0  0  0  0  0  0  0  0  0  0  0
    1.0660   29.0550  -24.0660 S   0  0  0  0  0  0  0  0  0  0  0  0
    2.4210   29.6630  -24.3270 O   0  0  0  0  0  0  0  0  0  0  0  0
   -0.0110   30.1020  -24.1330 O   0  0  0  0  0  0  0  0  0  0  0  0
    0.7980   27.7800  -25.2310 C   0  0  0  0  0  0  0  0  0  0  0  0
    0.3740   28.0920  -26.5160 C   0  0  0  0  0  0  0  0  0  0  0  0
    0.1480   27.1180  -27.4730 C   0  0  0  0  0  0  0  0  0  0  0  0
    0.3540   25.7450  -27.1390 C   0  0  0  0  0  0  0  0  0  0  0  0
    0.2930   24.8140  -28.0700 N   0  0  0  0  0  0  0  0  0  0  0  0
   -0.4930   24.0760  -28.6060 C   0  0  0  0  0  0  0  0  0  0  0  0
   -0.0440   23.2320  -29.5840 N   0  0  0  0  0  0  0  0  0  0  0  0
   -0.8200   22.3490  -30.2160 C   0  0  0  0  0  0  0  0  0  0  0  0
   -0.3880   21.5570  -31.1390 N   0  0  0  0  0  0  0  0  0  0  0  0
   -1.2490   20.6290  -31.7880 C   0  0  0  0  0  0  0  0  0  0  0  0
   -0.8910   19.2980  -31.8380 C   0  0  0  0  0  0  0  0  0  0  0  0
   -1.7110   18.3680  -32.4650 C   0  0  0  0  0  0  0  0  0  0  0  0
   -2.9060   18.7120  -33.0630 C   0  0  0  0  0  0  0  0  0  0  0  0
   -3.7620   17.7830  -33.7060 N   0  0  0  0  0  0  0  0  0  0  0  0
   -3.9370   16.4220  -33.1700 C   0  0  0  0  0  0  0  0  0  0  0  0
   -5.3690   16.0260  -33.5570 C   0  0  0  0  0  0  0  0  0  0  0  0
   -6.1820   17.2150  -33.4470 N   0  0  0  0  0  0  0  0  0  0  0  0
   -7.5480   16.9760  -33.0980 C   0  0  0  0  0  0  0  0  0  0  0  0
   -5.9760   18.1530  -34.5060 C   0  0  0  0  0  0  0  0  0  0  0  0
   -4.5150   18.0770  -34.9080 C   0  0  0  0  0  0  0  0  0  0  0  0
   -3.2610   20.0450  -33.0110 C   0  0  0  0  0  0  0  0  0  0  0  0
   -2.4410   20.9900  -32.3810 C   0  0  0  0  0  0  0  0  0  0  0  0
   -2.7890   22.3300  -32.3220 O   0  0  0  0  0  0  0  0  0  0  0  0
   -4.1340   22.6720  -32.1620 C   0  0  0  0  0  0  0  0  0  0  0  0
   -2.1080   22.2830  -29.8750 N   0  0  0  0  0  0  0  0  0  0  0  0
   -2.5810   23.0990  -28.9190 C   0  0  0  0  0  0  0  0  0  0  0  0
   -1.8060   24.0260  -28.2470 C   0  0  0  0  0  0  0  0  0  0  0  0
   -2.3260   24.9040  -27.2480 C   0  0  0  0  0  0  0  0  0  0  0  0
   -1.8510   25.7740  -26.5520 O   0  0  0  0  0  0  0  0  0  0  0  0
   -3.7600   24.7560  -26.9740 N   0  0  0  0  0  0  0  0  0  0  0  0
   -4.2340   23.3990  -27.1450 C   0  0  0  0  0  0  0  0  0  0  0  0
   -4.0190   22.9430  -28.5770 C   0  0  0  0  0  0  0  0  0  0  0  0
    0.7860   25.4430  -25.8240 C   0  0  0  0  0  0  0  0  0  0  0  0
    0.9970   26.4520  -24.9060 C   0  0  0  0  0  0  0  0  0  0  0  0
    1.7971   28.9097  -20.5572 H   0  0  0  0  0  0  0  0  0  0  0  0
    3.0607   28.6825  -21.8136 H   0  0  0  0  0  0  0  0  0  0  0  0
    2.0510   30.1682  -21.8136 H   0  0  0  0  0  0  0  0  0  0  0  0
    1.1330   27.4150  -22.4250 H   0  0  0  0  0  0  0  0  0  0  0  0
    0.2126   29.1471  -26.7818 H   0  0  0  0  0  0  0  0  0  0  0  0
   -0.1874   27.3991  -28.4822 H   0  0  0  0  0  0  0  0  0  0  0  0
    0.9600   23.2550  -29.8780 H   0  0  0  0  0  0  0  0  0  0  0  0
    0.0524   18.9697  -31.3773 H   0  0  0  0  0  0  0  0  0  0  0  0
   -1.3947   17.3147  -32.4855 H   0  0  0  0  0  0  0  0  0  0  0  0
   -3.2092   15.7317  -33.6215 H   0  0  0  0  0  0  0  0  0  0  0  0
   -3.7757   16.3813  -32.0827 H   0  0  0  0  0  0  0  0  0  0  0  0
   -5.3902   15.6485  -34.5900 H   0  0  0  0  0  0  0  0  0  0  0  0
   -5.7472   15.2304  -32.8983 H   0  0  0  0  0  0  0  0  0  0  0  0
   -7.6489   16.9583  -32.0028 H   0  0  0  0  0  0  0  0  0  0  0  0
   -8.1777   17.7776  -33.5114 H   0  0  0  0  0  0  0  0  0  0  0  0
   -7.8681   16.0082  -33.5114 H   0  0  0  0  0  0  0  0  0  0  0  0
   -6.6150   17.8965  -35.3639 H   0  0  0  0  0  0  0  0  0  0  0  0
   -6.2338   19.1704  -34.1767 H   0  0  0  0  0  0  0  0  0  0  0  0
   -4.3682   17.2791  -35.6508 H   0  0  0  0  0  0  0  0  0  0  0  0
   -4.1815   19.0229  -35.3598 H   0  0  0  0  0  0  0  0  0  0  0  0
   -4.2048   20.3710  -33.4726 H   0  0  0  0  0  0  0  0  0  0  0  0
   -4.3719   22.7325  -31.0897 H   0  0  0  0  0  0  0  0  0  0  0  0
   -4.3232   23.6468  -32.6351 H   0  0  0  0  0  0  0  0  0  0  0  0
   -4.7659   21.9060  -32.6351 H   0  0  0  0  0  0  0  0  0  0  0  0
   -2.7220   21.5980  -30.3610 H   0  0  0  0  0  0  0  0  0  0  0  0
   -4.3110   25.5670  -26.6920 H   0  0  0  0  0  0  0  0  0  0  0  0
   -3.6819   22.7333  -26.4653 H   0  0  0  0  0  0  0  0  0  0  0  0
   -5.3092   23.3637  -26.9156 H   0  0  0  0  0  0  0  0  0  0  0  0
   -4.3101   21.8869  -28.6763 H   0  0  0  0  0  0  0  0  0  0  0  0
   -4.6331   23.5500  -29.2585 H   0  0  0  0  0  0  0  0  0  0  0  0
    0.9547   24.3959  -25.5322 H   0  0  0  0  0  0  0  0  0  0  0  0
    1.3318   26.1924  -23.8908 H   0  0  0  0  0  0  0  0  0  0  0  0
  1  2  1  0
  2  3  1  0
  3  4  2  0
  3  5  2  0
  3  6  1  0
  6  7  2  0
  7  8  1  0
  8  9  2  0
  9 10  1  0
 10 11  2  0
 11 12  1  0
 12 13  1  0
 13 14  2  0
 14 15  1  0
 15 16  2  0
 16 17  1  0
 17 18  2  0
 18 19  1  0
 19 20  1  0
 20 21  1  0
 21 22  1  0
 22 23  1  0
 22 24  1  0
 24 25  1  0
 18 26  1  0
 26 27  2  0
 27 28  1  0
 28 29  1  0
 13 30  1  0
 30 31  1  0
 31 32  2  0
 32 33  1  0
 33 34  2  0
 33 35  1  0
 35 36  1  0
 36 37  1  0
  9 38  1  0
 38 39  2  0
 39  6  1  0
 32 11  1  0
 27 15  1  0
 37 31  1  0
 25 19  1  0
  1 40  1  0
  1 41  1  0
  1 42  1  0
  2 43  1  0
  7 44  1  0
  8 45  1  0
 12 46  1  0
 16 47  1  0
 17 48  1  0
 20 49  1  0
 20 50  1  0
 21 51  1  0
 21 52  1  0
 23 53  1  0
 23 54  1  0
 23 55  1  0
 24 56  1  0
 24 57  1  0
 25 58  1  0
 25 59  1  0
 26 60  1  0
 29 61  1  0
 29 62  1  0
 29 63  1  0
 30 64  1  0
 35 65  1  0
 36 66  1  0
 36 67  1  0
 37 68  1  0
 37 69  1  0
 38 70  1  0
 39 71  1  0
M  END
>  <smiles>  (36) 
CNS(=O)(=O)c1ccc(N=c2[nH]c(=Nc3ccc(N4CCN(C)CC4)cc3OC)[nH]c3c2C(=O)NCC3)cc1

>  <score_type>  (36) 
oracle

>  <origin>  (36) 
adgpu

>  <m_score__min__energy>  (36) 
-10.15

>  <m_primary>  (36) 
energy

$$$$
36:0
     RDKit          3D

 52 55  0  0  0  0  0  0  0  0999 V2000
    0.3890   25.0240  -27.8310 H   0  0  0  0  0  0  0  0  0  0  0  0
   -0.4720   25.2340  -28.3830 N   0  0  0  0  0  0  0  0  0  0  0  0
   -1.3770   24.3370  -28.6140 C   0  0  0  0  0  0  0  0  0  0  0  0
   -2.4740   24.6710  -29.3410 N   0  0  0  0  0  0  0  0  0  0  0  0
   -3.4600   23.7710  -29.5940 C   0  0  0  0  0  0  0  0  0  0  0  0
   -4.5860   24.1560  -30.4070 N   0  0  0  0  0  0  0  0  0  0  0  0
   -4.8890   23.4140  -31.6310 C   0  0  0  0  0  0  0  0  0  0  0  0
   -4.2896   23.8243  -32.4571 H   0  0  0  0  0  0  0  0  0  0  0  0
   -4.6462   22.3540  -31.4651 H   0  0  0  0  0  0  0  0  0  0  0  0
   -6.3830   23.5220  -31.9920 C   0  0  0  0  0  0  0  0  0  0  0  0
   -6.5111   24.3464  -32.7089 H   0  0  0  0  0  0  0  0  0  0  0  0
   -6.6880   22.5545  -32.4174 H   0  0  0  0  0  0  0  0  0  0  0  0
   -7.2480   23.7800  -30.8180 N   0  0  0  0  0  0  0  0  0  0  0  0
   -7.7640   22.5860  -30.1120 C   0  0  0  0  0  0  0  0  0  0  0  0
   -7.0330   22.2955  -29.3431 H   0  0  0  0  0  0  0  0  0  0  0  0
   -8.7386   22.8642  -29.6845 H   0  0  0  0  0  0  0  0  0  0  0  0
   -8.0040   21.3960  -31.0150 C   0  0  0  0  0  0  0  0  0  0  0  0
   -6.9520   20.5170  -31.3260 C   0  0  0  0  0  0  0  0  0  0  0  0
   -5.9494   20.6959  -30.9104 H   0  0  0  0  0  0  0  0  0  0  0  0
   -7.1720   19.4170  -32.1600 C   0  0  0  0  0  0  0  0  0  0  0  0
   -6.3486   18.7216  -32.3799 H   0  0  0  0  0  0  0  0  0  0  0  0
   -8.4360   19.1990  -32.7150 C   0  0  0  0  0  0  0  0  0  0  0  0
   -8.6110   18.3256  -33.3603 H   0  0  0  0  0  0  0  0  0  0  0  0
   -9.4770   20.0920  -32.4490 C   0  0  0  0  0  0  0  0  0  0  0  0
  -10.4658   19.9341  -32.9044 H   0  0  0  0  0  0  0  0  0  0  0  0
   -9.2640   21.1860  -31.6050 C   0  0  0  0  0  0  0  0  0  0  0  0
  -10.0867   21.8871  -31.4009 H   0  0  0  0  0  0  0  0  0  0  0  0
   -6.8670   24.9270  -29.9590 C   0  0  0  0  0  0  0  0  0  0  0  0
   -7.4980   25.7876  -30.2257 H   0  0  0  0  0  0  0  0  0  0  0  0
   -7.0124   24.6142  -28.9145 H   0  0  0  0  0  0  0  0  0  0  0  0
   -5.3970   25.3360  -30.1100 C   0  0  0  0  0  0  0  0  0  0  0  0
   -5.3017   26.0615  -30.9313 H   0  0  0  0  0  0  0  0  0  0  0  0
   -5.0472   25.7922  -29.1722 H   0  0  0  0  0  0  0  0  0  0  0  0
   -3.3280   22.4610  -29.1170 C   0  0  0  0  0  0  0  0  0  0  0  0
   -4.1131   21.7151  -29.3101 H   0  0  0  0  0  0  0  0  0  0  0  0
   -2.1810   22.1140  -28.3900 C   0  0  0  0  0  0  0  0  0  0  0  0
   -1.9910   20.7630  -27.9200 N   0  0  0  0  0  0  0  0  0  0  0  0
   -3.0660   20.0670  -27.2040 C   0  0  0  0  0  0  0  0  0  0  0  0
   -3.6380   20.7937  -26.6085 H   0  0  0  0  0  0  0  0  0  0  0  0
   -3.7304   19.5792  -27.9324 H   0  0  0  0  0  0  0  0  0  0  0  0
   -2.4690   19.0050  -26.2740 C   0  0  0  0  0  0  0  0  0  0  0  0
   -1.9174   19.5046  -25.4640 H   0  0  0  0  0  0  0  0  0  0  0  0
   -3.2884   18.3972  -25.8627 H   0  0  0  0  0  0  0  0  0  0  0  0
   -1.5860   18.1550  -26.9800 O   0  0  0  0  0  0  0  0  0  0  0  0
   -0.4750   18.8980  -27.4430 C   0  0  0  0  0  0  0  0  0  0  0  0
   -0.0036   19.4113  -26.5919 H   0  0  0  0  0  0  0  0  0  0  0  0
    0.2400   18.2085  -27.9157 H   0  0  0  0  0  0  0  0  0  0  0  0
   -0.9140   19.9380  -28.4770 C   0  0  0  0  0  0  0  0  0  0  0  0
   -0.0589   20.5793  -28.7367 H   0  0  0  0  0  0  0  0  0  0  0  0
   -1.2773   19.4245  -29.3794 H   0  0  0  0  0  0  0  0  0  0  0  0
   -1.2370   23.0670  -28.1390 N   0  0  0  0  0  0  0  0  0  0  0  0
   -0.4020   22.8260  -27.5590 H   0  0  0  0  0  0  0  0  0  0  0  0
  1  2  1  0
  2  3  2  0
  3  4  1  0
  4  5  2  0
  5  6  1  0
  6  7  1  0
  7  8  1  0
  7  9  1  0
  7 10  1  0
 10 11  1  0
 10 12  1  0
 10 13  1  0
 13 14  1  0
 14 15  1  0
 14 16  1  0
 14 17  1  0
 17 18  2  0
 18 19  1  0
 18 20  1  0
 20 21  1  0
 20 22  2  0
 22 23  1  0
 22 24  1  0
 24 25  1  0
 24 26  2  0
 26 27  1  0
 13 28  1  0
 28 29  1  0
 28 30  1  0
 28 31  1  0
 31 32  1  0
 31 33  1  0
  5 34  1  0
 34 35  1  0
 34 36  2  0
 36 37  1  0
 37 38  1  0
 38 39  1  0
 38 40  1  0
 38 41  1  0
 41 42  1  0
 41 43  1  0
 41 44  1  0
 44 45  1  0
 45 46  1  0
 45 47  1  0
 45 48  1  0
 48 49  1  0
 48 50  1  0
 36 51  1  0
 51 52  1  0
 51  3  1  0
 31  6  1  0
 48 37  1  0
 26 17  1  0
M  END
>  <UniqueID>  (37) 
36

>  <SMILES>  (37) 
[H]/N=c1/nc(N2CCN(Cc3ccccc3)CC2)cc(N2CCOCC2)[nH]1

>  <Energy>  (37) 
71.45664766611192

>  <Genealogy>  (37) 
[H]/N=c1/nc(N2CCN(Cc3ccccc3)CC2)cc(N2CCOCC2)[nH]1 (cis-trans isomerization)
[H]/N=c1/nc(N2CCN(Cc3ccccc3)CC2)cc(N2CCOCC2)[nH]1 (3D coordinates assigned)
[H]/N=c1/nc(N2CCN(Cc3ccccc3)CC2)cc(N2CCOCC2)[nH]1 (nonaromatic ring conformer: 71.45664766611192 kcal/mol)

>  <smiles>  (37) 
N=c1nc(N2CCN(Cc3ccccc3)CC2)cc(N2CCOCC2)[nH]1

>  <score_type>  (37) 
oracle

>  <origin>  (37) 
adgpu

>  <m_score__min__energy>  (37) 
-8.6600000000000001

>  <m_primary>  (37) 
energy

$$$$
37:0
     RDKit          3D

 49 51  0  0  0  0  0  0  0  0999 V2000
   -3.8740   25.6340  -30.5370 N   0  0  0  0  0  0  0  0  0  0  0  0
   -5.2640   25.3670  -30.3560 C   0  0  0  0  0  0  0  0  0  0  0  0
   -6.0290   26.3080  -30.0090 O   0  0  0  0  0  0  0  0  0  0  0  0
   -5.8050   24.0050  -30.5720 C   0  0  0  0  0  0  0  0  0  0  0  0
   -7.0050   23.6080  -29.9570 C   0  0  0  0  0  0  0  0  0  0  0  0
   -7.5160   22.3220  -30.1590 C   0  0  0  0  0  0  0  0  0  0  0  0
   -6.8290   21.4030  -30.9700 C   0  0  0  0  0  0  0  0  0  0  0  0
   -7.3500   20.0860  -31.2170 N   0  0  0  0  0  0  0  0  0  0  0  0
   -8.3130   19.7750  -32.2380 C   0  0  0  0  0  0  0  0  0  0  0  0
   -9.5890   20.7760  -32.4900 S   0  0  0  0  0  0  0  0  0  0  0  0
   -8.3430   18.4610  -32.8150 N   0  0  0  0  0  0  0  0  0  0  0  0
   -7.1900   17.6090  -32.9160 C   0  0  0  0  0  0  0  0  0  0  0  0
   -6.3750   17.3460  -31.7990 C   0  0  0  0  0  0  0  0  0  0  0  0
   -5.2530   16.5210  -31.9230 C   0  0  0  0  0  0  0  0  0  0  0  0
   -4.9230   15.9620  -33.1630 C   0  0  0  0  0  0  0  0  0  0  0  0
   -3.5290   14.8900  -33.2920 S   0  0  0  0  0  0  0  0  0  0  0  0
   -3.3140   14.1570  -31.9970 O   0  0  0  0  0  0  0  0  0  0  0  0
   -3.7870   13.8820  -34.3750 O   0  0  0  0  0  0  0  0  0  0  0  0
   -2.1030   15.8020  -33.6860 N   0  0  0  0  0  0  0  0  0  0  0  0
   -2.4320   16.8330  -34.6720 C   0  0  0  0  0  0  0  0  0  0  0  0
   -2.5100   18.1740  -33.9960 C   0  0  0  0  0  0  0  0  0  0  0  0
   -3.6830   18.9420  -34.0790 C   0  0  0  0  0  0  0  0  0  0  0  0
   -3.7680   20.1720  -33.4190 C   0  0  0  0  0  0  0  0  0  0  0  0
   -2.6880   20.6370  -32.6620 C   0  0  0  0  0  0  0  0  0  0  0  0
   -1.5240   19.8700  -32.5610 C   0  0  0  0  0  0  0  0  0  0  0  0
   -1.4350   18.6400  -33.2200 C   0  0  0  0  0  0  0  0  0  0  0  0
   -5.7200   16.2360  -34.2820 C   0  0  0  0  0  0  0  0  0  0  0  0
   -6.8410   17.0630  -34.1600 C   0  0  0  0  0  0  0  0  0  0  0  0
   -5.6450   21.8050  -31.6020 C   0  0  0  0  0  0  0  0  0  0  0  0
   -5.1320   23.0890  -31.4010 C   0  0  0  0  0  0  0  0  0  0  0  0
   -3.5170   26.0460  -31.4280 H   0  0  0  0  0  0  0  0  0  0  0  0
   -7.5467   24.3149  -29.3114 H   0  0  0  0  0  0  0  0  0  0  0  0
   -8.4616   22.0281  -29.6800 H   0  0  0  0  0  0  0  0  0  0  0  0
   -7.0100   19.3010  -30.6160 H   0  0  0  0  0  0  0  0  0  0  0  0
   -9.2600   18.0920  -33.1560 H   0  0  0  0  0  0  0  0  0  0  0  0
   -6.6219   17.7915  -30.8241 H   0  0  0  0  0  0  0  0  0  0  0  0
   -4.6275   16.3105  -31.0430 H   0  0  0  0  0  0  0  0  0  0  0  0
   -1.4290   15.1330  -34.1260 H   0  0  0  0  0  0  0  0  0  0  0  0
   -1.6524   16.8593  -35.4476 H   0  0  0  0  0  0  0  0  0  0  0  0
   -3.4034   16.6000  -35.1325 H   0  0  0  0  0  0  0  0  0  0  0  0
   -4.5381   18.5746  -34.6654 H   0  0  0  0  0  0  0  0  0  0  0  0
   -4.6853   20.7743  -33.4954 H   0  0  0  0  0  0  0  0  0  0  0  0
   -2.7546   21.6063  -32.1461 H   0  0  0  0  0  0  0  0  0  0  0  0
   -0.6765   20.2346  -31.9621 H   0  0  0  0  0  0  0  0  0  0  0  0
   -0.5206   18.0351  -33.1307 H   0  0  0  0  0  0  0  0  0  0  0  0
   -5.4635   15.7997  -35.2587 H   0  0  0  0  0  0  0  0  0  0  0  0
   -7.4534   17.2869  -35.0459 H   0  0  0  0  0  0  0  0  0  0  0  0
   -5.1144   21.1034  -32.2625 H   0  0  0  0  0  0  0  0  0  0  0  0
   -4.1949   23.3859  -31.8946 H   0  0  0  0  0  0  0  0  0  0  0  0
  1  2  1  0
  2  3  2  0
  2  4  1  0
  4  5  2  0
  5  6  1  0
  6  7  2  0
  7  8  1  0
  8  9  1  0
  9 10  2  0
  9 11  1  0
 11 12  1  0
 12 13  2  0
 13 14  1  0
 14 15  2  0
 15 16  1  0
 16 17  2  0
 16 18  2  0
 16 19  1  0
 19 20  1  0
 20 21  1  0
 21 22  2  0
 22 23  1  0
 23 24  2  0
 24 25  1  0
 25 26  2  0
 15 27  1  0
 27 28  2  0
  7 29  1  0
 29 30  2  0
 30  4  1  0
 28 12  1  0
 26 21  1  0
  1 31  1  0
  5 32  1  0
  6 33  1  0
  8 34  1  0
 11 35  1  0
 13 36  1  0
 14 37  1  0
 19 38  1  0
 20 39  1  0
 20 40  1  0
 22 41  1  0
 23 42  1  0
 24 43  1  0
 25 44  1  0
 26 45  1  0
 27 46  1  0
 28 47  1  0
 29 48  1  0
 30 49  1  0
M  CHG  1   1  -1
M  END
>  <UniqueID>  (38) 
37

>  <SMILES>  (38) 
[NH-]C(=O)c1ccc(NC(=S)Nc2ccc(S(=O)(=O)NCc3ccccc3)cc2)cc1

>  <Energy>  (38) 
56.31709227756253

>  <Genealogy>  (38) 
[NH-]C(=O)c1ccc(NC(=S)Nc2ccc(S(=O)(=O)NCc3ccccc3)cc2)cc1 (protonated)
[NH-]C(=O)c1ccc(NC(=S)Nc2ccc(S(=O)(=O)NCc3ccccc3)cc2)cc1 (3D coordinates assigned)
[NH-]C(=O)c1ccc(NC(=S)Nc2ccc(S(=O)(=O)NCc3ccccc3)cc2)cc1 (optimized conformer: 56.31709227756253 kcal/mol)

>  <smiles>  (38) 
NC(=O)c1ccc(NC(=S)Nc2ccc(S(=O)(=O)NCc3ccccc3)cc2)cc1

>  <score_type>  (38) 
oracle

>  <origin>  (38) 
adgpu

>  <m_score__min__energy>  (38) 
-10.85

>  <m_primary>  (38) 
energy

$$$$
38:0
     RDKit          3D

 56 59  0  0  0  0  0  0  0  0999 V2000
   -7.1819   15.6300  -34.6336 H   0  0  0  0  0  0  0  0  0  0  0  0
   -6.5090   16.3890  -34.2080 C   0  0  0  0  0  0  0  0  0  0  0  0
   -7.0250   17.4910  -33.6040 N   0  0  0  0  0  0  0  0  0  0  0  0
   -6.2330   18.4590  -33.0670 C   0  0  0  0  0  0  0  0  0  0  0  0
   -6.8490   19.6010  -32.4610 N   0  0  0  0  0  0  0  0  0  0  0  0
   -8.0050   19.6470  -31.7630 C   0  0  0  0  0  0  0  0  0  0  0  0
   -8.8410   18.4480  -31.4460 C   0  0  0  0  0  0  0  0  0  0  0  0
   -8.9202   18.3344  -30.3548 H   0  0  0  0  0  0  0  0  0  0  0  0
   -9.8455   18.5776  -31.8750 H   0  0  0  0  0  0  0  0  0  0  0  0
   -8.3721   17.5502  -31.8750 H   0  0  0  0  0  0  0  0  0  0  0  0
   -8.3210   20.8960  -31.3530 N   0  0  0  0  0  0  0  0  0  0  0  0
   -7.3280   21.6540  -31.8590 C   0  0  0  0  0  0  0  0  0  0  0  0
   -7.1950   23.0590  -31.5910 N   0  0  0  0  0  0  0  0  0  0  0  0
   -6.1060   23.6910  -31.2460 C   0  0  0  0  0  0  0  0  0  0  0  0
   -6.2030   25.0310  -30.8540 C   0  0  0  0  0  0  0  0  0  0  0  0
   -7.1779   25.5403  -30.8657 H   0  0  0  0  0  0  0  0  0  0  0  0
   -5.0580   25.7190  -30.4480 C   0  0  0  0  0  0  0  0  0  0  0  0
   -5.1329   26.7700  -30.1320 H   0  0  0  0  0  0  0  0  0  0  0  0
   -3.8510   25.0940  -30.4420 N   0  0  0  0  0  0  0  0  0  0  0  0
   -3.7070   23.8010  -30.8350 C   0  0  0  0  0  0  0  0  0  0  0  0
   -2.4230   23.2340  -30.8320 O   0  0  0  0  0  0  0  0  0  0  0  0
   -2.0430   22.0750  -30.1330 C   0  0  0  0  0  0  0  0  0  0  0  0
   -0.9200   21.3650  -30.5710 C   0  0  0  0  0  0  0  0  0  0  0  0
   -0.3506   21.7241  -31.4409 H   0  0  0  0  0  0  0  0  0  0  0  0
   -0.5180   20.2020  -29.9090 C   0  0  0  0  0  0  0  0  0  0  0  0
    0.3656   19.6490  -30.2602 H   0  0  0  0  0  0  0  0  0  0  0  0
   -1.2350   19.7390  -28.8020 C   0  0  0  0  0  0  0  0  0  0  0  0
   -0.9181   18.8197  -28.2877 H   0  0  0  0  0  0  0  0  0  0  0  0
   -2.3580   20.4450  -28.3460 C   0  0  0  0  0  0  0  0  0  0  0  0
   -3.1120   19.9710  -27.1380 C   0  0  0  0  0  0  0  0  0  0  0  0
   -2.5895   20.2995  -26.2274 H   0  0  0  0  0  0  0  0  0  0  0  0
   -4.1276   20.3934  -27.1506 H   0  0  0  0  0  0  0  0  0  0  0  0
   -3.1716   18.8727  -27.1506 H   0  0  0  0  0  0  0  0  0  0  0  0
   -2.7370   21.6320  -28.9920 C   0  0  0  0  0  0  0  0  0  0  0  0
   -3.5819   22.2197  -28.6038 H   0  0  0  0  0  0  0  0  0  0  0  0
   -4.8330   23.0880  -31.2800 C   0  0  0  0  0  0  0  0  0  0  0  0
   -4.7208   22.0599  -31.6546 H   0  0  0  0  0  0  0  0  0  0  0  0
   -6.4100   20.8670  -32.5210 C   0  0  0  0  0  0  0  0  0  0  0  0
   -5.4870   21.2136  -33.0088 H   0  0  0  0  0  0  0  0  0  0  0  0
   -4.8270   18.3210  -33.1130 C   0  0  0  0  0  0  0  0  0  0  0  0
   -3.9060   19.3510  -32.5010 C   0  0  0  0  0  0  0  0  0  0  0  0
   -4.5090   20.1318  -32.0145 H   0  0  0  0  0  0  0  0  0  0  0  0
   -3.2593   18.8549  -31.7623 H   0  0  0  0  0  0  0  0  0  0  0  0
   -3.0560   19.9700  -33.5400 N   0  0  0  0  0  0  0  0  0  0  0  0
   -1.6610   19.5150  -33.4230 C   0  0  0  0  0  0  0  0  0  0  0  0
   -1.3919   19.4272  -32.3600 H   0  0  0  0  0  0  0  0  0  0  0  0
   -1.5528   18.5350  -33.9108 H   0  0  0  0  0  0  0  0  0  0  0  0
   -0.9958   20.2428  -33.9108 H   0  0  0  0  0  0  0  0  0  0  0  0
   -3.1070   21.4370  -33.4330 C   0  0  0  0  0  0  0  0  0  0  0  0
   -3.1171   21.7271  -32.3720 H   0  0  0  0  0  0  0  0  0  0  0  0
   -2.2234   21.8714  -33.9235 H   0  0  0  0  0  0  0  0  0  0  0  0
   -4.0186   21.8089  -33.9235 H   0  0  0  0  0  0  0  0  0  0  0  0
   -4.2870   17.1860  -33.7390 C   0  0  0  0  0  0  0  0  0  0  0  0
   -3.1958   17.0590  -33.7958 H   0  0  0  0  0  0  0  0  0  0  0  0
   -5.1280   16.2190  -34.2890 C   0  0  0  0  0  0  0  0  0  0  0  0
   -4.7056   15.3309  -34.7819 H   0  0  0  0  0  0  0  0  0  0  0  0
  1  2  1  0
  2  3  2  0
  3  4  1  0
  4  5  1  0
  5  6  1  0
  6  7  1  0
  7  8  1  0
  7  9  1  0
  7 10  1  0
  6 11  2  0
 11 12  1  0
 12 13  1  0
 13 14  2  0
 14 15  1  0
 15 16  1  0
 15 17  2  0
 17 18  1  0
 17 19  1  0
 19 20  1  0
 20 21  1  0
 21 22  1  0
 22 23  2  0
 23 24  1  0
 23 25  1  0
 25 26  1  0
 25 27  2  0
 27 28  1  0
 27 29  1  0
 29 30  1  0
 30 31  1  0
 30 32  1  0
 30 33  1  0
 29 34  2  0
 34 35  1  0
 20 36  2  0
 36 37  1  0
 12 38  2  0
 38 39  1  0
  4 40  2  0
 40 41  1  0
 41 42  1  0
 41 43  1  0
 41 44  1  0
 44 45  1  0
 45 46  1  0
 45 47  1  0
 45 48  1  0
 44 49  1  0
 49 50  1  0
 49 51  1  0
 49 52  1  0
 40 53  1  0
 53 54  1  0
 53 55  2  0
 55 56  1  0
 55  2  1  0
 38  5  1  0
 36 14  1  0
 34 22  1  0
M  CHG  1  19  -1
M  END
>  <UniqueID>  (39) 
38

>  <SMILES>  (39) 
Cc1cccc(Oc2c/c(=N\c3cn(-c4ncccc4CN(C)C)c(C)n3)cc[n-]2)c1

>  <Energy>  (39) 
106.50330684099927

>  <Genealogy>  (39) 
Cc1cccc(Oc2cc(=Nc3cn(-c4ncccc4CN(C)C)c(C)n3)cc[n-]2)c1 (protonated)
Cc1cccc(Oc2c/c(=N\c3cn(-c4ncccc4CN(C)C)c(C)n3)cc[n-]2)c1 (cis-trans isomerization)
Cc1cccc(Oc2c/c(=N\c3cn(-c4ncccc4CN(C)C)c(C)n3)cc[n-]2)c1 (3D coordinates assigned)
Cc1cccc(Oc2c/c(=N\c3cn(-c4ncccc4CN(C)C)c(C)n3)cc[n-]2)c1 (optimized conformer: 106.50330684099927 kcal/mol)

>  <smiles>  (39) 
Cc1cccc(Oc2cc(=Nc3cn(-c4ncccc4CN(C)C)c(C)n3)cc[nH]2)c1

>  <score_type>  (39) 
oracle

>  <origin>  (39) 
adgpu

>  <m_score__min__energy>  (39) 
-10.68

>  <m_primary>  (39) 
energy

$$$$
39:0
     RDKit          3D

 47 49  0  0  0  0  0  0  0  0999 V2000
   -1.2600   27.0440  -25.6240 C   0  0  0  0  0  0  0  0  0  0  0  0
   -1.3000   25.3360  -24.9950 S   0  0  0  0  0  0  0  0  0  0  0  0
   -1.6350   24.6240  -26.6060 C   0  0  0  0  0  0  0  0  0  0  0  0
   -0.6220   23.9560  -27.3010 C   0  0  0  0  0  0  0  0  0  0  0  0
   -0.8850   23.3940  -28.5530 C   0  0  0  0  0  0  0  0  0  0  0  0
   -2.1580   23.5090  -29.1190 C   0  0  0  0  0  0  0  0  0  0  0  0
   -3.1780   24.2010  -28.4400 C   0  0  0  0  0  0  0  0  0  0  0  0
   -4.5030   24.3120  -28.9890 N   0  0  0  0  0  0  0  0  0  0  0  0
   -4.7950   24.8770  -30.2770 C   0  0  0  0  0  0  0  0  0  0  0  0
   -3.9830   25.6710  -30.8200 O   0  0  0  0  0  0  0  0  0  0  0  0
   -6.0530   24.6320  -30.9160 N   0  0  0  0  0  0  0  0  0  0  0  0
   -6.6250   23.3430  -31.1810 C   0  0  0  0  0  0  0  0  0  0  0  0
   -5.8820   22.1590  -31.0290 C   0  0  0  0  0  0  0  0  0  0  0  0
   -6.4620   20.9210  -31.3230 C   0  0  0  0  0  0  0  0  0  0  0  0
   -7.7850   20.8530  -31.7830 C   0  0  0  0  0  0  0  0  0  0  0  0
   -8.5160   19.3000  -32.1820 S   0  0  0  0  0  0  0  0  0  0  0  0
   -9.8590   19.5460  -32.8100 O   0  0  0  0  0  0  0  0  0  0  0  0
   -8.7130   18.4910  -30.9310 O   0  0  0  0  0  0  0  0  0  0  0  0
   -7.4940   18.4320  -33.3020 N   0  0  0  0  0  0  0  0  0  0  0  0
   -6.5030   19.3490  -33.8960 C   0  0  0  0  0  0  0  0  0  0  0  0
   -5.3050   18.5650  -34.4550 C   0  0  0  0  0  0  0  0  0  0  0  0
   -4.6100   17.7910  -33.4840 O   0  0  0  0  0  0  0  0  0  0  0  0
   -5.3870   17.4810  -32.3360 C   0  0  0  0  0  0  0  0  0  0  0  0
   -6.8760   17.2530  -32.6550 C   0  0  0  0  0  0  0  0  0  0  0  0
   -8.5140   22.0350  -31.9660 C   0  0  0  0  0  0  0  0  0  0  0  0
   -7.9340   23.2720  -31.6730 C   0  0  0  0  0  0  0  0  0  0  0  0
   -2.9090   24.7430  -27.1740 C   0  0  0  0  0  0  0  0  0  0  0  0
   -1.2436   27.7462  -24.7775 H   0  0  0  0  0  0  0  0  0  0  0  0
   -0.3582   27.1879  -26.2373 H   0  0  0  0  0  0  0  0  0  0  0  0
   -2.1540   27.2299  -26.2373 H   0  0  0  0  0  0  0  0  0  0  0  0
    0.3830   23.8729  -26.8616 H   0  0  0  0  0  0  0  0  0  0  0  0
   -0.0894   22.8605  -29.0938 H   0  0  0  0  0  0  0  0  0  0  0  0
   -2.3635   23.0562  -30.1002 H   0  0  0  0  0  0  0  0  0  0  0  0
   -5.3100   24.0420  -28.3830 H   0  0  0  0  0  0  0  0  0  0  0  0
   -4.8407   22.2067  -30.6776 H   0  0  0  0  0  0  0  0  0  0  0  0
   -5.8786   19.9975  -31.1930 H   0  0  0  0  0  0  0  0  0  0  0  0
   -6.9773   19.9141  -34.7119 H   0  0  0  0  0  0  0  0  0  0  0  0
   -6.1435   20.0356  -33.1153 H   0  0  0  0  0  0  0  0  0  0  0  0
   -5.6724   17.8861  -35.2387 H   0  0  0  0  0  0  0  0  0  0  0  0
   -4.5904   19.3092  -34.8364 H   0  0  0  0  0  0  0  0  0  0  0  0
   -4.9836   16.5661  -31.8774 H   0  0  0  0  0  0  0  0  0  0  0  0
   -5.3265   18.3446  -31.6573 H   0  0  0  0  0  0  0  0  0  0  0  0
   -6.9657   16.3898  -33.3309 H   0  0  0  0  0  0  0  0  0  0  0  0
   -7.4020   17.0732  -31.7058 H   0  0  0  0  0  0  0  0  0  0  0  0
   -9.5468   21.9892  -32.3417 H   0  0  0  0  0  0  0  0  0  0  0  0
   -8.5096   24.1962  -31.8299 H   0  0  0  0  0  0  0  0  0  0  0  0
   -3.7053   25.2654  -26.6236 H   0  0  0  0  0  0  0  0  0  0  0  0
  1  2  1  0
  2  3  1  0
  3  4  2  0
  4  5  1  0
  5  6  2  0
  6  7  1  0
  7  8  1  0
  8  9  1  0
  9 10  2  0
  9 11  1  0
 11 12  1  0
 12 13  2  0
 13 14  1  0
 14 15  2  0
 15 16  1  0
 16 17  2  0
 16 18  2  0
 16 19  1  0
 19 20  1  0
 20 21  1  0
 21 22  1  0
 22 23  1  0
 23 24  1  0
 15 25  1  0
 25 26  2  0
  7 27  2  0
 27  3  1  0
 26 12  1  0
 24 19  1  0
  1 28  1  0
  1 29  1  0
  1 30  1  0
  4 31  1  0
  5 32  1  0
  6 33  1  0
  8 34  1  0
 13 35  1  0
 14 36  1  0
 20 37  1  0
 20 38  1  0
 21 39  1  0
 21 40  1  0
 23 41  1  0
 23 42  1  0
 24 43  1  0
 24 44  1  0
 25 45  1  0
 26 46  1  0
 27 47  1  0
M  CHG  1  11  -1
M  END
>  <UniqueID>  (40) 
39

>  <SMILES>  (40) 
CSc1cccc(NC(=O)[N-]c2ccc(S(=O)(=O)N3CCOCC3)cc2)c1

>  <Energy>  (40) 
62.90608523287577

>  <Genealogy>  (40) 
CSc1cccc(NC(=O)[N-]c2ccc(S(=O)(=O)N3CCOCC3)cc2)c1 (protonated)
CSc1cccc(NC(=O)[N-]c2ccc(S(=O)(=O)N3CCOCC3)cc2)c1 (3D coordinates assigned)
CSc1cccc(NC(=O)[N-]c2ccc(S(=O)(=O)N3CCOCC3)cc2)c1 (nonaromatic ring conformer: 62.90608523287577 kcal/mol)

>  <smiles>  (40) 
CSc1cccc(NC(=O)Nc2ccc(S(=O)(=O)N3CCOCC3)cc2)c1

>  <score_type>  (40) 
oracle

>  <origin>  (40) 
adgpu

>  <m_score__min__energy>  (40) 
-11.19

>  <m_primary>  (40) 
energy

$$$$
40:0
     RDKit          3D

 39 41  0  0  0  0  0  0  0  0999 V2000
   -5.6980   18.4600  -34.9370 C   0  0  0  0  0  0  0  0  0  0  0  0
   -6.3810   18.5300  -33.6140 C   0  0  0  0  0  0  0  0  0  0  0  0
   -6.9750   19.6450  -33.0640 C   0  0  0  0  0  0  0  0  0  0  0  0
   -7.4650   19.1690  -31.8610 C   0  0  0  0  0  0  0  0  0  0  0  0
   -8.1090   19.8470  -30.9610 N   0  0  0  0  0  0  0  0  0  0  0  0
   -8.4910   21.5350  -31.0930 S   0  0  0  0  0  0  0  0  0  0  0  0
   -9.1280   21.7900  -32.4320 O   0  0  0  0  0  0  0  0  0  0  0  0
   -9.4640   21.9070  -30.0100 O   0  0  0  0  0  0  0  0  0  0  0  0
   -7.0320   22.5030  -30.9070 C   0  0  0  0  0  0  0  0  0  0  0  0
   -6.9340   23.4270  -29.8600 C   0  0  0  0  0  0  0  0  0  0  0  0
   -5.7750   24.1920  -29.7000 C   0  0  0  0  0  0  0  0  0  0  0  0
   -4.6940   24.0320  -30.5860 C   0  0  0  0  0  0  0  0  0  0  0  0
   -3.4940   24.8120  -30.4740 N   0  0  0  0  0  0  0  0  0  0  0  0
   -2.4580   24.6530  -29.4940 C   0  0  0  0  0  0  0  0  0  0  0  0
   -1.9320   25.6630  -28.9560 O   0  0  0  0  0  0  0  0  0  0  0  0
   -2.0100   23.2930  -29.1240 C   0  0  0  0  0  0  0  0  0  0  0  0
   -2.9800   22.2800  -28.9970 C   0  0  0  0  0  0  0  0  0  0  0  0
   -2.6030   20.9640  -28.7180 C   0  0  0  0  0  0  0  0  0  0  0  0
   -1.2560   20.6410  -28.5600 C   0  0  0  0  0  0  0  0  0  0  0  0
   -0.2830   21.6360  -28.6640 C   0  0  0  0  0  0  0  0  0  0  0  0
   -0.6450   22.9640  -28.9240 C   0  0  0  0  0  0  0  0  0  0  0  0
    0.3710   23.9220  -28.9410 O   0  0  0  0  0  0  0  0  0  0  0  0
   -4.8100   23.1300  -31.6510 C   0  0  0  0  0  0  0  0  0  0  0  0
   -5.9690   22.3640  -31.8090 C   0  0  0  0  0  0  0  0  0  0  0  0
   -7.1800   17.8620  -31.7230 N   0  0  0  0  0  0  0  0  0  0  0  0
   -6.5310   17.5110  -32.7960 O   0  0  0  0  0  0  0  0  0  0  0  0
   -4.6143   18.3489  -34.7847 H   0  0  0  0  0  0  0  0  0  0  0  0
   -6.0794   17.5962  -35.5013 H   0  0  0  0  0  0  0  0  0  0  0  0
   -5.8963   19.3832  -35.5013 H   0  0  0  0  0  0  0  0  0  0  0  0
   -7.0428   20.6616  -33.4787 H   0  0  0  0  0  0  0  0  0  0  0  0
   -7.7731   23.5517  -29.1598 H   0  0  0  0  0  0  0  0  0  0  0  0
   -5.7080   24.9211  -28.8791 H   0  0  0  0  0  0  0  0  0  0  0  0
   -4.0449   22.5273  -29.1187 H   0  0  0  0  0  0  0  0  0  0  0  0
   -3.3702   20.1814  -28.6228 H   0  0  0  0  0  0  0  0  0  0  0  0
   -0.9602   19.6019  -28.3534 H   0  0  0  0  0  0  0  0  0  0  0  0
    0.7784   21.3749  -28.5406 H   0  0  0  0  0  0  0  0  0  0  0  0
    0.2000   24.9160  -29.0270 H   0  0  0  0  0  0  0  0  0  0  0  0
   -3.9831   23.0233  -32.3686 H   0  0  0  0  0  0  0  0  0  0  0  0
   -6.0463   21.6509  -32.6430 H   0  0  0  0  0  0  0  0  0  0  0  0
  1  2  1  0
  2  3  2  0
  3  4  1  0
  4  5  2  3
  5  6  1  0
  6  7  2  0
  6  8  2  0
  6  9  1  0
  9 10  2  0
 10 11  1  0
 11 12  2  0
 12 13  1  0
 13 14  1  0
 14 15  2  0
 14 16  1  0
 16 17  2  0
 17 18  1  0
 18 19  2  0
 19 20  1  0
 20 21  2  0
 21 22  1  0
 12 23  1  0
 23 24  2  0
  4 25  1  0
 25 26  1  0
 26  2  1  0
 24  9  1  0
 21 16  1  0
  1 27  1  0
  1 28  1  0
  1 29  1  0
  3 30  1  0
 10 31  1  0
 11 32  1  0
 17 33  1  0
 18 34  1  0
 19 35  1  0
 20 36  1  0
 22 37  1  0
 23 38  1  0
 24 39  1  0
M  CHG  2  13  -1  25  -1
M  END
>  <UniqueID>  (41) 
40

>  <SMILES>  (41) 
Cc1cc(=NS(=O)(=O)c2ccc([N-]C(=O)c3ccccc3O)cc2)[n-]o1

>  <Energy>  (41) 
83.68811612076988

>  <Genealogy>  (41) 
Cc1cc(=NS(=O)(=O)c2ccc([N-]C(=O)c3ccccc3O)cc2)[n-]o1 (protonated)
Cc1cc(=NS(=O)(=O)c2ccc([N-]C(=O)c3ccccc3O)cc2)[n-]o1 (3D coordinates assigned)
Cc1cc(=NS(=O)(=O)c2ccc([N-]C(=O)c3ccccc3O)cc2)[n-]o1 (optimized conformer: 83.68811612076988 kcal/mol)

>  <smiles>  (41) 
Cc1cc(=NS(=O)(=O)c2ccc(NC(=O)c3ccccc3O)cc2)[nH]o1

>  <score_type>  (41) 
oracle

>  <origin>  (41) 
adgpu

>  <m_score__min__energy>  (41) 
-10.23

>  <m_primary>  (41) 
energy

$$$$
41:0
     RDKit          3D

 60 64  0  0  0  0  0  0  0  0999 V2000
    2.1279   18.5311  -28.9151 H   0  0  0  0  0  0  0  0  0  0  0  0
    1.4530   19.3960  -28.8350 C   0  0  0  0  0  0  0  0  0  0  0  0
    1.6510   20.3420  -27.8310 C   0  0  0  0  0  0  0  0  0  0  0  0
    2.4876   20.2278  -27.1260 H   0  0  0  0  0  0  0  0  0  0  0  0
    0.7900   21.4330  -27.7190 C   0  0  0  0  0  0  0  0  0  0  0  0
    0.9519   22.1758  -26.9240 H   0  0  0  0  0  0  0  0  0  0  0  0
   -0.2830   21.5920  -28.6130 C   0  0  0  0  0  0  0  0  0  0  0  0
   -1.3880   22.9570  -28.3710 S   0  0  0  0  0  0  0  0  0  0  0  0
   -0.6700   24.1970  -27.9200 O   0  0  0  0  0  0  0  0  0  0  0  0
   -2.3790   22.5700  -27.3100 O   0  0  0  0  0  0  0  0  0  0  0  0
   -2.2640   23.2990  -29.8300 N   0  0  0  0  0  0  0  0  0  0  0  0
   -3.4040   23.9100  -29.9930 C   0  0  0  0  0  0  0  0  0  0  0  0
   -3.9060   24.1110  -31.1890 O   0  0  0  0  0  0  0  0  0  0  0  0
   -5.0430   24.7330  -31.1130 N   0  0  0  0  0  0  0  0  0  0  0  0
   -5.6290   25.0030  -31.9340 H   0  0  0  0  0  0  0  0  0  0  0  0
   -5.3170   24.9520  -29.8170 C   0  0  0  0  0  0  0  0  0  0  0  0
   -6.5450   25.6550  -29.3310 C   0  0  0  0  0  0  0  0  0  0  0  0
   -6.5536   25.6599  -28.2310 H   0  0  0  0  0  0  0  0  0  0  0  0
   -6.5459   26.6904  -29.7023 H   0  0  0  0  0  0  0  0  0  0  0  0
   -7.4384   25.1315  -29.7023 H   0  0  0  0  0  0  0  0  0  0  0  0
   -4.2800   24.4490  -29.0410 C   0  0  0  0  0  0  0  0  0  0  0  0
   -4.2490   24.4290  -27.5420 C   0  0  0  0  0  0  0  0  0  0  0  0
   -5.1126   24.9861  -27.1499 H   0  0  0  0  0  0  0  0  0  0  0  0
   -4.2927   23.3884  -27.1882 H   0  0  0  0  0  0  0  0  0  0  0  0
   -3.3189   24.8978  -27.1882 H   0  0  0  0  0  0  0  0  0  0  0  0
   -0.4670   20.6440  -29.6490 C   0  0  0  0  0  0  0  0  0  0  0  0
   -1.5500   20.7690  -30.6440 C   0  0  0  0  0  0  0  0  0  0  0  0
   -2.8730   20.4730  -30.2840 C   0  0  0  0  0  0  0  0  0  0  0  0
   -3.1031   20.1524  -29.2572 H   0  0  0  0  0  0  0  0  0  0  0  0
   -3.8990   20.5840  -31.2250 C   0  0  0  0  0  0  0  0  0  0  0  0
   -4.9356   20.3617  -30.9317 H   0  0  0  0  0  0  0  0  0  0  0  0
   -3.6160   20.9780  -32.5450 C   0  0  0  0  0  0  0  0  0  0  0  0
   -4.7270   21.0900  -33.5600 C   0  0  0  0  0  0  0  0  0  0  0  0
   -5.0183   22.1460  -33.6598 H   0  0  0  0  0  0  0  0  0  0  0  0
   -4.3645   20.6984  -34.5219 H   0  0  0  0  0  0  0  0  0  0  0  0
   -5.9000   20.3040  -33.1450 N   0  0  0  0  0  0  0  0  0  0  0  0
   -5.9210   18.8880  -33.4310 C   0  0  0  0  0  0  0  0  0  0  0  0
   -4.9900   18.3510  -34.0910 O   0  0  0  0  0  0  0  0  0  0  0  0
   -7.0780   18.0470  -32.9840 C   0  0  0  0  0  0  0  0  0  0  0  0
   -7.8916   18.1268  -33.7200 H   0  0  0  0  0  0  0  0  0  0  0  0
   -6.7510   17.0001  -32.8998 H   0  0  0  0  0  0  0  0  0  0  0  0
   -7.5800   18.5260  -31.6210 C   0  0  0  0  0  0  0  0  0  0  0  0
   -8.5126   17.9973  -31.3747 H   0  0  0  0  0  0  0  0  0  0  0  0
   -6.8071   18.3136  -30.8677 H   0  0  0  0  0  0  0  0  0  0  0  0
   -7.8430   20.0090  -31.6350 C   0  0  0  0  0  0  0  0  0  0  0  0
   -8.8870   20.5390  -30.8630 C   0  0  0  0  0  0  0  0  0  0  0  0
   -9.5258   19.8669  -30.2712 H   0  0  0  0  0  0  0  0  0  0  0  0
   -9.1190   21.9130  -30.8420 C   0  0  0  0  0  0  0  0  0  0  0  0
   -9.9434   22.3222  -30.2395 H   0  0  0  0  0  0  0  0  0  0  0  0
   -8.3070   22.7690  -31.5840 C   0  0  0  0  0  0  0  0  0  0  0  0
   -8.4981   23.8522  -31.5717 H   0  0  0  0  0  0  0  0  0  0  0  0
   -7.2520   22.2580  -32.3430 C   0  0  0  0  0  0  0  0  0  0  0  0
   -6.6201   22.9423  -32.9282 H   0  0  0  0  0  0  0  0  0  0  0  0
   -6.9890   20.8700  -32.3660 C   0  0  0  0  0  0  0  0  0  0  0  0
   -2.2880   21.2660  -32.9030 C   0  0  0  0  0  0  0  0  0  0  0  0
   -2.0542   21.5767  -33.9320 H   0  0  0  0  0  0  0  0  0  0  0  0
   -1.2620   21.1600  -31.9590 C   0  0  0  0  0  0  0  0  0  0  0  0
   -0.2250   21.3843  -32.2493 H   0  0  0  0  0  0  0  0  0  0  0  0
    0.4000   19.5440  -29.7390 C   0  0  0  0  0  0  0  0  0  0  0  0
    0.2484   18.7927  -30.5281 H   0  0  0  0  0  0  0  0  0  0  0  0
  1  2  1  0
  2  3  2  0
  3  4  1  0
  3  5  1  0
  5  6  1  0
  5  7  2  0
  7  8  1  0
  8  9  2  0
  8 10  2  0
  8 11  1  0
 11 12  2  0
 12 13  1  0
 13 14  1  0
 14 15  1  0
 14 16  1  0
 16 17  1  0
 17 18  1  0
 17 19  1  0
 17 20  1  0
 16 21  2  0
 21 22  1  0
 22 23  1  0
 22 24  1  0
 22 25  1  0
  7 26  1  0
 26 27  1  0
 27 28  2  0
 28 29  1  0
 28 30  1  0
 30 31  1  0
 30 32  2  0
 32 33  1  0
 33 34  1  0
 33 35  1  0
 33 36  1  0
 36 37  1  0
 37 38  2  0
 37 39  1  0
 39 40  1  0
 39 41  1  0
 39 42  1  0
 42 43  1  0
 42 44  1  0
 42 45  1  0
 45 46  2  0
 46 47  1  0
 46 48  1  0
 48 49  1  0
 48 50  2  0
 50 51  1  0
 50 52  1  0
 52 53  1  0
 52 54  2  0
 32 55  1  0
 55 56  1  0
 55 57  2  0
 57 58  1  0
 26 59  2  0
 59 60  1  0
 59  2  1  0
 21 12  1  0
 57 27  1  0
 54 36  1  0
 54 45  1  0
M  END
>  <UniqueID>  (42) 
41

>  <SMILES>  (42) 
Cc1[nH]o/c(=N/S(=O)(=O)c2ccccc2-c2ccc(CN3C(=O)CCc4ccccc43)cc2)c1C

>  <Energy>  (42) 
117.18423995430334

>  <Genealogy>  (42) 
Cc1[nH]o/c(=N/S(=O)(=O)c2ccccc2-c2ccc(CN3C(=O)CCc4ccccc43)cc2)c1C (cis-trans isomerization)
Cc1[nH]o/c(=N/S(=O)(=O)c2ccccc2-c2ccc(CN3C(=O)CCc4ccccc43)cc2)c1C (3D coordinates assigned)
Cc1[nH]o/c(=N/S(=O)(=O)c2ccccc2-c2ccc(CN3C(=O)CCc4ccccc43)cc2)c1C (nonaromatic ring conformer: 117.18423995430334 kcal/mol)

>  <smiles>  (42) 
Cc1[nH]oc(=NS(=O)(=O)c2ccccc2-c2ccc(CN3C(=O)CCc4ccccc43)cc2)c1C

>  <score_type>  (42) 
oracle

>  <origin>  (42) 
adgpu

>  <m_score__min__energy>  (42) 
-11.130000000000001

>  <m_primary>  (42) 
energy

$$$$
42:0
     RDKit          3D

 48 51  0  0  0  0  0  0  0  0999 V2000
   -0.0140   22.7768  -26.3089 H   0  0  0  0  0  0  0  0  0  0  0  0
   -0.6670   23.2150  -27.0780 C   0  0  0  0  0  0  0  0  0  0  0  0
   -1.7770   23.9770  -26.7010 C   0  0  0  0  0  0  0  0  0  0  0  0
   -2.0015   24.1314  -25.6353 H   0  0  0  0  0  0  0  0  0  0  0  0
   -2.6020   24.5430  -27.6780 C   0  0  0  0  0  0  0  0  0  0  0  0
   -3.4782   25.1361  -27.3773 H   0  0  0  0  0  0  0  0  0  0  0  0
   -2.3190   24.3590  -29.0370 C   0  0  0  0  0  0  0  0  0  0  0  0
   -3.1650   24.9450  -29.9900 O   0  0  0  0  0  0  0  0  0  0  0  0
   -4.4440   24.4720  -30.3180 C   0  0  0  0  0  0  0  0  0  0  0  0
   -5.5440   25.3010  -30.0650 C   0  0  0  0  0  0  0  0  0  0  0  0
   -5.3888   26.2927  -29.6151 H   0  0  0  0  0  0  0  0  0  0  0  0
   -6.8360   24.8770  -30.3800 C   0  0  0  0  0  0  0  0  0  0  0  0
   -7.6965   25.5266  -30.1617 H   0  0  0  0  0  0  0  0  0  0  0  0
   -7.0360   23.6310  -30.9710 C   0  0  0  0  0  0  0  0  0  0  0  0
   -8.0553   23.2961  -31.2137 H   0  0  0  0  0  0  0  0  0  0  0  0
   -5.9450   22.8060  -31.2560 C   0  0  0  0  0  0  0  0  0  0  0  0
   -6.1087   21.8335  -31.7434 H   0  0  0  0  0  0  0  0  0  0  0  0
   -4.6370   23.2100  -30.9240 C   0  0  0  0  0  0  0  0  0  0  0  0
   -3.4830   22.4290  -31.2830 N   0  0  0  0  0  0  0  0  0  0  0  0
   -3.2230   21.6720  -32.4750 C   0  0  0  0  0  0  0  0  0  0  0  0
   -3.8750   21.9550  -33.5150 O   0  0  0  0  0  0  0  0  0  0  0  0
   -2.1310   20.6780  -32.5680 C   0  0  0  0  0  0  0  0  0  0  0  0
   -0.8370   21.1220  -32.2510 C   0  0  0  0  0  0  0  0  0  0  0  0
   -0.6953   22.1284  -31.8302 H   0  0  0  0  0  0  0  0  0  0  0  0
    0.2670   20.3040  -32.4630 C   0  0  0  0  0  0  0  0  0  0  0  0
    1.2755   20.6491  -32.1912 H   0  0  0  0  0  0  0  0  0  0  0  0
    0.0820   19.0460  -33.0220 C   0  0  0  0  0  0  0  0  0  0  0  0
    0.9510   18.3996  -33.2145 H   0  0  0  0  0  0  0  0  0  0  0  0
   -1.1660   18.6100  -33.3320 N   0  0  0  0  0  0  0  0  0  0  0  0
   -1.2620   17.6510  -33.7390 H   0  0  0  0  0  0  0  0  0  0  0  0
   -2.2860   19.3560  -33.0970 C   0  0  0  0  0  0  0  0  0  0  0  0
   -3.4410   18.8020  -33.3720 N   0  0  0  0  0  0  0  0  0  0  0  0
   -4.7710   19.2460  -33.0700 C   0  0  0  0  0  0  0  0  0  0  0  0
   -5.6230   19.6250  -34.1150 C   0  0  0  0  0  0  0  0  0  0  0  0
   -5.2588   19.6087  -35.1528 H   0  0  0  0  0  0  0  0  0  0  0  0
   -6.9350   20.0240  -33.8430 C   0  0  0  0  0  0  0  0  0  0  0  0
   -7.5935   20.3437  -34.6640 H   0  0  0  0  0  0  0  0  0  0  0  0
   -7.4120   20.0170  -32.5250 C   0  0  0  0  0  0  0  0  0  0  0  0
   -8.7630   20.4290  -32.2440 C   0  0  0  0  0  0  0  0  0  0  0  0
   -9.8480   20.7600  -32.0180 N   0  0  0  0  0  0  0  0  0  0  0  0
   -6.5750   19.5950  -31.4840 C   0  0  0  0  0  0  0  0  0  0  0  0
   -6.9500   19.5777  -30.4500 H   0  0  0  0  0  0  0  0  0  0  0  0
   -5.2640   19.1960  -31.7580 C   0  0  0  0  0  0  0  0  0  0  0  0
   -4.6168   18.8417  -30.9422 H   0  0  0  0  0  0  0  0  0  0  0  0
   -1.2120   23.5730  -29.4100 C   0  0  0  0  0  0  0  0  0  0  0  0
   -0.9956   23.4013  -30.4748 H   0  0  0  0  0  0  0  0  0  0  0  0
   -0.3870   23.0100  -28.4320 C   0  0  0  0  0  0  0  0  0  0  0  0
    0.4829   22.4054  -28.7281 H   0  0  0  0  0  0  0  0  0  0  0  0
  1  2  1  0
  2  3  2  0
  3  4  1  0
  3  5  1  0
  5  6  1  0
  5  7  2  0
  7  8  1  0
  8  9  1  0
  9 10  2  0
 10 11  1  0
 10 12  1  0
 12 13  1  0
 12 14  2  0
 14 15  1  0
 14 16  1  0
 16 17  1  0
 16 18  2  0
 18 19  1  0
 19 20  1  0
 20 21  2  0
 20 22  1  0
 22 23  2  0
 23 24  1  0
 23 25  1  0
 25 26  1  0
 25 27  2  0
 27 28  1  0
 27 29  1  0
 29 30  1  0
 29 31  1  0
 31 32  2  0
 32 33  1  0
 33 34  2  0
 34 35  1  0
 34 36  1  0
 36 37  1  0
 36 38  2  0
 38 39  1  0
 39 40  3  0
 38 41  1  0
 41 42  1  0
 41 43  2  0
 43 44  1  0
  7 45  1  0
 45 46  1  0
 45 47  2  0
 47 48  1  0
 47  2  1  0
 18  9  1  0
 31 22  1  0
 43 33  1  0
M  CHG  1  19  -1
M  END
>  <UniqueID>  (43) 
42

>  <SMILES>  (43) 
N#Cc1ccc(/N=c2/[nH]cccc2C(=O)[N-]c2ccccc2Oc2ccccc2)cc1

>  <Energy>  (43) 
84.60163524462672

>  <Genealogy>  (43) 
N#Cc1ccc(N=c2[nH]cccc2C(=O)[N-]c2ccccc2Oc2ccccc2)cc1 (protonated)
N#Cc1ccc(/N=c2/[nH]cccc2C(=O)[N-]c2ccccc2Oc2ccccc2)cc1 (cis-trans isomerization)
N#Cc1ccc(/N=c2/[nH]cccc2C(=O)[N-]c2ccccc2Oc2ccccc2)cc1 (3D coordinates assigned)
N#Cc1ccc(/N=c2/[nH]cccc2C(=O)[N-]c2ccccc2Oc2ccccc2)cc1 (optimized conformer: 84.60163524462672 kcal/mol)

>  <smiles>  (43) 
N#Cc1ccc(N=c2[nH]cccc2C(=O)Nc2ccccc2Oc2ccccc2)cc1

>  <score_type>  (43) 
oracle

>  <origin>  (43) 
adgpu

>  <m_score__min__energy>  (43) 
-9.8200000000000003

>  <m_primary>  (43) 
energy

$$$$
43:0
     RDKit          3D

 54 57  0  0  0  0  0  0  0  0999 V2000
    3.1400   26.3900  -37.3790 C   0  0  0  0  0  0  0  0  0  0  0  0
    2.4590   25.1590  -36.8840 C   0  0  0  0  0  0  0  0  0  0  0  0
    2.8570   24.3830  -35.8160 C   0  0  0  0  0  0  0  0  0  0  0  0
    1.9260   23.3700  -35.8140 C   0  0  0  0  0  0  0  0  0  0  0  0
    1.9070   22.3850  -34.9710 N   0  0  0  0  0  0  0  0  0  0  0  0
    0.7280   21.1160  -35.0250 S   0  0  0  0  0  0  0  0  0  0  0  0
    1.4210   19.7840  -35.1090 O   0  0  0  0  0  0  0  0  0  0  0  0
   -0.1250   21.2850  -36.2510 O   0  0  0  0  0  0  0  0  0  0  0  0
   -0.2900   21.2000  -33.5920 C   0  0  0  0  0  0  0  0  0  0  0  0
    0.2740   21.0920  -32.3140 C   0  0  0  0  0  0  0  0  0  0  0  0
   -0.5300   21.2250  -31.1790 C   0  0  0  0  0  0  0  0  0  0  0  0
   -1.9060   21.4840  -31.3120 C   0  0  0  0  0  0  0  0  0  0  0  0
   -2.7500   21.6660  -30.1660 N   0  0  0  0  0  0  0  0  0  0  0  0
   -3.3490   22.9030  -29.7520 C   0  0  0  0  0  0  0  0  0  0  0  0
   -2.7540   23.6000  -28.8880 O   0  0  0  0  0  0  0  0  0  0  0  0
   -4.6710   23.3450  -30.2650 C   0  0  0  0  0  0  0  0  0  0  0  0
   -5.7120   22.4110  -30.4210 C   0  0  0  0  0  0  0  0  0  0  0  0
   -6.9610   22.8070  -30.9200 C   0  0  0  0  0  0  0  0  0  0  0  0
   -8.2480   21.6160  -31.1310 S   0  0  0  0  0  0  0  0  0  0  0  0
   -9.0300   21.9470  -32.3710 O   0  0  0  0  0  0  0  0  0  0  0  0
   -9.1830   21.6890  -29.9560 O   0  0  0  0  0  0  0  0  0  0  0  0
   -7.6130   19.9920  -31.2580 N   0  0  0  0  0  0  0  0  0  0  0  0
   -8.6440   19.0750  -31.7800 C   0  0  0  0  0  0  0  0  0  0  0  0
   -7.9950   17.8120  -32.3700 C   0  0  0  0  0  0  0  0  0  0  0  0
   -7.1030   18.0680  -33.4490 O   0  0  0  0  0  0  0  0  0  0  0  0
   -6.5670   19.3840  -33.4510 C   0  0  0  0  0  0  0  0  0  0  0  0
   -6.3550   19.9560  -32.0360 C   0  0  0  0  0  0  0  0  0  0  0  0
   -7.1770   24.1490  -31.2540 C   0  0  0  0  0  0  0  0  0  0  0  0
   -6.1580   25.0880  -31.0830 C   0  0  0  0  0  0  0  0  0  0  0  0
   -4.9090   24.6950  -30.5930 C   0  0  0  0  0  0  0  0  0  0  0  0
   -3.9070   25.6500  -30.4540 O   0  0  0  0  0  0  0  0  0  0  0  0
   -2.4700   21.5540  -32.5910 C   0  0  0  0  0  0  0  0  0  0  0  0
   -1.6660   21.4250  -33.7250 C   0  0  0  0  0  0  0  0  0  0  0  0
    1.0380   23.5370  -36.8150 N   0  0  0  0  0  0  0  0  0  0  0  0
    1.3930   24.6230  -37.4380 O   0  0  0  0  0  0  0  0  0  0  0  0
    3.4741   26.9939  -36.5224 H   0  0  0  0  0  0  0  0  0  0  0  0
    4.0100   26.1073  -37.9899 H   0  0  0  0  0  0  0  0  0  0  0  0
    2.4382   26.9768  -37.9899 H   0  0  0  0  0  0  0  0  0  0  0  0
    3.7073   24.5358  -35.1350 H   0  0  0  0  0  0  0  0  0  0  0  0
    1.3519   20.9021  -32.2040 H   0  0  0  0  0  0  0  0  0  0  0  0
   -0.0851   21.1268  -30.1778 H   0  0  0  0  0  0  0  0  0  0  0  0
   -5.5440   21.3586  -30.1484 H   0  0  0  0  0  0  0  0  0  0  0  0
   -9.3190   18.7859  -30.9610 H   0  0  0  0  0  0  0  0  0  0  0  0
   -9.2071   19.5885  -32.5733 H   0  0  0  0  0  0  0  0  0  0  0  0
   -7.4340   17.3060  -31.5705 H   0  0  0  0  0  0  0  0  0  0  0  0
   -8.8111   17.1939  -32.7724 H   0  0  0  0  0  0  0  0  0  0  0  0
   -5.5970   19.3655  -33.9694 H   0  0  0  0  0  0  0  0  0  0  0  0
   -7.2955   20.0325  -33.9597 H   0  0  0  0  0  0  0  0  0  0  0  0
   -5.6265   19.3265  -31.5041 H   0  0  0  0  0  0  0  0  0  0  0  0
   -5.9894   20.9884  -32.1383 H   0  0  0  0  0  0  0  0  0  0  0  0
   -8.1525   24.4648  -31.6524 H   0  0  0  0  0  0  0  0  0  0  0  0
   -6.3390   26.1433  -31.3353 H   0  0  0  0  0  0  0  0  0  0  0  0
   -3.5528   21.7115  -32.7033 H   0  0  0  0  0  0  0  0  0  0  0  0
   -2.1148   21.5003  -34.7265 H   0  0  0  0  0  0  0  0  0  0  0  0
  1  2  1  0
  2  3  2  0
  3  4  1  0
  4  5  2  3
  5  6  1  0
  6  7  2  0
  6  8  2  0
  6  9  1  0
  9 10  2  0
 10 11  1  0
 11 12  2  0
 12 13  1  0
 13 14  1  0
 14 15  2  0
 14 16  1  0
 16 17  2  0
 17 18  1  0
 18 19  1  0
 19 20  2  0
 19 21  2  0
 19 22  1  0
 22 23  1  0
 23 24  1  0
 24 25  1  0
 25 26  1  0
 26 27  1  0
 18 28  2  0
 28 29  1  0
 29 30  2  0
 30 31  1  0
 12 32  1  0
 32 33  2  0
  4 34  1  0
 34 35  1  0
 35  2  1  0
 33  9  1  0
 30 16  1  0
 27 22  1  0
  1 36  1  0
  1 37  1  0
  1 38  1  0
  3 39  1  0
 10 40  1  0
 11 41  1  0
 17 42  1  0
 23 43  1  0
 23 44  1  0
 24 45  1  0
 24 46  1  0
 26 47  1  0
 26 48  1  0
 27 49  1  0
 27 50  1  0
 28 51  1  0
 29 52  1  0
 32 53  1  0
 33 54  1  0
M  CHG  3  13  -1  31  -1  34  -1
M  END
>  <UniqueID>  (44) 
43

>  <SMILES>  (44) 
Cc1cc(=NS(=O)(=O)c2ccc([N-]C(=O)c3cc(S(=O)(=O)N4CCOCC4)ccc3[O-])cc2)[n-]o1

>  <Energy>  (44) 
106.4898362178358

>  <Genealogy>  (44) 
Cc1cc(=NS(=O)(=O)c2ccc([N-]C(=O)c3cc(S(=O)(=O)N4CCOCC4)ccc3[O-])cc2)[n-]o1 (protonated)
Cc1cc(=NS(=O)(=O)c2ccc([N-]C(=O)c3cc(S(=O)(=O)N4CCOCC4)ccc3[O-])cc2)[n-]o1 (3D coordinates assigned)
Cc1cc(=NS(=O)(=O)c2ccc([N-]C(=O)c3cc(S(=O)(=O)N4CCOCC4)ccc3[O-])cc2)[n-]o1 (nonaromatic ring conformer: 106.4898362178358 kcal/mol)

>  <smiles>  (44) 
Cc1cc(=NS(=O)(=O)c2ccc(NC(=O)c3cc(S(=O)(=O)N4CCOCC4)ccc3O)cc2)[nH]o1

>  <score_type>  (44) 
oracle

>  <origin>  (44) 
adgpu

>  <m_score__min__energy>  (44) 
-15.380000000000001

>  <m_primary>  (44) 
energy

$$$$
44:0
     RDKit          3D

 26 27  0  0  0  0  0  0  0  0999 V2000
   -2.8560   22.7750  -29.6420 C   0  0  0  0  0  0  0  0  0  0  0  0
   -3.8380   23.5700  -30.4410 C   0  0  0  0  0  0  0  0  0  0  0  0
   -3.8540   24.9200  -30.4650 N   0  0  0  0  0  0  0  0  0  0  0  0
   -4.8880   25.2920  -31.2090 N   0  0  0  0  0  0  0  0  0  0  0  0
   -5.4870   24.1610  -31.6220 C   0  0  0  0  0  0  0  0  0  0  0  0
   -6.5120   24.1400  -32.3520 O   0  0  0  0  0  0  0  0  0  0  0  0
   -4.8540   23.0640  -31.1720 N   0  0  0  0  0  0  0  0  0  0  0  0
   -5.2270   21.7190  -31.3770 N   0  0  0  0  0  0  0  0  0  0  0  0
   -4.2520   20.6390  -31.2190 C   0  0  0  0  0  0  0  0  0  0  0  0
   -6.6150   21.3920  -31.5410 C   0  0  0  0  0  0  0  0  0  0  0  0
   -7.5610   21.9620  -30.6770 C   0  0  0  0  0  0  0  0  0  0  0  0
   -8.9180   21.6600  -30.8200 C   0  0  0  0  0  0  0  0  0  0  0  0
   -9.3390   20.7950  -31.8320 C   0  0  0  0  0  0  0  0  0  0  0  0
   -8.4050   20.2350  -32.7080 C   0  0  0  0  0  0  0  0  0  0  0  0
   -7.0430   20.5320  -32.5710 C   0  0  0  0  0  0  0  0  0  0  0  0
   -5.9060   19.8630  -33.7340 Cl  0  0  0  0  0  0  0  0  0  0  0  0
   -3.0460   22.9288  -28.5695 H   0  0  0  0  0  0  0  0  0  0  0  0
   -2.9649   21.7076  -29.8843 H   0  0  0  0  0  0  0  0  0  0  0  0
   -1.8346   23.1037  -29.8843 H   0  0  0  0  0  0  0  0  0  0  0  0
   -4.0828   20.4515  -30.1484 H   0  0  0  0  0  0  0  0  0  0  0  0
   -4.6369   19.7250  -31.6949 H   0  0  0  0  0  0  0  0  0  0  0  0
   -3.3036   20.9287  -31.6949 H   0  0  0  0  0  0  0  0  0  0  0  0
   -7.2336   22.6497  -29.8834 H   0  0  0  0  0  0  0  0  0  0  0  0
   -9.6550   22.1041  -30.1347 H   0  0  0  0  0  0  0  0  0  0  0  0
  -10.4068   20.5541  -31.9399 H   0  0  0  0  0  0  0  0  0  0  0  0
   -8.7407   19.5586  -33.5079 H   0  0  0  0  0  0  0  0  0  0  0  0
  1  2  1  0
  2  3  2  0
  3  4  1  0
  4  5  1  0
  5  6  2  0
  5  7  1  0
  7  8  1  0
  8  9  1  0
  8 10  1  0
 10 11  2  0
 11 12  1  0
 12 13  2  0
 13 14  1  0
 14 15  2  0
 15 16  1  0
  7  2  1  0
 15 10  1  0
  1 17  1  0
  1 18  1  0
  1 19  1  0
  9 20  1  0
  9 21  1  0
  9 22  1  0
 11 23  1  0
 12 24  1  0
 13 25  1  0
 14 26  1  0
M  CHG  1   4  -1
M  END
>  <UniqueID>  (45) 
44

>  <SMILES>  (45) 
Cc1n[n-]c(=O)n1N(C)c1ccccc1Cl

>  <Energy>  (45) 
72.93025918245971

>  <Genealogy>  (45) 
Cc1n[n-]c(=O)n1N(C)c1ccccc1Cl (protonated)
Cc1n[n-]c(=O)n1N(C)c1ccccc1Cl (3D coordinates assigned)
Cc1n[n-]c(=O)n1N(C)c1ccccc1Cl (optimized conformer: 72.93025918245971 kcal/mol)

>  <smiles>  (45) 
Cc1n[nH]c(=O)n1N(C)c1ccccc1Cl

>  <score_type>  (45) 
oracle

>  <origin>  (45) 
adgpu

>  <m_score__min__energy>  (45) 
-7.5300000000000002

>  <m_primary>  (45) 
energy

$$$$
45:0
     RDKit          3D

 49 51  0  0  0  0  0  0  0  0999 V2000
   -1.2680   20.0120  -26.6960 C   0  0  0  0  0  0  0  0  0  0  0  0
   -1.7030   21.3080  -27.3110 C   0  0  0  0  0  0  0  0  0  0  0  0
   -0.7630   22.3160  -27.5750 C   0  0  0  0  0  0  0  0  0  0  0  0
   -1.1570   23.4970  -28.2100 C   0  0  0  0  0  0  0  0  0  0  0  0
   -2.4830   23.6700  -28.6200 C   0  0  0  0  0  0  0  0  0  0  0  0
   -2.8390   24.8500  -29.3510 N   0  0  0  0  0  0  0  0  0  0  0  0
   -3.8460   24.9360  -30.3710 C   0  0  0  0  0  0  0  0  0  0  0  0
   -4.4440   26.0280  -30.5430 O   0  0  0  0  0  0  0  0  0  0  0  0
   -4.1710   23.8280  -31.2280 N   0  0  0  0  0  0  0  0  0  0  0  0
   -5.4320   23.1460  -31.2910 C   0  0  0  0  0  0  0  0  0  0  0  0
   -6.4440   23.5610  -30.4250 C   0  0  0  0  0  0  0  0  0  0  0  0
   -7.6290   22.8400  -30.3270 C   0  0  0  0  0  0  0  0  0  0  0  0
   -7.8310   21.6850  -31.0950 C   0  0  0  0  0  0  0  0  0  0  0  0
   -9.1120   20.9120  -30.9040 C   0  0  0  0  0  0  0  0  0  0  0  0
   -6.8220   21.2610  -31.9980 C   0  0  0  0  0  0  0  0  0  0  0  0
   -7.0290   19.7700  -32.9540 S   0  0  0  0  0  0  0  0  0  0  0  0
   -8.4760   19.3690  -33.0210 O   0  0  0  0  0  0  0  0  0  0  0  0
   -6.5690   20.0390  -34.3600 O   0  0  0  0  0  0  0  0  0  0  0  0
   -6.0720   18.4720  -32.2710 N   0  0  0  0  0  0  0  0  0  0  0  0
   -6.6750   17.1500  -32.5220 C   0  0  0  0  0  0  0  0  0  0  0  0
   -6.4820   16.6840  -33.9850 C   0  0  0  0  0  0  0  0  0  0  0  0
   -5.4730   17.3970  -34.6800 O   0  0  0  0  0  0  0  0  0  0  0  0
   -4.3430   17.5660  -33.8550 C   0  0  0  0  0  0  0  0  0  0  0  0
   -4.6600   18.5400  -32.7060 C   0  0  0  0  0  0  0  0  0  0  0  0
   -5.6520   22.0410  -32.1440 C   0  0  0  0  0  0  0  0  0  0  0  0
   -4.7300   21.7220  -33.1410 O   0  0  0  0  0  0  0  0  0  0  0  0
   -3.4320   22.6760  -28.3310 C   0  0  0  0  0  0  0  0  0  0  0  0
   -3.0400   21.4940  -27.6940 C   0  0  0  0  0  0  0  0  0  0  0  0
   -1.2970   20.0984  -25.5998 H   0  0  0  0  0  0  0  0  0  0  0  0
   -1.9454   19.2075  -27.0185 H   0  0  0  0  0  0  0  0  0  0  0  0
   -0.2424   19.7791  -27.0185 H   0  0  0  0  0  0  0  0  0  0  0  0
    0.2877   22.1761  -27.2811 H   0  0  0  0  0  0  0  0  0  0  0  0
   -0.4206   24.2945  -28.3882 H   0  0  0  0  0  0  0  0  0  0  0  0
   -6.3035   24.4655  -29.8150 H   0  0  0  0  0  0  0  0  0  0  0  0
   -8.4169   23.1800  -29.6388 H   0  0  0  0  0  0  0  0  0  0  0  0
   -9.3110   20.7919  -29.8288 H   0  0  0  0  0  0  0  0  0  0  0  0
   -9.9437   21.4591  -31.3719 H   0  0  0  0  0  0  0  0  0  0  0  0
   -9.0156   19.9212  -31.3719 H   0  0  0  0  0  0  0  0  0  0  0  0
   -6.2061   16.4145  -31.8518 H   0  0  0  0  0  0  0  0  0  0  0  0
   -7.7559   17.2325  -32.3352 H   0  0  0  0  0  0  0  0  0  0  0  0
   -6.2117   15.6178  -33.9774 H   0  0  0  0  0  0  0  0  0  0  0  0
   -7.4297   16.8720  -34.5108 H   0  0  0  0  0  0  0  0  0  0  0  0
   -4.0517   16.5920  -33.4349 H   0  0  0  0  0  0  0  0  0  0  0  0
   -3.5198   17.9788  -34.4566 H   0  0  0  0  0  0  0  0  0  0  0  0
   -4.0158   18.2942  -31.8489 H   0  0  0  0  0  0  0  0  0  0  0  0
   -4.4757   19.5596  -33.0754 H   0  0  0  0  0  0  0  0  0  0  0  0
   -4.9990   21.5200  -34.0950 H   0  0  0  0  0  0  0  0  0  0  0  0
   -4.4862   22.8273  -28.6062 H   0  0  0  0  0  0  0  0  0  0  0  0
   -3.7824   20.7076  -27.4926 H   0  0  0  0  0  0  0  0  0  0  0  0
  1  2  1  0
  2  3  2  0
  3  4  1  0
  4  5  2  0
  5  6  1  0
  6  7  1  0
  7  8  2  0
  7  9  1  0
  9 10  1  0
 10 11  2  0
 11 12  1  0
 12 13  2  0
 13 14  1  0
 13 15  1  0
 15 16  1  0
 16 17  2  0
 16 18  2  0
 16 19  1  0
 19 20  1  0
 20 21  1  0
 21 22  1  0
 22 23  1  0
 23 24  1  0
 15 25  2  0
 25 26  1  0
  5 27  1  0
 27 28  2  0
 28  2  1  0
 25 10  1  0
 24 19  1  0
  1 29  1  0
  1 30  1  0
  1 31  1  0
  3 32  1  0
  4 33  1  0
 11 34  1  0
 12 35  1  0
 14 36  1  0
 14 37  1  0
 14 38  1  0
 20 39  1  0
 20 40  1  0
 21 41  1  0
 21 42  1  0
 23 43  1  0
 23 44  1  0
 24 45  1  0
 24 46  1  0
 26 47  1  0
 27 48  1  0
 28 49  1  0
M  CHG  2   6  -1   9  -1
M  END
>  <UniqueID>  (46) 
45

>  <SMILES>  (46) 
Cc1ccc([N-]C(=O)[N-]c2ccc(C)c(S(=O)(=O)N3CCOCC3)c2O)cc1

>  <Energy>  (46) 
71.87263237929724

>  <Genealogy>  (46) 
Cc1ccc([N-]C(=O)[N-]c2ccc(C)c(S(=O)(=O)N3CCOCC3)c2O)cc1 (protonated)
Cc1ccc([N-]C(=O)[N-]c2ccc(C)c(S(=O)(=O)N3CCOCC3)c2O)cc1 (3D coordinates assigned)
Cc1ccc([N-]C(=O)[N-]c2ccc(C)c(S(=O)(=O)N3CCOCC3)c2O)cc1 (nonaromatic ring conformer: 71.87263237929724 kcal/mol)

>  <smiles>  (46) 
Cc1ccc(NC(=O)Nc2ccc(C)c(S(=O)(=O)N3CCOCC3)c2O)cc1

>  <score_type>  (46) 
oracle

>  <origin>  (46) 
adgpu

>  <m_score__min__energy>  (46) 
-12.06

>  <m_primary>  (46) 
energy

$$$$
46:0
     RDKit          3D

 23 24  0  0  0  0  0  0  0  0999 V2000
   -4.0472   21.6177  -28.9181 H   0  0  0  0  0  0  0  0  0  0  0  0
   -3.9250   22.5980  -29.4020 C   0  0  0  0  0  0  0  0  0  0  0  0
   -4.7040   22.9230  -30.3910 N   0  0  0  0  0  0  0  0  0  0  0  0
   -5.7470   22.1130  -30.9610 C   0  0  0  0  0  0  0  0  0  0  0  0
   -5.4960   21.0970  -31.9080 C   0  0  0  0  0  0  0  0  0  0  0  0
   -4.4649   20.8920  -32.2318 H   0  0  0  0  0  0  0  0  0  0  0  0
   -6.5540   20.3500  -32.4360 C   0  0  0  0  0  0  0  0  0  0  0  0
   -6.3516   19.5538  -33.1675 H   0  0  0  0  0  0  0  0  0  0  0  0
   -7.8680   20.6120  -32.0370 C   0  0  0  0  0  0  0  0  0  0  0  0
   -9.1920   19.6760  -32.7040 Cl  0  0  0  0  0  0  0  0  0  0  0  0
   -8.1250   21.6280  -31.1110 C   0  0  0  0  0  0  0  0  0  0  0  0
   -9.1588   21.8385  -30.7995 H   0  0  0  0  0  0  0  0  0  0  0  0
   -7.0710   22.3760  -30.5810 C   0  0  0  0  0  0  0  0  0  0  0  0
   -7.2815   23.1787  -29.8589 H   0  0  0  0  0  0  0  0  0  0  0  0
   -2.8720   23.5270  -28.9130 C   0  0  0  0  0  0  0  0  0  0  0  0
   -2.6880   24.8210  -29.4470 C   0  0  0  0  0  0  0  0  0  0  0  0
   -3.4930   25.3000  -30.4750 O   0  0  0  0  0  0  0  0  0  0  0  0
   -1.7080   25.6250  -28.9600 N   0  0  0  0  0  0  0  0  0  0  0  0
   -0.8920   25.2110  -27.9590 C   0  0  0  0  0  0  0  0  0  0  0  0
    0.2760   26.2040  -27.3970 S   0  0  0  0  0  0  0  0  0  0  0  0
   -1.0440   23.9740  -27.4260 N   0  0  0  0  0  0  0  0  0  0  0  0
   -2.0060   23.1270  -27.8740 C   0  0  0  0  0  0  0  0  0  0  0  0
   -2.1100   21.9860  -27.3490 O   0  0  0  0  0  0  0  0  0  0  0  0
  1  2  1  0
  2  3  2  0
  3  4  1  0
  4  5  2  0
  5  6  1  0
  5  7  1  0
  7  8  1  0
  7  9  2  0
  9 10  1  0
  9 11  1  0
 11 12  1  0
 11 13  2  0
 13 14  1  0
  2 15  1  0
 15 16  2  0
 16 17  1  0
 16 18  1  0
 18 19  1  0
 19 20  2  0
 19 21  1  0
 21 22  1  0
 22 23  2  0
 13  4  1  0
 22 15  1  0
M  CHG  3  17  -1  18  -1  21  -1
M  END
>  <UniqueID>  (47) 
46

>  <SMILES>  (47) 
O=c1[n-]c(=S)[n-]c([O-])c1/C=N/c1ccc(Cl)cc1

>  <Energy>  (47) 
30.43652343922802

>  <Genealogy>  (47) 
O=c1[n-]c(=S)[n-]c([O-])c1C=Nc1ccc(Cl)cc1 (protonated)
O=c1[n-]c(=S)[n-]c([O-])c1/C=N/c1ccc(Cl)cc1 (cis-trans isomerization)
O=c1[n-]c(=S)[n-]c([O-])c1/C=N/c1ccc(Cl)cc1 (3D coordinates assigned)
O=c1[n-]c(=S)[n-]c([O-])c1/C=N/c1ccc(Cl)cc1 (optimized conformer: 30.43652343922802 kcal/mol)

>  <smiles>  (47) 
O=c1[nH]c(=S)[nH]c(O)c1C=Nc1ccc(Cl)cc1

>  <score_type>  (47) 
oracle

>  <origin>  (47) 
adgpu

>  <m_score__min__energy>  (47) 
-12

>  <m_primary>  (47) 
energy

$$$$
47:0
     RDKit          3D

 39 41  0  0  0  0  0  0  0  0999 V2000
   -0.8390   26.1810  -28.2340 C   0  0  0  0  0  0  0  0  0  0  0  0
   -1.5040   25.4330  -29.2470 O   0  0  0  0  0  0  0  0  0  0  0  0
   -2.5310   24.5090  -29.0060 C   0  0  0  0  0  0  0  0  0  0  0  0
   -2.3890   23.4550  -28.0830 C   0  0  0  0  0  0  0  0  0  0  0  0
   -3.4350   22.5550  -27.8760 C   0  0  0  0  0  0  0  0  0  0  0  0
   -4.6380   22.7060  -28.5670 C   0  0  0  0  0  0  0  0  0  0  0  0
   -4.8120   23.7710  -29.4650 C   0  0  0  0  0  0  0  0  0  0  0  0
   -6.1440   23.9610  -30.1540 C   0  0  0  0  0  0  0  0  0  0  0  0
   -5.9760   24.2740  -31.5830 N   0  0  0  0  0  0  0  0  0  0  0  0
   -6.6990   23.3420  -32.4640 C   0  0  0  0  0  0  0  0  0  0  0  0
   -6.0540   21.9690  -32.4350 C   0  0  0  0  0  0  0  0  0  0  0  0
   -4.6640   21.9190  -32.6330 C   0  0  0  0  0  0  0  0  0  0  0  0
   -4.0040   20.6930  -32.7070 C   0  0  0  0  0  0  0  0  0  0  0  0
   -2.7610   20.6540  -32.8990 O   0  0  0  0  0  0  0  0  0  0  0  0
   -4.7020   19.5380  -32.5820 N   0  0  0  0  0  0  0  0  0  0  0  0
   -6.0440   19.5270  -32.3750 C   0  0  0  0  0  0  0  0  0  0  0  0
   -6.7040   18.2990  -32.2640 C   0  0  0  0  0  0  0  0  0  0  0  0
   -8.0810   18.2580  -32.0550 C   0  0  0  0  0  0  0  0  0  0  0  0
   -8.8070   19.4430  -31.9520 C   0  0  0  0  0  0  0  0  0  0  0  0
   -8.1630   20.6790  -32.0600 C   0  0  0  0  0  0  0  0  0  0  0  0
   -6.7680   20.7460  -32.2830 C   0  0  0  0  0  0  0  0  0  0  0  0
   -3.7380   24.6500  -29.7070 C   0  0  0  0  0  0  0  0  0  0  0  0
   -3.8680   25.6790  -30.6360 O   0  0  0  0  0  0  0  0  0  0  0  0
   -1.1579   25.8222  -27.2443 H   0  0  0  0  0  0  0  0  0  0  0  0
    0.2485   26.0525  -28.3376 H   0  0  0  0  0  0  0  0  0  0  0  0
   -1.0939   27.2460  -28.3376 H   0  0  0  0  0  0  0  0  0  0  0  0
   -1.4493   23.3407  -27.5227 H   0  0  0  0  0  0  0  0  0  0  0  0
   -3.3110   21.7240  -27.1660 H   0  0  0  0  0  0  0  0  0  0  0  0
   -5.4545   21.9865  -28.4071 H   0  0  0  0  0  0  0  0  0  0  0  0
   -6.7307   23.0355  -30.0580 H   0  0  0  0  0  0  0  0  0  0  0  0
   -6.6612   24.8058  -29.6755 H   0  0  0  0  0  0  0  0  0  0  0  0
   -4.9560   24.1820  -31.8000 H   0  0  0  0  0  0  0  0  0  0  0  0
   -7.7417   23.2586  -32.1238 H   0  0  0  0  0  0  0  0  0  0  0  0
   -6.6637   23.7282  -33.4934 H   0  0  0  0  0  0  0  0  0  0  0  0
   -4.0923   22.8537  -32.7303 H   0  0  0  0  0  0  0  0  0  0  0  0
   -6.1337   17.3616  -32.3420 H   0  0  0  0  0  0  0  0  0  0  0  0
   -8.5955   17.2893  -31.9712 H   0  0  0  0  0  0  0  0  0  0  0  0
   -9.8936   19.4056  -31.7847 H   0  0  0  0  0  0  0  0  0  0  0  0
   -8.7462   21.6074  -31.9708 H   0  0  0  0  0  0  0  0  0  0  0  0
  1  2  1  0
  2  3  1  0
  3  4  2  0
  4  5  1  0
  5  6  2  0
  6  7  1  0
  7  8  1  0
  8  9  1  0
  9 10  1  0
 10 11  1  0
 11 12  2  0
 12 13  1  0
 13 14  2  0
 13 15  1  0
 15 16  1  0
 16 17  2  0
 17 18  1  0
 18 19  2  0
 19 20  1  0
 20 21  2  0
  7 22  2  0
 22 23  1  0
 22  3  1  0
 21 11  1  0
 21 16  1  0
  1 24  1  0
  1 25  1  0
  1 26  1  0
  4 27  1  0
  5 28  1  0
  6 29  1  0
  8 30  1  0
  8 31  1  0
  9 32  1  0
 10 33  1  0
 10 34  1  0
 12 35  1  0
 17 36  1  0
 18 37  1  0
 19 38  1  0
 20 39  1  0
M  CHG  2  15  -1  23  -1
M  END
>  <UniqueID>  (48) 
47

>  <SMILES>  (48) 
COc1cccc(CNCc2cc(=O)[n-]c3ccccc23)c1[O-]

>  <Energy>  (48) 
45.34671014470959

>  <Genealogy>  (48) 
COc1cccc(CNCc2cc(=O)[n-]c3ccccc23)c1[O-] (protonated)
COc1cccc(CNCc2cc(=O)[n-]c3ccccc23)c1[O-] (3D coordinates assigned)
COc1cccc(CNCc2cc(=O)[n-]c3ccccc23)c1[O-] (optimized conformer: 45.34671014470959 kcal/mol)

>  <smiles>  (48) 
COc1cccc(CNCc2cc(=O)[nH]c3ccccc23)c1O

>  <score_type>  (48) 
oracle

>  <origin>  (48) 
adgpu

>  <m_score__min__energy>  (48) 
-12.029999999999999

>  <m_primary>  (48) 
energy

$$$$
48:0
     RDKit          3D

 65 67  0  0  0  0  0  0  0  0999 V2000
   -4.2340   24.2380  -27.3410 C   0  0  0  0  0  0  0  0  0  0  0  0
   -3.9710   23.5990  -28.6730 C   0  0  0  0  0  0  0  0  0  0  0  0
   -2.9060   22.7140  -28.8200 C   0  0  0  0  0  0  0  0  0  0  0  0
   -2.6450   22.0810  -30.0460 C   0  0  0  0  0  0  0  0  0  0  0  0
   -1.5080   21.0880  -30.0850 C   0  0  0  0  0  0  0  0  0  0  0  0
   -3.4930   22.3240  -31.1640 C   0  0  0  0  0  0  0  0  0  0  0  0
   -3.1600   21.5080  -32.7280 S   0  0  0  0  0  0  0  0  0  0  0  0
   -1.7020   21.5200  -33.0730 O   0  0  0  0  0  0  0  0  0  0  0  0
   -3.8700   22.2480  -33.8250 O   0  0  0  0  0  0  0  0  0  0  0  0
   -3.7090   19.8540  -32.7230 N   0  0  0  0  0  0  0  0  0  0  0  0
   -5.1290   19.7330  -33.1050 C   0  0  2  0  0  0  0  0  0  0  0  0
   -5.9550   19.3870  -31.8530 C   0  0  0  0  0  0  0  0  0  0  0  0
   -7.3280   20.0160  -31.8890 C   0  0  0  0  0  0  0  0  0  0  0  0
   -7.5920   21.1940  -31.1720 C   0  0  0  0  0  0  0  0  0  0  0  0
   -8.8650   21.7710  -31.2110 C   0  0  0  0  0  0  0  0  0  0  0  0
   -9.8780   21.1870  -31.9750 C   0  0  0  0  0  0  0  0  0  0  0  0
   -9.6270   20.0120  -32.6850 C   0  0  0  0  0  0  0  0  0  0  0  0
   -8.3620   19.4200  -32.6340 C   0  0  0  0  0  0  0  0  0  0  0  0
   -5.3650   18.6790  -34.1740 C   0  0  0  0  0  0  0  0  0  0  0  0
   -6.0970   18.9190  -35.1700 O   0  0  0  0  0  0  0  0  0  0  0  0
   -4.6550   17.4330  -34.1160 N   0  0  0  0  0  0  0  0  0  0  0  0
   -4.7430   16.6180  -32.9000 C   0  0  0  0  0  0  0  0  0  0  0  0
   -4.4190   15.1300  -33.1640 C   0  0  1  0  0  0  0  0  0  0  0  0
   -5.6830   14.3720  -33.5970 C   0  0  0  0  0  0  0  0  0  0  0  0
   -3.2680   14.8840  -34.1810 C   0  0  0  0  0  0  0  0  0  0  0  0
   -2.5880   16.1510  -34.7190 C   0  0  2  0  0  0  0  0  0  0  0  0
   -1.5320   16.7110  -33.7480 C   0  0  0  0  0  0  0  0  0  0  0  0
   -3.6300   17.2030  -35.1390 C   0  0  0  0  0  0  0  0  0  0  0  0
   -4.6040   23.2060  -30.9950 C   0  0  0  0  0  0  0  0  0  0  0  0
   -5.6270   23.4490  -32.0710 C   0  0  0  0  0  0  0  0  0  0  0  0
   -4.8140   23.8350  -29.7550 C   0  0  0  0  0  0  0  0  0  0  0  0
   -3.9479   23.5428  -26.5380 H   0  0  0  0  0  0  0  0  0  0  0  0
   -3.6429   25.1616  -27.2543 H   0  0  0  0  0  0  0  0  0  0  0  0
   -5.3040   24.4780  -27.2543 H   0  0  0  0  0  0  0  0  0  0  0  0
   -2.2555   22.5064  -27.9576 H   0  0  0  0  0  0  0  0  0  0  0  0
   -1.2118   20.8293  -29.0577 H   0  0  0  0  0  0  0  0  0  0  0  0
   -1.8328   20.1792  -30.6128 H   0  0  0  0  0  0  0  0  0  0  0  0
   -0.6512   21.5322  -30.6128 H   0  0  0  0  0  0  0  0  0  0  0  0
   -3.0970   19.2590  -33.3250 H   0  0  0  0  0  0  0  0  0  0  0  0
   -5.4412   20.6981  -33.5306 H   0  0  0  0  0  0  0  0  0  0  0  0
   -6.0665   18.2944  -31.7919 H   0  0  0  0  0  0  0  0  0  0  0  0
   -5.4231   19.7825  -30.9751 H   0  0  0  0  0  0  0  0  0  0  0  0
   -6.7948   21.6644  -30.5777 H   0  0  0  0  0  0  0  0  0  0  0  0
   -9.0693   22.6876  -30.6383 H   0  0  0  0  0  0  0  0  0  0  0  0
  -10.8735   21.6531  -32.0171 H   0  0  0  0  0  0  0  0  0  0  0  0
  -10.4255   19.5514  -33.2853 H   0  0  0  0  0  0  0  0  0  0  0  0
   -8.1738   18.4833  -33.1791 H   0  0  0  0  0  0  0  0  0  0  0  0
   -4.0293   17.0092  -32.1600 H   0  0  0  0  0  0  0  0  0  0  0  0
   -5.7777   16.6759  -32.5313 H   0  0  0  0  0  0  0  0  0  0  0  0
   -4.0517   14.7393  -32.2036 H   0  0  0  0  0  0  0  0  0  0  0  0
   -6.2354   14.0407  -32.7053 H   0  0  0  0  0  0  0  0  0  0  0  0
   -6.3213   15.0365  -34.1979 H   0  0  0  0  0  0  0  0  0  0  0  0
   -5.3974   13.4960  -34.1979 H   0  0  0  0  0  0  0  0  0  0  0  0
   -2.5011   14.2709  -33.6850 H   0  0  0  0  0  0  0  0  0  0  0  0
   -3.7292   14.3929  -35.0505 H   0  0  0  0  0  0  0  0  0  0  0  0
   -2.0324   15.8671  -35.6250 H   0  0  0  0  0  0  0  0  0  0  0  0
   -1.8583   16.5380  -32.7119 H   0  0  0  0  0  0  0  0  0  0  0  0
   -0.5709   16.2040  -33.9193 H   0  0  0  0  0  0  0  0  0  0  0  0
   -1.4125   17.7910  -33.9193 H   0  0  0  0  0  0  0  0  0  0  0  0
   -3.1104   18.1526  -35.3346 H   0  0  0  0  0  0  0  0  0  0  0  0
   -4.1397   16.8220  -36.0362 H   0  0  0  0  0  0  0  0  0  0  0  0
   -6.5980   23.6796  -31.6084 H   0  0  0  0  0  0  0  0  0  0  0  0
   -5.3079   24.2963  -32.6957 H   0  0  0  0  0  0  0  0  0  0  0  0
   -5.7231   22.5487  -32.6957 H   0  0  0  0  0  0  0  0  0  0  0  0
   -5.6610   24.5270  -29.6379 H   0  0  0  0  0  0  0  0  0  0  0  0
  1  2  1  0
  2  3  2  0
  3  4  1  0
  4  5  1  0
  4  6  2  0
  6  7  1  0
  7  8  2  0
  7  9  2  0
  7 10  1  0
 10 11  1  0
 11 12  1  0
 12 13  1  0
 13 14  2  0
 14 15  1  0
 15 16  2  0
 16 17  1  0
 17 18  2  0
 11 19  1  0
 19 20  2  0
 19 21  1  0
 21 22  1  0
 22 23  1  0
 23 24  1  0
 23 25  1  0
 25 26  1  0
 26 27  1  0
 26 28  1  0
  6 29  1  0
 29 30  1  0
 29 31  2  0
 31  2  1  0
 18 13  1  0
 28 21  1  0
  1 32  1  0
  1 33  1  0
  1 34  1  0
  3 35  1  0
  5 36  1  0
  5 37  1  0
  5 38  1  0
 10 39  1  0
 11 40  1  6
 12 41  1  0
 12 42  1  0
 14 43  1  0
 15 44  1  0
 16 45  1  0
 17 46  1  0
 18 47  1  0
 22 48  1  0
 22 49  1  0
 23 50  1  1
 24 51  1  0
 24 52  1  0
 24 53  1  0
 25 54  1  0
 25 55  1  0
 26 56  1  6
 27 57  1  0
 27 58  1  0
 27 59  1  0
 28 60  1  0
 28 61  1  0
 30 62  1  0
 30 63  1  0
 30 64  1  0
 31 65  1  0
M  END
>  <UniqueID>  (49) 
48

>  <SMILES>  (49) 
Cc1cc(C)c(S(=O)(=O)N[C@H](Cc2ccccc2)C(=O)N2CC(C)C[C@H](C)C2)c(C)c1

>  <Energy>  (49) 
74.86810543379492

>  <Genealogy>  (49) 
Cc1cc(C)c(S(=O)(=O)N[C@H](Cc2ccccc2)C(=O)N2CC(C)C[C@H](C)C2)c(C)c1 (chirality)
Cc1cc(C)c(S(=O)(=O)N[C@H](Cc2ccccc2)C(=O)N2CC(C)C[C@H](C)C2)c(C)c1 (3D coordinates assigned)
Cc1cc(C)c(S(=O)(=O)N[C@H](Cc2ccccc2)C(=O)N2CC(C)C[C@H](C)C2)c(C)c1 (nonaromatic ring conformer: 74.86810543379492 kcal/mol)

>  <smiles>  (49) 
Cc1cc(C)c(S(=O)(=O)NC(Cc2ccccc2)C(=O)N2CC(C)CC(C)C2)c(C)c1

>  <score_type>  (49) 
oracle

>  <origin>  (49) 
adgpu

>  <m_score__min__energy>  (49) 
-10.73

>  <m_primary>  (49) 
energy

$$$$
49:0
     RDKit          3D

 41 43  0  0  0  0  0  0  0  0999 V2000
   -1.1950   21.8400  -25.7100 O   0  0  0  0  0  0  0  0  0  0  0  0
   -1.5230   21.3310  -27.0870 S   0  0  0  0  0  0  0  0  0  0  0  0
   -2.4730   20.1710  -26.9490 O   0  0  0  0  0  0  0  0  0  0  0  0
   -0.0380   20.8150  -27.8200 N   0  0  0  0  0  0  0  0  0  0  0  0
    0.1340   20.2750  -29.1390 C   0  0  0  0  0  0  0  0  0  0  0  0
   -0.6800   20.6600  -30.2200 C   0  0  0  0  0  0  0  0  0  0  0  0
   -0.4770   20.1080  -31.4950 C   0  0  0  0  0  0  0  0  0  0  0  0
   -1.5200   20.5800  -32.8470 S   0  0  0  0  0  0  0  0  0  0  0  0
   -1.8990   19.3520  -33.6320 O   0  0  0  0  0  0  0  0  0  0  0  0
   -0.7530   21.4970  -33.7620 O   0  0  0  0  0  0  0  0  0  0  0  0
   -2.9740   21.3970  -32.3110 N   0  0  0  0  0  0  0  0  0  0  0  0
   -3.9060   21.6370  -33.4280 C   0  0  0  0  0  0  0  0  0  0  0  0
   -5.2520   21.0320  -33.0560 C   0  0  0  0  0  0  0  0  0  0  0  0
   -4.9230   20.0200  -31.9860 C   0  0  0  0  0  0  0  0  0  0  0  0
   -3.6970   20.6030  -31.3080 C   0  0  0  0  0  0  0  0  0  0  0  0
    0.5390   19.1620  -31.6850 C   0  0  0  0  0  0  0  0  0  0  0  0
    1.3550   18.7810  -30.6180 C   0  0  0  0  0  0  0  0  0  0  0  0
    1.1590   19.3390  -29.3520 C   0  0  0  0  0  0  0  0  0  0  0  0
    1.9900   18.9610  -28.3020 O   0  0  0  0  0  0  0  0  0  0  0  0
   -2.2600   22.6390  -28.0080 C   0  0  0  0  0  0  0  0  0  0  0  0
   -3.5420   22.4910  -28.5620 C   0  0  0  0  0  0  0  0  0  0  0  0
   -4.0740   23.5120  -29.3650 C   0  0  0  0  0  0  0  0  0  0  0  0
   -3.3360   24.6640  -29.6260 C   0  0  0  0  0  0  0  0  0  0  0  0
   -3.8660   25.6580  -30.4450 O   0  0  0  0  0  0  0  0  0  0  0  0
   -2.0610   24.8170  -29.0690 C   0  0  0  0  0  0  0  0  0  0  0  0
   -1.3090   25.9560  -29.3450 O   0  0  0  0  0  0  0  0  0  0  0  0
   -1.5300   23.8180  -28.2500 C   0  0  0  0  0  0  0  0  0  0  0  0
   -1.4807   21.3983  -30.0653 H   0  0  0  0  0  0  0  0  0  0  0  0
   -4.0165   22.7184  -33.5961 H   0  0  0  0  0  0  0  0  0  0  0  0
   -3.5226   21.1775  -34.3509 H   0  0  0  0  0  0  0  0  0  0  0  0
   -5.9319   21.8040  -32.6664 H   0  0  0  0  0  0  0  0  0  0  0  0
   -5.7626   20.5801  -33.9192 H   0  0  0  0  0  0  0  0  0  0  0  0
   -5.7546   19.9177  -31.2732 H   0  0  0  0  0  0  0  0  0  0  0  0
   -4.7490   19.0119  -32.3903 H   0  0  0  0  0  0  0  0  0  0  0  0
   -4.0017   21.2454  -30.4687 H   0  0  0  0  0  0  0  0  0  0  0  0
   -3.0555   19.8021  -30.9116 H   0  0  0  0  0  0  0  0  0  0  0  0
    0.6944   18.7175  -32.6791 H   0  0  0  0  0  0  0  0  0  0  0  0
    2.1533   18.0405  -30.7742 H   0  0  0  0  0  0  0  0  0  0  0  0
   -4.1263   21.5795  -28.3676 H   0  0  0  0  0  0  0  0  0  0  0  0
   -5.0819   23.4014  -29.7916 H   0  0  0  0  0  0  0  0  0  0  0  0
   -0.5386   23.9529  -27.7928 H   0  0  0  0  0  0  0  0  0  0  0  0
  1  2  2  0
  2  3  2  0
  2  4  1  0
  4  5  1  0
  5  6  2  0
  6  7  1  0
  7  8  1  0
  8  9  2  0
  8 10  2  0
  8 11  1  0
 11 12  1  0
 12 13  1  0
 13 14  1  0
 14 15  1  0
  7 16  2  0
 16 17  1  0
 17 18  2  0
 18 19  1  0
  2 20  1  0
 20 21  2  0
 21 22  1  0
 22 23  2  0
 23 24  1  0
 23 25  1  0
 25 26  1  0
 25 27  2  0
 18  5  1  0
 27 20  1  0
 15 11  1  0
  6 28  1  0
 12 29  1  0
 12 30  1  0
 13 31  1  0
 13 32  1  0
 14 33  1  0
 14 34  1  0
 15 35  1  0
 15 36  1  0
 16 37  1  0
 17 38  1  0
 21 39  1  0
 22 40  1  0
 27 41  1  0
M  CHG  4   4  -1  19  -1  24  -1  26  -1
M  END
>  <UniqueID>  (50) 
49

>  <SMILES>  (50) 
O=S(=O)([N-]c1cc(S(=O)(=O)N2CCCC2)ccc1[O-])c1ccc([O-])c([O-])c1

>  <Energy>  (50) 
47.18884539003943

>  <Genealogy>  (50) 
O=S(=O)([N-]c1cc(S(=O)(=O)N2CCCC2)ccc1[O-])c1ccc([O-])c([O-])c1 (protonated)
O=S(=O)([N-]c1cc(S(=O)(=O)N2CCCC2)ccc1[O-])c1ccc([O-])c([O-])c1 (3D coordinates assigned)
O=S(=O)([N-]c1cc(S(=O)(=O)N2CCCC2)ccc1[O-])c1ccc([O-])c([O-])c1 (nonaromatic ring conformer: 47.18884539003943 kcal/mol)

>  <smiles>  (50) 
O=S(=O)(Nc1cc(S(=O)(=O)N2CCCC2)ccc1O)c1ccc(O)c(O)c1

>  <score_type>  (50) 
oracle

>  <origin>  (50) 
adgpu

>  <m_score__min__energy>  (50) 
-13.949999999999999

>  <m_primary>  (50) 
energy

$$$$
