0:0
     RDKit          3D

 49 53  0  0  0  0  0  0  0  0999 V2000
   -1.9070   25.2050  -29.0130 O   0  0  0  0  0  0  0  0  0  0  0  0
   -3.0270   24.2020  -29.0070 S   0  0  0  0  0  0  0  0  0  0  0  0
   -4.0200   24.5850  -27.9480 O   0  0  0  0  0  0  0  0  0  0  0  0
   -3.8090   24.2190  -30.5570 N   0  0  0  0  0  0  0  0  0  0  0  0
   -4.9340   23.3880  -30.8950 C   0  0  0  0  0  0  0  0  0  0  0  0
   -4.7660   21.9780  -30.9110 C   0  0  0  0  0  0  0  0  0  0  0  0
   -5.8350   21.1270  -31.2420 C   0  0  0  0  0  0  0  0  0  0  0  0
   -7.0610   21.7170  -31.5510 C   0  0  0  0  0  0  0  0  0  0  0  0
   -7.2350   23.0680  -31.5330 C   0  0  0  0  0  0  0  0  0  0  0  0
   -6.2000   23.9410  -31.2090 C   0  0  0  0  0  0  0  0  0  0  0  0
   -8.5060   23.3860  -31.8430 N   0  0  0  0  0  0  0  0  0  0  0  0
   -9.0840   22.1740  -32.0480 C   0  0  0  0  0  0  0  0  0  0  0  0
   -8.2250   21.1370  -31.8850 N   0  0  0  0  0  0  0  0  0  0  0  0
   -8.5490   19.7130  -31.9470 C   0  0  0  0  0  0  0  0  0  0  0  0
   -7.4410   18.9600  -32.6320 C   0  0  0  0  0  0  0  0  0  0  0  0
   -6.7960   19.5010  -33.7570 C   0  0  0  0  0  0  0  0  0  0  0  0
   -5.7430   18.8110  -34.3650 C   0  0  0  0  0  0  0  0  0  0  0  0
   -5.3220   17.5810  -33.8520 C   0  0  0  0  0  0  0  0  0  0  0  0
   -5.9540   17.0390  -32.7300 C   0  0  0  0  0  0  0  0  0  0  0  0
   -7.0080   17.7250  -32.1190 C   0  0  0  0  0  0  0  0  0  0  0  0
   -2.4160   22.5900  -28.6560 C   0  0  0  0  0  0  0  0  0  0  0  0
   -3.1140   21.7400  -27.7830 C   0  0  0  0  0  0  0  0  0  0  0  0
   -2.6180   20.4650  -27.4940 C   0  0  0  0  0  0  0  0  0  0  0  0
   -1.4220   20.0350  -28.0760 C   0  0  0  0  0  0  0  0  0  0  0  0
   -0.7400   20.8660  -28.9750 C   0  0  0  0  0  0  0  0  0  0  0  0
   -1.2280   22.1460  -29.2550 C   0  0  0  0  0  0  0  0  0  0  0  0
    0.4280   20.3970  -29.5820 O   0  0  0  0  0  0  0  0  0  0  0  0
    0.7830   19.0130  -29.5270 C   0  0  0  0  0  0  0  0  0  0  0  0
    0.4480   18.4330  -28.1470 C   0  0  0  0  0  0  0  0  0  0  0  0
   -0.8910   18.7760  -27.7770 O   0  0  0  0  0  0  0  0  0  0  0  0
   -3.4810   24.9340  -31.2450 H   0  0  0  0  0  0  0  0  0  0  0  0
   -3.7859   21.5457  -30.6610 H   0  0  0  0  0  0  0  0  0  0  0  0
   -5.7092   20.0343  -31.2568 H   0  0  0  0  0  0  0  0  0  0  0  0
   -6.3606   25.0291  -31.1971 H   0  0  0  0  0  0  0  0  0  0  0  0
  -10.1424   22.0463  -32.3190 H   0  0  0  0  0  0  0  0  0  0  0  0
   -8.6762   19.3240  -30.9260 H   0  0  0  0  0  0  0  0  0  0  0  0
   -9.4805   19.5802  -32.5168 H   0  0  0  0  0  0  0  0  0  0  0  0
   -7.1208   20.4712  -34.1609 H   0  0  0  0  0  0  0  0  0  0  0  0
   -5.2450   19.2369  -35.2486 H   0  0  0  0  0  0  0  0  0  0  0  0
   -4.4931   17.0397  -34.3316 H   0  0  0  0  0  0  0  0  0  0  0  0
   -5.6218   16.0710  -32.3267 H   0  0  0  0  0  0  0  0  0  0  0  0
   -7.5003   17.2966  -31.2335 H   0  0  0  0  0  0  0  0  0  0  0  0
   -4.0549   22.0786  -27.3246 H   0  0  0  0  0  0  0  0  0  0  0  0
   -3.1678   19.8017  -26.8101 H   0  0  0  0  0  0  0  0  0  0  0  0
   -0.6803   22.8047  -29.9450 H   0  0  0  0  0  0  0  0  0  0  0  0
    0.2224   18.4635  -30.2976 H   0  0  0  0  0  0  0  0  0  0  0  0
    1.8639   18.9131  -29.7048 H   0  0  0  0  0  0  0  0  0  0  0  0
    0.5464   17.3379  -28.1798 H   0  0  0  0  0  0  0  0  0  0  0  0
    1.1432   18.8512  -27.4042 H   0  0  0  0  0  0  0  0  0  0  0  0
  1  2  2  0
  2  3  2  0
  2  4  1  0
  4  5  1  0
  5  6  2  0
  6  7  1  0
  7  8  2  0
  8  9  1  0
  9 10  2  0
  9 11  1  0
 11 12  2  0
 12 13  1  0
 13 14  1  0
 14 15  1  0
 15 16  2  0
 16 17  1  0
 17 18  2  0
 18 19  1  0
 19 20  2  0
  2 21  1  0
 21 22  2  0
 22 23  1  0
 23 24  2  0
 24 25  1  0
 25 26  2  0
 25 27  1  0
 27 28  1  0
 28 29  1  0
 29 30  1  0
 10  5  1  0
 20 15  1  0
 26 21  1  0
 13  8  1  0
 30 24  1  0
  4 31  1  0
  6 32  1  0
  7 33  1  0
 10 34  1  0
 12 35  1  0
 14 36  1  0
 14 37  1  0
 16 38  1  0
 17 39  1  0
 18 40  1  0
 19 41  1  0
 20 42  1  0
 22 43  1  0
 23 44  1  0
 26 45  1  0
 28 46  1  0
 28 47  1  0
 29 48  1  0
 29 49  1  0
M  END
>  <UniqueID>  (1) 
1

>  <SMILES>  (1) 
O=S(=O)(Nc1ccc2c(c1)ncn2Cc1ccccc1)c1ccc2c(c1)OCCO2

>  <Energy>  (1) 
93.83994214149314

>  <Genealogy>  (1) 
O=S(=O)(Nc1ccc2c(c1)ncn2Cc1ccccc1)c1ccc2c(c1)OCCO2 (3D coordinates assigned)
O=S(=O)(Nc1ccc2c(c1)ncn2Cc1ccccc1)c1ccc2c(c1)OCCO2 (nonaromatic ring conformer: 93.83994214149314 kcal/mol)

>  <smiles>  (1) 
O=S(=O)(Nc1ccc2c(c1)ncn2Cc1ccccc1)c1ccc2c(c1)OCCO2

>  <score_type>  (1) 
oracle

>  <origin>  (1) 
adgpu

>  <m_score__min__energy>  (1) 
-9.7799999999999994

>  <m_primary>  (1) 
energy

$$$$
1:0
     RDKit          3D

 69 72  0  0  0  0  0  0  0  0999 V2000
   -0.3150   21.1320  -32.3910 C   0  0  0  0  0  0  0  0  0  0  0  0
   -0.8260   21.1150  -30.9810 C   0  0  0  0  0  0  0  0  0  0  0  0
   -1.2900   20.0410  -30.5140 O   0  0  0  0  0  0  0  0  0  0  0  0
   -0.8490   22.2940  -30.1670 N   0  0  0  0  0  0  0  0  0  0  0  0
   -1.9760   22.8120  -29.4420 C   0  0  0  0  0  0  0  0  0  0  0  0
   -3.0300   23.4580  -30.1080 C   0  0  0  0  0  0  0  0  0  0  0  0
   -4.1470   23.9150  -29.3990 C   0  0  0  0  0  0  0  0  0  0  0  0
   -5.5040   24.6250  -30.2650 S   0  0  0  0  0  0  0  0  0  0  0  0
   -6.4590   25.2770  -29.3020 O   0  0  0  0  0  0  0  0  0  0  0  0
   -5.0000   25.6770  -31.2160 O   0  0  0  0  0  0  0  0  0  0  0  0
   -6.3170   23.3670  -31.1400 N   0  0  0  0  0  0  0  0  0  0  0  0
   -7.7500   23.1820  -30.9250 C   0  0  0  0  0  0  0  0  0  0  0  0
   -5.5390   22.3120  -31.7190 C   0  0  0  0  0  0  0  0  0  0  0  0
   -4.5860   22.5900  -32.7100 C   0  0  0  0  0  0  0  0  0  0  0  0
   -3.8260   21.5570  -33.2660 C   0  0  0  0  0  0  0  0  0  0  0  0
   -4.0100   20.2360  -32.8380 C   0  0  0  0  0  0  0  0  0  0  0  0
   -3.0330   18.9320  -33.5200 S   0  0  0  0  0  0  0  0  0  0  0  0
   -2.2410   18.2780  -32.4220 O   0  0  0  0  0  0  0  0  0  0  0  0
   -2.0610   19.5120  -34.5110 O   0  0  0  0  0  0  0  0  0  0  0  0
   -4.0250   17.7320  -34.3150 N   0  0  0  0  0  0  0  0  0  0  0  0
   -4.0860   16.4980  -33.5020 C   0  0  0  0  0  0  0  0  0  0  0  0
   -5.2200   15.5820  -33.9720 C   0  0  0  0  0  0  0  0  0  0  0  0
   -6.5890   16.2660  -33.8130 C   0  0  0  0  0  0  0  0  0  0  0  0
   -6.4920   17.8010  -33.8120 C   0  0  0  0  0  0  0  0  0  0  0  0
   -5.3450   18.2830  -34.7110 C   0  0  0  0  0  0  0  0  0  0  0  0
   -4.9640   19.9580  -31.8480 C   0  0  0  0  0  0  0  0  0  0  0  0
   -5.7290   20.9890  -31.2980 C   0  0  0  0  0  0  0  0  0  0  0  0
   -4.2130   23.7280  -28.0150 C   0  0  0  0  0  0  0  0  0  0  0  0
   -3.1530   23.1230  -27.3390 C   0  0  0  0  0  0  0  0  0  0  0  0
   -2.0210   22.6890  -28.0360 C   0  0  0  0  0  0  0  0  0  0  0  0
   -0.9790   22.0940  -27.3110 O   0  0  0  0  0  0  0  0  0  0  0  0
   -0.5460   20.7680  -27.4590 C   0  0  0  0  0  0  0  0  0  0  0  0
   -1.3860   19.7390  -27.0250 C   0  0  0  0  0  0  0  0  0  0  0  0
   -0.9870   18.4050  -27.1310 C   0  0  0  0  0  0  0  0  0  0  0  0
    0.2610   18.0750  -27.6840 C   0  0  0  0  0  0  0  0  0  0  0  0
    0.6760   16.6310  -27.7790 C   0  0  0  0  0  0  0  0  0  0  0  0
    1.1210   19.1110  -28.1100 C   0  0  0  0  0  0  0  0  0  0  0  0
    2.4250   18.8250  -28.6610 C   0  0  0  0  0  0  0  0  0  0  0  0
    3.4670   18.5960  -29.1100 N   0  0  0  0  0  0  0  0  0  0  0  0
    0.7150   20.4480  -27.9910 C   0  0  0  0  0  0  0  0  0  0  0  0
    0.7844   21.1686  -32.3822 H   0  0  0  0  0  0  0  0  0  0  0  0
   -0.6474   20.2223  -32.9125 H   0  0  0  0  0  0  0  0  0  0  0  0
   -0.7072   22.0176  -32.9125 H   0  0  0  0  0  0  0  0  0  0  0  0
   -2.9774   23.6062  -31.1967 H   0  0  0  0  0  0  0  0  0  0  0  0
   -7.9583   23.1551  -29.8452 H   0  0  0  0  0  0  0  0  0  0  0  0
   -8.3004   24.0165  -31.3839 H   0  0  0  0  0  0  0  0  0  0  0  0
   -8.0704   22.2350  -31.3839 H   0  0  0  0  0  0  0  0  0  0  0  0
   -4.4361   23.6250  -33.0509 H   0  0  0  0  0  0  0  0  0  0  0  0
   -3.0804   21.7824  -34.0428 H   0  0  0  0  0  0  0  0  0  0  0  0
   -3.1301   15.9611  -33.5920 H   0  0  0  0  0  0  0  0  0  0  0  0
   -4.2754   16.7788  -32.4554 H   0  0  0  0  0  0  0  0  0  0  0  0
   -5.0642   15.3329  -35.0320 H   0  0  0  0  0  0  0  0  0  0  0  0
   -5.2114   14.6716  -33.3546 H   0  0  0  0  0  0  0  0  0  0  0  0
   -7.2360   15.9553  -34.6466 H   0  0  0  0  0  0  0  0  0  0  0  0
   -7.0012   15.9596  -32.8403 H   0  0  0  0  0  0  0  0  0  0  0  0
   -7.4390   18.2210  -34.1817 H   0  0  0  0  0  0  0  0  0  0  0  0
   -6.2949   18.1379  -32.7836 H   0  0  0  0  0  0  0  0  0  0  0  0
   -5.5573   17.9745  -35.7453 H   0  0  0  0  0  0  0  0  0  0  0  0
   -5.2874   19.3770  -34.6116 H   0  0  0  0  0  0  0  0  0  0  0  0
   -5.1102   18.9237  -31.5034 H   0  0  0  0  0  0  0  0  0  0  0  0
   -6.4839   20.7615  -30.5310 H   0  0  0  0  0  0  0  0  0  0  0  0
   -5.1022   24.0584  -27.4581 H   0  0  0  0  0  0  0  0  0  0  0  0
   -3.2082   22.9863  -26.2489 H   0  0  0  0  0  0  0  0  0  0  0  0
   -2.3695   19.9818  -26.5964 H   0  0  0  0  0  0  0  0  0  0  0  0
   -1.6558   17.6060  -26.7784 H   0  0  0  0  0  0  0  0  0  0  0  0
    0.7952   16.2164  -26.7671 H   0  0  0  0  0  0  0  0  0  0  0  0
   -0.0952   16.0627  -28.3196 H   0  0  0  0  0  0  0  0  0  0  0  0
    1.6312   16.5588  -28.3196 H   0  0  0  0  0  0  0  0  0  0  0  0
    1.3895   21.2535  -28.3169 H   0  0  0  0  0  0  0  0  0  0  0  0
  1  2  1  0
  2  3  2  0
  2  4  1  0
  4  5  1  0
  5  6  2  0
  6  7  1  0
  7  8  1  0
  8  9  2  0
  8 10  2  0
  8 11  1  0
 11 12  1  0
 11 13  1  0
 13 14  2  0
 14 15  1  0
 15 16  2  0
 16 17  1  0
 17 18  2  0
 17 19  2  0
 17 20  1  0
 20 21  1  0
 21 22  1  0
 22 23  1  0
 23 24  1  0
 24 25  1  0
 16 26  1  0
 26 27  2  0
  7 28  2  0
 28 29  1  0
 29 30  2  0
 30 31  1  0
 31 32  1  0
 32 33  2  0
 33 34  1  0
 34 35  2  0
 35 36  1  0
 35 37  1  0
 37 38  1  0
 38 39  3  0
 37 40  2  0
 30  5  1  0
 40 32  1  0
 27 13  1  0
 25 20  1  0
  1 41  1  0
  1 42  1  0
  1 43  1  0
  6 44  1  0
 12 45  1  0
 12 46  1  0
 12 47  1  0
 14 48  1  0
 15 49  1  0
 21 50  1  0
 21 51  1  0
 22 52  1  0
 22 53  1  0
 23 54  1  0
 23 55  1  0
 24 56  1  0
 24 57  1  0
 25 58  1  0
 25 59  1  0
 26 60  1  0
 27 61  1  0
 28 62  1  0
 29 63  1  0
 33 64  1  0
 34 65  1  0
 36 66  1  0
 36 67  1  0
 36 68  1  0
 40 69  1  0
M  CHG  1   4  -1
M  END
>  <UniqueID>  (2) 
2

>  <SMILES>  (2) 
CC(=O)[N-]c1cc(S(=O)(=O)N(C)c2ccc(S(=O)(=O)N3CCCCC3)cc2)ccc1Oc1ccc(C)c(C#N)c1

>  <Energy>  (2) 
90.08347435962345

>  <Genealogy>  (2) 
CC(=O)[N-]c1cc(S(=O)(=O)N(C)c2ccc(S(=O)(=O)N3CCCCC3)cc2)ccc1Oc1ccc(C)c(C#N)c1 (protonated)
CC(=O)[N-]c1cc(S(=O)(=O)N(C)c2ccc(S(=O)(=O)N3CCCCC3)cc2)ccc1Oc1ccc(C)c(C#N)c1 (3D coordinates assigned)
CC(=O)[N-]c1cc(S(=O)(=O)N(C)c2ccc(S(=O)(=O)N3CCCCC3)cc2)ccc1Oc1ccc(C)c(C#N)c1 (nonaromatic ring conformer: 90.08347435962345 kcal/mol)

>  <smiles>  (2) 
CC(=O)Nc1cc(S(=O)(=O)N(C)c2ccc(S(=O)(=O)N3CCCCC3)cc2)ccc1Oc1ccc(C)c(C#N)c1

>  <score_type>  (2) 
oracle

>  <origin>  (2) 
adgpu

>  <m_score__min__energy>  (2) 
-13.470000000000001

>  <m_primary>  (2) 
energy

$$$$
2:0
     RDKit          3D

 59 62  0  0  0  0  0  0  0  0999 V2000
   -9.1060   18.4410  -31.6390 C   0  0  0  0  0  0  0  0  0  0  0  0
   -8.5660   19.2550  -32.6750 O   0  0  0  0  0  0  0  0  0  0  0  0
   -7.6150   20.2690  -32.4800 C   0  0  0  0  0  0  0  0  0  0  0  0
   -7.9820   21.5550  -32.0370 C   0  0  0  0  0  0  0  0  0  0  0  0
   -7.0100   22.5330  -31.8210 C   0  0  0  0  0  0  0  0  0  0  0  0
   -5.6580   22.2400  -32.0200 C   0  0  0  0  0  0  0  0  0  0  0  0
   -4.6840   23.2630  -31.8090 N   0  0  0  0  0  0  0  0  0  0  0  0
   -4.6680   24.2900  -30.4110 S   0  0  0  0  0  0  0  0  0  0  0  0
   -4.2830   25.6790  -30.8350 O   0  0  0  0  0  0  0  0  0  0  0  0
   -6.0470   24.3370  -29.8170 O   0  0  0  0  0  0  0  0  0  0  0  0
   -3.5290   23.7200  -29.1930 C   0  0  0  0  0  0  0  0  0  0  0  0
   -3.7120   22.4750  -28.5750 C   0  0  0  0  0  0  0  0  0  0  0  0
   -2.8040   22.0320  -27.6090 C   0  0  0  0  0  0  0  0  0  0  0  0
   -1.7170   22.8320  -27.2480 C   0  0  0  0  0  0  0  0  0  0  0  0
   -1.5390   24.0870  -27.8470 C   0  0  0  0  0  0  0  0  0  0  0  0
   -0.2100   25.1320  -27.3550 S   0  0  0  0  0  0  0  0  0  0  0  0
   -0.3860   26.4990  -27.9620 O   0  0  0  0  0  0  0  0  0  0  0  0
    1.0830   24.5500  -27.8560 O   0  0  0  0  0  0  0  0  0  0  0  0
   -0.1720   25.2390  -25.6140 N   0  0  0  0  0  0  0  0  0  0  0  0
   -1.3170   25.9840  -25.0890 C   0  0  0  0  0  0  0  0  0  0  0  0
   -0.8740   26.5820  -23.7610 C   0  0  0  0  0  0  0  0  0  0  0  0
    0.6490   26.5800  -23.8050 C   0  0  0  0  0  0  0  0  0  0  0  0
    1.0190   25.9470  -25.1390 C   0  0  0  0  0  0  0  0  0  0  0  0
   -2.4410   24.5230  -28.8260 C   0  0  0  0  0  0  0  0  0  0  0  0
   -5.2870   20.9740  -32.4870 C   0  0  0  0  0  0  0  0  0  0  0  0
   -6.2550   19.9860  -32.7220 C   0  0  0  0  0  0  0  0  0  0  0  0
   -5.8450   18.7000  -33.2180 N   0  0  0  0  0  0  0  0  0  0  0  0
   -4.8260   18.6090  -34.2640 C   0  0  0  0  0  0  0  0  0  0  0  0
   -5.1220   17.4070  -35.1670 C   0  0  0  0  0  0  0  0  0  0  0  0
   -5.2970   16.2310  -34.3990 O   0  0  0  0  0  0  0  0  0  0  0  0
   -6.4420   16.3580  -33.5760 C   0  0  0  0  0  0  0  0  0  0  0  0
   -6.2420   17.4660  -32.5380 C   0  0  0  0  0  0  0  0  0  0  0  0
   -8.8279   18.8602  -30.6608 H   0  0  0  0  0  0  0  0  0  0  0  0
  -10.2021   18.4135  -31.7280 H   0  0  0  0  0  0  0  0  0  0  0  0
   -8.7052   17.4205  -31.7280 H   0  0  0  0  0  0  0  0  0  0  0  0
   -9.0420   21.7899  -31.8601 H   0  0  0  0  0  0  0  0  0  0  0  0
   -7.3094   23.5392  -31.4926 H   0  0  0  0  0  0  0  0  0  0  0  0
   -4.5712   21.8459  -28.8506 H   0  0  0  0  0  0  0  0  0  0  0  0
   -2.9457   21.0511  -27.1318 H   0  0  0  0  0  0  0  0  0  0  0  0
   -1.0001   22.4768  -26.4931 H   0  0  0  0  0  0  0  0  0  0  0  0
   -0.1780   24.2680  -25.2180 H   0  0  0  0  0  0  0  0  0  0  0  0
   -1.6031   26.7832  -25.7886 H   0  0  0  0  0  0  0  0  0  0  0  0
   -2.1906   25.3286  -24.9575 H   0  0  0  0  0  0  0  0  0  0  0  0
   -1.2547   27.6086  -23.6550 H   0  0  0  0  0  0  0  0  0  0  0  0
   -1.2595   26.0087  -22.9050 H   0  0  0  0  0  0  0  0  0  0  0  0
    1.0362   27.6080  -23.7472 H   0  0  0  0  0  0  0  0  0  0  0  0
    1.0800   26.0260  -22.9581 H   0  0  0  0  0  0  0  0  0  0  0  0
    1.3102   26.7251  -25.8600 H   0  0  0  0  0  0  0  0  0  0  0  0
    1.8701   25.2590  -25.0278 H   0  0  0  0  0  0  0  0  0  0  0  0
   -2.2945   25.5004  -29.3089 H   0  0  0  0  0  0  0  0  0  0  0  0
   -4.2257   20.7513  -32.6717 H   0  0  0  0  0  0  0  0  0  0  0  0
   -4.8356   19.5299  -34.8655 H   0  0  0  0  0  0  0  0  0  0  0  0
   -3.8367   18.4824  -33.8001 H   0  0  0  0  0  0  0  0  0  0  0  0
   -6.0406   17.6037  -35.7393 H   0  0  0  0  0  0  0  0  0  0  0  0
   -4.2704   17.2596  -35.8474 H   0  0  0  0  0  0  0  0  0  0  0  0
   -7.3120   16.6032  -34.2029 H   0  0  0  0  0  0  0  0  0  0  0  0
   -6.6069   15.4061  -33.0500 H   0  0  0  0  0  0  0  0  0  0  0  0
   -7.1828   17.6331  -31.9930 H   0  0  0  0  0  0  0  0  0  0  0  0
   -5.4570   17.1679  -31.8274 H   0  0  0  0  0  0  0  0  0  0  0  0
  1  2  1  0
  2  3  1  0
  3  4  2  0
  4  5  1  0
  5  6  2  0
  6  7  1  0
  7  8  1  0
  8  9  2  0
  8 10  2  0
  8 11  1  0
 11 12  2  0
 12 13  1  0
 13 14  2  0
 14 15  1  0
 15 16  1  0
 16 17  2  0
 16 18  2  0
 16 19  1  0
 19 20  1  0
 20 21  1  0
 21 22  1  0
 22 23  1  0
 15 24  2  0
  6 25  1  0
 25 26  2  0
 26 27  1  0
 27 28  1  0
 28 29  1  0
 29 30  1  0
 30 31  1  0
 31 32  1  0
 26  3  1  0
 32 27  1  0
 24 11  1  0
 23 19  1  0
  1 33  1  0
  1 34  1  0
  1 35  1  0
  4 36  1  0
  5 37  1  0
 12 38  1  0
 13 39  1  0
 14 40  1  0
 19 41  1  0
 20 42  1  0
 20 43  1  0
 21 44  1  0
 21 45  1  0
 22 46  1  0
 22 47  1  0
 23 48  1  0
 23 49  1  0
 24 50  1  0
 25 51  1  0
 28 52  1  0
 28 53  1  0
 29 54  1  0
 29 55  1  0
 31 56  1  0
 31 57  1  0
 32 58  1  0
 32 59  1  0
M  CHG  2   7  -1  19   1
M  END
>  <UniqueID>  (3) 
3

>  <SMILES>  (3) 
COc1ccc([N-]S(=O)(=O)c2cccc(S(=O)(=O)[NH+]3CCCC3)c2)cc1N1CCOCC1

>  <Energy>  (3) 
72.43730749376988

>  <Genealogy>  (3) 
COc1ccc([N-]S(=O)(=O)c2cccc(S(=O)(=O)[NH+]3CCCC3)c2)cc1N1CCOCC1 (protonated)
COc1ccc([N-]S(=O)(=O)c2cccc(S(=O)(=O)[NH+]3CCCC3)c2)cc1N1CCOCC1 (3D coordinates assigned)
COc1ccc([N-]S(=O)(=O)c2cccc(S(=O)(=O)[NH+]3CCCC3)c2)cc1N1CCOCC1 (nonaromatic ring conformer: 72.43730749376988 kcal/mol)

>  <smiles>  (3) 
COc1ccc(NS(=O)(=O)c2cccc(S(=O)(=O)N3CCCC3)c2)cc1N1CCOCC1

>  <score_type>  (3) 
oracle

>  <origin>  (3) 
adgpu

>  <m_score__min__energy>  (3) 
-11.140000000000001

>  <m_primary>  (3) 
energy

$$$$
3:0
     RDKit          3D

 57 60  0  0  0  0  0  0  0  0999 V2000
    2.7900   17.1610  -31.0600 C   0  0  0  0  0  0  0  0  0  0  0  0
    2.2110   17.3050  -29.7660 O   0  0  0  0  0  0  0  0  0  0  0  0
    1.1840   18.2080  -29.4500 C   0  0  0  0  0  0  0  0  0  0  0  0
    0.7240   19.1680  -30.3710 C   0  0  0  0  0  0  0  0  0  0  0  0
   -0.3010   20.0490  -30.0210 C   0  0  0  0  0  0  0  0  0  0  0  0
   -0.8850   19.9900  -28.7480 C   0  0  0  0  0  0  0  0  0  0  0  0
   -1.9700   20.9260  -28.3810 C   0  0  0  0  0  0  0  0  0  0  0  0
   -3.0910   20.5740  -27.7130 N   0  0  0  0  0  0  0  0  0  0  0  0
   -3.7800   21.6960  -27.5820 N   0  0  0  0  0  0  0  0  0  0  0  0
   -3.1080   22.6780  -28.1580 N   0  0  0  0  0  0  0  0  0  0  0  0
   -3.5240   24.0740  -28.1490 C   0  0  0  0  0  0  0  0  0  0  0  0
   -2.9940   24.7820  -29.3560 C   0  0  0  0  0  0  0  0  0  0  0  0
   -1.8110   25.2170  -29.3500 O   0  0  0  0  0  0  0  0  0  0  0  0
   -3.8700   25.0540  -30.4590 N   0  0  0  0  0  0  0  0  0  0  0  0
   -4.9100   24.2070  -30.9690 C   0  0  0  0  0  0  0  0  0  0  0  0
   -6.2360   24.6460  -30.8680 C   0  0  0  0  0  0  0  0  0  0  0  0
   -7.2850   23.8420  -31.3230 C   0  0  0  0  0  0  0  0  0  0  0  0
   -7.0180   22.5880  -31.8740 C   0  0  0  0  0  0  0  0  0  0  0  0
   -5.6980   22.1260  -31.9650 C   0  0  0  0  0  0  0  0  0  0  0  0
   -5.3470   20.5300  -32.6280 S   0  0  0  0  0  0  0  0  0  0  0  0
   -3.8540   20.3650  -32.7070 O   0  0  0  0  0  0  0  0  0  0  0  0
   -5.9180   20.4120  -34.0150 O   0  0  0  0  0  0  0  0  0  0  0  0
   -6.0250   19.2920  -31.5930 N   0  0  0  0  0  0  0  0  0  0  0  0
   -7.4920   19.3620  -31.5740 C   0  0  0  0  0  0  0  0  0  0  0  0
   -8.0130   18.4060  -32.6380 C   0  0  0  0  0  0  0  0  0  0  0  0
   -6.8500   17.4850  -32.9660 C   0  0  0  0  0  0  0  0  0  0  0  0
   -5.6950   17.9510  -32.0910 C   0  0  0  0  0  0  0  0  0  0  0  0
   -4.6470   22.9310  -31.5030 C   0  0  0  0  0  0  0  0  0  0  0  0
   -1.9650   22.2440  -28.6610 N   0  0  0  0  0  0  0  0  0  0  0  0
   -0.4270   19.0340  -27.8270 C   0  0  0  0  0  0  0  0  0  0  0  0
    0.6070   18.1410  -28.1730 C   0  0  0  0  0  0  0  0  0  0  0  0
    1.0860   17.1730  -27.2750 O   0  0  0  0  0  0  0  0  0  0  0  0
    1.0520   15.7690  -27.5060 C   0  0  0  0  0  0  0  0  0  0  0  0
    3.8529   16.8966  -30.9587 H   0  0  0  0  0  0  0  0  0  0  0  0
    2.2652   16.3660  -31.6101 H   0  0  0  0  0  0  0  0  0  0  0  0
    2.6988   18.1092  -31.6101 H   0  0  0  0  0  0  0  0  0  0  0  0
    1.1749   19.2244  -31.3727 H   0  0  0  0  0  0  0  0  0  0  0  0
   -0.6528   20.7946  -30.7492 H   0  0  0  0  0  0  0  0  0  0  0  0
   -4.6228   24.1252  -28.1517 H   0  0  0  0  0  0  0  0  0  0  0  0
   -3.1262   24.5599  -27.2459 H   0  0  0  0  0  0  0  0  0  0  0  0
   -6.4535   25.6302  -30.4276 H   0  0  0  0  0  0  0  0  0  0  0  0
   -8.3229   24.1984  -31.2466 H   0  0  0  0  0  0  0  0  0  0  0  0
   -7.8453   21.9609  -32.2377 H   0  0  0  0  0  0  0  0  0  0  0  0
   -5.6440   19.4230  -30.6270 H   0  0  0  0  0  0  0  0  0  0  0  0
   -7.8689   19.0633  -30.5847 H   0  0  0  0  0  0  0  0  0  0  0  0
   -7.8321   20.3882  -31.7772 H   0  0  0  0  0  0  0  0  0  0  0  0
   -8.8638   17.8266  -32.2500 H   0  0  0  0  0  0  0  0  0  0  0  0
   -8.3693   18.9441  -33.5288 H   0  0  0  0  0  0  0  0  0  0  0  0
   -7.1100   16.4416  -32.7341 H   0  0  0  0  0  0  0  0  0  0  0  0
   -6.5908   17.5236  -34.0343 H   0  0  0  0  0  0  0  0  0  0  0  0
   -5.5627   17.2596  -31.2458 H   0  0  0  0  0  0  0  0  0  0  0  0
   -4.7591   17.9741  -32.6686 H   0  0  0  0  0  0  0  0  0  0  0  0
   -3.6116   22.5637  -31.5580 H   0  0  0  0  0  0  0  0  0  0  0  0
   -0.8796   18.9816  -26.8258 H   0  0  0  0  0  0  0  0  0  0  0  0
    1.0392   15.2390  -26.5422 H   0  0  0  0  0  0  0  0  0  0  0  0
    0.1474   15.5132  -28.0772 H   0  0  0  0  0  0  0  0  0  0  0  0
    1.9432   15.4697  -28.0772 H   0  0  0  0  0  0  0  0  0  0  0  0
  1  2  1  0
  2  3  1  0
  3  4  2  0
  4  5  1  0
  5  6  2  0
  6  7  1  0
  7  8  1  0
  8  9  2  0
  9 10  1  0
 10 11  1  0
 11 12  1  0
 12 13  2  0
 12 14  1  0
 14 15  1  0
 15 16  2  0
 16 17  1  0
 17 18  2  0
 18 19  1  0
 19 20  1  0
 20 21  2  0
 20 22  2  0
 20 23  1  0
 23 24  1  0
 24 25  1  0
 25 26  1  0
 26 27  1  0
 19 28  2  0
 10 29  1  0
  6 30  1  0
 30 31  2  0
 31 32  1  0
 32 33  1  0
 31  3  1  0
 29  7  2  0
 28 15  1  0
 27 23  1  0
  1 34  1  0
  1 35  1  0
  1 36  1  0
  4 37  1  0
  5 38  1  0
 11 39  1  0
 11 40  1  0
 16 41  1  0
 17 42  1  0
 18 43  1  0
 23 44  1  0
 24 45  1  0
 24 46  1  0
 25 47  1  0
 25 48  1  0
 26 49  1  0
 26 50  1  0
 27 51  1  0
 27 52  1  0
 28 53  1  0
 30 54  1  0
 33 55  1  0
 33 56  1  0
 33 57  1  0
M  CHG  2  14  -1  23   1
M  END
>  <UniqueID>  (4) 
4

>  <SMILES>  (4) 
COc1ccc(-c2nnn(CC(=O)[N-]c3cccc(S(=O)(=O)[NH+]4CCCC4)c3)n2)cc1OC

>  <Energy>  (4) 
100.11774891851182

>  <Genealogy>  (4) 
COc1ccc(-c2nnn(CC(=O)[N-]c3cccc(S(=O)(=O)[NH+]4CCCC4)c3)n2)cc1OC (protonated)
COc1ccc(-c2nnn(CC(=O)[N-]c3cccc(S(=O)(=O)[NH+]4CCCC4)c3)n2)cc1OC (3D coordinates assigned)
COc1ccc(-c2nnn(CC(=O)[N-]c3cccc(S(=O)(=O)[NH+]4CCCC4)c3)n2)cc1OC (nonaromatic ring conformer: 100.11774891851182 kcal/mol)

>  <smiles>  (4) 
COc1ccc(-c2nnn(CC(=O)Nc3cccc(S(=O)(=O)N4CCCC4)c3)n2)cc1OC

>  <score_type>  (4) 
oracle

>  <origin>  (4) 
adgpu

>  <m_score__min__energy>  (4) 
-10.57

>  <m_primary>  (4) 
energy

$$$$
4:0
     RDKit          3D

 51 53  0  0  0  0  0  0  0  0999 V2000
   -1.5790   25.2330  -27.4830 C   0  0  0  0  0  0  0  0  0  0  0  0
   -1.5410   24.1800  -28.4370 O   0  0  0  0  0  0  0  0  0  0  0  0
   -1.8390   22.8370  -28.1500 C   0  0  0  0  0  0  0  0  0  0  0  0
   -1.3210   22.1790  -27.0160 C   0  0  0  0  0  0  0  0  0  0  0  0
   -1.6670   20.8500  -26.7500 C   0  0  0  0  0  0  0  0  0  0  0  0
   -2.5350   20.1680  -27.6050 C   0  0  0  0  0  0  0  0  0  0  0  0
   -3.0420   20.8040  -28.7390 C   0  0  0  0  0  0  0  0  0  0  0  0
   -2.6890   22.1300  -29.0230 C   0  0  0  0  0  0  0  0  0  0  0  0
   -3.1920   22.7610  -30.2090 N   0  0  0  0  0  0  0  0  0  0  0  0
   -2.6880   22.3610  -31.5240 C   0  0  0  0  0  0  0  0  0  0  0  0
   -3.7950   21.7520  -32.3180 C   0  0  0  0  0  0  0  0  0  0  0  0
   -4.2510   22.3680  -33.3190 O   0  0  0  0  0  0  0  0  0  0  0  0
   -4.3440   20.4930  -31.9280 N   0  0  0  0  0  0  0  0  0  0  0  0
   -4.7140   19.4380  -32.8220 C   0  0  0  0  0  0  0  0  0  0  0  0
   -3.7890   18.9260  -33.7500 C   0  0  0  0  0  0  0  0  0  0  0  0
   -4.1700   17.9250  -34.6440 C   0  0  0  0  0  0  0  0  0  0  0  0
   -5.4720   17.4090  -34.6090 C   0  0  0  0  0  0  0  0  0  0  0  0
   -6.3920   17.8940  -33.6860 C   0  0  0  0  0  0  0  0  0  0  0  0
   -6.0140   18.8940  -32.7800 C   0  0  0  0  0  0  0  0  0  0  0  0
   -7.2370   19.4770  -31.5960 S   0  0  0  0  0  0  0  0  0  0  0  0
   -8.6530   19.2340  -32.7230 C   0  0  0  0  0  0  0  0  0  0  0  0
   -4.3560   24.0420  -30.0690 S   0  0  0  0  0  0  0  0  0  0  0  0
   -4.5080   24.4440  -28.6270 O   0  0  0  0  0  0  0  0  0  0  0  0
   -3.8760   25.2360  -30.8440 O   0  0  0  0  0  0  0  0  0  0  0  0
   -5.9160   23.5080  -30.6820 C   0  0  0  0  0  0  0  0  0  0  0  0
   -6.7570   22.7210  -29.8790 C   0  0  0  0  0  0  0  0  0  0  0  0
   -7.9860   22.2740  -30.3740 C   0  0  0  0  0  0  0  0  0  0  0  0
   -8.3800   22.6100  -31.6740 C   0  0  0  0  0  0  0  0  0  0  0  0
   -7.5470   23.3960  -32.4780 C   0  0  0  0  0  0  0  0  0  0  0  0
   -6.3170   23.8410  -31.9850 C   0  0  0  0  0  0  0  0  0  0  0  0
   -1.5637   24.8090  -26.4681 H   0  0  0  0  0  0  0  0  0  0  0  0
   -0.7038   25.8848  -27.6213 H   0  0  0  0  0  0  0  0  0  0  0  0
   -2.4989   25.8201  -27.6213 H   0  0  0  0  0  0  0  0  0  0  0  0
   -0.6409   22.7136  -26.3365 H   0  0  0  0  0  0  0  0  0  0  0  0
   -1.2547   20.3415  -25.8660 H   0  0  0  0  0  0  0  0  0  0  0  0
   -2.8194   19.1285  -27.3845 H   0  0  0  0  0  0  0  0  0  0  0  0
   -3.7218   20.2620  -29.4129 H   0  0  0  0  0  0  0  0  0  0  0  0
   -2.3011   23.2447  -32.0525 H   0  0  0  0  0  0  0  0  0  0  0  0
   -1.8799   21.6254  -31.3982 H   0  0  0  0  0  0  0  0  0  0  0  0
   -2.7609   19.3166  -33.7709 H   0  0  0  0  0  0  0  0  0  0  0  0
   -3.4466   17.5401  -35.3779 H   0  0  0  0  0  0  0  0  0  0  0  0
   -5.7674   16.6178  -35.3138 H   0  0  0  0  0  0  0  0  0  0  0  0
   -7.4161   17.4929  -33.6670 H   0  0  0  0  0  0  0  0  0  0  0  0
   -9.5682   19.0769  -32.1333 H   0  0  0  0  0  0  0  0  0  0  0  0
   -8.7738   20.1245  -33.3573 H   0  0  0  0  0  0  0  0  0  0  0  0
   -8.4700   18.3541  -33.3573 H   0  0  0  0  0  0  0  0  0  0  0  0
   -6.4481   22.4552  -28.8573 H   0  0  0  0  0  0  0  0  0  0  0  0
   -8.6428   21.6585  -29.7417 H   0  0  0  0  0  0  0  0  0  0  0  0
   -9.3455   22.2559  -32.0643 H   0  0  0  0  0  0  0  0  0  0  0  0
   -7.8601   23.6637  -33.4980 H   0  0  0  0  0  0  0  0  0  0  0  0
   -5.6612   24.4542  -32.6205 H   0  0  0  0  0  0  0  0  0  0  0  0
  1  2  1  0
  2  3  1  0
  3  4  2  0
  4  5  1  0
  5  6  2  0
  6  7  1  0
  7  8  2  0
  8  9  1  0
  9 10  1  0
 10 11  1  0
 11 12  2  0
 11 13  1  0
 13 14  1  0
 14 15  2  0
 15 16  1  0
 16 17  2  0
 17 18  1  0
 18 19  2  0
 19 20  1  0
 20 21  1  0
  9 22  1  0
 22 23  2  0
 22 24  2  0
 22 25  1  0
 25 26  2  0
 26 27  1  0
 27 28  2  0
 28 29  1  0
 29 30  2  0
  8  3  1  0
 19 14  1  0
 30 25  1  0
  1 31  1  0
  1 32  1  0
  1 33  1  0
  4 34  1  0
  5 35  1  0
  6 36  1  0
  7 37  1  0
 10 38  1  0
 10 39  1  0
 15 40  1  0
 16 41  1  0
 17 42  1  0
 18 43  1  0
 21 44  1  0
 21 45  1  0
 21 46  1  0
 26 47  1  0
 27 48  1  0
 28 49  1  0
 29 50  1  0
 30 51  1  0
M  CHG  1  13  -1
M  END
>  <UniqueID>  (5) 
5

>  <SMILES>  (5) 
COc1ccccc1N(CC(=O)[N-]c1ccccc1SC)S(=O)(=O)c1ccccc1

>  <Energy>  (5) 
52.238632641716386

>  <Genealogy>  (5) 
COc1ccccc1N(CC(=O)[N-]c1ccccc1SC)S(=O)(=O)c1ccccc1 (protonated)
COc1ccccc1N(CC(=O)[N-]c1ccccc1SC)S(=O)(=O)c1ccccc1 (3D coordinates assigned)
COc1ccccc1N(CC(=O)[N-]c1ccccc1SC)S(=O)(=O)c1ccccc1 (optimized conformer: 52.238632641716386 kcal/mol)

>  <smiles>  (5) 
COc1ccccc1N(CC(=O)Nc1ccccc1SC)S(=O)(=O)c1ccccc1

>  <score_type>  (5) 
oracle

>  <origin>  (5) 
adgpu

>  <m_score__min__energy>  (5) 
-10.83

>  <m_primary>  (5) 
energy

$$$$
5:0
     RDKit          3D

 37 39  0  0  0  0  0  0  0  0999 V2000
   -1.8720   25.5910  -28.9610 O   0  0  0  0  0  0  0  0  0  0  0  0
   -2.6110   24.6550  -29.3660 C   0  0  0  0  0  0  0  0  0  0  0  0
   -3.4910   24.9120  -30.4680 N   0  0  0  0  0  0  0  0  0  0  0  0
   -4.8460   24.4630  -30.5970 C   0  0  0  0  0  0  0  0  0  0  0  0
   -5.8570   25.2500  -30.0280 C   0  0  0  0  0  0  0  0  0  0  0  0
   -7.1980   24.8930  -30.1680 C   0  0  0  0  0  0  0  0  0  0  0  0
   -7.5430   23.7350  -30.8660 C   0  0  0  0  0  0  0  0  0  0  0  0
   -6.5460   22.9210  -31.4060 C   0  0  0  0  0  0  0  0  0  0  0  0
   -5.1880   23.2620  -31.2700 C   0  0  0  0  0  0  0  0  0  0  0  0
   -4.1720   22.3480  -31.7290 N   0  0  0  0  0  0  0  0  0  0  0  0
   -3.9290   22.2030  -33.1710 C   0  0  0  0  0  0  0  0  0  0  0  0
   -2.5830   21.5120  -33.4270 C   0  0  0  0  0  0  0  0  0  0  0  0
   -2.4680   20.3260  -32.6640 O   0  0  0  0  0  0  0  0  0  0  0  0
   -2.4570   20.6480  -31.2880 C   0  0  0  0  0  0  0  0  0  0  0  0
   -3.8080   21.2230  -30.8610 C   0  0  0  0  0  0  0  0  0  0  0  0
   -2.5060   23.3200  -28.7240 C   0  0  0  0  0  0  0  0  0  0  0  0
   -3.5990   22.7280  -28.0650 C   0  0  0  0  0  0  0  0  0  0  0  0
   -3.4690   21.5050  -27.4820 N   0  0  0  0  0  0  0  0  0  0  0  0
   -2.3010   20.8130  -27.5220 C   0  0  0  0  0  0  0  0  0  0  0  0
   -1.1980   21.3440  -28.1910 C   0  0  0  0  0  0  0  0  0  0  0  0
    0.4470   20.3760  -28.2590 Br  0  0  0  0  0  0  0  0  0  0  0  0
   -1.3080   22.5930  -28.8060 C   0  0  0  0  0  0  0  0  0  0  0  0
   -5.5903   26.1572  -29.4661 H   0  0  0  0  0  0  0  0  0  0  0  0
   -7.9839   25.5245  -29.7280 H   0  0  0  0  0  0  0  0  0  0  0  0
   -8.6016   23.4634  -30.9908 H   0  0  0  0  0  0  0  0  0  0  0  0
   -6.8252   22.0029  -31.9437 H   0  0  0  0  0  0  0  0  0  0  0  0
   -4.7349   21.5995  -33.6142 H   0  0  0  0  0  0  0  0  0  0  0  0
   -3.9059   23.2032  -33.6283 H   0  0  0  0  0  0  0  0  0  0  0  0
   -2.5049   21.2614  -34.4952 H   0  0  0  0  0  0  0  0  0  0  0  0
   -1.7754   22.1980  -33.1317 H   0  0  0  0  0  0  0  0  0  0  0  0
   -2.2504   19.7383  -30.7051 H   0  0  0  0  0  0  0  0  0  0  0  0
   -1.6764   21.4012  -31.1054 H   0  0  0  0  0  0  0  0  0  0  0  0
   -4.5773   20.4405  -30.9372 H   0  0  0  0  0  0  0  0  0  0  0  0
   -3.7373   21.5771  -29.8220 H   0  0  0  0  0  0  0  0  0  0  0  0
   -4.5630   23.2560  -28.0207 H   0  0  0  0  0  0  0  0  0  0  0  0
   -2.2248   19.8337  -27.0268 H   0  0  0  0  0  0  0  0  0  0  0  0
   -0.4518   23.0090  -29.3573 H   0  0  0  0  0  0  0  0  0  0  0  0
  1  2  2  0
  2  3  1  0
  3  4  1  0
  4  5  2  0
  5  6  1  0
  6  7  2  0
  7  8  1  0
  8  9  2  0
  9 10  1  0
 10 11  1  0
 11 12  1  0
 12 13  1  0
 13 14  1  0
 14 15  1  0
  2 16  1  0
 16 17  2  0
 17 18  1  0
 18 19  2  0
 19 20  1  0
 20 21  1  0
 20 22  2  0
  9  4  1  0
 15 10  1  0
 22 16  1  0
  5 23  1  0
  6 24  1  0
  7 25  1  0
  8 26  1  0
 11 27  1  0
 11 28  1  0
 12 29  1  0
 12 30  1  0
 14 31  1  0
 14 32  1  0
 15 33  1  0
 15 34  1  0
 17 35  1  0
 19 36  1  0
 22 37  1  0
M  CHG  1   3  -1
M  END
>  <UniqueID>  (6) 
6

>  <SMILES>  (6) 
O=C([N-]c1ccccc1N1CCOCC1)c1cncc(Br)c1

>  <Energy>  (6) 
51.76889463947227

>  <Genealogy>  (6) 
O=C([N-]c1ccccc1N1CCOCC1)c1cncc(Br)c1 (protonated)
O=C([N-]c1ccccc1N1CCOCC1)c1cncc(Br)c1 (3D coordinates assigned)
O=C([N-]c1ccccc1N1CCOCC1)c1cncc(Br)c1 (nonaromatic ring conformer: 51.76889463947227 kcal/mol)

>  <smiles>  (6) 
O=C(Nc1ccccc1N1CCOCC1)c1cncc(Br)c1

>  <score_type>  (6) 
oracle

>  <origin>  (6) 
adgpu

>  <m_score__min__energy>  (6) 
-8.5399999999999991

>  <m_primary>  (6) 
energy

$$$$
6:0
     RDKit          3D

 54 57  0  0  0  0  0  0  0  0999 V2000
   -5.2660   16.9410  -33.0000 O   0  0  0  0  0  0  0  0  0  0  0  0
   -5.3180   18.3950  -33.3850 S   0  0  0  0  0  0  0  0  0  0  0  0
   -5.4400   18.4880  -34.8800 O   0  0  0  0  0  0  0  0  0  0  0  0
   -6.7240   19.1520  -32.6390 C   0  0  0  0  0  0  0  0  0  0  0  0
   -7.9810   18.5420  -32.7330 C   0  0  0  0  0  0  0  0  0  0  0  0
   -9.0990   19.1510  -32.1610 C   0  0  0  0  0  0  0  0  0  0  0  0
   -8.9710   20.3750  -31.5000 C   0  0  0  0  0  0  0  0  0  0  0  0
   -7.7200   21.0060  -31.4040 C   0  0  0  0  0  0  0  0  0  0  0  0
   -7.6240   22.2740  -30.7250 N   0  0  0  0  0  0  0  0  0  0  0  0
   -7.0740   23.4900  -31.3400 C   0  0  2  0  0  0  0  0  0  0  0  0
   -7.2290   23.4520  -32.7360 O   0  0  0  0  0  0  0  0  0  0  0  0
   -5.6210   23.6610  -30.9840 C   0  0  0  0  0  0  0  0  0  0  0  0
   -5.0440   24.7660  -30.3800 C   0  0  0  0  0  0  0  0  0  0  0  0
   -3.7030   24.4650  -30.2650 C   0  0  0  0  0  0  0  0  0  0  0  0
   -2.7480   25.2990  -29.6990 O   0  0  0  0  0  0  0  0  0  0  0  0
   -3.4380   23.2460  -30.7760 N   0  0  0  0  0  0  0  0  0  0  0  0
   -2.1500   22.5550  -30.7820 C   0  0  0  0  0  0  0  0  0  0  0  0
   -2.0880   21.5690  -29.6450 C   0  0  0  0  0  0  0  0  0  0  0  0
   -3.0090   21.6640  -28.5900 C   0  0  0  0  0  0  0  0  0  0  0  0
   -2.9390   20.7790  -27.5090 C   0  0  0  0  0  0  0  0  0  0  0  0
   -1.9440   19.7990  -27.4700 C   0  0  0  0  0  0  0  0  0  0  0  0
   -1.0150   19.7050  -28.5100 C   0  0  0  0  0  0  0  0  0  0  0  0
   -1.0790   20.5870  -29.5940 C   0  0  0  0  0  0  0  0  0  0  0  0
   -0.1630   20.4810  -30.5880 F   0  0  0  0  0  0  0  0  0  0  0  0
   -4.6100   22.7440  -31.2130 C   0  0  0  0  0  0  0  0  0  0  0  0
   -6.5960   20.3830  -31.9820 C   0  0  0  0  0  0  0  0  0  0  0  0
   -3.8730   19.2230  -32.8650 N   0  0  0  0  0  0  0  0  0  0  0  0
   -2.6690   18.5180  -33.3030 C   0  0  0  0  0  0  0  0  0  0  0  0
   -1.5740   19.5670  -33.4190 C   0  0  0  0  0  0  0  0  0  0  0  0
   -2.3020   20.8970  -33.5350 C   0  0  0  0  0  0  0  0  0  0  0  0
   -3.7830   20.5570  -33.4590 C   0  0  0  0  0  0  0  0  0  0  0  0
   -8.0874   17.5815  -33.2584 H   0  0  0  0  0  0  0  0  0  0  0  0
  -10.0837   18.6658  -32.2309 H   0  0  0  0  0  0  0  0  0  0  0  0
   -9.8568   20.8482  -31.0513 H   0  0  0  0  0  0  0  0  0  0  0  0
   -7.9690   22.3270  -29.7390 H   0  0  0  0  0  0  0  0  0  0  0  0
   -7.6327   24.3518  -30.9462 H   0  0  0  0  0  0  0  0  0  0  0  0
   -6.3200   23.4240  -33.1350 H   0  0  0  0  0  0  0  0  0  0  0  0
   -5.5490   25.6892  -30.0596 H   0  0  0  0  0  0  0  0  0  0  0  0
   -2.0285   22.0197  -31.7352 H   0  0  0  0  0  0  0  0  0  0  0  0
   -1.3438   23.2938  -30.6631 H   0  0  0  0  0  0  0  0  0  0  0  0
   -3.7899   22.4384  -28.6134 H   0  0  0  0  0  0  0  0  0  0  0  0
   -3.6681   20.8547  -26.6888 H   0  0  0  0  0  0  0  0  0  0  0  0
   -1.8918   19.1016  -26.6210 H   0  0  0  0  0  0  0  0  0  0  0  0
   -0.2306   18.9346  -28.4760 H   0  0  0  0  0  0  0  0  0  0  0  0
   -4.7426   21.7569  -31.6800 H   0  0  0  0  0  0  0  0  0  0  0  0
   -5.6103   20.8669  -31.9169 H   0  0  0  0  0  0  0  0  0  0  0  0
   -2.3863   17.7533  -32.5645 H   0  0  0  0  0  0  0  0  0  0  0  0
   -2.8339   18.0065  -34.2628 H   0  0  0  0  0  0  0  0  0  0  0  0
   -0.9332   19.5554  -32.5250 H   0  0  0  0  0  0  0  0  0  0  0  0
   -0.9189   19.3817  -34.2830 H   0  0  0  0  0  0  0  0  0  0  0  0
   -2.0177   21.5644  -32.7081 H   0  0  0  0  0  0  0  0  0  0  0  0
   -2.0505   21.4200  -34.4695 H   0  0  0  0  0  0  0  0  0  0  0  0
   -4.3093   21.2896  -32.8294 H   0  0  0  0  0  0  0  0  0  0  0  0
   -4.2483   20.5810  -34.4555 H   0  0  0  0  0  0  0  0  0  0  0  0
  1  2  2  0
  2  3  2  0
  2  4  1  0
  4  5  2  0
  5  6  1  0
  6  7  2  0
  7  8  1  0
  8  9  1  0
  9 10  1  0
 10 11  1  0
 10 12  1  0
 12 13  1  0
 13 14  2  0
 14 15  1  0
 14 16  1  0
 16 17  1  0
 17 18  1  0
 18 19  2  0
 19 20  1  0
 20 21  2  0
 21 22  1  0
 22 23  2  0
 23 24  1  0
 16 25  1  0
  8 26  2  0
  2 27  1  0
 27 28  1  0
 28 29  1  0
 29 30  1  0
 30 31  1  0
 26  4  1  0
 31 27  1  0
 25 12  2  0
 23 18  1  0
  5 32  1  0
  6 33  1  0
  7 34  1  0
  9 35  1  0
 10 36  1  1
 11 37  1  0
 13 38  1  0
 17 39  1  0
 17 40  1  0
 19 41  1  0
 20 42  1  0
 21 43  1  0
 22 44  1  0
 25 45  1  0
 26 46  1  0
 28 47  1  0
 28 48  1  0
 29 49  1  0
 29 50  1  0
 30 51  1  0
 30 52  1  0
 31 53  1  0
 31 54  1  0
M  CHG  1  15  -1
M  END
>  <UniqueID>  (7) 
7

>  <SMILES>  (7) 
O=S(=O)(c1cccc(N[C@H](O)c2cc([O-])n(Cc3ccccc3F)c2)c1)N1CCCC1

>  <Energy>  (7) 
83.84680548803445

>  <Genealogy>  (7) 
O=S(=O)(c1cccc(NC(O)c2cc([O-])n(Cc3ccccc3F)c2)c1)N1CCCC1 (protonated)
O=S(=O)(c1cccc(N[C@H](O)c2cc([O-])n(Cc3ccccc3F)c2)c1)N1CCCC1 (chirality)
O=S(=O)(c1cccc(N[C@H](O)c2cc([O-])n(Cc3ccccc3F)c2)c1)N1CCCC1 (3D coordinates assigned)
O=S(=O)(c1cccc(N[C@H](O)c2cc([O-])n(Cc3ccccc3F)c2)c1)N1CCCC1 (nonaromatic ring conformer: 83.84680548803445 kcal/mol)

>  <smiles>  (7) 
O=S(=O)(c1cccc(NC(O)c2cc(O)n(Cc3ccccc3F)c2)c1)N1CCCC1

>  <score_type>  (7) 
oracle

>  <origin>  (7) 
adgpu

>  <m_score__min__energy>  (7) 
-12.970000000000001

>  <m_primary>  (7) 
energy

$$$$
7:0
     RDKit          3D

 55 59  0  0  0  0  0  0  0  0999 V2000
   -0.8820   15.3800  -36.6210 H   0  0  0  0  0  0  0  0  0  0  0  0
   -1.5940   15.1970  -35.8790 N   0  0  0  0  0  0  0  0  0  0  0  0
   -2.0860   16.1480  -35.1490 C   0  0  0  0  0  0  0  0  0  0  0  0
   -3.0110   15.8500  -34.2010 N   0  0  0  0  0  0  0  0  0  0  0  0
   -3.5490   16.8180  -33.4160 C   0  0  0  0  0  0  0  0  0  0  0  0
   -4.3020   16.5531  -32.6591 H   0  0  0  0  0  0  0  0  0  0  0  0
   -3.1500   18.1530  -33.5650 C   0  0  0  0  0  0  0  0  0  0  0  0
   -3.7440   19.2150  -32.7130 C   0  0  0  0  0  0  0  0  0  0  0  0
   -2.9760   19.8040  -31.7570 N   0  0  0  0  0  0  0  0  0  0  0  0
   -3.4590   20.7870  -30.9520 C   0  0  0  0  0  0  0  0  0  0  0  0
   -2.6200   21.3930  -29.9460 N   0  0  0  0  0  0  0  0  0  0  0  0
   -2.9710   21.3220  -28.5190 C   0  0  0  0  0  0  0  0  0  0  0  0
   -4.0181   20.9985  -28.4246 H   0  0  0  0  0  0  0  0  0  0  0  0
   -2.2930   20.6049  -28.0332 H   0  0  0  0  0  0  0  0  0  0  0  0
   -2.8050   22.6890  -27.8250 C   0  0  0  0  0  0  0  0  0  0  0  0
   -3.7465   23.2476  -27.9323 H   0  0  0  0  0  0  0  0  0  0  0  0
   -2.5509   22.4832  -26.7747 H   0  0  0  0  0  0  0  0  0  0  0  0
   -1.6500   23.5600  -28.4050 C   0  0  0  0  0  0  0  0  0  0  0  0
   -2.1670   24.6690  -29.2680 C   0  0  0  0  0  0  0  0  0  0  0  0
   -3.0190   24.5170  -30.1830 O   0  0  0  0  0  0  0  0  0  0  0  0
   -1.6110   25.9310  -28.9630 N   0  0  0  0  0  0  0  0  0  0  0  0
   -0.6630   25.7660  -27.8800 C   0  0  0  0  0  0  0  0  0  0  0  0
   -0.8224   26.5370  -27.1118 H   0  0  0  0  0  0  0  0  0  0  0  0
    0.3738   25.8669  -28.2335 H   0  0  0  0  0  0  0  0  0  0  0  0
   -0.9250   24.3680  -27.2960 C   0  0  0  0  0  0  0  0  0  0  0  0
   -1.5610   24.4422  -26.4016 H   0  0  0  0  0  0  0  0  0  0  0  0
    0.0131   23.8791  -26.9944 H   0  0  0  0  0  0  0  0  0  0  0  0
   -0.6320   22.6980  -29.1920 C   0  0  0  0  0  0  0  0  0  0  0  0
    0.1464   23.3545  -29.6081 H   0  0  0  0  0  0  0  0  0  0  0  0
   -0.1947   21.9624  -28.5008 H   0  0  0  0  0  0  0  0  0  0  0  0
   -1.3100   21.9370  -30.3410 C   0  0  0  0  0  0  0  0  0  0  0  0
   -1.4519   22.6250  -31.1875 H   0  0  0  0  0  0  0  0  0  0  0  0
   -0.6615   21.0928  -30.6183 H   0  0  0  0  0  0  0  0  0  0  0  0
   -4.7470   21.1970  -31.1030 N   0  0  0  0  0  0  0  0  0  0  0  0
   -5.5700   20.6540  -32.0400 C   0  0  0  0  0  0  0  0  0  0  0  0
   -6.9270   21.1350  -32.1600 N   0  0  0  0  0  0  0  0  0  0  0  0
   -8.0250   20.2270  -32.5170 C   0  0  0  0  0  0  0  0  0  0  0  0
   -8.0897   20.1493  -33.6123 H   0  0  0  0  0  0  0  0  0  0  0  0
   -7.8268   19.2375  -32.0793 H   0  0  0  0  0  0  0  0  0  0  0  0
   -9.3540   20.7560  -31.9690 C   0  0  0  0  0  0  0  0  0  0  0  0
  -10.1776   20.1495  -32.3737 H   0  0  0  0  0  0  0  0  0  0  0  0
   -9.3328   20.6907  -30.8711 H   0  0  0  0  0  0  0  0  0  0  0  0
   -9.5490   22.1070  -32.3380 O   0  0  0  0  0  0  0  0  0  0  0  0
   -8.5710   22.9130  -31.7130 C   0  0  0  0  0  0  0  0  0  0  0  0
   -8.7919   23.9712  -31.9165 H   0  0  0  0  0  0  0  0  0  0  0  0
   -8.5931   22.7186  -30.6305 H   0  0  0  0  0  0  0  0  0  0  0  0
   -7.1730   22.5810  -32.2430 C   0  0  0  0  0  0  0  0  0  0  0  0
   -7.0968   22.9025  -33.2922 H   0  0  0  0  0  0  0  0  0  0  0  0
   -6.4243   23.1072  -31.6326 H   0  0  0  0  0  0  0  0  0  0  0  0
   -5.0700   19.6460  -32.8790 C   0  0  0  0  0  0  0  0  0  0  0  0
   -5.7082   19.1998  -33.6559 H   0  0  0  0  0  0  0  0  0  0  0  0
   -2.2000   18.4380  -34.5600 C   0  0  0  0  0  0  0  0  0  0  0  0
   -1.8702   19.4751  -34.7203 H   0  0  0  0  0  0  0  0  0  0  0  0
   -1.6860   17.4390  -35.3260 N   0  0  0  0  0  0  0  0  0  0  0  0
   -0.9830   17.6790  -36.0600 H   0  0  0  0  0  0  0  0  0  0  0  0
  1  2  1  0
  2  3  2  0
  3  4  1  0
  4  5  2  0
  5  6  1  0
  5  7  1  0
  7  8  1  0
  8  9  2  0
  9 10  1  0
 10 11  1  0
 11 12  1  0
 12 13  1  0
 12 14  1  0
 12 15  1  0
 15 16  1  0
 15 17  1  0
 15 18  1  0
 18 19  1  0
 19 20  2  0
 19 21  1  0
 21 22  1  0
 22 23  1  0
 22 24  1  0
 22 25  1  0
 25 26  1  0
 25 27  1  0
 18 28  1  0
 28 29  1  0
 28 30  1  0
 28 31  1  0
 31 32  1  0
 31 33  1  0
 10 34  2  0
 34 35  1  0
 35 36  1  0
 36 37  1  0
 37 38  1  0
 37 39  1  0
 37 40  1  0
 40 41  1  0
 40 42  1  0
 40 43  1  0
 43 44  1  0
 44 45  1  0
 44 46  1  0
 44 47  1  0
 47 48  1  0
 47 49  1  0
 35 50  2  0
 50 51  1  0
  7 52  2  0
 52 53  1  0
 52 54  1  0
 54 55  1  0
 54  3  1  0
 50  8  1  0
 31 11  1  0
 47 36  1  0
 25 18  1  0
M  CHG  1  21  -1
M  END
>  <UniqueID>  (8) 
8

>  <SMILES>  (8) 
[H]/N=c1/ncc(-c2cc(N3CCOCC3)nc(N3CCC4(CC[N-]C4=O)CC3)n2)c[nH]1

>  <Energy>  (8) 
80.80842070010489

>  <Genealogy>  (8) 
N=c1ncc(-c2cc(N3CCOCC3)nc(N3CCC4(CC[N-]C4=O)CC3)n2)c[nH]1 (protonated)
[H]/N=c1/ncc(-c2cc(N3CCOCC3)nc(N3CCC4(CC[N-]C4=O)CC3)n2)c[nH]1 (cis-trans isomerization)
[H]/N=c1/ncc(-c2cc(N3CCOCC3)nc(N3CCC4(CC[N-]C4=O)CC3)n2)c[nH]1 (3D coordinates assigned)
[H]/N=c1/ncc(-c2cc(N3CCOCC3)nc(N3CCC4(CC[N-]C4=O)CC3)n2)c[nH]1 (nonaromatic ring conformer: 80.80842070010489 kcal/mol)

>  <smiles>  (8) 
N=c1ncc(-c2cc(N3CCOCC3)nc(N3CCC4(CCNC4=O)CC3)n2)c[nH]1

>  <score_type>  (8) 
oracle

>  <origin>  (8) 
adgpu

>  <m_score__min__energy>  (8) 
-9.9399999999999995

>  <m_primary>  (8) 
energy

$$$$
8:0
     RDKit          3D

 30 32  0  0  0  0  0  0  0  0999 V2000
    3.0630   16.1560  -27.9150 C   0  0  0  0  0  0  0  0  0  0  0  0
    2.2420   17.3720  -28.2540 C   0  0  0  0  0  0  0  0  0  0  0  0
    2.7020   18.2940  -29.2120 C   0  0  0  0  0  0  0  0  0  0  0  0
    3.9310   18.1120  -29.8400 O   0  0  0  0  0  0  0  0  0  0  0  0
    1.9280   19.4040  -29.5500 C   0  0  0  0  0  0  0  0  0  0  0  0
    0.6830   19.6080  -28.9550 C   0  0  0  0  0  0  0  0  0  0  0  0
   -0.0320   20.6750  -29.2980 O   0  0  0  0  0  0  0  0  0  0  0  0
   -1.2330   20.9440  -28.7890 C   0  0  0  0  0  0  0  0  0  0  0  0
   -1.9420   22.1680  -29.2440 C   0  0  0  0  0  0  0  0  0  0  0  0
   -3.1090   22.0990  -30.0290 C   0  0  0  0  0  0  0  0  0  0  0  0
   -3.7500   23.2670  -30.4510 C   0  0  0  0  0  0  0  0  0  0  0  0
   -3.2330   24.5180  -30.1030 C   0  0  0  0  0  0  0  0  0  0  0  0
   -3.8770   25.6740  -30.5250 O   0  0  0  0  0  0  0  0  0  0  0  0
   -2.0680   24.6000  -29.3340 C   0  0  0  0  0  0  0  0  0  0  0  0
   -1.5470   25.8410  -28.9880 O   0  0  0  0  0  0  0  0  0  0  0  0
   -1.4240   23.4330  -28.9110 C   0  0  0  0  0  0  0  0  0  0  0  0
   -1.7880   20.0780  -27.8340 C   0  0  0  0  0  0  0  0  0  0  0  0
   -1.0770   18.9430  -27.4410 C   0  0  0  0  0  0  0  0  0  0  0  0
   -1.5830   18.1740  -26.5810 O   0  0  0  0  0  0  0  0  0  0  0  0
    0.1880   18.6840  -28.0060 C   0  0  0  0  0  0  0  0  0  0  0  0
    0.9730   17.5570  -27.6650 C   0  0  0  0  0  0  0  0  0  0  0  0
    0.5030   16.6170  -26.7510 O   0  0  0  0  0  0  0  0  0  0  0  0
    3.1323   16.0534  -26.8220 H   0  0  0  0  0  0  0  0  0  0  0  0
    2.5839   15.2606  -28.3377 H   0  0  0  0  0  0  0  0  0  0  0  0
    4.0726   16.2657  -28.3377 H   0  0  0  0  0  0  0  0  0  0  0  0
    2.3025   20.1245  -30.2920 H   0  0  0  0  0  0  0  0  0  0  0  0
   -3.5192   21.1184  -30.3122 H   0  0  0  0  0  0  0  0  0  0  0  0
   -4.6644   23.2015  -31.0590 H   0  0  0  0  0  0  0  0  0  0  0  0
   -0.5039   23.5047  -28.3124 H   0  0  0  0  0  0  0  0  0  0  0  0
   -2.7753   20.2921  -27.3988 H   0  0  0  0  0  0  0  0  0  0  0  0
  1  2  1  0
  2  3  2  0
  3  4  1  0
  3  5  1  0
  5  6  2  0
  6  7  1  0
  7  8  1  0
  8  9  1  0
  9 10  2  0
 10 11  1  0
 11 12  2  0
 12 13  1  0
 12 14  1  0
 14 15  1  0
 14 16  2  0
  8 17  2  0
 17 18  1  0
 18 19  2  0
 18 20  1  0
 20 21  2  0
 21 22  1  0
 21  2  1  0
 20  6  1  0
 16  9  1  0
  1 23  1  0
  1 24  1  0
  1 25  1  0
  5 26  1  0
 10 27  1  0
 11 28  1  0
 16 29  1  0
 17 30  1  0
M  CHG  4   4  -1  13  -1  15  -1  22  -1
M  END
>  <UniqueID>  (9) 
9

>  <SMILES>  (9) 
Cc1c([O-])cc2oc(-c3ccc([O-])c([O-])c3)cc(=O)c2c1[O-]

>  <Energy>  (9) 
44.91607729196784

>  <Genealogy>  (9) 
Cc1c([O-])cc2oc(-c3ccc([O-])c([O-])c3)cc(=O)c2c1[O-] (protonated)
Cc1c([O-])cc2oc(-c3ccc([O-])c([O-])c3)cc(=O)c2c1[O-] (3D coordinates assigned)
Cc1c([O-])cc2oc(-c3ccc([O-])c([O-])c3)cc(=O)c2c1[O-] (optimized conformer: 44.91607729196784 kcal/mol)

>  <smiles>  (9) 
Cc1c(O)cc2oc(-c3ccc(O)c(O)c3)cc(=O)c2c1O

>  <score_type>  (9) 
oracle

>  <origin>  (9) 
adgpu

>  <m_score__min__energy>  (9) 
-11.83

>  <m_primary>  (9) 
energy

$$$$
9:0
     RDKit          3D

 57 61  0  0  0  0  0  0  0  0999 V2000
   -0.4060   18.1390  -30.0800 O   0  0  0  0  0  0  0  0  0  0  0  0
   -0.3180   19.1420  -30.8380 C   0  0  0  0  0  0  0  0  0  0  0  0
    0.5590   19.0700  -31.9710 N   0  0  0  0  0  0  0  0  0  0  0  0
    0.4730   19.8720  -33.1600 C   0  0  0  0  0  0  0  0  0  0  0  0
    1.5950   20.5600  -33.6550 C   0  0  0  0  0  0  0  0  0  0  0  0
    1.4890   21.3420  -34.8070 C   0  0  0  0  0  0  0  0  0  0  0  0
    0.2650   21.4570  -35.4630 C   0  0  0  0  0  0  0  0  0  0  0  0
   -0.8620   20.7960  -34.9670 C   0  0  0  0  0  0  0  0  0  0  0  0
   -0.7680   20.0050  -33.8040 C   0  0  0  0  0  0  0  0  0  0  0  0
   -1.8780   19.3300  -33.2650 O   0  0  0  0  0  0  0  0  0  0  0  0
   -2.7740   18.4960  -33.9990 C   0  0  0  0  0  0  0  0  0  0  0  0
   -4.1770   18.6710  -33.5120 C   0  0  0  0  0  0  0  0  0  0  0  0
   -4.8160   19.8680  -33.5020 N   0  0  0  0  0  0  0  0  0  0  0  0
   -6.0620   19.7460  -32.9780 C   0  0  0  0  0  0  0  0  0  0  0  0
   -6.9660   20.8010  -32.8410 C   0  0  0  0  0  0  0  0  0  0  0  0
   -8.2270   20.5400  -32.2760 C   0  0  0  0  0  0  0  0  0  0  0  0
   -8.5680   19.2370  -31.8580 C   0  0  0  0  0  0  0  0  0  0  0  0
   -7.6480   18.1840  -32.0000 C   0  0  0  0  0  0  0  0  0  0  0  0
   -6.4070   18.4700  -32.5630 C   0  0  0  0  0  0  0  0  0  0  0  0
   -5.1220   17.4300  -32.8500 S   0  0  0  0  0  0  0  0  0  0  0  0
   -1.0750   20.3720  -30.5080 C   0  0  0  0  0  0  0  0  0  0  0  0
   -2.4800   20.3570  -30.4330 C   0  0  0  0  0  0  0  0  0  0  0  0
   -3.1840   21.5220  -30.1170 C   0  0  0  0  0  0  0  0  0  0  0  0
   -2.4980   22.7200  -29.8810 C   0  0  0  0  0  0  0  0  0  0  0  0
   -3.3780   24.1970  -29.5000 S   0  0  0  0  0  0  0  0  0  0  0  0
   -4.1790   23.9980  -28.2430 O   0  0  0  0  0  0  0  0  0  0  0  0
   -2.3770   25.2920  -29.2530 O   0  0  0  0  0  0  0  0  0  0  0  0
   -4.4100   24.6360  -30.8440 N   0  0  0  0  0  0  0  0  0  0  0  0
   -5.1090   23.4750  -31.4260 C   0  0  0  0  0  0  0  0  0  0  0  0
   -6.3750   23.1010  -30.6390 C   0  0  0  0  0  0  0  0  0  0  0  0
   -7.2350   24.2130  -30.5130 O   0  0  0  0  0  0  0  0  0  0  0  0
   -6.5900   25.2260  -29.7700 C   0  0  0  0  0  0  0  0  0  0  0  0
   -5.3380   25.7310  -30.5040 C   0  0  0  0  0  0  0  0  0  0  0  0
   -1.1020   22.7470  -29.9790 C   0  0  0  0  0  0  0  0  0  0  0  0
   -0.3950   21.5830  -30.2930 C   0  0  0  0  0  0  0  0  0  0  0  0
    2.5599   20.4819  -33.1327 H   0  0  0  0  0  0  0  0  0  0  0  0
    2.3729   21.8679  -35.1971 H   0  0  0  0  0  0  0  0  0  0  0  0
    0.1857   22.0694  -36.3733 H   0  0  0  0  0  0  0  0  0  0  0  0
   -1.8267   20.8934  -35.4864 H   0  0  0  0  0  0  0  0  0  0  0  0
   -2.7256   18.7638  -35.0648 H   0  0  0  0  0  0  0  0  0  0  0  0
   -2.4780   17.4463  -33.8557 H   0  0  0  0  0  0  0  0  0  0  0  0
   -6.6973   21.8162  -33.1685 H   0  0  0  0  0  0  0  0  0  0  0  0
   -8.9528   21.3583  -32.1592 H   0  0  0  0  0  0  0  0  0  0  0  0
   -9.5580   19.0440  -31.4191 H   0  0  0  0  0  0  0  0  0  0  0  0
   -7.9009   17.1637  -31.6758 H   0  0  0  0  0  0  0  0  0  0  0  0
   -3.0276   19.4224  -30.6243 H   0  0  0  0  0  0  0  0  0  0  0  0
   -4.2819   21.4980  -30.0533 H   0  0  0  0  0  0  0  0  0  0  0  0
   -5.3941   23.7161  -32.4607 H   0  0  0  0  0  0  0  0  0  0  0  0
   -4.4232   22.6158  -31.3878 H   0  0  0  0  0  0  0  0  0  0  0  0
   -6.9036   22.2948  -31.1687 H   0  0  0  0  0  0  0  0  0  0  0  0
   -6.0789   22.7692  -29.6329 H   0  0  0  0  0  0  0  0  0  0  0  0
   -7.2861   26.0654  -29.6256 H   0  0  0  0  0  0  0  0  0  0  0  0
   -6.2842   24.8093  -28.7990 H   0  0  0  0  0  0  0  0  0  0  0  0
   -5.6499   26.2318  -31.4324 H   0  0  0  0  0  0  0  0  0  0  0  0
   -4.8100   26.4239  -29.8323 H   0  0  0  0  0  0  0  0  0  0  0  0
   -0.5591   23.6883  -29.8082 H   0  0  0  0  0  0  0  0  0  0  0  0
    0.7017   21.6149  -30.3724 H   0  0  0  0  0  0  0  0  0  0  0  0
  1  2  2  0
  2  3  1  0
  3  4  1  0
  4  5  2  0
  5  6  1  0
  6  7  2  0
  7  8  1  0
  8  9  2  0
  9 10  1  0
 10 11  1  0
 11 12  1  0
 12 13  2  0
 13 14  1  0
 14 15  2  0
 15 16  1  0
 16 17  2  0
 17 18  1  0
 18 19  2  0
 19 20  1  0
  2 21  1  0
 21 22  2  0
 22 23  1  0
 23 24  2  0
 24 25  1  0
 25 26  2  0
 25 27  2  0
 25 28  1  0
 28 29  1  0
 29 30  1  0
 30 31  1  0
 31 32  1  0
 32 33  1  0
 24 34  1  0
 34 35  2  0
  9  4  1  0
 20 12  1  0
 35 21  1  0
 19 14  1  0
 33 28  1  0
  5 36  1  0
  6 37  1  0
  7 38  1  0
  8 39  1  0
 11 40  1  0
 11 41  1  0
 15 42  1  0
 16 43  1  0
 17 44  1  0
 18 45  1  0
 22 46  1  0
 23 47  1  0
 29 48  1  0
 29 49  1  0
 30 50  1  0
 30 51  1  0
 32 52  1  0
 32 53  1  0
 33 54  1  0
 33 55  1  0
 34 56  1  0
 35 57  1  0
M  CHG  1   3  -1
M  END
>  <UniqueID>  (10) 
10

>  <SMILES>  (10) 
O=C([N-]c1ccccc1OCc1nc2ccccc2s1)c1ccc(S(=O)(=O)N2CCOCC2)cc1

>  <Energy>  (10) 
107.54150187626942

>  <Genealogy>  (10) 
O=C([N-]c1ccccc1OCc1nc2ccccc2s1)c1ccc(S(=O)(=O)N2CCOCC2)cc1 (protonated)
O=C([N-]c1ccccc1OCc1nc2ccccc2s1)c1ccc(S(=O)(=O)N2CCOCC2)cc1 (3D coordinates assigned)
O=C([N-]c1ccccc1OCc1nc2ccccc2s1)c1ccc(S(=O)(=O)N2CCOCC2)cc1 (nonaromatic ring conformer: 107.54150187626942 kcal/mol)

>  <smiles>  (10) 
O=C(Nc1ccccc1OCc1nc2ccccc2s1)c1ccc(S(=O)(=O)N2CCOCC2)cc1

>  <score_type>  (10) 
oracle

>  <origin>  (10) 
adgpu

>  <m_score__min__energy>  (10) 
-11.859999999999999

>  <m_primary>  (10) 
energy

$$$$
10:0
     RDKit          3D

 44 46  0  0  0  0  0  0  0  0999 V2000
   -5.0880   24.7640  -31.3680 O   0  0  0  0  0  0  0  0  0  0  0  0
   -5.3440   23.7150  -30.7200 C   0  0  0  0  0  0  0  0  0  0  0  0
   -5.3920   23.7810  -29.2890 N   0  0  0  0  0  0  0  0  0  0  0  0
   -4.6280   22.9260  -28.3900 C   0  0  0  0  0  0  0  0  0  0  0  0
   -3.2190   23.4350  -28.3000 C   0  0  0  0  0  0  0  0  0  0  0  0
   -2.2160   22.6430  -27.7170 C   0  0  0  0  0  0  0  0  0  0  0  0
   -0.8970   23.1040  -27.6640 C   0  0  0  0  0  0  0  0  0  0  0  0
   -0.5650   24.3550  -28.2020 C   0  0  0  0  0  0  0  0  0  0  0  0
    0.7480   24.8200  -28.1510 O   0  0  0  0  0  0  0  0  0  0  0  0
   -1.5580   25.1410  -28.7990 C   0  0  0  0  0  0  0  0  0  0  0  0
   -1.2370   26.3780  -29.3430 O   0  0  0  0  0  0  0  0  0  0  0  0
   -2.8790   24.6810  -28.8510 C   0  0  0  0  0  0  0  0  0  0  0  0
   -5.5460   22.4500  -31.4560 C   0  0  0  0  0  0  0  0  0  0  0  0
   -6.7670   21.7630  -31.3810 C   0  0  0  0  0  0  0  0  0  0  0  0
   -6.9520   20.5740  -32.0920 C   0  0  0  0  0  0  0  0  0  0  0  0
   -5.9220   20.0630  -32.8920 C   0  0  0  0  0  0  0  0  0  0  0  0
   -6.1580   18.5790  -33.8100 S   0  0  0  0  0  0  0  0  0  0  0  0
   -6.1160   18.8820  -35.2840 O   0  0  0  0  0  0  0  0  0  0  0  0
   -7.5080   18.0060  -33.4790 O   0  0  0  0  0  0  0  0  0  0  0  0
   -4.9160   17.4320  -33.3840 N   0  0  0  0  0  0  0  0  0  0  0  0
   -4.5590   16.5860  -34.5220 C   0  0  0  0  0  0  0  0  0  0  0  0
   -4.0430   15.2780  -33.9440 C   0  0  0  0  0  0  0  0  0  0  0  0
   -4.5890   15.2220  -32.5250 C   0  0  0  0  0  0  0  0  0  0  0  0
   -5.3760   16.5110  -32.3450 C   0  0  0  0  0  0  0  0  0  0  0  0
   -4.7130   20.7640  -32.9940 C   0  0  0  0  0  0  0  0  0  0  0  0
   -4.5280   21.9540  -32.2840 C   0  0  0  0  0  0  0  0  0  0  0  0
   -5.0880   22.9392  -27.3909 H   0  0  0  0  0  0  0  0  0  0  0  0
   -4.6239   21.8959  -28.7758 H   0  0  0  0  0  0  0  0  0  0  0  0
   -2.4691   21.6568  -27.3007 H   0  0  0  0  0  0  0  0  0  0  0  0
   -0.1174   22.4830  -27.1986 H   0  0  0  0  0  0  0  0  0  0  0  0
    0.9670   25.8040  -28.2620 H   0  0  0  0  0  0  0  0  0  0  0  0
   -3.6551   25.2990  -29.3261 H   0  0  0  0  0  0  0  0  0  0  0  0
   -7.5824   22.1620  -30.7598 H   0  0  0  0  0  0  0  0  0  0  0  0
   -7.9099   20.0376  -32.0231 H   0  0  0  0  0  0  0  0  0  0  0  0
   -5.4430   16.4012  -35.1499 H   0  0  0  0  0  0  0  0  0  0  0  0
   -3.7983   17.0690  -35.1529 H   0  0  0  0  0  0  0  0  0  0  0  0
   -4.4116   14.4249  -34.5325 H   0  0  0  0  0  0  0  0  0  0  0  0
   -2.9443   15.2270  -33.9626 H   0  0  0  0  0  0  0  0  0  0  0  0
   -5.2462   14.3489  -32.3995 H   0  0  0  0  0  0  0  0  0  0  0  0
   -3.7851   15.1257  -31.7804 H   0  0  0  0  0  0  0  0  0  0  0  0
   -6.4527   16.3171  -32.4597 H   0  0  0  0  0  0  0  0  0  0  0  0
   -5.2181   16.9346  -31.3422 H   0  0  0  0  0  0  0  0  0  0  0  0
   -3.9070   20.3768  -33.6347 H   0  0  0  0  0  0  0  0  0  0  0  0
   -3.5797   22.5040  -32.3750 H   0  0  0  0  0  0  0  0  0  0  0  0
  1  2  2  0
  2  3  1  0
  3  4  1  0
  4  5  1  0
  5  6  2  0
  6  7  1  0
  7  8  2  0
  8  9  1  0
  8 10  1  0
 10 11  1  0
 10 12  2  0
  2 13  1  0
 13 14  2  0
 14 15  1  0
 15 16  2  0
 16 17  1  0
 17 18  2  0
 17 19  2  0
 17 20  1  0
 20 21  1  0
 21 22  1  0
 22 23  1  0
 23 24  1  0
 16 25  1  0
 25 26  2  0
 12  5  1  0
 26 13  1  0
 24 20  1  0
  4 27  1  0
  4 28  1  0
  6 29  1  0
  7 30  1  0
  9 31  1  0
 12 32  1  0
 14 33  1  0
 15 34  1  0
 21 35  1  0
 21 36  1  0
 22 37  1  0
 22 38  1  0
 23 39  1  0
 23 40  1  0
 24 41  1  0
 24 42  1  0
 25 43  1  0
 26 44  1  0
M  CHG  2   3  -1  11  -1
M  END
>  <UniqueID>  (11) 
11

>  <SMILES>  (11) 
O=C([N-]Cc1ccc(O)c([O-])c1)c1ccc(S(=O)(=O)N2CCCC2)cc1

>  <Energy>  (11) 
48.99248090756571

>  <Genealogy>  (11) 
O=C([N-]Cc1ccc(O)c([O-])c1)c1ccc(S(=O)(=O)N2CCCC2)cc1 (protonated)
O=C([N-]Cc1ccc(O)c([O-])c1)c1ccc(S(=O)(=O)N2CCCC2)cc1 (3D coordinates assigned)
O=C([N-]Cc1ccc(O)c([O-])c1)c1ccc(S(=O)(=O)N2CCCC2)cc1 (nonaromatic ring conformer: 48.99248090756571 kcal/mol)

>  <smiles>  (11) 
O=C(NCc1ccc(O)c(O)c1)c1ccc(S(=O)(=O)N2CCCC2)cc1

>  <score_type>  (11) 
oracle

>  <origin>  (11) 
adgpu

>  <m_score__min__energy>  (11) 
-11.890000000000001

>  <m_primary>  (11) 
energy

$$$$
11:0
     RDKit          3D

 53 57  0  0  0  0  0  0  0  0999 V2000
   -2.3337   24.0134  -30.7794 H   0  0  0  0  0  0  0  0  0  0  0  0
   -3.1680   24.0730  -30.0650 C   0  0  0  0  0  0  0  0  0  0  0  0
   -2.8780   24.4500  -28.8000 C   0  0  0  0  0  0  0  0  0  0  0  0
   -3.8370   24.3590  -27.6670 C   0  0  0  0  0  0  0  0  0  0  0  0
   -4.9180   23.7220  -27.7720 O   0  0  0  0  0  0  0  0  0  0  0  0
   -3.5170   24.9280  -26.4320 O   0  0  0  0  0  0  0  0  0  0  0  0
   -2.2710   25.5010  -26.1590 C   0  0  0  0  0  0  0  0  0  0  0  0
   -2.0350   26.0480  -24.8920 C   0  0  0  0  0  0  0  0  0  0  0  0
   -2.8306   26.0335  -24.1325 H   0  0  0  0  0  0  0  0  0  0  0  0
   -0.7940   26.6120  -24.5880 C   0  0  0  0  0  0  0  0  0  0  0  0
   -0.6144   27.0400  -23.5907 H   0  0  0  0  0  0  0  0  0  0  0  0
    0.2190   26.6330  -25.5490 C   0  0  0  0  0  0  0  0  0  0  0  0
    1.1964   27.0760  -25.3070 H   0  0  0  0  0  0  0  0  0  0  0  0
   -0.0070   26.0920  -26.8180 C   0  0  0  0  0  0  0  0  0  0  0  0
    0.7939   26.1103  -27.5719 H   0  0  0  0  0  0  0  0  0  0  0  0
   -1.2550   25.5240  -27.1350 C   0  0  0  0  0  0  0  0  0  0  0  0
   -1.5230   24.9620  -28.4760 C   0  0  0  0  0  0  0  0  0  0  0  0
   -0.6060   24.9410  -29.3430 O   0  0  0  0  0  0  0  0  0  0  0  0
   -4.5150   23.7350  -30.5640 C   0  0  0  0  0  0  0  0  0  0  0  0
   -5.6420   24.5380  -30.5360 C   0  0  0  0  0  0  0  0  0  0  0  0
   -5.7010   25.9620  -30.0920 C   0  0  0  0  0  0  0  0  0  0  0  0
   -5.7027   26.0036  -28.9928 H   0  0  0  0  0  0  0  0  0  0  0  0
   -4.8245   26.5031  -30.4780 H   0  0  0  0  0  0  0  0  0  0  0  0
   -6.6193   26.4287  -30.4780 H   0  0  0  0  0  0  0  0  0  0  0  0
   -6.7250   23.8210  -30.8990 N   0  0  0  0  0  0  0  0  0  0  0  0
   -6.3280   22.5820  -31.1480 N   0  0  0  0  0  0  0  0  0  0  0  0
   -7.2100   21.5580  -31.6360 C   0  0  0  0  0  0  0  0  0  0  0  0
   -6.7020   20.4090  -32.2660 C   0  0  0  0  0  0  0  0  0  0  0  0
   -5.6162   20.2927  -32.3987 H   0  0  0  0  0  0  0  0  0  0  0  0
   -7.5690   19.4130  -32.7250 C   0  0  0  0  0  0  0  0  0  0  0  0
   -7.1641   18.5103  -33.2059 H   0  0  0  0  0  0  0  0  0  0  0  0
   -8.9500   19.5640  -32.5730 C   0  0  0  0  0  0  0  0  0  0  0  0
   -9.6317   18.7770  -32.9279 H   0  0  0  0  0  0  0  0  0  0  0  0
   -9.4650   20.7150  -31.9700 C   0  0  0  0  0  0  0  0  0  0  0  0
  -10.5525   20.8372  -31.8589 H   0  0  0  0  0  0  0  0  0  0  0  0
   -8.6000   21.7110  -31.5080 C   0  0  0  0  0  0  0  0  0  0  0  0
   -9.0101   22.6191  -31.0419 H   0  0  0  0  0  0  0  0  0  0  0  0
   -4.9980   22.4900  -30.9110 C   0  0  0  0  0  0  0  0  0  0  0  0
   -4.2340   21.3150  -30.9500 O   0  0  0  0  0  0  0  0  0  0  0  0
   -3.0630   21.1520  -31.7020 C   0  0  0  0  0  0  0  0  0  0  0  0
   -1.7850   21.2960  -31.1330 C   0  0  0  0  0  0  0  0  0  0  0  0
   -1.6859   21.5595  -30.0696 H   0  0  0  0  0  0  0  0  0  0  0  0
   -0.6400   21.1060  -31.9120 C   0  0  0  0  0  0  0  0  0  0  0  0
    0.3560   21.1990  -31.4544 H   0  0  0  0  0  0  0  0  0  0  0  0
   -0.7570   20.7970  -33.2760 C   0  0  0  0  0  0  0  0  0  0  0  0
    0.4700   20.5480  -34.0990 C   0  0  0  0  0  0  0  0  0  0  0  0
    1.3286   20.3738  -33.4338 H   0  0  0  0  0  0  0  0  0  0  0  0
    0.3125   19.6635  -34.7337 H   0  0  0  0  0  0  0  0  0  0  0  0
    0.6698   21.4239  -34.7337 H   0  0  0  0  0  0  0  0  0  0  0  0
   -2.0330   20.6620  -33.8450 C   0  0  0  0  0  0  0  0  0  0  0  0
   -2.1334   20.4056  -34.9100 H   0  0  0  0  0  0  0  0  0  0  0  0
   -3.1770   20.8520  -33.0640 C   0  0  0  0  0  0  0  0  0  0  0  0
   -4.1728   20.7651  -33.5231 H   0  0  0  0  0  0  0  0  0  0  0  0
  1  2  1  0
  2  3  2  0
  3  4  1  0
  4  5  2  0
  4  6  1  0
  6  7  1  0
  7  8  2  0
  8  9  1  0
  8 10  1  0
 10 11  1  0
 10 12  2  0
 12 13  1  0
 12 14  1  0
 14 15  1  0
 14 16  2  0
 16 17  1  0
 17 18  2  0
  2 19  1  0
 19 20  1  0
 20 21  1  0
 21 22  1  0
 21 23  1  0
 21 24  1  0
 20 25  2  0
 25 26  1  0
 26 27  1  0
 27 28  2  0
 28 29  1  0
 28 30  1  0
 30 31  1  0
 30 32  2  0
 32 33  1  0
 32 34  1  0
 34 35  1  0
 34 36  2  0
 36 37  1  0
 26 38  1  0
 38 39  1  0
 39 40  1  0
 40 41  2  0
 41 42  1  0
 41 43  1  0
 43 44  1  0
 43 45  2  0
 45 46  1  0
 46 47  1  0
 46 48  1  0
 46 49  1  0
 45 50  1  0
 50 51  1  0
 50 52  2  0
 52 53  1  0
 17  3  1  0
 38 19  2  0
 52 40  1  0
 16  7  1  0
 36 27  1  0
M  END
>  <UniqueID>  (12) 
12

>  <SMILES>  (12) 
Cc1ccc(Oc2c(/C=C3\C(=O)Oc4ccccc4C3=O)c(C)nn2-c2ccccc2)cc1

>  <Energy>  (12) 
108.7310826119015

>  <Genealogy>  (12) 
Cc1ccc(Oc2c(/C=C3\C(=O)Oc4ccccc4C3=O)c(C)nn2-c2ccccc2)cc1 (cis-trans isomerization)
Cc1ccc(Oc2c(/C=C3\C(=O)Oc4ccccc4C3=O)c(C)nn2-c2ccccc2)cc1 (3D coordinates assigned)
Cc1ccc(Oc2c(/C=C3\C(=O)Oc4ccccc4C3=O)c(C)nn2-c2ccccc2)cc1 (nonaromatic ring conformer: 108.7310826119015 kcal/mol)

>  <smiles>  (12) 
Cc1ccc(Oc2c(C=C3C(=O)Oc4ccccc4C3=O)c(C)nn2-c2ccccc2)cc1

>  <score_type>  (12) 
oracle

>  <origin>  (12) 
adgpu

>  <m_score__min__energy>  (12) 
-9.8800000000000008

>  <m_primary>  (12) 
energy

$$$$
12:0
     RDKit          3D

 56 59  0  0  0  0  0  0  0  0999 V2000
   -5.4700   26.3060  -30.4680 O   0  0  0  0  0  0  0  0  0  0  0  0
   -4.9310   25.1810  -30.6340 C   0  0  0  0  0  0  0  0  0  0  0  0
   -3.5170   25.0560  -30.4320 N   0  0  0  0  0  0  0  0  0  0  0  0
   -2.8790   24.0110  -29.6840 C   0  0  0  0  0  0  0  0  0  0  0  0
   -1.4840   23.8350  -29.7170 C   0  0  0  0  0  0  0  0  0  0  0  0
   -0.8900   22.7980  -28.9930 C   0  0  0  0  0  0  0  0  0  0  0  0
   -1.6780   21.9320  -28.2240 C   0  0  0  0  0  0  0  0  0  0  0  0
   -0.9130   20.6480  -27.2930 S   0  0  0  0  0  0  0  0  0  0  0  0
    0.5330   21.0070  -27.0870 O   0  0  0  0  0  0  0  0  0  0  0  0
   -1.5750   20.5340  -25.9470 O   0  0  0  0  0  0  0  0  0  0  0  0
   -1.0410   19.1400  -28.1760 N   0  0  0  0  0  0  0  0  0  0  0  0
   -0.4490   18.0090  -27.4270 C   0  0  0  0  0  0  0  0  0  0  0  0
    0.9730   17.6580  -27.9020 C   0  0  0  0  0  0  0  0  0  0  0  0
    1.6430   18.8190  -28.3370 O   0  0  0  0  0  0  0  0  0  0  0  0
    1.0620   19.3000  -29.5360 C   0  0  0  0  0  0  0  0  0  0  0  0
   -0.4860   19.2590  -29.5350 C   0  0  0  0  0  0  0  0  0  0  0  0
   -3.0710   22.0930  -28.2110 C   0  0  0  0  0  0  0  0  0  0  0  0
   -3.6670   23.1220  -28.9450 C   0  0  0  0  0  0  0  0  0  0  0  0
   -5.7550   24.0330  -31.0780 C   0  0  0  0  0  0  0  0  0  0  0  0
   -7.1540   24.0810  -30.9630 C   0  0  0  0  0  0  0  0  0  0  0  0
   -7.9330   23.0010  -31.3850 C   0  0  0  0  0  0  0  0  0  0  0  0
   -7.3270   21.8690  -31.9340 C   0  0  0  0  0  0  0  0  0  0  0  0
   -5.9340   21.8110  -32.0640 C   0  0  0  0  0  0  0  0  0  0  0  0
   -5.1700   20.4020  -32.7970 S   0  0  0  0  0  0  0  0  0  0  0  0
   -5.1700   19.2590  -31.8180 O   0  0  0  0  0  0  0  0  0  0  0  0
   -5.9540   20.0070  -34.0170 O   0  0  0  0  0  0  0  0  0  0  0  0
   -3.5310   20.7870  -33.2620 N   0  0  0  0  0  0  0  0  0  0  0  0
   -2.7230   21.1650  -32.1050 C   0  0  0  0  0  0  0  0  0  0  0  0
   -1.2830   20.8710  -32.4810 C   0  0  0  0  0  0  0  0  0  0  0  0
   -1.3700   19.7710  -33.5260 C   0  0  0  0  0  0  0  0  0  0  0  0
   -2.8540   19.6310  -33.8510 C   0  0  0  0  0  0  0  0  0  0  0  0
   -5.1520   22.8970  -31.6450 C   0  0  0  0  0  0  0  0  0  0  0  0
   -0.8591   24.5153  -30.3142 H   0  0  0  0  0  0  0  0  0  0  0  0
    0.2009   22.6611  -29.0270 H   0  0  0  0  0  0  0  0  0  0  0  0
   -0.4074   18.2769  -26.3609 H   0  0  0  0  0  0  0  0  0  0  0  0
   -1.0836   17.1277  -27.6018 H   0  0  0  0  0  0  0  0  0  0  0  0
    1.5326   17.2062  -27.0697 H   0  0  0  0  0  0  0  0  0  0  0  0
    0.9058   16.9481  -28.7396 H   0  0  0  0  0  0  0  0  0  0  0  0
    1.3821   20.3419  -29.6839 H   0  0  0  0  0  0  0  0  0  0  0  0
    1.4016   18.6387  -30.3468 H   0  0  0  0  0  0  0  0  0  0  0  0
   -0.8647   20.1852  -29.9919 H   0  0  0  0  0  0  0  0  0  0  0  0
   -0.7996   18.3723  -30.1054 H   0  0  0  0  0  0  0  0  0  0  0  0
   -3.6966   21.4070  -27.6211 H   0  0  0  0  0  0  0  0  0  0  0  0
   -4.7613   23.2336  -28.9417 H   0  0  0  0  0  0  0  0  0  0  0  0
   -7.6383   24.9729  -30.5388 H   0  0  0  0  0  0  0  0  0  0  0  0
   -9.0276   23.0424  -31.2845 H   0  0  0  0  0  0  0  0  0  0  0  0
   -7.9451   21.0214  -32.2649 H   0  0  0  0  0  0  0  0  0  0  0  0
   -2.8489   22.2354  -31.8852 H   0  0  0  0  0  0  0  0  0  0  0  0
   -3.0246   20.6077  -31.2058 H   0  0  0  0  0  0  0  0  0  0  0  0
   -0.8017   21.7667  -32.9007 H   0  0  0  0  0  0  0  0  0  0  0  0
   -0.6805   20.5700  -31.6113 H   0  0  0  0  0  0  0  0  0  0  0  0
   -0.8044   20.0514  -34.4268 H   0  0  0  0  0  0  0  0  0  0  0  0
   -0.9426   18.8261  -33.1592 H   0  0  0  0  0  0  0  0  0  0  0  0
   -3.0029   19.6207  -34.9408 H   0  0  0  0  0  0  0  0  0  0  0  0
   -3.2578   18.6911  -33.4467 H   0  0  0  0  0  0  0  0  0  0  0  0
   -4.0588   22.8596  -31.7609 H   0  0  0  0  0  0  0  0  0  0  0  0
  1  2  2  0
  2  3  1  0
  3  4  1  0
  4  5  2  0
  5  6  1  0
  6  7  2  0
  7  8  1  0
  8  9  2  0
  8 10  2  0
  8 11  1  0
 11 12  1  0
 12 13  1  0
 13 14  1  0
 14 15  1  0
 15 16  1  0
  7 17  1  0
 17 18  2  0
  2 19  1  0
 19 20  2  0
 20 21  1  0
 21 22  2  0
 22 23  1  0
 23 24  1  0
 24 25  2  0
 24 26  2  0
 24 27  1  0
 27 28  1  0
 28 29  1  0
 29 30  1  0
 30 31  1  0
 23 32  2  0
 18  4  1  0
 32 19  1  0
 16 11  1  0
 31 27  1  0
  5 33  1  0
  6 34  1  0
 12 35  1  0
 12 36  1  0
 13 37  1  0
 13 38  1  0
 15 39  1  0
 15 40  1  0
 16 41  1  0
 16 42  1  0
 17 43  1  0
 18 44  1  0
 20 45  1  0
 21 46  1  0
 22 47  1  0
 28 48  1  0
 28 49  1  0
 29 50  1  0
 29 51  1  0
 30 52  1  0
 30 53  1  0
 31 54  1  0
 31 55  1  0
 32 56  1  0
M  CHG  1   3  -1
M  END
>  <UniqueID>  (13) 
13

>  <SMILES>  (13) 
O=C([N-]c1ccc(S(=O)(=O)N2CCOCC2)cc1)c1cccc(S(=O)(=O)N2CCCC2)c1

>  <Energy>  (13) 
72.51892859809183

>  <Genealogy>  (13) 
O=C([N-]c1ccc(S(=O)(=O)N2CCOCC2)cc1)c1cccc(S(=O)(=O)N2CCCC2)c1 (protonated)
O=C([N-]c1ccc(S(=O)(=O)N2CCOCC2)cc1)c1cccc(S(=O)(=O)N2CCCC2)c1 (3D coordinates assigned)
O=C([N-]c1ccc(S(=O)(=O)N2CCOCC2)cc1)c1cccc(S(=O)(=O)N2CCCC2)c1 (nonaromatic ring conformer: 72.51892859809183 kcal/mol)

>  <smiles>  (13) 
O=C(Nc1ccc(S(=O)(=O)N2CCOCC2)cc1)c1cccc(S(=O)(=O)N2CCCC2)c1

>  <score_type>  (13) 
oracle

>  <origin>  (13) 
adgpu

>  <m_score__min__energy>  (13) 
-11.65

>  <m_primary>  (13) 
energy

$$$$
13:0
     RDKit          3D

 59 62  0  0  0  0  0  0  0  0999 V2000
   -3.7780   20.5050  -30.7300 C   0  0  0  0  0  0  0  0  0  0  0  0
   -2.7850   20.6570  -31.8420 C   0  0  0  0  0  0  0  0  0  0  0  0
   -1.5160   21.0340  -31.5170 N   0  0  0  0  0  0  0  0  0  0  0  0
   -0.5300   21.1400  -32.4450 C   0  0  0  0  0  0  0  0  0  0  0  0
   -0.7940   20.8420  -33.7790 C   0  0  0  0  0  0  0  0  0  0  0  0
   -2.0810   20.4530  -34.1500 C   0  0  0  0  0  0  0  0  0  0  0  0
   -3.1020   20.3800  -33.1980 C   0  0  0  0  0  0  0  0  0  0  0  0
   -4.3830   20.0080  -33.6430 O   0  0  0  0  0  0  0  0  0  0  0  0
   -4.9070   18.7090  -33.5970 C   0  0  0  0  0  0  0  0  0  0  0  0
   -4.0070   17.6360  -33.6250 C   0  0  0  0  0  0  0  0  0  0  0  0
   -4.4620   16.3190  -33.5230 C   0  0  0  0  0  0  0  0  0  0  0  0
   -3.3180   14.9850  -33.4340 S   0  0  0  0  0  0  0  0  0  0  0  0
   -3.6850   13.9310  -34.4430 O   0  0  0  0  0  0  0  0  0  0  0  0
   -3.3730   14.3750  -32.0610 O   0  0  0  0  0  0  0  0  0  0  0  0
   -1.7120   15.5950  -33.7400 N   0  0  0  0  0  0  0  0  0  0  0  0
   -1.2850   16.5280  -32.6930 C   0  0  0  0  0  0  0  0  0  0  0  0
   -0.3610   17.5460  -33.3490 C   0  0  0  0  0  0  0  0  0  0  0  0
   -0.5080   17.3280  -34.8460 C   0  0  0  0  0  0  0  0  0  0  0  0
   -1.6600   16.3490  -34.9910 C   0  0  0  0  0  0  0  0  0  0  0  0
   -5.8320   16.0710  -33.4110 C   0  0  0  0  0  0  0  0  0  0  0  0
   -6.7430   17.1280  -33.4280 C   0  0  0  0  0  0  0  0  0  0  0  0
   -6.3010   18.4610  -33.5440 C   0  0  0  0  0  0  0  0  0  0  0  0
   -7.2450   19.5460  -33.6470 N   0  0  0  0  0  0  0  0  0  0  0  0
   -8.1470   20.1630  -32.2970 S   0  0  0  0  0  0  0  0  0  0  0  0
   -9.5130   20.5830  -32.7670 O   0  0  0  0  0  0  0  0  0  0  0  0
   -8.2950   19.0860  -31.2610 O   0  0  0  0  0  0  0  0  0  0  0  0
   -7.2800   21.5210  -31.5820 C   0  0  0  0  0  0  0  0  0  0  0  0
   -6.1920   22.0840  -32.2630 C   0  0  0  0  0  0  0  0  0  0  0  0
   -5.5150   23.1810  -31.7190 C   0  0  0  0  0  0  0  0  0  0  0  0
   -5.9270   23.7290  -30.4930 C   0  0  0  0  0  0  0  0  0  0  0  0
   -5.0870   25.1150  -29.7990 S   0  0  0  0  0  0  0  0  0  0  0  0
   -3.5200   25.2590  -30.5150 N   0  0  0  0  0  0  0  0  0  0  0  0
   -5.8660   26.3770  -30.0560 O   0  0  0  0  0  0  0  0  0  0  0  0
   -4.9490   24.9280  -28.3120 O   0  0  0  0  0  0  0  0  0  0  0  0
   -7.0090   23.1590  -29.8090 C   0  0  0  0  0  0  0  0  0  0  0  0
   -7.6810   22.0560  -30.3500 C   0  0  0  0  0  0  0  0  0  0  0  0
   -3.2603   20.5843  -29.7627 H   0  0  0  0  0  0  0  0  0  0  0  0
   -4.5372   21.2974  -30.8055 H   0  0  0  0  0  0  0  0  0  0  0  0
   -4.2654   19.5218  -30.8055 H   0  0  0  0  0  0  0  0  0  0  0  0
    0.4775   21.4614  -32.1424 H   0  0  0  0  0  0  0  0  0  0  0  0
    0.0041   20.9126  -34.5326 H   0  0  0  0  0  0  0  0  0  0  0  0
   -2.2942   20.2018  -35.1995 H   0  0  0  0  0  0  0  0  0  0  0  0
   -2.9297   17.8326  -33.7285 H   0  0  0  0  0  0  0  0  0  0  0  0
   -2.1597   17.0360  -32.2608 H   0  0  0  0  0  0  0  0  0  0  0  0
   -0.7672   15.9954  -31.8817 H   0  0  0  0  0  0  0  0  0  0  0  0
   -0.6630   18.5686  -33.0786 H   0  0  0  0  0  0  0  0  0  0  0  0
    0.6812   17.4203  -33.0202 H   0  0  0  0  0  0  0  0  0  0  0  0
   -0.7403   18.2759  -35.3535 H   0  0  0  0  0  0  0  0  0  0  0  0
    0.4180   16.9456  -35.3001 H   0  0  0  0  0  0  0  0  0  0  0  0
   -2.6039   16.8912  -35.1493 H   0  0  0  0  0  0  0  0  0  0  0  0
   -1.5154   15.6838  -35.8551 H   0  0  0  0  0  0  0  0  0  0  0  0
   -6.1946   15.0375  -33.3089 H   0  0  0  0  0  0  0  0  0  0  0  0
   -7.8199   16.9179  -33.3499 H   0  0  0  0  0  0  0  0  0  0  0  0
   -7.5600   19.8790  -34.5820 H   0  0  0  0  0  0  0  0  0  0  0  0
   -5.8698   21.6627  -33.2267 H   0  0  0  0  0  0  0  0  0  0  0  0
   -4.6573   23.6157  -32.2532 H   0  0  0  0  0  0  0  0  0  0  0  0
   -3.5700   26.0350  -31.2120 H   0  0  0  0  0  0  0  0  0  0  0  0
   -7.3313   23.5790  -28.8448 H   0  0  0  0  0  0  0  0  0  0  0  0
   -8.5260   21.6081  -29.8066 H   0  0  0  0  0  0  0  0  0  0  0  0
  1  2  1  0
  2  3  2  0
  3  4  1  0
  4  5  2  0
  5  6  1  0
  6  7  2  0
  7  8  1  0
  8  9  1  0
  9 10  2  0
 10 11  1  0
 11 12  1  0
 12 13  2  0
 12 14  2  0
 12 15  1  0
 15 16  1  0
 16 17  1  0
 17 18  1  0
 18 19  1  0
 11 20  2  0
 20 21  1  0
 21 22  2  0
 22 23  1  0
 23 24  1  0
 24 25  2  0
 24 26  2  0
 24 27  1  0
 27 28  2  0
 28 29  1  0
 29 30  2  0
 30 31  1  0
 31 32  1  0
 31 33  2  0
 31 34  2  0
 30 35  1  0
 35 36  2  0
  7  2  1  0
 22  9  1  0
 36 27  1  0
 19 15  1  0
  1 37  1  0
  1 38  1  0
  1 39  1  0
  4 40  1  0
  5 41  1  0
  6 42  1  0
 10 43  1  0
 16 44  1  0
 16 45  1  0
 17 46  1  0
 17 47  1  0
 18 48  1  0
 18 49  1  0
 19 50  1  0
 19 51  1  0
 20 52  1  0
 21 53  1  0
 23 54  1  0
 28 55  1  0
 29 56  1  0
 32 57  1  0
 35 58  1  0
 36 59  1  0
M  CHG  1  32  -1
M  END
>  <UniqueID>  (14) 
14

>  <SMILES>  (14) 
Cc1ncccc1Oc1cc(S(=O)(=O)N2CCCC2)ccc1NS(=O)(=O)c1ccc(S([NH-])(=O)=O)cc1

>  <Energy>  (14) 
76.76346346905086

>  <Genealogy>  (14) 
Cc1ncccc1Oc1cc(S(=O)(=O)N2CCCC2)ccc1NS(=O)(=O)c1ccc(S([NH-])(=O)=O)cc1 (protonated)
Cc1ncccc1Oc1cc(S(=O)(=O)N2CCCC2)ccc1NS(=O)(=O)c1ccc(S([NH-])(=O)=O)cc1 (3D coordinates assigned)
Cc1ncccc1Oc1cc(S(=O)(=O)N2CCCC2)ccc1NS(=O)(=O)c1ccc(S([NH-])(=O)=O)cc1 (nonaromatic ring conformer: 76.76346346905086 kcal/mol)

>  <smiles>  (14) 
Cc1ncccc1Oc1cc(S(=O)(=O)N2CCCC2)ccc1NS(=O)(=O)c1ccc(S(N)(=O)=O)cc1

>  <score_type>  (14) 
oracle

>  <origin>  (14) 
adgpu

>  <m_score__min__energy>  (14) 
-12.16

>  <m_primary>  (14) 
energy

$$$$
14:0
     RDKit          3D

 50 52  0  0  0  0  0  0  0  0999 V2000
   -3.7280   20.1180  -33.1720 C   0  0  0  0  0  0  0  0  0  0  0  0
   -4.9420   19.7540  -33.8230 O   0  0  0  0  0  0  0  0  0  0  0  0
   -6.1610   19.5140  -33.1700 C   0  0  0  0  0  0  0  0  0  0  0  0
   -7.0870   20.5490  -32.9250 C   0  0  0  0  0  0  0  0  0  0  0  0
   -8.2790   20.3000  -32.2190 C   0  0  0  0  0  0  0  0  0  0  0  0
   -9.2440   21.3950  -31.9610 C   0  0  0  0  0  0  0  0  0  0  0  0
  -10.4840   21.1760  -32.0340 O   0  0  0  0  0  0  0  0  0  0  0  0
   -8.7730   22.7050  -31.6240 N   0  0  0  0  0  0  0  0  0  0  0  0
   -7.7680   23.4280  -32.3950 C   0  0  0  0  0  0  0  0  0  0  0  0
   -6.5200   23.6180  -31.5760 C   0  0  0  0  0  0  0  0  0  0  0  0
   -5.3370   22.9590  -31.9400 C   0  0  0  0  0  0  0  0  0  0  0  0
   -4.1660   23.1480  -31.2000 C   0  0  0  0  0  0  0  0  0  0  0  0
   -4.1580   24.0030  -30.0850 C   0  0  0  0  0  0  0  0  0  0  0  0
   -2.9170   24.2020  -29.3040 C   0  0  0  0  0  0  0  0  0  0  0  0
   -2.2980   25.2990  -29.3530 O   0  0  0  0  0  0  0  0  0  0  0  0
   -2.4160   23.1800  -28.5060 O   0  0  0  0  0  0  0  0  0  0  0  0
   -5.3450   24.6670  -29.7270 C   0  0  0  0  0  0  0  0  0  0  0  0
   -6.5150   24.4770  -30.4670 C   0  0  0  0  0  0  0  0  0  0  0  0
   -8.5330   19.0010  -31.7520 C   0  0  0  0  0  0  0  0  0  0  0  0
   -7.6240   17.9700  -31.9970 C   0  0  0  0  0  0  0  0  0  0  0  0
   -6.4530   18.2090  -32.7250 C   0  0  0  0  0  0  0  0  0  0  0  0
   -5.5430   17.1220  -32.9550 N   0  0  0  0  0  0  0  0  0  0  0  0
   -4.9670   16.8410  -34.2420 C   0  0  0  0  0  0  0  0  0  0  0  0
   -5.4080   17.4280  -35.2690 O   0  0  0  0  0  0  0  0  0  0  0  0
   -3.8810   15.8460  -34.3730 C   0  0  0  0  0  0  0  0  0  0  0  0
   -3.1820   15.6900  -35.5820 C   0  0  0  0  0  0  0  0  0  0  0  0
   -2.1590   14.7440  -35.6660 C   0  0  0  0  0  0  0  0  0  0  0  0
   -1.8370   13.9640  -34.5550 C   0  0  0  0  0  0  0  0  0  0  0  0
   -2.5490   14.1430  -33.3630 C   0  0  0  0  0  0  0  0  0  0  0  0
   -2.2240   13.3210  -32.1570 C   0  0  0  0  0  0  0  0  0  0  0  0
   -3.5430   15.0720  -33.3040 N   0  0  0  0  0  0  0  0  0  0  0  0
   -3.8695   20.0756  -32.0820 H   0  0  0  0  0  0  0  0  0  0  0  0
   -2.9307   19.4194  -33.4657 H   0  0  0  0  0  0  0  0  0  0  0  0
   -3.4466   21.1400  -33.4657 H   0  0  0  0  0  0  0  0  0  0  0  0
   -6.8749   21.5646  -33.2905 H   0  0  0  0  0  0  0  0  0  0  0  0
   -7.5237   22.8544  -33.3013 H   0  0  0  0  0  0  0  0  0  0  0  0
   -8.1692   24.4144  -32.6707 H   0  0  0  0  0  0  0  0  0  0  0  0
   -5.3303   22.2895  -32.8128 H   0  0  0  0  0  0  0  0  0  0  0  0
   -3.2444   22.6237  -31.4927 H   0  0  0  0  0  0  0  0  0  0  0  0
   -5.3524   25.3411  -28.8578 H   0  0  0  0  0  0  0  0  0  0  0  0
   -7.4366   25.0036  -30.1785 H   0  0  0  0  0  0  0  0  0  0  0  0
   -9.4549   18.7937  -31.1889 H   0  0  0  0  0  0  0  0  0  0  0  0
   -7.8304   16.9597  -31.6139 H   0  0  0  0  0  0  0  0  0  0  0  0
   -5.4190   16.4220  -32.1890 H   0  0  0  0  0  0  0  0  0  0  0  0
   -3.4388   16.3082  -36.4549 H   0  0  0  0  0  0  0  0  0  0  0  0
   -1.6067   14.6135  -36.6083 H   0  0  0  0  0  0  0  0  0  0  0  0
   -1.0323   13.2164  -34.6150 H   0  0  0  0  0  0  0  0  0  0  0  0
   -2.4519   13.8973  -31.2482 H   0  0  0  0  0  0  0  0  0  0  0  0
   -2.8258   12.4003  -32.1678 H   0  0  0  0  0  0  0  0  0  0  0  0
   -1.1553   13.0607  -32.1678 H   0  0  0  0  0  0  0  0  0  0  0  0
  1  2  1  0
  2  3  1  0
  3  4  2  0
  4  5  1  0
  5  6  1  0
  6  7  2  0
  6  8  1  0
  8  9  1  0
  9 10  1  0
 10 11  2  0
 11 12  1  0
 12 13  2  0
 13 14  1  0
 14 15  2  0
 14 16  1  0
 13 17  1  0
 17 18  2  0
  5 19  2  0
 19 20  1  0
 20 21  2  0
 21 22  1  0
 22 23  1  0
 23 24  2  0
 23 25  1  0
 25 26  2  0
 26 27  1  0
 27 28  2  0
 28 29  1  0
 29 30  1  0
 29 31  2  0
 21  3  1  0
 31 25  1  0
 18 10  1  0
  1 32  1  0
  1 33  1  0
  1 34  1  0
  4 35  1  0
  9 36  1  0
  9 37  1  0
 11 38  1  0
 12 39  1  0
 17 40  1  0
 18 41  1  0
 19 42  1  0
 20 43  1  0
 22 44  1  0
 26 45  1  0
 27 46  1  0
 28 47  1  0
 30 48  1  0
 30 49  1  0
 30 50  1  0
M  CHG  2   8  -1  16  -1
M  END
>  <UniqueID>  (15) 
15

>  <SMILES>  (15) 
COc1cc(C(=O)[N-]Cc2ccc(C(=O)[O-])cc2)ccc1NC(=O)c1cccc(C)n1

>  <Energy>  (15) 
55.56431321648716

>  <Genealogy>  (15) 
COc1cc(C(=O)[N-]Cc2ccc(C(=O)[O-])cc2)ccc1NC(=O)c1cccc(C)n1 (protonated)
COc1cc(C(=O)[N-]Cc2ccc(C(=O)[O-])cc2)ccc1NC(=O)c1cccc(C)n1 (3D coordinates assigned)
COc1cc(C(=O)[N-]Cc2ccc(C(=O)[O-])cc2)ccc1NC(=O)c1cccc(C)n1 (optimized conformer: 55.56431321648716 kcal/mol)

>  <smiles>  (15) 
COc1cc(C(=O)NCc2ccc(C(=O)O)cc2)ccc1NC(=O)c1cccc(C)n1

>  <score_type>  (15) 
oracle

>  <origin>  (15) 
adgpu

>  <m_score__min__energy>  (15) 
-11.199999999999999

>  <m_primary>  (15) 
energy

$$$$
15:0
     RDKit          3D

 63 66  0  0  0  0  0  0  0  0999 V2000
   -3.9310   25.6560  -30.8510 O   0  0  0  0  0  0  0  0  0  0  0  0
   -4.9120   24.8700  -30.7510 C   0  0  0  0  0  0  0  0  0  0  0  0
   -5.6800   24.7840  -29.4560 C   0  0  0  0  0  0  0  0  0  0  0  0
   -4.8420   24.2770  -28.3670 N   0  0  0  0  0  0  0  0  0  0  0  0
   -3.4460   23.9430  -28.5050 C   0  0  0  0  0  0  0  0  0  0  0  0
   -2.4260   24.8420  -28.1340 C   0  0  0  0  0  0  0  0  0  0  0  0
   -1.0830   24.4870  -28.2880 C   0  0  0  0  0  0  0  0  0  0  0  0
   -0.7410   23.2380  -28.8080 C   0  0  0  0  0  0  0  0  0  0  0  0
   -1.7420   22.3300  -29.1710 C   0  0  0  0  0  0  0  0  0  0  0  0
   -1.3090   20.7640  -29.8530 S   0  0  0  0  0  0  0  0  0  0  0  0
   -1.5390   19.6860  -28.8300 O   0  0  0  0  0  0  0  0  0  0  0  0
    0.1490   20.7720  -30.2200 O   0  0  0  0  0  0  0  0  0  0  0  0
   -2.2680   20.4710  -31.2810 N   0  0  0  0  0  0  0  0  0  0  0  0
   -1.5530   19.6250  -32.2370 C   0  0  0  0  0  0  0  0  0  0  0  0
   -2.1010   19.9690  -33.6130 C   0  0  0  0  0  0  0  0  0  0  0  0
   -2.7360   21.3420  -33.4600 C   0  0  0  0  0  0  0  0  0  0  0  0
   -2.5510   21.7150  -31.9970 C   0  0  0  0  0  0  0  0  0  0  0  0
   -3.0900   22.6870  -29.0220 C   0  0  0  0  0  0  0  0  0  0  0  0
   -5.3490   24.1690  -31.9220 N   0  0  0  0  0  0  0  0  0  0  0  0
   -6.2830   23.0840  -31.9420 C   0  0  0  0  0  0  0  0  0  0  0  0
   -7.6640   23.3130  -31.8340 C   0  0  0  0  0  0  0  0  0  0  0  0
   -8.5560   22.2360  -31.8280 C   0  0  0  0  0  0  0  0  0  0  0  0
   -8.0750   20.9280  -31.9110 C   0  0  0  0  0  0  0  0  0  0  0  0
   -6.6960   20.6880  -31.9840 C   0  0  0  0  0  0  0  0  0  0  0  0
   -6.1010   19.0330  -32.1110 S   0  0  0  0  0  0  0  0  0  0  0  0
   -6.6320   18.2490  -30.9440 O   0  0  0  0  0  0  0  0  0  0  0  0
   -4.5990   19.0270  -32.0400 O   0  0  0  0  0  0  0  0  0  0  0  0
   -6.6450   18.2910  -33.6000 N   0  0  0  0  0  0  0  0  0  0  0  0
   -5.7390   18.5770  -34.7310 C   0  0  0  0  0  0  0  0  0  0  0  0
   -4.4150   17.7950  -34.6470 C   0  0  0  0  0  0  0  0  0  0  0  0
   -4.5980   16.3500  -34.1510 C   0  0  0  0  0  0  0  0  0  0  0  0
   -6.0550   15.9000  -34.2230 C   0  0  0  0  0  0  0  0  0  0  0  0
   -6.9600   16.8510  -33.4180 C   0  0  0  0  0  0  0  0  0  0  0  0
   -5.8040   21.7700  -31.9900 C   0  0  0  0  0  0  0  0  0  0  0  0
   -6.0443   25.7871  -29.1893 H   0  0  0  0  0  0  0  0  0  0  0  0
   -6.5193   24.0873  -29.5984 H   0  0  0  0  0  0  0  0  0  0  0  0
   -5.3040   24.1210  -27.4420 H   0  0  0  0  0  0  0  0  0  0  0  0
   -2.6880   25.8274  -27.7214 H   0  0  0  0  0  0  0  0  0  0  0  0
   -0.2925   25.1949  -27.9982 H   0  0  0  0  0  0  0  0  0  0  0  0
    0.3177   22.9666  -28.9328 H   0  0  0  0  0  0  0  0  0  0  0  0
   -0.4736   19.8328  -32.1951 H   0  0  0  0  0  0  0  0  0  0  0  0
   -1.6949   18.5585  -32.0078 H   0  0  0  0  0  0  0  0  0  0  0  0
   -1.2889   20.0005  -34.3543 H   0  0  0  0  0  0  0  0  0  0  0  0
   -2.8247   19.2193  -33.9654 H   0  0  0  0  0  0  0  0  0  0  0  0
   -2.2324   22.0730  -34.1097 H   0  0  0  0  0  0  0  0  0  0  0  0
   -3.7976   21.3349  -33.7481 H   0  0  0  0  0  0  0  0  0  0  0  0
   -1.7102   22.4157  -31.8874 H   0  0  0  0  0  0  0  0  0  0  0  0
   -3.4493   22.2076  -31.5966 H   0  0  0  0  0  0  0  0  0  0  0  0
   -3.8768   21.9755  -29.3132 H   0  0  0  0  0  0  0  0  0  0  0  0
   -8.0451   24.3418  -31.7539 H   0  0  0  0  0  0  0  0  0  0  0  0
   -9.6383   22.4197  -31.7578 H   0  0  0  0  0  0  0  0  0  0  0  0
   -8.7800   20.0837  -31.9191 H   0  0  0  0  0  0  0  0  0  0  0  0
   -6.2488   18.3055  -35.6671 H   0  0  0  0  0  0  0  0  0  0  0  0
   -5.4936   19.6487  -34.6962 H   0  0  0  0  0  0  0  0  0  0  0  0
   -3.9611   17.7665  -35.6486 H   0  0  0  0  0  0  0  0  0  0  0  0
   -3.7737   18.3131  -33.9188 H   0  0  0  0  0  0  0  0  0  0  0  0
   -3.9884   15.6804  -34.7755 H   0  0  0  0  0  0  0  0  0  0  0  0
   -4.2820   16.3100  -33.0981 H   0  0  0  0  0  0  0  0  0  0  0  0
   -6.3799   15.8960  -35.2739 H   0  0  0  0  0  0  0  0  0  0  0  0
   -6.1343   14.8900  -33.7945 H   0  0  0  0  0  0  0  0  0  0  0  0
   -8.0012   16.6835  -33.7308 H   0  0  0  0  0  0  0  0  0  0  0  0
   -6.7922   16.6227  -32.3551 H   0  0  0  0  0  0  0  0  0  0  0  0
   -4.7206   21.5847  -32.0327 H   0  0  0  0  0  0  0  0  0  0  0  0
  1  2  2  0
  2  3  1  0
  3  4  1  0
  4  5  1  0
  5  6  2  0
  6  7  1  0
  7  8  2  0
  8  9  1  0
  9 10  1  0
 10 11  2  0
 10 12  2  0
 10 13  1  0
 13 14  1  0
 14 15  1  0
 15 16  1  0
 16 17  1  0
  9 18  2  0
  2 19  1  0
 19 20  1  0
 20 21  2  0
 21 22  1  0
 22 23  2  0
 23 24  1  0
 24 25  1  0
 25 26  2  0
 25 27  2  0
 25 28  1  0
 28 29  1  0
 29 30  1  0
 30 31  1  0
 31 32  1  0
 32 33  1  0
 24 34  2  0
 18  5  1  0
 34 20  1  0
 17 13  1  0
 33 28  1  0
  3 35  1  0
  3 36  1  0
  4 37  1  0
  6 38  1  0
  7 39  1  0
  8 40  1  0
 14 41  1  0
 14 42  1  0
 15 43  1  0
 15 44  1  0
 16 45  1  0
 16 46  1  0
 17 47  1  0
 17 48  1  0
 18 49  1  0
 21 50  1  0
 22 51  1  0
 23 52  1  0
 29 53  1  0
 29 54  1  0
 30 55  1  0
 30 56  1  0
 31 57  1  0
 31 58  1  0
 32 59  1  0
 32 60  1  0
 33 61  1  0
 33 62  1  0
 34 63  1  0
M  CHG  1  19  -1
M  END
>  <UniqueID>  (16) 
16

>  <SMILES>  (16) 
O=C(CNc1cccc(S(=O)(=O)N2CCCC2)c1)[N-]c1cccc(S(=O)(=O)N2CCCCC2)c1

>  <Energy>  (16) 
77.44230954126033

>  <Genealogy>  (16) 
O=C(CNc1cccc(S(=O)(=O)N2CCCC2)c1)[N-]c1cccc(S(=O)(=O)N2CCCCC2)c1 (protonated)
O=C(CNc1cccc(S(=O)(=O)N2CCCC2)c1)[N-]c1cccc(S(=O)(=O)N2CCCCC2)c1 (3D coordinates assigned)
O=C(CNc1cccc(S(=O)(=O)N2CCCC2)c1)[N-]c1cccc(S(=O)(=O)N2CCCCC2)c1 (nonaromatic ring conformer: 77.44230954126033 kcal/mol)

>  <smiles>  (16) 
O=C(CNc1cccc(S(=O)(=O)N2CCCC2)c1)Nc1cccc(S(=O)(=O)N2CCCCC2)c1

>  <score_type>  (16) 
oracle

>  <origin>  (16) 
adgpu

>  <m_score__min__energy>  (16) 
-12.67

>  <m_primary>  (16) 
energy

$$$$
16:0
     RDKit          3D

 42 44  0  0  0  0  0  0  0  0999 V2000
   -4.0800   25.6130  -30.1270 O   0  0  0  0  0  0  0  0  0  0  0  0
   -4.2060   24.1250  -29.9540 S   0  0  0  0  0  0  0  0  0  0  0  0
   -5.3790   23.8670  -29.0490 O   0  0  0  0  0  0  0  0  0  0  0  0
   -2.7230   23.5040  -29.2100 C   0  0  0  0  0  0  0  0  0  0  0  0
   -2.6540   22.1500  -28.8440 C   0  0  0  0  0  0  0  0  0  0  0  0
   -1.5070   21.6400  -28.2310 C   0  0  0  0  0  0  0  0  0  0  0  0
   -0.4150   22.4750  -27.9830 C   0  0  0  0  0  0  0  0  0  0  0  0
    0.7240   21.9660  -27.3700 O   0  0  0  0  0  0  0  0  0  0  0  0
   -0.4670   23.8200  -28.3550 C   0  0  0  0  0  0  0  0  0  0  0  0
   -1.6120   24.3380  -28.9720 C   0  0  0  0  0  0  0  0  0  0  0  0
   -1.6300   25.6780  -29.3390 O   0  0  0  0  0  0  0  0  0  0  0  0
   -4.5010   23.3900  -31.5140 N   0  0  0  0  0  0  0  0  0  0  0  0
   -5.9450   23.1170  -31.6990 C   0  0  0  0  0  0  0  0  0  0  0  0
   -6.1920   22.0200  -32.7370 C   0  0  0  0  0  0  0  0  0  0  0  0
   -5.5270   20.7910  -32.2980 N   0  0  0  0  0  0  0  0  0  0  0  0
   -6.1980   19.5280  -32.4140 C   0  0  0  0  0  0  0  0  0  0  0  0
   -7.4840   19.3930  -31.8670 C   0  0  0  0  0  0  0  0  0  0  0  0
   -8.1850   18.1930  -31.9920 C   0  0  0  0  0  0  0  0  0  0  0  0
   -7.6120   17.1190  -32.6690 C   0  0  0  0  0  0  0  0  0  0  0  0
   -6.3320   17.2340  -33.2140 C   0  0  0  0  0  0  0  0  0  0  0  0
   -5.5960   18.4280  -33.0750 C   0  0  0  0  0  0  0  0  0  0  0  0
   -4.2120   18.5280  -33.6830 C   0  0  0  0  0  0  0  0  0  0  0  0
   -3.2660   18.2370  -32.7180 F   0  0  0  0  0  0  0  0  0  0  0  0
   -4.0770   17.6440  -34.7380 F   0  0  0  0  0  0  0  0  0  0  0  0
   -3.9700   19.8020  -34.1690 F   0  0  0  0  0  0  0  0  0  0  0  0
   -4.2780   20.8760  -31.5360 C   0  0  0  0  0  0  0  0  0  0  0  0
   -3.6010   22.2370  -31.7590 C   0  0  0  0  0  0  0  0  0  0  0  0
   -3.5089   21.4865  -29.0413 H   0  0  0  0  0  0  0  0  0  0  0  0
   -1.4637   20.5792  -27.9432 H   0  0  0  0  0  0  0  0  0  0  0  0
    0.3953   24.4752  -28.1624 H   0  0  0  0  0  0  0  0  0  0  0  0
   -6.3724   22.7984  -30.7368 H   0  0  0  0  0  0  0  0  0  0  0  0
   -6.4221   24.0402  -32.0598 H   0  0  0  0  0  0  0  0  0  0  0  0
   -7.2729   21.8403  -32.8338 H   0  0  0  0  0  0  0  0  0  0  0  0
   -5.7898   22.3328  -33.7119 H   0  0  0  0  0  0  0  0  0  0  0  0
   -7.9426   20.2400  -31.3357 H   0  0  0  0  0  0  0  0  0  0  0  0
   -9.1901   18.0952  -31.5559 H   0  0  0  0  0  0  0  0  0  0  0  0
   -8.1701   16.1770  -32.7745 H   0  0  0  0  0  0  0  0  0  0  0  0
   -5.8933   16.3842  -33.7575 H   0  0  0  0  0  0  0  0  0  0  0  0
   -4.4984   20.7528  -30.4654 H   0  0  0  0  0  0  0  0  0  0  0  0
   -3.5987   20.0813  -31.8781 H   0  0  0  0  0  0  0  0  0  0  0  0
   -2.7414   22.3147  -31.0771 H   0  0  0  0  0  0  0  0  0  0  0  0
   -3.2988   22.2799  -32.8158 H   0  0  0  0  0  0  0  0  0  0  0  0
  1  2  2  0
  2  3  2  0
  2  4  1  0
  4  5  2  0
  5  6  1  0
  6  7  2  0
  7  8  1  0
  7  9  1  0
  9 10  2  0
 10 11  1  0
  2 12  1  0
 12 13  1  0
 13 14  1  0
 14 15  1  0
 15 16  1  0
 16 17  2  0
 17 18  1  0
 18 19  2  0
 19 20  1  0
 20 21  2  0
 21 22  1  0
 22 23  1  0
 22 24  1  0
 22 25  1  0
 15 26  1  0
 26 27  1  0
 10  4  1  0
 27 12  1  0
 21 16  1  0
  5 28  1  0
  6 29  1  0
  9 30  1  0
 13 31  1  0
 13 32  1  0
 14 33  1  0
 14 34  1  0
 17 35  1  0
 18 36  1  0
 19 37  1  0
 20 38  1  0
 26 39  1  0
 26 40  1  0
 27 41  1  0
 27 42  1  0
M  CHG  2   8  -1  11  -1
M  END
>  <UniqueID>  (17) 
17

>  <SMILES>  (17) 
O=S(=O)(c1ccc([O-])cc1[O-])N1CCN(c2ccccc2C(F)(F)F)CC1

>  <Energy>  (17) 
56.994344711400075

>  <Genealogy>  (17) 
O=S(=O)(c1ccc([O-])cc1[O-])N1CCN(c2ccccc2C(F)(F)F)CC1 (protonated)
O=S(=O)(c1ccc([O-])cc1[O-])N1CCN(c2ccccc2C(F)(F)F)CC1 (3D coordinates assigned)
O=S(=O)(c1ccc([O-])cc1[O-])N1CCN(c2ccccc2C(F)(F)F)CC1 (nonaromatic ring conformer: 56.994344711400075 kcal/mol)

>  <smiles>  (17) 
O=S(=O)(c1ccc(O)cc1O)N1CCN(c2ccccc2C(F)(F)F)CC1

>  <score_type>  (17) 
oracle

>  <origin>  (17) 
adgpu

>  <m_score__min__energy>  (17) 
-11.56

>  <m_primary>  (17) 
energy

$$$$
17:0
     RDKit          3D

 59 62  0  0  0  0  0  0  0  0999 V2000
   -6.9390   14.4570  -34.5550 C   0  0  0  0  0  0  0  0  0  0  0  0
   -6.4070   15.8060  -34.1760 C   0  0  0  0  0  0  0  0  0  0  0  0
   -7.1970   16.7030  -33.4440 C   0  0  0  0  0  0  0  0  0  0  0  0
   -6.6880   17.9510  -33.0690 C   0  0  0  0  0  0  0  0  0  0  0  0
   -5.3700   18.3150  -33.4020 C   0  0  0  0  0  0  0  0  0  0  0  0
   -4.8520   19.6510  -33.0090 C   0  0  0  0  0  0  0  0  0  0  0  0
   -3.4830   19.8830  -32.7950 C   0  0  0  0  0  0  0  0  0  0  0  0
   -3.0620   21.1700  -32.4400 C   0  0  0  0  0  0  0  0  0  0  0  0
   -1.6080   21.4570  -32.2040 C   0  0  0  0  0  0  0  0  0  0  0  0
   -1.0040   21.8980  -33.3670 F   0  0  0  0  0  0  0  0  0  0  0  0
   -1.4780   22.4330  -31.2330 F   0  0  0  0  0  0  0  0  0  0  0  0
   -0.9710   20.3040  -31.7790 F   0  0  0  0  0  0  0  0  0  0  0  0
   -3.9820   22.1620  -32.3050 N   0  0  0  0  0  0  0  0  0  0  0  0
   -5.3040   21.9260  -32.5070 C   0  0  0  0  0  0  0  0  0  0  0  0
   -6.4880   23.2580  -32.3300 S   0  0  0  0  0  0  0  0  0  0  0  0
   -5.8810   23.7830  -30.6910 C   0  0  0  0  0  0  0  0  0  0  0  0
   -4.9400   24.9460  -30.8340 C   0  0  0  0  0  0  0  0  0  0  0  0
   -5.3900   26.0580  -31.2160 O   0  0  0  0  0  0  0  0  0  0  0  0
   -3.5740   24.8640  -30.4080 N   0  0  0  0  0  0  0  0  0  0  0  0
   -3.1310   24.6210  -29.0670 C   0  0  0  0  0  0  0  0  0  0  0  0
   -4.0820   24.4000  -28.0640 C   0  0  0  0  0  0  0  0  0  0  0  0
   -3.6780   24.2000  -26.7420 C   0  0  0  0  0  0  0  0  0  0  0  0
   -2.3220   24.2430  -26.4090 C   0  0  0  0  0  0  0  0  0  0  0  0
   -1.3610   24.5030  -27.3960 C   0  0  0  0  0  0  0  0  0  0  0  0
    0.3540   24.5830  -26.9740 S   0  0  0  0  0  0  0  0  0  0  0  0
    0.7930   23.2420  -26.4570 O   0  0  0  0  0  0  0  0  0  0  0  0
    1.1480   24.8870  -28.2140 O   0  0  0  0  0  0  0  0  0  0  0  0
    0.6930   25.8000  -25.7670 N   0  0  0  0  0  0  0  0  0  0  0  0
    0.2450   25.4020  -24.4310 C   0  0  0  0  0  0  0  0  0  0  0  0
   -0.0090   26.6890  -23.6570 C   0  0  0  0  0  0  0  0  0  0  0  0
   -0.1340   27.7800  -24.7110 C   0  0  0  0  0  0  0  0  0  0  0  0
    0.0230   27.0710  -26.0480 C   0  0  0  0  0  0  0  0  0  0  0  0
   -1.7700   24.6920  -28.7250 C   0  0  0  0  0  0  0  0  0  0  0  0
   -5.7260   20.6820  -32.8480 N   0  0  0  0  0  0  0  0  0  0  0  0
   -4.5790   17.4060  -34.1300 C   0  0  0  0  0  0  0  0  0  0  0  0
   -5.0920   16.1610  -34.5060 C   0  0  0  0  0  0  0  0  0  0  0  0
   -7.1654   13.8830  -33.6443 H   0  0  0  0  0  0  0  0  0  0  0  0
   -7.8566   14.5785  -35.1494 H   0  0  0  0  0  0  0  0  0  0  0  0
   -6.1855   13.9195  -35.1494 H   0  0  0  0  0  0  0  0  0  0  0  0
   -8.2232   16.4241  -33.1627 H   0  0  0  0  0  0  0  0  0  0  0  0
   -7.3231   18.6534  -32.5093 H   0  0  0  0  0  0  0  0  0  0  0  0
   -2.7539   19.0667  -32.9046 H   0  0  0  0  0  0  0  0  0  0  0  0
   -6.7353   24.0816  -30.0657 H   0  0  0  0  0  0  0  0  0  0  0  0
   -5.3463   22.9445  -30.2208 H   0  0  0  0  0  0  0  0  0  0  0  0
   -5.1521   24.3838  -28.3180 H   0  0  0  0  0  0  0  0  0  0  0  0
   -4.4291   24.0083  -25.9615 H   0  0  0  0  0  0  0  0  0  0  0  0
   -2.0073   24.0723  -25.3689 H   0  0  0  0  0  0  0  0  0  0  0  0
    1.7290   25.9590  -25.7460 H   0  0  0  0  0  0  0  0  0  0  0  0
   -0.6807   24.8120  -24.5010 H   0  0  0  0  0  0  0  0  0  0  0  0
    0.9993   24.7787  -23.9285 H   0  0  0  0  0  0  0  0  0  0  0  0
   -0.9383   26.6097  -23.0738 H   0  0  0  0  0  0  0  0  0  0  0  0
    0.8003   26.9022  -22.9432 H   0  0  0  0  0  0  0  0  0  0  0  0
   -1.1186   28.2662  -24.6466 H   0  0  0  0  0  0  0  0  0  0  0  0
    0.6212   28.5682  -24.5751 H   0  0  0  0  0  0  0  0  0  0  0  0
   -0.9632   26.8892  -26.5001 H   0  0  0  0  0  0  0  0  0  0  0  0
    0.6046   27.6799  -26.7558 H   0  0  0  0  0  0  0  0  0  0  0  0
   -1.0206   24.8970  -29.5037 H   0  0  0  0  0  0  0  0  0  0  0  0
   -3.5492   17.6775  -34.4052 H   0  0  0  0  0  0  0  0  0  0  0  0
   -4.4594   15.4554  -35.0645 H   0  0  0  0  0  0  0  0  0  0  0  0
  1  2  1  0
  2  3  2  0
  3  4  1  0
  4  5  2  0
  5  6  1  0
  6  7  2  0
  7  8  1  0
  8  9  1  0
  9 10  1  0
  9 11  1  0
  9 12  1  0
  8 13  2  0
 13 14  1  0
 14 15  1  0
 15 16  1  0
 16 17  1  0
 17 18  2  0
 17 19  1  0
 19 20  1  0
 20 21  2  0
 21 22  1  0
 22 23  2  0
 23 24  1  0
 24 25  1  0
 25 26  2  0
 25 27  2  0
 25 28  1  0
 28 29  1  0
 29 30  1  0
 30 31  1  0
 31 32  1  0
 24 33  2  0
 14 34  2  0
  5 35  1  0
 35 36  2  0
 36  2  1  0
 34  6  1  0
 33 20  1  0
 32 28  1  0
  1 37  1  0
  1 38  1  0
  1 39  1  0
  3 40  1  0
  4 41  1  0
  7 42  1  0
 16 43  1  0
 16 44  1  0
 21 45  1  0
 22 46  1  0
 23 47  1  0
 28 48  1  0
 29 49  1  0
 29 50  1  0
 30 51  1  0
 30 52  1  0
 31 53  1  0
 31 54  1  0
 32 55  1  0
 32 56  1  0
 33 57  1  0
 35 58  1  0
 36 59  1  0
M  CHG  2  19  -1  28   1
M  END
>  <UniqueID>  (18) 
18

>  <SMILES>  (18) 
Cc1ccc(-c2cc(C(F)(F)F)nc(SCC(=O)[N-]c3cccc(S(=O)(=O)[NH+]4CCCC4)c3)n2)cc1

>  <Energy>  (18) 
67.55195308365201

>  <Genealogy>  (18) 
Cc1ccc(-c2cc(C(F)(F)F)nc(SCC(=O)[N-]c3cccc(S(=O)(=O)[NH+]4CCCC4)c3)n2)cc1 (protonated)
Cc1ccc(-c2cc(C(F)(F)F)nc(SCC(=O)[N-]c3cccc(S(=O)(=O)[NH+]4CCCC4)c3)n2)cc1 (3D coordinates assigned)
Cc1ccc(-c2cc(C(F)(F)F)nc(SCC(=O)[N-]c3cccc(S(=O)(=O)[NH+]4CCCC4)c3)n2)cc1 (nonaromatic ring conformer: 67.55195308365201 kcal/mol)

>  <smiles>  (18) 
Cc1ccc(-c2cc(C(F)(F)F)nc(SCC(=O)Nc3cccc(S(=O)(=O)N4CCCC4)c3)n2)cc1

>  <score_type>  (18) 
oracle

>  <origin>  (18) 
adgpu

>  <m_score__min__energy>  (18) 
-12.039999999999999

>  <m_primary>  (18) 
energy

$$$$
18:0
     RDKit          3D

 55 58  0  0  0  0  0  0  0  0999 V2000
   -5.3600   26.4210  -30.7990 O   0  0  0  0  0  0  0  0  0  0  0  0
   -5.0010   25.2450  -30.5230 C   0  0  0  0  0  0  0  0  0  0  0  0
   -3.6860   25.0400  -29.9890 N   0  0  0  0  0  0  0  0  0  0  0  0
   -3.3810   24.5430  -28.6530 C   0  0  0  0  0  0  0  0  0  0  0  0
   -1.9550   24.0820  -28.6120 C   0  0  0  0  0  0  0  0  0  0  0  0
   -0.8700   24.9070  -28.3810 C   0  0  0  0  0  0  0  0  0  0  0  0
    0.2550   24.1140  -28.4990 C   0  0  0  0  0  0  0  0  0  0  0  0
   -0.1840   22.8430  -28.8060 C   0  0  0  0  0  0  0  0  0  0  0  0
   -1.5280   22.8300  -28.8790 N   0  0  0  0  0  0  0  0  0  0  0  0
   -2.4970   21.4390  -29.2530 S   0  0  0  0  0  0  0  0  0  0  0  0
   -1.8810   20.2090  -28.6500 O   0  0  0  0  0  0  0  0  0  0  0  0
   -3.8700   21.6310  -28.6710 O   0  0  0  0  0  0  0  0  0  0  0  0
   -2.5890   21.2270  -30.9980 C   0  0  0  0  0  0  0  0  0  0  0  0
   -3.6700   21.7480  -31.7240 C   0  0  0  0  0  0  0  0  0  0  0  0
   -3.7360   21.5680  -33.1090 C   0  0  0  0  0  0  0  0  0  0  0  0
   -2.7220   20.8740  -33.7740 C   0  0  0  0  0  0  0  0  0  0  0  0
   -1.6420   20.3530  -33.0550 C   0  0  0  0  0  0  0  0  0  0  0  0
   -1.5780   20.5250  -31.6690 C   0  0  0  0  0  0  0  0  0  0  0  0
   -5.9250   24.1290  -30.8140 C   0  0  0  0  0  0  0  0  0  0  0  0
   -6.4810   23.3570  -29.7810 C   0  0  0  0  0  0  0  0  0  0  0  0
   -7.3510   22.3030  -30.0750 C   0  0  0  0  0  0  0  0  0  0  0  0
   -7.6870   22.0170  -31.4060 C   0  0  0  0  0  0  0  0  0  0  0  0
   -8.7930   20.7000  -31.7920 S   0  0  0  0  0  0  0  0  0  0  0  0
   -9.0980   19.9490  -30.5270 O   0  0  0  0  0  0  0  0  0  0  0  0
  -10.0780   21.2530  -32.3450 O   0  0  0  0  0  0  0  0  0  0  0  0
   -8.0500   19.6240  -32.9550 N   0  0  0  0  0  0  0  0  0  0  0  0
   -6.6160   19.9080  -33.0960 C   0  0  0  0  0  0  0  0  0  0  0  0
   -5.8650   18.9840  -32.1460 C   0  0  0  0  0  0  0  0  0  0  0  0
   -6.8550   17.8970  -31.7640 C   0  0  0  0  0  0  0  0  0  0  0  0
   -8.1370   18.2250  -32.5170 C   0  0  0  0  0  0  0  0  0  0  0  0
   -7.1670   22.8090  -32.4350 C   0  0  0  0  0  0  0  0  0  0  0  0
   -6.2990   23.8650  -32.1410 C   0  0  0  0  0  0  0  0  0  0  0  0
   -3.5286   25.3483  -27.9183 H   0  0  0  0  0  0  0  0  0  0  0  0
   -4.0481   23.7028  -28.4101 H   0  0  0  0  0  0  0  0  0  0  0  0
   -0.8971   25.9819  -28.1492 H   0  0  0  0  0  0  0  0  0  0  0  0
    1.2997   24.4345  -28.3725 H   0  0  0  0  0  0  0  0  0  0  0  0
    0.4666   21.9708  -28.9670 H   0  0  0  0  0  0  0  0  0  0  0  0
   -4.4669   22.2989  -31.2031 H   0  0  0  0  0  0  0  0  0  0  0  0
   -4.5872   21.9733  -33.6757 H   0  0  0  0  0  0  0  0  0  0  0  0
   -2.7734   20.7374  -34.8643 H   0  0  0  0  0  0  0  0  0  0  0  0
   -0.8432   19.8081  -33.5794 H   0  0  0  0  0  0  0  0  0  0  0  0
   -0.7317   20.1082  -31.1033 H   0  0  0  0  0  0  0  0  0  0  0  0
   -6.2304   23.5831  -28.7341 H   0  0  0  0  0  0  0  0  0  0  0  0
   -7.7731   21.6965  -29.2602 H   0  0  0  0  0  0  0  0  0  0  0  0
   -8.5340   19.7460  -33.8750 H   0  0  0  0  0  0  0  0  0  0  0  0
   -6.2970   19.7199  -34.1318 H   0  0  0  0  0  0  0  0  0  0  0  0
   -6.4064   20.9607  -32.8554 H   0  0  0  0  0  0  0  0  0  0  0  0
   -4.9895   18.5465  -32.6482 H   0  0  0  0  0  0  0  0  0  0  0  0
   -5.4932   19.5240  -31.2627 H   0  0  0  0  0  0  0  0  0  0  0  0
   -6.4754   16.9094  -32.0649 H   0  0  0  0  0  0  0  0  0  0  0  0
   -7.0201   17.8616  -30.6770 H   0  0  0  0  0  0  0  0  0  0  0  0
   -8.2383   17.5642  -33.3906 H   0  0  0  0  0  0  0  0  0  0  0  0
   -9.0137   18.0771  -31.8693 H   0  0  0  0  0  0  0  0  0  0  0  0
   -7.4420   22.6003  -33.4794 H   0  0  0  0  0  0  0  0  0  0  0  0
   -5.9068   24.4928  -32.9546 H   0  0  0  0  0  0  0  0  0  0  0  0
  1  2  2  0
  2  3  1  0
  3  4  1  0
  4  5  1  0
  5  6  2  0
  6  7  1  0
  7  8  2  0
  8  9  1  0
  9 10  1  0
 10 11  2  0
 10 12  2  0
 10 13  1  0
 13 14  2  0
 14 15  1  0
 15 16  2  0
 16 17  1  0
 17 18  2  0
  2 19  1  0
 19 20  2  0
 20 21  1  0
 21 22  2  0
 22 23  1  0
 23 24  2  0
 23 25  2  0
 23 26  1  0
 26 27  1  0
 27 28  1  0
 28 29  1  0
 29 30  1  0
 22 31  1  0
 31 32  2  0
  9  5  1  0
 18 13  1  0
 32 19  1  0
 30 26  1  0
  4 33  1  0
  4 34  1  0
  6 35  1  0
  7 36  1  0
  8 37  1  0
 14 38  1  0
 15 39  1  0
 16 40  1  0
 17 41  1  0
 18 42  1  0
 20 43  1  0
 21 44  1  0
 26 45  1  0
 27 46  1  0
 27 47  1  0
 28 48  1  0
 28 49  1  0
 29 50  1  0
 29 51  1  0
 30 52  1  0
 30 53  1  0
 31 54  1  0
 32 55  1  0
M  CHG  2   3  -1  26   1
M  END
>  <UniqueID>  (19) 
19

>  <SMILES>  (19) 
O=C([N-]Cc1cccn1S(=O)(=O)c1ccccc1)c1ccc(S(=O)(=O)[NH+]2CCCC2)cc1

>  <Energy>  (19) 
86.14504808818772

>  <Genealogy>  (19) 
O=C([N-]Cc1cccn1S(=O)(=O)c1ccccc1)c1ccc(S(=O)(=O)[NH+]2CCCC2)cc1 (protonated)
O=C([N-]Cc1cccn1S(=O)(=O)c1ccccc1)c1ccc(S(=O)(=O)[NH+]2CCCC2)cc1 (3D coordinates assigned)
O=C([N-]Cc1cccn1S(=O)(=O)c1ccccc1)c1ccc(S(=O)(=O)[NH+]2CCCC2)cc1 (nonaromatic ring conformer: 86.14504808818772 kcal/mol)

>  <smiles>  (19) 
O=C(NCc1cccn1S(=O)(=O)c1ccccc1)c1ccc(S(=O)(=O)N2CCCC2)cc1

>  <score_type>  (19) 
oracle

>  <origin>  (19) 
adgpu

>  <m_score__min__energy>  (19) 
-13.16

>  <m_primary>  (19) 
energy

$$$$
19:0
     RDKit          3D

 48 51  0  0  0  0  0  0  0  0999 V2000
   -1.8560   23.2920  -29.9260 O   0  0  0  0  0  0  0  0  0  0  0  0
   -2.4280   24.3240  -29.4830 C   0  0  0  0  0  0  0  0  0  0  0  0
   -3.4930   24.9330  -30.2270 N   0  0  0  0  0  0  0  0  0  0  0  0
   -4.7940   24.3780  -30.4700 C   0  0  0  0  0  0  0  0  0  0  0  0
   -5.9750   25.0740  -30.1440 C   0  0  0  0  0  0  0  0  0  0  0  0
   -7.2250   24.5050  -30.4120 C   0  0  0  0  0  0  0  0  0  0  0  0
   -7.3030   23.2490  -31.0170 C   0  0  0  0  0  0  0  0  0  0  0  0
   -6.1330   22.5750  -31.3900 C   0  0  0  0  0  0  0  0  0  0  0  0
   -4.8830   23.1340  -31.1110 C   0  0  0  0  0  0  0  0  0  0  0  0
   -6.2370   21.3430  -32.0440 O   0  0  0  0  0  0  0  0  0  0  0  0
   -7.4850   20.8930  -32.5770 C   0  0  0  0  0  0  0  0  0  0  0  0
   -8.6340   21.2690  -31.6310 C   0  0  0  0  0  0  0  0  0  0  0  0
   -8.5430   22.6490  -31.2660 O   0  0  0  0  0  0  0  0  0  0  0  0
   -1.9630   24.9390  -28.2170 C   0  0  0  0  0  0  0  0  0  0  0  0
   -0.7180   25.5920  -28.1520 C   0  0  0  0  0  0  0  0  0  0  0  0
   -0.2820   26.1710  -26.9570 C   0  0  0  0  0  0  0  0  0  0  0  0
   -1.0810   26.1100  -25.8100 C   0  0  0  0  0  0  0  0  0  0  0  0
   -0.5070   26.8190  -24.3020 S   0  0  0  0  0  0  0  0  0  0  0  0
   -0.1020   28.2450  -24.5620 O   0  0  0  0  0  0  0  0  0  0  0  0
   -1.6100   26.8140  -23.2800 O   0  0  0  0  0  0  0  0  0  0  0  0
    0.8660   25.9170  -23.7060 N   0  0  0  0  0  0  0  0  0  0  0  0
    2.0910   26.7420  -23.8040 C   0  0  0  0  0  0  0  0  0  0  0  0
    3.3460   25.8530  -23.8300 C   0  0  0  0  0  0  0  0  0  0  0  0
    3.3880   24.9400  -24.9210 O   0  0  0  0  0  0  0  0  0  0  0  0
    2.1110   24.6360  -25.4630 C   0  0  0  0  0  0  0  0  0  0  0  0
    0.9920   24.6150  -24.4050 C   0  0  0  0  0  0  0  0  0  0  0  0
   -2.3200   25.4580  -25.8640 C   0  0  0  0  0  0  0  0  0  0  0  0
   -2.7580   24.8780  -27.0580 C   0  0  0  0  0  0  0  0  0  0  0  0
   -5.9141   26.0682  -29.6772 H   0  0  0  0  0  0  0  0  0  0  0  0
   -8.1449   25.0465  -30.1464 H   0  0  0  0  0  0  0  0  0  0  0  0
   -3.9662   22.5966  -31.3950 H   0  0  0  0  0  0  0  0  0  0  0  0
   -7.6524   21.3643  -33.5567 H   0  0  0  0  0  0  0  0  0  0  0  0
   -7.4542   19.7988  -32.6860 H   0  0  0  0  0  0  0  0  0  0  0  0
   -9.5943   21.0896  -32.1367 H   0  0  0  0  0  0  0  0  0  0  0  0
   -8.5666   20.6526  -30.7224 H   0  0  0  0  0  0  0  0  0  0  0  0
   -0.0832   25.6471  -29.0486 H   0  0  0  0  0  0  0  0  0  0  0  0
    0.6939   26.6770  -26.9180 H   0  0  0  0  0  0  0  0  0  0  0  0
    0.6820   25.7270  -22.6920 H   0  0  0  0  0  0  0  0  0  0  0  0
    2.0518   27.3380  -24.7277 H   0  0  0  0  0  0  0  0  0  0  0  0
    2.1437   27.4017  -22.9254 H   0  0  0  0  0  0  0  0  0  0  0  0
    4.2300   26.5048  -23.8906 H   0  0  0  0  0  0  0  0  0  0  0  0
    3.3263   25.2489  -22.9110 H   0  0  0  0  0  0  0  0  0  0  0  0
    1.8626   25.3950  -26.2195 H   0  0  0  0  0  0  0  0  0  0  0  0
    2.1713   23.6262  -25.8950 H   0  0  0  0  0  0  0  0  0  0  0  0
    0.0378   24.3842  -24.9013 H   0  0  0  0  0  0  0  0  0  0  0  0
    1.2454   23.8498  -23.6565 H   0  0  0  0  0  0  0  0  0  0  0  0
   -2.9500   25.4024  -24.9640 H   0  0  0  0  0  0  0  0  0  0  0  0
   -3.7328   24.3694  -27.0917 H   0  0  0  0  0  0  0  0  0  0  0  0
  1  2  2  0
  2  3  1  0
  3  4  1  0
  4  5  2  0
  5  6  1  0
  6  7  2  0
  7  8  1  0
  8  9  2  0
  8 10  1  0
 10 11  1  0
 11 12  1  0
 12 13  1  0
  2 14  1  0
 14 15  2  0
 15 16  1  0
 16 17  2  0
 17 18  1  0
 18 19  2  0
 18 20  2  0
 18 21  1  0
 21 22  1  0
 22 23  1  0
 23 24  1  0
 24 25  1  0
 25 26  1  0
 17 27  1  0
 27 28  2  0
  9  4  1  0
 28 14  1  0
 13  7  1  0
 26 21  1  0
  5 29  1  0
  6 30  1  0
  9 31  1  0
 11 32  1  0
 11 33  1  0
 12 34  1  0
 12 35  1  0
 15 36  1  0
 16 37  1  0
 21 38  1  0
 22 39  1  0
 22 40  1  0
 23 41  1  0
 23 42  1  0
 25 43  1  0
 25 44  1  0
 26 45  1  0
 26 46  1  0
 27 47  1  0
 28 48  1  0
M  CHG  2   3  -1  21   1
M  END
>  <UniqueID>  (20) 
20

>  <SMILES>  (20) 
O=C([N-]c1ccc2c(c1)OCCO2)c1ccc(S(=O)(=O)[NH+]2CCOCC2)cc1

>  <Energy>  (20) 
68.15960573059735

>  <Genealogy>  (20) 
O=C([N-]c1ccc2c(c1)OCCO2)c1ccc(S(=O)(=O)[NH+]2CCOCC2)cc1 (protonated)
O=C([N-]c1ccc2c(c1)OCCO2)c1ccc(S(=O)(=O)[NH+]2CCOCC2)cc1 (3D coordinates assigned)
O=C([N-]c1ccc2c(c1)OCCO2)c1ccc(S(=O)(=O)[NH+]2CCOCC2)cc1 (nonaromatic ring conformer: 68.15960573059735 kcal/mol)

>  <smiles>  (20) 
O=C(Nc1ccc2c(c1)OCCO2)c1ccc(S(=O)(=O)N2CCOCC2)cc1

>  <score_type>  (20) 
oracle

>  <origin>  (20) 
adgpu

>  <m_score__min__energy>  (20) 
-11.06

>  <m_primary>  (20) 
energy

$$$$
20:0
     RDKit          3D

 57 61  0  0  0  0  0  0  0  0999 V2000
   -1.6150   26.0890  -28.6160 O   0  0  0  0  0  0  0  0  0  0  0  0
   -1.0780   24.9690  -28.4030 C   0  0  0  0  0  0  0  0  0  0  0  0
    0.2710   24.8530  -28.4820 N   0  0  0  0  0  0  0  0  0  0  0  0
    0.8910   23.6920  -28.2620 N   0  0  0  0  0  0  0  0  0  0  0  0
    0.2130   22.5510  -27.9600 C   0  0  0  0  0  0  0  0  0  0  0  0
    1.0200   21.3020  -27.6780 C   0  0  0  0  0  0  0  0  0  0  0  0
    0.6400   20.1880  -28.6250 C   0  0  0  0  0  0  0  0  0  0  0  0
    1.2490   18.9260  -28.5270 C   0  0  0  0  0  0  0  0  0  0  0  0
    0.9390   17.9190  -29.4440 C   0  0  0  0  0  0  0  0  0  0  0  0
    0.0060   18.1520  -30.4650 C   0  0  0  0  0  0  0  0  0  0  0  0
   -0.2800   17.1420  -31.3870 O   0  0  0  0  0  0  0  0  0  0  0  0
   -0.6370   19.4040  -30.5540 C   0  0  0  0  0  0  0  0  0  0  0  0
   -1.6640   19.6840  -31.6280 C   0  0  0  0  0  0  0  0  0  0  0  0
   -1.3010   20.9030  -32.3920 N   0  0  0  0  0  0  0  0  0  0  0  0
   -1.0600   22.0800  -31.5340 C   0  0  0  0  0  0  0  0  0  0  0  0
   -2.3340   22.6100  -30.8410 C   0  0  0  0  0  0  0  0  0  0  0  0
   -3.5480   22.5600  -31.6970 N   0  0  0  0  0  0  0  0  0  0  0  0
   -4.7360   23.2760  -31.2500 C   0  0  0  0  0  0  0  0  0  0  0  0
   -6.0050   22.6510  -31.3240 C   0  0  0  0  0  0  0  0  0  0  0  0
   -7.1680   23.3280  -30.9430 C   0  0  0  0  0  0  0  0  0  0  0  0
   -7.0910   24.6320  -30.4550 C   0  0  0  0  0  0  0  0  0  0  0  0
   -5.8480   25.2660  -30.3500 C   0  0  0  0  0  0  0  0  0  0  0  0
   -4.6750   24.6070  -30.7430 C   0  0  0  0  0  0  0  0  0  0  0  0
   -3.4670   25.2990  -30.6230 O   0  0  0  0  0  0  0  0  0  0  0  0
   -3.6510   21.6090  -32.8250 C   0  0  0  0  0  0  0  0  0  0  0  0
   -2.2890   21.2470  -33.4310 C   0  0  0  0  0  0  0  0  0  0  0  0
   -0.3230   20.4100  -29.6230 C   0  0  0  0  0  0  0  0  0  0  0  0
   -1.2000   22.5980  -27.8710 C   0  0  0  0  0  0  0  0  0  0  0  0
   -1.9800   21.4580  -27.5760 C   0  0  0  0  0  0  0  0  0  0  0  0
   -3.3680   21.5560  -27.4690 C   0  0  0  0  0  0  0  0  0  0  0  0
   -4.0040   22.7840  -27.6670 C   0  0  0  0  0  0  0  0  0  0  0  0
   -3.2550   23.9220  -27.9760 C   0  0  0  0  0  0  0  0  0  0  0  0
   -1.8530   23.8400  -28.0870 C   0  0  0  0  0  0  0  0  0  0  0  0
    2.0893   21.5292  -27.8001 H   0  0  0  0  0  0  0  0  0  0  0  0
    0.8113   20.9743  -26.6489 H   0  0  0  0  0  0  0  0  0  0  0  0
    1.9742   18.7296  -27.7235 H   0  0  0  0  0  0  0  0  0  0  0  0
    1.4294   16.9376  -29.3650 H   0  0  0  0  0  0  0  0  0  0  0  0
   -0.3290   17.3250  -32.3830 H   0  0  0  0  0  0  0  0  0  0  0  0
   -1.7109   18.8268  -32.3158 H   0  0  0  0  0  0  0  0  0  0  0  0
   -2.6423   19.8426  -31.1507 H   0  0  0  0  0  0  0  0  0  0  0  0
   -0.3320   21.8015  -30.7578 H   0  0  0  0  0  0  0  0  0  0  0  0
   -0.6887   22.8843  -32.1860 H   0  0  0  0  0  0  0  0  0  0  0  0
   -2.5181   22.0028  -29.9425 H   0  0  0  0  0  0  0  0  0  0  0  0
   -2.1527   23.6688  -30.6041 H   0  0  0  0  0  0  0  0  0  0  0  0
   -6.0770   21.6153  -31.6874 H   0  0  0  0  0  0  0  0  0  0  0  0
   -8.1455   22.8308  -31.0285 H   0  0  0  0  0  0  0  0  0  0  0  0
   -8.0065   25.1617  -30.1529 H   0  0  0  0  0  0  0  0  0  0  0  0
   -5.7909   26.2912  -29.9553 H   0  0  0  0  0  0  0  0  0  0  0  0
   -4.1298   20.6871  -32.4634 H   0  0  0  0  0  0  0  0  0  0  0  0
   -4.2424   22.0972  -33.6136 H   0  0  0  0  0  0  0  0  0  0  0  0
   -2.4157   20.3842  -34.1014 H   0  0  0  0  0  0  0  0  0  0  0  0
   -1.9157   22.1236  -33.9807 H   0  0  0  0  0  0  0  0  0  0  0  0
   -0.8370   21.3810  -29.6769 H   0  0  0  0  0  0  0  0  0  0  0  0
   -1.4892   20.4846  -27.4293 H   0  0  0  0  0  0  0  0  0  0  0  0
   -3.9634   20.6631  -27.2279 H   0  0  0  0  0  0  0  0  0  0  0  0
   -5.0982   22.8551  -27.5793 H   0  0  0  0  0  0  0  0  0  0  0  0
   -3.7618   24.8856  -28.1332 H   0  0  0  0  0  0  0  0  0  0  0  0
  1  2  2  0
  2  3  1  0
  3  4  1  0
  4  5  2  0
  5  6  1  0
  6  7  1  0
  7  8  2  0
  8  9  1  0
  9 10  2  0
 10 11  1  0
 10 12  1  0
 12 13  1  0
 13 14  1  0
 14 15  1  0
 15 16  1  0
 16 17  1  0
 17 18  1  0
 18 19  2  0
 19 20  1  0
 20 21  2  0
 21 22  1  0
 22 23  2  0
 23 24  1  0
 17 25  1  0
 25 26  1  0
 12 27  2  0
  5 28  1  0
 28 29  2  0
 29 30  1  0
 30 31  2  0
 31 32  1  0
 32 33  2  0
 33  2  1  0
 27  7  1  0
 33 28  1  0
 26 14  1  0
 23 18  1  0
  6 34  1  0
  6 35  1  0
  8 36  1  0
  9 37  1  0
 11 38  1  0
 13 39  1  0
 13 40  1  0
 15 41  1  0
 15 42  1  0
 16 43  1  0
 16 44  1  0
 19 45  1  0
 20 46  1  0
 21 47  1  0
 22 48  1  0
 25 49  1  0
 25 50  1  0
 26 51  1  0
 26 52  1  0
 27 53  1  0
 29 54  1  0
 30 55  1  0
 31 56  1  0
 32 57  1  0
M  CHG  2   3  -1  24  -1
M  END
>  <UniqueID>  (21) 
21

>  <SMILES>  (21) 
O=c1[n-]nc(Cc2ccc(O)c(CN3CCN(c4ccccc4[O-])CC3)c2)c2ccccc12

>  <Energy>  (21) 
82.95927820291206

>  <Genealogy>  (21) 
O=c1[n-]nc(Cc2ccc(O)c(CN3CCN(c4ccccc4[O-])CC3)c2)c2ccccc12 (protonated)
O=c1[n-]nc(Cc2ccc(O)c(CN3CCN(c4ccccc4[O-])CC3)c2)c2ccccc12 (3D coordinates assigned)
O=c1[n-]nc(Cc2ccc(O)c(CN3CCN(c4ccccc4[O-])CC3)c2)c2ccccc12 (nonaromatic ring conformer: 82.95927820291206 kcal/mol)

>  <smiles>  (21) 
O=c1[nH]nc(Cc2ccc(O)c(CN3CCN(c4ccccc4O)CC3)c2)c2ccccc12

>  <score_type>  (21) 
oracle

>  <origin>  (21) 
adgpu

>  <m_score__min__energy>  (21) 
-12.66

>  <m_primary>  (21) 
energy

$$$$
21:0
     RDKit          3D

 47 50  0  0  0  0  0  0  0  0999 V2000
   -5.0310   24.6930  -31.5950 O   0  0  0  0  0  0  0  0  0  0  0  0
   -5.4680   23.6860  -30.5700 S   0  0  0  0  0  0  0  0  0  0  0  0
   -5.9040   24.4080  -29.3250 O   0  0  0  0  0  0  0  0  0  0  0  0
   -6.7970   22.7410  -31.2320 C   0  0  0  0  0  0  0  0  0  0  0  0
   -8.0350   23.3380  -31.5020 C   0  0  0  0  0  0  0  0  0  0  0  0
   -9.1000   22.5620  -31.9680 C   0  0  0  0  0  0  0  0  0  0  0  0
   -8.9380   21.1870  -32.1540 C   0  0  0  0  0  0  0  0  0  0  0  0
   -7.7020   20.5800  -31.8840 C   0  0  0  0  0  0  0  0  0  0  0  0
   -7.5050   18.8340  -32.0500 S   0  0  0  0  0  0  0  0  0  0  0  0
   -6.6840   18.3170  -30.9000 O   0  0  0  0  0  0  0  0  0  0  0  0
   -8.8560   18.1760  -31.9910 O   0  0  0  0  0  0  0  0  0  0  0  0
   -6.7180   18.4170  -33.5570 N   0  0  0  0  0  0  0  0  0  0  0  0
   -6.8030   16.9610  -33.8280 C   0  0  0  0  0  0  0  0  0  0  0  0
   -5.4620   16.2490  -33.5750 C   0  0  0  0  0  0  0  0  0  0  0  0
   -4.4040   16.7580  -34.3760 O   0  0  0  0  0  0  0  0  0  0  0  0
   -4.4810   18.1620  -34.6040 C   0  0  0  0  0  0  0  0  0  0  0  0
   -5.3280   18.9230  -33.5690 C   0  0  0  0  0  0  0  0  0  0  0  0
   -6.6300   21.3670  -31.4480 C   0  0  0  0  0  0  0  0  0  0  0  0
   -4.1380   22.5970  -30.1540 C   0  0  0  0  0  0  0  0  0  0  0  0
   -3.7570   22.4390  -28.8120 C   0  0  0  0  0  0  0  0  0  0  0  0
   -2.6770   21.6190  -28.4740 C   0  0  0  0  0  0  0  0  0  0  0  0
   -1.9610   20.9490  -29.4670 C   0  0  0  0  0  0  0  0  0  0  0  0
   -2.3280   21.0930  -30.8130 C   0  0  0  0  0  0  0  0  0  0  0  0
   -1.6230   20.4330  -31.8280 C   0  0  0  0  0  0  0  0  0  0  0  0
   -2.0100   20.5950  -33.1590 C   0  0  0  0  0  0  0  0  0  0  0  0
   -3.0970   21.4150  -33.4630 C   0  0  0  0  0  0  0  0  0  0  0  0
   -3.7710   22.0520  -32.4710 N   0  0  0  0  0  0  0  0  0  0  0  0
   -3.4240   21.9170  -31.1600 C   0  0  0  0  0  0  0  0  0  0  0  0
   -8.1692   24.4187  -31.3471 H   0  0  0  0  0  0  0  0  0  0  0  0
  -10.0682   23.0352  -32.1888 H   0  0  0  0  0  0  0  0  0  0  0  0
   -9.7813   20.5787  -32.5129 H   0  0  0  0  0  0  0  0  0  0  0  0
   -7.2460   18.9160  -34.3120 H   0  0  0  0  0  0  0  0  0  0  0  0
   -7.5681   16.5214  -33.1712 H   0  0  0  0  0  0  0  0  0  0  0  0
   -7.0645   16.8270  -34.8880 H   0  0  0  0  0  0  0  0  0  0  0  0
   -5.1922   16.3753  -32.5161 H   0  0  0  0  0  0  0  0  0  0  0  0
   -5.5961   15.1900  -33.8406 H   0  0  0  0  0  0  0  0  0  0  0  0
   -3.4603   18.5715  -34.5828 H   0  0  0  0  0  0  0  0  0  0  0  0
   -4.9743   18.2978  -35.5778 H   0  0  0  0  0  0  0  0  0  0  0  0
   -4.8859   18.7877  -32.5709 H   0  0  0  0  0  0  0  0  0  0  0  0
   -5.3422   19.9893  -33.8389 H   0  0  0  0  0  0  0  0  0  0  0  0
   -5.6481   20.9028  -31.2735 H   0  0  0  0  0  0  0  0  0  0  0  0
   -4.3124   22.9643  -28.0211 H   0  0  0  0  0  0  0  0  0  0  0  0
   -2.3895   21.5009  -27.4188 H   0  0  0  0  0  0  0  0  0  0  0  0
   -1.1094   20.3084  -29.1942 H   0  0  0  0  0  0  0  0  0  0  0  0
   -0.7672   19.7892  -31.5766 H   0  0  0  0  0  0  0  0  0  0  0  0
   -1.4623   20.0802  -33.9621 H   0  0  0  0  0  0  0  0  0  0  0  0
   -3.4091   21.5460  -34.5096 H   0  0  0  0  0  0  0  0  0  0  0  0
  1  2  2  0
  2  3  2  0
  2  4  1  0
  4  5  2  0
  5  6  1  0
  6  7  2  0
  7  8  1  0
  8  9  1  0
  9 10  2  0
  9 11  2  0
  9 12  1  0
 12 13  1  0
 13 14  1  0
 14 15  1  0
 15 16  1  0
 16 17  1  0
  8 18  2  0
  2 19  1  0
 19 20  2  0
 20 21  1  0
 21 22  2  0
 22 23  1  0
 23 24  2  0
 24 25  1  0
 25 26  2  0
 26 27  1  0
 27 28  2  0
 18  4  1  0
 28 19  1  0
 17 12  1  0
 28 23  1  0
  5 29  1  0
  6 30  1  0
  7 31  1  0
 12 32  1  0
 13 33  1  0
 13 34  1  0
 14 35  1  0
 14 36  1  0
 16 37  1  0
 16 38  1  0
 17 39  1  0
 17 40  1  0
 18 41  1  0
 20 42  1  0
 21 43  1  0
 22 44  1  0
 24 45  1  0
 25 46  1  0
 26 47  1  0
M  CHG  1  12   1
M  END
>  <UniqueID>  (22) 
22

>  <SMILES>  (22) 
O=S(=O)(c1cccc(S(=O)(=O)[NH+]2CCOCC2)c1)c1cccc2cccnc12

>  <Energy>  (22) 
64.02728774891092

>  <Genealogy>  (22) 
O=S(=O)(c1cccc(S(=O)(=O)[NH+]2CCOCC2)c1)c1cccc2cccnc12 (protonated)
O=S(=O)(c1cccc(S(=O)(=O)[NH+]2CCOCC2)c1)c1cccc2cccnc12 (3D coordinates assigned)
O=S(=O)(c1cccc(S(=O)(=O)[NH+]2CCOCC2)c1)c1cccc2cccnc12 (nonaromatic ring conformer: 64.02728774891092 kcal/mol)

>  <smiles>  (22) 
O=S(=O)(c1cccc(S(=O)(=O)N2CCOCC2)c1)c1cccc2cccnc12

>  <score_type>  (22) 
oracle

>  <origin>  (22) 
adgpu

>  <m_score__min__energy>  (22) 
-9.7599999999999998

>  <m_primary>  (22) 
energy

$$$$
22:0
     RDKit          3D

 62 65  0  0  0  0  0  0  0  0999 V2000
   -8.4070   22.1800  -31.7830 C   0  0  0  0  0  0  0  0  0  0  0  0
   -7.1440   22.9100  -31.4040 C   0  0  0  0  0  0  0  0  0  0  0  0
   -7.2730   24.1810  -30.8200 C   0  0  0  0  0  0  0  0  0  0  0  0
   -6.1490   24.9180  -30.4600 C   0  0  0  0  0  0  0  0  0  0  0  0
   -4.8690   24.4080  -30.6700 C   0  0  0  0  0  0  0  0  0  0  0  0
   -3.7430   25.2040  -30.2780 N   0  0  0  0  0  0  0  0  0  0  0  0
   -2.7180   24.7920  -29.3680 C   0  0  0  0  0  0  0  0  0  0  0  0
   -2.7920   23.6760  -28.7870 O   0  0  0  0  0  0  0  0  0  0  0  0
   -1.6050   25.6630  -29.1370 N   0  0  0  0  0  0  0  0  0  0  0  0
   -0.7810   25.7100  -27.9630 C   0  0  0  0  0  0  0  0  0  0  0  0
    0.1960   24.7240  -27.7930 C   0  0  0  0  0  0  0  0  0  0  0  0
    1.0330   24.7420  -26.6750 C   0  0  0  0  0  0  0  0  0  0  0  0
    0.9240   25.7640  -25.7210 C   0  0  0  0  0  0  0  0  0  0  0  0
   -0.0570   26.7640  -25.8850 C   0  0  0  0  0  0  0  0  0  0  0  0
   -0.8860   26.7450  -27.0180 C   0  0  0  0  0  0  0  0  0  0  0  0
   -0.1570   27.9200  -24.9150 C   0  0  0  0  0  0  0  0  0  0  0  0
    0.4390   27.6230  -23.5970 N   0  0  0  0  0  0  0  0  0  0  0  0
   -0.4460   26.7880  -22.7670 C   0  0  0  0  0  0  0  0  0  0  0  0
    1.7950   27.0550  -23.7320 C   0  0  0  0  0  0  0  0  0  0  0  0
    1.8000   25.7230  -24.4980 C   0  0  0  0  0  0  0  0  0  0  0  0
   -4.7160   23.1650  -31.3130 C   0  0  0  0  0  0  0  0  0  0  0  0
   -3.4370   22.7160  -31.6310 O   0  0  0  0  0  0  0  0  0  0  0  0
   -5.8450   22.3910  -31.6670 C   0  0  0  0  0  0  0  0  0  0  0  0
   -5.5830   20.7880  -32.4100 S   0  0  0  0  0  0  0  0  0  0  0  0
   -6.0330   19.6820  -31.4970 O   0  0  0  0  0  0  0  0  0  0  0  0
   -6.4050   20.6850  -33.6650 O   0  0  0  0  0  0  0  0  0  0  0  0
   -3.8550   20.5240  -32.8280 C   0  0  0  0  0  0  0  0  0  0  0  0
   -3.0360   20.0850  -31.6050 C   0  0  0  0  0  0  0  0  0  0  0  0
   -1.5410   19.9060  -31.9580 C   0  0  0  0  0  0  0  0  0  0  0  0
   -1.3010   19.9070  -33.4180 N   0  0  0  0  0  0  0  0  0  0  0  0
    0.0890   19.5180  -33.7050 C   0  0  0  0  0  0  0  0  0  0  0  0
   -2.2400   19.0000  -34.1060 C   0  0  0  0  0  0  0  0  0  0  0  0
   -3.6940   19.4940  -33.9620 C   0  0  0  0  0  0  0  0  0  0  0  0
   -8.9400   21.8719  -30.8714 H   0  0  0  0  0  0  0  0  0  0  0  0
   -9.0508   22.8453  -32.3771 H   0  0  0  0  0  0  0  0  0  0  0  0
   -8.1519   21.2901  -32.3771 H   0  0  0  0  0  0  0  0  0  0  0  0
   -8.2753   24.5990  -30.6450 H   0  0  0  0  0  0  0  0  0  0  0  0
   -6.2718   25.9122  -30.0055 H   0  0  0  0  0  0  0  0  0  0  0  0
    0.3061   23.9287  -28.5450 H   0  0  0  0  0  0  0  0  0  0  0  0
    1.7832   23.9486  -26.5419 H   0  0  0  0  0  0  0  0  0  0  0  0
   -1.6239   27.5470  -27.1673 H   0  0  0  0  0  0  0  0  0  0  0  0
    0.3645   28.7864  -25.3479 H   0  0  0  0  0  0  0  0  0  0  0  0
   -1.2263   28.1215  -24.7537 H   0  0  0  0  0  0  0  0  0  0  0  0
   -0.2412   26.9812  -21.7036 H   0  0  0  0  0  0  0  0  0  0  0  0
   -1.4952   27.0329  -22.9887 H   0  0  0  0  0  0  0  0  0  0  0  0
   -0.2625   25.7263  -22.9887 H   0  0  0  0  0  0  0  0  0  0  0  0
    2.4272   27.7752  -24.2721 H   0  0  0  0  0  0  0  0  0  0  0  0
    2.1788   26.8605  -22.7197 H   0  0  0  0  0  0  0  0  0  0  0  0
    2.8308   25.4975  -24.8087 H   0  0  0  0  0  0  0  0  0  0  0  0
    1.4039   24.9471  -23.8263 H   0  0  0  0  0  0  0  0  0  0  0  0
   -3.4671   21.4918  -33.1787 H   0  0  0  0  0  0  0  0  0  0  0  0
   -3.1287   20.8496  -30.8197 H   0  0  0  0  0  0  0  0  0  0  0  0
   -3.4267   19.1172  -31.2576 H   0  0  0  0  0  0  0  0  0  0  0  0
   -0.9703   20.7305  -31.5058 H   0  0  0  0  0  0  0  0  0  0  0  0
   -1.2190   18.9298  -31.5664 H   0  0  0  0  0  0  0  0  0  0  0  0
    0.6301   19.3666  -32.7593 H   0  0  0  0  0  0  0  0  0  0  0  0
    0.0959   18.5834  -34.2851 H   0  0  0  0  0  0  0  0  0  0  0  0
    0.5800   20.3132  -34.2851 H   0  0  0  0  0  0  0  0  0  0  0  0
   -1.9796   18.9556  -35.1738 H   0  0  0  0  0  0  0  0  0  0  0  0
   -2.1624   18.0030  -33.6478 H   0  0  0  0  0  0  0  0  0  0  0  0
   -4.0042   19.9599  -34.9090 H   0  0  0  0  0  0  0  0  0  0  0  0
   -4.3208   18.6241  -33.7163 H   0  0  0  0  0  0  0  0  0  0  0  0
  1  2  1  0
  2  3  2  0
  3  4  1  0
  4  5  2  0
  5  6  1  0
  6  7  1  0
  7  8  2  0
  7  9  1  0
  9 10  1  0
 10 11  2  0
 11 12  1  0
 12 13  2  0
 13 14  1  0
 14 15  2  0
 14 16  1  0
 16 17  1  0
 17 18  1  0
 17 19  1  0
 19 20  1  0
  5 21  1  0
 21 22  1  0
 21 23  2  0
 23 24  1  0
 24 25  2  0
 24 26  2  0
 24 27  1  0
 27 28  1  0
 28 29  1  0
 29 30  1  0
 30 31  1  0
 30 32  1  0
 32 33  1  0
 23  2  1  0
 33 27  1  0
 15 10  1  0
 20 13  1  0
  1 34  1  0
  1 35  1  0
  1 36  1  0
  3 37  1  0
  4 38  1  0
 11 39  1  0
 12 40  1  0
 15 41  1  0
 16 42  1  0
 16 43  1  0
 18 44  1  0
 18 45  1  0
 18 46  1  0
 19 47  1  0
 19 48  1  0
 20 49  1  0
 20 50  1  0
 27 51  1  0
 28 52  1  0
 28 53  1  0
 29 54  1  0
 29 55  1  0
 31 56  1  0
 31 57  1  0
 31 58  1  0
 32 59  1  0
 32 60  1  0
 33 61  1  0
 33 62  1  0
M  CHG  3   6  -1   9  -1  22  -1
M  END
>  <UniqueID>  (23) 
23

>  <SMILES>  (23) 
Cc1ccc([N-]C(=O)[N-]c2ccc3c(c2)CN(C)CC3)c([O-])c1S(=O)(=O)C1CCN(C)CC1

>  <Energy>  (23) 
84.09355516859475

>  <Genealogy>  (23) 
Cc1ccc([N-]C(=O)[N-]c2ccc3c(c2)CN(C)CC3)c([O-])c1S(=O)(=O)C1CCN(C)CC1 (protonated)
Cc1ccc([N-]C(=O)[N-]c2ccc3c(c2)CN(C)CC3)c([O-])c1S(=O)(=O)C1CCN(C)CC1 (3D coordinates assigned)
Cc1ccc([N-]C(=O)[N-]c2ccc3c(c2)CN(C)CC3)c([O-])c1S(=O)(=O)C1CCN(C)CC1 (nonaromatic ring conformer: 84.09355516859475 kcal/mol)

>  <smiles>  (23) 
Cc1ccc(NC(=O)Nc2ccc3c(c2)CN(C)CC3)c(O)c1S(=O)(=O)C1CCN(C)CC1

>  <score_type>  (23) 
oracle

>  <origin>  (23) 
adgpu

>  <m_score__min__energy>  (23) 
-16.920000000000002

>  <m_primary>  (23) 
energy

$$$$
23:0
     RDKit          3D

 42 44  0  0  0  0  0  0  0  0999 V2000
   -9.1670   20.3720  -32.3500 C   0  0  0  0  0  0  0  0  0  0  0  0
   -8.6710   21.7060  -32.3440 O   0  0  0  0  0  0  0  0  0  0  0  0
   -7.4620   22.0990  -31.7510 C   0  0  0  0  0  0  0  0  0  0  0  0
   -6.2430   21.4530  -32.0240 C   0  0  0  0  0  0  0  0  0  0  0  0
   -5.0660   21.8750  -31.3990 C   0  0  0  0  0  0  0  0  0  0  0  0
   -5.0860   22.9480  -30.4950 C   0  0  0  0  0  0  0  0  0  0  0  0
   -3.8760   23.3750  -29.8420 N   0  0  0  0  0  0  0  0  0  0  0  0
   -3.3100   24.5990  -29.9080 C   0  0  0  0  0  0  0  0  0  0  0  0
   -3.8590   25.6660  -30.6110 O   0  0  0  0  0  0  0  0  0  0  0  0
   -2.1500   24.6340  -29.1500 C   0  0  0  0  0  0  0  0  0  0  0  0
   -1.2430   25.7280  -28.9600 N   0  0  0  0  0  0  0  0  0  0  0  0
   -0.8740   26.4580  -27.4340 S   0  0  0  0  0  0  0  0  0  0  0  0
   -2.0440   26.2810  -26.5100 O   0  0  0  0  0  0  0  0  0  0  0  0
   -0.6300   27.9270  -27.6380 O   0  0  0  0  0  0  0  0  0  0  0  0
    0.5370   25.6860  -26.7180 C   0  0  0  0  0  0  0  0  0  0  0  0
    0.4730   25.1800  -25.4130 C   0  0  0  0  0  0  0  0  0  0  0  0
    1.5840   24.5480  -24.8480 C   0  0  0  0  0  0  0  0  0  0  0  0
    2.7660   24.4220  -25.5850 C   0  0  0  0  0  0  0  0  0  0  0  0
    2.8370   24.9280  -26.8880 C   0  0  0  0  0  0  0  0  0  0  0  0
    4.4510   24.7520  -27.8950 Br  0  0  0  0  0  0  0  0  0  0  0  0
    1.7260   25.5620  -27.4530 C   0  0  0  0  0  0  0  0  0  0  0  0
   -2.0100   23.3820  -28.5810 C   0  0  0  0  0  0  0  0  0  0  0  0
   -0.8970   22.9100  -27.6990 C   0  0  0  0  0  0  0  0  0  0  0  0
   -3.0830   22.6330  -29.0370 C   0  0  0  0  0  0  0  0  0  0  0  0
   -3.3180   21.2940  -28.7390 O   0  0  0  0  0  0  0  0  0  0  0  0
   -6.3020   23.5960  -30.2300 C   0  0  0  0  0  0  0  0  0  0  0  0
   -7.4780   23.1740  -30.8550 C   0  0  0  0  0  0  0  0  0  0  0  0
   -9.2963   20.0242  -31.3145 H   0  0  0  0  0  0  0  0  0  0  0  0
  -10.1359   20.3434  -32.8701 H   0  0  0  0  0  0  0  0  0  0  0  0
   -8.4522   19.7174  -32.8701 H   0  0  0  0  0  0  0  0  0  0  0  0
   -6.2156   20.6120  -32.7324 H   0  0  0  0  0  0  0  0  0  0  0  0
   -4.1176   21.3624  -31.6174 H   0  0  0  0  0  0  0  0  0  0  0  0
   -0.4551   25.2806  -24.8311 H   0  0  0  0  0  0  0  0  0  0  0  0
    1.5289   24.1498  -23.8241 H   0  0  0  0  0  0  0  0  0  0  0  0
    3.6406   23.9248  -25.1402 H   0  0  0  0  0  0  0  0  0  0  0  0
    1.7842   25.9642  -28.4752 H   0  0  0  0  0  0  0  0  0  0  0  0
   -1.1870   23.0330  -26.6451 H   0  0  0  0  0  0  0  0  0  0  0  0
   -0.6936   21.8482  -27.9018 H   0  0  0  0  0  0  0  0  0  0  0  0
    0.0077   23.5019  -27.9018 H   0  0  0  0  0  0  0  0  0  0  0  0
   -3.5490   20.9950  -27.8000 H   0  0  0  0  0  0  0  0  0  0  0  0
   -6.3295   24.4410  -29.5262 H   0  0  0  0  0  0  0  0  0  0  0  0
   -8.4249   23.6912  -30.6410 H   0  0  0  0  0  0  0  0  0  0  0  0
  1  2  1  0
  2  3  1  0
  3  4  2  0
  4  5  1  0
  5  6  2  0
  6  7  1  0
  7  8  1  0
  8  9  1  0
  8 10  2  0
 10 11  1  0
 11 12  1  0
 12 13  2  0
 12 14  2  0
 12 15  1  0
 15 16  2  0
 16 17  1  0
 17 18  2  0
 18 19  1  0
 19 20  1  0
 19 21  2  0
 10 22  1  0
 22 23  1  0
 22 24  2  0
 24 25  1  0
  6 26  1  0
 26 27  2  0
 27  3  1  0
 24  7  1  0
 21 15  1  0
  1 28  1  0
  1 29  1  0
  1 30  1  0
  4 31  1  0
  5 32  1  0
 16 33  1  0
 17 34  1  0
 18 35  1  0
 21 36  1  0
 23 37  1  0
 23 38  1  0
 23 39  1  0
 25 40  1  0
 26 41  1  0
 27 42  1  0
M  CHG  2   9  -1  11  -1
M  END
>  <UniqueID>  (24) 
24

>  <SMILES>  (24) 
COc1ccc(-n2c([O-])c([N-]S(=O)(=O)c3cccc(Br)c3)c(C)c2O)cc1

>  <Energy>  (24) 
80.21458812559062

>  <Genealogy>  (24) 
COc1ccc(-n2c([O-])c([N-]S(=O)(=O)c3cccc(Br)c3)c(C)c2O)cc1 (protonated)
COc1ccc(-n2c([O-])c([N-]S(=O)(=O)c3cccc(Br)c3)c(C)c2O)cc1 (3D coordinates assigned)
COc1ccc(-n2c([O-])c([N-]S(=O)(=O)c3cccc(Br)c3)c(C)c2O)cc1 (optimized conformer: 80.21458812559062 kcal/mol)

>  <smiles>  (24) 
COc1ccc(-n2c(O)c(C)c(NS(=O)(=O)c3cccc(Br)c3)c2O)cc1

>  <score_type>  (24) 
oracle

>  <origin>  (24) 
adgpu

>  <m_score__min__energy>  (24) 
-12.19

>  <m_primary>  (24) 
energy

$$$$
24:0
     RDKit          3D

 36 39  0  0  0  0  0  0  0  0999 V2000
   -2.7640   17.9780  -34.4270 O   0  0  0  0  0  0  0  0  0  0  0  0
   -3.0050   19.2410  -33.6520 S   0  0  0  0  0  0  0  0  0  0  0  0
   -2.5320   20.4120  -34.4690 O   0  0  0  0  0  0  0  0  0  0  0  0
   -2.1060   19.1800  -32.1690 N   0  0  0  0  0  0  0  0  0  0  0  0
   -1.8850   20.2950  -31.2930 C   0  0  0  0  0  0  0  0  0  0  0  0
   -0.8480   20.3050  -30.3430 C   0  0  0  0  0  0  0  0  0  0  0  0
   -0.6640   21.4160  -29.5170 C   0  0  0  0  0  0  0  0  0  0  0  0
   -1.5090   22.5220  -29.6270 C   0  0  0  0  0  0  0  0  0  0  0  0
   -2.5530   22.5270  -30.5660 C   0  0  0  0  0  0  0  0  0  0  0  0
   -3.4450   23.7000  -30.6850 C   0  0  0  0  0  0  0  0  0  0  0  0
   -3.2200   24.8960  -30.1090 N   0  0  0  0  0  0  0  0  0  0  0  0
   -4.2500   25.6430  -30.4700 N   0  0  0  0  0  0  0  0  0  0  0  0
   -5.0700   24.9390  -31.2310 N   0  0  0  0  0  0  0  0  0  0  0  0
   -4.5950   23.7140  -31.3880 N   0  0  0  0  0  0  0  0  0  0  0  0
   -2.7340   21.4050  -31.3950 C   0  0  0  0  0  0  0  0  0  0  0  0
   -4.7250   19.3730  -33.2970 C   0  0  0  0  0  0  0  0  0  0  0  0
   -5.5310   18.2300  -33.3640 C   0  0  0  0  0  0  0  0  0  0  0  0
   -6.8930   18.3090  -33.0620 C   0  0  0  0  0  0  0  0  0  0  0  0
   -7.4640   19.5340  -32.6870 C   0  0  0  0  0  0  0  0  0  0  0  0
   -8.8290   19.6230  -32.3760 C   0  0  0  0  0  0  0  0  0  0  0  0
   -9.3850   20.8510  -32.0000 C   0  0  0  0  0  0  0  0  0  0  0  0
   -8.5830   21.9940  -31.9340 C   0  0  0  0  0  0  0  0  0  0  0  0
   -7.2220   21.9190  -32.2430 C   0  0  0  0  0  0  0  0  0  0  0  0
   -6.6520   20.6930  -32.6200 C   0  0  0  0  0  0  0  0  0  0  0  0
   -5.2860   20.6040  -32.9300 C   0  0  0  0  0  0  0  0  0  0  0  0
   -0.1803   19.4357  -30.2503 H   0  0  0  0  0  0  0  0  0  0  0  0
    0.1498   21.4197  -28.7769 H   0  0  0  0  0  0  0  0  0  0  0  0
   -1.3560   23.3942  -28.9745 H   0  0  0  0  0  0  0  0  0  0  0  0
   -3.5511   21.3990  -32.1315 H   0  0  0  0  0  0  0  0  0  0  0  0
   -5.0900   17.2654  -33.6557 H   0  0  0  0  0  0  0  0  0  0  0  0
   -7.5199   17.4069  -33.1186 H   0  0  0  0  0  0  0  0  0  0  0  0
   -9.4635   18.7259  -32.4278 H   0  0  0  0  0  0  0  0  0  0  0  0
  -10.4555   20.9169  -31.7558 H   0  0  0  0  0  0  0  0  0  0  0  0
   -9.0250   22.9567  -31.6376 H   0  0  0  0  0  0  0  0  0  0  0  0
   -6.5965   22.8223  -32.1907 H   0  0  0  0  0  0  0  0  0  0  0  0
   -4.6538   21.5030  -32.8848 H   0  0  0  0  0  0  0  0  0  0  0  0
  1  2  2  0
  2  3  2  0
  2  4  1  0
  4  5  1  0
  5  6  2  0
  6  7  1  0
  7  8  2  0
  8  9  1  0
  9 10  1  0
 10 11  1  0
 11 12  2  0
 12 13  1  0
 13 14  1  0
  9 15  2  0
  2 16  1  0
 16 17  2  0
 17 18  1  0
 18 19  2  0
 19 20  1  0
 20 21  2  0
 21 22  1  0
 22 23  2  0
 23 24  1  0
 24 25  2  0
 15  5  1  0
 25 16  1  0
 14 10  2  0
 24 19  1  0
  6 26  1  0
  7 27  1  0
  8 28  1  0
 15 29  1  0
 17 30  1  0
 18 31  1  0
 20 32  1  0
 21 33  1  0
 22 34  1  0
 23 35  1  0
 25 36  1  0
M  CHG  2   4  -1  13  -1
M  END
>  <UniqueID>  (25) 
25

>  <SMILES>  (25) 
O=S(=O)([N-]c1cccc(-c2nn[n-]n2)c1)c1ccc2ccccc2c1

>  <Energy>  (25) 
85.4523605789585

>  <Genealogy>  (25) 
O=S(=O)([N-]c1cccc(-c2nn[n-]n2)c1)c1ccc2ccccc2c1 (protonated)
O=S(=O)([N-]c1cccc(-c2nn[n-]n2)c1)c1ccc2ccccc2c1 (3D coordinates assigned)
O=S(=O)([N-]c1cccc(-c2nn[n-]n2)c1)c1ccc2ccccc2c1 (optimized conformer: 85.4523605789585 kcal/mol)

>  <smiles>  (25) 
O=S(=O)(Nc1cccc(-c2nn[nH]n2)c1)c1ccc2ccccc2c1

>  <score_type>  (25) 
oracle

>  <origin>  (25) 
adgpu

>  <m_score__min__energy>  (25) 
-11.210000000000001

>  <m_primary>  (25) 
energy

$$$$
25:0
     RDKit          3D

 56 59  0  0  0  0  0  0  0  0999 V2000
    0.6910   16.2900  -27.8880 C   0  0  0  0  0  0  0  0  0  0  0  0
    0.2270   17.3520  -27.0610 O   0  0  0  0  0  0  0  0  0  0  0  0
   -0.3950   18.5170  -27.5390 C   0  0  0  0  0  0  0  0  0  0  0  0
   -1.5690   19.0290  -26.9590 C   0  0  0  0  0  0  0  0  0  0  0  0
   -2.1550   20.1940  -27.4600 C   0  0  0  0  0  0  0  0  0  0  0  0
   -1.5810   20.8710  -28.5500 C   0  0  0  0  0  0  0  0  0  0  0  0
   -2.1990   22.1150  -29.0740 C   0  0  0  0  0  0  0  0  0  0  0  0
   -1.8200   23.3680  -28.5680 C   0  0  0  0  0  0  0  0  0  0  0  0
   -2.3940   24.5360  -29.0720 C   0  0  0  0  0  0  0  0  0  0  0  0
   -3.3660   24.4720  -30.0730 C   0  0  0  0  0  0  0  0  0  0  0  0
   -3.8740   25.6590  -30.5900 O   0  0  0  0  0  0  0  0  0  0  0  0
   -3.8000   23.2200  -30.5610 C   0  0  0  0  0  0  0  0  0  0  0  0
   -4.8730   23.1150  -31.6320 C   0  0  0  0  0  0  0  0  0  0  0  0
   -5.6970   21.8850  -31.5460 N   0  0  0  0  0  0  0  0  0  0  0  0
   -7.1240   22.0930  -31.8690 C   0  0  0  0  0  0  0  0  0  0  0  0
   -7.8490   20.7460  -31.9940 C   0  0  0  0  0  0  0  0  0  0  0  0
   -7.2830   19.9070  -33.0700 N   0  0  0  0  0  0  0  0  0  0  0  0
   -5.8790   20.2170  -33.4010 C   0  0  0  0  0  0  0  0  0  0  0  0
   -5.0950   20.6820  -32.1670 C   0  0  0  0  0  0  0  0  0  0  0  0
   -3.1760   22.0550  -30.0830 C   0  0  0  0  0  0  0  0  0  0  0  0
   -0.4080   20.3570  -29.1270 C   0  0  0  0  0  0  0  0  0  0  0  0
    0.1830   19.1930  -28.6250 C   0  0  0  0  0  0  0  0  0  0  0  0
    1.3890   18.7080  -29.2120 N   0  0  0  0  0  0  0  0  0  0  0  0
    1.4310   18.2100  -30.8690 S   0  0  0  0  0  0  0  0  0  0  0  0
    1.1470   16.7380  -30.9650 O   0  0  0  0  0  0  0  0  0  0  0  0
    2.7990   18.4790  -31.4280 O   0  0  0  0  0  0  0  0  0  0  0  0
    0.2470   19.1140  -31.8000 C   0  0  0  0  0  0  0  0  0  0  0  0
   -0.9920   18.5420  -32.1180 C   0  0  0  0  0  0  0  0  0  0  0  0
   -1.9360   19.3000  -32.8120 C   0  0  0  0  0  0  0  0  0  0  0  0
   -1.6370   20.6120  -33.1830 C   0  0  0  0  0  0  0  0  0  0  0  0
   -0.3910   21.1480  -32.8500 C   0  0  0  0  0  0  0  0  0  0  0  0
    0.5140   20.3970  -32.1690 N   0  0  0  0  0  0  0  0  0  0  0  0
    1.0517   15.4645  -27.2568 H   0  0  0  0  0  0  0  0  0  0  0  0
   -0.1331   15.9329  -28.5231 H   0  0  0  0  0  0  0  0  0  0  0  0
    1.5129   16.6521  -28.5231 H   0  0  0  0  0  0  0  0  0  0  0  0
   -2.0288   18.5091  -26.1056 H   0  0  0  0  0  0  0  0  0  0  0  0
   -3.0734   20.5848  -26.9976 H   0  0  0  0  0  0  0  0  0  0  0  0
   -1.0660   23.4298  -27.7694 H   0  0  0  0  0  0  0  0  0  0  0  0
   -2.0788   25.5136  -28.6783 H   0  0  0  0  0  0  0  0  0  0  0  0
   -5.5400   23.9847  -31.5389 H   0  0  0  0  0  0  0  0  0  0  0  0
   -4.3520   23.0803  -32.6002 H   0  0  0  0  0  0  0  0  0  0  0  0
   -7.5938   22.6840  -31.0690 H   0  0  0  0  0  0  0  0  0  0  0  0
   -7.1974   22.6268  -32.8280 H   0  0  0  0  0  0  0  0  0  0  0  0
   -7.7607   20.2060  -31.0398 H   0  0  0  0  0  0  0  0  0  0  0  0
   -8.9011   20.9498  -32.2419 H   0  0  0  0  0  0  0  0  0  0  0  0
   -7.8560   20.0450  -33.9370 H   0  0  0  0  0  0  0  0  0  0  0  0
   -5.4008   19.3138  -33.8078 H   0  0  0  0  0  0  0  0  0  0  0  0
   -5.8725   21.0326  -34.1391 H   0  0  0  0  0  0  0  0  0  0  0  0
   -5.0835   19.8685  -31.4266 H   0  0  0  0  0  0  0  0  0  0  0  0
   -4.0761   20.9412  -32.4904 H   0  0  0  0  0  0  0  0  0  0  0  0
   -3.4570   21.0791  -30.5058 H   0  0  0  0  0  0  0  0  0  0  0  0
    0.0504   20.8751  -29.9822 H   0  0  0  0  0  0  0  0  0  0  0  0
   -1.2181   17.5065  -31.8237 H   0  0  0  0  0  0  0  0  0  0  0  0
   -2.9136   18.8645  -33.0661 H   0  0  0  0  0  0  0  0  0  0  0  0
   -2.3742   21.2168  -33.7313 H   0  0  0  0  0  0  0  0  0  0  0  0
   -0.1418   22.1796  -33.1394 H   0  0  0  0  0  0  0  0  0  0  0  0
  1  2  1  0
  2  3  1  0
  3  4  2  0
  4  5  1  0
  5  6  2  0
  6  7  1  0
  7  8  2  0
  8  9  1  0
  9 10  2  0
 10 11  1  0
 10 12  1  0
 12 13  1  0
 13 14  1  0
 14 15  1  0
 15 16  1  0
 16 17  1  0
 17 18  1  0
 18 19  1  0
 12 20  2  0
  6 21  1  0
 21 22  2  0
 22 23  1  0
 23 24  1  0
 24 25  2  0
 24 26  2  0
 24 27  1  0
 27 28  2  0
 28 29  1  0
 29 30  2  0
 30 31  1  0
 31 32  2  0
 22  3  1  0
 32 27  1  0
 20  7  1  0
 19 14  1  0
  1 33  1  0
  1 34  1  0
  1 35  1  0
  4 36  1  0
  5 37  1  0
  8 38  1  0
  9 39  1  0
 13 40  1  0
 13 41  1  0
 15 42  1  0
 15 43  1  0
 16 44  1  0
 16 45  1  0
 17 46  1  0
 18 47  1  0
 18 48  1  0
 19 49  1  0
 19 50  1  0
 20 51  1  0
 21 52  1  0
 28 53  1  0
 29 54  1  0
 30 55  1  0
 31 56  1  0
M  CHG  2  11  -1  23  -1
M  END
>  <UniqueID>  (26) 
26

>  <SMILES>  (26) 
COc1ccc(-c2ccc([O-])c(CN3CCNCC3)c2)cc1[N-]S(=O)(=O)c1ccccn1

>  <Energy>  (26) 
87.03046332131848

>  <Genealogy>  (26) 
COc1ccc(-c2ccc([O-])c(CN3CCNCC3)c2)cc1[N-]S(=O)(=O)c1ccccn1 (protonated)
COc1ccc(-c2ccc([O-])c(CN3CCNCC3)c2)cc1[N-]S(=O)(=O)c1ccccn1 (3D coordinates assigned)
COc1ccc(-c2ccc([O-])c(CN3CCNCC3)c2)cc1[N-]S(=O)(=O)c1ccccn1 (nonaromatic ring conformer: 87.03046332131848 kcal/mol)

>  <smiles>  (26) 
COc1ccc(-c2ccc(O)c(CN3CCNCC3)c2)cc1NS(=O)(=O)c1ccccn1

>  <score_type>  (26) 
oracle

>  <origin>  (26) 
adgpu

>  <m_score__min__energy>  (26) 
-11.609999999999999

>  <m_primary>  (26) 
energy

$$$$
26:0
     RDKit          3D

 75 79  0  0  0  0  0  0  0  0999 V2000
   -3.8870   23.9390  -27.1500 C   0  0  0  0  0  0  0  0  0  0  0  0
   -2.5690   24.6710  -27.1250 C   0  0  0  0  0  0  0  0  0  0  0  0
   -2.2670   25.5100  -26.0430 C   0  0  0  0  0  0  0  0  0  0  0  0
   -1.0640   26.2250  -26.0170 C   0  0  0  0  0  0  0  0  0  0  0  0
   -0.6890   27.3120  -24.6830 S   0  0  0  0  0  0  0  0  0  0  0  0
    1.0750   27.4000  -24.4710 C   0  0  0  0  0  0  0  0  0  0  0  0
   -1.3240   26.8000  -23.4200 O   0  0  0  0  0  0  0  0  0  0  0  0
   -1.2260   28.6860  -24.9700 O   0  0  0  0  0  0  0  0  0  0  0  0
   -0.1750   26.0960  -27.0870 C   0  0  0  0  0  0  0  0  0  0  0  0
   -0.4700   25.2690  -28.1230 N   0  0  0  0  0  0  0  0  0  0  0  0
   -1.6220   24.5430  -28.1680 C   0  0  0  0  0  0  0  0  0  0  0  0
   -1.8500   23.6700  -29.3330 C   0  0  0  0  0  0  0  0  0  0  0  0
   -3.0380   23.7820  -30.0660 C   0  0  0  0  0  0  0  0  0  0  0  0
   -3.2800   22.9320  -31.1480 C   0  0  0  0  0  0  0  0  0  0  0  0
   -2.3340   21.9630  -31.5170 C   0  0  0  0  0  0  0  0  0  0  0  0
   -2.6450   21.0180  -32.5610 N   0  0  0  0  0  0  0  0  0  0  0  0
   -3.7960   21.2310  -33.4580 C   0  0  0  0  0  0  0  0  0  0  0  0
   -5.0390   20.5660  -32.9200 C   0  0  0  0  0  0  0  0  0  0  0  0
   -6.2280   21.2970  -32.7650 C   0  0  0  0  0  0  0  0  0  0  0  0
   -7.3650   20.6880  -32.2290 C   0  0  0  0  0  0  0  0  0  0  0  0
   -7.3280   19.3470  -31.8400 C   0  0  0  0  0  0  0  0  0  0  0  0
   -6.1480   18.6010  -31.9960 C   0  0  0  0  0  0  0  0  0  0  0  0
   -6.0900   17.1530  -31.5820 C   0  0  0  0  0  0  0  0  0  0  0  0
   -5.6640   16.2950  -32.7080 N   0  0  0  0  0  0  0  0  0  0  0  0
   -6.4420   16.5930  -33.9400 C   0  0  0  0  0  0  0  0  0  0  0  0
   -5.7240   17.5860  -34.8630 C   0  0  0  0  0  0  0  0  0  0  0  0
   -4.3560   17.0440  -35.3160 C   0  0  0  0  0  0  0  0  0  0  0  0
   -3.7710   16.0160  -34.3340 C   0  0  0  0  0  0  0  0  0  0  0  0
   -4.1880   16.3440  -32.8950 C   0  0  0  0  0  0  0  0  0  0  0  0
   -5.0180   19.2100  -32.5590 C   0  0  0  0  0  0  0  0  0  0  0  0
   -1.8310   19.8390  -32.7000 C   0  0  0  0  0  0  0  0  0  0  0  0
   -1.8310   18.9740  -31.7840 O   0  0  0  0  0  0  0  0  0  0  0  0
   -1.0150   19.6050  -33.9090 C   0  0  0  0  0  0  0  0  0  0  0  0
   -0.9310   18.3110  -34.4480 C   0  0  0  0  0  0  0  0  0  0  0  0
   -0.1730   18.0720  -35.5980 C   0  0  0  0  0  0  0  0  0  0  0  0
    0.5180   19.1200  -36.2120 C   0  0  0  0  0  0  0  0  0  0  0  0
    1.2700   18.8810  -37.3550 O   0  0  0  0  0  0  0  0  0  0  0  0
    0.4610   20.4050  -35.6680 C   0  0  0  0  0  0  0  0  0  0  0  0
   -0.2880   20.6490  -34.5130 C   0  0  0  0  0  0  0  0  0  0  0  0
   -0.2840   21.9260  -33.9620 O   0  0  0  0  0  0  0  0  0  0  0  0
   -1.1170   21.8950  -30.8160 C   0  0  0  0  0  0  0  0  0  0  0  0
   -0.8800   22.7390  -29.7290 C   0  0  0  0  0  0  0  0  0  0  0  0
   -4.2225   23.7526  -26.1191 H   0  0  0  0  0  0  0  0  0  0  0  0
   -4.6361   24.5503  -27.6746 H   0  0  0  0  0  0  0  0  0  0  0  0
   -3.7639   22.9800  -27.6746 H   0  0  0  0  0  0  0  0  0  0  0  0
   -2.9792   25.6068  -25.2103 H   0  0  0  0  0  0  0  0  0  0  0  0
    1.3152   27.4120  -23.3976 H   0  0  0  0  0  0  0  0  0  0  0  0
    1.5451   26.5242  -24.9422 H   0  0  0  0  0  0  0  0  0  0  0  0
    1.4556   28.3182  -24.9422 H   0  0  0  0  0  0  0  0  0  0  0  0
    0.7660   26.6656  -27.0903 H   0  0  0  0  0  0  0  0  0  0  0  0
   -3.7833   24.5420  -29.7888 H   0  0  0  0  0  0  0  0  0  0  0  0
   -4.2184   23.0228  -31.7147 H   0  0  0  0  0  0  0  0  0  0  0  0
   -3.9804   22.3111  -33.5545 H   0  0  0  0  0  0  0  0  0  0  0  0
   -3.5606   20.7881  -34.4370 H   0  0  0  0  0  0  0  0  0  0  0  0
   -6.2641   22.3541  -33.0671 H   0  0  0  0  0  0  0  0  0  0  0  0
   -8.2932   21.2667  -32.1128 H   0  0  0  0  0  0  0  0  0  0  0  0
   -8.2239   18.8745  -31.4110 H   0  0  0  0  0  0  0  0  0  0  0  0
   -5.3723   17.0440  -30.7555 H   0  0  0  0  0  0  0  0  0  0  0  0
   -7.0954   16.8395  -31.2644 H   0  0  0  0  0  0  0  0  0  0  0  0
   -6.6046   15.6544  -34.4901 H   0  0  0  0  0  0  0  0  0  0  0  0
   -7.3932   17.0514  -33.6317 H   0  0  0  0  0  0  0  0  0  0  0  0
   -6.3490   17.7663  -35.7500 H   0  0  0  0  0  0  0  0  0  0  0  0
   -5.5589   18.5197  -34.3053 H   0  0  0  0  0  0  0  0  0  0  0  0
   -4.4754   16.5639  -36.2985 H   0  0  0  0  0  0  0  0  0  0  0  0
   -3.6598   17.8944  -35.3610 H   0  0  0  0  0  0  0  0  0  0  0  0
   -4.1402   15.0139  -34.5976 H   0  0  0  0  0  0  0  0  0  0  0  0
   -2.6735   16.0476  -34.4005 H   0  0  0  0  0  0  0  0  0  0  0  0
   -3.7213   15.6145  -32.2167 H   0  0  0  0  0  0  0  0  0  0  0  0
   -3.8553   17.3690  -32.6742 H   0  0  0  0  0  0  0  0  0  0  0  0
   -4.1046   18.6185  -32.7196 H   0  0  0  0  0  0  0  0  0  0  0  0
   -1.4647   17.4807  -33.9625 H   0  0  0  0  0  0  0  0  0  0  0  0
   -0.1204   17.0576  -36.0202 H   0  0  0  0  0  0  0  0  0  0  0  0
    1.0078   21.2287  -36.1503 H   0  0  0  0  0  0  0  0  0  0  0  0
   -0.3472   21.1728  -31.1256 H   0  0  0  0  0  0  0  0  0  0  0  0
    0.0717   22.6729  -29.1814 H   0  0  0  0  0  0  0  0  0  0  0  0
  1  2  1  0
  2  3  2  0
  3  4  1  0
  4  5  1  0
  5  6  1  0
  5  7  2  0
  5  8  2  0
  4  9  2  0
  9 10  1  0
 10 11  2  0
 11 12  1  0
 12 13  2  0
 13 14  1  0
 14 15  2  0
 15 16  1  0
 16 17  1  0
 17 18  1  0
 18 19  2  0
 19 20  1  0
 20 21  2  0
 21 22  1  0
 22 23  1  0
 23 24  1  0
 24 25  1  0
 25 26  1  0
 26 27  1  0
 27 28  1  0
 28 29  1  0
 22 30  2  0
 16 31  1  0
 31 32  2  0
 31 33  1  0
 33 34  2  0
 34 35  1  0
 35 36  2  0
 36 37  1  0
 36 38  1  0
 38 39  2  0
 39 40  1  0
 15 41  1  0
 41 42  2  0
 11  2  1  0
 42 12  1  0
 30 18  1  0
 39 33  1  0
 29 24  1  0
  1 43  1  0
  1 44  1  0
  1 45  1  0
  3 46  1  0
  6 47  1  0
  6 48  1  0
  6 49  1  0
  9 50  1  0
 13 51  1  0
 14 52  1  0
 17 53  1  0
 17 54  1  0
 19 55  1  0
 20 56  1  0
 21 57  1  0
 23 58  1  0
 23 59  1  0
 25 60  1  0
 25 61  1  0
 26 62  1  0
 26 63  1  0
 27 64  1  0
 27 65  1  0
 28 66  1  0
 28 67  1  0
 29 68  1  0
 29 69  1  0
 30 70  1  0
 34 71  1  0
 35 72  1  0
 38 73  1  0
 41 74  1  0
 42 75  1  0
M  CHG  2  37  -1  40  -1
M  END
>  <UniqueID>  (27) 
27

>  <SMILES>  (27) 
Cc1cc(S(C)(=O)=O)cnc1-c1ccc(N(Cc2cccc(CN3CCCCC3)c2)C(=O)c2ccc([O-])cc2[O-])cc1

>  <Energy>  (27) 
101.46511980787088

>  <Genealogy>  (27) 
Cc1cc(S(C)(=O)=O)cnc1-c1ccc(N(Cc2cccc(CN3CCCCC3)c2)C(=O)c2ccc([O-])cc2[O-])cc1 (protonated)
Cc1cc(S(C)(=O)=O)cnc1-c1ccc(N(Cc2cccc(CN3CCCCC3)c2)C(=O)c2ccc([O-])cc2[O-])cc1 (3D coordinates assigned)
Cc1cc(S(C)(=O)=O)cnc1-c1ccc(N(Cc2cccc(CN3CCCCC3)c2)C(=O)c2ccc([O-])cc2[O-])cc1 (nonaromatic ring conformer: 101.46511980787088 kcal/mol)

>  <smiles>  (27) 
Cc1cc(S(C)(=O)=O)cnc1-c1ccc(N(Cc2cccc(CN3CCCCC3)c2)C(=O)c2ccc(O)cc2O)cc1

>  <score_type>  (27) 
oracle

>  <origin>  (27) 
adgpu

>  <m_score__min__energy>  (27) 
-14.65

>  <m_primary>  (27) 
energy

$$$$
27:0
     RDKit          3D

 51 53  0  0  0  0  0  0  0  0999 V2000
    0.3886   25.7144  -26.3535 H   0  0  0  0  0  0  0  0  0  0  0  0
   -0.5390   25.2170  -26.0340 C   0  0  0  0  0  0  0  0  0  0  0  0
   -1.3350   24.7190  -27.0250 C   0  0  0  0  0  0  0  0  0  0  0  0
   -0.7130   24.3170  -28.2340 C   0  0  0  0  0  0  0  0  0  0  0  0
    0.5050   24.5520  -28.4620 O   0  0  0  0  0  0  0  0  0  0  0  0
   -1.4210   23.6260  -29.1570 N   0  0  0  0  0  0  0  0  0  0  0  0
   -2.7270   23.3090  -28.9860 C   0  0  0  0  0  0  0  0  0  0  0  0
   -3.3650   22.5570  -29.9080 C   0  0  0  0  0  0  0  0  0  0  0  0
   -4.4168   22.2963  -29.7186 H   0  0  0  0  0  0  0  0  0  0  0  0
   -2.7440   22.0590  -31.1580 C   0  0  0  0  0  0  0  0  0  0  0  0
   -1.3960   21.6740  -31.1390 C   0  0  0  0  0  0  0  0  0  0  0  0
   -0.8151   21.7653  -30.2094 H   0  0  0  0  0  0  0  0  0  0  0  0
   -0.7850   21.1750  -32.2930 C   0  0  0  0  0  0  0  0  0  0  0  0
    0.2801   20.9009  -32.2714 H   0  0  0  0  0  0  0  0  0  0  0  0
   -1.5190   21.0210  -33.4780 C   0  0  0  0  0  0  0  0  0  0  0  0
   -0.8620   20.5260  -34.6580 N   0  0  0  0  0  0  0  0  0  0  0  0
   -1.3190   19.7410  -35.1770 H   0  0  0  0  0  0  0  0  0  0  0  0
    0.2930   21.1450  -35.2480 C   0  0  0  0  0  0  0  0  0  0  0  0
    0.5360   22.3610  -35.0190 O   0  0  0  0  0  0  0  0  0  0  0  0
    1.1770   20.3840  -36.1670 C   0  0  0  0  0  0  0  0  0  0  0  0
    2.5120   20.7780  -36.3770 C   0  0  0  0  0  0  0  0  0  0  0  0
    2.9116   21.6577  -35.8512 H   0  0  0  0  0  0  0  0  0  0  0  0
    3.3340   20.0570  -37.2510 C   0  0  0  0  0  0  0  0  0  0  0  0
    4.3775   20.3684  -37.4062 H   0  0  0  0  0  0  0  0  0  0  0  0
    2.8310   18.9430  -37.9260 C   0  0  0  0  0  0  0  0  0  0  0  0
    3.4792   18.3759  -38.6103 H   0  0  0  0  0  0  0  0  0  0  0  0
    1.5070   18.5490  -37.7330 C   0  0  0  0  0  0  0  0  0  0  0  0
    1.1117   17.6730  -38.2680 H   0  0  0  0  0  0  0  0  0  0  0  0
    0.6810   19.2650  -36.8610 C   0  0  0  0  0  0  0  0  0  0  0  0
   -0.3634   18.9514  -36.7166 H   0  0  0  0  0  0  0  0  0  0  0  0
   -2.8730   21.3990  -33.4970 C   0  0  0  0  0  0  0  0  0  0  0  0
   -3.4551   21.3008  -34.4252 H   0  0  0  0  0  0  0  0  0  0  0  0
   -3.4840   21.8990  -32.3430 C   0  0  0  0  0  0  0  0  0  0  0  0
   -4.5502   22.1689  -32.3622 H   0  0  0  0  0  0  0  0  0  0  0  0
   -3.3830   23.7750  -27.8300 C   0  0  0  0  0  0  0  0  0  0  0  0
   -4.6070   23.5100  -27.6540 O   0  0  0  0  0  0  0  0  0  0  0  0
   -2.7070   24.5450  -26.9100 N   0  0  0  0  0  0  0  0  0  0  0  0
   -3.5290   25.3010  -25.9450 C   0  0  0  0  0  0  0  0  0  0  0  0
   -3.2341   25.0298  -24.9205 H   0  0  0  0  0  0  0  0  0  0  0  0
   -3.3748   26.3794  -26.0976 H   0  0  0  0  0  0  0  0  0  0  0  0
   -4.5907   25.0572  -26.0976 H   0  0  0  0  0  0  0  0  0  0  0  0
   -0.7940   25.1590  -24.5470 C   0  0  0  0  0  0  0  0  0  0  0  0
    0.0303   24.6162  -24.0612 H   0  0  0  0  0  0  0  0  0  0  0  0
   -1.7493   24.6418  -24.3743 H   0  0  0  0  0  0  0  0  0  0  0  0
   -0.8860   26.5690  -23.9520 C   0  0  0  0  0  0  0  0  0  0  0  0
   -0.0277   26.7334  -23.2840 H   0  0  0  0  0  0  0  0  0  0  0  0
   -1.8314   26.6516  -23.3958 H   0  0  0  0  0  0  0  0  0  0  0  0
   -0.8750   27.6310  -25.0470 C   0  0  0  0  0  0  0  0  0  0  0  0
   -0.8646   28.6307  -24.5881 H   0  0  0  0  0  0  0  0  0  0  0  0
    0.0219   27.5048  -25.6712 H   0  0  0  0  0  0  0  0  0  0  0  0
   -1.7743   27.5234  -25.6712 H   0  0  0  0  0  0  0  0  0  0  0  0
  1  2  1  0
  2  3  2  3
  3  4  1  0
  4  5  2  0
  4  6  1  0
  6  7  1  0
  7  8  2  0
  8  9  1  0
  8 10  1  0
 10 11  2  0
 11 12  1  0
 11 13  1  0
 13 14  1  0
 13 15  2  0
 15 16  1  0
 16 17  1  0
 16 18  1  0
 18 19  2  0
 18 20  1  0
 20 21  2  0
 21 22  1  0
 21 23  1  0
 23 24  1  0
 23 25  2  0
 25 26  1  0
 25 27  1  0
 27 28  1  0
 27 29  2  0
 29 30  1  0
 15 31  1  0
 31 32  1  0
 31 33  2  0
 33 34  1  0
  7 35  1  0
 35 36  2  0
 35 37  1  0
 37 38  1  0
 38 39  1  0
 38 40  1  0
 38 41  1  0
  2 42  1  0
 42 43  1  0
 42 44  1  0
 42 45  1  0
 45 46  1  0
 45 47  1  0
 45 48  1  0
 48 49  1  0
 48 50  1  0
 48 51  1  0
 37  3  1  0
 33 10  1  0
 29 20  1  0
M  CHG  1   6  -1
M  END
>  <UniqueID>  (28) 
28

>  <SMILES>  (28) 
CCCC=c1c(=O)[n-]/c(=C\c2ccc(NC(=O)c3ccccc3)cc2)c(=O)n1C

>  <Energy>  (28) 
86.76750933984157

>  <Genealogy>  (28) 
CCCC=c1c(=O)[n-]c(=Cc2ccc(NC(=O)c3ccccc3)cc2)c(=O)n1C (protonated)
CCCC=c1c(=O)[n-]/c(=C\c2ccc(NC(=O)c3ccccc3)cc2)c(=O)n1C (cis-trans isomerization)
CCCC=c1c(=O)[n-]/c(=C\c2ccc(NC(=O)c3ccccc3)cc2)c(=O)n1C (3D coordinates assigned)
CCCC=c1c(=O)[n-]/c(=C\c2ccc(NC(=O)c3ccccc3)cc2)c(=O)n1C (optimized conformer: 86.76750933984157 kcal/mol)

>  <smiles>  (28) 
CCCC=c1c(=O)[nH]c(=Cc2ccc(NC(=O)c3ccccc3)cc2)c(=O)n1C

>  <score_type>  (28) 
oracle

>  <origin>  (28) 
adgpu

>  <m_score__min__energy>  (28) 
-8.7899999999999991

>  <m_primary>  (28) 
energy

$$$$
28:0
     RDKit          3D

 52 55  0  0  0  0  0  0  0  0999 V2000
   -5.9420   14.5210  -34.2140 C   0  0  0  0  0  0  0  0  0  0  0  0
   -6.8680   15.5910  -34.3850 O   0  0  0  0  0  0  0  0  0  0  0  0
   -6.7130   16.8690  -33.8300 C   0  0  0  0  0  0  0  0  0  0  0  0
   -7.4130   17.2830  -32.6810 C   0  0  0  0  0  0  0  0  0  0  0  0
   -7.2230   18.5670  -32.1630 C   0  0  0  0  0  0  0  0  0  0  0  0
   -6.3330   19.4640  -32.7820 C   0  0  0  0  0  0  0  0  0  0  0  0
   -6.1380   20.8310  -32.2360 C   0  0  0  0  0  0  0  0  0  0  0  0
   -5.0340   21.6070  -32.6280 C   0  0  0  0  0  0  0  0  0  0  0  0
   -4.8390   22.8840  -32.0950 C   0  0  0  0  0  0  0  0  0  0  0  0
   -5.7380   23.4010  -31.1550 C   0  0  0  0  0  0  0  0  0  0  0  0
   -5.4280   24.9700  -30.4150 S   0  0  0  0  0  0  0  0  0  0  0  0
   -6.1060   25.0670  -29.0750 O   0  0  0  0  0  0  0  0  0  0  0  0
   -5.9590   26.0480  -31.3170 O   0  0  0  0  0  0  0  0  0  0  0  0
   -3.7200   25.1920  -30.2010 N   0  0  0  0  0  0  0  0  0  0  0  0
   -2.8910   24.3680  -29.3670 C   0  0  0  0  0  0  0  0  0  0  0  0
   -3.2910   23.0820  -28.9650 C   0  0  0  0  0  0  0  0  0  0  0  0
   -2.4370   22.2720  -28.2000 C   0  0  0  0  0  0  0  0  0  0  0  0
   -1.1590   22.7480  -27.8430 C   0  0  0  0  0  0  0  0  0  0  0  0
   -0.7830   24.0500  -28.2040 C   0  0  0  0  0  0  0  0  0  0  0  0
   -1.6390   24.8530  -28.9620 C   0  0  0  0  0  0  0  0  0  0  0  0
   -1.2360   26.1330  -29.3280 O   0  0  0  0  0  0  0  0  0  0  0  0
   -0.2240   21.9090  -27.0000 C   0  0  0  0  0  0  0  0  0  0  0  0
   -0.5230   20.4640  -27.0770 N   0  0  0  0  0  0  0  0  0  0  0  0
   -0.0460   19.8660  -28.3400 C   0  0  0  0  0  0  0  0  0  0  0  0
   -1.9540   20.1990  -26.8280 C   0  0  0  0  0  0  0  0  0  0  0  0
   -2.8660   20.8640  -27.8720 C   0  0  0  0  0  0  0  0  0  0  0  0
   -6.8510   22.6430  -30.7730 C   0  0  0  0  0  0  0  0  0  0  0  0
   -7.0520   21.3670  -31.3090 C   0  0  0  0  0  0  0  0  0  0  0  0
   -5.6370   19.0460  -33.9300 C   0  0  0  0  0  0  0  0  0  0  0  0
   -5.8270   17.7600  -34.4450 C   0  0  0  0  0  0  0  0  0  0  0  0
   -5.7852   14.3398  -33.1404 H   0  0  0  0  0  0  0  0  0  0  0  0
   -6.3422   13.6110  -34.6848 H   0  0  0  0  0  0  0  0  0  0  0  0
   -4.9839   14.7864  -34.6848 H   0  0  0  0  0  0  0  0  0  0  0  0
   -8.1132   16.5923  -32.1883 H   0  0  0  0  0  0  0  0  0  0  0  0
   -7.7740   18.8791  -31.2636 H   0  0  0  0  0  0  0  0  0  0  0  0
   -4.3176   21.2061  -33.3602 H   0  0  0  0  0  0  0  0  0  0  0  0
   -3.9755   23.4853  -32.4155 H   0  0  0  0  0  0  0  0  0  0  0  0
   -4.2839   22.7062  -29.2529 H   0  0  0  0  0  0  0  0  0  0  0  0
    0.1946   24.4425  -27.8875 H   0  0  0  0  0  0  0  0  0  0  0  0
    0.8063   22.0736  -27.3486 H   0  0  0  0  0  0  0  0  0  0  0  0
   -0.3554   22.2186  -25.9527 H   0  0  0  0  0  0  0  0  0  0  0  0
    0.6256   19.0240  -28.1164 H   0  0  0  0  0  0  0  0  0  0  0  0
   -0.9063   19.5042  -28.9223 H   0  0  0  0  0  0  0  0  0  0  0  0
    0.4980   20.6243  -28.9223 H   0  0  0  0  0  0  0  0  0  0  0  0
   -2.1214   19.1121  -26.8545 H   0  0  0  0  0  0  0  0  0  0  0  0
   -2.2065   20.6231  -25.8449 H   0  0  0  0  0  0  0  0  0  0  0  0
   -2.8428   20.2643  -28.7939 H   0  0  0  0  0  0  0  0  0  0  0  0
   -3.8795   20.9136  -27.4474 H   0  0  0  0  0  0  0  0  0  0  0  0
   -7.5703   23.0525  -30.0485 H   0  0  0  0  0  0  0  0  0  0  0  0
   -7.9299   20.7784  -31.0043 H   0  0  0  0  0  0  0  0  0  0  0  0
   -4.9382   19.7354  -34.4264 H   0  0  0  0  0  0  0  0  0  0  0  0
   -5.2743   17.4458  -35.3427 H   0  0  0  0  0  0  0  0  0  0  0  0
  1  2  1  0
  2  3  1  0
  3  4  2  0
  4  5  1  0
  5  6  2  0
  6  7  1  0
  7  8  2  0
  8  9  1  0
  9 10  2  0
 10 11  1  0
 11 12  2  0
 11 13  2  0
 11 14  1  0
 14 15  1  0
 15 16  2  0
 16 17  1  0
 17 18  2  0
 18 19  1  0
 19 20  2  0
 20 21  1  0
 18 22  1  0
 22 23  1  0
 23 24  1  0
 23 25  1  0
 25 26  1  0
 10 27  1  0
 27 28  2  0
  6 29  1  0
 29 30  2  0
 30  3  1  0
 28  7  1  0
 20 15  1  0
 26 17  1  0
  1 31  1  0
  1 32  1  0
  1 33  1  0
  4 34  1  0
  5 35  1  0
  8 36  1  0
  9 37  1  0
 16 38  1  0
 19 39  1  0
 22 40  1  0
 22 41  1  0
 24 42  1  0
 24 43  1  0
 24 44  1  0
 25 45  1  0
 25 46  1  0
 26 47  1  0
 26 48  1  0
 27 49  1  0
 28 50  1  0
 29 51  1  0
 30 52  1  0
M  CHG  2  14  -1  21  -1
M  END
>  <UniqueID>  (29) 
29

>  <SMILES>  (29) 
COc1ccc(-c2ccc(S(=O)(=O)[N-]c3cc4c(cc3[O-])CN(C)CC4)cc2)cc1

>  <Energy>  (29) 
68.43369459879399

>  <Genealogy>  (29) 
COc1ccc(-c2ccc(S(=O)(=O)[N-]c3cc4c(cc3[O-])CN(C)CC4)cc2)cc1 (protonated)
COc1ccc(-c2ccc(S(=O)(=O)[N-]c3cc4c(cc3[O-])CN(C)CC4)cc2)cc1 (3D coordinates assigned)
COc1ccc(-c2ccc(S(=O)(=O)[N-]c3cc4c(cc3[O-])CN(C)CC4)cc2)cc1 (nonaromatic ring conformer: 68.43369459879399 kcal/mol)

>  <smiles>  (29) 
COc1ccc(-c2ccc(S(=O)(=O)Nc3cc4c(cc3O)CN(C)CC4)cc2)cc1

>  <score_type>  (29) 
oracle

>  <origin>  (29) 
adgpu

>  <m_score__min__energy>  (29) 
-14.949999999999999

>  <m_primary>  (29) 
energy

$$$$
29:0
     RDKit          3D

 66 70  0  0  0  0  0  0  0  0999 V2000
   -1.3410   25.4280  -29.0830 O   0  0  0  0  0  0  0  0  0  0  0  0
   -2.0230   24.2560  -28.4370 S   0  0  0  0  0  0  0  0  0  0  0  0
   -2.2270   24.5930  -26.9860 O   0  0  0  0  0  0  0  0  0  0  0  0
   -3.5830   23.9970  -29.2140 C   0  0  0  0  0  0  0  0  0  0  0  0
   -4.4930   23.0710  -28.6780 C   0  0  0  0  0  0  0  0  0  0  0  0
   -5.7360   22.8730  -29.2900 C   0  0  0  0  0  0  0  0  0  0  0  0
   -6.0720   23.5910  -30.4410 C   0  0  0  0  0  0  0  0  0  0  0  0
   -5.1690   24.5120  -30.9800 C   0  0  0  0  0  0  0  0  0  0  0  0
   -3.9230   24.7110  -30.3740 C   0  0  0  0  0  0  0  0  0  0  0  0
   -1.0380   22.7770  -28.5480 C   0  0  0  0  0  0  0  0  0  0  0  0
   -0.9240   22.0380  -29.7490 C   0  0  0  0  0  0  0  0  0  0  0  0
   -1.6920   22.3740  -30.9120 N   0  0  0  0  0  0  0  0  0  0  0  0
   -2.6000   21.4590  -31.5490 C   0  0  0  0  0  0  0  0  0  0  0  0
   -2.3130   20.9780  -32.8350 C   0  0  0  0  0  0  0  0  0  0  0  0
   -3.1700   20.0670  -33.4610 C   0  0  0  0  0  0  0  0  0  0  0  0
   -4.3240   19.6180  -32.8040 C   0  0  0  0  0  0  0  0  0  0  0  0
   -5.4080   18.4660  -33.5890 S   0  0  0  0  0  0  0  0  0  0  0  0
   -5.2380   18.5590  -35.0800 O   0  0  0  0  0  0  0  0  0  0  0  0
   -5.0340   17.0730  -33.1650 O   0  0  0  0  0  0  0  0  0  0  0  0
   -7.0790   18.7660  -33.1720 N   0  0  0  0  0  0  0  0  0  0  0  0
   -7.4130   18.1150  -31.8940 C   0  0  0  0  0  0  0  0  0  0  0  0
   -8.9310   18.1760  -31.6390 C   0  0  0  0  0  0  0  0  0  0  0  0
   -9.6160   19.2970  -32.4370 C   0  0  0  0  0  0  0  0  0  0  0  0
   -8.7260   20.5410  -32.5120 C   0  0  0  0  0  0  0  0  0  0  0  0
   -7.3350   20.2200  -33.1040 C   0  0  0  0  0  0  0  0  0  0  0  0
   -4.6090   20.0840  -31.5150 C   0  0  0  0  0  0  0  0  0  0  0  0
   -3.7520   20.9930  -30.8870 C   0  0  0  0  0  0  0  0  0  0  0  0
   -0.1100   20.9490  -29.7920 N   0  0  0  0  0  0  0  0  0  0  0  0
    0.5950   20.5460  -28.7090 C   0  0  0  0  0  0  0  0  0  0  0  0
    0.4830   21.2200  -27.5400 N   0  0  0  0  0  0  0  0  0  0  0  0
   -0.3120   22.3170  -27.4280 C   0  0  0  0  0  0  0  0  0  0  0  0
   -0.3870   22.9810  -26.1600 N   0  0  0  0  0  0  0  0  0  0  0  0
    0.3140   24.2550  -25.9700 C   0  0  0  0  0  0  0  0  0  0  0  0
    1.3910   24.1290  -24.8660 C   0  0  0  0  0  0  0  0  0  0  0  0
    1.2570   22.9730  -24.0510 O   0  0  0  0  0  0  0  0  0  0  0  0
   -0.1000   22.7380  -23.7340 C   0  0  0  0  0  0  0  0  0  0  0  0
   -0.8300   22.2280  -24.9810 C   0  0  0  0  0  0  0  0  0  0  0  0
   -4.2282   22.5004  -27.7756 H   0  0  0  0  0  0  0  0  0  0  0  0
   -6.4492   22.1516  -28.8647 H   0  0  0  0  0  0  0  0  0  0  0  0
   -7.0477   23.4313  -30.9231 H   0  0  0  0  0  0  0  0  0  0  0  0
   -5.4381   25.0813  -31.8819 H   0  0  0  0  0  0  0  0  0  0  0  0
   -3.2095   25.4275  -30.8071 H   0  0  0  0  0  0  0  0  0  0  0  0
   -1.6720   23.3640  -31.2430 H   0  0  0  0  0  0  0  0  0  0  0  0
   -1.4064   21.3201  -33.3555 H   0  0  0  0  0  0  0  0  0  0  0  0
   -2.9377   19.7017  -34.4722 H   0  0  0  0  0  0  0  0  0  0  0  0
   -7.0937   17.0630  -31.9291 H   0  0  0  0  0  0  0  0  0  0  0  0
   -6.8936   18.6415  -31.0797 H   0  0  0  0  0  0  0  0  0  0  0  0
   -9.3767   17.2131  -31.9291 H   0  0  0  0  0  0  0  0  0  0  0  0
   -9.0827   18.3853  -30.5698 H   0  0  0  0  0  0  0  0  0  0  0  0
   -9.8204   18.9391  -33.4569 H   0  0  0  0  0  0  0  0  0  0  0  0
  -10.5530   19.5670  -31.9279 H   0  0  0  0  0  0  0  0  0  0  0  0
   -9.2180   21.2924  -33.1471 H   0  0  0  0  0  0  0  0  0  0  0  0
   -8.5820   20.9191  -31.4891 H   0  0  0  0  0  0  0  0  0  0  0  0
   -7.2775   20.6377  -34.1200 H   0  0  0  0  0  0  0  0  0  0  0  0
   -6.5762   20.6659  -32.4442 H   0  0  0  0  0  0  0  0  0  0  0  0
   -5.5118   19.7332  -30.9935 H   0  0  0  0  0  0  0  0  0  0  0  0
   -3.9790   21.3460  -29.8702 H   0  0  0  0  0  0  0  0  0  0  0  0
    1.2585   19.6714  -28.7786 H   0  0  0  0  0  0  0  0  0  0  0  0
    0.7976   24.5451  -26.9144 H   0  0  0  0  0  0  0  0  0  0  0  0
   -0.4170   25.0181  -25.6646 H   0  0  0  0  0  0  0  0  0  0  0  0
    2.3786   24.0977  -25.3494 H   0  0  0  0  0  0  0  0  0  0  0  0
    1.2681   24.9987  -24.2037 H   0  0  0  0  0  0  0  0  0  0  0  0
   -0.1657   21.9841  -22.9356 H   0  0  0  0  0  0  0  0  0  0  0  0
   -0.5658   23.6736  -23.3910 H   0  0  0  0  0  0  0  0  0  0  0  0
   -0.6059   21.1606  -25.1242 H   0  0  0  0  0  0  0  0  0  0  0  0
   -1.9134   22.3652  -24.8488 H   0  0  0  0  0  0  0  0  0  0  0  0
  1  2  2  0
  2  3  2  0
  2  4  1  0
  4  5  2  0
  5  6  1  0
  6  7  2  0
  7  8  1  0
  8  9  2  0
  2 10  1  0
 10 11  1  0
 11 12  1  0
 12 13  1  0
 13 14  2  0
 14 15  1  0
 15 16  2  0
 16 17  1  0
 17 18  2  0
 17 19  2  0
 17 20  1  0
 20 21  1  0
 21 22  1  0
 22 23  1  0
 23 24  1  0
 24 25  1  0
 16 26  1  0
 26 27  2  0
 11 28  2  0
 28 29  1  0
 29 30  2  0
 30 31  1  0
 31 32  1  0
 32 33  1  0
 33 34  1  0
 34 35  1  0
 35 36  1  0
 36 37  1  0
  9  4  1  0
 31 10  2  0
 37 32  1  0
 27 13  1  0
 25 20  1  0
  5 38  1  0
  6 39  1  0
  7 40  1  0
  8 41  1  0
  9 42  1  0
 12 43  1  0
 14 44  1  0
 15 45  1  0
 21 46  1  0
 21 47  1  0
 22 48  1  0
 22 49  1  0
 23 50  1  0
 23 51  1  0
 24 52  1  0
 24 53  1  0
 25 54  1  0
 25 55  1  0
 26 56  1  0
 27 57  1  0
 29 58  1  0
 33 59  1  0
 33 60  1  0
 34 61  1  0
 34 62  1  0
 36 63  1  0
 36 64  1  0
 37 65  1  0
 37 66  1  0
M  END
>  <UniqueID>  (30) 
30

>  <SMILES>  (30) 
O=S(=O)(c1ccccc1)c1c(Nc2ccc(S(=O)(=O)N3CCCCC3)cc2)ncnc1N1CCOCC1

>  <Energy>  (30) 
96.07126435044228

>  <Genealogy>  (30) 
O=S(=O)(c1ccccc1)c1c(Nc2ccc(S(=O)(=O)N3CCCCC3)cc2)ncnc1N1CCOCC1 (3D coordinates assigned)
O=S(=O)(c1ccccc1)c1c(Nc2ccc(S(=O)(=O)N3CCCCC3)cc2)ncnc1N1CCOCC1 (nonaromatic ring conformer: 96.07126435044228 kcal/mol)

>  <smiles>  (30) 
O=S(=O)(c1ccccc1)c1c(Nc2ccc(S(=O)(=O)N3CCCCC3)cc2)ncnc1N1CCOCC1

>  <score_type>  (30) 
oracle

>  <origin>  (30) 
adgpu

>  <m_score__min__energy>  (30) 
-9.7400000000000002

>  <m_primary>  (30) 
energy

$$$$
30:0
     RDKit          3D

 53 56  0  0  0  0  0  0  0  0999 V2000
   -4.7760   18.5640  -34.0370 C   0  0  0  0  0  0  0  0  0  0  0  0
   -6.1210   19.2540  -34.2610 C   0  0  0  0  0  0  0  0  0  0  0  0
   -7.0870   18.9650  -33.1440 C   0  0  0  0  0  0  0  0  0  0  0  0
   -7.4440   17.7740  -32.9280 O   0  0  0  0  0  0  0  0  0  0  0  0
   -7.6270   20.0170  -32.3280 N   0  0  0  0  0  0  0  0  0  0  0  0
   -9.0470   20.1140  -31.9790 C   0  0  0  0  0  0  0  0  0  0  0  0
   -9.2170   21.4650  -31.2460 C   0  0  0  0  0  0  0  0  0  0  0  0
   -7.8250   21.9890  -31.1640 C   0  0  0  0  0  0  0  0  0  0  0  0
   -7.3890   23.1540  -30.5310 C   0  0  0  0  0  0  0  0  0  0  0  0
   -6.0120   23.4390  -30.5200 C   0  0  0  0  0  0  0  0  0  0  0  0
   -5.4260   24.9330  -29.8000 S   0  0  0  0  0  0  0  0  0  0  0  0
   -4.4950   25.6240  -30.7560 O   0  0  0  0  0  0  0  0  0  0  0  0
   -6.5770   25.8520  -29.4990 O   0  0  0  0  0  0  0  0  0  0  0  0
   -4.5760   24.5660  -28.3400 N   0  0  0  0  0  0  0  0  0  0  0  0
   -3.4630   23.6750  -28.3590 C   0  0  0  0  0  0  0  0  0  0  0  0
   -3.6160   22.3660  -27.8920 C   0  0  0  0  0  0  0  0  0  0  0  0
   -2.5380   21.4690  -27.9210 C   0  0  0  0  0  0  0  0  0  0  0  0
   -1.2830   21.9050  -28.3940 C   0  0  0  0  0  0  0  0  0  0  0  0
   -1.1400   23.2150  -28.8770 C   0  0  0  0  0  0  0  0  0  0  0  0
   -2.2230   24.1030  -28.8540 C   0  0  0  0  0  0  0  0  0  0  0  0
   -2.0760   25.4060  -29.3260 O   0  0  0  0  0  0  0  0  0  0  0  0
   -0.1190   20.9460  -28.4830 C   0  0  0  0  0  0  0  0  0  0  0  0
   -0.2800   19.8120  -27.5500 N   0  0  0  0  0  0  0  0  0  0  0  0
    0.8190   18.8500  -27.7350 C   0  0  0  0  0  0  0  0  0  0  0  0
   -1.5750   19.1480  -27.7780 C   0  0  0  0  0  0  0  0  0  0  0  0
   -2.7140   20.0830  -27.3550 C   0  0  0  0  0  0  0  0  0  0  0  0
   -5.1050   22.5480  -31.1310 C   0  0  0  0  0  0  0  0  0  0  0  0
   -5.5690   21.3800  -31.7550 C   0  0  0  0  0  0  0  0  0  0  0  0
   -6.9480   21.1410  -31.7850 C   0  0  0  0  0  0  0  0  0  0  0  0
   -4.5885   18.4678  -32.9574 H   0  0  0  0  0  0  0  0  0  0  0  0
   -4.7956   17.5646  -34.4962 H   0  0  0  0  0  0  0  0  0  0  0  0
   -3.9757   19.1629  -34.4962 H   0  0  0  0  0  0  0  0  0  0  0  0
   -5.9590   20.3404  -34.3202 H   0  0  0  0  0  0  0  0  0  0  0  0
   -6.5528   18.8686  -35.1964 H   0  0  0  0  0  0  0  0  0  0  0  0
   -9.6659   20.0924  -32.8881 H   0  0  0  0  0  0  0  0  0  0  0  0
   -9.3641   19.2712  -31.3472 H   0  0  0  0  0  0  0  0  0  0  0  0
   -9.8612   22.1466  -31.8207 H   0  0  0  0  0  0  0  0  0  0  0  0
   -9.6967   21.3627  -30.2614 H   0  0  0  0  0  0  0  0  0  0  0  0
   -8.1073   23.8348  -30.0509 H   0  0  0  0  0  0  0  0  0  0  0  0
   -4.5893   22.0371  -27.4988 H   0  0  0  0  0  0  0  0  0  0  0  0
   -0.1703   23.5468  -29.2765 H   0  0  0  0  0  0  0  0  0  0  0  0
   -2.8520   26.0580  -29.3390 H   0  0  0  0  0  0  0  0  0  0  0  0
   -0.0535   20.5575  -29.5100 H   0  0  0  0  0  0  0  0  0  0  0  0
    0.7979   21.4895  -28.2111 H   0  0  0  0  0  0  0  0  0  0  0  0
    1.1908   18.5246  -26.7522 H   0  0  0  0  0  0  0  0  0  0  0  0
    0.4521   17.9775  -28.2955 H   0  0  0  0  0  0  0  0  0  0  0  0
    1.6352   19.3291  -28.2955 H   0  0  0  0  0  0  0  0  0  0  0  0
   -1.6786   18.9046  -28.8457 H   0  0  0  0  0  0  0  0  0  0  0  0
   -1.6213   18.2237  -27.1834 H   0  0  0  0  0  0  0  0  0  0  0  0
   -3.6673   19.6692  -27.7157 H   0  0  0  0  0  0  0  0  0  0  0  0
   -2.7063   20.1576  -26.2576 H   0  0  0  0  0  0  0  0  0  0  0  0
   -4.0277   22.7701  -31.1182 H   0  0  0  0  0  0  0  0  0  0  0  0
   -4.8649   20.6681  -32.2104 H   0  0  0  0  0  0  0  0  0  0  0  0
  1  2  1  0
  2  3  1  0
  3  4  2  0
  3  5  1  0
  5  6  1  0
  6  7  1  0
  7  8  1  0
  8  9  2  0
  9 10  1  0
 10 11  1  0
 11 12  2  0
 11 13  2  0
 11 14  1  0
 14 15  1  0
 15 16  2  0
 16 17  1  0
 17 18  2  0
 18 19  1  0
 19 20  2  0
 20 21  1  0
 18 22  1  0
 22 23  1  0
 23 24  1  0
 23 25  1  0
 25 26  1  0
 10 27  2  0
 27 28  1  0
 28 29  2  0
 29  5  1  0
 29  8  1  0
 20 15  1  0
 26 17  1  0
  1 30  1  0
  1 31  1  0
  1 32  1  0
  2 33  1  0
  2 34  1  0
  6 35  1  0
  6 36  1  0
  7 37  1  0
  7 38  1  0
  9 39  1  0
 16 40  1  0
 19 41  1  0
 21 42  1  0
 22 43  1  0
 22 44  1  0
 24 45  1  0
 24 46  1  0
 24 47  1  0
 25 48  1  0
 25 49  1  0
 26 50  1  0
 26 51  1  0
 27 52  1  0
 28 53  1  0
M  CHG  1  14  -1
M  END
>  <UniqueID>  (31) 
31

>  <SMILES>  (31) 
CCC(=O)N1CCc2cc(S(=O)(=O)[N-]c3cc4c(cc3O)CN(C)CC4)ccc21

>  <Energy>  (31) 
81.31107039124325

>  <Genealogy>  (31) 
CCC(=O)N1CCc2cc(S(=O)(=O)[N-]c3cc4c(cc3O)CN(C)CC4)ccc21 (protonated)
CCC(=O)N1CCc2cc(S(=O)(=O)[N-]c3cc4c(cc3O)CN(C)CC4)ccc21 (3D coordinates assigned)
CCC(=O)N1CCc2cc(S(=O)(=O)[N-]c3cc4c(cc3O)CN(C)CC4)ccc21 (nonaromatic ring conformer: 81.31107039124325 kcal/mol)

>  <smiles>  (31) 
CCC(=O)N1CCc2cc(S(=O)(=O)Nc3cc4c(cc3O)CN(C)CC4)ccc21

>  <score_type>  (31) 
oracle

>  <origin>  (31) 
adgpu

>  <m_score__min__energy>  (31) 
-12.06

>  <m_primary>  (31) 
energy

$$$$
31:0
     RDKit          3D

 58 61  0  0  0  0  0  0  0  0999 V2000
   -4.2710   22.6730  -32.6280 O   0  0  0  0  0  0  0  0  0  0  0  0
   -4.4020   23.1610  -31.4740 C   0  0  0  0  0  0  0  0  0  0  0  0
   -3.3210   23.9110  -30.9110 N   0  0  0  0  0  0  0  0  0  0  0  0
   -2.3400   23.4020  -29.9970 C   0  0  0  0  0  0  0  0  0  0  0  0
   -2.0640   22.0300  -29.9180 C   0  0  0  0  0  0  0  0  0  0  0  0
   -1.1130   21.5570  -29.0170 C   0  0  0  0  0  0  0  0  0  0  0  0
   -0.4300   22.4370  -28.1730 C   0  0  0  0  0  0  0  0  0  0  0  0
    0.7670   21.7320  -27.0910 Cl  0  0  0  0  0  0  0  0  0  0  0  0
   -0.7110   23.8240  -28.2210 C   0  0  0  0  0  0  0  0  0  0  0  0
    0.1520   24.9950  -27.1880 S   0  0  0  0  0  0  0  0  0  0  0  0
    1.4690   25.3630  -27.8100 O   0  0  0  0  0  0  0  0  0  0  0  0
    0.4650   24.3440  -25.8690 O   0  0  0  0  0  0  0  0  0  0  0  0
   -0.7700   26.4570  -26.8930 N   0  0  0  0  0  0  0  0  0  0  0  0
   -1.7880   26.3000  -25.8380 C   0  0  0  0  0  0  0  0  0  0  0  0
   -1.2450   26.5860  -24.4220 C   0  0  0  0  0  0  0  0  0  0  0  0
    0.1440   26.8300  -24.4160 O   0  0  0  0  0  0  0  0  0  0  0  0
    0.4310   27.9340  -25.2430 C   0  0  0  0  0  0  0  0  0  0  0  0
    0.0770   27.6530  -26.7180 C   0  0  0  0  0  0  0  0  0  0  0  0
   -1.6830   24.2900  -29.1340 C   0  0  0  0  0  0  0  0  0  0  0  0
   -1.9920   25.6460  -29.2090 O   0  0  0  0  0  0  0  0  0  0  0  0
   -5.5790   22.8790  -30.6990 N   0  0  0  0  0  0  0  0  0  0  0  0
   -6.8490   22.5090  -31.2610 C   0  0  0  0  0  0  0  0  0  0  0  0
   -7.8660   23.4580  -31.4690 C   0  0  0  0  0  0  0  0  0  0  0  0
   -9.1060   23.0620  -31.9770 C   0  0  0  0  0  0  0  0  0  0  0  0
   -9.3490   21.7170  -32.2660 C   0  0  0  0  0  0  0  0  0  0  0  0
   -8.3540   20.7570  -32.0380 C   0  0  0  0  0  0  0  0  0  0  0  0
   -8.6760   19.0510  -32.3530 S   0  0  0  0  0  0  0  0  0  0  0  0
   -8.8030   18.3220  -31.0440 O   0  0  0  0  0  0  0  0  0  0  0  0
   -9.9860   18.9220  -33.0820 O   0  0  0  0  0  0  0  0  0  0  0  0
   -7.4060   18.3090  -33.3040 N   0  0  0  0  0  0  0  0  0  0  0  0
   -6.5030   19.3190  -33.8660 C   0  0  0  0  0  0  0  0  0  0  0  0
   -5.2650   19.4020  -32.9860 C   0  0  0  0  0  0  0  0  0  0  0  0
   -5.3240   18.1960  -32.0710 C   0  0  0  0  0  0  0  0  0  0  0  0
   -6.5740   17.4290  -32.4780 C   0  0  0  0  0  0  0  0  0  0  0  0
   -7.1070   21.1580  -31.5420 C   0  0  0  0  0  0  0  0  0  0  0  0
   -2.6003   21.3245  -30.5697 H   0  0  0  0  0  0  0  0  0  0  0  0
   -0.8972   20.4794  -28.9692 H   0  0  0  0  0  0  0  0  0  0  0  0
   -2.6142   26.9967  -26.0429 H   0  0  0  0  0  0  0  0  0  0  0  0
   -2.1182   25.2509  -25.8558 H   0  0  0  0  0  0  0  0  0  0  0  0
   -1.7603   27.4700  -24.0183 H   0  0  0  0  0  0  0  0  0  0  0  0
   -1.4306   25.6937  -23.8060 H   0  0  0  0  0  0  0  0  0  0  0  0
   -0.1518   28.7999  -24.8958 H   0  0  0  0  0  0  0  0  0  0  0  0
    1.5110   28.1342  -25.1830 H   0  0  0  0  0  0  0  0  0  0  0  0
   -0.4601   28.5242  -27.1211 H   0  0  0  0  0  0  0  0  0  0  0  0
    1.0207   27.4673  -27.2519 H   0  0  0  0  0  0  0  0  0  0  0  0
   -5.4850   22.8900  -29.6580 H   0  0  0  0  0  0  0  0  0  0  0  0
   -7.6845   24.5164  -31.2308 H   0  0  0  0  0  0  0  0  0  0  0  0
   -9.8927   23.8111  -32.1498 H   0  0  0  0  0  0  0  0  0  0  0  0
  -10.3238   21.4108  -32.6735 H   0  0  0  0  0  0  0  0  0  0  0  0
   -6.2137   19.0309  -34.8874 H   0  0  0  0  0  0  0  0  0  0  0  0
   -7.0062   20.2965  -33.9021 H   0  0  0  0  0  0  0  0  0  0  0  0
   -4.3546   19.3703  -33.6025 H   0  0  0  0  0  0  0  0  0  0  0  0
   -5.2382   20.3415  -32.4145 H   0  0  0  0  0  0  0  0  0  0  0  0
   -4.4296   17.5697  -32.2043 H   0  0  0  0  0  0  0  0  0  0  0  0
   -5.3568   18.4918  -31.0120 H   0  0  0  0  0  0  0  0  0  0  0  0
   -6.2911   16.5359  -33.0545 H   0  0  0  0  0  0  0  0  0  0  0  0
   -7.1307   17.1104  -31.5844 H   0  0  0  0  0  0  0  0  0  0  0  0
   -6.3219   20.4067  -31.3709 H   0  0  0  0  0  0  0  0  0  0  0  0
  1  2  2  0
  2  3  1  0
  3  4  1  0
  4  5  2  0
  5  6  1  0
  6  7  2  0
  7  8  1  0
  7  9  1  0
  9 10  1  0
 10 11  2  0
 10 12  2  0
 10 13  1  0
 13 14  1  0
 14 15  1  0
 15 16  1  0
 16 17  1  0
 17 18  1  0
  9 19  2  0
 19 20  1  0
  2 21  1  0
 21 22  1  0
 22 23  2  0
 23 24  1  0
 24 25  2  0
 25 26  1  0
 26 27  1  0
 27 28  2  0
 27 29  2  0
 27 30  1  0
 30 31  1  0
 31 32  1  0
 32 33  1  0
 33 34  1  0
 26 35  2  0
 19  4  1  0
 35 22  1  0
 18 13  1  0
 34 30  1  0
  5 36  1  0
  6 37  1  0
 14 38  1  0
 14 39  1  0
 15 40  1  0
 15 41  1  0
 17 42  1  0
 17 43  1  0
 18 44  1  0
 18 45  1  0
 21 46  1  0
 23 47  1  0
 24 48  1  0
 25 49  1  0
 31 50  1  0
 31 51  1  0
 32 52  1  0
 32 53  1  0
 33 54  1  0
 33 55  1  0
 34 56  1  0
 34 57  1  0
 35 58  1  0
M  CHG  2   3  -1  20  -1
M  END
>  <UniqueID>  (32) 
32

>  <SMILES>  (32) 
O=C([N-]c1ccc(Cl)c(S(=O)(=O)N2CCOCC2)c1[O-])Nc1cccc(S(=O)(=O)N2CCCC2)c1

>  <Energy>  (32) 
82.28215092171709

>  <Genealogy>  (32) 
O=C([N-]c1ccc(Cl)c(S(=O)(=O)N2CCOCC2)c1[O-])Nc1cccc(S(=O)(=O)N2CCCC2)c1 (protonated)
O=C([N-]c1ccc(Cl)c(S(=O)(=O)N2CCOCC2)c1[O-])Nc1cccc(S(=O)(=O)N2CCCC2)c1 (3D coordinates assigned)
O=C([N-]c1ccc(Cl)c(S(=O)(=O)N2CCOCC2)c1[O-])Nc1cccc(S(=O)(=O)N2CCCC2)c1 (nonaromatic ring conformer: 82.28215092171709 kcal/mol)

>  <smiles>  (32) 
O=C(Nc1cccc(S(=O)(=O)N2CCCC2)c1)Nc1ccc(Cl)c(S(=O)(=O)N2CCOCC2)c1O

>  <score_type>  (32) 
oracle

>  <origin>  (32) 
adgpu

>  <m_score__min__energy>  (32) 
-16.16

>  <m_primary>  (32) 
energy

$$$$
32:0
     RDKit          3D

 28 29  0  0  0  0  0  0  0  0999 V2000
   -3.7110   26.0240  -29.7130 H   0  0  0  0  0  0  0  0  0  0  0  0
   -3.7830   25.2930  -30.4570 N   0  0  0  0  0  0  0  0  0  0  0  0
   -4.8830   24.6540  -30.6970 C   0  0  0  0  0  0  0  0  0  0  0  0
   -4.9090   23.7130  -31.6800 N   0  0  0  0  0  0  0  0  0  0  0  0
   -6.0360   23.0110  -31.9740 C   0  0  0  0  0  0  0  0  0  0  0  0
   -6.0191   22.2553  -32.7732 H   0  0  0  0  0  0  0  0  0  0  0  0
   -7.2170   23.2480  -31.2620 C   0  0  0  0  0  0  0  0  0  0  0  0
   -8.6700   22.3200  -31.6300 S   0  0  0  0  0  0  0  0  0  0  0  0
   -9.6620   23.2260  -32.3030 O   0  0  0  0  0  0  0  0  0  0  0  0
   -9.2890   21.8030  -30.3600 O   0  0  0  0  0  0  0  0  0  0  0  0
   -8.3120   20.9860  -32.6920 N   0  0  0  0  0  0  0  0  0  0  0  0
   -7.9050   19.7960  -31.9410 C   0  0  0  0  0  0  0  0  0  0  0  0
   -7.3088   20.1076  -31.0707 H   0  0  0  0  0  0  0  0  0  0  0  0
   -8.8106   19.2607  -31.6195 H   0  0  0  0  0  0  0  0  0  0  0  0
   -7.0830   18.8710  -32.7920 C   0  0  0  0  0  0  0  0  0  0  0  0
   -7.1990   17.5240  -32.6290 N   0  0  0  0  0  0  0  0  0  0  0  0
   -6.4890   16.6460  -33.3870 C   0  0  0  0  0  0  0  0  0  0  0  0
   -6.6066   15.5637  -33.2294 H   0  0  0  0  0  0  0  0  0  0  0  0
   -5.6110   17.1170  -34.3650 C   0  0  0  0  0  0  0  0  0  0  0  0
   -5.0337   16.4114  -34.9805 H   0  0  0  0  0  0  0  0  0  0  0  0
   -5.4740   18.4940  -34.5530 C   0  0  0  0  0  0  0  0  0  0  0  0
   -4.7868   18.8798  -35.3204 H   0  0  0  0  0  0  0  0  0  0  0  0
   -6.2110   19.3800  -33.7650 C   0  0  0  0  0  0  0  0  0  0  0  0
   -6.1087   20.4661  -33.9060 H   0  0  0  0  0  0  0  0  0  0  0  0
   -7.2140   24.2070  -30.2440 C   0  0  0  0  0  0  0  0  0  0  0  0
   -8.1315   24.4026  -29.6697 H   0  0  0  0  0  0  0  0  0  0  0  0
   -6.0460   24.9160  -29.9570 C   0  0  0  0  0  0  0  0  0  0  0  0
   -6.0376   25.6726  -29.1586 H   0  0  0  0  0  0  0  0  0  0  0  0
  1  2  1  0
  2  3  2  0
  3  4  1  0
  4  5  1  0
  5  6  1  0
  5  7  2  0
  7  8  1  0
  8  9  2  0
  8 10  2  0
  8 11  1  0
 11 12  1  0
 12 13  1  0
 12 14  1  0
 12 15  1  0
 15 16  2  0
 16 17  1  0
 17 18  1  0
 17 19  2  0
 19 20  1  0
 19 21  1  0
 21 22  1  0
 21 23  2  0
 23 24  1  0
  7 25  1  0
 25 26  1  0
 25 27  2  0
 27 28  1  0
 27  3  1  0
 23 15  1  0
M  CHG  2   4  -1  11  -1
M  END
>  <UniqueID>  (33) 
33

>  <SMILES>  (33) 
[H]/N=c1\ccc(S(=O)(=O)[N-]Cc2ccccn2)c[n-]1

>  <Energy>  (33) 
28.73602072712179

>  <Genealogy>  (33) 
N=c1ccc(S(=O)(=O)[N-]Cc2ccccn2)c[n-]1 (protonated)
[H]/N=c1\ccc(S(=O)(=O)[N-]Cc2ccccn2)c[n-]1 (cis-trans isomerization)
[H]/N=c1\ccc(S(=O)(=O)[N-]Cc2ccccn2)c[n-]1 (3D coordinates assigned)
[H]/N=c1\ccc(S(=O)(=O)[N-]Cc2ccccn2)c[n-]1 (optimized conformer: 28.73602072712179 kcal/mol)

>  <smiles>  (33) 
N=c1ccc(S(=O)(=O)NCc2ccccn2)c[nH]1

>  <score_type>  (33) 
oracle

>  <origin>  (33) 
adgpu

>  <m_score__min__energy>  (33) 
-9.3699999999999992

>  <m_primary>  (33) 
energy

$$$$
33:0
     RDKit          3D

 49 52  0  0  0  0  0  0  0  0999 V2000
   -5.6220   25.2590  -31.5710 O   0  0  0  0  0  0  0  0  0  0  0  0
   -5.3560   23.8430  -31.1480 S   0  0  0  0  0  0  0  0  0  0  0  0
   -4.1390   23.3330  -31.8660 O   0  0  0  0  0  0  0  0  0  0  0  0
   -5.0460   23.8270  -29.4400 N   0  0  0  0  0  0  0  0  0  0  0  0
   -3.8340   23.2770  -28.9130 C   0  0  0  0  0  0  0  0  0  0  0  0
   -3.8540   22.0110  -28.3130 C   0  0  0  0  0  0  0  0  0  0  0  0
   -2.6790   21.4490  -27.7910 C   0  0  0  0  0  0  0  0  0  0  0  0
   -1.4640   22.1590  -27.8900 C   0  0  0  0  0  0  0  0  0  0  0  0
   -1.4580   23.4450  -28.4500 C   0  0  0  0  0  0  0  0  0  0  0  0
   -2.6350   24.0050  -28.9530 C   0  0  0  0  0  0  0  0  0  0  0  0
   -2.6100   25.2980  -29.4650 O   0  0  0  0  0  0  0  0  0  0  0  0
   -0.1930   21.6000  -27.2940 C   0  0  0  0  0  0  0  0  0  0  0  0
   -0.2460   20.1390  -27.1350 N   0  0  0  0  0  0  0  0  0  0  0  0
   -1.4560   19.7390  -26.4060 C   0  0  0  0  0  0  0  0  0  0  0  0
   -2.7160   20.0560  -27.2210 C   0  0  0  0  0  0  0  0  0  0  0  0
   -6.7620   22.8310  -31.5360 C   0  0  0  0  0  0  0  0  0  0  0  0
   -8.0420   23.3810  -31.3470 C   0  0  0  0  0  0  0  0  0  0  0  0
   -9.1890   22.6300  -31.5990 C   0  0  0  0  0  0  0  0  0  0  0  0
   -9.0780   21.3170  -32.0480 C   0  0  0  0  0  0  0  0  0  0  0  0
   -7.8190   20.7580  -32.2630 C   0  0  0  0  0  0  0  0  0  0  0  0
   -6.6480   21.5020  -32.0310 C   0  0  0  0  0  0  0  0  0  0  0  0
   -5.0860   20.7250  -32.3630 S   0  0  0  0  0  0  0  0  0  0  0  0
   -4.2420   20.7530  -31.1190 O   0  0  0  0  0  0  0  0  0  0  0  0
   -4.3580   21.4430  -33.4640 O   0  0  0  0  0  0  0  0  0  0  0  0
   -5.3050   19.0530  -32.8800 C   0  0  0  0  0  0  0  0  0  0  0  0
   -5.7620   18.0800  -31.9790 C   0  0  0  0  0  0  0  0  0  0  0  0
   -5.9510   16.7610  -32.4060 C   0  0  0  0  0  0  0  0  0  0  0  0
   -5.6860   16.4100  -33.7330 C   0  0  0  0  0  0  0  0  0  0  0  0
   -5.2360   17.3780  -34.6360 C   0  0  0  0  0  0  0  0  0  0  0  0
   -5.0460   18.6970  -34.2120 C   0  0  0  0  0  0  0  0  0  0  0  0
   -5.8690   23.9120  -28.8040 H   0  0  0  0  0  0  0  0  0  0  0  0
   -4.7996   21.4525  -28.2506 H   0  0  0  0  0  0  0  0  0  0  0  0
   -0.5194   24.0170  -28.4935 H   0  0  0  0  0  0  0  0  0  0  0  0
    0.6489   21.8535  -27.9551 H   0  0  0  0  0  0  0  0  0  0  0  0
   -0.0670   22.0426  -26.2949 H   0  0  0  0  0  0  0  0  0  0  0  0
   -0.2530   19.6950  -28.0840 H   0  0  0  0  0  0  0  0  0  0  0  0
   -1.4169   18.6574  -26.2094 H   0  0  0  0  0  0  0  0  0  0  0  0
   -1.4984   20.3001  -25.4608 H   0  0  0  0  0  0  0  0  0  0  0  0
   -2.7955   19.3351  -28.0481 H   0  0  0  0  0  0  0  0  0  0  0  0
   -3.5840   19.9851  -26.5490 H   0  0  0  0  0  0  0  0  0  0  0  0
   -8.1397   24.4187  -30.9953 H   0  0  0  0  0  0  0  0  0  0  0  0
  -10.1827   23.0753  -31.4429 H   0  0  0  0  0  0  0  0  0  0  0  0
   -9.9835   20.7206  -32.2331 H   0  0  0  0  0  0  0  0  0  0  0  0
   -7.7403   19.7202  -32.6192 H   0  0  0  0  0  0  0  0  0  0  0  0
   -5.9722   18.3544  -30.9347 H   0  0  0  0  0  0  0  0  0  0  0  0
   -6.3084   15.9997  -31.6970 H   0  0  0  0  0  0  0  0  0  0  0  0
   -5.8315   15.3720  -34.0668 H   0  0  0  0  0  0  0  0  0  0  0  0
   -5.0312   17.1018  -35.6809 H   0  0  0  0  0  0  0  0  0  0  0  0
   -4.6927   19.4570  -34.9244 H   0  0  0  0  0  0  0  0  0  0  0  0
  1  2  2  0
  2  3  2  0
  2  4  1  0
  4  5  1  0
  5  6  2  0
  6  7  1  0
  7  8  2  0
  8  9  1  0
  9 10  2  0
 10 11  1  0
  8 12  1  0
 12 13  1  0
 13 14  1  0
 14 15  1  0
  2 16  1  0
 16 17  2  0
 17 18  1  0
 18 19  2  0
 19 20  1  0
 20 21  2  0
 21 22  1  0
 22 23  2  0
 22 24  2  0
 22 25  1  0
 25 26  2  0
 26 27  1  0
 27 28  2  0
 28 29  1  0
 29 30  2  0
 10  5  1  0
 21 16  1  0
 30 25  1  0
 15  7  1  0
  4 31  1  0
  6 32  1  0
  9 33  1  0
 12 34  1  0
 12 35  1  0
 13 36  1  0
 14 37  1  0
 14 38  1  0
 15 39  1  0
 15 40  1  0
 17 41  1  0
 18 42  1  0
 19 43  1  0
 20 44  1  0
 26 45  1  0
 27 46  1  0
 28 47  1  0
 29 48  1  0
 30 49  1  0
M  CHG  1  11  -1
M  END
>  <UniqueID>  (34) 
34

>  <SMILES>  (34) 
O=S(=O)(Nc1cc2c(cc1[O-])CNCC2)c1ccccc1S(=O)(=O)c1ccccc1

>  <Energy>  (34) 
69.30258676632957

>  <Genealogy>  (34) 
O=S(=O)(Nc1cc2c(cc1[O-])CNCC2)c1ccccc1S(=O)(=O)c1ccccc1 (protonated)
O=S(=O)(Nc1cc2c(cc1[O-])CNCC2)c1ccccc1S(=O)(=O)c1ccccc1 (3D coordinates assigned)
O=S(=O)(Nc1cc2c(cc1[O-])CNCC2)c1ccccc1S(=O)(=O)c1ccccc1 (nonaromatic ring conformer: 69.30258676632957 kcal/mol)

>  <smiles>  (34) 
O=S(=O)(Nc1cc2c(cc1O)CNCC2)c1ccccc1S(=O)(=O)c1ccccc1

>  <score_type>  (34) 
oracle

>  <origin>  (34) 
adgpu

>  <m_score__min__energy>  (34) 
-13.699999999999999

>  <m_primary>  (34) 
energy

$$$$
34:0
     RDKit          3D

 54 56  0  0  0  0  0  0  0  0999 V2000
   -5.7920   25.8080  -31.2150 O   0  0  0  0  0  0  0  0  0  0  0  0
   -5.0730   25.1480  -30.4180 C   0  0  0  0  0  0  0  0  0  0  0  0
   -5.7090   24.2320  -29.4170 C   0  0  0  0  0  0  0  0  0  0  0  0
   -5.9310   22.9040  -30.0070 N   0  0  0  0  0  0  0  0  0  0  0  0
   -6.1340   22.9820  -31.4620 C   0  0  0  0  0  0  0  0  0  0  0  0
   -7.5640   22.5770  -31.8430 C   0  0  0  0  0  0  0  0  0  0  0  0
   -7.6810   21.0860  -32.0290 C   0  0  0  0  0  0  0  0  0  0  0  0
   -8.7090   20.3700  -31.3920 C   0  0  0  0  0  0  0  0  0  0  0  0
   -8.8400   18.9930  -31.5970 C   0  0  0  0  0  0  0  0  0  0  0  0
   -7.9510   18.3220  -32.4420 C   0  0  0  0  0  0  0  0  0  0  0  0
   -6.9300   19.0290  -33.0860 C   0  0  0  0  0  0  0  0  0  0  0  0
   -6.7990   20.4070  -32.8880 C   0  0  0  0  0  0  0  0  0  0  0  0
   -3.6440   25.2580  -30.4540 N   0  0  0  0  0  0  0  0  0  0  0  0
   -2.6960   24.4260  -29.7680 C   0  0  0  0  0  0  0  0  0  0  0  0
   -2.7880   23.0210  -29.7860 C   0  0  0  0  0  0  0  0  0  0  0  0
   -1.8470   22.2400  -29.1000 C   0  0  0  0  0  0  0  0  0  0  0  0
   -1.9310   20.4800  -29.1740 S   0  0  0  0  0  0  0  0  0  0  0  0
   -0.6700   19.9070  -28.5900 O   0  0  0  0  0  0  0  0  0  0  0  0
   -3.0990   19.9930  -28.3600 O   0  0  0  0  0  0  0  0  0  0  0  0
   -2.0940   19.9620  -30.8340 N   0  0  0  0  0  0  0  0  0  0  0  0
   -0.9940   20.5250  -31.6460 C   0  0  0  0  0  0  0  0  0  0  0  0
   -1.2510   20.3990  -33.1640 C   0  0  0  0  0  0  0  0  0  0  0  0
   -2.3540   19.3810  -33.4680 C   0  0  0  0  0  0  0  0  0  0  0  0
   -3.6570   19.7490  -32.7420 C   0  0  0  0  0  0  0  0  0  0  0  0
   -3.4030   20.3800  -31.3590 C   0  0  0  0  0  0  0  0  0  0  0  0
   -0.8200   22.8620  -28.3830 C   0  0  0  0  0  0  0  0  0  0  0  0
   -0.7440   24.2540  -28.3320 C   0  0  0  0  0  0  0  0  0  0  0  0
   -1.6800   25.0350  -29.0170 C   0  0  0  0  0  0  0  0  0  0  0  0
   -1.5910   26.4210  -28.9580 O   0  0  0  0  0  0  0  0  0  0  0  0
   -5.0478   24.1346  -28.5433 H   0  0  0  0  0  0  0  0  0  0  0  0
   -6.6781   24.6538  -29.1122 H   0  0  0  0  0  0  0  0  0  0  0  0
   -6.8030   22.5080  -29.5830 H   0  0  0  0  0  0  0  0  0  0  0  0
   -5.9522   24.0144  -31.7952 H   0  0  0  0  0  0  0  0  0  0  0  0
   -5.4330   22.2890  -31.9501 H   0  0  0  0  0  0  0  0  0  0  0  0
   -8.2507   22.8932  -31.0439 H   0  0  0  0  0  0  0  0  0  0  0  0
   -7.8211   23.0662  -32.7941 H   0  0  0  0  0  0  0  0  0  0  0  0
   -9.4132   20.8948  -30.7297 H   0  0  0  0  0  0  0  0  0  0  0  0
   -9.6439   18.4368  -31.0926 H   0  0  0  0  0  0  0  0  0  0  0  0
   -8.0543   17.2384  -32.6004 H   0  0  0  0  0  0  0  0  0  0  0  0
   -6.2294   18.5002  -33.7490 H   0  0  0  0  0  0  0  0  0  0  0  0
   -6.0030   20.9618  -33.4062 H   0  0  0  0  0  0  0  0  0  0  0  0
   -3.6027   22.5334  -30.3414 H   0  0  0  0  0  0  0  0  0  0  0  0
   -0.8805   21.5900  -31.3952 H   0  0  0  0  0  0  0  0  0  0  0  0
   -0.0829   19.9540  -31.4140 H   0  0  0  0  0  0  0  0  0  0  0  0
   -1.5535   21.3808  -33.5573 H   0  0  0  0  0  0  0  0  0  0  0  0
   -0.3228   20.0525  -33.6418 H   0  0  0  0  0  0  0  0  0  0  0  0
   -2.5387   19.3635  -34.5522 H   0  0  0  0  0  0  0  0  0  0  0  0
   -2.0246   18.3917  -33.1176 H   0  0  0  0  0  0  0  0  0  0  0  0
   -4.2149   20.4674  -33.3606 H   0  0  0  0  0  0  0  0  0  0  0  0
   -4.2272   18.8212  -32.5869 H   0  0  0  0  0  0  0  0  0  0  0  0
   -3.4224   21.4759  -31.4521 H   0  0  0  0  0  0  0  0  0  0  0  0
   -4.1879   20.0442  -30.6654 H   0  0  0  0  0  0  0  0  0  0  0  0
   -0.0702   22.2521  -27.8579 H   0  0  0  0  0  0  0  0  0  0  0  0
    0.0546   24.7387  -27.7512 H   0  0  0  0  0  0  0  0  0  0  0  0
  1  2  2  0
  2  3  1  0
  3  4  1  0
  4  5  1  0
  5  6  1  0
  6  7  1  0
  7  8  2  0
  8  9  1  0
  9 10  2  0
 10 11  1  0
 11 12  2  0
  2 13  1  0
 13 14  1  0
 14 15  2  0
 15 16  1  0
 16 17  1  0
 17 18  2  0
 17 19  2  0
 17 20  1  0
 20 21  1  0
 21 22  1  0
 22 23  1  0
 23 24  1  0
 24 25  1  0
 16 26  2  0
 26 27  1  0
 27 28  2  0
 28 29  1  0
 12  7  1  0
 28 14  1  0
 25 20  1  0
  3 30  1  0
  3 31  1  0
  4 32  1  0
  5 33  1  0
  5 34  1  0
  6 35  1  0
  6 36  1  0
  8 37  1  0
  9 38  1  0
 10 39  1  0
 11 40  1  0
 12 41  1  0
 15 42  1  0
 21 43  1  0
 21 44  1  0
 22 45  1  0
 22 46  1  0
 23 47  1  0
 23 48  1  0
 24 49  1  0
 24 50  1  0
 25 51  1  0
 25 52  1  0
 26 53  1  0
 27 54  1  0
M  CHG  2  13  -1  29  -1
M  END
>  <UniqueID>  (35) 
35

>  <SMILES>  (35) 
O=C(CNCCc1ccccc1)[N-]c1cc(S(=O)(=O)N2CCCCC2)ccc1[O-]

>  <Energy>  (35) 
57.610379941173015

>  <Genealogy>  (35) 
O=C(CNCCc1ccccc1)[N-]c1cc(S(=O)(=O)N2CCCCC2)ccc1[O-] (protonated)
O=C(CNCCc1ccccc1)[N-]c1cc(S(=O)(=O)N2CCCCC2)ccc1[O-] (3D coordinates assigned)
O=C(CNCCc1ccccc1)[N-]c1cc(S(=O)(=O)N2CCCCC2)ccc1[O-] (nonaromatic ring conformer: 57.610379941173015 kcal/mol)

>  <smiles>  (35) 
O=C(CNCCc1ccccc1)Nc1cc(S(=O)(=O)N2CCCCC2)ccc1O

>  <score_type>  (35) 
oracle

>  <origin>  (35) 
adgpu

>  <m_score__min__energy>  (35) 
-14.25

>  <m_primary>  (35) 
energy

$$$$
35:0
     RDKit          3D

 55 58  0  0  0  0  0  0  0  0999 V2000
   -2.2730   19.4770  -26.6450 C   0  0  0  0  0  0  0  0  0  0  0  0
   -1.1550   20.1300  -27.2370 O   0  0  0  0  0  0  0  0  0  0  0  0
   -0.7260   19.9350  -28.5600 C   0  0  0  0  0  0  0  0  0  0  0  0
   -0.1130   18.7350  -28.9690 C   0  0  0  0  0  0  0  0  0  0  0  0
    0.2860   18.5620  -30.2950 C   0  0  0  0  0  0  0  0  0  0  0  0
    0.0890   19.5840  -31.2300 C   0  0  0  0  0  0  0  0  0  0  0  0
    0.5730   19.3530  -32.9090 S   0  0  0  0  0  0  0  0  0  0  0  0
    1.5090   20.4620  -33.3000 O   0  0  0  0  0  0  0  0  0  0  0  0
    1.3300   18.0590  -33.0240 O   0  0  0  0  0  0  0  0  0  0  0  0
   -0.7810   19.3290  -34.0210 N   0  0  0  0  0  0  0  0  0  0  0  0
   -1.8530   18.3940  -33.6280 C   0  0  0  0  0  0  0  0  0  0  0  0
   -2.9290   19.0580  -32.7590 C   0  0  0  0  0  0  0  0  0  0  0  0
   -3.4220   20.2250  -33.3790 O   0  0  0  0  0  0  0  0  0  0  0  0
   -2.3830   21.1750  -33.4630 C   0  0  0  0  0  0  0  0  0  0  0  0
   -1.2620   20.6750  -34.3860 C   0  0  0  0  0  0  0  0  0  0  0  0
   -0.5390   20.7710  -30.8350 C   0  0  0  0  0  0  0  0  0  0  0  0
   -0.9360   20.9590  -29.5040 C   0  0  0  0  0  0  0  0  0  0  0  0
   -1.7620   22.4530  -29.0420 S   0  0  0  0  0  0  0  0  0  0  0  0
   -2.9080   22.1370  -28.1250 O   0  0  0  0  0  0  0  0  0  0  0  0
   -0.8050   23.3540  -28.3160 O   0  0  0  0  0  0  0  0  0  0  0  0
   -2.3570   23.2850  -30.4400 N   0  0  0  0  0  0  0  0  0  0  0  0
   -3.7370   23.2570  -30.8000 C   0  0  0  0  0  0  0  0  0  0  0  0
   -4.3550   22.0440  -31.1280 C   0  0  0  0  0  0  0  0  0  0  0  0
   -5.7270   21.9990  -31.3970 C   0  0  0  0  0  0  0  0  0  0  0  0
   -6.4890   23.1840  -31.3510 C   0  0  0  0  0  0  0  0  0  0  0  0
   -5.8530   24.4050  -31.0820 C   0  0  0  0  0  0  0  0  0  0  0  0
   -4.4840   24.4420  -30.8020 C   0  0  0  0  0  0  0  0  0  0  0  0
   -3.8750   25.6550  -30.5110 O   0  0  0  0  0  0  0  0  0  0  0  0
   -7.9650   23.1510  -31.6570 C   0  0  0  0  0  0  0  0  0  0  0  0
   -8.5740   21.7740  -31.3550 C   0  0  0  0  0  0  0  0  0  0  0  0
   -7.7740   20.6690  -32.0500 C   0  0  0  0  0  0  0  0  0  0  0  0
   -6.3680   20.7410  -31.6610 N   0  0  0  0  0  0  0  0  0  0  0  0
   -2.1886   19.5263  -25.5494 H   0  0  0  0  0  0  0  0  0  0  0  0
   -3.2001   19.9756  -26.9641 H   0  0  0  0  0  0  0  0  0  0  0  0
   -2.2942   18.4245  -26.9641 H   0  0  0  0  0  0  0  0  0  0  0  0
    0.0523   17.9291  -28.2388 H   0  0  0  0  0  0  0  0  0  0  0  0
    0.7574   17.6182  -30.6064 H   0  0  0  0  0  0  0  0  0  0  0  0
   -2.3290   18.0016  -34.5387 H   0  0  0  0  0  0  0  0  0  0  0  0
   -1.3925   17.5924  -33.0318 H   0  0  0  0  0  0  0  0  0  0  0  0
   -3.7584   18.3512  -32.6088 H   0  0  0  0  0  0  0  0  0  0  0  0
   -2.4819   19.3336  -31.7925 H   0  0  0  0  0  0  0  0  0  0  0  0
   -2.7866   22.1168  -33.8630 H   0  0  0  0  0  0  0  0  0  0  0  0
   -1.9676   21.3339  -32.4569 H   0  0  0  0  0  0  0  0  0  0  0  0
   -1.6429   20.6447  -35.4175 H   0  0  0  0  0  0  0  0  0  0  0  0
   -0.4146   21.3690  -34.2851 H   0  0  0  0  0  0  0  0  0  0  0  0
   -0.7226   21.5632  -31.5757 H   0  0  0  0  0  0  0  0  0  0  0  0
   -3.7581   21.1212  -31.1744 H   0  0  0  0  0  0  0  0  0  0  0  0
   -6.4348   25.3385  -31.0915 H   0  0  0  0  0  0  0  0  0  0  0  0
   -8.4739   23.9088  -31.0432 H   0  0  0  0  0  0  0  0  0  0  0  0
   -8.0990   23.3590  -32.7288 H   0  0  0  0  0  0  0  0  0  0  0  0
   -8.5597   21.6024  -30.2686 H   0  0  0  0  0  0  0  0  0  0  0  0
   -9.6082   21.7530  -31.7290 H   0  0  0  0  0  0  0  0  0  0  0  0
   -8.1811   19.6890  -31.7603 H   0  0  0  0  0  0  0  0  0  0  0  0
   -7.8515   20.8017  -33.1392 H   0  0  0  0  0  0  0  0  0  0  0  0
   -5.8170   19.8550  -31.6010 H   0  0  0  0  0  0  0  0  0  0  0  0
  1  2  1  0
  2  3  1  0
  3  4  2  0
  4  5  1  0
  5  6  2  0
  6  7  1  0
  7  8  2  0
  7  9  2  0
  7 10  1  0
 10 11  1  0
 11 12  1  0
 12 13  1  0
 13 14  1  0
 14 15  1  0
  6 16  1  0
 16 17  2  0
 17 18  1  0
 18 19  2  0
 18 20  2  0
 18 21  1  0
 21 22  1  0
 22 23  2  0
 23 24  1  0
 24 25  2  0
 25 26  1  0
 26 27  2  0
 27 28  1  0
 25 29  1  0
 29 30  1  0
 30 31  1  0
 31 32  1  0
 17  3  1  0
 27 22  1  0
 15 10  1  0
 32 24  1  0
  1 33  1  0
  1 34  1  0
  1 35  1  0
  4 36  1  0
  5 37  1  0
 11 38  1  0
 11 39  1  0
 12 40  1  0
 12 41  1  0
 14 42  1  0
 14 43  1  0
 15 44  1  0
 15 45  1  0
 16 46  1  0
 23 47  1  0
 26 48  1  0
 29 49  1  0
 29 50  1  0
 30 51  1  0
 30 52  1  0
 31 53  1  0
 31 54  1  0
 32 55  1  0
M  CHG  2  21  -1  28  -1
M  END
>  <UniqueID>  (36) 
36

>  <SMILES>  (36) 
COc1ccc(S(=O)(=O)N2CCOCC2)cc1S(=O)(=O)[N-]c1cc2c(cc1[O-])CCCN2

>  <Energy>  (36) 
68.16978740020127

>  <Genealogy>  (36) 
COc1ccc(S(=O)(=O)N2CCOCC2)cc1S(=O)(=O)[N-]c1cc2c(cc1[O-])CCCN2 (protonated)
COc1ccc(S(=O)(=O)N2CCOCC2)cc1S(=O)(=O)[N-]c1cc2c(cc1[O-])CCCN2 (3D coordinates assigned)
COc1ccc(S(=O)(=O)N2CCOCC2)cc1S(=O)(=O)[N-]c1cc2c(cc1[O-])CCCN2 (nonaromatic ring conformer: 68.16978740020127 kcal/mol)

>  <smiles>  (36) 
COc1ccc(S(=O)(=O)N2CCOCC2)cc1S(=O)(=O)Nc1cc2c(cc1O)CCCN2

>  <score_type>  (36) 
oracle

>  <origin>  (36) 
adgpu

>  <m_score__min__energy>  (36) 
-13.279999999999999

>  <m_primary>  (36) 
energy

$$$$
36:0
     RDKit          3D

 30 31  0  0  0  0  0  0  0  0999 V2000
   -1.3460   24.1690  -28.9270 C   0  0  0  0  0  0  0  0  0  0  0  0
   -2.6000   23.9610  -29.7150 C   0  0  0  0  0  0  0  0  0  0  0  0
   -2.7680   22.8060  -30.4820 C   0  0  0  0  0  0  0  0  0  0  0  0
   -3.9290   22.6790  -31.2490 C   0  0  0  0  0  0  0  0  0  0  0  0
   -4.1710   21.2390  -32.2890 S   0  0  0  0  0  0  0  0  0  0  0  0
   -5.9120   21.6270  -32.6960 C   0  0  0  0  0  0  0  0  0  0  0  0
   -6.8150   20.4520  -32.4010 C   0  0  0  0  0  0  0  0  0  0  0  0
   -6.3300   19.1550  -32.6400 C   0  0  0  0  0  0  0  0  0  0  0  0
   -7.1440   18.0400  -32.4210 C   0  0  0  0  0  0  0  0  0  0  0  0
   -8.4510   18.2080  -31.9630 C   0  0  0  0  0  0  0  0  0  0  0  0
   -8.9470   19.4900  -31.7200 C   0  0  0  0  0  0  0  0  0  0  0  0
   -8.1400   20.6150  -31.9330 C   0  0  0  0  0  0  0  0  0  0  0  0
   -8.8400   22.1990  -31.6110 Cl  0  0  0  0  0  0  0  0  0  0  0  0
   -4.8700   23.6570  -31.2190 N   0  0  0  0  0  0  0  0  0  0  0  0
   -4.7000   24.7680  -30.4520 C   0  0  0  0  0  0  0  0  0  0  0  0
   -5.7240   25.8530  -30.4760 C   0  0  0  0  0  0  0  0  0  0  0  0
   -3.5620   24.9210  -29.7240 N   0  0  0  0  0  0  0  0  0  0  0  0
   -1.5776   24.1306  -27.8524 H   0  0  0  0  0  0  0  0  0  0  0  0
   -0.6221   23.3787  -29.1745 H   0  0  0  0  0  0  0  0  0  0  0  0
   -0.9160   25.1507  -29.1745 H   0  0  0  0  0  0  0  0  0  0  0  0
   -2.0040   22.0146  -30.4823 H   0  0  0  0  0  0  0  0  0  0  0  0
   -6.2375   22.4896  -32.0960 H   0  0  0  0  0  0  0  0  0  0  0  0
   -5.9768   21.8562  -33.7699 H   0  0  0  0  0  0  0  0  0  0  0  0
   -5.3008   19.0160  -33.0026 H   0  0  0  0  0  0  0  0  0  0  0  0
   -6.7537   17.0291  -32.6100 H   0  0  0  0  0  0  0  0  0  0  0  0
   -9.0911   17.3297  -31.7932 H   0  0  0  0  0  0  0  0  0  0  0  0
   -9.9782   19.6176  -31.3589 H   0  0  0  0  0  0  0  0  0  0  0  0
   -5.9871   26.1318  -29.4449 H   0  0  0  0  0  0  0  0  0  0  0  0
   -5.3167   26.7300  -31.0004 H   0  0  0  0  0  0  0  0  0  0  0  0
   -6.6231   25.4971  -31.0004 H   0  0  0  0  0  0  0  0  0  0  0  0
  1  2  1  0
  2  3  2  0
  3  4  1  0
  4  5  1  0
  5  6  1  0
  6  7  1  0
  7  8  2  0
  8  9  1  0
  9 10  2  0
 10 11  1  0
 11 12  2  0
 12 13  1  0
  4 14  2  0
 14 15  1  0
 15 16  1  0
 15 17  2  0
 17  2  1  0
 12  7  1  0
  1 18  1  0
  1 19  1  0
  1 20  1  0
  3 21  1  0
  6 22  1  0
  6 23  1  0
  8 24  1  0
  9 25  1  0
 10 26  1  0
 11 27  1  0
 16 28  1  0
 16 29  1  0
 16 30  1  0
M  END
>  <UniqueID>  (37) 
37

>  <SMILES>  (37) 
Cc1cc(SCc2ccccc2Cl)nc(C)n1

>  <Energy>  (37) 
23.995416128713067

>  <Genealogy>  (37) 
Cc1cc(SCc2ccccc2Cl)nc(C)n1 (3D coordinates assigned)
Cc1cc(SCc2ccccc2Cl)nc(C)n1 (optimized conformer: 23.995416128713067 kcal/mol)

>  <smiles>  (37) 
Cc1cc(SCc2ccccc2Cl)nc(C)n1

>  <score_type>  (37) 
oracle

>  <origin>  (37) 
adgpu

>  <m_score__min__energy>  (37) 
-7.5199999999999996

>  <m_primary>  (37) 
energy

$$$$
37:0
     RDKit          3D

 45 48  0  0  0  0  0  0  0  0999 V2000
   -9.8160   19.7950  -33.0370 O   0  0  0  0  0  0  0  0  0  0  0  0
   -8.6570   20.0280  -32.1120 S   0  0  0  0  0  0  0  0  0  0  0  0
   -9.0340   19.5710  -30.7300 O   0  0  0  0  0  0  0  0  0  0  0  0
   -8.2920   21.7240  -32.0670 N   0  0  0  0  0  0  0  0  0  0  0  0
   -7.0320   22.2610  -31.6280 C   0  0  0  0  0  0  0  0  0  0  0  0
   -6.0150   21.3690  -31.1950 C   0  0  0  0  0  0  0  0  0  0  0  0
   -4.7710   21.8490  -30.7480 C   0  0  0  0  0  0  0  0  0  0  0  0
   -4.5760   23.2250  -30.7520 C   0  0  0  0  0  0  0  0  0  0  0  0
   -3.5090   24.0090  -30.3900 C   0  0  0  0  0  0  0  0  0  0  0  0
   -3.8510   25.3020  -30.5970 N   0  0  0  0  0  0  0  0  0  0  0  0
   -5.0930   25.3580  -31.0740 N   0  0  0  0  0  0  0  0  0  0  0  0
   -5.5380   24.0940  -31.1690 C   0  0  0  0  0  0  0  0  0  0  0  0
   -6.7810   23.6580  -31.6190 C   0  0  0  0  0  0  0  0  0  0  0  0
   -7.2670   19.1270  -32.7080 C   0  0  0  0  0  0  0  0  0  0  0  0
   -6.8280   17.9740  -32.0450 C   0  0  0  0  0  0  0  0  0  0  0  0
   -5.7160   17.2720  -32.5160 C   0  0  0  0  0  0  0  0  0  0  0  0
   -5.0360   17.7100  -33.6620 C   0  0  0  0  0  0  0  0  0  0  0  0
   -3.6410   16.8130  -34.2680 S   0  0  0  0  0  0  0  0  0  0  0  0
   -3.5740   15.4780  -33.5810 O   0  0  0  0  0  0  0  0  0  0  0  0
   -3.8120   16.5690  -35.7420 O   0  0  0  0  0  0  0  0  0  0  0  0
   -2.1470   17.6820  -33.9970 N   0  0  0  0  0  0  0  0  0  0  0  0
   -2.3240   19.1410  -34.1630 C   0  0  0  0  0  0  0  0  0  0  0  0
   -2.3470   19.8800  -32.8130 C   0  0  0  0  0  0  0  0  0  0  0  0
   -1.1670   19.6810  -32.0460 O   0  0  0  0  0  0  0  0  0  0  0  0
   -0.5820   18.3940  -32.2130 C   0  0  0  0  0  0  0  0  0  0  0  0
   -1.5670   17.3150  -32.6910 C   0  0  0  0  0  0  0  0  0  0  0  0
   -5.4740   18.8670  -34.3220 C   0  0  0  0  0  0  0  0  0  0  0  0
   -6.5870   19.5690  -33.8510 C   0  0  0  0  0  0  0  0  0  0  0  0
   -9.0110   22.3730  -32.4570 H   0  0  0  0  0  0  0  0  0  0  0  0
   -6.2034   20.2854  -31.2095 H   0  0  0  0  0  0  0  0  0  0  0  0
   -3.9824   21.1615  -30.4082 H   0  0  0  0  0  0  0  0  0  0  0  0
   -2.5453   23.6495  -30.0001 H   0  0  0  0  0  0  0  0  0  0  0  0
   -7.5449   24.3737  -31.9571 H   0  0  0  0  0  0  0  0  0  0  0  0
   -7.3608   17.6200  -31.1501 H   0  0  0  0  0  0  0  0  0  0  0  0
   -5.3720   16.3717  -31.9858 H   0  0  0  0  0  0  0  0  0  0  0  0
   -1.4924   19.5325  -34.7673 H   0  0  0  0  0  0  0  0  0  0  0  0
   -3.2918   19.3102  -34.6577 H   0  0  0  0  0  0  0  0  0  0  0  0
   -2.4613   20.9569  -33.0058 H   0  0  0  0  0  0  0  0  0  0  0  0
   -3.1875   19.4730  -32.2316 H   0  0  0  0  0  0  0  0  0  0  0  0
    0.2273   18.4757  -32.9536 H   0  0  0  0  0  0  0  0  0  0  0  0
   -0.2211   18.0783  -31.2230 H   0  0  0  0  0  0  0  0  0  0  0  0
   -1.0346   16.3573  -32.7883 H   0  0  0  0  0  0  0  0  0  0  0  0
   -2.3796   17.2261  -31.9549 H   0  0  0  0  0  0  0  0  0  0  0  0
   -4.9392   19.2238  -35.2146 H   0  0  0  0  0  0  0  0  0  0  0  0
   -6.9302   20.4710  -34.3789 H   0  0  0  0  0  0  0  0  0  0  0  0
  1  2  2  0
  2  3  2  0
  2  4  1  0
  4  5  1  0
  5  6  1  0
  6  7  2  0
  7  8  1  0
  8  9  2  0
  9 10  1  0
 10 11  1  0
 11 12  2  0
 12 13  1  0
  2 14  1  0
 14 15  2  0
 15 16  1  0
 16 17  2  0
 17 18  1  0
 18 19  2  0
 18 20  2  0
 18 21  1  0
 21 22  1  0
 22 23  1  0
 23 24  1  0
 24 25  1  0
 25 26  1  0
 17 27  1  0
 27 28  2  0
 13  5  2  0
 28 14  1  0
 12  8  1  0
 26 21  1  0
  4 29  1  0
  6 30  1  0
  7 31  1  0
  9 32  1  0
 13 33  1  0
 15 34  1  0
 16 35  1  0
 22 36  1  0
 22 37  1  0
 23 38  1  0
 23 39  1  0
 25 40  1  0
 25 41  1  0
 26 42  1  0
 26 43  1  0
 27 44  1  0
 28 45  1  0
M  CHG  1  10  -1
M  END
>  <UniqueID>  (38) 
38

>  <SMILES>  (38) 
O=S(=O)(Nc1ccc2c[n-]nc2c1)c1ccc(S(=O)(=O)N2CCOCC2)cc1

>  <Energy>  (38) 
100.3448468611085

>  <Genealogy>  (38) 
O=S(=O)(Nc1ccc2c[n-]nc2c1)c1ccc(S(=O)(=O)N2CCOCC2)cc1 (protonated)
O=S(=O)(Nc1ccc2c[n-]nc2c1)c1ccc(S(=O)(=O)N2CCOCC2)cc1 (3D coordinates assigned)
O=S(=O)(Nc1ccc2c[n-]nc2c1)c1ccc(S(=O)(=O)N2CCOCC2)cc1 (nonaromatic ring conformer: 100.3448468611085 kcal/mol)

>  <smiles>  (38) 
O=S(=O)(Nc1ccc2c[nH]nc2c1)c1ccc(S(=O)(=O)N2CCOCC2)cc1

>  <score_type>  (38) 
oracle

>  <origin>  (38) 
adgpu

>  <m_score__min__energy>  (38) 
-11.789999999999999

>  <m_primary>  (38) 
energy

$$$$
38:0
     RDKit          3D

 47 49  0  0  0  0  0  0  0  0999 V2000
   -5.9990   19.4520  -33.8570 C   0  0  0  0  0  0  0  0  0  0  0  0
   -5.7990   20.6320  -32.9500 C   0  0  0  0  0  0  0  0  0  0  0  0
   -6.9040   21.3290  -32.4600 C   0  0  0  0  0  0  0  0  0  0  0  0
   -6.7440   22.4630  -31.6500 C   0  0  0  0  0  0  0  0  0  0  0  0
   -7.9960   23.1410  -31.1560 C   0  0  0  0  0  0  0  0  0  0  0  0
   -5.4370   22.9560  -31.3740 C   0  0  0  0  0  0  0  0  0  0  0  0
   -5.2380   24.4970  -30.4860 S   0  0  0  0  0  0  0  0  0  0  0  0
   -6.5190   25.2740  -30.3600 O   0  0  0  0  0  0  0  0  0  0  0  0
   -4.2340   25.3450  -31.2110 O   0  0  0  0  0  0  0  0  0  0  0  0
   -4.6620   24.1780  -28.8810 N   0  0  0  0  0  0  0  0  0  0  0  0
   -3.4790   23.4270  -28.5710 C   0  0  0  0  0  0  0  0  0  0  0  0
   -3.5440   22.1280  -28.0380 C   0  0  0  0  0  0  0  0  0  0  0  0
   -2.3710   21.4060  -27.7710 C   0  0  0  0  0  0  0  0  0  0  0  0
   -1.1180   21.9730  -28.0780 C   0  0  0  0  0  0  0  0  0  0  0  0
   -1.0560   23.2820  -28.5790 C   0  0  0  0  0  0  0  0  0  0  0  0
   -2.2270   24.0020  -28.8280 C   0  0  0  0  0  0  0  0  0  0  0  0
   -2.1420   25.2900  -29.3450 O   0  0  0  0  0  0  0  0  0  0  0  0
    0.1670   21.2290  -27.7950 C   0  0  0  0  0  0  0  0  0  0  0  0
   -0.0250   19.7710  -27.6760 N   0  0  0  0  0  0  0  0  0  0  0  0
   -0.1730   19.1250  -28.9920 C   0  0  0  0  0  0  0  0  0  0  0  0
   -1.1350   19.4480  -26.7580 C   0  0  0  0  0  0  0  0  0  0  0  0
   -2.4830   19.9990  -27.2490 C   0  0  0  0  0  0  0  0  0  0  0  0
   -4.3140   22.2040  -31.8240 C   0  0  0  0  0  0  0  0  0  0  0  0
   -2.8940   22.5810  -31.4900 C   0  0  0  0  0  0  0  0  0  0  0  0
   -4.5130   21.0720  -32.6310 C   0  0  0  0  0  0  0  0  0  0  0  0
   -6.1525   18.5463  -33.2519 H   0  0  0  0  0  0  0  0  0  0  0  0
   -6.8810   19.6228  -34.4917 H   0  0  0  0  0  0  0  0  0  0  0  0
   -5.1100   19.3226  -34.4917 H   0  0  0  0  0  0  0  0  0  0  0  0
   -7.9172   20.9835  -32.7131 H   0  0  0  0  0  0  0  0  0  0  0  0
   -8.0017   23.1441  -30.0560 H   0  0  0  0  0  0  0  0  0  0  0  0
   -8.0224   24.1767  -31.5257 H   0  0  0  0  0  0  0  0  0  0  0  0
   -8.8778   22.5971  -31.5257 H   0  0  0  0  0  0  0  0  0  0  0  0
   -4.5234   21.6733  -27.8283 H   0  0  0  0  0  0  0  0  0  0  0  0
   -0.0780   23.7449  -28.7772 H   0  0  0  0  0  0  0  0  0  0  0  0
    0.8728   21.4237  -28.6159 H   0  0  0  0  0  0  0  0  0  0  0  0
    0.5504   21.5902  -26.8293 H   0  0  0  0  0  0  0  0  0  0  0  0
   -0.4167   18.0614  -28.8530 H   0  0  0  0  0  0  0  0  0  0  0  0
   -0.9819   19.6163  -29.5527 H   0  0  0  0  0  0  0  0  0  0  0  0
    0.7691   19.2151  -29.5527 H   0  0  0  0  0  0  0  0  0  0  0  0
   -1.2122   18.3544  -26.6687 H   0  0  0  0  0  0  0  0  0  0  0  0
   -0.9147   19.9180  -25.7882 H   0  0  0  0  0  0  0  0  0  0  0  0
   -2.8567   19.3514  -28.0559 H   0  0  0  0  0  0  0  0  0  0  0  0
   -3.1723   20.0128  -26.3918 H   0  0  0  0  0  0  0  0  0  0  0  0
   -2.7706   22.6138  -30.3974 H   0  0  0  0  0  0  0  0  0  0  0  0
   -2.2069   21.8342  -31.9144 H   0  0  0  0  0  0  0  0  0  0  0  0
   -2.6678   23.5703  -31.9144 H   0  0  0  0  0  0  0  0  0  0  0  0
   -3.6417   20.5232  -33.0179 H   0  0  0  0  0  0  0  0  0  0  0  0
  1  2  1  0
  2  3  2  0
  3  4  1  0
  4  5  1  0
  4  6  2  0
  6  7  1  0
  7  8  2  0
  7  9  2  0
  7 10  1  0
 10 11  1  0
 11 12  2  0
 12 13  1  0
 13 14  2  0
 14 15  1  0
 15 16  2  0
 16 17  1  0
 14 18  1  0
 18 19  1  0
 19 20  1  0
 19 21  1  0
 21 22  1  0
  6 23  1  0
 23 24  1  0
 23 25  2  0
 25  2  1  0
 16 11  1  0
 22 13  1  0
  1 26  1  0
  1 27  1  0
  1 28  1  0
  3 29  1  0
  5 30  1  0
  5 31  1  0
  5 32  1  0
 12 33  1  0
 15 34  1  0
 18 35  1  0
 18 36  1  0
 20 37  1  0
 20 38  1  0
 20 39  1  0
 21 40  1  0
 21 41  1  0
 22 42  1  0
 22 43  1  0
 24 44  1  0
 24 45  1  0
 24 46  1  0
 25 47  1  0
M  CHG  2  10  -1  17  -1
M  END
>  <UniqueID>  (39) 
39

>  <SMILES>  (39) 
Cc1cc(C)c(S(=O)(=O)[N-]c2cc3c(cc2[O-])CN(C)CC3)c(C)c1

>  <Energy>  (39) 
61.079721018746966

>  <Genealogy>  (39) 
Cc1cc(C)c(S(=O)(=O)[N-]c2cc3c(cc2[O-])CN(C)CC3)c(C)c1 (protonated)
Cc1cc(C)c(S(=O)(=O)[N-]c2cc3c(cc2[O-])CN(C)CC3)c(C)c1 (3D coordinates assigned)
Cc1cc(C)c(S(=O)(=O)[N-]c2cc3c(cc2[O-])CN(C)CC3)c(C)c1 (nonaromatic ring conformer: 61.079721018746966 kcal/mol)

>  <smiles>  (39) 
Cc1cc(C)c(S(=O)(=O)Nc2cc3c(cc2O)CN(C)CC3)c(C)c1

>  <score_type>  (39) 
oracle

>  <origin>  (39) 
adgpu

>  <m_score__min__energy>  (39) 
-13.01

>  <m_primary>  (39) 
energy

$$$$
39:0
     RDKit          3D

 57 60  0  0  1  0  0  0  0  0999 V2000
   -6.8340   19.7110  -31.9900 C   0  0  0  0  0  0  0  0  0  0  0  0
   -6.9760   21.1960  -32.3310 C   0  0  1  0  0  0  0  0  0  0  0  0
   -7.8280   21.7920  -31.2380 C   0  0  0  0  0  0  0  0  0  0  0  0
   -8.0060   23.2650  -31.5560 C   0  0  2  0  0  0  0  0  0  0  0  0
   -9.3220   23.4160  -32.2860 C   0  0  0  0  0  0  0  0  0  0  0  0
   -6.9100   23.7620  -32.4630 C   0  0  0  0  0  0  0  0  0  0  0  0
   -5.6380   23.2450  -32.1720 N   0  0  0  0  0  0  0  0  0  0  0  0
   -4.7610   23.8240  -30.8570 S   0  0  0  0  0  0  0  0  0  0  0  0
   -5.6080   23.5750  -29.6110 O   0  0  0  0  0  0  0  0  0  0  0  0
   -4.6090   25.3410  -30.8900 O   0  0  0  0  0  0  0  0  0  0  0  0
   -3.2010   23.1370  -30.5800 C   0  0  0  0  0  0  0  0  0  0  0  0
   -2.8910   21.8980  -31.1390 C   0  0  0  0  0  0  0  0  0  0  0  0
   -1.6700   21.2830  -31.0180 C   0  0  0  0  0  0  0  0  0  0  0  0
   -1.3790   19.9830  -31.6170 C   0  0  0  0  0  0  0  0  0  0  0  0
   -2.3060   19.2690  -32.3230 C   0  0  0  0  0  0  0  0  0  0  0  0
   -2.0110   18.0430  -32.8810 C   0  0  0  0  0  0  0  0  0  0  0  0
   -2.8800   17.3960  -33.5320 N   0  0  0  0  0  0  0  0  0  0  0  0
   -4.1910   17.7600  -33.7930 C   0  0  0  0  0  0  0  0  0  0  0  0
   -5.0200   17.8780  -34.9660 C   0  0  0  0  0  0  0  0  0  0  0  0
   -5.4980   17.1980  -33.6490 C   0  0  0  0  0  0  0  0  0  0  0  0
   -0.7820   17.4960  -32.7470 N   0  0  0  0  0  0  0  0  0  0  0  0
    0.1260   18.2020  -32.0510 C   0  0  0  0  0  0  0  0  0  0  0  0
    1.4980   17.6010  -31.8960 C   0  0  0  0  0  0  0  0  0  0  0  0
    1.5420   16.8920  -30.7140 F   0  0  0  0  0  0  0  0  0  0  0  0
    1.8090   16.7900  -32.9760 F   0  0  0  0  0  0  0  0  0  0  0  0
    2.4600   18.5810  -31.8290 F   0  0  0  0  0  0  0  0  0  0  0  0
   -0.1500   19.4090  -31.4970 N   0  0  0  0  0  0  0  0  0  0  0  0
   -0.6990   21.9410  -30.2960 C   0  0  0  0  0  0  0  0  0  0  0  0
   -0.9640   23.1690  -29.7250 C   0  0  0  0  0  0  0  0  0  0  0  0
   -2.1900   23.7470  -29.8670 C   0  0  0  0  0  0  0  0  0  0  0  0
   -2.3910   24.9800  -29.2610 O   0  0  0  0  0  0  0  0  0  0  0  0
   -5.6050   21.7820  -32.2540 C   0  0  0  0  0  0  0  0  0  0  0  0
   -6.8220   19.5852  -30.8973 H   0  0  0  0  0  0  0  0  0  0  0  0
   -7.6830   19.1547  -32.4138 H   0  0  0  0  0  0  0  0  0  0  0  0
   -5.8949   19.3256  -32.4138 H   0  0  0  0  0  0  0  0  0  0  0  0
   -7.4186   21.3773  -33.3216 H   0  0  0  0  0  0  0  0  0  0  0  0
   -8.8075   21.2922  -31.2096 H   0  0  0  0  0  0  0  0  0  0  0  0
   -7.3493   21.6610  -30.2563 H   0  0  0  0  0  0  0  0  0  0  0  0
   -7.9787   23.8434  -30.6207 H   0  0  0  0  0  0  0  0  0  0  0  0
  -10.1383   23.5097  -31.5547 H   0  0  0  0  0  0  0  0  0  0  0  0
   -9.2900   24.3164  -32.9171 H   0  0  0  0  0  0  0  0  0  0  0  0
   -9.4948   22.5318  -32.9171 H   0  0  0  0  0  0  0  0  0  0  0  0
   -7.1661   23.4846  -33.4962 H   0  0  0  0  0  0  0  0  0  0  0  0
   -6.8484   24.8501  -32.3141 H   0  0  0  0  0  0  0  0  0  0  0  0
   -3.6741   21.3809  -31.7130 H   0  0  0  0  0  0  0  0  0  0  0  0
   -3.3167   19.6843  -32.4498 H   0  0  0  0  0  0  0  0  0  0  0  0
   -3.5613   18.4256  -33.1843 H   0  0  0  0  0  0  0  0  0  0  0  0
   -5.4240   18.8554  -35.2686 H   0  0  0  0  0  0  0  0  0  0  0  0
   -4.9442   17.5947  -36.0262 H   0  0  0  0  0  0  0  0  0  0  0  0
   -6.2473   17.6877  -33.0097 H   0  0  0  0  0  0  0  0  0  0  0  0
   -5.9127   16.2185  -33.3684 H   0  0  0  0  0  0  0  0  0  0  0  0
    0.6360   19.8520  -30.9840 H   0  0  0  0  0  0  0  0  0  0  0  0
    0.2943   21.4846  -30.1737 H   0  0  0  0  0  0  0  0  0  0  0  0
   -0.1801   23.6850  -29.1512 H   0  0  0  0  0  0  0  0  0  0  0  0
   -2.9980   25.6700  -29.7200 H   0  0  0  0  0  0  0  0  0  0  0  0
   -5.0424   21.4891  -33.1527 H   0  0  0  0  0  0  0  0  0  0  0  0
   -5.1229   21.4009  -31.3416 H   0  0  0  0  0  0  0  0  0  0  0  0
  1  2  1  0
  2  3  1  0
  3  4  1  0
  4  5  1  0
  4  6  1  0
  6  7  1  0
  7  8  1  0
  8  9  2  0
  8 10  2  0
  8 11  1  0
 11 12  2  0
 12 13  1  0
 13 14  1  0
 14 15  2  0
 15 16  1  0
 16 17  2  0
 17 18  1  0
 18 19  1  0
 19 20  1  0
 16 21  1  0
 21 22  2  0
 22 23  1  0
 23 24  1  0
 23 25  1  0
 23 26  1  0
 22 27  1  0
 13 28  2  0
 28 29  1  0
 29 30  2  0
 30 31  1  0
  7 32  1  0
 32  2  1  0
 30 11  1  0
 27 14  1  0
 20 18  1  0
  1 33  1  0
  1 34  1  0
  1 35  1  0
  2 36  1  6
  3 37  1  0
  3 38  1  0
  4 39  1  1
  5 40  1  0
  5 41  1  0
  5 42  1  0
  6 43  1  0
  6 44  1  0
 12 45  1  0
 15 46  1  0
 18 47  1  0
 19 48  1  0
 19 49  1  0
 20 50  1  0
 20 51  1  0
 27 52  1  0
 28 53  1  0
 29 54  1  0
 31 55  1  0
 32 56  1  0
 32 57  1  0
M  END
>  <smiles>  (40) 
CC1CC(C)CN(S(=O)(=O)c2cc(-c3cc(=NC4CC4)nc(C(F)(F)F)[nH]3)ccc2O)C1

>  <score_type>  (40) 
oracle

>  <origin>  (40) 
adgpu

>  <m_score__min__energy>  (40) 
-10.130000000000001

>  <m_primary>  (40) 
energy

$$$$
40:0
     RDKit          3D

 63 66  0  0  0  0  0  0  0  0999 V2000
   -3.0830   20.3270  -33.4680 C   0  0  0  0  0  0  0  0  0  0  0  0
   -4.0420   19.3020  -33.0280 N   0  0  0  0  0  0  0  0  0  0  0  0
   -5.0330   18.9950  -34.0920 C   0  0  0  0  0  0  0  0  0  0  0  0
   -6.4030   19.6270  -33.8140 C   0  0  0  0  0  0  0  0  0  0  0  0
   -6.9680   19.1360  -32.5400 N   0  0  0  0  0  0  0  0  0  0  0  0
   -8.2160   20.2250  -31.9850 S   0  0  0  0  0  0  0  0  0  0  0  0
   -9.2260   20.4390  -33.0780 O   0  0  0  0  0  0  0  0  0  0  0  0
   -8.9190   19.6370  -30.7920 O   0  0  0  0  0  0  0  0  0  0  0  0
   -7.5090   21.7820  -31.5580 C   0  0  0  0  0  0  0  0  0  0  0  0
   -7.5190   22.2320  -30.2300 C   0  0  0  0  0  0  0  0  0  0  0  0
   -6.9390   23.4590  -29.8990 C   0  0  0  0  0  0  0  0  0  0  0  0
   -6.3510   24.2560  -30.8950 C   0  0  0  0  0  0  0  0  0  0  0  0
   -5.6950   25.5580  -30.5340 C   0  0  0  0  0  0  0  0  0  0  0  0
   -4.2490   25.3900  -30.5420 N   0  0  0  0  0  0  0  0  0  0  0  0
   -3.6150   24.1190  -30.3840 C   0  0  0  0  0  0  0  0  0  0  0  0
   -3.4530   23.3660  -31.3840 O   0  0  0  0  0  0  0  0  0  0  0  0
   -3.2110   23.6950  -29.0750 N   0  0  0  0  0  0  0  0  0  0  0  0
   -2.4210   22.5230  -28.8080 C   0  0  0  0  0  0  0  0  0  0  0  0
   -1.1060   22.4550  -29.2910 C   0  0  0  0  0  0  0  0  0  0  0  0
   -0.3230   21.3190  -29.0650 C   0  0  0  0  0  0  0  0  0  0  0  0
   -0.8510   20.2310  -28.3590 C   0  0  0  0  0  0  0  0  0  0  0  0
    0.1230   18.7890  -28.0970 S   0  0  0  0  0  0  0  0  0  0  0  0
    1.4840   19.1750  -27.5890 O   0  0  0  0  0  0  0  0  0  0  0  0
   -0.5280   17.9110  -27.0650 O   0  0  0  0  0  0  0  0  0  0  0  0
    0.2720   17.9130  -29.6160 C   0  0  0  0  0  0  0  0  0  0  0  0
   -0.0950   18.5240  -30.8250 C   0  0  0  0  0  0  0  0  0  0  0  0
    0.0080   17.8170  -32.0270 C   0  0  0  0  0  0  0  0  0  0  0  0
    0.4700   16.4970  -32.0270 C   0  0  0  0  0  0  0  0  0  0  0  0
    0.8260   15.8820  -30.8240 C   0  0  0  0  0  0  0  0  0  0  0  0
    0.7250   16.5860  -29.6200 C   0  0  0  0  0  0  0  0  0  0  0  0
   -2.1740   20.2780  -27.9030 C   0  0  0  0  0  0  0  0  0  0  0  0
   -2.9570   21.4140  -28.1270 C   0  0  0  0  0  0  0  0  0  0  0  0
   -6.3220   23.7930  -32.2190 C   0  0  0  0  0  0  0  0  0  0  0  0
   -6.9020   22.5640  -32.5490 C   0  0  0  0  0  0  0  0  0  0  0  0
   -5.9520   18.9110  -31.4840 C   0  0  0  0  0  0  0  0  0  0  0  0
   -4.6560   19.6920  -31.7390 C   0  0  0  0  0  0  0  0  0  0  0  0
   -2.6320   20.8090  -32.5881 H   0  0  0  0  0  0  0  0  0  0  0  0
   -2.2941   19.8556  -34.0725 H   0  0  0  0  0  0  0  0  0  0  0  0
   -3.6058   21.0829  -34.0725 H   0  0  0  0  0  0  0  0  0  0  0  0
   -4.6538   19.3804  -35.0500 H   0  0  0  0  0  0  0  0  0  0  0  0
   -5.1665   17.9035  -34.1216 H   0  0  0  0  0  0  0  0  0  0  0  0
   -6.2898   20.7198  -33.7591 H   0  0  0  0  0  0  0  0  0  0  0  0
   -7.0873   19.3491  -34.6292 H   0  0  0  0  0  0  0  0  0  0  0  0
   -7.9851   21.6168  -29.4462 H   0  0  0  0  0  0  0  0  0  0  0  0
   -6.9428   23.8025  -28.8540 H   0  0  0  0  0  0  0  0  0  0  0  0
   -5.9790   26.3276  -31.2669 H   0  0  0  0  0  0  0  0  0  0  0  0
   -6.0230   25.8688  -29.5311 H   0  0  0  0  0  0  0  0  0  0  0  0
   -3.5890   24.2310  -28.2600 H   0  0  0  0  0  0  0  0  0  0  0  0
   -0.6870   23.3030  -29.8526 H   0  0  0  0  0  0  0  0  0  0  0  0
    0.7095   21.2798  -29.4424 H   0  0  0  0  0  0  0  0  0  0  0  0
   -0.4641   19.5602  -30.8270 H   0  0  0  0  0  0  0  0  0  0  0  0
   -0.2748   18.2998  -32.9741 H   0  0  0  0  0  0  0  0  0  0  0  0
    0.5531   15.9431  -32.9738 H   0  0  0  0  0  0  0  0  0  0  0  0
    1.1862   14.8426  -30.8240 H   0  0  0  0  0  0  0  0  0  0  0  0
    1.0015   16.0977  -28.6739 H   0  0  0  0  0  0  0  0  0  0  0  0
   -2.5991   19.4171  -27.3661 H   0  0  0  0  0  0  0  0  0  0  0  0
   -3.9969   21.4414  -27.7694 H   0  0  0  0  0  0  0  0  0  0  0  0
   -5.8410   24.3992  -33.0008 H   0  0  0  0  0  0  0  0  0  0  0  0
   -6.8815   22.2102  -33.5903 H   0  0  0  0  0  0  0  0  0  0  0  0
   -6.3711   19.2289  -30.5179 H   0  0  0  0  0  0  0  0  0  0  0  0
   -5.7020   17.8398  -31.4838 H   0  0  0  0  0  0  0  0  0  0  0  0
   -4.8837   20.7680  -31.7608 H   0  0  0  0  0  0  0  0  0  0  0  0
   -3.9458   19.4626  -30.9309 H   0  0  0  0  0  0  0  0  0  0  0  0
  1  2  1  0
  2  3  1  0
  3  4  1  0
  4  5  1  0
  5  6  1  0
  6  7  2  0
  6  8  2  0
  6  9  1  0
  9 10  2  0
 10 11  1  0
 11 12  2  0
 12 13  1  0
 13 14  1  0
 14 15  1  0
 15 16  2  0
 15 17  1  0
 17 18  1  0
 18 19  2  0
 19 20  1  0
 20 21  2  0
 21 22  1  0
 22 23  2  0
 22 24  2  0
 22 25  1  0
 25 26  2  0
 26 27  1  0
 27 28  2  0
 28 29  1  0
 29 30  2  0
 21 31  1  0
 31 32  2  0
 12 33  1  0
 33 34  2  0
  5 35  1  0
 35 36  1  0
 36  2  1  0
 34  9  1  0
 32 18  1  0
 30 25  1  0
  1 37  1  0
  1 38  1  0
  1 39  1  0
  3 40  1  0
  3 41  1  0
  4 42  1  0
  4 43  1  0
 10 44  1  0
 11 45  1  0
 13 46  1  0
 13 47  1  0
 17 48  1  0
 19 49  1  0
 20 50  1  0
 26 51  1  0
 27 52  1  0
 28 53  1  0
 29 54  1  0
 30 55  1  0
 31 56  1  0
 32 57  1  0
 33 58  1  0
 34 59  1  0
 35 60  1  0
 35 61  1  0
 36 62  1  0
 36 63  1  0
M  CHG  1  14  -1
M  END
>  <UniqueID>  (41) 
40

>  <SMILES>  (41) 
CN1CCN(S(=O)(=O)c2ccc(C[N-]C(=O)Nc3ccc(S(=O)(=O)c4ccccc4)cc3)cc2)CC1

>  <Energy>  (41) 
78.48623977079565

>  <Genealogy>  (41) 
CN1CCN(S(=O)(=O)c2ccc(C[N-]C(=O)Nc3ccc(S(=O)(=O)c4ccccc4)cc3)cc2)CC1 (protonated)
CN1CCN(S(=O)(=O)c2ccc(C[N-]C(=O)Nc3ccc(S(=O)(=O)c4ccccc4)cc3)cc2)CC1 (3D coordinates assigned)
CN1CCN(S(=O)(=O)c2ccc(C[N-]C(=O)Nc3ccc(S(=O)(=O)c4ccccc4)cc3)cc2)CC1 (nonaromatic ring conformer: 78.48623977079565 kcal/mol)

>  <smiles>  (41) 
CN1CCN(S(=O)(=O)c2ccc(CNC(=O)Nc3ccc(S(=O)(=O)c4ccccc4)cc3)cc2)CC1

>  <score_type>  (41) 
oracle

>  <origin>  (41) 
adgpu

>  <m_score__min__energy>  (41) 
-11.92

>  <m_primary>  (41) 
energy

$$$$
41:0
     RDKit          3D

 65 69  0  0  0  0  0  0  0  0999 V2000
    0.6320   20.4510  -32.1440 C   0  0  0  0  0  0  0  0  0  0  0  0
   -0.7310   20.0260  -32.5710 C   0  0  0  0  0  0  0  0  0  0  0  0
   -1.1850   18.7560  -32.4570 N   0  0  0  0  0  0  0  0  0  0  0  0
   -2.4130   18.5960  -32.9440 N   0  0  0  0  0  0  0  0  0  0  0  0
   -2.9390   19.7340  -33.4570 C   0  0  0  0  0  0  0  0  0  0  0  0
   -4.1200   19.8380  -33.9850 N   0  0  0  0  0  0  0  0  0  0  0  0
   -5.2530   18.5330  -34.1360 S   0  0  0  0  0  0  0  0  0  0  0  0
   -4.5620   17.2410  -33.8040 O   0  0  0  0  0  0  0  0  0  0  0  0
   -5.7440   18.4640  -35.5560 O   0  0  0  0  0  0  0  0  0  0  0  0
   -6.5910   18.7640  -33.0160 C   0  0  0  0  0  0  0  0  0  0  0  0
   -7.2750   17.6510  -32.5150 C   0  0  0  0  0  0  0  0  0  0  0  0
   -8.3440   17.8220  -31.6310 C   0  0  0  0  0  0  0  0  0  0  0  0
   -8.7310   19.1060  -31.2390 C   0  0  0  0  0  0  0  0  0  0  0  0
   -8.0460   20.2270  -31.7280 C   0  0  0  0  0  0  0  0  0  0  0  0
   -8.5270   21.8480  -31.2410 S   0  0  0  0  0  0  0  0  0  0  0  0
   -9.3130   21.7850  -29.9610 O   0  0  0  0  0  0  0  0  0  0  0  0
   -9.4070   22.4590  -32.2980 O   0  0  0  0  0  0  0  0  0  0  0  0
   -7.0910   22.8370  -31.0070 C   0  0  0  0  0  0  0  0  0  0  0  0
   -7.1140   24.1950  -31.3500 C   0  0  0  0  0  0  0  0  0  0  0  0
   -5.9750   24.9850  -31.1720 C   0  0  0  0  0  0  0  0  0  0  0  0
   -4.8090   24.4240  -30.6410 C   0  0  0  0  0  0  0  0  0  0  0  0
   -4.7820   23.0710  -30.2780 C   0  0  0  0  0  0  0  0  0  0  0  0
   -3.3060   22.3570  -29.6380 S   0  0  0  0  0  0  0  0  0  0  0  0
   -3.6110   21.0360  -28.9880 O   0  0  0  0  0  0  0  0  0  0  0  0
   -2.3330   22.1140  -30.7580 O   0  0  0  0  0  0  0  0  0  0  0  0
   -2.6060   23.4550  -28.4550 C   0  0  0  0  0  0  0  0  0  0  0  0
   -1.2450   23.7750  -28.5060 C   0  0  0  0  0  0  0  0  0  0  0  0
   -0.6970   24.6720  -27.5850 C   0  0  0  0  0  0  0  0  0  0  0  0
   -1.5050   25.2710  -26.6000 C   0  0  0  0  0  0  0  0  0  0  0  0
   -0.9420   26.2060  -25.6530 N   0  0  0  0  0  0  0  0  0  0  0  0
   -0.8020   25.8470  -24.2350 C   0  0  0  0  0  0  0  0  0  0  0  0
    0.3810   26.6010  -23.6130 C   0  0  0  0  0  0  0  0  0  0  0  0
    0.3120   28.0660  -23.7930 N   0  0  0  0  0  0  0  0  0  0  0  0
   -0.5550   28.5180  -24.8960 C   0  0  0  0  0  0  0  0  0  0  0  0
   -0.5360   27.5510  -26.0850 C   0  0  0  0  0  0  0  0  0  0  0  0
   -2.8740   24.9440  -26.5580 C   0  0  0  0  0  0  0  0  0  0  0  0
   -3.4180   24.0470  -27.4810 C   0  0  0  0  0  0  0  0  0  0  0  0
   -5.9230   22.2790  -30.4650 C   0  0  0  0  0  0  0  0  0  0  0  0
   -6.9810   20.0530  -32.6230 C   0  0  0  0  0  0  0  0  0  0  0  0
   -1.8640   21.0220  -33.3250 S   0  0  0  0  0  0  0  0  0  0  0  0
    0.6837   20.4671  -31.0453 H   0  0  0  0  0  0  0  0  0  0  0  0
    1.3766   19.7424  -32.5357 H   0  0  0  0  0  0  0  0  0  0  0  0
    0.8419   21.4572  -32.5357 H   0  0  0  0  0  0  0  0  0  0  0  0
   -2.8920   17.6700  -32.9220 H   0  0  0  0  0  0  0  0  0  0  0  0
   -6.9705   16.6383  -32.8178 H   0  0  0  0  0  0  0  0  0  0  0  0
   -8.8816   16.9441  -31.2432 H   0  0  0  0  0  0  0  0  0  0  0  0
   -9.5746   19.2375  -30.5455 H   0  0  0  0  0  0  0  0  0  0  0  0
   -8.0317   24.6411  -31.7609 H   0  0  0  0  0  0  0  0  0  0  0  0
   -5.9955   26.0491  -31.4498 H   0  0  0  0  0  0  0  0  0  0  0  0
   -3.9116   25.0461  -30.5081 H   0  0  0  0  0  0  0  0  0  0  0  0
   -0.6035   23.3186  -29.2743 H   0  0  0  0  0  0  0  0  0  0  0  0
    0.3755   24.9122  -27.6301 H   0  0  0  0  0  0  0  0  0  0  0  0
   -1.7251   26.1137  -23.6996 H   0  0  0  0  0  0  0  0  0  0  0  0
   -0.6210   24.7650  -24.1543 H   0  0  0  0  0  0  0  0  0  0  0  0
    0.4029   26.3842  -22.5348 H   0  0  0  0  0  0  0  0  0  0  0  0
    1.2893   26.2560  -24.1288 H   0  0  0  0  0  0  0  0  0  0  0  0
   -0.0420   28.4980  -22.9080 H   0  0  0  0  0  0  0  0  0  0  0  0
   -1.5868   28.6006  -24.5237 H   0  0  0  0  0  0  0  0  0  0  0  0
   -0.1751   29.4891  -25.2461 H   0  0  0  0  0  0  0  0  0  0  0  0
   -1.2327   27.9104  -26.8566 H   0  0  0  0  0  0  0  0  0  0  0  0
    0.4846   27.5039  -26.4926 H   0  0  0  0  0  0  0  0  0  0  0  0
   -3.5203   25.3983  -25.7925 H   0  0  0  0  0  0  0  0  0  0  0  0
   -4.4903   23.8049  -27.4418 H   0  0  0  0  0  0  0  0  0  0  0  0
   -5.9029   21.2152  -30.1857 H   0  0  0  0  0  0  0  0  0  0  0  0
   -6.4490   20.9307  -33.0187 H   0  0  0  0  0  0  0  0  0  0  0  0
  1  2  1  0
  2  3  2  0
  3  4  1  0
  4  5  1  0
  5  6  2  3
  6  7  1  0
  7  8  2  0
  7  9  2  0
  7 10  1  0
 10 11  2  0
 11 12  1  0
 12 13  2  0
 13 14  1  0
 14 15  1  0
 15 16  2  0
 15 17  2  0
 15 18  1  0
 18 19  2  0
 19 20  1  0
 20 21  2  0
 21 22  1  0
 22 23  1  0
 23 24  2  0
 23 25  2  0
 23 26  1  0
 26 27  2  0
 27 28  1  0
 28 29  2  0
 29 30  1  0
 30 31  1  0
 31 32  1  0
 32 33  1  0
 33 34  1  0
 34 35  1  0
 29 36  1  0
 36 37  2  0
 22 38  2  0
 14 39  2  0
  5 40  1  0
 40  2  1  0
 39 10  1  0
 38 18  1  0
 37 26  1  0
 35 30  1  0
  1 41  1  0
  1 42  1  0
  1 43  1  0
  4 44  1  0
 11 45  1  0
 12 46  1  0
 13 47  1  0
 19 48  1  0
 20 49  1  0
 21 50  1  0
 27 51  1  0
 28 52  1  0
 31 53  1  0
 31 54  1  0
 32 55  1  0
 32 56  1  0
 33 57  1  0
 34 58  1  0
 34 59  1  0
 35 60  1  0
 35 61  1  0
 36 62  1  0
 37 63  1  0
 38 64  1  0
 39 65  1  0
M  END
>  <UniqueID>  (42) 
41

>  <SMILES>  (42) 
Cc1n[nH]c(=NS(=O)(=O)c2cccc(S(=O)(=O)c3cccc(S(=O)(=O)c4ccc(N5CCNCC5)cc4)c3)c2)s1

>  <Energy>  (42) 
117.19442979008053

>  <Genealogy>  (42) 
Cc1n[nH]c(=NS(=O)(=O)c2cccc(S(=O)(=O)c3cccc(S(=O)(=O)c4ccc(N5CCNCC5)cc4)c3)c2)s1 (3D coordinates assigned)
Cc1n[nH]c(=NS(=O)(=O)c2cccc(S(=O)(=O)c3cccc(S(=O)(=O)c4ccc(N5CCNCC5)cc4)c3)c2)s1 (nonaromatic ring conformer: 117.19442979008053 kcal/mol)

>  <smiles>  (42) 
Cc1n[nH]c(=NS(=O)(=O)c2cccc(S(=O)(=O)c3cccc(S(=O)(=O)c4ccc(N5CCNCC5)cc4)c3)c2)s1

>  <score_type>  (42) 
oracle

>  <origin>  (42) 
adgpu

>  <m_score__min__energy>  (42) 
-11.58

>  <m_primary>  (42) 
energy

$$$$
42:0
     RDKit          3D

 44 46  0  0  0  0  0  0  0  0999 V2000
   -2.2480   22.5660  -31.2640 O   0  0  0  0  0  0  0  0  0  0  0  0
   -3.1400   22.4360  -30.3850 C   0  0  0  0  0  0  0  0  0  0  0  0
   -2.8250   21.7320  -29.1760 N   0  0  0  0  0  0  0  0  0  0  0  0
   -1.6110   21.9060  -28.3790 C   0  0  0  0  0  0  0  0  0  0  0  0
   -1.5340   23.2990  -27.8080 C   0  0  0  0  0  0  0  0  0  0  0  0
   -1.5230   23.4910  -26.4170 C   0  0  0  0  0  0  0  0  0  0  0  0
   -1.4120   24.7780  -25.8850 C   0  0  0  0  0  0  0  0  0  0  0  0
   -1.3150   25.8880  -26.7320 C   0  0  0  0  0  0  0  0  0  0  0  0
   -1.2010   27.1610  -26.1750 O   0  0  0  0  0  0  0  0  0  0  0  0
   -1.3360   25.7020  -28.1250 C   0  0  0  0  0  0  0  0  0  0  0  0
   -1.2400   26.7920  -28.9830 O   0  0  0  0  0  0  0  0  0  0  0  0
   -1.4530   24.4140  -28.6560 C   0  0  0  0  0  0  0  0  0  0  0  0
   -4.4630   23.0490  -30.6090 C   0  0  0  0  0  0  0  0  0  0  0  0
   -5.5950   22.2380  -30.7760 C   0  0  0  0  0  0  0  0  0  0  0  0
   -6.8610   22.8120  -30.9440 C   0  0  0  0  0  0  0  0  0  0  0  0
   -8.2730   21.7740  -31.1120 S   0  0  0  0  0  0  0  0  0  0  0  0
   -9.1080   21.8860  -29.8680 O   0  0  0  0  0  0  0  0  0  0  0  0
   -9.0930   22.2120  -32.2960 O   0  0  0  0  0  0  0  0  0  0  0  0
   -7.7570   20.1210  -31.3230 N   0  0  0  0  0  0  0  0  0  0  0  0
   -6.9260   19.9700  -32.5180 C   0  0  0  0  0  0  0  0  0  0  0  0
   -7.1100   18.5390  -32.9990 C   0  0  0  0  0  0  0  0  0  0  0  0
   -8.3850   18.0480  -32.3330 C   0  0  0  0  0  0  0  0  0  0  0  0
   -8.8980   19.2290  -31.5250 C   0  0  0  0  0  0  0  0  0  0  0  0
   -6.9950   24.2060  -30.9560 C   0  0  0  0  0  0  0  0  0  0  0  0
   -5.8680   25.0190  -30.8120 C   0  0  0  0  0  0  0  0  0  0  0  0
   -4.6030   24.4480  -30.6400 C   0  0  0  0  0  0  0  0  0  0  0  0
   -3.4980   25.2750  -30.4800 O   0  0  0  0  0  0  0  0  0  0  0  0
   -1.6153   21.1788  -27.5537 H   0  0  0  0  0  0  0  0  0  0  0  0
   -0.7388   21.7456  -29.0298 H   0  0  0  0  0  0  0  0  0  0  0  0
   -1.6021   22.6247  -25.7437 H   0  0  0  0  0  0  0  0  0  0  0  0
   -1.4008   24.9198  -24.7942 H   0  0  0  0  0  0  0  0  0  0  0  0
   -1.1610   27.9960  -26.7470 H   0  0  0  0  0  0  0  0  0  0  0  0
   -1.4818   24.2737  -29.7466 H   0  0  0  0  0  0  0  0  0  0  0  0
   -5.4875   21.1433  -30.7750 H   0  0  0  0  0  0  0  0  0  0  0  0
   -7.2495   20.6764  -33.2967 H   0  0  0  0  0  0  0  0  0  0  0  0
   -5.8696   20.1802  -32.2950 H   0  0  0  0  0  0  0  0  0  0  0  0
   -7.2129   18.5116  -34.0938 H   0  0  0  0  0  0  0  0  0  0  0  0
   -6.2463   17.9079  -32.7426 H   0  0  0  0  0  0  0  0  0  0  0  0
   -9.1246   17.7494  -33.0905 H   0  0  0  0  0  0  0  0  0  0  0  0
   -8.2031   17.1670  -31.7000 H   0  0  0  0  0  0  0  0  0  0  0  0
   -9.6944   19.7497  -32.0769 H   0  0  0  0  0  0  0  0  0  0  0  0
   -9.3206   18.9000  -30.5642 H   0  0  0  0  0  0  0  0  0  0  0  0
   -7.9888   24.6613  -31.0789 H   0  0  0  0  0  0  0  0  0  0  0  0
   -5.9761   26.1134  -30.8340 H   0  0  0  0  0  0  0  0  0  0  0  0
  1  2  2  0
  2  3  1  0
  3  4  1  0
  4  5  1  0
  5  6  2  0
  6  7  1  0
  7  8  2  0
  8  9  1  0
  8 10  1  0
 10 11  1  0
 10 12  2  0
  2 13  1  0
 13 14  2  0
 14 15  1  0
 15 16  1  0
 16 17  2  0
 16 18  2  0
 16 19  1  0
 19 20  1  0
 20 21  1  0
 21 22  1  0
 22 23  1  0
 15 24  2  0
 24 25  1  0
 25 26  2  0
 26 27  1  0
 12  5  1  0
 26 13  1  0
 23 19  1  0
  4 28  1  0
  4 29  1  0
  6 30  1  0
  7 31  1  0
  9 32  1  0
 12 33  1  0
 14 34  1  0
 20 35  1  0
 20 36  1  0
 21 37  1  0
 21 38  1  0
 22 39  1  0
 22 40  1  0
 23 41  1  0
 23 42  1  0
 24 43  1  0
 25 44  1  0
M  CHG  3   3  -1  11  -1  27  -1
M  END
>  <UniqueID>  (43) 
42

>  <SMILES>  (43) 
O=C([N-]Cc1ccc(O)c([O-])c1)c1cc(S(=O)(=O)N2CCCC2)ccc1[O-]

>  <Energy>  (43) 
48.0496895595768

>  <Genealogy>  (43) 
O=C([N-]Cc1ccc(O)c([O-])c1)c1cc(S(=O)(=O)N2CCCC2)ccc1[O-] (protonated)
O=C([N-]Cc1ccc(O)c([O-])c1)c1cc(S(=O)(=O)N2CCCC2)ccc1[O-] (3D coordinates assigned)
O=C([N-]Cc1ccc(O)c([O-])c1)c1cc(S(=O)(=O)N2CCCC2)ccc1[O-] (nonaromatic ring conformer: 48.0496895595768 kcal/mol)

>  <smiles>  (43) 
O=C(NCc1ccc(O)c(O)c1)c1cc(S(=O)(=O)N2CCCC2)ccc1O

>  <score_type>  (43) 
oracle

>  <origin>  (43) 
adgpu

>  <m_score__min__energy>  (43) 
-14.199999999999999

>  <m_primary>  (43) 
energy

$$$$
43:0
     RDKit          3D

 43 46  0  0  0  0  0  0  0  0999 V2000
   -9.4540   19.1230  -31.9920 C   0  0  0  0  0  0  0  0  0  0  0  0
   -8.2280   19.9140  -31.9400 N   0  0  0  0  0  0  0  0  0  0  0  0
   -8.1390   21.2530  -31.7930 C   0  0  0  0  0  0  0  0  0  0  0  0
   -6.8080   21.6550  -31.8290 C   0  0  0  0  0  0  0  0  0  0  0  0
   -6.2830   23.3160  -31.5670 S   0  0  0  0  0  0  0  0  0  0  0  0
   -5.7160   23.8550  -32.8490 O   0  0  0  0  0  0  0  0  0  0  0  0
   -7.4760   24.1480  -31.1900 O   0  0  0  0  0  0  0  0  0  0  0  0
   -5.1190   23.4330  -30.2530 C   0  0  0  0  0  0  0  0  0  0  0  0
   -5.2960   22.6730  -29.0890 C   0  0  0  0  0  0  0  0  0  0  0  0
   -4.3900   22.7870  -28.0290 C   0  0  0  0  0  0  0  0  0  0  0  0
   -3.3080   23.6670  -28.1260 C   0  0  0  0  0  0  0  0  0  0  0  0
   -3.1340   24.4390  -29.2790 C   0  0  0  0  0  0  0  0  0  0  0  0
   -2.0880   25.2950  -29.3700 F   0  0  0  0  0  0  0  0  0  0  0  0
   -4.0390   24.3250  -30.3400 C   0  0  0  0  0  0  0  0  0  0  0  0
   -6.0580   20.4950  -32.0330 C   0  0  0  0  0  0  0  0  0  0  0  0
   -4.6910   20.1930  -32.1480 C   0  0  0  0  0  0  0  0  0  0  0  0
   -3.6620   21.1950  -32.1580 N   0  0  0  0  0  0  0  0  0  0  0  0
   -3.0800   21.6070  -33.4440 C   0  0  0  0  0  0  0  0  0  0  0  0
   -1.5700   21.3350  -33.4930 C   0  0  0  0  0  0  0  0  0  0  0  0
   -1.1490   19.7970  -32.6080 S   0  0  0  0  0  0  0  0  0  0  0  0
   -1.6610   20.3810  -30.9410 C   0  0  0  0  0  0  0  0  0  0  0  0
   -2.8450   21.3650  -30.9530 C   0  0  0  0  0  0  0  0  0  0  0  0
   -4.3430   18.8800  -32.2950 N   0  0  0  0  0  0  0  0  0  0  0  0
   -5.2760   17.8830  -32.3390 C   0  0  0  0  0  0  0  0  0  0  0  0
   -6.6020   18.1760  -32.2390 N   0  0  0  0  0  0  0  0  0  0  0  0
   -6.9700   19.4710  -32.0870 C   0  0  0  0  0  0  0  0  0  0  0  0
   -9.7929   18.9043  -30.9686 H   0  0  0  0  0  0  0  0  0  0  0  0
  -10.2333   19.6891  -32.5233 H   0  0  0  0  0  0  0  0  0  0  0  0
   -9.2595   18.1797  -32.5233 H   0  0  0  0  0  0  0  0  0  0  0  0
   -8.9966   21.9295  -31.6633 H   0  0  0  0  0  0  0  0  0  0  0  0
   -6.1501   21.9845  -29.0085 H   0  0  0  0  0  0  0  0  0  0  0  0
   -4.5290   22.1843  -27.1194 H   0  0  0  0  0  0  0  0  0  0  0  0
   -2.5928   23.7522  -27.2946 H   0  0  0  0  0  0  0  0  0  0  0  0
   -3.9036   24.9361  -31.2446 H   0  0  0  0  0  0  0  0  0  0  0  0
   -3.5703   21.0467  -34.2537 H   0  0  0  0  0  0  0  0  0  0  0  0
   -3.2391   22.6889  -33.5632 H   0  0  0  0  0  0  0  0  0  0  0  0
   -1.2558   21.2424  -34.5431 H   0  0  0  0  0  0  0  0  0  0  0  0
   -1.0489   22.1719  -33.0051 H   0  0  0  0  0  0  0  0  0  0  0  0
   -1.9471   19.5044  -30.3412 H   0  0  0  0  0  0  0  0  0  0  0  0
   -0.8027   20.9244  -30.5191 H   0  0  0  0  0  0  0  0  0  0  0  0
   -3.4708   21.1845  -30.0666 H   0  0  0  0  0  0  0  0  0  0  0  0
   -2.4465   22.3902  -30.9436 H   0  0  0  0  0  0  0  0  0  0  0  0
   -4.9542   16.8376  -32.4559 H   0  0  0  0  0  0  0  0  0  0  0  0
  1  2  1  0
  2  3  1  0
  3  4  2  0
  4  5  1  0
  5  6  2  0
  5  7  2  0
  5  8  1  0
  8  9  2  0
  9 10  1  0
 10 11  2  0
 11 12  1  0
 12 13  1  0
 12 14  2  0
  4 15  1  0
 15 16  2  0
 16 17  1  0
 17 18  1  0
 18 19  1  0
 19 20  1  0
 20 21  1  0
 21 22  1  0
 16 23  1  0
 23 24  2  0
 24 25  1  0
 25 26  2  0
 26  2  1  0
 14  8  1  0
 26 15  1  0
 22 17  1  0
  1 27  1  0
  1 28  1  0
  1 29  1  0
  3 30  1  0
  9 31  1  0
 10 32  1  0
 11 33  1  0
 14 34  1  0
 18 35  1  0
 18 36  1  0
 19 37  1  0
 19 38  1  0
 21 39  1  0
 21 40  1  0
 22 41  1  0
 22 42  1  0
 24 43  1  0
M  END
>  <UniqueID>  (44) 
43

>  <SMILES>  (44) 
Cn1cc(S(=O)(=O)c2cccc(F)c2)c2c(N3CCSCC3)ncnc21

>  <Energy>  (44) 
92.06103548119988

>  <Genealogy>  (44) 
Cn1cc(S(=O)(=O)c2cccc(F)c2)c2c(N3CCSCC3)ncnc21 (3D coordinates assigned)
Cn1cc(S(=O)(=O)c2cccc(F)c2)c2c(N3CCSCC3)ncnc21 (nonaromatic ring conformer: 92.06103548119988 kcal/mol)

>  <smiles>  (44) 
Cn1cc(S(=O)(=O)c2cccc(F)c2)c2c(N3CCSCC3)ncnc21

>  <score_type>  (44) 
oracle

>  <origin>  (44) 
adgpu

>  <m_score__min__energy>  (44) 
-7.5899999999999999

>  <m_primary>  (44) 
energy

$$$$
44:0
     RDKit          3D

 48 51  0  0  0  0  0  0  0  0999 V2000
   -2.0090   25.2740  -29.3570 O   0  0  0  0  0  0  0  0  0  0  0  0
   -3.0750   24.6080  -29.4390 C   0  0  0  0  0  0  0  0  0  0  0  0
   -3.4460   23.7480  -28.3990 C   0  0  0  0  0  0  0  0  0  0  0  0
   -4.6310   23.0160  -28.5040 C   0  0  0  0  0  0  0  0  0  0  0  0
   -5.4330   23.1480  -29.6450 C   0  0  0  0  0  0  0  0  0  0  0  0
   -6.6250   22.4250  -29.7860 C   0  0  0  0  0  0  0  0  0  0  0  0
   -7.4120   22.5810  -30.9370 C   0  0  0  0  0  0  0  0  0  0  0  0
   -8.9150   21.6760  -31.0980 S   0  0  0  0  0  0  0  0  0  0  0  0
   -9.6140   22.1220  -32.3500 O   0  0  0  0  0  0  0  0  0  0  0  0
   -9.8150   21.9250  -29.9200 O   0  0  0  0  0  0  0  0  0  0  0  0
   -8.5780   19.9760  -31.2050 N   0  0  0  0  0  0  0  0  0  0  0  0
   -7.5070   19.4170  -31.9880 C   0  0  0  0  0  0  0  0  0  0  0  0
   -6.2240   19.9970  -32.0200 C   0  0  0  0  0  0  0  0  0  0  0  0
   -5.2110   19.4290  -32.7960 C   0  0  0  0  0  0  0  0  0  0  0  0
   -5.4590   18.2760  -33.5490 C   0  0  0  0  0  0  0  0  0  0  0  0
   -4.1620   17.5560  -34.5000 S   0  0  0  0  0  0  0  0  0  0  0  0
   -4.5820   17.4490  -35.9400 O   0  0  0  0  0  0  0  0  0  0  0  0
   -2.9520   18.4440  -34.4180 O   0  0  0  0  0  0  0  0  0  0  0  0
   -3.7750   15.9770  -33.8650 N   0  0  0  0  0  0  0  0  0  0  0  0
   -2.3300   15.8830  -33.5860 C   0  0  0  0  0  0  0  0  0  0  0  0
   -2.0130   14.6480  -32.7190 C   0  0  0  0  0  0  0  0  0  0  0  0
   -3.0960   13.7390  -32.7260 O   0  0  0  0  0  0  0  0  0  0  0  0
   -4.2170   14.3240  -32.0850 C   0  0  0  0  0  0  0  0  0  0  0  0
   -4.5510   15.7250  -32.6410 C   0  0  0  0  0  0  0  0  0  0  0  0
   -6.7270   17.6850  -33.5100 C   0  0  0  0  0  0  0  0  0  0  0  0
   -7.7430   18.2530  -32.7360 C   0  0  0  0  0  0  0  0  0  0  0  0
   -6.9980   23.4550  -31.9510 C   0  0  0  0  0  0  0  0  0  0  0  0
   -5.8080   24.1770  -31.8190 C   0  0  0  0  0  0  0  0  0  0  0  0
   -5.0220   24.0290  -30.6700 C   0  0  0  0  0  0  0  0  0  0  0  0
   -3.8640   24.7290  -30.5400 N   0  0  0  0  0  0  0  0  0  0  0  0
   -2.8101   23.6494  -27.5069 H   0  0  0  0  0  0  0  0  0  0  0  0
   -4.9337   22.3376  -27.6928 H   0  0  0  0  0  0  0  0  0  0  0  0
   -6.9445   21.7335  -28.9924 H   0  0  0  0  0  0  0  0  0  0  0  0
   -9.2440   19.3320  -30.7230 H   0  0  0  0  0  0  0  0  0  0  0  0
   -6.0185   20.9026  -31.4304 H   0  0  0  0  0  0  0  0  0  0  0  0
   -4.2127   19.8906  -32.8153 H   0  0  0  0  0  0  0  0  0  0  0  0
   -1.7844   15.8037  -34.5379 H   0  0  0  0  0  0  0  0  0  0  0  0
   -2.0199   16.7847  -33.0376 H   0  0  0  0  0  0  0  0  0  0  0  0
   -1.1188   14.1469  -33.1182 H   0  0  0  0  0  0  0  0  0  0  0  0
   -1.8366   14.9787  -31.6848 H   0  0  0  0  0  0  0  0  0  0  0  0
   -5.0887   13.6692  -32.2315 H   0  0  0  0  0  0  0  0  0  0  0  0
   -3.9711   14.4372  -31.0188 H   0  0  0  0  0  0  0  0  0  0  0  0
   -5.6250   15.7787  -32.8727 H   0  0  0  0  0  0  0  0  0  0  0  0
   -4.2943   16.4839  -31.8873 H   0  0  0  0  0  0  0  0  0  0  0  0
   -6.9246   16.7713  -34.0898 H   0  0  0  0  0  0  0  0  0  0  0  0
   -8.7373   17.7831  -32.7129 H   0  0  0  0  0  0  0  0  0  0  0  0
   -7.6125   23.5737  -32.8556 H   0  0  0  0  0  0  0  0  0  0  0  0
   -5.4891   24.8618  -32.6186 H   0  0  0  0  0  0  0  0  0  0  0  0
  1  2  2  0
  2  3  1  0
  3  4  2  0
  4  5  1  0
  5  6  2  0
  6  7  1  0
  7  8  1  0
  8  9  2  0
  8 10  2  0
  8 11  1  0
 11 12  1  0
 12 13  2  0
 13 14  1  0
 14 15  2  0
 15 16  1  0
 16 17  2  0
 16 18  2  0
 16 19  1  0
 19 20  1  0
 20 21  1  0
 21 22  1  0
 22 23  1  0
 23 24  1  0
 15 25  1  0
 25 26  2  0
  7 27  2  0
 27 28  1  0
 28 29  2  0
 29 30  1  0
 30  2  1  0
 29  5  1  0
 26 12  1  0
 24 19  1  0
  3 31  1  0
  4 32  1  0
  6 33  1  0
 11 34  1  0
 13 35  1  0
 14 36  1  0
 20 37  1  0
 20 38  1  0
 21 39  1  0
 21 40  1  0
 23 41  1  0
 23 42  1  0
 24 43  1  0
 24 44  1  0
 25 45  1  0
 26 46  1  0
 27 47  1  0
 28 48  1  0
M  CHG  1  30  -1
M  END
>  <UniqueID>  (45) 
44

>  <SMILES>  (45) 
O=c1ccc2cc(S(=O)(=O)Nc3ccc(S(=O)(=O)N4CCOCC4)cc3)ccc2[n-]1

>  <Energy>  (45) 
64.43488360070867

>  <Genealogy>  (45) 
O=c1ccc2cc(S(=O)(=O)Nc3ccc(S(=O)(=O)N4CCOCC4)cc3)ccc2[n-]1 (protonated)
O=c1ccc2cc(S(=O)(=O)Nc3ccc(S(=O)(=O)N4CCOCC4)cc3)ccc2[n-]1 (3D coordinates assigned)
O=c1ccc2cc(S(=O)(=O)Nc3ccc(S(=O)(=O)N4CCOCC4)cc3)ccc2[n-]1 (nonaromatic ring conformer: 64.43488360070867 kcal/mol)

>  <smiles>  (45) 
O=c1ccc2cc(S(=O)(=O)Nc3ccc(S(=O)(=O)N4CCOCC4)cc3)ccc2[nH]1

>  <score_type>  (45) 
oracle

>  <origin>  (45) 
adgpu

>  <m_score__min__energy>  (45) 
-11.66

>  <m_primary>  (45) 
energy

$$$$
45:0
     RDKit          3D

 54 57  0  0  0  0  0  0  0  0999 V2000
   -4.5380   12.9040  -35.7300 C   0  0  0  0  0  0  0  0  0  0  0  0
   -5.1510   13.8440  -34.7330 C   0  0  0  0  0  0  0  0  0  0  0  0
   -6.3650   13.8220  -34.5760 O   0  0  0  0  0  0  0  0  0  0  0  0
   -4.3240   14.7600  -33.9640 N   0  0  1  0  0  0  0  0  0  0  0  0
   -5.0740   15.9440  -33.6720 C   0  0  0  0  0  0  0  0  0  0  0  0
   -5.4540   16.9140  -34.6060 C   0  0  0  0  0  0  0  0  0  0  0  0
   -6.2210   18.0060  -34.1720 C   0  0  0  0  0  0  0  0  0  0  0  0
   -6.6030   18.1150  -32.8170 C   0  0  0  0  0  0  0  0  0  0  0  0
   -7.5920   19.4770  -32.2860 S   0  0  0  0  0  0  0  0  0  0  0  0
   -8.3280   20.0500  -33.4660 O   0  0  0  0  0  0  0  0  0  0  0  0
   -8.6110   18.9880  -31.2940 O   0  0  0  0  0  0  0  0  0  0  0  0
   -6.6190   20.7250  -31.5460 N   0  0  0  0  0  0  0  0  0  0  0  0
   -5.7740   21.3820  -32.5550 C   0  0  0  0  0  0  0  0  0  0  0  0
   -4.7280   22.2430  -31.8410 C   0  0  0  0  0  0  0  0  0  0  0  0
   -5.3070   22.8860  -30.6520 N   0  0  0  0  0  0  0  0  0  0  0  0
   -4.4450   23.4330  -29.6350 C   0  0  0  0  0  0  0  0  0  0  0  0
   -4.6230   23.0850  -28.2830 C   0  0  0  0  0  0  0  0  0  0  0  0
   -3.7910   23.6250  -27.2990 C   0  0  0  0  0  0  0  0  0  0  0  0
   -2.7780   24.5200  -27.6520 C   0  0  0  0  0  0  0  0  0  0  0  0
   -2.5980   24.8810  -28.9900 C   0  0  0  0  0  0  0  0  0  0  0  0
   -1.5960   25.7780  -29.3380 O   0  0  0  0  0  0  0  0  0  0  0  0
   -3.4280   24.3410  -29.9790 C   0  0  0  0  0  0  0  0  0  0  0  0
   -6.7650   23.0390  -30.5660 C   0  0  0  0  0  0  0  0  0  0  0  0
   -7.4790   21.6990  -30.8400 C   0  0  0  0  0  0  0  0  0  0  0  0
   -6.2030   17.1290  -31.8970 C   0  0  0  0  0  0  0  0  0  0  0  0
   -5.4350   16.0590  -32.3550 C   0  0  0  0  0  0  0  0  0  0  0  0
   -4.9160   14.9130  -31.5830 C   0  0  0  0  0  0  0  0  0  0  0  0
   -3.9540   14.2600  -32.6030 C   0  0  1  0  0  0  0  0  0  0  0  0
   -3.8820   12.7290  -32.4580 C   0  0  0  0  0  0  0  0  0  0  0  0
   -4.0120   12.0974  -35.1982 H   0  0  0  0  0  0  0  0  0  0  0  0
   -5.3287   12.4723  -36.3612 H   0  0  0  0  0  0  0  0  0  0  0  0
   -3.8241   13.4535  -36.3612 H   0  0  0  0  0  0  0  0  0  0  0  0
   -3.4600   15.0230  -34.4930 H   0  0  0  0  0  0  0  0  0  0  0  0
   -5.1570   16.8223  -35.6612 H   0  0  0  0  0  0  0  0  0  0  0  0
   -6.5261   18.7808  -34.8908 H   0  0  0  0  0  0  0  0  0  0  0  0
   -5.2695   20.6199  -33.1672 H   0  0  0  0  0  0  0  0  0  0  0  0
   -6.3949   22.0139  -33.2071 H   0  0  0  0  0  0  0  0  0  0  0  0
   -3.8857   21.6062  -31.5329 H   0  0  0  0  0  0  0  0  0  0  0  0
   -4.3823   23.0253  -32.5328 H   0  0  0  0  0  0  0  0  0  0  0  0
   -5.4217   22.3839  -27.9994 H   0  0  0  0  0  0  0  0  0  0  0  0
   -3.9338   23.3451  -26.2448 H   0  0  0  0  0  0  0  0  0  0  0  0
   -2.1216   24.9409  -26.8761 H   0  0  0  0  0  0  0  0  0  0  0  0
   -3.2840   24.6284  -31.0310 H   0  0  0  0  0  0  0  0  0  0  0  0
   -7.0311   23.3887  -29.5576 H   0  0  0  0  0  0  0  0  0  0  0  0
   -7.0860   23.7684  -31.3242 H   0  0  0  0  0  0  0  0  0  0  0  0
   -7.7883   21.2627  -29.8788 H   0  0  0  0  0  0  0  0  0  0  0  0
   -8.3417   21.9102  -31.4889 H   0  0  0  0  0  0  0  0  0  0  0  0
   -6.4902   17.2006  -30.8376 H   0  0  0  0  0  0  0  0  0  0  0  0
   -4.3799   15.2459  -30.6820 H   0  0  0  0  0  0  0  0  0  0  0  0
   -5.6974   14.2356  -31.2082 H   0  0  0  0  0  0  0  0  0  0  0  0
   -2.9145   14.5610  -32.4060 H   0  0  0  0  0  0  0  0  0  0  0  0
   -3.8694   12.4619  -31.3910 H   0  0  0  0  0  0  0  0  0  0  0  0
   -4.7597   12.2734  -32.9397 H   0  0  0  0  0  0  0  0  0  0  0  0
   -2.9654   12.3578  -32.9397 H   0  0  0  0  0  0  0  0  0  0  0  0
  1  2  1  0
  2  3  2  0
  2  4  1  0
  4  5  1  0
  5  6  2  0
  6  7  1  0
  7  8  2  0
  8  9  1  0
  9 10  2  0
  9 11  2  0
  9 12  1  0
 12 13  1  0
 13 14  1  0
 14 15  1  0
 15 16  1  0
 16 17  2  0
 17 18  1  0
 18 19  2  0
 19 20  1  0
 20 21  1  0
 20 22  2  0
 15 23  1  0
 23 24  1  0
  8 25  1  0
 25 26  2  0
 26 27  1  0
 27 28  1  0
 28 29  1  0
 28  4  1  0
 26  5  1  0
 24 12  1  0
 22 16  1  0
  1 30  1  0
  1 31  1  0
  1 32  1  0
  4 33  1  6
  6 34  1  0
  7 35  1  0
 13 36  1  0
 13 37  1  0
 14 38  1  0
 14 39  1  0
 17 40  1  0
 18 41  1  0
 19 42  1  0
 22 43  1  0
 23 44  1  0
 23 45  1  0
 24 46  1  0
 24 47  1  0
 25 48  1  0
 27 49  1  0
 27 50  1  0
 28 51  1  1
 29 52  1  0
 29 53  1  0
 29 54  1  0
M  CHG  2   4   1  21  -1
M  END
>  <UniqueID>  (46) 
45

>  <SMILES>  (46) 
CC(=O)[N@H+]1c2ccc(S(=O)(=O)N3CCN(c4cccc([O-])c4)CC3)cc2C[C@H]1C

>  <Energy>  (46) 
77.71927269252923

>  <Genealogy>  (46) 
CC(=O)[NH+]1c2ccc(S(=O)(=O)N3CCN(c4cccc([O-])c4)CC3)cc2CC1C (protonated)
CC(=O)[N@H+]1c2ccc(S(=O)(=O)N3CCN(c4cccc([O-])c4)CC3)cc2C[C@H]1C (chirality)
CC(=O)[N@H+]1c2ccc(S(=O)(=O)N3CCN(c4cccc([O-])c4)CC3)cc2C[C@H]1C (3D coordinates assigned)
CC(=O)[N@H+]1c2ccc(S(=O)(=O)N3CCN(c4cccc([O-])c4)CC3)cc2C[C@H]1C (nonaromatic ring conformer: 77.71927269252923 kcal/mol)

>  <smiles>  (46) 
CC(=O)N1c2ccc(S(=O)(=O)N3CCN(c4cccc(O)c4)CC3)cc2CC1C

>  <score_type>  (46) 
oracle

>  <origin>  (46) 
adgpu

>  <m_score__min__energy>  (46) 
-11.49

>  <m_primary>  (46) 
energy

$$$$
46:0
     RDKit          3D

 59 62  0  0  0  0  0  0  0  0999 V2000
   -3.8800   21.5800  -27.6300 O   0  0  0  0  0  0  0  0  0  0  0  0
   -3.2490   22.4730  -28.6600 S   0  0  0  0  0  0  0  0  0  0  0  0
   -2.4020   23.4990  -27.9640 O   0  0  0  0  0  0  0  0  0  0  0  0
   -2.2740   21.5000  -29.7520 C   0  0  0  0  0  0  0  0  0  0  0  0
   -0.9300   21.2180  -29.4610 C   0  0  0  0  0  0  0  0  0  0  0  0
   -0.1450   20.5320  -30.3920 C   0  0  0  0  0  0  0  0  0  0  0  0
   -0.6890   20.1400  -31.6200 C   0  0  0  0  0  0  0  0  0  0  0  0
   -2.0340   20.4120  -31.9100 C   0  0  0  0  0  0  0  0  0  0  0  0
   -2.7210   20.0330  -33.4890 S   0  0  0  0  0  0  0  0  0  0  0  0
   -1.6190   20.0530  -34.5130 O   0  0  0  0  0  0  0  0  0  0  0  0
   -3.7570   21.0610  -33.8640 O   0  0  0  0  0  0  0  0  0  0  0  0
   -3.4570   18.4480  -33.4300 N   0  0  0  0  0  0  0  0  0  0  0  0
   -2.4390   17.4080  -33.6960 C   0  0  0  0  0  0  0  0  0  0  0  0
   -3.0560   16.0180  -33.9820 C   0  0  0  0  0  0  0  0  0  0  0  0
   -4.5290   15.9410  -33.5710 C   0  0  0  0  0  0  0  0  0  0  0  0
   -5.3540   17.0480  -34.2480 C   0  0  0  0  0  0  0  0  0  0  0  0
   -4.5710   18.3700  -34.3960 C   0  0  0  0  0  0  0  0  0  0  0  0
   -2.8270   21.0680  -30.9620 C   0  0  0  0  0  0  0  0  0  0  0  0
   -4.4850   23.3040  -29.6120 C   0  0  0  0  0  0  0  0  0  0  0  0
   -5.6620   22.6330  -29.9770 C   0  0  0  0  0  0  0  0  0  0  0  0
   -6.6180   23.2630  -30.7870 C   0  0  0  0  0  0  0  0  0  0  0  0
   -8.1050   22.4160  -31.2320 S   0  0  0  0  0  0  0  0  0  0  0  0
   -8.8260   22.0000  -29.9770 O   0  0  0  0  0  0  0  0  0  0  0  0
   -8.9990   23.3630  -31.9880 O   0  0  0  0  0  0  0  0  0  0  0  0
   -7.8100   20.9970  -32.2110 N   0  0  0  0  0  0  0  0  0  0  0  0
   -9.0120   20.1640  -32.3750 C   0  0  0  0  0  0  0  0  0  0  0  0
   -8.5960   18.7050  -32.2010 C   0  0  0  0  0  0  0  0  0  0  0  0
   -7.0840   18.7310  -32.1070 C   0  0  0  0  0  0  0  0  0  0  0  0
   -6.7750   20.1370  -31.6330 C   0  0  0  0  0  0  0  0  0  0  0  0
   -6.3980   24.5790  -31.2180 C   0  0  0  0  0  0  0  0  0  0  0  0
   -5.2230   25.2470  -30.8660 C   0  0  0  0  0  0  0  0  0  0  0  0
   -4.2640   24.6140  -30.0690 C   0  0  0  0  0  0  0  0  0  0  0  0
   -3.0940   25.2910  -29.7430 O   0  0  0  0  0  0  0  0  0  0  0  0
   -0.4954   21.5363  -28.5020 H   0  0  0  0  0  0  0  0  0  0  0  0
    0.9044   20.2994  -30.1584 H   0  0  0  0  0  0  0  0  0  0  0  0
   -0.0618   19.6185  -32.3580 H   0  0  0  0  0  0  0  0  0  0  0  0
   -3.8340   18.3190  -32.4620 H   0  0  0  0  0  0  0  0  0  0  0  0
   -1.8447   17.7143  -34.5695 H   0  0  0  0  0  0  0  0  0  0  0  0
   -1.8203   17.3138  -32.7914 H   0  0  0  0  0  0  0  0  0  0  0  0
   -2.9780   15.8112  -35.0596 H   0  0  0  0  0  0  0  0  0  0  0  0
   -2.5018   15.2752  -33.3895 H   0  0  0  0  0  0  0  0  0  0  0  0
   -4.9330   14.9613  -33.8658 H   0  0  0  0  0  0  0  0  0  0  0  0
   -4.5939   16.0754  -32.4812 H   0  0  0  0  0  0  0  0  0  0  0  0
   -5.6525   16.7021  -35.2486 H   0  0  0  0  0  0  0  0  0  0  0  0
   -6.2267   17.2490  -33.6093 H   0  0  0  0  0  0  0  0  0  0  0  0
   -4.1649   18.4330  -35.4163 H   0  0  0  0  0  0  0  0  0  0  0  0
   -5.2600   19.2042  -34.1976 H   0  0  0  0  0  0  0  0  0  0  0  0
   -3.8926   21.2452  -31.1697 H   0  0  0  0  0  0  0  0  0  0  0  0
   -5.8362   21.6054  -29.6253 H   0  0  0  0  0  0  0  0  0  0  0  0
   -9.7603   20.4330  -31.6149 H   0  0  0  0  0  0  0  0  0  0  0  0
   -9.4557   20.3211  -33.3692 H   0  0  0  0  0  0  0  0  0  0  0  0
   -9.0324   18.2865  -31.2821 H   0  0  0  0  0  0  0  0  0  0  0  0
   -8.9452   18.0761  -33.0332 H   0  0  0  0  0  0  0  0  0  0  0  0
   -6.7236   17.9854  -31.3830 H   0  0  0  0  0  0  0  0  0  0  0  0
   -6.5943   18.4867  -33.0612 H   0  0  0  0  0  0  0  0  0  0  0  0
   -6.8079   20.1855  -30.5346 H   0  0  0  0  0  0  0  0  0  0  0  0
   -5.7688   20.4541  -31.9445 H   0  0  0  0  0  0  0  0  0  0  0  0
   -7.1534   25.0871  -31.8355 H   0  0  0  0  0  0  0  0  0  0  0  0
   -5.0513   26.2752  -31.2171 H   0  0  0  0  0  0  0  0  0  0  0  0
  1  2  2  0
  2  3  2  0
  2  4  1  0
  4  5  2  0
  5  6  1  0
  6  7  2  0
  7  8  1  0
  8  9  1  0
  9 10  2  0
  9 11  2  0
  9 12  1  0
 12 13  1  0
 13 14  1  0
 14 15  1  0
 15 16  1  0
 16 17  1  0
  8 18  2  0
  2 19  1  0
 19 20  2  0
 20 21  1  0
 21 22  1  0
 22 23  2  0
 22 24  2  0
 22 25  1  0
 25 26  1  0
 26 27  1  0
 27 28  1  0
 28 29  1  0
 21 30  2  0
 30 31  1  0
 31 32  2  0
 32 33  1  0
 18  4  1  0
 32 19  1  0
 17 12  1  0
 29 25  1  0
  5 34  1  0
  6 35  1  0
  7 36  1  0
 12 37  1  0
 13 38  1  0
 13 39  1  0
 14 40  1  0
 14 41  1  0
 15 42  1  0
 15 43  1  0
 16 44  1  0
 16 45  1  0
 17 46  1  0
 17 47  1  0
 18 48  1  0
 20 49  1  0
 26 50  1  0
 26 51  1  0
 27 52  1  0
 27 53  1  0
 28 54  1  0
 28 55  1  0
 29 56  1  0
 29 57  1  0
 30 58  1  0
 31 59  1  0
M  CHG  2  12   1  33  -1
M  END
>  <UniqueID>  (47) 
46

>  <SMILES>  (47) 
O=S(=O)(c1cccc(S(=O)(=O)[NH+]2CCCCC2)c1)c1cc(S(=O)(=O)N2CCCC2)ccc1[O-]

>  <Energy>  (47) 
62.457395259118044

>  <Genealogy>  (47) 
O=S(=O)(c1cccc(S(=O)(=O)[NH+]2CCCCC2)c1)c1cc(S(=O)(=O)N2CCCC2)ccc1[O-] (protonated)
O=S(=O)(c1cccc(S(=O)(=O)[NH+]2CCCCC2)c1)c1cc(S(=O)(=O)N2CCCC2)ccc1[O-] (3D coordinates assigned)
O=S(=O)(c1cccc(S(=O)(=O)[NH+]2CCCCC2)c1)c1cc(S(=O)(=O)N2CCCC2)ccc1[O-] (nonaromatic ring conformer: 62.457395259118044 kcal/mol)

>  <smiles>  (47) 
O=S(=O)(c1cccc(S(=O)(=O)N2CCCCC2)c1)c1cc(S(=O)(=O)N2CCCC2)ccc1O

>  <score_type>  (47) 
oracle

>  <origin>  (47) 
adgpu

>  <m_score__min__energy>  (47) 
-13.52

>  <m_primary>  (47) 
energy

$$$$
47:0
     RDKit          3D

 42 44  0  0  0  0  0  0  0  0999 V2000
   -7.9200   18.2980  -31.2220 C   0  0  0  0  0  0  0  0  0  0  0  0
   -7.1510   18.1160  -32.5020 C   0  0  0  0  0  0  0  0  0  0  0  0
   -7.1320   16.8590  -33.1280 C   0  0  0  0  0  0  0  0  0  0  0  0
   -6.4270   16.6740  -34.3210 C   0  0  0  0  0  0  0  0  0  0  0  0
   -5.7420   17.7410  -34.9040 C   0  0  0  0  0  0  0  0  0  0  0  0
   -5.7670   19.0010  -34.3000 C   0  0  0  0  0  0  0  0  0  0  0  0
   -6.4760   19.2010  -33.1060 C   0  0  0  0  0  0  0  0  0  0  0  0
   -6.4990   20.5100  -32.5130 N   0  0  0  0  0  0  0  0  0  0  0  0
   -5.3210   21.0810  -32.1300 C   0  0  0  0  0  0  0  0  0  0  0  0
   -5.3160   22.3500  -31.5520 C   0  0  0  0  0  0  0  0  0  0  0  0
   -6.4870   23.0240  -31.3630 N   0  0  0  0  0  0  0  0  0  0  0  0
   -6.4450   24.3750  -30.7820 C   0  0  0  0  0  0  0  0  0  0  0  0
   -5.1010   24.6240  -30.1660 C   0  0  0  0  0  0  0  0  0  0  0  0
   -4.2490   25.3060  -30.8000 O   0  0  0  0  0  0  0  0  0  0  0  0
   -4.7960   24.1010  -28.8650 N   0  0  0  0  0  0  0  0  0  0  0  0
   -3.6880   24.5390  -28.0600 C   0  0  0  0  0  0  0  0  0  0  0  0
   -2.3940   24.5170  -28.6000 C   0  0  0  0  0  0  0  0  0  0  0  0
   -1.2970   24.9160  -27.8280 C   0  0  0  0  0  0  0  0  0  0  0  0
   -1.4840   25.3240  -26.5050 C   0  0  0  0  0  0  0  0  0  0  0  0
   -0.4200   25.7080  -25.7570 F   0  0  0  0  0  0  0  0  0  0  0  0
   -2.7670   25.3280  -25.9500 C   0  0  0  0  0  0  0  0  0  0  0  0
   -3.8650   24.9320  -26.7200 C   0  0  0  0  0  0  0  0  0  0  0  0
   -7.6720   22.4630  -31.7670 C   0  0  0  0  0  0  0  0  0  0  0  0
   -8.7610   23.0850  -31.6240 O   0  0  0  0  0  0  0  0  0  0  0  0
   -7.6770   21.1870  -32.3500 C   0  0  0  0  0  0  0  0  0  0  0  0
   -8.7670   20.6730  -32.7270 O   0  0  0  0  0  0  0  0  0  0  0  0
   -7.2487   18.1391  -30.3652 H   0  0  0  0  0  0  0  0  0  0  0  0
   -8.3300   19.3180  -31.1824 H   0  0  0  0  0  0  0  0  0  0  0  0
   -8.7437   17.5700  -31.1824 H   0  0  0  0  0  0  0  0  0  0  0  0
   -7.6749   16.0152  -32.6771 H   0  0  0  0  0  0  0  0  0  0  0  0
   -6.4122   15.6846  -34.8015 H   0  0  0  0  0  0  0  0  0  0  0  0
   -5.1824   17.5903  -35.8389 H   0  0  0  0  0  0  0  0  0  0  0  0
   -5.2279   19.8405  -34.7632 H   0  0  0  0  0  0  0  0  0  0  0  0
   -4.3745   20.5402  -32.2771 H   0  0  0  0  0  0  0  0  0  0  0  0
   -4.3641   22.8094  -31.2472 H   0  0  0  0  0  0  0  0  0  0  0  0
   -6.6271   25.1178  -31.5726 H   0  0  0  0  0  0  0  0  0  0  0  0
   -7.2203   24.4599  -30.0063 H   0  0  0  0  0  0  0  0  0  0  0  0
   -5.3770   23.3070  -28.5090 H   0  0  0  0  0  0  0  0  0  0  0  0
   -2.2402   24.1840  -29.6370 H   0  0  0  0  0  0  0  0  0  0  0  0
   -0.2868   24.9084  -28.2632 H   0  0  0  0  0  0  0  0  0  0  0  0
   -2.9130   25.6431  -24.9062 H   0  0  0  0  0  0  0  0  0  0  0  0
   -4.8716   24.9276  -26.2765 H   0  0  0  0  0  0  0  0  0  0  0  0
  1  2  1  0
  2  3  2  0
  3  4  1  0
  4  5  2  0
  5  6  1  0
  6  7  2  0
  7  8  1  0
  8  9  1  0
  9 10  2  0
 10 11  1  0
 11 12  1  0
 12 13  1  0
 13 14  2  0
 13 15  1  0
 15 16  1  0
 16 17  2  0
 17 18  1  0
 18 19  2  0
 19 20  1  0
 19 21  1  0
 21 22  2  0
 11 23  1  0
 23 24  2  0
 23 25  1  0
 25 26  2  0
  7  2  1  0
 25  8  1  0
 22 16  1  0
  1 27  1  0
  1 28  1  0
  1 29  1  0
  3 30  1  0
  4 31  1  0
  5 32  1  0
  6 33  1  0
  9 34  1  0
 10 35  1  0
 12 36  1  0
 12 37  1  0
 15 38  1  0
 17 39  1  0
 18 40  1  0
 21 41  1  0
 22 42  1  0
M  END
>  <UniqueID>  (48) 
47

>  <SMILES>  (48) 
Cc1ccccc1-n1ccn(CC(=O)Nc2ccc(F)cc2)c(=O)c1=O

>  <Energy>  (48) 
58.688430143109485

>  <Genealogy>  (48) 
Cc1ccccc1-n1ccn(CC(=O)Nc2ccc(F)cc2)c(=O)c1=O (3D coordinates assigned)
Cc1ccccc1-n1ccn(CC(=O)Nc2ccc(F)cc2)c(=O)c1=O (optimized conformer: 58.688430143109485 kcal/mol)

>  <smiles>  (48) 
Cc1ccccc1-n1ccn(CC(=O)Nc2ccc(F)cc2)c(=O)c1=O

>  <score_type>  (48) 
oracle

>  <origin>  (48) 
adgpu

>  <m_score__min__energy>  (48) 
-9.0399999999999991

>  <m_primary>  (48) 
energy

$$$$
48:0
     RDKit          3D

 45 47  0  0  0  0  0  0  0  0999 V2000
    2.4760   21.1790  -34.9800 C   0  0  0  0  0  0  0  0  0  0  0  0
    0.7540   21.5310  -35.2580 S   0  0  0  0  0  0  0  0  0  0  0  0
    0.5490   23.0160  -35.3450 O   0  0  0  0  0  0  0  0  0  0  0  0
    0.3300   20.9040  -36.5560 O   0  0  0  0  0  0  0  0  0  0  0  0
   -0.1980   20.8850  -33.9250 C   0  0  0  0  0  0  0  0  0  0  0  0
    0.4000   20.1000  -32.9310 C   0  0  0  0  0  0  0  0  0  0  0  0
   -0.3640   19.6150  -31.8680 C   0  0  0  0  0  0  0  0  0  0  0  0
   -1.7280   19.9090  -31.7900 C   0  0  0  0  0  0  0  0  0  0  0  0
   -2.3470   20.6880  -32.7860 C   0  0  0  0  0  0  0  0  0  0  0  0
   -3.7920   21.0070  -32.6780 C   0  0  0  0  0  0  0  0  0  0  0  0
   -4.2940   21.8510  -33.4710 O   0  0  0  0  0  0  0  0  0  0  0  0
   -4.6270   20.3650  -31.6970 N   0  0  0  0  0  0  0  0  0  0  0  0
   -6.0450   20.5720  -31.6140 C   0  0  0  0  0  0  0  0  0  0  0  0
   -6.9350   19.5160  -31.8760 C   0  0  0  0  0  0  0  0  0  0  0  0
   -8.3150   19.7360  -31.8680 C   0  0  0  0  0  0  0  0  0  0  0  0
   -8.8190   21.0120  -31.6130 C   0  0  0  0  0  0  0  0  0  0  0  0
   -7.9450   22.0720  -31.3620 C   0  0  0  0  0  0  0  0  0  0  0  0
   -6.5590   21.8620  -31.3570 C   0  0  0  0  0  0  0  0  0  0  0  0
   -5.6870   22.9630  -31.0610 N   0  0  0  0  0  0  0  0  0  0  0  0
   -4.5020   22.7620  -30.2240 C   0  0  0  0  0  0  0  0  0  0  0  0
   -4.1820   24.0570  -29.4730 C   0  0  0  0  0  0  0  0  0  0  0  0
   -4.1050   25.1510  -30.3680 O   0  0  0  0  0  0  0  0  0  0  0  0
   -5.3760   25.3880  -30.9460 C   0  0  0  0  0  0  0  0  0  0  0  0
   -5.8040   24.2060  -31.8220 C   0  0  0  0  0  0  0  0  0  0  0  0
   -1.5660   21.1780  -33.8480 C   0  0  0  0  0  0  0  0  0  0  0  0
    2.6721   21.1389  -33.8984 H   0  0  0  0  0  0  0  0  0  0  0  0
    2.7303   20.2103  -35.4349 H   0  0  0  0  0  0  0  0  0  0  0  0
    3.0901   21.9702  -35.4349 H   0  0  0  0  0  0  0  0  0  0  0  0
    1.4732   19.8653  -32.9880 H   0  0  0  0  0  0  0  0  0  0  0  0
    0.1093   18.9992  -31.0890 H   0  0  0  0  0  0  0  0  0  0  0  0
   -2.3216   19.5294  -30.9453 H   0  0  0  0  0  0  0  0  0  0  0  0
   -4.2080   19.6770  -31.0340 H   0  0  0  0  0  0  0  0  0  0  0  0
   -6.5429   18.5105  -32.0886 H   0  0  0  0  0  0  0  0  0  0  0  0
   -9.0051   18.9019  -32.0630 H   0  0  0  0  0  0  0  0  0  0  0  0
   -9.9056   21.1831  -31.6097 H   0  0  0  0  0  0  0  0  0  0  0  0
   -8.3465   23.0774  -31.1671 H   0  0  0  0  0  0  0  0  0  0  0  0
   -4.6966   21.9569  -29.5002 H   0  0  0  0  0  0  0  0  0  0  0  0
   -3.6473   22.4856  -30.8589 H   0  0  0  0  0  0  0  0  0  0  0  0
   -4.9736   24.2505  -28.7342 H   0  0  0  0  0  0  0  0  0  0  0  0
   -3.2098   23.9427  -28.9713 H   0  0  0  0  0  0  0  0  0  0  0  0
   -6.1160   25.5295  -30.1445 H   0  0  0  0  0  0  0  0  0  0  0  0
   -5.3153   26.2889  -31.5743 H   0  0  0  0  0  0  0  0  0  0  0  0
   -6.8483   24.3444  -32.1386 H   0  0  0  0  0  0  0  0  0  0  0  0
   -5.1541   24.1541  -32.7080 H   0  0  0  0  0  0  0  0  0  0  0  0
   -2.0342   21.7980  -34.6267 H   0  0  0  0  0  0  0  0  0  0  0  0
  1  2  1  0
  2  3  2  0
  2  4  2  0
  2  5  1  0
  5  6  2  0
  6  7  1  0
  7  8  2  0
  8  9  1  0
  9 10  1  0
 10 11  2  0
 10 12  1  0
 12 13  1  0
 13 14  2  0
 14 15  1  0
 15 16  2  0
 16 17  1  0
 17 18  2  0
 18 19  1  0
 19 20  1  0
 20 21  1  0
 21 22  1  0
 22 23  1  0
 23 24  1  0
  9 25  2  0
 25  5  1  0
 18 13  1  0
 24 19  1  0
  1 26  1  0
  1 27  1  0
  1 28  1  0
  6 29  1  0
  7 30  1  0
  8 31  1  0
 12 32  1  0
 14 33  1  0
 15 34  1  0
 16 35  1  0
 17 36  1  0
 20 37  1  0
 20 38  1  0
 21 39  1  0
 21 40  1  0
 23 41  1  0
 23 42  1  0
 24 43  1  0
 24 44  1  0
 25 45  1  0
M  END
>  <UniqueID>  (49) 
48

>  <SMILES>  (49) 
CS(=O)(=O)c1cccc(C(=O)Nc2ccccc2N2CCOCC2)c1

>  <Energy>  (49) 
56.21945056932339

>  <Genealogy>  (49) 
CS(=O)(=O)c1cccc(C(=O)Nc2ccccc2N2CCOCC2)c1 (3D coordinates assigned)
CS(=O)(=O)c1cccc(C(=O)Nc2ccccc2N2CCOCC2)c1 (nonaromatic ring conformer: 56.21945056932339 kcal/mol)

>  <smiles>  (49) 
CS(=O)(=O)c1cccc(C(=O)Nc2ccccc2N2CCOCC2)c1

>  <score_type>  (49) 
oracle

>  <origin>  (49) 
adgpu

>  <m_score__min__energy>  (49) 
-9.0500000000000007

>  <m_primary>  (49) 
energy

$$$$
49:0
     RDKit          3D

 44 46  0  0  0  0  0  0  0  0999 V2000
   -0.8400   21.4290  -26.5540 O   0  0  0  0  0  0  0  0  0  0  0  0
   -0.1420   21.9450  -27.7800 S   0  0  0  0  0  0  0  0  0  0  0  0
    1.2290   21.3390  -27.8530 O   0  0  0  0  0  0  0  0  0  0  0  0
    0.0030   23.6720  -27.6810 N   0  0  0  0  0  0  0  0  0  0  0  0
   -1.1370   24.2230  -26.9510 C   0  0  0  0  0  0  0  0  0  0  0  0
   -2.3680   24.1190  -27.8080 C   0  0  0  0  0  0  0  0  0  0  0  0
   -3.4040   23.2430  -27.4420 C   0  0  0  0  0  0  0  0  0  0  0  0
   -4.5640   23.1580  -28.2180 C   0  0  0  0  0  0  0  0  0  0  0  0
   -4.7040   23.9530  -29.3580 C   0  0  0  0  0  0  0  0  0  0  0  0
   -3.6870   24.8420  -29.7220 C   0  0  0  0  0  0  0  0  0  0  0  0
   -3.8370   25.6370  -30.8520 O   0  0  0  0  0  0  0  0  0  0  0  0
   -2.5220   24.9330  -28.9470 C   0  0  0  0  0  0  0  0  0  0  0  0
   -1.5260   25.8340  -29.3130 O   0  0  0  0  0  0  0  0  0  0  0  0
   -1.0390   21.5050  -29.2300 C   0  0  0  0  0  0  0  0  0  0  0  0
   -2.2460   20.7970  -29.1400 C   0  0  0  0  0  0  0  0  0  0  0  0
   -2.9500   20.4600  -30.3000 C   0  0  0  0  0  0  0  0  0  0  0  0
   -2.4520   20.8190  -31.5600 C   0  0  0  0  0  0  0  0  0  0  0  0
   -3.3450   20.3970  -33.0260 S   0  0  0  0  0  0  0  0  0  0  0  0
   -2.4910   20.7100  -34.2240 O   0  0  0  0  0  0  0  0  0  0  0  0
   -3.6170   18.9180  -33.0240 O   0  0  0  0  0  0  0  0  0  0  0  0
   -4.8610   21.2540  -33.1680 N   0  0  0  0  0  0  0  0  0  0  0  0
   -5.9950   20.4470  -32.7200 C   0  0  0  0  0  0  0  0  0  0  0  0
   -7.0660   21.4230  -32.2520 C   0  0  0  0  0  0  0  0  0  0  0  0
   -6.3540   22.7580  -32.0830 C   0  0  0  0  0  0  0  0  0  0  0  0
   -4.8880   22.4590  -32.3440 C   0  0  0  0  0  0  0  0  0  0  0  0
   -1.2490   21.5350  -31.6480 C   0  0  0  0  0  0  0  0  0  0  0  0
   -0.5450   21.8720  -30.4880 C   0  0  0  0  0  0  0  0  0  0  0  0
   -1.2872   23.6560  -26.0205 H   0  0  0  0  0  0  0  0  0  0  0  0
   -0.9447   25.2779  -26.7058 H   0  0  0  0  0  0  0  0  0  0  0  0
   -3.3019   22.6210  -26.5405 H   0  0  0  0  0  0  0  0  0  0  0  0
   -5.3675   22.4641  -27.9303 H   0  0  0  0  0  0  0  0  0  0  0  0
   -5.6150   23.8799  -29.9702 H   0  0  0  0  0  0  0  0  0  0  0  0
   -2.6397   20.5062  -28.1549 H   0  0  0  0  0  0  0  0  0  0  0  0
   -3.8997   19.9102  -30.2234 H   0  0  0  0  0  0  0  0  0  0  0  0
   -6.3764   19.8345  -33.5503 H   0  0  0  0  0  0  0  0  0  0  0  0
   -5.7000   19.7636  -31.9101 H   0  0  0  0  0  0  0  0  0  0  0  0
   -7.8652   21.5060  -33.0032 H   0  0  0  0  0  0  0  0  0  0  0  0
   -7.5392   21.0915  -31.3159 H   0  0  0  0  0  0  0  0  0  0  0  0
   -6.7335   23.4928  -32.8082 H   0  0  0  0  0  0  0  0  0  0  0  0
   -6.5158   23.1883  -31.0837 H   0  0  0  0  0  0  0  0  0  0  0  0
   -4.4166   23.2973  -32.8780 H   0  0  0  0  0  0  0  0  0  0  0  0
   -4.3336   22.3161  -31.4047 H   0  0  0  0  0  0  0  0  0  0  0  0
   -0.8584   21.8322  -32.6324 H   0  0  0  0  0  0  0  0  0  0  0  0
    0.4012   22.4279  -30.5638 H   0  0  0  0  0  0  0  0  0  0  0  0
  1  2  2  0
  2  3  2  0
  2  4  1  0
  4  5  1  0
  5  6  1  0
  6  7  2  0
  7  8  1  0
  8  9  2  0
  9 10  1  0
 10 11  1  0
 10 12  2  0
 12 13  1  0
  2 14  1  0
 14 15  2  0
 15 16  1  0
 16 17  2  0
 17 18  1  0
 18 19  2  0
 18 20  2  0
 18 21  1  0
 21 22  1  0
 22 23  1  0
 23 24  1  0
 24 25  1  0
 17 26  1  0
 26 27  2  0
 12  6  1  0
 27 14  1  0
 25 21  1  0
  5 28  1  0
  5 29  1  0
  7 30  1  0
  8 31  1  0
  9 32  1  0
 15 33  1  0
 16 34  1  0
 22 35  1  0
 22 36  1  0
 23 37  1  0
 23 38  1  0
 24 39  1  0
 24 40  1  0
 25 41  1  0
 25 42  1  0
 26 43  1  0
 27 44  1  0
M  CHG  3   4  -1  11  -1  13  -1
M  END
>  <UniqueID>  (50) 
49

>  <SMILES>  (50) 
O=S(=O)([N-]Cc1cccc([O-])c1[O-])c1ccc(S(=O)(=O)N2CCCC2)cc1

>  <Energy>  (50) 
44.78418616901816

>  <Genealogy>  (50) 
O=S(=O)([N-]Cc1cccc([O-])c1[O-])c1ccc(S(=O)(=O)N2CCCC2)cc1 (protonated)
O=S(=O)([N-]Cc1cccc([O-])c1[O-])c1ccc(S(=O)(=O)N2CCCC2)cc1 (3D coordinates assigned)
O=S(=O)([N-]Cc1cccc([O-])c1[O-])c1ccc(S(=O)(=O)N2CCCC2)cc1 (nonaromatic ring conformer: 44.78418616901816 kcal/mol)

>  <smiles>  (50) 
O=S(=O)(NCc1cccc(O)c1O)c1ccc(S(=O)(=O)N2CCCC2)cc1

>  <score_type>  (50) 
oracle

>  <origin>  (50) 
adgpu

>  <m_score__min__energy>  (50) 
-15.699999999999999

>  <m_primary>  (50) 
energy

$$$$
