0:0
     RDKit          3D

 44 47  0  0  0  0  0  0  0  0999 V2000
   -2.1210   24.6710  -28.8800 C   0  0  0  0  0  0  0  0  0  0  0  0
   -3.1080   25.2610  -29.7170 O   0  0  0  0  0  0  0  0  0  0  0  0
   -4.2410   24.5900  -30.2010 C   0  0  0  0  0  0  0  0  0  0  0  0
   -5.5610   25.0560  -29.9530 C   0  0  0  0  0  0  0  0  0  0  0  0
   -6.6730   24.3610  -30.4560 C   0  0  0  0  0  0  0  0  0  0  0  0
   -6.4470   23.2060  -31.1990 C   0  0  0  0  0  0  0  0  0  0  0  0
   -7.3850   22.4170  -31.7660 N   0  0  0  0  0  0  0  0  0  0  0  0
   -6.6830   21.4370  -32.3760 C   0  0  0  0  0  0  0  0  0  0  0  0
   -7.1690   20.3690  -33.1140 C   0  0  0  0  0  0  0  0  0  0  0  0
   -8.4060   20.2080  -33.2880 O   0  0  0  0  0  0  0  0  0  0  0  0
   -6.2700   19.4930  -33.6490 N   0  0  0  0  0  0  0  0  0  0  0  0
   -4.9190   19.6530  -33.4670 C   0  0  0  0  0  0  0  0  0  0  0  0
   -4.1260   18.8140  -33.9770 O   0  0  0  0  0  0  0  0  0  0  0  0
   -4.4300   20.7120  -32.7340 N   0  0  0  0  0  0  0  0  0  0  0  0
   -3.0180   20.8590  -32.5280 C   0  0  0  0  0  0  0  0  0  0  0  0
   -2.1720   21.0360  -33.6310 C   0  0  0  0  0  0  0  0  0  0  0  0
   -0.7930   21.1930  -33.4470 C   0  0  0  0  0  0  0  0  0  0  0  0
    0.2630   21.4160  -34.8360 S   0  0  0  0  0  0  0  0  0  0  0  0
    0.1740   23.0590  -35.3670 N   0  0  0  0  0  0  0  0  0  0  0  0
    1.6800   21.0860  -34.4570 O   0  0  0  0  0  0  0  0  0  0  0  0
   -0.1610   20.5030  -35.9530 O   0  0  0  0  0  0  0  0  0  0  0  0
   -0.2580   21.1530  -32.1530 C   0  0  0  0  0  0  0  0  0  0  0  0
   -1.0970   20.9690  -31.0490 C   0  0  0  0  0  0  0  0  0  0  0  0
   -2.4860   20.8210  -31.2270 C   0  0  0  0  0  0  0  0  0  0  0  0
   -3.3630   20.6430  -30.1460 O   0  0  0  0  0  0  0  0  0  0  0  0
   -3.0280   20.8940  -28.7860 C   0  0  0  0  0  0  0  0  0  0  0  0
   -5.3300   21.5910  -32.2030 C   0  0  0  0  0  0  0  0  0  0  0  0
   -5.1670   22.7420  -31.4410 C   0  0  0  0  0  0  0  0  0  0  0  0
   -4.0440   23.4180  -30.9580 C   0  0  0  0  0  0  0  0  0  0  0  0
   -2.3904   24.8320  -27.8257 H   0  0  0  0  0  0  0  0  0  0  0  0
   -2.0654   23.5914  -29.0835 H   0  0  0  0  0  0  0  0  0  0  0  0
   -1.1438   25.1332  -29.0835 H   0  0  0  0  0  0  0  0  0  0  0  0
   -5.7130   25.9705  -29.3609 H   0  0  0  0  0  0  0  0  0  0  0  0
   -7.6956   24.7200  -30.2677 H   0  0  0  0  0  0  0  0  0  0  0  0
   -8.4220   22.5390  -31.7410 H   0  0  0  0  0  0  0  0  0  0  0  0
   -6.6190   18.6820  -34.2090 H   0  0  0  0  0  0  0  0  0  0  0  0
   -2.5936   21.0517  -34.6469 H   0  0  0  0  0  0  0  0  0  0  0  0
   -0.5410   23.0960  -36.1270 H   0  0  0  0  0  0  0  0  0  0  0  0
    0.8260   21.2667  -32.0045 H   0  0  0  0  0  0  0  0  0  0  0  0
   -0.6693   20.9397  -30.0360 H   0  0  0  0  0  0  0  0  0  0  0  0
   -3.7349   20.3643  -28.1305 H   0  0  0  0  0  0  0  0  0  0  0  0
   -2.0065   20.5371  -28.5881 H   0  0  0  0  0  0  0  0  0  0  0  0
   -3.0836   21.9746  -28.5881 H   0  0  0  0  0  0  0  0  0  0  0  0
   -3.0301   23.0443  -31.1637 H   0  0  0  0  0  0  0  0  0  0  0  0
  1  2  1  0
  2  3  1  0
  3  4  2  0
  4  5  1  0
  5  6  2  0
  6  7  1  0
  7  8  1  0
  8  9  1  0
  9 10  2  0
  9 11  1  0
 11 12  1  0
 12 13  2  0
 12 14  1  0
 14 15  1  0
 15 16  2  0
 16 17  1  0
 17 18  1  0
 18 19  1  0
 18 20  2  0
 18 21  2  0
 17 22  2  0
 22 23  1  0
 23 24  2  0
 24 25  1  0
 25 26  1  0
 14 27  1  0
 27 28  1  0
 28 29  2  0
 29  3  1  0
 28  6  1  0
 27  8  2  0
 24 15  1  0
  1 30  1  0
  1 31  1  0
  1 32  1  0
  4 33  1  0
  5 34  1  0
  7 35  1  0
 11 36  1  0
 16 37  1  0
 19 38  1  0
 22 39  1  0
 23 40  1  0
 26 41  1  0
 26 42  1  0
 26 43  1  0
 29 44  1  0
M  CHG  1  19  -1
M  END
>  <UniqueID>  (1) 
1

>  <SMILES>  (1) 
COc1ccc2[nH]c3c(=O)[nH]c(=O)n(-c4cc(S([NH-])(=O)=O)ccc4OC)c3c2c1

>  <Energy>  (1) 
100.11753630733628

>  <Genealogy>  (1) 
COc1ccc2[nH]c3c(=O)[nH]c(=O)n(-c4cc(S([NH-])(=O)=O)ccc4OC)c3c2c1 (protonated)
COc1ccc2[nH]c3c(=O)[nH]c(=O)n(-c4cc(S([NH-])(=O)=O)ccc4OC)c3c2c1 (3D coordinates assigned)
COc1ccc2[nH]c3c(=O)[nH]c(=O)n(-c4cc(S([NH-])(=O)=O)ccc4OC)c3c2c1 (optimized conformer: 100.11753630733628 kcal/mol)

>  <smiles>  (1) 
COc1ccc2[nH]c3c(=O)[nH]c(=O)n(-c4cc(S(N)(=O)=O)ccc4OC)c3c2c1

>  <score_type>  (1) 
oracle

>  <origin>  (1) 
adgpu

>  <m_score__min__energy>  (1) 
-9.7400000000000002

>  <m_primary>  (1) 
energy

$$$$
1:0
     RDKit          3D

 24 25  0  0  0  0  0  0  0  0999 V2000
   -5.3980   25.1660  -31.5930 O   0  0  0  0  0  0  0  0  0  0  0  0
   -4.7670   24.5110  -30.7220 C   0  0  0  0  0  0  0  0  0  0  0  0
   -3.5340   24.9280  -30.3380 N   0  0  0  0  0  0  0  0  0  0  0  0
   -2.8250   24.2540  -29.3950 C   0  0  0  0  0  0  0  0  0  0  0  0
   -1.3430   24.7940  -28.9620 S   0  0  0  0  0  0  0  0  0  0  0  0
   -3.3500   23.1400  -28.8160 N   0  0  0  0  0  0  0  0  0  0  0  0
   -4.5810   22.6860  -29.1720 C   0  0  0  0  0  0  0  0  0  0  0  0
   -5.3260   23.3610  -30.1460 C   0  0  0  0  0  0  0  0  0  0  0  0
   -6.9330   22.7920  -30.6020 S   0  0  0  0  0  0  0  0  0  0  0  0
   -7.6910   22.3880  -29.3670 O   0  0  0  0  0  0  0  0  0  0  0  0
   -7.7030   23.8870  -31.2870 O   0  0  0  0  0  0  0  0  0  0  0  0
   -6.7690   21.4260  -31.6990 C   0  0  0  0  0  0  0  0  0  0  0  0
   -5.5690   21.2330  -32.3970 C   0  0  0  0  0  0  0  0  0  0  0  0
   -5.4250   20.1420  -33.2590 C   0  0  0  0  0  0  0  0  0  0  0  0
   -6.4770   19.2350  -33.4230 C   0  0  0  0  0  0  0  0  0  0  0  0
   -6.3360   18.1760  -34.2580 F   0  0  0  0  0  0  0  0  0  0  0  0
   -7.6730   19.4200  -32.7240 C   0  0  0  0  0  0  0  0  0  0  0  0
   -7.8210   20.5110  -31.8610 C   0  0  0  0  0  0  0  0  0  0  0  0
   -2.8110   22.6190  -28.0870 H   0  0  0  0  0  0  0  0  0  0  0  0
   -4.9929   21.7854  -28.6931 H   0  0  0  0  0  0  0  0  0  0  0  0
   -4.7382   21.9420  -32.2661 H   0  0  0  0  0  0  0  0  0  0  0  0
   -4.4834   19.9967  -33.8088 H   0  0  0  0  0  0  0  0  0  0  0  0
   -8.4999   18.7061  -32.8527 H   0  0  0  0  0  0  0  0  0  0  0  0
   -8.7621   20.6519  -31.3092 H   0  0  0  0  0  0  0  0  0  0  0  0
  1  2  2  0
  2  3  1  0
  3  4  1  0
  4  5  2  0
  4  6  1  0
  6  7  1  0
  7  8  2  0
  8  9  1  0
  9 10  2  0
  9 11  2  0
  9 12  1  0
 12 13  2  0
 13 14  1  0
 14 15  2  0
 15 16  1  0
 15 17  1  0
 17 18  2  0
  8  2  1  0
 18 12  1  0
  6 19  1  0
  7 20  1  0
 13 21  1  0
 14 22  1  0
 17 23  1  0
 18 24  1  0
M  CHG  1   3  -1
M  END
>  <UniqueID>  (2) 
2

>  <SMILES>  (2) 
O=c1[n-]c(=S)[nH]cc1S(=O)(=O)c1ccc(F)cc1

>  <Energy>  (2) 
28.480979349192502

>  <Genealogy>  (2) 
O=c1[n-]c(=S)[nH]cc1S(=O)(=O)c1ccc(F)cc1 (protonated)
O=c1[n-]c(=S)[nH]cc1S(=O)(=O)c1ccc(F)cc1 (3D coordinates assigned)
O=c1[n-]c(=S)[nH]cc1S(=O)(=O)c1ccc(F)cc1 (optimized conformer: 28.480979349192502 kcal/mol)

>  <smiles>  (2) 
O=c1[nH]c(=S)[nH]cc1S(=O)(=O)c1ccc(F)cc1

>  <score_type>  (2) 
oracle

>  <origin>  (2) 
adgpu

>  <m_score__min__energy>  (2) 
-7.9400000000000004

>  <m_primary>  (2) 
energy

$$$$
2:0
     RDKit          3D

 46 50  0  0  0  0  0  0  0  0999 V2000
   -3.2840   25.2110  -30.0480 O   0  0  0  0  0  0  0  0  0  0  0  0
   -4.5590   24.6490  -30.0650 C   0  0  0  0  0  0  0  0  0  0  0  0
   -5.6610   25.4200  -29.6630 C   0  0  0  0  0  0  0  0  0  0  0  0
   -6.9510   24.8890  -29.7140 C   0  0  0  0  0  0  0  0  0  0  0  0
   -7.1520   23.5850  -30.1690 C   0  0  0  0  0  0  0  0  0  0  0  0
   -6.0620   22.8070  -30.5670 C   0  0  0  0  0  0  0  0  0  0  0  0
   -4.7550   23.3230  -30.5090 C   0  0  0  0  0  0  0  0  0  0  0  0
   -3.6150   22.4720  -30.9240 C   0  0  0  0  0  0  0  0  0  0  0  0
   -3.7060   21.3750  -31.7790 C   0  0  0  0  0  0  0  0  0  0  0  0
   -2.4220   20.8720  -31.8770 C   0  0  0  0  0  0  0  0  0  0  0  0
   -1.8910   19.8020  -32.6190 C   0  0  0  0  0  0  0  0  0  0  0  0
   -2.7240   18.9080  -33.4480 C   0  0  0  0  0  0  0  0  0  0  0  0
   -2.2260   17.8120  -34.1540 C   0  0  0  0  0  0  0  0  0  0  0  0
   -3.5040   17.1030  -34.9840 S   0  0  0  0  0  0  0  0  0  0  0  0
   -4.6270   18.2280  -34.4370 C   0  0  0  0  0  0  0  0  0  0  0  0
   -6.0900   18.1880  -34.7310 C   0  0  0  0  0  0  0  0  0  0  0  0
   -6.8730   18.5080  -33.4870 C   0  0  0  0  0  0  0  0  0  0  0  0
   -7.0350   17.5390  -32.4840 C   0  0  0  0  0  0  0  0  0  0  0  0
   -7.7950   17.8250  -31.3450 C   0  0  0  0  0  0  0  0  0  0  0  0
   -8.4060   19.0740  -31.2060 C   0  0  0  0  0  0  0  0  0  0  0  0
   -8.2600   20.0400  -32.2070 C   0  0  0  0  0  0  0  0  0  0  0  0
   -9.1070   21.7430  -32.0220 Br  0  0  0  0  0  0  0  0  0  0  0  0
   -7.4990   19.7570  -33.3470 C   0  0  0  0  0  0  0  0  0  0  0  0
   -4.0580   19.1340  -33.6140 N   0  0  0  0  0  0  0  0  0  0  0  0
   -0.4930   19.6040  -32.5560 C   0  0  0  0  0  0  0  0  0  0  0  0
    0.3180   20.4320  -31.7520 C   0  0  0  0  0  0  0  0  0  0  0  0
   -0.2460   21.4810  -31.0100 C   0  0  0  0  0  0  0  0  0  0  0  0
   -1.6230   21.6780  -31.1020 C   0  0  0  0  0  0  0  0  0  0  0  0
   -2.3380   22.6480  -30.5090 N   0  0  0  0  0  0  0  0  0  0  0  0
   -2.8970   25.6790  -30.8580 H   0  0  0  0  0  0  0  0  0  0  0  0
   -5.5071   26.4489  -29.3056 H   0  0  0  0  0  0  0  0  0  0  0  0
   -7.8094   25.4986  -29.3954 H   0  0  0  0  0  0  0  0  0  0  0  0
   -8.1695   23.1695  -30.2143 H   0  0  0  0  0  0  0  0  0  0  0  0
   -6.2275   21.7816  -30.9290 H   0  0  0  0  0  0  0  0  0  0  0  0
   -4.6105   20.9899  -32.2726 H   0  0  0  0  0  0  0  0  0  0  0  0
   -1.1800   17.4717  -34.1653 H   0  0  0  0  0  0  0  0  0  0  0  0
   -6.3255   18.9279  -35.5102 H   0  0  0  0  0  0  0  0  0  0  0  0
   -6.3612   17.1805  -35.0795 H   0  0  0  0  0  0  0  0  0  0  0  0
   -6.5627   16.5517  -32.5942 H   0  0  0  0  0  0  0  0  0  0  0  0
   -7.9118   17.0657  -30.5577 H   0  0  0  0  0  0  0  0  0  0  0  0
   -9.0021   19.2976  -30.3090 H   0  0  0  0  0  0  0  0  0  0  0  0
   -7.3909   20.5157  -34.1361 H   0  0  0  0  0  0  0  0  0  0  0  0
   -0.0319   18.7945  -33.1409 H   0  0  0  0  0  0  0  0  0  0  0  0
    1.4025   20.2537  -31.7063 H   0  0  0  0  0  0  0  0  0  0  0  0
    0.3786   22.1274  -30.3759 H   0  0  0  0  0  0  0  0  0  0  0  0
   -1.9760   23.3700  -29.8480 H   0  0  0  0  0  0  0  0  0  0  0  0
  1  2  1  0
  2  3  2  0
  3  4  1  0
  4  5  2  0
  5  6  1  0
  6  7  2  0
  7  8  1  0
  8  9  2  0
  9 10  1  0
 10 11  2  0
 11 12  1  0
 12 13  2  0
 13 14  1  0
 14 15  1  0
 15 16  1  0
 16 17  1  0
 17 18  2  0
 18 19  1  0
 19 20  2  0
 20 21  1  0
 21 22  1  0
 21 23  2  0
 15 24  2  0
 11 25  1  0
 25 26  2  0
 26 27  1  0
 27 28  2  0
 28 29  1  0
  7  2  1  0
 29  8  1  0
 28 10  1  0
 24 12  1  0
 23 17  1  0
  1 30  1  0
  3 31  1  0
  4 32  1  0
  5 33  1  0
  6 34  1  0
  9 35  1  0
 13 36  1  0
 16 37  1  0
 16 38  1  0
 18 39  1  0
 19 40  1  0
 20 41  1  0
 23 42  1  0
 25 43  1  0
 26 44  1  0
 27 45  1  0
 29 46  1  0
M  END
>  <UniqueID>  (3) 
3

>  <SMILES>  (3) 
Oc1ccccc1-c1cc2c(-c3csc(Cc4cccc(Br)c4)n3)cccc2[nH]1

>  <Energy>  (3) 
120.55887103119413

>  <Genealogy>  (3) 
Oc1ccccc1-c1cc2c(-c3csc(Cc4cccc(Br)c4)n3)cccc2[nH]1 (3D coordinates assigned)
Oc1ccccc1-c1cc2c(-c3csc(Cc4cccc(Br)c4)n3)cccc2[nH]1 (optimized conformer: 120.55887103119413 kcal/mol)

>  <smiles>  (3) 
Oc1ccccc1-c1cc2c(-c3csc(Cc4cccc(Br)c4)n3)cccc2[nH]1

>  <score_type>  (3) 
oracle

>  <origin>  (3) 
adgpu

>  <m_score__min__energy>  (3) 
-10.67

>  <m_primary>  (3) 
energy

$$$$
3:0
     RDKit          3D

 44 46  0  0  0  0  0  0  0  0999 V2000
   -3.7170   22.4930  -32.7610 O   0  0  0  0  0  0  0  0  0  0  0  0
   -4.5810   22.9760  -31.9810 C   0  0  0  0  0  0  0  0  0  0  0  0
   -4.2290   24.1150  -31.1860 N   0  0  0  0  0  0  0  0  0  0  0  0
   -4.4090   24.2040  -29.7410 C   0  0  0  0  0  0  0  0  0  0  0  0
   -3.2140   23.6120  -29.0400 C   0  0  0  0  0  0  0  0  0  0  0  0
   -3.3010   22.3110  -28.5100 C   0  0  0  0  0  0  0  0  0  0  0  0
   -2.2200   21.7510  -27.8260 C   0  0  0  0  0  0  0  0  0  0  0  0
   -1.0440   22.4860  -27.6540 C   0  0  0  0  0  0  0  0  0  0  0  0
   -0.9500   23.7820  -28.1630 C   0  0  0  0  0  0  0  0  0  0  0  0
   -2.0280   24.3510  -28.8500 C   0  0  0  0  0  0  0  0  0  0  0  0
   -1.9100   25.6480  -29.3370 O   0  0  0  0  0  0  0  0  0  0  0  0
   -5.9310   22.3780  -31.9430 C   0  0  0  0  0  0  0  0  0  0  0  0
   -7.0490   23.1830  -31.6730 C   0  0  0  0  0  0  0  0  0  0  0  0
   -8.3220   22.6150  -31.5820 C   0  0  0  0  0  0  0  0  0  0  0  0
   -8.4880   21.2380  -31.7390 C   0  0  0  0  0  0  0  0  0  0  0  0
   -7.3820   20.4190  -32.0040 C   0  0  0  0  0  0  0  0  0  0  0  0
   -7.5830   18.6690  -32.1220 S   0  0  0  0  0  0  0  0  0  0  0  0
   -9.0420   18.3380  -31.9660 O   0  0  0  0  0  0  0  0  0  0  0  0
   -6.8490   18.0240  -30.9790 O   0  0  0  0  0  0  0  0  0  0  0  0
   -6.9890   17.9910  -33.6230 N   0  0  0  0  0  0  0  0  0  0  0  0
   -6.0650   18.8800  -34.3540 C   0  0  0  0  0  0  0  0  0  0  0  0
   -4.5970   18.6490  -33.9740 C   0  0  0  0  0  0  0  0  0  0  0  0
   -4.2570   17.2860  -34.0970 O   0  0  0  0  0  0  0  0  0  0  0  0
   -5.0040   16.5400  -33.1610 C   0  0  0  0  0  0  0  0  0  0  0  0
   -6.5020   16.6060  -33.4860 C   0  0  0  0  0  0  0  0  0  0  0  0
   -6.1050   20.9920  -32.0980 C   0  0  0  0  0  0  0  0  0  0  0  0
   -4.5166   25.2596  -29.4508 H   0  0  0  0  0  0  0  0  0  0  0  0
   -5.3122   23.6462  -29.4526 H   0  0  0  0  0  0  0  0  0  0  0  0
   -4.2273   21.7311  -28.6355 H   0  0  0  0  0  0  0  0  0  0  0  0
   -2.2942   20.7305  -27.4223 H   0  0  0  0  0  0  0  0  0  0  0  0
   -0.1922   22.0429  -27.1173 H   0  0  0  0  0  0  0  0  0  0  0  0
   -0.0239   24.3590  -28.0234 H   0  0  0  0  0  0  0  0  0  0  0  0
   -6.9220   24.2666  -31.5324 H   0  0  0  0  0  0  0  0  0  0  0  0
   -9.1955   23.2543  -31.3862 H   0  0  0  0  0  0  0  0  0  0  0  0
   -9.4908   20.7939  -31.6544 H   0  0  0  0  0  0  0  0  0  0  0  0
   -6.1820   18.6990  -35.4327 H   0  0  0  0  0  0  0  0  0  0  0  0
   -6.3187   19.9162  -34.0857 H   0  0  0  0  0  0  0  0  0  0  0  0
   -3.9541   19.2427  -34.6405 H   0  0  0  0  0  0  0  0  0  0  0  0
   -4.4508   18.9561  -32.9279 H   0  0  0  0  0  0  0  0  0  0  0  0
   -4.6742   15.4910  -33.1897 H   0  0  0  0  0  0  0  0  0  0  0  0
   -4.8405   16.9644  -32.1594 H   0  0  0  0  0  0  0  0  0  0  0  0
   -6.6817   16.0736  -34.4316 H   0  0  0  0  0  0  0  0  0  0  0  0
   -7.0463   16.1411  -32.6507 H   0  0  0  0  0  0  0  0  0  0  0  0
   -5.2327   20.3513  -32.2946 H   0  0  0  0  0  0  0  0  0  0  0  0
  1  2  2  0
  2  3  1  0
  3  4  1  0
  4  5  1  0
  5  6  2  0
  6  7  1  0
  7  8  2  0
  8  9  1  0
  9 10  2  0
 10 11  1  0
  2 12  1  0
 12 13  2  0
 13 14  1  0
 14 15  2  0
 15 16  1  0
 16 17  1  0
 17 18  2  0
 17 19  2  0
 17 20  1  0
 20 21  1  0
 21 22  1  0
 22 23  1  0
 23 24  1  0
 24 25  1  0
 16 26  2  0
 10  5  1  0
 26 12  1  0
 25 20  1  0
  4 27  1  0
  4 28  1  0
  6 29  1  0
  7 30  1  0
  8 31  1  0
  9 32  1  0
 13 33  1  0
 14 34  1  0
 15 35  1  0
 21 36  1  0
 21 37  1  0
 22 38  1  0
 22 39  1  0
 24 40  1  0
 24 41  1  0
 25 42  1  0
 25 43  1  0
 26 44  1  0
M  CHG  2   3  -1  11  -1
M  END
>  <UniqueID>  (4) 
4

>  <SMILES>  (4) 
O=C([N-]Cc1ccccc1[O-])c1cccc(S(=O)(=O)N2CCOCC2)c1

>  <Energy>  (4) 
54.58349607034707

>  <Genealogy>  (4) 
O=C([N-]Cc1ccccc1[O-])c1cccc(S(=O)(=O)N2CCOCC2)c1 (protonated)
O=C([N-]Cc1ccccc1[O-])c1cccc(S(=O)(=O)N2CCOCC2)c1 (3D coordinates assigned)
O=C([N-]Cc1ccccc1[O-])c1cccc(S(=O)(=O)N2CCOCC2)c1 (nonaromatic ring conformer: 54.58349607034707 kcal/mol)

>  <smiles>  (4) 
O=C(NCc1ccccc1O)c1cccc(S(=O)(=O)N2CCOCC2)c1

>  <score_type>  (4) 
oracle

>  <origin>  (4) 
adgpu

>  <m_score__min__energy>  (4) 
-13.82

>  <m_primary>  (4) 
energy

$$$$
4:0
     RDKit          3D

 38 40  0  0  0  0  0  0  0  0999 V2000
   -1.9620   22.0650  -30.5650 C   0  0  0  0  0  0  0  0  0  0  0  0
   -3.2860   22.0360  -31.2600 C   0  0  0  0  0  0  0  0  0  0  0  0
   -3.6510   21.0500  -32.1030 N   0  0  0  0  0  0  0  0  0  0  0  0
   -4.8680   21.3260  -32.5430 N   0  0  0  0  0  0  0  0  0  0  0  0
   -5.5680   20.5050  -33.5290 C   0  0  0  0  0  0  0  0  0  0  0  0
   -6.6590   19.7150  -32.8590 C   0  0  0  0  0  0  0  0  0  0  0  0
   -7.9940   20.1400  -32.9550 C   0  0  0  0  0  0  0  0  0  0  0  0
   -9.0090   19.4270  -32.3090 C   0  0  0  0  0  0  0  0  0  0  0  0
   -8.6960   18.2900  -31.5580 C   0  0  0  0  0  0  0  0  0  0  0  0
   -7.3690   17.8650  -31.4520 C   0  0  0  0  0  0  0  0  0  0  0  0
   -6.3520   18.5760  -32.0970 C   0  0  0  0  0  0  0  0  0  0  0  0
   -5.2950   22.4880  -32.0080 C   0  0  0  0  0  0  0  0  0  0  0  0
   -6.8530   23.2340  -32.3500 Cl  0  0  0  0  0  0  0  0  0  0  0  0
   -4.3050   22.9790  -31.1690 C   0  0  0  0  0  0  0  0  0  0  0  0
   -4.3350   24.2240  -30.3740 C   0  0  0  0  0  0  0  0  0  0  0  0
   -5.4390   24.7000  -29.9960 O   0  0  0  0  0  0  0  0  0  0  0  0
   -3.1150   24.9160  -30.0770 N   0  0  0  0  0  0  0  0  0  0  0  0
   -2.4220   24.9360  -28.8210 C   0  0  0  0  0  0  0  0  0  0  0  0
   -1.1010   25.4080  -28.7040 C   0  0  0  0  0  0  0  0  0  0  0  0
   -0.4720   25.4320  -27.4550 C   0  0  0  0  0  0  0  0  0  0  0  0
   -1.1580   25.0010  -26.3150 C   0  0  0  0  0  0  0  0  0  0  0  0
   -2.4760   24.5550  -26.4220 C   0  0  0  0  0  0  0  0  0  0  0  0
   -3.1090   24.5300  -27.6690 C   0  0  0  0  0  0  0  0  0  0  0  0
   -2.1192   22.0616  -29.4763 H   0  0  0  0  0  0  0  0  0  0  0  0
   -1.3768   21.1795  -30.8538 H   0  0  0  0  0  0  0  0  0  0  0  0
   -1.4162   22.9753  -30.8538 H   0  0  0  0  0  0  0  0  0  0  0  0
   -6.0093   21.1562  -34.2979 H   0  0  0  0  0  0  0  0  0  0  0  0
   -4.8527   19.8106  -33.9940 H   0  0  0  0  0  0  0  0  0  0  0  0
   -8.2424   21.0374  -33.5407 H   0  0  0  0  0  0  0  0  0  0  0  0
  -10.0538   19.7608  -32.3918 H   0  0  0  0  0  0  0  0  0  0  0  0
   -9.4948   17.7296  -31.0502 H   0  0  0  0  0  0  0  0  0  0  0  0
   -7.1241   16.9704  -30.8607 H   0  0  0  0  0  0  0  0  0  0  0  0
   -5.3078   18.2419  -32.0071 H   0  0  0  0  0  0  0  0  0  0  0  0
   -0.5623   25.7587  -29.5967 H   0  0  0  0  0  0  0  0  0  0  0  0
    0.5644   25.7906  -27.3692 H   0  0  0  0  0  0  0  0  0  0  0  0
   -0.6590   25.0135  -25.3348 H   0  0  0  0  0  0  0  0  0  0  0  0
   -3.0179   24.2226  -25.5243 H   0  0  0  0  0  0  0  0  0  0  0  0
   -4.1522   24.1897  -27.7459 H   0  0  0  0  0  0  0  0  0  0  0  0
  1  2  1  0
  2  3  2  0
  3  4  1  0
  4  5  1  0
  5  6  1  0
  6  7  2  0
  7  8  1  0
  8  9  2  0
  9 10  1  0
 10 11  2  0
  4 12  1  0
 12 13  1  0
 12 14  2  0
 14 15  1  0
 15 16  2  0
 15 17  1  0
 17 18  1  0
 18 19  2  0
 19 20  1  0
 20 21  2  0
 21 22  1  0
 22 23  2  0
 14  2  1  0
 23 18  1  0
 11  6  1  0
  1 24  1  0
  1 25  1  0
  1 26  1  0
  5 27  1  0
  5 28  1  0
  7 29  1  0
  8 30  1  0
  9 31  1  0
 10 32  1  0
 11 33  1  0
 19 34  1  0
 20 35  1  0
 21 36  1  0
 22 37  1  0
 23 38  1  0
M  CHG  1  17  -1
M  END
>  <UniqueID>  (5) 
5

>  <SMILES>  (5) 
Cc1nn(Cc2ccccc2)c(Cl)c1C(=O)[N-]c1ccccc1

>  <Energy>  (5) 
72.88239052049677

>  <Genealogy>  (5) 
Cc1nn(Cc2ccccc2)c(Cl)c1C(=O)[N-]c1ccccc1 (protonated)
Cc1nn(Cc2ccccc2)c(Cl)c1C(=O)[N-]c1ccccc1 (3D coordinates assigned)
Cc1nn(Cc2ccccc2)c(Cl)c1C(=O)[N-]c1ccccc1 (optimized conformer: 72.88239052049677 kcal/mol)

>  <smiles>  (5) 
Cc1nn(Cc2ccccc2)c(Cl)c1C(=O)Nc1ccccc1

>  <score_type>  (5) 
oracle

>  <origin>  (5) 
adgpu

>  <m_score__min__energy>  (5) 
-9.8900000000000006

>  <m_primary>  (5) 
energy

$$$$
5:0
     RDKit          3D

 37 39  0  0  0  0  0  0  0  0999 V2000
   -6.1740   17.5910  -33.8750 C   0  0  0  0  0  0  0  0  0  0  0  0
   -6.1990   18.9860  -34.1550 O   0  0  0  0  0  0  0  0  0  0  0  0
   -6.5160   19.9790  -33.2160 C   0  0  0  0  0  0  0  0  0  0  0  0
   -7.6390   19.7880  -32.4030 C   0  0  0  0  0  0  0  0  0  0  0  0
   -8.0020   20.7440  -31.4520 C   0  0  0  0  0  0  0  0  0  0  0  0
   -7.2440   21.9140  -31.3010 C   0  0  0  0  0  0  0  0  0  0  0  0
   -7.5980   22.8570  -30.3800 N   0  0  0  0  0  0  0  0  0  0  0  0
   -6.8830   24.0060  -30.2220 C   0  0  0  0  0  0  0  0  0  0  0  0
   -7.2540   24.8550  -29.3630 O   0  0  0  0  0  0  0  0  0  0  0  0
   -5.7420   24.2470  -31.0090 C   0  0  0  0  0  0  0  0  0  0  0  0
   -4.9650   25.5340  -30.8830 C   0  0  0  0  0  0  0  0  0  0  0  0
   -3.6290   25.2630  -30.3640 N   0  0  0  0  0  0  0  0  0  0  0  0
   -3.3800   24.5370  -29.1530 C   0  0  0  0  0  0  0  0  0  0  0  0
   -4.3520   24.1540  -28.4480 O   0  0  0  0  0  0  0  0  0  0  0  0
   -1.9850   24.2270  -28.7430 C   0  0  0  0  0  0  0  0  0  0  0  0
   -1.6280   22.9050  -28.4200 C   0  0  0  0  0  0  0  0  0  0  0  0
   -0.3300   22.6050  -28.0100 C   0  0  0  0  0  0  0  0  0  0  0  0
    0.6160   23.6250  -27.9290 C   0  0  0  0  0  0  0  0  0  0  0  0
    0.2700   24.8980  -28.2500 N   0  0  0  0  0  0  0  0  0  0  0  0
   -0.9880   25.2270  -28.6500 C   0  0  0  0  0  0  0  0  0  0  0  0
   -1.2390   26.4270  -28.9470 O   0  0  0  0  0  0  0  0  0  0  0  0
   -5.3620   23.2890  -31.9600 C   0  0  0  0  0  0  0  0  0  0  0  0
   -6.1100   22.1170  -32.1150 C   0  0  0  0  0  0  0  0  0  0  0  0
   -5.7480   21.1510  -33.0670 C   0  0  0  0  0  0  0  0  0  0  0  0
   -6.1712   17.4356  -32.7860 H   0  0  0  0  0  0  0  0  0  0  0  0
   -7.0637   17.1135  -34.3113 H   0  0  0  0  0  0  0  0  0  0  0  0
   -5.2677   17.1456  -34.3113 H   0  0  0  0  0  0  0  0  0  0  0  0
   -8.2423   18.8749  -32.5143 H   0  0  0  0  0  0  0  0  0  0  0  0
   -8.8861   20.5786  -30.8188 H   0  0  0  0  0  0  0  0  0  0  0  0
   -8.4400   22.7030  -29.7790 H   0  0  0  0  0  0  0  0  0  0  0  0
   -4.8820   26.0075  -31.8724 H   0  0  0  0  0  0  0  0  0  0  0  0
   -5.4915   26.2065  -30.1898 H   0  0  0  0  0  0  0  0  0  0  0  0
   -2.3778   22.1033  -28.4915 H   0  0  0  0  0  0  0  0  0  0  0  0
   -0.0547   21.5716  -27.7525 H   0  0  0  0  0  0  0  0  0  0  0  0
    1.6426   23.3989  -27.6051 H   0  0  0  0  0  0  0  0  0  0  0  0
   -4.4735   23.4595  -32.5857 H   0  0  0  0  0  0  0  0  0  0  0  0
   -4.8617   21.3095  -33.6989 H   0  0  0  0  0  0  0  0  0  0  0  0
  1  2  1  0
  2  3  1  0
  3  4  2  0
  4  5  1  0
  5  6  2  0
  6  7  1  0
  7  8  1  0
  8  9  2  0
  8 10  1  0
 10 11  1  0
 11 12  1  0
 12 13  1  0
 13 14  2  0
 13 15  1  0
 15 16  2  0
 16 17  1  0
 17 18  2  0
 18 19  1  0
 19 20  1  0
 20 21  2  0
 10 22  2  0
 22 23  1  0
 23 24  2  0
 24  3  1  0
 23  6  1  0
 20 15  1  0
  1 25  1  0
  1 26  1  0
  1 27  1  0
  4 28  1  0
  5 29  1  0
  7 30  1  0
 11 31  1  0
 11 32  1  0
 16 33  1  0
 17 34  1  0
 18 35  1  0
 22 36  1  0
 24 37  1  0
M  CHG  2  12  -1  19  -1
M  END
>  <UniqueID>  (6) 
6

>  <SMILES>  (6) 
COc1ccc2[nH]c(=O)c(C[N-]C(=O)c3ccc[n-]c3=O)cc2c1

>  <Energy>  (6) 
44.62035069522502

>  <Genealogy>  (6) 
COc1ccc2[nH]c(=O)c(C[N-]C(=O)c3ccc[n-]c3=O)cc2c1 (protonated)
COc1ccc2[nH]c(=O)c(C[N-]C(=O)c3ccc[n-]c3=O)cc2c1 (3D coordinates assigned)
COc1ccc2[nH]c(=O)c(C[N-]C(=O)c3ccc[n-]c3=O)cc2c1 (optimized conformer: 44.62035069522502 kcal/mol)

>  <smiles>  (6) 
COc1ccc2[nH]c(=O)c(CNC(=O)c3ccc[nH]c3=O)cc2c1

>  <score_type>  (6) 
oracle

>  <origin>  (6) 
adgpu

>  <m_score__min__energy>  (6) 
-10.699999999999999

>  <m_primary>  (6) 
energy

$$$$
6:0
     RDKit          3D

 56 58  0  0  0  0  0  0  0  0999 V2000
   -6.8370   25.2110  -29.9190 C   0  0  0  0  0  0  0  0  0  0  0  0
   -6.1500   24.1220  -30.6860 C   0  0  0  0  0  0  0  0  0  0  0  0
   -4.7970   24.0030  -30.9410 C   0  0  0  0  0  0  0  0  0  0  0  0
   -3.7370   24.8590  -30.5080 N   0  0  0  0  0  0  0  0  0  0  0  0
   -2.8190   24.5460  -29.0710 S   0  0  0  0  0  0  0  0  0  0  0  0
   -1.7480   25.5930  -28.9480 O   0  0  0  0  0  0  0  0  0  0  0  0
   -3.6930   24.6180  -27.8520 O   0  0  0  0  0  0  0  0  0  0  0  0
   -2.0720   22.9560  -29.1920 C   0  0  0  0  0  0  0  0  0  0  0  0
   -1.1170   22.7060  -30.1860 C   0  0  0  0  0  0  0  0  0  0  0  0
   -0.4510   21.4790  -30.2320 C   0  0  0  0  0  0  0  0  0  0  0  0
   -0.7270   20.4820  -29.2790 C   0  0  0  0  0  0  0  0  0  0  0  0
    0.0120   19.1950  -29.3000 C   0  0  0  0  0  0  0  0  0  0  0  0
   -0.0720   18.3050  -28.2220 C   0  0  0  0  0  0  0  0  0  0  0  0
    0.6250   17.0940  -28.2490 C   0  0  0  0  0  0  0  0  0  0  0  0
    0.5350   16.1960  -27.1370 N   0  0  0  0  0  0  0  0  0  0  0  0
    1.4080   16.7810  -29.3730 C   0  0  0  0  0  0  0  0  0  0  0  0
    2.0450   15.6910  -29.4060 O   0  0  0  0  0  0  0  0  0  0  0  0
    1.4830   17.6530  -30.4300 N   0  0  0  0  0  0  0  0  0  0  0  0
    2.3040   17.3160  -31.6000 C   0  0  0  0  0  0  0  0  0  0  0  0
    0.8040   18.8410  -30.4030 C   0  0  0  0  0  0  0  0  0  0  0  0
   -1.6990   20.7320  -28.2940 C   0  0  0  0  0  0  0  0  0  0  0  0
   -2.3680   21.9580  -28.2530 C   0  0  0  0  0  0  0  0  0  0  0  0
   -4.6700   22.8860  -31.7440 C   0  0  0  0  0  0  0  0  0  0  0  0
   -3.3980   22.3080  -32.2930 C   0  0  0  0  0  0  0  0  0  0  0  0
   -3.6120   20.9150  -32.9170 C   0  0  0  0  0  0  0  0  0  0  0  0
   -4.1180   19.9300  -31.8580 C   0  0  0  0  0  0  0  0  0  0  0  0
   -2.3300   20.3760  -33.5690 C   0  0  0  0  0  0  0  0  0  0  0  0
   -5.8860   22.3320  -31.9260 N   0  0  0  0  0  0  0  0  0  0  0  0
   -6.7710   23.0780  -31.2800 N   0  0  0  0  0  0  0  0  0  0  0  0
   -8.2030   22.7990  -31.2750 C   0  0  0  0  0  0  0  0  0  0  0  0
   -6.7219   25.0285  -28.8404 H   0  0  0  0  0  0  0  0  0  0  0  0
   -6.3870   26.1811  -30.1768 H   0  0  0  0  0  0  0  0  0  0  0  0
   -7.9063   25.2227  -30.1768 H   0  0  0  0  0  0  0  0  0  0  0  0
   -0.8904   23.4799  -30.9341 H   0  0  0  0  0  0  0  0  0  0  0  0
    0.2944   21.2912  -31.0189 H   0  0  0  0  0  0  0  0  0  0  0  0
   -0.6903   18.5606  -27.3488 H   0  0  0  0  0  0  0  0  0  0  0  0
   -0.1350   16.3650  -26.3550 H   0  0  0  0  0  0  0  0  0  0  0  0
    1.1510   15.3540  -27.0800 H   0  0  0  0  0  0  0  0  0  0  0  0
    3.2734   16.9181  -31.2654 H   0  0  0  0  0  0  0  0  0  0  0  0
    1.7857   16.5579  -32.2055 H   0  0  0  0  0  0  0  0  0  0  0  0
    2.4679   18.2196  -32.2055 H   0  0  0  0  0  0  0  0  0  0  0  0
    0.8802   19.5284  -31.2584 H   0  0  0  0  0  0  0  0  0  0  0  0
   -1.9344   19.9565  -27.5502 H   0  0  0  0  0  0  0  0  0  0  0  0
   -3.1299   22.1408  -27.4809 H   0  0  0  0  0  0  0  0  0  0  0  0
   -3.0057   22.9856  -33.0656 H   0  0  0  0  0  0  0  0  0  0  0  0
   -2.6896   22.1986  -31.4586 H   0  0  0  0  0  0  0  0  0  0  0  0
   -4.3694   21.0210  -33.7076 H   0  0  0  0  0  0  0  0  0  0  0  0
   -3.9116   20.3319  -30.8551 H   0  0  0  0  0  0  0  0  0  0  0  0
   -5.2017   19.7859  -31.9793 H   0  0  0  0  0  0  0  0  0  0  0  0
   -3.6040   18.9651  -31.9793 H   0  0  0  0  0  0  0  0  0  0  0  0
   -1.6181   20.0767  -32.7856 H   0  0  0  0  0  0  0  0  0  0  0  0
   -2.5750   19.5047  -34.1942 H   0  0  0  0  0  0  0  0  0  0  0  0
   -1.8788   21.1606  -34.1942 H   0  0  0  0  0  0  0  0  0  0  0  0
   -8.5594   22.7296  -30.2367 H   0  0  0  0  0  0  0  0  0  0  0  0
   -8.7364   23.6101  -31.7923 H   0  0  0  0  0  0  0  0  0  0  0  0
   -8.3929   21.8470  -31.7923 H   0  0  0  0  0  0  0  0  0  0  0  0
  1  2  1  0
  2  3  2  0
  3  4  1  0
  4  5  1  0
  5  6  2  0
  5  7  2  0
  5  8  1  0
  8  9  2  0
  9 10  1  0
 10 11  2  0
 11 12  1  0
 12 13  1  0
 13 14  2  0
 14 15  1  0
 14 16  1  0
 16 17  2  0
 16 18  1  0
 18 19  1  0
 18 20  1  0
 11 21  1  0
 21 22  2  0
  3 23  1  0
 23 24  1  0
 24 25  1  0
 25 26  1  0
 25 27  1  0
 23 28  2  0
 28 29  1  0
 29 30  1  0
 29  2  1  0
 22  8  1  0
 20 12  2  0
  1 31  1  0
  1 32  1  0
  1 33  1  0
  9 34  1  0
 10 35  1  0
 13 36  1  0
 15 37  1  0
 15 38  1  0
 19 39  1  0
 19 40  1  0
 19 41  1  0
 20 42  1  0
 21 43  1  0
 22 44  1  0
 24 45  1  0
 24 46  1  0
 25 47  1  0
 26 48  1  0
 26 49  1  0
 26 50  1  0
 27 51  1  0
 27 52  1  0
 27 53  1  0
 30 54  1  0
 30 55  1  0
 30 56  1  0
M  CHG  1   4  -1
M  END
>  <UniqueID>  (7) 
7

>  <SMILES>  (7) 
Cc1c([N-]S(=O)(=O)c2ccc(-c3cc(N)c(=O)n(C)c3)cc2)c(CC(C)C)nn1C

>  <Energy>  (7) 
92.48080439794936

>  <Genealogy>  (7) 
Cc1c([N-]S(=O)(=O)c2ccc(-c3cc(N)c(=O)n(C)c3)cc2)c(CC(C)C)nn1C (protonated)
Cc1c([N-]S(=O)(=O)c2ccc(-c3cc(N)c(=O)n(C)c3)cc2)c(CC(C)C)nn1C (3D coordinates assigned)
Cc1c([N-]S(=O)(=O)c2ccc(-c3cc(N)c(=O)n(C)c3)cc2)c(CC(C)C)nn1C (optimized conformer: 92.48080439794936 kcal/mol)

>  <smiles>  (7) 
Cc1c(NS(=O)(=O)c2ccc(-c3cc(N)c(=O)n(C)c3)cc2)c(CC(C)C)nn1C

>  <score_type>  (7) 
oracle

>  <origin>  (7) 
adgpu

>  <m_score__min__energy>  (7) 
-9.4399999999999995

>  <m_primary>  (7) 
energy

$$$$
7:0
     RDKit          3D

 49 51  0  0  0  0  0  0  0  0999 V2000
   -4.9140   14.8680  -32.8330 C   0  0  0  0  0  0  0  0  0  0  0  0
   -5.4580   16.2480  -33.0490 C   0  0  0  0  0  0  0  0  0  0  0  0
   -6.0640   16.9430  -31.9930 C   0  0  0  0  0  0  0  0  0  0  0  0
   -6.5280   18.2480  -32.1810 C   0  0  0  0  0  0  0  0  0  0  0  0
   -6.3910   18.8810  -33.4260 C   0  0  0  0  0  0  0  0  0  0  0  0
   -6.8310   20.2410  -33.5790 N   0  0  0  0  0  0  0  0  0  0  0  0
   -6.4070   21.3140  -32.7250 C   0  0  0  0  0  0  0  0  0  0  0  0
   -7.3530   22.0060  -31.9510 C   0  0  0  0  0  0  0  0  0  0  0  0
   -6.9600   23.0730  -31.1400 C   0  0  0  0  0  0  0  0  0  0  0  0
   -5.6150   23.4610  -31.0900 C   0  0  0  0  0  0  0  0  0  0  0  0
   -5.1170   24.8230  -30.0920 S   0  0  0  0  0  0  0  0  0  0  0  0
   -3.5090   25.2900  -30.5160 N   0  0  0  0  0  0  0  0  0  0  0  0
   -6.0460   25.9850  -30.3090 O   0  0  0  0  0  0  0  0  0  0  0  0
   -5.1640   24.4320  -28.6430 O   0  0  0  0  0  0  0  0  0  0  0  0
   -4.6680   22.7740  -31.8600 C   0  0  0  0  0  0  0  0  0  0  0  0
   -5.0510   21.6890  -32.6600 C   0  0  0  0  0  0  0  0  0  0  0  0
   -4.0630   21.0400  -33.4690 N   0  0  0  0  0  0  0  0  0  0  0  0
   -3.3560   19.8750  -33.0210 C   0  0  0  0  0  0  0  0  0  0  0  0
   -3.7290   19.2620  -31.9840 O   0  0  0  0  0  0  0  0  0  0  0  0
   -2.1590   19.3840  -33.7750 C   0  0  0  0  0  0  0  0  0  0  0  0
   -0.7270   20.4970  -33.5580 S   0  0  0  0  0  0  0  0  0  0  0  0
   -0.9630   20.7400  -31.7940 C   0  0  0  0  0  0  0  0  0  0  0  0
   -0.6030   19.7270  -30.8980 C   0  0  0  0  0  0  0  0  0  0  0  0
   -0.7800   19.9100  -29.5230 C   0  0  0  0  0  0  0  0  0  0  0  0
   -1.3200   21.1060  -29.0400 C   0  0  0  0  0  0  0  0  0  0  0  0
   -1.5320   21.3380  -27.3140 Cl  0  0  0  0  0  0  0  0  0  0  0  0
   -1.6970   22.1140  -29.9360 C   0  0  0  0  0  0  0  0  0  0  0  0
   -1.5280   21.9280  -31.3120 C   0  0  0  0  0  0  0  0  0  0  0  0
   -5.7580   18.1910  -34.4770 C   0  0  0  0  0  0  0  0  0  0  0  0
   -5.2930   16.8860  -34.2870 C   0  0  0  0  0  0  0  0  0  0  0  0
   -4.8357   14.6695  -31.7539 H   0  0  0  0  0  0  0  0  0  0  0  0
   -5.5891   14.1315  -33.2933 H   0  0  0  0  0  0  0  0  0  0  0  0
   -3.9180   14.7903  -33.2933 H   0  0  0  0  0  0  0  0  0  0  0  0
   -6.1749   16.4589  -31.0115 H   0  0  0  0  0  0  0  0  0  0  0  0
   -7.0044   18.7832  -31.3464 H   0  0  0  0  0  0  0  0  0  0  0  0
   -7.5000   20.4620  -34.3480 H   0  0  0  0  0  0  0  0  0  0  0  0
   -8.4107   21.7055  -31.9838 H   0  0  0  0  0  0  0  0  0  0  0  0
   -7.7086   23.6100  -30.5390 H   0  0  0  0  0  0  0  0  0  0  0  0
   -3.5900   26.0460  -31.2340 H   0  0  0  0  0  0  0  0  0  0  0  0
   -3.6143   23.0889  -31.8366 H   0  0  0  0  0  0  0  0  0  0  0  0
   -3.6850   21.5690  -34.2880 H   0  0  0  0  0  0  0  0  0  0  0  0
   -1.8917   18.3821  -33.4078 H   0  0  0  0  0  0  0  0  0  0  0  0
   -2.4137   19.3544  -34.8447 H   0  0  0  0  0  0  0  0  0  0  0  0
   -0.1799   18.7847  -31.2762 H   0  0  0  0  0  0  0  0  0  0  0  0
   -0.4943   19.1128  -28.8210 H   0  0  0  0  0  0  0  0  0  0  0  0
   -2.1265   23.0532  -29.5573 H   0  0  0  0  0  0  0  0  0  0  0  0
   -1.8387   22.7144  -32.0156 H   0  0  0  0  0  0  0  0  0  0  0  0
   -5.6284   18.6811  -35.4532 H   0  0  0  0  0  0  0  0  0  0  0  0
   -4.7951   16.3570  -35.1130 H   0  0  0  0  0  0  0  0  0  0  0  0
  1  2  1  0
  2  3  2  0
  3  4  1  0
  4  5  2  0
  5  6  1  0
  6  7  1  0
  7  8  2  0
  8  9  1  0
  9 10  2  0
 10 11  1  0
 11 12  1  0
 11 13  2  0
 11 14  2  0
 10 15  1  0
 15 16  2  0
 16 17  1  0
 17 18  1  0
 18 19  2  0
 18 20  1  0
 20 21  1  0
 21 22  1  0
 22 23  2  0
 23 24  1  0
 24 25  2  0
 25 26  1  0
 25 27  1  0
 27 28  2  0
  5 29  1  0
 29 30  2  0
 30  2  1  0
 16  7  1  0
 28 22  1  0
  1 31  1  0
  1 32  1  0
  1 33  1  0
  3 34  1  0
  4 35  1  0
  6 36  1  0
  8 37  1  0
  9 38  1  0
 12 39  1  0
 15 40  1  0
 17 41  1  0
 20 42  1  0
 20 43  1  0
 23 44  1  0
 24 45  1  0
 27 46  1  0
 28 47  1  0
 29 48  1  0
 30 49  1  0
M  CHG  1  12  -1
M  END
>  <UniqueID>  (8) 
8

>  <SMILES>  (8) 
Cc1ccc(Nc2ccc(S([NH-])(=O)=O)cc2NC(=O)CSc2ccc(Cl)cc2)cc1

>  <Energy>  (8) 
54.02471110236454

>  <Genealogy>  (8) 
Cc1ccc(Nc2ccc(S([NH-])(=O)=O)cc2NC(=O)CSc2ccc(Cl)cc2)cc1 (protonated)
Cc1ccc(Nc2ccc(S([NH-])(=O)=O)cc2NC(=O)CSc2ccc(Cl)cc2)cc1 (3D coordinates assigned)
Cc1ccc(Nc2ccc(S([NH-])(=O)=O)cc2NC(=O)CSc2ccc(Cl)cc2)cc1 (optimized conformer: 54.02471110236454 kcal/mol)

>  <smiles>  (8) 
Cc1ccc(Nc2ccc(S(N)(=O)=O)cc2NC(=O)CSc2ccc(Cl)cc2)cc1

>  <score_type>  (8) 
oracle

>  <origin>  (8) 
adgpu

>  <m_score__min__energy>  (8) 
-12.08

>  <m_primary>  (8) 
energy

$$$$
8:0
     RDKit          3D

 52 55  0  0  0  0  0  0  0  0999 V2000
   -4.2600   25.6810  -30.7850 O   0  0  0  0  0  0  0  0  0  0  0  0
   -4.1760   24.4400  -30.5820 C   0  0  0  0  0  0  0  0  0  0  0  0
   -5.3570   23.5920  -30.8370 C   0  0  0  0  0  0  0  0  0  0  0  0
   -5.7100   23.2310  -32.1480 C   0  0  0  0  0  0  0  0  0  0  0  0
   -6.8630   22.4770  -32.3860 C   0  0  0  0  0  0  0  0  0  0  0  0
   -7.6650   22.0680  -31.3170 C   0  0  0  0  0  0  0  0  0  0  0  0
   -9.1240   21.1450  -31.6180 Cl  0  0  0  0  0  0  0  0  0  0  0  0
   -7.3020   22.3970  -30.0060 C   0  0  0  0  0  0  0  0  0  0  0  0
   -6.1490   23.1490  -29.7650 C   0  0  0  0  0  0  0  0  0  0  0  0
   -2.8960   23.8710  -30.1010 C   0  0  0  0  0  0  0  0  0  0  0  0
   -1.9230   24.5510  -29.3950 C   0  0  0  0  0  0  0  0  0  0  0  0
   -1.9830   25.8720  -28.9680 O   0  0  0  0  0  0  0  0  0  0  0  0
   -0.8750   23.6830  -29.2040 C   0  0  0  0  0  0  0  0  0  0  0  0
    0.3250   23.9940  -28.5670 O   0  0  0  0  0  0  0  0  0  0  0  0
   -1.1500   22.4820  -29.7550 N   0  0  0  0  0  0  0  0  0  0  0  0
   -0.2070   21.3620  -29.8650 C   0  0  0  0  0  0  0  0  0  0  0  0
   -0.8380   20.0520  -29.3790 C   0  0  0  0  0  0  0  0  0  0  0  0
   -0.4750   19.7990  -27.9660 N   0  0  0  0  0  0  0  0  0  0  0  0
   -0.2990   21.0510  -27.1990 C   0  0  0  0  0  0  0  0  0  0  0  0
   -1.6430   21.6250  -26.6960 C   0  0  0  0  0  0  0  0  0  0  0  0
   -2.7420   20.9810  -27.3070 O   0  0  0  0  0  0  0  0  0  0  0  0
   -2.7570   19.6130  -26.9450 C   0  0  0  0  0  0  0  0  0  0  0  0
   -1.4260   18.9020  -27.2820 C   0  0  0  0  0  0  0  0  0  0  0  0
   -2.3820   22.5910  -30.3190 C   0  0  0  0  0  0  0  0  0  0  0  0
   -3.0060   21.5540  -31.1630 C   0  0  0  0  0  0  0  0  0  0  0  0
   -4.1190   20.8380  -30.6980 C   0  0  0  0  0  0  0  0  0  0  0  0
   -4.7500   19.9020  -31.5220 C   0  0  0  0  0  0  0  0  0  0  0  0
   -4.2770   19.6820  -32.8190 C   0  0  0  0  0  0  0  0  0  0  0  0
   -3.1700   20.3950  -33.2920 C   0  0  0  0  0  0  0  0  0  0  0  0
   -2.7090   20.1840  -34.5850 O   0  0  0  0  0  0  0  0  0  0  0  0
   -2.5330   21.3260  -32.4650 C   0  0  0  0  0  0  0  0  0  0  0  0
   -5.0762   23.5431  -32.9912 H   0  0  0  0  0  0  0  0  0  0  0  0
   -7.1392   22.2054  -33.4155 H   0  0  0  0  0  0  0  0  0  0  0  0
   -7.9255   22.0630  -29.1636 H   0  0  0  0  0  0  0  0  0  0  0  0
   -5.8608   23.3948  -28.7323 H   0  0  0  0  0  0  0  0  0  0  0  0
    0.6930   24.9370  -28.5780 H   0  0  0  0  0  0  0  0  0  0  0  0
    0.0914   21.2470  -30.9175 H   0  0  0  0  0  0  0  0  0  0  0  0
    0.6670   21.5811  -29.2341 H   0  0  0  0  0  0  0  0  0  0  0  0
   -1.9323   20.1226  -29.4653 H   0  0  0  0  0  0  0  0  0  0  0  0
   -0.4634   19.2235  -29.9981 H   0  0  0  0  0  0  0  0  0  0  0  0
    0.3452   20.8465  -26.3311 H   0  0  0  0  0  0  0  0  0  0  0  0
    0.1547   21.7954  -27.8698 H   0  0  0  0  0  0  0  0  0  0  0  0
   -1.7066   21.4843  -25.6069 H   0  0  0  0  0  0  0  0  0  0  0  0
   -1.6809   22.6932  -26.9557 H   0  0  0  0  0  0  0  0  0  0  0  0
   -2.9351   19.5356  -25.8623 H   0  0  0  0  0  0  0  0  0  0  0  0
   -3.5558   19.1216  -27.5198 H   0  0  0  0  0  0  0  0  0  0  0  0
   -0.9679   18.5455  -26.3476 H   0  0  0  0  0  0  0  0  0  0  0  0
   -1.6510   18.0661  -27.9607 H   0  0  0  0  0  0  0  0  0  0  0  0
   -4.4969   21.0140  -29.6801 H   0  0  0  0  0  0  0  0  0  0  0  0
   -5.6185   19.3386  -31.1501 H   0  0  0  0  0  0  0  0  0  0  0  0
   -4.7757   18.9475  -33.4684 H   0  0  0  0  0  0  0  0  0  0  0  0
   -1.6588   21.8812  -32.8359 H   0  0  0  0  0  0  0  0  0  0  0  0
  1  2  2  0
  2  3  1  0
  3  4  2  0
  4  5  1  0
  5  6  2  0
  6  7  1  0
  6  8  1  0
  8  9  2  0
  2 10  1  0
 10 11  1  0
 11 12  1  0
 11 13  2  0
 13 14  1  0
 13 15  1  0
 15 16  1  0
 16 17  1  0
 17 18  1  0
 18 19  1  0
 19 20  1  0
 20 21  1  0
 21 22  1  0
 22 23  1  0
 15 24  1  0
 24 25  1  0
 25 26  2  0
 26 27  1  0
 27 28  2  0
 28 29  1  0
 29 30  1  0
 29 31  2  0
  9  3  1  0
 24 10  2  0
 31 25  1  0
 23 18  1  0
  4 32  1  0
  5 33  1  0
  8 34  1  0
  9 35  1  0
 14 36  1  0
 16 37  1  0
 16 38  1  0
 17 39  1  0
 17 40  1  0
 19 41  1  0
 19 42  1  0
 20 43  1  0
 20 44  1  0
 22 45  1  0
 22 46  1  0
 23 47  1  0
 23 48  1  0
 26 49  1  0
 27 50  1  0
 28 51  1  0
 31 52  1  0
M  CHG  2  12  -1  30  -1
M  END
>  <UniqueID>  (9) 
9

>  <SMILES>  (9) 
O=C(c1ccc(Cl)cc1)c1c([O-])c(O)n(CCN2CCOCC2)c1-c1cccc([O-])c1

>  <Energy>  (9) 
103.7385015979458

>  <Genealogy>  (9) 
O=C(c1ccc(Cl)cc1)c1c([O-])c(O)n(CCN2CCOCC2)c1-c1cccc([O-])c1 (protonated)
O=C(c1ccc(Cl)cc1)c1c([O-])c(O)n(CCN2CCOCC2)c1-c1cccc([O-])c1 (3D coordinates assigned)
O=C(c1ccc(Cl)cc1)c1c([O-])c(O)n(CCN2CCOCC2)c1-c1cccc([O-])c1 (nonaromatic ring conformer: 103.7385015979458 kcal/mol)

>  <smiles>  (9) 
O=C(c1ccc(Cl)cc1)c1c(O)c(O)n(CCN2CCOCC2)c1-c1cccc(O)c1

>  <score_type>  (9) 
oracle

>  <origin>  (9) 
adgpu

>  <m_score__min__energy>  (9) 
-12.31

>  <m_primary>  (9) 
energy

$$$$
9:0
     RDKit          3D

 44 46  0  0  0  0  0  0  0  0999 V2000
   -3.6400   24.5450  -30.7340 O   0  0  0  0  0  0  0  0  0  0  0  0
   -3.2730   23.3720  -30.4520 C   0  0  0  0  0  0  0  0  0  0  0  0
   -1.8330   23.1140  -30.1180 C   0  0  0  0  0  0  0  0  0  0  0  0
   -1.5440   23.5060  -28.6880 C   0  0  0  0  0  0  0  0  0  0  0  0
   -1.2470   24.8490  -28.3750 C   0  0  0  0  0  0  0  0  0  0  0  0
   -1.2520   25.8050  -29.3390 F   0  0  0  0  0  0  0  0  0  0  0  0
   -0.9470   25.2190  -27.0610 C   0  0  0  0  0  0  0  0  0  0  0  0
   -0.9340   24.2620  -26.0470 C   0  0  0  0  0  0  0  0  0  0  0  0
   -1.2200   22.9280  -26.3420 C   0  0  0  0  0  0  0  0  0  0  0  0
   -1.5230   22.5410  -27.6530 C   0  0  0  0  0  0  0  0  0  0  0  0
   -1.8700   20.8410  -27.9540 Cl  0  0  0  0  0  0  0  0  0  0  0  0
   -4.2320   22.3050  -30.3710 N   0  0  0  0  0  0  0  0  0  0  0  0
   -5.6030   22.4210  -30.7880 C   0  0  0  0  0  0  0  0  0  0  0  0
   -6.2490   23.6670  -30.8670 C   0  0  0  0  0  0  0  0  0  0  0  0
   -7.5400   23.7410  -31.2860 N   0  0  0  0  0  0  0  0  0  0  0  0
   -8.2430   22.6340  -31.6430 C   0  0  0  0  0  0  0  0  0  0  0  0
   -7.6380   21.3730  -31.6010 C   0  0  0  0  0  0  0  0  0  0  0  0
   -8.5390   19.9290  -32.0660 S   0  0  0  0  0  0  0  0  0  0  0  0
   -8.9380   19.1760  -30.8270 O   0  0  0  0  0  0  0  0  0  0  0  0
   -9.7930   20.3410  -32.7850 O   0  0  0  0  0  0  0  0  0  0  0  0
   -7.5990   18.8810  -33.0990 N   0  0  0  0  0  0  0  0  0  0  0  0
   -6.5700   19.6510  -33.8170 C   0  0  0  0  0  0  0  0  0  0  0  0
   -5.6380   18.7060  -34.6030 C   0  0  0  0  0  0  0  0  0  0  0  0
   -6.1050   17.3710  -34.5670 O   0  0  0  0  0  0  0  0  0  0  0  0
   -6.1200   16.9050  -33.2300 C   0  0  0  0  0  0  0  0  0  0  0  0
   -6.9700   17.8100  -32.3120 C   0  0  0  0  0  0  0  0  0  0  0  0
   -6.3060   21.2770  -31.1810 C   0  0  0  0  0  0  0  0  0  0  0  0
   -1.6165   22.0437  -30.2509 H   0  0  0  0  0  0  0  0  0  0  0  0
   -1.1991   23.7146  -30.7870 H   0  0  0  0  0  0  0  0  0  0  0  0
   -0.7202   26.2694  -26.8259 H   0  0  0  0  0  0  0  0  0  0  0  0
   -0.6983   24.5584  -25.0142 H   0  0  0  0  0  0  0  0  0  0  0  0
   -1.2072   22.1760  -25.5393 H   0  0  0  0  0  0  0  0  0  0  0  0
   -3.9410   21.4230  -29.8930 H   0  0  0  0  0  0  0  0  0  0  0  0
   -5.7087   24.5840  -30.5892 H   0  0  0  0  0  0  0  0  0  0  0  0
   -9.2902   22.7296  -31.9658 H   0  0  0  0  0  0  0  0  0  0  0  0
   -7.0593   20.3427  -34.5185 H   0  0  0  0  0  0  0  0  0  0  0  0
   -5.9714   20.2133  -33.0852 H   0  0  0  0  0  0  0  0  0  0  0  0
   -5.5902   19.0401  -35.6499 H   0  0  0  0  0  0  0  0  0  0  0  0
   -4.6420   18.7365  -34.1370 H   0  0  0  0  0  0  0  0  0  0  0  0
   -6.5390   15.8881  -33.2129 H   0  0  0  0  0  0  0  0  0  0  0  0
   -5.0860   16.9154  -32.8547 H   0  0  0  0  0  0  0  0  0  0  0  0
   -7.7524   17.2060  -31.8292 H   0  0  0  0  0  0  0  0  0  0  0  0
   -6.3191   18.2600  -31.5479 H   0  0  0  0  0  0  0  0  0  0  0  0
   -5.8090   20.2959  -31.1598 H   0  0  0  0  0  0  0  0  0  0  0  0
  1  2  2  0
  2  3  1  0
  3  4  1  0
  4  5  2  0
  5  6  1  0
  5  7  1  0
  7  8  2  0
  8  9  1  0
  9 10  2  0
 10 11  1  0
  2 12  1  0
 12 13  1  0
 13 14  2  0
 14 15  1  0
 15 16  2  0
 16 17  1  0
 17 18  1  0
 18 19  2  0
 18 20  2  0
 18 21  1  0
 21 22  1  0
 22 23  1  0
 23 24  1  0
 24 25  1  0
 25 26  1  0
 17 27  2  0
 10  4  1  0
 27 13  1  0
 26 21  1  0
  3 28  1  0
  3 29  1  0
  7 30  1  0
  8 31  1  0
  9 32  1  0
 12 33  1  0
 14 34  1  0
 16 35  1  0
 22 36  1  0
 22 37  1  0
 23 38  1  0
 23 39  1  0
 25 40  1  0
 25 41  1  0
 26 42  1  0
 26 43  1  0
 27 44  1  0
M  END
>  <UniqueID>  (10) 
10

>  <SMILES>  (10) 
O=C(Cc1c(F)cccc1Cl)Nc1cncc(S(=O)(=O)N2CCOCC2)c1

>  <Energy>  (10) 
56.5509607367763

>  <Genealogy>  (10) 
O=C(Cc1c(F)cccc1Cl)Nc1cncc(S(=O)(=O)N2CCOCC2)c1 (3D coordinates assigned)
O=C(Cc1c(F)cccc1Cl)Nc1cncc(S(=O)(=O)N2CCOCC2)c1 (nonaromatic ring conformer: 56.5509607367763 kcal/mol)

>  <smiles>  (10) 
O=C(Cc1c(F)cccc1Cl)Nc1cncc(S(=O)(=O)N2CCOCC2)c1

>  <score_type>  (10) 
oracle

>  <origin>  (10) 
adgpu

>  <m_score__min__energy>  (10) 
-9.6099999999999994

>  <m_primary>  (10) 
energy

$$$$
10:0
     RDKit          3D

 73 77  0  0  0  0  0  0  0  0999 V2000
    2.1970   24.5610  -27.9860 C   0  0  0  0  0  0  0  0  0  0  0  0
    0.8240   24.8640  -28.2110 O   0  0  0  0  0  0  0  0  0  0  0  0
   -0.0980   25.1720  -27.1960 C   0  0  0  0  0  0  0  0  0  0  0  0
    0.2590   25.1760  -25.8330 C   0  0  0  0  0  0  0  0  0  0  0  0
   -0.7010   25.4430  -24.8530 C   0  0  0  0  0  0  0  0  0  0  0  0
   -2.0210   25.7100  -25.2200 C   0  0  0  0  0  0  0  0  0  0  0  0
   -2.3810   25.7210  -26.5680 C   0  0  0  0  0  0  0  0  0  0  0  0
   -1.4230   25.4630  -27.5570 C   0  0  0  0  0  0  0  0  0  0  0  0
   -1.7970   25.4740  -28.9350 N   0  0  0  0  0  0  0  0  0  0  0  0
   -3.1360   24.5360  -29.4970 S   0  0  0  0  0  0  0  0  0  0  0  0
   -3.8580   25.2980  -30.5730 O   0  0  0  0  0  0  0  0  0  0  0  0
   -4.0970   24.2700  -28.3710 O   0  0  0  0  0  0  0  0  0  0  0  0
   -2.5160   23.0210  -30.1440 C   0  0  0  0  0  0  0  0  0  0  0  0
   -1.1420   22.7570  -30.0950 C   0  0  0  0  0  0  0  0  0  0  0  0
   -0.6290   21.5950  -30.6780 C   0  0  0  0  0  0  0  0  0  0  0  0
   -1.4850   20.6880  -31.3190 C   0  0  0  0  0  0  0  0  0  0  0  0
   -0.9520   19.5070  -31.9380 N   0  0  0  0  0  0  0  0  0  0  0  0
   -0.1630   18.5830  -31.3470 C   0  0  0  0  0  0  0  0  0  0  0  0
    0.2520   18.5990  -29.9070 C   0  0  0  0  0  0  0  0  0  0  0  0
    0.1750   17.5930  -32.2500 C   0  0  0  0  0  0  0  0  0  0  0  0
   -0.4250   17.9340  -33.4490 C   0  0  0  0  0  0  0  0  0  0  0  0
   -0.3210   17.1590  -34.6990 C   0  0  0  0  0  0  0  0  0  0  0  0
    0.5040   17.4960  -35.5920 O   0  0  0  0  0  0  0  0  0  0  0  0
   -1.1240   15.9870  -34.8730 N   0  0  0  0  0  0  0  0  0  0  0  0
   -2.2860   15.6580  -34.1020 C   0  0  0  0  0  0  0  0  0  0  0  0
   -3.4560   16.4040  -34.2980 C   0  0  0  0  0  0  0  0  0  0  0  0
   -4.6180   16.1100  -33.5690 C   0  0  0  0  0  0  0  0  0  0  0  0
   -6.0790   17.0690  -33.7960 S   0  0  0  0  0  0  0  0  0  0  0  0
   -5.8250   18.0760  -34.8840 O   0  0  0  0  0  0  0  0  0  0  0  0
   -7.2030   16.1720  -34.2310 O   0  0  0  0  0  0  0  0  0  0  0  0
   -6.4730   17.8750  -32.2900 N   0  0  0  0  0  0  0  0  0  0  0  0
   -7.9060   18.2410  -32.2230 C   0  0  0  0  0  0  0  0  0  0  0  0
   -8.1660   19.7090  -32.6170 C   0  0  0  0  0  0  0  0  0  0  0  0
   -7.2170   20.1390  -33.5670 O   0  0  0  0  0  0  0  0  0  0  0  0
   -5.9320   20.2250  -32.9750 C   0  0  0  0  0  0  0  0  0  0  0  0
   -5.5960   19.0340  -32.0470 C   0  0  0  0  0  0  0  0  0  0  0  0
   -4.6140   15.0450  -32.6600 C   0  0  0  0  0  0  0  0  0  0  0  0
   -3.4590   14.2810  -32.4780 C   0  0  0  0  0  0  0  0  0  0  0  0
   -2.2980   14.5750  -33.2000 C   0  0  0  0  0  0  0  0  0  0  0  0
   -1.1770   13.7680  -33.0390 O   0  0  0  0  0  0  0  0  0  0  0  0
   -1.1230   19.1160  -33.2240 C   0  0  0  0  0  0  0  0  0  0  0  0
   -1.9770   19.8350  -34.2300 C   0  0  0  0  0  0  0  0  0  0  0  0
   -2.8620   20.9490  -31.3590 C   0  0  0  0  0  0  0  0  0  0  0  0
   -3.3750   22.1120  -30.7790 C   0  0  0  0  0  0  0  0  0  0  0  0
    2.3905   24.5183  -26.9040 H   0  0  0  0  0  0  0  0  0  0  0  0
    2.4370   23.5883  -28.4401 H   0  0  0  0  0  0  0  0  0  0  0  0
    2.8241   25.3424  -28.4401 H   0  0  0  0  0  0  0  0  0  0  0  0
    1.2983   24.9680  -25.5388 H   0  0  0  0  0  0  0  0  0  0  0  0
   -0.4158   25.4427  -23.7906 H   0  0  0  0  0  0  0  0  0  0  0  0
   -2.7771   25.9116  -24.4469 H   0  0  0  0  0  0  0  0  0  0  0  0
   -3.4214   25.9331  -26.8553 H   0  0  0  0  0  0  0  0  0  0  0  0
   -0.4645   23.4659  -29.5964 H   0  0  0  0  0  0  0  0  0  0  0  0
    0.4510   21.3910  -30.6338 H   0  0  0  0  0  0  0  0  0  0  0  0
   -0.6422   18.5645  -29.2673 H   0  0  0  0  0  0  0  0  0  0  0  0
    0.8860   17.7246  -29.6984 H   0  0  0  0  0  0  0  0  0  0  0  0
    0.8168   19.5196  -29.6984 H   0  0  0  0  0  0  0  0  0  0  0  0
    0.7984   16.7081  -32.0540 H   0  0  0  0  0  0  0  0  0  0  0  0
   -3.4633   17.2261  -35.0288 H   0  0  0  0  0  0  0  0  0  0  0  0
   -8.4679   17.5884  -32.9074 H   0  0  0  0  0  0  0  0  0  0  0  0
   -8.2320   18.1149  -31.1800 H   0  0  0  0  0  0  0  0  0  0  0  0
   -9.1745   19.7954  -33.0476 H   0  0  0  0  0  0  0  0  0  0  0  0
   -8.0827   20.3392  -31.7193 H   0  0  0  0  0  0  0  0  0  0  0  0
   -5.1811   20.2626  -33.7780 H   0  0  0  0  0  0  0  0  0  0  0  0
   -5.9243   21.1313  -32.3517 H   0  0  0  0  0  0  0  0  0  0  0  0
   -4.5529   18.7319  -32.2218 H   0  0  0  0  0  0  0  0  0  0  0  0
   -5.7489   19.3615  -31.0081 H   0  0  0  0  0  0  0  0  0  0  0  0
   -5.5232   14.8093  -32.0875 H   0  0  0  0  0  0  0  0  0  0  0  0
   -3.4626   13.4445  -31.7637 H   0  0  0  0  0  0  0  0  0  0  0  0
   -2.7165   20.4576  -33.7050 H   0  0  0  0  0  0  0  0  0  0  0  0
   -1.3414   20.4739  -34.8607 H   0  0  0  0  0  0  0  0  0  0  0  0
   -2.4983   19.0998  -34.8607 H   0  0  0  0  0  0  0  0  0  0  0  0
   -3.5410   20.2355  -31.8488 H   0  0  0  0  0  0  0  0  0  0  0  0
   -4.4553   22.3153  -30.8205 H   0  0  0  0  0  0  0  0  0  0  0  0
  1  2  1  0
  2  3  1  0
  3  4  2  0
  4  5  1  0
  5  6  2  0
  6  7  1  0
  7  8  2  0
  8  9  1  0
  9 10  1  0
 10 11  2  0
 10 12  2  0
 10 13  1  0
 13 14  2  0
 14 15  1  0
 15 16  2  0
 16 17  1  0
 17 18  1  0
 18 19  1  0
 18 20  2  0
 20 21  1  0
 21 22  1  0
 22 23  2  0
 22 24  1  0
 24 25  1  0
 25 26  2  0
 26 27  1  0
 27 28  1  0
 28 29  2  0
 28 30  2  0
 28 31  1  0
 31 32  1  0
 32 33  1  0
 33 34  1  0
 34 35  1  0
 35 36  1  0
 27 37  2  0
 37 38  1  0
 38 39  2  0
 39 40  1  0
 21 41  2  0
 41 42  1  0
 16 43  1  0
 43 44  2  0
  8  3  1  0
 44 13  1  0
 41 17  1  0
 39 25  1  0
 36 31  1  0
  1 45  1  0
  1 46  1  0
  1 47  1  0
  4 48  1  0
  5 49  1  0
  6 50  1  0
  7 51  1  0
 14 52  1  0
 15 53  1  0
 19 54  1  0
 19 55  1  0
 19 56  1  0
 20 57  1  0
 26 58  1  0
 32 59  1  0
 32 60  1  0
 33 61  1  0
 33 62  1  0
 35 63  1  0
 35 64  1  0
 36 65  1  0
 36 66  1  0
 37 67  1  0
 38 68  1  0
 42 69  1  0
 42 70  1  0
 42 71  1  0
 43 72  1  0
 44 73  1  0
M  CHG  3   9  -1  24  -1  40  -1
M  END
>  <UniqueID>  (11) 
11

>  <SMILES>  (11) 
COc1ccccc1[N-]S(=O)(=O)c1ccc(-n2c(C)cc(C(=O)[N-]c3cc(S(=O)(=O)N4CCOCC4)ccc3[O-])c2C)cc1

>  <Energy>  (11) 
133.71275875862247

>  <Genealogy>  (11) 
COc1ccccc1[N-]S(=O)(=O)c1ccc(-n2c(C)cc(C(=O)[N-]c3cc(S(=O)(=O)N4CCOCC4)ccc3[O-])c2C)cc1 (protonated)
COc1ccccc1[N-]S(=O)(=O)c1ccc(-n2c(C)cc(C(=O)[N-]c3cc(S(=O)(=O)N4CCOCC4)ccc3[O-])c2C)cc1 (3D coordinates assigned)
COc1ccccc1[N-]S(=O)(=O)c1ccc(-n2c(C)cc(C(=O)[N-]c3cc(S(=O)(=O)N4CCOCC4)ccc3[O-])c2C)cc1 (nonaromatic ring conformer: 133.71275875862247 kcal/mol)

>  <smiles>  (11) 
COc1ccccc1NS(=O)(=O)c1ccc(-n2c(C)cc(C(=O)Nc3cc(S(=O)(=O)N4CCOCC4)ccc3O)c2C)cc1

>  <score_type>  (11) 
oracle

>  <origin>  (11) 
adgpu

>  <m_score__min__energy>  (11) 
-15.69

>  <m_primary>  (11) 
energy

$$$$
11:0
     RDKit          3D

 45 47  0  0  0  0  0  0  0  0999 V2000
   -7.8730   18.2950  -31.6070 C   0  0  0  0  0  0  0  0  0  0  0  0
   -8.7320   19.3120  -31.0070 N   0  0  0  0  0  0  0  0  0  0  0  0
   -8.8910   20.6600  -32.0900 S   0  0  0  0  0  0  0  0  0  0  0  0
  -10.3270   21.1010  -32.1430 O   0  0  0  0  0  0  0  0  0  0  0  0
   -8.4720   20.2380  -33.4710 O   0  0  0  0  0  0  0  0  0  0  0  0
   -7.8640   21.9930  -31.5640 C   0  0  0  0  0  0  0  0  0  0  0  0
   -7.1500   22.7370  -32.5110 C   0  0  0  0  0  0  0  0  0  0  0  0
   -6.3100   23.7760  -32.1040 C   0  0  0  0  0  0  0  0  0  0  0  0
   -6.1620   24.0780  -30.7400 C   0  0  0  0  0  0  0  0  0  0  0  0
   -5.2610   25.1750  -30.3150 C   0  0  0  0  0  0  0  0  0  0  0  0
   -5.7100   26.3500  -30.2610 O   0  0  0  0  0  0  0  0  0  0  0  0
   -3.8980   24.9440  -29.9200 N   0  0  0  0  0  0  0  0  0  0  0  0
   -3.1790   23.9120  -30.2480 C   0  0  0  0  0  0  0  0  0  0  0  0
   -3.5920   22.9310  -31.0780 N   0  0  0  0  0  0  0  0  0  0  0  0
   -2.6370   21.9770  -31.2580 C   0  0  0  0  0  0  0  0  0  0  0  0
   -2.8890   20.7900  -32.1160 C   0  0  0  0  0  0  0  0  0  0  0  0
   -4.1850   20.5440  -32.6060 C   0  0  0  0  0  0  0  0  0  0  0  0
   -4.4460   19.4240  -33.4010 C   0  0  0  0  0  0  0  0  0  0  0  0
   -3.4190   18.5290  -33.7150 C   0  0  0  0  0  0  0  0  0  0  0  0
   -3.7590   17.1040  -34.6910 S   0  0  0  0  0  0  0  0  0  0  0  0
   -4.3570   15.7980  -33.6420 C   0  0  0  0  0  0  0  0  0  0  0  0
   -4.7970   17.4350  -35.7270 O   0  0  0  0  0  0  0  0  0  0  0  0
   -2.5080   16.6500  -35.3900 O   0  0  0  0  0  0  0  0  0  0  0  0
   -2.1270   18.7580  -33.2250 C   0  0  0  0  0  0  0  0  0  0  0  0
   -1.8620   19.8800  -32.4340 C   0  0  0  0  0  0  0  0  0  0  0  0
   -1.4420   22.2240  -30.5730 C   0  0  0  0  0  0  0  0  0  0  0  0
   -1.6080   23.6670  -29.7210 S   0  0  0  0  0  0  0  0  0  0  0  0
   -6.8970   23.3420  -29.7940 C   0  0  0  0  0  0  0  0  0  0  0  0
   -7.7330   22.3010  -30.2030 C   0  0  0  0  0  0  0  0  0  0  0  0
   -7.3823   17.7141  -30.8122 H   0  0  0  0  0  0  0  0  0  0  0  0
   -8.4809   17.6229  -32.2304 H   0  0  0  0  0  0  0  0  0  0  0  0
   -7.1086   18.7819  -32.2304 H   0  0  0  0  0  0  0  0  0  0  0  0
   -9.6860   18.8960  -30.8920 H   0  0  0  0  0  0  0  0  0  0  0  0
   -7.2511   22.5021  -33.5809 H   0  0  0  0  0  0  0  0  0  0  0  0
   -5.7609   24.3615  -32.8562 H   0  0  0  0  0  0  0  0  0  0  0  0
   -5.0009   21.2399  -32.3611 H   0  0  0  0  0  0  0  0  0  0  0  0
   -5.4630   19.2464  -33.7808 H   0  0  0  0  0  0  0  0  0  0  0  0
   -4.2256   16.0849  -32.5882 H   0  0  0  0  0  0  0  0  0  0  0  0
   -5.4242   15.6246  -33.8445 H   0  0  0  0  0  0  0  0  0  0  0  0
   -3.7910   14.8768  -33.8445 H   0  0  0  0  0  0  0  0  0  0  0  0
   -1.3176   18.0523  -33.4634 H   0  0  0  0  0  0  0  0  0  0  0  0
   -0.8433   20.0535  -32.0570 H   0  0  0  0  0  0  0  0  0  0  0  0
   -0.5470   21.5847  -30.5885 H   0  0  0  0  0  0  0  0  0  0  0  0
   -6.8130   23.5877  -28.7251 H   0  0  0  0  0  0  0  0  0  0  0  0
   -8.2911   21.7202  -29.4539 H   0  0  0  0  0  0  0  0  0  0  0  0
  1  2  1  0
  2  3  1  0
  3  4  2  0
  3  5  2  0
  3  6  1  0
  6  7  2  0
  7  8  1  0
  8  9  2  0
  9 10  1  0
 10 11  2  0
 10 12  1  0
 12 13  2  3
 13 14  1  0
 14 15  1  0
 15 16  1  0
 16 17  2  0
 17 18  1  0
 18 19  2  0
 19 20  1  0
 20 21  1  0
 20 22  2  0
 20 23  2  0
 19 24  1  0
 24 25  2  0
 15 26  2  0
 26 27  1  0
  9 28  1  0
 28 29  2  0
 29  6  1  0
 27 13  1  0
 25 16  1  0
  1 30  1  0
  1 31  1  0
  1 32  1  0
  2 33  1  0
  7 34  1  0
  8 35  1  0
 17 36  1  0
 18 37  1  0
 21 38  1  0
 21 39  1  0
 21 40  1  0
 24 41  1  0
 25 42  1  0
 26 43  1  0
 28 44  1  0
 29 45  1  0
M  CHG  1  14  -1
M  END
>  <UniqueID>  (12) 
12

>  <SMILES>  (12) 
CNS(=O)(=O)c1ccc(C(=O)N=c2[n-]c(-c3ccc(S(C)(=O)=O)cc3)cs2)cc1

>  <Energy>  (12) 
78.33625510605766

>  <Genealogy>  (12) 
CNS(=O)(=O)c1ccc(C(=O)N=c2[n-]c(-c3ccc(S(C)(=O)=O)cc3)cs2)cc1 (protonated)
CNS(=O)(=O)c1ccc(C(=O)N=c2[n-]c(-c3ccc(S(C)(=O)=O)cc3)cs2)cc1 (3D coordinates assigned)
CNS(=O)(=O)c1ccc(C(=O)N=c2[n-]c(-c3ccc(S(C)(=O)=O)cc3)cs2)cc1 (optimized conformer: 78.33625510605766 kcal/mol)

>  <smiles>  (12) 
CNS(=O)(=O)c1ccc(C(=O)N=c2[nH]c(-c3ccc(S(C)(=O)=O)cc3)cs2)cc1

>  <score_type>  (12) 
oracle

>  <origin>  (12) 
adgpu

>  <m_score__min__energy>  (12) 
-11.09

>  <m_primary>  (12) 
energy

$$$$
12:0
     RDKit          3D

 46 49  0  0  0  0  0  0  0  0999 V2000
   -9.1570   19.6240  -32.7120 C   0  0  0  0  0  0  0  0  0  0  0  0
   -7.8270   18.9690  -32.9170 C   0  0  0  0  0  0  0  0  0  0  0  0
   -7.6820   17.7540  -33.4000 O   0  0  0  0  0  0  0  0  0  0  0  0
   -6.4200   17.4370  -33.4900 N   0  0  0  0  0  0  0  0  0  0  0  0
   -5.9530   16.1530  -33.9490 C   0  0  0  0  0  0  0  0  0  0  0  0
   -6.8380   15.0800  -34.1760 C   0  0  0  0  0  0  0  0  0  0  0  0
   -6.3550   13.8460  -34.6240 C   0  0  0  0  0  0  0  0  0  0  0  0
   -4.9860   13.6640  -34.8360 C   0  0  0  0  0  0  0  0  0  0  0  0
   -4.0970   14.7130  -34.5900 C   0  0  0  0  0  0  0  0  0  0  0  0
   -4.5760   15.9480  -34.1470 C   0  0  0  0  0  0  0  0  0  0  0  0
   -5.7090   18.4870  -33.0270 C   0  0  0  0  0  0  0  0  0  0  0  0
   -4.4560   18.5060  -32.8960 O   0  0  0  0  0  0  0  0  0  0  0  0
   -6.5710   19.4970  -32.6460 C   0  0  0  0  0  0  0  0  0  0  0  0
   -6.2180   20.8070  -32.0530 C   0  0  0  0  0  0  0  0  0  0  0  0
   -5.0940   21.5130  -32.5160 C   0  0  0  0  0  0  0  0  0  0  0  0
   -4.7500   22.7440  -31.9520 C   0  0  0  0  0  0  0  0  0  0  0  0
   -5.5150   23.2820  -30.9110 C   0  0  0  0  0  0  0  0  0  0  0  0
   -5.0750   24.8400  -30.2220 S   0  0  0  0  0  0  0  0  0  0  0  0
   -4.2820   25.6600  -31.2000 O   0  0  0  0  0  0  0  0  0  0  0  0
   -6.3300   25.5910  -29.8740 O   0  0  0  0  0  0  0  0  0  0  0  0
   -4.1390   24.5990  -28.7830 N   0  0  0  0  0  0  0  0  0  0  0  0
   -2.9680   23.7740  -28.6840 C   0  0  0  0  0  0  0  0  0  0  0  0
   -3.0410   22.4200  -28.3010 C   0  0  0  0  0  0  0  0  0  0  0  0
   -1.8800   21.6460  -28.2260 C   0  0  0  0  0  0  0  0  0  0  0  0
   -0.6400   22.2080  -28.5290 C   0  0  0  0  0  0  0  0  0  0  0  0
   -0.5560   23.5510  -28.9040 C   0  0  0  0  0  0  0  0  0  0  0  0
   -1.7150   24.3330  -28.9810 C   0  0  0  0  0  0  0  0  0  0  0  0
   -1.6150   25.6680  -29.3570 O   0  0  0  0  0  0  0  0  0  0  0  0
   -6.6290   22.5770  -30.4370 C   0  0  0  0  0  0  0  0  0  0  0  0
   -6.9790   21.3480  -31.0050 C   0  0  0  0  0  0  0  0  0  0  0  0
   -9.3554   19.7217  -31.6345 H   0  0  0  0  0  0  0  0  0  0  0  0
   -9.1497   20.6216  -33.1754 H   0  0  0  0  0  0  0  0  0  0  0  0
   -9.9434   19.0101  -33.1754 H   0  0  0  0  0  0  0  0  0  0  0  0
   -7.9155   15.2137  -33.9998 H   0  0  0  0  0  0  0  0  0  0  0  0
   -7.0542   13.0174  -34.8097 H   0  0  0  0  0  0  0  0  0  0  0  0
   -4.6087   12.6956  -35.1963 H   0  0  0  0  0  0  0  0  0  0  0  0
   -3.0180   14.5662  -34.7454 H   0  0  0  0  0  0  0  0  0  0  0  0
   -3.8694   16.7680  -33.9512 H   0  0  0  0  0  0  0  0  0  0  0  0
   -4.4814   21.0935  -33.3276 H   0  0  0  0  0  0  0  0  0  0  0  0
   -3.8739   23.2928  -32.3279 H   0  0  0  0  0  0  0  0  0  0  0  0
   -4.0157   21.9705  -28.0601 H   0  0  0  0  0  0  0  0  0  0  0  0
   -1.9443   20.5894  -27.9268 H   0  0  0  0  0  0  0  0  0  0  0  0
    0.2711   21.5942  -28.4727 H   0  0  0  0  0  0  0  0  0  0  0  0
    0.4225   23.9951  -29.1393 H   0  0  0  0  0  0  0  0  0  0  0  0
   -7.2307   22.9918  -29.6149 H   0  0  0  0  0  0  0  0  0  0  0  0
   -7.8563   20.8018  -30.6281 H   0  0  0  0  0  0  0  0  0  0  0  0
  1  2  1  0
  2  3  1  0
  3  4  1  0
  4  5  1  0
  5  6  2  0
  6  7  1  0
  7  8  2  0
  8  9  1  0
  9 10  2  0
  4 11  1  0
 11 12  2  0
 11 13  1  0
 13 14  1  0
 14 15  2  0
 15 16  1  0
 16 17  2  0
 17 18  1  0
 18 19  2  0
 18 20  2  0
 18 21  1  0
 21 22  1  0
 22 23  2  0
 23 24  1  0
 24 25  2  0
 25 26  1  0
 26 27  2  0
 27 28  1  0
 17 29  1  0
 29 30  2  0
 13  2  2  0
 30 14  1  0
 10  5  1  0
 27 22  1  0
  1 31  1  0
  1 32  1  0
  1 33  1  0
  6 34  1  0
  7 35  1  0
  8 36  1  0
  9 37  1  0
 10 38  1  0
 15 39  1  0
 16 40  1  0
 23 41  1  0
 24 42  1  0
 25 43  1  0
 26 44  1  0
 29 45  1  0
 30 46  1  0
M  CHG  2  21  -1  28  -1
M  END
>  <UniqueID>  (13) 
13

>  <SMILES>  (13) 
Cc1on(-c2ccccc2)c(=O)c1-c1ccc(S(=O)(=O)[N-]c2ccccc2[O-])cc1

>  <Energy>  (13) 
95.58534243235017

>  <Genealogy>  (13) 
Cc1on(-c2ccccc2)c(=O)c1-c1ccc(S(=O)(=O)[N-]c2ccccc2[O-])cc1 (protonated)
Cc1on(-c2ccccc2)c(=O)c1-c1ccc(S(=O)(=O)[N-]c2ccccc2[O-])cc1 (3D coordinates assigned)
Cc1on(-c2ccccc2)c(=O)c1-c1ccc(S(=O)(=O)[N-]c2ccccc2[O-])cc1 (optimized conformer: 95.58534243235017 kcal/mol)

>  <smiles>  (13) 
Cc1on(-c2ccccc2)c(=O)c1-c1ccc(S(=O)(=O)Nc2ccccc2O)cc1

>  <score_type>  (13) 
oracle

>  <origin>  (13) 
adgpu

>  <m_score__min__energy>  (13) 
-14.789999999999999

>  <m_primary>  (13) 
energy

$$$$
13:0
     RDKit          3D

 29 30  0  0  0  0  0  0  0  0999 V2000
   -6.6250   20.1440  -33.1140 C   0  0  0  0  0  0  0  0  0  0  0  0
   -5.5770   21.0780  -32.8770 O   0  0  0  0  0  0  0  0  0  0  0  0
   -5.7010   22.2210  -32.0750 C   0  0  0  0  0  0  0  0  0  0  0  0
   -6.9760   22.5950  -31.6440 C   0  0  0  0  0  0  0  0  0  0  0  0
   -7.1530   23.7270  -30.8460 C   0  0  0  0  0  0  0  0  0  0  0  0
   -6.0500   24.5020  -30.4550 C   0  0  0  0  0  0  0  0  0  0  0  0
   -6.2520   25.7100  -29.5840 C   0  0  0  0  0  0  0  0  0  0  0  0
   -4.7550   24.1220  -30.8610 C   0  0  0  0  0  0  0  0  0  0  0  0
   -3.6250   24.9160  -30.4660 N   0  0  0  0  0  0  0  0  0  0  0  0
   -2.6820   24.5930  -29.4370 C   0  0  0  0  0  0  0  0  0  0  0  0
   -1.9590   25.5100  -28.9670 O   0  0  0  0  0  0  0  0  0  0  0  0
   -2.5710   23.2330  -28.8760 C   0  0  0  0  0  0  0  0  0  0  0  0
   -3.5000   22.5890  -28.0660 C   0  0  0  0  0  0  0  0  0  0  0  0
   -3.0950   21.3080  -27.6700 C   0  0  0  0  0  0  0  0  0  0  0  0
   -1.8450   20.9430  -28.1530 C   0  0  0  0  0  0  0  0  0  0  0  0
   -1.2450   22.2170  -29.0720 S   0  0  0  0  0  0  0  0  0  0  0  0
   -4.5920   22.9980  -31.6920 C   0  0  0  0  0  0  0  0  0  0  0  0
   -7.0238   19.7886  -32.1524 H   0  0  0  0  0  0  0  0  0  0  0  0
   -7.4280   20.6314  -33.6863 H   0  0  0  0  0  0  0  0  0  0  0  0
   -6.2329   19.2904  -33.6863 H   0  0  0  0  0  0  0  0  0  0  0  0
   -7.8486   21.9922  -31.9359 H   0  0  0  0  0  0  0  0  0  0  0  0
   -8.1642   24.0135  -30.5214 H   0  0  0  0  0  0  0  0  0  0  0  0
   -6.2022   25.4119  -28.5263 H   0  0  0  0  0  0  0  0  0  0  0  0
   -5.4650   26.4493  -29.7941 H   0  0  0  0  0  0  0  0  0  0  0  0
   -7.2367   26.1530  -29.7941 H   0  0  0  0  0  0  0  0  0  0  0  0
   -4.4572   23.0405  -27.7662 H   0  0  0  0  0  0  0  0  0  0  0  0
   -3.7095   20.6523  -27.0357 H   0  0  0  0  0  0  0  0  0  0  0  0
   -1.3356   19.9860  -27.9666 H   0  0  0  0  0  0  0  0  0  0  0  0
   -3.5872   22.7239  -32.0459 H   0  0  0  0  0  0  0  0  0  0  0  0
  1  2  1  0
  2  3  1  0
  3  4  2  0
  4  5  1  0
  5  6  2  0
  6  7  1  0
  6  8  1  0
  8  9  1  0
  9 10  1  0
 10 11  2  0
 10 12  1  0
 12 13  2  0
 13 14  1  0
 14 15  2  0
 15 16  1  0
  8 17  2  0
 17  3  1  0
 16 12  1  0
  1 18  1  0
  1 19  1  0
  1 20  1  0
  4 21  1  0
  5 22  1  0
  7 23  1  0
  7 24  1  0
  7 25  1  0
 13 26  1  0
 14 27  1  0
 15 28  1  0
 17 29  1  0
M  CHG  1   9  -1
M  END
>  <UniqueID>  (14) 
14

>  <SMILES>  (14) 
COc1ccc(C)c([N-]C(=O)c2cccs2)c1

>  <Energy>  (14) 
59.31659860417072

>  <Genealogy>  (14) 
COc1ccc(C)c([N-]C(=O)c2cccs2)c1 (protonated)
COc1ccc(C)c([N-]C(=O)c2cccs2)c1 (3D coordinates assigned)
COc1ccc(C)c([N-]C(=O)c2cccs2)c1 (optimized conformer: 59.31659860417072 kcal/mol)

>  <smiles>  (14) 
COc1ccc(C)c(NC(=O)c2cccs2)c1

>  <score_type>  (14) 
oracle

>  <origin>  (14) 
adgpu

>  <m_score__min__energy>  (14) 
-7.7400000000000002

>  <m_primary>  (14) 
energy

$$$$
14:0
     RDKit          3D

 58 61  0  0  0  0  0  0  0  0999 V2000
   -4.2380   26.0070  -30.4310 O   0  0  0  0  0  0  0  0  0  0  0  0
   -4.3240   24.5210  -30.2300 S   0  0  0  0  0  0  0  0  0  0  0  0
   -5.2960   24.2400  -29.1190 O   0  0  0  0  0  0  0  0  0  0  0  0
   -4.8780   23.7850  -31.7010 N   0  0  0  0  0  0  0  0  0  0  0  0
   -5.6560   22.5840  -31.7700 C   0  0  0  0  0  0  0  0  0  0  0  0
   -5.0120   21.3530  -31.5900 C   0  0  0  0  0  0  0  0  0  0  0  0
   -5.7220   20.1550  -31.7080 C   0  0  0  0  0  0  0  0  0  0  0  0
   -7.0840   20.1740  -32.0360 C   0  0  0  0  0  0  0  0  0  0  0  0
   -7.9530   18.6640  -32.3400 S   0  0  0  0  0  0  0  0  0  0  0  0
   -9.2080   18.9650  -33.1180 O   0  0  0  0  0  0  0  0  0  0  0  0
   -8.3600   18.0670  -31.0190 O   0  0  0  0  0  0  0  0  0  0  0  0
   -6.9930   17.4990  -33.2210 N   0  0  0  0  0  0  0  0  0  0  0  0
   -6.2220   18.1590  -34.2900 C   0  0  0  0  0  0  0  0  0  0  0  0
   -5.0860   17.2530  -34.7990 C   0  0  0  0  0  0  0  0  0  0  0  0
   -5.3700   15.8990  -34.5160 O   0  0  0  0  0  0  0  0  0  0  0  0
   -5.3500   15.6720  -33.1110 C   0  0  0  0  0  0  0  0  0  0  0  0
   -6.1060   16.7580  -32.3150 C   0  0  0  0  0  0  0  0  0  0  0  0
   -7.7370   21.4060  -32.1960 C   0  0  0  0  0  0  0  0  0  0  0  0
   -7.0320   22.6050  -32.0490 C   0  0  0  0  0  0  0  0  0  0  0  0
   -2.7060   23.9080  -29.8880 C   0  0  0  0  0  0  0  0  0  0  0  0
   -2.4420   22.5650  -30.1960 C   0  0  0  0  0  0  0  0  0  0  0  0
   -1.2090   21.9900  -29.8740 C   0  0  0  0  0  0  0  0  0  0  0  0
   -0.9340   20.2750  -30.1900 S   0  0  0  0  0  0  0  0  0  0  0  0
   -1.3680   19.4720  -28.9960 O   0  0  0  0  0  0  0  0  0  0  0  0
    0.5350   20.0410  -30.4000 O   0  0  0  0  0  0  0  0  0  0  0  0
   -1.8050   19.7380  -31.6040 N   0  0  0  0  0  0  0  0  0  0  0  0
   -1.2290   18.4790  -32.1220 C   0  0  0  0  0  0  0  0  0  0  0  0
   -1.7300   18.1860  -33.5500 C   0  0  0  0  0  0  0  0  0  0  0  0
   -2.9010   18.9250  -33.8300 O   0  0  0  0  0  0  0  0  0  0  0  0
   -2.6060   20.3150  -33.8600 C   0  0  0  0  0  0  0  0  0  0  0  0
   -1.7800   20.7780  -32.6440 C   0  0  0  0  0  0  0  0  0  0  0  0
   -0.2200   22.7720  -29.2610 C   0  0  0  0  0  0  0  0  0  0  0  0
   -0.4710   24.1180  -28.9660 C   0  0  0  0  0  0  0  0  0  0  0  0
   -1.7100   24.6890  -29.2710 C   0  0  0  0  0  0  0  0  0  0  0  0
   -1.9370   26.0250  -28.9530 O   0  0  0  0  0  0  0  0  0  0  0  0
   -3.9379   21.3291  -31.3537 H   0  0  0  0  0  0  0  0  0  0  0  0
   -5.2105   19.1952  -31.5430 H   0  0  0  0  0  0  0  0  0  0  0  0
   -6.8966   18.3927  -35.1268 H   0  0  0  0  0  0  0  0  0  0  0  0
   -5.7772   19.0784  -33.8814 H   0  0  0  0  0  0  0  0  0  0  0  0
   -4.9801   17.3812  -35.8864 H   0  0  0  0  0  0  0  0  0  0  0  0
   -4.1515   17.5345  -34.2916 H   0  0  0  0  0  0  0  0  0  0  0  0
   -5.8177   14.6976  -32.9064 H   0  0  0  0  0  0  0  0  0  0  0  0
   -4.2989   15.6981  -32.7878 H   0  0  0  0  0  0  0  0  0  0  0  0
   -6.7040   16.2831  -31.5233 H   0  0  0  0  0  0  0  0  0  0  0  0
   -5.3824   17.4512  -31.8613 H   0  0  0  0  0  0  0  0  0  0  0  0
   -8.8097   21.4287  -32.4385 H   0  0  0  0  0  0  0  0  0  0  0  0
   -7.5565   23.5664  -32.1522 H   0  0  0  0  0  0  0  0  0  0  0  0
   -3.2122   21.9589  -30.6954 H   0  0  0  0  0  0  0  0  0  0  0  0
   -0.1324   18.5648  -32.1365 H   0  0  0  0  0  0  0  0  0  0  0  0
   -1.5436   17.6545  -31.4652 H   0  0  0  0  0  0  0  0  0  0  0  0
   -0.9471   18.4631  -34.2713 H   0  0  0  0  0  0  0  0  0  0  0  0
   -1.9610   17.1135  -33.6306 H   0  0  0  0  0  0  0  0  0  0  0  0
   -2.0363   20.5334  -34.7753 H   0  0  0  0  0  0  0  0  0  0  0  0
   -3.5631   20.8567  -33.8352 H   0  0  0  0  0  0  0  0  0  0  0  0
   -0.7406   20.9592  -32.9553 H   0  0  0  0  0  0  0  0  0  0  0  0
   -2.2118   21.7064  -32.2419 H   0  0  0  0  0  0  0  0  0  0  0  0
    0.7548   22.3277  -29.0113 H   0  0  0  0  0  0  0  0  0  0  0  0
    0.3111   24.7291  -28.4917 H   0  0  0  0  0  0  0  0  0  0  0  0
  1  2  2  0
  2  3  2  0
  2  4  1  0
  4  5  1  0
  5  6  2  0
  6  7  1  0
  7  8  2  0
  8  9  1  0
  9 10  2  0
  9 11  2  0
  9 12  1  0
 12 13  1  0
 13 14  1  0
 14 15  1  0
 15 16  1  0
 16 17  1  0
  8 18  1  0
 18 19  2  0
  2 20  1  0
 20 21  2  0
 21 22  1  0
 22 23  1  0
 23 24  2  0
 23 25  2  0
 23 26  1  0
 26 27  1  0
 27 28  1  0
 28 29  1  0
 29 30  1  0
 30 31  1  0
 22 32  2  0
 32 33  1  0
 33 34  2  0
 34 35  1  0
 19  5  1  0
 34 20  1  0
 17 12  1  0
 31 26  1  0
  6 36  1  0
  7 37  1  0
 13 38  1  0
 13 39  1  0
 14 40  1  0
 14 41  1  0
 16 42  1  0
 16 43  1  0
 17 44  1  0
 17 45  1  0
 18 46  1  0
 19 47  1  0
 21 48  1  0
 27 49  1  0
 27 50  1  0
 28 51  1  0
 28 52  1  0
 30 53  1  0
 30 54  1  0
 31 55  1  0
 31 56  1  0
 32 57  1  0
 33 58  1  0
M  CHG  2   4  -1  35  -1
M  END
>  <UniqueID>  (15) 
15

>  <SMILES>  (15) 
O=S(=O)([N-]c1ccc(S(=O)(=O)N2CCOCC2)cc1)c1cc(S(=O)(=O)N2CCOCC2)ccc1[O-]

>  <Energy>  (15) 
76.62336384193122

>  <Genealogy>  (15) 
O=S(=O)([N-]c1ccc(S(=O)(=O)N2CCOCC2)cc1)c1cc(S(=O)(=O)N2CCOCC2)ccc1[O-] (protonated)
O=S(=O)([N-]c1ccc(S(=O)(=O)N2CCOCC2)cc1)c1cc(S(=O)(=O)N2CCOCC2)ccc1[O-] (3D coordinates assigned)
O=S(=O)([N-]c1ccc(S(=O)(=O)N2CCOCC2)cc1)c1cc(S(=O)(=O)N2CCOCC2)ccc1[O-] (nonaromatic ring conformer: 76.62336384193122 kcal/mol)

>  <smiles>  (15) 
O=S(=O)(Nc1ccc(S(=O)(=O)N2CCOCC2)cc1)c1cc(S(=O)(=O)N2CCOCC2)ccc1O

>  <score_type>  (15) 
oracle

>  <origin>  (15) 
adgpu

>  <m_score__min__energy>  (15) 
-13.83

>  <m_primary>  (15) 
energy

$$$$
15:0
     RDKit          3D

 44 47  0  0  0  0  0  0  0  0999 V2000
   -1.5890   21.4500  -32.2800 C   0  0  0  0  0  0  0  0  0  0  0  0
   -0.9260   21.0420  -30.9700 C   0  0  0  0  0  0  0  0  0  0  0  0
   -0.6590   22.2150  -30.1430 N   0  0  0  0  0  0  0  0  0  0  0  0
   -1.5890   22.7500  -29.1930 C   0  0  0  0  0  0  0  0  0  0  0  0
   -1.3170   22.6980  -27.9630 O   0  0  0  0  0  0  0  0  0  0  0  0
   -2.8600   23.3660  -29.6600 C   0  0  0  0  0  0  0  0  0  0  0  0
   -3.9290   22.5400  -30.0600 C   0  0  0  0  0  0  0  0  0  0  0  0
   -5.1400   23.0890  -30.5090 C   0  0  0  0  0  0  0  0  0  0  0  0
   -6.2260   22.2300  -30.9080 N   0  0  0  0  0  0  0  0  0  0  0  0
   -7.5160   22.6340  -30.6630 C   0  0  0  0  0  0  0  0  0  0  0  0
   -8.5720   21.8520  -31.0170 N   0  0  0  0  0  0  0  0  0  0  0  0
   -8.3380   20.6720  -31.6310 C   0  0  0  0  0  0  0  0  0  0  0  0
   -9.4850   19.5520  -32.1120 S   0  0  0  0  0  0  0  0  0  0  0  0
   -8.3580   18.4480  -32.7170 C   0  0  0  0  0  0  0  0  0  0  0  0
   -7.0670   18.9620  -32.5530 C   0  0  0  0  0  0  0  0  0  0  0  0
   -5.8750   18.2430  -33.0460 C   0  0  0  0  0  0  0  0  0  0  0  0
   -5.5280   16.9980  -32.4990 C   0  0  0  0  0  0  0  0  0  0  0  0
   -4.4180   16.2990  -32.9830 C   0  0  0  0  0  0  0  0  0  0  0  0
   -3.6530   16.8330  -34.0290 C   0  0  0  0  0  0  0  0  0  0  0  0
   -2.5440   16.1470  -34.5200 O   0  0  0  0  0  0  0  0  0  0  0  0
   -4.0060   18.0650  -34.5900 C   0  0  0  0  0  0  0  0  0  0  0  0
   -5.1160   18.7650  -34.1070 C   0  0  0  0  0  0  0  0  0  0  0  0
   -7.0650   20.2250  -31.9190 C   0  0  0  0  0  0  0  0  0  0  0  0
   -5.9820   21.0190  -31.5160 C   0  0  0  0  0  0  0  0  0  0  0  0
   -4.7970   20.6130  -31.6760 O   0  0  0  0  0  0  0  0  0  0  0  0
   -5.2880   24.4830  -30.5520 C   0  0  0  0  0  0  0  0  0  0  0  0
   -4.2400   25.3140  -30.1590 C   0  0  0  0  0  0  0  0  0  0  0  0
   -3.0310   24.7700  -29.7160 C   0  0  0  0  0  0  0  0  0  0  0  0
   -2.0130   25.6370  -29.3340 O   0  0  0  0  0  0  0  0  0  0  0  0
   -2.5078   22.0154  -32.0654 H   0  0  0  0  0  0  0  0  0  0  0  0
   -0.8982   22.0795  -32.8601 H   0  0  0  0  0  0  0  0  0  0  0  0
   -1.8396   20.5496  -32.8601 H   0  0  0  0  0  0  0  0  0  0  0  0
   -1.5935   20.3590  -30.4242 H   0  0  0  0  0  0  0  0  0  0  0  0
    0.0276   20.5421  -31.1954 H   0  0  0  0  0  0  0  0  0  0  0  0
   -3.8125   21.4469  -30.0197 H   0  0  0  0  0  0  0  0  0  0  0  0
   -7.6978   23.6025  -30.1742 H   0  0  0  0  0  0  0  0  0  0  0  0
   -8.6016   17.4756  -33.1698 H   0  0  0  0  0  0  0  0  0  0  0  0
   -6.1322   16.5700  -31.6855 H   0  0  0  0  0  0  0  0  0  0  0  0
   -4.1448   15.3289  -32.5423 H   0  0  0  0  0  0  0  0  0  0  0  0
   -1.6110   16.5350  -34.4570 H   0  0  0  0  0  0  0  0  0  0  0  0
   -3.4088   18.4842  -35.4132 H   0  0  0  0  0  0  0  0  0  0  0  0
   -5.3960   19.7278  -34.5593 H   0  0  0  0  0  0  0  0  0  0  0  0
   -6.2353   24.9226  -30.8974 H   0  0  0  0  0  0  0  0  0  0  0  0
   -4.3654   26.4061  -30.1978 H   0  0  0  0  0  0  0  0  0  0  0  0
  1  2  1  0
  2  3  1  0
  3  4  1  0
  4  5  2  0
  4  6  1  0
  6  7  2  0
  7  8  1  0
  8  9  1  0
  9 10  1  0
 10 11  2  0
 11 12  1  0
 12 13  1  0
 13 14  1  0
 14 15  2  0
 15 16  1  0
 16 17  2  0
 17 18  1  0
 18 19  2  0
 19 20  1  0
 19 21  1  0
 21 22  2  0
 15 23  1  0
 23 24  1  0
 24 25  2  0
  8 26  2  0
 26 27  1  0
 27 28  2  0
 28 29  1  0
 28  6  1  0
 24  9  1  0
 23 12  2  0
 22 16  1  0
  1 30  1  0
  1 31  1  0
  1 32  1  0
  2 33  1  0
  2 34  1  0
  7 35  1  0
 10 36  1  0
 14 37  1  0
 17 38  1  0
 18 39  1  0
 20 40  1  0
 21 41  1  0
 22 42  1  0
 26 43  1  0
 27 44  1  0
M  CHG  2   3  -1  29  -1
M  END
>  <UniqueID>  (16) 
16

>  <SMILES>  (16) 
CC[N-]C(=O)c1cc(-n2cnc3scc(-c4ccc(O)cc4)c3c2=O)ccc1[O-]

>  <Energy>  (16) 
95.44727476146504

>  <Genealogy>  (16) 
CC[N-]C(=O)c1cc(-n2cnc3scc(-c4ccc(O)cc4)c3c2=O)ccc1[O-] (protonated)
CC[N-]C(=O)c1cc(-n2cnc3scc(-c4ccc(O)cc4)c3c2=O)ccc1[O-] (3D coordinates assigned)
CC[N-]C(=O)c1cc(-n2cnc3scc(-c4ccc(O)cc4)c3c2=O)ccc1[O-] (optimized conformer: 95.44727476146504 kcal/mol)

>  <smiles>  (16) 
CCNC(=O)c1cc(-n2cnc3scc(-c4ccc(O)cc4)c3c2=O)ccc1O

>  <score_type>  (16) 
oracle

>  <origin>  (16) 
adgpu

>  <m_score__min__energy>  (16) 
-11.66

>  <m_primary>  (16) 
energy

$$$$
16:0
     RDKit          3D

 54 57  0  0  0  0  0  0  0  0999 V2000
    0.8380   16.7020  -27.4770 C   0  0  0  0  0  0  0  0  0  0  0  0
    0.1750   17.9520  -27.9690 C   0  0  0  0  0  0  0  0  0  0  0  0
    0.1780   18.1990  -29.2030 O   0  0  0  0  0  0  0  0  0  0  0  0
   -0.4840   18.8630  -27.0790 N   0  0  0  0  0  0  0  0  0  0  0  0
   -0.6620   20.2700  -27.2920 C   0  0  0  0  0  0  0  0  0  0  0  0
    0.4130   21.0290  -27.7740 C   0  0  0  0  0  0  0  0  0  0  0  0
    0.2900   22.4120  -27.9320 C   0  0  0  0  0  0  0  0  0  0  0  0
   -0.9040   23.0560  -27.5760 C   0  0  0  0  0  0  0  0  0  0  0  0
   -1.0260   24.8160  -27.6350 S   0  0  0  0  0  0  0  0  0  0  0  0
   -1.6060   25.3560  -26.3470 O   0  0  0  0  0  0  0  0  0  0  0  0
    0.3580   25.3890  -27.8320 O   0  0  0  0  0  0  0  0  0  0  0  0
   -2.0370   25.2950  -28.9610 N   0  0  0  0  0  0  0  0  0  0  0  0
   -2.8540   24.4020  -29.7310 C   0  0  0  0  0  0  0  0  0  0  0  0
   -2.2560   23.2780  -30.3070 C   0  0  0  0  0  0  0  0  0  0  0  0
   -3.0280   22.3240  -30.9690 C   0  0  0  0  0  0  0  0  0  0  0  0
   -4.4130   22.4820  -31.0580 C   0  0  0  0  0  0  0  0  0  0  0  0
   -5.1610   21.5120  -31.6450 N   0  0  0  0  0  0  0  0  0  0  0  0
   -6.5140   21.5900  -31.7440 C   0  0  0  0  0  0  0  0  0  0  0  0
   -7.2450   20.4860  -32.3190 N   0  0  0  0  0  0  0  0  0  0  0  0
   -8.6860   20.5590  -32.6080 C   0  0  0  0  0  0  0  0  0  0  0  0
   -9.4060   19.2730  -32.1390 C   0  0  0  0  0  0  0  0  0  0  0  0
   -8.5270   18.0870  -32.0800 N   0  0  0  0  0  0  0  0  0  0  0  0
   -7.4540   18.1410  -33.0820 C   0  0  0  0  0  0  0  0  0  0  0  0
   -6.5000   19.3090  -32.7840 C   0  0  0  0  0  0  0  0  0  0  0  0
   -7.1760   22.7070  -31.2110 C   0  0  0  0  0  0  0  0  0  0  0  0
   -6.4440   23.7460  -30.6160 C   0  0  0  0  0  0  0  0  0  0  0  0
   -7.1870   24.9390  -30.0690 C   0  0  0  0  0  0  0  0  0  0  0  0
   -5.0350   23.6320  -30.5210 C   0  0  0  0  0  0  0  0  0  0  0  0
   -4.2360   24.6030  -29.8820 C   0  0  0  0  0  0  0  0  0  0  0  0
   -1.9750   22.3020  -27.0840 C   0  0  0  0  0  0  0  0  0  0  0  0
   -1.8540   20.9170  -26.9360 C   0  0  0  0  0  0  0  0  0  0  0  0
    0.8407   16.6970  -26.3770 H   0  0  0  0  0  0  0  0  0  0  0  0
    0.2866   15.8247  -27.8464 H   0  0  0  0  0  0  0  0  0  0  0  0
    1.8735   16.6664  -27.8464 H   0  0  0  0  0  0  0  0  0  0  0  0
    1.3606   20.5324  -28.0298 H   0  0  0  0  0  0  0  0  0  0  0  0
    1.1302   22.9960  -28.3358 H   0  0  0  0  0  0  0  0  0  0  0  0
   -1.1663   23.1446  -30.2375 H   0  0  0  0  0  0  0  0  0  0  0  0
   -2.5454   21.4454  -31.4220 H   0  0  0  0  0  0  0  0  0  0  0  0
   -9.1157   21.4248  -32.0829 H   0  0  0  0  0  0  0  0  0  0  0  0
   -8.8229   20.6635  -33.6944 H   0  0  0  0  0  0  0  0  0  0  0  0
   -9.8159   19.4516  -31.1340 H   0  0  0  0  0  0  0  0  0  0  0  0
  -10.1895   19.0554  -32.8798 H   0  0  0  0  0  0  0  0  0  0  0  0
   -8.0890   18.0350  -31.1270 H   0  0  0  0  0  0  0  0  0  0  0  0
   -6.8894   17.1972  -33.0595 H   0  0  0  0  0  0  0  0  0  0  0  0
   -7.9013   18.2906  -34.0757 H   0  0  0  0  0  0  0  0  0  0  0  0
   -5.7872   19.0024  -32.0043 H   0  0  0  0  0  0  0  0  0  0  0  0
   -5.9662   19.5727  -33.7090 H   0  0  0  0  0  0  0  0  0  0  0  0
   -8.2732   22.7683  -31.2599 H   0  0  0  0  0  0  0  0  0  0  0  0
   -7.1688   24.9098  -28.9695 H   0  0  0  0  0  0  0  0  0  0  0  0
   -6.7047   25.8635  -30.4192 H   0  0  0  0  0  0  0  0  0  0  0  0
   -8.2294   24.9139  -30.4192 H   0  0  0  0  0  0  0  0  0  0  0  0
   -4.6986   25.5246  -29.4990 H   0  0  0  0  0  0  0  0  0  0  0  0
   -2.9168   22.8013  -26.8123 H   0  0  0  0  0  0  0  0  0  0  0  0
   -2.6971   20.3327  -26.5388 H   0  0  0  0  0  0  0  0  0  0  0  0
  1  2  1  0
  2  3  2  0
  2  4  1  0
  4  5  1  0
  5  6  2  0
  6  7  1  0
  7  8  2  0
  8  9  1  0
  9 10  2  0
  9 11  2  0
  9 12  1  0
 12 13  1  0
 13 14  2  0
 14 15  1  0
 15 16  2  0
 16 17  1  0
 17 18  2  0
 18 19  1  0
 19 20  1  0
 20 21  1  0
 21 22  1  0
 22 23  1  0
 23 24  1  0
 18 25  1  0
 25 26  2  0
 26 27  1  0
 26 28  1  0
 28 29  2  0
  8 30  1  0
 30 31  2  0
 31  5  1  0
 29 13  1  0
 28 16  1  0
 24 19  1  0
  1 32  1  0
  1 33  1  0
  1 34  1  0
  6 35  1  0
  7 36  1  0
 14 37  1  0
 15 38  1  0
 20 39  1  0
 20 40  1  0
 21 41  1  0
 21 42  1  0
 22 43  1  0
 23 44  1  0
 23 45  1  0
 24 46  1  0
 24 47  1  0
 25 48  1  0
 27 49  1  0
 27 50  1  0
 27 51  1  0
 29 52  1  0
 30 53  1  0
 31 54  1  0
M  CHG  2   4  -1  12  -1
M  END
>  <UniqueID>  (17) 
17

>  <SMILES>  (17) 
CC(=O)[N-]c1ccc(S(=O)(=O)[N-]c2ccc3nc(N4CCNCC4)cc(C)c3c2)cc1

>  <Energy>  (17) 
75.94174991184818

>  <Genealogy>  (17) 
CC(=O)[N-]c1ccc(S(=O)(=O)[N-]c2ccc3nc(N4CCNCC4)cc(C)c3c2)cc1 (protonated)
CC(=O)[N-]c1ccc(S(=O)(=O)[N-]c2ccc3nc(N4CCNCC4)cc(C)c3c2)cc1 (3D coordinates assigned)
CC(=O)[N-]c1ccc(S(=O)(=O)[N-]c2ccc3nc(N4CCNCC4)cc(C)c3c2)cc1 (nonaromatic ring conformer: 75.94174991184818 kcal/mol)

>  <smiles>  (17) 
CC(=O)Nc1ccc(S(=O)(=O)Nc2ccc3nc(N4CCNCC4)cc(C)c3c2)cc1

>  <score_type>  (17) 
oracle

>  <origin>  (17) 
adgpu

>  <m_score__min__energy>  (17) 
-11.609999999999999

>  <m_primary>  (17) 
energy

$$$$
17:0
     RDKit          3D

 61 64  0  0  1  0  0  0  0  0999 V2000
   -5.5560   25.2950  -30.9150 C   0  0  0  0  0  0  0  0  0  0  0  0
   -4.6320   24.2430  -31.1980 O   0  0  0  0  0  0  0  0  0  0  0  0
   -3.8700   23.7010  -30.1940 C   0  0  0  0  0  0  0  0  0  0  0  0
   -3.2080   24.5420  -29.2960 C   0  0  0  0  0  0  0  0  0  0  0  0
   -2.4380   24.0670  -28.2810 C   0  0  0  0  0  0  0  0  0  0  0  0
   -1.7650   24.9840  -27.3660 C   0  0  0  0  0  0  0  0  0  0  0  0
   -0.4680   25.4330  -27.5980 C   0  0  0  0  0  0  0  0  0  0  0  0
   -0.1560   26.2540  -26.5760 N   0  0  0  0  0  0  0  0  0  0  0  0
   -1.2190   26.3110  -25.7420 C   0  0  0  0  0  0  0  0  0  0  0  0
   -1.2240   27.1310  -24.4970 C   0  0  0  0  0  0  0  0  0  0  0  0
   -2.2120   25.5330  -26.2230 N   0  0  0  0  0  0  0  0  0  0  0  0
   -3.5030   25.3200  -25.6380 C   0  0  0  0  0  0  0  0  0  0  0  0
   -2.3130   22.6980  -28.1410 C   0  0  0  0  0  0  0  0  0  0  0  0
   -2.9640   21.8330  -29.0240 C   0  0  0  0  0  0  0  0  0  0  0  0
   -3.7490   22.3280  -30.0610 C   0  0  0  0  0  0  0  0  0  0  0  0
   -4.4100   21.4200  -30.9590 N   0  0  0  0  0  0  0  0  0  0  0  0
   -5.7040   21.5230  -31.1440 C   0  0  0  0  0  0  0  0  0  0  0  0
   -6.3770   22.4830  -30.4800 N   0  0  0  0  0  0  0  0  0  0  0  0
   -7.7170   22.6160  -30.6500 C   0  0  0  0  0  0  0  0  0  0  0  0
   -8.3710   21.7680  -31.4970 N   0  0  0  0  0  0  0  0  0  0  0  0
   -7.7470   20.8020  -32.1760 C   0  0  0  0  0  0  0  0  0  0  0  0
   -8.4430   19.9300  -33.0510 N   0  0  0  0  0  0  0  0  0  0  0  0
   -6.3700   20.6690  -31.9980 C   0  0  0  0  0  0  0  0  0  0  0  0
   -5.6880   19.6500  -32.7090 C   0  0  0  0  0  0  0  0  0  0  0  0
   -5.1280   18.7800  -33.3230 C   0  0  0  0  0  0  0  0  0  0  0  0
   -4.4380   17.7550  -34.0530 C   0  0  0  0  0  0  0  0  0  0  0  0
   -3.0830   17.9720  -34.3100 C   0  0  0  0  0  0  0  0  0  0  0  0
   -2.4010   19.2080  -33.8450 C   0  0  0  0  0  0  0  0  0  0  0  0
   -2.3520   17.0290  -35.0080 C   0  0  0  0  0  0  0  0  0  0  0  0
   -2.9860   15.8770  -35.4410 C   0  0  0  0  0  0  0  0  0  0  0  0
   -2.1610   14.8970  -36.1860 C   0  0  0  0  0  0  0  0  0  0  0  0
   -4.2830   15.7180  -35.1700 N   0  0  0  0  0  0  0  0  0  0  0  0
   -5.0410   16.6000  -34.4980 C   0  0  0  0  0  0  0  0  0  0  0  0
   -6.4800   16.4010  -34.2080 C   0  0  0  0  0  0  0  0  0  0  0  0
   -5.6576   25.4107  -29.8258 H   0  0  0  0  0  0  0  0  0  0  0  0
   -5.1862   26.2349  -31.3506 H   0  0  0  0  0  0  0  0  0  0  0  0
   -6.5358   25.0495  -31.3506 H   0  0  0  0  0  0  0  0  0  0  0  0
   -3.3138   25.6304  -29.4147 H   0  0  0  0  0  0  0  0  0  0  0  0
    0.1765   25.1691  -28.4495 H   0  0  0  0  0  0  0  0  0  0  0  0
   -1.2199   26.4666  -23.6203 H   0  0  0  0  0  0  0  0  0  0  0  0
   -0.3297   27.7712  -24.4760 H   0  0  0  0  0  0  0  0  0  0  0  0
   -2.1260   27.7603  -24.4760 H   0  0  0  0  0  0  0  0  0  0  0  0
   -3.4156   25.3344  -24.5416 H   0  0  0  0  0  0  0  0  0  0  0  0
   -4.1883   26.1172  -25.9617 H   0  0  0  0  0  0  0  0  0  0  0  0
   -3.8959   24.3449  -25.9617 H   0  0  0  0  0  0  0  0  0  0  0  0
   -1.6964   22.2863  -27.3284 H   0  0  0  0  0  0  0  0  0  0  0  0
   -2.8546   20.7458  -28.8978 H   0  0  0  0  0  0  0  0  0  0  0  0
   -5.9000   23.1470  -29.8260 H   0  0  0  0  0  0  0  0  0  0  0  0
   -8.2705   23.3990  -30.1109 H   0  0  0  0  0  0  0  0  0  0  0  0
   -8.3200   20.0490  -34.0910 H   0  0  0  0  0  0  0  0  0  0  0  0
   -9.0770   19.1690  -32.7480 H   0  0  0  0  0  0  0  0  0  0  0  0
   -2.3895   19.2288  -32.7453 H   0  0  0  0  0  0  0  0  0  0  0  0
   -1.3680   19.2211  -34.2228 H   0  0  0  0  0  0  0  0  0  0  0  0
   -2.9408   20.0889  -34.2228 H   0  0  0  0  0  0  0  0  0  0  0  0
   -1.2841   17.1913  -35.2160 H   0  0  0  0  0  0  0  0  0  0  0  0
   -1.6211   14.2557  -35.4738 H   0  0  0  0  0  0  0  0  0  0  0  0
   -2.8118   14.2755  -36.8186 H   0  0  0  0  0  0  0  0  0  0  0  0
   -1.4377   15.4324  -36.8186 H   0  0  0  0  0  0  0  0  0  0  0  0
   -6.6351   16.3796  -33.1192 H   0  0  0  0  0  0  0  0  0  0  0  0
   -7.0598   17.2275  -34.6447 H   0  0  0  0  0  0  0  0  0  0  0  0
   -6.8137   15.4482  -34.6447 H   0  0  0  0  0  0  0  0  0  0  0  0
  1  2  1  0
  2  3  1  0
  3  4  2  0
  4  5  1  0
  5  6  1  0
  6  7  2  0
  7  8  1  0
  8  9  2  0
  9 10  1  0
  9 11  1  0
 11 12  1  0
  5 13  2  0
 13 14  1  0
 14 15  2  0
 15 16  1  0
 16 17  2  0
 17 18  1  0
 18 19  1  0
 19 20  2  0
 20 21  1  0
 21 22  1  0
 21 23  2  0
 23 24  1  0
 24 25  3  0
 25 26  1  0
 26 27  2  0
 27 28  1  0
 27 29  1  0
 29 30  2  0
 30 31  1  0
 30 32  1  0
 32 33  2  0
 33 34  1  0
 15  3  1  0
 23 17  1  0
 33 26  1  0
 11  6  1  0
  1 35  1  0
  1 36  1  0
  1 37  1  0
  4 38  1  0
  7 39  1  0
 10 40  1  0
 10 41  1  0
 10 42  1  0
 12 43  1  0
 12 44  1  0
 12 45  1  0
 13 46  1  0
 14 47  1  0
 18 48  1  0
 19 49  1  0
 22 50  1  0
 22 51  1  0
 28 52  1  0
 28 53  1  0
 28 54  1  0
 29 55  1  0
 31 56  1  0
 31 57  1  0
 31 58  1  0
 34 59  1  0
 34 60  1  0
 34 61  1  0
M  END
>  <smiles>  (18) 
COc1cc(-c2cnc(C)n2C)ccc1N=c1[nH]cnc(N)c1C#Cc1c(C)cc(C)nc1C

>  <score_type>  (18) 
oracle

>  <origin>  (18) 
adgpu

>  <m_score__min__energy>  (18) 
-8.9399999999999995

>  <m_primary>  (18) 
energy

$$$$
18:0
     RDKit          3D

 60 62  0  0  0  0  0  0  0  0999 V2000
   -2.9700   15.3890  -33.7370 C   0  0  0  0  0  0  0  0  0  0  0  0
   -2.5410   16.8280  -33.6010 C   0  0  0  0  0  0  0  0  0  0  0  0
   -1.3750   17.1320  -32.8790 C   0  0  0  0  0  0  0  0  0  0  0  0
   -0.9610   18.4550  -32.7180 C   0  0  0  0  0  0  0  0  0  0  0  0
   -1.7140   19.4960  -33.2580 C   0  0  0  0  0  0  0  0  0  0  0  0
   -1.1970   21.1620  -33.0190 S   0  0  0  0  0  0  0  0  0  0  0  0
   -0.4760   21.6620  -34.2410 O   0  0  0  0  0  0  0  0  0  0  0  0
   -2.4120   22.0210  -32.8010 O   0  0  0  0  0  0  0  0  0  0  0  0
   -0.1550   21.2860  -31.6310 N   0  0  0  0  0  0  0  0  0  0  0  0
   -0.9490   21.4650  -30.4150 C   0  0  0  0  0  0  0  0  0  0  0  0
   -0.9320   22.9380  -30.0130 C   0  0  0  0  0  0  0  0  0  0  0  0
   -1.4310   23.0800  -28.6420 N   0  0  0  0  0  0  0  0  0  0  0  0
   -2.6400   24.3250  -28.5480 S   0  0  0  0  0  0  0  0  0  0  0  0
   -3.1150   24.4560  -27.1280 O   0  0  0  0  0  0  0  0  0  0  0  0
   -2.0310   25.6360  -28.9650 O   0  0  0  0  0  0  0  0  0  0  0  0
   -4.0020   23.9590  -29.6080 C   0  0  0  0  0  0  0  0  0  0  0  0
   -5.0130   24.9080  -29.8160 C   0  0  0  0  0  0  0  0  0  0  0  0
   -6.0760   24.6250  -30.6790 C   0  0  0  0  0  0  0  0  0  0  0  0
   -6.1320   23.3970  -31.3450 C   0  0  0  0  0  0  0  0  0  0  0  0
   -5.1290   22.4390  -31.1390 C   0  0  0  0  0  0  0  0  0  0  0  0
   -5.1760   20.8980  -32.0010 S   0  0  0  0  0  0  0  0  0  0  0  0
   -4.9550   21.1500  -33.4680 O   0  0  0  0  0  0  0  0  0  0  0  0
   -4.0650   20.0140  -31.5080 O   0  0  0  0  0  0  0  0  0  0  0  0
   -6.7060   20.0840  -31.7740 N   0  0  0  0  0  0  0  0  0  0  0  0
   -6.6890   18.7700  -32.4350 C   0  0  0  0  0  0  0  0  0  0  0  0
   -7.9170   17.9480  -32.0070 C   0  0  0  0  0  0  0  0  0  0  0  0
   -9.1200   18.8320  -31.6360 C   0  0  0  0  0  0  0  0  0  0  0  0
   -9.1320   20.1350  -32.4470 C   0  0  0  0  0  0  0  0  0  0  0  0
   -7.8130   20.9250  -32.2820 C   0  0  0  0  0  0  0  0  0  0  0  0
   -4.0710   22.7210  -30.2600 C   0  0  0  0  0  0  0  0  0  0  0  0
   -2.8710   19.2060  -33.9950 C   0  0  0  0  0  0  0  0  0  0  0  0
   -3.2890   17.8790  -34.1830 C   0  0  0  0  0  0  0  0  0  0  0  0
   -4.5450   17.6070  -34.9700 C   0  0  0  0  0  0  0  0  0  0  0  0
   -3.1011   14.9494  -32.7372 H   0  0  0  0  0  0  0  0  0  0  0  0
   -3.9217   15.3405  -34.2865 H   0  0  0  0  0  0  0  0  0  0  0  0
   -2.2003   14.8273  -34.2865 H   0  0  0  0  0  0  0  0  0  0  0  0
   -0.7819   16.3185  -32.4358 H   0  0  0  0  0  0  0  0  0  0  0  0
   -0.0375   18.6768  -32.1631 H   0  0  0  0  0  0  0  0  0  0  0  0
   -1.9853   21.1474  -30.6028 H   0  0  0  0  0  0  0  0  0  0  0  0
   -0.5224   20.8568  -29.6037 H   0  0  0  0  0  0  0  0  0  0  0  0
    0.0977   23.3208  -30.0692 H   0  0  0  0  0  0  0  0  0  0  0  0
   -1.5758   23.5105  -30.6969 H   0  0  0  0  0  0  0  0  0  0  0  0
   -4.9697   25.8778  -29.2988 H   0  0  0  0  0  0  0  0  0  0  0  0
   -6.8701   25.3702  -30.8343 H   0  0  0  0  0  0  0  0  0  0  0  0
   -6.9641   23.1820  -32.0316 H   0  0  0  0  0  0  0  0  0  0  0  0
   -6.7075   18.9110  -33.5258 H   0  0  0  0  0  0  0  0  0  0  0  0
   -5.7753   18.2315  -32.1431 H   0  0  0  0  0  0  0  0  0  0  0  0
   -8.2071   17.2890  -32.8386 H   0  0  0  0  0  0  0  0  0  0  0  0
   -7.6376   17.3726  -31.1121 H   0  0  0  0  0  0  0  0  0  0  0  0
  -10.0476   18.2765  -31.8383 H   0  0  0  0  0  0  0  0  0  0  0  0
   -9.0427   19.0900  -30.5695 H   0  0  0  0  0  0  0  0  0  0  0  0
   -9.2706   19.8913  -33.5107 H   0  0  0  0  0  0  0  0  0  0  0  0
   -9.9556   20.7622  -32.0750 H   0  0  0  0  0  0  0  0  0  0  0  0
   -7.5233   21.3354  -33.2606 H   0  0  0  0  0  0  0  0  0  0  0  0
   -7.9916   21.7217  -31.5449 H   0  0  0  0  0  0  0  0  0  0  0  0
   -3.2917   21.9653  -30.0823 H   0  0  0  0  0  0  0  0  0  0  0  0
   -3.4580   20.0278  -34.4310 H   0  0  0  0  0  0  0  0  0  0  0  0
   -5.3800   17.4262  -34.2771 H   0  0  0  0  0  0  0  0  0  0  0  0
   -4.7760   18.4759  -35.6037 H   0  0  0  0  0  0  0  0  0  0  0  0
   -4.3958   16.7203  -35.6037 H   0  0  0  0  0  0  0  0  0  0  0  0
  1  2  1  0
  2  3  2  0
  3  4  1  0
  4  5  2  0
  5  6  1  0
  6  7  2  0
  6  8  2  0
  6  9  1  0
  9 10  1  0
 10 11  1  0
 11 12  1  0
 12 13  1  0
 13 14  2  0
 13 15  2  0
 13 16  1  0
 16 17  2  0
 17 18  1  0
 18 19  2  0
 19 20  1  0
 20 21  1  0
 21 22  2  0
 21 23  2  0
 21 24  1  0
 24 25  1  0
 25 26  1  0
 26 27  1  0
 27 28  1  0
 28 29  1  0
 20 30  2  0
  5 31  1  0
 31 32  2  0
 32 33  1  0
 32  2  1  0
 30 16  1  0
 29 24  1  0
  1 34  1  0
  1 35  1  0
  1 36  1  0
  3 37  1  0
  4 38  1  0
 10 39  1  0
 10 40  1  0
 11 41  1  0
 11 42  1  0
 17 43  1  0
 18 44  1  0
 19 45  1  0
 25 46  1  0
 25 47  1  0
 26 48  1  0
 26 49  1  0
 27 50  1  0
 27 51  1  0
 28 52  1  0
 28 53  1  0
 29 54  1  0
 29 55  1  0
 30 56  1  0
 31 57  1  0
 33 58  1  0
 33 59  1  0
 33 60  1  0
M  CHG  2   9  -1  12  -1
M  END
>  <UniqueID>  (19) 
18

>  <SMILES>  (19) 
Cc1ccc(S(=O)(=O)[N-]CC[N-]S(=O)(=O)c2cccc(S(=O)(=O)N3CCCCC3)c2)cc1C

>  <Energy>  (19) 
58.96696111285105

>  <Genealogy>  (19) 
Cc1ccc(S(=O)(=O)[N-]CC[N-]S(=O)(=O)c2cccc(S(=O)(=O)N3CCCCC3)c2)cc1C (protonated)
Cc1ccc(S(=O)(=O)[N-]CC[N-]S(=O)(=O)c2cccc(S(=O)(=O)N3CCCCC3)c2)cc1C (3D coordinates assigned)
Cc1ccc(S(=O)(=O)[N-]CC[N-]S(=O)(=O)c2cccc(S(=O)(=O)N3CCCCC3)c2)cc1C (nonaromatic ring conformer: 58.96696111285105 kcal/mol)

>  <smiles>  (19) 
Cc1ccc(S(=O)(=O)NCCNS(=O)(=O)c2cccc(S(=O)(=O)N3CCCCC3)c2)cc1C

>  <score_type>  (19) 
oracle

>  <origin>  (19) 
adgpu

>  <m_score__min__energy>  (19) 
-12.4

>  <m_primary>  (19) 
energy

$$$$
19:0
     RDKit          3D

 52 55  0  0  0  0  0  0  0  0999 V2000
   -4.2680   25.7130  -30.4790 O   0  0  0  0  0  0  0  0  0  0  0  0
   -3.7510   24.6410  -30.0690 C   0  0  0  0  0  0  0  0  0  0  0  0
   -3.8820   24.2810  -28.6060 C   0  0  0  0  0  0  0  0  0  0  0  0
   -2.5260   24.1580  -27.8780 C   0  0  2  0  0  0  0  0  0  0  0  0
   -2.6180   24.7400  -26.6000 O   0  0  0  0  0  0  0  0  0  0  0  0
   -1.3930   24.7700  -28.6690 C   0  0  0  0  0  0  0  0  0  0  0  0
   -1.3060   25.9940  -28.9570 O   0  0  0  0  0  0  0  0  0  0  0  0
   -0.3990   23.8200  -29.0300 N   0  0  0  0  0  0  0  0  0  0  0  0
   -0.8380   22.5970  -28.4650 C   0  0  0  0  0  0  0  0  0  0  0  0
   -0.1770   21.3720  -28.5330 C   0  0  0  0  0  0  0  0  0  0  0  0
   -0.7600   20.2640  -27.8970 C   0  0  0  0  0  0  0  0  0  0  0  0
   -1.9810   20.3990  -27.2070 C   0  0  0  0  0  0  0  0  0  0  0  0
   -2.7620   18.8840  -26.3460 Br  0  0  0  0  0  0  0  0  0  0  0  0
   -2.6290   21.6460  -27.1500 C   0  0  0  0  0  0  0  0  0  0  0  0
   -2.0360   22.7340  -27.7930 C   0  0  0  0  0  0  0  0  0  0  0  0
   -3.1770   23.7430  -31.0270 N   0  0  0  0  0  0  0  0  0  0  0  0
   -3.7080   22.4740  -31.4200 C   0  0  0  0  0  0  0  0  0  0  0  0
   -3.0250   21.6430  -32.3230 C   0  0  0  0  0  0  0  0  0  0  0  0
   -3.5780   20.4180  -32.7070 C   0  0  0  0  0  0  0  0  0  0  0  0
   -4.8270   20.0210  -32.2120 C   0  0  0  0  0  0  0  0  0  0  0  0
   -5.5110   18.4740  -32.6990 S   0  0  0  0  0  0  0  0  0  0  0  0
   -4.7860   17.9910  -33.9240 O   0  0  0  0  0  0  0  0  0  0  0  0
   -5.3390   17.4650  -31.5950 O   0  0  0  0  0  0  0  0  0  0  0  0
   -7.2120   18.6660  -33.0510 N   0  0  0  0  0  0  0  0  0  0  0  0
   -7.5170   20.0540  -33.4810 C   0  0  0  0  0  0  0  0  0  0  0  0
   -8.1820   20.8940  -32.3800 C   0  0  0  0  0  0  0  0  0  0  0  0
   -9.4900   20.2430  -31.8980 C   0  0  0  0  0  0  0  0  0  0  0  0
   -9.4550   18.7070  -31.9750 C   0  0  0  0  0  0  0  0  0  0  0  0
   -8.0170   18.1840  -31.9070 C   0  0  0  0  0  0  0  0  0  0  0  0
   -5.5230   20.8630  -31.3340 C   0  0  0  0  0  0  0  0  0  0  0  0
   -4.9700   22.0900  -30.9510 C   0  0  0  0  0  0  0  0  0  0  0  0
   -4.4754   25.0615  -28.1072 H   0  0  0  0  0  0  0  0  0  0  0  0
   -4.3657   23.2942  -28.5578 H   0  0  0  0  0  0  0  0  0  0  0  0
   -2.2470   25.6610  -26.6500 H   0  0  0  0  0  0  0  0  0  0  0  0
    0.4820   23.9940  -29.5630 H   0  0  0  0  0  0  0  0  0  0  0  0
    0.7774   21.2754  -29.0713 H   0  0  0  0  0  0  0  0  0  0  0  0
   -0.2604   19.2848  -27.9378 H   0  0  0  0  0  0  0  0  0  0  0  0
   -3.5811   21.7613  -26.6112 H   0  0  0  0  0  0  0  0  0  0  0  0
   -2.0522   21.9570  -32.7292 H   0  0  0  0  0  0  0  0  0  0  0  0
   -3.0303   19.7631  -33.4006 H   0  0  0  0  0  0  0  0  0  0  0  0
   -6.5771   20.5438  -33.7753 H   0  0  0  0  0  0  0  0  0  0  0  0
   -8.2276   19.9892  -34.3182 H   0  0  0  0  0  0  0  0  0  0  0  0
   -7.4905   20.9827  -31.5292 H   0  0  0  0  0  0  0  0  0  0  0  0
   -8.4178   21.8860  -32.7928 H   0  0  0  0  0  0  0  0  0  0  0  0
   -9.6655   20.5386  -30.8531 H   0  0  0  0  0  0  0  0  0  0  0  0
  -10.2964   20.5896  -32.5610 H   0  0  0  0  0  0  0  0  0  0  0  0
  -10.0284   18.2919  -31.1330 H   0  0  0  0  0  0  0  0  0  0  0  0
   -9.8952   18.3952  -32.9337 H   0  0  0  0  0  0  0  0  0  0  0  0
   -7.5537   18.5316  -30.9718 H   0  0  0  0  0  0  0  0  0  0  0  0
   -8.0465   17.0850  -31.9434 H   0  0  0  0  0  0  0  0  0  0  0  0
   -6.5060   20.5587  -30.9452 H   0  0  0  0  0  0  0  0  0  0  0  0
   -5.5297   22.7562  -30.2780 H   0  0  0  0  0  0  0  0  0  0  0  0
  1  2  2  0
  2  3  1  0
  3  4  1  0
  4  5  1  1
  4  6  1  0
  6  7  2  0
  6  8  1  0
  8  9  1  0
  9 10  2  0
 10 11  1  0
 11 12  2  0
 12 13  1  0
 12 14  1  0
 14 15  2  0
  2 16  1  0
 16 17  1  0
 17 18  2  0
 18 19  1  0
 19 20  2  0
 20 21  1  0
 21 22  2  0
 21 23  2  0
 21 24  1  0
 24 25  1  0
 25 26  1  0
 26 27  1  0
 27 28  1  0
 28 29  1  0
 20 30  1  0
 30 31  2  0
 15  4  1  0
 31 17  1  0
 15  9  1  0
 29 24  1  0
  3 32  1  0
  3 33  1  0
  5 34  1  0
  8 35  1  0
 10 36  1  0
 11 37  1  0
 14 38  1  0
 18 39  1  0
 19 40  1  0
 25 41  1  0
 25 42  1  0
 26 43  1  0
 26 44  1  0
 27 45  1  0
 27 46  1  0
 28 47  1  0
 28 48  1  0
 29 49  1  0
 29 50  1  0
 30 51  1  0
 31 52  1  0
M  CHG  1  16  -1
M  END
>  <UniqueID>  (20) 
19

>  <SMILES>  (20) 
O=C(C[C@]1(O)C(=O)Nc2ccc(Br)cc21)[N-]c1ccc(S(=O)(=O)N2CCCCC2)cc1

>  <Energy>  (20) 
84.80468964975519

>  <Genealogy>  (20) 
O=C(CC1(O)C(=O)Nc2ccc(Br)cc21)[N-]c1ccc(S(=O)(=O)N2CCCCC2)cc1 (protonated)
O=C(C[C@]1(O)C(=O)Nc2ccc(Br)cc21)[N-]c1ccc(S(=O)(=O)N2CCCCC2)cc1 (chirality)
O=C(C[C@]1(O)C(=O)Nc2ccc(Br)cc21)[N-]c1ccc(S(=O)(=O)N2CCCCC2)cc1 (3D coordinates assigned)
O=C(C[C@]1(O)C(=O)Nc2ccc(Br)cc21)[N-]c1ccc(S(=O)(=O)N2CCCCC2)cc1 (nonaromatic ring conformer: 84.80468964975519 kcal/mol)

>  <smiles>  (20) 
O=C(CC1(O)C(=O)Nc2ccc(Br)cc21)Nc1ccc(S(=O)(=O)N2CCCCC2)cc1

>  <score_type>  (20) 
oracle

>  <origin>  (20) 
adgpu

>  <m_score__min__energy>  (20) 
-12.949999999999999

>  <m_primary>  (20) 
energy

$$$$
20:0
     RDKit          3D

 37 39  0  0  0  0  0  0  0  0999 V2000
    2.0860   24.2210  -37.1990 N   0  0  0  0  0  0  0  0  0  0  0  0
    1.4550   23.5930  -36.0850 C   0  0  0  0  0  0  0  0  0  0  0  0
    0.2720   23.8970  -35.7790 O   0  0  0  0  0  0  0  0  0  0  0  0
    2.1820   22.5360  -35.3150 C   0  0  0  0  0  0  0  0  0  0  0  0
    1.3430   21.2900  -35.2260 C   0  0  0  0  0  0  0  0  0  0  0  0
    1.3700   20.3470  -36.2640 C   0  0  0  0  0  0  0  0  0  0  0  0
    0.5560   19.2130  -36.2050 C   0  0  0  0  0  0  0  0  0  0  0  0
   -0.2880   19.0100  -35.1090 C   0  0  0  0  0  0  0  0  0  0  0  0
   -0.3130   19.9400  -34.0540 C   0  0  0  0  0  0  0  0  0  0  0  0
   -1.1550   19.7810  -32.9440 O   0  0  0  0  0  0  0  0  0  0  0  0
   -2.1290   20.6980  -32.5200 C   0  0  0  0  0  0  0  0  0  0  0  0
   -1.9270   21.3850  -31.3170 C   0  0  0  0  0  0  0  0  0  0  0  0
   -2.8700   22.3120  -30.8630 C   0  0  0  0  0  0  0  0  0  0  0  0
   -4.0410   22.5520  -31.5990 C   0  0  0  0  0  0  0  0  0  0  0  0
   -5.0020   23.5210  -31.1440 N   0  0  0  0  0  0  0  0  0  0  0  0
   -4.7510   24.7480  -30.6400 C   0  0  0  0  0  0  0  0  0  0  0  0
   -3.4810   25.2990  -30.5150 O   0  0  0  0  0  0  0  0  0  0  0  0
   -5.9220   25.3900  -30.2900 C   0  0  0  0  0  0  0  0  0  0  0  0
   -6.9460   24.5130  -30.5950 C   0  0  0  0  0  0  0  0  0  0  0  0
   -6.3440   23.3840  -31.1130 C   0  0  0  0  0  0  0  0  0  0  0  0
   -7.0240   22.2440  -31.5260 O   0  0  0  0  0  0  0  0  0  0  0  0
   -4.2580   21.8420  -32.7920 C   0  0  0  0  0  0  0  0  0  0  0  0
   -3.3140   20.9160  -33.2450 C   0  0  0  0  0  0  0  0  0  0  0  0
    0.4850   21.0880  -34.1320 C   0  0  0  0  0  0  0  0  0  0  0  0
    2.9710   23.8370  -37.5990 H   0  0  0  0  0  0  0  0  0  0  0  0
    3.1285   22.3014  -35.8241 H   0  0  0  0  0  0  0  0  0  0  0  0
    2.3845   22.9064  -34.2992 H   0  0  0  0  0  0  0  0  0  0  0  0
    2.0342   20.5008  -37.1273 H   0  0  0  0  0  0  0  0  0  0  0  0
    0.5792   18.4779  -37.0230 H   0  0  0  0  0  0  0  0  0  0  0  0
   -0.9342   18.1206  -35.0716 H   0  0  0  0  0  0  0  0  0  0  0  0
   -1.0199   21.1941  -30.7248 H   0  0  0  0  0  0  0  0  0  0  0  0
   -2.6933   22.8564  -29.9236 H   0  0  0  0  0  0  0  0  0  0  0  0
   -6.0203   26.3960  -29.8561 H   0  0  0  0  0  0  0  0  0  0  0  0
   -8.0238   24.6810  -30.4534 H   0  0  0  0  0  0  0  0  0  0  0  0
   -5.1759   22.0159  -33.3727 H   0  0  0  0  0  0  0  0  0  0  0  0
   -3.4990   20.3552  -34.1730 H   0  0  0  0  0  0  0  0  0  0  0  0
    0.4397   21.8387  -33.3292 H   0  0  0  0  0  0  0  0  0  0  0  0
  1  2  1  0
  2  3  2  0
  2  4  1  0
  4  5  1  0
  5  6  2  0
  6  7  1  0
  7  8  2  0
  8  9  1  0
  9 10  1  0
 10 11  1  0
 11 12  2  0
 12 13  1  0
 13 14  2  0
 14 15  1  0
 15 16  1  0
 16 17  1  0
 16 18  2  0
 18 19  1  0
 19 20  2  0
 20 21  1  0
 14 22  1  0
 22 23  2  0
  9 24  2  0
 24  5  1  0
 23 11  1  0
 20 15  1  0
  1 25  1  0
  4 26  1  0
  4 27  1  0
  6 28  1  0
  7 29  1  0
  8 30  1  0
 12 31  1  0
 13 32  1  0
 18 33  1  0
 19 34  1  0
 22 35  1  0
 23 36  1  0
 24 37  1  0
M  CHG  3   1  -1  17  -1  21  -1
M  END
>  <UniqueID>  (21) 
20

>  <SMILES>  (21) 
[NH-]C(=O)Cc1cccc(Oc2ccc(-n3c([O-])ccc3[O-])cc2)c1

>  <Energy>  (21) 
77.12165999735494

>  <Genealogy>  (21) 
[NH-]C(=O)Cc1cccc(Oc2ccc(-n3c([O-])ccc3[O-])cc2)c1 (protonated)
[NH-]C(=O)Cc1cccc(Oc2ccc(-n3c([O-])ccc3[O-])cc2)c1 (3D coordinates assigned)
[NH-]C(=O)Cc1cccc(Oc2ccc(-n3c([O-])ccc3[O-])cc2)c1 (optimized conformer: 77.12165999735494 kcal/mol)

>  <smiles>  (21) 
NC(=O)Cc1cccc(Oc2ccc(-n3c(O)ccc3O)cc2)c1

>  <score_type>  (21) 
oracle

>  <origin>  (21) 
adgpu

>  <m_score__min__energy>  (21) 
-10.9

>  <m_primary>  (21) 
energy

$$$$
21:0
     RDKit          3D

 45 48  0  0  0  0  0  0  0  0999 V2000
    2.1672   19.4165  -37.4680 H   0  0  0  0  0  0  0  0  0  0  0  0
    1.4300   19.6850  -36.6970 C   0  0  0  0  0  0  0  0  0  0  0  0
    1.1450   20.9910  -36.4550 N   0  0  0  0  0  0  0  0  0  0  0  0
    0.2390   21.3640  -35.5110 C   0  0  0  0  0  0  0  0  0  0  0  0
    0.0341   22.4313  -35.3413 H   0  0  0  0  0  0  0  0  0  0  0  0
   -0.4370   20.3930  -34.7510 C   0  0  0  0  0  0  0  0  0  0  0  0
   -1.4260   20.7860  -33.7160 C   0  0  0  0  0  0  0  0  0  0  0  0
   -1.2610   21.7740  -32.7550 C   0  0  0  0  0  0  0  0  0  0  0  0
   -0.3870   22.4230  -32.5972 H   0  0  0  0  0  0  0  0  0  0  0  0
   -2.4420   21.7570  -32.0430 C   0  0  0  0  0  0  0  0  0  0  0  0
   -2.6590   22.5100  -31.0000 N   0  0  0  0  0  0  0  0  0  0  0  0
   -3.7380   22.4100  -30.0620 C   0  0  0  0  0  0  0  0  0  0  0  0
   -3.7130   21.5020  -29.1860 O   0  0  0  0  0  0  0  0  0  0  0  0
   -4.8510   23.3980  -30.0670 C   0  0  0  0  0  0  0  0  0  0  0  0
   -6.1730   22.9460  -29.8850 C   0  0  0  0  0  0  0  0  0  0  0  0
   -6.3653   21.8743  -29.7287 H   0  0  0  0  0  0  0  0  0  0  0  0
   -7.2430   23.8460  -29.9010 C   0  0  0  0  0  0  0  0  0  0  0  0
   -8.2700   23.4796  -29.7561 H   0  0  0  0  0  0  0  0  0  0  0  0
   -7.0120   25.2060  -30.1000 C   0  0  0  0  0  0  0  0  0  0  0  0
   -7.8558   25.9116  -30.1121 H   0  0  0  0  0  0  0  0  0  0  0  0
   -5.7090   25.6720  -30.2840 C   0  0  0  0  0  0  0  0  0  0  0  0
   -5.5299   26.7460  -30.4403 H   0  0  0  0  0  0  0  0  0  0  0  0
   -4.6290   24.7820  -30.2710 C   0  0  0  0  0  0  0  0  0  0  0  0
   -3.3490   25.2910  -30.4590 O   0  0  0  0  0  0  0  0  0  0  0  0
   -3.2850   20.8350  -32.5760 N   0  0  0  0  0  0  0  0  0  0  0  0
   -4.6920   20.6590  -32.3470 C   0  0  0  0  0  0  0  0  0  0  0  0
   -5.6060   21.6560  -32.7220 C   0  0  0  0  0  0  0  0  0  0  0  0
   -5.2434   22.5850  -33.1861 H   0  0  0  0  0  0  0  0  0  0  0  0
   -6.9750   21.4730  -32.5080 C   0  0  0  0  0  0  0  0  0  0  0  0
   -7.6850   22.2622  -32.7960 H   0  0  0  0  0  0  0  0  0  0  0  0
   -7.4470   20.2860  -31.9270 C   0  0  0  0  0  0  0  0  0  0  0  0
   -8.9190   20.0740  -31.7330 C   0  0  0  0  0  0  0  0  0  0  0  0
   -9.1461   20.0413  -30.6572 H   0  0  0  0  0  0  0  0  0  0  0  0
   -9.4733   20.9016  -32.1998 H   0  0  0  0  0  0  0  0  0  0  0  0
   -9.2172   19.1236  -32.1998 H   0  0  0  0  0  0  0  0  0  0  0  0
   -6.5370   19.2700  -31.5980 C   0  0  0  0  0  0  0  0  0  0  0  0
   -6.9027   18.3239  -31.1723 H   0  0  0  0  0  0  0  0  0  0  0  0
   -5.1670   19.4550  -31.8090 C   0  0  0  0  0  0  0  0  0  0  0  0
   -4.4596   18.6528  -31.5519 H   0  0  0  0  0  0  0  0  0  0  0  0
   -2.6560   20.2440  -33.5800 N   0  0  0  0  0  0  0  0  0  0  0  0
   -3.0950   19.5350  -34.2100 H   0  0  0  0  0  0  0  0  0  0  0  0
   -0.1470   19.0390  -34.9940 C   0  0  0  0  0  0  0  0  0  0  0  0
   -0.6585   18.2562  -34.4148 H   0  0  0  0  0  0  0  0  0  0  0  0
    0.7880   18.6850  -35.9680 C   0  0  0  0  0  0  0  0  0  0  0  0
    1.0164   17.6260  -36.1588 H   0  0  0  0  0  0  0  0  0  0  0  0
  1  2  1  0
  2  3  2  0
  3  4  1  0
  4  5  1  0
  4  6  2  0
  6  7  1  0
  7  8  2  0
  8  9  1  0
  8 10  1  0
 10 11  2  0
 11 12  1  0
 12 13  2  0
 12 14  1  0
 14 15  2  0
 15 16  1  0
 15 17  1  0
 17 18  1  0
 17 19  2  0
 19 20  1  0
 19 21  1  0
 21 22  1  0
 21 23  2  0
 23 24  1  0
 10 25  1  0
 25 26  1  0
 26 27  2  0
 27 28  1  0
 27 29  1  0
 29 30  1  0
 29 31  2  0
 31 32  1  0
 32 33  1  0
 32 34  1  0
 32 35  1  0
 31 36  1  0
 36 37  1  0
 36 38  2  0
 38 39  1  0
 25 40  1  0
 40 41  1  0
  6 42  1  0
 42 43  1  0
 42 44  2  0
 44 45  1  0
 44  2  1  0
 40  7  1  0
 23 14  1  0
 38 26  1  0
M  CHG  1  24  -1
M  END
>  <UniqueID>  (22) 
21

>  <SMILES>  (22) 
Cc1ccc(-n2[nH]c(-c3cccnc3)c/c2=N/C(=O)c2ccccc2[O-])cc1

>  <Energy>  (22) 
101.9249072342841

>  <Genealogy>  (22) 
Cc1ccc(-n2[nH]c(-c3cccnc3)cc2=NC(=O)c2ccccc2[O-])cc1 (protonated)
Cc1ccc(-n2[nH]c(-c3cccnc3)c/c2=N/C(=O)c2ccccc2[O-])cc1 (cis-trans isomerization)
Cc1ccc(-n2[nH]c(-c3cccnc3)c/c2=N/C(=O)c2ccccc2[O-])cc1 (3D coordinates assigned)
Cc1ccc(-n2[nH]c(-c3cccnc3)c/c2=N/C(=O)c2ccccc2[O-])cc1 (optimized conformer: 101.9249072342841 kcal/mol)

>  <smiles>  (22) 
Cc1ccc(-n2[nH]c(-c3cccnc3)cc2=NC(=O)c2ccccc2O)cc1

>  <score_type>  (22) 
oracle

>  <origin>  (22) 
adgpu

>  <m_score__min__energy>  (22) 
-10.99

>  <m_primary>  (22) 
energy

$$$$
22:0
     RDKit          3D

 32 34  0  0  0  0  0  0  0  0999 V2000
   -6.7910   19.8380  -33.4210 C   0  0  0  0  0  0  0  0  0  0  0  0
   -6.1770   20.9360  -32.6050 C   0  0  0  0  0  0  0  0  0  0  0  0
   -6.9320   21.5940  -31.6210 C   0  0  0  0  0  0  0  0  0  0  0  0
   -6.3480   22.5910  -30.8350 C   0  0  0  0  0  0  0  0  0  0  0  0
   -5.0030   22.9360  -31.0170 C   0  0  0  0  0  0  0  0  0  0  0  0
   -4.2660   24.1740  -30.0060 S   0  0  0  0  0  0  0  0  0  0  0  0
   -3.8960   25.3670  -30.8420 O   0  0  0  0  0  0  0  0  0  0  0  0
   -5.2540   24.6320  -28.9700 O   0  0  0  0  0  0  0  0  0  0  0  0
   -2.8220   23.4990  -29.2350 C   0  0  0  0  0  0  0  0  0  0  0  0
   -1.7030   24.3150  -28.9840 C   0  0  0  0  0  0  0  0  0  0  0  0
   -1.7160   25.6630  -29.3340 O   0  0  0  0  0  0  0  0  0  0  0  0
   -0.5620   23.7700  -28.3850 C   0  0  0  0  0  0  0  0  0  0  0  0
    0.5270   24.5430  -28.1260 N   0  0  0  0  0  0  0  0  0  0  0  0
    1.6440   24.0280  -27.5450 C   0  0  0  0  0  0  0  0  0  0  0  0
    1.6970   22.6750  -27.2000 C   0  0  0  0  0  0  0  0  0  0  0  0
    0.5930   21.8570  -27.4570 C   0  0  0  0  0  0  0  0  0  0  0  0
   -0.5460   22.4030  -28.0540 C   0  0  0  0  0  0  0  0  0  0  0  0
   -1.6280   21.6260  -28.3200 N   0  0  0  0  0  0  0  0  0  0  0  0
   -2.7490   22.1300  -28.9000 C   0  0  0  0  0  0  0  0  0  0  0  0
   -3.7150   21.3580  -29.1390 O   0  0  0  0  0  0  0  0  0  0  0  0
   -4.2400   22.2630  -31.9810 C   0  0  0  0  0  0  0  0  0  0  0  0
   -4.8220   21.2660  -32.7680 C   0  0  0  0  0  0  0  0  0  0  0  0
   -7.2166   19.0769  -32.7505 H   0  0  0  0  0  0  0  0  0  0  0  0
   -7.5873   20.2542  -34.0556 H   0  0  0  0  0  0  0  0  0  0  0  0
   -6.0195   19.3774  -34.0556 H   0  0  0  0  0  0  0  0  0  0  0  0
   -7.9873   21.3237  -31.4682 H   0  0  0  0  0  0  0  0  0  0  0  0
   -6.9472   23.1069  -30.0703 H   0  0  0  0  0  0  0  0  0  0  0  0
    2.5083   24.6788  -27.3461 H   0  0  0  0  0  0  0  0  0  0  0  0
    2.5996   22.2572  -26.7302 H   0  0  0  0  0  0  0  0  0  0  0  0
    0.6209   20.7900  -27.1908 H   0  0  0  0  0  0  0  0  0  0  0  0
   -3.1795   22.5206  -32.1184 H   0  0  0  0  0  0  0  0  0  0  0  0
   -4.2161   20.7373  -33.5185 H   0  0  0  0  0  0  0  0  0  0  0  0
  1  2  1  0
  2  3  2  0
  3  4  1  0
  4  5  2  0
  5  6  1  0
  6  7  2  0
  6  8  2  0
  6  9  1  0
  9 10  2  0
 10 11  1  0
 10 12  1  0
 12 13  2  0
 13 14  1  0
 14 15  2  0
 15 16  1  0
 16 17  2  0
 17 18  1  0
 18 19  1  0
 19 20  2  0
  5 21  1  0
 21 22  2  0
 22  2  1  0
 19  9  1  0
 17 12  1  0
  1 23  1  0
  1 24  1  0
  1 25  1  0
  3 26  1  0
  4 27  1  0
 14 28  1  0
 15 29  1  0
 16 30  1  0
 21 31  1  0
 22 32  1  0
M  CHG  2  11  -1  18  -1
M  END
>  <UniqueID>  (23) 
22

>  <SMILES>  (23) 
Cc1ccc(S(=O)(=O)c2c([O-])c3ncccc3[n-]c2=O)cc1

>  <Energy>  (23) 
42.329178282456624

>  <Genealogy>  (23) 
Cc1ccc(S(=O)(=O)c2c([O-])c3ncccc3[n-]c2=O)cc1 (protonated)
Cc1ccc(S(=O)(=O)c2c([O-])c3ncccc3[n-]c2=O)cc1 (3D coordinates assigned)
Cc1ccc(S(=O)(=O)c2c([O-])c3ncccc3[n-]c2=O)cc1 (optimized conformer: 42.329178282456624 kcal/mol)

>  <smiles>  (23) 
Cc1ccc(S(=O)(=O)c2c(O)c3ncccc3[nH]c2=O)cc1

>  <score_type>  (23) 
oracle

>  <origin>  (23) 
adgpu

>  <m_score__min__energy>  (23) 
-11.289999999999999

>  <m_primary>  (23) 
energy

$$$$
23:0
     RDKit          3D

 44 46  0  0  0  0  0  0  0  0999 V2000
   -0.8200   19.3020  -28.5690 C   0  0  0  0  0  0  0  0  0  0  0  0
   -1.4480   19.6110  -27.2830 N   0  0  0  0  0  0  0  0  0  0  0  0
   -2.0690   18.5350  -26.5120 C   0  0  0  0  0  0  0  0  0  0  0  0
   -1.4070   20.9390  -26.7280 C   0  0  0  0  0  0  0  0  0  0  0  0
   -1.2110   21.0860  -25.4910 O   0  0  0  0  0  0  0  0  0  0  0  0
   -1.6090   22.1390  -27.5610 C   0  0  0  0  0  0  0  0  0  0  0  0
   -0.6160   22.9070  -28.1680 C   0  0  0  0  0  0  0  0  0  0  0  0
   -1.1200   23.9680  -28.9300 C   0  0  0  0  0  0  0  0  0  0  0  0
   -2.5050   24.0110  -28.9500 C   0  0  0  0  0  0  0  0  0  0  0  0
   -3.2640   25.0430  -29.5890 N   0  0  0  0  0  0  0  0  0  0  0  0
   -4.4990   24.8840  -30.2990 C   0  0  0  0  0  0  0  0  0  0  0  0
   -4.7710   25.6960  -31.2230 O   0  0  0  0  0  0  0  0  0  0  0  0
   -5.4690   23.7800  -29.9680 C   0  0  0  0  0  0  0  0  0  0  0  0
   -5.3520   22.6390  -30.9340 C   0  0  0  0  0  0  0  0  0  0  0  0
   -6.5040   21.4300  -31.1520 S   0  0  0  0  0  0  0  0  0  0  0  0
   -5.5580   20.6000  -32.2740 C   0  0  0  0  0  0  0  0  0  0  0  0
   -5.9420   19.3870  -32.9310 N   0  0  0  0  0  0  0  0  0  0  0  0
   -7.0250   18.5320  -32.4790 C   0  0  0  0  0  0  0  0  0  0  0  0
   -6.9740   17.3010  -33.3750 C   0  0  0  0  0  0  0  0  0  0  0  0
   -6.1090   17.6870  -34.5730 C   0  0  0  0  0  0  0  0  0  0  0  0
   -5.2850   18.8880  -34.1260 C   0  0  0  0  0  0  0  0  0  0  0  0
   -4.3700   21.2120  -32.4830 N   0  0  0  0  0  0  0  0  0  0  0  0
   -4.2530   22.3410  -31.7340 C   0  0  0  0  0  0  0  0  0  0  0  0
   -3.1070   23.1300  -31.7700 O   0  0  0  0  0  0  0  0  0  0  0  0
   -3.1130   22.7650  -27.9920 S   0  0  0  0  0  0  0  0  0  0  0  0
    0.1546   18.8225  -28.3953 H   0  0  0  0  0  0  0  0  0  0  0  0
   -1.4679   18.6198  -29.1389 H   0  0  0  0  0  0  0  0  0  0  0  0
   -0.6749   20.2316  -29.1389 H   0  0  0  0  0  0  0  0  0  0  0  0
   -1.9514   18.7388  -25.4375 H   0  0  0  0  0  0  0  0  0  0  0  0
   -3.1393   18.4773  -26.7592 H   0  0  0  0  0  0  0  0  0  0  0  0
   -1.5835   17.5794  -26.7592 H   0  0  0  0  0  0  0  0  0  0  0  0
    0.4587   22.6995  -28.0588 H   0  0  0  0  0  0  0  0  0  0  0  0
   -0.4826   24.6924  -29.4581 H   0  0  0  0  0  0  0  0  0  0  0  0
   -5.2592   23.4120  -28.9528 H   0  0  0  0  0  0  0  0  0  0  0  0
   -6.4895   24.1853  -30.0339 H   0  0  0  0  0  0  0  0  0  0  0  0
   -6.8767   18.2478  -31.4267 H   0  0  0  0  0  0  0  0  0  0  0  0
   -7.9985   19.0405  -32.5398 H   0  0  0  0  0  0  0  0  0  0  0  0
   -6.5240   16.4543  -32.8358 H   0  0  0  0  0  0  0  0  0  0  0  0
   -7.9812   16.9897  -33.6892 H   0  0  0  0  0  0  0  0  0  0  0  0
   -5.4485   16.8528  -34.8522 H   0  0  0  0  0  0  0  0  0  0  0  0
   -6.7235   17.9251  -35.4538 H   0  0  0  0  0  0  0  0  0  0  0  0
   -4.2531   18.5827  -33.8982 H   0  0  0  0  0  0  0  0  0  0  0  0
   -5.2263   19.6570  -34.9104 H   0  0  0  0  0  0  0  0  0  0  0  0
   -3.1590   24.1250  -31.5940 H   0  0  0  0  0  0  0  0  0  0  0  0
  1  2  1  0
  2  3  1  0
  2  4  1  0
  4  5  2  0
  4  6  1  0
  6  7  2  0
  7  8  1  0
  8  9  2  0
  9 10  1  0
 10 11  1  0
 11 12  2  0
 11 13  1  0
 13 14  1  0
 14 15  1  0
 15 16  1  0
 16 17  1  0
 17 18  1  0
 18 19  1  0
 19 20  1  0
 20 21  1  0
 16 22  2  0
 22 23  1  0
 23 24  1  0
  9 25  1  0
 25  6  1  0
 23 14  2  0
 21 17  1  0
  1 26  1  0
  1 27  1  0
  1 28  1  0
  3 29  1  0
  3 30  1  0
  3 31  1  0
  7 32  1  0
  8 33  1  0
 13 34  1  0
 13 35  1  0
 18 36  1  0
 18 37  1  0
 19 38  1  0
 19 39  1  0
 20 40  1  0
 20 41  1  0
 21 42  1  0
 21 43  1  0
 24 44  1  0
M  CHG  1  10  -1
M  END
>  <UniqueID>  (24) 
23

>  <SMILES>  (24) 
CN(C)C(=O)c1ccc([N-]C(=O)Cc2sc(N3CCCC3)nc2O)s1

>  <Energy>  (24) 
102.73651361589408

>  <Genealogy>  (24) 
CN(C)C(=O)c1ccc([N-]C(=O)Cc2sc(N3CCCC3)nc2O)s1 (protonated)
CN(C)C(=O)c1ccc([N-]C(=O)Cc2sc(N3CCCC3)nc2O)s1 (3D coordinates assigned)
CN(C)C(=O)c1ccc([N-]C(=O)Cc2sc(N3CCCC3)nc2O)s1 (nonaromatic ring conformer: 102.73651361589408 kcal/mol)

>  <smiles>  (24) 
CN(C)C(=O)c1ccc(NC(=O)Cc2sc(N3CCCC3)nc2O)s1

>  <score_type>  (24) 
oracle

>  <origin>  (24) 
adgpu

>  <m_score__min__energy>  (24) 
-10.029999999999999

>  <m_primary>  (24) 
energy

$$$$
24:0
     RDKit          3D

 49 52  0  0  0  0  0  0  0  0999 V2000
   -8.6112   22.5972  -31.6326 H   0  0  0  0  0  0  0  0  0  0  0  0
   -7.6700   23.1330  -31.4400 C   0  0  0  0  0  0  0  0  0  0  0  0
   -6.6390   23.7200  -31.2290 C   0  0  0  0  0  0  0  0  0  0  0  0
   -5.3820   24.4340  -30.9680 C   0  0  0  0  0  0  0  0  0  0  0  0
   -5.2922   25.2780  -31.6677 H   0  0  0  0  0  0  0  0  0  0  0  0
   -5.3886   24.8024  -29.9315 H   0  0  0  0  0  0  0  0  0  0  0  0
   -4.2420   23.5370  -31.1460 N   0  0  0  0  0  0  0  0  0  0  0  0
   -3.1250   23.6090  -30.4830 C   0  0  0  0  0  0  0  0  0  0  0  0
   -2.9510   24.5660  -29.5280 N   0  0  0  0  0  0  0  0  0  0  0  0
   -1.8120   24.6430  -28.7940 C   0  0  0  0  0  0  0  0  0  0  0  0
   -1.6550   25.6330  -27.8190 C   0  0  0  0  0  0  0  0  0  0  0  0
   -2.4572   26.3646  -27.6423 H   0  0  0  0  0  0  0  0  0  0  0  0
   -0.4760   25.6910  -27.0690 C   0  0  0  0  0  0  0  0  0  0  0  0
   -0.3512   26.4693  -26.3017 H   0  0  0  0  0  0  0  0  0  0  0  0
    0.5460   24.7600  -27.2930 C   0  0  0  0  0  0  0  0  0  0  0  0
    1.4717   24.8087  -26.7008 H   0  0  0  0  0  0  0  0  0  0  0  0
    0.3930   23.7680  -28.2680 C   0  0  0  0  0  0  0  0  0  0  0  0
    1.1968   23.0378  -28.4431 H   0  0  0  0  0  0  0  0  0  0  0  0
   -0.7850   23.7080  -29.0190 C   0  0  0  0  0  0  0  0  0  0  0  0
   -0.9520   22.7550  -29.9720 N   0  0  0  0  0  0  0  0  0  0  0  0
   -2.0880   22.6770  -30.7200 C   0  0  0  0  0  0  0  0  0  0  0  0
   -2.1970   21.6490  -31.7260 N   0  0  0  0  0  0  0  0  0  0  0  0
   -1.8180   20.2590  -31.4290 C   0  0  0  0  0  0  0  0  0  0  0  0
   -0.7534   20.1166  -31.6664 H   0  0  0  0  0  0  0  0  0  0  0  0
   -2.0013   20.0632  -30.3622 H   0  0  0  0  0  0  0  0  0  0  0  0
   -2.6530   19.2800  -32.2590 C   0  0  0  0  0  0  0  0  0  0  0  0
   -2.2137   19.1788  -33.2624 H   0  0  0  0  0  0  0  0  0  0  0  0
   -2.6660   18.2947  -31.7702 H   0  0  0  0  0  0  0  0  0  0  0  0
   -4.0250   19.7980  -32.3710 N   0  0  0  0  0  0  0  0  0  0  0  0
   -5.0920   18.5710  -33.0090 S   0  0  0  0  0  0  0  0  0  0  0  0
   -4.9270   18.4970  -34.5010 O   0  0  0  0  0  0  0  0  0  0  0  0
   -4.7180   17.2330  -32.4320 O   0  0  0  0  0  0  0  0  0  0  0  0
   -6.7810   18.9200  -32.6310 C   0  0  0  0  0  0  0  0  0  0  0  0
   -7.5460   17.9950  -31.9050 C   0  0  0  0  0  0  0  0  0  0  0  0
   -7.0901   17.0534  -31.5651 H   0  0  0  0  0  0  0  0  0  0  0  0
   -8.8860   18.2660  -31.6120 C   0  0  0  0  0  0  0  0  0  0  0  0
   -9.4833   17.5365  -31.0454 H   0  0  0  0  0  0  0  0  0  0  0  0
   -9.4670   19.4640  -32.0390 C   0  0  0  0  0  0  0  0  0  0  0  0
  -10.5207   19.6777  -31.8067 H   0  0  0  0  0  0  0  0  0  0  0  0
   -8.7090   20.3900  -32.7610 C   0  0  0  0  0  0  0  0  0  0  0  0
   -9.1672   21.3314  -33.0983 H   0  0  0  0  0  0  0  0  0  0  0  0
   -7.3690   20.1210  -33.0550 C   0  0  0  0  0  0  0  0  0  0  0  0
   -6.7740   20.8532  -33.6205 H   0  0  0  0  0  0  0  0  0  0  0  0
   -4.0830   21.0170  -33.2070 C   0  0  0  0  0  0  0  0  0  0  0  0
   -4.1248   20.7169  -34.2644 H   0  0  0  0  0  0  0  0  0  0  0  0
   -4.9784   21.5821  -32.9088 H   0  0  0  0  0  0  0  0  0  0  0  0
   -2.8610   21.9380  -33.0030 C   0  0  0  0  0  0  0  0  0  0  0  0
   -2.1475   21.7776  -33.8247 H   0  0  0  0  0  0  0  0  0  0  0  0
   -3.2051   22.9827  -32.9927 H   0  0  0  0  0  0  0  0  0  0  0  0
  1  2  1  0
  2  3  3  0
  3  4  1  0
  4  5  1  0
  4  6  1  0
  4  7  1  0
  7  8  2  0
  8  9  1  0
  9 10  1  0
 10 11  2  0
 11 12  1  0
 11 13  1  0
 13 14  1  0
 13 15  2  0
 15 16  1  0
 15 17  1  0
 17 18  1  0
 17 19  2  0
 19 20  1  0
 20 21  2  0
 21 22  1  0
 22 23  1  0
 23 24  1  0
 23 25  1  0
 23 26  1  0
 26 27  1  0
 26 28  1  0
 26 29  1  0
 29 30  1  0
 30 31  2  0
 30 32  2  0
 30 33  1  0
 33 34  2  0
 34 35  1  0
 34 36  1  0
 36 37  1  0
 36 38  2  0
 38 39  1  0
 38 40  1  0
 40 41  1  0
 40 42  2  0
 42 43  1  0
 29 44  1  0
 44 45  1  0
 44 46  1  0
 44 47  1  0
 47 48  1  0
 47 49  1  0
 21  8  1  0
 47 22  1  0
 19 10  1  0
 42 33  1  0
M  CHG  1   9  -1
M  END
>  <UniqueID>  (25) 
24

>  <SMILES>  (25) 
C#CC/N=c1\[n-]c2ccccc2nc1N1CCN(S(=O)(=O)c2ccccc2)CC1

>  <Energy>  (25) 
61.98783836127282

>  <Genealogy>  (25) 
C#CCN=c1[n-]c2ccccc2nc1N1CCN(S(=O)(=O)c2ccccc2)CC1 (protonated)
C#CC/N=c1\[n-]c2ccccc2nc1N1CCN(S(=O)(=O)c2ccccc2)CC1 (cis-trans isomerization)
C#CC/N=c1\[n-]c2ccccc2nc1N1CCN(S(=O)(=O)c2ccccc2)CC1 (3D coordinates assigned)
C#CC/N=c1\[n-]c2ccccc2nc1N1CCN(S(=O)(=O)c2ccccc2)CC1 (nonaromatic ring conformer: 61.98783836127282 kcal/mol)

>  <smiles>  (25) 
C#CCN=c1[nH]c2ccccc2nc1N1CCN(S(=O)(=O)c2ccccc2)CC1

>  <score_type>  (25) 
oracle

>  <origin>  (25) 
adgpu

>  <m_score__min__energy>  (25) 
-10.24

>  <m_primary>  (25) 
energy

$$$$
25:0
     RDKit          3D

 53 55  0  0  0  0  0  0  0  0999 V2000
   -6.8270   17.8230  -31.2220 C   0  0  0  0  0  0  0  0  0  0  0  0
   -6.4910   18.2900  -32.5670 N   0  0  0  0  0  0  0  0  0  0  0  0
   -5.5770   17.5360  -33.3870 C   0  0  0  0  0  0  0  0  0  0  0  0
   -4.5530   18.1850  -34.1000 C   0  0  0  0  0  0  0  0  0  0  0  0
   -3.6690   17.4520  -34.8980 C   0  0  0  0  0  0  0  0  0  0  0  0
   -3.7950   16.0600  -34.9970 C   0  0  0  0  0  0  0  0  0  0  0  0
   -2.8900   15.3110  -35.8110 N   0  0  0  0  0  0  0  0  0  0  0  0
   -4.8160   15.4100  -34.2940 C   0  0  0  0  0  0  0  0  0  0  0  0
   -5.7010   16.1410  -33.4980 C   0  0  0  0  0  0  0  0  0  0  0  0
   -7.1810   19.7790  -33.1460 S   0  0  0  0  0  0  0  0  0  0  0  0
   -8.6790   19.7240  -33.0270 O   0  0  0  0  0  0  0  0  0  0  0  0
   -6.8400   19.9600  -34.6000 O   0  0  0  0  0  0  0  0  0  0  0  0
   -6.5700   21.1370  -32.2060 C   0  0  0  0  0  0  0  0  0  0  0  0
   -7.3490   21.6820  -31.1780 C   0  0  0  0  0  0  0  0  0  0  0  0
   -6.8650   22.7480  -30.4150 C   0  0  0  0  0  0  0  0  0  0  0  0
   -5.5920   23.2760  -30.6700 C   0  0  0  0  0  0  0  0  0  0  0  0
   -4.9450   24.5900  -29.6900 S   0  0  0  0  0  0  0  0  0  0  0  0
   -6.0120   25.6170  -29.4400 O   0  0  0  0  0  0  0  0  0  0  0  0
   -3.8260   25.2420  -30.4540 O   0  0  0  0  0  0  0  0  0  0  0  0
   -4.3280   23.9440  -28.1860 N   0  0  0  0  0  0  0  0  0  0  0  0
   -3.3100   24.7560  -27.4940 C   0  0  0  0  0  0  0  0  0  0  0  0
   -1.8710   24.2080  -27.5620 C   0  0  0  0  0  0  0  0  0  0  0  0
   -1.3300   23.7990  -28.9440 C   0  0  0  0  0  0  0  0  0  0  0  0
   -2.3200   23.0850  -29.8720 C   0  0  0  0  0  0  0  0  0  0  0  0
   -3.0850   21.9670  -29.1520 C   0  0  0  0  0  0  0  0  0  0  0  0
   -4.1280   22.4860  -28.1550 C   0  0  0  0  0  0  0  0  0  0  0  0
   -4.8130   22.7360  -31.7000 C   0  0  0  0  0  0  0  0  0  0  0  0
   -5.3000   21.6740  -32.4690 C   0  0  0  0  0  0  0  0  0  0  0  0
   -6.3543   18.4800  -30.4770 H   0  0  0  0  0  0  0  0  0  0  0  0
   -7.9187   17.8435  -31.0888 H   0  0  0  0  0  0  0  0  0  0  0  0
   -6.4606   16.7944  -31.0888 H   0  0  0  0  0  0  0  0  0  0  0  0
   -4.4467   19.2776  -34.0294 H   0  0  0  0  0  0  0  0  0  0  0  0
   -2.8714   17.9704  -35.4503 H   0  0  0  0  0  0  0  0  0  0  0  0
   -2.6530   15.6250  -36.7790 H   0  0  0  0  0  0  0  0  0  0  0  0
   -2.4440   14.4380  -35.4490 H   0  0  0  0  0  0  0  0  0  0  0  0
   -4.9220   14.3177  -34.3688 H   0  0  0  0  0  0  0  0  0  0  0  0
   -6.5020   15.6198  -32.9533 H   0  0  0  0  0  0  0  0  0  0  0  0
   -8.3470   21.2689  -30.9700 H   0  0  0  0  0  0  0  0  0  0  0  0
   -7.4847   23.1738  -29.6121 H   0  0  0  0  0  0  0  0  0  0  0  0
   -3.3128   25.7598  -27.9440 H   0  0  0  0  0  0  0  0  0  0  0  0
   -3.5878   24.7487  -26.4297 H   0  0  0  0  0  0  0  0  0  0  0  0
   -1.2031   24.9861  -27.1640 H   0  0  0  0  0  0  0  0  0  0  0  0
   -1.9003   23.2721  -26.9847 H   0  0  0  0  0  0  0  0  0  0  0  0
   -0.9889   24.7115  -29.4548 H   0  0  0  0  0  0  0  0  0  0  0  0
   -0.5325   23.0681  -28.7445 H   0  0  0  0  0  0  0  0  0  0  0  0
   -3.0433   23.8213  -30.2524 H   0  0  0  0  0  0  0  0  0  0  0  0
   -1.7458   22.6282  -30.6915 H   0  0  0  0  0  0  0  0  0  0  0  0
   -3.5993   21.3544  -29.9071 H   0  0  0  0  0  0  0  0  0  0  0  0
   -2.3475   21.3872  -28.5776 H   0  0  0  0  0  0  0  0  0  0  0  0
   -5.0898   22.0022  -28.3806 H   0  0  0  0  0  0  0  0  0  0  0  0
   -3.7499   22.2429  -27.1510 H   0  0  0  0  0  0  0  0  0  0  0  0
   -3.8141   23.1484  -31.9054 H   0  0  0  0  0  0  0  0  0  0  0  0
   -4.6863   21.2586  -33.2819 H   0  0  0  0  0  0  0  0  0  0  0  0
  1  2  1  0
  2  3  1  0
  3  4  2  0
  4  5  1  0
  5  6  2  0
  6  7  1  0
  6  8  1  0
  8  9  2  0
  2 10  1  0
 10 11  2  0
 10 12  2  0
 10 13  1  0
 13 14  2  0
 14 15  1  0
 15 16  2  0
 16 17  1  0
 17 18  2  0
 17 19  2  0
 17 20  1  0
 20 21  1  0
 21 22  1  0
 22 23  1  0
 23 24  1  0
 24 25  1  0
 25 26  1  0
 16 27  1  0
 27 28  2  0
  9  3  1  0
 28 13  1  0
 26 20  1  0
  1 29  1  0
  1 30  1  0
  1 31  1  0
  4 32  1  0
  5 33  1  0
  7 34  1  0
  7 35  1  0
  8 36  1  0
  9 37  1  0
 14 38  1  0
 15 39  1  0
 21 40  1  0
 21 41  1  0
 22 42  1  0
 22 43  1  0
 23 44  1  0
 23 45  1  0
 24 46  1  0
 24 47  1  0
 25 48  1  0
 25 49  1  0
 26 50  1  0
 26 51  1  0
 27 52  1  0
 28 53  1  0
M  END
>  <UniqueID>  (26) 
25

>  <SMILES>  (26) 
CN(c1ccc(N)cc1)S(=O)(=O)c1ccc(S(=O)(=O)N2CCCCCC2)cc1

>  <Energy>  (26) 
67.63604418206857

>  <Genealogy>  (26) 
CN(c1ccc(N)cc1)S(=O)(=O)c1ccc(S(=O)(=O)N2CCCCCC2)cc1 (3D coordinates assigned)
CN(c1ccc(N)cc1)S(=O)(=O)c1ccc(S(=O)(=O)N2CCCCCC2)cc1 (nonaromatic ring conformer: 67.63604418206857 kcal/mol)

>  <smiles>  (26) 
CN(c1ccc(N)cc1)S(=O)(=O)c1ccc(S(=O)(=O)N2CCCCCC2)cc1

>  <score_type>  (26) 
oracle

>  <origin>  (26) 
adgpu

>  <m_score__min__energy>  (26) 
-8.2300000000000004

>  <m_primary>  (26) 
energy

$$$$
26:0
     RDKit          3D

 38 39  0  0  0  0  0  0  0  0999 V2000
   -1.5560   20.6550  -32.1890 C   0  0  0  0  0  0  0  0  0  0  0  0
   -2.5470   20.5620  -31.0330 C   0  0  0  0  0  0  0  0  0  0  0  0
   -2.5630   21.8440  -30.2370 C   0  0  0  0  0  0  0  0  0  0  0  0
   -1.9290   21.8890  -28.9870 C   0  0  0  0  0  0  0  0  0  0  0  0
   -1.9740   23.0500  -28.2050 C   0  0  0  0  0  0  0  0  0  0  0  0
   -1.2570   23.1000  -26.8880 C   0  0  0  0  0  0  0  0  0  0  0  0
   -2.6300   24.1860  -28.6930 C   0  0  0  0  0  0  0  0  0  0  0  0
   -3.2800   24.1580  -29.9410 C   0  0  0  0  0  0  0  0  0  0  0  0
   -3.9270   25.2890  -30.4650 O   0  0  0  0  0  0  0  0  0  0  0  0
   -5.3350   25.4960  -30.4510 C   0  0  0  0  0  0  0  0  0  0  0  0
   -3.2710   22.9700  -30.7000 C   0  0  0  0  0  0  0  0  0  0  0  0
   -3.9310   22.9020  -31.9360 O   0  0  0  0  0  0  0  0  0  0  0  0
   -4.9930   22.0340  -32.2320 C   0  0  0  0  0  0  0  0  0  0  0  0
   -4.8400   20.9410  -33.1060 C   0  0  0  0  0  0  0  0  0  0  0  0
   -5.9260   20.1010  -33.3810 C   0  0  0  0  0  0  0  0  0  0  0  0
   -5.7630   18.9800  -34.2690 C   0  0  0  0  0  0  0  0  0  0  0  0
   -5.6310   18.0790  -34.9840 N   0  0  0  0  0  0  0  0  0  0  0  0
   -7.1720   20.3540  -32.7930 C   0  0  0  0  0  0  0  0  0  0  0  0
   -7.3330   21.4500  -31.9360 C   0  0  0  0  0  0  0  0  0  0  0  0
   -8.6150   21.7140  -31.3380 C   0  0  0  0  0  0  0  0  0  0  0  0
   -9.6470   21.9270  -30.8570 N   0  0  0  0  0  0  0  0  0  0  0  0
   -6.2450   22.2880  -31.6630 C   0  0  0  0  0  0  0  0  0  0  0  0
   -0.5353   20.7508  -31.7902 H   0  0  0  0  0  0  0  0  0  0  0  0
   -1.6251   19.7464  -32.8052 H   0  0  0  0  0  0  0  0  0  0  0  0
   -1.7930   21.5349  -32.8052 H   0  0  0  0  0  0  0  0  0  0  0  0
   -3.5536   20.3744  -31.4350 H   0  0  0  0  0  0  0  0  0  0  0  0
   -2.2401   19.7392  -30.3705 H   0  0  0  0  0  0  0  0  0  0  0  0
   -1.3910   21.0037  -28.6170 H   0  0  0  0  0  0  0  0  0  0  0  0
   -1.9899   23.0489  -26.0693 H   0  0  0  0  0  0  0  0  0  0  0  0
   -0.5652   22.2479  -26.8145 H   0  0  0  0  0  0  0  0  0  0  0  0
   -0.6902   24.0399  -26.8145 H   0  0  0  0  0  0  0  0  0  0  0  0
   -2.6376   25.1095  -28.0954 H   0  0  0  0  0  0  0  0  0  0  0  0
   -5.6877   25.5478  -29.4104 H   0  0  0  0  0  0  0  0  0  0  0  0
   -5.5722   26.4387  -30.9659 H   0  0  0  0  0  0  0  0  0  0  0  0
   -5.8334   24.6615  -30.9659 H   0  0  0  0  0  0  0  0  0  0  0  0
   -3.8640   20.7462  -33.5745 H   0  0  0  0  0  0  0  0  0  0  0  0
   -8.0244   19.6916  -33.0044 H   0  0  0  0  0  0  0  0  0  0  0  0
   -6.3760   23.1527  -30.9959 H   0  0  0  0  0  0  0  0  0  0  0  0
  1  2  1  0
  2  3  1  0
  3  4  2  0
  4  5  1  0
  5  6  1  0
  5  7  2  0
  7  8  1  0
  8  9  1  0
  9 10  1  0
  8 11  2  0
 11 12  1  0
 12 13  1  0
 13 14  2  0
 14 15  1  0
 15 16  1  0
 16 17  3  0
 15 18  2  0
 18 19  1  0
 19 20  1  0
 20 21  3  0
 19 22  2  0
 11  3  1  0
 22 13  1  0
  1 23  1  0
  1 24  1  0
  1 25  1  0
  2 26  1  0
  2 27  1  0
  4 28  1  0
  6 29  1  0
  6 30  1  0
  6 31  1  0
  7 32  1  0
 10 33  1  0
 10 34  1  0
 10 35  1  0
 14 36  1  0
 18 37  1  0
 22 38  1  0
M  END
>  <UniqueID>  (27) 
26

>  <SMILES>  (27) 
CCc1cc(C)cc(OC)c1Oc1cc(C#N)cc(C#N)c1

>  <Energy>  (27) 
39.071634675926504

>  <Genealogy>  (27) 
CCc1cc(C)cc(OC)c1Oc1cc(C#N)cc(C#N)c1 (3D coordinates assigned)
CCc1cc(C)cc(OC)c1Oc1cc(C#N)cc(C#N)c1 (optimized conformer: 39.071634675926504 kcal/mol)

>  <smiles>  (27) 
CCc1cc(C)cc(OC)c1Oc1cc(C#N)cc(C#N)c1

>  <score_type>  (27) 
oracle

>  <origin>  (27) 
adgpu

>  <m_score__min__energy>  (27) 
-8.1999999999999993

>  <m_primary>  (27) 
energy

$$$$
27:0
     RDKit          3D

 60 63  0  0  0  0  0  0  0  0999 V2000
   -9.1200   19.6680  -32.0480 C   0  0  0  0  0  0  0  0  0  0  0  0
   -8.7910   20.9030  -31.2200 C   0  0  0  0  0  0  0  0  0  0  0  0
   -7.9370   21.7860  -31.9460 O   0  0  0  0  0  0  0  0  0  0  0  0
   -6.5690   21.5870  -32.2010 C   0  0  0  0  0  0  0  0  0  0  0  0
   -6.1070   20.4810  -32.9580 C   0  0  0  0  0  0  0  0  0  0  0  0
   -4.7390   20.3600  -33.1790 C   0  0  0  0  0  0  0  0  0  0  0  0
   -3.8430   21.2640  -32.6810 C   0  0  0  0  0  0  0  0  0  0  0  0
   -4.2510   22.3610  -31.9240 C   0  0  0  0  0  0  0  0  0  0  0  0
   -5.6360   22.5400  -31.6920 C   0  0  0  0  0  0  0  0  0  0  0  0
   -6.1190   23.6660  -30.9320 N   0  0  0  0  0  0  0  0  0  0  0  0
   -5.0990   24.6720  -29.9510 S   0  0  0  0  0  0  0  0  0  0  0  0
   -4.3160   25.5960  -30.8410 O   0  0  0  0  0  0  0  0  0  0  0  0
   -5.9530   25.4950  -29.0310 O   0  0  0  0  0  0  0  0  0  0  0  0
   -4.0170   23.6710  -28.9890 C   0  0  0  0  0  0  0  0  0  0  0  0
   -2.8300   24.2030  -28.4710 C   0  0  0  0  0  0  0  0  0  0  0  0
   -1.9730   23.4020  -27.7120 C   0  0  0  0  0  0  0  0  0  0  0  0
   -2.2950   22.0600  -27.4640 C   0  0  0  0  0  0  0  0  0  0  0  0
   -1.2070   21.0460  -26.5120 S   0  0  0  0  0  0  0  0  0  0  0  0
   -2.0160   20.0600  -25.7170 O   0  0  0  0  0  0  0  0  0  0  0  0
   -0.4490   21.9110  -25.5450 O   0  0  0  0  0  0  0  0  0  0  0  0
   -0.0740   20.1840  -27.5270 N   0  0  0  0  0  0  0  0  0  0  0  0
   -0.3320   18.7340  -27.4730 C   0  0  0  0  0  0  0  0  0  0  0  0
    0.2910   18.0280  -28.6870 C   0  0  0  0  0  0  0  0  0  0  0  0
   -0.2070   18.4810  -29.9420 O   0  0  0  0  0  0  0  0  0  0  0  0
   -0.7690   19.7860  -29.8990 C   0  0  0  0  0  0  0  0  0  0  0  0
   -0.0560   20.7200  -28.9060 C   0  0  0  0  0  0  0  0  0  0  0  0
   -3.4880   21.5310  -27.9770 C   0  0  0  0  0  0  0  0  0  0  0  0
   -4.3440   22.3320  -28.7380 C   0  0  0  0  0  0  0  0  0  0  0  0
   -2.5910   20.8890  -33.0210 N   0  0  0  0  0  0  0  0  0  0  0  0
   -1.3260   21.4920  -32.6120 C   0  0  0  0  0  0  0  0  0  0  0  0
   -2.7690   19.7330  -33.7060 C   0  0  0  0  0  0  0  0  0  0  0  0
   -1.8170   19.0380  -34.1560 O   0  0  0  0  0  0  0  0  0  0  0  0
   -4.0740   19.3940  -33.8440 N   0  0  0  0  0  0  0  0  0  0  0  0
   -4.6260   18.1930  -34.4650 C   0  0  0  0  0  0  0  0  0  0  0  0
   -9.3444   18.8258  -31.3770 H   0  0  0  0  0  0  0  0  0  0  0  0
   -9.9945   19.8743  -32.6826 H   0  0  0  0  0  0  0  0  0  0  0  0
   -8.2588   19.4119  -32.6826 H   0  0  0  0  0  0  0  0  0  0  0  0
   -9.7243   21.4286  -30.9695 H   0  0  0  0  0  0  0  0  0  0  0  0
   -8.2729   20.5855  -30.3031 H   0  0  0  0  0  0  0  0  0  0  0  0
   -6.8117   19.7382  -33.3600 H   0  0  0  0  0  0  0  0  0  0  0  0
   -3.5151   23.0700  -31.5170 H   0  0  0  0  0  0  0  0  0  0  0  0
   -7.1190   23.9590  -31.0160 H   0  0  0  0  0  0  0  0  0  0  0  0
   -2.5713   25.2549  -28.6622 H   0  0  0  0  0  0  0  0  0  0  0  0
   -1.0420   23.8258  -27.3074 H   0  0  0  0  0  0  0  0  0  0  0  0
    0.1063   18.3230  -26.5516 H   0  0  0  0  0  0  0  0  0  0  0  0
   -1.4191   18.5667  -27.4850 H   0  0  0  0  0  0  0  0  0  0  0  0
    1.3776   18.1975  -28.6650 H   0  0  0  0  0  0  0  0  0  0  0  0
    0.0252   16.9637  -28.6058 H   0  0  0  0  0  0  0  0  0  0  0  0
   -0.7033   20.2283  -30.9040 H   0  0  0  0  0  0  0  0  0  0  0  0
   -1.8105   19.6826  -29.5606 H   0  0  0  0  0  0  0  0  0  0  0  0
    0.9895   20.8448  -29.2245 H   0  0  0  0  0  0  0  0  0  0  0  0
   -0.5896   21.6819  -28.9027 H   0  0  0  0  0  0  0  0  0  0  0  0
   -3.7512   20.4813  -27.7797 H   0  0  0  0  0  0  0  0  0  0  0  0
   -5.2766   21.9101  -29.1408 H   0  0  0  0  0  0  0  0  0  0  0  0
   -1.2706   21.5184  -31.5137 H   0  0  0  0  0  0  0  0  0  0  0  0
   -0.4907   20.8952  -33.0070 H   0  0  0  0  0  0  0  0  0  0  0  0
   -1.2636   22.5167  -33.0070 H   0  0  0  0  0  0  0  0  0  0  0  0
   -4.9488   17.4908  -33.6823 H   0  0  0  0  0  0  0  0  0  0  0  0
   -5.4886   18.4669  -35.0902 H   0  0  0  0  0  0  0  0  0  0  0  0
   -3.8564   17.7167  -35.0902 H   0  0  0  0  0  0  0  0  0  0  0  0
  1  2  1  0
  2  3  1  0
  3  4  1  0
  4  5  2  0
  5  6  1  0
  6  7  2  0
  7  8  1  0
  8  9  2  0
  9 10  1  0
 10 11  1  0
 11 12  2  0
 11 13  2  0
 11 14  1  0
 14 15  2  0
 15 16  1  0
 16 17  2  0
 17 18  1  0
 18 19  2  0
 18 20  2  0
 18 21  1  0
 21 22  1  0
 22 23  1  0
 23 24  1  0
 24 25  1  0
 25 26  1  0
 17 27  1  0
 27 28  2  0
  7 29  1  0
 29 30  1  0
 29 31  1  0
 31 32  2  0
 31 33  1  0
 33 34  1  0
  9  4  1  0
 28 14  1  0
 33  6  1  0
 26 21  1  0
  1 35  1  0
  1 36  1  0
  1 37  1  0
  2 38  1  0
  2 39  1  0
  5 40  1  0
  8 41  1  0
 10 42  1  0
 15 43  1  0
 16 44  1  0
 22 45  1  0
 22 46  1  0
 23 47  1  0
 23 48  1  0
 25 49  1  0
 25 50  1  0
 26 51  1  0
 26 52  1  0
 27 53  1  0
 28 54  1  0
 30 55  1  0
 30 56  1  0
 30 57  1  0
 34 58  1  0
 34 59  1  0
 34 60  1  0
M  END
>  <UniqueID>  (28) 
27

>  <SMILES>  (28) 
CCOc1cc2c(cc1NS(=O)(=O)c1ccc(S(=O)(=O)N3CCOCC3)cc1)n(C)c(=O)n2C

>  <Energy>  (28) 
114.54391997152284

>  <Genealogy>  (28) 
CCOc1cc2c(cc1NS(=O)(=O)c1ccc(S(=O)(=O)N3CCOCC3)cc1)n(C)c(=O)n2C (3D coordinates assigned)
CCOc1cc2c(cc1NS(=O)(=O)c1ccc(S(=O)(=O)N3CCOCC3)cc1)n(C)c(=O)n2C (nonaromatic ring conformer: 114.54391997152284 kcal/mol)

>  <smiles>  (28) 
CCOc1cc2c(cc1NS(=O)(=O)c1ccc(S(=O)(=O)N3CCOCC3)cc1)n(C)c(=O)n2C

>  <score_type>  (28) 
oracle

>  <origin>  (28) 
adgpu

>  <m_score__min__energy>  (28) 
-11.699999999999999

>  <m_primary>  (28) 
energy

$$$$
28:0
     RDKit          3D

 46 48  0  0  0  0  0  0  0  0999 V2000
   -3.6210   24.9150  -31.2750 H   0  0  0  0  0  0  0  0  0  0  0  0
   -4.5360   24.9640  -30.8420 O   0  0  0  0  0  0  0  0  0  0  0  0
   -5.5180   24.0090  -31.1010 C   0  0  0  0  0  0  0  0  0  0  0  0
   -6.7590   24.0740  -30.4530 C   0  0  0  0  0  0  0  0  0  0  0  0
   -6.9615   24.8820  -29.7345 H   0  0  0  0  0  0  0  0  0  0  0  0
   -7.7400   23.1140  -30.7180 C   0  0  0  0  0  0  0  0  0  0  0  0
   -8.7114   23.1677  -30.2046 H   0  0  0  0  0  0  0  0  0  0  0  0
   -7.4910   22.0810  -31.6370 C   0  0  0  0  0  0  0  0  0  0  0  0
   -8.5310   21.0200  -31.8880 C   0  0  0  0  0  0  0  0  0  0  0  0
   -9.4913   21.5063  -32.1147 H   0  0  0  0  0  0  0  0  0  0  0  0
   -8.6137   20.3954  -30.9863 H   0  0  0  0  0  0  0  0  0  0  0  0
   -8.1370   20.1190  -33.0660 C   0  0  0  0  0  0  0  0  0  0  0  0
   -7.1927   20.4829  -33.4970 H   0  0  0  0  0  0  0  0  0  0  0  0
   -8.9410   20.1515  -33.8161 H   0  0  0  0  0  0  0  0  0  0  0  0
   -7.9620   18.7370  -32.6320 N   0  0  0  0  0  0  0  0  0  0  0  0
   -6.8780   17.9020  -33.0520 C   0  0  0  0  0  0  0  0  0  0  0  0
   -7.1070   16.8130  -33.6450 O   0  0  0  0  0  0  0  0  0  0  0  0
   -5.4950   18.3120  -32.7860 C   0  0  0  0  0  0  0  0  0  0  0  0
   -4.4150   17.5940  -33.1460 N   0  0  0  0  0  0  0  0  0  0  0  0
   -3.3340   18.2390  -32.7350 N   0  0  0  0  0  0  0  0  0  0  0  0
   -3.7200   19.3690  -32.1120 C   0  0  0  0  0  0  0  0  0  0  0  0
   -2.7620   20.3210  -31.5190 C   0  0  0  0  0  0  0  0  0  0  0  0
   -1.7671   20.4199  -31.9777 H   0  0  0  0  0  0  0  0  0  0  0  0
   -3.0500   21.0710  -30.4460 C   0  0  0  0  0  0  0  0  0  0  0  0
   -4.0449   20.9638  -29.9892 H   0  0  0  0  0  0  0  0  0  0  0  0
   -2.1010   22.0380  -29.8400 C   0  0  0  0  0  0  0  0  0  0  0  0
   -0.9240   21.5460  -29.2530 C   0  0  0  0  0  0  0  0  0  0  0  0
   -0.7309   20.4631  -29.2451 H   0  0  0  0  0  0  0  0  0  0  0  0
    0.0040   22.4180  -28.6790 C   0  0  0  0  0  0  0  0  0  0  0  0
    0.9164   22.0169  -28.2135 H   0  0  0  0  0  0  0  0  0  0  0  0
   -0.2220   23.8070  -28.6930 C   0  0  0  0  0  0  0  0  0  0  0  0
    0.6830   24.7190  -28.1280 O   0  0  0  0  0  0  0  0  0  0  0  0
    0.3780   25.5870  -27.0400 C   0  0  0  0  0  0  0  0  0  0  0  0
    0.5620   25.0632  -26.0904 H   0  0  0  0  0  0  0  0  0  0  0  0
    1.0156   26.4817  -27.0948 H   0  0  0  0  0  0  0  0  0  0  0  0
   -0.6791   25.8862  -27.0948 H   0  0  0  0  0  0  0  0  0  0  0  0
   -1.3870   24.3020  -29.2930 C   0  0  0  0  0  0  0  0  0  0  0  0
   -1.6210   25.6720  -29.3270 O   0  0  0  0  0  0  0  0  0  0  0  0
   -2.3170   23.4290  -29.8660 C   0  0  0  0  0  0  0  0  0  0  0  0
   -3.2239   23.8320  -30.3405 H   0  0  0  0  0  0  0  0  0  0  0  0
   -5.1000   19.4540  -32.1210 C   0  0  0  0  0  0  0  0  0  0  0  0
   -5.7342   20.2466  -31.6972 H   0  0  0  0  0  0  0  0  0  0  0  0
   -6.2420   22.0150  -32.2760 C   0  0  0  0  0  0  0  0  0  0  0  0
   -6.0336   21.2025  -32.9877 H   0  0  0  0  0  0  0  0  0  0  0  0
   -5.2620   22.9770  -32.0120 C   0  0  0  0  0  0  0  0  0  0  0  0
   -4.0310   22.9020  -32.6540 O   0  0  0  0  0  0  0  0  0  0  0  0
  1  2  1  0
  2  3  1  0
  3  4  2  0
  4  5  1  0
  4  6  1  0
  6  7  1  0
  6  8  2  0
  8  9  1  0
  9 10  1  0
  9 11  1  0
  9 12  1  0
 12 13  1  0
 12 14  1  0
 12 15  1  0
 15 16  1  0
 16 17  2  0
 16 18  1  0
 18 19  2  0
 19 20  1  0
 20 21  1  0
 21 22  1  0
 22 23  1  0
 22 24  2  0
 24 25  1  0
 24 26  1  0
 26 27  2  0
 27 28  1  0
 27 29  1  0
 29 30  1  0
 29 31  2  0
 31 32  1  0
 32 33  1  0
 33 34  1  0
 33 35  1  0
 33 36  1  0
 31 37  1  0
 37 38  1  0
 37 39  2  0
 39 40  1  0
 21 41  2  0
 41 42  1  0
  8 43  1  0
 43 44  1  0
 43 45  2  0
 45 46  1  0
 45  3  1  0
 41 18  1  0
 39 26  1  0
M  CHG  4  15  -1  20  -1  38  -1  46  -1
M  END
>  <UniqueID>  (29) 
28

>  <SMILES>  (29) 
COc1ccc(/C=C/c2cc(C(=O)[N-]CCc3ccc(O)c([O-])c3)n[n-]2)cc1[O-]

>  <Energy>  (29) 
73.57436941087566

>  <Genealogy>  (29) 
COc1ccc(C=Cc2cc(C(=O)[N-]CCc3ccc(O)c([O-])c3)n[n-]2)cc1[O-] (protonated)
COc1ccc(/C=C/c2cc(C(=O)[N-]CCc3ccc(O)c([O-])c3)n[n-]2)cc1[O-] (cis-trans isomerization)
COc1ccc(/C=C/c2cc(C(=O)[N-]CCc3ccc(O)c([O-])c3)n[n-]2)cc1[O-] (3D coordinates assigned)
COc1ccc(/C=C/c2cc(C(=O)[N-]CCc3ccc(O)c([O-])c3)n[n-]2)cc1[O-] (optimized conformer: 73.57436941087566 kcal/mol)

>  <smiles>  (29) 
COc1ccc(C=Cc2cc(C(=O)NCCc3ccc(O)c(O)c3)n[nH]2)cc1O

>  <score_type>  (29) 
oracle

>  <origin>  (29) 
adgpu

>  <m_score__min__energy>  (29) 
-12.220000000000001

>  <m_primary>  (29) 
energy

$$$$
29:0
     RDKit          3D

 56 58  0  0  0  0  0  0  0  0999 V2000
   -9.7960   21.8820  -31.2420 C   0  0  0  0  0  0  0  0  0  0  0  0
   -8.6430   21.0780  -31.7700 C   0  0  0  0  0  0  0  0  0  0  0  0
   -7.4730   21.7230  -32.2020 C   0  0  0  0  0  0  0  0  0  0  0  0
   -6.4100   20.9830  -32.7280 C   0  0  0  0  0  0  0  0  0  0  0  0
   -6.5050   19.5870  -32.8330 C   0  0  0  0  0  0  0  0  0  0  0  0
   -5.3790   18.7950  -33.4380 C   0  0  0  0  0  0  0  0  0  0  0  0
   -4.3340   18.6080  -32.4340 N   0  0  0  0  0  0  0  0  0  0  0  0
   -2.8550   19.3410  -32.9790 S   0  0  0  0  0  0  0  0  0  0  0  0
   -1.7080   18.4040  -32.7140 O   0  0  0  0  0  0  0  0  0  0  0  0
   -2.9300   19.6100  -34.4570 O   0  0  0  0  0  0  0  0  0  0  0  0
   -2.5850   20.8450  -32.1110 C   0  0  0  0  0  0  0  0  0  0  0  0
   -3.5230   21.8190  -31.8490 C   0  0  0  0  0  0  0  0  0  0  0  0
   -2.8560   22.7780  -31.1030 C   0  0  0  0  0  0  0  0  0  0  0  0
   -3.4560   24.0230  -30.5790 C   0  0  0  0  0  0  0  0  0  0  0  0
   -4.6420   24.3070  -30.8950 O   0  0  0  0  0  0  0  0  0  0  0  0
   -2.7380   24.9280  -29.7260 N   0  0  0  0  0  0  0  0  0  0  0  0
   -2.4880   24.7560  -28.2960 C   0  0  0  0  0  0  0  0  0  0  0  0
   -2.2840   23.2990  -27.9660 C   0  0  0  0  0  0  0  0  0  0  0  0
   -3.3900   22.4450  -27.8590 C   0  0  0  0  0  0  0  0  0  0  0  0
   -3.2180   21.0980  -27.5310 C   0  0  0  0  0  0  0  0  0  0  0  0
   -1.9290   20.5650  -27.2980 C   0  0  0  0  0  0  0  0  0  0  0  0
   -1.7500   19.1660  -26.9330 N   0  0  0  0  0  0  0  0  0  0  0  0
   -0.6190   18.3900  -27.4630 C   0  0  0  0  0  0  0  0  0  0  0  0
   -2.6910   18.5030  -26.0190 C   0  0  0  0  0  0  0  0  0  0  0  0
   -0.8220   21.4320  -27.4290 C   0  0  0  0  0  0  0  0  0  0  0  0
   -0.9980   22.7780  -27.7650 C   0  0  0  0  0  0  0  0  0  0  0  0
   -1.6070   22.4110  -30.9150 O   0  0  0  0  0  0  0  0  0  0  0  0
   -1.4120   21.2560  -31.5050 C   0  0  0  0  0  0  0  0  0  0  0  0
   -0.1040   20.5370  -31.5170 C   0  0  0  0  0  0  0  0  0  0  0  0
   -7.6890   18.9460  -32.4330 C   0  0  0  0  0  0  0  0  0  0  0  0
   -8.7500   19.6870  -31.9030 C   0  0  0  0  0  0  0  0  0  0  0  0
   -9.7784   21.8697  -30.1422 H   0  0  0  0  0  0  0  0  0  0  0  0
   -9.7134   22.9193  -31.5985 H   0  0  0  0  0  0  0  0  0  0  0  0
  -10.7408   21.4459  -31.5985 H   0  0  0  0  0  0  0  0  0  0  0  0
   -7.3924   22.8174  -32.1261 H   0  0  0  0  0  0  0  0  0  0  0  0
   -5.4960   21.4968  -33.0607 H   0  0  0  0  0  0  0  0  0  0  0  0
   -5.7534   17.8145  -33.7673 H   0  0  0  0  0  0  0  0  0  0  0  0
   -4.9690   19.3351  -34.3042 H   0  0  0  0  0  0  0  0  0  0  0  0
   -4.5767   21.8328  -32.1645 H   0  0  0  0  0  0  0  0  0  0  0  0
   -1.5861   25.3201  -28.0160 H   0  0  0  0  0  0  0  0  0  0  0  0
   -3.3582   25.1287  -27.7358 H   0  0  0  0  0  0  0  0  0  0  0  0
   -4.4020   22.8386  -28.0348 H   0  0  0  0  0  0  0  0  0  0  0  0
   -4.0979   20.4425  -27.4528 H   0  0  0  0  0  0  0  0  0  0  0  0
   -0.0288   17.9850  -26.6278 H   0  0  0  0  0  0  0  0  0  0  0  0
   -0.9992   17.5617  -28.0789 H   0  0  0  0  0  0  0  0  0  0  0  0
    0.0170   19.0428  -28.0789 H   0  0  0  0  0  0  0  0  0  0  0  0
   -2.3986   18.7091  -24.9788 H   0  0  0  0  0  0  0  0  0  0  0  0
   -3.7066   18.8861  -26.1971 H   0  0  0  0  0  0  0  0  0  0  0  0
   -2.6720   17.4177  -26.1971 H   0  0  0  0  0  0  0  0  0  0  0  0
    0.1936   21.0429  -27.2643 H   0  0  0  0  0  0  0  0  0  0  0  0
   -0.1208   23.4330  -27.8724 H   0  0  0  0  0  0  0  0  0  0  0  0
    0.2246   20.3564  -30.4829 H   0  0  0  0  0  0  0  0  0  0  0  0
   -0.2190   19.5753  -32.0385 H   0  0  0  0  0  0  0  0  0  0  0  0
    0.6463   21.1495  -32.0385 H   0  0  0  0  0  0  0  0  0  0  0  0
   -7.7822   17.8549  -32.5372 H   0  0  0  0  0  0  0  0  0  0  0  0
   -9.6722   19.1760  -31.5893 H   0  0  0  0  0  0  0  0  0  0  0  0
  1  2  1  0
  2  3  2  0
  3  4  1  0
  4  5  2  0
  5  6  1  0
  6  7  1  0
  7  8  1  0
  8  9  2  0
  8 10  2  0
  8 11  1  0
 11 12  1  0
 12 13  2  0
 13 14  1  0
 14 15  2  0
 14 16  1  0
 16 17  1  0
 17 18  1  0
 18 19  2  0
 19 20  1  0
 20 21  2  0
 21 22  1  0
 22 23  1  0
 22 24  1  0
 21 25  1  0
 25 26  2  0
 13 27  1  0
 27 28  1  0
 28 29  1  0
  5 30  1  0
 30 31  2  0
 31  2  1  0
 28 11  2  0
 26 18  1  0
  1 32  1  0
  1 33  1  0
  1 34  1  0
  3 35  1  0
  4 36  1  0
  6 37  1  0
  6 38  1  0
 12 39  1  0
 17 40  1  0
 17 41  1  0
 19 42  1  0
 20 43  1  0
 23 44  1  0
 23 45  1  0
 23 46  1  0
 24 47  1  0
 24 48  1  0
 24 49  1  0
 25 50  1  0
 26 51  1  0
 29 52  1  0
 29 53  1  0
 29 54  1  0
 30 55  1  0
 31 56  1  0
M  CHG  2   7  -1  16  -1
M  END
>  <UniqueID>  (30) 
29

>  <SMILES>  (30) 
Cc1ccc(C[N-]S(=O)(=O)c2cc(C(=O)[N-]Cc3ccc(N(C)C)cc3)oc2C)cc1

>  <Energy>  (30) 
79.26735372499212

>  <Genealogy>  (30) 
Cc1ccc(C[N-]S(=O)(=O)c2cc(C(=O)[N-]Cc3ccc(N(C)C)cc3)oc2C)cc1 (protonated)
Cc1ccc(C[N-]S(=O)(=O)c2cc(C(=O)[N-]Cc3ccc(N(C)C)cc3)oc2C)cc1 (3D coordinates assigned)
Cc1ccc(C[N-]S(=O)(=O)c2cc(C(=O)[N-]Cc3ccc(N(C)C)cc3)oc2C)cc1 (optimized conformer: 79.26735372499212 kcal/mol)

>  <smiles>  (30) 
Cc1ccc(CNS(=O)(=O)c2cc(C(=O)NCc3ccc(N(C)C)cc3)oc2C)cc1

>  <score_type>  (30) 
oracle

>  <origin>  (30) 
adgpu

>  <m_score__min__energy>  (30) 
-11.57

>  <m_primary>  (30) 
energy

$$$$
30:0
     RDKit          3D

 46 48  0  0  0  0  0  0  0  0999 V2000
   -5.3240   25.4460  -30.5070 C   0  0  0  0  0  0  0  0  0  0  0  0
   -4.5790   24.2440  -30.1180 N   0  0  0  0  0  0  0  0  0  0  0  0
   -4.0380   24.1570  -28.7870 C   0  0  0  0  0  0  0  0  0  0  0  0
   -4.7370   24.5460  -27.8110 O   0  0  0  0  0  0  0  0  0  0  0  0
   -2.6780   23.6230  -28.5370 C   0  0  0  0  0  0  0  0  0  0  0  0
   -2.5270   22.3140  -28.0460 C   0  0  0  0  0  0  0  0  0  0  0  0
   -1.2550   21.7890  -27.8030 C   0  0  0  0  0  0  0  0  0  0  0  0
   -0.1180   22.5610  -28.0560 C   0  0  0  0  0  0  0  0  0  0  0  0
    1.1450   22.0390  -27.8110 O   0  0  0  0  0  0  0  0  0  0  0  0
   -0.2540   23.8580  -28.5590 C   0  0  0  0  0  0  0  0  0  0  0  0
   -1.5240   24.3890  -28.8090 C   0  0  0  0  0  0  0  0  0  0  0  0
   -1.6260   25.6680  -29.3470 O   0  0  0  0  0  0  0  0  0  0  0  0
   -4.5880   23.0700  -30.9610 C   0  0  0  0  0  0  0  0  0  0  0  0
   -3.4290   22.6580  -31.6450 C   0  0  0  0  0  0  0  0  0  0  0  0
   -3.4470   21.5130  -32.4670 C   0  0  0  0  0  0  0  0  0  0  0  0
   -2.3220   21.0640  -33.1770 O   0  0  0  0  0  0  0  0  0  0  0  0
   -1.2970   20.2040  -32.6740 C   0  0  0  0  0  0  0  0  0  0  0  0
   -0.8530   20.6410  -31.2810 C   0  0  0  0  0  0  0  0  0  0  0  0
   -0.5070   21.9790  -31.2700 F   0  0  0  0  0  0  0  0  0  0  0  0
   -4.6310   20.7780  -32.5840 C   0  0  0  0  0  0  0  0  0  0  0  0
   -5.7930   21.1680  -31.9030 C   0  0  0  0  0  0  0  0  0  0  0  0
   -7.0100   20.4070  -32.0400 N   0  0  0  0  0  0  0  0  0  0  0  0
   -8.1880   21.0760  -32.2350 C   0  0  0  0  0  0  0  0  0  0  0  0
   -9.3890   20.3780  -32.3810 C   0  0  0  0  0  0  0  0  0  0  0  0
   -9.3830   18.9870  -32.3240 C   0  0  0  0  0  0  0  0  0  0  0  0
   -8.1830   18.3090  -32.1190 C   0  0  0  0  0  0  0  0  0  0  0  0
   -6.9950   19.0350  -31.9730 C   0  0  0  0  0  0  0  0  0  0  0  0
   -5.9190   18.4100  -31.7650 O   0  0  0  0  0  0  0  0  0  0  0  0
   -5.7640   22.3160  -31.0980 C   0  0  0  0  0  0  0  0  0  0  0  0
   -5.6552   25.9803  -29.6043 H   0  0  0  0  0  0  0  0  0  0  0  0
   -4.6744   26.1028  -31.1042 H   0  0  0  0  0  0  0  0  0  0  0  0
   -6.2012   25.1564  -31.1042 H   0  0  0  0  0  0  0  0  0  0  0  0
   -3.4175   21.6982  -27.8516 H   0  0  0  0  0  0  0  0  0  0  0  0
   -1.1485   20.7664  -27.4119 H   0  0  0  0  0  0  0  0  0  0  0  0
    0.6418   24.4641  -28.7593 H   0  0  0  0  0  0  0  0  0  0  0  0
   -2.4992   23.2357  -31.5370 H   0  0  0  0  0  0  0  0  0  0  0  0
   -1.6834   19.1754  -32.6225 H   0  0  0  0  0  0  0  0  0  0  0  0
   -0.4314   20.2564  -33.3508 H   0  0  0  0  0  0  0  0  0  0  0  0
   -1.6779   20.4766  -30.5721 H   0  0  0  0  0  0  0  0  0  0  0  0
    0.0271   20.0483  -30.9910 H   0  0  0  0  0  0  0  0  0  0  0  0
   -4.6510   19.8805  -33.2197 H   0  0  0  0  0  0  0  0  0  0  0  0
   -8.1889   22.1752  -32.2772 H   0  0  0  0  0  0  0  0  0  0  0  0
  -10.3314   20.9227  -32.5396 H   0  0  0  0  0  0  0  0  0  0  0  0
  -10.3217   18.4255  -32.4403 H   0  0  0  0  0  0  0  0  0  0  0  0
   -8.1693   17.2101  -32.0722 H   0  0  0  0  0  0  0  0  0  0  0  0
   -6.6748   22.6297  -30.5670 H   0  0  0  0  0  0  0  0  0  0  0  0
  1  2  1  0
  2  3  1  0
  3  4  2  0
  3  5  1  0
  5  6  2  0
  6  7  1  0
  7  8  2  0
  8  9  1  0
  8 10  1  0
 10 11  2  0
 11 12  1  0
  2 13  1  0
 13 14  2  0
 14 15  1  0
 15 16  1  0
 16 17  1  0
 17 18  1  0
 18 19  1  0
 15 20  2  0
 20 21  1  0
 21 22  1  0
 22 23  1  0
 23 24  2  0
 24 25  1  0
 25 26  2  0
 26 27  1  0
 27 28  2  0
 21 29  2  0
 11  5  1  0
 29 13  1  0
 27 22  1  0
  1 30  1  0
  1 31  1  0
  1 32  1  0
  6 33  1  0
  7 34  1  0
 10 35  1  0
 14 36  1  0
 17 37  1  0
 17 38  1  0
 18 39  1  0
 18 40  1  0
 20 41  1  0
 23 42  1  0
 24 43  1  0
 25 44  1  0
 26 45  1  0
 29 46  1  0
M  CHG  2   9  -1  12  -1
M  END
>  <UniqueID>  (31) 
30

>  <SMILES>  (31) 
CN(C(=O)c1ccc([O-])cc1[O-])c1cc(OCCF)cc(-n2ccccc2=O)c1

>  <Energy>  (31) 
67.12945771943588

>  <Genealogy>  (31) 
CN(C(=O)c1ccc([O-])cc1[O-])c1cc(OCCF)cc(-n2ccccc2=O)c1 (protonated)
CN(C(=O)c1ccc([O-])cc1[O-])c1cc(OCCF)cc(-n2ccccc2=O)c1 (3D coordinates assigned)
CN(C(=O)c1ccc([O-])cc1[O-])c1cc(OCCF)cc(-n2ccccc2=O)c1 (optimized conformer: 67.12945771943588 kcal/mol)

>  <smiles>  (31) 
CN(C(=O)c1ccc(O)cc1O)c1cc(OCCF)cc(-n2ccccc2=O)c1

>  <score_type>  (31) 
oracle

>  <origin>  (31) 
adgpu

>  <m_score__min__energy>  (31) 
-11.41

>  <m_primary>  (31) 
energy

$$$$
31:0
     RDKit          3D

 53 56  0  0  0  0  0  0  0  0999 V2000
   -2.5320   20.8450  -31.5010 O   0  0  0  0  0  0  0  0  0  0  0  0
   -2.5460   21.9890  -30.9720 C   0  0  0  0  0  0  0  0  0  0  0  0
   -1.7370   22.2530  -29.7380 C   0  0  0  0  0  0  0  0  0  0  0  0
   -1.7790   21.0850  -28.8270 N   0  0  0  0  0  0  0  0  0  0  0  0
   -2.8450   20.9780  -27.9650 C   0  0  0  0  0  0  0  0  0  0  0  0
   -3.7820   21.8240  -27.9870 O   0  0  0  0  0  0  0  0  0  0  0  0
   -2.9220   19.9370  -27.0450 C   0  0  0  0  0  0  0  0  0  0  0  0
   -1.9290   18.9690  -26.9870 C   0  0  0  0  0  0  0  0  0  0  0  0
   -2.0740   17.9690  -26.0180 O   0  0  0  0  0  0  0  0  0  0  0  0
   -0.8480   19.0300  -27.8940 C   0  0  0  0  0  0  0  0  0  0  0  0
    0.1720   18.0540  -27.9000 C   0  0  0  0  0  0  0  0  0  0  0  0
    1.2080   18.1100  -28.8300 C   0  0  0  0  0  0  0  0  0  0  0  0
    1.2470   19.1300  -29.7720 C   0  0  0  0  0  0  0  0  0  0  0  0
    0.2600   20.1140  -29.7830 C   0  0  0  0  0  0  0  0  0  0  0  0
   -0.8000   20.1020  -28.8390 C   0  0  0  0  0  0  0  0  0  0  0  0
   -3.2960   23.0550  -31.5660 N   0  0  0  0  0  0  0  0  0  0  0  0
   -4.6160   23.4530  -31.1720 C   0  0  0  0  0  0  0  0  0  0  0  0
   -5.6770   22.5640  -31.3870 C   0  0  0  0  0  0  0  0  0  0  0  0
   -6.9850   22.9150  -31.0250 C   0  0  0  0  0  0  0  0  0  0  0  0
   -8.3120   21.7770  -31.2800 S   0  0  0  0  0  0  0  0  0  0  0  0
   -9.1270   21.6800  -30.0210 O   0  0  0  0  0  0  0  0  0  0  0  0
   -9.2060   22.2960  -32.3720 O   0  0  0  0  0  0  0  0  0  0  0  0
   -7.7270   20.1900  -31.7150 N   0  0  0  0  0  0  0  0  0  0  0  0
   -7.2410   20.1850  -33.1050 C   0  0  0  0  0  0  0  0  0  0  0  0
   -6.5020   18.8670  -33.4080 C   0  0  0  0  0  0  0  0  0  0  0  0
   -6.9370   17.7210  -32.4770 C   0  0  0  0  0  0  0  0  0  0  0  0
   -8.4300   17.8160  -32.1480 C   0  0  0  0  0  0  0  0  0  0  0  0
   -8.7920   19.1830  -31.5230 C   0  0  0  0  0  0  0  0  0  0  0  0
   -7.2320   24.1730  -30.4600 C   0  0  0  0  0  0  0  0  0  0  0  0
   -6.1850   25.0770  -30.2720 C   0  0  0  0  0  0  0  0  0  0  0  0
   -4.8800   24.7310  -30.6380 C   0  0  0  0  0  0  0  0  0  0  0  0
   -3.8670   25.6740  -30.4990 O   0  0  0  0  0  0  0  0  0  0  0  0
   -0.6936   22.4502  -30.0251 H   0  0  0  0  0  0  0  0  0  0  0  0
   -2.1595   23.1247  -29.2167 H   0  0  0  0  0  0  0  0  0  0  0  0
   -3.7783   19.8806  -26.3568 H   0  0  0  0  0  0  0  0  0  0  0  0
   -1.5130   17.1310  -25.9640 H   0  0  0  0  0  0  0  0  0  0  0  0
    0.1486   17.2392  -27.1613 H   0  0  0  0  0  0  0  0  0  0  0  0
    1.9974   17.3441  -28.8182 H   0  0  0  0  0  0  0  0  0  0  0  0
    2.0601   19.1613  -30.5122 H   0  0  0  0  0  0  0  0  0  0  0  0
    0.3032   20.9141  -30.5366 H   0  0  0  0  0  0  0  0  0  0  0  0
   -5.4822   21.5824  -31.8436 H   0  0  0  0  0  0  0  0  0  0  0  0
   -8.0964   20.2870  -33.7890 H   0  0  0  0  0  0  0  0  0  0  0  0
   -6.5453   21.0256  -33.2440 H   0  0  0  0  0  0  0  0  0  0  0  0
   -6.7116   18.5758  -34.4479 H   0  0  0  0  0  0  0  0  0  0  0  0
   -5.4280   19.0406  -33.2458 H   0  0  0  0  0  0  0  0  0  0  0  0
   -6.7387   16.7596  -32.9734 H   0  0  0  0  0  0  0  0  0  0  0  0
   -6.3666   17.7962  -31.5394 H   0  0  0  0  0  0  0  0  0  0  0  0
   -9.0083   17.6832  -33.0742 H   0  0  0  0  0  0  0  0  0  0  0  0
   -8.6707   17.0302  -31.4169 H   0  0  0  0  0  0  0  0  0  0  0  0
   -9.7160   19.5522  -31.9919 H   0  0  0  0  0  0  0  0  0  0  0  0
   -8.9211   19.0335  -30.4409 H   0  0  0  0  0  0  0  0  0  0  0  0
   -8.2546   24.4494  -30.1635 H   0  0  0  0  0  0  0  0  0  0  0  0
   -6.3871   26.0657  -29.8342 H   0  0  0  0  0  0  0  0  0  0  0  0
  1  2  2  0
  2  3  1  0
  3  4  1  0
  4  5  1  0
  5  6  2  0
  5  7  1  0
  7  8  2  0
  8  9  1  0
  8 10  1  0
 10 11  2  0
 11 12  1  0
 12 13  2  0
 13 14  1  0
 14 15  2  0
  2 16  1  0
 16 17  1  0
 17 18  2  0
 18 19  1  0
 19 20  1  0
 20 21  2  0
 20 22  2  0
 20 23  1  0
 23 24  1  0
 24 25  1  0
 25 26  1  0
 26 27  1  0
 27 28  1  0
 19 29  2  0
 29 30  1  0
 30 31  2  0
 31 32  1  0
 15  4  1  0
 31 17  1  0
 15 10  1  0
 28 23  1  0
  3 33  1  0
  3 34  1  0
  7 35  1  0
  9 36  1  0
 11 37  1  0
 12 38  1  0
 13 39  1  0
 14 40  1  0
 18 41  1  0
 24 42  1  0
 24 43  1  0
 25 44  1  0
 25 45  1  0
 26 46  1  0
 26 47  1  0
 27 48  1  0
 27 49  1  0
 28 50  1  0
 28 51  1  0
 29 52  1  0
 30 53  1  0
M  CHG  2  16  -1  32  -1
M  END
>  <UniqueID>  (32) 
31

>  <SMILES>  (32) 
O=C(Cn1c(=O)cc(O)c2ccccc21)[N-]c1cc(S(=O)(=O)N2CCCCC2)ccc1[O-]

>  <Energy>  (32) 
77.95000963988585

>  <Genealogy>  (32) 
O=C(Cn1c(=O)cc(O)c2ccccc21)[N-]c1cc(S(=O)(=O)N2CCCCC2)ccc1[O-] (protonated)
O=C(Cn1c(=O)cc(O)c2ccccc21)[N-]c1cc(S(=O)(=O)N2CCCCC2)ccc1[O-] (3D coordinates assigned)
O=C(Cn1c(=O)cc(O)c2ccccc21)[N-]c1cc(S(=O)(=O)N2CCCCC2)ccc1[O-] (nonaromatic ring conformer: 77.95000963988585 kcal/mol)

>  <smiles>  (32) 
O=C(Cn1c(=O)cc(O)c2ccccc21)Nc1cc(S(=O)(=O)N2CCCCC2)ccc1O

>  <score_type>  (32) 
oracle

>  <origin>  (32) 
adgpu

>  <m_score__min__energy>  (32) 
-14.800000000000001

>  <m_primary>  (32) 
energy

$$$$
32:0
     RDKit          3D

 48 51  0  0  0  0  0  0  0  0999 V2000
    0.2200   23.3570  -25.4250 C   0  0  0  0  0  0  0  0  0  0  0  0
   -0.7820   23.7420  -26.4820 C   0  0  0  0  0  0  0  0  0  0  0  0
   -1.8430   22.8600  -26.7410 C   0  0  0  0  0  0  0  0  0  0  0  0
   -2.7860   23.1500  -27.7230 C   0  0  0  0  0  0  0  0  0  0  0  0
   -2.6830   24.3180  -28.4800 C   0  0  0  0  0  0  0  0  0  0  0  0
   -3.6610   24.5760  -29.4970 N   0  0  0  0  0  0  0  0  0  0  0  0
   -3.8070   23.7520  -30.6660 C   0  0  0  0  0  0  0  0  0  0  0  0
   -2.9840   22.8270  -30.8990 O   0  0  0  0  0  0  0  0  0  0  0  0
   -4.8640   23.9870  -31.6030 N   0  0  0  0  0  0  0  0  0  0  0  0
   -6.0570   23.2030  -31.7350 C   0  0  0  0  0  0  0  0  0  0  0  0
   -7.3310   23.8130  -31.8700 C   0  0  0  0  0  0  0  0  0  0  0  0
   -8.4940   23.0290  -31.9640 C   0  0  0  0  0  0  0  0  0  0  0  0
   -8.3680   21.6420  -31.9080 C   0  0  0  0  0  0  0  0  0  0  0  0
   -7.1320   21.0530  -31.7520 C   0  0  0  0  0  0  0  0  0  0  0  0
   -5.9620   21.8020  -31.6530 C   0  0  0  0  0  0  0  0  0  0  0  0
   -7.3380   19.6270  -31.7110 C   0  0  0  0  0  0  0  0  0  0  0  0
   -6.4410   18.7530  -31.5770 O   0  0  0  0  0  0  0  0  0  0  0  0
   -8.7260   19.3440  -31.8450 N   0  0  0  0  0  0  0  0  0  0  0  0
   -9.3230   18.0150  -31.8490 C   0  0  0  0  0  0  0  0  0  0  0  0
   -9.4570   20.6080  -31.9760 C   0  0  0  0  0  0  0  0  0  0  0  0
   -1.6600   25.2410  -28.1990 C   0  0  0  0  0  0  0  0  0  0  0  0
   -1.6080   26.4330  -28.9150 O   0  0  0  0  0  0  0  0  0  0  0  0
   -0.7080   24.9720  -27.1900 C   0  0  0  0  0  0  0  0  0  0  0  0
    0.5830   26.1550  -26.8670 S   0  0  0  0  0  0  0  0  0  0  0  0
    1.8770   25.6980  -27.4840 O   0  0  0  0  0  0  0  0  0  0  0  0
    0.2410   27.4880  -27.4710 O   0  0  0  0  0  0  0  0  0  0  0  0
    0.7510   26.3390  -25.0920 C   0  0  0  0  0  0  0  0  0  0  0  0
   -0.5570   26.3620  -24.3180 C   0  0  0  0  0  0  0  0  0  0  0  0
    0.2200   27.6510  -24.5380 C   0  0  0  0  0  0  0  0  0  0  0  0
   -0.2154   23.5243  -24.4288 H   0  0  0  0  0  0  0  0  0  0  0  0
    0.4814   22.2944  -25.5372 H   0  0  0  0  0  0  0  0  0  0  0  0
    1.1256   23.9712  -25.5372 H   0  0  0  0  0  0  0  0  0  0  0  0
   -1.9302   21.9292  -26.1614 H   0  0  0  0  0  0  0  0  0  0  0  0
   -3.6182   22.4537  -27.9036 H   0  0  0  0  0  0  0  0  0  0  0  0
   -4.3650   25.3240  -29.3100 H   0  0  0  0  0  0  0  0  0  0  0  0
   -7.4093   24.9098  -31.9014 H   0  0  0  0  0  0  0  0  0  0  0  0
   -9.4815   23.4996  -32.0792 H   0  0  0  0  0  0  0  0  0  0  0  0
   -4.9879   21.3102  -31.5141 H   0  0  0  0  0  0  0  0  0  0  0  0
   -9.4744   17.6779  -30.8129 H   0  0  0  0  0  0  0  0  0  0  0  0
  -10.2919   18.0499  -32.3686 H   0  0  0  0  0  0  0  0  0  0  0  0
   -8.6534   17.3138  -32.3686 H   0  0  0  0  0  0  0  0  0  0  0  0
   -9.9894   20.6582  -32.9373 H   0  0  0  0  0  0  0  0  0  0  0  0
  -10.2289   20.7424  -31.2039 H   0  0  0  0  0  0  0  0  0  0  0  0
    1.6935   25.7782  -25.0077 H   0  0  0  0  0  0  0  0  0  0  0  0
   -1.5097   26.1976  -24.8428 H   0  0  0  0  0  0  0  0  0  0  0  0
   -0.9500   25.8310  -23.4385 H   0  0  0  0  0  0  0  0  0  0  0  0
   -0.1707   28.4189  -25.2219 H   0  0  0  0  0  0  0  0  0  0  0  0
    0.6218   28.4385  -23.8835 H   0  0  0  0  0  0  0  0  0  0  0  0
  1  2  1  0
  2  3  2  0
  3  4  1  0
  4  5  2  0
  5  6  1  0
  6  7  1  0
  7  8  2  0
  7  9  1  0
  9 10  1  0
 10 11  2  0
 11 12  1  0
 12 13  2  0
 13 14  1  0
 14 15  2  0
 14 16  1  0
 16 17  2  0
 16 18  1  0
 18 19  1  0
 18 20  1  0
  5 21  1  0
 21 22  1  0
 21 23  2  0
 23 24  1  0
 24 25  2  0
 24 26  2  0
 24 27  1  0
 27 28  1  0
 28 29  1  0
 23  2  1  0
 29 27  1  0
 15 10  1  0
 20 13  1  0
  1 30  1  0
  1 31  1  0
  1 32  1  0
  3 33  1  0
  4 34  1  0
  6 35  1  0
 11 36  1  0
 12 37  1  0
 15 38  1  0
 19 39  1  0
 19 40  1  0
 19 41  1  0
 20 42  1  0
 20 43  1  0
 27 44  1  0
 28 45  1  0
 28 46  1  0
 29 47  1  0
 29 48  1  0
M  CHG  2   9  -1  22  -1
M  END
>  <UniqueID>  (33) 
32

>  <SMILES>  (33) 
Cc1ccc(NC(=O)[N-]c2ccc3c(c2)C(=O)N(C)C3)c([O-])c1S(=O)(=O)C1CC1

>  <Energy>  (33) 
346.23501592708817

>  <Genealogy>  (33) 
Cc1ccc(NC(=O)[N-]c2ccc3c(c2)C(=O)N(C)C3)c([O-])c1S(=O)(=O)C1CC1 (protonated)
Cc1ccc(NC(=O)[N-]c2ccc3c(c2)C(=O)N(C)C3)c([O-])c1S(=O)(=O)C1CC1 (3D coordinates assigned)
Cc1ccc(NC(=O)[N-]c2ccc3c(c2)C(=O)N(C)C3)c([O-])c1S(=O)(=O)C1CC1 (nonaromatic ring conformer: 346.23501592708817 kcal/mol)

>  <smiles>  (33) 
Cc1ccc(NC(=O)Nc2ccc3c(c2)C(=O)N(C)C3)c(O)c1S(=O)(=O)C1CC1

>  <score_type>  (33) 
oracle

>  <origin>  (33) 
adgpu

>  <m_score__min__energy>  (33) 
-13.52

>  <m_primary>  (33) 
energy

$$$$
33:0
     RDKit          3D

 46 49  0  0  0  0  0  0  0  0999 V2000
   -9.0520   19.1960  -32.5020 C   0  0  0  0  0  0  0  0  0  0  0  0
   -8.5240   20.4560  -31.9040 C   0  0  0  0  0  0  0  0  0  0  0  0
   -7.1930   20.7780  -31.7400 C   0  0  0  0  0  0  0  0  0  0  0  0
   -7.2310   22.0580  -31.2180 C   0  0  0  0  0  0  0  0  0  0  0  0
   -6.0830   22.9120  -30.8380 C   0  0  0  0  0  0  0  0  0  0  0  0
   -6.2610   24.2490  -30.4430 C   0  0  0  0  0  0  0  0  0  0  0  0
   -5.1630   25.0290  -30.0770 C   0  0  0  0  0  0  0  0  0  0  0  0
   -3.8730   24.4910  -30.0970 C   0  0  0  0  0  0  0  0  0  0  0  0
   -2.8040   25.2910  -29.7130 O   0  0  0  0  0  0  0  0  0  0  0  0
   -3.6780   23.1570  -30.4980 C   0  0  0  0  0  0  0  0  0  0  0  0
   -2.0810   22.4000  -30.5150 S   0  0  0  0  0  0  0  0  0  0  0  0
   -0.9870   23.3930  -30.2400 O   0  0  0  0  0  0  0  0  0  0  0  0
   -1.8620   21.8090  -31.8810 O   0  0  0  0  0  0  0  0  0  0  0  0
   -2.0340   21.1520  -29.3040 N   0  0  0  0  0  0  0  0  0  0  0  0
   -3.1150   21.1420  -28.3010 C   0  0  0  0  0  0  0  0  0  0  0  0
   -3.1280   19.8840  -27.4160 C   0  0  0  0  0  0  0  0  0  0  0  0
   -2.0170   19.8830  -26.3470 C   0  0  0  0  0  0  0  0  0  0  0  0
   -0.6620   20.4050  -26.8520 C   0  0  0  0  0  0  0  0  0  0  0  0
   -0.2990   19.7830  -28.1730 C   0  0  0  0  0  0  0  0  0  0  0  0
    0.7420   18.8420  -28.2480 C   0  0  0  0  0  0  0  0  0  0  0  0
    1.0890   18.2720  -29.4750 C   0  0  0  0  0  0  0  0  0  0  0  0
    0.4110   18.6410  -30.6370 C   0  0  0  0  0  0  0  0  0  0  0  0
   -0.6180   19.5850  -30.5760 C   0  0  0  0  0  0  0  0  0  0  0  0
   -0.9840   20.1630  -29.3490 C   0  0  0  0  0  0  0  0  0  0  0  0
   -4.7840   22.3780  -30.8660 C   0  0  0  0  0  0  0  0  0  0  0  0
   -8.4890   22.4260  -31.1090 O   0  0  0  0  0  0  0  0  0  0  0  0
   -9.2950   21.4900  -31.5190 N   0  0  0  0  0  0  0  0  0  0  0  0
   -9.3425   18.5027  -31.6990 H   0  0  0  0  0  0  0  0  0  0  0  0
   -9.9298   19.4251  -33.1241 H   0  0  0  0  0  0  0  0  0  0  0  0
   -8.2731   18.7309  -33.1241 H   0  0  0  0  0  0  0  0  0  0  0  0
   -6.3106   20.1627  -31.9699 H   0  0  0  0  0  0  0  0  0  0  0  0
   -7.2715   24.6832  -30.4222 H   0  0  0  0  0  0  0  0  0  0  0  0
   -5.3138   26.0746  -29.7706 H   0  0  0  0  0  0  0  0  0  0  0  0
   -2.9941   22.0217  -27.6518 H   0  0  0  0  0  0  0  0  0  0  0  0
   -4.0658   21.1549  -28.8540 H   0  0  0  0  0  0  0  0  0  0  0  0
   -4.1020   19.8236  -26.9083 H   0  0  0  0  0  0  0  0  0  0  0  0
   -2.9507   19.0198  -28.0730 H   0  0  0  0  0  0  0  0  0  0  0  0
   -2.3421   20.5183  -25.5099 H   0  0  0  0  0  0  0  0  0  0  0  0
   -1.8632   18.8353  -26.0492 H   0  0  0  0  0  0  0  0  0  0  0  0
   -0.7203   21.4968  -26.9731 H   0  0  0  0  0  0  0  0  0  0  0  0
    0.1110   20.1379  -26.1164 H   0  0  0  0  0  0  0  0  0  0  0  0
    1.2859   18.5531  -27.3365 H   0  0  0  0  0  0  0  0  0  0  0  0
    1.8994   17.5299  -29.5252 H   0  0  0  0  0  0  0  0  0  0  0  0
    0.6862   18.1890  -31.6013 H   0  0  0  0  0  0  0  0  0  0  0  0
   -1.1453   19.8776  -31.4959 H   0  0  0  0  0  0  0  0  0  0  0  0
   -4.6326   21.3349  -31.1808 H   0  0  0  0  0  0  0  0  0  0  0  0
  1  2  1  0
  2  3  1  0
  3  4  2  0
  4  5  1  0
  5  6  2  0
  6  7  1  0
  7  8  2  0
  8  9  1  0
  8 10  1  0
 10 11  1  0
 11 12  2  0
 11 13  2  0
 11 14  1  0
 14 15  1  0
 15 16  1  0
 16 17  1  0
 17 18  1  0
 18 19  1  0
 19 20  2  0
 20 21  1  0
 21 22  2  0
 22 23  1  0
 23 24  2  0
 10 25  2  0
  4 26  1  0
 26 27  1  0
 27  2  2  0
 25  5  1  0
 24 14  1  0
 24 19  1  0
  1 28  1  0
  1 29  1  0
  1 30  1  0
  3 31  1  0
  6 32  1  0
  7 33  1  0
 15 34  1  0
 15 35  1  0
 16 36  1  0
 16 37  1  0
 17 38  1  0
 17 39  1  0
 18 40  1  0
 18 41  1  0
 20 42  1  0
 21 43  1  0
 22 44  1  0
 23 45  1  0
 25 46  1  0
M  CHG  1   9  -1
M  END
>  <UniqueID>  (34) 
33

>  <SMILES>  (34) 
Cc1cc(-c2ccc([O-])c(S(=O)(=O)N3CCCCc4ccccc43)c2)on1

>  <Energy>  (34) 
89.57454270950512

>  <Genealogy>  (34) 
Cc1cc(-c2ccc([O-])c(S(=O)(=O)N3CCCCc4ccccc43)c2)on1 (protonated)
Cc1cc(-c2ccc([O-])c(S(=O)(=O)N3CCCCc4ccccc43)c2)on1 (3D coordinates assigned)
Cc1cc(-c2ccc([O-])c(S(=O)(=O)N3CCCCc4ccccc43)c2)on1 (nonaromatic ring conformer: 89.57454270950512 kcal/mol)

>  <smiles>  (34) 
Cc1cc(-c2ccc(O)c(S(=O)(=O)N3CCCCc4ccccc43)c2)on1

>  <score_type>  (34) 
oracle

>  <origin>  (34) 
adgpu

>  <m_score__min__energy>  (34) 
-10.890000000000001

>  <m_primary>  (34) 
energy

$$$$
34:0
     RDKit          3D

 54 56  0  0  0  0  0  0  0  0999 V2000
   -7.5035   17.5547  -34.5398 H   0  0  0  0  0  0  0  0  0  0  0  0
   -6.4190   17.5080  -34.3620 C   0  0  0  0  0  0  0  0  0  0  0  0
   -5.6670   18.6830  -34.3240 C   0  0  0  0  0  0  0  0  0  0  0  0
   -6.1616   19.6537  -34.4765 H   0  0  0  0  0  0  0  0  0  0  0  0
   -4.2870   18.6340  -34.0930 C   0  0  0  0  0  0  0  0  0  0  0  0
   -3.5760   19.8370  -34.0300 O   0  0  0  0  0  0  0  0  0  0  0  0
   -3.8940   20.8930  -33.1600 C   0  0  0  0  0  0  0  0  0  0  0  0
   -5.2220   21.3210  -32.9710 C   0  0  0  0  0  0  0  0  0  0  0  0
   -6.0388   20.8253  -33.5161 H   0  0  0  0  0  0  0  0  0  0  0  0
   -5.5090   22.3720  -32.0950 C   0  0  0  0  0  0  0  0  0  0  0  0
   -6.5498   22.6983  -31.9526 H   0  0  0  0  0  0  0  0  0  0  0  0
   -4.4770   23.0100  -31.3990 C   0  0  0  0  0  0  0  0  0  0  0  0
   -4.8370   24.3450  -30.3090 S   0  0  0  0  0  0  0  0  0  0  0  0
   -4.2290   25.6100  -30.8500 O   0  0  0  0  0  0  0  0  0  0  0  0
   -6.3270   24.5140  -30.2040 O   0  0  0  0  0  0  0  0  0  0  0  0
   -4.1680   23.9830  -28.7490 N   0  0  0  0  0  0  0  0  0  0  0  0
   -3.0640   24.4650  -28.2530 C   0  0  0  0  0  0  0  0  0  0  0  0
   -2.6760   24.0590  -26.9720 C   0  0  0  0  0  0  0  0  0  0  0  0
   -3.2973   23.3485  -26.4070 H   0  0  0  0  0  0  0  0  0  0  0  0
   -1.5000   24.5570  -26.4130 C   0  0  0  0  0  0  0  0  0  0  0  0
   -1.1944   24.2398  -25.4050 H   0  0  0  0  0  0  0  0  0  0  0  0
   -0.7050   25.4620  -27.1330 C   0  0  0  0  0  0  0  0  0  0  0  0
    0.5800   26.0210  -26.5500 C   0  0  0  0  0  0  0  0  0  0  0  0
    0.5855   25.7975  -25.4730 H   0  0  0  0  0  0  0  0  0  0  0  0
    0.6430   27.5450  -26.7130 C   0  0  0  0  0  0  0  0  0  0  0  0
    0.6626   28.0194  -25.7207 H   0  0  0  0  0  0  0  0  0  0  0  0
    1.5532   27.8171  -27.2676 H   0  0  0  0  0  0  0  0  0  0  0  0
   -0.2416   27.8913  -27.2676 H   0  0  0  0  0  0  0  0  0  0  0  0
    1.8080   25.3480  -27.1740 C   0  0  0  0  0  0  0  0  0  0  0  0
    2.4719   24.9842  -26.3759 H   0  0  0  0  0  0  0  0  0  0  0  0
    1.4850   24.5009  -27.7969 H   0  0  0  0  0  0  0  0  0  0  0  0
    2.3483   26.0761  -27.7969 H   0  0  0  0  0  0  0  0  0  0  0  0
   -1.1270   25.8450  -28.4150 C   0  0  0  0  0  0  0  0  0  0  0  0
   -0.5207   26.5534  -28.9987 H   0  0  0  0  0  0  0  0  0  0  0  0
   -2.2790   25.3490  -28.9440 N   0  0  0  0  0  0  0  0  0  0  0  0
   -2.5380   25.6720  -29.9010 H   0  0  0  0  0  0  0  0  0  0  0  0
   -3.1510   22.6010  -31.5960 C   0  0  0  0  0  0  0  0  0  0  0  0
   -2.3359   23.1094  -31.0601 H   0  0  0  0  0  0  0  0  0  0  0  0
   -2.8590   21.5480  -32.4720 C   0  0  0  0  0  0  0  0  0  0  0  0
   -1.4890   21.1380  -32.6530 C   0  0  0  0  0  0  0  0  0  0  0  0
   -0.3890   20.8070  -32.7980 N   0  0  0  0  0  0  0  0  0  0  0  0
   -3.6420   17.3870  -33.9390 C   0  0  0  0  0  0  0  0  0  0  0  0
   -1.8880   17.2820  -33.7310 S   0  0  0  0  0  0  0  0  0  0  0  0
   -1.1960   17.9770  -34.8690 O   0  0  0  0  0  0  0  0  0  0  0  0
   -1.4940   17.9320  -32.4350 O   0  0  0  0  0  0  0  0  0  0  0  0
   -1.3360   15.5880  -33.7220 C   0  0  0  0  0  0  0  0  0  0  0  0
   -1.2240   15.2444  -32.6831 H   0  0  0  0  0  0  0  0  0  0  0  0
   -2.0755   14.9586  -34.2387 H   0  0  0  0  0  0  0  0  0  0  0  0
   -0.3676   15.5152  -34.2387 H   0  0  0  0  0  0  0  0  0  0  0  0
   -4.4110   16.2110  -33.9630 C   0  0  0  0  0  0  0  0  0  0  0  0
   -3.9230   15.2364  -33.8150 H   0  0  0  0  0  0  0  0  0  0  0  0
   -5.7940   16.2710  -34.1740 C   0  0  0  0  0  0  0  0  0  0  0  0
   -6.5720   15.0600  -34.2030 C   0  0  0  0  0  0  0  0  0  0  0  0
   -7.1970   14.0860  -34.2270 N   0  0  0  0  0  0  0  0  0  0  0  0
  1  2  1  0
  2  3  2  0
  3  4  1  0
  3  5  1  0
  5  6  1  0
  6  7  1  0
  7  8  2  0
  8  9  1  0
  8 10  1  0
 10 11  1  0
 10 12  2  0
 12 13  1  0
 13 14  2  0
 13 15  2  0
 13 16  1  0
 16 17  2  0
 17 18  1  0
 18 19  1  0
 18 20  2  0
 20 21  1  0
 20 22  1  0
 22 23  1  0
 23 24  1  0
 23 25  1  0
 25 26  1  0
 25 27  1  0
 25 28  1  0
 23 29  1  0
 29 30  1  0
 29 31  1  0
 29 32  1  0
 22 33  2  0
 33 34  1  0
 33 35  1  0
 35 36  1  0
 12 37  1  0
 37 38  1  0
 37 39  2  0
 39 40  1  0
 40 41  3  0
  5 42  2  0
 42 43  1  0
 43 44  2  0
 43 45  2  0
 43 46  1  0
 46 47  1  0
 46 48  1  0
 46 49  1  0
 42 50  1  0
 50 51  1  0
 50 52  2  0
 52 53  1  0
 53 54  3  0
 52  2  1  0
 39  7  1  0
 35 17  1  0
M  END
>  <UniqueID>  (35) 
34

>  <SMILES>  (35) 
CC(C)c1cc/c(=N/S(=O)(=O)c2ccc(Oc3ccc(C#N)cc3S(C)(=O)=O)c(C#N)c2)[nH]c1

>  <Energy>  (35) 
64.22104710828958

>  <Genealogy>  (35) 
CC(C)c1cc/c(=N/S(=O)(=O)c2ccc(Oc3ccc(C#N)cc3S(C)(=O)=O)c(C#N)c2)[nH]c1 (cis-trans isomerization)
CC(C)c1cc/c(=N/S(=O)(=O)c2ccc(Oc3ccc(C#N)cc3S(C)(=O)=O)c(C#N)c2)[nH]c1 (3D coordinates assigned)
CC(C)c1cc/c(=N/S(=O)(=O)c2ccc(Oc3ccc(C#N)cc3S(C)(=O)=O)c(C#N)c2)[nH]c1 (optimized conformer: 64.22104710828958 kcal/mol)

>  <smiles>  (35) 
CC(C)c1ccc(=NS(=O)(=O)c2ccc(Oc3ccc(C#N)cc3S(C)(=O)=O)c(C#N)c2)[nH]c1

>  <score_type>  (35) 
oracle

>  <origin>  (35) 
adgpu

>  <m_score__min__energy>  (35) 
-11.08

>  <m_primary>  (35) 
energy

$$$$
35:0
     RDKit          3D

 56 59  0  0  0  0  0  0  0  0999 V2000
   -6.1440   18.3160  -31.6870 C   0  0  0  0  0  0  0  0  0  0  0  0
   -5.8640   19.6930  -32.2030 C   0  0  0  0  0  0  0  0  0  0  0  0
   -5.0250   19.8340  -33.1330 O   0  0  0  0  0  0  0  0  0  0  0  0
   -6.5850   20.8380  -31.7010 N   0  0  0  0  0  0  0  0  0  0  0  0
   -8.0570   20.8150  -31.8110 C   0  0  0  0  0  0  0  0  0  0  0  0
   -8.7110   22.0870  -31.2550 C   0  0  0  0  0  0  0  0  0  0  0  0
   -8.0120   23.3320  -31.7990 C   0  0  0  0  0  0  0  0  0  0  0  0
   -6.5570   23.2960  -31.4300 C   0  0  0  0  0  0  0  0  0  0  0  0
   -5.8660   24.4870  -31.1700 C   0  0  0  0  0  0  0  0  0  0  0  0
   -4.5200   24.4590  -30.8000 C   0  0  0  0  0  0  0  0  0  0  0  0
   -3.8610   25.6600  -30.5600 O   0  0  0  0  0  0  0  0  0  0  0  0
   -3.8430   23.2320  -30.6700 C   0  0  0  0  0  0  0  0  0  0  0  0
   -2.4580   23.2210  -30.2680 N   0  0  0  0  0  0  0  0  0  0  0  0
   -1.6170   21.8080  -29.7070 S   0  0  0  0  0  0  0  0  0  0  0  0
   -0.2460   22.2040  -29.2350 O   0  0  0  0  0  0  0  0  0  0  0  0
   -2.3780   21.2130  -28.5550 O   0  0  0  0  0  0  0  0  0  0  0  0
   -1.4480   20.6380  -31.0110 C   0  0  0  0  0  0  0  0  0  0  0  0
   -1.9150   20.9370  -32.2970 C   0  0  0  0  0  0  0  0  0  0  0  0
   -1.7540   20.0160  -33.3360 C   0  0  0  0  0  0  0  0  0  0  0  0
   -1.1270   18.7860  -33.0970 C   0  0  0  0  0  0  0  0  0  0  0  0
   -0.9490   17.6160  -34.4010 S   0  0  0  0  0  0  0  0  0  0  0  0
   -0.4950   18.3200  -35.6500 O   0  0  0  0  0  0  0  0  0  0  0  0
    0.0940   16.6010  -34.0210 O   0  0  0  0  0  0  0  0  0  0  0  0
   -2.4750   16.8080  -34.6660 N   0  0  0  0  0  0  0  0  0  0  0  0
   -2.9150   16.0910  -33.4690 C   0  0  0  0  0  0  0  0  0  0  0  0
   -4.4350   16.0400  -33.5230 C   0  0  0  0  0  0  0  0  0  0  0  0
   -4.8400   17.1160  -34.5190 C   0  0  0  0  0  0  0  0  0  0  0  0
   -3.5380   17.7680  -34.9580 C   0  0  0  0  0  0  0  0  0  0  0  0
   -0.6710   18.4800  -31.8070 C   0  0  0  0  0  0  0  0  0  0  0  0
   -0.8290   19.4050  -30.7690 C   0  0  0  0  0  0  0  0  0  0  0  0
   -4.5420   22.0400  -30.9380 C   0  0  0  0  0  0  0  0  0  0  0  0
   -5.8820   22.0630  -31.3700 C   0  0  0  0  0  0  0  0  0  0  0  0
   -6.1413   18.3290  -30.5871 H   0  0  0  0  0  0  0  0  0  0  0  0
   -7.1283   17.9825  -32.0474 H   0  0  0  0  0  0  0  0  0  0  0  0
   -5.3681   17.6246  -32.0474 H   0  0  0  0  0  0  0  0  0  0  0  0
   -8.3293   20.7139  -32.8720 H   0  0  0  0  0  0  0  0  0  0  0  0
   -8.4220   19.9654  -31.2153 H   0  0  0  0  0  0  0  0  0  0  0  0
   -9.7701   22.1083  -31.5514 H   0  0  0  0  0  0  0  0  0  0  0  0
   -8.6231   22.0811  -30.1585 H   0  0  0  0  0  0  0  0  0  0  0  0
   -8.1111   23.3581  -32.8942 H   0  0  0  0  0  0  0  0  0  0  0  0
   -8.4762   24.2299  -31.3651 H   0  0  0  0  0  0  0  0  0  0  0  0
   -6.3879   25.4513  -31.2581 H   0  0  0  0  0  0  0  0  0  0  0  0
   -1.8930   24.0950  -30.3430 H   0  0  0  0  0  0  0  0  0  0  0  0
   -2.4102   21.9000  -32.4901 H   0  0  0  0  0  0  0  0  0  0  0  0
   -2.1207   20.2576  -34.3445 H   0  0  0  0  0  0  0  0  0  0  0  0
   -2.5015   15.0717  -33.4644 H   0  0  0  0  0  0  0  0  0  0  0  0
   -2.5685   16.5965  -32.5555 H   0  0  0  0  0  0  0  0  0  0  0  0
   -4.7750   15.0514  -33.8650 H   0  0  0  0  0  0  0  0  0  0  0  0
   -4.8854   16.2079  -32.5336 H   0  0  0  0  0  0  0  0  0  0  0  0
   -5.3564   16.6683  -35.3809 H   0  0  0  0  0  0  0  0  0  0  0  0
   -5.5341   17.8449  -34.0752 H   0  0  0  0  0  0  0  0  0  0  0  0
   -3.5670   17.9871  -36.0356 H   0  0  0  0  0  0  0  0  0  0  0  0
   -3.3714   18.7190  -34.4309 H   0  0  0  0  0  0  0  0  0  0  0  0
   -0.1883   17.5113  -31.6106 H   0  0  0  0  0  0  0  0  0  0  0  0
   -0.4658   19.1630  -29.7593 H   0  0  0  0  0  0  0  0  0  0  0  0
   -4.0326   21.0738  -30.8077 H   0  0  0  0  0  0  0  0  0  0  0  0
  1  2  1  0
  2  3  2  0
  2  4  1  0
  4  5  1  0
  5  6  1  0
  6  7  1  0
  7  8  1  0
  8  9  2  0
  9 10  1  0
 10 11  1  0
 10 12  2  0
 12 13  1  0
 13 14  1  0
 14 15  2  0
 14 16  2  0
 14 17  1  0
 17 18  2  0
 18 19  1  0
 19 20  2  0
 20 21  1  0
 21 22  2  0
 21 23  2  0
 21 24  1  0
 24 25  1  0
 25 26  1  0
 26 27  1  0
 27 28  1  0
 20 29  1  0
 29 30  2  0
 12 31  1  0
 31 32  2  0
 32  4  1  0
 32  8  1  0
 30 17  1  0
 28 24  1  0
  1 33  1  0
  1 34  1  0
  1 35  1  0
  5 36  1  0
  5 37  1  0
  6 38  1  0
  6 39  1  0
  7 40  1  0
  7 41  1  0
  9 42  1  0
 13 43  1  0
 18 44  1  0
 19 45  1  0
 25 46  1  0
 25 47  1  0
 26 48  1  0
 26 49  1  0
 27 50  1  0
 27 51  1  0
 28 52  1  0
 28 53  1  0
 29 54  1  0
 30 55  1  0
 31 56  1  0
M  CHG  1  11  -1
M  END
>  <UniqueID>  (36) 
35

>  <SMILES>  (36) 
CC(=O)N1CCCc2cc([O-])c(NS(=O)(=O)c3ccc(S(=O)(=O)N4CCCC4)cc3)cc21

>  <Energy>  (36) 
65.4860296733134

>  <Genealogy>  (36) 
CC(=O)N1CCCc2cc([O-])c(NS(=O)(=O)c3ccc(S(=O)(=O)N4CCCC4)cc3)cc21 (protonated)
CC(=O)N1CCCc2cc([O-])c(NS(=O)(=O)c3ccc(S(=O)(=O)N4CCCC4)cc3)cc21 (3D coordinates assigned)
CC(=O)N1CCCc2cc([O-])c(NS(=O)(=O)c3ccc(S(=O)(=O)N4CCCC4)cc3)cc21 (nonaromatic ring conformer: 65.4860296733134 kcal/mol)

>  <smiles>  (36) 
CC(=O)N1CCCc2cc(O)c(NS(=O)(=O)c3ccc(S(=O)(=O)N4CCCC4)cc3)cc21

>  <score_type>  (36) 
oracle

>  <origin>  (36) 
adgpu

>  <m_score__min__energy>  (36) 
-14.68

>  <m_primary>  (36) 
energy

$$$$
36:0
     RDKit          3D

 67 71  0  0  0  0  0  0  0  0999 V2000
   -3.8110   13.1820  -31.8580 C   0  0  0  0  0  0  0  0  0  0  0  0
   -4.9560   13.3970  -32.8140 C   0  0  0  0  0  0  0  0  0  0  0  0
   -5.6590   12.2800  -33.2960 C   0  0  0  0  0  0  0  0  0  0  0  0
   -6.7330   12.4400  -34.1700 C   0  0  0  0  0  0  0  0  0  0  0  0
   -7.1170   13.7150  -34.5790 C   0  0  0  0  0  0  0  0  0  0  0  0
   -6.4230   14.8470  -34.1280 C   0  0  0  0  0  0  0  0  0  0  0  0
   -5.3400   14.6990  -33.2290 C   0  0  0  0  0  0  0  0  0  0  0  0
   -4.5930   15.9170  -32.7040 C   0  0  0  0  0  0  0  0  0  0  0  0
   -5.0730   17.1920  -33.2600 N   0  0  0  0  0  0  0  0  0  0  0  0
   -4.6680   18.4280  -32.6350 C   0  0  0  0  0  0  0  0  0  0  0  0
   -3.3650   18.8190  -32.6680 N   0  0  0  0  0  0  0  0  0  0  0  0
   -2.9580   19.9750  -32.0830 C   0  0  0  0  0  0  0  0  0  0  0  0
   -3.8840   20.7970  -31.4230 C   0  0  0  0  0  0  0  0  0  0  0  0
   -3.4650   22.0650  -30.7690 C   0  0  0  0  0  0  0  0  0  0  0  0
   -4.2720   23.2150  -30.8540 C   0  0  0  0  0  0  0  0  0  0  0  0
   -3.8730   24.4070  -30.2470 C   0  0  0  0  0  0  0  0  0  0  0  0
   -2.6610   24.4780  -29.5550 C   0  0  0  0  0  0  0  0  0  0  0  0
   -2.2880   25.6800  -28.9640 O   0  0  0  0  0  0  0  0  0  0  0  0
   -1.8350   23.3420  -29.4650 C   0  0  0  0  0  0  0  0  0  0  0  0
   -0.5210   23.3820  -28.7120 C   0  0  0  0  0  0  0  0  0  0  0  0
    0.1540   22.0750  -28.7020 N   0  0  0  0  0  0  0  0  0  0  0  0
    0.2030   21.4920  -27.3540 C   0  0  0  0  0  0  0  0  0  0  0  0
   -1.2040   21.1020  -26.8820 C   0  0  0  0  0  0  0  0  0  0  0  0
   -1.8630   20.0650  -27.7970 C   0  0  0  0  0  0  0  0  0  0  0  0
   -0.8980   19.0280  -28.1640 N   0  0  0  0  0  0  0  0  0  0  0  0
   -0.4100   18.0030  -27.2600 C   0  0  0  0  0  0  0  0  0  0  0  0
    0.5670   17.1400  -28.0830 C   0  0  0  0  0  0  0  0  0  0  0  0
    0.7600   17.8330  -29.4420 C   0  0  0  0  0  0  0  0  0  0  0  0
   -0.2070   18.9470  -29.3960 C   0  0  0  0  0  0  0  0  0  0  0  0
   -0.3890   19.7570  -30.3440 O   0  0  0  0  0  0  0  0  0  0  0  0
   -2.2490   22.1410  -30.0630 C   0  0  0  0  0  0  0  0  0  0  0  0
   -5.2200   20.3730  -31.3970 C   0  0  0  0  0  0  0  0  0  0  0  0
   -5.5810   19.2110  -31.9970 N   0  0  0  0  0  0  0  0  0  0  0  0
   -5.7390   17.1990  -34.5670 C   0  0  0  0  0  0  0  0  0  0  0  0
   -6.8950   16.2100  -34.5530 C   0  0  0  0  0  0  0  0  0  0  0  0
   -4.1790   13.2511  -30.8237 H   0  0  0  0  0  0  0  0  0  0  0  0
   -3.3749   12.1863  -32.0263 H   0  0  0  0  0  0  0  0  0  0  0  0
   -3.0434   13.9517  -32.0263 H   0  0  0  0  0  0  0  0  0  0  0  0
   -5.3590   11.2698  -32.9807 H   0  0  0  0  0  0  0  0  0  0  0  0
   -7.2782   11.5580  -34.5373 H   0  0  0  0  0  0  0  0  0  0  0  0
   -7.9715   13.8348  -35.2612 H   0  0  0  0  0  0  0  0  0  0  0  0
   -4.7082   15.9500  -31.6105 H   0  0  0  0  0  0  0  0  0  0  0  0
   -3.5430   15.8072  -33.0131 H   0  0  0  0  0  0  0  0  0  0  0  0
   -1.8986   20.2680  -32.1267 H   0  0  0  0  0  0  0  0  0  0  0  0
   -5.2244   23.1741  -31.4029 H   0  0  0  0  0  0  0  0  0  0  0  0
   -4.5169   25.2964  -30.3138 H   0  0  0  0  0  0  0  0  0  0  0  0
    0.1401   24.1184  -29.1922 H   0  0  0  0  0  0  0  0  0  0  0  0
   -0.7376   23.6581  -27.6695 H   0  0  0  0  0  0  0  0  0  0  0  0
   -0.3610   21.4230  -29.3400 H   0  0  0  0  0  0  0  0  0  0  0  0
    0.8399   20.5953  -27.3710 H   0  0  0  0  0  0  0  0  0  0  0  0
    0.6153   22.2390  -26.6597 H   0  0  0  0  0  0  0  0  0  0  0  0
   -1.1322   20.6826  -25.8676 H   0  0  0  0  0  0  0  0  0  0  0  0
   -1.8265   22.0087  -26.9015 H   0  0  0  0  0  0  0  0  0  0  0  0
   -2.7106   19.6023  -27.2703 H   0  0  0  0  0  0  0  0  0  0  0  0
   -2.2162   20.5657  -28.7105 H   0  0  0  0  0  0  0  0  0  0  0  0
    0.1112   18.4623  -26.4071 H   0  0  0  0  0  0  0  0  0  0  0  0
   -1.2346   17.3999  -26.8522 H   0  0  0  0  0  0  0  0  0  0  0  0
    1.5317   17.0621  -27.5603 H   0  0  0  0  0  0  0  0  0  0  0  0
    0.1682   16.1238  -28.2184 H   0  0  0  0  0  0  0  0  0  0  0  0
    1.7883   18.2082  -29.5504 H   0  0  0  0  0  0  0  0  0  0  0  0
    0.5988   17.1583  -30.2957 H   0  0  0  0  0  0  0  0  0  0  0  0
   -1.6143   21.2466  -29.9788 H   0  0  0  0  0  0  0  0  0  0  0  0
   -5.9789   20.9852  -30.8879 H   0  0  0  0  0  0  0  0  0  0  0  0
   -6.1225   18.2082  -34.7776 H   0  0  0  0  0  0  0  0  0  0  0  0
   -5.0189   16.9100  -35.3468 H   0  0  0  0  0  0  0  0  0  0  0  0
   -7.6630   16.5621  -33.8486 H   0  0  0  0  0  0  0  0  0  0  0  0
   -7.3123   16.1392  -35.5683 H   0  0  0  0  0  0  0  0  0  0  0  0
  1  2  1  0
  2  3  2  0
  3  4  1  0
  4  5  2  0
  5  6  1  0
  6  7  2  0
  7  8  1  0
  8  9  1  0
  9 10  1  0
 10 11  2  0
 11 12  1  0
 12 13  2  0
 13 14  1  0
 14 15  2  0
 15 16  1  0
 16 17  2  0
 17 18  1  0
 17 19  1  0
 19 20  1  0
 20 21  1  0
 21 22  1  0
 22 23  1  0
 23 24  1  0
 24 25  1  0
 25 26  1  0
 26 27  1  0
 27 28  1  0
 28 29  1  0
 29 30  2  0
 19 31  2  0
 13 32  1  0
 32 33  2  0
  9 34  1  0
 34 35  1  0
  7  2  1  0
 33 10  1  0
 35  6  1  0
 31 14  1  0
 29 25  1  0
  1 36  1  0
  1 37  1  0
  1 38  1  0
  3 39  1  0
  4 40  1  0
  5 41  1  0
  8 42  1  0
  8 43  1  0
 12 44  1  0
 15 45  1  0
 16 46  1  0
 20 47  1  0
 20 48  1  0
 21 49  1  0
 22 50  1  0
 22 51  1  0
 23 52  1  0
 23 53  1  0
 24 54  1  0
 24 55  1  0
 26 56  1  0
 26 57  1  0
 27 58  1  0
 27 59  1  0
 28 60  1  0
 28 61  1  0
 31 62  1  0
 32 63  1  0
 34 64  1  0
 34 65  1  0
 35 66  1  0
 35 67  1  0
M  CHG  1  18  -1
M  END
>  <UniqueID>  (37) 
36

>  <SMILES>  (37) 
Cc1cccc2c1CN(c1ncc(-c3ccc([O-])c(CNCCCN4CCCC4=O)c3)cn1)CC2

>  <Energy>  (37) 
82.54362037981744

>  <Genealogy>  (37) 
Cc1cccc2c1CN(c1ncc(-c3ccc([O-])c(CNCCCN4CCCC4=O)c3)cn1)CC2 (protonated)
Cc1cccc2c1CN(c1ncc(-c3ccc([O-])c(CNCCCN4CCCC4=O)c3)cn1)CC2 (3D coordinates assigned)
Cc1cccc2c1CN(c1ncc(-c3ccc([O-])c(CNCCCN4CCCC4=O)c3)cn1)CC2 (nonaromatic ring conformer: 82.54362037981744 kcal/mol)

>  <smiles>  (37) 
Cc1cccc2c1CN(c1ncc(-c3ccc(O)c(CNCCCN4CCCC4=O)c3)cn1)CC2

>  <score_type>  (37) 
oracle

>  <origin>  (37) 
adgpu

>  <m_score__min__energy>  (37) 
-11.58

>  <m_primary>  (37) 
energy

$$$$
37:0
     RDKit          3D

 62 66  0  0  0  0  0  0  0  0999 V2000
   -3.6960   18.1250  -34.1530 C   0  0  0  0  0  0  0  0  0  0  0  0
   -5.0560   18.4370  -33.6130 C   0  0  0  0  0  0  0  0  0  0  0  0
   -6.3650   17.3730  -33.7070 S   0  0  0  0  0  0  0  0  0  0  0  0
   -7.4380   18.4170  -32.9620 C   0  0  0  0  0  0  0  0  0  0  0  0
   -8.7490   18.1770  -32.7270 N   0  0  0  0  0  0  0  0  0  0  0  0
   -9.4960   19.1410  -32.1230 C   0  0  0  0  0  0  0  0  0  0  0  0
   -8.9280   20.3260  -31.7600 N   0  0  0  0  0  0  0  0  0  0  0  0
   -7.6090   20.5930  -31.9890 C   0  0  0  0  0  0  0  0  0  0  0  0
   -7.0720   21.8440  -31.5500 N   0  0  0  0  0  0  0  0  0  0  0  0
   -7.1760   22.1650  -30.1170 C   0  0  0  0  0  0  0  0  0  0  0  0
   -6.8620   23.6380  -29.8510 C   0  0  0  0  0  0  0  0  0  0  0  0
   -5.7060   24.0420  -30.6540 N   0  0  0  0  0  0  0  0  0  0  0  0
   -4.5240   24.5960  -30.0500 C   0  0  0  0  0  0  0  0  0  0  0  0
   -3.9480   25.5690  -30.6080 O   0  0  0  0  0  0  0  0  0  0  0  0
   -3.9930   24.0370  -28.8350 N   0  0  0  0  0  0  0  0  0  0  0  0
   -2.7090   24.3800  -28.2860 C   0  0  0  0  0  0  0  0  0  0  0  0
   -2.6310   24.8530  -26.9680 C   0  0  0  0  0  0  0  0  0  0  0  0
   -1.3920   25.1560  -26.3960 C   0  0  0  0  0  0  0  0  0  0  0  0
   -0.2110   24.9690  -27.1270 C   0  0  0  0  0  0  0  0  0  0  0  0
    1.3550   25.3500  -26.4020 S   0  0  0  0  0  0  0  0  0  0  0  0
    2.3220   25.7230  -27.4910 O   0  0  0  0  0  0  0  0  0  0  0  0
    1.8850   24.1240  -25.7120 O   0  0  0  0  0  0  0  0  0  0  0  0
    1.2690   26.6590  -25.2470 N   0  0  0  0  0  0  0  0  0  0  0  0
    0.4700   27.7790  -25.7430 C   0  0  0  0  0  0  0  0  0  0  0  0
   -0.0550   28.5090  -24.5150 C   0  0  0  0  0  0  0  0  0  0  0  0
    0.0670   27.5130  -23.3700 C   0  0  0  0  0  0  0  0  0  0  0  0
    0.6350   26.2490  -23.9960 C   0  0  0  0  0  0  0  0  0  0  0  0
   -0.2840   24.4880  -28.4410 C   0  0  0  0  0  0  0  0  0  0  0  0
   -1.5220   24.1840  -29.0140 C   0  0  0  0  0  0  0  0  0  0  0  0
   -5.7400   23.8580  -32.1100 C   0  0  0  0  0  0  0  0  0  0  0  0
   -6.8750   22.9110  -32.5400 C   0  0  0  0  0  0  0  0  0  0  0  0
   -6.8200   19.6090  -32.6180 C   0  0  0  0  0  0  0  0  0  0  0  0
   -5.4500   19.6300  -32.9790 C   0  0  0  0  0  0  0  0  0  0  0  0
   -4.5330   20.8090  -32.8200 C   0  0  0  0  0  0  0  0  0  0  0  0
   -2.9979   17.9648  -33.3181 H   0  0  0  0  0  0  0  0  0  0  0  0
   -3.7459   17.2150  -34.7689 H   0  0  0  0  0  0  0  0  0  0  0  0
   -3.3443   18.9658  -34.7689 H   0  0  0  0  0  0  0  0  0  0  0  0
  -10.5636   18.9631  -31.9267 H   0  0  0  0  0  0  0  0  0  0  0  0
   -8.1992   21.9498  -29.7754 H   0  0  0  0  0  0  0  0  0  0  0  0
   -6.4449   21.5510  -29.5707 H   0  0  0  0  0  0  0  0  0  0  0  0
   -7.7317   24.2537  -30.1241 H   0  0  0  0  0  0  0  0  0  0  0  0
   -6.6349   23.7782  -28.7839 H   0  0  0  0  0  0  0  0  0  0  0  0
   -4.5660   23.3420  -28.3090 H   0  0  0  0  0  0  0  0  0  0  0  0
   -3.5512   24.9865  -26.3803 H   0  0  0  0  0  0  0  0  0  0  0  0
   -1.3438   25.5430  -25.3674 H   0  0  0  0  0  0  0  0  0  0  0  0
    1.0940   28.4529  -26.3484 H   0  0  0  0  0  0  0  0  0  0  0  0
   -0.3543   27.4290  -26.3817 H   0  0  0  0  0  0  0  0  0  0  0  0
    0.5500   29.4049  -24.3119 H   0  0  0  0  0  0  0  0  0  0  0  0
   -1.0921   28.8486  -24.6531 H   0  0  0  0  0  0  0  0  0  0  0  0
    0.7464   27.8980  -22.5952 H   0  0  0  0  0  0  0  0  0  0  0  0
   -0.9014   27.3292  -22.8817 H   0  0  0  0  0  0  0  0  0  0  0  0
    1.3772   25.7922  -23.3249 H   0  0  0  0  0  0  0  0  0  0  0  0
   -0.1530   25.5023  -24.1735 H   0  0  0  0  0  0  0  0  0  0  0  0
    0.6379   24.3489  -29.0247 H   0  0  0  0  0  0  0  0  0  0  0  0
   -1.5681   23.7894  -30.0397 H   0  0  0  0  0  0  0  0  0  0  0  0
   -5.8919   24.8365  -32.5891 H   0  0  0  0  0  0  0  0  0  0  0  0
   -4.7846   23.4099  -32.4205 H   0  0  0  0  0  0  0  0  0  0  0  0
   -7.8068   23.4873  -32.6384 H   0  0  0  0  0  0  0  0  0  0  0  0
   -6.6034   22.4516  -33.5019 H   0  0  0  0  0  0  0  0  0  0  0  0
   -4.3766   21.0101  -31.7499 H   0  0  0  0  0  0  0  0  0  0  0  0
   -3.5665   20.5887  -33.2968 H   0  0  0  0  0  0  0  0  0  0  0  0
   -4.9844   21.6915  -33.2968 H   0  0  0  0  0  0  0  0  0  0  0  0
  1  2  1  0
  2  3  1  0
  3  4  1  0
  4  5  2  0
  5  6  1  0
  6  7  2  0
  7  8  1  0
  8  9  1  0
  9 10  1  0
 10 11  1  0
 11 12  1  0
 12 13  1  0
 13 14  2  0
 13 15  1  0
 15 16  1  0
 16 17  2  0
 17 18  1  0
 18 19  2  0
 19 20  1  0
 20 21  2  0
 20 22  2  0
 20 23  1  0
 23 24  1  0
 24 25  1  0
 25 26  1  0
 26 27  1  0
 19 28  1  0
 28 29  2  0
 12 30  1  0
 30 31  1  0
  8 32  2  0
 32 33  1  0
 33 34  1  0
 33  2  2  0
 32  4  1  0
 31  9  1  0
 29 16  1  0
 27 23  1  0
  1 35  1  0
  1 36  1  0
  1 37  1  0
  6 38  1  0
 10 39  1  0
 10 40  1  0
 11 41  1  0
 11 42  1  0
 15 43  1  0
 17 44  1  0
 18 45  1  0
 24 46  1  0
 24 47  1  0
 25 48  1  0
 25 49  1  0
 26 50  1  0
 26 51  1  0
 27 52  1  0
 27 53  1  0
 28 54  1  0
 29 55  1  0
 30 56  1  0
 30 57  1  0
 31 58  1  0
 31 59  1  0
 34 60  1  0
 34 61  1  0
 34 62  1  0
M  END
>  <UniqueID>  (38) 
37

>  <SMILES>  (38) 
Cc1sc2ncnc(N3CCN(C(=O)Nc4ccc(S(=O)(=O)N5CCCC5)cc4)CC3)c2c1C

>  <Energy>  (38) 
113.29466450359392

>  <Genealogy>  (38) 
Cc1sc2ncnc(N3CCN(C(=O)Nc4ccc(S(=O)(=O)N5CCCC5)cc4)CC3)c2c1C (3D coordinates assigned)
Cc1sc2ncnc(N3CCN(C(=O)Nc4ccc(S(=O)(=O)N5CCCC5)cc4)CC3)c2c1C (nonaromatic ring conformer: 113.29466450359392 kcal/mol)

>  <smiles>  (38) 
Cc1sc2ncnc(N3CCN(C(=O)Nc4ccc(S(=O)(=O)N5CCCC5)cc4)CC3)c2c1C

>  <score_type>  (38) 
oracle

>  <origin>  (38) 
adgpu

>  <m_score__min__energy>  (38) 
-10.609999999999999

>  <m_primary>  (38) 
energy

$$$$
38:0
     RDKit          3D

 44 47  0  0  0  0  0  0  0  0999 V2000
   -2.4256   22.5687  -26.0878 H   0  0  0  0  0  0  0  0  0  0  0  0
   -2.0900   23.3610  -26.7730 C   0  0  0  0  0  0  0  0  0  0  0  0
   -2.8260   23.6640  -27.8720 N   0  0  0  0  0  0  0  0  0  0  0  0
   -2.4350   24.6440  -28.7310 C   0  0  0  0  0  0  0  0  0  0  0  0
   -3.1250   24.9240  -29.8000 N   0  0  0  0  0  0  0  0  0  0  0  0
   -4.3870   24.3530  -30.1870 C   0  0  0  0  0  0  0  0  0  0  0  0
   -5.3630   25.0990  -30.8750 C   0  0  0  0  0  0  0  0  0  0  0  0
   -5.1811   26.1591  -31.1055 H   0  0  0  0  0  0  0  0  0  0  0  0
   -6.5620   24.4970  -31.2660 C   0  0  0  0  0  0  0  0  0  0  0  0
   -7.3286   25.0904  -31.7857 H   0  0  0  0  0  0  0  0  0  0  0  0
   -6.7920   23.1410  -30.9990 C   0  0  0  0  0  0  0  0  0  0  0  0
   -8.3070   22.3930  -31.4970 S   0  0  0  0  0  0  0  0  0  0  0  0
   -9.1430   23.4210  -32.2040 O   0  0  0  0  0  0  0  0  0  0  0  0
   -9.0520   21.8930  -30.2900 O   0  0  0  0  0  0  0  0  0  0  0  0
   -7.9760   21.0540  -32.5710 N   0  0  0  0  0  0  0  0  0  0  0  0
   -6.5200   20.8820  -32.7790 C   0  0  0  0  0  0  0  0  0  0  0  0
   -6.3286   20.7552  -33.8548 H   0  0  0  0  0  0  0  0  0  0  0  0
   -6.0150   21.7762  -32.3847 H   0  0  0  0  0  0  0  0  0  0  0  0
   -5.9650   19.6570  -32.0290 C   0  0  0  0  0  0  0  0  0  0  0  0
   -4.8898   19.5712  -32.2450 H   0  0  0  0  0  0  0  0  0  0  0  0
   -6.1573   19.8124  -30.9572 H   0  0  0  0  0  0  0  0  0  0  0  0
   -6.6000   18.4430  -32.4030 O   0  0  0  0  0  0  0  0  0  0  0  0
   -7.9890   18.5810  -32.6800 C   0  0  0  0  0  0  0  0  0  0  0  0
   -8.1200   18.6238  -33.7713 H   0  0  0  0  0  0  0  0  0  0  0  0
   -8.4889   17.7143  -32.2229 H   0  0  0  0  0  0  0  0  0  0  0  0
   -8.6350   19.8350  -32.0680 C   0  0  0  0  0  0  0  0  0  0  0  0
   -9.7008   19.8618  -32.3388 H   0  0  0  0  0  0  0  0  0  0  0  0
   -8.5221   19.7953  -30.9745 H   0  0  0  0  0  0  0  0  0  0  0  0
   -5.8110   22.3910  -30.3370 C   0  0  0  0  0  0  0  0  0  0  0  0
   -5.9850   21.3258  -30.1245 H   0  0  0  0  0  0  0  0  0  0  0  0
   -4.6120   22.9930  -29.9460 C   0  0  0  0  0  0  0  0  0  0  0  0
   -3.8385   22.3928  -29.4445 H   0  0  0  0  0  0  0  0  0  0  0  0
   -1.2790   25.3190  -28.4960 N   0  0  0  0  0  0  0  0  0  0  0  0
   -0.5050   25.0560  -27.4080 C   0  0  0  0  0  0  0  0  0  0  0  0
    0.7370   25.8310  -27.2080 C   0  0  0  0  0  0  0  0  0  0  0  0
    2.2860   25.2560  -27.5360 S   0  0  0  0  0  0  0  0  0  0  0  0
    3.1140   26.6440  -27.0770 C   0  0  0  0  0  0  0  0  0  0  0  0
    4.2048   26.7837  -27.1038 H   0  0  0  0  0  0  0  0  0  0  0  0
    2.1820   27.5840  -26.6580 C   0  0  0  0  0  0  0  0  0  0  0  0
    2.4587   28.5877  -26.3031 H   0  0  0  0  0  0  0  0  0  0  0  0
    0.8570   27.1360  -26.7290 C   0  0  0  0  0  0  0  0  0  0  0  0
   -0.0052   27.7529  -26.4357 H   0  0  0  0  0  0  0  0  0  0  0  0
   -0.9080   24.0540  -26.5120 C   0  0  0  0  0  0  0  0  0  0  0  0
   -0.3045   23.8200  -25.6226 H   0  0  0  0  0  0  0  0  0  0  0  0
  1  2  1  0
  2  3  1  0
  3  4  1  0
  4  5  2  0
  5  6  1  0
  6  7  2  0
  7  8  1  0
  7  9  1  0
  9 10  1  0
  9 11  2  0
 11 12  1  0
 12 13  2  0
 12 14  2  0
 12 15  1  0
 15 16  1  0
 16 17  1  0
 16 18  1  0
 16 19  1  0
 19 20  1  0
 19 21  1  0
 19 22  1  0
 22 23  1  0
 23 24  1  0
 23 25  1  0
 23 26  1  0
 26 27  1  0
 26 28  1  0
 11 29  1  0
 29 30  1  0
 29 31  2  0
 31 32  1  0
  4 33  1  0
 33 34  2  0
 34 35  1  0
 35 36  1  0
 36 37  1  0
 37 38  1  0
 37 39  2  0
 39 40  1  0
 39 41  1  0
 41 42  1  0
 34 43  1  0
 43 44  1  0
 43  2  2  0
 31  6  1  0
 41 35  2  0
 26 15  1  0
M  CHG  1   3  -1
M  END
>  <UniqueID>  (39) 
38

>  <SMILES>  (39) 
O=S(=O)(c1ccc(/N=c2/nc(-c3cccs3)cc[n-]2)cc1)N1CCOCC1

>  <Energy>  (39) 
93.96017598003954

>  <Genealogy>  (39) 
O=S(=O)(c1ccc(N=c2nc(-c3cccs3)cc[n-]2)cc1)N1CCOCC1 (protonated)
O=S(=O)(c1ccc(/N=c2/nc(-c3cccs3)cc[n-]2)cc1)N1CCOCC1 (cis-trans isomerization)
O=S(=O)(c1ccc(/N=c2/nc(-c3cccs3)cc[n-]2)cc1)N1CCOCC1 (3D coordinates assigned)
O=S(=O)(c1ccc(/N=c2/nc(-c3cccs3)cc[n-]2)cc1)N1CCOCC1 (nonaromatic ring conformer: 93.96017598003954 kcal/mol)

>  <smiles>  (39) 
O=S(=O)(c1ccc(N=c2nc(-c3cccs3)cc[nH]2)cc1)N1CCOCC1

>  <score_type>  (39) 
oracle

>  <origin>  (39) 
adgpu

>  <m_score__min__energy>  (39) 
-9.6799999999999997

>  <m_primary>  (39) 
energy

$$$$
39:0
     RDKit          3D

 44 46  0  0  0  0  0  0  0  0999 V2000
   -9.7300   21.7380  -31.8840 C   0  0  0  0  0  0  0  0  0  0  0  0
   -8.2340   21.9040  -31.9050 C   0  0  0  0  0  0  0  0  0  0  0  0
   -7.7050   23.2000  -31.7600 C   0  0  0  0  0  0  0  0  0  0  0  0
   -6.3270   23.4150  -31.7730 C   0  0  0  0  0  0  0  0  0  0  0  0
   -5.4420   22.3420  -31.9520 C   0  0  0  0  0  0  0  0  0  0  0  0
   -4.0160   22.5330  -31.9470 N   0  0  0  0  0  0  0  0  0  0  0  0
   -3.2600   22.9340  -30.7970 C   0  0  0  0  0  0  0  0  0  0  0  0
   -2.3390   22.1480  -30.1350 C   0  0  0  0  0  0  0  0  0  0  0  0
   -1.7570   22.8610  -29.1920 O   0  0  0  0  0  0  0  0  0  0  0  0
   -2.2380   24.0860  -29.2210 C   0  0  0  0  0  0  0  0  0  0  0  0
   -1.7910   25.1860  -28.3140 C   0  0  0  0  0  0  0  0  0  0  0  0
   -3.1740   24.1910  -30.2270 C   0  0  0  0  0  0  0  0  0  0  0  0
   -3.8220   25.3600  -30.6200 O   0  0  0  0  0  0  0  0  0  0  0  0
   -5.9590   21.0490  -32.0850 C   0  0  0  0  0  0  0  0  0  0  0  0
   -7.3430   20.8090  -32.0690 C   0  0  0  0  0  0  0  0  0  0  0  0
   -7.8640   19.1130  -32.2270 S   0  0  0  0  0  0  0  0  0  0  0  0
   -8.2440   18.5150  -30.9030 O   0  0  0  0  0  0  0  0  0  0  0  0
   -9.0960   19.1060  -33.0910 O   0  0  0  0  0  0  0  0  0  0  0  0
   -6.6200   18.1070  -32.9520 N   0  0  0  0  0  0  0  0  0  0  0  0
   -6.1450   18.6690  -34.2240 C   0  0  0  0  0  0  0  0  0  0  0  0
   -4.9870   17.8100  -34.7760 C   0  0  0  0  0  0  0  0  0  0  0  0
   -4.8940   16.5420  -34.1460 O   0  0  0  0  0  0  0  0  0  0  0  0
   -6.1720   15.9330  -34.0850 C   0  0  0  0  0  0  0  0  0  0  0  0
   -7.1100   16.7270  -33.1510 C   0  0  0  0  0  0  0  0  0  0  0  0
  -10.0800   21.6992  -30.8419 H   0  0  0  0  0  0  0  0  0  0  0  0
  -10.2006   22.5894  -32.3974 H   0  0  0  0  0  0  0  0  0  0  0  0
  -10.0025   20.8041  -32.3974 H   0  0  0  0  0  0  0  0  0  0  0  0
   -8.3868   24.0541  -31.6348 H   0  0  0  0  0  0  0  0  0  0  0  0
   -5.9317   24.4331  -31.6420 H   0  0  0  0  0  0  0  0  0  0  0  0
   -3.4830   22.3190  -32.8220 H   0  0  0  0  0  0  0  0  0  0  0  0
   -2.1245   21.0927  -30.3592 H   0  0  0  0  0  0  0  0  0  0  0  0
   -1.9183   24.8727  -27.2673 H   0  0  0  0  0  0  0  0  0  0  0  0
   -0.7307   25.4094  -28.5035 H   0  0  0  0  0  0  0  0  0  0  0  0
   -2.3949   26.0857  -28.5035 H   0  0  0  0  0  0  0  0  0  0  0  0
   -3.9300   25.6090  -31.5950 H   0  0  0  0  0  0  0  0  0  0  0  0
   -5.2671   20.2022  -32.2046 H   0  0  0  0  0  0  0  0  0  0  0  0
   -6.9711   18.6781  -34.9502 H   0  0  0  0  0  0  0  0  0  0  0  0
   -5.7873   19.6956  -34.0561 H   0  0  0  0  0  0  0  0  0  0  0  0
   -5.1462   17.6562  -35.8535 H   0  0  0  0  0  0  0  0  0  0  0  0
   -4.0496   18.3493  -34.5748 H   0  0  0  0  0  0  0  0  0  0  0  0
   -6.6072   15.9046  -35.0949 H   0  0  0  0  0  0  0  0  0  0  0  0
   -6.0594   14.9128  -33.6895 H   0  0  0  0  0  0  0  0  0  0  0  0
   -8.1147   16.7635  -33.5974 H   0  0  0  0  0  0  0  0  0  0  0  0
   -7.1389   16.2224  -32.1740 H   0  0  0  0  0  0  0  0  0  0  0  0
  1  2  1  0
  2  3  2  0
  3  4  1  0
  4  5  2  0
  5  6  1  0
  6  7  1  0
  7  8  2  0
  8  9  1  0
  9 10  1  0
 10 11  1  0
 10 12  2  0
 12 13  1  0
  5 14  1  0
 14 15  2  0
 15 16  1  0
 16 17  2  0
 16 18  2  0
 16 19  1  0
 19 20  1  0
 20 21  1  0
 21 22  1  0
 22 23  1  0
 23 24  1  0
 15  2  1  0
 24 19  1  0
 12  7  1  0
  1 25  1  0
  1 26  1  0
  1 27  1  0
  3 28  1  0
  4 29  1  0
  6 30  1  0
  8 31  1  0
 11 32  1  0
 11 33  1  0
 11 34  1  0
 13 35  1  0
 14 36  1  0
 20 37  1  0
 20 38  1  0
 21 39  1  0
 21 40  1  0
 23 41  1  0
 23 42  1  0
 24 43  1  0
 24 44  1  0
M  END
>  <UniqueID>  (40) 
39

>  <SMILES>  (40) 
Cc1ccc(Nc2coc(C)c2O)cc1S(=O)(=O)N1CCOCC1

>  <Energy>  (40) 
90.77848365602217

>  <Genealogy>  (40) 
Cc1ccc(Nc2coc(C)c2O)cc1S(=O)(=O)N1CCOCC1 (3D coordinates assigned)
Cc1ccc(Nc2coc(C)c2O)cc1S(=O)(=O)N1CCOCC1 (nonaromatic ring conformer: 90.77848365602217 kcal/mol)

>  <smiles>  (40) 
Cc1ccc(Nc2coc(C)c2O)cc1S(=O)(=O)N1CCOCC1

>  <score_type>  (40) 
oracle

>  <origin>  (40) 
adgpu

>  <m_score__min__energy>  (40) 
-9.0999999999999996

>  <m_primary>  (40) 
energy

$$$$
40:0
     RDKit          3D

 61 64  0  0  0  0  0  0  0  0999 V2000
   -1.6060   20.4060  -25.9620 C   0  0  0  0  0  0  0  0  0  0  0  0
   -1.1890   20.9710  -27.2420 N   0  0  0  0  0  0  0  0  0  0  0  0
   -2.0670   21.8540  -27.9520 C   0  0  0  0  0  0  0  0  0  0  0  0
   -3.3070   21.3710  -28.3860 C   0  0  0  0  0  0  0  0  0  0  0  0
   -4.2080   22.2140  -29.0350 C   0  0  0  0  0  0  0  0  0  0  0  0
   -3.8830   23.5540  -29.2580 C   0  0  0  0  0  0  0  0  0  0  0  0
   -5.0190   24.6160  -30.0950 S   0  0  0  0  0  0  0  0  0  0  0  0
   -5.9000   25.2950  -29.0830 O   0  0  0  0  0  0  0  0  0  0  0  0
   -4.2520   25.6790  -30.8320 O   0  0  0  0  0  0  0  0  0  0  0  0
   -6.0120   23.7300  -31.2300 N   0  0  0  0  0  0  0  0  0  0  0  0
   -6.9590   22.8550  -30.5130 C   0  0  0  0  0  0  0  0  0  0  0  0
   -7.4490   21.7190  -31.4280 C   0  0  0  0  0  0  0  0  0  0  0  0
   -6.4090   20.8730  -31.9050 O   0  0  0  0  0  0  0  0  0  0  0  0
   -5.1310   21.4950  -31.9340 C   0  0  0  0  0  0  0  0  0  0  0  0
   -5.1940   23.0060  -32.2260 C   0  0  0  0  0  0  0  0  0  0  0  0
   -2.6470   24.0490  -28.8190 C   0  0  0  0  0  0  0  0  0  0  0  0
   -1.7180   23.2110  -28.1700 C   0  0  0  0  0  0  0  0  0  0  0  0
   -0.3910   23.7420  -27.7380 C   0  0  0  0  0  0  0  0  0  0  0  0
    0.2570   24.4710  -28.5430 O   0  0  0  0  0  0  0  0  0  0  0  0
    0.1860   23.3790  -26.4480 N   0  0  0  0  0  0  0  0  0  0  0  0
    1.3410   24.2380  -26.1430 C   0  0  0  0  0  0  0  0  0  0  0  0
    0.8230   25.4330  -25.3490 C   0  0  0  0  0  0  0  0  0  0  0  0
   -0.5450   25.0160  -24.8330 C   0  0  0  0  0  0  0  0  0  0  0  0
   -0.7390   23.5860  -25.3200 C   0  0  0  0  0  0  0  0  0  0  0  0
    0.1930   20.3040  -28.0530 S   0  0  0  0  0  0  0  0  0  0  0  0
    1.3920   21.1800  -27.8110 O   0  0  0  0  0  0  0  0  0  0  0  0
    0.4910   18.9380  -27.4980 O   0  0  0  0  0  0  0  0  0  0  0  0
   -0.1270   20.1930  -29.7800 C   0  0  0  0  0  0  0  0  0  0  0  0
   -0.1050   18.9490  -30.4280 C   0  0  0  0  0  0  0  0  0  0  0  0
   -0.3430   18.8720  -31.8040 C   0  0  0  0  0  0  0  0  0  0  0  0
   -0.6020   20.0330  -32.5380 C   0  0  0  0  0  0  0  0  0  0  0  0
   -0.6220   21.2750  -31.8960 C   0  0  0  0  0  0  0  0  0  0  0  0
   -0.3840   21.3560  -30.5200 C   0  0  0  0  0  0  0  0  0  0  0  0
   -1.1708   20.9957  -25.1417 H   0  0  0  0  0  0  0  0  0  0  0  0
   -2.7033   20.4317  -25.8899 H   0  0  0  0  0  0  0  0  0  0  0  0
   -1.2581   19.3650  -25.8899 H   0  0  0  0  0  0  0  0  0  0  0  0
   -3.5728   20.3176  -28.2136 H   0  0  0  0  0  0  0  0  0  0  0  0
   -5.1788   21.8223  -29.3728 H   0  0  0  0  0  0  0  0  0  0  0  0
   -6.4566   22.4210  -29.6359 H   0  0  0  0  0  0  0  0  0  0  0  0
   -7.8258   23.4546  -30.1983 H   0  0  0  0  0  0  0  0  0  0  0  0
   -8.1643   21.1034  -30.8629 H   0  0  0  0  0  0  0  0  0  0  0  0
   -7.9041   22.1934  -32.3099 H   0  0  0  0  0  0  0  0  0  0  0  0
   -4.6493   21.3484  -30.9560 H   0  0  0  0  0  0  0  0  0  0  0  0
   -4.5610   21.0292  -32.7514 H   0  0  0  0  0  0  0  0  0  0  0  0
   -4.1724   23.4135  -32.2100 H   0  0  0  0  0  0  0  0  0  0  0  0
   -5.6617   23.1417  -33.2123 H   0  0  0  0  0  0  0  0  0  0  0  0
   -2.3984   25.1078  -28.9836 H   0  0  0  0  0  0  0  0  0  0  0  0
    0.4720   22.3740  -26.4530 H   0  0  0  0  0  0  0  0  0  0  0  0
    2.0772   23.6802  -25.5456 H   0  0  0  0  0  0  0  0  0  0  0  0
    1.8333   24.5705  -27.0688 H   0  0  0  0  0  0  0  0  0  0  0  0
    1.4978   25.6588  -24.5101 H   0  0  0  0  0  0  0  0  0  0  0  0
    0.7663   26.3405  -25.9680 H   0  0  0  0  0  0  0  0  0  0  0  0
   -0.5709   25.0557  -23.7340 H   0  0  0  0  0  0  0  0  0  0  0  0
   -1.3408   25.6840  -25.1942 H   0  0  0  0  0  0  0  0  0  0  0  0
   -0.5096   22.8779  -24.5100 H   0  0  0  0  0  0  0  0  0  0  0  0
   -1.7800   23.4189  -25.6338 H   0  0  0  0  0  0  0  0  0  0  0  0
    0.0996   18.0335  -29.8535 H   0  0  0  0  0  0  0  0  0  0  0  0
   -0.3263   17.8954  -32.3099 H   0  0  0  0  0  0  0  0  0  0  0  0
   -0.7900   19.9696  -33.6200 H   0  0  0  0  0  0  0  0  0  0  0  0
   -0.8250   22.1890  -32.4734 H   0  0  0  0  0  0  0  0  0  0  0  0
   -0.3985   22.3343  -30.0173 H   0  0  0  0  0  0  0  0  0  0  0  0
  1  2  1  0
  2  3  1  0
  3  4  2  0
  4  5  1  0
  5  6  2  0
  6  7  1  0
  7  8  2  0
  7  9  2  0
  7 10  1  0
 10 11  1  0
 11 12  1  0
 12 13  1  0
 13 14  1  0
 14 15  1  0
  6 16  1  0
 16 17  2  0
 17 18  1  0
 18 19  2  0
 18 20  1  0
 20 21  1  0
 21 22  1  0
 22 23  1  0
 23 24  1  0
  2 25  1  0
 25 26  2  0
 25 27  2  0
 25 28  1  0
 28 29  2  0
 29 30  1  0
 30 31  2  0
 31 32  1  0
 32 33  2  0
 17  3  1  0
 24 20  1  0
 33 28  1  0
 15 10  1  0
  1 34  1  0
  1 35  1  0
  1 36  1  0
  4 37  1  0
  5 38  1  0
 11 39  1  0
 11 40  1  0
 12 41  1  0
 12 42  1  0
 14 43  1  0
 14 44  1  0
 15 45  1  0
 15 46  1  0
 16 47  1  0
 20 48  1  0
 21 49  1  0
 21 50  1  0
 22 51  1  0
 22 52  1  0
 23 53  1  0
 23 54  1  0
 24 55  1  0
 24 56  1  0
 29 57  1  0
 30 58  1  0
 31 59  1  0
 32 60  1  0
 33 61  1  0
M  CHG  1  20   1
M  END
>  <UniqueID>  (41) 
40

>  <SMILES>  (41) 
CN(c1ccc(S(=O)(=O)N2CCOCC2)cc1C(=O)[NH+]1CCCC1)S(=O)(=O)c1ccccc1

>  <Energy>  (41) 
90.52517499136427

>  <Genealogy>  (41) 
CN(c1ccc(S(=O)(=O)N2CCOCC2)cc1C(=O)[NH+]1CCCC1)S(=O)(=O)c1ccccc1 (protonated)
CN(c1ccc(S(=O)(=O)N2CCOCC2)cc1C(=O)[NH+]1CCCC1)S(=O)(=O)c1ccccc1 (3D coordinates assigned)
CN(c1ccc(S(=O)(=O)N2CCOCC2)cc1C(=O)[NH+]1CCCC1)S(=O)(=O)c1ccccc1 (nonaromatic ring conformer: 90.52517499136427 kcal/mol)

>  <smiles>  (41) 
CN(c1ccc(S(=O)(=O)N2CCOCC2)cc1C(=O)N1CCCC1)S(=O)(=O)c1ccccc1

>  <score_type>  (41) 
oracle

>  <origin>  (41) 
adgpu

>  <m_score__min__energy>  (41) 
-10.48

>  <m_primary>  (41) 
energy

$$$$
41:0
     RDKit          3D

 52 55  0  0  0  0  0  0  0  0999 V2000
   -5.7320   26.4050  -31.1770 O   0  0  0  0  0  0  0  0  0  0  0  0
   -5.3470   25.1590  -30.4230 S   0  0  0  0  0  0  0  0  0  0  0  0
   -5.7850   25.2910  -28.9900 O   0  0  0  0  0  0  0  0  0  0  0  0
   -3.6210   24.9770  -30.4710 N   0  0  0  0  0  0  0  0  0  0  0  0
   -2.8480   24.1930  -29.5560 C   0  0  0  0  0  0  0  0  0  0  0  0
   -3.2170   22.8800  -29.2100 C   0  0  0  0  0  0  0  0  0  0  0  0
   -2.4000   22.1010  -28.3790 C   0  0  0  0  0  0  0  0  0  0  0  0
   -1.1930   22.6450  -27.8840 C   0  0  0  0  0  0  0  0  0  0  0  0
   -0.8580   23.9760  -28.1880 C   0  0  0  0  0  0  0  0  0  0  0  0
   -1.6770   24.7410  -29.0200 C   0  0  0  0  0  0  0  0  0  0  0  0
   -1.3140   26.0440  -29.3200 O   0  0  0  0  0  0  0  0  0  0  0  0
   -0.2940   21.8520  -26.9630 C   0  0  0  0  0  0  0  0  0  0  0  0
   -0.4940   20.3430  -27.1180 C   0  0  0  0  0  0  0  0  0  0  0  0
   -1.9800   19.9960  -27.0040 C   0  0  0  0  0  0  0  0  0  0  0  0
   -2.7830   20.6590  -28.1350 C   0  0  0  0  0  0  0  0  0  0  0  0
   -6.1230   23.7720  -31.1840 C   0  0  0  0  0  0  0  0  0  0  0  0
   -7.5210   23.6690  -31.2100 C   0  0  0  0  0  0  0  0  0  0  0  0
   -8.1280   22.5360  -31.7520 C   0  0  0  0  0  0  0  0  0  0  0  0
   -7.3480   21.4940  -32.2670 C   0  0  0  0  0  0  0  0  0  0  0  0
   -7.9810   20.3690  -32.7890 O   0  0  0  0  0  0  0  0  0  0  0  0
   -5.9440   21.5930  -32.2550 C   0  0  0  0  0  0  0  0  0  0  0  0
   -4.9210   20.2870  -32.8780 S   0  0  0  0  0  0  0  0  0  0  0  0
   -5.4880   19.7730  -34.1740 O   0  0  0  0  0  0  0  0  0  0  0  0
   -4.9280   19.1500  -31.8910 O   0  0  0  0  0  0  0  0  0  0  0  0
   -3.2750   20.8150  -33.1350 N   0  0  0  0  0  0  0  0  0  0  0  0
   -2.5990   21.0410  -31.8520 C   0  0  0  0  0  0  0  0  0  0  0  0
   -1.1610   21.5440  -32.1020 C   0  0  0  0  0  0  0  0  0  0  0  0
   -0.7890   21.4670  -33.4670 O   0  0  0  0  0  0  0  0  0  0  0  0
   -1.0260   20.1620  -33.9550 C   0  0  0  0  0  0  0  0  0  0  0  0
   -2.5330   19.8260  -33.9350 C   0  0  0  0  0  0  0  0  0  0  0  0
   -5.3410   22.7400  -31.7200 C   0  0  0  0  0  0  0  0  0  0  0  0
   -4.1575   22.4600  -29.5961 H   0  0  0  0  0  0  0  0  0  0  0  0
    0.0569   24.4182  -27.7668 H   0  0  0  0  0  0  0  0  0  0  0  0
    0.7534   22.0960  -27.1939 H   0  0  0  0  0  0  0  0  0  0  0  0
   -0.5491   22.1218  -25.9276 H   0  0  0  0  0  0  0  0  0  0  0  0
   -0.1206   20.0256  -28.1028 H   0  0  0  0  0  0  0  0  0  0  0  0
    0.0597   19.8225  -26.3227 H   0  0  0  0  0  0  0  0  0  0  0  0
   -2.1015   18.9046  -27.0672 H   0  0  0  0  0  0  0  0  0  0  0  0
   -2.3562   20.3676  -26.0394 H   0  0  0  0  0  0  0  0  0  0  0  0
   -2.6131   20.0916  -29.0620 H   0  0  0  0  0  0  0  0  0  0  0  0
   -3.8398   20.6513  -27.8300 H   0  0  0  0  0  0  0  0  0  0  0  0
   -8.1397   24.4822  -30.8027 H   0  0  0  0  0  0  0  0  0  0  0  0
   -9.2252   22.4610  -31.7748 H   0  0  0  0  0  0  0  0  0  0  0  0
   -3.1544   21.7943  -31.2740 H   0  0  0  0  0  0  0  0  0  0  0  0
   -2.5615   20.0967  -31.2891 H   0  0  0  0  0  0  0  0  0  0  0  0
   -1.0923   22.5924  -31.7762 H   0  0  0  0  0  0  0  0  0  0  0  0
   -0.4770   20.8979  -31.5322 H   0  0  0  0  0  0  0  0  0  0  0  0
   -0.6561   20.0923  -34.9886 H   0  0  0  0  0  0  0  0  0  0  0  0
   -0.4998   19.4458  -33.3068 H   0  0  0  0  0  0  0  0  0  0  0  0
   -2.9183   19.8323  -34.9653 H   0  0  0  0  0  0  0  0  0  0  0  0
   -2.6683   18.8320  -33.4837 H   0  0  0  0  0  0  0  0  0  0  0  0
   -4.2447   22.8307  -31.7210 H   0  0  0  0  0  0  0  0  0  0  0  0
  1  2  2  0
  2  3  2  0
  2  4  1  0
  4  5  1  0
  5  6  2  0
  6  7  1  0
  7  8  2  0
  8  9  1  0
  9 10  2  0
 10 11  1  0
  8 12  1  0
 12 13  1  0
 13 14  1  0
 14 15  1  0
  2 16  1  0
 16 17  2  0
 17 18  1  0
 18 19  2  0
 19 20  1  0
 19 21  1  0
 21 22  1  0
 22 23  2  0
 22 24  2  0
 22 25  1  0
 25 26  1  0
 26 27  1  0
 27 28  1  0
 28 29  1  0
 29 30  1  0
 21 31  2  0
 10  5  1  0
 31 16  1  0
 15  7  1  0
 30 25  1  0
  6 32  1  0
  9 33  1  0
 12 34  1  0
 12 35  1  0
 13 36  1  0
 13 37  1  0
 14 38  1  0
 14 39  1  0
 15 40  1  0
 15 41  1  0
 17 42  1  0
 18 43  1  0
 26 44  1  0
 26 45  1  0
 27 46  1  0
 27 47  1  0
 29 48  1  0
 29 49  1  0
 30 50  1  0
 30 51  1  0
 31 52  1  0
M  CHG  3   4  -1  11  -1  20  -1
M  END
>  <UniqueID>  (42) 
41

>  <SMILES>  (42) 
O=S(=O)([N-]c1cc2c(cc1[O-])CCCC2)c1ccc([O-])c(S(=O)(=O)N2CCOCC2)c1

>  <Energy>  (42) 
64.68691389259983

>  <Genealogy>  (42) 
O=S(=O)([N-]c1cc2c(cc1[O-])CCCC2)c1ccc([O-])c(S(=O)(=O)N2CCOCC2)c1 (protonated)
O=S(=O)([N-]c1cc2c(cc1[O-])CCCC2)c1ccc([O-])c(S(=O)(=O)N2CCOCC2)c1 (3D coordinates assigned)
O=S(=O)([N-]c1cc2c(cc1[O-])CCCC2)c1ccc([O-])c(S(=O)(=O)N2CCOCC2)c1 (nonaromatic ring conformer: 64.68691389259983 kcal/mol)

>  <smiles>  (42) 
O=S(=O)(Nc1cc2c(cc1O)CCCC2)c1ccc(O)c(S(=O)(=O)N2CCOCC2)c1

>  <score_type>  (42) 
oracle

>  <origin>  (42) 
adgpu

>  <m_score__min__energy>  (42) 
-14.35

>  <m_primary>  (42) 
energy

$$$$
42:0
     RDKit          3D

 39 42  0  0  0  0  0  0  0  0999 V2000
   -9.5800   19.3230  -33.0450 N   0  0  0  0  0  0  0  0  0  0  0  0
   -8.4210   19.9690  -32.5140 C   0  0  0  0  0  0  0  0  0  0  0  0
   -7.2810   19.2070  -32.1700 C   0  0  0  0  0  0  0  0  0  0  0  0
   -6.1370   19.8320  -31.6470 C   0  0  0  0  0  0  0  0  0  0  0  0
   -6.1610   21.2150  -31.4790 C   0  0  0  0  0  0  0  0  0  0  0  0
   -7.2680   21.9710  -31.8150 C   0  0  0  0  0  0  0  0  0  0  0  0
   -8.4130   21.3670  -32.3340 C   0  0  0  0  0  0  0  0  0  0  0  0
   -7.0400   23.4310  -31.5490 C   0  0  0  0  0  0  0  0  0  0  0  0
   -5.6360   23.3960  -31.0160 C   0  0  0  0  0  0  0  0  0  0  0  0
   -4.8590   24.4710  -30.5900 C   0  0  0  0  0  0  0  0  0  0  0  0
   -3.5550   24.2240  -30.1270 C   0  0  0  0  0  0  0  0  0  0  0  0
   -2.7750   25.2970  -29.7090 O   0  0  0  0  0  0  0  0  0  0  0  0
   -3.0370   22.9020  -30.0930 C   0  0  0  0  0  0  0  0  0  0  0  0
   -1.6930   22.6760  -29.6260 N   0  0  0  0  0  0  0  0  0  0  0  0
   -0.9450   21.1100  -29.5750 S   0  0  0  0  0  0  0  0  0  0  0  0
    0.5370   21.2780  -29.3920 O   0  0  0  0  0  0  0  0  0  0  0  0
   -1.1990   20.3950  -30.8720 O   0  0  0  0  0  0  0  0  0  0  0  0
   -1.6350   20.1600  -28.2620 C   0  0  0  0  0  0  0  0  0  0  0  0
   -2.9070   20.4520  -27.7550 C   0  0  0  0  0  0  0  0  0  0  0  0
   -3.4420   19.6680  -26.7300 C   0  0  0  0  0  0  0  0  0  0  0  0
   -2.6960   18.6030  -26.2220 C   0  0  0  0  0  0  0  0  0  0  0  0
   -1.4610   18.3370  -26.7240 N   0  0  0  0  0  0  0  0  0  0  0  0
   -0.9190   19.0840  -27.7220 C   0  0  0  0  0  0  0  0  0  0  0  0
   -3.8540   21.8300  -30.5190 C   0  0  0  0  0  0  0  0  0  0  0  0
   -5.1390   22.1100  -30.9780 C   0  0  0  0  0  0  0  0  0  0  0  0
  -10.2530   18.8300  -32.4160 H   0  0  0  0  0  0  0  0  0  0  0  0
   -9.7740   19.3310  -34.0720 H   0  0  0  0  0  0  0  0  0  0  0  0
   -7.2900   18.1164  -32.3130 H   0  0  0  0  0  0  0  0  0  0  0  0
   -5.2463   19.2456  -31.3774 H   0  0  0  0  0  0  0  0  0  0  0  0
   -9.2938   21.9707  -32.5981 H   0  0  0  0  0  0  0  0  0  0  0  0
   -7.1098   24.0275  -32.4706 H   0  0  0  0  0  0  0  0  0  0  0  0
   -7.7750   23.8943  -30.8744 H   0  0  0  0  0  0  0  0  0  0  0  0
   -5.2590   25.4954  -30.6155 H   0  0  0  0  0  0  0  0  0  0  0  0
   -1.0870   23.4910  -29.3830 H   0  0  0  0  0  0  0  0  0  0  0  0
   -3.4831   21.2959  -28.1624 H   0  0  0  0  0  0  0  0  0  0  0  0
   -4.4416   19.8878  -26.3270 H   0  0  0  0  0  0  0  0  0  0  0  0
   -3.1077   17.9788  -25.4152 H   0  0  0  0  0  0  0  0  0  0  0  0
    0.0832   18.8432  -28.1061 H   0  0  0  0  0  0  0  0  0  0  0  0
   -3.4824   20.7951  -30.4886 H   0  0  0  0  0  0  0  0  0  0  0  0
  1  2  1  0
  2  3  2  0
  3  4  1  0
  4  5  2  0
  5  6  1  0
  6  7  2  0
  6  8  1  0
  8  9  1  0
  9 10  2  0
 10 11  1  0
 11 12  1  0
 11 13  2  0
 13 14  1  0
 14 15  1  0
 15 16  2  0
 15 17  2  0
 15 18  1  0
 18 19  2  0
 19 20  1  0
 20 21  2  0
 21 22  1  0
 22 23  2  0
 13 24  1  0
 24 25  2  0
  7  2  1  0
 25  9  1  0
 25  5  1  0
 23 18  1  0
  1 26  1  0
  1 27  1  0
  3 28  1  0
  4 29  1  0
  7 30  1  0
  8 31  1  0
  8 32  1  0
 10 33  1  0
 14 34  1  0
 19 35  1  0
 20 36  1  0
 21 37  1  0
 23 38  1  0
 24 39  1  0
M  CHG  1  12  -1
M  END
>  <UniqueID>  (43) 
42

>  <SMILES>  (43) 
Nc1ccc2c(c1)Cc1cc([O-])c(NS(=O)(=O)c3cccnc3)cc1-2

>  <Energy>  (43) 
68.47655980231525

>  <Genealogy>  (43) 
Nc1ccc2c(c1)Cc1cc([O-])c(NS(=O)(=O)c3cccnc3)cc1-2 (protonated)
Nc1ccc2c(c1)Cc1cc([O-])c(NS(=O)(=O)c3cccnc3)cc1-2 (3D coordinates assigned)
Nc1ccc2c(c1)Cc1cc([O-])c(NS(=O)(=O)c3cccnc3)cc1-2 (nonaromatic ring conformer: 68.47655980231525 kcal/mol)

>  <smiles>  (43) 
Nc1ccc2c(c1)Cc1cc(O)c(NS(=O)(=O)c3cccnc3)cc1-2

>  <score_type>  (43) 
oracle

>  <origin>  (43) 
adgpu

>  <m_score__min__energy>  (43) 
-12.039999999999999

>  <m_primary>  (43) 
energy

$$$$
43:0
     RDKit          3D

 42 44  0  0  0  0  0  0  0  0999 V2000
   -3.3690   21.4810  -28.9630 O   0  0  0  0  0  0  0  0  0  0  0  0
   -3.1000   22.4850  -29.6780 C   0  0  0  0  0  0  0  0  0  0  0  0
   -3.7020   22.6220  -30.9750 N   0  0  0  0  0  0  0  0  0  0  0  0
   -4.2690   21.5290  -31.7160 C   0  0  0  0  0  0  0  0  0  0  0  0
   -3.5040   20.3730  -31.9310 C   0  0  0  0  0  0  0  0  0  0  0  0
   -4.0400   19.2870  -32.6290 C   0  0  0  0  0  0  0  0  0  0  0  0
   -5.3560   19.3350  -33.1050 C   0  0  0  0  0  0  0  0  0  0  0  0
   -6.0210   17.9580  -33.9790 S   0  0  0  0  0  0  0  0  0  0  0  0
   -6.0730   18.2990  -35.4420 O   0  0  0  0  0  0  0  0  0  0  0  0
   -7.4150   17.6650  -33.4910 O   0  0  0  0  0  0  0  0  0  0  0  0
   -5.0070   16.5600  -33.7300 N   0  0  0  0  0  0  0  0  0  0  0  0
   -5.8070   15.3300  -33.8500 C   0  0  0  0  0  0  0  0  0  0  0  0
   -4.9790   14.1080  -33.4080 C   0  0  0  0  0  0  0  0  0  0  0  0
   -3.4650   14.3430  -33.5450 C   0  0  0  0  0  0  0  0  0  0  0  0
   -3.1520   15.2130  -34.7650 C   0  0  0  0  0  0  0  0  0  0  0  0
   -3.8980   16.5660  -34.7080 C   0  0  0  0  0  0  0  0  0  0  0  0
   -6.1320   20.4800  -32.8790 C   0  0  0  0  0  0  0  0  0  0  0  0
   -5.5960   21.5670  -32.1830 C   0  0  0  0  0  0  0  0  0  0  0  0
   -2.2090   23.5470  -29.1440 C   0  0  0  0  0  0  0  0  0  0  0  0
   -2.4340   24.9050  -29.4390 C   0  0  0  0  0  0  0  0  0  0  0  0
   -3.4830   25.2950  -30.2640 O   0  0  0  0  0  0  0  0  0  0  0  0
   -1.6060   25.8560  -28.9350 N   0  0  0  0  0  0  0  0  0  0  0  0
   -0.5490   25.5260  -28.1540 C   0  0  0  0  0  0  0  0  0  0  0  0
    0.2030   26.4270  -27.6990 O   0  0  0  0  0  0  0  0  0  0  0  0
   -0.3000   24.2250  -27.8630 N   0  0  0  0  0  0  0  0  0  0  0  0
   -1.0970   23.2330  -28.3370 C   0  0  0  0  0  0  0  0  0  0  0  0
   -0.8360   22.0380  -28.0320 O   0  0  0  0  0  0  0  0  0  0  0  0
   -3.8250   23.5890  -31.3550 H   0  0  0  0  0  0  0  0  0  0  0  0
   -2.4744   20.3207  -31.5474 H   0  0  0  0  0  0  0  0  0  0  0  0
   -3.4258   18.3915  -32.8050 H   0  0  0  0  0  0  0  0  0  0  0  0
   -6.6992   15.4138  -33.2120 H   0  0  0  0  0  0  0  0  0  0  0  0
   -6.1058   15.1987  -34.9005 H   0  0  0  0  0  0  0  0  0  0  0  0
   -5.2083   13.8885  -32.3548 H   0  0  0  0  0  0  0  0  0  0  0  0
   -5.2478   13.2666  -34.0636 H   0  0  0  0  0  0  0  0  0  0  0  0
   -3.0961   14.8472  -32.6397 H   0  0  0  0  0  0  0  0  0  0  0  0
   -2.9698   13.3692  -33.6733 H   0  0  0  0  0  0  0  0  0  0  0  0
   -2.0692   15.4039  -34.7985 H   0  0  0  0  0  0  0  0  0  0  0  0
   -3.4851   14.6750  -35.6648 H   0  0  0  0  0  0  0  0  0  0  0  0
   -3.1823   17.3519  -34.4250 H   0  0  0  0  0  0  0  0  0  0  0  0
   -4.3301   16.7518  -35.7024 H   0  0  0  0  0  0  0  0  0  0  0  0
   -7.1664   20.5233  -33.2507 H   0  0  0  0  0  0  0  0  0  0  0  0
   -6.2150   22.4575  -31.9991 H   0  0  0  0  0  0  0  0  0  0  0  0
  1  2  2  0
  2  3  1  0
  3  4  1  0
  4  5  2  0
  5  6  1  0
  6  7  2  0
  7  8  1  0
  8  9  2  0
  8 10  2  0
  8 11  1  0
 11 12  1  0
 12 13  1  0
 13 14  1  0
 14 15  1  0
 15 16  1  0
  7 17  1  0
 17 18  2  0
  2 19  1  0
 19 20  2  0
 20 21  1  0
 20 22  1  0
 22 23  1  0
 23 24  2  0
 23 25  1  0
 25 26  1  0
 26 27  2  0
 18  4  1  0
 26 19  1  0
 16 11  1  0
  3 28  1  0
  5 29  1  0
  6 30  1  0
 12 31  1  0
 12 32  1  0
 13 33  1  0
 13 34  1  0
 14 35  1  0
 14 36  1  0
 15 37  1  0
 15 38  1  0
 16 39  1  0
 16 40  1  0
 17 41  1  0
 18 42  1  0
M  CHG  3  21  -1  22  -1  25  -1
M  END
>  <UniqueID>  (44) 
43

>  <SMILES>  (44) 
O=C(Nc1ccc(S(=O)(=O)N2CCCCC2)cc1)c1c([O-])[n-]c(=O)[n-]c1=O

>  <Energy>  (44) 
56.125571094566844

>  <Genealogy>  (44) 
O=C(Nc1ccc(S(=O)(=O)N2CCCCC2)cc1)c1c([O-])[n-]c(=O)[n-]c1=O (protonated)
O=C(Nc1ccc(S(=O)(=O)N2CCCCC2)cc1)c1c([O-])[n-]c(=O)[n-]c1=O (3D coordinates assigned)
O=C(Nc1ccc(S(=O)(=O)N2CCCCC2)cc1)c1c([O-])[n-]c(=O)[n-]c1=O (nonaromatic ring conformer: 56.125571094566844 kcal/mol)

>  <smiles>  (44) 
O=C(Nc1ccc(S(=O)(=O)N2CCCCC2)cc1)c1c(O)[nH]c(=O)[nH]c1=O

>  <score_type>  (44) 
oracle

>  <origin>  (44) 
adgpu

>  <m_score__min__energy>  (44) 
-12.699999999999999

>  <m_primary>  (44) 
energy

$$$$
44:0
     RDKit          3D

 67 70  0  0  0  0  0  0  0  0999 V2000
   -5.7640   25.7010  -29.8870 C   0  0  0  0  0  0  0  0  0  0  0  0
   -5.8040   24.3500  -30.5520 C   0  0  0  0  0  0  0  0  0  0  0  0
   -6.9010   24.0390  -31.3730 C   0  0  0  0  0  0  0  0  0  0  0  0
   -6.9940   22.7970  -31.9970 C   0  0  0  0  0  0  0  0  0  0  0  0
   -5.9940   21.8380  -31.8060 C   0  0  0  0  0  0  0  0  0  0  0  0
   -6.1230   20.4960  -32.4270 C   0  0  0  0  0  0  0  0  0  0  0  0
   -5.1060   20.0010  -33.2790 C   0  0  0  0  0  0  0  0  0  0  0  0
   -3.8530   20.8340  -33.5290 C   0  0  0  0  0  0  0  0  0  0  0  0
   -2.6380   20.0230  -33.3100 N   0  0  0  0  0  0  0  0  0  0  0  0
   -2.4690   19.7010  -31.8790 C   0  0  0  0  0  0  0  0  0  0  0  0
   -1.0360   19.2190  -31.6040 C   0  0  0  0  0  0  0  0  0  0  0  0
   -0.0230   20.1580  -31.9430 O   0  0  0  0  0  0  0  0  0  0  0  0
   -0.4530   21.1640  -32.8480 C   0  0  0  0  0  0  0  0  0  0  0  0
   -1.4290   20.6360  -33.9130 C   0  0  0  0  0  0  0  0  0  0  0  0
   -5.2600   18.7110  -33.8460 C   0  0  0  0  0  0  0  0  0  0  0  0
   -4.2660   18.2050  -34.7540 N   0  0  0  0  0  0  0  0  0  0  0  0
   -6.3560   17.9390  -33.5330 N   0  0  0  0  0  0  0  0  0  0  0  0
   -6.4880   16.5920  -34.1230 C   0  0  0  0  0  0  0  0  0  0  0  0
   -7.3180   18.4010  -32.6680 C   0  0  0  0  0  0  0  0  0  0  0  0
   -8.2860   17.6560  -32.3430 O   0  0  0  0  0  0  0  0  0  0  0  0
   -7.2470   19.6990  -32.1360 C   0  0  0  0  0  0  0  0  0  0  0  0
   -8.3390   20.2070  -31.2190 C   0  0  0  0  0  0  0  0  0  0  0  0
   -4.8850   22.1430  -31.0090 C   0  0  0  0  0  0  0  0  0  0  0  0
   -4.7600   23.4020  -30.3960 C   0  0  0  0  0  0  0  0  0  0  0  0
   -3.3260   23.7450  -29.3990 S   0  0  0  0  0  0  0  0  0  0  0  0
   -3.0580   25.2230  -29.3800 O   0  0  0  0  0  0  0  0  0  0  0  0
   -3.6020   23.2810  -27.9970 O   0  0  0  0  0  0  0  0  0  0  0  0
   -1.8950   22.9340  -29.9750 N   0  0  0  0  0  0  0  0  0  0  0  0
   -1.5490   21.7890  -29.1150 C   0  0  0  0  0  0  0  0  0  0  0  0
   -2.7640   20.9100  -28.8470 C   0  0  0  0  0  0  0  0  0  0  0  0
   -2.4810   20.2380  -27.5160 C   0  0  0  0  0  0  0  0  0  0  0  0
   -1.6050   21.2110  -26.7340 C   0  0  0  0  0  0  0  0  0  0  0  0
   -1.0920   22.2500  -27.7310 C   0  0  0  0  0  0  0  0  0  0  0  0
   -5.7678   25.5722  -28.7946 H   0  0  0  0  0  0  0  0  0  0  0  0
   -4.8497   26.2321  -30.1904 H   0  0  0  0  0  0  0  0  0  0  0  0
   -6.6452   26.2853  -30.1904 H   0  0  0  0  0  0  0  0  0  0  0  0
   -7.6953   24.7846  -31.5247 H   0  0  0  0  0  0  0  0  0  0  0  0
   -7.8560   22.5700  -32.6415 H   0  0  0  0  0  0  0  0  0  0  0  0
   -3.8622   21.1986  -34.5668 H   0  0  0  0  0  0  0  0  0  0  0  0
   -3.8448   21.6818  -32.8282 H   0  0  0  0  0  0  0  0  0  0  0  0
   -2.6703   20.6006  -31.2788 H   0  0  0  0  0  0  0  0  0  0  0  0
   -3.1730   18.9004  -31.6078 H   0  0  0  0  0  0  0  0  0  0  0  0
   -0.9496   18.9926  -30.5310 H   0  0  0  0  0  0  0  0  0  0  0  0
   -0.8737   18.3389  -32.2435 H   0  0  0  0  0  0  0  0  0  0  0  0
   -0.9543   21.9589  -32.2763 H   0  0  0  0  0  0  0  0  0  0  0  0
    0.4383   21.5366  -33.3740 H   0  0  0  0  0  0  0  0  0  0  0  0
   -1.7392   21.4732  -34.5555 H   0  0  0  0  0  0  0  0  0  0  0  0
   -0.9090   19.8586  -34.4920 H   0  0  0  0  0  0  0  0  0  0  0  0
   -3.2510   18.4030  -34.6120 H   0  0  0  0  0  0  0  0  0  0  0  0
   -4.5160   17.5230  -35.5020 H   0  0  0  0  0  0  0  0  0  0  0  0
   -6.5612   15.8450  -33.3188 H   0  0  0  0  0  0  0  0  0  0  0  0
   -7.3944   16.5513  -34.7449 H   0  0  0  0  0  0  0  0  0  0  0  0
   -5.6067   16.3761  -34.7449 H   0  0  0  0  0  0  0  0  0  0  0  0
   -8.0339   20.0651  -30.1717 H   0  0  0  0  0  0  0  0  0  0  0  0
   -8.5095   21.2769  -31.4094 H   0  0  0  0  0  0  0  0  0  0  0  0
   -9.2672   19.6482  -31.4094 H   0  0  0  0  0  0  0  0  0  0  0  0
   -4.1000   21.3870  -30.8600 H   0  0  0  0  0  0  0  0  0  0  0  0
   -1.1190   23.6340  -29.9730 H   0  0  0  0  0  0  0  0  0  0  0  0
   -0.7568   21.2471  -29.6523 H   0  0  0  0  0  0  0  0  0  0  0  0
   -3.6764   21.5212  -28.7846 H   0  0  0  0  0  0  0  0  0  0  0  0
   -2.9280   20.1778  -29.6514 H   0  0  0  0  0  0  0  0  0  0  0  0
   -3.4202   20.0494  -26.9753 H   0  0  0  0  0  0  0  0  0  0  0  0
   -1.9833   19.2665  -27.6520 H   0  0  0  0  0  0  0  0  0  0  0  0
   -2.1956   21.7022  -25.9467 H   0  0  0  0  0  0  0  0  0  0  0  0
   -0.7690   20.6849  -26.2499 H   0  0  0  0  0  0  0  0  0  0  0  0
   -1.5159   23.2386  -27.5010 H   0  0  0  0  0  0  0  0  0  0  0  0
    0.0034   22.3386  -27.6837 H   0  0  0  0  0  0  0  0  0  0  0  0
  1  2  1  0
  2  3  2  0
  3  4  1  0
  4  5  2  0
  5  6  1  0
  6  7  1  0
  7  8  1  0
  8  9  1  0
  9 10  1  0
 10 11  1  0
 11 12  1  0
 12 13  1  0
 13 14  1  0
  7 15  2  0
 15 16  1  0
 15 17  1  0
 17 18  1  0
 17 19  1  0
 19 20  2  0
 19 21  1  0
 21 22  1  0
  5 23  1  0
 23 24  2  0
 24 25  1  0
 25 26  2  0
 25 27  2  0
 25 28  1  0
 28 29  1  0
 29 30  1  0
 30 31  1  0
 31 32  1  0
 32 33  1  0
 24  2  1  0
 33 29  1  0
 21  6  2  0
 14  9  1  0
  1 34  1  0
  1 35  1  0
  1 36  1  0
  3 37  1  0
  4 38  1  0
  8 39  1  0
  8 40  1  0
 10 41  1  0
 10 42  1  0
 11 43  1  0
 11 44  1  0
 13 45  1  0
 13 46  1  0
 14 47  1  0
 14 48  1  0
 16 49  1  0
 16 50  1  0
 18 51  1  0
 18 52  1  0
 18 53  1  0
 22 54  1  0
 22 55  1  0
 22 56  1  0
 23 57  1  0
 28 58  1  0
 29 59  1  0
 30 60  1  0
 30 61  1  0
 31 62  1  0
 31 63  1  0
 32 64  1  0
 32 65  1  0
 33 66  1  0
 33 67  1  0
M  END
>  <UniqueID>  (45) 
44

>  <SMILES>  (45) 
Cc1ccc(-c2c(CN3CCOCC3)c(N)n(C)c(=O)c2C)cc1S(=O)(=O)NC1CCCC1

>  <Energy>  (45) 
101.99432390076959

>  <Genealogy>  (45) 
Cc1ccc(-c2c(CN3CCOCC3)c(N)n(C)c(=O)c2C)cc1S(=O)(=O)NC1CCCC1 (3D coordinates assigned)
Cc1ccc(-c2c(CN3CCOCC3)c(N)n(C)c(=O)c2C)cc1S(=O)(=O)NC1CCCC1 (nonaromatic ring conformer: 101.99432390076959 kcal/mol)

>  <smiles>  (45) 
Cc1ccc(-c2c(CN3CCOCC3)c(N)n(C)c(=O)c2C)cc1S(=O)(=O)NC1CCCC1

>  <score_type>  (45) 
oracle

>  <origin>  (45) 
adgpu

>  <m_score__min__energy>  (45) 
-10.970000000000001

>  <m_primary>  (45) 
energy

$$$$
45:0
     RDKit          3D

 58 61  0  0  0  0  0  0  0  0999 V2000
   -3.7560   15.9010  -34.1950 N   0  0  0  0  0  0  0  0  0  0  0  0
   -3.0080   17.0980  -33.9490 C   0  0  0  0  0  0  0  0  0  0  0  0
   -1.6860   17.0010  -33.4890 C   0  0  0  0  0  0  0  0  0  0  0  0
   -0.9360   18.1520  -33.2440 C   0  0  0  0  0  0  0  0  0  0  0  0
   -1.4910   19.4150  -33.4710 C   0  0  0  0  0  0  0  0  0  0  0  0
   -0.5370   20.8600  -33.1500 S   0  0  0  0  0  0  0  0  0  0  0  0
    0.9250   20.5070  -33.2050 O   0  0  0  0  0  0  0  0  0  0  0  0
   -0.8170   21.9040  -34.1970 O   0  0  0  0  0  0  0  0  0  0  0  0
   -0.9320   21.4650  -31.5610 N   0  0  0  0  0  0  0  0  0  0  0  0
   -0.1940   20.7500  -30.5200 C   0  0  0  0  0  0  0  0  0  0  0  0
   -1.0510   20.7970  -29.2630 C   0  0  0  0  0  0  0  0  0  0  0  0
   -2.4440   21.1830  -29.7360 C   0  0  0  0  0  0  0  0  0  0  0  0
   -2.3460   21.2570  -31.2500 C   0  0  0  0  0  0  0  0  0  0  0  0
   -2.8130   19.5220  -33.9230 C   0  0  0  0  0  0  0  0  0  0  0  0
   -3.5880   18.3680  -34.1460 C   0  0  0  0  0  0  0  0  0  0  0  0
   -4.9350   18.4580  -34.6350 N   0  0  0  0  0  0  0  0  0  0  0  0
   -6.1330   18.0990  -33.9320 C   0  0  0  0  0  0  0  0  0  0  0  0
   -6.6420   16.9560  -34.0890 O   0  0  0  0  0  0  0  0  0  0  0  0
   -6.7970   19.0890  -33.0520 C   0  0  0  0  0  0  0  0  0  0  0  0
   -7.9700   18.7510  -32.3520 C   0  0  0  0  0  0  0  0  0  0  0  0
   -8.5900   19.6870  -31.5200 C   0  0  0  0  0  0  0  0  0  0  0  0
   -8.0530   20.9680  -31.3780 C   0  0  0  0  0  0  0  0  0  0  0  0
   -6.8890   21.3210  -32.0700 C   0  0  0  0  0  0  0  0  0  0  0  0
   -6.2070   22.9390  -31.9300 S   0  0  0  0  0  0  0  0  0  0  0  0
   -4.7970   22.9500  -32.4510 O   0  0  0  0  0  0  0  0  0  0  0  0
   -7.0390   23.8780  -32.7580 O   0  0  0  0  0  0  0  0  0  0  0  0
   -6.2400   23.4160  -30.2450 N   0  0  0  0  0  0  0  0  0  0  0  0
   -4.9960   23.0350  -29.5400 C   0  0  0  0  0  0  0  0  0  0  0  0
   -4.0100   24.2090  -29.3990 C   0  0  0  0  0  0  0  0  0  0  0  0
   -4.1260   25.0810  -30.5010 O   0  0  0  0  0  0  0  0  0  0  0  0
   -5.3690   25.7610  -30.4570 C   0  0  0  0  0  0  0  0  0  0  0  0
   -6.5610   24.8460  -30.0870 C   0  0  0  0  0  0  0  0  0  0  0  0
   -6.2640   20.3830  -32.9030 C   0  0  0  0  0  0  0  0  0  0  0  0
   -4.7640   15.9490  -34.4630 H   0  0  0  0  0  0  0  0  0  0  0  0
   -3.3190   14.9560  -34.1200 H   0  0  0  0  0  0  0  0  0  0  0  0
   -1.2377   16.0108  -33.3203 H   0  0  0  0  0  0  0  0  0  0  0  0
    0.0952   18.0653  -32.8711 H   0  0  0  0  0  0  0  0  0  0  0  0
   -0.0249   19.7066  -30.8243 H   0  0  0  0  0  0  0  0  0  0  0  0
    0.7891   21.2114  -30.3452 H   0  0  0  0  0  0  0  0  0  0  0  0
   -1.0702   19.8120  -28.7736 H   0  0  0  0  0  0  0  0  0  0  0  0
   -0.6569   21.5127  -28.5265 H   0  0  0  0  0  0  0  0  0  0  0  0
   -3.1783   20.4217  -29.4340 H   0  0  0  0  0  0  0  0  0  0  0  0
   -2.7764   22.1362  -29.2991 H   0  0  0  0  0  0  0  0  0  0  0  0
   -2.7009   20.3185  -31.7008 H   0  0  0  0  0  0  0  0  0  0  0  0
   -2.9672   22.0713  -31.6512 H   0  0  0  0  0  0  0  0  0  0  0  0
   -3.2487   20.5155  -34.1050 H   0  0  0  0  0  0  0  0  0  0  0  0
   -8.4011   17.7448  -32.4603 H   0  0  0  0  0  0  0  0  0  0  0  0
   -9.5052   19.4134  -30.9745 H   0  0  0  0  0  0  0  0  0  0  0  0
   -8.5454   21.7005  -30.7215 H   0  0  0  0  0  0  0  0  0  0  0  0
   -5.2579   22.6726  -28.5350 H   0  0  0  0  0  0  0  0  0  0  0  0
   -4.5010   22.2551  -30.1372 H   0  0  0  0  0  0  0  0  0  0  0  0
   -4.2333   24.7613  -28.4743 H   0  0  0  0  0  0  0  0  0  0  0  0
   -2.9846   23.8125  -29.3631 H   0  0  0  0  0  0  0  0  0  0  0  0
   -5.3005   26.5634  -29.7077 H   0  0  0  0  0  0  0  0  0  0  0  0
   -5.5611   26.1493  -31.4681 H   0  0  0  0  0  0  0  0  0  0  0  0
   -6.8378   25.0325  -29.0389 H   0  0  0  0  0  0  0  0  0  0  0  0
   -7.3903   25.0817  -30.7701 H   0  0  0  0  0  0  0  0  0  0  0  0
   -5.3483   20.6608  -33.4454 H   0  0  0  0  0  0  0  0  0  0  0  0
  1  2  1  0
  2  3  2  0
  3  4  1  0
  4  5  2  0
  5  6  1  0
  6  7  2  0
  6  8  2  0
  6  9  1  0
  9 10  1  0
 10 11  1  0
 11 12  1  0
 12 13  1  0
  5 14  1  0
 14 15  2  0
 15 16  1  0
 16 17  1  0
 17 18  2  0
 17 19  1  0
 19 20  2  0
 20 21  1  0
 21 22  2  0
 22 23  1  0
 23 24  1  0
 24 25  2  0
 24 26  2  0
 24 27  1  0
 27 28  1  0
 28 29  1  0
 29 30  1  0
 30 31  1  0
 31 32  1  0
 23 33  2  0
 15  2  1  0
 33 19  1  0
 13  9  1  0
 32 27  1  0
  1 34  1  0
  1 35  1  0
  3 36  1  0
  4 37  1  0
 10 38  1  0
 10 39  1  0
 11 40  1  0
 11 41  1  0
 12 42  1  0
 12 43  1  0
 13 44  1  0
 13 45  1  0
 14 46  1  0
 20 47  1  0
 21 48  1  0
 22 49  1  0
 28 50  1  0
 28 51  1  0
 29 52  1  0
 29 53  1  0
 31 54  1  0
 31 55  1  0
 32 56  1  0
 32 57  1  0
 33 58  1  0
M  CHG  1  16  -1
M  END
>  <UniqueID>  (46) 
45

>  <SMILES>  (46) 
Nc1ccc(S(=O)(=O)N2CCCC2)cc1[N-]C(=O)c1cccc(S(=O)(=O)N2CCOCC2)c1

>  <Energy>  (46) 
75.38615038131962

>  <Genealogy>  (46) 
Nc1ccc(S(=O)(=O)N2CCCC2)cc1[N-]C(=O)c1cccc(S(=O)(=O)N2CCOCC2)c1 (protonated)
Nc1ccc(S(=O)(=O)N2CCCC2)cc1[N-]C(=O)c1cccc(S(=O)(=O)N2CCOCC2)c1 (3D coordinates assigned)
Nc1ccc(S(=O)(=O)N2CCCC2)cc1[N-]C(=O)c1cccc(S(=O)(=O)N2CCOCC2)c1 (nonaromatic ring conformer: 75.38615038131962 kcal/mol)

>  <smiles>  (46) 
Nc1ccc(S(=O)(=O)N2CCCC2)cc1NC(=O)c1cccc(S(=O)(=O)N2CCOCC2)c1

>  <score_type>  (46) 
oracle

>  <origin>  (46) 
adgpu

>  <m_score__min__energy>  (46) 
-11.67

>  <m_primary>  (46) 
energy

$$$$
46:0
     RDKit          3D

 52 54  0  0  0  0  0  0  0  0999 V2000
   -0.1000   27.1790  -23.1950 C   0  0  0  0  0  0  0  0  0  0  0  0
   -0.6540   26.1340  -24.1080 C   0  0  0  0  0  0  0  0  0  0  0  0
   -0.1520   24.9770  -24.0960 O   0  0  0  0  0  0  0  0  0  0  0  0
   -1.8040   26.4270  -24.9130 N   0  0  0  0  0  0  0  0  0  0  0  0
   -2.2920   25.5830  -25.9720 C   0  0  0  0  0  0  0  0  0  0  0  0
   -3.6500   25.2280  -26.0630 C   0  0  0  0  0  0  0  0  0  0  0  0
   -4.0900   24.3810  -27.0860 C   0  0  0  0  0  0  0  0  0  0  0  0
   -3.1900   23.8770  -28.0320 C   0  0  0  0  0  0  0  0  0  0  0  0
   -3.6810   22.9910  -29.0480 N   0  0  0  0  0  0  0  0  0  0  0  0
   -3.7680   23.2680  -30.4520 C   0  0  0  0  0  0  0  0  0  0  0  0
   -2.7380   23.2370  -31.1770 O   0  0  0  0  0  0  0  0  0  0  0  0
   -5.0640   23.6610  -31.0330 C   0  0  0  0  0  0  0  0  0  0  0  0
   -5.3320   24.8840  -31.1760 O   0  0  0  0  0  0  0  0  0  0  0  0
   -6.0620   22.6460  -31.4500 C   0  0  0  0  0  0  0  0  0  0  0  0
   -5.8140   21.7780  -32.5330 C   0  0  0  0  0  0  0  0  0  0  0  0
   -4.5300   21.8170  -33.1850 N   0  0  0  0  0  0  0  0  0  0  0  0
   -6.7790   20.8730  -32.9190 N   0  0  0  0  0  0  0  0  0  0  0  0
   -6.5160   19.9120  -34.0160 C   0  0  0  0  0  0  0  0  0  0  0  0
   -6.1390   18.5560  -33.4740 C   0  0  0  0  0  0  0  0  0  0  0  0
   -6.2070   18.2930  -32.0950 C   0  0  0  0  0  0  0  0  0  0  0  0
   -5.8390   17.0390  -31.5980 C   0  0  0  0  0  0  0  0  0  0  0  0
   -5.3900   16.0430  -32.4670 C   0  0  0  0  0  0  0  0  0  0  0  0
   -5.3050   16.3000  -33.8370 C   0  0  0  0  0  0  0  0  0  0  0  0
   -5.6760   17.5500  -34.3410 C   0  0  0  0  0  0  0  0  0  0  0  0
   -7.9780   20.8180  -32.2450 C   0  0  0  0  0  0  0  0  0  0  0  0
   -8.8450   19.9570  -32.5720 O   0  0  0  0  0  0  0  0  0  0  0  0
   -8.2470   21.6790  -31.2120 N   0  0  0  0  0  0  0  0  0  0  0  0
   -9.5340   21.5870  -30.4980 C   0  0  0  0  0  0  0  0  0  0  0  0
   -7.2980   22.5720  -30.7990 C   0  0  0  0  0  0  0  0  0  0  0  0
   -7.5380   23.3500  -29.8320 O   0  0  0  0  0  0  0  0  0  0  0  0
   -1.8240   24.1940  -27.9150 C   0  0  0  0  0  0  0  0  0  0  0  0
   -1.3830   25.0380  -26.8910 C   0  0  0  0  0  0  0  0  0  0  0  0
   -0.2609   26.8755  -22.1500 H   0  0  0  0  0  0  0  0  0  0  0  0
    0.9779   27.2947  -23.3814 H   0  0  0  0  0  0  0  0  0  0  0  0
   -0.6092   28.1361  -23.3814 H   0  0  0  0  0  0  0  0  0  0  0  0
   -2.3640   27.2730  -24.6640 H   0  0  0  0  0  0  0  0  0  0  0  0
   -4.3688   25.6177  -25.3271 H   0  0  0  0  0  0  0  0  0  0  0  0
   -5.1539   24.1085  -27.1474 H   0  0  0  0  0  0  0  0  0  0  0  0
   -4.4160   21.7440  -34.2170 H   0  0  0  0  0  0  0  0  0  0  0  0
   -3.6450   21.9300  -32.6400 H   0  0  0  0  0  0  0  0  0  0  0  0
   -7.4223   19.8132  -34.6315 H   0  0  0  0  0  0  0  0  0  0  0  0
   -5.6777   20.2918  -34.6185 H   0  0  0  0  0  0  0  0  0  0  0  0
   -6.5511   19.0767  -31.4041 H   0  0  0  0  0  0  0  0  0  0  0  0
   -5.9035   16.8366  -30.5187 H   0  0  0  0  0  0  0  0  0  0  0  0
   -5.1034   15.0568  -32.0730 H   0  0  0  0  0  0  0  0  0  0  0  0
   -4.9454   15.5172  -34.5210 H   0  0  0  0  0  0  0  0  0  0  0  0
   -5.6055   17.7477  -35.4208 H   0  0  0  0  0  0  0  0  0  0  0  0
   -9.3531   21.5999  -29.4130 H   0  0  0  0  0  0  0  0  0  0  0  0
  -10.1685   22.4421  -30.7742 H   0  0  0  0  0  0  0  0  0  0  0  0
  -10.0404   20.6504  -30.7742 H   0  0  0  0  0  0  0  0  0  0  0  0
   -1.1009   23.7766  -28.6312 H   0  0  0  0  0  0  0  0  0  0  0  0
   -0.3127   25.2769  -26.8053 H   0  0  0  0  0  0  0  0  0  0  0  0
  1  2  1  0
  2  3  2  0
  2  4  1  0
  4  5  1  0
  5  6  2  0
  6  7  1  0
  7  8  2  0
  8  9  1  0
  9 10  1  0
 10 11  2  0
 10 12  1  0
 12 13  2  0
 12 14  1  0
 14 15  2  0
 15 16  1  0
 15 17  1  0
 17 18  1  0
 18 19  1  0
 19 20  2  0
 20 21  1  0
 21 22  2  0
 22 23  1  0
 23 24  2  0
 17 25  1  0
 25 26  2  0
 25 27  1  0
 27 28  1  0
 27 29  1  0
 29 30  2  0
  8 31  1  0
 31 32  2  0
 32  5  1  0
 29 14  1  0
 24 19  1  0
  1 33  1  0
  1 34  1  0
  1 35  1  0
  4 36  1  0
  6 37  1  0
  7 38  1  0
 16 39  1  0
 16 40  1  0
 18 41  1  0
 18 42  1  0
 20 43  1  0
 21 44  1  0
 22 45  1  0
 23 46  1  0
 24 47  1  0
 28 48  1  0
 28 49  1  0
 28 50  1  0
 31 51  1  0
 32 52  1  0
M  CHG  1   9  -1
M  END
>  <UniqueID>  (47) 
46

>  <SMILES>  (47) 
CC(=O)Nc1ccc([N-]C(=O)C(=O)c2c(N)n(Cc3ccccc3)c(=O)n(C)c2=O)cc1

>  <Energy>  (47) 
77.13674027788933

>  <Genealogy>  (47) 
CC(=O)Nc1ccc([N-]C(=O)C(=O)c2c(N)n(Cc3ccccc3)c(=O)n(C)c2=O)cc1 (protonated)
CC(=O)Nc1ccc([N-]C(=O)C(=O)c2c(N)n(Cc3ccccc3)c(=O)n(C)c2=O)cc1 (3D coordinates assigned)
CC(=O)Nc1ccc([N-]C(=O)C(=O)c2c(N)n(Cc3ccccc3)c(=O)n(C)c2=O)cc1 (optimized conformer: 77.13674027788933 kcal/mol)

>  <smiles>  (47) 
CC(=O)Nc1ccc(NC(=O)C(=O)c2c(N)n(Cc3ccccc3)c(=O)n(C)c2=O)cc1

>  <score_type>  (47) 
oracle

>  <origin>  (47) 
adgpu

>  <m_score__min__energy>  (47) 
-10.49

>  <m_primary>  (47) 
energy

$$$$
