0:0
     RDKit          3D

 55 58  0  0  0  0  0  0  0  0999 V2000
   -7.3127   23.7184  -30.3740 H   0  0  0  0  0  0  0  0  0  0  0  0
   -6.4540   23.3810  -30.9730 C   0  0  0  0  0  0  0  0  0  0  0  0
   -5.2180   23.9770  -31.0950 C   0  0  0  0  0  0  0  0  0  0  0  0
   -4.7870   25.2080  -30.4250 C   0  0  0  0  0  0  0  0  0  0  0  0
   -5.5800   26.1860  -30.3440 O   0  0  0  0  0  0  0  0  0  0  0  0
   -3.4950   25.2880  -29.8930 O   0  0  0  0  0  0  0  0  0  0  0  0
   -2.9390   24.3020  -29.0260 C   0  0  0  0  0  0  0  0  0  0  0  0
   -1.9219   24.6062  -28.7380 H   0  0  0  0  0  0  0  0  0  0  0  0
   -2.9125   23.3384  -29.5559 H   0  0  0  0  0  0  0  0  0  0  0  0
   -3.7910   24.1490  -27.7700 C   0  0  0  0  0  0  0  0  0  0  0  0
   -3.1553   24.2632  -26.8796 H   0  0  0  0  0  0  0  0  0  0  0  0
   -4.5748   24.9208  -27.7624 H   0  0  0  0  0  0  0  0  0  0  0  0
   -4.2573   23.1528  -27.7624 H   0  0  0  0  0  0  0  0  0  0  0  0
   -4.4400   23.2560  -31.9220 N   0  0  0  0  0  0  0  0  0  0  0  0
   -5.1370   22.2100  -32.3380 N   0  0  0  0  0  0  0  0  0  0  0  0
   -6.3650   22.2590  -31.7790 C   0  0  0  0  0  0  0  0  0  0  0  0
   -7.4270   21.2490  -32.0140 C   0  0  0  0  0  0  0  0  0  0  0  0
   -7.0910   19.8970  -32.2240 C   0  0  0  0  0  0  0  0  0  0  0  0
   -6.0351   19.5894  -32.2012 H   0  0  0  0  0  0  0  0  0  0  0  0
   -8.0880   18.9380  -32.4620 C   0  0  0  0  0  0  0  0  0  0  0  0
   -7.7590   17.5540  -32.6350 N   0  0  0  0  0  0  0  0  0  0  0  0
   -6.8520   17.0260  -33.6120 C   0  0  0  0  0  0  0  0  0  0  0  0
   -7.1350   15.9390  -34.1790 O   0  0  0  0  0  0  0  0  0  0  0  0
   -5.6520   17.8040  -34.0750 C   0  0  0  0  0  0  0  0  0  0  0  0
   -5.5962   17.7670  -35.1730 H   0  0  0  0  0  0  0  0  0  0  0  0
   -5.7486   18.8471  -33.7394 H   0  0  0  0  0  0  0  0  0  0  0  0
   -4.1280   17.0890  -33.3690 S   0  0  0  0  0  0  0  0  0  0  0  0
   -3.2770   18.6580  -33.2320 C   0  0  0  0  0  0  0  0  0  0  0  0
   -3.7070   19.6740  -32.4520 N   0  0  0  0  0  0  0  0  0  0  0  0
   -2.9100   20.7400  -32.5050 N   0  0  0  0  0  0  0  0  0  0  0  0
   -3.1070   21.6100  -31.9600 H   0  0  0  0  0  0  0  0  0  0  0  0
   -1.8430   20.5810  -33.3160 C   0  0  0  0  0  0  0  0  0  0  0  0
   -0.9740   21.5290  -33.5170 N   0  0  0  0  0  0  0  0  0  0  0  0
    0.2150   21.4440  -34.3180 C   0  0  0  0  0  0  0  0  0  0  0  0
    0.2770   22.0340  -35.5930 C   0  0  0  0  0  0  0  0  0  0  0  0
   -0.5822   22.6055  -35.9739 H   0  0  0  0  0  0  0  0  0  0  0  0
    1.4240   21.8980  -36.3780 C   0  0  0  0  0  0  0  0  0  0  0  0
    1.4717   22.3754  -37.3679 H   0  0  0  0  0  0  0  0  0  0  0  0
    2.5090   21.1580  -35.9090 C   0  0  0  0  0  0  0  0  0  0  0  0
    3.4147   21.0600  -36.5255 H   0  0  0  0  0  0  0  0  0  0  0  0
    2.4470   20.5410  -34.6570 C   0  0  0  0  0  0  0  0  0  0  0  0
    3.3032   19.9540  -34.2932 H   0  0  0  0  0  0  0  0  0  0  0  0
    1.2930   20.6670  -33.8580 C   0  0  0  0  0  0  0  0  0  0  0  0
    1.1830   20.0420  -32.6060 O   0  0  0  0  0  0  0  0  0  0  0  0
    1.1390   18.6330  -32.4070 C   0  0  0  0  0  0  0  0  0  0  0  0
    1.1322   18.4150  -31.3288 H   0  0  0  0  0  0  0  0  0  0  0  0
    0.2277   18.2257  -32.8692 H   0  0  0  0  0  0  0  0  0  0  0  0
    2.0231   18.1696  -32.8692 H   0  0  0  0  0  0  0  0  0  0  0  0
   -1.8600   19.0590  -34.0530 S   0  0  0  0  0  0  0  0  0  0  0  0
   -9.4320   19.3190  -32.4370 C   0  0  0  0  0  0  0  0  0  0  0  0
  -10.2185   18.5643  -32.5849 H   0  0  0  0  0  0  0  0  0  0  0  0
   -9.7800   20.6540  -32.2250 C   0  0  0  0  0  0  0  0  0  0  0  0
  -10.8396   20.9494  -32.2207 H   0  0  0  0  0  0  0  0  0  0  0  0
   -8.7880   21.6180  -32.0180 C   0  0  0  0  0  0  0  0  0  0  0  0
   -9.1650   22.9070  -31.8260 F   0  0  0  0  0  0  0  0  0  0  0  0
  1  2  1  0
  2  3  1  0
  3  4  1  0
  4  5  2  0
  4  6  1  0
  6  7  1  0
  7  8  1  0
  7  9  1  0
  7 10  1  0
 10 11  1  0
 10 12  1  0
 10 13  1  0
  3 14  2  0
 14 15  1  0
 15 16  1  0
 16 17  1  0
 17 18  2  0
 18 19  1  0
 18 20  1  0
 20 21  1  0
 21 22  1  0
 22 23  2  0
 22 24  1  0
 24 25  1  0
 24 26  1  0
 24 27  1  0
 27 28  1  0
 28 29  2  0
 29 30  1  0
 30 31  1  0
 30 32  1  0
 32 33  2  0
 33 34  1  0
 34 35  2  0
 35 36  1  0
 35 37  1  0
 37 38  1  0
 37 39  2  0
 39 40  1  0
 39 41  1  0
 41 42  1  0
 41 43  2  0
 43 44  1  0
 44 45  1  0
 45 46  1  0
 45 47  1  0
 45 48  1  0
 32 49  1  0
 20 50  2  0
 50 51  1  0
 50 52  1  0
 52 53  1  0
 52 54  2  0
 54 55  1  0
 16  2  2  0
 54 17  1  0
 49 28  1  0
 43 34  1  0
M  CHG  2  15  -1  21  -1
M  END
>  <UniqueID>  (1) 
1

>  <SMILES>  (1) 
CCOC(=O)c1cc(-c2cc([N-]C(=O)CSc3n[nH]/c(=N/c4ccccc4OC)s3)ccc2F)[n-]n1

>  <Energy>  (1) 
128.23441463260437

>  <Genealogy>  (1) 
CCOC(=O)c1cc(-c2cc([N-]C(=O)CSc3n[nH]c(=Nc4ccccc4OC)s3)ccc2F)[n-]n1 (protonated)
CCOC(=O)c1cc(-c2cc([N-]C(=O)CSc3n[nH]/c(=N/c4ccccc4OC)s3)ccc2F)[n-]n1 (cis-trans isomerization)
CCOC(=O)c1cc(-c2cc([N-]C(=O)CSc3n[nH]/c(=N/c4ccccc4OC)s3)ccc2F)[n-]n1 (3D coordinates assigned)
CCOC(=O)c1cc(-c2cc([N-]C(=O)CSc3n[nH]/c(=N/c4ccccc4OC)s3)ccc2F)[n-]n1 (optimized conformer: 128.23441463260437 kcal/mol)

>  <smiles>  (1) 
CCOC(=O)c1cc(-c2cc(NC(=O)CSc3n[nH]c(=Nc4ccccc4OC)s3)ccc2F)[nH]n1

>  <score_type>  (1) 
oracle

>  <origin>  (1) 
adgpu

>  <m_score__min__energy>  (1) 
-10.779999999999999

>  <m_primary>  (1) 
energy

$$$$
1:0
     RDKit          3D

 42 45  0  0  0  0  0  0  0  0999 V2000
   -4.1840   16.8450  -35.4150 O   0  0  0  0  0  0  0  0  0  0  0  0
   -3.7810   17.7750  -34.6700 C   0  0  0  0  0  0  0  0  0  0  0  0
   -2.5640   17.7500  -34.0690 N   0  0  0  0  0  0  0  0  0  0  0  0
   -2.5620   18.9100  -33.3940 C   0  0  0  0  0  0  0  0  0  0  0  0
   -1.5560   19.4170  -32.5780 C   0  0  0  0  0  0  0  0  0  0  0  0
   -1.7790   20.6600  -31.9590 C   0  0  0  0  0  0  0  0  0  0  0  0
   -2.9860   21.3720  -32.1760 C   0  0  0  0  0  0  0  0  0  0  0  0
   -3.1890   22.6310  -31.5090 N   0  0  0  0  0  0  0  0  0  0  0  0
   -4.4790   23.2160  -31.2690 C   0  0  0  0  0  0  0  0  0  0  0  0
   -5.6300   22.4470  -31.4860 C   0  0  0  0  0  0  0  0  0  0  0  0
   -6.9020   22.9880  -31.2540 C   0  0  0  0  0  0  0  0  0  0  0  0
   -8.3350   22.0130  -31.5780 S   0  0  0  0  0  0  0  0  0  0  0  0
   -9.4160   22.8690  -32.1780 O   0  0  0  0  0  0  0  0  0  0  0  0
   -8.8330   21.4520  -30.2750 O   0  0  0  0  0  0  0  0  0  0  0  0
   -7.9260   20.7060  -32.6680 N   0  0  0  0  0  0  0  0  0  0  0  0
   -9.1020   19.8800  -32.9720 C   0  0  0  0  0  0  0  0  0  0  0  0
   -9.1180   18.7200  -31.9860 C   0  0  0  0  0  0  0  0  0  0  0  0
   -7.7200   18.6640  -31.3950 C   0  0  0  0  0  0  0  0  0  0  0  0
   -6.9480   19.7970  -32.0570 C   0  0  0  0  0  0  0  0  0  0  0  0
   -7.0210   24.3040  -30.7890 C   0  0  0  0  0  0  0  0  0  0  0  0
   -5.8780   25.0670  -30.5420 C   0  0  0  0  0  0  0  0  0  0  0  0
   -4.6080   24.5260  -30.7670 C   0  0  0  0  0  0  0  0  0  0  0  0
   -3.4820   25.2880  -30.4720 O   0  0  0  0  0  0  0  0  0  0  0  0
   -3.9900   20.8100  -33.0020 C   0  0  0  0  0  0  0  0  0  0  0  0
   -3.7320   19.5770  -33.5960 C   0  0  0  0  0  0  0  0  0  0  0  0
   -4.5340   18.8750  -34.4090 N   0  0  0  0  0  0  0  0  0  0  0  0
   -0.6177   18.8644  -32.4221 H   0  0  0  0  0  0  0  0  0  0  0  0
   -1.0083   21.0848  -31.2990 H   0  0  0  0  0  0  0  0  0  0  0  0
   -2.3550   23.1110  -31.1030 H   0  0  0  0  0  0  0  0  0  0  0  0
   -5.5346   21.4103  -31.8413 H   0  0  0  0  0  0  0  0  0  0  0  0
   -7.5360   21.1190  -33.5470 H   0  0  0  0  0  0  0  0  0  0  0  0
  -10.0187   20.4780  -32.8623 H   0  0  0  0  0  0  0  0  0  0  0  0
   -9.0551   19.5072  -34.0059 H   0  0  0  0  0  0  0  0  0  0  0  0
   -9.8618   18.8987  -31.1955 H   0  0  0  0  0  0  0  0  0  0  0  0
   -9.3897   17.7737  -32.4766 H   0  0  0  0  0  0  0  0  0  0  0  0
   -7.7579   18.8108  -30.3055 H   0  0  0  0  0  0  0  0  0  0  0  0
   -7.2426   17.6890  -31.5725 H   0  0  0  0  0  0  0  0  0  0  0  0
   -6.3547   20.3363  -31.3039 H   0  0  0  0  0  0  0  0  0  0  0  0
   -6.2610   19.4012  -32.8195 H   0  0  0  0  0  0  0  0  0  0  0  0
   -8.0174   24.7374  -30.6180 H   0  0  0  0  0  0  0  0  0  0  0  0
   -5.9767   26.0972  -30.1692 H   0  0  0  0  0  0  0  0  0  0  0  0
   -4.9441   21.3313  -33.1692 H   0  0  0  0  0  0  0  0  0  0  0  0
  1  2  2  0
  2  3  1  0
  3  4  1  0
  4  5  2  0
  5  6  1  0
  6  7  2  0
  7  8  1  0
  8  9  1  0
  9 10  2  0
 10 11  1  0
 11 12  1  0
 12 13  2  0
 12 14  2  0
 12 15  1  0
 15 16  1  0
 16 17  1  0
 17 18  1  0
 18 19  1  0
 11 20  2  0
 20 21  1  0
 21 22  2  0
 22 23  1  0
  7 24  1  0
 24 25  2  0
 25 26  1  0
 26  2  1  0
 25  4  1  0
 22  9  1  0
 19 15  1  0
  5 27  1  0
  6 28  1  0
  8 29  1  0
 10 30  1  0
 15 31  1  0
 16 32  1  0
 16 33  1  0
 17 34  1  0
 17 35  1  0
 18 36  1  0
 18 37  1  0
 19 38  1  0
 19 39  1  0
 20 40  1  0
 21 41  1  0
 24 42  1  0
M  CHG  4   3  -1  15   1  23  -1  26  -1
M  END
>  <UniqueID>  (2) 
2

>  <SMILES>  (2) 
O=c1[n-]c2ccc(Nc3cc(S(=O)(=O)[NH+]4CCCC4)ccc3[O-])cc2[n-]1

>  <Energy>  (2) 
88.4492682638128

>  <Genealogy>  (2) 
O=c1[n-]c2ccc(Nc3cc(S(=O)(=O)[NH+]4CCCC4)ccc3[O-])cc2[n-]1 (protonated)
O=c1[n-]c2ccc(Nc3cc(S(=O)(=O)[NH+]4CCCC4)ccc3[O-])cc2[n-]1 (3D coordinates assigned)
O=c1[n-]c2ccc(Nc3cc(S(=O)(=O)[NH+]4CCCC4)ccc3[O-])cc2[n-]1 (nonaromatic ring conformer: 88.4492682638128 kcal/mol)

>  <smiles>  (2) 
O=c1[nH]c2ccc(Nc3cc(S(=O)(=O)N4CCCC4)ccc3O)cc2[nH]1

>  <score_type>  (2) 
oracle

>  <origin>  (2) 
adgpu

>  <m_score__min__energy>  (2) 
-11.91

>  <m_primary>  (2) 
energy

$$$$
2:0
     RDKit          3D

 46 48  0  0  0  0  0  0  0  0999 V2000
   -5.7690   17.7650  -32.8780 C   0  0  0  0  0  0  0  0  0  0  0  0
   -6.3770   19.0090  -33.4500 C   0  0  0  0  0  0  0  0  0  0  0  0
   -6.0990   19.3360  -34.6340 O   0  0  0  0  0  0  0  0  0  0  0  0
   -7.2250   19.8570  -32.6550 N   0  0  0  0  0  0  0  0  0  0  0  0
   -8.6730   19.5940  -32.7260 C   0  0  0  0  0  0  0  0  0  0  0  0
   -9.4760   20.4830  -31.7730 C   0  0  0  0  0  0  0  0  0  0  0  0
   -9.0690   21.9460  -31.9390 C   0  0  0  0  0  0  0  0  0  0  0  0
   -7.5980   22.1010  -31.6770 C   0  0  0  0  0  0  0  0  0  0  0  0
   -7.1010   23.2900  -31.1230 C   0  0  0  0  0  0  0  0  0  0  0  0
   -5.7340   23.4290  -30.8550 C   0  0  0  0  0  0  0  0  0  0  0  0
   -5.0930   24.9510  -30.2470 S   0  0  0  0  0  0  0  0  0  0  0  0
   -5.7030   25.2720  -28.9120 O   0  0  0  0  0  0  0  0  0  0  0  0
   -5.4220   26.0590  -31.2070 O   0  0  0  0  0  0  0  0  0  0  0  0
   -3.3760   24.8220  -30.0950 N   0  0  0  0  0  0  0  0  0  0  0  0
   -2.7950   23.8510  -29.2250 C   0  0  0  0  0  0  0  0  0  0  0  0
   -3.0330   23.7060  -27.8740 C   0  0  0  0  0  0  0  0  0  0  0  0
   -3.8760   24.5930  -27.0170 C   0  0  0  0  0  0  0  0  0  0  0  0
   -2.5140   22.5340  -27.4560 N   0  0  0  0  0  0  0  0  0  0  0  0
   -1.9400   21.9520  -28.5000 N   0  0  0  0  0  0  0  0  0  0  0  0
   -1.3610   20.6150  -28.4540 C   0  0  0  0  0  0  0  0  0  0  0  0
   -2.1060   22.7190  -29.6010 C   0  0  0  0  0  0  0  0  0  0  0  0
   -1.7590   22.3050  -30.9990 C   0  0  0  0  0  0  0  0  0  0  0  0
   -4.8640   22.3710  -31.1380 C   0  0  0  0  0  0  0  0  0  0  0  0
   -5.3460   21.1950  -31.7130 C   0  0  0  0  0  0  0  0  0  0  0  0
   -6.7120   21.0600  -32.0280 C   0  0  0  0  0  0  0  0  0  0  0  0
   -5.7941   17.8163  -31.7795 H   0  0  0  0  0  0  0  0  0  0  0  0
   -6.3402   16.8883  -33.2173 H   0  0  0  0  0  0  0  0  0  0  0  0
   -4.7263   17.6770  -33.2173 H   0  0  0  0  0  0  0  0  0  0  0  0
   -9.0155   19.7795  -33.7547 H   0  0  0  0  0  0  0  0  0  0  0  0
   -8.8385   18.5482  -32.4279 H   0  0  0  0  0  0  0  0  0  0  0  0
  -10.5480   20.3776  -31.9958 H   0  0  0  0  0  0  0  0  0  0  0  0
   -9.2725   20.1714  -30.7379 H   0  0  0  0  0  0  0  0  0  0  0  0
   -9.2930   22.2726  -32.9652 H   0  0  0  0  0  0  0  0  0  0  0  0
   -9.6312   22.5617  -31.2215 H   0  0  0  0  0  0  0  0  0  0  0  0
   -7.7893   24.1179  -30.8978 H   0  0  0  0  0  0  0  0  0  0  0  0
   -3.6731   24.3795  -25.9572 H   0  0  0  0  0  0  0  0  0  0  0  0
   -3.6368   25.6451  -27.2314 H   0  0  0  0  0  0  0  0  0  0  0  0
   -4.9389   24.4076  -27.2314 H   0  0  0  0  0  0  0  0  0  0  0  0
   -1.2284   20.3087  -27.4059 H   0  0  0  0  0  0  0  0  0  0  0  0
   -2.0330   19.9068  -28.9607 H   0  0  0  0  0  0  0  0  0  0  0  0
   -0.3847   20.6206  -28.9607 H   0  0  0  0  0  0  0  0  0  0  0  0
   -1.0527   21.4623  -30.9672 H   0  0  0  0  0  0  0  0  0  0  0  0
   -2.6731   21.9975  -31.5279 H   0  0  0  0  0  0  0  0  0  0  0  0
   -1.2965   23.1514  -31.5279 H   0  0  0  0  0  0  0  0  0  0  0  0
   -3.7931   22.4669  -30.9057 H   0  0  0  0  0  0  0  0  0  0  0  0
   -4.6535   20.3663  -31.9221 H   0  0  0  0  0  0  0  0  0  0  0  0
  1  2  1  0
  2  3  2  0
  2  4  1  0
  4  5  1  0
  5  6  1  0
  6  7  1  0
  7  8  1  0
  8  9  2  0
  9 10  1  0
 10 11  1  0
 11 12  2  0
 11 13  2  0
 11 14  1  0
 14 15  1  0
 15 16  1  0
 16 17  1  0
 16 18  2  0
 18 19  1  0
 19 20  1  0
 19 21  1  0
 21 22  1  0
 10 23  2  0
 23 24  1  0
 24 25  2  0
 25  4  1  0
 25  8  1  0
 21 15  2  0
  1 26  1  0
  1 27  1  0
  1 28  1  0
  5 29  1  0
  5 30  1  0
  6 31  1  0
  6 32  1  0
  7 33  1  0
  7 34  1  0
  9 35  1  0
 17 36  1  0
 17 37  1  0
 17 38  1  0
 20 39  1  0
 20 40  1  0
 20 41  1  0
 22 42  1  0
 22 43  1  0
 22 44  1  0
 23 45  1  0
 24 46  1  0
M  CHG  1  14  -1
M  END
>  <UniqueID>  (3) 
3

>  <SMILES>  (3) 
CC(=O)N1CCCc2cc(S(=O)(=O)[N-]c3c(C)nn(C)c3C)ccc21

>  <Energy>  (3) 
87.95104783130918

>  <Genealogy>  (3) 
CC(=O)N1CCCc2cc(S(=O)(=O)[N-]c3c(C)nn(C)c3C)ccc21 (protonated)
CC(=O)N1CCCc2cc(S(=O)(=O)[N-]c3c(C)nn(C)c3C)ccc21 (3D coordinates assigned)
CC(=O)N1CCCc2cc(S(=O)(=O)[N-]c3c(C)nn(C)c3C)ccc21 (nonaromatic ring conformer: 87.95104783130918 kcal/mol)

>  <smiles>  (3) 
CC(=O)N1CCCc2cc(S(=O)(=O)Nc3c(C)nn(C)c3C)ccc21

>  <score_type>  (3) 
oracle

>  <origin>  (3) 
adgpu

>  <m_score__min__energy>  (3) 
-10.390000000000001

>  <m_primary>  (3) 
energy

$$$$
3:0
     RDKit          3D

 59 61  0  0  0  0  0  0  0  0999 V2000
   -1.6260   25.9340  -25.3240 C   0  0  0  0  0  0  0  0  0  0  0  0
   -2.7320   25.3110  -26.1840 C   0  0  0  0  0  0  0  0  0  0  0  0
   -2.2200   24.2460  -27.0800 N   0  0  0  0  0  0  0  0  0  0  0  0
   -1.1630   23.4370  -26.4230 C   0  0  0  0  0  0  0  0  0  0  0  0
   -1.2600   21.9500  -26.7850 C   0  0  0  0  0  0  0  0  0  0  0  0
   -1.7610   24.8200  -28.3350 C   0  0  0  0  0  0  0  0  0  0  0  0
   -0.5280   25.0240  -28.5060 O   0  0  0  0  0  0  0  0  0  0  0  0
   -2.6730   25.2530  -29.3560 N   0  0  0  0  0  0  0  0  0  0  0  0
   -3.8430   24.5440  -29.7790 C   0  0  0  0  0  0  0  0  0  0  0  0
   -3.8090   23.1630  -30.0170 C   0  0  0  0  0  0  0  0  0  0  0  0
   -4.9560   22.4950  -30.4570 C   0  0  0  0  0  0  0  0  0  0  0  0
   -6.1430   23.2070  -30.6780 C   0  0  0  0  0  0  0  0  0  0  0  0
   -7.6010   22.3800  -31.2210 S   0  0  0  0  0  0  0  0  0  0  0  0
   -8.4680   22.0240  -30.0440 O   0  0  0  0  0  0  0  0  0  0  0  0
   -8.3850   23.2880  -32.1230 O   0  0  0  0  0  0  0  0  0  0  0  0
   -7.1610   20.9070  -32.0800 C   0  0  0  0  0  0  0  0  0  0  0  0
   -7.8680   19.7200  -31.8500 C   0  0  0  0  0  0  0  0  0  0  0  0
   -7.5210   18.5520  -32.5340 C   0  0  0  0  0  0  0  0  0  0  0  0
   -6.4580   18.5560  -33.4480 C   0  0  0  0  0  0  0  0  0  0  0  0
   -5.9980   17.0730  -34.2860 S   0  0  0  0  0  0  0  0  0  0  0  0
   -7.2350   16.2620  -34.5660 O   0  0  0  0  0  0  0  0  0  0  0  0
   -5.3660   17.4270  -35.6040 O   0  0  0  0  0  0  0  0  0  0  0  0
   -4.8750   16.1180  -33.3490 N   0  0  0  0  0  0  0  0  0  0  0  0
   -3.5250   16.1950  -33.9290 C   0  0  0  0  0  0  0  0  0  0  0  0
   -2.5660   15.2280  -33.2010 C   0  0  0  0  0  0  0  0  0  0  0  0
   -3.1840   14.6370  -32.0740 O   0  0  0  0  0  0  0  0  0  0  0  0
   -4.3010   13.8720  -32.4890 C   0  0  0  0  0  0  0  0  0  0  0  0
   -5.3190   14.7170  -33.2840 C   0  0  0  0  0  0  0  0  0  0  0  0
   -5.7590   19.7480  -33.6870 C   0  0  0  0  0  0  0  0  0  0  0  0
   -6.1110   20.9200  -33.0110 C   0  0  0  0  0  0  0  0  0  0  0  0
   -6.1670   24.5930  -30.4740 C   0  0  0  0  0  0  0  0  0  0  0  0
   -5.0170   25.2600  -30.0380 C   0  0  0  0  0  0  0  0  0  0  0  0
   -1.8683   25.7975  -24.2597 H   0  0  0  0  0  0  0  0  0  0  0  0
   -0.6673   25.4432  -25.5476 H   0  0  0  0  0  0  0  0  0  0  0  0
   -1.5489   27.0083  -25.5476 H   0  0  0  0  0  0  0  0  0  0  0  0
   -3.4940   24.8774  -25.5196 H   0  0  0  0  0  0  0  0  0  0  0  0
   -3.1534   26.1067  -26.8159 H   0  0  0  0  0  0  0  0  0  0  0  0
   -3.0160   23.6020  -27.3090 H   0  0  0  0  0  0  0  0  0  0  0  0
   -0.1798   23.8150  -26.7399 H   0  0  0  0  0  0  0  0  0  0  0  0
   -1.2964   23.5282  -25.3349 H   0  0  0  0  0  0  0  0  0  0  0  0
   -1.2991   21.3502  -25.8638 H   0  0  0  0  0  0  0  0  0  0  0  0
   -2.1715   21.7751  -27.3754 H   0  0  0  0  0  0  0  0  0  0  0  0
   -0.3790   21.6581  -27.3754 H   0  0  0  0  0  0  0  0  0  0  0  0
   -2.8762   22.6024  -29.8570 H   0  0  0  0  0  0  0  0  0  0  0  0
   -4.9267   21.4091  -30.6300 H   0  0  0  0  0  0  0  0  0  0  0  0
   -8.6986   19.7072  -31.1290 H   0  0  0  0  0  0  0  0  0  0  0  0
   -8.0848   17.6247  -32.3544 H   0  0  0  0  0  0  0  0  0  0  0  0
   -3.5728   15.9235  -34.9939 H   0  0  0  0  0  0  0  0  0  0  0  0
   -3.1477   17.2220  -33.8153 H   0  0  0  0  0  0  0  0  0  0  0  0
   -2.2608   14.4343  -33.8988 H   0  0  0  0  0  0  0  0  0  0  0  0
   -1.6934   15.8017  -32.8554 H   0  0  0  0  0  0  0  0  0  0  0  0
   -3.9493   13.0475  -33.1266 H   0  0  0  0  0  0  0  0  0  0  0  0
   -4.8054   13.4921  -31.5883 H   0  0  0  0  0  0  0  0  0  0  0  0
   -5.4062   14.3157  -34.3045 H   0  0  0  0  0  0  0  0  0  0  0  0
   -6.2950   14.6727  -32.7785 H   0  0  0  0  0  0  0  0  0  0  0  0
   -4.9299   19.7609  -34.4097 H   0  0  0  0  0  0  0  0  0  0  0  0
   -5.5642   21.8537  -33.2091 H   0  0  0  0  0  0  0  0  0  0  0  0
   -7.0927   25.1583  -30.6572 H   0  0  0  0  0  0  0  0  0  0  0  0
   -5.0358   26.3509  -29.8983 H   0  0  0  0  0  0  0  0  0  0  0  0
  1  2  1  0
  2  3  1  0
  3  4  1  0
  4  5  1  0
  3  6  1  0
  6  7  2  0
  6  8  1  0
  8  9  1  0
  9 10  2  0
 10 11  1  0
 11 12  2  0
 12 13  1  0
 13 14  2  0
 13 15  2  0
 13 16  1  0
 16 17  2  0
 17 18  1  0
 18 19  2  0
 19 20  1  0
 20 21  2  0
 20 22  2  0
 20 23  1  0
 23 24  1  0
 24 25  1  0
 25 26  1  0
 26 27  1  0
 27 28  1  0
 19 29  1  0
 29 30  2  0
 12 31  1  0
 31 32  2  0
 32  9  1  0
 30 16  1  0
 28 23  1  0
  1 33  1  0
  1 34  1  0
  1 35  1  0
  2 36  1  0
  2 37  1  0
  3 38  1  0
  4 39  1  0
  4 40  1  0
  5 41  1  0
  5 42  1  0
  5 43  1  0
 10 44  1  0
 11 45  1  0
 17 46  1  0
 18 47  1  0
 24 48  1  0
 24 49  1  0
 25 50  1  0
 25 51  1  0
 27 52  1  0
 27 53  1  0
 28 54  1  0
 28 55  1  0
 29 56  1  0
 30 57  1  0
 31 58  1  0
 32 59  1  0
M  CHG  2   3   1   8  -1
M  END
>  <UniqueID>  (4) 
4

>  <SMILES>  (4) 
CC[NH+](CC)C(=O)[N-]c1ccc(S(=O)(=O)c2ccc(S(=O)(=O)N3CCOCC3)cc2)cc1

>  <Energy>  (4) 
78.92205438647186

>  <Genealogy>  (4) 
CC[NH+](CC)C(=O)[N-]c1ccc(S(=O)(=O)c2ccc(S(=O)(=O)N3CCOCC3)cc2)cc1 (protonated)
CC[NH+](CC)C(=O)[N-]c1ccc(S(=O)(=O)c2ccc(S(=O)(=O)N3CCOCC3)cc2)cc1 (3D coordinates assigned)
CC[NH+](CC)C(=O)[N-]c1ccc(S(=O)(=O)c2ccc(S(=O)(=O)N3CCOCC3)cc2)cc1 (nonaromatic ring conformer: 78.92205438647186 kcal/mol)

>  <smiles>  (4) 
CCN(CC)C(=O)Nc1ccc(S(=O)(=O)c2ccc(S(=O)(=O)N3CCOCC3)cc2)cc1

>  <score_type>  (4) 
oracle

>  <origin>  (4) 
adgpu

>  <m_score__min__energy>  (4) 
-10.69

>  <m_primary>  (4) 
energy

$$$$
4:0
     RDKit          3D

 56 58  0  0  0  0  0  0  0  0999 V2000
   -1.6230   21.4830  -32.3680 C   0  0  0  0  0  0  0  0  0  0  0  0
   -3.0980   21.1360  -32.1460 C   0  0  0  0  0  0  0  0  0  0  0  0
   -3.9840   21.9570  -33.0820 C   0  0  0  0  0  0  0  0  0  0  0  0
   -3.4560   21.4370  -30.8060 O   0  0  0  0  0  0  0  0  0  0  0  0
   -2.5560   20.8540  -29.8820 C   0  0  0  0  0  0  0  0  0  0  0  0
   -3.0130   21.1040  -28.4390 C   0  0  0  0  0  0  0  0  0  0  0  0
   -1.9550   21.8490  -27.6210 C   0  0  0  0  0  0  0  0  0  0  0  0
   -1.6410   23.1390  -28.2380 N   0  0  0  0  0  0  0  0  0  0  0  0
   -0.4210   23.6290  -28.5290 C   0  0  0  0  0  0  0  0  0  0  0  0
   -0.5000   24.8990  -28.9700 N   0  0  0  0  0  0  0  0  0  0  0  0
   -1.7800   25.2430  -28.9510 N   0  0  0  0  0  0  0  0  0  0  0  0
   -2.4630   24.1710  -28.5060 C   0  0  0  0  0  0  0  0  0  0  0  0
   -4.2440   24.1630  -28.2700 S   0  0  0  0  0  0  0  0  0  0  0  0
   -4.6470   24.2730  -30.0470 C   0  0  0  0  0  0  0  0  0  0  0  0
   -5.9930   23.6880  -30.3430 C   0  0  0  0  0  0  0  0  0  0  0  0
   -7.0050   24.4410  -30.3560 O   0  0  0  0  0  0  0  0  0  0  0  0
   -6.1340   22.2750  -30.5520 N   0  0  0  0  0  0  0  0  0  0  0  0
   -7.2960   21.6640  -31.1410 C   0  0  0  0  0  0  0  0  0  0  0  0
   -8.5490   22.3020  -31.0910 C   0  0  0  0  0  0  0  0  0  0  0  0
   -9.6630   21.7240  -31.7060 C   0  0  0  0  0  0  0  0  0  0  0  0
   -9.5350   20.5170  -32.3910 C   0  0  0  0  0  0  0  0  0  0  0  0
   -8.2950   19.8790  -32.4580 C   0  0  0  0  0  0  0  0  0  0  0  0
   -7.1730   20.4360  -31.8180 C   0  0  0  0  0  0  0  0  0  0  0  0
   -5.9190   19.8070  -31.8660 O   0  0  0  0  0  0  0  0  0  0  0  0
   -5.5810   18.7010  -32.6610 C   0  0  0  0  0  0  0  0  0  0  0  0
   -5.7310   17.4190  -32.1150 C   0  0  0  0  0  0  0  0  0  0  0  0
   -5.4530   16.2840  -32.8840 C   0  0  0  0  0  0  0  0  0  0  0  0
   -5.0260   16.4220  -34.2090 C   0  0  0  0  0  0  0  0  0  0  0  0
   -4.8830   17.6950  -34.7670 C   0  0  0  0  0  0  0  0  0  0  0  0
   -5.1620   18.8330  -34.0010 C   0  0  0  0  0  0  0  0  0  0  0  0
   -1.1235   21.6005  -31.3950 H   0  0  0  0  0  0  0  0  0  0  0  0
   -1.1373   20.6746  -32.9342 H   0  0  0  0  0  0  0  0  0  0  0  0
   -1.5487   22.4231  -32.9342 H   0  0  0  0  0  0  0  0  0  0  0  0
   -3.2419   20.0649  -32.3509 H   0  0  0  0  0  0  0  0  0  0  0  0
   -4.6625   22.5858  -32.4868 H   0  0  0  0  0  0  0  0  0  0  0  0
   -3.3532   22.5969  -33.7165 H   0  0  0  0  0  0  0  0  0  0  0  0
   -4.5741   21.2793  -33.7165 H   0  0  0  0  0  0  0  0  0  0  0  0
   -2.5078   19.7698  -30.0616 H   0  0  0  0  0  0  0  0  0  0  0  0
   -1.5652   21.3114  -30.0207 H   0  0  0  0  0  0  0  0  0  0  0  0
   -3.9345   21.7043  -28.4577 H   0  0  0  0  0  0  0  0  0  0  0  0
   -3.1830   20.1268  -27.9633 H   0  0  0  0  0  0  0  0  0  0  0  0
   -2.3377   22.0184  -26.6037 H   0  0  0  0  0  0  0  0  0  0  0  0
   -1.0396   21.2401  -27.5866 H   0  0  0  0  0  0  0  0  0  0  0  0
    0.5175   23.0656  -28.4207 H   0  0  0  0  0  0  0  0  0  0  0  0
   -4.6429   25.3306  -30.3494 H   0  0  0  0  0  0  0  0  0  0  0  0
   -3.8923   23.7018  -30.6074 H   0  0  0  0  0  0  0  0  0  0  0  0
   -5.3660   21.6520  -30.2110 H   0  0  0  0  0  0  0  0  0  0  0  0
   -8.6525   23.2622  -30.5643 H   0  0  0  0  0  0  0  0  0  0  0  0
  -10.6420   22.2223  -31.6493 H   0  0  0  0  0  0  0  0  0  0  0  0
  -10.4118   20.0666  -32.8793 H   0  0  0  0  0  0  0  0  0  0  0  0
   -8.1948   18.9354  -33.0144 H   0  0  0  0  0  0  0  0  0  0  0  0
   -6.0696   17.3045  -31.0747 H   0  0  0  0  0  0  0  0  0  0  0  0
   -5.5703   15.2817  -32.4463 H   0  0  0  0  0  0  0  0  0  0  0  0
   -4.8030   15.5289  -34.8112 H   0  0  0  0  0  0  0  0  0  0  0  0
   -4.5506   17.8031  -35.8100 H   0  0  0  0  0  0  0  0  0  0  0  0
   -5.0541   19.8333  -34.4457 H   0  0  0  0  0  0  0  0  0  0  0  0
  1  2  1  0
  2  3  1  0
  2  4  1  0
  4  5  1  0
  5  6  1  0
  6  7  1  0
  7  8  1  0
  8  9  1  0
  9 10  2  0
 10 11  1  0
 11 12  2  0
 12 13  1  0
 13 14  1  0
 14 15  1  0
 15 16  2  0
 15 17  1  0
 17 18  1  0
 18 19  2  0
 19 20  1  0
 20 21  2  0
 21 22  1  0
 22 23  2  0
 23 24  1  0
 24 25  1  0
 25 26  2  0
 26 27  1  0
 27 28  2  0
 28 29  1  0
 29 30  2  0
 12  8  1  0
 23 18  1  0
 30 25  1  0
  1 31  1  0
  1 32  1  0
  1 33  1  0
  2 34  1  0
  3 35  1  0
  3 36  1  0
  3 37  1  0
  5 38  1  0
  5 39  1  0
  6 40  1  0
  6 41  1  0
  7 42  1  0
  7 43  1  0
  9 44  1  0
 14 45  1  0
 14 46  1  0
 17 47  1  0
 19 48  1  0
 20 49  1  0
 21 50  1  0
 22 51  1  0
 26 52  1  0
 27 53  1  0
 28 54  1  0
 29 55  1  0
 30 56  1  0
M  END
>  <UniqueID>  (5) 
5

>  <SMILES>  (5) 
CC(C)OCCCn1cnnc1SCC(=O)Nc1ccccc1Oc1ccccc1

>  <Energy>  (5) 
85.56719198427086

>  <Genealogy>  (5) 
CC(C)OCCCn1cnnc1SCC(=O)Nc1ccccc1Oc1ccccc1 (3D coordinates assigned)
CC(C)OCCCn1cnnc1SCC(=O)Nc1ccccc1Oc1ccccc1 (optimized conformer: 85.56719198427086 kcal/mol)

>  <smiles>  (5) 
CC(C)OCCCn1cnnc1SCC(=O)Nc1ccccc1Oc1ccccc1

>  <score_type>  (5) 
oracle

>  <origin>  (5) 
adgpu

>  <m_score__min__energy>  (5) 
-8.9900000000000002

>  <m_primary>  (5) 
energy

$$$$
5:0
     RDKit          3D

 41 43  0  0  0  0  0  0  0  0999 V2000
   -2.4730   21.1380  -33.7430 O   0  0  0  0  0  0  0  0  0  0  0  0
   -3.2300   20.7850  -32.4930 S   0  0  0  0  0  0  0  0  0  0  0  0
   -2.2290   20.4680  -31.4170 O   0  0  0  0  0  0  0  0  0  0  0  0
   -4.2050   22.1700  -31.9920 C   0  0  0  0  0  0  0  0  0  0  0  0
   -3.6370   23.1900  -31.2200 C   0  0  0  0  0  0  0  0  0  0  0  0
   -4.4180   24.2720  -30.7950 C   0  0  0  0  0  0  0  0  0  0  0  0
   -3.8620   25.2890  -30.0240 O   0  0  0  0  0  0  0  0  0  0  0  0
   -5.7700   24.3330  -31.1440 C   0  0  0  0  0  0  0  0  0  0  0  0
   -6.3560   23.3220  -31.9220 C   0  0  0  0  0  0  0  0  0  0  0  0
   -7.7560   23.4100  -32.2510 N   0  0  0  0  0  0  0  0  0  0  0  0
   -8.8130   22.6570  -31.5760 C   0  0  0  0  0  0  0  0  0  0  0  0
   -8.6750   21.1910  -31.8500 C   0  0  0  0  0  0  0  0  0  0  0  0
   -9.5550   20.4140  -32.5930 C   0  0  0  0  0  0  0  0  0  0  0  0
   -9.1880   19.0660  -32.6480 C   0  0  0  0  0  0  0  0  0  0  0  0
   -8.0270   18.7750  -31.9420 C   0  0  0  0  0  0  0  0  0  0  0  0
   -7.4570   20.1970  -31.2520 S   0  0  0  0  0  0  0  0  0  0  0  0
   -5.5570   22.2460  -32.3530 C   0  0  0  0  0  0  0  0  0  0  0  0
   -4.2230   19.3770  -32.7990 N   0  0  0  0  0  0  0  0  0  0  0  0
   -3.4040   18.1830  -33.1000 C   0  0  0  0  0  0  0  0  0  0  0  0
   -3.4180   17.8360  -34.6010 C   0  0  0  0  0  0  0  0  0  0  0  0
   -4.7210   17.6020  -35.1160 O   0  0  0  0  0  0  0  0  0  0  0  0
   -5.7360   18.3710  -34.4810 C   0  0  0  0  0  0  0  0  0  0  0  0
   -5.2240   19.6710  -33.8410 C   0  0  0  0  0  0  0  0  0  0  0  0
   -2.5728   23.1416  -30.9460 H   0  0  0  0  0  0  0  0  0  0  0  0
   -4.2670   25.5620  -29.1350 H   0  0  0  0  0  0  0  0  0  0  0  0
   -6.3815   25.1824  -30.8054 H   0  0  0  0  0  0  0  0  0  0  0  0
   -8.0490   24.0660  -33.0110 H   0  0  0  0  0  0  0  0  0  0  0  0
   -8.7439   22.8300  -30.4919 H   0  0  0  0  0  0  0  0  0  0  0  0
   -9.7878   22.9978  -31.9550 H   0  0  0  0  0  0  0  0  0  0  0  0
  -10.4501   20.8185  -33.0880 H   0  0  0  0  0  0  0  0  0  0  0  0
   -9.7640   18.3074  -33.1982 H   0  0  0  0  0  0  0  0  0  0  0  0
   -7.5607   17.7829  -31.8505 H   0  0  0  0  0  0  0  0  0  0  0  0
   -5.9984   21.4569  -32.9795 H   0  0  0  0  0  0  0  0  0  0  0  0
   -2.3665   18.3768  -32.7901 H   0  0  0  0  0  0  0  0  0  0  0  0
   -3.8312   17.3311  -32.5507 H   0  0  0  0  0  0  0  0  0  0  0  0
   -2.9693   18.6730  -35.1561 H   0  0  0  0  0  0  0  0  0  0  0  0
   -2.8493   16.9023  -34.7227 H   0  0  0  0  0  0  0  0  0  0  0  0
   -6.4952   18.6310  -35.2334 H   0  0  0  0  0  0  0  0  0  0  0  0
   -6.1424   17.7529  -33.6669 H   0  0  0  0  0  0  0  0  0  0  0  0
   -4.7636   20.2994  -34.6176 H   0  0  0  0  0  0  0  0  0  0  0  0
   -6.0725   20.1973  -33.3794 H   0  0  0  0  0  0  0  0  0  0  0  0
  1  2  2  0
  2  3  2  0
  2  4  1  0
  4  5  2  0
  5  6  1  0
  6  7  1  0
  6  8  2  0
  8  9  1  0
  9 10  1  0
 10 11  1  0
 11 12  1  0
 12 13  2  0
 13 14  1  0
 14 15  2  0
 15 16  1  0
  9 17  2  0
  2 18  1  0
 18 19  1  0
 19 20  1  0
 20 21  1  0
 21 22  1  0
 22 23  1  0
 17  4  1  0
 23 18  1  0
 16 12  1  0
  5 24  1  0
  7 25  1  0
  8 26  1  0
 10 27  1  0
 11 28  1  0
 11 29  1  0
 13 30  1  0
 14 31  1  0
 15 32  1  0
 17 33  1  0
 19 34  1  0
 19 35  1  0
 20 36  1  0
 20 37  1  0
 22 38  1  0
 22 39  1  0
 23 40  1  0
 23 41  1  0
M  END
>  <UniqueID>  (6) 
6

>  <SMILES>  (6) 
O=S(=O)(c1cc(O)cc(NCc2cccs2)c1)N1CCOCC1

>  <Energy>  (6) 
75.06569382269747

>  <Genealogy>  (6) 
O=S(=O)(c1cc(O)cc(NCc2cccs2)c1)N1CCOCC1 (3D coordinates assigned)
O=S(=O)(c1cc(O)cc(NCc2cccs2)c1)N1CCOCC1 (nonaromatic ring conformer: 75.06569382269747 kcal/mol)

>  <smiles>  (6) 
O=S(=O)(c1cc(O)cc(NCc2cccs2)c1)N1CCOCC1

>  <score_type>  (6) 
oracle

>  <origin>  (6) 
adgpu

>  <m_score__min__energy>  (6) 
-8.1500000000000004

>  <m_primary>  (6) 
energy

$$$$
6:0
     RDKit          3D

 57 60  0  0  0  0  0  0  0  0999 V2000
   -3.9570   25.6760  -30.8520 O   0  0  0  0  0  0  0  0  0  0  0  0
   -3.9780   24.4820  -30.4440 C   0  0  0  0  0  0  0  0  0  0  0  0
   -2.9350   24.0030  -29.5860 N   0  0  0  0  0  0  0  0  0  0  0  0
   -2.4170   24.6780  -28.4320 C   0  0  0  0  0  0  0  0  0  0  0  0
   -1.2610   25.4560  -28.5730 C   0  0  0  0  0  0  0  0  0  0  0  0
   -0.7370   26.1510  -27.4810 C   0  0  0  0  0  0  0  0  0  0  0  0
   -1.3710   26.0910  -26.2350 C   0  0  0  0  0  0  0  0  0  0  0  0
   -0.7050   26.9650  -24.8520 S   0  0  0  0  0  0  0  0  0  0  0  0
   -1.5870   26.7440  -23.6550 O   0  0  0  0  0  0  0  0  0  0  0  0
   -0.6940   28.4370  -25.1570 O   0  0  0  0  0  0  0  0  0  0  0  0
    0.9210   26.4400  -24.4790 N   0  0  0  0  0  0  0  0  0  0  0  0
    1.9230   27.1240  -25.3250 C   0  0  0  0  0  0  0  0  0  0  0  0
    2.4730   26.2010  -26.4250 C   0  0  0  0  0  0  0  0  0  0  0  0
    3.0850   25.0250  -25.9140 O   0  0  0  0  0  0  0  0  0  0  0  0
    2.4780   24.5310  -24.7280 C   0  0  0  0  0  0  0  0  0  0  0  0
    1.0170   24.9700  -24.5410 C   0  0  0  0  0  0  0  0  0  0  0  0
   -2.5500   25.3430  -26.0970 C   0  0  0  0  0  0  0  0  0  0  0  0
   -3.0770   24.6440  -27.1860 C   0  0  0  0  0  0  0  0  0  0  0  0
   -4.2590   23.9970  -27.0370 F   0  0  0  0  0  0  0  0  0  0  0  0
   -5.1060   23.5940  -30.8120 C   0  0  0  0  0  0  0  0  0  0  0  0
   -5.0010   22.2000  -30.6500 C   0  0  0  0  0  0  0  0  0  0  0  0
   -6.0710   21.3640  -30.9840 C   0  0  0  0  0  0  0  0  0  0  0  0
   -7.2580   21.9050  -31.4900 C   0  0  0  0  0  0  0  0  0  0  0  0
   -8.6050   20.8400  -31.8850 S   0  0  0  0  0  0  0  0  0  0  0  0
   -9.1030   20.1550  -30.6410 O   0  0  0  0  0  0  0  0  0  0  0  0
   -9.7230   21.6680  -32.4560 O   0  0  0  0  0  0  0  0  0  0  0  0
   -8.0870   19.6520  -33.0560 N   0  0  0  0  0  0  0  0  0  0  0  0
   -6.8940   20.1160  -33.8000 C   0  0  0  0  0  0  0  0  0  0  0  0
   -5.6090   19.4030  -33.3430 C   0  0  0  0  0  0  0  0  0  0  0  0
   -5.6730   17.9900  -33.4720 O   0  0  0  0  0  0  0  0  0  0  0  0
   -6.9690   17.4500  -33.2380 C   0  0  0  0  0  0  0  0  0  0  0  0
   -7.8820   18.3510  -32.3910 C   0  0  0  0  0  0  0  0  0  0  0  0
   -7.3710   23.2920  -31.6540 C   0  0  0  0  0  0  0  0  0  0  0  0
   -6.3040   24.1300  -31.3180 C   0  0  0  0  0  0  0  0  0  0  0  0
   -0.7621   25.5201  -29.5513 H   0  0  0  0  0  0  0  0  0  0  0  0
    0.1787   26.7486  -27.6009 H   0  0  0  0  0  0  0  0  0  0  0  0
    1.4516   27.9983  -25.7976 H   0  0  0  0  0  0  0  0  0  0  0  0
    2.7631   27.4247  -24.6817 H   0  0  0  0  0  0  0  0  0  0  0  0
    1.6414   25.9054  -27.0816 H   0  0  0  0  0  0  0  0  0  0  0  0
    3.2473   26.7636  -26.9671 H   0  0  0  0  0  0  0  0  0  0  0  0
    2.5074   23.4318  -24.7570 H   0  0  0  0  0  0  0  0  0  0  0  0
    3.0454   24.9491  -23.8835 H   0  0  0  0  0  0  0  0  0  0  0  0
    0.4182   24.6040  -25.3881 H   0  0  0  0  0  0  0  0  0  0  0  0
    0.6382   24.5497  -23.5977 H   0  0  0  0  0  0  0  0  0  0  0  0
   -3.0630   25.3066  -25.1246 H   0  0  0  0  0  0  0  0  0  0  0  0
   -4.0701   21.7647  -30.2576 H   0  0  0  0  0  0  0  0  0  0  0  0
   -5.9791   20.2763  -30.8483 H   0  0  0  0  0  0  0  0  0  0  0  0
   -7.0462   19.9191  -34.8715 H   0  0  0  0  0  0  0  0  0  0  0  0
   -6.7711   21.1913  -33.6035 H   0  0  0  0  0  0  0  0  0  0  0  0
   -4.7702   19.7713  -33.9519 H   0  0  0  0  0  0  0  0  0  0  0  0
   -5.4756   19.6264  -32.2742 H   0  0  0  0  0  0  0  0  0  0  0  0
   -7.4545   17.2837  -34.2109 H   0  0  0  0  0  0  0  0  0  0  0  0
   -6.8264   16.5194  -32.6691 H   0  0  0  0  0  0  0  0  0  0  0  0
   -8.8551   17.8560  -32.2568 H   0  0  0  0  0  0  0  0  0  0  0  0
   -7.4052   18.5223  -31.4146 H   0  0  0  0  0  0  0  0  0  0  0  0
   -8.3029   23.7230  -32.0487 H   0  0  0  0  0  0  0  0  0  0  0  0
   -6.4019   25.2176  -31.4504 H   0  0  0  0  0  0  0  0  0  0  0  0
  1  2  2  0
  2  3  1  0
  3  4  1  0
  4  5  2  0
  5  6  1  0
  6  7  2  0
  7  8  1  0
  8  9  2  0
  8 10  2  0
  8 11  1  0
 11 12  1  0
 12 13  1  0
 13 14  1  0
 14 15  1  0
 15 16  1  0
  7 17  1  0
 17 18  2  0
 18 19  1  0
  2 20  1  0
 20 21  2  0
 21 22  1  0
 22 23  2  0
 23 24  1  0
 24 25  2  0
 24 26  2  0
 24 27  1  0
 27 28  1  0
 28 29  1  0
 29 30  1  0
 30 31  1  0
 31 32  1  0
 23 33  1  0
 33 34  2  0
 18  4  1  0
 34 20  1  0
 16 11  1  0
 32 27  1  0
  5 35  1  0
  6 36  1  0
 12 37  1  0
 12 38  1  0
 13 39  1  0
 13 40  1  0
 15 41  1  0
 15 42  1  0
 16 43  1  0
 16 44  1  0
 17 45  1  0
 21 46  1  0
 22 47  1  0
 28 48  1  0
 28 49  1  0
 29 50  1  0
 29 51  1  0
 31 52  1  0
 31 53  1  0
 32 54  1  0
 32 55  1  0
 33 56  1  0
 34 57  1  0
M  CHG  1   3  -1
M  END
>  <UniqueID>  (7) 
7

>  <SMILES>  (7) 
O=C([N-]c1ccc(S(=O)(=O)N2CCOCC2)cc1F)c1ccc(S(=O)(=O)N2CCOCC2)cc1

>  <Energy>  (7) 
89.45298427680719

>  <Genealogy>  (7) 
O=C([N-]c1ccc(S(=O)(=O)N2CCOCC2)cc1F)c1ccc(S(=O)(=O)N2CCOCC2)cc1 (protonated)
O=C([N-]c1ccc(S(=O)(=O)N2CCOCC2)cc1F)c1ccc(S(=O)(=O)N2CCOCC2)cc1 (3D coordinates assigned)
O=C([N-]c1ccc(S(=O)(=O)N2CCOCC2)cc1F)c1ccc(S(=O)(=O)N2CCOCC2)cc1 (nonaromatic ring conformer: 89.45298427680719 kcal/mol)

>  <smiles>  (7) 
O=C(Nc1ccc(S(=O)(=O)N2CCOCC2)cc1F)c1ccc(S(=O)(=O)N2CCOCC2)cc1

>  <score_type>  (7) 
oracle

>  <origin>  (7) 
adgpu

>  <m_score__min__energy>  (7) 
-12.51

>  <m_primary>  (7) 
energy

$$$$
7:0
     RDKit          3D

 43 45  0  0  0  0  0  0  0  0999 V2000
    1.9070   19.8380  -33.4650 C   0  0  0  0  0  0  0  0  0  0  0  0
    0.7400   20.4900  -34.6380 S   0  0  0  0  0  0  0  0  0  0  0  0
    1.1170   20.0440  -36.0240 O   0  0  0  0  0  0  0  0  0  0  0  0
    0.7660   21.9910  -34.5920 O   0  0  0  0  0  0  0  0  0  0  0  0
   -0.8730   19.9080  -34.2440 C   0  0  0  0  0  0  0  0  0  0  0  0
   -1.1030   18.5390  -34.0610 C   0  0  0  0  0  0  0  0  0  0  0  0
   -2.3860   18.0750  -33.7550 C   0  0  0  0  0  0  0  0  0  0  0  0
   -3.4550   18.9780  -33.6260 C   0  0  0  0  0  0  0  0  0  0  0  0
   -4.8110   18.4850  -33.2830 C   0  0  0  0  0  0  0  0  0  0  0  0
   -5.2160   17.2300  -33.7700 C   0  0  0  0  0  0  0  0  0  0  0  0
   -6.5060   16.7550  -33.5260 C   0  0  0  0  0  0  0  0  0  0  0  0
   -7.4080   17.5260  -32.7940 C   0  0  0  0  0  0  0  0  0  0  0  0
   -7.0210   18.7690  -32.2910 C   0  0  0  0  0  0  0  0  0  0  0  0
   -5.7220   19.2590  -32.5160 C   0  0  0  0  0  0  0  0  0  0  0  0
   -5.3340   20.5530  -31.9060 C   0  0  0  0  0  0  0  0  0  0  0  0
   -4.3050   20.6060  -30.9520 C   0  0  0  0  0  0  0  0  0  0  0  0
   -3.9520   21.8210  -30.3600 C   0  0  0  0  0  0  0  0  0  0  0  0
   -4.6150   23.0010  -30.7220 C   0  0  0  0  0  0  0  0  0  0  0  0
   -4.1930   24.5280  -29.9530 S   0  0  0  0  0  0  0  0  0  0  0  0
   -4.9890   24.6440  -28.4230 N   0  0  0  0  0  0  0  0  0  0  0  0
   -4.6190   25.6730  -30.8290 O   0  0  0  0  0  0  0  0  0  0  0  0
   -2.7060   24.6050  -29.7510 O   0  0  0  0  0  0  0  0  0  0  0  0
   -5.6360   22.9550  -31.6790 C   0  0  0  0  0  0  0  0  0  0  0  0
   -5.9890   21.7400  -32.2730 C   0  0  0  0  0  0  0  0  0  0  0  0
   -3.2240   20.3480  -33.8340 C   0  0  0  0  0  0  0  0  0  0  0  0
   -1.9410   20.8090  -34.1380 C   0  0  0  0  0  0  0  0  0  0  0  0
    1.5505   20.0372  -32.4436 H   0  0  0  0  0  0  0  0  0  0  0  0
    2.0081   18.7527  -33.6129 H   0  0  0  0  0  0  0  0  0  0  0  0
    2.8842   20.3208  -33.6129 H   0  0  0  0  0  0  0  0  0  0  0  0
   -0.2712   17.8258  -34.1583 H   0  0  0  0  0  0  0  0  0  0  0  0
   -2.5594   16.9979  -33.6146 H   0  0  0  0  0  0  0  0  0  0  0  0
   -4.5099   16.6164  -34.3488 H   0  0  0  0  0  0  0  0  0  0  0  0
   -6.8111   15.7711  -33.9118 H   0  0  0  0  0  0  0  0  0  0  0  0
   -8.4271   17.1537  -32.6125 H   0  0  0  0  0  0  0  0  0  0  0  0
   -7.7382   19.3707  -31.7135 H   0  0  0  0  0  0  0  0  0  0  0  0
   -3.7737   19.6853  -30.6692 H   0  0  0  0  0  0  0  0  0  0  0  0
   -3.1507   21.8514  -29.6070 H   0  0  0  0  0  0  0  0  0  0  0  0
   -6.0050   24.4680  -28.5930 H   0  0  0  0  0  0  0  0  0  0  0  0
   -4.9050   25.6360  -28.1090 H   0  0  0  0  0  0  0  0  0  0  0  0
   -6.1620   23.8780  -31.9643 H   0  0  0  0  0  0  0  0  0  0  0  0
   -6.7844   21.7133  -33.0323 H   0  0  0  0  0  0  0  0  0  0  0  0
   -4.0578   21.0614  -33.7571 H   0  0  0  0  0  0  0  0  0  0  0  0
   -1.7682   21.8840  -34.2949 H   0  0  0  0  0  0  0  0  0  0  0  0
  1  2  1  0
  2  3  2  0
  2  4  2  0
  2  5  1  0
  5  6  2  0
  6  7  1  0
  7  8  2  0
  8  9  1  0
  9 10  2  0
 10 11  1  0
 11 12  2  0
 12 13  1  0
 13 14  2  0
 14 15  1  0
 15 16  2  0
 16 17  1  0
 17 18  2  0
 18 19  1  0
 19 20  1  0
 19 21  2  0
 19 22  2  0
 18 23  1  0
 23 24  2  0
  8 25  1  0
 25 26  2  0
 26  5  1  0
 14  9  1  0
 24 15  1  0
  1 27  1  0
  1 28  1  0
  1 29  1  0
  6 30  1  0
  7 31  1  0
 10 32  1  0
 11 33  1  0
 12 34  1  0
 13 35  1  0
 16 36  1  0
 17 37  1  0
 20 38  1  0
 20 39  1  0
 23 40  1  0
 24 41  1  0
 25 42  1  0
 26 43  1  0
M  END
>  <UniqueID>  (8) 
8

>  <SMILES>  (8) 
CS(=O)(=O)c1ccc(-c2ccccc2-c2ccc(S(N)(=O)=O)cc2)cc1

>  <Energy>  (8) 
53.714712084113586

>  <Genealogy>  (8) 
CS(=O)(=O)c1ccc(-c2ccccc2-c2ccc(S(N)(=O)=O)cc2)cc1 (3D coordinates assigned)
CS(=O)(=O)c1ccc(-c2ccccc2-c2ccc(S(N)(=O)=O)cc2)cc1 (optimized conformer: 53.714712084113586 kcal/mol)

>  <smiles>  (8) 
CS(=O)(=O)c1ccc(-c2ccccc2-c2ccc(S(N)(=O)=O)cc2)cc1

>  <score_type>  (8) 
oracle

>  <origin>  (8) 
adgpu

>  <m_score__min__energy>  (8) 
-10.289999999999999

>  <m_primary>  (8) 
energy

$$$$
8:0
     RDKit          3D

 59 63  0  0  0  0  0  0  0  0999 V2000
   -5.7160   17.0990  -34.6190 C   0  0  0  0  0  0  0  0  0  0  0  0
   -5.9630   17.3100  -33.1840 N   0  0  0  0  0  0  0  0  0  0  0  0
   -7.3550   17.7590  -32.9630 C   0  0  0  0  0  0  0  0  0  0  0  0
   -7.5160   18.4110  -31.5820 C   0  0  0  0  0  0  0  0  0  0  0  0
   -6.6300   19.5870  -31.4010 N   0  0  0  0  0  0  0  0  0  0  0  0
   -7.5300   21.0790  -31.5250 S   0  0  0  0  0  0  0  0  0  0  0  0
   -8.6500   21.0780  -30.5210 O   0  0  0  0  0  0  0  0  0  0  0  0
   -8.1100   21.2160  -32.9030 O   0  0  0  0  0  0  0  0  0  0  0  0
   -6.4480   22.4370  -31.2300 C   0  0  0  0  0  0  0  0  0  0  0  0
   -6.8210   23.7400  -31.5780 C   0  0  0  0  0  0  0  0  0  0  0  0
   -5.9570   24.8060  -31.3250 C   0  0  0  0  0  0  0  0  0  0  0  0
   -4.7140   24.5840  -30.7210 C   0  0  0  0  0  0  0  0  0  0  0  0
   -3.8810   25.6730  -30.4910 O   0  0  0  0  0  0  0  0  0  0  0  0
   -4.3240   23.2740  -30.3620 C   0  0  0  0  0  0  0  0  0  0  0  0
   -3.0150   22.9940  -29.7170 C   0  0  0  0  0  0  0  0  0  0  0  0
   -2.1600   23.9680  -29.3010 N   0  0  0  0  0  0  0  0  0  0  0  0
   -1.1400   23.2610  -28.7950 C   0  0  0  0  0  0  0  0  0  0  0  0
    0.0420   23.7120  -28.2330 C   0  0  0  0  0  0  0  0  0  0  0  0
    0.2890   24.9410  -28.1170 O   0  0  0  0  0  0  0  0  0  0  0  0
    0.9410   22.7790  -27.8110 N   0  0  0  0  0  0  0  0  0  0  0  0
    0.6900   21.4360  -27.9320 C   0  0  0  0  0  0  0  0  0  0  0  0
    1.5620   20.6150  -27.5410 O   0  0  0  0  0  0  0  0  0  0  0  0
   -0.4960   20.9930  -28.4790 N   0  0  0  0  0  0  0  0  0  0  0  0
   -0.7810   19.5610  -28.6600 C   0  0  0  0  0  0  0  0  0  0  0  0
   -0.0470   19.0270  -29.8930 C   0  0  0  0  0  0  0  0  0  0  0  0
   -0.4940   19.7510  -31.1340 C   0  0  0  0  0  0  0  0  0  0  0  0
    0.4260   20.4980  -31.8880 C   0  0  0  0  0  0  0  0  0  0  0  0
    0.0030   21.1910  -33.0270 C   0  0  0  0  0  0  0  0  0  0  0  0
   -1.3390   21.1510  -33.4150 C   0  0  0  0  0  0  0  0  0  0  0  0
   -2.2630   20.4250  -32.6590 C   0  0  0  0  0  0  0  0  0  0  0  0
   -1.8450   19.7300  -31.5200 C   0  0  0  0  0  0  0  0  0  0  0  0
   -1.3800   21.9380  -28.9060 C   0  0  0  0  0  0  0  0  0  0  0  0
   -2.5690   21.7280  -29.4910 N   0  0  0  0  0  0  0  0  0  0  0  0
   -5.2060   22.2090  -30.6260 C   0  0  0  0  0  0  0  0  0  0  0  0
   -5.4820   19.6190  -32.3300 C   0  0  0  0  0  0  0  0  0  0  0  0
   -4.9410   18.2060  -32.5850 C   0  0  0  0  0  0  0  0  0  0  0  0
   -4.8854   16.3894  -34.7476 H   0  0  0  0  0  0  0  0  0  0  0  0
   -6.6224   16.6920  -35.0911 H   0  0  0  0  0  0  0  0  0  0  0  0
   -5.4556   18.0578  -35.0911 H   0  0  0  0  0  0  0  0  0  0  0  0
   -7.6232   18.4912  -33.7389 H   0  0  0  0  0  0  0  0  0  0  0  0
   -8.0160   16.8812  -33.0127 H   0  0  0  0  0  0  0  0  0  0  0  0
   -8.5606   18.7352  -31.4648 H   0  0  0  0  0  0  0  0  0  0  0  0
   -7.2367   17.6631  -30.8252 H   0  0  0  0  0  0  0  0  0  0  0  0
   -7.7966   23.9241  -32.0516 H   0  0  0  0  0  0  0  0  0  0  0  0
   -6.2548   25.8280  -31.6022 H   0  0  0  0  0  0  0  0  0  0  0  0
   -0.4455   19.0085  -27.7699 H   0  0  0  0  0  0  0  0  0  0  0  0
   -1.8636   19.4257  -28.8004 H   0  0  0  0  0  0  0  0  0  0  0  0
    1.0352   19.1727  -29.7601 H   0  0  0  0  0  0  0  0  0  0  0  0
   -0.2774   17.9573  -30.0056 H   0  0  0  0  0  0  0  0  0  0  0  0
    1.4818   20.5381  -31.5820 H   0  0  0  0  0  0  0  0  0  0  0  0
    0.7283   21.7688  -33.6187 H   0  0  0  0  0  0  0  0  0  0  0  0
   -1.6678   21.6909  -34.3153 H   0  0  0  0  0  0  0  0  0  0  0  0
   -3.3206   20.4002  -32.9603 H   0  0  0  0  0  0  0  0  0  0  0  0
   -2.5765   19.1647  -30.9239 H   0  0  0  0  0  0  0  0  0  0  0  0
   -4.9152   21.1836  -30.3539 H   0  0  0  0  0  0  0  0  0  0  0  0
   -5.8046   20.0584  -33.2854 H   0  0  0  0  0  0  0  0  0  0  0  0
   -4.6823   20.2240  -31.8779 H   0  0  0  0  0  0  0  0  0  0  0  0
   -4.0842   18.2739  -33.2716 H   0  0  0  0  0  0  0  0  0  0  0  0
   -4.6462   17.7787  -31.6152 H   0  0  0  0  0  0  0  0  0  0  0  0
  1  2  1  0
  2  3  1  0
  3  4  1  0
  4  5  1  0
  5  6  1  0
  6  7  2  0
  6  8  2  0
  6  9  1  0
  9 10  2  0
 10 11  1  0
 11 12  2  0
 12 13  1  0
 12 14  1  0
 14 15  1  0
 15 16  2  0
 16 17  1  0
 17 18  1  0
 18 19  2  0
 18 20  1  0
 20 21  1  0
 21 22  2  0
 21 23  1  0
 23 24  1  0
 24 25  1  0
 25 26  1  0
 26 27  2  0
 27 28  1  0
 28 29  2  0
 29 30  1  0
 30 31  2  0
 23 32  1  0
 32 33  1  0
 14 34  2  0
  5 35  1  0
 35 36  1  0
 36  2  1  0
 34  9  1  0
 33 15  1  0
 32 17  2  0
 31 26  1  0
  1 37  1  0
  1 38  1  0
  1 39  1  0
  3 40  1  0
  3 41  1  0
  4 42  1  0
  4 43  1  0
 10 44  1  0
 11 45  1  0
 24 46  1  0
 24 47  1  0
 25 48  1  0
 25 49  1  0
 27 50  1  0
 28 51  1  0
 29 52  1  0
 30 53  1  0
 31 54  1  0
 34 55  1  0
 35 56  1  0
 35 57  1  0
 36 58  1  0
 36 59  1  0
M  CHG  3  13  -1  20  -1  33  -1
M  END
>  <UniqueID>  (9) 
9

>  <SMILES>  (9) 
CN1CCN(S(=O)(=O)c2ccc([O-])c(-c3nc4c(=O)[n-]c(=O)n(CCc5ccccc5)c4[n-]3)c2)CC1

>  <Energy>  (9) 
112.94008069643147

>  <Genealogy>  (9) 
CN1CCN(S(=O)(=O)c2ccc([O-])c(-c3nc4c(=O)[n-]c(=O)n(CCc5ccccc5)c4[n-]3)c2)CC1 (protonated)
CN1CCN(S(=O)(=O)c2ccc([O-])c(-c3nc4c(=O)[n-]c(=O)n(CCc5ccccc5)c4[n-]3)c2)CC1 (3D coordinates assigned)
CN1CCN(S(=O)(=O)c2ccc([O-])c(-c3nc4c(=O)[n-]c(=O)n(CCc5ccccc5)c4[n-]3)c2)CC1 (nonaromatic ring conformer: 112.94008069643147 kcal/mol)

>  <smiles>  (9) 
CN1CCN(S(=O)(=O)c2ccc(O)c(-c3nc4c(=O)[nH]c(=O)n(CCc5ccccc5)c4[nH]3)c2)CC1

>  <score_type>  (9) 
oracle

>  <origin>  (9) 
adgpu

>  <m_score__min__energy>  (9) 
-13.699999999999999

>  <m_primary>  (9) 
energy

$$$$
9:0
     RDKit          3D

 48 51  0  0  0  0  0  0  0  0999 V2000
   -4.5990   22.8620  -28.2460 N   0  0  0  0  0  0  0  0  0  0  0  0
   -4.2830   22.5910  -29.3260 C   0  0  0  0  0  0  0  0  0  0  0  0
   -3.8870   22.2500  -30.6750 C   0  0  0  0  0  0  0  0  0  0  0  0
   -4.7410   22.5590  -31.7550 C   0  0  0  0  0  0  0  0  0  0  0  0
   -6.3120   23.4060  -31.5070 S   0  0  0  0  0  0  0  0  0  0  0  0
   -7.2690   21.9040  -31.7150 C   0  0  0  0  0  0  0  0  0  0  0  0
   -6.6340   20.6550  -31.6680 C   0  0  0  0  0  0  0  0  0  0  0  0
   -7.3780   19.4830  -31.8340 C   0  0  0  0  0  0  0  0  0  0  0  0
   -8.7600   19.5550  -32.0410 C   0  0  0  0  0  0  0  0  0  0  0  0
   -9.3980   20.7980  -32.0800 C   0  0  0  0  0  0  0  0  0  0  0  0
   -8.6550   21.9720  -31.9150 C   0  0  0  0  0  0  0  0  0  0  0  0
   -4.3760   22.1980  -33.0570 C   0  0  0  0  0  0  0  0  0  0  0  0
   -3.1650   21.5500  -33.2940 C   0  0  0  0  0  0  0  0  0  0  0  0
   -2.3090   21.2530  -32.2350 C   0  0  0  0  0  0  0  0  0  0  0  0
   -2.6560   21.5970  -30.9180 C   0  0  0  0  0  0  0  0  0  0  0  0
   -1.5490   21.2050  -29.5890 S   0  0  0  0  0  0  0  0  0  0  0  0
   -0.2170   20.8020  -30.1570 O   0  0  0  0  0  0  0  0  0  0  0  0
   -2.1070   20.0520  -28.8000 O   0  0  0  0  0  0  0  0  0  0  0  0
   -1.3180   22.5720  -28.5020 C   0  0  0  0  0  0  0  0  0  0  0  0
   -1.1490   22.3580  -27.1290 C   0  0  0  0  0  0  0  0  0  0  0  0
   -0.9890   23.4420  -26.2610 C   0  0  0  0  0  0  0  0  0  0  0  0
   -1.0080   24.7590  -26.7530 C   0  0  0  0  0  0  0  0  0  0  0  0
   -0.8330   25.8820  -25.8640 N   0  0  0  0  0  0  0  0  0  0  0  0
   -0.7980   25.7900  -24.4130 C   0  0  0  0  0  0  0  0  0  0  0  0
   -0.8320   27.2390  -23.8930 C   0  0  0  0  0  0  0  0  0  0  0  0
   -0.5670   28.1550  -25.0960 C   0  0  0  0  0  0  0  0  0  0  0  0
   -0.6480   27.2360  -26.2460 C   0  0  0  0  0  0  0  0  0  0  0  0
   -0.4950   27.6060  -27.4410 O   0  0  0  0  0  0  0  0  0  0  0  0
   -1.1700   24.9660  -28.1340 C   0  0  0  0  0  0  0  0  0  0  0  0
   -1.3310   23.8810  -29.0000 C   0  0  0  0  0  0  0  0  0  0  0  0
   -5.5484   20.5970  -31.5002 H   0  0  0  0  0  0  0  0  0  0  0  0
   -6.8769   18.5043  -31.8019 H   0  0  0  0  0  0  0  0  0  0  0  0
   -9.3447   18.6327  -32.1731 H   0  0  0  0  0  0  0  0  0  0  0  0
  -10.4848   20.8533  -32.2405 H   0  0  0  0  0  0  0  0  0  0  0  0
   -9.1588   22.9494  -31.9422 H   0  0  0  0  0  0  0  0  0  0  0  0
   -5.0480   22.4268  -33.8972 H   0  0  0  0  0  0  0  0  0  0  0  0
   -2.8839   21.2720  -34.3205 H   0  0  0  0  0  0  0  0  0  0  0  0
   -1.3535   20.7449  -32.4322 H   0  0  0  0  0  0  0  0  0  0  0  0
   -1.1421   21.3324  -26.7314 H   0  0  0  0  0  0  0  0  0  0  0  0
   -0.8472   23.2633  -25.1849 H   0  0  0  0  0  0  0  0  0  0  0  0
   -1.6711   25.2315  -24.0446 H   0  0  0  0  0  0  0  0  0  0  0  0
    0.1004   25.2589  -24.0653 H   0  0  0  0  0  0  0  0  0  0  0  0
   -1.8180   27.4614  -23.4591 H   0  0  0  0  0  0  0  0  0  0  0  0
   -0.0755   27.3922  -23.1093 H   0  0  0  0  0  0  0  0  0  0  0  0
   -1.3309   28.9433  -25.1669 H   0  0  0  0  0  0  0  0  0  0  0  0
    0.3969   28.6812  -25.0324 H   0  0  0  0  0  0  0  0  0  0  0  0
   -1.1700   25.9899  -28.5361 H   0  0  0  0  0  0  0  0  0  0  0  0
   -1.4685   24.0558  -30.0773 H   0  0  0  0  0  0  0  0  0  0  0  0
  1  2  3  0
  2  3  1  0
  3  4  2  0
  4  5  1  0
  5  6  1  0
  6  7  2  0
  7  8  1  0
  8  9  2  0
  9 10  1  0
 10 11  2  0
  4 12  1  0
 12 13  2  0
 13 14  1  0
 14 15  2  0
 15 16  1  0
 16 17  2  0
 16 18  2  0
 16 19  1  0
 19 20  2  0
 20 21  1  0
 21 22  2  0
 22 23  1  0
 23 24  1  0
 24 25  1  0
 25 26  1  0
 26 27  1  0
 27 28  2  0
 22 29  1  0
 29 30  2  0
 15  3  1  0
 30 19  1  0
 11  6  1  0
 27 23  1  0
  7 31  1  0
  8 32  1  0
  9 33  1  0
 10 34  1  0
 11 35  1  0
 12 36  1  0
 13 37  1  0
 14 38  1  0
 20 39  1  0
 21 40  1  0
 24 41  1  0
 24 42  1  0
 25 43  1  0
 25 44  1  0
 26 45  1  0
 26 46  1  0
 29 47  1  0
 30 48  1  0
M  END
>  <UniqueID>  (10) 
10

>  <SMILES>  (10) 
N#Cc1c(Sc2ccccc2)cccc1S(=O)(=O)c1ccc(N2CCCC2=O)cc1

>  <Energy>  (10) 
62.03855398603886

>  <Genealogy>  (10) 
N#Cc1c(Sc2ccccc2)cccc1S(=O)(=O)c1ccc(N2CCCC2=O)cc1 (3D coordinates assigned)
N#Cc1c(Sc2ccccc2)cccc1S(=O)(=O)c1ccc(N2CCCC2=O)cc1 (nonaromatic ring conformer: 62.03855398603886 kcal/mol)

>  <smiles>  (10) 
N#Cc1c(Sc2ccccc2)cccc1S(=O)(=O)c1ccc(N2CCCC2=O)cc1

>  <score_type>  (10) 
oracle

>  <origin>  (10) 
adgpu

>  <m_score__min__energy>  (10) 
-10.41

>  <m_primary>  (10) 
energy

$$$$
10:0
     RDKit          3D

 61 64  0  0  0  0  0  0  0  0999 V2000
   -6.8270   15.8200  -33.9080 C   0  0  0  0  0  0  0  0  0  0  0  0
   -5.7900   16.8600  -33.8090 N   0  0  0  0  0  0  0  0  0  0  0  0
   -6.0820   17.9890  -34.7330 C   0  0  0  0  0  0  0  0  0  0  0  0
   -5.6550   19.3500  -34.1740 C   0  0  0  0  0  0  0  0  0  0  0  0
   -6.2860   19.5540  -32.8700 N   0  0  0  0  0  0  0  0  0  0  0  0
   -6.5730   20.8880  -32.4330 C   0  0  0  0  0  0  0  0  0  0  0  0
   -7.8530   21.1920  -31.9480 C   0  0  0  0  0  0  0  0  0  0  0  0
   -8.1170   22.4470  -31.3940 C   0  0  0  0  0  0  0  0  0  0  0  0
   -7.0980   23.3970  -31.2960 C   0  0  0  0  0  0  0  0  0  0  0  0
   -5.8170   23.0990  -31.7670 C   0  0  0  0  0  0  0  0  0  0  0  0
   -5.5530   21.8590  -32.3650 C   0  0  0  0  0  0  0  0  0  0  0  0
   -3.9060   21.5040  -33.0000 S   0  0  0  0  0  0  0  0  0  0  0  0
   -3.1280   21.5260  -31.3800 C   0  0  0  0  0  0  0  0  0  0  0  0
   -1.9820   22.3040  -31.1810 C   0  0  0  0  0  0  0  0  0  0  0  0
   -1.3540   22.3270  -29.9330 C   0  0  0  0  0  0  0  0  0  0  0  0
   -1.8600   21.5600  -28.8760 C   0  0  0  0  0  0  0  0  0  0  0  0
   -1.0580   21.5870  -27.3080 S   0  0  0  0  0  0  0  0  0  0  0  0
   -1.7890   20.6500  -26.3880 O   0  0  0  0  0  0  0  0  0  0  0  0
    0.3650   21.1230  -27.4570 O   0  0  0  0  0  0  0  0  0  0  0  0
   -1.0770   23.2130  -26.6590 N   0  0  0  0  0  0  0  0  0  0  0  0
   -2.3760   23.8750  -26.9470 C   0  0  0  0  0  0  0  0  0  0  0  0
   -2.5420   25.2950  -26.3590 C   0  0  0  0  0  0  0  0  0  0  0  0
   -1.3950   26.2930  -26.6570 C   0  0  0  0  0  0  0  0  0  0  0  0
   -0.1460   26.1600  -25.7710 C   0  0  0  0  0  0  0  0  0  0  0  0
    0.6900   24.8940  -26.0440 C   0  0  0  0  0  0  0  0  0  0  0  0
    0.1300   23.9370  -27.1090 C   0  0  0  0  0  0  0  0  0  0  0  0
   -3.0140   20.7880  -29.0710 C   0  0  0  0  0  0  0  0  0  0  0  0
   -3.6460   20.7710  -30.3190 C   0  0  0  0  0  0  0  0  0  0  0  0
   -6.4240   18.4260  -31.9470 C   0  0  0  0  0  0  0  0  0  0  0  0
   -5.5460   17.2500  -32.3980 C   0  0  0  0  0  0  0  0  0  0  0  0
   -7.1346   15.5116  -32.8979 H   0  0  0  0  0  0  0  0  0  0  0  0
   -7.6967   16.2198  -34.4500 H   0  0  0  0  0  0  0  0  0  0  0  0
   -6.4247   14.9515  -34.4500 H   0  0  0  0  0  0  0  0  0  0  0  0
   -5.5465   17.8152  -35.6780 H   0  0  0  0  0  0  0  0  0  0  0  0
   -7.1721   18.0212  -34.8767 H   0  0  0  0  0  0  0  0  0  0  0  0
   -4.5611   19.3746  -34.0612 H   0  0  0  0  0  0  0  0  0  0  0  0
   -5.9672   20.1474  -34.8644 H   0  0  0  0  0  0  0  0  0  0  0  0
   -8.6529   20.4389  -32.0040 H   0  0  0  0  0  0  0  0  0  0  0  0
   -9.1285   22.6872  -31.0346 H   0  0  0  0  0  0  0  0  0  0  0  0
   -7.3041   24.3802  -30.8478 H   0  0  0  0  0  0  0  0  0  0  0  0
   -5.0113   23.8413  -31.6681 H   0  0  0  0  0  0  0  0  0  0  0  0
   -1.5738   22.9000  -32.0106 H   0  0  0  0  0  0  0  0  0  0  0  0
   -0.4598   22.9492  -29.7803 H   0  0  0  0  0  0  0  0  0  0  0  0
   -2.4862   23.9451  -28.0392 H   0  0  0  0  0  0  0  0  0  0  0  0
   -3.1455   23.2552  -26.4635 H   0  0  0  0  0  0  0  0  0  0  0  0
   -3.4718   25.7204  -26.7646 H   0  0  0  0  0  0  0  0  0  0  0  0
   -2.5448   25.1647  -25.2667 H   0  0  0  0  0  0  0  0  0  0  0  0
   -1.0844   26.1480  -27.7022 H   0  0  0  0  0  0  0  0  0  0  0  0
   -1.8056   27.2916  -26.4469 H   0  0  0  0  0  0  0  0  0  0  0  0
    0.4931   27.0389  -25.9414 H   0  0  0  0  0  0  0  0  0  0  0  0
   -0.5013   26.0866  -24.7325 H   0  0  0  0  0  0  0  0  0  0  0  0
    1.6901   25.2145  -26.3712 H   0  0  0  0  0  0  0  0  0  0  0  0
    0.6870   24.3261  -25.1020 H   0  0  0  0  0  0  0  0  0  0  0  0
   -0.1258   24.5213  -28.0052 H   0  0  0  0  0  0  0  0  0  0  0  0
    0.9060   23.1853  -27.3157 H   0  0  0  0  0  0  0  0  0  0  0  0
   -3.4235   20.1941  -28.2406 H   0  0  0  0  0  0  0  0  0  0  0  0
   -4.5512   20.1639  -30.4678 H   0  0  0  0  0  0  0  0  0  0  0  0
   -6.1151   18.7427  -30.9399 H   0  0  0  0  0  0  0  0  0  0  0  0
   -7.4750   18.1014  -31.9374 H   0  0  0  0  0  0  0  0  0  0  0  0
   -4.4899   17.5380  -32.2903 H   0  0  0  0  0  0  0  0  0  0  0  0
   -5.7989   16.3857  -31.7663 H   0  0  0  0  0  0  0  0  0  0  0  0
  1  2  1  0
  2  3  1  0
  3  4  1  0
  4  5  1  0
  5  6  1  0
  6  7  2  0
  7  8  1  0
  8  9  2  0
  9 10  1  0
 10 11  2  0
 11 12  1  0
 12 13  1  0
 13 14  2  0
 14 15  1  0
 15 16  2  0
 16 17  1  0
 17 18  2  0
 17 19  2  0
 17 20  1  0
 20 21  1  0
 21 22  1  0
 22 23  1  0
 23 24  1  0
 24 25  1  0
 25 26  1  0
 16 27  1  0
 27 28  2  0
  5 29  1  0
 29 30  1  0
 30  2  1  0
 11  6  1  0
 28 13  1  0
 26 20  1  0
  1 31  1  0
  1 32  1  0
  1 33  1  0
  3 34  1  0
  3 35  1  0
  4 36  1  0
  4 37  1  0
  7 38  1  0
  8 39  1  0
  9 40  1  0
 10 41  1  0
 14 42  1  0
 15 43  1  0
 21 44  1  0
 21 45  1  0
 22 46  1  0
 22 47  1  0
 23 48  1  0
 23 49  1  0
 24 50  1  0
 24 51  1  0
 25 52  1  0
 25 53  1  0
 26 54  1  0
 26 55  1  0
 27 56  1  0
 28 57  1  0
 29 58  1  0
 29 59  1  0
 30 60  1  0
 30 61  1  0
M  END
>  <UniqueID>  (11) 
11

>  <SMILES>  (11) 
CN1CCN(c2ccccc2Sc2ccc(S(=O)(=O)N3CCCCCC3)cc2)CC1

>  <Energy>  (11) 
85.77900845396498

>  <Genealogy>  (11) 
CN1CCN(c2ccccc2Sc2ccc(S(=O)(=O)N3CCCCCC3)cc2)CC1 (3D coordinates assigned)
CN1CCN(c2ccccc2Sc2ccc(S(=O)(=O)N3CCCCCC3)cc2)CC1 (nonaromatic ring conformer: 85.77900845396498 kcal/mol)

>  <smiles>  (11) 
CN1CCN(c2ccccc2Sc2ccc(S(=O)(=O)N3CCCCCC3)cc2)CC1

>  <score_type>  (11) 
oracle

>  <origin>  (11) 
adgpu

>  <m_score__min__energy>  (11) 
-7.25

>  <m_primary>  (11) 
energy

$$$$
11:0
     RDKit          3D

 39 42  0  0  0  0  0  0  0  0999 V2000
   -9.5080   23.0760  -32.3540 O   0  0  0  0  0  0  0  0  0  0  0  0
   -8.7140   21.9460  -31.7640 S   0  0  0  0  0  0  0  0  0  0  0  0
   -9.3110   21.5700  -30.4360 O   0  0  0  0  0  0  0  0  0  0  0  0
   -8.7870   20.5780  -32.8270 N   0  0  0  0  0  0  0  0  0  0  0  0
   -7.8570   19.4850  -32.8390 C   0  0  0  0  0  0  0  0  0  0  0  0
   -6.8690   19.3700  -33.8320 C   0  0  0  0  0  0  0  0  0  0  0  0
   -5.9790   18.2860  -33.8370 C   0  0  0  0  0  0  0  0  0  0  0  0
   -6.0930   17.2860  -32.8520 C   0  0  0  0  0  0  0  0  0  0  0  0
   -7.0590   17.4160  -31.8450 C   0  0  0  0  0  0  0  0  0  0  0  0
   -7.9400   18.5010  -31.8350 C   0  0  0  0  0  0  0  0  0  0  0  0
   -8.8910   18.5820  -30.8170 O   0  0  0  0  0  0  0  0  0  0  0  0
   -5.1170   16.1320  -32.8070 C   0  0  0  0  0  0  0  0  0  0  0  0
   -4.4730   15.8940  -34.1050 N   0  0  0  0  0  0  0  0  0  0  0  0
   -3.8850   17.1330  -34.6290 C   0  0  0  0  0  0  0  0  0  0  0  0
   -4.9750   18.1610  -34.9540 C   0  0  0  0  0  0  0  0  0  0  0  0
   -7.0420   22.4630  -31.5750 C   0  0  0  0  0  0  0  0  0  0  0  0
   -6.0350   21.8800  -32.3810 C   0  0  0  0  0  0  0  0  0  0  0  0
   -4.6880   22.2510  -32.2240 C   0  0  0  0  0  0  0  0  0  0  0  0
   -4.3800   23.2040  -31.2560 C   0  0  0  0  0  0  0  0  0  0  0  0
   -3.1580   23.6790  -30.9540 N   0  0  0  0  0  0  0  0  0  0  0  0
   -3.3950   24.5670  -29.9590 C   0  0  0  0  0  0  0  0  0  0  0  0
   -2.3870   25.2980  -29.3440 O   0  0  0  0  0  0  0  0  0  0  0  0
   -4.7390   24.6600  -29.6300 C   0  0  0  0  0  0  0  0  0  0  0  0
   -5.3550   23.7730  -30.4780 C   0  0  0  0  0  0  0  0  0  0  0  0
   -6.6980   23.4310  -30.6080 C   0  0  0  0  0  0  0  0  0  0  0  0
   -6.7929   20.1393  -34.6145 H   0  0  0  0  0  0  0  0  0  0  0  0
   -7.1246   16.6552  -31.0532 H   0  0  0  0  0  0  0  0  0  0  0  0
   -9.4320   19.4220  -30.6440 H   0  0  0  0  0  0  0  0  0  0  0  0
   -4.3391   16.3558  -32.0622 H   0  0  0  0  0  0  0  0  0  0  0  0
   -5.6805   15.2257  -32.5405 H   0  0  0  0  0  0  0  0  0  0  0  0
   -5.1920   15.5420  -34.7820 H   0  0  0  0  0  0  0  0  0  0  0  0
   -3.2046   17.5557  -33.8751 H   0  0  0  0  0  0  0  0  0  0  0  0
   -3.3364   16.8983  -35.5531 H   0  0  0  0  0  0  0  0  0  0  0  0
   -4.5025   19.1405  -35.1190 H   0  0  0  0  0  0  0  0  0  0  0  0
   -5.5070   17.8212  -35.8548 H   0  0  0  0  0  0  0  0  0  0  0  0
   -6.3089   21.1296  -33.1373 H   0  0  0  0  0  0  0  0  0  0  0  0
   -3.9006   21.8019  -32.8472 H   0  0  0  0  0  0  0  0  0  0  0  0
   -5.2049   25.2983  -28.8648 H   0  0  0  0  0  0  0  0  0  0  0  0
   -7.4668   23.9006  -29.9768 H   0  0  0  0  0  0  0  0  0  0  0  0
  1  2  2  0
  2  3  2  0
  2  4  1  0
  4  5  1  0
  5  6  2  0
  6  7  1  0
  7  8  2  0
  8  9  1  0
  9 10  2  0
 10 11  1  0
  8 12  1  0
 12 13  1  0
 13 14  1  0
 14 15  1  0
  2 16  1  0
 16 17  2  0
 17 18  1  0
 18 19  2  0
 19 20  1  0
 20 21  1  0
 21 22  1  0
 21 23  2  0
 23 24  1  0
 24 25  2  0
 10  5  1  0
 25 16  1  0
 15  7  1  0
 24 19  1  0
  6 26  1  0
  9 27  1  0
 11 28  1  0
 12 29  1  0
 12 30  1  0
 13 31  1  0
 14 32  1  0
 14 33  1  0
 15 34  1  0
 15 35  1  0
 17 36  1  0
 18 37  1  0
 23 38  1  0
 25 39  1  0
M  CHG  3   4  -1  20  -1  22  -1
M  END
>  <UniqueID>  (12) 
12

>  <SMILES>  (12) 
O=S(=O)([N-]c1cc2c(cc1O)CNCC2)c1ccc2[n-]c([O-])cc2c1

>  <Energy>  (12) 
79.88626994760595

>  <Genealogy>  (12) 
O=S(=O)([N-]c1cc2c(cc1O)CNCC2)c1ccc2[n-]c([O-])cc2c1 (protonated)
O=S(=O)([N-]c1cc2c(cc1O)CNCC2)c1ccc2[n-]c([O-])cc2c1 (3D coordinates assigned)
O=S(=O)([N-]c1cc2c(cc1O)CNCC2)c1ccc2[n-]c([O-])cc2c1 (nonaromatic ring conformer: 79.88626994760595 kcal/mol)

>  <smiles>  (12) 
O=S(=O)(Nc1cc2c(cc1O)CNCC2)c1ccc2[nH]c(O)cc2c1

>  <score_type>  (12) 
oracle

>  <origin>  (12) 
adgpu

>  <m_score__min__energy>  (12) 
-12.33

>  <m_primary>  (12) 
energy

$$$$
12:0
     RDKit          3D

 36 37  0  0  0  0  0  0  0  0999 V2000
   -2.5500   24.9830  -26.6790 C   0  0  0  0  0  0  0  0  0  0  0  0
   -1.6170   25.4190  -27.5290 C   0  0  0  0  0  0  0  0  0  0  0  0
   -1.5190   24.8810  -28.9310 C   0  0  0  0  0  0  0  0  0  0  0  0
   -2.5580   23.8830  -29.1770 N   0  0  0  0  0  0  0  0  0  0  0  0
   -3.6090   24.0950  -29.9090 C   0  0  0  0  0  0  0  0  0  0  0  0
   -3.8660   25.2630  -30.5390 N   0  0  0  0  0  0  0  0  0  0  0  0
   -5.0240   25.2510  -31.1930 N   0  0  0  0  0  0  0  0  0  0  0  0
   -5.6830   24.0770  -31.0860 C   0  0  0  0  0  0  0  0  0  0  0  0
   -7.3190   23.8070  -31.7630 S   0  0  0  0  0  0  0  0  0  0  0  0
   -7.6300   22.2550  -30.8460 C   0  0  0  0  0  0  0  0  0  0  0  0
   -7.3120   21.0480  -31.6780 C   0  0  0  0  0  0  0  0  0  0  0  0
   -7.8510   19.9430  -31.3980 O   0  0  0  0  0  0  0  0  0  0  0  0
   -6.3950   21.1570  -32.7780 N   0  0  0  0  0  0  0  0  0  0  0  0
   -5.7150   20.0400  -33.3850 C   0  0  0  0  0  0  0  0  0  0  0  0
   -6.4430   18.9280  -33.8490 C   0  0  0  0  0  0  0  0  0  0  0  0
   -5.7850   17.8140  -34.3730 C   0  0  0  0  0  0  0  0  0  0  0  0
   -4.3920   17.7890  -34.4340 C   0  0  0  0  0  0  0  0  0  0  0  0
   -3.6530   18.8780  -33.9710 C   0  0  0  0  0  0  0  0  0  0  0  0
   -4.3000   20.0100  -33.4460 C   0  0  0  0  0  0  0  0  0  0  0  0
   -3.4750   21.1620  -32.9410 C   0  0  0  0  0  0  0  0  0  0  0  0
   -4.8290   22.9620  -30.1520 S   0  0  0  0  0  0  0  0  0  0  0  0
   -2.5999   25.3929  -25.6594 H   0  0  0  0  0  0  0  0  0  0  0  0
   -3.2687   24.2139  -26.9983 H   0  0  0  0  0  0  0  0  0  0  0  0
   -0.9043   26.1884  -27.1971 H   0  0  0  0  0  0  0  0  0  0  0  0
   -1.6385   25.7096  -29.6445 H   0  0  0  0  0  0  0  0  0  0  0  0
   -0.5354   24.4052  -29.0585 H   0  0  0  0  0  0  0  0  0  0  0  0
   -7.0015   22.2418  -29.9433 H   0  0  0  0  0  0  0  0  0  0  0  0
   -8.6974   22.2194  -30.5826 H   0  0  0  0  0  0  0  0  0  0  0  0
   -6.1860   22.1160  -33.1360 H   0  0  0  0  0  0  0  0  0  0  0  0
   -7.5418   18.9371  -33.7981 H   0  0  0  0  0  0  0  0  0  0  0  0
   -6.3662   16.9545  -34.7384 H   0  0  0  0  0  0  0  0  0  0  0  0
   -3.8756   16.9101  -34.8474 H   0  0  0  0  0  0  0  0  0  0  0  0
   -2.5543   18.8505  -34.0172 H   0  0  0  0  0  0  0  0  0  0  0  0
   -3.4766   21.1597  -31.8410 H   0  0  0  0  0  0  0  0  0  0  0  0
   -2.4423   21.0614  -33.3064 H   0  0  0  0  0  0  0  0  0  0  0  0
   -3.9028   22.1073  -33.3064 H   0  0  0  0  0  0  0  0  0  0  0  0
  1  2  2  0
  2  3  1  0
  3  4  1  0
  4  5  2  3
  5  6  1  0
  6  7  1  0
  7  8  2  0
  8  9  1  0
  9 10  1  0
 10 11  1  0
 11 12  2  0
 11 13  1  0
 13 14  1  0
 14 15  2  0
 15 16  1  0
 16 17  2  0
 17 18  1  0
 18 19  2  0
 19 20  1  0
  8 21  1  0
 21  5  1  0
 19 14  1  0
  1 22  1  0
  1 23  1  0
  2 24  1  0
  3 25  1  0
  3 26  1  0
 10 27  1  0
 10 28  1  0
 13 29  1  0
 15 30  1  0
 16 31  1  0
 17 32  1  0
 18 33  1  0
 20 34  1  0
 20 35  1  0
 20 36  1  0
M  CHG  1   6  -1
M  END
>  <UniqueID>  (13) 
13

>  <SMILES>  (13) 
C=CCN=c1[n-]nc(SCC(=O)Nc2ccccc2C)s1

>  <Energy>  (13) 
62.943904173465235

>  <Genealogy>  (13) 
C=CCN=c1[n-]nc(SCC(=O)Nc2ccccc2C)s1 (protonated)
C=CCN=c1[n-]nc(SCC(=O)Nc2ccccc2C)s1 (3D coordinates assigned)
C=CCN=c1[n-]nc(SCC(=O)Nc2ccccc2C)s1 (optimized conformer: 62.943904173465235 kcal/mol)

>  <smiles>  (13) 
C=CCN=c1[nH]nc(SCC(=O)Nc2ccccc2C)s1

>  <score_type>  (13) 
oracle

>  <origin>  (13) 
adgpu

>  <m_score__min__energy>  (13) 
-9.3699999999999992

>  <m_primary>  (13) 
energy

$$$$
13:0
     RDKit          3D

 39 41  0  0  0  0  0  0  0  0999 V2000
   -0.4740   22.5530  -24.6240 C   0  0  0  0  0  0  0  0  0  0  0  0
   -0.6710   23.5250  -25.7490 C   0  0  0  0  0  0  0  0  0  0  0  0
    0.0220   24.7410  -25.7580 C   0  0  0  0  0  0  0  0  0  0  0  0
   -0.1380   25.6340  -26.8180 C   0  0  0  0  0  0  0  0  0  0  0  0
   -0.9800   25.3230  -27.8970 C   0  0  0  0  0  0  0  0  0  0  0  0
   -1.1770   26.3050  -28.9230 N   0  0  0  0  0  0  0  0  0  0  0  0
   -1.6490   24.0730  -27.9200 C   0  0  0  0  0  0  0  0  0  0  0  0
   -2.4770   23.6400  -29.0680 C   0  0  0  0  0  0  0  0  0  0  0  0
   -3.1210   24.4970  -29.7310 O   0  0  0  0  0  0  0  0  0  0  0  0
   -2.5380   22.2500  -29.4260 N   0  0  0  0  0  0  0  0  0  0  0  0
   -3.0660   21.7540  -30.6660 C   0  0  0  0  0  0  0  0  0  0  0  0
   -2.4510   21.7650  -31.9100 C   0  0  0  0  0  0  0  0  0  0  0  0
   -3.3160   21.1070  -32.7620 C   0  0  0  0  0  0  0  0  0  0  0  0
   -4.4070   20.7060  -32.0830 N   0  0  0  0  0  0  0  0  0  0  0  0
   -5.7240   19.7860  -32.7300 S   0  0  0  0  0  0  0  0  0  0  0  0
   -5.7040   18.4100  -32.1270 O   0  0  0  0  0  0  0  0  0  0  0  0
   -5.5800   19.6720  -34.2210 O   0  0  0  0  0  0  0  0  0  0  0  0
   -7.2360   20.5830  -32.3420 C   0  0  0  0  0  0  0  0  0  0  0  0
   -8.4890   19.9880  -32.3370 C   0  0  0  0  0  0  0  0  0  0  0  0
   -9.5120   20.8790  -31.9930 C   0  0  0  0  0  0  0  0  0  0  0  0
   -9.0660   22.1680  -31.7300 C   0  0  0  0  0  0  0  0  0  0  0  0
   -7.3940   22.2020  -31.9250 S   0  0  0  0  0  0  0  0  0  0  0  0
   -4.2620   21.0830  -30.8010 C   0  0  0  0  0  0  0  0  0  0  0  0
   -1.4890   23.1900  -26.8370 C   0  0  0  0  0  0  0  0  0  0  0  0
   -0.5804   23.0778  -23.6631 H   0  0  0  0  0  0  0  0  0  0  0  0
   -1.2288   21.7557  -24.6919 H   0  0  0  0  0  0  0  0  0  0  0  0
    0.5317   22.1125  -24.6919 H   0  0  0  0  0  0  0  0  0  0  0  0
    0.6956   24.9937  -24.9259 H   0  0  0  0  0  0  0  0  0  0  0  0
    0.4017   26.5924  -26.8080 H   0  0  0  0  0  0  0  0  0  0  0  0
   -1.6150   26.0400  -29.8330 H   0  0  0  0  0  0  0  0  0  0  0  0
   -0.7900   27.2700  -28.8460 H   0  0  0  0  0  0  0  0  0  0  0  0
   -2.2170   21.5460  -28.7230 H   0  0  0  0  0  0  0  0  0  0  0  0
   -1.4762   22.2065  -32.1647 H   0  0  0  0  0  0  0  0  0  0  0  0
   -3.1400   20.9362  -33.8343 H   0  0  0  0  0  0  0  0  0  0  0  0
   -8.6604   18.9285  -32.5778 H   0  0  0  0  0  0  0  0  0  0  0  0
  -10.5707   20.5858  -31.9362 H   0  0  0  0  0  0  0  0  0  0  0  0
   -9.6978   23.0215  -31.4431 H   0  0  0  0  0  0  0  0  0  0  0  0
   -4.9808   20.8877  -29.9916 H   0  0  0  0  0  0  0  0  0  0  0  0
   -2.0131   22.2229  -26.8438 H   0  0  0  0  0  0  0  0  0  0  0  0
  1  2  1  0
  2  3  2  0
  3  4  1  0
  4  5  2  0
  5  6  1  0
  5  7  1  0
  7  8  1  0
  8  9  2  0
  8 10  1  0
 10 11  1  0
 11 12  1  0
 12 13  2  0
 13 14  1  0
 14 15  1  0
 15 16  2  0
 15 17  2  0
 15 18  1  0
 18 19  2  0
 19 20  1  0
 20 21  2  0
 21 22  1  0
 14 23  1  0
  7 24  2  0
 24  2  1  0
 23 11  2  0
 22 18  1  0
  1 25  1  0
  1 26  1  0
  1 27  1  0
  3 28  1  0
  4 29  1  0
  6 30  1  0
  6 31  1  0
 10 32  1  0
 12 33  1  0
 13 34  1  0
 19 35  1  0
 20 36  1  0
 21 37  1  0
 23 38  1  0
 24 39  1  0
M  END
>  <UniqueID>  (14) 
14

>  <SMILES>  (14) 
Cc1ccc(N)c(C(=O)Nc2ccn(S(=O)(=O)c3cccs3)c2)c1

>  <Energy>  (14) 
101.89521739833764

>  <Genealogy>  (14) 
Cc1ccc(N)c(C(=O)Nc2ccn(S(=O)(=O)c3cccs3)c2)c1 (3D coordinates assigned)
Cc1ccc(N)c(C(=O)Nc2ccn(S(=O)(=O)c3cccs3)c2)c1 (optimized conformer: 101.89521739833764 kcal/mol)

>  <smiles>  (14) 
Cc1ccc(N)c(C(=O)Nc2ccn(S(=O)(=O)c3cccs3)c2)c1

>  <score_type>  (14) 
oracle

>  <origin>  (14) 
adgpu

>  <m_score__min__energy>  (14) 
-9.2400000000000002

>  <m_primary>  (14) 
energy

$$$$
14:0
     RDKit          3D

 41 43  0  0  0  0  0  0  0  0999 V2000
   -3.5080   20.8620  -29.8780 C   0  0  0  0  0  0  0  0  0  0  0  0
   -3.1550   22.3170  -29.8060 C   0  0  0  0  0  0  0  0  0  0  0  0
   -1.9060   22.6320  -29.3690 N   0  0  0  0  0  0  0  0  0  0  0  0
   -1.4740   23.9140  -29.3060 C   0  0  0  0  0  0  0  0  0  0  0  0
   -0.3150   24.1670  -28.8900 O   0  0  0  0  0  0  0  0  0  0  0  0
   -2.2890   24.9210  -29.6960 N   0  0  0  0  0  0  0  0  0  0  0  0
   -3.5450   24.6760  -30.1460 C   0  0  0  0  0  0  0  0  0  0  0  0
   -4.2610   25.6500  -30.5020 O   0  0  0  0  0  0  0  0  0  0  0  0
   -4.0370   23.3550  -30.2050 C   0  0  0  0  0  0  0  0  0  0  0  0
   -5.7030   23.0580  -30.7920 S   0  0  0  0  0  0  0  0  0  0  0  0
   -6.4500   22.2930  -29.7350 O   0  0  0  0  0  0  0  0  0  0  0  0
   -6.4350   24.3560  -30.9830 O   0  0  0  0  0  0  0  0  0  0  0  0
   -5.7570   22.1220  -32.2750 N   0  0  0  0  0  0  0  0  0  0  0  0
   -6.1990   20.7330  -32.0210 C   0  0  0  0  0  0  0  0  0  0  0  0
   -5.8270   19.7910  -33.1710 C   0  0  0  0  0  0  0  0  0  0  0  0
   -4.3720   19.8120  -33.3790 N   0  0  0  0  0  0  0  0  0  0  0  0
   -3.6910   18.6640  -33.9310 C   0  0  0  0  0  0  0  0  0  0  0  0
   -2.2920   18.5440  -33.8310 C   0  0  0  0  0  0  0  0  0  0  0  0
   -1.6340   17.4330  -34.3660 C   0  0  0  0  0  0  0  0  0  0  0  0
   -2.3600   16.4270  -35.0090 C   0  0  0  0  0  0  0  0  0  0  0  0
   -1.6900   15.3260  -35.5370 O   0  0  0  0  0  0  0  0  0  0  0  0
   -3.7510   16.5350  -35.1150 C   0  0  0  0  0  0  0  0  0  0  0  0
   -4.4130   17.6450  -34.5800 C   0  0  0  0  0  0  0  0  0  0  0  0
   -3.6190   21.0160  -32.9970 C   0  0  0  0  0  0  0  0  0  0  0  0
   -4.5260   22.2500  -33.0880 C   0  0  0  0  0  0  0  0  0  0  0  0
   -3.6061   20.4577  -28.8597 H   0  0  0  0  0  0  0  0  0  0  0  0
   -4.4613   20.7420  -30.4136 H   0  0  0  0  0  0  0  0  0  0  0  0
   -2.7157   20.3185  -30.4136 H   0  0  0  0  0  0  0  0  0  0  0  0
   -5.7217   20.3719  -31.0981 H   0  0  0  0  0  0  0  0  0  0  0  0
   -7.2950   20.7377  -31.9276 H   0  0  0  0  0  0  0  0  0  0  0  0
   -6.1460   18.7679  -32.9231 H   0  0  0  0  0  0  0  0  0  0  0  0
   -6.3309   20.1229  -34.0907 H   0  0  0  0  0  0  0  0  0  0  0  0
   -1.7117   19.3313  -33.3275 H   0  0  0  0  0  0  0  0  0  0  0  0
   -0.5405   17.3502  -34.2806 H   0  0  0  0  0  0  0  0  0  0  0  0
   -1.3230   15.3320  -36.4810 H   0  0  0  0  0  0  0  0  0  0  0  0
   -4.3255   15.7448  -35.6205 H   0  0  0  0  0  0  0  0  0  0  0  0
   -5.5068   17.7221  -34.6672 H   0  0  0  0  0  0  0  0  0  0  0  0
   -3.2549   20.9063  -31.9648 H   0  0  0  0  0  0  0  0  0  0  0  0
   -2.7665   21.1420  -33.6806 H   0  0  0  0  0  0  0  0  0  0  0  0
   -3.9624   23.1265  -32.7358 H   0  0  0  0  0  0  0  0  0  0  0  0
   -4.8340   22.3563  -34.1386 H   0  0  0  0  0  0  0  0  0  0  0  0
  1  2  1  0
  2  3  1  0
  3  4  1  0
  4  5  2  0
  4  6  1  0
  6  7  1  0
  7  8  2  0
  7  9  1  0
  9 10  1  0
 10 11  2  0
 10 12  2  0
 10 13  1  0
 13 14  1  0
 14 15  1  0
 15 16  1  0
 16 17  1  0
 17 18  2  0
 18 19  1  0
 19 20  2  0
 20 21  1  0
 20 22  1  0
 22 23  2  0
 16 24  1  0
 24 25  1  0
  9  2  2  0
 25 13  1  0
 23 17  1  0
  1 26  1  0
  1 27  1  0
  1 28  1  0
 14 29  1  0
 14 30  1  0
 15 31  1  0
 15 32  1  0
 18 33  1  0
 19 34  1  0
 21 35  1  0
 22 36  1  0
 23 37  1  0
 24 38  1  0
 24 39  1  0
 25 40  1  0
 25 41  1  0
M  CHG  2   3  -1   6  -1
M  END
>  <UniqueID>  (15) 
15

>  <SMILES>  (15) 
Cc1[n-]c(=O)[n-]c(=O)c1S(=O)(=O)N1CCN(c2ccc(O)cc2)CC1

>  <Energy>  (15) 
57.370915942394575

>  <Genealogy>  (15) 
Cc1[n-]c(=O)[n-]c(=O)c1S(=O)(=O)N1CCN(c2ccc(O)cc2)CC1 (protonated)
Cc1[n-]c(=O)[n-]c(=O)c1S(=O)(=O)N1CCN(c2ccc(O)cc2)CC1 (3D coordinates assigned)
Cc1[n-]c(=O)[n-]c(=O)c1S(=O)(=O)N1CCN(c2ccc(O)cc2)CC1 (nonaromatic ring conformer: 57.370915942394575 kcal/mol)

>  <smiles>  (15) 
Cc1[nH]c(=O)[nH]c(=O)c1S(=O)(=O)N1CCN(c2ccc(O)cc2)CC1

>  <score_type>  (15) 
oracle

>  <origin>  (15) 
adgpu

>  <m_score__min__energy>  (15) 
-9.5

>  <m_primary>  (15) 
energy

$$$$
15:0
     RDKit          3D

 46 48  0  0  0  0  0  0  0  0999 V2000
   -5.4810   16.1810  -33.1950 C   0  0  0  0  0  0  0  0  0  0  0  0
   -5.8060   17.5600  -32.8010 N   0  0  0  0  0  0  0  0  0  0  0  0
   -5.4000   18.5130  -33.8600 C   0  0  0  0  0  0  0  0  0  0  0  0
   -6.1560   19.8590  -33.8020 C   0  0  0  0  0  0  0  0  0  0  0  0
   -6.7440   20.0980  -32.4770 N   0  0  0  0  0  0  0  0  0  0  0  0
   -6.7810   21.4300  -31.9300 C   0  0  0  0  0  0  0  0  0  0  0  0
   -5.5850   22.0510  -31.5330 C   0  0  0  0  0  0  0  0  0  0  0  0
   -5.6000   23.3400  -30.9830 C   0  0  0  0  0  0  0  0  0  0  0  0
   -4.0920   24.0930  -30.4740 S   0  0  0  0  0  0  0  0  0  0  0  0
   -4.1160   25.5650  -30.7860 O   0  0  0  0  0  0  0  0  0  0  0  0
   -2.9520   23.4530  -31.2130 O   0  0  0  0  0  0  0  0  0  0  0  0
   -3.8600   23.8700  -28.7660 N   0  0  0  0  0  0  0  0  0  0  0  0
   -2.4480   23.6270  -28.4820 C   0  0  0  0  0  0  0  0  0  0  0  0
   -1.9530   24.6730  -27.5220 C   0  0  0  0  0  0  0  0  0  0  0  0
   -2.0260   24.4380  -26.1390 C   0  0  0  0  0  0  0  0  0  0  0  0
   -1.5340   25.3840  -25.2350 C   0  0  0  0  0  0  0  0  0  0  0  0
   -0.9550   26.5650  -25.7040 C   0  0  0  0  0  0  0  0  0  0  0  0
   -0.8620   26.8010  -27.0770 C   0  0  0  0  0  0  0  0  0  0  0  0
   -1.3490   25.8580  -27.9890 C   0  0  0  0  0  0  0  0  0  0  0  0
   -1.2300   26.1040  -29.3530 O   0  0  0  0  0  0  0  0  0  0  0  0
   -6.8160   24.0190  -30.8420 C   0  0  0  0  0  0  0  0  0  0  0  0
   -8.0090   23.4100  -31.2370 C   0  0  0  0  0  0  0  0  0  0  0  0
   -7.9990   22.1170  -31.7720 C   0  0  0  0  0  0  0  0  0  0  0  0
   -9.2030   21.5210  -32.1270 O   0  0  0  0  0  0  0  0  0  0  0  0
   -7.4690   19.0240  -31.7880 C   0  0  0  0  0  0  0  0  0  0  0  0
   -7.2370   17.6810  -32.4790 C   0  0  0  0  0  0  0  0  0  0  0  0
   -5.3362   15.5667  -32.2941 H   0  0  0  0  0  0  0  0  0  0  0  0
   -6.3060   15.7664  -33.7928 H   0  0  0  0  0  0  0  0  0  0  0  0
   -4.5576   16.1784  -33.7928 H   0  0  0  0  0  0  0  0  0  0  0  0
   -4.3237   18.7136  -33.7537 H   0  0  0  0  0  0  0  0  0  0  0  0
   -5.6446   18.0464  -34.8256 H   0  0  0  0  0  0  0  0  0  0  0  0
   -5.4523   20.6728  -34.0313 H   0  0  0  0  0  0  0  0  0  0  0  0
   -6.9733   19.8240  -34.5374 H   0  0  0  0  0  0  0  0  0  0  0  0
   -4.6288   21.5211  -31.6549 H   0  0  0  0  0  0  0  0  0  0  0  0
   -2.3286   22.6295  -28.0339 H   0  0  0  0  0  0  0  0  0  0  0  0
   -1.8681   23.6761  -29.4154 H   0  0  0  0  0  0  0  0  0  0  0  0
   -2.4726   23.5047  -25.7654 H   0  0  0  0  0  0  0  0  0  0  0  0
   -1.6030   25.1979  -24.1531 H   0  0  0  0  0  0  0  0  0  0  0  0
   -0.5718   27.3100  -24.9912 H   0  0  0  0  0  0  0  0  0  0  0  0
   -0.4042   27.7318  -27.4432 H   0  0  0  0  0  0  0  0  0  0  0  0
   -6.8318   25.0344  -30.4192 H   0  0  0  0  0  0  0  0  0  0  0  0
   -8.9613   23.9494  -31.1270 H   0  0  0  0  0  0  0  0  0  0  0  0
   -7.1158   18.9601  -30.7482 H   0  0  0  0  0  0  0  0  0  0  0  0
   -8.5447   19.2523  -31.8142 H   0  0  0  0  0  0  0  0  0  0  0  0
   -7.5364   16.8624  -31.8081 H   0  0  0  0  0  0  0  0  0  0  0  0
   -7.8357   17.6237  -33.4000 H   0  0  0  0  0  0  0  0  0  0  0  0
  1  2  1  0
  2  3  1  0
  3  4  1  0
  4  5  1  0
  5  6  1  0
  6  7  2  0
  7  8  1  0
  8  9  1  0
  9 10  2  0
  9 11  2  0
  9 12  1  0
 12 13  1  0
 13 14  1  0
 14 15  2  0
 15 16  1  0
 16 17  2  0
 17 18  1  0
 18 19  2  0
 19 20  1  0
  8 21  2  0
 21 22  1  0
 22 23  2  0
 23 24  1  0
  5 25  1  0
 25 26  1  0
 26  2  1  0
 23  6  1  0
 19 14  1  0
  1 27  1  0
  1 28  1  0
  1 29  1  0
  3 30  1  0
  3 31  1  0
  4 32  1  0
  4 33  1  0
  7 34  1  0
 13 35  1  0
 13 36  1  0
 15 37  1  0
 16 38  1  0
 17 39  1  0
 18 40  1  0
 21 41  1  0
 22 42  1  0
 25 43  1  0
 25 44  1  0
 26 45  1  0
 26 46  1  0
M  CHG  3  12  -1  20  -1  24  -1
M  END
>  <UniqueID>  (16) 
16

>  <SMILES>  (16) 
CN1CCN(c2cc(S(=O)(=O)[N-]Cc3ccccc3[O-])ccc2[O-])CC1

>  <Energy>  (16) 
54.67712642851158

>  <Genealogy>  (16) 
CN1CCN(c2cc(S(=O)(=O)[N-]Cc3ccccc3[O-])ccc2[O-])CC1 (protonated)
CN1CCN(c2cc(S(=O)(=O)[N-]Cc3ccccc3[O-])ccc2[O-])CC1 (3D coordinates assigned)
CN1CCN(c2cc(S(=O)(=O)[N-]Cc3ccccc3[O-])ccc2[O-])CC1 (nonaromatic ring conformer: 54.67712642851158 kcal/mol)

>  <smiles>  (16) 
CN1CCN(c2cc(S(=O)(=O)NCc3ccccc3O)ccc2O)CC1

>  <score_type>  (16) 
oracle

>  <origin>  (16) 
adgpu

>  <m_score__min__energy>  (16) 
-12.6

>  <m_primary>  (16) 
energy

$$$$
16:0
     RDKit          3D

 53 55  0  0  0  0  0  0  0  0999 V2000
   -6.0930   26.0400  -30.1000 C   0  0  0  0  0  0  0  0  0  0  0  0
   -5.7970   24.7940  -30.8680 C   0  0  0  0  0  0  0  0  0  0  0  0
   -6.7360   24.1660  -31.6810 C   0  0  0  0  0  0  0  0  0  0  0  0
   -6.0210   22.7850  -32.3230 S   0  0  0  0  0  0  0  0  0  0  0  0
   -4.5540   23.0450  -31.5330 C   0  0  0  0  0  0  0  0  0  0  0  0
   -3.3850   22.2070  -31.6380 N   0  0  0  0  0  0  0  0  0  0  0  0
   -3.0050   21.6260  -32.9380 C   0  0  0  0  0  0  0  0  0  0  0  0
   -4.0330   20.5920  -33.4260 C   0  0  0  0  0  0  0  0  0  0  0  0
   -4.2810   19.4720  -32.4100 C   0  0  0  0  0  0  0  0  0  0  0  0
   -5.6900   19.0850  -32.4270 N   0  0  0  0  0  0  0  0  0  0  0  0
   -6.6840   19.9530  -32.3270 N   0  0  0  0  0  0  0  0  0  0  0  0
   -7.8350   19.2620  -32.4410 C   0  0  0  0  0  0  0  0  0  0  0  0
   -9.1910   19.8700  -32.3170 C   0  0  0  0  0  0  0  0  0  0  0  0
   -7.5680   17.9160  -32.6110 C   0  0  0  0  0  0  0  0  0  0  0  0
   -6.1900   17.8440  -32.6110 C   0  0  0  0  0  0  0  0  0  0  0  0
   -5.3780   16.5970  -32.7680 C   0  0  0  0  0  0  0  0  0  0  0  0
   -2.6530   21.8790  -30.4390 C   0  0  0  0  0  0  0  0  0  0  0  0
   -1.9570   20.8270  -30.4090 O   0  0  0  0  0  0  0  0  0  0  0  0
   -2.6950   22.7360  -29.2850 N   0  0  0  0  0  0  0  0  0  0  0  0
   -2.0470   22.4130  -28.0430 C   0  0  0  0  0  0  0  0  0  0  0  0
   -2.1150   21.1040  -27.5330 C   0  0  0  0  0  0  0  0  0  0  0  0
   -1.5250   20.7880  -26.3080 C   0  0  0  0  0  0  0  0  0  0  0  0
   -0.8720   21.7760  -25.5710 C   0  0  0  0  0  0  0  0  0  0  0  0
   -0.8070   23.0830  -26.0580 C   0  0  0  0  0  0  0  0  0  0  0  0
   -1.3920   23.4150  -27.2900 C   0  0  0  0  0  0  0  0  0  0  0  0
   -1.2710   25.0740  -27.8890 S   0  0  0  0  0  0  0  0  0  0  0  0
   -2.2070   25.2360  -29.3340 N   0  0  0  0  0  0  0  0  0  0  0  0
    0.1590   25.4120  -28.2040 O   0  0  0  0  0  0  0  0  0  0  0  0
   -1.7810   26.0240  -26.8440 O   0  0  0  0  0  0  0  0  0  0  0  0
   -4.5940   24.1670  -30.7790 N   0  0  0  0  0  0  0  0  0  0  0  0
   -6.0424   25.8270  -29.0220 H   0  0  0  0  0  0  0  0  0  0  0  0
   -5.3535   26.8130  -30.3561 H   0  0  0  0  0  0  0  0  0  0  0  0
   -7.1011   26.3978  -30.3561 H   0  0  0  0  0  0  0  0  0  0  0  0
   -7.7631   24.5112  -31.8702 H   0  0  0  0  0  0  0  0  0  0  0  0
   -2.9328   22.4338  -33.6811 H   0  0  0  0  0  0  0  0  0  0  0  0
   -2.0393   21.1143  -32.8136 H   0  0  0  0  0  0  0  0  0  0  0  0
   -4.9852   21.1079  -33.6190 H   0  0  0  0  0  0  0  0  0  0  0  0
   -3.6270   20.1275  -34.3367 H   0  0  0  0  0  0  0  0  0  0  0  0
   -3.6609   18.6012  -32.6691 H   0  0  0  0  0  0  0  0  0  0  0  0
   -4.0174   19.8317  -31.4045 H   0  0  0  0  0  0  0  0  0  0  0  0
   -9.4457   19.9842  -31.2530 H   0  0  0  0  0  0  0  0  0  0  0  0
   -9.1963   20.8567  -32.8033 H   0  0  0  0  0  0  0  0  0  0  0  0
   -9.9312   19.2176  -32.8033 H   0  0  0  0  0  0  0  0  0  0  0  0
   -8.2884   17.0921  -32.7210 H   0  0  0  0  0  0  0  0  0  0  0  0
   -5.1196   16.2002  -31.7751 H   0  0  0  0  0  0  0  0  0  0  0  0
   -5.9614   15.8469  -33.3222 H   0  0  0  0  0  0  0  0  0  0  0  0
   -4.4561   16.8271  -33.3222 H   0  0  0  0  0  0  0  0  0  0  0  0
   -3.1960   23.6470  -29.3430 H   0  0  0  0  0  0  0  0  0  0  0  0
   -2.6375   20.3226  -28.1043 H   0  0  0  0  0  0  0  0  0  0  0  0
   -1.5751   19.7586  -25.9234 H   0  0  0  0  0  0  0  0  0  0  0  0
   -0.4080   21.5253  -24.6057 H   0  0  0  0  0  0  0  0  0  0  0  0
   -0.2932   23.8588  -25.4714 H   0  0  0  0  0  0  0  0  0  0  0  0
   -3.2000   25.3830  -29.0410 H   0  0  0  0  0  0  0  0  0  0  0  0
  1  2  1  0
  2  3  2  0
  3  4  1  0
  4  5  1  0
  5  6  1  0
  6  7  1  0
  7  8  1  0
  8  9  1  0
  9 10  1  0
 10 11  1  0
 11 12  2  0
 12 13  1  0
 12 14  1  0
 14 15  2  0
 15 16  1  0
  6 17  1  0
 17 18  2  0
 17 19  1  0
 19 20  1  0
 20 21  2  0
 21 22  1  0
 22 23  2  0
 23 24  1  0
 24 25  2  0
 25 26  1  0
 26 27  1  0
 26 28  2  0
 26 29  2  0
  5 30  2  0
 30  2  1  0
 15 10  1  0
 25 20  1  0
  1 31  1  0
  1 32  1  0
  1 33  1  0
  3 34  1  0
  7 35  1  0
  7 36  1  0
  8 37  1  0
  8 38  1  0
  9 39  1  0
  9 40  1  0
 13 41  1  0
 13 42  1  0
 13 43  1  0
 14 44  1  0
 16 45  1  0
 16 46  1  0
 16 47  1  0
 19 48  1  0
 21 49  1  0
 22 50  1  0
 23 51  1  0
 24 52  1  0
 27 53  1  0
M  CHG  1  27  -1
M  END
>  <UniqueID>  (17) 
17

>  <SMILES>  (17) 
Cc1csc(N(CCCn2nc(C)cc2C)C(=O)Nc2ccccc2S([NH-])(=O)=O)n1

>  <Energy>  (17) 
113.02243646596793

>  <Genealogy>  (17) 
Cc1csc(N(CCCn2nc(C)cc2C)C(=O)Nc2ccccc2S([NH-])(=O)=O)n1 (protonated)
Cc1csc(N(CCCn2nc(C)cc2C)C(=O)Nc2ccccc2S([NH-])(=O)=O)n1 (3D coordinates assigned)
Cc1csc(N(CCCn2nc(C)cc2C)C(=O)Nc2ccccc2S([NH-])(=O)=O)n1 (optimized conformer: 113.02243646596793 kcal/mol)

>  <smiles>  (17) 
Cc1csc(N(CCCn2nc(C)cc2C)C(=O)Nc2ccccc2S(N)(=O)=O)n1

>  <score_type>  (17) 
oracle

>  <origin>  (17) 
adgpu

>  <m_score__min__energy>  (17) 
-11.66

>  <m_primary>  (17) 
energy

$$$$
17:0
     RDKit          3D

 49 52  0  0  0  0  0  0  0  0999 V2000
   -8.7020   23.2140  -31.9590 C   0  0  0  0  0  0  0  0  0  0  0  0
   -9.0010   21.9530  -31.3720 O   0  0  0  0  0  0  0  0  0  0  0  0
   -8.3900   20.7400  -31.7300 C   0  0  0  0  0  0  0  0  0  0  0  0
   -9.1190   19.6890  -32.3220 C   0  0  0  0  0  0  0  0  0  0  0  0
   -8.4750   18.5170  -32.7190 C   0  0  0  0  0  0  0  0  0  0  0  0
   -7.0970   18.3720  -32.5360 C   0  0  0  0  0  0  0  0  0  0  0  0
   -6.2970   16.8980  -33.0790 S   0  0  0  0  0  0  0  0  0  0  0  0
   -5.5130   16.2900  -31.9490 O   0  0  0  0  0  0  0  0  0  0  0  0
   -7.3520   15.9190  -33.5150 O   0  0  0  0  0  0  0  0  0  0  0  0
   -5.2390   17.2650  -34.4240 N   0  0  0  0  0  0  0  0  0  0  0  0
   -5.0760   18.7150  -34.5720 C   0  0  0  0  0  0  0  0  0  0  0  0
   -3.8350   19.1340  -33.7990 C   0  0  0  0  0  0  0  0  0  0  0  0
   -3.0650   17.8540  -33.5380 C   0  0  0  0  0  0  0  0  0  0  0  0
   -3.8910   16.7440  -34.1720 C   0  0  0  0  0  0  0  0  0  0  0  0
   -6.3650   19.4090  -31.9450 C   0  0  0  0  0  0  0  0  0  0  0  0
   -7.0050   20.5810  -31.5170 C   0  0  0  0  0  0  0  0  0  0  0  0
   -6.2180   21.6240  -30.9210 N   0  0  0  0  0  0  0  0  0  0  0  0
   -5.0240   22.1480  -31.5230 C   0  0  0  0  0  0  0  0  0  0  0  0
   -4.7880   21.9390  -32.7440 O   0  0  0  0  0  0  0  0  0  0  0  0
   -4.1200   23.0280  -30.7580 C   0  0  0  0  0  0  0  0  0  0  0  0
   -4.2350   24.3690  -30.9480 N   0  0  0  0  0  0  0  0  0  0  0  0
   -3.5010   25.2490  -30.2680 N   0  0  0  0  0  0  0  0  0  0  0  0
   -2.5920   24.8570  -29.3420 C   0  0  0  0  0  0  0  0  0  0  0  0
   -1.9330   25.7310  -28.7180 O   0  0  0  0  0  0  0  0  0  0  0  0
   -2.3950   23.4880  -29.1020 C   0  0  0  0  0  0  0  0  0  0  0  0
   -1.4440   23.0390  -28.1660 C   0  0  0  0  0  0  0  0  0  0  0  0
   -1.2330   21.6730  -27.9760 C   0  0  0  0  0  0  0  0  0  0  0  0
   -1.9550   20.7420  -28.7210 C   0  0  0  0  0  0  0  0  0  0  0  0
   -2.9070   21.1700  -29.6500 C   0  0  0  0  0  0  0  0  0  0  0  0
   -3.1610   22.5450  -29.8350 C   0  0  0  0  0  0  0  0  0  0  0  0
   -8.5262   23.9553  -31.1656 H   0  0  0  0  0  0  0  0  0  0  0  0
   -7.8004   23.1236  -32.5826 H   0  0  0  0  0  0  0  0  0  0  0  0
   -9.5482   23.5380  -32.5826 H   0  0  0  0  0  0  0  0  0  0  0  0
  -10.2037   19.7937  -32.4721 H   0  0  0  0  0  0  0  0  0  0  0  0
   -9.0547   17.7028  -33.1784 H   0  0  0  0  0  0  0  0  0  0  0  0
   -4.9563   18.9698  -35.6354 H   0  0  0  0  0  0  0  0  0  0  0  0
   -5.9615   19.2390  -34.1829 H   0  0  0  0  0  0  0  0  0  0  0  0
   -3.2288   19.8319  -34.3952 H   0  0  0  0  0  0  0  0  0  0  0  0
   -4.0939   19.6510  -32.8632 H   0  0  0  0  0  0  0  0  0  0  0  0
   -2.0686   17.9039  -34.0013 H   0  0  0  0  0  0  0  0  0  0  0  0
   -2.9109   17.6835  -32.4623 H   0  0  0  0  0  0  0  0  0  0  0  0
   -3.4292   16.4308  -35.1200 H   0  0  0  0  0  0  0  0  0  0  0  0
   -3.9385   15.8739  -33.5007 H   0  0  0  0  0  0  0  0  0  0  0  0
   -5.2778   19.3033  -31.8152 H   0  0  0  0  0  0  0  0  0  0  0  0
   -6.6010   22.1160  -30.0830 H   0  0  0  0  0  0  0  0  0  0  0  0
   -0.8644   23.7688  -27.5816 H   0  0  0  0  0  0  0  0  0  0  0  0
   -0.4948   21.3297  -27.2362 H   0  0  0  0  0  0  0  0  0  0  0  0
   -1.7747   19.6665  -28.5771 H   0  0  0  0  0  0  0  0  0  0  0  0
   -3.4631   20.4282  -30.2421 H   0  0  0  0  0  0  0  0  0  0  0  0
  1  2  1  0
  2  3  1  0
  3  4  2  0
  4  5  1  0
  5  6  2  0
  6  7  1  0
  7  8  2  0
  7  9  2  0
  7 10  1  0
 10 11  1  0
 11 12  1  0
 12 13  1  0
 13 14  1  0
  6 15  1  0
 15 16  2  0
 16 17  1  0
 17 18  1  0
 18 19  2  0
 18 20  1  0
 20 21  2  0
 21 22  1  0
 22 23  1  0
 23 24  2  0
 23 25  1  0
 25 26  2  0
 26 27  1  0
 27 28  2  0
 28 29  1  0
 29 30  2  0
 16  3  1  0
 30 20  1  0
 14 10  1  0
 30 25  1  0
  1 31  1  0
  1 32  1  0
  1 33  1  0
  4 34  1  0
  5 35  1  0
 11 36  1  0
 11 37  1  0
 12 38  1  0
 12 39  1  0
 13 40  1  0
 13 41  1  0
 14 42  1  0
 14 43  1  0
 15 44  1  0
 17 45  1  0
 26 46  1  0
 27 47  1  0
 28 48  1  0
 29 49  1  0
M  CHG  1  22  -1
M  END
>  <UniqueID>  (18) 
18

>  <SMILES>  (18) 
COc1ccc(S(=O)(=O)N2CCCC2)cc1NC(=O)c1n[n-]c(=O)c2ccccc12

>  <Energy>  (18) 
69.35468404418982

>  <Genealogy>  (18) 
COc1ccc(S(=O)(=O)N2CCCC2)cc1NC(=O)c1n[n-]c(=O)c2ccccc12 (protonated)
COc1ccc(S(=O)(=O)N2CCCC2)cc1NC(=O)c1n[n-]c(=O)c2ccccc12 (3D coordinates assigned)
COc1ccc(S(=O)(=O)N2CCCC2)cc1NC(=O)c1n[n-]c(=O)c2ccccc12 (nonaromatic ring conformer: 69.35468404418982 kcal/mol)

>  <smiles>  (18) 
COc1ccc(S(=O)(=O)N2CCCC2)cc1NC(=O)c1n[nH]c(=O)c2ccccc12

>  <score_type>  (18) 
oracle

>  <origin>  (18) 
adgpu

>  <m_score__min__energy>  (18) 
-11.42

>  <m_primary>  (18) 
energy

$$$$
18:0
     RDKit          3D

 55 57  0  0  0  0  0  0  0  0999 V2000
   -9.5920   21.8960  -30.9700 C   0  0  0  0  0  0  0  0  0  0  0  0
   -8.7300   20.8730  -31.6480 C   0  0  0  0  0  0  0  0  0  0  0  0
   -9.0960   19.5190  -31.6410 C   0  0  0  0  0  0  0  0  0  0  0  0
   -8.3050   18.5700  -32.2960 C   0  0  0  0  0  0  0  0  0  0  0  0
   -7.1470   18.9680  -32.9870 C   0  0  0  0  0  0  0  0  0  0  0  0
   -6.2990   18.0060  -33.6340 N   0  0  0  0  0  0  0  0  0  0  0  0
   -5.5880   16.9750  -32.9330 C   0  0  0  0  0  0  0  0  0  0  0  0
   -5.9180   16.6630  -31.7560 O   0  0  0  0  0  0  0  0  0  0  0  0
   -4.5250   16.1890  -33.6490 C   0  0  0  0  0  0  0  0  0  0  0  0
   -4.0370   16.8980  -34.9160 C   0  0  0  0  0  0  0  0  0  0  0  0
   -4.0670   18.3480  -34.7200 N   0  0  0  0  0  0  0  0  0  0  0  0
   -2.7400   18.8780  -33.7270 S   0  0  0  0  0  0  0  0  0  0  0  0
   -1.6040   19.3080  -34.6130 O   0  0  0  0  0  0  0  0  0  0  0  0
   -2.2690   17.7340  -32.8720 O   0  0  0  0  0  0  0  0  0  0  0  0
   -3.2200   20.2330  -32.7060 C   0  0  0  0  0  0  0  0  0  0  0  0
   -2.9110   20.2250  -31.3400 C   0  0  0  0  0  0  0  0  0  0  0  0
   -3.2610   21.3110  -30.5330 C   0  0  0  0  0  0  0  0  0  0  0  0
   -3.9260   22.4140  -31.0840 C   0  0  0  0  0  0  0  0  0  0  0  0
   -4.3470   23.7820  -30.0580 S   0  0  0  0  0  0  0  0  0  0  0  0
   -3.9680   25.0700  -30.7360 O   0  0  0  0  0  0  0  0  0  0  0  0
   -5.8340   23.7770  -29.8340 O   0  0  0  0  0  0  0  0  0  0  0  0
   -3.5160   23.6470  -28.5280 N   0  0  0  0  0  0  0  0  0  0  0  0
   -2.0640   23.8770  -28.6870 C   0  0  0  0  0  0  0  0  0  0  0  0
   -1.6450   25.2770  -28.2040 C   0  0  0  0  0  0  0  0  0  0  0  0
   -1.9560   25.5150  -26.8390 O   0  0  0  0  0  0  0  0  0  0  0  0
   -3.1490   24.8740  -26.4040 C   0  0  0  0  0  0  0  0  0  0  0  0
   -4.1360   24.5480  -27.5380 C   0  0  0  0  0  0  0  0  0  0  0  0
   -4.2280   22.4260  -32.4530 C   0  0  0  0  0  0  0  0  0  0  0  0
   -3.8770   21.3410  -33.2590 C   0  0  0  0  0  0  0  0  0  0  0  0
   -6.7830   20.3220  -32.9910 C   0  0  0  0  0  0  0  0  0  0  0  0
   -7.5760   21.2710  -32.3400 C   0  0  0  0  0  0  0  0  0  0  0  0
   -9.5006   21.7876  -29.8792 H   0  0  0  0  0  0  0  0  0  0  0  0
   -9.2670   22.9041  -31.2668 H   0  0  0  0  0  0  0  0  0  0  0  0
  -10.6406   21.7466  -31.2668 H   0  0  0  0  0  0  0  0  0  0  0  0
  -10.0100   19.2020  -31.1175 H   0  0  0  0  0  0  0  0  0  0  0  0
   -8.5899   17.5078  -32.2706 H   0  0  0  0  0  0  0  0  0  0  0  0
   -6.2560   18.0080  -34.6780 H   0  0  0  0  0  0  0  0  0  0  0  0
   -3.6708   16.0481  -32.9704 H   0  0  0  0  0  0  0  0  0  0  0  0
   -4.9614   15.2246  -33.9481 H   0  0  0  0  0  0  0  0  0  0  0  0
   -3.0070   16.5813  -35.1371 H   0  0  0  0  0  0  0  0  0  0  0  0
   -4.6966   16.6329  -35.7555 H   0  0  0  0  0  0  0  0  0  0  0  0
   -2.3910   19.3609  -30.9008 H   0  0  0  0  0  0  0  0  0  0  0  0
   -3.0134   21.2996  -29.4613 H   0  0  0  0  0  0  0  0  0  0  0  0
   -1.5188   23.1217  -28.1020 H   0  0  0  0  0  0  0  0  0  0  0  0
   -1.8235   23.8012  -29.7577 H   0  0  0  0  0  0  0  0  0  0  0  0
   -0.5583   25.3823  -28.3383 H   0  0  0  0  0  0  0  0  0  0  0  0
   -2.2084   26.0102  -28.7999 H   0  0  0  0  0  0  0  0  0  0  0  0
   -2.8735   23.9333  -25.9048 H   0  0  0  0  0  0  0  0  0  0  0  0
   -3.6602   25.5781  -25.7311 H   0  0  0  0  0  0  0  0  0  0  0  0
   -5.0254   24.0598  -27.1130 H   0  0  0  0  0  0  0  0  0  0  0  0
   -4.4177   25.4848  -28.0410 H   0  0  0  0  0  0  0  0  0  0  0  0
   -4.7429   23.2925  -32.8935 H   0  0  0  0  0  0  0  0  0  0  0  0
   -4.1171   21.3558  -34.3324 H   0  0  0  0  0  0  0  0  0  0  0  0
   -5.8667   20.6396  -33.5102 H   0  0  0  0  0  0  0  0  0  0  0  0
   -7.2944   22.3339  -32.3702 H   0  0  0  0  0  0  0  0  0  0  0  0
  1  2  1  0
  2  3  2  0
  3  4  1  0
  4  5  2  0
  5  6  1  0
  6  7  1  0
  7  8  2  0
  7  9  1  0
  9 10  1  0
 10 11  1  0
 11 12  1  0
 12 13  2  0
 12 14  2  0
 12 15  1  0
 15 16  2  0
 16 17  1  0
 17 18  2  0
 18 19  1  0
 19 20  2  0
 19 21  2  0
 19 22  1  0
 22 23  1  0
 23 24  1  0
 24 25  1  0
 25 26  1  0
 26 27  1  0
 18 28  1  0
 28 29  2  0
  5 30  1  0
 30 31  2  0
 31  2  1  0
 29 15  1  0
 27 22  1  0
  1 32  1  0
  1 33  1  0
  1 34  1  0
  3 35  1  0
  4 36  1  0
  6 37  1  0
  9 38  1  0
  9 39  1  0
 10 40  1  0
 10 41  1  0
 16 42  1  0
 17 43  1  0
 23 44  1  0
 23 45  1  0
 24 46  1  0
 24 47  1  0
 26 48  1  0
 26 49  1  0
 27 50  1  0
 27 51  1  0
 28 52  1  0
 29 53  1  0
 30 54  1  0
 31 55  1  0
M  CHG  1  11  -1
M  END
>  <UniqueID>  (19) 
19

>  <SMILES>  (19) 
Cc1ccc(NC(=O)CC[N-]S(=O)(=O)c2ccc(S(=O)(=O)N3CCOCC3)cc2)cc1

>  <Energy>  (19) 
63.08359251103174

>  <Genealogy>  (19) 
Cc1ccc(NC(=O)CC[N-]S(=O)(=O)c2ccc(S(=O)(=O)N3CCOCC3)cc2)cc1 (protonated)
Cc1ccc(NC(=O)CC[N-]S(=O)(=O)c2ccc(S(=O)(=O)N3CCOCC3)cc2)cc1 (3D coordinates assigned)
Cc1ccc(NC(=O)CC[N-]S(=O)(=O)c2ccc(S(=O)(=O)N3CCOCC3)cc2)cc1 (nonaromatic ring conformer: 63.08359251103174 kcal/mol)

>  <smiles>  (19) 
Cc1ccc(NC(=O)CCNS(=O)(=O)c2ccc(S(=O)(=O)N3CCOCC3)cc2)cc1

>  <score_type>  (19) 
oracle

>  <origin>  (19) 
adgpu

>  <m_score__min__energy>  (19) 
-11.050000000000001

>  <m_primary>  (19) 
energy

$$$$
19:0
     RDKit          3D

 57 61  0  0  0  0  0  0  0  0999 V2000
   -8.1320   23.7670  -32.7200 O   0  0  0  0  0  0  0  0  0  0  0  0
   -7.8070   22.5030  -31.9760 S   0  0  0  0  0  0  0  0  0  0  0  0
   -8.9040   22.2280  -30.9840 O   0  0  0  0  0  0  0  0  0  0  0  0
   -7.7080   21.1860  -33.1030 N   0  0  0  0  0  0  0  0  0  0  0  0
   -7.1270   19.9040  -32.8320 C   0  0  0  0  0  0  0  0  0  0  0  0
   -7.7430   19.0770  -31.8810 C   0  0  0  0  0  0  0  0  0  0  0  0
   -7.2090   17.8190  -31.5840 C   0  0  0  0  0  0  0  0  0  0  0  0
   -6.0480   17.3820  -32.2260 C   0  0  0  0  0  0  0  0  0  0  0  0
   -5.4300   18.1940  -33.1780 C   0  0  0  0  0  0  0  0  0  0  0  0
   -5.9620   19.4520  -33.4820 C   0  0  0  0  0  0  0  0  0  0  0  0
   -6.2560   22.7040  -31.1670 C   0  0  0  0  0  0  0  0  0  0  0  0
   -5.5060   21.5750  -30.7550 C   0  0  0  0  0  0  0  0  0  0  0  0
   -4.2420   21.7360  -30.1620 C   0  0  0  0  0  0  0  0  0  0  0  0
   -3.7720   23.0350  -29.9810 C   0  0  0  0  0  0  0  0  0  0  0  0
   -2.5770   23.5070  -29.5070 C   0  0  0  0  0  0  0  0  0  0  0  0
   -1.4320   22.7240  -29.1560 N   0  0  0  0  0  0  0  0  0  0  0  0
   -0.9410   21.6520  -29.9790 C   0  0  0  0  0  0  0  0  0  0  0  0
   -0.0440   20.7220  -29.4390 C   0  0  0  0  0  0  0  0  0  0  0  0
    0.3850   19.6280  -30.1970 C   0  0  0  0  0  0  0  0  0  0  0  0
   -0.0950   19.4380  -31.4970 C   0  0  0  0  0  0  0  0  0  0  0  0
    0.3240   18.3210  -32.2130 O   0  0  0  0  0  0  0  0  0  0  0  0
   -0.9960   20.3630  -32.0550 C   0  0  0  0  0  0  0  0  0  0  0  0
   -1.6840   20.1400  -33.6740 S   0  0  0  0  0  0  0  0  0  0  0  0
   -2.8620   21.0550  -33.8660 O   0  0  0  0  0  0  0  0  0  0  0  0
   -2.1780   18.7250  -33.8010 O   0  0  0  0  0  0  0  0  0  0  0  0
   -0.5030   20.4580  -34.9260 N   0  0  0  0  0  0  0  0  0  0  0  0
    0.6690   19.5580  -34.8280 C   0  0  0  0  0  0  0  0  0  0  0  0
    1.9000   20.2750  -34.2420 C   0  0  0  0  0  0  0  0  0  0  0  0
    2.3040   21.4070  -35.0000 O   0  0  0  0  0  0  0  0  0  0  0  0
    1.2270   22.0860  -35.6350 C   0  0  0  0  0  0  0  0  0  0  0  0
   -0.1320   21.8850  -34.9420 C   0  0  0  0  0  0  0  0  0  0  0  0
   -1.3970   21.4730  -31.2980 C   0  0  0  0  0  0  0  0  0  0  0  0
   -2.6310   24.8830  -29.6560 C   0  0  0  0  0  0  0  0  0  0  0  0
   -1.6020   25.7590  -29.3330 O   0  0  0  0  0  0  0  0  0  0  0  0
   -3.8120   25.2860  -30.1810 N   0  0  0  0  0  0  0  0  0  0  0  0
   -4.4920   24.1350  -30.3760 C   0  0  0  0  0  0  0  0  0  0  0  0
   -5.7440   24.0030  -30.9720 C   0  0  0  0  0  0  0  0  0  0  0  0
   -8.6521   19.4202  -31.3655 H   0  0  0  0  0  0  0  0  0  0  0  0
   -7.7039   17.1729  -30.8439 H   0  0  0  0  0  0  0  0  0  0  0  0
   -5.6210   16.3982  -31.9813 H   0  0  0  0  0  0  0  0  0  0  0  0
   -4.5220   17.8441  -33.6909 H   0  0  0  0  0  0  0  0  0  0  0  0
   -5.4691   20.0897  -34.2306 H   0  0  0  0  0  0  0  0  0  0  0  0
   -5.9160   20.5647  -30.9003 H   0  0  0  0  0  0  0  0  0  0  0  0
   -3.6443   20.8663  -29.8515 H   0  0  0  0  0  0  0  0  0  0  0  0
   -1.0560   22.8290  -28.1870 H   0  0  0  0  0  0  0  0  0  0  0  0
    0.3257   20.8530  -28.4113 H   0  0  0  0  0  0  0  0  0  0  0  0
    1.1034   18.9134  -29.7689 H   0  0  0  0  0  0  0  0  0  0  0  0
    0.4108   18.7081  -34.1791 H   0  0  0  0  0  0  0  0  0  0  0  0
    0.9239   19.2204  -35.8434 H   0  0  0  0  0  0  0  0  0  0  0  0
    1.6582   20.6063  -33.2213 H   0  0  0  0  0  0  0  0  0  0  0  0
    2.7336   19.5575  -34.2579 H   0  0  0  0  0  0  0  0  0  0  0  0
    1.4544   23.1622  -35.6459 H   0  0  0  0  0  0  0  0  0  0  0  0
    1.1352   21.6635  -36.6464 H   0  0  0  0  0  0  0  0  0  0  0  0
   -0.0676   22.2530  -33.9074 H   0  0  0  0  0  0  0  0  0  0  0  0
   -0.8989   22.4435  -35.4988 H   0  0  0  0  0  0  0  0  0  0  0  0
   -2.0778   22.2144  -31.7416 H   0  0  0  0  0  0  0  0  0  0  0  0
   -6.3179   24.8886  -31.2822 H   0  0  0  0  0  0  0  0  0  0  0  0
  1  2  2  0
  2  3  2  0
  2  4  1  0
  4  5  1  0
  5  6  2  0
  6  7  1  0
  7  8  2  0
  8  9  1  0
  9 10  2  0
  2 11  1  0
 11 12  2  0
 12 13  1  0
 13 14  2  0
 14 15  1  0
 15 16  1  0
 16 17  1  0
 17 18  2  0
 18 19  1  0
 19 20  2  0
 20 21  1  0
 20 22  1  0
 22 23  1  0
 23 24  2  0
 23 25  2  0
 23 26  1  0
 26 27  1  0
 27 28  1  0
 28 29  1  0
 29 30  1  0
 30 31  1  0
 22 32  2  0
 15 33  2  0
 33 34  1  0
 33 35  1  0
 35 36  1  0
 36 37  2  0
 10  5  1  0
 37 11  1  0
 36 14  1  0
 32 17  1  0
 31 26  1  0
  6 38  1  0
  7 39  1  0
  8 40  1  0
  9 41  1  0
 10 42  1  0
 12 43  1  0
 13 44  1  0
 16 45  1  0
 18 46  1  0
 19 47  1  0
 27 48  1  0
 27 49  1  0
 28 50  1  0
 28 51  1  0
 30 52  1  0
 30 53  1  0
 31 54  1  0
 31 55  1  0
 32 56  1  0
 37 57  1  0
M  CHG  4   4  -1  21  -1  34  -1  35  -1
M  END
>  <UniqueID>  (20) 
20

>  <SMILES>  (20) 
O=S(=O)([N-]c1ccccc1)c1ccc2c(Nc3ccc([O-])c(S(=O)(=O)N4CCOCC4)c3)c([O-])[n-]c2c1

>  <Energy>  (20) 
117.3514115225795

>  <Genealogy>  (20) 
O=S(=O)([N-]c1ccccc1)c1ccc2c(Nc3ccc([O-])c(S(=O)(=O)N4CCOCC4)c3)c([O-])[n-]c2c1 (protonated)
O=S(=O)([N-]c1ccccc1)c1ccc2c(Nc3ccc([O-])c(S(=O)(=O)N4CCOCC4)c3)c([O-])[n-]c2c1 (3D coordinates assigned)
O=S(=O)([N-]c1ccccc1)c1ccc2c(Nc3ccc([O-])c(S(=O)(=O)N4CCOCC4)c3)c([O-])[n-]c2c1 (nonaromatic ring conformer: 117.3514115225795 kcal/mol)

>  <smiles>  (20) 
O=S(=O)(Nc1ccccc1)c1ccc2c(Nc3ccc(O)c(S(=O)(=O)N4CCOCC4)c3)c(O)[nH]c2c1

>  <score_type>  (20) 
oracle

>  <origin>  (20) 
adgpu

>  <m_score__min__energy>  (20) 
-14.130000000000001

>  <m_primary>  (20) 
energy

$$$$
20:0
     RDKit          3D

 50 53  0  0  0  0  0  0  0  0999 V2000
   -1.0530   17.6450  -33.4580 O   0  0  0  0  0  0  0  0  0  0  0  0
   -1.4860   18.6840  -32.8920 C   0  0  0  0  0  0  0  0  0  0  0  0
   -2.8690   19.1840  -33.1900 C   0  0  0  0  0  0  0  0  0  0  0  0
   -2.9270   20.7150  -33.0950 C   0  0  0  0  0  0  0  0  0  0  0  0
   -2.2780   21.2270  -31.8320 C   0  0  0  0  0  0  0  0  0  0  0  0
   -2.7180   22.4230  -31.2450 C   0  0  0  0  0  0  0  0  0  0  0  0
   -2.0530   22.9510  -30.1280 C   0  0  0  0  0  0  0  0  0  0  0  0
   -2.6280   24.4350  -29.3750 S   0  0  0  0  0  0  0  0  0  0  0  0
   -3.0370   24.1350  -27.9600 O   0  0  0  0  0  0  0  0  0  0  0  0
   -1.5230   25.4540  -29.3420 O   0  0  0  0  0  0  0  0  0  0  0  0
   -3.9860   25.0950  -30.2240 N   0  0  0  0  0  0  0  0  0  0  0  0
   -5.1150   24.3070  -30.6040 C   0  0  0  0  0  0  0  0  0  0  0  0
   -5.4630   24.1460  -31.9530 C   0  0  0  0  0  0  0  0  0  0  0  0
   -6.5720   23.3720  -32.3060 C   0  0  0  0  0  0  0  0  0  0  0  0
   -7.3400   22.7480  -31.3140 C   0  0  0  0  0  0  0  0  0  0  0  0
   -8.7670   21.8100  -31.7570 S   0  0  0  0  0  0  0  0  0  0  0  0
   -9.3380   21.1820  -30.5150 O   0  0  0  0  0  0  0  0  0  0  0  0
   -9.8100   22.7350  -32.3220 O   0  0  0  0  0  0  0  0  0  0  0  0
   -8.4100   20.5590  -32.9300 N   0  0  0  0  0  0  0  0  0  0  0  0
   -9.1230   19.2940  -32.6540 C   0  0  0  0  0  0  0  0  0  0  0  0
   -8.2230   18.2270  -32.0100 C   0  0  0  0  0  0  0  0  0  0  0  0
   -7.2180   18.8330  -31.2340 O   0  0  0  0  0  0  0  0  0  0  0  0
   -6.2910   19.4870  -32.0780 C   0  0  0  0  0  0  0  0  0  0  0  0
   -6.9610   20.3860  -33.1450 C   0  0  0  0  0  0  0  0  0  0  0  0
   -6.9690   22.8790  -29.9680 C   0  0  0  0  0  0  0  0  0  0  0  0
   -5.8560   23.6480  -29.6170 C   0  0  0  0  0  0  0  0  0  0  0  0
   -0.9410   22.2820  -29.6030 C   0  0  0  0  0  0  0  0  0  0  0  0
   -0.4870   21.0990  -30.1910 C   0  0  0  0  0  0  0  0  0  0  0  0
   -1.1490   20.5670  -31.3060 C   0  0  0  0  0  0  0  0  0  0  0  0
   -0.6900   19.3490  -31.9060 N   0  0  0  0  0  0  0  0  0  0  0  0
   -3.1531   18.8747  -34.2067 H   0  0  0  0  0  0  0  0  0  0  0  0
   -3.5647   18.7582  -32.4519 H   0  0  0  0  0  0  0  0  0  0  0  0
   -2.4047   21.1449  -33.9624 H   0  0  0  0  0  0  0  0  0  0  0  0
   -3.9851   21.0151  -33.0796 H   0  0  0  0  0  0  0  0  0  0  0  0
   -3.5888   22.9495  -31.6627 H   0  0  0  0  0  0  0  0  0  0  0  0
   -4.8611   24.6305  -32.7359 H   0  0  0  0  0  0  0  0  0  0  0  0
   -6.8426   23.2524  -33.3655 H   0  0  0  0  0  0  0  0  0  0  0  0
   -9.9602   19.5047  -31.9723 H   0  0  0  0  0  0  0  0  0  0  0  0
   -9.4702   18.8942  -33.6182 H   0  0  0  0  0  0  0  0  0  0  0  0
   -8.8349   17.5776  -31.3667 H   0  0  0  0  0  0  0  0  0  0  0  0
   -7.7488   17.6341  -32.8060 H   0  0  0  0  0  0  0  0  0  0  0  0
   -5.6346   20.1135  -31.4562 H   0  0  0  0  0  0  0  0  0  0  0  0
   -5.7326   18.7060  -32.6148 H   0  0  0  0  0  0  0  0  0  0  0  0
   -6.4827   21.3762  -33.1186 H   0  0  0  0  0  0  0  0  0  0  0  0
   -6.8311   19.8911  -34.1188 H   0  0  0  0  0  0  0  0  0  0  0  0
   -7.5558   22.3749  -29.1860 H   0  0  0  0  0  0  0  0  0  0  0  0
   -5.5615   23.7355  -28.5608 H   0  0  0  0  0  0  0  0  0  0  0  0
   -0.4221   22.6899  -28.7230 H   0  0  0  0  0  0  0  0  0  0  0  0
    0.3925   20.5835  -29.7778 H   0  0  0  0  0  0  0  0  0  0  0  0
    0.2180   18.9250  -31.6080 H   0  0  0  0  0  0  0  0  0  0  0  0
  1  2  2  0
  2  3  1  0
  3  4  1  0
  4  5  1  0
  5  6  2  0
  6  7  1  0
  7  8  1  0
  8  9  2  0
  8 10  2  0
  8 11  1  0
 11 12  1  0
 12 13  2  0
 13 14  1  0
 14 15  2  0
 15 16  1  0
 16 17  2  0
 16 18  2  0
 16 19  1  0
 19 20  1  0
 20 21  1  0
 21 22  1  0
 22 23  1  0
 23 24  1  0
 15 25  1  0
 25 26  2  0
  7 27  2  0
 27 28  1  0
 28 29  2  0
 29 30  1  0
 30  2  1  0
 29  5  1  0
 26 12  1  0
 24 19  1  0
  3 31  1  0
  3 32  1  0
  4 33  1  0
  4 34  1  0
  6 35  1  0
 13 36  1  0
 14 37  1  0
 20 38  1  0
 20 39  1  0
 21 40  1  0
 21 41  1  0
 23 42  1  0
 23 43  1  0
 24 44  1  0
 24 45  1  0
 25 46  1  0
 26 47  1  0
 27 48  1  0
 28 49  1  0
 30 50  1  0
M  CHG  1  11  -1
M  END
>  <UniqueID>  (21) 
21

>  <SMILES>  (21) 
O=C1CCc2cc(S(=O)(=O)[N-]c3ccc(S(=O)(=O)N4CCOCC4)cc3)ccc2N1

>  <Energy>  (21) 
69.65172328299151

>  <Genealogy>  (21) 
O=C1CCc2cc(S(=O)(=O)[N-]c3ccc(S(=O)(=O)N4CCOCC4)cc3)ccc2N1 (protonated)
O=C1CCc2cc(S(=O)(=O)[N-]c3ccc(S(=O)(=O)N4CCOCC4)cc3)ccc2N1 (3D coordinates assigned)
O=C1CCc2cc(S(=O)(=O)[N-]c3ccc(S(=O)(=O)N4CCOCC4)cc3)ccc2N1 (nonaromatic ring conformer: 69.65172328299151 kcal/mol)

>  <smiles>  (21) 
O=C1CCc2cc(S(=O)(=O)Nc3ccc(S(=O)(=O)N4CCOCC4)cc3)ccc2N1

>  <score_type>  (21) 
oracle

>  <origin>  (21) 
adgpu

>  <m_score__min__energy>  (21) 
-11.41

>  <m_primary>  (21) 
energy

$$$$
21:0
     RDKit          3D

 70 74  0  0  0  0  0  0  0  0999 V2000
   -0.1720   17.4090  -34.5170 C   0  0  0  0  0  0  0  0  0  0  0  0
    0.1330   18.8200  -34.2250 N   0  0  0  0  0  0  0  0  0  0  0  0
    1.5260   18.9430  -33.7320 C   0  0  0  0  0  0  0  0  0  0  0  0
    1.8280   18.0380  -32.5130 C   0  0  0  0  0  0  0  0  0  0  0  0
    1.3700   18.6210  -31.1930 C   0  0  0  0  0  0  0  0  0  0  0  0
    2.3070   18.9930  -30.2190 C   0  0  0  0  0  0  0  0  0  0  0  0
    1.8900   19.5360  -29.0010 C   0  0  0  0  0  0  0  0  0  0  0  0
    2.8450   19.8800  -28.0510 O   0  0  0  0  0  0  0  0  0  0  0  0
    0.5220   19.7210  -28.7360 C   0  0  0  0  0  0  0  0  0  0  0  0
    0.1030   20.2670  -27.4730 N   0  0  0  0  0  0  0  0  0  0  0  0
   -1.5440   20.2260  -26.9280 S   0  0  0  0  0  0  0  0  0  0  0  0
   -1.5930   20.5680  -25.4660 O   0  0  0  0  0  0  0  0  0  0  0  0
   -2.1020   18.8440  -27.1230 O   0  0  0  0  0  0  0  0  0  0  0  0
   -2.5050   21.3620  -27.8730 C   0  0  0  0  0  0  0  0  0  0  0  0
   -3.7920   21.7320  -27.4580 C   0  0  0  0  0  0  0  0  0  0  0  0
   -4.5160   22.6820  -28.1830 C   0  0  0  0  0  0  0  0  0  0  0  0
   -3.9650   23.2640  -29.3330 C   0  0  0  0  0  0  0  0  0  0  0  0
   -4.8910   24.4680  -30.2280 S   0  0  0  0  0  0  0  0  0  0  0  0
   -5.6780   25.2690  -29.2290 O   0  0  0  0  0  0  0  0  0  0  0  0
   -3.9540   25.3870  -30.9620 O   0  0  0  0  0  0  0  0  0  0  0  0
   -5.9730   23.6750  -31.3630 N   0  0  0  0  0  0  0  0  0  0  0  0
   -7.2910   23.4530  -30.7090 C   0  0  0  0  0  0  0  0  0  0  0  0
   -8.0870   22.2880  -31.3280 C   0  0  0  0  0  0  0  0  0  0  0  0
   -7.3100   20.9550  -31.2500 C   0  0  0  0  0  0  0  0  0  0  0  0
   -5.7810   21.1730  -31.1910 C   0  0  1  0  0  0  0  0  0  0  0  0
   -4.9830   19.9180  -31.6350 C   0  0  0  0  0  0  0  0  0  0  0  0
   -4.4420   20.0440  -33.0650 C   0  0  0  0  0  0  0  0  0  0  0  0
   -3.5150   21.2680  -33.2230 C   0  0  0  0  0  0  0  0  0  0  0  0
   -3.9210   22.4780  -32.3510 C   0  0  0  0  0  0  0  0  0  0  0  0
   -5.4240   22.4430  -32.0040 C   0  0  2  0  0  0  0  0  0  0  0  0
   -2.6810   22.8850  -29.7520 C   0  0  0  0  0  0  0  0  0  0  0  0
   -1.9540   21.9400  -29.0220 C   0  0  0  0  0  0  0  0  0  0  0  0
   -0.4170   19.3760  -29.7240 C   0  0  0  0  0  0  0  0  0  0  0  0
   -0.0060   18.8120  -30.9410 C   0  0  0  0  0  0  0  0  0  0  0  0
   -1.0220   18.4740  -32.0060 C   0  0  0  0  0  0  0  0  0  0  0  0
   -0.8630   19.3520  -33.2640 C   0  0  0  0  0  0  0  0  0  0  0  0
   -0.2914   16.8568  -33.5732 H   0  0  0  0  0  0  0  0  0  0  0  0
   -1.1041   17.3480  -35.0979 H   0  0  0  0  0  0  0  0  0  0  0  0
    0.6517   16.9684  -35.0979 H   0  0  0  0  0  0  0  0  0  0  0  0
    2.2104   18.6686  -34.5482 H   0  0  0  0  0  0  0  0  0  0  0  0
    1.6647   19.9844  -33.4060 H   0  0  0  0  0  0  0  0  0  0  0  0
    1.3195   17.0740  -32.6618 H   0  0  0  0  0  0  0  0  0  0  0  0
    2.9213   17.9316  -32.4550 H   0  0  0  0  0  0  0  0  0  0  0  0
    3.3806   18.8561  -30.4154 H   0  0  0  0  0  0  0  0  0  0  0  0
    0.8220   20.5710  -26.7790 H   0  0  0  0  0  0  0  0  0  0  0  0
   -4.2325   21.2737  -26.5603 H   0  0  0  0  0  0  0  0  0  0  0  0
   -5.5227   22.9744  -27.8499 H   0  0  0  0  0  0  0  0  0  0  0  0
   -7.1206   23.2335  -29.6447 H   0  0  0  0  0  0  0  0  0  0  0  0
   -7.8852   24.3675  -30.8522 H   0  0  0  0  0  0  0  0  0  0  0  0
   -9.0373   22.1782  -30.7850 H   0  0  0  0  0  0  0  0  0  0  0  0
   -8.2616   22.5197  -32.3891 H   0  0  0  0  0  0  0  0  0  0  0  0
   -7.6257   20.4133  -30.3462 H   0  0  0  0  0  0  0  0  0  0  0  0
   -7.5342   20.3797  -32.1604 H   0  0  0  0  0  0  0  0  0  0  0  0
   -5.4795   21.3332  -30.1453 H   0  0  0  0  0  0  0  0  0  0  0  0
   -4.1356   19.7770  -30.9480 H   0  0  0  0  0  0  0  0  0  0  0  0
   -5.6692   19.0586  -31.6108 H   0  0  0  0  0  0  0  0  0  0  0  0
   -3.8753   19.1342  -33.3125 H   0  0  0  0  0  0  0  0  0  0  0  0
   -5.2980   20.1743  -33.7435 H   0  0  0  0  0  0  0  0  0  0  0  0
   -2.4941   20.9675  -32.9446 H   0  0  0  0  0  0  0  0  0  0  0  0
   -3.5890   21.5912  -34.2718 H   0  0  0  0  0  0  0  0  0  0  0  0
   -3.3379   22.4588  -31.4185 H   0  0  0  0  0  0  0  0  0  0  0  0
   -3.7183   23.3977  -32.9193 H   0  0  0  0  0  0  0  0  0  0  0  0
   -5.9281   22.4053  -32.9810 H   0  0  0  0  0  0  0  0  0  0  0  0
   -2.2450   23.3325  -30.6573 H   0  0  0  0  0  0  0  0  0  0  0  0
   -0.9456   21.6499  -29.3520 H   0  0  0  0  0  0  0  0  0  0  0  0
   -1.4874   19.5505  -29.5404 H   0  0  0  0  0  0  0  0  0  0  0  0
   -0.8973   17.4193  -32.2923 H   0  0  0  0  0  0  0  0  0  0  0  0
   -2.0226   18.6605  -31.5888 H   0  0  0  0  0  0  0  0  0  0  0  0
   -1.8373   19.4172  -33.7704 H   0  0  0  0  0  0  0  0  0  0  0  0
   -0.5034   20.3371  -32.9320 H   0  0  0  0  0  0  0  0  0  0  0  0
  1  2  1  0
  2  3  1  0
  3  4  1  0
  4  5  1  0
  5  6  2  0
  6  7  1  0
  7  8  1  0
  7  9  2  0
  9 10  1  0
 10 11  1  0
 11 12  2  0
 11 13  2  0
 11 14  1  0
 14 15  2  0
 15 16  1  0
 16 17  2  0
 17 18  1  0
 18 19  2  0
 18 20  2  0
 18 21  1  0
 21 22  1  0
 22 23  1  0
 23 24  1  0
 24 25  1  0
 25 26  1  0
 26 27  1  0
 27 28  1  0
 28 29  1  0
 29 30  1  0
 17 31  1  0
 31 32  2  0
  9 33  1  0
 33 34  2  0
 34 35  1  0
 35 36  1  0
 36  2  1  0
 34  5  1  0
 32 14  1  0
 30 21  1  0
 30 25  1  0
  1 37  1  0
  1 38  1  0
  1 39  1  0
  3 40  1  0
  3 41  1  0
  4 42  1  0
  4 43  1  0
  6 44  1  0
 10 45  1  0
 15 46  1  0
 16 47  1  0
 22 48  1  0
 22 49  1  0
 23 50  1  0
 23 51  1  0
 24 52  1  0
 24 53  1  0
 25 54  1  1
 26 55  1  0
 26 56  1  0
 27 57  1  0
 27 58  1  0
 28 59  1  0
 28 60  1  0
 29 61  1  0
 29 62  1  0
 30 63  1  6
 31 64  1  0
 32 65  1  0
 33 66  1  0
 35 67  1  0
 35 68  1  0
 36 69  1  0
 36 70  1  0
M  CHG  1   8  -1
M  END
>  <UniqueID>  (22) 
22

>  <SMILES>  (22) 
CN1CCc2cc([O-])c(NS(=O)(=O)c3ccc(S(=O)(=O)N4CCC[C@H]5CCCC[C@@H]54)cc3)cc2CC1

>  <Energy>  (22) 
103.73420202610674

>  <Genealogy>  (22) 
CN1CCc2cc([O-])c(NS(=O)(=O)c3ccc(S(=O)(=O)N4CCCC5CCCCC54)cc3)cc2CC1 (protonated)
CN1CCc2cc([O-])c(NS(=O)(=O)c3ccc(S(=O)(=O)N4CCC[C@H]5CCCC[C@@H]54)cc3)cc2CC1 (chirality)
CN1CCc2cc([O-])c(NS(=O)(=O)c3ccc(S(=O)(=O)N4CCC[C@H]5CCCC[C@@H]54)cc3)cc2CC1 (3D coordinates assigned)
CN1CCc2cc([O-])c(NS(=O)(=O)c3ccc(S(=O)(=O)N4CCC[C@H]5CCCC[C@@H]54)cc3)cc2CC1 (nonaromatic ring conformer: 103.73420202610674 kcal/mol)

>  <smiles>  (22) 
CN1CCc2cc(O)c(NS(=O)(=O)c3ccc(S(=O)(=O)N4CCCC5CCCCC54)cc3)cc2CC1

>  <score_type>  (22) 
oracle

>  <origin>  (22) 
adgpu

>  <m_score__min__energy>  (22) 
-11.630000000000001

>  <m_primary>  (22) 
energy

$$$$
22:0
     RDKit          3D

 39 40  0  0  0  0  0  0  0  0999 V2000
   -1.6920   19.9390  -27.3080 C   0  0  0  0  0  0  0  0  0  0  0  0
   -1.1100   21.1680  -27.7330 O   0  0  0  0  0  0  0  0  0  0  0  0
   -1.8090   22.1920  -28.3920 C   0  0  0  0  0  0  0  0  0  0  0  0
   -2.2830   23.3300  -27.7120 C   0  0  0  0  0  0  0  0  0  0  0  0
   -2.9590   24.3350  -28.4070 C   0  0  0  0  0  0  0  0  0  0  0  0
   -3.1600   24.2300  -29.7840 C   0  0  0  0  0  0  0  0  0  0  0  0
   -3.8460   25.2840  -30.4710 N   0  0  0  0  0  0  0  0  0  0  0  0
   -5.2660   25.4980  -30.4870 C   0  0  0  0  0  0  0  0  0  0  0  0
   -5.7020   26.6760  -30.4050 O   0  0  0  0  0  0  0  0  0  0  0  0
   -6.2430   24.3700  -30.6620 C   0  0  0  0  0  0  0  0  0  0  0  0
   -5.8240   23.3970  -32.1510 S   0  0  0  0  0  0  0  0  0  0  0  0
   -7.2520   22.3190  -32.0170 C   0  0  0  0  0  0  0  0  0  0  0  0
   -8.4800   22.7550  -31.6800 N   0  0  0  0  0  0  0  0  0  0  0  0
   -9.2910   21.7080  -31.7360 N   0  0  0  0  0  0  0  0  0  0  0  0
   -8.5420   20.6510  -32.1080 C   0  0  0  0  0  0  0  0  0  0  0  0
   -9.0940   19.2790  -32.3200 C   0  0  0  0  0  0  0  0  0  0  0  0
   -7.2510   20.9980  -32.2750 N   0  0  0  0  0  0  0  0  0  0  0  0
   -6.1520   20.1820  -32.7850 C   0  0  0  0  0  0  0  0  0  0  0  0
   -2.7330   23.0770  -30.4580 C   0  0  0  0  0  0  0  0  0  0  0  0
   -2.0360   22.0640  -29.7710 C   0  0  0  0  0  0  0  0  0  0  0  0
   -1.5520   20.9190  -30.4240 O   0  0  0  0  0  0  0  0  0  0  0  0
   -1.4530   20.7790  -31.8370 C   0  0  0  0  0  0  0  0  0  0  0  0
   -1.7094   19.9023  -26.2087 H   0  0  0  0  0  0  0  0  0  0  0  0
   -2.7197   19.8673  -27.6936 H   0  0  0  0  0  0  0  0  0  0  0  0
   -1.0963   19.0985  -27.6936 H   0  0  0  0  0  0  0  0  0  0  0  0
   -2.1201   23.4279  -26.6285 H   0  0  0  0  0  0  0  0  0  0  0  0
   -3.3356   25.2153  -27.8655 H   0  0  0  0  0  0  0  0  0  0  0  0
   -6.2051   23.7162  -29.7782 H   0  0  0  0  0  0  0  0  0  0  0  0
   -7.2545   24.7863  -30.7783 H   0  0  0  0  0  0  0  0  0  0  0  0
   -9.2844   18.8058  -31.3454 H   0  0  0  0  0  0  0  0  0  0  0  0
  -10.0352   19.3458  -32.8853 H   0  0  0  0  0  0  0  0  0  0  0  0
   -8.3688   18.6753  -32.8853 H   0  0  0  0  0  0  0  0  0  0  0  0
   -5.5854   19.7613  -31.9412 H   0  0  0  0  0  0  0  0  0  0  0  0
   -6.5569   19.3640  -33.3989 H   0  0  0  0  0  0  0  0  0  0  0  0
   -5.4861   20.8062  -33.3989 H   0  0  0  0  0  0  0  0  0  0  0  0
   -2.9440   22.9627  -31.5315 H   0  0  0  0  0  0  0  0  0  0  0  0
   -0.8331   19.9023  -32.0761 H   0  0  0  0  0  0  0  0  0  0  0  0
   -2.4580   20.6447  -32.2635 H   0  0  0  0  0  0  0  0  0  0  0  0
   -0.9914   21.6818  -32.2635 H   0  0  0  0  0  0  0  0  0  0  0  0
  1  2  1  0
  2  3  1  0
  3  4  2  0
  4  5  1  0
  5  6  2  0
  6  7  1  0
  7  8  1  0
  8  9  2  0
  8 10  1  0
 10 11  1  0
 11 12  1  0
 12 13  2  0
 13 14  1  0
 14 15  2  0
 15 16  1  0
 15 17  1  0
 17 18  1  0
  6 19  1  0
 19 20  2  0
 20 21  1  0
 21 22  1  0
 20  3  1  0
 17 12  1  0
  1 23  1  0
  1 24  1  0
  1 25  1  0
  4 26  1  0
  5 27  1  0
 10 28  1  0
 10 29  1  0
 16 30  1  0
 16 31  1  0
 16 32  1  0
 18 33  1  0
 18 34  1  0
 18 35  1  0
 19 36  1  0
 22 37  1  0
 22 38  1  0
 22 39  1  0
M  CHG  1   7  -1
M  END
>  <UniqueID>  (23) 
23

>  <SMILES>  (23) 
COc1ccc([N-]C(=O)CSc2nnc(C)n2C)cc1OC

>  <Energy>  (23) 
70.6687937823462

>  <Genealogy>  (23) 
COc1ccc([N-]C(=O)CSc2nnc(C)n2C)cc1OC (protonated)
COc1ccc([N-]C(=O)CSc2nnc(C)n2C)cc1OC (3D coordinates assigned)
COc1ccc([N-]C(=O)CSc2nnc(C)n2C)cc1OC (optimized conformer: 70.6687937823462 kcal/mol)

>  <smiles>  (23) 
COc1ccc(NC(=O)CSc2nnc(C)n2C)cc1OC

>  <score_type>  (23) 
oracle

>  <origin>  (23) 
adgpu

>  <m_score__min__energy>  (23) 
-8.7200000000000006

>  <m_primary>  (23) 
energy

$$$$
23:0
     RDKit          3D

 42 44  0  0  0  0  0  0  0  0999 V2000
   -9.2330   18.5330  -32.0040 C   0  0  0  0  0  0  0  0  0  0  0  0
   -8.2410   19.6560  -32.0550 C   0  0  0  0  0  0  0  0  0  0  0  0
   -8.5850   20.9360  -31.5880 C   0  0  0  0  0  0  0  0  0  0  0  0
   -7.6660   21.9870  -31.6760 C   0  0  0  0  0  0  0  0  0  0  0  0
   -6.4010   21.7680  -32.2330 C   0  0  0  0  0  0  0  0  0  0  0  0
   -5.2260   23.1210  -32.3390 S   0  0  0  0  0  0  0  0  0  0  0  0
   -5.8850   24.0110  -30.8830 C   0  0  0  0  0  0  0  0  0  0  0  0
   -5.0930   25.2570  -30.5880 C   0  0  0  0  0  0  0  0  0  0  0  0
   -5.7110   26.3360  -30.3900 O   0  0  0  0  0  0  0  0  0  0  0  0
   -3.6640   25.2520  -30.4620 N   0  0  0  0  0  0  0  0  0  0  0  0
   -2.8830   24.3500  -29.6680 C   0  0  0  0  0  0  0  0  0  0  0  0
   -3.2810   23.0180  -29.4780 C   0  0  0  0  0  0  0  0  0  0  0  0
   -2.5290   22.1540  -28.6670 C   0  0  0  0  0  0  0  0  0  0  0  0
   -1.3300   22.6110  -28.0940 C   0  0  0  0  0  0  0  0  0  0  0  0
   -0.8960   23.9210  -28.3420 C   0  0  0  0  0  0  0  0  0  0  0  0
   -1.6700   24.7870  -29.1210 C   0  0  0  0  0  0  0  0  0  0  0  0
   -1.2370   26.0890  -29.3330 O   0  0  0  0  0  0  0  0  0  0  0  0
   -0.5220   21.6870  -27.2310 C   0  0  0  0  0  0  0  0  0  0  0  0
   -1.4710   20.8600  -26.3680 C   0  0  0  0  0  0  0  0  0  0  0  0
   -2.4070   20.0000  -27.2370 C   0  0  0  0  0  0  0  0  0  0  0  0
   -2.9770   20.7180  -28.4910 C   0  0  0  0  0  0  0  0  0  0  0  0
   -6.0670   20.5050  -32.7350 C   0  0  0  0  0  0  0  0  0  0  0  0
   -6.9850   19.4540  -32.6500 C   0  0  0  0  0  0  0  0  0  0  0  0
   -9.4522   18.2848  -30.9550 H   0  0  0  0  0  0  0  0  0  0  0  0
  -10.1604   18.8397  -32.5098 H   0  0  0  0  0  0  0  0  0  0  0  0
   -8.8142   17.6505  -32.5098 H   0  0  0  0  0  0  0  0  0  0  0  0
   -9.5795   21.1120  -31.1521 H   0  0  0  0  0  0  0  0  0  0  0  0
   -7.9380   22.9869  -31.3069 H   0  0  0  0  0  0  0  0  0  0  0  0
   -6.9305   24.2910  -31.0792 H   0  0  0  0  0  0  0  0  0  0  0  0
   -5.8131   23.3440  -30.0113 H   0  0  0  0  0  0  0  0  0  0  0  0
   -4.1922   22.6469  -29.9700 H   0  0  0  0  0  0  0  0  0  0  0  0
    0.0588   24.2696  -27.9214 H   0  0  0  0  0  0  0  0  0  0  0  0
    0.0771   21.0180  -27.8663 H   0  0  0  0  0  0  0  0  0  0  0  0
    0.1521   22.2720  -26.5881 H   0  0  0  0  0  0  0  0  0  0  0  0
   -0.8800   20.2002  -25.7158 H   0  0  0  0  0  0  0  0  0  0  0  0
   -2.0859   21.5478  -25.7690 H   0  0  0  0  0  0  0  0  0  0  0  0
   -1.8446   19.1171  -27.5747 H   0  0  0  0  0  0  0  0  0  0  0  0
   -3.2716   19.7493  -26.6049 H   0  0  0  0  0  0  0  0  0  0  0  0
   -2.6634   20.1516  -29.3803 H   0  0  0  0  0  0  0  0  0  0  0  0
   -4.0682   20.7514  -28.3559 H   0  0  0  0  0  0  0  0  0  0  0  0
   -5.0823   20.3393  -33.1964 H   0  0  0  0  0  0  0  0  0  0  0  0
   -6.7222   18.4640  -33.0511 H   0  0  0  0  0  0  0  0  0  0  0  0
  1  2  1  0
  2  3  2  0
  3  4  1  0
  4  5  2  0
  5  6  1  0
  6  7  1  0
  7  8  1  0
  8  9  2  0
  8 10  1  0
 10 11  1  0
 11 12  2  0
 12 13  1  0
 13 14  2  0
 14 15  1  0
 15 16  2  0
 16 17  1  0
 14 18  1  0
 18 19  1  0
 19 20  1  0
 20 21  1  0
  5 22  1  0
 22 23  2  0
 23  2  1  0
 16 11  1  0
 21 13  1  0
  1 24  1  0
  1 25  1  0
  1 26  1  0
  3 27  1  0
  4 28  1  0
  7 29  1  0
  7 30  1  0
 12 31  1  0
 15 32  1  0
 18 33  1  0
 18 34  1  0
 19 35  1  0
 19 36  1  0
 20 37  1  0
 20 38  1  0
 21 39  1  0
 21 40  1  0
 22 41  1  0
 23 42  1  0
M  CHG  2  10  -1  17  -1
M  END
>  <UniqueID>  (24) 
24

>  <SMILES>  (24) 
Cc1ccc(SCC(=O)[N-]c2cc3c(cc2[O-])CCCC3)cc1

>  <Energy>  (24) 
47.144944199706636

>  <Genealogy>  (24) 
Cc1ccc(SCC(=O)[N-]c2cc3c(cc2[O-])CCCC3)cc1 (protonated)
Cc1ccc(SCC(=O)[N-]c2cc3c(cc2[O-])CCCC3)cc1 (3D coordinates assigned)
Cc1ccc(SCC(=O)[N-]c2cc3c(cc2[O-])CCCC3)cc1 (nonaromatic ring conformer: 47.144944199706636 kcal/mol)

>  <smiles>  (24) 
Cc1ccc(SCC(=O)Nc2cc3c(cc2O)CCCC3)cc1

>  <score_type>  (24) 
oracle

>  <origin>  (24) 
adgpu

>  <m_score__min__energy>  (24) 
-14.369999999999999

>  <m_primary>  (24) 
energy

$$$$
24:0
     RDKit          3D

 40 42  0  0  0  0  0  0  0  0999 V2000
   -9.6880   21.6850  -32.3430 O   0  0  0  0  0  0  0  0  0  0  0  0
   -8.5790   21.4370  -31.7970 C   0  0  0  0  0  0  0  0  0  0  0  0
   -8.1610   22.2030  -30.6590 N   0  0  0  0  0  0  0  0  0  0  0  0
   -6.9740   23.0050  -30.5540 C   0  0  0  0  0  0  0  0  0  0  0  0
   -6.9350   24.3390  -30.9950 C   0  0  0  0  0  0  0  0  0  0  0  0
   -5.7660   25.0910  -30.8520 C   0  0  0  0  0  0  0  0  0  0  0  0
   -4.6340   24.5300  -30.2570 C   0  0  0  0  0  0  0  0  0  0  0  0
   -3.4800   25.2960  -30.1270 O   0  0  0  0  0  0  0  0  0  0  0  0
   -4.6700   23.2050  -29.7880 C   0  0  0  0  0  0  0  0  0  0  0  0
   -3.2490   22.4960  -29.0200 S   0  0  0  0  0  0  0  0  0  0  0  0
   -3.4460   22.4270  -27.5310 O   0  0  0  0  0  0  0  0  0  0  0  0
   -3.0400   21.1110  -29.5650 O   0  0  0  0  0  0  0  0  0  0  0  0
   -1.8710   23.4880  -29.3700 N   0  0  0  0  0  0  0  0  0  0  0  0
   -0.8730   23.8860  -28.4200 C   0  0  0  0  0  0  0  0  0  0  0  0
   -0.1990   22.9500  -27.6120 C   0  0  0  0  0  0  0  0  0  0  0  0
    0.7680   23.3750  -26.6970 C   0  0  0  0  0  0  0  0  0  0  0  0
    1.0710   24.7330  -26.5780 C   0  0  0  0  0  0  0  0  0  0  0  0
    0.4070   25.6700  -27.3730 C   0  0  0  0  0  0  0  0  0  0  0  0
   -0.5640   25.2510  -28.2950 C   0  0  0  0  0  0  0  0  0  0  0  0
   -1.2260   26.1860  -29.0890 O   0  0  0  0  0  0  0  0  0  0  0  0
   -5.8460   22.4540  -29.9340 C   0  0  0  0  0  0  0  0  0  0  0  0
   -7.6910   20.3950  -32.3790 C   0  0  0  0  0  0  0  0  0  0  0  0
   -6.4390   20.7700  -32.9090 C   0  0  0  0  0  0  0  0  0  0  0  0
   -5.5800   19.8150  -33.4600 C   0  0  0  0  0  0  0  0  0  0  0  0
   -5.9560   18.4730  -33.4940 C   0  0  0  0  0  0  0  0  0  0  0  0
   -7.1920   18.0820  -32.9790 C   0  0  0  0  0  0  0  0  0  0  0  0
   -8.0620   19.0280  -32.4240 C   0  0  0  0  0  0  0  0  0  0  0  0
   -9.2860   18.5930  -31.9320 O   0  0  0  0  0  0  0  0  0  0  0  0
   -7.8264   24.7919  -31.4536 H   0  0  0  0  0  0  0  0  0  0  0  0
   -5.7372   26.1307  -31.2101 H   0  0  0  0  0  0  0  0  0  0  0  0
   -0.4348   21.8793  -27.7015 H   0  0  0  0  0  0  0  0  0  0  0  0
    1.2914   22.6386  -26.0695 H   0  0  0  0  0  0  0  0  0  0  0  0
    1.8331   25.0650  -25.8576 H   0  0  0  0  0  0  0  0  0  0  0  0
    0.6460   26.7393  -27.2760 H   0  0  0  0  0  0  0  0  0  0  0  0
   -2.1780   26.0380  -29.4000 H   0  0  0  0  0  0  0  0  0  0  0  0
   -5.8822   21.4211  -29.5573 H   0  0  0  0  0  0  0  0  0  0  0  0
   -6.1348   21.8269  -32.8885 H   0  0  0  0  0  0  0  0  0  0  0  0
   -4.6057   20.1228  -33.8675 H   0  0  0  0  0  0  0  0  0  0  0  0
   -5.2781   17.7226  -33.9269 H   0  0  0  0  0  0  0  0  0  0  0  0
   -7.4853   17.0223  -33.0092 H   0  0  0  0  0  0  0  0  0  0  0  0
  1  2  2  0
  2  3  1  0
  3  4  1  0
  4  5  2  0
  5  6  1  0
  6  7  2  0
  7  8  1  0
  7  9  1  0
  9 10  1  0
 10 11  2  0
 10 12  2  0
 10 13  1  0
 13 14  1  0
 14 15  2  0
 15 16  1  0
 16 17  2  0
 17 18  1  0
 18 19  2  0
 19 20  1  0
  9 21  2  0
  2 22  1  0
 22 23  2  0
 23 24  1  0
 24 25  2  0
 25 26  1  0
 26 27  2  0
 27 28  1  0
 21  4  1  0
 27 22  1  0
 19 14  1  0
  5 29  1  0
  6 30  1  0
 15 31  1  0
 16 32  1  0
 17 33  1  0
 18 34  1  0
 20 35  1  0
 21 36  1  0
 23 37  1  0
 24 38  1  0
 25 39  1  0
 26 40  1  0
M  CHG  4   3  -1   8  -1  13  -1  28  -1
M  END
>  <UniqueID>  (25) 
25

>  <SMILES>  (25) 
O=C([N-]c1ccc([O-])c(S(=O)(=O)[N-]c2ccccc2O)c1)c1ccccc1[O-]

>  <Energy>  (25) 
54.4282304755107

>  <Genealogy>  (25) 
O=C([N-]c1ccc([O-])c(S(=O)(=O)[N-]c2ccccc2O)c1)c1ccccc1[O-] (protonated)
O=C([N-]c1ccc([O-])c(S(=O)(=O)[N-]c2ccccc2O)c1)c1ccccc1[O-] (3D coordinates assigned)
O=C([N-]c1ccc([O-])c(S(=O)(=O)[N-]c2ccccc2O)c1)c1ccccc1[O-] (optimized conformer: 54.4282304755107 kcal/mol)

>  <smiles>  (25) 
O=C(Nc1ccc(O)c(S(=O)(=O)Nc2ccccc2O)c1)c1ccccc1O

>  <score_type>  (25) 
oracle

>  <origin>  (25) 
adgpu

>  <m_score__min__energy>  (25) 
-13.119999999999999

>  <m_primary>  (25) 
energy

$$$$
25:0
     RDKit          3D

 52 55  0  0  0  0  0  0  0  0999 V2000
   -9.4850   18.3290  -31.5970 N   0  0  0  0  0  0  0  0  0  0  0  0
   -8.4170   18.3190  -32.0440 C   0  0  0  0  0  0  0  0  0  0  0  0
   -7.0890   18.3080  -32.5980 C   0  0  0  0  0  0  0  0  0  0  0  0
   -6.7450   19.2060  -33.6160 C   0  0  0  0  0  0  0  0  0  0  0  0
   -5.4560   19.1930  -34.1560 C   0  0  0  0  0  0  0  0  0  0  0  0
   -4.4980   18.2780  -33.6850 C   0  0  0  0  0  0  0  0  0  0  0  0
   -3.1090   18.2540  -34.2710 C   0  0  0  0  0  0  0  0  0  0  0  0
   -2.2440   19.2460  -33.6140 N   0  0  0  0  0  0  0  0  0  0  0  0
   -0.7850   19.0910  -33.7380 C   0  0  0  0  0  0  0  0  0  0  0  0
   -0.1830   20.1770  -34.5810 C   0  0  0  0  0  0  0  0  0  0  0  0
   -0.2480   21.5510  -34.3650 C   0  0  0  0  0  0  0  0  0  0  0  0
    0.3720   22.3000  -35.3720 C   0  0  0  0  0  0  0  0  0  0  0  0
    0.9140   21.5270  -36.3880 C   0  0  0  0  0  0  0  0  0  0  0  0
    0.6210   19.9100  -36.0330 S   0  0  0  0  0  0  0  0  0  0  0  0
   -2.8400   20.2940  -32.8050 C   0  0  0  0  0  0  0  0  0  0  0  0
   -2.7200   20.3120  -31.4010 C   0  0  0  0  0  0  0  0  0  0  0  0
   -3.3210   21.3370  -30.6690 C   0  0  0  0  0  0  0  0  0  0  0  0
   -4.0520   22.3320  -31.3230 C   0  0  0  0  0  0  0  0  0  0  0  0
   -4.8200   23.6350  -30.4080 S   0  0  0  0  0  0  0  0  0  0  0  0
   -4.4590   23.4900  -28.9560 O   0  0  0  0  0  0  0  0  0  0  0  0
   -4.2830   24.9530  -30.8910 O   0  0  0  0  0  0  0  0  0  0  0  0
   -6.5600   23.6400  -30.5640 N   0  0  0  0  0  0  0  0  0  0  0  0
   -6.9890   23.7940  -31.9530 C   0  0  0  0  0  0  0  0  0  0  0  0
   -8.3680   23.1600  -32.0510 C   0  0  0  0  0  0  0  0  0  0  0  0
   -8.4860   22.2580  -30.8300 C   0  0  0  0  0  0  0  0  0  0  0  0
   -7.1560   22.3870  -30.1070 C   0  0  0  0  0  0  0  0  0  0  0  0
   -4.1530   22.2860  -32.7160 C   0  0  0  0  0  0  0  0  0  0  0  0
   -3.5580   21.2810  -33.4110 N   0  0  0  0  0  0  0  0  0  0  0  0
   -4.8490   17.3830  -32.6610 C   0  0  0  0  0  0  0  0  0  0  0  0
   -6.1380   17.3970  -32.1220 C   0  0  0  0  0  0  0  0  0  0  0  0
   -7.4904   19.9227  -33.9912 H   0  0  0  0  0  0  0  0  0  0  0  0
   -5.1896   19.9022  -34.9535 H   0  0  0  0  0  0  0  0  0  0  0  0
   -2.6771   17.2519  -34.1325 H   0  0  0  0  0  0  0  0  0  0  0  0
   -3.1751   18.4998  -35.3411 H   0  0  0  0  0  0  0  0  0  0  0  0
   -0.3357   19.1277  -32.7346 H   0  0  0  0  0  0  0  0  0  0  0  0
   -0.5820   18.1256  -34.2247 H   0  0  0  0  0  0  0  0  0  0  0  0
   -0.7379   22.0030  -33.4900 H   0  0  0  0  0  0  0  0  0  0  0  0
    0.4244   23.3987  -35.3588 H   0  0  0  0  0  0  0  0  0  0  0  0
    1.4444   21.9066  -37.2738 H   0  0  0  0  0  0  0  0  0  0  0  0
   -2.1553   19.5219  -30.8845 H   0  0  0  0  0  0  0  0  0  0  0  0
   -3.2189   21.3616  -29.5740 H   0  0  0  0  0  0  0  0  0  0  0  0
   -7.0410   24.8601  -32.2188 H   0  0  0  0  0  0  0  0  0  0  0  0
   -6.2803   23.3143  -32.6441 H   0  0  0  0  0  0  0  0  0  0  0  0
   -9.1495   23.9340  -32.0347 H   0  0  0  0  0  0  0  0  0  0  0  0
   -8.4943   22.5983  -32.9883 H   0  0  0  0  0  0  0  0  0  0  0  0
   -9.3105   22.5915  -30.1827 H   0  0  0  0  0  0  0  0  0  0  0  0
   -8.7021   21.2161  -31.1089 H   0  0  0  0  0  0  0  0  0  0  0  0
   -7.3153   22.4157  -29.0190 H   0  0  0  0  0  0  0  0  0  0  0  0
   -6.4998   21.5307  -30.3218 H   0  0  0  0  0  0  0  0  0  0  0  0
   -4.7155   23.0651  -33.2513 H   0  0  0  0  0  0  0  0  0  0  0  0
   -4.1051   16.6672  -32.2813 H   0  0  0  0  0  0  0  0  0  0  0  0
   -6.4063   16.6910  -31.3222 H   0  0  0  0  0  0  0  0  0  0  0  0
  1  2  3  0
  2  3  1  0
  3  4  2  0
  4  5  1  0
  5  6  2  0
  6  7  1  0
  7  8  1  0
  8  9  1  0
  9 10  1  0
 10 11  2  0
 11 12  1  0
 12 13  2  0
 13 14  1  0
  8 15  1  0
 15 16  2  0
 16 17  1  0
 17 18  2  0
 18 19  1  0
 19 20  2  0
 19 21  2  0
 19 22  1  0
 22 23  1  0
 23 24  1  0
 24 25  1  0
 25 26  1  0
 18 27  1  0
 27 28  2  0
  6 29  1  0
 29 30  2  0
 30  3  1  0
 14 10  1  0
 28 15  1  0
 26 22  1  0
  4 31  1  0
  5 32  1  0
  7 33  1  0
  7 34  1  0
  9 35  1  0
  9 36  1  0
 11 37  1  0
 12 38  1  0
 13 39  1  0
 16 40  1  0
 17 41  1  0
 23 42  1  0
 23 43  1  0
 24 44  1  0
 24 45  1  0
 25 46  1  0
 25 47  1  0
 26 48  1  0
 26 49  1  0
 27 50  1  0
 29 51  1  0
 30 52  1  0
M  END
>  <UniqueID>  (26) 
26

>  <SMILES>  (26) 
N#Cc1ccc(CN(Cc2cccs2)c2ccc(S(=O)(=O)N3CCCC3)cn2)cc1

>  <Energy>  (26) 
81.73327249497802

>  <Genealogy>  (26) 
N#Cc1ccc(CN(Cc2cccs2)c2ccc(S(=O)(=O)N3CCCC3)cn2)cc1 (3D coordinates assigned)
N#Cc1ccc(CN(Cc2cccs2)c2ccc(S(=O)(=O)N3CCCC3)cn2)cc1 (nonaromatic ring conformer: 81.73327249497802 kcal/mol)

>  <smiles>  (26) 
N#Cc1ccc(CN(Cc2cccs2)c2ccc(S(=O)(=O)N3CCCC3)cn2)cc1

>  <score_type>  (26) 
oracle

>  <origin>  (26) 
adgpu

>  <m_score__min__energy>  (26) 
-9.4399999999999995

>  <m_primary>  (26) 
energy

$$$$
26:0
     RDKit          3D

 54 56  0  0  0  0  0  0  0  0999 V2000
   -5.4910   25.3450  -30.4220 C   0  0  0  0  0  0  0  0  0  0  0  0
   -4.4680   24.4870  -29.6930 C   0  0  0  0  0  0  0  0  0  0  0  0
   -3.1230   24.9160  -30.0620 N   0  0  0  0  0  0  0  0  0  0  0  0
   -2.0070   24.5470  -28.7840 S   0  0  0  0  0  0  0  0  0  0  0  0
   -0.6380   25.0480  -29.1530 O   0  0  0  0  0  0  0  0  0  0  0  0
   -2.4460   25.2510  -27.5320 O   0  0  0  0  0  0  0  0  0  0  0  0
   -1.9510   22.8110  -28.4830 C   0  0  0  0  0  0  0  0  0  0  0  0
   -2.8880   22.2140  -27.6300 C   0  0  0  0  0  0  0  0  0  0  0  0
   -2.8360   20.8410  -27.3810 C   0  0  0  0  0  0  0  0  0  0  0  0
   -1.8570   20.0530  -27.9940 C   0  0  0  0  0  0  0  0  0  0  0  0
   -0.9360   20.6320  -28.8760 C   0  0  0  0  0  0  0  0  0  0  0  0
    0.0520   19.7970  -29.4980 N   0  0  0  0  0  0  0  0  0  0  0  0
   -0.0410   19.2330  -30.8140 C   0  0  0  0  0  0  0  0  0  0  0  0
    0.6010   18.1790  -31.0660 O   0  0  0  0  0  0  0  0  0  0  0  0
   -0.8810   19.8420  -31.8710 C   0  0  0  0  0  0  0  0  0  0  0  0
   -2.1550   20.3360  -31.5410 C   0  0  0  0  0  0  0  0  0  0  0  0
   -2.9790   20.9030  -32.5240 C   0  0  0  0  0  0  0  0  0  0  0  0
   -4.5680   21.5390  -32.0950 S   0  0  0  0  0  0  0  0  0  0  0  0
   -4.8030   21.3180  -30.6250 O   0  0  0  0  0  0  0  0  0  0  0  0
   -4.5970   23.0200  -32.3500 O   0  0  0  0  0  0  0  0  0  0  0  0
   -5.8470   20.7770  -33.0170 N   0  0  0  0  0  0  0  0  0  0  0  0
   -7.1890   21.1160  -32.4880 C   0  0  0  0  0  0  0  0  0  0  0  0
   -8.1780   19.9470  -32.5640 C   0  0  0  0  0  0  0  0  0  0  0  0
   -7.6240   18.7580  -31.7810 C   0  0  0  0  0  0  0  0  0  0  0  0
   -6.1780   18.4040  -32.1870 C   0  0  0  0  0  0  0  0  0  0  0  0
   -5.5860   19.3400  -33.2630 C   0  0  0  0  0  0  0  0  0  0  0  0
   -2.5290   20.9720  -33.8460 C   0  0  0  0  0  0  0  0  0  0  0  0
   -1.2580   20.5060  -34.1810 C   0  0  0  0  0  0  0  0  0  0  0  0
   -0.4250   19.9500  -33.2020 C   0  0  0  0  0  0  0  0  0  0  0  0
    0.8580   19.5200  -33.5500 O   0  0  0  0  0  0  0  0  0  0  0  0
   -0.9750   22.0190  -29.1040 C   0  0  0  0  0  0  0  0  0  0  0  0
   -6.1184   25.8712  -29.6875 H   0  0  0  0  0  0  0  0  0  0  0  0
   -4.9700   26.0803  -31.0528 H   0  0  0  0  0  0  0  0  0  0  0  0
   -6.1243   24.7040  -31.0528 H   0  0  0  0  0  0  0  0  0  0  0  0
   -4.6034   24.5979  -28.6070 H   0  0  0  0  0  0  0  0  0  0  0  0
   -4.6068   23.4325  -29.9736 H   0  0  0  0  0  0  0  0  0  0  0  0
   -3.6670   22.8285  -27.1550 H   0  0  0  0  0  0  0  0  0  0  0  0
   -3.5667   20.3784  -26.7012 H   0  0  0  0  0  0  0  0  0  0  0  0
   -1.8100   18.9745  -27.7827 H   0  0  0  0  0  0  0  0  0  0  0  0
   -2.5092   20.2772  -30.5012 H   0  0  0  0  0  0  0  0  0  0  0  0
   -7.0844   21.4183  -31.4355 H   0  0  0  0  0  0  0  0  0  0  0  0
   -7.5920   21.9278  -33.1114 H   0  0  0  0  0  0  0  0  0  0  0  0
   -9.1418   20.2536  -32.1314 H   0  0  0  0  0  0  0  0  0  0  0  0
   -8.3228   19.6576  -33.6153 H   0  0  0  0  0  0  0  0  0  0  0  0
   -7.6390   19.0039  -30.7090 H   0  0  0  0  0  0  0  0  0  0  0  0
   -8.2566   17.8865  -32.0054 H   0  0  0  0  0  0  0  0  0  0  0  0
   -5.5425   18.4601  -31.2909 H   0  0  0  0  0  0  0  0  0  0  0  0
   -6.2053   17.3937  -32.6211 H   0  0  0  0  0  0  0  0  0  0  0  0
   -4.4973   19.1861  -33.2950 H   0  0  0  0  0  0  0  0  0  0  0  0
   -6.0765   19.0843  -34.2138 H   0  0  0  0  0  0  0  0  0  0  0  0
   -3.1801   21.3955  -34.6249 H   0  0  0  0  0  0  0  0  0  0  0  0
   -0.9073   20.5756  -35.2213 H   0  0  0  0  0  0  0  0  0  0  0  0
    1.3880   18.8930  -32.9570 H   0  0  0  0  0  0  0  0  0  0  0  0
   -0.2362   22.4848  -29.7728 H   0  0  0  0  0  0  0  0  0  0  0  0
  1  2  1  0
  2  3  1  0
  3  4  1  0
  4  5  2  0
  4  6  2  0
  4  7  1  0
  7  8  2  0
  8  9  1  0
  9 10  2  0
 10 11  1  0
 11 12  1  0
 12 13  1  0
 13 14  2  0
 13 15  1  0
 15 16  2  0
 16 17  1  0
 17 18  1  0
 18 19  2  0
 18 20  2  0
 18 21  1  0
 21 22  1  0
 22 23  1  0
 23 24  1  0
 24 25  1  0
 25 26  1  0
 17 27  2  0
 27 28  1  0
 28 29  2  0
 29 30  1  0
 11 31  2  0
 31  7  1  0
 29 15  1  0
 26 21  1  0
  1 32  1  0
  1 33  1  0
  1 34  1  0
  2 35  1  0
  2 36  1  0
  8 37  1  0
  9 38  1  0
 10 39  1  0
 16 40  1  0
 22 41  1  0
 22 42  1  0
 23 43  1  0
 23 44  1  0
 24 45  1  0
 24 46  1  0
 25 47  1  0
 25 48  1  0
 26 49  1  0
 26 50  1  0
 27 51  1  0
 28 52  1  0
 30 53  1  0
 31 54  1  0
M  CHG  2   3  -1  12  -1
M  END
>  <UniqueID>  (27) 
27

>  <SMILES>  (27) 
CC[N-]S(=O)(=O)c1cccc([N-]C(=O)c2cc(S(=O)(=O)N3CCCCC3)ccc2O)c1

>  <Energy>  (27) 
61.52390068332695

>  <Genealogy>  (27) 
CC[N-]S(=O)(=O)c1cccc([N-]C(=O)c2cc(S(=O)(=O)N3CCCCC3)ccc2O)c1 (protonated)
CC[N-]S(=O)(=O)c1cccc([N-]C(=O)c2cc(S(=O)(=O)N3CCCCC3)ccc2O)c1 (3D coordinates assigned)
CC[N-]S(=O)(=O)c1cccc([N-]C(=O)c2cc(S(=O)(=O)N3CCCCC3)ccc2O)c1 (nonaromatic ring conformer: 61.52390068332695 kcal/mol)

>  <smiles>  (27) 
CCNS(=O)(=O)c1cccc(NC(=O)c2cc(S(=O)(=O)N3CCCCC3)ccc2O)c1

>  <score_type>  (27) 
oracle

>  <origin>  (27) 
adgpu

>  <m_score__min__energy>  (27) 
-11.050000000000001

>  <m_primary>  (27) 
energy

$$$$
27:0
     RDKit          3D

 64 67  0  0  0  0  0  0  0  0999 V2000
   -7.5690   18.9080  -32.4370 C   0  0  0  0  0  0  0  0  0  0  0  0
   -6.1100   19.2850  -32.4610 C   0  0  0  0  0  0  0  0  0  0  0  0
   -5.6880   20.3560  -31.6510 C   0  0  0  0  0  0  0  0  0  0  0  0
   -4.3540   20.7810  -31.6490 C   0  0  0  0  0  0  0  0  0  0  0  0
   -3.9620   21.8700  -30.7960 N   0  0  0  0  0  0  0  0  0  0  0  0
   -2.7380   22.6050  -30.9410 C   0  0  0  0  0  0  0  0  0  0  0  0
   -1.8660   22.2410  -31.7770 O   0  0  0  0  0  0  0  0  0  0  0  0
   -2.5170   23.7610  -30.1260 N   0  0  0  0  0  0  0  0  0  0  0  0
   -1.7240   23.7910  -28.9300 C   0  0  0  0  0  0  0  0  0  0  0  0
   -1.3250   22.5790  -28.3700 C   0  0  0  0  0  0  0  0  0  0  0  0
   -0.5790   22.5560  -27.1940 C   0  0  0  0  0  0  0  0  0  0  0  0
   -0.1980   23.7490  -26.5620 C   0  0  0  0  0  0  0  0  0  0  0  0
    0.5770   23.6560  -25.2740 C   0  0  0  0  0  0  0  0  0  0  0  0
   -0.5210   24.9940  -27.1670 C   0  0  0  0  0  0  0  0  0  0  0  0
   -0.0140   26.5400  -26.4420 S   0  0  0  0  0  0  0  0  0  0  0  0
    1.3980   26.4450  -25.9350 O   0  0  0  0  0  0  0  0  0  0  0  0
   -0.0540   27.6390  -27.4680 O   0  0  0  0  0  0  0  0  0  0  0  0
   -1.1070   26.9070  -25.0690 C   0  0  0  0  0  0  0  0  0  0  0  0
   -0.8570   26.1000  -23.8050 C   0  0  0  0  0  0  0  0  0  0  0  0
   -0.4250   27.5570  -23.8770 C   0  0  0  0  0  0  0  0  0  0  0  0
   -1.2940   25.0010  -28.3510 C   0  0  0  0  0  0  0  0  0  0  0  0
   -1.6150   26.2070  -28.9690 O   0  0  0  0  0  0  0  0  0  0  0  0
   -3.4440   20.1740  -32.5230 C   0  0  0  0  0  0  0  0  0  0  0  0
   -3.8470   19.1160  -33.3370 C   0  0  0  0  0  0  0  0  0  0  0  0
   -5.1630   18.6310  -33.2950 C   0  0  0  0  0  0  0  0  0  0  0  0
   -5.5520   17.2260  -34.3170 S   0  0  0  0  0  0  0  0  0  0  0  0
   -6.8420   16.5840  -33.8880 O   0  0  0  0  0  0  0  0  0  0  0  0
   -5.7530   17.7150  -35.7260 O   0  0  0  0  0  0  0  0  0  0  0  0
   -4.2860   16.0130  -34.3220 N   0  0  0  0  0  0  0  0  0  0  0  0
   -4.7600   14.6620  -34.6750 C   0  0  0  0  0  0  0  0  0  0  0  0
   -5.3500   13.8770  -33.4840 C   0  0  0  0  0  0  0  0  0  0  0  0
   -4.6670   14.1930  -32.1340 C   0  0  0  0  0  0  0  0  0  0  0  0
   -4.5970   12.9490  -31.2420 C   0  0  0  0  0  0  0  0  0  0  0  0
   -3.2730   14.7900  -32.3500 C   0  0  0  0  0  0  0  0  0  0  0  0
   -3.3760   16.0950  -33.1540 C   0  0  0  0  0  0  0  0  0  0  0  0
   -7.9080   18.8204  -31.3942 H   0  0  0  0  0  0  0  0  0  0  0  0
   -8.1567   19.6838  -32.9496 H   0  0  0  0  0  0  0  0  0  0  0  0
   -7.7073   17.9446  -32.9496 H   0  0  0  0  0  0  0  0  0  0  0  0
   -6.4192   20.8681  -31.0082 H   0  0  0  0  0  0  0  0  0  0  0  0
   -4.5460   22.0730  -29.9540 H   0  0  0  0  0  0  0  0  0  0  0  0
   -1.6011   21.6337  -28.8601 H   0  0  0  0  0  0  0  0  0  0  0  0
   -0.2851   21.5909  -26.7556 H   0  0  0  0  0  0  0  0  0  0  0  0
   -0.1149   23.7390  -24.4229 H   0  0  0  0  0  0  0  0  0  0  0  0
    1.0990   22.6888  -25.2292 H   0  0  0  0  0  0  0  0  0  0  0  0
    1.3130   24.4723  -25.2292 H   0  0  0  0  0  0  0  0  0  0  0  0
   -1.9915   27.1295  -25.6839 H   0  0  0  0  0  0  0  0  0  0  0  0
   -1.7010   25.8075  -23.1631 H   0  0  0  0  0  0  0  0  0  0  0  0
   -0.3533   25.1494  -23.5755 H   0  0  0  0  0  0  0  0  0  0  0  0
   -0.9565   28.3181  -23.2869 H   0  0  0  0  0  0  0  0  0  0  0  0
    0.5208   28.0965  -23.7209 H   0  0  0  0  0  0  0  0  0  0  0  0
   -2.4054   20.5337  -32.5677 H   0  0  0  0  0  0  0  0  0  0  0  0
   -3.1217   18.6542  -34.0230 H   0  0  0  0  0  0  0  0  0  0  0  0
   -5.5382   14.7582  -35.4464 H   0  0  0  0  0  0  0  0  0  0  0  0
   -3.8843   14.0976  -35.0280 H   0  0  0  0  0  0  0  0  0  0  0  0
   -6.4184   14.1249  -33.3994 H   0  0  0  0  0  0  0  0  0  0  0  0
   -5.1826   12.8090  -33.6875 H   0  0  0  0  0  0  0  0  0  0  0  0
   -5.2824   14.9434  -31.6162 H   0  0  0  0  0  0  0  0  0  0  0  0
   -4.6142   13.2541  -30.1853 H   0  0  0  0  0  0  0  0  0  0  0  0
   -5.4600   12.2995  -31.4502 H   0  0  0  0  0  0  0  0  0  0  0  0
   -3.6666   12.4004  -31.4502 H   0  0  0  0  0  0  0  0  0  0  0  0
   -2.8118   14.9997  -31.3736 H   0  0  0  0  0  0  0  0  0  0  0  0
   -2.6561   14.0708  -32.9087 H   0  0  0  0  0  0  0  0  0  0  0  0
   -3.7435   16.8861  -32.4839 H   0  0  0  0  0  0  0  0  0  0  0  0
   -2.3709   16.3068  -33.5476 H   0  0  0  0  0  0  0  0  0  0  0  0
  1  2  1  0
  2  3  2  0
  3  4  1  0
  4  5  1  0
  5  6  1  0
  6  7  2  0
  6  8  1  0
  8  9  1  0
  9 10  2  0
 10 11  1  0
 11 12  2  0
 12 13  1  0
 12 14  1  0
 14 15  1  0
 15 16  2  0
 15 17  2  0
 15 18  1  0
 18 19  1  0
 19 20  1  0
 14 21  2  0
 21 22  1  0
  4 23  2  0
 23 24  1  0
 24 25  2  0
 25 26  1  0
 26 27  2  0
 26 28  2  0
 26 29  1  0
 29 30  1  0
 30 31  1  0
 31 32  1  0
 32 33  1  0
 32 34  1  0
 34 35  1  0
 25  2  1  0
 35 29  1  0
 21  9  1  0
 20 18  1  0
  1 36  1  0
  1 37  1  0
  1 38  1  0
  3 39  1  0
  5 40  1  0
 10 41  1  0
 11 42  1  0
 13 43  1  0
 13 44  1  0
 13 45  1  0
 18 46  1  0
 19 47  1  0
 19 48  1  0
 20 49  1  0
 20 50  1  0
 23 51  1  0
 24 52  1  0
 30 53  1  0
 30 54  1  0
 31 55  1  0
 31 56  1  0
 32 57  1  0
 33 58  1  0
 33 59  1  0
 33 60  1  0
 34 61  1  0
 34 62  1  0
 35 63  1  0
 35 64  1  0
M  CHG  2   8  -1  22  -1
M  END
>  <UniqueID>  (28) 
28

>  <SMILES>  (28) 
Cc1cc(NC(=O)[N-]c2ccc(C)c(S(=O)(=O)C3CC3)c2[O-])ccc1S(=O)(=O)N1CCC(C)CC1

>  <Energy>  (28) 
349.56286611832905

>  <Genealogy>  (28) 
Cc1cc(NC(=O)[N-]c2ccc(C)c(S(=O)(=O)C3CC3)c2[O-])ccc1S(=O)(=O)N1CCC(C)CC1 (protonated)
Cc1cc(NC(=O)[N-]c2ccc(C)c(S(=O)(=O)C3CC3)c2[O-])ccc1S(=O)(=O)N1CCC(C)CC1 (3D coordinates assigned)
Cc1cc(NC(=O)[N-]c2ccc(C)c(S(=O)(=O)C3CC3)c2[O-])ccc1S(=O)(=O)N1CCC(C)CC1 (nonaromatic ring conformer: 349.56286611832905 kcal/mol)

>  <smiles>  (28) 
Cc1cc(NC(=O)Nc2ccc(C)c(S(=O)(=O)C3CC3)c2O)ccc1S(=O)(=O)N1CCC(C)CC1

>  <score_type>  (28) 
oracle

>  <origin>  (28) 
adgpu

>  <m_score__min__energy>  (28) 
-14.49

>  <m_primary>  (28) 
energy

$$$$
28:0
     RDKit          3D

 66 69  0  0  0  0  0  0  0  0999 V2000
   -4.6970   25.3830  -31.1680 H   0  0  0  0  0  0  0  0  0  0  0  0
   -4.2190   24.4550  -31.1170 N   0  0  0  0  0  0  0  0  0  0  0  0
   -3.2970   24.2130  -30.2390 C   0  0  0  0  0  0  0  0  0  0  0  0
   -2.9500   25.1830  -29.3490 N   0  0  0  0  0  0  0  0  0  0  0  0
   -2.0140   24.9840  -28.3870 C   0  0  0  0  0  0  0  0  0  0  0  0
   -1.7600   25.7984  -27.6926 H   0  0  0  0  0  0  0  0  0  0  0  0
   -1.3700   23.7450  -28.2750 C   0  0  0  0  0  0  0  0  0  0  0  0
   -0.3910   23.5190  -27.2430 N   0  0  0  0  0  0  0  0  0  0  0  0
    1.0360   23.7200  -27.5450 C   0  0  0  0  0  0  0  0  0  0  0  0
    1.4295   22.8044  -28.0106 H   0  0  0  0  0  0  0  0  0  0  0  0
    1.1141   24.5854  -28.2195 H   0  0  0  0  0  0  0  0  0  0  0  0
    1.8760   24.0340  -26.2820 C   0  0  0  0  0  0  0  0  0  0  0  0
    2.5984   23.2182  -26.1315 H   0  0  0  0  0  0  0  0  0  0  0  0
    2.3720   25.0009  -26.4529 H   0  0  0  0  0  0  0  0  0  0  0  0
    1.0960   24.1650  -25.1090 O   0  0  0  0  0  0  0  0  0  0  0  0
    0.3150   23.0040  -24.9350 C   0  0  0  0  0  0  0  0  0  0  0  0
    0.9363   22.1128  -25.1077 H   0  0  0  0  0  0  0  0  0  0  0  0
   -0.0827   22.9751  -23.9098 H   0  0  0  0  0  0  0  0  0  0  0  0
   -0.8380   23.0240  -25.9330 C   0  0  0  0  0  0  0  0  0  0  0  0
   -1.2313   22.0033  -26.0490 H   0  0  0  0  0  0  0  0  0  0  0  0
   -1.6203   23.6969  -25.5519 H   0  0  0  0  0  0  0  0  0  0  0  0
   -1.7110   22.7260  -29.1760 C   0  0  0  0  0  0  0  0  0  0  0  0
   -1.2211   21.7441  -29.0993 H   0  0  0  0  0  0  0  0  0  0  0  0
   -2.6730   22.9480  -30.1760 C   0  0  0  0  0  0  0  0  0  0  0  0
   -3.0030   21.8550  -31.1270 C   0  0  0  0  0  0  0  0  0  0  0  0
   -2.7040   21.9920  -32.4910 C   0  0  0  0  0  0  0  0  0  0  0  0
   -2.2130   22.9074  -32.8528 H   0  0  0  0  0  0  0  0  0  0  0  0
   -3.0250   20.9750  -33.3930 C   0  0  0  0  0  0  0  0  0  0  0  0
   -2.7785   21.0930  -34.4585 H   0  0  0  0  0  0  0  0  0  0  0  0
   -3.6610   19.8010  -32.9500 C   0  0  0  0  0  0  0  0  0  0  0  0
   -4.0020   18.7240  -33.9060 C   0  0  0  0  0  0  0  0  0  0  0  0
   -3.1580   17.8250  -34.1720 O   0  0  0  0  0  0  0  0  0  0  0  0
   -5.2890   18.7020  -34.5360 N   0  0  0  0  0  0  0  0  0  0  0  0
   -6.4880   18.0950  -33.9530 C   0  0  2  0  0  0  0  0  0  0  0  0
   -7.1854   17.8333  -34.7624 H   0  0  0  0  0  0  0  0  0  0  0  0
   -7.1460   19.0850  -33.0160 C   0  0  0  0  0  0  0  0  0  0  0  0
   -8.1360   18.6530  -32.1160 C   0  0  0  0  0  0  0  0  0  0  0  0
   -8.4381   17.5954  -32.1028 H   0  0  0  0  0  0  0  0  0  0  0  0
   -8.7390   19.5580  -31.2380 C   0  0  0  0  0  0  0  0  0  0  0  0
   -9.5180   19.2117  -30.5428 H   0  0  0  0  0  0  0  0  0  0  0  0
   -8.3550   20.9010  -31.2410 C   0  0  0  0  0  0  0  0  0  0  0  0
   -8.8353   21.6101  -30.5508 H   0  0  0  0  0  0  0  0  0  0  0  0
   -7.3570   21.3490  -32.1230 C   0  0  0  0  0  0  0  0  0  0  0  0
   -6.9230   22.7880  -32.1170 C   0  0  0  0  0  0  0  0  0  0  0  0
   -5.9857   22.8833  -32.6848 H   0  0  0  0  0  0  0  0  0  0  0  0
   -6.7180   23.2100  -30.8160 F   0  0  0  0  0  0  0  0  0  0  0  0
   -7.9020   23.5710  -32.7020 F   0  0  0  0  0  0  0  0  0  0  0  0
   -6.7500   20.4360  -32.9990 C   0  0  0  0  0  0  0  0  0  0  0  0
   -5.9567   20.7794  -33.6793 H   0  0  0  0  0  0  0  0  0  0  0  0
   -6.1280   16.8040  -33.1890 C   0  0  0  0  0  0  0  0  0  0  0  0
   -5.8644   17.0645  -32.1533 H   0  0  0  0  0  0  0  0  0  0  0  0
   -7.0002   16.1343  -33.2174 H   0  0  0  0  0  0  0  0  0  0  0  0
   -4.9890   16.1020  -33.8100 N   0  0  0  0  0  0  0  0  0  0  0  0
   -4.1640   16.1840  -33.1700 H   0  0  0  0  0  0  0  0  0  0  0  0
   -4.7380   16.5510  -34.7230 H   0  0  0  0  0  0  0  0  0  0  0  0
   -5.2550   14.6620  -34.0010 C   0  0  0  0  0  0  0  0  0  0  0  0
   -6.3436   14.5067  -34.0312 H   0  0  0  0  0  0  0  0  0  0  0  0
   -4.7732   14.3582  -34.9420 H   0  0  0  0  0  0  0  0  0  0  0  0
   -4.6670   13.7950  -32.8800 C   0  0  0  0  0  0  0  0  0  0  0  0
   -5.4466   13.1151  -32.5058 H   0  0  0  0  0  0  0  0  0  0  0  0
   -3.8191   13.2255  -33.2884 H   0  0  0  0  0  0  0  0  0  0  0  0
   -4.2080   14.5740  -31.8340 F   0  0  0  0  0  0  0  0  0  0  0  0
   -3.9650   19.6680  -31.5820 C   0  0  0  0  0  0  0  0  0  0  0  0
   -4.4606   18.7555  -31.2191 H   0  0  0  0  0  0  0  0  0  0  0  0
   -3.6420   20.6860  -30.6820 C   0  0  0  0  0  0  0  0  0  0  0  0
   -3.8899   20.5714  -29.6165 H   0  0  0  0  0  0  0  0  0  0  0  0
  1  2  1  0
  2  3  2  0
  3  4  1  0
  4  5  1  0
  5  6  1  0
  5  7  2  0
  7  8  1  0
  8  9  1  0
  9 10  1  0
  9 11  1  0
  9 12  1  0
 12 13  1  0
 12 14  1  0
 12 15  1  0
 15 16  1  0
 16 17  1  0
 16 18  1  0
 16 19  1  0
 19 20  1  0
 19 21  1  0
  7 22  1  0
 22 23  1  0
 22 24  2  0
 24 25  1  0
 25 26  2  0
 26 27  1  0
 26 28  1  0
 28 29  1  0
 28 30  2  0
 30 31  1  0
 31 32  2  0
 31 33  1  0
 33 34  1  0
 34 35  1  6
 34 36  1  0
 36 37  2  0
 37 38  1  0
 37 39  1  0
 39 40  1  0
 39 41  2  0
 41 42  1  0
 41 43  1  0
 43 44  1  0
 44 45  1  0
 44 46  1  0
 44 47  1  0
 43 48  2  0
 48 49  1  0
 34 50  1  0
 50 51  1  0
 50 52  1  0
 50 53  1  0
 53 54  1  0
 53 55  1  0
 53 56  1  0
 56 57  1  0
 56 58  1  0
 56 59  1  0
 59 60  1  0
 59 61  1  0
 59 62  1  0
 30 63  1  0
 63 64  1  0
 63 65  2  0
 65 66  1  0
 24  3  1  0
 65 25  1  0
 19  8  1  0
 48 36  1  0
M  CHG  3   4  -1  33  -1  53   1
M  END
>  <UniqueID>  (29) 
29

>  <SMILES>  (29) 
[H]/N=c1\[n-]cc(N2CCOCC2)cc1-c1ccc(C(=O)[N-][C@@H](C[NH2+]CCF)c2cccc(C(F)F)c2)cc1

>  <Energy>  (29) 
85.36276476351736

>  <Genealogy>  (29) 
N=c1[n-]cc(N2CCOCC2)cc1-c1ccc(C(=O)[N-]C(C[NH2+]CCF)c2cccc(C(F)F)c2)cc1 (protonated)
N=c1[n-]cc(N2CCOCC2)cc1-c1ccc(C(=O)[N-][C@@H](C[NH2+]CCF)c2cccc(C(F)F)c2)cc1 (chirality)
[H]/N=c1\[n-]cc(N2CCOCC2)cc1-c1ccc(C(=O)[N-][C@@H](C[NH2+]CCF)c2cccc(C(F)F)c2)cc1 (cis-trans isomerization)
[H]/N=c1\[n-]cc(N2CCOCC2)cc1-c1ccc(C(=O)[N-][C@@H](C[NH2+]CCF)c2cccc(C(F)F)c2)cc1 (3D coordinates assigned)
[H]/N=c1\[n-]cc(N2CCOCC2)cc1-c1ccc(C(=O)[N-][C@@H](C[NH2+]CCF)c2cccc(C(F)F)c2)cc1 (nonaromatic ring conformer: 85.36276476351736 kcal/mol)

>  <smiles>  (29) 
N=c1[nH]cc(N2CCOCC2)cc1-c1ccc(C(=O)NC(CNCCF)c2cccc(C(F)F)c2)cc1

>  <score_type>  (29) 
oracle

>  <origin>  (29) 
adgpu

>  <m_score__min__energy>  (29) 
-10.050000000000001

>  <m_primary>  (29) 
energy

$$$$
29:0
     RDKit          3D

 36 38  0  0  0  0  0  0  0  0999 V2000
    0.7380   25.7700  -28.1650 H   0  0  0  0  0  0  0  0  0  0  0  0
    0.9780   24.7940  -28.0510 O   0  0  0  0  0  0  0  0  0  0  0  0
    0.0390   23.8130  -27.7290 C   0  0  0  0  0  0  0  0  0  0  0  0
    0.4800   22.6820  -27.0310 C   0  0  0  0  0  0  0  0  0  0  0  0
    1.5494   22.5652  -26.8014 H   0  0  0  0  0  0  0  0  0  0  0  0
   -0.4270   21.7010  -26.6240 C   0  0  0  0  0  0  0  0  0  0  0  0
   -0.0705   20.8147  -26.0787 H   0  0  0  0  0  0  0  0  0  0  0  0
   -1.7850   21.8450  -26.9090 C   0  0  0  0  0  0  0  0  0  0  0  0
   -2.5007   21.0798  -26.5739 H   0  0  0  0  0  0  0  0  0  0  0  0
   -2.2370   22.9590  -27.6190 C   0  0  0  0  0  0  0  0  0  0  0  0
   -3.3099   23.0695  -27.8352 H   0  0  0  0  0  0  0  0  0  0  0  0
   -1.3320   23.9410  -28.0600 C   0  0  0  0  0  0  0  0  0  0  0  0
   -1.8470   25.0660  -28.8710 C   0  0  0  0  0  0  0  0  0  0  0  0
   -1.2460   26.1720  -28.8350 O   0  0  0  0  0  0  0  0  0  0  0  0
   -3.0030   24.9360  -29.7110 N   0  0  0  0  0  0  0  0  0  0  0  0
   -3.3670   23.7840  -30.4840 C   0  0  0  0  0  0  0  0  0  0  0  0
   -2.4320   22.7870  -30.8120 C   0  0  0  0  0  0  0  0  0  0  0  0
   -1.3881   22.8837  -30.4789 H   0  0  0  0  0  0  0  0  0  0  0  0
   -2.8240   21.6730  -31.5600 C   0  0  0  0  0  0  0  0  0  0  0  0
   -2.0850   20.9014  -31.8217 H   0  0  0  0  0  0  0  0  0  0  0  0
   -4.1550   21.5350  -31.9780 C   0  0  0  0  0  0  0  0  0  0  0  0
   -4.6530   20.1300  -32.9120 S   0  0  0  0  0  0  0  0  0  0  0  0
   -3.7370   19.9600  -34.0920 O   0  0  0  0  0  0  0  0  0  0  0  0
   -4.5900   18.9110  -32.0350 O   0  0  0  0  0  0  0  0  0  0  0  0
   -6.2750   20.3690  -33.4820 N   0  0  0  0  0  0  0  0  0  0  0  0
   -7.3250   19.8350  -32.9380 C   0  0  0  0  0  0  0  0  0  0  0  0
   -8.5690   20.0480  -33.4150 N   0  0  0  0  0  0  0  0  0  0  0  0
   -9.5070   19.3870  -32.6840 C   0  0  0  0  0  0  0  0  0  0  0  0
  -10.5805   19.4375  -32.9186 H   0  0  0  0  0  0  0  0  0  0  0  0
   -9.0110   18.6430  -31.6190 C   0  0  0  0  0  0  0  0  0  0  0  0
   -9.6086   18.0437  -30.9164 H   0  0  0  0  0  0  0  0  0  0  0  0
   -7.3370   18.8190  -31.5920 S   0  0  0  0  0  0  0  0  0  0  0  0
   -5.0940   22.5110  -31.6210 C   0  0  0  0  0  0  0  0  0  0  0  0
   -6.1437   22.4003  -31.9307 H   0  0  0  0  0  0  0  0  0  0  0  0
   -4.7030   23.6250  -30.8730 C   0  0  0  0  0  0  0  0  0  0  0  0
   -5.4491   24.3814  -30.5881 H   0  0  0  0  0  0  0  0  0  0  0  0
  1  2  1  0
  2  3  1  0
  3  4  2  0
  4  5  1  0
  4  6  1  0
  6  7  1  0
  6  8  2  0
  8  9  1  0
  8 10  1  0
 10 11  1  0
 10 12  2  0
 12 13  1  0
 13 14  2  0
 13 15  1  0
 15 16  1  0
 16 17  2  0
 17 18  1  0
 17 19  1  0
 19 20  1  0
 19 21  2  0
 21 22  1  0
 22 23  2  0
 22 24  2  0
 22 25  1  0
 25 26  2  0
 26 27  1  0
 27 28  1  0
 28 29  1  0
 28 30  2  0
 30 31  1  0
 30 32  1  0
 21 33  1  0
 33 34  1  0
 33 35  2  0
 35 36  1  0
 12  3  1  0
 35 16  1  0
 32 26  1  0
M  CHG  2  15  -1  27  -1
M  END
>  <UniqueID>  (30) 
30

>  <SMILES>  (30) 
O=C([N-]c1ccc(S(=O)(=O)/N=c2/[n-]ccs2)cc1)c1ccccc1O

>  <Energy>  (30) 
82.71854004726578

>  <Genealogy>  (30) 
O=C([N-]c1ccc(S(=O)(=O)N=c2[n-]ccs2)cc1)c1ccccc1O (protonated)
O=C([N-]c1ccc(S(=O)(=O)/N=c2/[n-]ccs2)cc1)c1ccccc1O (cis-trans isomerization)
O=C([N-]c1ccc(S(=O)(=O)/N=c2/[n-]ccs2)cc1)c1ccccc1O (3D coordinates assigned)
O=C([N-]c1ccc(S(=O)(=O)/N=c2/[n-]ccs2)cc1)c1ccccc1O (optimized conformer: 82.71854004726578 kcal/mol)

>  <smiles>  (30) 
O=C(Nc1ccc(S(=O)(=O)N=c2[nH]ccs2)cc1)c1ccccc1O

>  <score_type>  (30) 
oracle

>  <origin>  (30) 
adgpu

>  <m_score__min__energy>  (30) 
-10.279999999999999

>  <m_primary>  (30) 
energy

$$$$
30:0
     RDKit          3D

 59 62  0  0  0  0  0  0  0  0999 V2000
   -3.8810   25.2920  -30.4810 O   0  0  0  0  0  0  0  0  0  0  0  0
   -4.1570   24.1140  -30.8320 C   0  0  0  0  0  0  0  0  0  0  0  0
   -5.0670   23.9180  -31.9240 N   0  0  0  0  0  0  0  0  0  0  0  0
   -6.2390   23.0900  -31.9040 C   0  0  0  0  0  0  0  0  0  0  0  0
   -7.5320   23.6420  -31.8860 C   0  0  0  0  0  0  0  0  0  0  0  0
   -8.6520   22.8090  -31.8640 C   0  0  0  0  0  0  0  0  0  0  0  0
   -8.4930   21.4200  -31.8410 C   0  0  0  0  0  0  0  0  0  0  0  0
   -7.2090   20.8590  -31.8250 C   0  0  0  0  0  0  0  0  0  0  0  0
   -7.0070   19.1050  -31.7650 S   0  0  0  0  0  0  0  0  0  0  0  0
   -5.7510   18.7790  -31.0040 O   0  0  0  0  0  0  0  0  0  0  0  0
   -8.1680   18.5000  -31.0250 O   0  0  0  0  0  0  0  0  0  0  0  0
   -6.9100   18.4100  -33.3680 N   0  0  0  0  0  0  0  0  0  0  0  0
   -6.8620   16.9220  -33.3110 C   0  0  0  0  0  0  0  0  0  0  0  0
   -5.4500   16.3590  -33.5260 C   0  0  0  0  0  0  0  0  0  0  0  0
   -4.8860   16.7900  -34.8900 C   0  0  0  0  0  0  0  0  0  0  0  0
   -5.3890   18.1760  -35.3320 C   0  0  0  0  0  0  0  0  0  0  0  0
   -5.7930   19.0280  -34.1240 C   0  0  0  0  0  0  0  0  0  0  0  0
   -6.0860   21.7000  -31.8560 C   0  0  0  0  0  0  0  0  0  0  0  0
   -3.5720   22.9760  -30.0870 C   0  0  0  0  0  0  0  0  0  0  0  0
   -3.9670   22.7060  -28.7660 C   0  0  0  0  0  0  0  0  0  0  0  0
   -3.4290   21.6140  -28.0790 C   0  0  0  0  0  0  0  0  0  0  0  0
   -2.4960   20.7830  -28.7020 C   0  0  0  0  0  0  0  0  0  0  0  0
   -2.0850   21.0470  -30.0150 C   0  0  0  0  0  0  0  0  0  0  0  0
   -0.9410   19.9700  -30.8190 S   0  0  0  0  0  0  0  0  0  0  0  0
    0.2350   20.7710  -31.3060 O   0  0  0  0  0  0  0  0  0  0  0  0
   -0.4330   18.9590  -29.8280 O   0  0  0  0  0  0  0  0  0  0  0  0
   -1.6760   19.1220  -32.1650 N   0  0  0  0  0  0  0  0  0  0  0  0
   -3.0540   19.5760  -32.3850 C   0  0  0  0  0  0  0  0  0  0  0  0
   -3.0380   20.6210  -33.4900 C   0  0  0  0  0  0  0  0  0  0  0  0
   -1.7270   20.4150  -34.2220 C   0  0  0  0  0  0  0  0  0  0  0  0
   -0.9560   19.3760  -33.4190 C   0  0  0  0  0  0  0  0  0  0  0  0
   -2.6110   22.1530  -30.6970 C   0  0  0  0  0  0  0  0  0  0  0  0
   -7.6615   24.7343  -31.8893 H   0  0  0  0  0  0  0  0  0  0  0  0
   -9.6614   23.2461  -31.8648 H   0  0  0  0  0  0  0  0  0  0  0  0
   -9.3777   20.7663  -31.8355 H   0  0  0  0  0  0  0  0  0  0  0  0
   -7.8000   18.6760  -33.8510 H   0  0  0  0  0  0  0  0  0  0  0  0
   -7.2224   16.5972  -32.3238 H   0  0  0  0  0  0  0  0  0  0  0  0
   -7.4959   16.5408  -34.1252 H   0  0  0  0  0  0  0  0  0  0  0  0
   -4.7891   16.7317  -32.7296 H   0  0  0  0  0  0  0  0  0  0  0  0
   -5.5033   15.2606  -33.5004 H   0  0  0  0  0  0  0  0  0  0  0  0
   -3.7884   16.8192  -34.8232 H   0  0  0  0  0  0  0  0  0  0  0  0
   -5.2299   16.0591  -35.6367 H   0  0  0  0  0  0  0  0  0  0  0  0
   -4.5873   18.6903  -35.8822 H   0  0  0  0  0  0  0  0  0  0  0  0
   -6.2721   18.0387  -35.9734 H   0  0  0  0  0  0  0  0  0  0  0  0
   -4.9255   19.1340  -33.4560 H   0  0  0  0  0  0  0  0  0  0  0  0
   -6.1282   20.0090  -34.4919 H   0  0  0  0  0  0  0  0  0  0  0  0
   -5.0768   21.2627  -31.8424 H   0  0  0  0  0  0  0  0  0  0  0  0
   -4.7026   23.3566  -28.2704 H   0  0  0  0  0  0  0  0  0  0  0  0
   -3.7416   21.4088  -27.0445 H   0  0  0  0  0  0  0  0  0  0  0  0
   -2.0827   19.9191  -28.1607 H   0  0  0  0  0  0  0  0  0  0  0  0
   -3.6830   18.7252  -32.6858 H   0  0  0  0  0  0  0  0  0  0  0  0
   -3.4650   20.0066  -31.4600 H   0  0  0  0  0  0  0  0  0  0  0  0
   -3.8873   20.4717  -34.1729 H   0  0  0  0  0  0  0  0  0  0  0  0
   -3.1257   21.6414  -33.0885 H   0  0  0  0  0  0  0  0  0  0  0  0
   -1.9126   20.0486  -35.2424 H   0  0  0  0  0  0  0  0  0  0  0  0
   -1.1631   21.3553  -34.3104 H   0  0  0  0  0  0  0  0  0  0  0  0
   -0.8792   18.4434  -33.9973 H   0  0  0  0  0  0  0  0  0  0  0  0
    0.0569   19.7459  -33.2016 H   0  0  0  0  0  0  0  0  0  0  0  0
   -2.2685   22.3781  -31.7178 H   0  0  0  0  0  0  0  0  0  0  0  0
  1  2  2  0
  2  3  1  0
  3  4  1  0
  4  5  2  0
  5  6  1  0
  6  7  2  0
  7  8  1  0
  8  9  1  0
  9 10  2  0
  9 11  2  0
  9 12  1  0
 12 13  1  0
 13 14  1  0
 14 15  1  0
 15 16  1  0
 16 17  1  0
  8 18  2  0
  2 19  1  0
 19 20  2  0
 20 21  1  0
 21 22  2  0
 22 23  1  0
 23 24  1  0
 24 25  2  0
 24 26  2  0
 24 27  1  0
 27 28  1  0
 28 29  1  0
 29 30  1  0
 30 31  1  0
 23 32  2  0
 18  4  1  0
 32 19  1  0
 17 12  1  0
 31 27  1  0
  5 33  1  0
  6 34  1  0
  7 35  1  0
 12 36  1  0
 13 37  1  0
 13 38  1  0
 14 39  1  0
 14 40  1  0
 15 41  1  0
 15 42  1  0
 16 43  1  0
 16 44  1  0
 17 45  1  0
 17 46  1  0
 18 47  1  0
 20 48  1  0
 21 49  1  0
 22 50  1  0
 28 51  1  0
 28 52  1  0
 29 53  1  0
 29 54  1  0
 30 55  1  0
 30 56  1  0
 31 57  1  0
 31 58  1  0
 32 59  1  0
M  CHG  2   3  -1  12   1
M  END
>  <UniqueID>  (31) 
31

>  <SMILES>  (31) 
O=C([N-]c1cccc(S(=O)(=O)[NH+]2CCCCC2)c1)c1cccc(S(=O)(=O)N2CCCC2)c1

>  <Energy>  (31) 
71.11472978777874

>  <Genealogy>  (31) 
O=C([N-]c1cccc(S(=O)(=O)[NH+]2CCCCC2)c1)c1cccc(S(=O)(=O)N2CCCC2)c1 (protonated)
O=C([N-]c1cccc(S(=O)(=O)[NH+]2CCCCC2)c1)c1cccc(S(=O)(=O)N2CCCC2)c1 (3D coordinates assigned)
O=C([N-]c1cccc(S(=O)(=O)[NH+]2CCCCC2)c1)c1cccc(S(=O)(=O)N2CCCC2)c1 (nonaromatic ring conformer: 71.11472978777874 kcal/mol)

>  <smiles>  (31) 
O=C(Nc1cccc(S(=O)(=O)N2CCCCC2)c1)c1cccc(S(=O)(=O)N2CCCC2)c1

>  <score_type>  (31) 
oracle

>  <origin>  (31) 
adgpu

>  <m_score__min__energy>  (31) 
-12.390000000000001

>  <m_primary>  (31) 
energy

$$$$
31:0
     RDKit          3D

 52 55  0  0  0  0  0  0  0  0999 V2000
   -0.9940   24.8970  -25.3310 C   0  0  0  0  0  0  0  0  0  0  0  0
   -0.0110   23.8410  -25.8570 C   0  0  0  0  0  0  0  0  0  0  0  0
   -0.4460   22.4520  -25.3420 C   0  0  0  0  0  0  0  0  0  0  0  0
    1.4000   24.1370  -25.3140 C   0  0  0  0  0  0  0  0  0  0  0  0
    0.0230   23.9050  -27.3790 C   0  0  0  0  0  0  0  0  0  0  0  0
    1.1350   23.9380  -27.9720 O   0  0  0  0  0  0  0  0  0  0  0  0
   -1.2000   23.9200  -28.2010 C   0  0  0  0  0  0  0  0  0  0  0  0
   -1.6650   24.9990  -28.9270 C   0  0  0  0  0  0  0  0  0  0  0  0
   -1.1410   26.2890  -28.9120 O   0  0  0  0  0  0  0  0  0  0  0  0
   -2.7260   24.5470  -29.6770 C   0  0  0  0  0  0  0  0  0  0  0  0
   -3.4910   25.3260  -30.5420 O   0  0  0  0  0  0  0  0  0  0  0  0
   -2.9380   23.2330  -29.4480 N   0  0  0  0  0  0  0  0  0  0  0  0
   -3.9630   22.4290  -30.0510 C   0  0  0  0  0  0  0  0  0  0  0  0
   -5.3000   22.8660  -30.0460 C   0  0  0  0  0  0  0  0  0  0  0  0
   -6.2990   22.0840  -30.6350 C   0  0  0  0  0  0  0  0  0  0  0  0
   -5.9810   20.8410  -31.2140 C   0  0  0  0  0  0  0  0  0  0  0  0
   -7.0570   20.0180  -31.8140 C   0  0  0  0  0  0  0  0  0  0  0  0
   -8.3550   20.4110  -32.0790 C   0  0  0  0  0  0  0  0  0  0  0  0
   -8.9770   19.3160  -32.6380 C   0  0  0  0  0  0  0  0  0  0  0  0
   -8.0290   18.3210  -32.6820 C   0  0  0  0  0  0  0  0  0  0  0  0
   -6.8980   18.7680  -32.1880 O   0  0  0  0  0  0  0  0  0  0  0  0
   -4.6350   20.4070  -31.2190 C   0  0  0  0  0  0  0  0  0  0  0  0
   -3.6350   21.2000  -30.6510 C   0  0  0  0  0  0  0  0  0  0  0  0
   -2.0130   22.8400  -28.5400 C   0  0  0  0  0  0  0  0  0  0  0  0
   -1.8140   21.4420  -28.0940 C   0  0  0  0  0  0  0  0  0  0  0  0
   -2.7270   20.8620  -27.1970 C   0  0  0  0  0  0  0  0  0  0  0  0
   -2.5850   19.5270  -26.8090 C   0  0  0  0  0  0  0  0  0  0  0  0
   -1.5450   18.7560  -27.3260 C   0  0  0  0  0  0  0  0  0  0  0  0
   -0.6270   19.3240  -28.2140 C   0  0  0  0  0  0  0  0  0  0  0  0
   -0.7480   20.6670  -28.5890 C   0  0  0  0  0  0  0  0  0  0  0  0
    0.2120   21.2240  -29.4310 O   0  0  0  0  0  0  0  0  0  0  0  0
   -0.9867   24.8891  -24.2311 H   0  0  0  0  0  0  0  0  0  0  0  0
   -0.6923   25.8911  -25.6926 H   0  0  0  0  0  0  0  0  0  0  0  0
   -2.0071   24.6672  -25.6926 H   0  0  0  0  0  0  0  0  0  0  0  0
   -0.4459   22.4523  -24.2420 H   0  0  0  0  0  0  0  0  0  0  0  0
   -1.4581   22.2255  -25.7085 H   0  0  0  0  0  0  0  0  0  0  0  0
    0.2561   21.6886  -25.7085 H   0  0  0  0  0  0  0  0  0  0  0  0
    1.3781   24.1324  -24.2142 H   0  0  0  0  0  0  0  0  0  0  0  0
    2.0991   23.3660  -25.6700 H   0  0  0  0  0  0  0  0  0  0  0  0
    1.7303   25.1240  -25.6700 H   0  0  0  0  0  0  0  0  0  0  0  0
   -1.2410   26.9020  -29.7150 H   0  0  0  0  0  0  0  0  0  0  0  0
   -5.5609   23.8263  -29.5772 H   0  0  0  0  0  0  0  0  0  0  0  0
   -7.3389   22.4424  -30.6458 H   0  0  0  0  0  0  0  0  0  0  0  0
   -8.8009   21.3974  -31.8835 H   0  0  0  0  0  0  0  0  0  0  0  0
  -10.0205   19.2510  -32.9798 H   0  0  0  0  0  0  0  0  0  0  0  0
   -8.1933   17.3055  -33.0717 H   0  0  0  0  0  0  0  0  0  0  0  0
   -4.3740   19.4395  -31.6727 H   0  0  0  0  0  0  0  0  0  0  0  0
   -2.5883   20.8623  -30.6731 H   0  0  0  0  0  0  0  0  0  0  0  0
   -3.5581   21.4621  -26.7980 H   0  0  0  0  0  0  0  0  0  0  0  0
   -3.2947   19.0840  -26.0948 H   0  0  0  0  0  0  0  0  0  0  0  0
   -1.4467   17.6998  -27.0349 H   0  0  0  0  0  0  0  0  0  0  0  0
    0.1933   18.7134  -28.6194 H   0  0  0  0  0  0  0  0  0  0  0  0
  1  2  1  0
  2  3  1  0
  2  4  1  0
  2  5  1  0
  5  6  2  0
  5  7  1  0
  7  8  1  0
  8  9  1  0
  8 10  2  0
 10 11  1  0
 10 12  1  0
 12 13  1  0
 13 14  2  0
 14 15  1  0
 15 16  2  0
 16 17  1  0
 17 18  2  0
 18 19  1  0
 19 20  2  0
 20 21  1  0
 16 22  1  0
 22 23  2  0
 12 24  1  0
 24 25  1  0
 25 26  2  0
 26 27  1  0
 27 28  2  0
 28 29  1  0
 29 30  2  0
 30 31  1  0
 24  7  2  0
 30 25  1  0
 23 13  1  0
 21 17  1  0
  1 32  1  0
  1 33  1  0
  1 34  1  0
  3 35  1  0
  3 36  1  0
  3 37  1  0
  4 38  1  0
  4 39  1  0
  4 40  1  0
  9 41  1  0
 14 42  1  0
 15 43  1  0
 18 44  1  0
 19 45  1  0
 20 46  1  0
 22 47  1  0
 23 48  1  0
 26 49  1  0
 27 50  1  0
 28 51  1  0
 29 52  1  0
M  CHG  2  11  -1  31  -1
M  END
>  <UniqueID>  (32) 
32

>  <SMILES>  (32) 
CC(C)(C)C(=O)c1c(O)c([O-])n(-c2ccc(-c3ccco3)cc2)c1-c1ccccc1[O-]

>  <Energy>  (32) 
126.39581774265295

>  <Genealogy>  (32) 
CC(C)(C)C(=O)c1c(O)c([O-])n(-c2ccc(-c3ccco3)cc2)c1-c1ccccc1[O-] (protonated)
CC(C)(C)C(=O)c1c(O)c([O-])n(-c2ccc(-c3ccco3)cc2)c1-c1ccccc1[O-] (3D coordinates assigned)
CC(C)(C)C(=O)c1c(O)c([O-])n(-c2ccc(-c3ccco3)cc2)c1-c1ccccc1[O-] (optimized conformer: 126.39581774265295 kcal/mol)

>  <smiles>  (32) 
CC(C)(C)C(=O)c1c(O)c(O)n(-c2ccc(-c3ccco3)cc2)c1-c1ccccc1O

>  <score_type>  (32) 
oracle

>  <origin>  (32) 
adgpu

>  <m_score__min__energy>  (32) 
-13.08

>  <m_primary>  (32) 
energy

$$$$
32:0
     RDKit          3D

 27 26  0  0  0  0  0  0  0  0999 V2000
   -6.2230   23.5070  -31.9700 C   0  0  0  0  0  0  0  0  0  0  0  0
   -7.1280   22.3100  -32.2550 C   0  0  0  0  0  0  0  0  0  0  0  0
   -8.3810   22.2830  -31.3640 C   0  0  0  0  0  0  0  0  0  0  0  0
   -9.4810   21.3260  -31.8780 C   0  0  0  0  0  0  0  0  0  0  0  0
   -9.0810   19.8400  -31.7900 C   0  0  0  0  0  0  0  0  0  0  0  0
   -8.6820   19.3090  -33.1030 N   0  0  0  0  0  0  0  0  0  0  0  0
   -7.3270   18.8270  -33.0440 C   0  0  0  0  0  0  0  0  0  0  0  0
   -6.7500   18.2010  -31.6350 S   0  0  0  0  0  0  0  0  0  0  0  0
   -6.4630   19.0060  -34.1800 N   0  0  0  0  0  0  0  0  0  0  0  0
   -5.0690   18.5740  -34.1990 C   0  0  0  0  0  0  0  0  0  0  0  0
   -6.1225   23.6400  -30.8827 H   0  0  0  0  0  0  0  0  0  0  0  0
   -5.2310   23.3299  -32.4110 H   0  0  0  0  0  0  0  0  0  0  0  0
   -6.6638   24.4132  -32.4110 H   0  0  0  0  0  0  0  0  0  0  0  0
   -7.4461   22.3529  -33.3071 H   0  0  0  0  0  0  0  0  0  0  0  0
   -6.5495   21.3995  -32.0396 H   0  0  0  0  0  0  0  0  0  0  0  0
   -8.0839   21.9623  -30.3546 H   0  0  0  0  0  0  0  0  0  0  0  0
   -8.8053   23.2979  -31.3705 H   0  0  0  0  0  0  0  0  0  0  0  0
  -10.3884   21.4803  -31.2756 H   0  0  0  0  0  0  0  0  0  0  0  0
   -9.6467   21.5581  -32.9404 H   0  0  0  0  0  0  0  0  0  0  0  0
   -8.2370   19.7380  -31.0920 H   0  0  0  0  0  0  0  0  0  0  0  0
   -9.9526   19.2688  -31.4377 H   0  0  0  0  0  0  0  0  0  0  0  0
   -9.3180   18.5310  -33.3930 H   0  0  0  0  0  0  0  0  0  0  0  0
   -8.7400   20.0660  -33.8230 H   0  0  0  0  0  0  0  0  0  0  0  0
   -6.8490   19.4580  -35.0380 H   0  0  0  0  0  0  0  0  0  0  0  0
   -4.7059   18.4615  -33.1668 H   0  0  0  0  0  0  0  0  0  0  0  0
   -4.9911   17.6096  -34.7223 H   0  0  0  0  0  0  0  0  0  0  0  0
   -4.4594   19.3254  -34.7223 H   0  0  0  0  0  0  0  0  0  0  0  0
  1  2  1  0
  2  3  1  0
  3  4  1  0
  4  5  1  0
  5  6  1  0
  6  7  1  0
  7  8  2  0
  7  9  1  0
  9 10  1  0
  1 11  1  0
  1 12  1  0
  1 13  1  0
  2 14  1  0
  2 15  1  0
  3 16  1  0
  3 17  1  0
  4 18  1  0
  4 19  1  0
  5 20  1  0
  5 21  1  0
  6 22  1  0
  6 23  1  0
  9 24  1  0
 10 25  1  0
 10 26  1  0
 10 27  1  0
M  CHG  1   6   1
M  END
>  <UniqueID>  (33) 
33

>  <SMILES>  (33) 
CCCCC[NH2+]C(=S)NC

>  <Energy>  (33) 
15.267201139575851

>  <Genealogy>  (33) 
CCCCC[NH2+]C(=S)NC (protonated)
CCCCC[NH2+]C(=S)NC (3D coordinates assigned)
CCCCC[NH2+]C(=S)NC (optimized conformer: 15.267201139575851 kcal/mol)

>  <smiles>  (33) 
CCCCCNC(=S)NC

>  <score_type>  (33) 
oracle

>  <origin>  (33) 
adgpu

>  <m_score__min__energy>  (33) 
-4.25

>  <m_primary>  (33) 
energy

$$$$
33:0
     RDKit          3D

 40 41  0  0  0  0  0  0  0  0999 V2000
   -5.7230   17.8320  -34.8960 C   0  0  0  0  0  0  0  0  0  0  0  0
   -6.3270   19.0370  -34.3390 N   0  0  0  0  0  0  0  0  0  0  0  0
   -6.1450   19.4020  -32.9620 C   0  0  0  0  0  0  0  0  0  0  0  0
   -5.3320   18.7500  -32.2510 O   0  0  0  0  0  0  0  0  0  0  0  0
   -6.8810   20.5430  -32.3660 C   0  0  0  0  0  0  0  0  0  0  0  0
   -8.2870   20.5760  -32.3570 C   0  0  0  0  0  0  0  0  0  0  0  0
   -8.9650   21.6540  -31.7840 C   0  0  0  0  0  0  0  0  0  0  0  0
   -8.2530   22.7050  -31.2050 C   0  0  0  0  0  0  0  0  0  0  0  0
   -6.8490   22.6880  -31.1860 C   0  0  0  0  0  0  0  0  0  0  0  0
   -6.1150   23.7740  -30.5910 N   0  0  0  0  0  0  0  0  0  0  0  0
   -6.8250   24.8620  -29.9160 C   0  0  0  0  0  0  0  0  0  0  0  0
   -4.3750   23.7860  -30.6230 S   0  0  0  0  0  0  0  0  0  0  0  0
   -3.8690   25.1980  -30.5230 O   0  0  0  0  0  0  0  0  0  0  0  0
   -3.8920   23.1890  -31.9140 O   0  0  0  0  0  0  0  0  0  0  0  0
   -3.7450   22.8860  -29.2500 C   0  0  0  0  0  0  0  0  0  0  0  0
   -3.1870   21.6280  -29.2940 C   0  0  0  0  0  0  0  0  0  0  0  0
   -2.8140   21.2980  -28.0430 N   0  0  0  0  0  0  0  0  0  0  0  0
   -2.2340   20.0250  -27.6380 C   0  0  0  0  0  0  0  0  0  0  0  0
   -3.1180   22.2730  -27.2000 N   0  0  0  0  0  0  0  0  0  0  0  0
   -3.6780   23.2660  -27.9200 C   0  0  0  0  0  0  0  0  0  0  0  0
   -4.1690   24.5440  -27.3240 C   0  0  0  0  0  0  0  0  0  0  0  0
   -6.1720   21.6030  -31.7700 C   0  0  0  0  0  0  0  0  0  0  0  0
   -5.3937   17.1750  -34.0776 H   0  0  0  0  0  0  0  0  0  0  0  0
   -6.4628   17.3036  -35.5153 H   0  0  0  0  0  0  0  0  0  0  0  0
   -4.8570   18.1086  -35.5153 H   0  0  0  0  0  0  0  0  0  0  0  0
   -6.8610   19.6620  -34.9830 H   0  0  0  0  0  0  0  0  0  0  0  0
   -8.8561   19.7476  -32.8041 H   0  0  0  0  0  0  0  0  0  0  0  0
  -10.0648   21.6746  -31.7891 H   0  0  0  0  0  0  0  0  0  0  0  0
   -8.7951   23.5526  -30.7604 H   0  0  0  0  0  0  0  0  0  0  0  0
   -6.7415   24.7341  -28.8267 H   0  0  0  0  0  0  0  0  0  0  0  0
   -6.3813   25.8255  -30.2071 H   0  0  0  0  0  0  0  0  0  0  0  0
   -7.8856   24.8439  -30.2071 H   0  0  0  0  0  0  0  0  0  0  0  0
   -3.0672   21.0036  -30.1916 H   0  0  0  0  0  0  0  0  0  0  0  0
   -2.2076   19.9669  -26.5399 H   0  0  0  0  0  0  0  0  0  0  0  0
   -2.8455   19.2009  -28.0341 H   0  0  0  0  0  0  0  0  0  0  0  0
   -1.2109   19.9456  -28.0341 H   0  0  0  0  0  0  0  0  0  0  0  0
   -4.1411   24.4714  -26.2268 H   0  0  0  0  0  0  0  0  0  0  0  0
   -3.5254   25.3731  -27.6531 H   0  0  0  0  0  0  0  0  0  0  0  0
   -5.2022   24.7289  -27.6531 H   0  0  0  0  0  0  0  0  0  0  0  0
   -5.0722   21.5821  -31.7611 H   0  0  0  0  0  0  0  0  0  0  0  0
  1  2  1  0
  2  3  1  0
  3  4  2  0
  3  5  1  0
  5  6  2  0
  6  7  1  0
  7  8  2  0
  8  9  1  0
  9 10  1  0
 10 11  1  0
 10 12  1  0
 12 13  2  0
 12 14  2  0
 12 15  1  0
 15 16  2  0
 16 17  1  0
 17 18  1  0
 17 19  1  0
 19 20  2  0
 20 21  1  0
  9 22  2  0
 22  5  1  0
 20 15  1  0
  1 23  1  0
  1 24  1  0
  1 25  1  0
  2 26  1  0
  6 27  1  0
  7 28  1  0
  8 29  1  0
 11 30  1  0
 11 31  1  0
 11 32  1  0
 16 33  1  0
 18 34  1  0
 18 35  1  0
 18 36  1  0
 21 37  1  0
 21 38  1  0
 21 39  1  0
 22 40  1  0
M  END
>  <UniqueID>  (34) 
34

>  <SMILES>  (34) 
CNC(=O)c1cccc(N(C)S(=O)(=O)c2cn(C)nc2C)c1

>  <Energy>  (34) 
72.14526475770612

>  <Genealogy>  (34) 
CNC(=O)c1cccc(N(C)S(=O)(=O)c2cn(C)nc2C)c1 (3D coordinates assigned)
CNC(=O)c1cccc(N(C)S(=O)(=O)c2cn(C)nc2C)c1 (optimized conformer: 72.14526475770612 kcal/mol)

>  <smiles>  (34) 
CNC(=O)c1cccc(N(C)S(=O)(=O)c2cn(C)nc2C)c1

>  <score_type>  (34) 
oracle

>  <origin>  (34) 
adgpu

>  <m_score__min__energy>  (34) 
-8.25

>  <m_primary>  (34) 
energy

$$$$
34:0
     RDKit          3D

 69 73  0  0  0  0  0  0  0  0999 V2000
   -0.3550   26.4150  -27.2770 C   0  0  0  0  0  0  0  0  0  0  0  0
   -1.6100   25.6080  -27.4290 C   0  0  0  0  0  0  0  0  0  0  0  0
   -2.6000   25.6440  -26.4380 C   0  0  0  0  0  0  0  0  0  0  0  0
   -3.7770   24.9100  -26.5940 C   0  0  0  0  0  0  0  0  0  0  0  0
   -3.9820   24.1460  -27.7450 C   0  0  0  0  0  0  0  0  0  0  0  0
   -3.0120   24.1180  -28.7640 C   0  0  0  0  0  0  0  0  0  0  0  0
   -3.2410   23.3120  -29.9870 C   0  0  0  0  0  0  0  0  0  0  0  0
   -4.0660   23.7150  -30.8530 O   0  0  0  0  0  0  0  0  0  0  0  0
   -2.4920   22.1090  -30.2270 N   0  0  0  0  0  0  0  0  0  0  0  0
   -2.9280   21.0580  -31.1080 C   0  0  0  0  0  0  0  0  0  0  0  0
   -1.9750   20.2410  -31.7270 C   0  0  0  0  0  0  0  0  0  0  0  0
   -2.3750   19.2100  -32.5760 C   0  0  0  0  0  0  0  0  0  0  0  0
   -3.7340   18.9650  -32.8150 C   0  0  0  0  0  0  0  0  0  0  0  0
   -4.0980   17.9070  -33.7150 N   0  0  0  0  0  0  0  0  0  0  0  0
   -4.9470   16.8100  -33.2420 C   0  0  0  0  0  0  0  0  0  0  0  0
   -4.1460   15.5040  -33.2470 C   0  0  0  0  0  0  0  0  0  0  0  0
   -3.3980   15.2670  -34.5100 N   0  0  0  0  0  0  0  0  0  0  0  0
   -1.7180   14.8940  -34.1940 S   0  0  0  0  0  0  0  0  0  0  0  0
   -1.2680   13.7430  -35.0520 O   0  0  0  0  0  0  0  0  0  0  0  0
   -1.5280   14.5220  -32.7500 O   0  0  0  0  0  0  0  0  0  0  0  0
   -0.7350   16.3140  -34.5410 C   0  0  0  0  0  0  0  0  0  0  0  0
   -0.2490   17.1210  -33.5020 C   0  0  0  0  0  0  0  0  0  0  0  0
    0.5420   18.2380  -33.7890 C   0  0  0  0  0  0  0  0  0  0  0  0
    0.8560   18.5510  -35.1150 C   0  0  0  0  0  0  0  0  0  0  0  0
    0.3800   17.7460  -36.1540 C   0  0  0  0  0  0  0  0  0  0  0  0
   -0.4120   16.6290  -35.8690 C   0  0  0  0  0  0  0  0  0  0  0  0
   -3.5370   16.3250  -35.5350 C   0  0  0  0  0  0  0  0  0  0  0  0
   -3.3370   17.7340  -34.9560 C   0  0  0  0  0  0  0  0  0  0  0  0
   -4.7090   19.7610  -32.1690 C   0  0  0  0  0  0  0  0  0  0  0  0
   -6.4450   19.4920  -32.3900 S   0  0  0  0  0  0  0  0  0  0  0  0
   -6.7100   18.9400  -33.7630 O   0  0  0  0  0  0  0  0  0  0  0  0
   -6.9180   18.4880  -31.3770 O   0  0  0  0  0  0  0  0  0  0  0  0
   -7.3460   20.9980  -32.2440 C   0  0  0  0  0  0  0  0  0  0  0  0
   -6.6870   22.2200  -32.4370 C   0  0  0  0  0  0  0  0  0  0  0  0
   -7.3890   23.4240  -32.3190 C   0  0  0  0  0  0  0  0  0  0  0  0
   -8.7530   23.4100  -32.0120 C   0  0  0  0  0  0  0  0  0  0  0  0
   -9.4160   22.1940  -31.8250 C   0  0  0  0  0  0  0  0  0  0  0  0
   -8.7160   20.9890  -31.9420 C   0  0  0  0  0  0  0  0  0  0  0  0
   -4.2930   20.8000  -31.3200 C   0  0  0  0  0  0  0  0  0  0  0  0
   -1.8240   24.8520  -28.5940 C   0  0  0  0  0  0  0  0  0  0  0  0
   -0.1366   26.5554  -26.2081 H   0  0  0  0  0  0  0  0  0  0  0  0
    0.4818   25.8853  -27.7557 H   0  0  0  0  0  0  0  0  0  0  0  0
   -0.4897   27.3962  -27.7557 H   0  0  0  0  0  0  0  0  0  0  0  0
   -2.4492   26.2526  -25.5342 H   0  0  0  0  0  0  0  0  0  0  0  0
   -4.5458   24.9334  -25.8076 H   0  0  0  0  0  0  0  0  0  0  0  0
   -4.9078   23.5623  -27.8557 H   0  0  0  0  0  0  0  0  0  0  0  0
   -1.5310   22.0400  -29.8220 H   0  0  0  0  0  0  0  0  0  0  0  0
   -0.9043   20.4133  -31.5426 H   0  0  0  0  0  0  0  0  0  0  0  0
   -1.6152   18.5817  -33.0638 H   0  0  0  0  0  0  0  0  0  0  0  0
   -5.2890   17.0262  -32.2191 H   0  0  0  0  0  0  0  0  0  0  0  0
   -5.8176   16.7081  -33.9065 H   0  0  0  0  0  0  0  0  0  0  0  0
   -3.4249   15.5356  -32.4169 H   0  0  0  0  0  0  0  0  0  0  0  0
   -4.8698   14.6823  -33.1428 H   0  0  0  0  0  0  0  0  0  0  0  0
   -0.4909   16.8745  -32.4576 H   0  0  0  0  0  0  0  0  0  0  0  0
    0.9173   18.8706  -32.9711 H   0  0  0  0  0  0  0  0  0  0  0  0
    1.4773   19.4303  -35.3405 H   0  0  0  0  0  0  0  0  0  0  0  0
    0.6286   17.9914  -37.1971 H   0  0  0  0  0  0  0  0  0  0  0  0
   -0.7826   15.9958  -36.6886 H   0  0  0  0  0  0  0  0  0  0  0  0
   -2.7856   16.1563  -36.3205 H   0  0  0  0  0  0  0  0  0  0  0  0
   -4.5599   16.2701  -35.9359 H   0  0  0  0  0  0  0  0  0  0  0  0
   -2.2682   17.8881  -34.7466 H   0  0  0  0  0  0  0  0  0  0  0  0
   -3.6963   18.4686  -35.6917 H   0  0  0  0  0  0  0  0  0  0  0  0
   -5.6147   22.2321  -32.6820 H   0  0  0  0  0  0  0  0  0  0  0  0
   -6.8682   24.3814  -32.4677 H   0  0  0  0  0  0  0  0  0  0  0  0
   -9.3048   24.3569  -31.9176 H   0  0  0  0  0  0  0  0  0  0  0  0
  -10.4896   22.1847  -31.5855 H   0  0  0  0  0  0  0  0  0  0  0  0
   -9.2403   20.0329  -31.7970 H   0  0  0  0  0  0  0  0  0  0  0  0
   -5.0468   21.4208  -30.8137 H   0  0  0  0  0  0  0  0  0  0  0  0
   -1.0552   24.8340  -29.3806 H   0  0  0  0  0  0  0  0  0  0  0  0
  1  2  1  0
  2  3  2  0
  3  4  1  0
  4  5  2  0
  5  6  1  0
  6  7  1  0
  7  8  2  0
  7  9  1  0
  9 10  1  0
 10 11  2  0
 11 12  1  0
 12 13  2  0
 13 14  1  0
 14 15  1  0
 15 16  1  0
 16 17  1  0
 17 18  1  0
 18 19  2  0
 18 20  2  0
 18 21  1  0
 21 22  2  0
 22 23  1  0
 23 24  2  0
 24 25  1  0
 25 26  2  0
 17 27  1  0
 27 28  1  0
 13 29  1  0
 29 30  1  0
 30 31  2  0
 30 32  2  0
 30 33  1  0
 33 34  2  0
 34 35  1  0
 35 36  2  0
 36 37  1  0
 37 38  2  0
 29 39  2  0
  6 40  2  0
 40  2  1  0
 39 10  1  0
 28 14  1  0
 38 33  1  0
 26 21  1  0
  1 41  1  0
  1 42  1  0
  1 43  1  0
  3 44  1  0
  4 45  1  0
  5 46  1  0
  9 47  1  0
 11 48  1  0
 12 49  1  0
 15 50  1  0
 15 51  1  0
 16 52  1  0
 16 53  1  0
 22 54  1  0
 23 55  1  0
 24 56  1  0
 25 57  1  0
 26 58  1  0
 27 59  1  0
 27 60  1  0
 28 61  1  0
 28 62  1  0
 34 63  1  0
 35 64  1  0
 36 65  1  0
 37 66  1  0
 38 67  1  0
 39 68  1  0
 40 69  1  0
M  END
>  <UniqueID>  (35) 
35

>  <SMILES>  (35) 
Cc1cccc(C(=O)Nc2ccc(N3CCN(S(=O)(=O)c4ccccc4)CC3)c(S(=O)(=O)c3ccccc3)c2)c1

>  <Energy>  (35) 
92.21178105442303

>  <Genealogy>  (35) 
Cc1cccc(C(=O)Nc2ccc(N3CCN(S(=O)(=O)c4ccccc4)CC3)c(S(=O)(=O)c3ccccc3)c2)c1 (3D coordinates assigned)
Cc1cccc(C(=O)Nc2ccc(N3CCN(S(=O)(=O)c4ccccc4)CC3)c(S(=O)(=O)c3ccccc3)c2)c1 (nonaromatic ring conformer: 92.21178105442303 kcal/mol)

>  <smiles>  (35) 
Cc1cccc(C(=O)Nc2ccc(N3CCN(S(=O)(=O)c4ccccc4)CC3)c(S(=O)(=O)c3ccccc3)c2)c1

>  <score_type>  (35) 
oracle

>  <origin>  (35) 
adgpu

>  <m_score__min__energy>  (35) 
-11.289999999999999

>  <m_primary>  (35) 
energy

$$$$
35:0
     RDKit          3D

 60 63  0  0  0  0  0  0  0  0999 V2000
    2.1350   21.9710  -35.7240 C   0  0  0  0  0  0  0  0  0  0  0  0
    1.0770   20.9990  -35.2920 C   0  0  0  0  0  0  0  0  0  0  0  0
    1.2420   19.6210  -35.5110 C   0  0  0  0  0  0  0  0  0  0  0  0
    0.2320   18.7270  -35.1480 C   0  0  0  0  0  0  0  0  0  0  0  0
   -0.9490   19.1990  -34.5650 C   0  0  0  0  0  0  0  0  0  0  0  0
   -1.1240   20.5740  -34.3300 C   0  0  0  0  0  0  0  0  0  0  0  0
   -2.3370   21.0920  -33.7600 N   0  0  0  0  0  0  0  0  0  0  0  0
   -2.9550   20.5760  -32.5680 C   0  0  0  0  0  0  0  0  0  0  0  0
   -2.4840   19.5590  -31.9900 O   0  0  0  0  0  0  0  0  0  0  0  0
   -4.1500   21.2320  -31.9980 C   0  0  0  0  0  0  0  0  0  0  0  0
   -3.9960   22.4770  -31.3670 C   0  0  0  0  0  0  0  0  0  0  0  0
   -5.0900   23.1210  -30.7750 C   0  0  0  0  0  0  0  0  0  0  0  0
   -4.8690   24.6520  -29.9220 S   0  0  0  0  0  0  0  0  0  0  0  0
   -6.2120   25.1800  -29.4970 O   0  0  0  0  0  0  0  0  0  0  0  0
   -4.2490   25.6550  -30.8550 O   0  0  0  0  0  0  0  0  0  0  0  0
   -3.8520   24.4580  -28.5130 N   0  0  0  0  0  0  0  0  0  0  0  0
   -4.2250   23.2540  -27.7280 C   0  0  0  0  0  0  0  0  0  0  0  0
   -3.2740   22.0710  -27.9600 C   0  0  0  0  0  0  0  0  0  0  0  0
   -1.8270   22.4410  -27.5910 C   0  0  0  0  0  0  0  0  0  0  0  0
   -1.5200   23.9340  -27.8080 C   0  0  0  0  0  0  0  0  0  0  0  0
   -2.4240   24.5310  -28.8940 C   0  0  0  0  0  0  0  0  0  0  0  0
   -6.3570   22.5290  -30.8400 C   0  0  0  0  0  0  0  0  0  0  0  0
   -6.5260   21.3000  -31.4780 C   0  0  0  0  0  0  0  0  0  0  0  0
   -5.4350   20.6410  -32.0620 C   0  0  0  0  0  0  0  0  0  0  0  0
   -5.6590   19.4070  -32.7650 N   0  0  0  0  0  0  0  0  0  0  0  0
   -5.4910   19.3880  -34.2240 C   0  0  0  0  0  0  0  0  0  0  0  0
   -5.8000   18.0110  -34.7980 C   0  0  0  0  0  0  0  0  0  0  0  0
   -5.2970   17.0170  -33.9350 O   0  0  0  0  0  0  0  0  0  0  0  0
   -6.1180   16.9330  -32.7870 C   0  0  0  0  0  0  0  0  0  0  0  0
   -6.2640   18.2790  -32.0380 C   0  0  0  0  0  0  0  0  0  0  0  0
   -0.1170   21.4690  -34.7230 C   0  0  0  0  0  0  0  0  0  0  0  0
    2.6135   22.4106  -34.8364 H   0  0  0  0  0  0  0  0  0  0  0  0
    2.8913   21.4461  -36.3262 H   0  0  0  0  0  0  0  0  0  0  0  0
    1.6760   22.7689  -36.3262 H   0  0  0  0  0  0  0  0  0  0  0  0
    2.1687   19.2453  -35.9694 H   0  0  0  0  0  0  0  0  0  0  0  0
    0.3655   17.6489  -35.3210 H   0  0  0  0  0  0  0  0  0  0  0  0
   -1.7443   18.4909  -34.2892 H   0  0  0  0  0  0  0  0  0  0  0  0
   -2.7470   21.9470  -34.1990 H   0  0  0  0  0  0  0  0  0  0  0  0
   -3.0044   22.9522  -31.3373 H   0  0  0  0  0  0  0  0  0  0  0  0
   -4.2087   23.5130  -26.6591 H   0  0  0  0  0  0  0  0  0  0  0  0
   -5.2267   22.9419  -28.0584 H   0  0  0  0  0  0  0  0  0  0  0  0
   -3.5974   21.2231  -27.3383 H   0  0  0  0  0  0  0  0  0  0  0  0
   -3.3043   21.8031  -29.0265 H   0  0  0  0  0  0  0  0  0  0  0  0
   -1.6615   22.1985  -26.5309 H   0  0  0  0  0  0  0  0  0  0  0  0
   -1.1595   21.8661  -28.2497 H   0  0  0  0  0  0  0  0  0  0  0  0
   -1.6854   24.4756  -26.8650 H   0  0  0  0  0  0  0  0  0  0  0  0
   -0.4733   24.0322  -28.1315 H   0  0  0  0  0  0  0  0  0  0  0  0
   -2.1489   25.5848  -29.0483 H   0  0  0  0  0  0  0  0  0  0  0  0
   -2.2835   23.9498  -29.8173 H   0  0  0  0  0  0  0  0  0  0  0  0
   -7.2222   23.0347  -30.3864 H   0  0  0  0  0  0  0  0  0  0  0  0
   -7.5256   20.8432  -31.5234 H   0  0  0  0  0  0  0  0  0  0  0  0
   -6.1732   20.1249  -34.6730 H   0  0  0  0  0  0  0  0  0  0  0  0
   -4.4446   19.6347  -34.4566 H   0  0  0  0  0  0  0  0  0  0  0  0
   -6.8889   17.8920  -34.8987 H   0  0  0  0  0  0  0  0  0  0  0  0
   -5.3266   17.9117  -35.7859 H   0  0  0  0  0  0  0  0  0  0  0  0
   -7.1181   16.5959  -33.0971 H   0  0  0  0  0  0  0  0  0  0  0  0
   -5.6379   16.2258  -32.0947 H   0  0  0  0  0  0  0  0  0  0  0  0
   -7.3347   18.4870  -31.8953 H   0  0  0  0  0  0  0  0  0  0  0  0
   -5.7347   18.1823  -31.0786 H   0  0  0  0  0  0  0  0  0  0  0  0
   -0.2649   22.5501  -34.5837 H   0  0  0  0  0  0  0  0  0  0  0  0
  1  2  1  0
  2  3  2  0
  3  4  1  0
  4  5  2  0
  5  6  1  0
  6  7  1  0
  7  8  1  0
  8  9  2  0
  8 10  1  0
 10 11  2  0
 11 12  1  0
 12 13  1  0
 13 14  2  0
 13 15  2  0
 13 16  1  0
 16 17  1  0
 17 18  1  0
 18 19  1  0
 19 20  1  0
 20 21  1  0
 12 22  2  0
 22 23  1  0
 23 24  2  0
 24 25  1  0
 25 26  1  0
 26 27  1  0
 27 28  1  0
 28 29  1  0
 29 30  1  0
  6 31  2  0
 31  2  1  0
 24 10  1  0
 30 25  1  0
 21 16  1  0
  1 32  1  0
  1 33  1  0
  1 34  1  0
  3 35  1  0
  4 36  1  0
  5 37  1  0
  7 38  1  0
 11 39  1  0
 17 40  1  0
 17 41  1  0
 18 42  1  0
 18 43  1  0
 19 44  1  0
 19 45  1  0
 20 46  1  0
 20 47  1  0
 21 48  1  0
 21 49  1  0
 22 50  1  0
 23 51  1  0
 26 52  1  0
 26 53  1  0
 27 54  1  0
 27 55  1  0
 29 56  1  0
 29 57  1  0
 30 58  1  0
 30 59  1  0
 31 60  1  0
M  END
>  <UniqueID>  (36) 
36

>  <SMILES>  (36) 
Cc1cccc(NC(=O)c2cc(S(=O)(=O)N3CCCCC3)ccc2N2CCOCC2)c1

>  <Energy>  (36) 
83.16820848543001

>  <Genealogy>  (36) 
Cc1cccc(NC(=O)c2cc(S(=O)(=O)N3CCCCC3)ccc2N2CCOCC2)c1 (3D coordinates assigned)
Cc1cccc(NC(=O)c2cc(S(=O)(=O)N3CCCCC3)ccc2N2CCOCC2)c1 (nonaromatic ring conformer: 83.16820848543001 kcal/mol)

>  <smiles>  (36) 
Cc1cccc(NC(=O)c2cc(S(=O)(=O)N3CCCCC3)ccc2N2CCOCC2)c1

>  <score_type>  (36) 
oracle

>  <origin>  (36) 
adgpu

>  <m_score__min__energy>  (36) 
-9.8200000000000003

>  <m_primary>  (36) 
energy

$$$$
36:0
     RDKit          3D

 59 62  0  0  0  0  0  0  0  0999 V2000
   -1.3310   21.1650  -33.4070 C   0  0  0  0  0  0  0  0  0  0  0  0
   -2.1640   20.7960  -32.3130 O   0  0  0  0  0  0  0  0  0  0  0  0
   -1.9140   21.1390  -30.9750 C   0  0  0  0  0  0  0  0  0  0  0  0
   -2.6190   20.5620  -29.9000 C   0  0  0  0  0  0  0  0  0  0  0  0
   -2.3320   20.9390  -28.5840 C   0  0  0  0  0  0  0  0  0  0  0  0
   -1.3530   21.9010  -28.3190 C   0  0  0  0  0  0  0  0  0  0  0  0
   -1.0880   22.2470  -26.9850 O   0  0  0  0  0  0  0  0  0  0  0  0
   -1.2920   23.5180  -26.4240 C   0  0  0  0  0  0  0  0  0  0  0  0
   -0.3660   24.0690  -25.5180 C   0  0  0  0  0  0  0  0  0  0  0  0
   -0.5840   25.3300  -24.9630 C   0  0  0  0  0  0  0  0  0  0  0  0
   -1.7260   26.0540  -25.3040 C   0  0  0  0  0  0  0  0  0  0  0  0
   -2.6430   25.5300  -26.2190 C   0  0  0  0  0  0  0  0  0  0  0  0
   -2.4230   24.2700  -26.8080 C   0  0  0  0  0  0  0  0  0  0  0  0
   -3.3750   23.7060  -27.7320 N   0  0  0  0  0  0  0  0  0  0  0  0
   -3.6290   24.2260  -29.0480 C   0  0  0  0  0  0  0  0  0  0  0  0
   -2.7480   24.9240  -29.6230 O   0  0  0  0  0  0  0  0  0  0  0  0
   -4.9090   23.8490  -29.7690 C   0  0  0  0  0  0  0  0  0  0  0  0
   -4.6710   23.2200  -31.1700 C   0  0  0  0  0  0  0  0  0  0  0  0
   -5.7460   23.6080  -32.2080 C   0  0  0  0  0  0  0  0  0  0  0  0
   -7.1010   23.7200  -31.6340 N   0  0  0  0  0  0  0  0  0  0  0  0
   -7.8270   22.1540  -31.3370 S   0  0  0  0  0  0  0  0  0  0  0  0
   -9.2110   22.1210  -31.9260 O   0  0  0  0  0  0  0  0  0  0  0  0
   -7.9350   21.8920  -29.8580 O   0  0  0  0  0  0  0  0  0  0  0  0
   -6.8700   20.8860  -32.1050 C   0  0  0  0  0  0  0  0  0  0  0  0
   -7.2290   20.3810  -33.3660 C   0  0  0  0  0  0  0  0  0  0  0  0
   -6.4720   19.3630  -33.9550 C   0  0  0  0  0  0  0  0  0  0  0  0
   -5.3560   18.8460  -33.2890 C   0  0  0  0  0  0  0  0  0  0  0  0
   -4.9980   19.3430  -32.0320 C   0  0  0  0  0  0  0  0  0  0  0  0
   -5.7530   20.3610  -31.4410 C   0  0  0  0  0  0  0  0  0  0  0  0
   -7.2060   24.6240  -30.4610 C   0  0  0  0  0  0  0  0  0  0  0  0
   -5.8490   25.0580  -29.8780 C   0  0  0  0  0  0  0  0  0  0  0  0
   -0.6340   22.4620  -29.3890 C   0  0  0  0  0  0  0  0  0  0  0  0
   -0.9220   22.0880  -30.7050 C   0  0  0  0  0  0  0  0  0  0  0  0
   -0.3878   21.5828  -33.0251 H   0  0  0  0  0  0  0  0  0  0  0  0
   -1.1170   20.2775  -34.0206 H   0  0  0  0  0  0  0  0  0  0  0  0
   -1.8445   21.9198  -34.0206 H   0  0  0  0  0  0  0  0  0  0  0  0
   -3.3988   19.8115  -30.0967 H   0  0  0  0  0  0  0  0  0  0  0  0
   -2.8808   20.4750  -27.7512 H   0  0  0  0  0  0  0  0  0  0  0  0
    0.5359   23.5011  -25.2458 H   0  0  0  0  0  0  0  0  0  0  0  0
    0.1449   25.7533  -24.2563 H   0  0  0  0  0  0  0  0  0  0  0  0
   -1.9055   27.0404  -24.8514 H   0  0  0  0  0  0  0  0  0  0  0  0
   -3.5429   26.1058  -26.4810 H   0  0  0  0  0  0  0  0  0  0  0  0
   -3.8910   22.8430  -27.4480 H   0  0  0  0  0  0  0  0  0  0  0  0
   -5.3841   23.0696  -29.1552 H   0  0  0  0  0  0  0  0  0  0  0  0
   -3.6913   23.5556  -31.5408 H   0  0  0  0  0  0  0  0  0  0  0  0
   -4.7178   22.1279  -31.0474 H   0  0  0  0  0  0  0  0  0  0  0  0
   -5.4722   24.5784  -32.6476 H   0  0  0  0  0  0  0  0  0  0  0  0
   -5.7768   22.8053  -32.9594 H   0  0  0  0  0  0  0  0  0  0  0  0
   -8.1065   20.7868  -33.8907 H   0  0  0  0  0  0  0  0  0  0  0  0
   -6.7544   18.9688  -34.9424 H   0  0  0  0  0  0  0  0  0  0  0  0
   -4.7594   18.0477  -33.7545 H   0  0  0  0  0  0  0  0  0  0  0  0
   -4.1221   18.9331  -31.5078 H   0  0  0  0  0  0  0  0  0  0  0  0
   -5.4694   20.7508  -30.4522 H   0  0  0  0  0  0  0  0  0  0  0  0
   -7.7543   25.5266  -30.7686 H   0  0  0  0  0  0  0  0  0  0  0  0
   -7.7244   24.0601  -29.6716 H   0  0  0  0  0  0  0  0  0  0  0  0
   -5.3952   25.8132  -30.5366 H   0  0  0  0  0  0  0  0  0  0  0  0
   -6.0075   25.4815  -28.8753 H   0  0  0  0  0  0  0  0  0  0  0  0
    0.1586   23.1984  -29.1899 H   0  0  0  0  0  0  0  0  0  0  0  0
   -0.3636   22.5440  -31.5358 H   0  0  0  0  0  0  0  0  0  0  0  0
  1  2  1  0
  2  3  1  0
  3  4  2  0
  4  5  1  0
  5  6  2  0
  6  7  1  0
  7  8  1  0
  8  9  2  0
  9 10  1  0
 10 11  2  0
 11 12  1  0
 12 13  2  0
 13 14  1  0
 14 15  1  0
 15 16  2  0
 15 17  1  0
 17 18  1  0
 18 19  1  0
 19 20  1  0
 20 21  1  0
 21 22  2  0
 21 23  2  0
 21 24  1  0
 24 25  2  0
 25 26  1  0
 26 27  2  0
 27 28  1  0
 28 29  2  0
 20 30  1  0
 30 31  1  0
  6 32  1  0
 32 33  2  0
 33  3  1  0
 13  8  1  0
 31 17  1  0
 29 24  1  0
  1 34  1  0
  1 35  1  0
  1 36  1  0
  4 37  1  0
  5 38  1  0
  9 39  1  0
 10 40  1  0
 11 41  1  0
 12 42  1  0
 14 43  1  0
 17 44  1  0
 18 45  1  0
 18 46  1  0
 19 47  1  0
 19 48  1  0
 25 49  1  0
 26 50  1  0
 27 51  1  0
 28 52  1  0
 29 53  1  0
 30 54  1  0
 30 55  1  0
 31 56  1  0
 31 57  1  0
 32 58  1  0
 33 59  1  0
M  END
>  <UniqueID>  (37) 
37

>  <SMILES>  (37) 
COc1ccc(Oc2ccccc2NC(=O)C2CCN(S(=O)(=O)c3ccccc3)CC2)cc1

>  <Energy>  (37) 
82.32820577537608

>  <Genealogy>  (37) 
COc1ccc(Oc2ccccc2NC(=O)C2CCN(S(=O)(=O)c3ccccc3)CC2)cc1 (3D coordinates assigned)
COc1ccc(Oc2ccccc2NC(=O)C2CCN(S(=O)(=O)c3ccccc3)CC2)cc1 (nonaromatic ring conformer: 82.32820577537608 kcal/mol)

>  <smiles>  (37) 
COc1ccc(Oc2ccccc2NC(=O)C2CCN(S(=O)(=O)c3ccccc3)CC2)cc1

>  <score_type>  (37) 
oracle

>  <origin>  (37) 
adgpu

>  <m_score__min__energy>  (37) 
-10.130000000000001

>  <m_primary>  (37) 
energy

$$$$
37:0
     RDKit          3D

 45 47  0  0  0  0  0  0  0  0999 V2000
   -5.7520   17.4620  -32.9320 C   0  0  0  0  0  0  0  0  0  0  0  0
   -5.2350   18.9830  -33.6940 S   0  0  0  0  0  0  0  0  0  0  0  0
   -6.1130   19.2790  -34.8770 O   0  0  0  0  0  0  0  0  0  0  0  0
   -3.8150   18.8510  -34.1680 O   0  0  0  0  0  0  0  0  0  0  0  0
   -5.3560   20.2920  -32.5270 C   0  0  0  0  0  0  0  0  0  0  0  0
   -4.2180   20.7360  -31.8370 C   0  0  0  0  0  0  0  0  0  0  0  0
   -4.3210   21.7750  -30.9060 C   0  0  0  0  0  0  0  0  0  0  0  0
   -5.5610   22.3820  -30.6570 C   0  0  0  0  0  0  0  0  0  0  0  0
   -5.6760   23.4730  -29.6270 C   0  0  0  0  0  0  0  0  0  0  0  0
   -4.3130   23.9340  -29.2100 C   0  0  0  0  0  0  0  0  0  0  0  0
   -3.5110   24.8840  -29.8190 C   0  0  0  0  0  0  0  0  0  0  0  0
   -3.8730   25.6730  -30.9030 O   0  0  0  0  0  0  0  0  0  0  0  0
   -2.3000   24.9380  -29.2270 N   0  0  0  0  0  0  0  0  0  0  0  0
   -2.3070   24.0420  -28.2490 N   0  0  0  0  0  0  0  0  0  0  0  0
   -1.1410   23.7310  -27.4270 C   0  0  0  0  0  0  0  0  0  0  0  0
   -0.1120   22.9540  -28.2510 C   0  0  0  0  0  0  0  0  0  0  0  0
   -0.2070   21.4770  -27.9670 C   0  0  0  0  0  0  0  0  0  0  0  0
   -1.4620   20.8470  -27.9600 C   0  0  0  0  0  0  0  0  0  0  0  0
   -1.5620   19.4730  -27.7230 C   0  0  0  0  0  0  0  0  0  0  0  0
   -0.4090   18.7110  -27.5000 C   0  0  0  0  0  0  0  0  0  0  0  0
   -0.4980   17.3410  -27.2620 O   0  0  0  0  0  0  0  0  0  0  0  0
    0.8450   19.3290  -27.5160 C   0  0  0  0  0  0  0  0  0  0  0  0
    0.9540   20.7030  -27.7570 C   0  0  0  0  0  0  0  0  0  0  0  0
    2.2150   21.2890  -27.7930 O   0  0  0  0  0  0  0  0  0  0  0  0
   -3.4990   23.4120  -28.2310 C   0  0  0  0  0  0  0  0  0  0  0  0
   -3.7970   22.4720  -27.4460 O   0  0  0  0  0  0  0  0  0  0  0  0
   -6.7030   21.9180  -31.3290 C   0  0  0  0  0  0  0  0  0  0  0  0
   -6.6000   20.8810  -32.2600 C   0  0  0  0  0  0  0  0  0  0  0  0
   -5.7156   17.5692  -31.8378 H   0  0  0  0  0  0  0  0  0  0  0  0
   -6.7805   17.2270  -33.2434 H   0  0  0  0  0  0  0  0  0  0  0  0
   -5.0798   16.6489  -33.2434 H   0  0  0  0  0  0  0  0  0  0  0  0
   -3.2422   20.2659  -32.0286 H   0  0  0  0  0  0  0  0  0  0  0  0
   -3.4256   22.1176  -30.3667 H   0  0  0  0  0  0  0  0  0  0  0  0
   -6.2313   24.3205  -30.0553 H   0  0  0  0  0  0  0  0  0  0  0  0
   -6.2084   23.0825  -28.7472 H   0  0  0  0  0  0  0  0  0  0  0  0
   -0.6883   24.6670  -27.0679 H   0  0  0  0  0  0  0  0  0  0  0  0
   -1.4563   23.1166  -26.5708 H   0  0  0  0  0  0  0  0  0  0  0  0
   -0.2998   23.1287  -29.3207 H   0  0  0  0  0  0  0  0  0  0  0  0
    0.8951   23.3023  -27.9782 H   0  0  0  0  0  0  0  0  0  0  0  0
   -2.3716   21.4381  -28.1421 H   0  0  0  0  0  0  0  0  0  0  0  0
   -2.5497   18.9890  -27.7117 H   0  0  0  0  0  0  0  0  0  0  0  0
   -0.7330   16.9770  -26.3470 H   0  0  0  0  0  0  0  0  0  0  0  0
    1.7513   18.7315  -27.3381 H   0  0  0  0  0  0  0  0  0  0  0  0
   -7.6830   22.3727  -31.1218 H   0  0  0  0  0  0  0  0  0  0  0  0
   -7.4985   20.5254  -32.7855 H   0  0  0  0  0  0  0  0  0  0  0  0
  1  2  1  0
  2  3  2  0
  2  4  2  0
  2  5  1  0
  5  6  2  0
  6  7  1  0
  7  8  2  0
  8  9  1  0
  9 10  1  0
 10 11  2  0
 11 12  1  0
 11 13  1  0
 13 14  1  0
 14 15  1  0
 15 16  1  0
 16 17  1  0
 17 18  2  0
 18 19  1  0
 19 20  2  0
 20 21  1  0
 20 22  1  0
 22 23  2  0
 23 24  1  0
 14 25  1  0
 25 26  2  0
  8 27  1  0
 27 28  2  0
 28  5  1  0
 25 10  1  0
 23 17  1  0
  1 29  1  0
  1 30  1  0
  1 31  1  0
  6 32  1  0
  7 33  1  0
  9 34  1  0
  9 35  1  0
 15 36  1  0
 15 37  1  0
 16 38  1  0
 16 39  1  0
 18 40  1  0
 19 41  1  0
 21 42  1  0
 22 43  1  0
 27 44  1  0
 28 45  1  0
M  CHG  3  12  -1  13  -1  24  -1
M  END
>  <UniqueID>  (38) 
38

>  <SMILES>  (38) 
CS(=O)(=O)c1ccc(Cc2c([O-])[n-]n(CCc3ccc(O)cc3[O-])c2=O)cc1

>  <Energy>  (38) 
73.03023369623284

>  <Genealogy>  (38) 
CS(=O)(=O)c1ccc(Cc2c([O-])[n-]n(CCc3ccc(O)cc3[O-])c2=O)cc1 (protonated)
CS(=O)(=O)c1ccc(Cc2c([O-])[n-]n(CCc3ccc(O)cc3[O-])c2=O)cc1 (3D coordinates assigned)
CS(=O)(=O)c1ccc(Cc2c([O-])[n-]n(CCc3ccc(O)cc3[O-])c2=O)cc1 (optimized conformer: 73.03023369623284 kcal/mol)

>  <smiles>  (38) 
CS(=O)(=O)c1ccc(Cc2c(O)[nH]n(CCc3ccc(O)cc3O)c2=O)cc1

>  <score_type>  (38) 
oracle

>  <origin>  (38) 
adgpu

>  <m_score__min__energy>  (38) 
-14.76

>  <m_primary>  (38) 
energy

$$$$
38:0
     RDKit          3D

 53 56  0  0  0  0  0  0  0  0999 V2000
    0.6810   15.7540  -30.2100 C   0  0  0  0  0  0  0  0  0  0  0  0
    0.7690   17.2360  -30.4140 C   0  0  0  0  0  0  0  0  0  0  0  0
    1.0250   17.6720  -31.5710 O   0  0  0  0  0  0  0  0  0  0  0  0
    0.5530   18.1660  -29.3300 N   0  0  0  0  0  0  0  0  0  0  0  0
    1.0870   19.5310  -29.4610 C   0  0  0  0  0  0  0  0  0  0  0  0
    0.9640   20.3180  -28.1520 C   0  0  0  0  0  0  0  0  0  0  0  0
   -0.3910   20.1660  -27.6040 N   0  0  0  0  0  0  0  0  0  0  0  0
   -1.0570   21.2770  -26.9780 C   0  0  0  0  0  0  0  0  0  0  0  0
   -1.6260   21.1080  -25.8670 O   0  0  0  0  0  0  0  0  0  0  0  0
   -1.1090   22.6120  -27.6160 C   0  0  0  0  0  0  0  0  0  0  0  0
   -0.2600   23.6380  -27.1780 C   0  0  0  0  0  0  0  0  0  0  0  0
   -0.3150   24.8990  -27.7710 C   0  0  0  0  0  0  0  0  0  0  0  0
   -1.2180   25.1620  -28.8050 C   0  0  0  0  0  0  0  0  0  0  0  0
   -1.2340   26.4360  -29.3510 O   0  0  0  0  0  0  0  0  0  0  0  0
   -2.0880   24.1410  -29.2550 C   0  0  0  0  0  0  0  0  0  0  0  0
   -3.0480   24.3150  -30.3130 N   0  0  0  0  0  0  0  0  0  0  0  0
   -4.7720   24.4620  -30.1890 S   0  0  0  0  0  0  0  0  0  0  0  0
   -5.1610   24.5460  -28.7380 O   0  0  0  0  0  0  0  0  0  0  0  0
   -5.2020   25.7280  -30.8720 O   0  0  0  0  0  0  0  0  0  0  0  0
   -5.5560   23.0980  -30.9790 C   0  0  0  0  0  0  0  0  0  0  0  0
   -4.7870   22.1930  -31.7230 C   0  0  0  0  0  0  0  0  0  0  0  0
   -5.3890   21.0920  -32.3380 C   0  0  0  0  0  0  0  0  0  0  0  0
   -6.7730   20.8910  -32.2240 C   0  0  0  0  0  0  0  0  0  0  0  0
   -7.3860   19.7790  -32.8230 C   0  0  0  0  0  0  0  0  0  0  0  0
   -8.7660   19.5880  -32.7010 C   0  0  0  0  0  0  0  0  0  0  0  0
   -9.5430   20.5070  -31.9890 C   0  0  0  0  0  0  0  0  0  0  0  0
   -8.9440   21.6160  -31.3850 C   0  0  0  0  0  0  0  0  0  0  0  0
   -7.5580   21.8150  -31.4910 C   0  0  0  0  0  0  0  0  0  0  0  0
   -6.9440   22.9160  -30.8760 C   0  0  0  0  0  0  0  0  0  0  0  0
   -2.0310   22.8810  -28.6410 C   0  0  0  0  0  0  0  0  0  0  0  0
   -1.0050   18.8340  -27.5310 C   0  0  0  0  0  0  0  0  0  0  0  0
   -0.0770   17.7390  -28.0710 C   0  0  0  0  0  0  0  0  0  0  0  0
    0.6678   15.5323  -29.1326 H   0  0  0  0  0  0  0  0  0  0  0  0
   -0.2413   15.3742  -30.6738 H   0  0  0  0  0  0  0  0  0  0  0  0
    1.5518   15.2677  -30.6738 H   0  0  0  0  0  0  0  0  0  0  0  0
    2.1486   19.4725  -29.7429 H   0  0  0  0  0  0  0  0  0  0  0  0
    0.5018   20.0547  -30.2312 H   0  0  0  0  0  0  0  0  0  0  0  0
    1.6964   19.9354  -27.4259 H   0  0  0  0  0  0  0  0  0  0  0  0
    1.1582   21.3826  -28.3492 H   0  0  0  0  0  0  0  0  0  0  0  0
    0.4531   23.4474  -26.3625 H   0  0  0  0  0  0  0  0  0  0  0  0
    0.3592   25.6948  -27.4214 H   0  0  0  0  0  0  0  0  0  0  0  0
   -3.7029   22.3503  -31.8235 H   0  0  0  0  0  0  0  0  0  0  0  0
   -4.7767   20.3815  -32.9126 H   0  0  0  0  0  0  0  0  0  0  0  0
   -6.7797   19.0567  -33.3893 H   0  0  0  0  0  0  0  0  0  0  0  0
   -9.2416   18.7122  -33.1665 H   0  0  0  0  0  0  0  0  0  0  0  0
  -10.6294   20.3566  -31.9040 H   0  0  0  0  0  0  0  0  0  0  0  0
   -9.5601   22.3350  -30.8250 H   0  0  0  0  0  0  0  0  0  0  0  0
   -7.5517   23.6386  -30.3116 H   0  0  0  0  0  0  0  0  0  0  0  0
   -2.7209   22.0892  -28.9682 H   0  0  0  0  0  0  0  0  0  0  0  0
   -1.2431   18.6106  -26.4806 H   0  0  0  0  0  0  0  0  0  0  0  0
   -1.9122   18.8454  -28.1530 H   0  0  0  0  0  0  0  0  0  0  0  0
    0.7065   17.5306  -27.3276 H   0  0  0  0  0  0  0  0  0  0  0  0
   -0.6718   16.8337  -28.2623 H   0  0  0  0  0  0  0  0  0  0  0  0
  1  2  1  0
  2  3  2  0
  2  4  1  0
  4  5  1  0
  5  6  1  0
  6  7  1  0
  7  8  1  0
  8  9  2  0
  8 10  1  0
 10 11  2  0
 11 12  1  0
 12 13  2  0
 13 14  1  0
 13 15  1  0
 15 16  1  0
 16 17  1  0
 17 18  2  0
 17 19  2  0
 17 20  1  0
 20 21  2  0
 21 22  1  0
 22 23  2  0
 23 24  1  0
 24 25  2  0
 25 26  1  0
 26 27  2  0
 27 28  1  0
 28 29  2  0
 15 30  2  0
  7 31  1  0
 31 32  1  0
 32  4  1  0
 30 10  1  0
 29 20  1  0
 28 23  1  0
  1 33  1  0
  1 34  1  0
  1 35  1  0
  5 36  1  0
  5 37  1  0
  6 38  1  0
  6 39  1  0
 11 40  1  0
 12 41  1  0
 21 42  1  0
 22 43  1  0
 24 44  1  0
 25 45  1  0
 26 46  1  0
 27 47  1  0
 29 48  1  0
 30 49  1  0
 31 50  1  0
 31 51  1  0
 32 52  1  0
 32 53  1  0
M  CHG  2  14  -1  16  -1
M  END
>  <UniqueID>  (39) 
39

>  <SMILES>  (39) 
CC(=O)N1CCN(C(=O)c2ccc([O-])c([N-]S(=O)(=O)c3ccc4ccccc4c3)c2)CC1

>  <Energy>  (39) 
70.85824004374997

>  <Genealogy>  (39) 
CC(=O)N1CCN(C(=O)c2ccc([O-])c([N-]S(=O)(=O)c3ccc4ccccc4c3)c2)CC1 (protonated)
CC(=O)N1CCN(C(=O)c2ccc([O-])c([N-]S(=O)(=O)c3ccc4ccccc4c3)c2)CC1 (3D coordinates assigned)
CC(=O)N1CCN(C(=O)c2ccc([O-])c([N-]S(=O)(=O)c3ccc4ccccc4c3)c2)CC1 (nonaromatic ring conformer: 70.85824004374997 kcal/mol)

>  <smiles>  (39) 
CC(=O)N1CCN(C(=O)c2ccc(O)c(NS(=O)(=O)c3ccc4ccccc4c3)c2)CC1

>  <score_type>  (39) 
oracle

>  <origin>  (39) 
adgpu

>  <m_score__min__energy>  (39) 
-14.699999999999999

>  <m_primary>  (39) 
energy

$$$$
39:0
     RDKit          3D

 47 51  0  0  0  0  0  0  0  0999 V2000
   -8.5820   19.2190  -31.9050 O   0  0  0  0  0  0  0  0  0  0  0  0
   -7.4110   19.5800  -32.2100 C   0  0  0  0  0  0  0  0  0  0  0  0
   -6.5570   18.6950  -33.0380 C   0  0  0  0  0  0  0  0  0  0  0  0
   -7.0310   17.4410  -33.4710 C   0  0  0  0  0  0  0  0  0  0  0  0
   -6.2200   16.6080  -34.2460 C   0  0  0  0  0  0  0  0  0  0  0  0
   -4.9330   17.0150  -34.6010 C   0  0  0  0  0  0  0  0  0  0  0  0
   -4.4510   18.2570  -34.1790 C   0  0  0  0  0  0  0  0  0  0  0  0
   -5.2550   19.1080  -33.3970 C   0  0  0  0  0  0  0  0  0  0  0  0
   -4.7490   20.4280  -32.9510 C   0  0  0  0  0  0  0  0  0  0  0  0
   -3.6000   20.8100  -33.2990 O   0  0  0  0  0  0  0  0  0  0  0  0
   -5.5940   21.3030  -32.1030 C   0  0  0  0  0  0  0  0  0  0  0  0
   -5.1120   22.5490  -31.6560 C   0  0  0  0  0  0  0  0  0  0  0  0
   -5.9140   23.3780  -30.8610 C   0  0  0  0  0  0  0  0  0  0  0  0
   -5.3390   24.9610  -30.3420 S   0  0  0  0  0  0  0  0  0  0  0  0
   -5.9190   26.0070  -31.2530 O   0  0  0  0  0  0  0  0  0  0  0  0
   -5.7610   25.2600  -28.9280 O   0  0  0  0  0  0  0  0  0  0  0  0
   -3.6070   25.0130  -30.4470 N   0  0  0  0  0  0  0  0  0  0  0  0
   -2.7080   24.2270  -29.6480 C   0  0  0  0  0  0  0  0  0  0  0  0
   -2.8100   22.8270  -29.5760 C   0  0  0  0  0  0  0  0  0  0  0  0
   -1.8990   22.0830  -28.8060 C   0  0  0  0  0  0  0  0  0  0  0  0
   -0.8530   22.7440  -28.1250 C   0  0  0  0  0  0  0  0  0  0  0  0
   -0.7760   24.1430  -28.1710 C   0  0  0  0  0  0  0  0  0  0  0  0
   -1.6970   24.8790  -28.9270 C   0  0  0  0  0  0  0  0  0  0  0  0
   -1.6030   26.2670  -28.9580 O   0  0  0  0  0  0  0  0  0  0  0  0
    0.1170   21.9720  -27.2600 C   0  0  0  0  0  0  0  0  0  0  0  0
    0.1820   20.5500  -27.6310 N   0  0  0  0  0  0  0  0  0  0  0  0
   -1.1650   19.9620  -27.6610 C   0  0  0  0  0  0  0  0  0  0  0  0
   -2.0140   20.5830  -28.7820 C   0  0  0  0  0  0  0  0  0  0  0  0
   -7.1970   22.9620  -30.5040 C   0  0  0  0  0  0  0  0  0  0  0  0
   -7.6860   21.7280  -30.9370 C   0  0  0  0  0  0  0  0  0  0  0  0
   -6.8930   20.8890  -31.7400 C   0  0  0  0  0  0  0  0  0  0  0  0
   -8.0456   17.1157  -33.1973 H   0  0  0  0  0  0  0  0  0  0  0  0
   -6.5968   15.6290  -34.5772 H   0  0  0  0  0  0  0  0  0  0  0  0
   -4.2978   16.3579  -35.2132 H   0  0  0  0  0  0  0  0  0  0  0  0
   -3.4353   18.5722  -34.4601 H   0  0  0  0  0  0  0  0  0  0  0  0
   -4.0982   22.8734  -31.9333 H   0  0  0  0  0  0  0  0  0  0  0  0
   -3.6092   22.3093  -30.1267 H   0  0  0  0  0  0  0  0  0  0  0  0
    0.0126   24.6658  -27.6099 H   0  0  0  0  0  0  0  0  0  0  0  0
    1.1186   22.4131  -27.3705 H   0  0  0  0  0  0  0  0  0  0  0  0
   -0.2351   22.0339  -26.2197 H   0  0  0  0  0  0  0  0  0  0  0  0
    0.6160   20.4680  -28.5840 H   0  0  0  0  0  0  0  0  0  0  0  0
   -1.0806   18.8787  -27.8322 H   0  0  0  0  0  0  0  0  0  0  0  0
   -1.6562   20.1636  -26.6976 H   0  0  0  0  0  0  0  0  0  0  0  0
   -1.6731   20.1845  -29.7489 H   0  0  0  0  0  0  0  0  0  0  0  0
   -3.0668   20.3243  -28.5961 H   0  0  0  0  0  0  0  0  0  0  0  0
   -7.8272   23.6103  -29.8775 H   0  0  0  0  0  0  0  0  0  0  0  0
   -8.6986   21.4099  -30.6480 H   0  0  0  0  0  0  0  0  0  0  0  0
  1  2  2  0
  2  3  1  0
  3  4  2  0
  4  5  1  0
  5  6  2  0
  6  7  1  0
  7  8  2  0
  8  9  1  0
  9 10  2  0
  9 11  1  0
 11 12  2  0
 12 13  1  0
 13 14  1  0
 14 15  2  0
 14 16  2  0
 14 17  1  0
 17 18  1  0
 18 19  2  0
 19 20  1  0
 20 21  2  0
 21 22  1  0
 22 23  2  0
 23 24  1  0
 21 25  1  0
 25 26  1  0
 26 27  1  0
 27 28  1  0
 13 29  2  0
 29 30  1  0
 30 31  2  0
 31  2  1  0
  8  3  1  0
 31 11  1  0
 23 18  1  0
 28 20  1  0
  4 32  1  0
  5 33  1  0
  6 34  1  0
  7 35  1  0
 12 36  1  0
 19 37  1  0
 22 38  1  0
 25 39  1  0
 25 40  1  0
 26 41  1  0
 27 42  1  0
 27 43  1  0
 28 44  1  0
 28 45  1  0
 29 46  1  0
 30 47  1  0
M  CHG  2  17  -1  24  -1
M  END
>  <UniqueID>  (40) 
40

>  <SMILES>  (40) 
O=C1c2ccccc2C(=O)c2cc(S(=O)(=O)[N-]c3cc4c(cc3[O-])CNCC4)ccc21

>  <Energy>  (40) 
62.78486128107005

>  <Genealogy>  (40) 
O=C1c2ccccc2C(=O)c2cc(S(=O)(=O)[N-]c3cc4c(cc3[O-])CNCC4)ccc21 (protonated)
O=C1c2ccccc2C(=O)c2cc(S(=O)(=O)[N-]c3cc4c(cc3[O-])CNCC4)ccc21 (3D coordinates assigned)
O=C1c2ccccc2C(=O)c2cc(S(=O)(=O)[N-]c3cc4c(cc3[O-])CNCC4)ccc21 (nonaromatic ring conformer: 62.78486128107005 kcal/mol)

>  <smiles>  (40) 
O=C1c2ccccc2C(=O)c2cc(S(=O)(=O)Nc3cc4c(cc3O)CNCC4)ccc21

>  <score_type>  (40) 
oracle

>  <origin>  (40) 
adgpu

>  <m_score__min__energy>  (40) 
-16.329999999999998

>  <m_primary>  (40) 
energy

$$$$
40:0
     RDKit          3D

 49 50  0  0  0  0  0  0  0  0999 V2000
   -8.6680   23.0720  -32.3300 O   0  0  0  0  0  0  0  0  0  0  0  0
   -7.8490   22.5290  -31.5430 C   0  0  0  0  0  0  0  0  0  0  0  0
   -8.1460   21.2220  -31.0350 N   0  0  0  0  0  0  0  0  0  0  0  0
   -8.5110   20.0610  -31.8450 C   0  0  0  0  0  0  0  0  0  0  0  0
   -7.4130   18.9860  -31.8120 C   0  0  0  0  0  0  0  0  0  0  0  0
   -6.1880   19.3670  -32.6550 C   0  0  0  0  0  0  0  0  0  0  0  0
   -6.3820   18.9520  -34.0520 N   0  0  0  0  0  0  0  0  0  0  0  0
   -5.1150   18.5450  -34.6780 C   0  0  0  0  0  0  0  0  0  0  0  0
   -4.4400   17.4350  -33.8620 C   0  0  0  0  0  0  0  0  0  0  0  0
   -3.0960   17.8930  -33.2840 C   0  0  0  0  0  0  0  0  0  0  0  0
   -2.3010   18.5750  -34.3010 N   0  0  0  0  0  0  0  0  0  0  0  0
   -1.8020   19.9110  -34.1600 C   0  0  0  0  0  0  0  0  0  0  0  0
   -2.3760   20.7150  -33.3750 O   0  0  0  0  0  0  0  0  0  0  0  0
   -0.6050   20.3450  -34.9170 C   0  0  0  0  0  0  0  0  0  0  0  0
    0.0530   19.4520  -35.7850 C   0  0  0  0  0  0  0  0  0  0  0  0
    1.1740   19.8620  -36.5120 C   0  0  0  0  0  0  0  0  0  0  0  0
    1.8070   18.9670  -37.3670 O   0  0  0  0  0  0  0  0  0  0  0  0
    1.6560   21.1690  -36.3810 C   0  0  0  0  0  0  0  0  0  0  0  0
    2.7690   21.5680  -37.1100 O   0  0  0  0  0  0  0  0  0  0  0  0
    1.0140   22.0700  -35.5160 C   0  0  0  0  0  0  0  0  0  0  0  0
    1.4770   23.3780  -35.3620 O   0  0  0  0  0  0  0  0  0  0  0  0
   -0.1080   21.6570  -34.7890 C   0  0  0  0  0  0  0  0  0  0  0  0
   -6.6120   23.2510  -31.1800 C   0  0  0  0  0  0  0  0  0  0  0  0
   -5.4240   22.5380  -30.9560 C   0  0  0  0  0  0  0  0  0  0  0  0
   -4.2550   23.2140  -30.5890 C   0  0  0  0  0  0  0  0  0  0  0  0
   -4.2660   24.6040  -30.4320 C   0  0  0  0  0  0  0  0  0  0  0  0
   -3.1010   25.2680  -30.0690 O   0  0  0  0  0  0  0  0  0  0  0  0
   -5.4530   25.3190  -30.6360 C   0  0  0  0  0  0  0  0  0  0  0  0
   -5.4730   26.6990  -30.4720 O   0  0  0  0  0  0  0  0  0  0  0  0
   -6.6240   24.6440  -31.0000 C   0  0  0  0  0  0  0  0  0  0  0  0
   -9.4447   19.6309  -31.4536 H   0  0  0  0  0  0  0  0  0  0  0  0
   -8.6398   20.3921  -32.8860 H   0  0  0  0  0  0  0  0  0  0  0  0
   -7.0923   18.8419  -30.7697 H   0  0  0  0  0  0  0  0  0  0  0  0
   -7.8365   18.0642  -32.2375 H   0  0  0  0  0  0  0  0  0  0  0  0
   -6.0456   20.4571  -32.6165 H   0  0  0  0  0  0  0  0  0  0  0  0
   -5.3016   18.8571  -32.2497 H   0  0  0  0  0  0  0  0  0  0  0  0
   -6.7590   19.7760  -34.5800 H   0  0  0  0  0  0  0  0  0  0  0  0
   -5.3166   18.1748  -35.6940 H   0  0  0  0  0  0  0  0  0  0  0  0
   -4.4432   19.4152  -34.7157 H   0  0  0  0  0  0  0  0  0  0  0  0
   -5.1045   17.1470  -33.0340 H   0  0  0  0  0  0  0  0  0  0  0  0
   -4.2525   16.5829  -34.5319 H   0  0  0  0  0  0  0  0  0  0  0  0
   -3.2794   18.5826  -32.4469 H   0  0  0  0  0  0  0  0  0  0  0  0
   -2.5414   17.0089  -32.9365 H   0  0  0  0  0  0  0  0  0  0  0  0
   -0.3189   18.4223  -35.8917 H   0  0  0  0  0  0  0  0  0  0  0  0
    2.3280   23.7010  -35.8060 H   0  0  0  0  0  0  0  0  0  0  0  0
   -0.6073   22.3642  -34.1104 H   0  0  0  0  0  0  0  0  0  0  0  0
   -5.4118   21.4439  -31.0693 H   0  0  0  0  0  0  0  0  0  0  0  0
   -3.3248   22.6507  -30.4235 H   0  0  0  0  0  0  0  0  0  0  0  0
   -7.5577   25.2069  -31.1457 H   0  0  0  0  0  0  0  0  0  0  0  0
  1  2  2  0
  2  3  1  0
  3  4  1  0
  4  5  1  0
  5  6  1  0
  6  7  1  0
  7  8  1  0
  8  9  1  0
  9 10  1  0
 10 11  1  0
 11 12  1  0
 12 13  2  0
 12 14  1  0
 14 15  2  0
 15 16  1  0
 16 17  1  0
 16 18  2  0
 18 19  1  0
 18 20  1  0
 20 21  1  0
 20 22  2  0
  2 23  1  0
 23 24  2  0
 24 25  1  0
 25 26  2  0
 26 27  1  0
 26 28  1  0
 28 29  1  0
 28 30  2  0
 22 14  1  0
 30 23  1  0
  4 31  1  0
  4 32  1  0
  5 33  1  0
  5 34  1  0
  6 35  1  0
  6 36  1  0
  7 37  1  0
  8 38  1  0
  8 39  1  0
  9 40  1  0
  9 41  1  0
 10 42  1  0
 10 43  1  0
 15 44  1  0
 21 45  1  0
 22 46  1  0
 24 47  1  0
 25 48  1  0
 30 49  1  0
M  CHG  6   3  -1  11  -1  17  -1  19  -1  27  -1  29  -1
M  END
>  <UniqueID>  (41) 
41

>  <SMILES>  (41) 
O=C([N-]CCCNCCC[N-]C(=O)c1cc([O-])c([O-])c(O)c1)c1ccc([O-])c([O-])c1

>  <Energy>  (41) 
44.5855173509011

>  <Genealogy>  (41) 
O=C([N-]CCCNCCC[N-]C(=O)c1cc([O-])c([O-])c(O)c1)c1ccc([O-])c([O-])c1 (protonated)
O=C([N-]CCCNCCC[N-]C(=O)c1cc([O-])c([O-])c(O)c1)c1ccc([O-])c([O-])c1 (3D coordinates assigned)
O=C([N-]CCCNCCC[N-]C(=O)c1cc([O-])c([O-])c(O)c1)c1ccc([O-])c([O-])c1 (optimized conformer: 44.5855173509011 kcal/mol)

>  <smiles>  (41) 
O=C(NCCCNCCCNC(=O)c1cc(O)c(O)c(O)c1)c1ccc(O)c(O)c1

>  <score_type>  (41) 
oracle

>  <origin>  (41) 
adgpu

>  <m_score__min__energy>  (41) 
-13.51

>  <m_primary>  (41) 
energy

$$$$
41:0
     RDKit          3D

 26 27  0  0  0  0  0  0  0  0999 V2000
   -7.1930   25.0660  -30.1120 N   0  0  0  0  0  0  0  0  0  0  0  0
   -6.3620   24.3050  -30.3720 C   0  0  0  0  0  0  0  0  0  0  0  0
   -5.3230   23.3540  -30.6970 C   0  0  0  0  0  0  0  0  0  0  0  0
   -3.9600   23.7010  -30.5410 C   0  0  0  0  0  0  0  0  0  0  0  0
   -3.5670   25.0000  -30.0790 N   0  0  0  0  0  0  0  0  0  0  0  0
   -2.9690   22.7560  -30.8440 C   0  0  0  0  0  0  0  0  0  0  0  0
   -3.3180   21.4810  -31.2900 C   0  0  0  0  0  0  0  0  0  0  0  0
   -4.6600   21.1370  -31.4460 C   0  0  0  0  0  0  0  0  0  0  0  0
   -5.6670   22.0670  -31.1610 C   0  0  0  0  0  0  0  0  0  0  0  0
   -7.3840   21.5700  -31.3880 S   0  0  0  0  0  0  0  0  0  0  0  0
   -6.9410   20.0490  -32.2290 C   0  0  0  0  0  0  0  0  0  0  0  0
   -7.0780   18.8190  -31.5710 C   0  0  0  0  0  0  0  0  0  0  0  0
   -6.7310   17.6320  -32.2240 C   0  0  0  0  0  0  0  0  0  0  0  0
   -6.2510   17.6700  -33.5370 C   0  0  0  0  0  0  0  0  0  0  0  0
   -6.1200   18.8960  -34.1990 C   0  0  0  0  0  0  0  0  0  0  0  0
   -6.4670   20.0840  -33.5460 C   0  0  0  0  0  0  0  0  0  0  0  0
   -3.0770   25.6650  -30.7190 H   0  0  0  0  0  0  0  0  0  0  0  0
   -3.7530   25.3220  -29.1040 H   0  0  0  0  0  0  0  0  0  0  0  0
   -1.9079   23.0223  -30.7291 H   0  0  0  0  0  0  0  0  0  0  0  0
   -2.5327   20.7456  -31.5190 H   0  0  0  0  0  0  0  0  0  0  0  0
   -4.9292   20.1292  -31.7950 H   0  0  0  0  0  0  0  0  0  0  0  0
   -7.4590   18.7873  -30.5396 H   0  0  0  0  0  0  0  0  0  0  0  0
   -6.8357   16.6680  -31.7046 H   0  0  0  0  0  0  0  0  0  0  0  0
   -5.9764   16.7362  -34.0494 H   0  0  0  0  0  0  0  0  0  0  0  0
   -5.7443   18.9258  -35.2324 H   0  0  0  0  0  0  0  0  0  0  0  0
   -6.3672   21.0470  -34.0682 H   0  0  0  0  0  0  0  0  0  0  0  0
  1  2  3  0
  2  3  1  0
  3  4  2  0
  4  5  1  0
  4  6  1  0
  6  7  2  0
  7  8  1  0
  8  9  2  0
  9 10  1  0
 10 11  1  0
 11 12  2  0
 12 13  1  0
 13 14  2  0
 14 15  1  0
 15 16  2  0
  9  3  1  0
 16 11  1  0
  5 17  1  0
  5 18  1  0
  6 19  1  0
  7 20  1  0
  8 21  1  0
 12 22  1  0
 13 23  1  0
 14 24  1  0
 15 25  1  0
 16 26  1  0
M  END
>  <UniqueID>  (42) 
42

>  <SMILES>  (42) 
N#Cc1c(N)cccc1Sc1ccccc1

>  <Energy>  (42) 
23.079806531013784

>  <Genealogy>  (42) 
N#Cc1c(N)cccc1Sc1ccccc1 (3D coordinates assigned)
N#Cc1c(N)cccc1Sc1ccccc1 (optimized conformer: 23.079806531013784 kcal/mol)

>  <smiles>  (42) 
N#Cc1c(N)cccc1Sc1ccccc1

>  <score_type>  (42) 
oracle

>  <origin>  (42) 
adgpu

>  <m_score__min__energy>  (42) 
-7.25

>  <m_primary>  (42) 
energy

$$$$
42:0
     RDKit          3D

 44 46  0  0  0  0  0  0  0  0999 V2000
   -2.0940   21.0060  -26.5040 O   0  0  0  0  0  0  0  0  0  0  0  0
   -1.8160   21.1650  -27.7230 C   0  0  0  0  0  0  0  0  0  0  0  0
   -1.0190   20.1690  -28.3790 N   0  0  0  0  0  0  0  0  0  0  0  0
   -0.7240   20.1180  -29.7830 C   0  0  0  0  0  0  0  0  0  0  0  0
    0.5790   19.8890  -30.2540 C   0  0  0  0  0  0  0  0  0  0  0  0
    0.8320   19.8470  -31.6280 C   0  0  0  0  0  0  0  0  0  0  0  0
   -0.2130   20.0190  -32.5390 C   0  0  0  0  0  0  0  0  0  0  0  0
   -1.5210   20.2180  -32.0790 C   0  0  0  0  0  0  0  0  0  0  0  0
   -2.8280   20.4690  -33.2330 S   0  0  0  0  0  0  0  0  0  0  0  0
   -2.4050   19.9910  -34.5950 O   0  0  0  0  0  0  0  0  0  0  0  0
   -3.1270   21.9400  -33.3150 O   0  0  0  0  0  0  0  0  0  0  0  0
   -4.2530   19.6080  -32.7080 N   0  0  0  0  0  0  0  0  0  0  0  0
   -4.6340   18.6010  -33.7230 C   0  0  0  0  0  0  0  0  0  0  0  0
   -6.0580   18.0450  -33.5030 C   0  0  0  0  0  0  0  0  0  0  0  0
   -6.5660   18.3390  -32.0890 C   0  0  0  0  0  0  0  0  0  0  0  0
   -6.5420   19.8490  -31.7980 C   0  0  0  0  0  0  0  0  0  0  0  0
   -5.3510   20.5590  -32.4700 C   0  0  0  0  0  0  0  0  0  0  0  0
   -1.7730   20.2620  -30.7000 C   0  0  0  0  0  0  0  0  0  0  0  0
   -2.3600   22.3370  -28.4470 C   0  0  0  0  0  0  0  0  0  0  0  0
   -3.5060   22.2190  -29.2520 C   0  0  0  0  0  0  0  0  0  0  0  0
   -4.0130   23.3310  -29.9290 C   0  0  0  0  0  0  0  0  0  0  0  0
   -3.3900   24.5760  -29.8030 C   0  0  0  0  0  0  0  0  0  0  0  0
   -3.9060   25.6720  -30.4840 O   0  0  0  0  0  0  0  0  0  0  0  0
   -2.2530   24.7110  -28.9910 C   0  0  0  0  0  0  0  0  0  0  0  0
   -1.6140   25.9420  -28.8440 O   0  0  0  0  0  0  0  0  0  0  0  0
   -1.7470   23.5950  -28.3130 C   0  0  0  0  0  0  0  0  0  0  0  0
    1.4026   19.7423  -29.5398 H   0  0  0  0  0  0  0  0  0  0  0  0
    1.8560   19.6782  -31.9927 H   0  0  0  0  0  0  0  0  0  0  0  0
   -0.0083   19.9981  -33.6196 H   0  0  0  0  0  0  0  0  0  0  0  0
   -4.5882   19.0686  -34.7176 H   0  0  0  0  0  0  0  0  0  0  0  0
   -3.9309   17.7594  -33.6374 H   0  0  0  0  0  0  0  0  0  0  0  0
   -6.7391   18.5101  -34.2308 H   0  0  0  0  0  0  0  0  0  0  0  0
   -6.0255   16.9536  -33.6368 H   0  0  0  0  0  0  0  0  0  0  0  0
   -7.5981   17.9706  -31.9936 H   0  0  0  0  0  0  0  0  0  0  0  0
   -5.9080   17.8324  -31.3676 H   0  0  0  0  0  0  0  0  0  0  0  0
   -7.4755   20.2954  -32.1713 H   0  0  0  0  0  0  0  0  0  0  0  0
   -6.4391   19.9789  -30.7106 H   0  0  0  0  0  0  0  0  0  0  0  0
   -5.6775   20.9832  -33.4310 H   0  0  0  0  0  0  0  0  0  0  0  0
   -4.9919   21.3588  -31.8056 H   0  0  0  0  0  0  0  0  0  0  0  0
   -2.8005   20.4105  -30.3364 H   0  0  0  0  0  0  0  0  0  0  0  0
   -4.0071   21.2446  -29.3497 H   0  0  0  0  0  0  0  0  0  0  0  0
   -4.9055   23.2264  -30.5634 H   0  0  0  0  0  0  0  0  0  0  0  0
   -2.1020   26.8200  -28.9740 H   0  0  0  0  0  0  0  0  0  0  0  0
   -0.8615   23.7038  -27.6695 H   0  0  0  0  0  0  0  0  0  0  0  0
  1  2  2  0
  2  3  1  0
  3  4  1  0
  4  5  2  0
  5  6  1  0
  6  7  2  0
  7  8  1  0
  8  9  1  0
  9 10  2  0
  9 11  2  0
  9 12  1  0
 12 13  1  0
 13 14  1  0
 14 15  1  0
 15 16  1  0
 16 17  1  0
  8 18  2  0
  2 19  1  0
 19 20  2  0
 20 21  1  0
 21 22  2  0
 22 23  1  0
 22 24  1  0
 24 25  1  0
 24 26  2  0
 18  4  1  0
 26 19  1  0
 17 12  1  0
  5 27  1  0
  6 28  1  0
  7 29  1  0
 13 30  1  0
 13 31  1  0
 14 32  1  0
 14 33  1  0
 15 34  1  0
 15 35  1  0
 16 36  1  0
 16 37  1  0
 17 38  1  0
 17 39  1  0
 18 40  1  0
 20 41  1  0
 21 42  1  0
 25 43  1  0
 26 44  1  0
M  CHG  2   3  -1  23  -1
M  END
>  <UniqueID>  (43) 
43

>  <SMILES>  (43) 
O=C([N-]c1cccc(S(=O)(=O)N2CCCCC2)c1)c1ccc([O-])c(O)c1

>  <Energy>  (43) 
54.807403640001155

>  <Genealogy>  (43) 
O=C([N-]c1cccc(S(=O)(=O)N2CCCCC2)c1)c1ccc([O-])c(O)c1 (protonated)
O=C([N-]c1cccc(S(=O)(=O)N2CCCCC2)c1)c1ccc([O-])c(O)c1 (3D coordinates assigned)
O=C([N-]c1cccc(S(=O)(=O)N2CCCCC2)c1)c1ccc([O-])c(O)c1 (nonaromatic ring conformer: 54.807403640001155 kcal/mol)

>  <smiles>  (43) 
O=C(Nc1cccc(S(=O)(=O)N2CCCCC2)c1)c1ccc(O)c(O)c1

>  <score_type>  (43) 
oracle

>  <origin>  (43) 
adgpu

>  <m_score__min__energy>  (43) 
-11.68

>  <m_primary>  (43) 
energy

$$$$
43:0
     RDKit          3D

 51 53  0  0  0  0  0  0  0  0999 V2000
   -7.1082   21.5740  -31.8375 H   0  0  0  0  0  0  0  0  0  0  0  0
   -6.0170   21.6860  -31.9200 C   0  0  0  0  0  0  0  0  0  0  0  0
   -5.2700   20.7200  -32.5980 C   0  0  0  0  0  0  0  0  0  0  0  0
   -5.7750   19.8516  -33.0462 H   0  0  0  0  0  0  0  0  0  0  0  0
   -3.8820   20.8530  -32.7090 C   0  0  0  0  0  0  0  0  0  0  0  0
   -2.9530   19.6490  -33.6000 S   0  0  0  0  0  0  0  0  0  0  0  0
   -2.3580   18.6480  -32.6470 O   0  0  0  0  0  0  0  0  0  0  0  0
   -3.8700   18.9190  -34.5410 O   0  0  0  0  0  0  0  0  0  0  0  0
   -1.6910   20.4140  -34.5140 N   0  0  0  0  0  0  0  0  0  0  0  0
   -0.5310   20.6410  -33.6590 C   0  0  0  0  0  0  0  0  0  0  0  0
   -0.8360   20.5813  -32.6038 H   0  0  0  0  0  0  0  0  0  0  0  0
    0.2313   19.8750  -33.8642 H   0  0  0  0  0  0  0  0  0  0  0  0
   -0.1137   21.6378  -33.8642 H   0  0  0  0  0  0  0  0  0  0  0  0
   -3.2440   21.9590  -32.1360 C   0  0  0  0  0  0  0  0  0  0  0  0
   -2.1558   22.0775  -32.2441 H   0  0  0  0  0  0  0  0  0  0  0  0
   -3.9820   22.9190  -31.4240 C   0  0  0  0  0  0  0  0  0  0  0  0
   -3.3260   24.0590  -30.8450 N   0  0  0  0  0  0  0  0  0  0  0  0
   -2.7830   24.1440  -29.6620 C   0  0  0  0  0  0  0  0  0  0  0  0
   -2.1320   25.2930  -29.3330 N   0  0  0  0  0  0  0  0  0  0  0  0
   -1.5470   25.4760  -28.1200 C   0  0  0  0  0  0  0  0  0  0  0  0
   -0.8840   26.6710  -27.8340 C   0  0  0  0  0  0  0  0  0  0  0  0
   -0.8362   27.4661  -28.5927 H   0  0  0  0  0  0  0  0  0  0  0  0
   -0.2810   26.8610  -26.5880 C   0  0  0  0  0  0  0  0  0  0  0  0
    0.2391   27.8067  -26.3756 H   0  0  0  0  0  0  0  0  0  0  0  0
   -0.3300   25.8560  -25.5980 C   0  0  0  0  0  0  0  0  0  0  0  0
    0.2970   26.0570  -24.3050 N   0  0  0  0  0  0  0  0  0  0  0  0
   -0.4870   26.5340  -23.1600 C   0  0  0  0  0  0  0  0  0  0  0  0
    0.0084   26.2326  -22.2253 H   0  0  0  0  0  0  0  0  0  0  0  0
   -0.5617   27.6308  -23.1982 H   0  0  0  0  0  0  0  0  0  0  0  0
   -1.4954   26.0962  -23.1982 H   0  0  0  0  0  0  0  0  0  0  0  0
    1.7280   25.7850  -24.1190 C   0  0  0  0  0  0  0  0  0  0  0  0
    1.9563   25.7416  -23.0438 H   0  0  0  0  0  0  0  0  0  0  0  0
    1.9821   24.8225  -24.5869 H   0  0  0  0  0  0  0  0  0  0  0  0
    2.3176   26.5872  -24.5869 H   0  0  0  0  0  0  0  0  0  0  0  0
   -1.0050   24.6520  -25.8960 C   0  0  0  0  0  0  0  0  0  0  0  0
   -1.0573   23.8560  -25.1386 H   0  0  0  0  0  0  0  0  0  0  0  0
   -1.6090   24.4600  -27.1460 C   0  0  0  0  0  0  0  0  0  0  0  0
   -2.2880   23.2750  -27.4510 C   0  0  0  0  0  0  0  0  0  0  0  0
   -2.3537   22.4709  -26.7033 H   0  0  0  0  0  0  0  0  0  0  0  0
   -2.8820   23.1130  -28.7040 C   0  0  0  0  0  0  0  0  0  0  0  0
   -3.4244   22.1864  -28.9431 H   0  0  0  0  0  0  0  0  0  0  0  0
   -5.3850   22.7990  -31.3430 C   0  0  0  0  0  0  0  0  0  0  0  0
   -6.1730   23.7860  -30.6540 N   0  0  0  0  0  0  0  0  0  0  0  0
   -7.2240   23.3520  -29.7330 C   0  0  0  0  0  0  0  0  0  0  0  0
   -6.8840   23.4924  -28.6963 H   0  0  0  0  0  0  0  0  0  0  0  0
   -8.1318   23.9488  -29.9052 H   0  0  0  0  0  0  0  0  0  0  0  0
   -7.4462   22.2885  -29.9052 H   0  0  0  0  0  0  0  0  0  0  0  0
   -5.8690   25.2120  -30.7890 C   0  0  0  0  0  0  0  0  0  0  0  0
   -5.7729   25.6626  -29.7901 H   0  0  0  0  0  0  0  0  0  0  0  0
   -4.9244   25.3351  -31.3391 H   0  0  0  0  0  0  0  0  0  0  0  0
   -6.6812   25.7096  -31.3391 H   0  0  0  0  0  0  0  0  0  0  0  0
  1  2  1  0
  2  3  2  0
  3  4  1  0
  3  5  1  0
  5  6  1  0
  6  7  2  0
  6  8  2  0
  6  9  1  0
  9 10  1  0
 10 11  1  0
 10 12  1  0
 10 13  1  0
  5 14  2  0
 14 15  1  0
 14 16  1  0
 16 17  1  0
 17 18  2  0
 18 19  1  0
 19 20  1  0
 20 21  2  0
 21 22  1  0
 21 23  1  0
 23 24  1  0
 23 25  2  0
 25 26  1  0
 26 27  1  0
 27 28  1  0
 27 29  1  0
 27 30  1  0
 26 31  1  0
 31 32  1  0
 31 33  1  0
 31 34  1  0
 25 35  1  0
 35 36  1  0
 35 37  2  0
 37 38  1  0
 38 39  1  0
 38 40  2  0
 40 41  1  0
 16 42  2  0
 42 43  1  0
 43 44  1  0
 44 45  1  0
 44 46  1  0
 44 47  1  0
 43 48  1  0
 48 49  1  0
 48 50  1  0
 48 51  1  0
 42  2  1  0
 40 18  1  0
 37 20  1  0
M  CHG  2   9  -1  19  -1
M  END
>  <UniqueID>  (44) 
44

>  <SMILES>  (44) 
C[N-]S(=O)(=O)c1ccc(N(C)C)c(/N=c2\ccc3cc(N(C)C)ccc3[n-]2)c1

>  <Energy>  (44) 
67.80486523787287

>  <Genealogy>  (44) 
C[N-]S(=O)(=O)c1ccc(N(C)C)c(N=c2ccc3cc(N(C)C)ccc3[n-]2)c1 (protonated)
C[N-]S(=O)(=O)c1ccc(N(C)C)c(/N=c2\ccc3cc(N(C)C)ccc3[n-]2)c1 (cis-trans isomerization)
C[N-]S(=O)(=O)c1ccc(N(C)C)c(/N=c2\ccc3cc(N(C)C)ccc3[n-]2)c1 (3D coordinates assigned)
C[N-]S(=O)(=O)c1ccc(N(C)C)c(/N=c2\ccc3cc(N(C)C)ccc3[n-]2)c1 (optimized conformer: 67.80486523787287 kcal/mol)

>  <smiles>  (44) 
CNS(=O)(=O)c1ccc(N(C)C)c(N=c2ccc3cc(N(C)C)ccc3[nH]2)c1

>  <score_type>  (44) 
oracle

>  <origin>  (44) 
adgpu

>  <m_score__min__energy>  (44) 
-9.8100000000000005

>  <m_primary>  (44) 
energy

$$$$
44:0
     RDKit          3D

 47 49  0  0  0  0  0  0  0  0999 V2000
   -6.1760   17.3600  -31.5810 C   0  0  0  0  0  0  0  0  0  0  0  0
   -6.6910   17.4450  -33.0150 C   0  0  0  0  0  0  0  0  0  0  0  0
   -6.6850   18.8630  -33.5150 C   0  0  0  0  0  0  0  0  0  0  0  0
   -6.1350   19.1300  -34.6180 O   0  0  0  0  0  0  0  0  0  0  0  0
   -7.2630   19.9280  -32.7450 N   0  0  0  0  0  0  0  0  0  0  0  0
   -8.7030   20.0870  -32.5450 C   0  0  0  0  0  0  0  0  0  0  0  0
   -8.8910   21.4630  -31.8620 C   0  0  0  0  0  0  0  0  0  0  0  0
   -7.4950   21.9440  -31.6660 C   0  0  0  0  0  0  0  0  0  0  0  0
   -7.0750   23.1140  -31.0340 C   0  0  0  0  0  0  0  0  0  0  0  0
   -5.6930   23.3520  -30.9050 C   0  0  0  0  0  0  0  0  0  0  0  0
   -5.1110   24.8260  -30.1330 S   0  0  0  0  0  0  0  0  0  0  0  0
   -6.1550   25.8930  -30.2950 O   0  0  0  0  0  0  0  0  0  0  0  0
   -3.8440   25.2890  -30.7970 O   0  0  0  0  0  0  0  0  0  0  0  0
   -4.8060   24.5870  -28.4330 N   0  0  0  0  0  0  0  0  0  0  0  0
   -3.5150   23.9370  -28.1930 C   0  0  0  0  0  0  0  0  0  0  0  0
   -2.5580   24.8490  -27.4610 C   0  0  0  0  0  0  0  0  0  0  0  0
   -2.8850   25.2810  -26.1640 C   0  0  0  0  0  0  0  0  0  0  0  0
   -2.0300   26.1340  -25.4650 C   0  0  0  0  0  0  0  0  0  0  0  0
   -0.8370   26.5600  -26.0490 C   0  0  0  0  0  0  0  0  0  0  0  0
   -0.4930   26.1320  -27.3330 C   0  0  0  0  0  0  0  0  0  0  0  0
   -1.3450   25.2690  -28.0520 C   0  0  0  0  0  0  0  0  0  0  0  0
   -1.0180   24.8170  -29.3410 O   0  0  0  0  0  0  0  0  0  0  0  0
   -0.8260   23.4520  -29.6960 C   0  0  0  0  0  0  0  0  0  0  0  0
   -4.7700   22.3950  -31.3780 C   0  0  0  0  0  0  0  0  0  0  0  0
   -5.2210   21.2270  -32.0110 C   0  0  0  0  0  0  0  0  0  0  0  0
   -6.5980   21.0440  -32.1730 C   0  0  0  0  0  0  0  0  0  0  0  0
   -7.0138   17.4983  -30.8817 H   0  0  0  0  0  0  0  0  0  0  0  0
   -5.7178   16.3741  -31.4138 H   0  0  0  0  0  0  0  0  0  0  0  0
   -5.4252   18.1464  -31.4138 H   0  0  0  0  0  0  0  0  0  0  0  0
   -6.0466   16.8336  -33.6639 H   0  0  0  0  0  0  0  0  0  0  0  0
   -7.7266   17.0747  -33.0343 H   0  0  0  0  0  0  0  0  0  0  0  0
   -9.2275   20.0656  -33.5116 H   0  0  0  0  0  0  0  0  0  0  0  0
   -9.1161   19.2733  -31.9309 H   0  0  0  0  0  0  0  0  0  0  0  0
   -9.4568   22.1496  -32.5088 H   0  0  0  0  0  0  0  0  0  0  0  0
   -9.4604   21.4023  -30.9228 H   0  0  0  0  0  0  0  0  0  0  0  0
   -7.8079   23.8359  -30.6444 H   0  0  0  0  0  0  0  0  0  0  0  0
   -3.6781   23.0324  -27.5888 H   0  0  0  0  0  0  0  0  0  0  0  0
   -3.0713   23.6852  -29.1675 H   0  0  0  0  0  0  0  0  0  0  0  0
   -3.8220   24.9441  -25.6965 H   0  0  0  0  0  0  0  0  0  0  0  0
   -2.2971   26.4708  -24.4525 H   0  0  0  0  0  0  0  0  0  0  0  0
   -0.1658   27.2344  -25.4970 H   0  0  0  0  0  0  0  0  0  0  0  0
    0.4500   26.4708  -27.7869 H   0  0  0  0  0  0  0  0  0  0  0  0
   -0.7405   22.8443  -28.7831 H   0  0  0  0  0  0  0  0  0  0  0  0
   -1.6839   23.1033  -30.2896 H   0  0  0  0  0  0  0  0  0  0  0  0
    0.0948   23.3535  -30.2896 H   0  0  0  0  0  0  0  0  0  0  0  0
   -3.6909   22.5658  -31.2497 H   0  0  0  0  0  0  0  0  0  0  0  0
   -4.5073   20.4718  -32.3719 H   0  0  0  0  0  0  0  0  0  0  0  0
  1  2  1  0
  2  3  1  0
  3  4  2  0
  3  5  1  0
  5  6  1  0
  6  7  1  0
  7  8  1  0
  8  9  2  0
  9 10  1  0
 10 11  1  0
 11 12  2  0
 11 13  2  0
 11 14  1  0
 14 15  1  0
 15 16  1  0
 16 17  2  0
 17 18  1  0
 18 19  2  0
 19 20  1  0
 20 21  2  0
 21 22  1  0
 22 23  1  0
 10 24  2  0
 24 25  1  0
 25 26  2  0
 26  5  1  0
 26  8  1  0
 21 16  1  0
  1 27  1  0
  1 28  1  0
  1 29  1  0
  2 30  1  0
  2 31  1  0
  6 32  1  0
  6 33  1  0
  7 34  1  0
  7 35  1  0
  9 36  1  0
 15 37  1  0
 15 38  1  0
 17 39  1  0
 18 40  1  0
 19 41  1  0
 20 42  1  0
 23 43  1  0
 23 44  1  0
 23 45  1  0
 24 46  1  0
 25 47  1  0
M  CHG  1  14  -1
M  END
>  <UniqueID>  (45) 
45

>  <SMILES>  (45) 
CCC(=O)N1CCc2cc(S(=O)(=O)[N-]Cc3ccccc3OC)ccc21

>  <Energy>  (45) 
60.333927783447464

>  <Genealogy>  (45) 
CCC(=O)N1CCc2cc(S(=O)(=O)[N-]Cc3ccccc3OC)ccc21 (protonated)
CCC(=O)N1CCc2cc(S(=O)(=O)[N-]Cc3ccccc3OC)ccc21 (3D coordinates assigned)
CCC(=O)N1CCc2cc(S(=O)(=O)[N-]Cc3ccccc3OC)ccc21 (nonaromatic ring conformer: 60.333927783447464 kcal/mol)

>  <smiles>  (45) 
CCC(=O)N1CCc2cc(S(=O)(=O)NCc3ccccc3OC)ccc21

>  <score_type>  (45) 
oracle

>  <origin>  (45) 
adgpu

>  <m_score__min__energy>  (45) 
-10.619999999999999

>  <m_primary>  (45) 
energy

$$$$
45:0
     RDKit          3D

 61 64  0  0  0  0  0  0  0  0999 V2000
   -3.1350   20.0660  -27.1390 C   0  0  0  0  0  0  0  0  0  0  0  0
   -3.0920   21.3160  -27.9700 C   0  0  0  0  0  0  0  0  0  0  0  0
   -3.8850   22.4160  -27.6230 C   0  0  0  0  0  0  0  0  0  0  0  0
   -3.8760   23.5650  -28.4140 C   0  0  0  0  0  0  0  0  0  0  0  0
   -3.0890   23.6310  -29.5680 C   0  0  0  0  0  0  0  0  0  0  0  0
   -3.1110   24.8180  -30.3060 O   0  0  0  0  0  0  0  0  0  0  0  0
   -2.3030   22.5150  -29.9470 C   0  0  0  0  0  0  0  0  0  0  0  0
   -1.4820   22.5060  -31.2150 C   0  0  0  0  0  0  0  0  0  0  0  0
   -1.5010   21.1780  -31.8330 N   0  0  0  0  0  0  0  0  0  0  0  0
   -0.6080   20.2380  -31.5550 N   0  0  0  0  0  0  0  0  0  0  0  0
   -0.8900   19.1580  -32.3110 C   0  0  0  0  0  0  0  0  0  0  0  0
   -0.1200   17.8780  -32.2260 C   0  0  0  0  0  0  0  0  0  0  0  0
   -1.9850   19.4420  -33.1120 C   0  0  0  0  0  0  0  0  0  0  0  0
   -2.6700   18.5830  -34.0330 N   0  0  0  0  0  0  0  0  0  0  0  0
   -3.9540   17.9890  -33.8140 C   0  0  0  0  0  0  0  0  0  0  0  0
   -4.1430   16.7770  -34.1050 O   0  0  0  0  0  0  0  0  0  0  0  0
   -5.0740   18.8080  -33.2950 C   0  0  0  0  0  0  0  0  0  0  0  0
   -5.3320   18.8720  -31.9140 C   0  0  0  0  0  0  0  0  0  0  0  0
   -6.3860   19.6490  -31.4240 C   0  0  0  0  0  0  0  0  0  0  0  0
   -7.1960   20.3770  -32.3060 C   0  0  0  0  0  0  0  0  0  0  0  0
   -8.5440   21.3370  -31.6980 S   0  0  0  0  0  0  0  0  0  0  0  0
   -9.6950   21.2700  -32.6640 O   0  0  0  0  0  0  0  0  0  0  0  0
   -8.9900   20.7650  -30.3820 O   0  0  0  0  0  0  0  0  0  0  0  0
   -8.0410   22.9960  -31.4760 N   0  0  0  0  0  0  0  0  0  0  0  0
   -7.2950   23.1310  -30.2100 C   0  0  0  0  0  0  0  0  0  0  0  0
   -6.4320   24.4030  -30.2250 C   0  0  0  0  0  0  0  0  0  0  0  0
   -5.4690   24.4440  -31.2710 O   0  0  0  0  0  0  0  0  0  0  0  0
   -5.7730   23.5880  -32.3620 C   0  0  0  0  0  0  0  0  0  0  0  0
   -7.2820   23.4840  -32.6490 C   0  0  0  0  0  0  0  0  0  0  0  0
   -6.9500   20.3130  -33.6810 C   0  0  0  0  0  0  0  0  0  0  0  0
   -5.8960   19.5380  -34.1740 C   0  0  0  0  0  0  0  0  0  0  0  0
   -2.3740   20.7150  -32.7580 C   0  0  0  0  0  0  0  0  0  0  0  0
   -3.5020   21.4930  -33.3660 C   0  0  0  0  0  0  0  0  0  0  0  0
   -2.3160   21.3650  -29.1360 C   0  0  0  0  0  0  0  0  0  0  0  0
   -3.1258   20.3344  -26.0723 H   0  0  0  0  0  0  0  0  0  0  0  0
   -4.0530   19.5049  -27.3680 H   0  0  0  0  0  0  0  0  0  0  0  0
   -2.2578   19.4431  -27.3680 H   0  0  0  0  0  0  0  0  0  0  0  0
   -4.5172   22.3743  -26.7238 H   0  0  0  0  0  0  0  0  0  0  0  0
   -4.4945   24.4282  -28.1270 H   0  0  0  0  0  0  0  0  0  0  0  0
   -3.5330   24.8980  -31.2210 H   0  0  0  0  0  0  0  0  0  0  0  0
   -1.8994   23.2391  -31.9209 H   0  0  0  0  0  0  0  0  0  0  0  0
   -0.4426   22.7660  -30.9659 H   0  0  0  0  0  0  0  0  0  0  0  0
    0.0383   17.6148  -31.1698 H   0  0  0  0  0  0  0  0  0  0  0  0
   -0.6857   17.0761  -32.7229 H   0  0  0  0  0  0  0  0  0  0  0  0
    0.8535   18.0020  -32.7229 H   0  0  0  0  0  0  0  0  0  0  0  0
   -4.6996   18.3063  -31.2139 H   0  0  0  0  0  0  0  0  0  0  0  0
   -6.5802   19.6891  -30.3420 H   0  0  0  0  0  0  0  0  0  0  0  0
   -8.0080   23.1874  -29.3743 H   0  0  0  0  0  0  0  0  0  0  0  0
   -6.6376   22.2572  -30.0902 H   0  0  0  0  0  0  0  0  0  0  0  0
   -7.0989   25.2706  -30.3364 H   0  0  0  0  0  0  0  0  0  0  0  0
   -5.8707   24.4143  -29.2791 H   0  0  0  0  0  0  0  0  0  0  0  0
   -5.2720   23.9762  -33.2611 H   0  0  0  0  0  0  0  0  0  0  0  0
   -5.4208   22.5807  -32.0952 H   0  0  0  0  0  0  0  0  0  0  0  0
   -7.6594   24.4793  -32.9263 H   0  0  0  0  0  0  0  0  0  0  0  0
   -7.4216   22.7613  -33.4665 H   0  0  0  0  0  0  0  0  0  0  0  0
   -7.5888   20.8751  -34.3781 H   0  0  0  0  0  0  0  0  0  0  0  0
   -5.7077   19.4984  -35.2570 H   0  0  0  0  0  0  0  0  0  0  0  0
   -4.1241   21.9221  -32.5667 H   0  0  0  0  0  0  0  0  0  0  0  0
   -3.0948   22.3032  -33.9887 H   0  0  0  0  0  0  0  0  0  0  0  0
   -4.1147   20.8245  -33.9887 H   0  0  0  0  0  0  0  0  0  0  0  0
   -1.7091   20.4930  -29.4210 H   0  0  0  0  0  0  0  0  0  0  0  0
  1  2  1  0
  2  3  2  0
  3  4  1  0
  4  5  2  0
  5  6  1  0
  5  7  1  0
  7  8  1  0
  8  9  1  0
  9 10  1  0
 10 11  2  0
 11 12  1  0
 11 13  1  0
 13 14  1  0
 14 15  1  0
 15 16  2  0
 15 17  1  0
 17 18  2  0
 18 19  1  0
 19 20  2  0
 20 21  1  0
 21 22  2  0
 21 23  2  0
 21 24  1  0
 24 25  1  0
 25 26  1  0
 26 27  1  0
 27 28  1  0
 28 29  1  0
 20 30  1  0
 30 31  2  0
 13 32  2  0
 32 33  1  0
  7 34  2  0
 34  2  1  0
 32  9  1  0
 31 17  1  0
 29 24  1  0
  1 35  1  0
  1 36  1  0
  1 37  1  0
  3 38  1  0
  4 39  1  0
  6 40  1  0
  8 41  1  0
  8 42  1  0
 12 43  1  0
 12 44  1  0
 12 45  1  0
 18 46  1  0
 19 47  1  0
 25 48  1  0
 25 49  1  0
 26 50  1  0
 26 51  1  0
 28 52  1  0
 28 53  1  0
 29 54  1  0
 29 55  1  0
 30 56  1  0
 31 57  1  0
 33 58  1  0
 33 59  1  0
 33 60  1  0
 34 61  1  0
M  CHG  1  14  -1
M  END
>  <UniqueID>  (46) 
46

>  <SMILES>  (46) 
Cc1ccc(O)c(Cn2nc(C)c([N-]C(=O)c3ccc(S(=O)(=O)N4CCOCC4)cc3)c2C)c1

>  <Energy>  (46) 
110.50665123364992

>  <Genealogy>  (46) 
Cc1ccc(O)c(Cn2nc(C)c([N-]C(=O)c3ccc(S(=O)(=O)N4CCOCC4)cc3)c2C)c1 (protonated)
Cc1ccc(O)c(Cn2nc(C)c([N-]C(=O)c3ccc(S(=O)(=O)N4CCOCC4)cc3)c2C)c1 (3D coordinates assigned)
Cc1ccc(O)c(Cn2nc(C)c([N-]C(=O)c3ccc(S(=O)(=O)N4CCOCC4)cc3)c2C)c1 (nonaromatic ring conformer: 110.50665123364992 kcal/mol)

>  <smiles>  (46) 
Cc1ccc(O)c(Cn2nc(C)c(NC(=O)c3ccc(S(=O)(=O)N4CCOCC4)cc3)c2C)c1

>  <score_type>  (46) 
oracle

>  <origin>  (46) 
adgpu

>  <m_score__min__energy>  (46) 
-11.69

>  <m_primary>  (46) 
energy

$$$$
46:0
     RDKit          3D

 41 44  0  0  0  0  0  0  0  0999 V2000
   -5.8070   19.0120  -34.8270 O   0  0  0  0  0  0  0  0  0  0  0  0
   -6.1700   19.6120  -33.7820 C   0  0  0  0  0  0  0  0  0  0  0  0
   -7.1450   18.9610  -32.8420 C   0  0  0  0  0  0  0  0  0  0  0  0
   -7.8000   19.9230  -32.0100 O   0  0  0  0  0  0  0  0  0  0  0  0
   -7.2050   21.1300  -31.6270 C   0  0  0  0  0  0  0  0  0  0  0  0
   -7.7370   21.8640  -30.5630 C   0  0  0  0  0  0  0  0  0  0  0  0
   -7.1450   23.0720  -30.1800 C   0  0  0  0  0  0  0  0  0  0  0  0
   -6.0240   23.5580  -30.8680 C   0  0  0  0  0  0  0  0  0  0  0  0
   -5.2770   25.0670  -30.3550 S   0  0  0  0  0  0  0  0  0  0  0  0
   -5.6770   25.3500  -28.9360 O   0  0  0  0  0  0  0  0  0  0  0  0
   -5.7210   26.2110  -31.2240 O   0  0  0  0  0  0  0  0  0  0  0  0
   -3.5510   24.9240  -30.4430 N   0  0  0  0  0  0  0  0  0  0  0  0
   -2.7370   24.1490  -29.5490 C   0  0  0  0  0  0  0  0  0  0  0  0
   -3.0700   22.8280  -29.1980 C   0  0  0  0  0  0  0  0  0  0  0  0
   -2.2660   22.1000  -28.3090 C   0  0  0  0  0  0  0  0  0  0  0  0
   -1.0890   22.6820  -27.7980 C   0  0  0  0  0  0  0  0  0  0  0  0
   -0.7640   24.0020  -28.1420 C   0  0  0  0  0  0  0  0  0  0  0  0
   -1.5790   24.7280  -29.0150 C   0  0  0  0  0  0  0  0  0  0  0  0
   -1.2340   26.0330  -29.3480 O   0  0  0  0  0  0  0  0  0  0  0  0
   -0.2280   21.9360  -26.8060 C   0  0  0  0  0  0  0  0  0  0  0  0
   -0.4240   20.4810  -26.8790 N   0  0  0  0  0  0  0  0  0  0  0  0
   -1.8490   20.1450  -26.7780 C   0  0  0  0  0  0  0  0  0  0  0  0
   -2.6250   20.6720  -27.9910 C   0  0  0  0  0  0  0  0  0  0  0  0
   -5.5020   22.8300  -31.9470 C   0  0  0  0  0  0  0  0  0  0  0  0
   -6.0900   21.6150  -32.3250 C   0  0  0  0  0  0  0  0  0  0  0  0
   -5.5920   20.8770  -33.4450 N   0  0  0  0  0  0  0  0  0  0  0  0
   -7.9031   18.4236  -33.4306 H   0  0  0  0  0  0  0  0  0  0  0  0
   -6.5869   18.2698  -32.1934 H   0  0  0  0  0  0  0  0  0  0  0  0
   -8.6220   21.4913  -30.0264 H   0  0  0  0  0  0  0  0  0  0  0  0
   -7.5602   23.6427  -29.3362 H   0  0  0  0  0  0  0  0  0  0  0  0
   -3.9700   22.3615  -29.6251 H   0  0  0  0  0  0  0  0  0  0  0  0
    0.1388   24.4694  -27.7218 H   0  0  0  0  0  0  0  0  0  0  0  0
    0.8282   22.1614  -27.0149 H   0  0  0  0  0  0  0  0  0  0  0  0
   -0.5173   22.2638  -25.7966 H   0  0  0  0  0  0  0  0  0  0  0  0
   -0.0550   20.1360  -27.7960 H   0  0  0  0  0  0  0  0  0  0  0  0
   -1.9582   19.0516  -26.7285 H   0  0  0  0  0  0  0  0  0  0  0  0
   -2.2563   20.6144  -25.8704 H   0  0  0  0  0  0  0  0  0  0  0  0
   -2.3915   20.0437  -28.8632 H   0  0  0  0  0  0  0  0  0  0  0  0
   -3.6981   20.6349  -27.7522 H   0  0  0  0  0  0  0  0  0  0  0  0
   -4.6300   23.2129  -32.4974 H   0  0  0  0  0  0  0  0  0  0  0  0
   -4.8220   21.2660  -34.0350 H   0  0  0  0  0  0  0  0  0  0  0  0
  1  2  2  0
  2  3  1  0
  3  4  1  0
  4  5  1  0
  5  6  2  0
  6  7  1  0
  7  8  2  0
  8  9  1  0
  9 10  2  0
  9 11  2  0
  9 12  1  0
 12 13  1  0
 13 14  2  0
 14 15  1  0
 15 16  2  0
 16 17  1  0
 17 18  2  0
 18 19  1  0
 16 20  1  0
 20 21  1  0
 21 22  1  0
 22 23  1  0
  8 24  1  0
 24 25  2  0
 25 26  1  0
 26  2  1  0
 25  5  1  0
 18 13  1  0
 23 15  1  0
  3 27  1  0
  3 28  1  0
  6 29  1  0
  7 30  1  0
 14 31  1  0
 17 32  1  0
 20 33  1  0
 20 34  1  0
 21 35  1  0
 22 36  1  0
 22 37  1  0
 23 38  1  0
 23 39  1  0
 24 40  1  0
 26 41  1  0
M  CHG  2  12  -1  19  -1
M  END
>  <UniqueID>  (47) 
47

>  <SMILES>  (47) 
O=C1COc2ccc(S(=O)(=O)[N-]c3cc4c(cc3[O-])CNCC4)cc2N1

>  <Energy>  (47) 
50.67944154936335

>  <Genealogy>  (47) 
O=C1COc2ccc(S(=O)(=O)[N-]c3cc4c(cc3[O-])CNCC4)cc2N1 (protonated)
O=C1COc2ccc(S(=O)(=O)[N-]c3cc4c(cc3[O-])CNCC4)cc2N1 (3D coordinates assigned)
O=C1COc2ccc(S(=O)(=O)[N-]c3cc4c(cc3[O-])CNCC4)cc2N1 (nonaromatic ring conformer: 50.67944154936335 kcal/mol)

>  <smiles>  (47) 
O=C1COc2ccc(S(=O)(=O)Nc3cc4c(cc3O)CNCC4)cc2N1

>  <score_type>  (47) 
oracle

>  <origin>  (47) 
adgpu

>  <m_score__min__energy>  (47) 
-13.789999999999999

>  <m_primary>  (47) 
energy

$$$$
47:0
     RDKit          3D

 35 37  0  0  0  0  0  0  0  0999 V2000
   -4.7750   24.8920  -27.6650 N   0  0  0  0  0  0  0  0  0  0  0  0
   -4.0780   24.3330  -28.7490 N   0  0  0  0  0  0  0  0  0  0  0  0
   -4.4930   24.2530  -30.0250 C   0  0  0  0  0  0  0  0  0  0  0  0
   -6.1420   24.6630  -30.5990 S   0  0  0  0  0  0  0  0  0  0  0  0
   -6.0440   23.6220  -32.1010 C   0  0  0  0  0  0  0  0  0  0  0  0
   -7.0980   22.5400  -32.0810 C   0  0  0  0  0  0  0  0  0  0  0  0
   -8.4070   22.8910  -31.7080 C   0  0  0  0  0  0  0  0  0  0  0  0
   -9.4060   21.9230  -31.6200 C   0  0  0  0  0  0  0  0  0  0  0  0
   -9.1140   20.5890  -31.9030 C   0  0  0  0  0  0  0  0  0  0  0  0
   -7.8220   20.2160  -32.2830 C   0  0  0  0  0  0  0  0  0  0  0  0
   -7.5070   18.5200  -32.6280 Cl  0  0  0  0  0  0  0  0  0  0  0  0
   -6.8050   21.1860  -32.3790 C   0  0  0  0  0  0  0  0  0  0  0  0
   -5.1830   20.6830  -32.8690 Cl  0  0  0  0  0  0  0  0  0  0  0  0
   -3.5080   23.8130  -30.8290 N   0  0  0  0  0  0  0  0  0  0  0  0
   -2.4460   23.6030  -30.0610 N   0  0  0  0  0  0  0  0  0  0  0  0
   -2.7990   23.9150  -28.7970 C   0  0  0  0  0  0  0  0  0  0  0  0
   -1.8990   23.7460  -27.6380 C   0  0  0  0  0  0  0  0  0  0  0  0
   -1.4600   22.4630  -27.2770 C   0  0  0  0  0  0  0  0  0  0  0  0
   -0.6330   22.2870  -26.1620 C   0  0  0  0  0  0  0  0  0  0  0  0
   -0.2510   23.3910  -25.3880 C   0  0  0  0  0  0  0  0  0  0  0  0
    0.5710   23.2280  -24.2760 O   0  0  0  0  0  0  0  0  0  0  0  0
   -0.7060   24.6680  -25.7310 C   0  0  0  0  0  0  0  0  0  0  0  0
   -1.5310   24.8460  -26.8450 C   0  0  0  0  0  0  0  0  0  0  0  0
   -5.7300   24.5570  -27.4080 H   0  0  0  0  0  0  0  0  0  0  0  0
   -4.3150   25.5880  -27.0390 H   0  0  0  0  0  0  0  0  0  0  0  0
   -6.1955   24.2551  -32.9877 H   0  0  0  0  0  0  0  0  0  0  0  0
   -5.0533   23.1449  -32.1321 H   0  0  0  0  0  0  0  0  0  0  0  0
   -8.6456   23.9410  -31.4831 H   0  0  0  0  0  0  0  0  0  0  0  0
  -10.4262   22.2117  -31.3269 H   0  0  0  0  0  0  0  0  0  0  0  0
   -9.9039   19.8273  -31.8268 H   0  0  0  0  0  0  0  0  0  0  0  0
   -1.7675   21.5914  -27.8734 H   0  0  0  0  0  0  0  0  0  0  0  0
   -0.2820   21.2799  -25.8925 H   0  0  0  0  0  0  0  0  0  0  0  0
    0.4770   23.8170  -23.4570 H   0  0  0  0  0  0  0  0  0  0  0  0
   -0.4135   25.5358  -25.1217 H   0  0  0  0  0  0  0  0  0  0  0  0
   -1.8940   25.8520  -27.1022 H   0  0  0  0  0  0  0  0  0  0  0  0
  1  2  1  0
  2  3  1  0
  3  4  1  0
  4  5  1  0
  5  6  1  0
  6  7  2  0
  7  8  1  0
  8  9  2  0
  9 10  1  0
 10 11  1  0
 10 12  2  0
 12 13  1  0
  3 14  2  0
 14 15  1  0
 15 16  2  0
 16 17  1  0
 17 18  2  0
 18 19  1  0
 19 20  2  0
 20 21  1  0
 20 22  1  0
 22 23  2  0
 16  2  1  0
 23 17  1  0
 12  6  1  0
  1 24  1  0
  1 25  1  0
  5 26  1  0
  5 27  1  0
  7 28  1  0
  8 29  1  0
  9 30  1  0
 18 31  1  0
 19 32  1  0
 21 33  1  0
 22 34  1  0
 23 35  1  0
M  END
>  <UniqueID>  (48) 
48

>  <SMILES>  (48) 
Nn1c(SCc2cccc(Cl)c2Cl)nnc1-c1ccc(O)cc1

>  <Energy>  (48) 
73.7803992197305

>  <Genealogy>  (48) 
Nn1c(SCc2cccc(Cl)c2Cl)nnc1-c1ccc(O)cc1 (3D coordinates assigned)
Nn1c(SCc2cccc(Cl)c2Cl)nnc1-c1ccc(O)cc1 (optimized conformer: 73.7803992197305 kcal/mol)

>  <smiles>  (48) 
Nn1c(SCc2cccc(Cl)c2Cl)nnc1-c1ccc(O)cc1

>  <score_type>  (48) 
oracle

>  <origin>  (48) 
adgpu

>  <m_score__min__energy>  (48) 
-9.1699999999999999

>  <m_primary>  (48) 
energy

$$$$
48:0
     RDKit          3D

 41 44  0  0  0  0  0  0  0  0999 V2000
   -0.7440   27.8070  -27.1040 O   0  0  0  0  0  0  0  0  0  0  0  0
   -1.1060   26.3500  -27.1500 S   0  0  0  0  0  0  0  0  0  0  0  0
   -2.3180   26.1170  -26.2910 O   0  0  0  0  0  0  0  0  0  0  0  0
   -1.4640   25.9110  -28.7900 N   0  0  0  0  0  0  0  0  0  0  0  0
   -1.9850   24.6580  -29.2600 C   0  0  0  0  0  0  0  0  0  0  0  0
   -1.2740   23.4980  -28.9330 C   0  0  0  0  0  0  0  0  0  0  0  0
   -1.7200   22.2400  -29.3470 C   0  0  0  0  0  0  0  0  0  0  0  0
   -0.9840   21.1130  -28.9960 O   0  0  0  0  0  0  0  0  0  0  0  0
   -2.8890   22.1180  -30.1180 C   0  0  0  0  0  0  0  0  0  0  0  0
   -3.3330   20.8150  -30.5490 N   0  0  0  0  0  0  0  0  0  0  0  0
   -3.5540   20.4400  -31.9470 C   0  0  0  0  0  0  0  0  0  0  0  0
   -5.0270   20.2970  -32.2300 C   0  0  0  0  0  0  0  0  0  0  0  0
   -5.4920   19.2950  -33.1220 C   0  0  0  0  0  0  0  0  0  0  0  0
   -6.8690   19.1540  -33.3820 C   0  0  0  0  0  0  0  0  0  0  0  0
   -7.7430   20.0270  -32.7410 C   0  0  0  0  0  0  0  0  0  0  0  0
   -7.3030   20.9920  -31.8950 C   0  0  0  0  0  0  0  0  0  0  0  0
   -5.9530   21.1680  -31.6140 C   0  0  0  0  0  0  0  0  0  0  0  0
   -8.3840   21.7040  -31.4090 O   0  0  0  0  0  0  0  0  0  0  0  0
   -9.5760   21.1480  -31.9840 C   0  0  0  0  0  0  0  0  0  0  0  0
   -9.1200   20.0820  -32.8290 O   0  0  0  0  0  0  0  0  0  0  0  0
   -3.6000   23.2840  -30.4560 C   0  0  0  0  0  0  0  0  0  0  0  0
   -3.1530   24.5440  -30.0440 C   0  0  0  0  0  0  0  0  0  0  0  0
   -3.8700   25.6620  -30.4490 O   0  0  0  0  0  0  0  0  0  0  0  0
    0.2570   25.4190  -26.5600 C   0  0  0  0  0  0  0  0  0  0  0  0
    1.2920   24.9180  -27.3360 C   0  0  0  0  0  0  0  0  0  0  0  0
    2.2470   24.2220  -26.5880 C   0  0  0  0  0  0  0  0  0  0  0  0
    1.9670   24.1820  -25.2280 C   0  0  0  0  0  0  0  0  0  0  0  0
    0.5260   25.0090  -24.9540 S   0  0  0  0  0  0  0  0  0  0  0  0
   -0.3502   23.5775  -28.3412 H   0  0  0  0  0  0  0  0  0  0  0  0
   -3.4410   20.0580  -29.8370 H   0  0  0  0  0  0  0  0  0  0  0  0
   -3.1339   21.2183  -32.6010 H   0  0  0  0  0  0  0  0  0  0  0  0
   -3.0604   19.4758  -32.1383 H   0  0  0  0  0  0  0  0  0  0  0  0
   -4.7718   18.6242  -33.6134 H   0  0  0  0  0  0  0  0  0  0  0  0
   -7.2413   18.3796  -34.0688 H   0  0  0  0  0  0  0  0  0  0  0  0
   -5.6157   21.9623  -30.9319 H   0  0  0  0  0  0  0  0  0  0  0  0
  -10.2400   20.7604  -31.1973 H   0  0  0  0  0  0  0  0  0  0  0  0
  -10.1537   21.8991  -32.5427 H   0  0  0  0  0  0  0  0  0  0  0  0
   -4.5206   23.2038  -31.0528 H   0  0  0  0  0  0  0  0  0  0  0  0
    1.3550   25.0539  -28.4257 H   0  0  0  0  0  0  0  0  0  0  0  0
    3.1353   23.7511  -27.0342 H   0  0  0  0  0  0  0  0  0  0  0  0
    2.5830   23.6924  -24.4593 H   0  0  0  0  0  0  0  0  0  0  0  0
  1  2  2  0
  2  3  2  0
  2  4  1  0
  4  5  1  0
  5  6  2  0
  6  7  1  0
  7  8  1  0
  7  9  2  0
  9 10  1  0
 10 11  1  0
 11 12  1  0
 12 13  2  0
 13 14  1  0
 14 15  2  0
 15 16  1  0
 16 17  2  0
 16 18  1  0
 18 19  1  0
 19 20  1  0
  9 21  1  0
 21 22  2  0
 22 23  1  0
  2 24  1  0
 24 25  2  0
 25 26  1  0
 26 27  2  0
 27 28  1  0
 22  5  1  0
 28 24  1  0
 17 12  1  0
 20 15  1  0
  6 29  1  0
 10 30  1  0
 11 31  1  0
 11 32  1  0
 13 33  1  0
 14 34  1  0
 17 35  1  0
 19 36  1  0
 19 37  1  0
 21 38  1  0
 25 39  1  0
 26 40  1  0
 27 41  1  0
M  CHG  3   4  -1   8  -1  23  -1
M  END
>  <UniqueID>  (49) 
49

>  <SMILES>  (49) 
O=S(=O)([N-]c1cc([O-])c(NCc2ccc3c(c2)OCO3)cc1[O-])c1cccs1

>  <Energy>  (49) 
105.64703851289278

>  <Genealogy>  (49) 
O=S(=O)([N-]c1cc([O-])c(NCc2ccc3c(c2)OCO3)cc1[O-])c1cccs1 (protonated)
O=S(=O)([N-]c1cc([O-])c(NCc2ccc3c(c2)OCO3)cc1[O-])c1cccs1 (3D coordinates assigned)
O=S(=O)([N-]c1cc([O-])c(NCc2ccc3c(c2)OCO3)cc1[O-])c1cccs1 (nonaromatic ring conformer: 105.64703851289278 kcal/mol)

>  <smiles>  (49) 
O=S(=O)(Nc1cc(O)c(NCc2ccc3c(c2)OCO3)cc1O)c1cccs1

>  <score_type>  (49) 
oracle

>  <origin>  (49) 
adgpu

>  <m_score__min__energy>  (49) 
-12.140000000000001

>  <m_primary>  (49) 
energy

$$$$
