0:0
     RDKit          3D

 57 60  0  0  0  0  0  0  0  0999 V2000
    4.0150   26.8400  -22.4560 C   0  0  0  0  0  0  0  0  0  0  0  0
    3.3720   27.2470  -23.7150 N   0  0  0  0  0  0  0  0  0  0  0  0
    3.8710   26.4200  -24.8380 C   0  0  0  0  0  0  0  0  0  0  0  0
    2.9010   26.4480  -26.0290 C   0  0  0  0  0  0  0  0  0  0  0  0
    1.5560   25.9400  -25.6720 N   0  0  0  0  0  0  0  0  0  0  0  0
    1.3050   24.3130  -26.2640 S   0  0  0  0  0  0  0  0  0  0  0  0
    2.5820   23.7920  -26.8620 O   0  0  0  0  0  0  0  0  0  0  0  0
    0.9320   23.4190  -25.1120 O   0  0  0  0  0  0  0  0  0  0  0  0
    0.0270   24.2580  -27.4810 C   0  0  0  0  0  0  0  0  0  0  0  0
   -0.1460   23.1140  -28.2740 C   0  0  0  0  0  0  0  0  0  0  0  0
   -1.1810   23.0570  -29.2100 C   0  0  0  0  0  0  0  0  0  0  0  0
   -2.0640   24.1350  -29.3610 C   0  0  0  0  0  0  0  0  0  0  0  0
   -3.1190   24.0510  -30.3350 N   0  0  0  0  0  0  0  0  0  0  0  0
   -4.4560   24.5200  -30.1120 C   0  0  0  0  0  0  0  0  0  0  0  0
   -4.8130   24.9260  -28.9720 O   0  0  0  0  0  0  0  0  0  0  0  0
   -5.3850   24.5280  -31.2010 N   0  0  0  0  0  0  0  0  0  0  0  0
   -6.1850   23.4100  -31.6100 C   0  0  0  0  0  0  0  0  0  0  0  0
   -7.5690   23.4860  -31.4470 C   0  0  0  0  0  0  0  0  0  0  0  0
   -8.3820   22.4160  -31.8080 C   0  0  0  0  0  0  0  0  0  0  0  0
   -7.8280   21.2590  -32.3640 C   0  0  0  0  0  0  0  0  0  0  0  0
   -8.9210   19.9230  -32.7160 Cl  0  0  0  0  0  0  0  0  0  0  0  0
   -6.4340   21.1820  -32.5940 C   0  0  0  0  0  0  0  0  0  0  0  0
   -5.7110   19.7280  -33.3290 S   0  0  0  0  0  0  0  0  0  0  0  0
   -6.4690   19.3690  -34.5750 O   0  0  0  0  0  0  0  0  0  0  0  0
   -4.2900   20.0060  -33.7350 O   0  0  0  0  0  0  0  0  0  0  0  0
   -5.7080   18.3070  -32.2310 C   0  0  0  0  0  0  0  0  0  0  0  0
   -5.5200   16.9390  -32.8670 C   0  0  0  0  0  0  0  0  0  0  0  0
   -6.9010   17.3850  -32.4210 C   0  0  0  0  0  0  0  0  0  0  0  0
   -5.6160   22.2710  -32.2150 C   0  0  0  0  0  0  0  0  0  0  0  0
   -4.2470   22.2350  -32.4560 O   0  0  0  0  0  0  0  0  0  0  0  0
   -1.8650   25.2950  -28.5930 C   0  0  0  0  0  0  0  0  0  0  0  0
   -0.8290   25.3530  -27.6570 C   0  0  0  0  0  0  0  0  0  0  0  0
    1.2510   26.0140  -24.2290 C   0  0  0  0  0  0  0  0  0  0  0  0
    1.8930   27.2530  -23.5890 C   0  0  0  0  0  0  0  0  0  0  0  0
    3.4253   27.2133  -21.6057 H   0  0  0  0  0  0  0  0  0  0  0  0
    4.0699   25.7423  -22.4104 H   0  0  0  0  0  0  0  0  0  0  0  0
    5.0306   27.2601  -22.4104 H   0  0  0  0  0  0  0  0  0  0  0  0
    4.8475   26.8088  -25.1625 H   0  0  0  0  0  0  0  0  0  0  0  0
    3.9610   25.3807  -24.4892 H   0  0  0  0  0  0  0  0  0  0  0  0
    2.8048   27.4853  -26.3823 H   0  0  0  0  0  0  0  0  0  0  0  0
    3.3109   25.7928  -26.8117 H   0  0  0  0  0  0  0  0  0  0  0  0
    0.5360   22.2587  -28.1583 H   0  0  0  0  0  0  0  0  0  0  0  0
   -1.3041   22.1592  -29.8335 H   0  0  0  0  0  0  0  0  0  0  0  0
   -2.9380   23.5190  -31.2150 H   0  0  0  0  0  0  0  0  0  0  0  0
   -8.0204   24.3984  -31.0301 H   0  0  0  0  0  0  0  0  0  0  0  0
   -9.4693   22.4810  -31.6547 H   0  0  0  0  0  0  0  0  0  0  0  0
   -5.2255   18.8275  -31.3906 H   0  0  0  0  0  0  0  0  0  0  0  0
   -5.2878   16.8582  -33.9392 H   0  0  0  0  0  0  0  0  0  0  0  0
   -4.8805   16.0676  -32.6627 H   0  0  0  0  0  0  0  0  0  0  0  0
   -7.6692   17.6271  -33.1701 H   0  0  0  0  0  0  0  0  0  0  0  0
   -7.6761   16.9703  -31.7598 H   0  0  0  0  0  0  0  0  0  0  0  0
   -2.5283   26.1619  -28.7294 H   0  0  0  0  0  0  0  0  0  0  0  0
   -0.6849   26.2627  -27.0556 H   0  0  0  0  0  0  0  0  0  0  0  0
    0.1604   26.0652  -24.0949 H   0  0  0  0  0  0  0  0  0  0  0  0
    1.6601   25.1176  -23.7400 H   0  0  0  0  0  0  0  0  0  0  0  0
    1.4989   28.1523  -24.0850 H   0  0  0  0  0  0  0  0  0  0  0  0
    1.6455   27.2458  -22.5172 H   0  0  0  0  0  0  0  0  0  0  0  0
  1  2  1  0
  2  3  1  0
  3  4  1  0
  4  5  1  0
  5  6  1  0
  6  7  2  0
  6  8  2  0
  6  9  1  0
  9 10  2  0
 10 11  1  0
 11 12  2  0
 12 13  1  0
 13 14  1  0
 14 15  2  0
 14 16  1  0
 16 17  1  0
 17 18  2  0
 18 19  1  0
 19 20  2  0
 20 21  1  0
 20 22  1  0
 22 23  1  0
 23 24  2  0
 23 25  2  0
 23 26  1  0
 26 27  1  0
 27 28  1  0
 22 29  2  0
 29 30  1  0
 12 31  1  0
 31 32  2  0
  5 33  1  0
 33 34  1  0
 34  2  1  0
 32  9  1  0
 29 17  1  0
 28 26  1  0
  1 35  1  0
  1 36  1  0
  1 37  1  0
  3 38  1  0
  3 39  1  0
  4 40  1  0
  4 41  1  0
 10 42  1  0
 11 43  1  0
 13 44  1  0
 18 45  1  0
 19 46  1  0
 26 47  1  0
 27 48  1  0
 27 49  1  0
 28 50  1  0
 28 51  1  0
 31 52  1  0
 32 53  1  0
 33 54  1  0
 33 55  1  0
 34 56  1  0
 34 57  1  0
M  CHG  2  16  -1  30  -1
M  END
>  <UniqueID>  (1) 
1

>  <SMILES>  (1) 
CN1CCN(S(=O)(=O)c2ccc(NC(=O)[N-]c3ccc(Cl)c(S(=O)(=O)C4CC4)c3[O-])cc2)CC1

>  <Energy>  (1) 
343.880680895

>  <Genealogy>  (1) 
CN1CCN(S(=O)(=O)c2ccc(NC(=O)[N-]c3ccc(Cl)c(S(=O)(=O)C4CC4)c3[O-])cc2)CC1 (protonated)
CN1CCN(S(=O)(=O)c2ccc(NC(=O)[N-]c3ccc(Cl)c(S(=O)(=O)C4CC4)c3[O-])cc2)CC1 (3D coordinates assigned)
CN1CCN(S(=O)(=O)c2ccc(NC(=O)[N-]c3ccc(Cl)c(S(=O)(=O)C4CC4)c3[O-])cc2)CC1 (nonaromatic ring conformer: 343.880680895 kcal/mol)

>  <smiles>  (1) 
CN1CCN(S(=O)(=O)c2ccc(NC(=O)Nc3ccc(Cl)c(S(=O)(=O)C4CC4)c3O)cc2)CC1

>  <score_type>  (1) 
oracle

>  <origin>  (1) 
adgpu

>  <m_score__min__energy>  (1) 
-13.33

>  <m_primary>  (1) 
energy

$$$$
1:0
     RDKit          3D

 54 57  0  0  0  0  0  0  0  0999 V2000
   -5.7130   18.6880  -34.5330 C   0  0  0  0  0  0  0  0  0  0  0  0
   -4.6970   19.4370  -33.7040 C   0  0  0  0  0  0  0  0  0  0  0  0
   -3.3210   19.2120  -33.6960 C   0  0  0  0  0  0  0  0  0  0  0  0
   -2.5020   18.3170  -34.5940 C   0  0  0  0  0  0  0  0  0  0  0  0
   -2.6850   16.8820  -34.2600 N   0  0  0  0  0  0  0  0  0  0  0  0
   -3.5460   16.2340  -35.2830 C   0  0  0  0  0  0  0  0  0  0  0  0
   -4.1760   14.9370  -34.7540 C   0  0  0  0  0  0  0  0  0  0  0  0
   -5.0410   15.1790  -33.5750 N   0  0  0  0  0  0  0  0  0  0  0  0
   -6.4650   15.1620  -33.9470 C   0  0  0  0  0  0  0  0  0  0  0  0
   -4.7120   16.4280  -32.8430 C   0  0  0  0  0  0  0  0  0  0  0  0
   -3.1990   16.7050  -32.8710 C   0  0  0  0  0  0  0  0  0  0  0  0
   -2.7900   19.9960  -32.6870 C   0  0  0  0  0  0  0  0  0  0  0  0
   -3.8500   20.6680  -32.1110 C   0  0  0  0  0  0  0  0  0  0  0  0
   -3.7120   21.6400  -31.0010 C   0  0  0  0  0  0  0  0  0  0  0  0
   -3.5360   21.1810  -29.6840 C   0  0  0  0  0  0  0  0  0  0  0  0
   -3.3560   22.0890  -28.6360 C   0  0  0  0  0  0  0  0  0  0  0  0
   -3.3430   23.4620  -28.8930 C   0  0  0  0  0  0  0  0  0  0  0  0
   -3.5070   23.9300  -30.2010 C   0  0  0  0  0  0  0  0  0  0  0  0
   -3.4800   25.2950  -30.4590 O   0  0  0  0  0  0  0  0  0  0  0  0
   -3.6890   23.0240  -31.2520 C   0  0  0  0  0  0  0  0  0  0  0  0
   -5.0110   20.3260  -32.7280 N   0  0  0  0  0  0  0  0  0  0  0  0
   -6.3340   20.7340  -32.3380 C   0  0  0  0  0  0  0  0  0  0  0  0
   -7.3110   19.7730  -32.0330 C   0  0  0  0  0  0  0  0  0  0  0  0
   -8.6100   20.1690  -31.7040 C   0  0  0  0  0  0  0  0  0  0  0  0
   -8.9440   21.5260  -31.6840 C   0  0  0  0  0  0  0  0  0  0  0  0
   -7.9780   22.4880  -31.9920 C   0  0  0  0  0  0  0  0  0  0  0  0
   -8.3020   23.8010  -31.9790 F   0  0  0  0  0  0  0  0  0  0  0  0
   -6.6760   22.0930  -32.3200 C   0  0  0  0  0  0  0  0  0  0  0  0
   -6.4179   18.1683  -33.8674 H   0  0  0  0  0  0  0  0  0  0  0  0
   -6.2635   19.3980  -35.1677 H   0  0  0  0  0  0  0  0  0  0  0  0
   -5.1976   17.9521  -35.1677 H   0  0  0  0  0  0  0  0  0  0  0  0
   -2.8101   18.4816  -35.6371 H   0  0  0  0  0  0  0  0  0  0  0  0
   -1.4408   18.5682  -34.4501 H   0  0  0  0  0  0  0  0  0  0  0  0
   -1.7510   16.4060  -34.3110 H   0  0  0  0  0  0  0  0  0  0  0  0
   -4.3486   16.9306  -35.5669 H   0  0  0  0  0  0  0  0  0  0  0  0
   -2.9185   15.9822  -36.1507 H   0  0  0  0  0  0  0  0  0  0  0  0
   -4.7829   14.4857  -35.5528 H   0  0  0  0  0  0  0  0  0  0  0  0
   -3.3613   14.2657  -34.4449 H   0  0  0  0  0  0  0  0  0  0  0  0
   -7.0818   15.1546  -33.0362 H   0  0  0  0  0  0  0  0  0  0  0  0
   -6.6994   16.0574  -34.5414 H   0  0  0  0  0  0  0  0  0  0  0  0
   -6.6780   14.2612  -34.5414 H   0  0  0  0  0  0  0  0  0  0  0  0
   -5.2401   17.2701  -33.3142 H   0  0  0  0  0  0  0  0  0  0  0  0
   -5.0263   16.3117  -31.7953 H   0  0  0  0  0  0  0  0  0  0  0  0
   -2.9960   17.6220  -32.2984 H   0  0  0  0  0  0  0  0  0  0  0  0
   -2.6881   15.8366  -32.4296 H   0  0  0  0  0  0  0  0  0  0  0  0
   -1.7307   20.0696  -32.3999 H   0  0  0  0  0  0  0  0  0  0  0  0
   -3.5399   20.1007  -29.4766 H   0  0  0  0  0  0  0  0  0  0  0  0
   -3.2244   21.7216  -27.6076 H   0  0  0  0  0  0  0  0  0  0  0  0
   -3.2038   24.1750  -28.0670 H   0  0  0  0  0  0  0  0  0  0  0  0
   -3.8147   23.3960  -32.2795 H   0  0  0  0  0  0  0  0  0  0  0  0
   -7.0528   18.7039  -32.0531 H   0  0  0  0  0  0  0  0  0  0  0  0
   -9.3703   19.4122  -31.4606 H   0  0  0  0  0  0  0  0  0  0  0  0
   -9.9671   21.8369  -31.4259 H   0  0  0  0  0  0  0  0  0  0  0  0
   -5.9183   22.8520  -32.5646 H   0  0  0  0  0  0  0  0  0  0  0  0
  1  2  1  0
  2  3  2  0
  3  4  1  0
  4  5  1  0
  5  6  1  0
  6  7  1  0
  7  8  1  0
  8  9  1  0
  8 10  1  0
 10 11  1  0
  3 12  1  0
 12 13  2  0
 13 14  1  0
 14 15  2  0
 15 16  1  0
 16 17  2  0
 17 18  1  0
 18 19  1  0
 18 20  2  0
 13 21  1  0
 21 22  1  0
 22 23  2  0
 23 24  1  0
 24 25  2  0
 25 26  1  0
 26 27  1  0
 26 28  2  0
 21  2  1  0
 28 22  1  0
 11  5  1  0
 20 14  1  0
  1 29  1  0
  1 30  1  0
  1 31  1  0
  4 32  1  0
  4 33  1  0
  5 34  1  0
  6 35  1  0
  6 36  1  0
  7 37  1  0
  7 38  1  0
  9 39  1  0
  9 40  1  0
  9 41  1  0
 10 42  1  0
 10 43  1  0
 11 44  1  0
 11 45  1  0
 12 46  1  0
 15 47  1  0
 16 48  1  0
 17 49  1  0
 20 50  1  0
 23 51  1  0
 24 52  1  0
 25 53  1  0
 28 54  1  0
M  CHG  2   5   1  19  -1
M  END
>  <UniqueID>  (2) 
2

>  <SMILES>  (2) 
Cc1c(C[NH+]2CCN(C)CC2)cc(-c2cccc([O-])c2)n1-c1cccc(F)c1

>  <Energy>  (2) 
107.139839436462

>  <Genealogy>  (2) 
Cc1c(C[NH+]2CCN(C)CC2)cc(-c2cccc([O-])c2)n1-c1cccc(F)c1 (protonated)
Cc1c(C[NH+]2CCN(C)CC2)cc(-c2cccc([O-])c2)n1-c1cccc(F)c1 (3D coordinates assigned)
Cc1c(C[NH+]2CCN(C)CC2)cc(-c2cccc([O-])c2)n1-c1cccc(F)c1 (nonaromatic ring conformer: 107.139839436462 kcal/mol)

>  <smiles>  (2) 
Cc1c(CN2CCN(C)CC2)cc(-c2cccc(O)c2)n1-c1cccc(F)c1

>  <score_type>  (2) 
oracle

>  <origin>  (2) 
adgpu

>  <m_score__min__energy>  (2) 
-11.029999999999999

>  <m_primary>  (2) 
energy

$$$$
2:0
     RDKit          3D

 61 65  0  0  0  0  0  0  0  0999 V2000
   -0.8130   21.3530  -25.9590 O   0  0  0  0  0  0  0  0  0  0  0  0
   -1.1210   21.2830  -27.1790 C   0  0  0  0  0  0  0  0  0  0  0  0
   -0.9820   20.0430  -27.8850 N   0  0  0  0  0  0  0  0  0  0  0  0
   -1.1850   19.8380  -29.2910 C   0  0  0  0  0  0  0  0  0  0  0  0
   -2.2940   20.4330  -29.9030 C   0  0  0  0  0  0  0  0  0  0  0  0
   -2.5110   20.2780  -31.2740 C   0  0  0  0  0  0  0  0  0  0  0  0
   -1.6080   19.5460  -32.0550 C   0  0  0  0  0  0  0  0  0  0  0  0
   -1.8500   19.3770  -33.7920 S   0  0  0  0  0  0  0  0  0  0  0  0
   -1.9510   20.7480  -34.3990 O   0  0  0  0  0  0  0  0  0  0  0  0
   -0.6790   18.6650  -34.4090 O   0  0  0  0  0  0  0  0  0  0  0  0
   -3.3220   18.4840  -34.0960 N   0  0  0  0  0  0  0  0  0  0  0  0
   -4.5190   19.3070  -33.7900 C   0  0  0  0  0  0  0  0  0  0  0  0
   -5.1530   18.9630  -32.4340 C   0  0  0  0  0  0  0  0  0  0  0  0
   -5.5730   17.4830  -32.3790 C   0  0  0  0  0  0  0  0  0  0  0  0
   -4.6630   16.5730  -33.2250 C   0  0  0  0  0  0  0  0  0  0  0  0
   -3.2700   17.1850  -33.3880 C   0  0  0  0  0  0  0  0  0  0  0  0
   -0.4820   18.9730  -31.4510 C   0  0  0  0  0  0  0  0  0  0  0  0
   -0.2670   19.1180  -30.0770 C   0  0  0  0  0  0  0  0  0  0  0  0
   -1.7080   22.4620  -27.8450 C   0  0  0  0  0  0  0  0  0  0  0  0
   -0.9890   23.5610  -28.2880 C   0  0  0  0  0  0  0  0  0  0  0  0
   -1.9170   24.4400  -28.8040 C   0  0  0  0  0  0  0  0  0  0  0  0
   -1.6130   25.6810  -29.3500 O   0  0  0  0  0  0  0  0  0  0  0  0
   -3.1630   23.9430  -28.7110 N   0  0  0  0  0  0  0  0  0  0  0  0
   -4.3980   24.5810  -29.1700 C   0  0  0  0  0  0  0  0  0  0  0  0
   -5.1610   23.6550  -30.0780 C   0  0  0  0  0  0  0  0  0  0  0  0
   -4.5670   23.1720  -31.2570 C   0  0  0  0  0  0  0  0  0  0  0  0
   -5.2770   22.3200  -32.1100 C   0  0  0  0  0  0  0  0  0  0  0  0
   -6.5840   21.9470  -31.7880 C   0  0  0  0  0  0  0  0  0  0  0  0
   -7.1760   22.4080  -30.6050 C   0  0  0  0  0  0  0  0  0  0  0  0
   -6.4750   23.2720  -29.7590 C   0  0  0  0  0  0  0  0  0  0  0  0
   -8.4690   21.9920  -30.2820 O   0  0  0  0  0  0  0  0  0  0  0  0
   -9.0890   20.9070  -30.9750 C   0  0  0  0  0  0  0  0  0  0  0  0
   -8.7330   20.9530  -32.4660 C   0  0  0  0  0  0  0  0  0  0  0  0
   -7.3200   21.1120  -32.6340 O   0  0  0  0  0  0  0  0  0  0  0  0
   -3.0450   22.7280  -28.1360 C   0  0  0  0  0  0  0  0  0  0  0  0
   -4.1340   21.8880  -27.9110 O   0  0  0  0  0  0  0  0  0  0  0  0
   -2.9985   21.0259  -29.3011 H   0  0  0  0  0  0  0  0  0  0  0  0
   -3.3958   20.7333  -31.7428 H   0  0  0  0  0  0  0  0  0  0  0  0
   -4.2228   20.3663  -33.7798 H   0  0  0  0  0  0  0  0  0  0  0  0
   -5.2694   19.0979  -34.5666 H   0  0  0  0  0  0  0  0  0  0  0  0
   -4.4223   19.1591  -31.6355 H   0  0  0  0  0  0  0  0  0  0  0  0
   -6.0493   19.5861  -32.2989 H   0  0  0  0  0  0  0  0  0  0  0  0
   -5.5335   17.1450  -31.3330 H   0  0  0  0  0  0  0  0  0  0  0  0
   -6.5898   17.4115  -32.7926 H   0  0  0  0  0  0  0  0  0  0  0  0
   -4.5702   15.5960  -32.7282 H   0  0  0  0  0  0  0  0  0  0  0  0
   -5.1132   16.4586  -34.2221 H   0  0  0  0  0  0  0  0  0  0  0  0
   -2.8297   17.3393  -32.3919 H   0  0  0  0  0  0  0  0  0  0  0  0
   -2.6592   16.4927  -33.9861 H   0  0  0  0  0  0  0  0  0  0  0  0
    0.2370   18.4060  -32.0605 H   0  0  0  0  0  0  0  0  0  0  0  0
    0.6216   18.6683  -29.6099 H   0  0  0  0  0  0  0  0  0  0  0  0
    0.1007   23.7029  -28.2380 H   0  0  0  0  0  0  0  0  0  0  0  0
   -5.0223   24.8305  -28.2993 H   0  0  0  0  0  0  0  0  0  0  0  0
   -4.1420   25.4949  -29.7261 H   0  0  0  0  0  0  0  0  0  0  0  0
   -3.5377   23.4657  -31.5105 H   0  0  0  0  0  0  0  0  0  0  0  0
   -4.8074   21.9451  -33.0313 H   0  0  0  0  0  0  0  0  0  0  0  0
   -6.9518   23.6522  -28.8435 H   0  0  0  0  0  0  0  0  0  0  0  0
   -8.7382   19.9560  -30.5476 H   0  0  0  0  0  0  0  0  0  0  0  0
  -10.1804   20.9903  -30.8656 H   0  0  0  0  0  0  0  0  0  0  0  0
   -9.0523   20.0154  -32.9446 H   0  0  0  0  0  0  0  0  0  0  0  0
   -9.2473   21.8070  -32.9309 H   0  0  0  0  0  0  0  0  0  0  0  0
   -4.0470   20.9870  -27.4670 H   0  0  0  0  0  0  0  0  0  0  0  0
  1  2  2  0
  2  3  1  0
  3  4  1  0
  4  5  2  0
  5  6  1  0
  6  7  2  0
  7  8  1  0
  8  9  2  0
  8 10  2  0
  8 11  1  0
 11 12  1  0
 12 13  1  0
 13 14  1  0
 14 15  1  0
 15 16  1  0
  7 17  1  0
 17 18  2  0
  2 19  1  0
 19 20  1  0
 20 21  2  0
 21 22  1  0
 21 23  1  0
 23 24  1  0
 24 25  1  0
 25 26  2  0
 26 27  1  0
 27 28  2  0
 28 29  1  0
 29 30  2  0
 29 31  1  0
 31 32  1  0
 32 33  1  0
 33 34  1  0
 23 35  1  0
 35 36  1  0
 18  4  1  0
 35 19  2  0
 16 11  1  0
 30 25  1  0
 34 28  1  0
  5 37  1  0
  6 38  1  0
 12 39  1  0
 12 40  1  0
 13 41  1  0
 13 42  1  0
 14 43  1  0
 14 44  1  0
 15 45  1  0
 15 46  1  0
 16 47  1  0
 16 48  1  0
 17 49  1  0
 18 50  1  0
 20 51  1  0
 24 52  1  0
 24 53  1  0
 26 54  1  0
 27 55  1  0
 30 56  1  0
 32 57  1  0
 32 58  1  0
 33 59  1  0
 33 60  1  0
 36 61  1  0
M  CHG  2   3  -1  22  -1
M  END
>  <UniqueID>  (3) 
3

>  <SMILES>  (3) 
O=C([N-]c1ccc(S(=O)(=O)N2CCCCC2)cc1)c1cc([O-])n(Cc2ccc3c(c2)OCCO3)c1O

>  <Energy>  (3) 
103.70712111228504

>  <Genealogy>  (3) 
O=C([N-]c1ccc(S(=O)(=O)N2CCCCC2)cc1)c1cc([O-])n(Cc2ccc3c(c2)OCCO3)c1O (protonated)
O=C([N-]c1ccc(S(=O)(=O)N2CCCCC2)cc1)c1cc([O-])n(Cc2ccc3c(c2)OCCO3)c1O (3D coordinates assigned)
O=C([N-]c1ccc(S(=O)(=O)N2CCCCC2)cc1)c1cc([O-])n(Cc2ccc3c(c2)OCCO3)c1O (nonaromatic ring conformer: 103.70712111228504 kcal/mol)

>  <smiles>  (3) 
O=C(Nc1ccc(S(=O)(=O)N2CCCCC2)cc1)c1cc(O)n(Cc2ccc3c(c2)OCCO3)c1O

>  <score_type>  (3) 
oracle

>  <origin>  (3) 
adgpu

>  <m_score__min__energy>  (3) 
-12.630000000000001

>  <m_primary>  (3) 
energy

$$$$
3:0
     RDKit          3D

 56 59  0  0  0  0  0  0  0  0999 V2000
   -0.9920   20.2940  -27.4430 C   0  0  0  0  0  0  0  0  0  0  0  0
   -1.9540   21.2350  -28.1130 C   0  0  0  0  0  0  0  0  0  0  0  0
   -2.5570   22.2580  -27.3600 C   0  0  0  0  0  0  0  0  0  0  0  0
   -3.4410   23.1510  -27.9620 C   0  0  0  0  0  0  0  0  0  0  0  0
   -3.7290   23.0460  -29.3260 C   0  0  0  0  0  0  0  0  0  0  0  0
   -4.9100   24.1330  -30.0560 S   0  0  0  0  0  0  0  0  0  0  0  0
   -4.2320   25.0270  -31.0580 O   0  0  0  0  0  0  0  0  0  0  0  0
   -5.5110   24.9940  -28.9780 O   0  0  0  0  0  0  0  0  0  0  0  0
   -6.1610   23.1940  -30.8320 N   0  0  0  0  0  0  0  0  0  0  0  0
   -6.8190   24.0040  -31.8870 C   0  0  0  0  0  0  0  0  0  0  0  0
   -8.1870   23.4340  -32.3270 C   0  0  0  0  0  0  0  0  0  0  0  0
   -8.3280   21.9550  -31.9670 C   0  0  0  0  0  0  0  0  0  0  0  0
   -8.1470   21.7360  -30.4540 C   0  0  0  0  0  0  0  0  0  0  0  0
   -7.1320   22.7160  -29.8290 C   0  0  0  0  0  0  0  0  0  0  0  0
   -3.1160   22.0470  -30.0900 C   0  0  0  0  0  0  0  0  0  0  0  0
   -2.2040   21.1520  -29.4990 C   0  0  0  0  0  0  0  0  0  0  0  0
   -1.5590   20.1200  -30.2660 N   0  0  0  0  0  0  0  0  0  0  0  0
   -0.5740   20.2850  -31.2930 C   0  0  0  0  0  0  0  0  0  0  0  0
    0.6060   20.6320  -31.0140 O   0  0  0  0  0  0  0  0  0  0  0  0
   -0.9330   19.9600  -32.7070 C   0  0  0  0  0  0  0  0  0  0  0  0
   -2.4780   18.9910  -32.7940 S   0  0  0  0  0  0  0  0  0  0  0  0
   -3.5700   20.4140  -32.9180 C   0  0  0  0  0  0  0  0  0  0  0  0
   -3.1450   21.6900  -32.9810 N   0  0  0  0  0  0  0  0  0  0  0  0
   -4.2520   22.4210  -32.9710 N   0  0  0  0  0  0  0  0  0  0  0  0
   -5.3170   21.6350  -32.9010 N   0  0  0  0  0  0  0  0  0  0  0  0
   -4.9160   20.3770  -32.8790 N   0  0  0  0  0  0  0  0  0  0  0  0
   -5.7870   19.2420  -32.7600 C   0  0  0  0  0  0  0  0  0  0  0  0
   -6.8080   19.2590  -31.7970 C   0  0  0  0  0  0  0  0  0  0  0  0
   -7.6620   18.1600  -31.6530 C   0  0  0  0  0  0  0  0  0  0  0  0
   -7.5150   17.0440  -32.4820 C   0  0  0  0  0  0  0  0  0  0  0  0
   -6.5230   17.0330  -33.4670 C   0  0  0  0  0  0  0  0  0  0  0  0
   -5.6640   18.1310  -33.6210 C   0  0  0  0  0  0  0  0  0  0  0  0
   -4.5270   18.1250  -34.9630 Cl  0  0  0  0  0  0  0  0  0  0  0  0
   -1.0878   20.3877  -26.3512 H   0  0  0  0  0  0  0  0  0  0  0  0
   -1.2202   19.2608  -27.7438 H   0  0  0  0  0  0  0  0  0  0  0  0
    0.0359   20.5449  -27.7438 H   0  0  0  0  0  0  0  0  0  0  0  0
   -2.3292   22.3540  -26.2881 H   0  0  0  0  0  0  0  0  0  0  0  0
   -3.9143   23.9419  -27.3616 H   0  0  0  0  0  0  0  0  0  0  0  0
   -5.6920   22.3680  -31.2730 H   0  0  0  0  0  0  0  0  0  0  0  0
   -6.9723   25.0227  -31.5012 H   0  0  0  0  0  0  0  0  0  0  0  0
   -6.1604   23.9910  -32.7680 H   0  0  0  0  0  0  0  0  0  0  0  0
   -8.9863   24.0001  -31.8263 H   0  0  0  0  0  0  0  0  0  0  0  0
   -8.2610   23.5283  -33.4204 H   0  0  0  0  0  0  0  0  0  0  0  0
   -9.3281   21.6062  -32.2639 H   0  0  0  0  0  0  0  0  0  0  0  0
   -7.5490   21.3890  -32.4988 H   0  0  0  0  0  0  0  0  0  0  0  0
   -9.1198   21.8736  -29.9594 H   0  0  0  0  0  0  0  0  0  0  0  0
   -7.7584   20.7172  -30.3093 H   0  0  0  0  0  0  0  0  0  0  0  0
   -7.6748   23.5790  -29.4160 H   0  0  0  0  0  0  0  0  0  0  0  0
   -6.5813   22.1873  -29.0370 H   0  0  0  0  0  0  0  0  0  0  0  0
   -3.3486   21.9601  -31.1616 H   0  0  0  0  0  0  0  0  0  0  0  0
   -1.0660   20.8972  -33.2673 H   0  0  0  0  0  0  0  0  0  0  0  0
   -0.1211   19.3583  -33.1415 H   0  0  0  0  0  0  0  0  0  0  0  0
   -6.9374   20.1408  -31.1522 H   0  0  0  0  0  0  0  0  0  0  0  0
   -8.4505   18.1742  -30.8861 H   0  0  0  0  0  0  0  0  0  0  0  0
   -8.1790   16.1756  -32.3594 H   0  0  0  0  0  0  0  0  0  0  0  0
   -6.4155   16.1581  -34.1251 H   0  0  0  0  0  0  0  0  0  0  0  0
  1  2  1  0
  2  3  2  0
  3  4  1  0
  4  5  2  0
  5  6  1  0
  6  7  2  0
  6  8  2  0
  6  9  1  0
  9 10  1  0
 10 11  1  0
 11 12  1  0
 12 13  1  0
 13 14  1  0
  5 15  1  0
 15 16  2  0
 16 17  1  0
 17 18  1  0
 18 19  2  0
 18 20  1  0
 20 21  1  0
 21 22  1  0
 22 23  2  0
 23 24  1  0
 24 25  2  0
 25 26  1  0
 26 27  1  0
 27 28  2  0
 28 29  1  0
 29 30  2  0
 30 31  1  0
 31 32  2  0
 32 33  1  0
 16  2  1  0
 26 22  1  0
 32 27  1  0
 14  9  1  0
  1 34  1  0
  1 35  1  0
  1 36  1  0
  3 37  1  0
  4 38  1  0
  9 39  1  0
 10 40  1  0
 10 41  1  0
 11 42  1  0
 11 43  1  0
 12 44  1  0
 12 45  1  0
 13 46  1  0
 13 47  1  0
 14 48  1  0
 14 49  1  0
 15 50  1  0
 20 51  1  0
 20 52  1  0
 28 53  1  0
 29 54  1  0
 30 55  1  0
 31 56  1  0
M  CHG  2   9   1  17  -1
M  END
>  <UniqueID>  (4) 
4

>  <SMILES>  (4) 
Cc1ccc(S(=O)(=O)[NH+]2CCCCC2)cc1[N-]C(=O)CSc1nnnn1-c1ccccc1Cl

>  <Energy>  (4) 
104.45309733702932

>  <Genealogy>  (4) 
Cc1ccc(S(=O)(=O)[NH+]2CCCCC2)cc1[N-]C(=O)CSc1nnnn1-c1ccccc1Cl (protonated)
Cc1ccc(S(=O)(=O)[NH+]2CCCCC2)cc1[N-]C(=O)CSc1nnnn1-c1ccccc1Cl (3D coordinates assigned)
Cc1ccc(S(=O)(=O)[NH+]2CCCCC2)cc1[N-]C(=O)CSc1nnnn1-c1ccccc1Cl (nonaromatic ring conformer: 104.45309733702932 kcal/mol)

>  <smiles>  (4) 
Cc1ccc(S(=O)(=O)N2CCCCC2)cc1NC(=O)CSc1nnnn1-c1ccccc1Cl

>  <score_type>  (4) 
oracle

>  <origin>  (4) 
adgpu

>  <m_score__min__energy>  (4) 
-13.27

>  <m_primary>  (4) 
energy

$$$$
4:0
     RDKit          3D

 47 49  0  0  0  0  0  0  0  0999 V2000
   -3.8680   16.8430  -35.3150 C   0  0  0  0  0  0  0  0  0  0  0  0
   -4.6040   17.2530  -34.0400 C   0  0  0  0  0  0  0  0  0  0  0  0
   -4.8250   18.7070  -34.0020 N   0  0  0  0  0  0  0  0  0  0  0  0
   -6.1010   19.2720  -34.4680 C   0  0  0  0  0  0  0  0  0  0  0  0
   -7.0010   19.6140  -33.3120 C   0  0  0  0  0  0  0  0  0  0  0  0
   -7.0940   20.9410  -32.8560 C   0  0  0  0  0  0  0  0  0  0  0  0
   -7.9570   21.2670  -31.8050 C   0  0  0  0  0  0  0  0  0  0  0  0
   -8.7450   20.2770  -31.2130 C   0  0  0  0  0  0  0  0  0  0  0  0
   -8.6680   18.9570  -31.6680 C   0  0  0  0  0  0  0  0  0  0  0  0
   -7.7940   18.6240  -32.7070 C   0  0  0  0  0  0  0  0  0  0  0  0
   -3.8700   19.5600  -33.3410 C   0  0  0  0  0  0  0  0  0  0  0  0
   -4.2110   20.2200  -32.2030 N   0  0  0  0  0  0  0  0  0  0  0  0
   -3.3100   21.0220  -31.5780 C   0  0  0  0  0  0  0  0  0  0  0  0
   -3.6520   21.7130  -30.4110 O   0  0  0  0  0  0  0  0  0  0  0  0
   -4.1920   23.0060  -30.3850 C   0  0  0  0  0  0  0  0  0  0  0  0
   -5.5240   23.2510  -30.0190 C   0  0  0  0  0  0  0  0  0  0  0  0
   -6.0110   24.5550  -30.0490 C   0  0  0  0  0  0  0  0  0  0  0  0
   -5.1590   25.5870  -30.4380 C   0  0  0  0  0  0  0  0  0  0  0  0
   -5.5700   26.7770  -30.4630 O   0  0  0  0  0  0  0  0  0  0  0  0
   -3.8810   25.3030  -30.7940 N   0  0  0  0  0  0  0  0  0  0  0  0
   -3.4150   24.0520  -30.7740 N   0  0  0  0  0  0  0  0  0  0  0  0
   -2.0540   21.1400  -32.0770 N   0  0  0  0  0  0  0  0  0  0  0  0
   -1.7020   20.4890  -33.2170 C   0  0  0  0  0  0  0  0  0  0  0  0
   -0.3740   20.6310  -33.7580 N   0  0  0  0  0  0  0  0  0  0  0  0
    0.7860   20.2340  -32.9550 C   0  0  0  0  0  0  0  0  0  0  0  0
   -0.1950   21.1760  -35.1080 C   0  0  0  0  0  0  0  0  0  0  0  0
   -2.6170   19.7050  -33.8460 N   0  0  0  0  0  0  0  0  0  0  0  0
   -2.9355   16.3236  -35.0492 H   0  0  0  0  0  0  0  0  0  0  0  0
   -4.5064   16.1705  -35.9068 H   0  0  0  0  0  0  0  0  0  0  0  0
   -3.6323   17.7398  -35.9068 H   0  0  0  0  0  0  0  0  0  0  0  0
   -5.5767   16.7405  -34.0058 H   0  0  0  0  0  0  0  0  0  0  0  0
   -3.9879   16.9699  -33.1738 H   0  0  0  0  0  0  0  0  0  0  0  0
   -5.8986   20.1851  -35.0471 H   0  0  0  0  0  0  0  0  0  0  0  0
   -6.6068   18.5203  -35.0917 H   0  0  0  0  0  0  0  0  0  0  0  0
   -6.4852   21.7261  -33.3281 H   0  0  0  0  0  0  0  0  0  0  0  0
   -8.0154   22.3044  -31.4439 H   0  0  0  0  0  0  0  0  0  0  0  0
   -9.4261   20.5358  -30.3889 H   0  0  0  0  0  0  0  0  0  0  0  0
   -9.2959   18.1798  -31.2079 H   0  0  0  0  0  0  0  0  0  0  0  0
   -7.7267   17.5819  -33.0527 H   0  0  0  0  0  0  0  0  0  0  0  0
   -6.1772   22.4211  -29.7114 H   0  0  0  0  0  0  0  0  0  0  0  0
   -7.0535   24.7677  -29.7696 H   0  0  0  0  0  0  0  0  0  0  0  0
    0.5386   20.3187  -31.8865 H   0  0  0  0  0  0  0  0  0  0  0  0
    1.0542   19.1929  -33.1879 H   0  0  0  0  0  0  0  0  0  0  0  0
    1.6358   20.8924  -33.1879 H   0  0  0  0  0  0  0  0  0  0  0  0
    0.1476   22.2191  -35.0399 H   0  0  0  0  0  0  0  0  0  0  0  0
    0.5541   20.5786  -35.6483 H   0  0  0  0  0  0  0  0  0  0  0  0
   -1.1525   21.1391  -35.6483 H   0  0  0  0  0  0  0  0  0  0  0  0
  1  2  1  0
  2  3  1  0
  3  4  1  0
  4  5  1  0
  5  6  2  0
  6  7  1  0
  7  8  2  0
  8  9  1  0
  9 10  2  0
  3 11  1  0
 11 12  2  0
 12 13  1  0
 13 14  1  0
 14 15  1  0
 15 16  1  0
 16 17  2  0
 17 18  1  0
 18 19  2  0
 18 20  1  0
 20 21  1  0
 13 22  2  0
 22 23  1  0
 23 24  1  0
 24 25  1  0
 24 26  1  0
 23 27  2  0
 10  5  1  0
 27 11  1  0
 21 15  2  0
  1 28  1  0
  1 29  1  0
  1 30  1  0
  2 31  1  0
  2 32  1  0
  4 33  1  0
  4 34  1  0
  6 35  1  0
  7 36  1  0
  8 37  1  0
  9 38  1  0
 10 39  1  0
 16 40  1  0
 17 41  1  0
 25 42  1  0
 25 43  1  0
 25 44  1  0
 26 45  1  0
 26 46  1  0
 26 47  1  0
M  CHG  1  20  -1
M  END
>  <UniqueID>  (5) 
5

>  <SMILES>  (5) 
CCN(Cc1ccccc1)c1nc(Oc2ccc(=O)[n-]n2)nc(N(C)C)n1

>  <Energy>  (5) 
46.70959762182718

>  <Genealogy>  (5) 
CCN(Cc1ccccc1)c1nc(Oc2ccc(=O)[n-]n2)nc(N(C)C)n1 (protonated)
CCN(Cc1ccccc1)c1nc(Oc2ccc(=O)[n-]n2)nc(N(C)C)n1 (3D coordinates assigned)
CCN(Cc1ccccc1)c1nc(Oc2ccc(=O)[n-]n2)nc(N(C)C)n1 (optimized conformer: 46.70959762182718 kcal/mol)

>  <smiles>  (5) 
CCN(Cc1ccccc1)c1nc(Oc2ccc(=O)[nH]n2)nc(N(C)C)n1

>  <score_type>  (5) 
oracle

>  <origin>  (5) 
adgpu

>  <m_score__min__energy>  (5) 
-9.8699999999999992

>  <m_primary>  (5) 
energy

$$$$
5:0
     RDKit          3D

 33 34  0  0  0  0  0  0  0  0999 V2000
   -0.4580   28.0110  -24.3610 C   0  0  0  0  0  0  0  0  0  0  0  0
   -0.5980   27.3420  -25.6920 C   0  0  0  0  0  0  0  0  0  0  0  0
   -0.8020   25.9940  -25.9010 C   0  0  0  0  0  0  0  0  0  0  0  0
   -0.8160   25.8670  -27.2800 C   0  0  0  0  0  0  0  0  0  0  0  0
   -0.9590   24.5880  -28.0420 C   0  0  0  0  0  0  0  0  0  0  0  0
   -1.8040   24.7930  -29.2150 N   0  0  0  0  0  0  0  0  0  0  0  0
   -3.2150   24.5460  -29.2030 C   0  0  0  0  0  0  0  0  0  0  0  0
   -3.7760   24.1310  -28.1530 O   0  0  0  0  0  0  0  0  0  0  0  0
   -3.9670   24.7290  -30.4080 N   0  0  0  0  0  0  0  0  0  0  0  0
   -4.7710   23.7420  -31.0710 C   0  0  0  0  0  0  0  0  0  0  0  0
   -6.1710   23.8600  -31.1690 C   0  0  0  0  0  0  0  0  0  0  0  0
   -6.9150   22.8850  -31.8430 C   0  0  0  0  0  0  0  0  0  0  0  0
   -8.6590   23.0360  -31.9580 Cl  0  0  0  0  0  0  0  0  0  0  0  0
   -6.2690   21.7960  -32.4350 C   0  0  0  0  0  0  0  0  0  0  0  0
   -4.8770   21.6850  -32.3630 C   0  0  0  0  0  0  0  0  0  0  0  0
   -4.0650   20.3260  -33.1190 Cl  0  0  0  0  0  0  0  0  0  0  0  0
   -4.1320   22.6600  -31.6900 C   0  0  0  0  0  0  0  0  0  0  0  0
   -0.6140   27.0670  -27.8600 N   0  0  0  0  0  0  0  0  0  0  0  0
   -0.4840   27.9560  -26.8880 N   0  0  0  0  0  0  0  0  0  0  0  0
   -0.2430   29.3760  -27.1170 C   0  0  0  0  0  0  0  0  0  0  0  0
   -0.6127   27.2719  -23.5611 H   0  0  0  0  0  0  0  0  0  0  0  0
    0.5499   28.4425  -24.2717 H   0  0  0  0  0  0  0  0  0  0  0  0
   -1.2083   28.8104  -24.2717 H   0  0  0  0  0  0  0  0  0  0  0  0
   -0.9251   25.2028  -25.1468 H   0  0  0  0  0  0  0  0  0  0  0  0
    0.0347   24.2444  -28.3653 H   0  0  0  0  0  0  0  0  0  0  0  0
   -1.4239   23.8323  -27.3918 H   0  0  0  0  0  0  0  0  0  0  0  0
   -1.3650   25.1480  -30.0940 H   0  0  0  0  0  0  0  0  0  0  0  0
   -6.6815   24.7217  -30.7141 H   0  0  0  0  0  0  0  0  0  0  0  0
   -6.8558   21.0262  -32.9576 H   0  0  0  0  0  0  0  0  0  0  0  0
   -3.0361   22.5760  -31.6468 H   0  0  0  0  0  0  0  0  0  0  0  0
   -0.1552   29.8936  -26.1503 H   0  0  0  0  0  0  0  0  0  0  0  0
    0.6895   29.5025  -27.6867 H   0  0  0  0  0  0  0  0  0  0  0  0
   -1.0815   29.8030  -27.6867 H   0  0  0  0  0  0  0  0  0  0  0  0
  1  2  1  0
  2  3  2  0
  3  4  1  0
  4  5  1  0
  5  6  1  0
  6  7  1  0
  7  8  2  0
  7  9  1  0
  9 10  1  0
 10 11  2  0
 11 12  1  0
 12 13  1  0
 12 14  2  0
 14 15  1  0
 15 16  1  0
 15 17  2  0
  4 18  2  0
 18 19  1  0
 19 20  1  0
 19  2  1  0
 17 10  1  0
  1 21  1  0
  1 22  1  0
  1 23  1  0
  3 24  1  0
  5 25  1  0
  5 26  1  0
  6 27  1  0
 11 28  1  0
 14 29  1  0
 17 30  1  0
 20 31  1  0
 20 32  1  0
 20 33  1  0
M  CHG  1   9  -1
M  END
>  <UniqueID>  (6) 
6

>  <SMILES>  (6) 
Cc1cc(CNC(=O)[N-]c2cc(Cl)cc(Cl)c2)nn1C

>  <Energy>  (6) 
60.62208844154639

>  <Genealogy>  (6) 
Cc1cc(CNC(=O)[N-]c2cc(Cl)cc(Cl)c2)nn1C (protonated)
Cc1cc(CNC(=O)[N-]c2cc(Cl)cc(Cl)c2)nn1C (3D coordinates assigned)
Cc1cc(CNC(=O)[N-]c2cc(Cl)cc(Cl)c2)nn1C (optimized conformer: 60.62208844154639 kcal/mol)

>  <smiles>  (6) 
Cc1cc(CNC(=O)Nc2cc(Cl)cc(Cl)c2)nn1C

>  <score_type>  (6) 
oracle

>  <origin>  (6) 
adgpu

>  <m_score__min__energy>  (6) 
-8.8499999999999996

>  <m_primary>  (6) 
energy

$$$$
6:0
     RDKit          3D

 36 39  0  0  0  0  0  0  0  0999 V2000
   -6.1512   25.7086  -31.2045 H   0  0  0  0  0  0  0  0  0  0  0  0
   -5.3700   24.9780  -30.9480 C   0  0  0  0  0  0  0  0  0  0  0  0
   -4.3640   25.2360  -30.1680 N   0  0  0  0  0  0  0  0  0  0  0  0
   -3.5810   24.0480  -30.1120 C   0  0  0  0  0  0  0  0  0  0  0  0
   -2.3630   23.8940  -29.4520 C   0  0  0  0  0  0  0  0  0  0  0  0
   -1.9471   24.7055  -28.8368 H   0  0  0  0  0  0  0  0  0  0  0  0
   -1.6810   22.6740  -29.5940 C   0  0  0  0  0  0  0  0  0  0  0  0
   -0.7293   22.5149  -29.0659 H   0  0  0  0  0  0  0  0  0  0  0  0
   -2.2090   21.6530  -30.4090 C   0  0  0  0  0  0  0  0  0  0  0  0
   -1.6602   20.7066  -30.5238 H   0  0  0  0  0  0  0  0  0  0  0  0
   -3.4320   21.8360  -31.0760 C   0  0  0  0  0  0  0  0  0  0  0  0
   -3.8381   21.0559  -31.7367 H   0  0  0  0  0  0  0  0  0  0  0  0
   -4.1190   23.0390  -30.8760 C   0  0  0  0  0  0  0  0  0  0  0  0
   -5.3430   23.5960  -31.4480 C   0  0  0  0  0  0  0  0  0  0  0  0
   -6.2700   23.0450  -32.2400 C   0  0  0  0  0  0  0  0  0  0  0  0
   -7.0429   23.7008  -32.6674 H   0  0  0  0  0  0  0  0  0  0  0  0
   -6.3150   21.6130  -32.5720 C   0  0  0  0  0  0  0  0  0  0  0  0
   -5.1090   20.8270  -33.4650 S   0  0  0  0  0  0  0  0  0  0  0  0
   -5.8000   19.3190  -33.2280 C   0  0  0  0  0  0  0  0  0  0  0  0
   -5.3470   18.0870  -33.6920 C   0  0  0  0  0  0  0  0  0  0  0  0
   -4.4416   18.0154  -34.3125 H   0  0  0  0  0  0  0  0  0  0  0  0
   -6.0760   16.9400  -33.3470 C   0  0  0  0  0  0  0  0  0  0  0  0
   -5.7453   15.9532  -33.7031 H   0  0  0  0  0  0  0  0  0  0  0  0
   -7.2290   17.0460  -32.5470 C   0  0  0  0  0  0  0  0  0  0  0  0
   -7.7933   16.1401  -32.2806 H   0  0  0  0  0  0  0  0  0  0  0  0
   -7.6650   18.2990  -32.0860 C   0  0  0  0  0  0  0  0  0  0  0  0
   -8.5629   18.3805  -31.4557 H   0  0  0  0  0  0  0  0  0  0  0  0
   -6.9370   19.4470  -32.4420 C   0  0  0  0  0  0  0  0  0  0  0  0
   -7.2270   20.7330  -32.0690 N   0  0  0  0  0  0  0  0  0  0  0  0
   -8.3510   21.1230  -31.2030 C   0  0  0  0  0  0  0  0  0  0  0  0
   -8.1510   22.1169  -30.7761 H   0  0  0  0  0  0  0  0  0  0  0  0
   -8.4556   20.3788  -30.3997 H   0  0  0  0  0  0  0  0  0  0  0  0
   -9.6490   21.1720  -32.0010 C   0  0  0  0  0  0  0  0  0  0  0  0
  -10.5037   21.2043  -31.3093 H   0  0  0  0  0  0  0  0  0  0  0  0
   -9.6561   22.0711  -32.6348 H   0  0  0  0  0  0  0  0  0  0  0  0
   -9.7238   20.2760  -32.6348 H   0  0  0  0  0  0  0  0  0  0  0  0
  1  2  1  0
  2  3  2  0
  3  4  1  0
  4  5  2  0
  5  6  1  0
  5  7  1  0
  7  8  1  0
  7  9  2  0
  9 10  1  0
  9 11  1  0
 11 12  1  0
 11 13  2  0
 13 14  1  0
 14 15  2  0
 15 16  1  0
 15 17  1  0
 17 18  1  0
 18 19  1  0
 19 20  2  0
 20 21  1  0
 20 22  1  0
 22 23  1  0
 22 24  2  0
 24 25  1  0
 24 26  1  0
 26 27  1  0
 26 28  2  0
 28 29  1  0
 29 30  1  0
 30 31  1  0
 30 32  1  0
 30 33  1  0
 33 34  1  0
 33 35  1  0
 33 36  1  0
 14  2  1  0
 29 17  2  0
 13  4  1  0
 28 19  1  0
M  CHG  1  29   1
M  END
>  <UniqueID>  (7) 
7

>  <SMILES>  (7) 
CC[n+]1c(/C=C2/C=Nc3ccccc32)sc2ccccc21

>  <Energy>  (7) 
111.30499403250357

>  <Genealogy>  (7) 
CC[n+]1c(/C=C2/C=Nc3ccccc32)sc2ccccc21 (cis-trans isomerization)
CC[n+]1c(/C=C2/C=Nc3ccccc32)sc2ccccc21 (3D coordinates assigned)
CC[n+]1c(/C=C2/C=Nc3ccccc32)sc2ccccc21 (nonaromatic ring conformer: 111.30499403250357 kcal/mol)

>  <smiles>  (7) 
CC[n+]1c(C=C2C=Nc3ccccc32)sc2ccccc21

>  <score_type>  (7) 
oracle

>  <origin>  (7) 
adgpu

>  <m_score__min__energy>  (7) 
-7.9900000000000002

>  <m_primary>  (7) 
energy

$$$$
7:0
     RDKit          3D

 61 64  0  0  0  0  0  0  0  0999 V2000
   -4.3510   25.6740  -30.7980 O   0  0  0  0  0  0  0  0  0  0  0  0
   -4.7200   24.4720  -30.7130 C   0  0  0  0  0  0  0  0  0  0  0  0
   -5.1800   23.8020  -31.8920 N   0  0  0  0  0  0  0  0  0  0  0  0
   -5.6820   22.4600  -31.9400 C   0  0  0  0  0  0  0  0  0  0  0  0
   -7.0610   22.1850  -31.9160 C   0  0  0  0  0  0  0  0  0  0  0  0
   -7.5160   20.8640  -31.9440 C   0  0  0  0  0  0  0  0  0  0  0  0
   -6.6020   19.8020  -31.9890 C   0  0  0  0  0  0  0  0  0  0  0  0
   -7.1790   18.1370  -32.0520 S   0  0  0  0  0  0  0  0  0  0  0  0
   -8.6610   18.1300  -31.8030 O   0  0  0  0  0  0  0  0  0  0  0  0
   -6.5260   17.3460  -30.9530 O   0  0  0  0  0  0  0  0  0  0  0  0
   -6.8520   17.3700  -33.5930 N   0  0  0  0  0  0  0  0  0  0  0  0
   -6.2550   16.0290  -33.4420 C   0  0  0  0  0  0  0  0  0  0  0  0
   -4.7280   16.0700  -33.1980 C   0  0  0  0  0  0  0  0  0  0  0  0
   -4.1630   17.3530  -33.3900 O   0  0  0  0  0  0  0  0  0  0  0  0
   -4.6140   17.8920  -34.6110 C   0  0  0  0  0  0  0  0  0  0  0  0
   -6.1070   18.2450  -34.5220 C   0  0  0  0  0  0  0  0  0  0  0  0
   -5.2260   20.0750  -31.9750 C   0  0  0  0  0  0  0  0  0  0  0  0
   -4.7710   21.3960  -31.9460 C   0  0  0  0  0  0  0  0  0  0  0  0
   -4.7680   23.8200  -29.4350 N   0  0  0  0  0  0  0  0  0  0  0  0
   -3.9350   24.1820  -28.3210 C   0  0  0  0  0  0  0  0  0  0  0  0
   -4.5010   24.8520  -27.2260 C   0  0  0  0  0  0  0  0  0  0  0  0
   -3.7180   25.1750  -26.1150 C   0  0  0  0  0  0  0  0  0  0  0  0
   -2.3700   24.8140  -26.0770 C   0  0  0  0  0  0  0  0  0  0  0  0
   -1.7960   24.1200  -27.1500 C   0  0  0  0  0  0  0  0  0  0  0  0
   -0.1110   23.5970  -27.0730 S   0  0  0  0  0  0  0  0  0  0  0  0
    0.6450   24.1940  -28.2270 O   0  0  0  0  0  0  0  0  0  0  0  0
    0.5070   24.1030  -25.7990 O   0  0  0  0  0  0  0  0  0  0  0  0
    0.0210   21.8540  -27.1330 N   0  0  0  0  0  0  0  0  0  0  0  0
   -1.0660   21.2280  -26.3480 C   0  0  0  0  0  0  0  0  0  0  0  0
   -1.2440   19.7520  -26.7180 C   0  0  0  0  0  0  0  0  0  0  0  0
   -1.6490   19.5970  -28.1940 C   0  0  0  0  0  0  0  0  0  0  0  0
   -1.1640   20.7660  -29.0700 C   0  0  0  0  0  0  0  0  0  0  0  0
    0.1430   21.3610  -28.5280 C   0  0  0  0  0  0  0  0  0  0  0  0
   -2.5780   23.8120  -28.2730 C   0  0  0  0  0  0  0  0  0  0  0  0
   -7.7842   23.0129  -31.8750 H   0  0  0  0  0  0  0  0  0  0  0  0
   -8.5962   20.6566  -31.9307 H   0  0  0  0  0  0  0  0  0  0  0  0
   -6.7329   15.5269  -32.5879 H   0  0  0  0  0  0  0  0  0  0  0  0
   -6.4227   15.4867  -34.3842 H   0  0  0  0  0  0  0  0  0  0  0  0
   -4.5316   15.7537  -32.1629 H   0  0  0  0  0  0  0  0  0  0  0  0
   -4.2632   15.3969  -33.9334 H   0  0  0  0  0  0  0  0  0  0  0  0
   -4.0395   18.8017  -34.8398 H   0  0  0  0  0  0  0  0  0  0  0  0
   -4.4708   17.1447  -35.4054 H   0  0  0  0  0  0  0  0  0  0  0  0
   -6.2015   19.2849  -34.1761 H   0  0  0  0  0  0  0  0  0  0  0  0
   -6.5388   18.1052  -35.5240 H   0  0  0  0  0  0  0  0  0  0  0  0
   -4.5027   19.2463  -31.9869 H   0  0  0  0  0  0  0  0  0  0  0  0
   -3.6905   21.6016  -31.9278 H   0  0  0  0  0  0  0  0  0  0  0  0
   -5.4780   23.0660  -29.2980 H   0  0  0  0  0  0  0  0  0  0  0  0
   -5.5666   25.1244  -27.2423 H   0  0  0  0  0  0  0  0  0  0  0  0
   -4.1650   25.7154  -25.2676 H   0  0  0  0  0  0  0  0  0  0  0  0
   -1.7568   25.0753  -25.2020 H   0  0  0  0  0  0  0  0  0  0  0  0
   -0.8229   21.3019  -25.2778 H   0  0  0  0  0  0  0  0  0  0  0  0
   -2.0040   21.7568  -26.5726 H   0  0  0  0  0  0  0  0  0  0  0  0
   -0.2953   19.2219  -26.5480 H   0  0  0  0  0  0  0  0  0  0  0  0
   -2.0413   19.3277  -26.0901 H   0  0  0  0  0  0  0  0  0  0  0  0
   -1.2151   18.6634  -28.5816 H   0  0  0  0  0  0  0  0  0  0  0  0
   -2.7481   19.5840  -28.2369 H   0  0  0  0  0  0  0  0  0  0  0  0
   -0.9946   20.4010  -30.0937 H   0  0  0  0  0  0  0  0  0  0  0  0
   -1.9343   21.5512  -29.0606 H   0  0  0  0  0  0  0  0  0  0  0  0
    0.9211   20.5840  -28.5585 H   0  0  0  0  0  0  0  0  0  0  0  0
    0.3993   22.2236  -29.1607 H   0  0  0  0  0  0  0  0  0  0  0  0
   -2.1274   23.2774  -29.1222 H   0  0  0  0  0  0  0  0  0  0  0  0
  1  2  2  0
  2  3  1  0
  3  4  1  0
  4  5  2  0
  5  6  1  0
  6  7  2  0
  7  8  1  0
  8  9  2  0
  8 10  2  0
  8 11  1  0
 11 12  1  0
 12 13  1  0
 13 14  1  0
 14 15  1  0
 15 16  1  0
  7 17  1  0
 17 18  2  0
  2 19  1  0
 19 20  1  0
 20 21  2  0
 21 22  1  0
 22 23  2  0
 23 24  1  0
 24 25  1  0
 25 26  2  0
 25 27  2  0
 25 28  1  0
 28 29  1  0
 29 30  1  0
 30 31  1  0
 31 32  1  0
 32 33  1  0
 24 34  2  0
 18  4  1  0
 34 20  1  0
 16 11  1  0
 33 28  1  0
  5 35  1  0
  6 36  1  0
 12 37  1  0
 12 38  1  0
 13 39  1  0
 13 40  1  0
 15 41  1  0
 15 42  1  0
 16 43  1  0
 16 44  1  0
 17 45  1  0
 18 46  1  0
 19 47  1  0
 21 48  1  0
 22 49  1  0
 23 50  1  0
 29 51  1  0
 29 52  1  0
 30 53  1  0
 30 54  1  0
 31 55  1  0
 31 56  1  0
 32 57  1  0
 32 58  1  0
 33 59  1  0
 33 60  1  0
 34 61  1  0
M  CHG  1   3  -1
M  END
>  <UniqueID>  (8) 
8

>  <SMILES>  (8) 
O=C([N-]c1ccc(S(=O)(=O)N2CCOCC2)cc1)Nc1cccc(S(=O)(=O)N2CCCCC2)c1

>  <Energy>  (8) 
84.1014380787092

>  <Genealogy>  (8) 
O=C([N-]c1ccc(S(=O)(=O)N2CCOCC2)cc1)Nc1cccc(S(=O)(=O)N2CCCCC2)c1 (protonated)
O=C([N-]c1ccc(S(=O)(=O)N2CCOCC2)cc1)Nc1cccc(S(=O)(=O)N2CCCCC2)c1 (3D coordinates assigned)
O=C([N-]c1ccc(S(=O)(=O)N2CCOCC2)cc1)Nc1cccc(S(=O)(=O)N2CCCCC2)c1 (nonaromatic ring conformer: 84.1014380787092 kcal/mol)

>  <smiles>  (8) 
O=C(Nc1ccc(S(=O)(=O)N2CCOCC2)cc1)Nc1cccc(S(=O)(=O)N2CCCCC2)c1

>  <score_type>  (8) 
oracle

>  <origin>  (8) 
adgpu

>  <m_score__min__energy>  (8) 
-12.050000000000001

>  <m_primary>  (8) 
energy

$$$$
8:0
     RDKit          3D

 63 67  0  0  0  0  0  0  0  0999 V2000
   -2.5750   21.5480  -33.0980 C   0  0  0  0  0  0  0  0  0  0  0  0
   -1.1810   21.7020  -33.3520 O   0  0  0  0  0  0  0  0  0  0  0  0
   -0.4470   20.9460  -34.2760 C   0  0  0  0  0  0  0  0  0  0  0  0
    0.5070   21.5500  -35.1210 C   0  0  0  0  0  0  0  0  0  0  0  0
    1.1930   20.7950  -36.0710 C   0  0  0  0  0  0  0  0  0  0  0  0
    0.9260   19.4350  -36.2120 C   0  0  0  0  0  0  0  0  0  0  0  0
   -0.0180   18.8110  -35.3840 C   0  0  0  0  0  0  0  0  0  0  0  0
   -0.2670   17.3320  -35.5340 C   0  0  0  0  0  0  0  0  0  0  0  0
   -1.6770   17.0150  -35.3040 N   0  0  0  0  0  0  0  0  0  0  0  0
   -2.1940   15.6950  -35.5240 C   0  0  0  0  0  0  0  0  0  0  0  0
   -1.3700   14.7400  -36.1260 C   0  0  0  0  0  0  0  0  0  0  0  0
   -1.8240   13.4330  -36.2780 C   0  0  0  0  0  0  0  0  0  0  0  0
   -3.0600   13.0810  -35.8410 N   0  0  0  0  0  0  0  0  0  0  0  0
   -3.9000   13.9880  -35.2650 C   0  0  0  0  0  0  0  0  0  0  0  0
   -5.0570   13.6150  -34.9230 O   0  0  0  0  0  0  0  0  0  0  0  0
   -3.4890   15.3300  -35.0830 C   0  0  0  0  0  0  0  0  0  0  0  0
   -4.4160   16.3340  -34.4820 C   0  0  0  0  0  0  0  0  0  0  0  0
   -5.4500   16.0070  -33.6590 N   0  0  0  0  0  0  0  0  0  0  0  0
   -6.0070   17.1940  -33.3900 C   0  0  0  0  0  0  0  0  0  0  0  0
   -7.1150   17.4530  -32.5880 C   0  0  0  0  0  0  0  0  0  0  0  0
   -7.5320   18.7970  -32.4520 C   0  0  0  0  0  0  0  0  0  0  0  0
   -8.7350   19.1300  -31.6170 C   0  0  0  0  0  0  0  0  0  0  0  0
   -6.8210   19.8350  -33.1220 C   0  0  0  0  0  0  0  0  0  0  0  0
   -7.2210   21.1720  -32.9560 O   0  0  0  0  0  0  0  0  0  0  0  0
   -6.8730   21.9610  -31.8510 C   0  0  0  0  0  0  0  0  0  0  0  0
   -7.7900   22.2120  -30.8150 C   0  0  0  0  0  0  0  0  0  0  0  0
   -7.4180   23.0370  -29.7530 C   0  0  0  0  0  0  0  0  0  0  0  0
   -6.1760   23.5920  -29.7240 N   0  0  0  0  0  0  0  0  0  0  0  0
   -5.2560   23.3420  -30.6970 C   0  0  0  0  0  0  0  0  0  0  0  0
   -3.9660   24.0290  -30.6620 C   0  0  0  0  0  0  0  0  0  0  0  0
   -3.9080   25.4420  -30.4750 N   0  0  0  0  0  0  0  0  0  0  0  0
   -2.9050   23.3690  -30.8410 O   0  0  0  0  0  0  0  0  0  0  0  0
   -5.5870   22.5050  -31.7730 C   0  0  0  0  0  0  0  0  0  0  0  0
   -5.7040   19.5120  -33.9280 C   0  0  0  0  0  0  0  0  0  0  0  0
   -5.3330   18.1790  -34.0290 C   0  0  0  0  0  0  0  0  0  0  0  0
   -4.3180   17.6670  -34.7340 N   0  0  0  0  0  0  0  0  0  0  0  0
   -0.6870   19.5540  -34.3880 C   0  0  0  0  0  0  0  0  0  0  0  0
   -1.5780   18.8710  -33.5430 O   0  0  0  0  0  0  0  0  0  0  0  0
   -1.2110   18.2220  -32.3260 C   0  0  0  0  0  0  0  0  0  0  0  0
   -2.7499   21.5287  -32.0122 H   0  0  0  0  0  0  0  0  0  0  0  0
   -3.1241   22.3909  -33.5429 H   0  0  0  0  0  0  0  0  0  0  0  0
   -2.9268   20.6055  -33.5429 H   0  0  0  0  0  0  0  0  0  0  0  0
    0.7117   22.6269  -35.0296 H   0  0  0  0  0  0  0  0  0  0  0  0
    1.9477   21.2747  -36.7115 H   0  0  0  0  0  0  0  0  0  0  0  0
    1.4577   18.8485  -36.9757 H   0  0  0  0  0  0  0  0  0  0  0  0
    0.0108   17.0212  -36.5520 H   0  0  0  0  0  0  0  0  0  0  0  0
    0.3402   16.7956  -34.7900 H   0  0  0  0  0  0  0  0  0  0  0  0
   -2.3550   17.8090  -35.2510 H   0  0  0  0  0  0  0  0  0  0  0  0
   -0.3664   15.0202  -36.4784 H   0  0  0  0  0  0  0  0  0  0  0  0
   -1.1777   12.6813  -36.7548 H   0  0  0  0  0  0  0  0  0  0  0  0
   -3.3770   12.0940  -35.9730 H   0  0  0  0  0  0  0  0  0  0  0  0
   -7.6488   16.6383  -32.0767 H   0  0  0  0  0  0  0  0  0  0  0  0
   -8.4730   19.0575  -30.5511 H   0  0  0  0  0  0  0  0  0  0  0  0
   -9.0670   20.1538  -31.8441 H   0  0  0  0  0  0  0  0  0  0  0  0
   -9.5462   18.4226  -31.8441 H   0  0  0  0  0  0  0  0  0  0  0  0
   -8.7931   21.7613  -30.8416 H   0  0  0  0  0  0  0  0  0  0  0  0
   -8.1293   23.2389  -28.9386 H   0  0  0  0  0  0  0  0  0  0  0  0
   -3.5030   26.0430  -31.2230 H   0  0  0  0  0  0  0  0  0  0  0  0
   -4.8411   22.2784  -32.5491 H   0  0  0  0  0  0  0  0  0  0  0  0
   -5.1452   20.2961  -34.4599 H   0  0  0  0  0  0  0  0  0  0  0  0
   -1.5520   18.8250  -31.4716 H   0  0  0  0  0  0  0  0  0  0  0  0
   -1.6809   17.2283  -32.2842 H   0  0  0  0  0  0  0  0  0  0  0  0
   -0.1173   18.1125  -32.2842 H   0  0  0  0  0  0  0  0  0  0  0  0
  1  2  1  0
  2  3  1  0
  3  4  2  0
  4  5  1  0
  5  6  2  0
  6  7  1  0
  7  8  1  0
  8  9  1  0
  9 10  1  0
 10 11  1  0
 11 12  2  0
 12 13  1  0
 13 14  1  0
 14 15  2  0
 14 16  1  0
 16 17  1  0
 17 18  2  0
 18 19  1  0
 19 20  2  0
 20 21  1  0
 21 22  1  0
 21 23  2  0
 23 24  1  0
 24 25  1  0
 25 26  2  0
 26 27  1  0
 27 28  2  0
 28 29  1  0
 29 30  1  0
 30 31  1  0
 30 32  2  0
 29 33  2  0
 23 34  1  0
 34 35  2  0
 35 36  1  0
  7 37  2  0
 37 38  1  0
 38 39  1  0
 37  3  1  0
 16 10  2  0
 36 17  1  0
 35 19  1  0
 33 25  1  0
  1 40  1  0
  1 41  1  0
  1 42  1  0
  4 43  1  0
  5 44  1  0
  6 45  1  0
  8 46  1  0
  8 47  1  0
  9 48  1  0
 11 49  1  0
 12 50  1  0
 13 51  1  0
 20 52  1  0
 22 53  1  0
 22 54  1  0
 22 55  1  0
 26 56  1  0
 27 57  1  0
 31 58  1  0
 33 59  1  0
 34 60  1  0
 39 61  1  0
 39 62  1  0
 39 63  1  0
M  CHG  2  31  -1  36  -1
M  END
>  <UniqueID>  (9) 
9

>  <SMILES>  (9) 
COc1cccc(CNc2cc[nH]c(=O)c2-c2nc3cc(C)c(Oc4ccnc(C([NH-])=O)c4)cc3[n-]2)c1OC

>  <Energy>  (9) 
130.73356234596906

>  <Genealogy>  (9) 
COc1cccc(CNc2cc[nH]c(=O)c2-c2nc3cc(C)c(Oc4ccnc(C([NH-])=O)c4)cc3[n-]2)c1OC (protonated)
COc1cccc(CNc2cc[nH]c(=O)c2-c2nc3cc(C)c(Oc4ccnc(C([NH-])=O)c4)cc3[n-]2)c1OC (3D coordinates assigned)
COc1cccc(CNc2cc[nH]c(=O)c2-c2nc3cc(C)c(Oc4ccnc(C([NH-])=O)c4)cc3[n-]2)c1OC (optimized conformer: 130.73356234596906 kcal/mol)

>  <smiles>  (9) 
COc1cccc(CNc2cc[nH]c(=O)c2-c2nc3cc(C)c(Oc4ccnc(C(N)=O)c4)cc3[nH]2)c1OC

>  <score_type>  (9) 
oracle

>  <origin>  (9) 
adgpu

>  <m_score__min__energy>  (9) 
-11.539999999999999

>  <m_primary>  (9) 
energy

$$$$
9:0
     RDKit          3D

 44 46  0  0  0  0  0  0  0  0999 V2000
   -3.0810   15.7150  -37.3280 H   0  0  0  0  0  0  0  0  0  0  0  0
   -2.8450   14.7170  -37.1290 N   0  0  0  0  0  0  0  0  0  0  0  0
   -3.2010   14.4380  -35.4620 S   0  0  0  0  0  0  0  0  0  0  0  0
   -4.5080   13.7040  -35.3460 O   0  0  0  0  0  0  0  0  0  0  0  0
   -2.1190   13.5930  -34.8520 O   0  0  0  0  0  0  0  0  0  0  0  0
   -3.3100   15.9800  -34.6180 C   0  0  0  0  0  0  0  0  0  0  0  0
   -2.1600   16.7460  -34.3970 C   0  0  0  0  0  0  0  0  0  0  0  0
   -1.1815   16.3786  -34.7399 H   0  0  0  0  0  0  0  0  0  0  0  0
   -2.2520   17.9760  -33.7420 C   0  0  0  0  0  0  0  0  0  0  0  0
   -1.3417   18.5658  -33.5592 H   0  0  0  0  0  0  0  0  0  0  0  0
   -3.4930   18.4650  -33.3160 C   0  0  0  0  0  0  0  0  0  0  0  0
   -3.5320   19.7410  -32.6680 N   0  0  0  0  0  0  0  0  0  0  0  0
   -2.5940   20.1600  -31.8740 C   0  0  0  0  0  0  0  0  0  0  0  0
   -1.7353   19.5068  -31.6599 H   0  0  0  0  0  0  0  0  0  0  0  0
   -2.6600   21.4970  -31.2540 C   0  0  0  0  0  0  0  0  0  0  0  0
   -3.7800   22.3310  -31.4260 C   0  0  0  0  0  0  0  0  0  0  0  0
   -4.6320   21.9867  -32.0307 H   0  0  0  0  0  0  0  0  0  0  0  0
   -3.8140   23.5960  -30.8310 C   0  0  0  0  0  0  0  0  0  0  0  0
   -4.6931   24.2430  -30.9672 H   0  0  0  0  0  0  0  0  0  0  0  0
   -2.7340   24.0400  -30.0640 C   0  0  0  0  0  0  0  0  0  0  0  0
   -2.7700   25.2980  -29.4740 O   0  0  0  0  0  0  0  0  0  0  0  0
   -1.6170   23.2180  -29.8890 C   0  0  0  0  0  0  0  0  0  0  0  0
   -0.7669   23.5676  -29.2848 H   0  0  0  0  0  0  0  0  0  0  0  0
   -1.5790   21.9520  -30.4810 C   0  0  0  0  0  0  0  0  0  0  0  0
   -0.6978   21.3087  -30.3407 H   0  0  0  0  0  0  0  0  0  0  0  0
   -4.6560   17.6800  -33.5050 C   0  0  0  0  0  0  0  0  0  0  0  0
   -6.2340   18.1700  -32.8710 S   0  0  0  0  0  0  0  0  0  0  0  0
   -6.1480   18.3070  -31.3770 O   0  0  0  0  0  0  0  0  0  0  0  0
   -7.2710   17.1470  -33.2420 O   0  0  0  0  0  0  0  0  0  0  0  0
   -6.6820   19.6940  -33.5670 N   0  0  0  0  0  0  0  0  0  0  0  0
   -7.2360   20.8070  -32.8500 C   0  0  0  0  0  0  0  0  0  0  0  0
   -6.5300   22.0160  -32.7020 C   0  0  0  0  0  0  0  0  0  0  0  0
   -5.5283   22.1225  -33.1439 H   0  0  0  0  0  0  0  0  0  0  0  0
   -7.0960   23.0820  -31.9960 C   0  0  0  0  0  0  0  0  0  0  0  0
   -6.5396   24.0244  -31.8853 H   0  0  0  0  0  0  0  0  0  0  0  0
   -8.3670   22.9520  -31.4310 C   0  0  0  0  0  0  0  0  0  0  0  0
   -8.8101   23.7913  -30.8749 H   0  0  0  0  0  0  0  0  0  0  0  0
   -9.0750   21.7570  -31.5720 C   0  0  0  0  0  0  0  0  0  0  0  0
  -10.0759   21.6573  -31.1267 H   0  0  0  0  0  0  0  0  0  0  0  0
   -8.5160   20.6850  -32.2780 C   0  0  0  0  0  0  0  0  0  0  0  0
   -9.4540   19.1650  -32.4420 S   0  0  0  0  0  0  0  0  0  0  0  0
   -8.6190   18.6980  -33.4740 H   0  0  0  0  0  0  0  0  0  0  0  0
   -4.5520   16.4510  -34.1760 C   0  0  0  0  0  0  0  0  0  0  0  0
   -5.4565   15.8516  -34.3564 H   0  0  0  0  0  0  0  0  0  0  0  0
  1  2  1  0
  2  3  1  0
  3  4  2  0
  3  5  2  0
  3  6  1  0
  6  7  2  0
  7  8  1  0
  7  9  1  0
  9 10  1  0
  9 11  2  0
 11 12  1  0
 12 13  2  0
 13 14  1  0
 13 15  1  0
 15 16  2  0
 16 17  1  0
 16 18  1  0
 18 19  1  0
 18 20  2  0
 20 21  1  0
 20 22  1  0
 22 23  1  0
 22 24  2  0
 24 25  1  0
 11 26  1  0
 26 27  1  0
 27 28  2  0
 27 29  2  0
 27 30  1  0
 30 31  1  0
 31 32  2  0
 32 33  1  0
 32 34  1  0
 34 35  1  0
 34 36  2  0
 36 37  1  0
 36 38  1  0
 38 39  1  0
 38 40  2  0
 40 41  1  0
 41 42  1  0
 26 43  2  0
 43 44  1  0
 43  6  1  0
 24 15  1  0
 40 31  1  0
M  CHG  3   2  -1  21  -1  30  -1
M  END
>  <UniqueID>  (10) 
10

>  <SMILES>  (10) 
[NH-]S(=O)(=O)c1ccc(/N=C/c2ccc([O-])cc2)c(S(=O)(=O)[N-]c2ccccc2S)c1

>  <Energy>  (10) 
57.48555601231321

>  <Genealogy>  (10) 
[NH-]S(=O)(=O)c1ccc(N=Cc2ccc([O-])cc2)c(S(=O)(=O)[N-]c2ccccc2S)c1 (protonated)
[NH-]S(=O)(=O)c1ccc(/N=C/c2ccc([O-])cc2)c(S(=O)(=O)[N-]c2ccccc2S)c1 (cis-trans isomerization)
[NH-]S(=O)(=O)c1ccc(/N=C/c2ccc([O-])cc2)c(S(=O)(=O)[N-]c2ccccc2S)c1 (3D coordinates assigned)
[NH-]S(=O)(=O)c1ccc(/N=C/c2ccc([O-])cc2)c(S(=O)(=O)[N-]c2ccccc2S)c1 (optimized conformer: 57.48555601231321 kcal/mol)

>  <smiles>  (10) 
NS(=O)(=O)c1ccc(N=Cc2ccc(O)cc2)c(S(=O)(=O)Nc2ccccc2S)c1

>  <score_type>  (10) 
oracle

>  <origin>  (10) 
adgpu

>  <m_score__min__energy>  (10) 
-11

>  <m_primary>  (10) 
energy

$$$$
10:0
     RDKit          3D

 53 56  0  0  0  0  0  0  0  0999 V2000
   -8.7190   18.5600  -31.6150 C   0  0  0  0  0  0  0  0  0  0  0  0
   -7.7500   19.6630  -31.9130 C   0  0  0  0  0  0  0  0  0  0  0  0
   -6.5580   19.3890  -32.5930 C   0  0  0  0  0  0  0  0  0  0  0  0
   -5.6700   20.4320  -32.8680 C   0  0  0  0  0  0  0  0  0  0  0  0
   -5.9760   21.7380  -32.4660 C   0  0  0  0  0  0  0  0  0  0  0  0
   -5.0870   22.7830  -32.7240 O   0  0  0  0  0  0  0  0  0  0  0  0
   -7.1890   21.9800  -31.7930 C   0  0  0  0  0  0  0  0  0  0  0  0
   -7.5360   23.3530  -31.2820 C   0  0  0  0  0  0  0  0  0  0  0  0
   -6.3180   24.0480  -30.8790 N   0  0  0  0  0  0  0  0  0  0  0  0
   -5.4990   23.7150  -29.8660 C   0  0  0  0  0  0  0  0  0  0  0  0
   -4.3910   24.5210  -29.9980 C   0  0  0  0  0  0  0  0  0  0  0  0
   -3.1130   24.3640  -29.2980 C   0  0  0  0  0  0  0  0  0  0  0  0
   -2.2740   25.2990  -29.3120 O   0  0  0  0  0  0  0  0  0  0  0  0
   -2.7940   23.1240  -28.6570 N   0  0  0  0  0  0  0  0  0  0  0  0
   -2.1270   22.0660  -29.3560 C   0  0  0  0  0  0  0  0  0  0  0  0
   -1.4960   21.0350  -28.6440 C   0  0  0  0  0  0  0  0  0  0  0  0
   -0.9220   19.9580  -29.3240 C   0  0  0  0  0  0  0  0  0  0  0  0
   -0.9850   19.9000  -30.7170 C   0  0  0  0  0  0  0  0  0  0  0  0
   -1.6080   20.9270  -31.4370 C   0  0  0  0  0  0  0  0  0  0  0  0
   -1.7840   20.7690  -33.1810 S   0  0  0  0  0  0  0  0  0  0  0  0
   -1.9560   19.3230  -33.5570 O   0  0  0  0  0  0  0  0  0  0  0  0
   -3.0020   21.5370  -33.6160 O   0  0  0  0  0  0  0  0  0  0  0  0
   -0.3640   21.4220  -33.9590 N   0  0  0  0  0  0  0  0  0  0  0  0
    0.8540   20.8250  -33.3780 C   0  0  0  0  0  0  0  0  0  0  0  0
    2.0810   21.0820  -34.2750 C   0  0  0  0  0  0  0  0  0  0  0  0
    1.8310   22.1510  -35.1660 O   0  0  0  0  0  0  0  0  0  0  0  0
    0.8210   21.7810  -36.0910 C   0  0  0  0  0  0  0  0  0  0  0  0
   -0.4210   21.1700  -35.4050 C   0  0  0  0  0  0  0  0  0  0  0  0
   -2.1630   22.0220  -30.7550 C   0  0  0  0  0  0  0  0  0  0  0  0
   -4.5560   25.3020  -31.0830 N   0  0  0  0  0  0  0  0  0  0  0  0
   -5.7410   25.0020  -31.5920 N   0  0  0  0  0  0  0  0  0  0  0  0
   -8.0300   20.9390  -31.5270 N   0  0  0  0  0  0  0  0  0  0  0  0
   -8.8200   18.4450  -30.5257 H   0  0  0  0  0  0  0  0  0  0  0  0
   -9.6990   18.8053  -32.0502 H   0  0  0  0  0  0  0  0  0  0  0  0
   -8.3495   17.6198  -32.0502 H   0  0  0  0  0  0  0  0  0  0  0  0
   -6.3223   18.3618  -32.9081 H   0  0  0  0  0  0  0  0  0  0  0  0
   -4.7297   20.2271  -33.4008 H   0  0  0  0  0  0  0  0  0  0  0  0
   -4.6720   22.9170  -33.6410 H   0  0  0  0  0  0  0  0  0  0  0  0
   -8.0369   23.9239  -32.0777 H   0  0  0  0  0  0  0  0  0  0  0  0
   -8.2076   23.2612  -30.4157 H   0  0  0  0  0  0  0  0  0  0  0  0
   -5.6776   22.9549  -29.0912 H   0  0  0  0  0  0  0  0  0  0  0  0
   -1.4530   21.0748  -27.5456 H   0  0  0  0  0  0  0  0  0  0  0  0
   -0.4207   19.1563  -28.7619 H   0  0  0  0  0  0  0  0  0  0  0  0
   -0.5441   19.0453  -31.2509 H   0  0  0  0  0  0  0  0  0  0  0  0
    1.0340   21.2684  -32.3876 H   0  0  0  0  0  0  0  0  0  0  0  0
    0.7043   19.7385  -33.2941 H   0  0  0  0  0  0  0  0  0  0  0  0
    2.9450   21.3333  -33.6423 H   0  0  0  0  0  0  0  0  0  0  0  0
    2.2890   20.1740  -34.8600 H   0  0  0  0  0  0  0  0  0  0  0  0
    0.5099   22.6764  -36.6492 H   0  0  0  0  0  0  0  0  0  0  0  0
    1.2444   21.0138  -36.7559 H   0  0  0  0  0  0  0  0  0  0  0  0
   -1.3305   21.6287  -35.8202 H   0  0  0  0  0  0  0  0  0  0  0  0
   -0.4386   20.0849  -35.5846 H   0  0  0  0  0  0  0  0  0  0  0  0
   -2.6258   22.8448  -31.3197 H   0  0  0  0  0  0  0  0  0  0  0  0
  1  2  1  0
  2  3  2  0
  3  4  1  0
  4  5  2  0
  5  6  1  0
  5  7  1  0
  7  8  1  0
  8  9  1  0
  9 10  1  0
 10 11  2  0
 11 12  1  0
 12 13  2  0
 12 14  1  0
 14 15  1  0
 15 16  2  0
 16 17  1  0
 17 18  2  0
 18 19  1  0
 19 20  1  0
 20 21  2  0
 20 22  2  0
 20 23  1  0
 23 24  1  0
 24 25  1  0
 25 26  1  0
 26 27  1  0
 27 28  1  0
 19 29  2  0
 11 30  1  0
 30 31  2  0
  7 32  2  0
 32  2  1  0
 31  9  1  0
 29 15  1  0
 28 23  1  0
  1 33  1  0
  1 34  1  0
  1 35  1  0
  3 36  1  0
  4 37  1  0
  6 38  1  0
  8 39  1  0
  8 40  1  0
 10 41  1  0
 16 42  1  0
 17 43  1  0
 18 44  1  0
 24 45  1  0
 24 46  1  0
 25 47  1  0
 25 48  1  0
 27 49  1  0
 27 50  1  0
 28 51  1  0
 28 52  1  0
 29 53  1  0
M  CHG  1  14  -1
M  END
>  <UniqueID>  (11) 
11

>  <SMILES>  (11) 
Cc1ccc(O)c(Cn2cc(C(=O)[N-]c3cccc(S(=O)(=O)N4CCOCC4)c3)nn2)n1

>  <Energy>  (11) 
104.80302018996217

>  <Genealogy>  (11) 
Cc1ccc(O)c(Cn2cc(C(=O)[N-]c3cccc(S(=O)(=O)N4CCOCC4)c3)nn2)n1 (protonated)
Cc1ccc(O)c(Cn2cc(C(=O)[N-]c3cccc(S(=O)(=O)N4CCOCC4)c3)nn2)n1 (3D coordinates assigned)
Cc1ccc(O)c(Cn2cc(C(=O)[N-]c3cccc(S(=O)(=O)N4CCOCC4)c3)nn2)n1 (nonaromatic ring conformer: 104.80302018996217 kcal/mol)

>  <smiles>  (11) 
Cc1ccc(O)c(Cn2cc(C(=O)Nc3cccc(S(=O)(=O)N4CCOCC4)c3)nn2)n1

>  <score_type>  (11) 
oracle

>  <origin>  (11) 
adgpu

>  <m_score__min__energy>  (11) 
-11.5

>  <m_primary>  (11) 
energy

$$$$
11:0
     RDKit          3D

 59 62  0  0  0  0  0  0  0  0999 V2000
   -5.5470   15.7700  -33.2670 C   0  0  0  0  0  0  0  0  0  0  0  0
   -5.0320   17.1620  -33.5020 C   0  0  0  0  0  0  0  0  0  0  0  0
   -5.8110   18.2870  -33.7030 C   0  0  0  0  0  0  0  0  0  0  0  0
   -7.2380   18.3380  -33.7170 N   0  0  0  0  0  0  0  0  0  0  0  0
   -8.1130   18.9050  -32.3410 S   0  0  0  0  0  0  0  0  0  0  0  0
   -9.5890   18.9220  -32.6260 O   0  0  0  0  0  0  0  0  0  0  0  0
   -7.8580   17.9920  -31.1770 O   0  0  0  0  0  0  0  0  0  0  0  0
   -7.5300   20.5210  -31.9600 C   0  0  0  0  0  0  0  0  0  0  0  0
   -8.3320   21.6340  -32.2480 C   0  0  0  0  0  0  0  0  0  0  0  0
   -7.9140   22.9170  -31.8820 C   0  0  0  0  0  0  0  0  0  0  0  0
   -6.6950   23.0990  -31.2010 C   0  0  0  0  0  0  0  0  0  0  0  0
   -6.2250   24.4040  -30.8340 N   0  0  0  0  0  0  0  0  0  0  0  0
   -4.9250   24.7100  -30.3200 C   0  0  0  0  0  0  0  0  0  0  0  0
   -4.2490   25.6480  -30.8270 O   0  0  0  0  0  0  0  0  0  0  0  0
   -4.4090   23.9520  -29.2150 N   0  0  0  0  0  0  0  0  0  0  0  0
   -3.1370   24.2010  -28.5960 C   0  0  0  0  0  0  0  0  0  0  0  0
   -1.9630   24.0270  -29.3440 C   0  0  0  0  0  0  0  0  0  0  0  0
   -0.7120   24.2670  -28.7670 C   0  0  0  0  0  0  0  0  0  0  0  0
   -0.6170   24.6650  -27.4280 C   0  0  0  0  0  0  0  0  0  0  0  0
    0.9510   25.0040  -26.6980 S   0  0  0  0  0  0  0  0  0  0  0  0
    2.1790   24.9430  -27.9150 N   0  0  0  0  0  0  0  0  0  0  0  0
    0.9290   26.3680  -26.0680 O   0  0  0  0  0  0  0  0  0  0  0  0
    1.2580   23.9850  -25.6380 O   0  0  0  0  0  0  0  0  0  0  0  0
   -1.7860   24.8170  -26.6680 C   0  0  0  0  0  0  0  0  0  0  0  0
   -3.0370   24.5770  -27.2450 C   0  0  0  0  0  0  0  0  0  0  0  0
   -5.8890   21.9840  -30.9240 C   0  0  0  0  0  0  0  0  0  0  0  0
   -6.3090   20.7000  -31.2910 C   0  0  0  0  0  0  0  0  0  0  0  0
   -4.9310   19.3480  -33.6880 C   0  0  0  0  0  0  0  0  0  0  0  0
   -5.2320   20.5570  -33.8440 O   0  0  0  0  0  0  0  0  0  0  0  0
   -3.6770   18.8840  -33.5070 N   0  0  0  0  0  0  0  0  0  0  0  0
   -2.4810   19.6820  -33.4910 C   0  0  0  0  0  0  0  0  0  0  0  0
   -2.3130   20.6860  -32.5230 C   0  0  0  0  0  0  0  0  0  0  0  0
   -1.1350   21.4380  -32.4860 C   0  0  0  0  0  0  0  0  0  0  0  0
   -0.1150   21.1880  -33.4090 C   0  0  0  0  0  0  0  0  0  0  0  0
   -0.2720   20.1880  -34.3740 C   0  0  0  0  0  0  0  0  0  0  0  0
   -1.4490   19.4350  -34.4140 C   0  0  0  0  0  0  0  0  0  0  0  0
   -3.7400   17.5580  -33.3620 N   0  0  0  0  0  0  0  0  0  0  0  0
   -2.6010   16.6790  -33.0800 C   0  0  0  0  0  0  0  0  0  0  0  0
   -5.6164   15.5825  -32.1853 H   0  0  0  0  0  0  0  0  0  0  0  0
   -6.5431   15.6659  -33.7218 H   0  0  0  0  0  0  0  0  0  0  0  0
   -4.8585   15.0426  -33.7218 H   0  0  0  0  0  0  0  0  0  0  0  0
   -9.2939   21.4975  -32.7639 H   0  0  0  0  0  0  0  0  0  0  0  0
   -8.5399   23.7878  -32.1270 H   0  0  0  0  0  0  0  0  0  0  0  0
   -4.9180   23.0790  -28.9570 H   0  0  0  0  0  0  0  0  0  0  0  0
   -2.0270   23.6994  -30.3921 H   0  0  0  0  0  0  0  0  0  0  0  0
    0.2012   24.1426  -29.3676 H   0  0  0  0  0  0  0  0  0  0  0  0
    1.7480   24.4970  -28.7560 H   0  0  0  0  0  0  0  0  0  0  0  0
   -1.7185   25.1261  -25.6145 H   0  0  0  0  0  0  0  0  0  0  0  0
   -3.9483   24.6830  -26.6382 H   0  0  0  0  0  0  0  0  0  0  0  0
   -4.9227   22.1196  -30.4161 H   0  0  0  0  0  0  0  0  0  0  0  0
   -5.6804   19.8288  -31.0545 H   0  0  0  0  0  0  0  0  0  0  0  0
   -3.1111   20.8812  -31.7916 H   0  0  0  0  0  0  0  0  0  0  0  0
   -1.0105   22.2272  -31.7299 H   0  0  0  0  0  0  0  0  0  0  0  0
    0.8123   21.7787  -33.3761 H   0  0  0  0  0  0  0  0  0  0  0  0
    0.5303   19.9941  -35.1011 H   0  0  0  0  0  0  0  0  0  0  0  0
   -1.5686   18.6457  -35.1708 H   0  0  0  0  0  0  0  0  0  0  0  0
   -2.4741   16.5810  -31.9918 H   0  0  0  0  0  0  0  0  0  0  0  0
   -2.7859   15.6872  -33.5183 H   0  0  0  0  0  0  0  0  0  0  0  0
   -1.6885   17.1093  -33.5183 H   0  0  0  0  0  0  0  0  0  0  0  0
  1  2  1  0
  2  3  2  0
  3  4  1  0
  4  5  1  0
  5  6  2  0
  5  7  2  0
  5  8  1  0
  8  9  2  0
  9 10  1  0
 10 11  2  0
 11 12  1  0
 12 13  1  0
 13 14  2  0
 13 15  1  0
 15 16  1  0
 16 17  2  0
 17 18  1  0
 18 19  2  0
 19 20  1  0
 20 21  1  0
 20 22  2  0
 20 23  2  0
 19 24  1  0
 24 25  2  0
 11 26  1  0
 26 27  2  0
  3 28  1  0
 28 29  2  0
 28 30  1  0
 30 31  1  0
 31 32  2  0
 32 33  1  0
 33 34  2  0
 34 35  1  0
 35 36  2  0
 30 37  1  0
 37 38  1  0
 37  2  1  0
 27  8  1  0
 36 31  1  0
 25 16  1  0
  1 39  1  0
  1 40  1  0
  1 41  1  0
  9 42  1  0
 10 43  1  0
 15 44  1  0
 17 45  1  0
 18 46  1  0
 21 47  1  0
 24 48  1  0
 25 49  1  0
 26 50  1  0
 27 51  1  0
 32 52  1  0
 33 53  1  0
 34 54  1  0
 35 55  1  0
 36 56  1  0
 38 57  1  0
 38 58  1  0
 38 59  1  0
M  CHG  3   4  -1  12  -1  21  -1
M  END
>  <UniqueID>  (12) 
12

>  <SMILES>  (12) 
Cc1c([N-]S(=O)(=O)c2ccc([N-]C(=O)Nc3ccc(S([NH-])(=O)=O)cc3)cc2)c(=O)n(-c2ccccc2)n1C

>  <Energy>  (12) 
118.25407466837517

>  <Genealogy>  (12) 
Cc1c([N-]S(=O)(=O)c2ccc([N-]C(=O)Nc3ccc(S([NH-])(=O)=O)cc3)cc2)c(=O)n(-c2ccccc2)n1C (protonated)
Cc1c([N-]S(=O)(=O)c2ccc([N-]C(=O)Nc3ccc(S([NH-])(=O)=O)cc3)cc2)c(=O)n(-c2ccccc2)n1C (3D coordinates assigned)
Cc1c([N-]S(=O)(=O)c2ccc([N-]C(=O)Nc3ccc(S([NH-])(=O)=O)cc3)cc2)c(=O)n(-c2ccccc2)n1C (optimized conformer: 118.25407466837517 kcal/mol)

>  <smiles>  (12) 
Cc1c(NS(=O)(=O)c2ccc(NC(=O)Nc3ccc(S(N)(=O)=O)cc3)cc2)c(=O)n(-c2ccccc2)n1C

>  <score_type>  (12) 
oracle

>  <origin>  (12) 
adgpu

>  <m_score__min__energy>  (12) 
-11.42

>  <m_primary>  (12) 
energy

$$$$
12:0
     RDKit          3D

 31 33  0  0  0  0  0  0  0  0999 V2000
   -5.1881   15.7965  -34.3246 H   0  0  0  0  0  0  0  0  0  0  0  0
   -5.5870   16.7300  -33.9010 C   0  0  0  0  0  0  0  0  0  0  0  0
   -6.8880   16.7640  -33.3940 C   0  0  0  0  0  0  0  0  0  0  0  0
   -7.5100   15.8571  -33.4204 H   0  0  0  0  0  0  0  0  0  0  0  0
   -7.4030   17.9460  -32.8530 C   0  0  0  0  0  0  0  0  0  0  0  0
   -8.4284   17.9674  -32.4553 H   0  0  0  0  0  0  0  0  0  0  0  0
   -6.6120   19.1060  -32.8170 C   0  0  0  0  0  0  0  0  0  0  0  0
   -7.1170   20.2980  -32.2760 C   0  0  0  0  0  0  0  0  0  0  0  0
   -8.1424   20.3290  -31.8790 H   0  0  0  0  0  0  0  0  0  0  0  0
   -6.3180   21.4500  -32.2400 C   0  0  0  0  0  0  0  0  0  0  0  0
   -6.9400   22.9450  -31.5460 S   0  0  0  0  0  0  0  0  0  0  0  0
   -8.1330   23.3920  -32.3430 O   0  0  0  0  0  0  0  0  0  0  0  0
   -7.3580   22.7340  -30.1170 O   0  0  0  0  0  0  0  0  0  0  0  0
   -5.7210   24.1790  -31.6030 N   0  0  0  0  0  0  0  0  0  0  0  0
   -4.8000   24.3410  -30.7020 C   0  0  0  0  0  0  0  0  0  0  0  0
   -3.8640   25.3030  -30.7820 N   0  0  0  0  0  0  0  0  0  0  0  0
   -3.1100   25.1700  -29.7290 O   0  0  0  0  0  0  0  0  0  0  0  0
   -3.5170   24.1730  -28.9760 C   0  0  0  0  0  0  0  0  0  0  0  0
   -2.8560   23.7420  -27.7110 C   0  0  0  0  0  0  0  0  0  0  0  0
   -3.4305   24.1166  -26.8510 H   0  0  0  0  0  0  0  0  0  0  0  0
   -2.8155   22.6434  -27.6743 H   0  0  0  0  0  0  0  0  0  0  0  0
   -1.8343   24.1480  -27.6743 H   0  0  0  0  0  0  0  0  0  0  0  0
   -4.6200   23.5850  -29.5570 C   0  0  0  0  0  0  0  0  0  0  0  0
   -5.2101   22.7283  -29.1996 H   0  0  0  0  0  0  0  0  0  0  0  0
   -5.0160   21.4120  -32.7540 C   0  0  0  0  0  0  0  0  0  0  0  0
   -4.3925   22.3179  -32.7310 H   0  0  0  0  0  0  0  0  0  0  0  0
   -4.5040   20.2300  -33.2960 C   0  0  0  0  0  0  0  0  0  0  0  0
   -3.4795   20.2083  -33.6960 H   0  0  0  0  0  0  0  0  0  0  0  0
   -5.2930   19.0720  -33.3310 C   0  0  0  0  0  0  0  0  0  0  0  0
   -4.7900   17.8780  -33.8720 C   0  0  0  0  0  0  0  0  0  0  0  0
   -3.7665   17.8459  -34.2739 H   0  0  0  0  0  0  0  0  0  0  0  0
  1  2  1  0
  2  3  2  0
  3  4  1  0
  3  5  1  0
  5  6  1  0
  5  7  2  0
  7  8  1  0
  8  9  1  0
  8 10  2  0
 10 11  1  0
 11 12  2  0
 11 13  2  0
 11 14  1  0
 14 15  2  0
 15 16  1  0
 16 17  1  0
 17 18  1  0
 18 19  1  0
 19 20  1  0
 19 21  1  0
 19 22  1  0
 18 23  2  0
 23 24  1  0
 10 25  1  0
 25 26  1  0
 25 27  2  0
 27 28  1  0
 27 29  1  0
 29 30  2  0
 30 31  1  0
 30  2  1  0
 29  7  1  0
 23 15  1  0
M  CHG  1  16  -1
M  END
>  <UniqueID>  (13) 
13

>  <SMILES>  (13) 
Cc1c/c(=N\S(=O)(=O)c2ccc3ccccc3c2)[n-]o1

>  <Energy>  (13) 
69.33449478950939

>  <Genealogy>  (13) 
Cc1cc(=NS(=O)(=O)c2ccc3ccccc3c2)[n-]o1 (protonated)
Cc1c/c(=N\S(=O)(=O)c2ccc3ccccc3c2)[n-]o1 (cis-trans isomerization)
Cc1c/c(=N\S(=O)(=O)c2ccc3ccccc3c2)[n-]o1 (3D coordinates assigned)
Cc1c/c(=N\S(=O)(=O)c2ccc3ccccc3c2)[n-]o1 (optimized conformer: 69.33449478950939 kcal/mol)

>  <smiles>  (13) 
Cc1cc(=NS(=O)(=O)c2ccc3ccccc3c2)[nH]o1

>  <score_type>  (13) 
oracle

>  <origin>  (13) 
adgpu

>  <m_score__min__energy>  (13) 
-10.699999999999999

>  <m_primary>  (13) 
energy

$$$$
13:0
     RDKit          3D

 39 40  0  0  0  0  0  0  0  0999 V2000
   -6.1260   18.1610  -31.5570 C   0  0  0  0  0  0  0  0  0  0  0  0
   -7.0910   18.4110  -32.6340 N   0  0  0  0  0  0  0  0  0  0  0  0
   -6.3930   18.8410  -33.8520 C   0  0  0  0  0  0  0  0  0  0  0  0
   -8.2280   19.6430  -32.1380 S   0  0  0  0  0  0  0  0  0  0  0  0
   -9.1540   19.9570  -33.2790 O   0  0  0  0  0  0  0  0  0  0  0  0
   -9.0570   19.1250  -30.9960 O   0  0  0  0  0  0  0  0  0  0  0  0
   -7.4050   21.1200  -31.6330 C   0  0  0  0  0  0  0  0  0  0  0  0
   -6.2420   21.5410  -32.2950 C   0  0  0  0  0  0  0  0  0  0  0  0
   -5.5850   22.7070  -31.8900 C   0  0  0  0  0  0  0  0  0  0  0  0
   -6.0810   23.4590  -30.8170 C   0  0  0  0  0  0  0  0  0  0  0  0
   -5.2540   24.9290  -30.3130 S   0  0  0  0  0  0  0  0  0  0  0  0
   -5.5680   25.2170  -28.8710 O   0  0  0  0  0  0  0  0  0  0  0  0
   -5.7130   26.0720  -31.1740 O   0  0  0  0  0  0  0  0  0  0  0  0
   -3.5460   24.7120  -30.4850 N   0  0  0  0  0  0  0  0  0  0  0  0
   -2.6710   24.5530  -29.3650 C   0  0  0  0  0  0  0  0  0  0  0  0
   -1.9810   25.5320  -28.9740 O   0  0  0  0  0  0  0  0  0  0  0  0
   -2.5660   23.2330  -28.6920 C   0  0  0  0  0  0  0  0  0  0  0  0
   -3.1410   22.1070  -29.3140 C   0  0  0  0  0  0  0  0  0  0  0  0
   -3.0560   20.8430  -28.7270 C   0  0  0  0  0  0  0  0  0  0  0  0
   -2.4010   20.6790  -27.5070 C   0  0  0  0  0  0  0  0  0  0  0  0
   -2.2980   19.0910  -26.7710 Cl  0  0  0  0  0  0  0  0  0  0  0  0
   -1.8320   21.7830  -26.8700 C   0  0  0  0  0  0  0  0  0  0  0  0
   -1.9080   23.0580  -27.4470 C   0  0  0  0  0  0  0  0  0  0  0  0
   -1.2100   24.3960  -26.5370 Cl  0  0  0  0  0  0  0  0  0  0  0  0
   -7.2480   23.0440  -30.1600 C   0  0  0  0  0  0  0  0  0  0  0  0
   -7.9050   21.8780  -30.5650 C   0  0  0  0  0  0  0  0  0  0  0  0
   -6.6217   18.2894  -30.5834 H   0  0  0  0  0  0  0  0  0  0  0  0
   -5.7417   17.1337  -31.6401 H   0  0  0  0  0  0  0  0  0  0  0  0
   -5.2913   18.8725  -31.6401 H   0  0  0  0  0  0  0  0  0  0  0  0
   -5.4862   19.3996  -33.5771 H   0  0  0  0  0  0  0  0  0  0  0  0
   -6.1139   17.9581  -34.4457 H   0  0  0  0  0  0  0  0  0  0  0  0
   -7.0560   19.4874  -34.4457 H   0  0  0  0  0  0  0  0  0  0  0  0
   -5.8457   20.9520  -33.1353 H   0  0  0  0  0  0  0  0  0  0  0  0
   -4.6759   23.0348  -32.4155 H   0  0  0  0  0  0  0  0  0  0  0  0
   -3.6637   22.2253  -30.2746 H   0  0  0  0  0  0  0  0  0  0  0  0
   -3.5071   19.9740  -29.2284 H   0  0  0  0  0  0  0  0  0  0  0  0
   -1.3190   21.6511  -25.9059 H   0  0  0  0  0  0  0  0  0  0  0  0
   -7.6476   23.6370  -29.3241 H   0  0  0  0  0  0  0  0  0  0  0  0
   -8.8178   21.5542  -30.0435 H   0  0  0  0  0  0  0  0  0  0  0  0
  1  2  1  0
  2  3  1  0
  2  4  1  0
  4  5  2  0
  4  6  2  0
  4  7  1  0
  7  8  2  0
  8  9  1  0
  9 10  2  0
 10 11  1  0
 11 12  2  0
 11 13  2  0
 11 14  1  0
 14 15  1  0
 15 16  2  0
 15 17  1  0
 17 18  2  0
 18 19  1  0
 19 20  2  0
 20 21  1  0
 20 22  1  0
 22 23  2  0
 23 24  1  0
 10 25  1  0
 25 26  2  0
 26  7  1  0
 23 17  1  0
  1 27  1  0
  1 28  1  0
  1 29  1  0
  3 30  1  0
  3 31  1  0
  3 32  1  0
  8 33  1  0
  9 34  1  0
 18 35  1  0
 19 36  1  0
 22 37  1  0
 25 38  1  0
 26 39  1  0
M  CHG  1  14  -1
M  END
>  <UniqueID>  (14) 
14

>  <SMILES>  (14) 
CN(C)S(=O)(=O)c1ccc(S(=O)(=O)[N-]C(=O)c2ccc(Cl)cc2Cl)cc1

>  <Energy>  (14) 
43.66348255173142

>  <Genealogy>  (14) 
CN(C)S(=O)(=O)c1ccc(S(=O)(=O)[N-]C(=O)c2ccc(Cl)cc2Cl)cc1 (protonated)
CN(C)S(=O)(=O)c1ccc(S(=O)(=O)[N-]C(=O)c2ccc(Cl)cc2Cl)cc1 (3D coordinates assigned)
CN(C)S(=O)(=O)c1ccc(S(=O)(=O)[N-]C(=O)c2ccc(Cl)cc2Cl)cc1 (optimized conformer: 43.66348255173142 kcal/mol)

>  <smiles>  (14) 
CN(C)S(=O)(=O)c1ccc(S(=O)(=O)NC(=O)c2ccc(Cl)cc2Cl)cc1

>  <score_type>  (14) 
oracle

>  <origin>  (14) 
adgpu

>  <m_score__min__energy>  (14) 
-11.4

>  <m_primary>  (14) 
energy

$$$$
14:0
     RDKit          3D

 42 44  0  0  0  0  0  0  0  0999 V2000
   -5.3750   15.8660  -31.9830 C   0  0  0  0  0  0  0  0  0  0  0  0
   -5.9090   16.9740  -31.2670 O   0  0  0  0  0  0  0  0  0  0  0  0
   -6.6670   18.0070  -31.8440 C   0  0  0  0  0  0  0  0  0  0  0  0
   -8.0020   18.2480  -31.4590 C   0  0  0  0  0  0  0  0  0  0  0  0
   -8.7470   19.2500  -32.0840 C   0  0  0  0  0  0  0  0  0  0  0  0
   -8.1760   20.0200  -33.0970 C   0  0  0  0  0  0  0  0  0  0  0  0
   -6.8530   19.7980  -33.4820 C   0  0  0  0  0  0  0  0  0  0  0  0
   -6.0830   18.8120  -32.8460 C   0  0  0  0  0  0  0  0  0  0  0  0
   -4.6760   18.6230  -33.2640 C   0  0  0  0  0  0  0  0  0  0  0  0
   -4.2970   17.6130  -34.0760 N   0  0  0  0  0  0  0  0  0  0  0  0
   -2.9600   17.7530  -34.1760 C   0  0  0  0  0  0  0  0  0  0  0  0
   -2.0920   16.9000  -35.0440 C   0  0  0  0  0  0  0  0  0  0  0  0
   -1.4930   15.9210  -34.2730 F   0  0  0  0  0  0  0  0  0  0  0  0
   -2.8540   16.3000  -36.0310 F   0  0  0  0  0  0  0  0  0  0  0  0
   -1.1130   17.6720  -35.6390 F   0  0  0  0  0  0  0  0  0  0  0  0
   -2.5470   18.8510  -33.4530 C   0  0  0  0  0  0  0  0  0  0  0  0
   -3.6320   19.4020  -32.8810 N   0  0  0  0  0  0  0  0  0  0  0  0
   -3.6450   20.6230  -32.1190 C   0  0  0  0  0  0  0  0  0  0  0  0
   -4.5140   21.6660  -32.4800 C   0  0  0  0  0  0  0  0  0  0  0  0
   -4.5110   22.8670  -31.7640 C   0  0  0  0  0  0  0  0  0  0  0  0
   -3.6450   23.0380  -30.6770 C   0  0  0  0  0  0  0  0  0  0  0  0
   -3.6470   24.5470  -29.7720 S   0  0  0  0  0  0  0  0  0  0  0  0
   -4.6030   24.3430  -28.2860 C   0  0  0  0  0  0  0  0  0  0  0  0
   -4.2470   25.6420  -30.6080 O   0  0  0  0  0  0  0  0  0  0  0  0
   -2.2380   24.9290  -29.4150 O   0  0  0  0  0  0  0  0  0  0  0  0
   -2.7970   21.9900  -30.2960 C   0  0  0  0  0  0  0  0  0  0  0  0
   -2.7990   20.7890  -31.0110 C   0  0  0  0  0  0  0  0  0  0  0  0
   -5.0109   15.1105  -31.2712 H   0  0  0  0  0  0  0  0  0  0  0  0
   -6.1598   15.4256  -32.6156 H   0  0  0  0  0  0  0  0  0  0  0  0
   -4.5416   16.2055  -32.6156 H   0  0  0  0  0  0  0  0  0  0  0  0
   -8.4590   17.6433  -30.6619 H   0  0  0  0  0  0  0  0  0  0  0  0
   -9.7872   19.4326  -31.7765 H   0  0  0  0  0  0  0  0  0  0  0  0
   -8.7688   20.8028  -33.5928 H   0  0  0  0  0  0  0  0  0  0  0  0
   -6.4107   20.4000  -34.2895 H   0  0  0  0  0  0  0  0  0  0  0  0
   -1.5124   19.2128  -33.3602 H   0  0  0  0  0  0  0  0  0  0  0  0
   -5.2002   21.5373  -33.3301 H   0  0  0  0  0  0  0  0  0  0  0  0
   -5.1915   23.6805  -32.0557 H   0  0  0  0  0  0  0  0  0  0  0  0
   -3.9527   24.4818  -27.4097 H   0  0  0  0  0  0  0  0  0  0  0  0
   -5.4112   25.0889  -28.2646 H   0  0  0  0  0  0  0  0  0  0  0  0
   -5.0363   23.3322  -28.2646 H   0  0  0  0  0  0  0  0  0  0  0  0
   -2.1277   22.1126  -29.4317 H   0  0  0  0  0  0  0  0  0  0  0  0
   -2.1336   19.9688  -30.7036 H   0  0  0  0  0  0  0  0  0  0  0  0
  1  2  1  0
  2  3  1  0
  3  4  2  0
  4  5  1  0
  5  6  2  0
  6  7  1  0
  7  8  2  0
  8  9  1  0
  9 10  2  0
 10 11  1  0
 11 12  1  0
 12 13  1  0
 12 14  1  0
 12 15  1  0
 11 16  2  0
 16 17  1  0
 17 18  1  0
 18 19  2  0
 19 20  1  0
 20 21  2  0
 21 22  1  0
 22 23  1  0
 22 24  2  0
 22 25  2  0
 21 26  1  0
 26 27  2  0
  8  3  1  0
 17  9  1  0
 27 18  1  0
  1 28  1  0
  1 29  1  0
  1 30  1  0
  4 31  1  0
  5 32  1  0
  6 33  1  0
  7 34  1  0
 16 35  1  0
 19 36  1  0
 20 37  1  0
 23 38  1  0
 23 39  1  0
 23 40  1  0
 26 41  1  0
 27 42  1  0
M  END
>  <UniqueID>  (15) 
15

>  <SMILES>  (15) 
COc1ccccc1-c1nc(C(F)(F)F)cn1-c1ccc(S(C)(=O)=O)cc1

>  <Energy>  (15) 
78.46721276655614

>  <Genealogy>  (15) 
COc1ccccc1-c1nc(C(F)(F)F)cn1-c1ccc(S(C)(=O)=O)cc1 (3D coordinates assigned)
COc1ccccc1-c1nc(C(F)(F)F)cn1-c1ccc(S(C)(=O)=O)cc1 (optimized conformer: 78.46721276655614 kcal/mol)

>  <smiles>  (15) 
COc1ccccc1-c1nc(C(F)(F)F)cn1-c1ccc(S(C)(=O)=O)cc1

>  <score_type>  (15) 
oracle

>  <origin>  (15) 
adgpu

>  <m_score__min__energy>  (15) 
-7.9400000000000004

>  <m_primary>  (15) 
energy

$$$$
15:0
     RDKit          3D

 44 46  0  0  0  0  0  0  0  0999 V2000
   -5.6900   26.0630  -31.2190 O   0  0  0  0  0  0  0  0  0  0  0  0
   -5.2190   24.9610  -30.3190 S   0  0  0  0  0  0  0  0  0  0  0  0
   -5.5980   25.2870  -28.9030 O   0  0  0  0  0  0  0  0  0  0  0  0
   -3.4940   24.8280  -30.4210 N   0  0  0  0  0  0  0  0  0  0  0  0
   -2.6410   24.4100  -29.3480 C   0  0  0  0  0  0  0  0  0  0  0  0
   -3.0780   23.5530  -28.3240 C   0  0  0  0  0  0  0  0  0  0  0  0
   -2.2040   23.2020  -27.2900 C   0  0  0  0  0  0  0  0  0  0  0  0
   -0.9040   23.7010  -27.2890 C   0  0  0  0  0  0  0  0  0  0  0  0
   -0.4950   24.5210  -28.2890 N   0  0  0  0  0  0  0  0  0  0  0  0
   -1.3310   24.8880  -29.3030 C   0  0  0  0  0  0  0  0  0  0  0  0
   -5.9490   23.4450  -30.8290 C   0  0  0  0  0  0  0  0  0  0  0  0
   -7.2130   23.4540  -31.4340 C   0  0  0  0  0  0  0  0  0  0  0  0
   -7.7550   22.2720  -31.9390 C   0  0  0  0  0  0  0  0  0  0  0  0
   -7.0360   21.0710  -31.8490 C   0  0  0  0  0  0  0  0  0  0  0  0
   -7.6630   19.6100  -32.6160 S   0  0  0  0  0  0  0  0  0  0  0  0
   -7.8120   18.5260  -31.5820 O   0  0  0  0  0  0  0  0  0  0  0  0
   -9.0250   19.9000  -33.1860 O   0  0  0  0  0  0  0  0  0  0  0  0
   -6.6020   19.0560  -33.8960 N   0  0  0  0  0  0  0  0  0  0  0  0
   -6.4720   17.5780  -33.8500 C   0  0  0  0  0  0  0  0  0  0  0  0
   -5.2450   17.0910  -34.6340 C   0  0  0  0  0  0  0  0  0  0  0  0
   -3.9410   17.6600  -34.0430 C   0  0  0  0  0  0  0  0  0  0  0  0
   -4.1640   18.9600  -33.2540 C   0  0  0  0  0  0  0  0  0  0  0  0
   -5.3020   19.7850  -33.8730 C   0  0  0  0  0  0  0  0  0  0  0  0
   -5.7910   21.0540  -31.2040 C   0  0  0  0  0  0  0  0  0  0  0  0
   -5.2480   22.2370  -30.6980 C   0  0  0  0  0  0  0  0  0  0  0  0
   -4.1050   23.1591  -28.3355 H   0  0  0  0  0  0  0  0  0  0  0  0
   -2.5415   22.5358  -26.4824 H   0  0  0  0  0  0  0  0  0  0  0  0
   -0.2104   23.4308  -26.4791 H   0  0  0  0  0  0  0  0  0  0  0  0
   -0.9696   25.5656  -30.0906 H   0  0  0  0  0  0  0  0  0  0  0  0
   -7.7785   24.3944  -31.5108 H   0  0  0  0  0  0  0  0  0  0  0  0
   -8.7494   22.2818  -32.4093 H   0  0  0  0  0  0  0  0  0  0  0  0
   -7.0830   19.3010  -34.7940 H   0  0  0  0  0  0  0  0  0  0  0  0
   -6.3736   17.2613  -32.8012 H   0  0  0  0  0  0  0  0  0  0  0  0
   -7.3695   17.1404  -34.3115 H   0  0  0  0  0  0  0  0  0  0  0  0
   -5.2071   15.9924  -34.5939 H   0  0  0  0  0  0  0  0  0  0  0  0
   -5.3363   17.4397  -35.6733 H   0  0  0  0  0  0  0  0  0  0  0  0
   -3.5039   16.9095  -33.3680 H   0  0  0  0  0  0  0  0  0  0  0  0
   -3.2698   17.8925  -34.8829 H   0  0  0  0  0  0  0  0  0  0  0  0
   -4.4232   18.7110  -32.2144 H   0  0  0  0  0  0  0  0  0  0  0  0
   -3.2393   19.5550  -33.2859 H   0  0  0  0  0  0  0  0  0  0  0  0
   -5.4269   20.7066  -33.2855 H   0  0  0  0  0  0  0  0  0  0  0  0
   -5.0251   19.9982  -34.9160 H   0  0  0  0  0  0  0  0  0  0  0  0
   -5.2412   20.1074  -31.0964 H   0  0  0  0  0  0  0  0  0  0  0  0
   -4.2693   22.2215  -30.1961 H   0  0  0  0  0  0  0  0  0  0  0  0
  1  2  2  0
  2  3  2  0
  2  4  1  0
  4  5  1  0
  5  6  2  0
  6  7  1  0
  7  8  2  0
  8  9  1  0
  9 10  2  0
  2 11  1  0
 11 12  2  0
 12 13  1  0
 13 14  2  0
 14 15  1  0
 15 16  2  0
 15 17  2  0
 15 18  1  0
 18 19  1  0
 19 20  1  0
 20 21  1  0
 21 22  1  0
 22 23  1  0
 14 24  1  0
 24 25  2  0
 10  5  1  0
 25 11  1  0
 23 18  1  0
  6 26  1  0
  7 27  1  0
  8 28  1  0
 10 29  1  0
 12 30  1  0
 13 31  1  0
 18 32  1  0
 19 33  1  0
 19 34  1  0
 20 35  1  0
 20 36  1  0
 21 37  1  0
 21 38  1  0
 22 39  1  0
 22 40  1  0
 23 41  1  0
 23 42  1  0
 24 43  1  0
 25 44  1  0
M  CHG  2   4  -1  18   1
M  END
>  <UniqueID>  (16) 
16

>  <SMILES>  (16) 
O=S(=O)([N-]c1cccnc1)c1ccc(S(=O)(=O)[NH+]2CCCCC2)cc1

>  <Energy>  (16) 
52.47403685029889

>  <Genealogy>  (16) 
O=S(=O)([N-]c1cccnc1)c1ccc(S(=O)(=O)[NH+]2CCCCC2)cc1 (protonated)
O=S(=O)([N-]c1cccnc1)c1ccc(S(=O)(=O)[NH+]2CCCCC2)cc1 (3D coordinates assigned)
O=S(=O)([N-]c1cccnc1)c1ccc(S(=O)(=O)[NH+]2CCCCC2)cc1 (nonaromatic ring conformer: 52.47403685029889 kcal/mol)

>  <smiles>  (16) 
O=S(=O)(Nc1cccnc1)c1ccc(S(=O)(=O)N2CCCCC2)cc1

>  <score_type>  (16) 
oracle

>  <origin>  (16) 
adgpu

>  <m_score__min__energy>  (16) 
-10.42

>  <m_primary>  (16) 
energy

$$$$
16:0
     RDKit          3D

 38 40  0  0  0  0  0  0  0  0999 V2000
   -3.6360   16.6020  -35.4320 C   0  0  0  0  0  0  0  0  0  0  0  0
   -4.6020   17.3520  -34.5810 C   0  0  0  0  0  0  0  0  0  0  0  0
   -5.3930   18.3440  -35.0480 N   0  0  0  0  0  0  0  0  0  0  0  0
   -6.2360   18.8180  -34.1330 N   0  0  0  0  0  0  0  0  0  0  0  0
   -6.1220   18.1930  -32.9400 C   0  0  0  0  0  0  0  0  0  0  0  0
   -6.8560   18.4640  -31.9050 N   0  0  0  0  0  0  0  0  0  0  0  0
   -8.1060   19.6680  -31.9180 S   0  0  0  0  0  0  0  0  0  0  0  0
   -9.1140   19.3570  -30.8480 O   0  0  0  0  0  0  0  0  0  0  0  0
   -8.7950   19.6570  -33.2530 O   0  0  0  0  0  0  0  0  0  0  0  0
   -7.3810   21.2510  -31.6570 C   0  0  0  0  0  0  0  0  0  0  0  0
   -8.1160   22.2800  -31.0520 C   0  0  0  0  0  0  0  0  0  0  0  0
   -7.4880   23.4790  -30.7050 C   0  0  0  0  0  0  0  0  0  0  0  0
   -6.1230   23.6600  -30.9620 C   0  0  0  0  0  0  0  0  0  0  0  0
   -5.3120   25.0990  -30.3560 S   0  0  0  0  0  0  0  0  0  0  0  0
   -5.6880   26.3100  -31.1630 O   0  0  0  0  0  0  0  0  0  0  0  0
   -5.7090   25.3180  -28.9240 O   0  0  0  0  0  0  0  0  0  0  0  0
   -3.5950   24.8640  -30.4480 N   0  0  0  0  0  0  0  0  0  0  0  0
   -2.8140   24.1370  -29.4890 C   0  0  0  0  0  0  0  0  0  0  0  0
   -3.1600   22.8350  -29.0780 C   0  0  0  0  0  0  0  0  0  0  0  0
   -2.3930   22.1690  -28.1190 C   0  0  0  0  0  0  0  0  0  0  0  0
   -1.2690   22.7890  -27.5680 C   0  0  0  0  0  0  0  0  0  0  0  0
   -0.9060   24.0730  -27.9820 C   0  0  0  0  0  0  0  0  0  0  0  0
   -1.6730   24.7460  -28.9400 C   0  0  0  0  0  0  0  0  0  0  0  0
   -1.3040   26.0250  -29.3370 O   0  0  0  0  0  0  0  0  0  0  0  0
   -5.3990   22.6470  -31.6070 C   0  0  0  0  0  0  0  0  0  0  0  0
   -6.0250   21.4460  -31.9480 C   0  0  0  0  0  0  0  0  0  0  0  0
   -4.9450   16.9940  -32.9670 S   0  0  0  0  0  0  0  0  0  0  0  0
   -2.9304   16.0542  -34.7901 H   0  0  0  0  0  0  0  0  0  0  0  0
   -4.1830   15.8896  -36.0671 H   0  0  0  0  0  0  0  0  0  0  0  0
   -3.0814   17.3085  -36.0671 H   0  0  0  0  0  0  0  0  0  0  0  0
   -9.1887   22.1434  -30.8501 H   0  0  0  0  0  0  0  0  0  0  0  0
   -8.0675   24.2834  -30.2284 H   0  0  0  0  0  0  0  0  0  0  0  0
   -4.0396   22.3395  -29.5148 H   0  0  0  0  0  0  0  0  0  0  0  0
   -2.6744   21.1554  -27.7974 H   0  0  0  0  0  0  0  0  0  0  0  0
   -0.6697   22.2662  -26.8081 H   0  0  0  0  0  0  0  0  0  0  0  0
   -0.0153   24.5562  -27.5540 H   0  0  0  0  0  0  0  0  0  0  0  0
   -4.3358   22.7986  -31.8449 H   0  0  0  0  0  0  0  0  0  0  0  0
   -5.4513   20.6509  -32.4466 H   0  0  0  0  0  0  0  0  0  0  0  0
  1  2  1  0
  2  3  2  0
  3  4  1  0
  4  5  1  0
  5  6  2  3
  6  7  1  0
  7  8  2  0
  7  9  2  0
  7 10  1  0
 10 11  2  0
 11 12  1  0
 12 13  2  0
 13 14  1  0
 14 15  2  0
 14 16  2  0
 14 17  1  0
 17 18  1  0
 18 19  2  0
 19 20  1  0
 20 21  2  0
 21 22  1  0
 22 23  2  0
 23 24  1  0
 13 25  1  0
 25 26  2  0
  5 27  1  0
 27  2  1  0
 26 10  1  0
 23 18  1  0
  1 28  1  0
  1 29  1  0
  1 30  1  0
 11 31  1  0
 12 32  1  0
 19 33  1  0
 20 34  1  0
 21 35  1  0
 22 36  1  0
 25 37  1  0
 26 38  1  0
M  CHG  3   4  -1  17  -1  24  -1
M  END
>  <UniqueID>  (17) 
17

>  <SMILES>  (17) 
Cc1n[n-]c(=NS(=O)(=O)c2ccc(S(=O)(=O)[N-]c3ccccc3[O-])cc2)s1

>  <Energy>  (17) 
77.89142345754189

>  <Genealogy>  (17) 
Cc1n[n-]c(=NS(=O)(=O)c2ccc(S(=O)(=O)[N-]c3ccccc3[O-])cc2)s1 (protonated)
Cc1n[n-]c(=NS(=O)(=O)c2ccc(S(=O)(=O)[N-]c3ccccc3[O-])cc2)s1 (3D coordinates assigned)
Cc1n[n-]c(=NS(=O)(=O)c2ccc(S(=O)(=O)[N-]c3ccccc3[O-])cc2)s1 (optimized conformer: 77.89142345754189 kcal/mol)

>  <smiles>  (17) 
Cc1n[nH]c(=NS(=O)(=O)c2ccc(S(=O)(=O)Nc3ccccc3O)cc2)s1

>  <score_type>  (17) 
oracle

>  <origin>  (17) 
adgpu

>  <m_score__min__energy>  (17) 
-14.279999999999999

>  <m_primary>  (17) 
energy

$$$$
17:0
     RDKit          3D

 52 55  0  0  0  0  0  0  0  0999 V2000
   -4.4730   24.9000  -30.8470 O   0  0  0  0  0  0  0  0  0  0  0  0
   -5.0370   23.7720  -30.8680 C   0  0  0  0  0  0  0  0  0  0  0  0
   -5.9530   23.4250  -32.0020 C   0  0  0  0  0  0  0  0  0  0  0  0
   -5.8480   21.9930  -32.3350 N   0  0  0  0  0  0  0  0  0  0  0  0
   -4.6560   21.5050  -32.9970 C   0  0  0  0  0  0  0  0  0  0  0  0
   -3.7220   22.2970  -33.2990 O   0  0  0  0  0  0  0  0  0  0  0  0
   -4.5280   20.0580  -33.3680 C   0  0  0  0  0  0  0  0  0  0  0  0
   -5.0700   19.0540  -31.9570 S   0  0  0  0  0  0  0  0  0  0  0  0
   -6.7460   19.7030  -32.0240 C   0  0  0  0  0  0  0  0  0  0  0  0
   -7.8260   18.8140  -31.9770 C   0  0  0  0  0  0  0  0  0  0  0  0
   -9.1360   19.3000  -31.9770 C   0  0  0  0  0  0  0  0  0  0  0  0
   -9.3720   20.6750  -32.0340 C   0  0  0  0  0  0  0  0  0  0  0  0
   -8.3000   21.5670  -32.1160 C   0  0  0  0  0  0  0  0  0  0  0  0
   -6.9680   21.0940  -32.1220 C   0  0  0  0  0  0  0  0  0  0  0  0
   -4.8590   22.8500  -29.7840 N   0  0  0  0  0  0  0  0  0  0  0  0
   -3.7090   22.7640  -28.9320 C   0  0  0  0  0  0  0  0  0  0  0  0
   -3.4610   21.5620  -28.2590 C   0  0  0  0  0  0  0  0  0  0  0  0
   -2.3200   21.4190  -27.4650 C   0  0  0  0  0  0  0  0  0  0  0  0
   -1.4090   22.4730  -27.3520 C   0  0  0  0  0  0  0  0  0  0  0  0
   -1.6310   23.6740  -28.0410 C   0  0  0  0  0  0  0  0  0  0  0  0
   -0.4520   24.9870  -27.9440 S   0  0  0  0  0  0  0  0  0  0  0  0
    0.8440   24.5300  -28.5540 O   0  0  0  0  0  0  0  0  0  0  0  0
   -0.9530   26.1600  -28.7420 O   0  0  0  0  0  0  0  0  0  0  0  0
   -0.1860   25.5000  -26.2900 N   0  0  0  0  0  0  0  0  0  0  0  0
   -1.4770   25.6630  -25.5830 C   0  0  0  0  0  0  0  0  0  0  0  0
   -1.3060   26.4870  -24.3030 C   0  0  0  0  0  0  0  0  0  0  0  0
   -0.8290   27.9140  -24.6270 C   0  0  0  0  0  0  0  0  0  0  0  0
   -0.0400   27.9900  -25.9470 C   0  0  0  0  0  0  0  0  0  0  0  0
    0.7140   26.6780  -26.2200 C   0  0  0  0  0  0  0  0  0  0  0  0
   -2.7830   23.8190  -28.8280 C   0  0  0  0  0  0  0  0  0  0  0  0
   -6.9893   23.6537  -31.7124 H   0  0  0  0  0  0  0  0  0  0  0  0
   -5.6648   24.0159  -32.8839 H   0  0  0  0  0  0  0  0  0  0  0  0
   -5.1595   19.8415  -34.2422 H   0  0  0  0  0  0  0  0  0  0  0  0
   -3.4830   19.8235  -33.6191 H   0  0  0  0  0  0  0  0  0  0  0  0
   -7.6430   17.7300  -31.9400 H   0  0  0  0  0  0  0  0  0  0  0  0
   -9.9822   18.5987  -31.9320 H   0  0  0  0  0  0  0  0  0  0  0  0
  -10.4036   21.0564  -32.0143 H   0  0  0  0  0  0  0  0  0  0  0  0
   -8.4944   22.6480  -32.1765 H   0  0  0  0  0  0  0  0  0  0  0  0
   -4.1683   20.7251  -28.3557 H   0  0  0  0  0  0  0  0  0  0  0  0
   -2.1386   20.4760  -26.9284 H   0  0  0  0  0  0  0  0  0  0  0  0
   -0.5153   22.3601  -26.7207 H   0  0  0  0  0  0  0  0  0  0  0  0
   -2.1881   26.1755  -26.2476 H   0  0  0  0  0  0  0  0  0  0  0  0
   -1.8528   24.6662  -25.3086 H   0  0  0  0  0  0  0  0  0  0  0  0
   -2.2710   26.5406  -23.7777 H   0  0  0  0  0  0  0  0  0  0  0  0
   -0.5500   25.9994  -23.6699 H   0  0  0  0  0  0  0  0  0  0  0  0
   -1.7084   28.5703  -24.7041 H   0  0  0  0  0  0  0  0  0  0  0  0
   -0.1551   28.2315  -23.8177 H   0  0  0  0  0  0  0  0  0  0  0  0
   -0.7406   28.1799  -26.7735 H   0  0  0  0  0  0  0  0  0  0  0  0
    0.6952   28.8043  -25.8672 H   0  0  0  0  0  0  0  0  0  0  0  0
    1.2456   26.7713  -27.1785 H   0  0  0  0  0  0  0  0  0  0  0  0
    1.4077   26.5148  -25.3821 H   0  0  0  0  0  0  0  0  0  0  0  0
   -2.9635   24.7612  -29.3662 H   0  0  0  0  0  0  0  0  0  0  0  0
  1  2  2  0
  2  3  1  0
  3  4  1  0
  4  5  1  0
  5  6  2  0
  5  7  1  0
  7  8  1  0
  8  9  1  0
  9 10  2  0
 10 11  1  0
 11 12  2  0
 12 13  1  0
 13 14  2  0
  2 15  1  0
 15 16  1  0
 16 17  2  0
 17 18  1  0
 18 19  2  0
 19 20  1  0
 20 21  1  0
 21 22  2  0
 21 23  2  0
 21 24  1  0
 24 25  1  0
 25 26  1  0
 26 27  1  0
 27 28  1  0
 28 29  1  0
 20 30  2  0
 14  4  1  0
 30 16  1  0
 14  9  1  0
 29 24  1  0
  3 31  1  0
  3 32  1  0
  7 33  1  0
  7 34  1  0
 10 35  1  0
 11 36  1  0
 12 37  1  0
 13 38  1  0
 17 39  1  0
 18 40  1  0
 19 41  1  0
 25 42  1  0
 25 43  1  0
 26 44  1  0
 26 45  1  0
 27 46  1  0
 27 47  1  0
 28 48  1  0
 28 49  1  0
 29 50  1  0
 29 51  1  0
 30 52  1  0
M  CHG  1  15  -1
M  END
>  <UniqueID>  (18) 
18

>  <SMILES>  (18) 
O=C(CN1C(=O)CSc2ccccc21)[N-]c1cccc(S(=O)(=O)N2CCCCC2)c1

>  <Energy>  (18) 
65.51018100744648

>  <Genealogy>  (18) 
O=C(CN1C(=O)CSc2ccccc21)[N-]c1cccc(S(=O)(=O)N2CCCCC2)c1 (protonated)
O=C(CN1C(=O)CSc2ccccc21)[N-]c1cccc(S(=O)(=O)N2CCCCC2)c1 (3D coordinates assigned)
O=C(CN1C(=O)CSc2ccccc21)[N-]c1cccc(S(=O)(=O)N2CCCCC2)c1 (nonaromatic ring conformer: 65.51018100744648 kcal/mol)

>  <smiles>  (18) 
O=C(CN1C(=O)CSc2ccccc21)Nc1cccc(S(=O)(=O)N2CCCCC2)c1

>  <score_type>  (18) 
oracle

>  <origin>  (18) 
adgpu

>  <m_score__min__energy>  (18) 
-12.17

>  <m_primary>  (18) 
energy

$$$$
18:0
     RDKit          3D

 59 61  0  0  0  0  0  0  0  0999 V2000
   -2.7420   18.7480  -26.1760 C   0  0  0  0  0  0  0  0  0  0  0  0
   -2.3420   19.9090  -27.0370 C   0  0  0  0  0  0  0  0  0  0  0  0
   -2.9950   20.1500  -28.2560 C   0  0  0  0  0  0  0  0  0  0  0  0
   -2.5930   21.2110  -29.0720 C   0  0  0  0  0  0  0  0  0  0  0  0
   -1.5290   22.0420  -28.6830 C   0  0  0  0  0  0  0  0  0  0  0  0
   -1.0710   23.1590  -29.5840 C   0  0  0  0  0  0  0  0  0  0  0  0
   -1.1590   24.5090  -28.9150 C   0  0  0  0  0  0  0  0  0  0  0  0
   -0.1080   25.1190  -28.5820 O   0  0  0  0  0  0  0  0  0  0  0  0
   -2.4200   25.1540  -28.6910 N   0  0  0  0  0  0  0  0  0  0  0  0
   -3.7210   24.4920  -28.6900 C   0  0  0  0  0  0  0  0  0  0  0  0
   -4.4290   24.7240  -29.9980 C   0  0  0  0  0  0  0  0  0  0  0  0
   -4.2970   25.8470  -30.5570 O   0  0  0  0  0  0  0  0  0  0  0  0
   -5.2260   23.6990  -30.6310 N   0  0  0  0  0  0  0  0  0  0  0  0
   -5.9040   22.6750  -29.8150 C   0  0  0  0  0  0  0  0  0  0  0  0
   -6.9120   21.8780  -30.6410 C   0  0  0  0  0  0  0  0  0  0  0  0
   -6.2730   21.4340  -31.8840 N   0  0  0  0  0  0  0  0  0  0  0  0
   -6.2350   20.0380  -32.2320 C   0  0  0  0  0  0  0  0  0  0  0  0
   -5.1150   19.4980  -32.8820 C   0  0  0  0  0  0  0  0  0  0  0  0
   -5.0720   18.1410  -33.2110 C   0  0  0  0  0  0  0  0  0  0  0  0
   -6.1460   17.2940  -32.8870 C   0  0  0  0  0  0  0  0  0  0  0  0
   -6.0850   15.8210  -33.2460 C   0  0  0  0  0  0  0  0  0  0  0  0
   -7.1160   15.4720  -34.3280 C   0  0  0  0  0  0  0  0  0  0  0  0
   -4.6720   15.4160  -33.6830 C   0  0  0  0  0  0  0  0  0  0  0  0
   -7.2640   17.8360  -32.2280 C   0  0  0  0  0  0  0  0  0  0  0  0
   -7.3070   19.1940  -31.9020 C   0  0  0  0  0  0  0  0  0  0  0  0
   -5.5520   22.4050  -32.7180 C   0  0  0  0  0  0  0  0  0  0  0  0
   -5.5180   23.7990  -32.0720 C   0  0  0  0  0  0  0  0  0  0  0  0
   -0.8590   21.7820  -27.4780 C   0  0  0  0  0  0  0  0  0  0  0  0
   -1.2630   20.7230  -26.6600 C   0  0  0  0  0  0  0  0  0  0  0  0
   -2.6459   19.0271  -25.1163 H   0  0  0  0  0  0  0  0  0  0  0  0
   -3.7859   18.4753  -26.3901 H   0  0  0  0  0  0  0  0  0  0  0  0
   -2.0876   17.8901  -26.3901 H   0  0  0  0  0  0  0  0  0  0  0  0
   -3.8261   19.5014  -28.5701 H   0  0  0  0  0  0  0  0  0  0  0  0
   -3.1123   21.3965  -30.0238 H   0  0  0  0  0  0  0  0  0  0  0  0
   -0.0255   22.9747  -29.8720 H   0  0  0  0  0  0  0  0  0  0  0  0
   -1.7334   23.1754  -30.4620 H   0  0  0  0  0  0  0  0  0  0  0  0
   -3.5777   23.4114  -28.5421 H   0  0  0  0  0  0  0  0  0  0  0  0
   -4.3320   24.9074  -27.8750 H   0  0  0  0  0  0  0  0  0  0  0  0
   -5.1499   21.9850  -29.4085 H   0  0  0  0  0  0  0  0  0  0  0  0
   -6.4470   23.1834  -29.0046 H   0  0  0  0  0  0  0  0  0  0  0  0
   -7.2477   21.0020  -30.0666 H   0  0  0  0  0  0  0  0  0  0  0  0
   -7.7795   22.5117  -30.8773 H   0  0  0  0  0  0  0  0  0  0  0  0
   -4.2643   20.1481  -33.1345 H   0  0  0  0  0  0  0  0  0  0  0  0
   -4.1910   17.7322  -33.7275 H   0  0  0  0  0  0  0  0  0  0  0  0
   -6.3362   15.2462  -32.3424 H   0  0  0  0  0  0  0  0  0  0  0  0
   -8.0549   15.1542  -33.8510 H   0  0  0  0  0  0  0  0  0  0  0  0
   -7.3040   16.3566  -34.9543 H   0  0  0  0  0  0  0  0  0  0  0  0
   -6.7281   14.6551  -34.9543 H   0  0  0  0  0  0  0  0  0  0  0  0
   -4.0500   15.2377  -32.7934 H   0  0  0  0  0  0  0  0  0  0  0  0
   -4.7237   14.4965  -34.2845 H   0  0  0  0  0  0  0  0  0  0  0  0
   -4.2287   16.2233  -34.2845 H   0  0  0  0  0  0  0  0  0  0  0  0
   -8.1117   17.1854  -31.9670 H   0  0  0  0  0  0  0  0  0  0  0  0
   -8.1862   19.6042  -31.3836 H   0  0  0  0  0  0  0  0  0  0  0  0
   -4.5195   22.0538  -32.8612 H   0  0  0  0  0  0  0  0  0  0  0  0
   -6.0791   22.4870  -33.6800 H   0  0  0  0  0  0  0  0  0  0  0  0
   -4.7372   24.4029  -32.5575 H   0  0  0  0  0  0  0  0  0  0  0  0
   -6.5025   24.2724  -32.2011 H   0  0  0  0  0  0  0  0  0  0  0  0
   -0.0115   22.4147  -27.1755 H   0  0  0  0  0  0  0  0  0  0  0  0
   -0.7327   20.5268  -25.7165 H   0  0  0  0  0  0  0  0  0  0  0  0
  1  2  1  0
  2  3  2  0
  3  4  1  0
  4  5  2  0
  5  6  1  0
  6  7  1  0
  7  8  2  0
  7  9  1  0
  9 10  1  0
 10 11  1  0
 11 12  2  0
 11 13  1  0
 13 14  1  0
 14 15  1  0
 15 16  1  0
 16 17  1  0
 17 18  2  0
 18 19  1  0
 19 20  2  0
 20 21  1  0
 21 22  1  0
 21 23  1  0
 20 24  1  0
 24 25  2  0
 16 26  1  0
 26 27  1  0
  5 28  1  0
 28 29  2  0
 29  2  1  0
 27 13  1  0
 25 17  1  0
  1 30  1  0
  1 31  1  0
  1 32  1  0
  3 33  1  0
  4 34  1  0
  6 35  1  0
  6 36  1  0
 10 37  1  0
 10 38  1  0
 14 39  1  0
 14 40  1  0
 15 41  1  0
 15 42  1  0
 18 43  1  0
 19 44  1  0
 21 45  1  0
 22 46  1  0
 22 47  1  0
 22 48  1  0
 23 49  1  0
 23 50  1  0
 23 51  1  0
 24 52  1  0
 25 53  1  0
 26 54  1  0
 26 55  1  0
 27 56  1  0
 27 57  1  0
 28 58  1  0
 29 59  1  0
M  CHG  1   9  -1
M  END
>  <UniqueID>  (19) 
19

>  <SMILES>  (19) 
Cc1ccc(CC(=O)[N-]CC(=O)N2CCN(c3ccc(C(C)C)cc3)CC2)cc1

>  <Energy>  (19) 
56.994620375829335

>  <Genealogy>  (19) 
Cc1ccc(CC(=O)[N-]CC(=O)N2CCN(c3ccc(C(C)C)cc3)CC2)cc1 (protonated)
Cc1ccc(CC(=O)[N-]CC(=O)N2CCN(c3ccc(C(C)C)cc3)CC2)cc1 (3D coordinates assigned)
Cc1ccc(CC(=O)[N-]CC(=O)N2CCN(c3ccc(C(C)C)cc3)CC2)cc1 (nonaromatic ring conformer: 56.994620375829335 kcal/mol)

>  <smiles>  (19) 
Cc1ccc(CC(=O)NCC(=O)N2CCN(c3ccc(C(C)C)cc3)CC2)cc1

>  <score_type>  (19) 
oracle

>  <origin>  (19) 
adgpu

>  <m_score__min__energy>  (19) 
-10.359999999999999

>  <m_primary>  (19) 
energy

$$$$
19:0
     RDKit          3D

 45 47  0  0  0  0  0  0  0  0999 V2000
   -1.3390   25.3340  -29.3320 O   0  0  0  0  0  0  0  0  0  0  0  0
   -2.5190   24.4080  -29.2740 S   0  0  0  0  0  0  0  0  0  0  0  0
   -3.1110   24.5040  -27.8960 O   0  0  0  0  0  0  0  0  0  0  0  0
   -3.6650   24.9050  -30.4780 N   0  0  0  0  0  0  0  0  0  0  0  0
   -4.9380   24.3040  -30.7650 C   0  0  0  0  0  0  0  0  0  0  0  0
   -5.1570   23.5090  -31.9050 C   0  0  0  0  0  0  0  0  0  0  0  0
   -6.4070   22.9210  -32.1250 C   0  0  0  0  0  0  0  0  0  0  0  0
   -7.4470   23.1230  -31.2170 C   0  0  0  0  0  0  0  0  0  0  0  0
   -7.2420   23.9160  -30.0890 C   0  0  0  0  0  0  0  0  0  0  0  0
   -5.9930   24.5080  -29.8590 C   0  0  0  0  0  0  0  0  0  0  0  0
   -5.7910   25.3000  -28.7300 O   0  0  0  0  0  0  0  0  0  0  0  0
   -1.9810   22.7640  -29.6090 C   0  0  0  0  0  0  0  0  0  0  0  0
   -1.7350   21.8800  -28.5520 C   0  0  0  0  0  0  0  0  0  0  0  0
   -1.2930   20.5810  -28.8140 C   0  0  0  0  0  0  0  0  0  0  0  0
   -1.0870   20.1630  -30.1310 C   0  0  0  0  0  0  0  0  0  0  0  0
   -1.3230   21.0430  -31.1950 C   0  0  0  0  0  0  0  0  0  0  0  0
   -1.0620   20.5160  -32.8590 S   0  0  0  0  0  0  0  0  0  0  0  0
   -0.2750   21.5680  -33.5920 O   0  0  0  0  0  0  0  0  0  0  0  0
   -0.2510   19.2500  -32.8560 O   0  0  0  0  0  0  0  0  0  0  0  0
   -2.5740   20.2390  -33.6920 N   0  0  0  0  0  0  0  0  0  0  0  0
   -3.6850   21.0110  -33.0800 C   0  0  0  0  0  0  0  0  0  0  0  0
   -4.6200   20.1400  -32.2260 C   0  0  0  0  0  0  0  0  0  0  0  0
   -5.2420   19.0160  -33.0690 C   0  0  0  0  0  0  0  0  0  0  0  0
   -4.2940   18.5040  -34.1720 C   0  0  0  0  0  0  0  0  0  0  0  0
   -2.8290   18.7850  -33.8220 C   0  0  0  0  0  0  0  0  0  0  0  0
   -1.7700   22.3430  -30.9290 C   0  0  0  0  0  0  0  0  0  0  0  0
   -4.3419   23.3492  -32.6262 H   0  0  0  0  0  0  0  0  0  0  0  0
   -6.5706   22.2976  -33.0164 H   0  0  0  0  0  0  0  0  0  0  0  0
   -8.4280   22.6568  -31.3911 H   0  0  0  0  0  0  0  0  0  0  0  0
   -8.0643   24.0777  -29.3764 H   0  0  0  0  0  0  0  0  0  0  0  0
   -4.8680   25.6180  -28.4660 H   0  0  0  0  0  0  0  0  0  0  0  0
   -1.8899   22.2086  -27.5137 H   0  0  0  0  0  0  0  0  0  0  0  0
   -1.1068   19.8861  -27.9819 H   0  0  0  0  0  0  0  0  0  0  0  0
   -0.7383   19.1395  -30.3331 H   0  0  0  0  0  0  0  0  0  0  0  0
   -3.2559   21.7965  -32.4405 H   0  0  0  0  0  0  0  0  0  0  0  0
   -4.2847   21.4326  -33.9002 H   0  0  0  0  0  0  0  0  0  0  0  0
   -4.0444   19.6953  -31.4008 H   0  0  0  0  0  0  0  0  0  0  0  0
   -5.4286   20.7732  -31.8320 H   0  0  0  0  0  0  0  0  0  0  0  0
   -5.4944   18.1765  -32.4045 H   0  0  0  0  0  0  0  0  0  0  0  0
   -6.1347   19.4269  -33.5631 H   0  0  0  0  0  0  0  0  0  0  0  0
   -4.4328   17.4190  -34.2885 H   0  0  0  0  0  0  0  0  0  0  0  0
   -4.5343   19.0299  -35.1078 H   0  0  0  0  0  0  0  0  0  0  0  0
   -2.5880   18.2926  -32.8683 H   0  0  0  0  0  0  0  0  0  0  0  0
   -2.1978   18.3938  -34.6335 H   0  0  0  0  0  0  0  0  0  0  0  0
   -1.9567   23.0380  -31.7610 H   0  0  0  0  0  0  0  0  0  0  0  0
  1  2  2  0
  2  3  2  0
  2  4  1  0
  4  5  1  0
  5  6  2  0
  6  7  1  0
  7  8  2  0
  8  9  1  0
  9 10  2  0
 10 11  1  0
  2 12  1  0
 12 13  2  0
 13 14  1  0
 14 15  2  0
 15 16  1  0
 16 17  1  0
 17 18  2  0
 17 19  2  0
 17 20  1  0
 20 21  1  0
 21 22  1  0
 22 23  1  0
 23 24  1  0
 24 25  1  0
 16 26  2  0
 10  5  1  0
 26 12  1  0
 25 20  1  0
  6 27  1  0
  7 28  1  0
  8 29  1  0
  9 30  1  0
 11 31  1  0
 13 32  1  0
 14 33  1  0
 15 34  1  0
 21 35  1  0
 21 36  1  0
 22 37  1  0
 22 38  1  0
 23 39  1  0
 23 40  1  0
 24 41  1  0
 24 42  1  0
 25 43  1  0
 25 44  1  0
 26 45  1  0
M  CHG  1   4  -1
M  END
>  <UniqueID>  (20) 
20

>  <SMILES>  (20) 
O=S(=O)([N-]c1ccccc1O)c1cccc(S(=O)(=O)N2CCCCC2)c1

>  <Energy>  (20) 
55.1912848903291

>  <Genealogy>  (20) 
O=S(=O)([N-]c1ccccc1O)c1cccc(S(=O)(=O)N2CCCCC2)c1 (protonated)
O=S(=O)([N-]c1ccccc1O)c1cccc(S(=O)(=O)N2CCCCC2)c1 (3D coordinates assigned)
O=S(=O)([N-]c1ccccc1O)c1cccc(S(=O)(=O)N2CCCCC2)c1 (nonaromatic ring conformer: 55.1912848903291 kcal/mol)

>  <smiles>  (20) 
O=S(=O)(Nc1ccccc1O)c1cccc(S(=O)(=O)N2CCCCC2)c1

>  <score_type>  (20) 
oracle

>  <origin>  (20) 
adgpu

>  <m_score__min__energy>  (20) 
-11.42

>  <m_primary>  (20) 
energy

$$$$
20:0
     RDKit          3D

 38 39  0  0  0  0  0  0  0  0999 V2000
   -9.3090   21.2680  -30.8800 C   0  0  0  0  0  0  0  0  0  0  0  0
   -9.7510   20.8060  -32.2670 C   0  0  0  0  0  0  0  0  0  0  0  0
   -9.1200   19.4710  -32.6940 C   0  0  0  0  0  0  0  0  0  0  0  0
   -8.8430   18.5050  -31.5220 C   0  0  0  0  0  0  0  0  0  0  0  0
   -7.3620   18.1120  -31.4200 C   0  0  0  0  0  0  0  0  0  0  0  0
   -6.6590   18.3200  -32.7320 C   0  0  0  0  0  0  0  0  0  0  0  0
   -6.6170   17.4200  -33.7770 C   0  0  0  0  0  0  0  0  0  0  0  0
   -6.0030   18.0030  -34.8190 N   0  0  0  0  0  0  0  0  0  0  0  0
   -5.6510   19.2380  -34.4990 N   0  0  0  0  0  0  0  0  0  0  0  0
   -6.0300   19.4590  -33.2240 C   0  0  0  0  0  0  0  0  0  0  0  0
   -5.8180   20.7460  -32.5330 C   0  0  0  0  0  0  0  0  0  0  0  0
   -4.6510   20.9840  -31.7920 C   0  0  0  0  0  0  0  0  0  0  0  0
   -4.4590   22.2090  -31.1480 C   0  0  0  0  0  0  0  0  0  0  0  0
   -5.4240   23.2210  -31.2550 C   0  0  0  0  0  0  0  0  0  0  0  0
   -5.1910   24.7590  -30.4300 S   0  0  0  0  0  0  0  0  0  0  0  0
   -3.5340   25.2320  -30.5460 N   0  0  0  0  0  0  0  0  0  0  0  0
   -6.0570   25.8120  -31.0620 O   0  0  0  0  0  0  0  0  0  0  0  0
   -5.5760   24.6240  -28.9840 O   0  0  0  0  0  0  0  0  0  0  0  0
   -6.5810   22.9940  -32.0100 C   0  0  0  0  0  0  0  0  0  0  0  0
   -6.7730   21.7680  -32.6530 C   0  0  0  0  0  0  0  0  0  0  0  0
   -9.8540   20.6984  -30.1128 H   0  0  0  0  0  0  0  0  0  0  0  0
   -8.2284   21.0983  -30.7641 H   0  0  0  0  0  0  0  0  0  0  0  0
   -9.5263   22.3401  -30.7641 H   0  0  0  0  0  0  0  0  0  0  0  0
  -10.8448   20.6898  -32.2640 H   0  0  0  0  0  0  0  0  0  0  0  0
   -9.4167   21.5686  -32.9858 H   0  0  0  0  0  0  0  0  0  0  0  0
   -9.8042   18.9742  -33.3976 H   0  0  0  0  0  0  0  0  0  0  0  0
   -8.1465   19.7093  -33.1474 H   0  0  0  0  0  0  0  0  0  0  0  0
   -9.1435   18.9939  -30.5836 H   0  0  0  0  0  0  0  0  0  0  0  0
   -9.4204   17.5864  -31.7030 H   0  0  0  0  0  0  0  0  0  0  0  0
   -6.8777   18.7306  -30.6501 H   0  0  0  0  0  0  0  0  0  0  0  0
   -7.2992   17.0467  -31.1533 H   0  0  0  0  0  0  0  0  0  0  0  0
   -7.0192   16.3963  -33.7594 H   0  0  0  0  0  0  0  0  0  0  0  0
   -5.8360   17.5690  -35.7540 H   0  0  0  0  0  0  0  0  0  0  0  0
   -3.8819   20.2011  -31.7174 H   0  0  0  0  0  0  0  0  0  0  0  0
   -3.5483   22.3802  -30.5553 H   0  0  0  0  0  0  0  0  0  0  0  0
   -3.4920   26.0290  -31.2210 H   0  0  0  0  0  0  0  0  0  0  0  0
   -7.3418   23.7836  -32.0974 H   0  0  0  0  0  0  0  0  0  0  0  0
   -7.6777   21.6029  -33.2566 H   0  0  0  0  0  0  0  0  0  0  0  0
  1  2  1  0
  2  3  1  0
  3  4  1  0
  4  5  1  0
  5  6  1  0
  6  7  2  0
  7  8  1  0
  8  9  1  0
  9 10  2  0
 10 11  1  0
 11 12  2  0
 12 13  1  0
 13 14  2  0
 14 15  1  0
 15 16  1  0
 15 17  2  0
 15 18  2  0
 14 19  1  0
 19 20  2  0
 10  6  1  0
 20 11  1  0
  1 21  1  0
  1 22  1  0
  1 23  1  0
  2 24  1  0
  2 25  1  0
  3 26  1  0
  3 27  1  0
  4 28  1  0
  4 29  1  0
  5 30  1  0
  5 31  1  0
  7 32  1  0
  8 33  1  0
 12 34  1  0
 13 35  1  0
 16 36  1  0
 19 37  1  0
 20 38  1  0
M  CHG  1  16  -1
M  END
>  <UniqueID>  (21) 
21

>  <SMILES>  (21) 
CCCCCc1c[nH]nc1-c1ccc(S([NH-])(=O)=O)cc1

>  <Energy>  (21) 
65.23684658484869

>  <Genealogy>  (21) 
CCCCCc1c[nH]nc1-c1ccc(S([NH-])(=O)=O)cc1 (protonated)
CCCCCc1c[nH]nc1-c1ccc(S([NH-])(=O)=O)cc1 (3D coordinates assigned)
CCCCCc1c[nH]nc1-c1ccc(S([NH-])(=O)=O)cc1 (optimized conformer: 65.23684658484869 kcal/mol)

>  <smiles>  (21) 
CCCCCc1c[nH]nc1-c1ccc(S(N)(=O)=O)cc1

>  <score_type>  (21) 
oracle

>  <origin>  (21) 
adgpu

>  <m_score__min__energy>  (21) 
-10.48

>  <m_primary>  (21) 
energy

$$$$
21:0
     RDKit          3D

 39 41  0  0  0  0  0  0  0  0999 V2000
   -1.6120   25.6690  -29.0340 N   0  0  0  0  0  0  0  0  0  0  0  0
   -0.9440   24.4580  -28.6810 C   0  0  0  0  0  0  0  0  0  0  0  0
    0.3110   24.4520  -28.5760 O   0  0  0  0  0  0  0  0  0  0  0  0
   -1.7080   23.2020  -28.4930 C   0  0  0  0  0  0  0  0  0  0  0  0
   -1.0040   22.0300  -28.1580 C   0  0  0  0  0  0  0  0  0  0  0  0
   -1.6610   20.8000  -28.0950 C   0  0  0  0  0  0  0  0  0  0  0  0
   -3.0320   20.7220  -28.3450 C   0  0  0  0  0  0  0  0  0  0  0  0
   -3.7530   21.8760  -28.6480 C   0  0  0  0  0  0  0  0  0  0  0  0
   -3.1100   23.1220  -28.7080 C   0  0  0  0  0  0  0  0  0  0  0  0
   -3.9150   24.2780  -28.9750 N   0  0  0  0  0  0  0  0  0  0  0  0
   -4.4410   24.6160  -30.2600 C   0  0  0  0  0  0  0  0  0  0  0  0
   -3.9620   25.5940  -30.8960 O   0  0  0  0  0  0  0  0  0  0  0  0
   -5.5410   23.8140  -30.8260 C   0  0  0  0  0  0  0  0  0  0  0  0
   -7.1650   24.0710  -30.4680 S   0  0  0  0  0  0  0  0  0  0  0  0
   -7.7800   22.8100  -31.3870 C   0  0  0  0  0  0  0  0  0  0  0  0
   -6.7150   22.1560  -31.9870 C   0  0  0  0  0  0  0  0  0  0  0  0
   -5.4610   22.7050  -31.6790 C   0  0  0  0  0  0  0  0  0  0  0  0
   -3.9620   22.0010  -32.2790 S   0  0  0  0  0  0  0  0  0  0  0  0
   -3.8490   22.2490  -33.7590 O   0  0  0  0  0  0  0  0  0  0  0  0
   -2.8030   22.6460  -31.5680 O   0  0  0  0  0  0  0  0  0  0  0  0
   -3.9950   20.2910  -31.9810 N   0  0  0  0  0  0  0  0  0  0  0  0
   -4.9380   19.3230  -32.4730 C   0  0  0  0  0  0  0  0  0  0  0  0
   -6.0510   19.0370  -31.6650 C   0  0  0  0  0  0  0  0  0  0  0  0
   -7.0120   18.1100  -32.0730 C   0  0  0  0  0  0  0  0  0  0  0  0
   -6.8740   17.4510  -33.2960 C   0  0  0  0  0  0  0  0  0  0  0  0
   -5.7700   17.7180  -34.1100 C   0  0  0  0  0  0  0  0  0  0  0  0
   -4.8010   18.6480  -33.7110 C   0  0  0  0  0  0  0  0  0  0  0  0
   -3.7200   18.8710  -34.5520 O   0  0  0  0  0  0  0  0  0  0  0  0
   -2.6220   25.6700  -29.2960 H   0  0  0  0  0  0  0  0  0  0  0  0
    0.0736   22.0839  -27.9439 H   0  0  0  0  0  0  0  0  0  0  0  0
   -1.0963   19.8890  -27.8475 H   0  0  0  0  0  0  0  0  0  0  0  0
   -3.5439   19.7493  -28.3029 H   0  0  0  0  0  0  0  0  0  0  0  0
   -4.8338   21.8095  -28.8415 H   0  0  0  0  0  0  0  0  0  0  0  0
   -8.8428   22.5477  -31.4948 H   0  0  0  0  0  0  0  0  0  0  0  0
   -6.8418   21.2843  -32.6459 H   0  0  0  0  0  0  0  0  0  0  0  0
   -6.1668   19.5498  -30.6988 H   0  0  0  0  0  0  0  0  0  0  0  0
   -7.8791   17.8986  -31.4299 H   0  0  0  0  0  0  0  0  0  0  0  0
   -7.6329   16.7229  -33.6183 H   0  0  0  0  0  0  0  0  0  0  0  0
   -5.6609   17.1942  -35.0711 H   0  0  0  0  0  0  0  0  0  0  0  0
  1  2  1  0
  2  3  2  0
  2  4  1  0
  4  5  2  0
  5  6  1  0
  6  7  2  0
  7  8  1  0
  8  9  2  0
  9 10  1  0
 10 11  1  0
 11 12  2  0
 11 13  1  0
 13 14  1  0
 14 15  1  0
 15 16  2  0
 16 17  1  0
 17 18  1  0
 18 19  2  0
 18 20  2  0
 18 21  1  0
 21 22  1  0
 22 23  2  0
 23 24  1  0
 24 25  2  0
 25 26  1  0
 26 27  2  0
 27 28  1  0
  9  4  1  0
 17 13  2  0
 27 22  1  0
  1 29  1  0
  5 30  1  0
  6 31  1  0
  7 32  1  0
  8 33  1  0
 15 34  1  0
 16 35  1  0
 23 36  1  0
 24 37  1  0
 25 38  1  0
 26 39  1  0
M  CHG  4   1  -1  10  -1  21  -1  28  -1
M  END
>  <UniqueID>  (22) 
22

>  <SMILES>  (22) 
[NH-]C(=O)c1ccccc1[N-]C(=O)c1sccc1S(=O)(=O)[N-]c1ccccc1[O-]

>  <Energy>  (22) 
84.91996296538547

>  <Genealogy>  (22) 
[NH-]C(=O)c1ccccc1[N-]C(=O)c1sccc1S(=O)(=O)[N-]c1ccccc1[O-] (protonated)
[NH-]C(=O)c1ccccc1[N-]C(=O)c1sccc1S(=O)(=O)[N-]c1ccccc1[O-] (3D coordinates assigned)
[NH-]C(=O)c1ccccc1[N-]C(=O)c1sccc1S(=O)(=O)[N-]c1ccccc1[O-] (optimized conformer: 84.91996296538547 kcal/mol)

>  <smiles>  (22) 
NC(=O)c1ccccc1NC(=O)c1sccc1S(=O)(=O)Nc1ccccc1O

>  <score_type>  (22) 
oracle

>  <origin>  (22) 
adgpu

>  <m_score__min__energy>  (22) 
-13.75

>  <m_primary>  (22) 
energy

$$$$
22:0
     RDKit          3D

 52 55  0  0  0  0  0  0  0  0999 V2000
   -3.4790   16.9590  -34.6920 C   0  0  0  0  0  0  0  0  0  0  0  0
   -3.5200   18.3680  -34.1640 C   0  0  0  0  0  0  0  0  0  0  0  0
   -4.7010   18.8190  -33.5510 C   0  0  0  0  0  0  0  0  0  0  0  0
   -4.7960   20.1240  -33.0290 C   0  0  0  0  0  0  0  0  0  0  0  0
   -5.9710   20.6140  -32.4060 C   0  0  0  0  0  0  0  0  0  0  0  0
   -7.2110   19.7660  -32.2660 C   0  0  0  0  0  0  0  0  0  0  0  0
   -5.9850   21.9270  -31.9130 C   0  0  0  0  0  0  0  0  0  0  0  0
   -4.8500   22.7300  -32.0350 C   0  0  0  0  0  0  0  0  0  0  0  0
   -4.8580   23.9090  -31.5920 O   0  0  0  0  0  0  0  0  0  0  0  0
   -3.7320   22.2430  -32.6330 N   0  0  0  0  0  0  0  0  0  0  0  0
   -3.6750   20.9790  -33.1270 C   0  0  0  0  0  0  0  0  0  0  0  0
   -2.4960   20.5280  -33.7240 C   0  0  0  0  0  0  0  0  0  0  0  0
   -2.3970   19.2250  -34.2220 C   0  0  0  0  0  0  0  0  0  0  0  0
   -0.8290   18.7130  -34.9500 S   0  0  0  0  0  0  0  0  0  0  0  0
   -0.4440   17.5520  -33.6260 C   0  0  0  0  0  0  0  0  0  0  0  0
   -0.3150   16.1950  -33.9560 C   0  0  0  0  0  0  0  0  0  0  0  0
   -0.0980   15.2400  -32.9630 C   0  0  0  0  0  0  0  0  0  0  0  0
   -0.0050   15.6300  -31.6270 C   0  0  0  0  0  0  0  0  0  0  0  0
   -0.1040   16.9800  -31.2840 C   0  0  0  0  0  0  0  0  0  0  0  0
   -0.3000   17.9600  -32.2760 C   0  0  0  0  0  0  0  0  0  0  0  0
   -0.3240   19.3830  -31.8650 C   0  0  0  0  0  0  0  0  0  0  0  0
    0.1950   20.2500  -32.6190 O   0  0  0  0  0  0  0  0  0  0  0  0
   -1.0310   19.7880  -30.6810 N   0  0  0  0  0  0  0  0  0  0  0  0
   -0.8710   21.0600  -30.0250 C   0  0  0  0  0  0  0  0  0  0  0  0
   -0.1610   21.1870  -28.8160 C   0  0  0  0  0  0  0  0  0  0  0  0
   -0.0650   22.4290  -28.1800 C   0  0  0  0  0  0  0  0  0  0  0  0
   -0.6820   23.5560  -28.7350 C   0  0  0  0  0  0  0  0  0  0  0  0
   -0.5510   25.1130  -27.9210 S   0  0  0  0  0  0  0  0  0  0  0  0
   -1.2370   26.3470  -28.9190 N   0  0  0  0  0  0  0  0  0  0  0  0
    0.8960   25.4200  -27.6570 O   0  0  0  0  0  0  0  0  0  0  0  0
   -1.2850   25.0730  -26.6100 O   0  0  0  0  0  0  0  0  0  0  0  0
   -1.3960   23.4340  -29.9330 C   0  0  0  0  0  0  0  0  0  0  0  0
   -1.4940   22.1930  -30.5690 C   0  0  0  0  0  0  0  0  0  0  0  0
   -3.4584   16.2521  -33.8494 H   0  0  0  0  0  0  0  0  0  0  0  0
   -4.3721   16.7715  -35.3062 H   0  0  0  0  0  0  0  0  0  0  0  0
   -2.5765   16.8237  -35.3062 H   0  0  0  0  0  0  0  0  0  0  0  0
   -5.5652   18.1424  -33.4775 H   0  0  0  0  0  0  0  0  0  0  0  0
   -7.4329   19.6142  -31.1994 H   0  0  0  0  0  0  0  0  0  0  0  0
   -8.0591   20.2741  -32.7483 H   0  0  0  0  0  0  0  0  0  0  0  0
   -7.0451   18.7914  -32.7483 H   0  0  0  0  0  0  0  0  0  0  0  0
   -6.8903   22.3238  -31.4303 H   0  0  0  0  0  0  0  0  0  0  0  0
   -1.6339   21.2065  -33.8036 H   0  0  0  0  0  0  0  0  0  0  0  0
   -0.3856   15.8810  -35.0079 H   0  0  0  0  0  0  0  0  0  0  0  0
   -0.0001   14.1783  -33.2336 H   0  0  0  0  0  0  0  0  0  0  0  0
    0.1465   14.8735  -30.8430 H   0  0  0  0  0  0  0  0  0  0  0  0
   -0.0281   17.2808  -30.2287 H   0  0  0  0  0  0  0  0  0  0  0  0
   -1.7710   19.1450  -30.3200 H   0  0  0  0  0  0  0  0  0  0  0  0
    0.3208   20.3048  -28.3692 H   0  0  0  0  0  0  0  0  0  0  0  0
    0.4979   22.5204  -27.2394 H   0  0  0  0  0  0  0  0  0  0  0  0
   -1.1220   26.0380  -29.9100 H   0  0  0  0  0  0  0  0  0  0  0  0
   -1.8811   24.3168  -30.3749 H   0  0  0  0  0  0  0  0  0  0  0  0
   -2.0651   22.1041  -31.5049 H   0  0  0  0  0  0  0  0  0  0  0  0
  1  2  1  0
  2  3  2  0
  3  4  1  0
  4  5  1  0
  5  6  1  0
  5  7  2  0
  7  8  1  0
  8  9  2  0
  8 10  1  0
 10 11  1  0
 11 12  1  0
 12 13  2  0
 13 14  1  0
 14 15  1  0
 15 16  2  0
 16 17  1  0
 17 18  2  0
 18 19  1  0
 19 20  2  0
 20 21  1  0
 21 22  2  0
 21 23  1  0
 23 24  1  0
 24 25  2  0
 25 26  1  0
 26 27  2  0
 27 28  1  0
 28 29  1  0
 28 30  2  0
 28 31  2  0
 27 32  1  0
 32 33  2  0
 13  2  1  0
 20 15  1  0
 33 24  1  0
 11  4  2  0
  1 34  1  0
  1 35  1  0
  1 36  1  0
  3 37  1  0
  6 38  1  0
  6 39  1  0
  6 40  1  0
  7 41  1  0
 12 42  1  0
 16 43  1  0
 17 44  1  0
 18 45  1  0
 19 46  1  0
 23 47  1  0
 25 48  1  0
 26 49  1  0
 29 50  1  0
 32 51  1  0
 33 52  1  0
M  CHG  2  10  -1  29  -1
M  END
>  <UniqueID>  (23) 
23

>  <SMILES>  (23) 
Cc1cc2c(C)cc(=O)[n-]c2cc1Sc1ccccc1C(=O)Nc1ccc(S([NH-])(=O)=O)cc1

>  <Energy>  (23) 
65.52555709995355

>  <Genealogy>  (23) 
Cc1cc2c(C)cc(=O)[n-]c2cc1Sc1ccccc1C(=O)Nc1ccc(S([NH-])(=O)=O)cc1 (protonated)
Cc1cc2c(C)cc(=O)[n-]c2cc1Sc1ccccc1C(=O)Nc1ccc(S([NH-])(=O)=O)cc1 (3D coordinates assigned)
Cc1cc2c(C)cc(=O)[n-]c2cc1Sc1ccccc1C(=O)Nc1ccc(S([NH-])(=O)=O)cc1 (optimized conformer: 65.52555709995355 kcal/mol)

>  <smiles>  (23) 
Cc1cc2c(C)cc(=O)[nH]c2cc1Sc1ccccc1C(=O)Nc1ccc(S(N)(=O)=O)cc1

>  <score_type>  (23) 
oracle

>  <origin>  (23) 
adgpu

>  <m_score__min__energy>  (23) 
-10.949999999999999

>  <m_primary>  (23) 
energy

$$$$
23:0
     RDKit          3D

 29 31  0  0  0  0  0  0  0  0999 V2000
   -5.9010   25.8530  -30.3420 O   0  0  0  0  0  0  0  0  0  0  0  0
   -5.0960   24.9490  -30.6980 C   0  0  0  0  0  0  0  0  0  0  0  0
   -3.6900   25.1200  -30.4730 N   0  0  0  0  0  0  0  0  0  0  0  0
   -2.9220   24.3420  -29.5450 C   0  0  0  0  0  0  0  0  0  0  0  0
   -3.3510   23.0400  -29.2540 C   0  0  0  0  0  0  0  0  0  0  0  0
   -2.6580   22.2610  -28.3240 C   0  0  0  0  0  0  0  0  0  0  0  0
   -3.0790   21.0040  -28.0200 N   0  0  0  0  0  0  0  0  0  0  0  0
   -2.4130   20.2420  -27.1130 C   0  0  0  0  0  0  0  0  0  0  0  0
   -2.8210   19.0810  -26.8470 O   0  0  0  0  0  0  0  0  0  0  0  0
   -1.2770   20.7560  -26.4780 C   0  0  0  0  0  0  0  0  0  0  0  0
   -0.8530   22.0110  -26.7780 N   0  0  0  0  0  0  0  0  0  0  0  0
   -1.5150   22.7800  -27.6850 C   0  0  0  0  0  0  0  0  0  0  0  0
   -1.0640   24.0650  -27.9940 C   0  0  0  0  0  0  0  0  0  0  0  0
   -1.7450   24.8450  -28.9390 C   0  0  0  0  0  0  0  0  0  0  0  0
   -1.2120   26.0880  -29.2780 O   0  0  0  0  0  0  0  0  0  0  0  0
   -5.6040   23.7070  -31.3230 C   0  0  0  0  0  0  0  0  0  0  0  0
   -4.7530   22.8790  -32.0770 C   0  0  0  0  0  0  0  0  0  0  0  0
   -5.2290   21.7400  -32.6470 N   0  0  0  0  0  0  0  0  0  0  0  0
   -6.5260   21.3610  -32.5120 C   0  0  0  0  0  0  0  0  0  0  0  0
   -7.4110   22.1480  -31.7730 C   0  0  0  0  0  0  0  0  0  0  0  0
   -9.2370   21.6210  -31.5770 Br  0  0  0  0  0  0  0  0  0  0  0  0
   -6.9480   23.3230  -31.1770 C   0  0  0  0  0  0  0  0  0  0  0  0
   -4.2373   22.6295  -29.7600 H   0  0  0  0  0  0  0  0  0  0  0  0
   -0.7314   20.1481  -25.7413 H   0  0  0  0  0  0  0  0  0  0  0  0
   -0.1706   24.4669  -27.4937 H   0  0  0  0  0  0  0  0  0  0  0  0
   -1.2340   26.4550  -30.2200 H   0  0  0  0  0  0  0  0  0  0  0  0
   -3.6960   23.1546  -32.2063 H   0  0  0  0  0  0  0  0  0  0  0  0
   -6.8795   20.4331  -32.9853 H   0  0  0  0  0  0  0  0  0  0  0  0
   -7.6371   23.9496  -30.5917 H   0  0  0  0  0  0  0  0  0  0  0  0
  1  2  2  0
  2  3  1  0
  3  4  1  0
  4  5  2  0
  5  6  1  0
  6  7  1  0
  7  8  1  0
  8  9  2  0
  8 10  1  0
 10 11  2  0
 11 12  1  0
 12 13  1  0
 13 14  2  0
 14 15  1  0
  2 16  1  0
 16 17  2  0
 17 18  1  0
 18 19  2  0
 19 20  1  0
 20 21  1  0
 20 22  2  0
 14  4  1  0
 22 16  1  0
 12  6  2  0
  5 23  1  0
 10 24  1  0
 13 25  1  0
 15 26  1  0
 17 27  1  0
 19 28  1  0
 22 29  1  0
M  CHG  2   3  -1   7  -1
M  END
>  <UniqueID>  (24) 
24

>  <SMILES>  (24) 
O=C([N-]c1cc2[n-]c(=O)cnc2cc1O)c1cncc(Br)c1

>  <Energy>  (24) 
44.669343921388766

>  <Genealogy>  (24) 
O=C([N-]c1cc2[n-]c(=O)cnc2cc1O)c1cncc(Br)c1 (protonated)
O=C([N-]c1cc2[n-]c(=O)cnc2cc1O)c1cncc(Br)c1 (3D coordinates assigned)
O=C([N-]c1cc2[n-]c(=O)cnc2cc1O)c1cncc(Br)c1 (optimized conformer: 44.669343921388766 kcal/mol)

>  <smiles>  (24) 
O=C(Nc1cc2[nH]c(=O)cnc2cc1O)c1cncc(Br)c1

>  <score_type>  (24) 
oracle

>  <origin>  (24) 
adgpu

>  <m_score__min__energy>  (24) 
-10.9

>  <m_primary>  (24) 
energy

$$$$
24:0
     RDKit          3D

 40 41  0  0  0  0  0  0  0  0999 V2000
   -9.4440   20.3750  -32.3260 C   0  0  0  0  0  0  0  0  0  0  0  0
   -9.4030   21.8940  -31.3680 S   0  0  0  0  0  0  0  0  0  0  0  0
   -7.7870   22.6060  -31.2430 C   0  0  0  0  0  0  0  0  0  0  0  0
   -7.6030   23.6540  -30.4010 N   0  0  0  0  0  0  0  0  0  0  0  0
   -6.4070   24.2260  -30.2700 C   0  0  0  0  0  0  0  0  0  0  0  0
   -6.2960   25.2190  -29.4540 N   0  0  0  0  0  0  0  0  0  0  0  0
   -5.3620   23.7330  -31.0070 C   0  0  0  0  0  0  0  0  0  0  0  0
   -4.0860   24.3480  -30.8630 N   0  0  0  0  0  0  0  0  0  0  0  0
   -3.9730   25.5910  -30.8370 O   0  0  0  0  0  0  0  0  0  0  0  0
   -5.5060   22.6530  -31.8880 C   0  0  0  0  0  0  0  0  0  0  0  0
   -4.3850   22.1880  -32.5960 N   0  0  0  0  0  0  0  0  0  0  0  0
   -4.1530   20.8840  -33.0690 C   0  0  0  0  0  0  0  0  0  0  0  0
   -5.2510   20.1060  -33.4420 C   0  0  0  0  0  0  0  0  0  0  0  0
   -5.1160   18.8100  -33.8930 C   0  0  0  0  0  0  0  0  0  0  0  0
   -3.8710   18.2280  -33.9940 C   0  0  0  0  0  0  0  0  0  0  0  0
   -3.6830   16.5870  -34.5610 S   0  0  0  0  0  0  0  0  0  0  0  0
   -2.2780   16.1120  -34.2850 O   0  0  0  0  0  0  0  0  0  0  0  0
   -3.8920   16.5270  -36.0480 O   0  0  0  0  0  0  0  0  0  0  0  0
   -4.8180   15.5030  -33.8470 N   0  0  0  0  0  0  0  0  0  0  0  0
   -4.7650   15.6110  -32.4160 C   0  0  0  0  0  0  0  0  0  0  0  0
   -6.1780   15.9120  -34.2240 C   0  0  0  0  0  0  0  0  0  0  0  0
   -2.7670   18.9720  -33.6330 C   0  0  0  0  0  0  0  0  0  0  0  0
   -2.9250   20.2810  -33.1790 C   0  0  0  0  0  0  0  0  0  0  0  0
   -6.7400   22.1350  -31.9600 N   0  0  0  0  0  0  0  0  0  0  0  0
   -9.4673   19.5121  -31.6442 H   0  0  0  0  0  0  0  0  0  0  0  0
  -10.3427   20.3656  -32.9602 H   0  0  0  0  0  0  0  0  0  0  0  0
   -8.5471   20.3172  -32.9602 H   0  0  0  0  0  0  0  0  0  0  0  0
   -5.3360   25.6500  -29.3740 H   0  0  0  0  0  0  0  0  0  0  0  0
   -3.6180   22.8960  -32.8030 H   0  0  0  0  0  0  0  0  0  0  0  0
   -6.2585   20.5422  -33.3737 H   0  0  0  0  0  0  0  0  0  0  0  0
   -6.0106   18.2353  -34.1748 H   0  0  0  0  0  0  0  0  0  0  0  0
   -5.2068   14.7108  -31.9637 H   0  0  0  0  0  0  0  0  0  0  0  0
   -3.7175   15.7068  -32.0941 H   0  0  0  0  0  0  0  0  0  0  0  0
   -5.3301   16.4981  -32.0941 H   0  0  0  0  0  0  0  0  0  0  0  0
   -6.7722   16.0907  -33.3157 H   0  0  0  0  0  0  0  0  0  0  0  0
   -6.1313   16.8358  -34.8193 H   0  0  0  0  0  0  0  0  0  0  0  0
   -6.6486   15.1157  -34.8193 H   0  0  0  0  0  0  0  0  0  0  0  0
   -1.7611   18.5324  -33.7033 H   0  0  0  0  0  0  0  0  0  0  0  0
   -2.0289   20.8536  -32.8976 H   0  0  0  0  0  0  0  0  0  0  0  0
   -6.9390   21.3240  -32.5750 H   0  0  0  0  0  0  0  0  0  0  0  0
  1  2  1  0
  2  3  1  0
  3  4  2  0
  4  5  1  0
  5  6  2  3
  5  7  1  0
  7  8  1  0
  8  9  2  0
  7 10  2  0
 10 11  1  0
 11 12  1  0
 12 13  2  0
 13 14  1  0
 14 15  2  0
 15 16  1  0
 16 17  2  0
 16 18  2  0
 16 19  1  0
 19 20  1  0
 19 21  1  0
 15 22  1  0
 22 23  2  0
 10 24  1  0
 24  3  1  0
 23 12  1  0
  1 25  1  0
  1 26  1  0
  1 27  1  0
  6 28  1  0
 11 29  1  0
 13 30  1  0
 14 31  1  0
 20 32  1  0
 20 33  1  0
 20 34  1  0
 21 35  1  0
 21 36  1  0
 21 37  1  0
 22 38  1  0
 23 39  1  0
 24 40  1  0
M  END
>  <smiles>  (25) 
CSc1nc(=N)c(N=O)c(Nc2ccc(S(=O)(=O)N(C)C)cc2)[nH]1

>  <score_type>  (25) 
oracle

>  <origin>  (25) 
adgpu

>  <m_score__min__energy>  (25) 
-7.9800000000000004

>  <m_primary>  (25) 
energy

$$$$
25:0
     RDKit          3D

 47 49  0  0  0  0  0  0  0  0999 V2000
   -1.6740   24.1400  -29.5590 O   0  0  0  0  0  0  0  0  0  0  0  0
   -3.1210   23.8470  -29.8400 S   0  0  0  0  0  0  0  0  0  0  0  0
   -3.8180   23.5710  -28.5400 O   0  0  0  0  0  0  0  0  0  0  0  0
   -3.8460   25.2380  -30.5910 N   0  0  0  0  0  0  0  0  0  0  0  0
   -5.2440   25.3940  -30.1770 C   0  0  0  0  0  0  0  0  0  0  0  0
   -6.0640   24.2230  -30.6540 C   0  0  0  0  0  0  0  0  0  0  0  0
   -6.0950   23.8770  -32.0160 C   0  0  0  0  0  0  0  0  0  0  0  0
   -6.8680   22.7960  -32.4520 C   0  0  0  0  0  0  0  0  0  0  0  0
   -7.6040   22.0450  -31.5320 C   0  0  0  0  0  0  0  0  0  0  0  0
   -7.5870   22.3870  -30.1760 C   0  0  0  0  0  0  0  0  0  0  0  0
   -6.8280   23.4780  -29.7400 C   0  0  0  0  0  0  0  0  0  0  0  0
   -3.2650   22.4290  -30.8750 C   0  0  0  0  0  0  0  0  0  0  0  0
   -4.1790   21.4170  -30.5490 C   0  0  0  0  0  0  0  0  0  0  0  0
   -4.2840   20.2780  -31.3520 C   0  0  0  0  0  0  0  0  0  0  0  0
   -3.4650   20.1350  -32.4800 C   0  0  0  0  0  0  0  0  0  0  0  0
   -3.5700   18.7020  -33.5020 S   0  0  0  0  0  0  0  0  0  0  0  0
   -3.4180   17.4600  -32.6670 O   0  0  0  0  0  0  0  0  0  0  0  0
   -2.4400   18.7500  -34.4930 O   0  0  0  0  0  0  0  0  0  0  0  0
   -5.0970   18.6740  -34.3590 N   0  0  0  0  0  0  0  0  0  0  0  0
   -6.1490   19.4150  -33.6360 C   0  0  0  0  0  0  0  0  0  0  0  0
   -6.6950   18.6510  -32.4120 C   0  0  0  0  0  0  0  0  0  0  0  0
   -6.8310   17.1370  -32.6530 C   0  0  0  0  0  0  0  0  0  0  0  0
   -6.7840   16.7920  -34.1410 C   0  0  0  0  0  0  0  0  0  0  0  0
   -5.4740   17.2980  -34.7710 C   0  0  0  0  0  0  0  0  0  0  0  0
   -2.5530   21.1460  -32.8070 C   0  0  0  0  0  0  0  0  0  0  0  0
   -2.4530   22.2890  -32.0100 C   0  0  0  0  0  0  0  0  0  0  0  0
   -5.2936   25.4488  -29.0795 H   0  0  0  0  0  0  0  0  0  0  0  0
   -5.6473   26.3171  -30.6187 H   0  0  0  0  0  0  0  0  0  0  0  0
   -5.5087   24.4590  -32.7422 H   0  0  0  0  0  0  0  0  0  0  0  0
   -6.8965   22.5367  -33.5206 H   0  0  0  0  0  0  0  0  0  0  0  0
   -8.1972   21.1842  -31.8744 H   0  0  0  0  0  0  0  0  0  0  0  0
   -8.1703   21.7983  -29.4527 H   0  0  0  0  0  0  0  0  0  0  0  0
   -6.8292   23.7544  -28.6753 H   0  0  0  0  0  0  0  0  0  0  0  0
   -4.8158   21.5199  -29.6580 H   0  0  0  0  0  0  0  0  0  0  0  0
   -5.0108   19.4924  -31.0981 H   0  0  0  0  0  0  0  0  0  0  0  0
   -5.7299   20.3724  -33.2927 H   0  0  0  0  0  0  0  0  0  0  0  0
   -6.9873   19.5588  -34.3336 H   0  0  0  0  0  0  0  0  0  0  0  0
   -6.0097   18.8102  -31.5664 H   0  0  0  0  0  0  0  0  0  0  0  0
   -7.7028   19.0409  -32.2064 H   0  0  0  0  0  0  0  0  0  0  0  0
   -6.0060   16.6196  -32.1415 H   0  0  0  0  0  0  0  0  0  0  0  0
   -7.8057   16.8144  -32.2582 H   0  0  0  0  0  0  0  0  0  0  0  0
   -6.8455   15.7004  -34.2615 H   0  0  0  0  0  0  0  0  0  0  0  0
   -7.6321   17.2779  -34.6456 H   0  0  0  0  0  0  0  0  0  0  0  0
   -4.6630   16.6149  -34.4781 H   0  0  0  0  0  0  0  0  0  0  0  0
   -5.6338   17.3244  -35.8590 H   0  0  0  0  0  0  0  0  0  0  0  0
   -1.9127   21.0398  -33.6951 H   0  0  0  0  0  0  0  0  0  0  0  0
   -1.7361   23.0807  -32.2731 H   0  0  0  0  0  0  0  0  0  0  0  0
  1  2  2  0
  2  3  2  0
  2  4  1  0
  4  5  1  0
  5  6  1  0
  6  7  2  0
  7  8  1  0
  8  9  2  0
  9 10  1  0
 10 11  2  0
  2 12  1  0
 12 13  2  0
 13 14  1  0
 14 15  2  0
 15 16  1  0
 16 17  2  0
 16 18  2  0
 16 19  1  0
 19 20  1  0
 20 21  1  0
 21 22  1  0
 22 23  1  0
 23 24  1  0
 15 25  1  0
 25 26  2  0
 11  6  1  0
 26 12  1  0
 24 19  1  0
  5 27  1  0
  5 28  1  0
  7 29  1  0
  8 30  1  0
  9 31  1  0
 10 32  1  0
 11 33  1  0
 13 34  1  0
 14 35  1  0
 20 36  1  0
 20 37  1  0
 21 38  1  0
 21 39  1  0
 22 40  1  0
 22 41  1  0
 23 42  1  0
 23 43  1  0
 24 44  1  0
 24 45  1  0
 25 46  1  0
 26 47  1  0
M  CHG  1   4  -1
M  END
>  <UniqueID>  (26) 
25

>  <SMILES>  (26) 
O=S(=O)([N-]Cc1ccccc1)c1ccc(S(=O)(=O)N2CCCCC2)cc1

>  <Energy>  (26) 
50.84132047121752

>  <Genealogy>  (26) 
O=S(=O)([N-]Cc1ccccc1)c1ccc(S(=O)(=O)N2CCCCC2)cc1 (protonated)
O=S(=O)([N-]Cc1ccccc1)c1ccc(S(=O)(=O)N2CCCCC2)cc1 (3D coordinates assigned)
O=S(=O)([N-]Cc1ccccc1)c1ccc(S(=O)(=O)N2CCCCC2)cc1 (nonaromatic ring conformer: 50.84132047121752 kcal/mol)

>  <smiles>  (26) 
O=S(=O)(NCc1ccccc1)c1ccc(S(=O)(=O)N2CCCCC2)cc1

>  <score_type>  (26) 
oracle

>  <origin>  (26) 
adgpu

>  <m_score__min__energy>  (26) 
-10.460000000000001

>  <m_primary>  (26) 
energy

$$$$
26:0
     RDKit          3D

 44 46  0  0  0  0  0  0  0  0999 V2000
   -7.4540   23.5740  -30.4620 C   0  0  0  0  0  0  0  0  0  0  0  0
   -7.1560   22.3110  -31.2390 C   0  0  0  0  0  0  0  0  0  0  0  0
   -5.8380   21.8060  -31.3310 C   0  0  0  0  0  0  0  0  0  0  0  0
   -4.7240   22.5050  -30.6510 C   0  0  0  0  0  0  0  0  0  0  0  0
   -3.8560   21.7960  -29.8080 C   0  0  0  0  0  0  0  0  0  0  0  0
   -2.8040   22.4570  -29.1670 C   0  0  0  0  0  0  0  0  0  0  0  0
   -2.6170   23.8330  -29.3550 C   0  0  0  0  0  0  0  0  0  0  0  0
   -1.2810   24.6610  -28.5620 S   0  0  0  0  0  0  0  0  0  0  0  0
   -1.4740   24.5370  -26.7980 C   0  0  0  0  0  0  0  0  0  0  0  0
   -1.2650   26.1080  -28.9660 O   0  0  0  0  0  0  0  0  0  0  0  0
    0.0220   24.0320  -28.9690 O   0  0  0  0  0  0  0  0  0  0  0  0
   -3.4810   24.5410  -30.2030 C   0  0  0  0  0  0  0  0  0  0  0  0
   -4.5310   23.8810  -30.8460 C   0  0  0  0  0  0  0  0  0  0  0  0
   -5.6050   20.6280  -32.0780 C   0  0  0  0  0  0  0  0  0  0  0  0
   -4.3260   20.0620  -32.2270 C   0  0  0  0  0  0  0  0  0  0  0  0
   -4.1500   18.8950  -32.9750 C   0  0  0  0  0  0  0  0  0  0  0  0
   -5.2420   18.2620  -33.6000 C   0  0  0  0  0  0  0  0  0  0  0  0
   -5.0550   17.0490  -34.3750 N   0  0  0  0  0  0  0  0  0  0  0  0
   -5.9560   15.9030  -34.1970 C   0  0  0  0  0  0  0  0  0  0  0  0
   -3.9620   16.9470  -35.3510 C   0  0  0  0  0  0  0  0  0  0  0  0
   -6.5200   18.8390  -33.4560 C   0  0  0  0  0  0  0  0  0  0  0  0
   -6.7030   20.0070  -32.7100 C   0  0  0  0  0  0  0  0  0  0  0  0
   -7.9200   20.5280  -32.6120 O   0  0  0  0  0  0  0  0  0  0  0  0
   -8.1820   21.6320  -31.9240 C   0  0  0  0  0  0  0  0  0  0  0  0
   -9.3670   22.0620  -31.8960 O   0  0  0  0  0  0  0  0  0  0  0  0
   -7.4039   23.3616  -29.3839 H   0  0  0  0  0  0  0  0  0  0  0  0
   -6.7133   24.3457  -30.7185 H   0  0  0  0  0  0  0  0  0  0  0  0
   -8.4616   23.9332  -30.7185 H   0  0  0  0  0  0  0  0  0  0  0  0
   -4.0032   20.7173  -29.6508 H   0  0  0  0  0  0  0  0  0  0  0  0
   -2.1209   21.8952  -28.5130 H   0  0  0  0  0  0  0  0  0  0  0  0
   -0.6485   25.0673  -26.3007 H   0  0  0  0  0  0  0  0  0  0  0  0
   -2.4319   24.9891  -26.5013 H   0  0  0  0  0  0  0  0  0  0  0  0
   -1.4609   23.4779  -26.5013 H   0  0  0  0  0  0  0  0  0  0  0  0
   -3.3315   25.6191  -30.3623 H   0  0  0  0  0  0  0  0  0  0  0  0
   -5.2083   24.4416  -31.5070 H   0  0  0  0  0  0  0  0  0  0  0  0
   -3.4579   20.5416  -31.7512 H   0  0  0  0  0  0  0  0  0  0  0  0
   -3.1431   18.4640  -33.0773 H   0  0  0  0  0  0  0  0  0  0  0  0
   -6.1033   15.7157  -33.1231 H   0  0  0  0  0  0  0  0  0  0  0  0
   -6.9259   16.1226  -34.6673 H   0  0  0  0  0  0  0  0  0  0  0  0
   -5.5137   15.0124  -34.6673 H   0  0  0  0  0  0  0  0  0  0  0  0
   -3.0031   16.8575  -34.8196 H   0  0  0  0  0  0  0  0  0  0  0  0
   -4.1157   16.0593  -35.9822 H   0  0  0  0  0  0  0  0  0  0  0  0
   -3.9488   17.8478  -35.9822 H   0  0  0  0  0  0  0  0  0  0  0  0
   -7.3866   18.3629  -33.9380 H   0  0  0  0  0  0  0  0  0  0  0  0
  1  2  1  0
  2  3  2  0
  3  4  1  0
  4  5  2  0
  5  6  1  0
  6  7  2  0
  7  8  1  0
  8  9  1  0
  8 10  2  0
  8 11  2  0
  7 12  1  0
 12 13  2  0
  3 14  1  0
 14 15  2  0
 15 16  1  0
 16 17  2  0
 17 18  1  0
 18 19  1  0
 18 20  1  0
 17 21  1  0
 21 22  2  0
 22 23  1  0
 23 24  1  0
 24 25  2  0
 24  2  1  0
 13  4  1  0
 22 14  1  0
  1 26  1  0
  1 27  1  0
  1 28  1  0
  5 29  1  0
  6 30  1  0
  9 31  1  0
  9 32  1  0
  9 33  1  0
 12 34  1  0
 13 35  1  0
 15 36  1  0
 16 37  1  0
 19 38  1  0
 19 39  1  0
 19 40  1  0
 20 41  1  0
 20 42  1  0
 20 43  1  0
 21 44  1  0
M  END
>  <UniqueID>  (27) 
26

>  <SMILES>  (27) 
Cc1c(-c2ccc(S(C)(=O)=O)cc2)c2ccc(N(C)C)cc2oc1=O

>  <Energy>  (27) 
59.42064159096222

>  <Genealogy>  (27) 
Cc1c(-c2ccc(S(C)(=O)=O)cc2)c2ccc(N(C)C)cc2oc1=O (3D coordinates assigned)
Cc1c(-c2ccc(S(C)(=O)=O)cc2)c2ccc(N(C)C)cc2oc1=O (optimized conformer: 59.42064159096222 kcal/mol)

>  <smiles>  (27) 
Cc1c(-c2ccc(S(C)(=O)=O)cc2)c2ccc(N(C)C)cc2oc1=O

>  <score_type>  (27) 
oracle

>  <origin>  (27) 
adgpu

>  <m_score__min__energy>  (27) 
-8.4700000000000006

>  <m_primary>  (27) 
energy

$$$$
27:0
     RDKit          3D

 46 49  0  0  0  0  0  0  0  0999 V2000
   -0.3750   21.1170  -31.9210 C   0  0  0  0  0  0  0  0  0  0  0  0
   -1.3540   20.6760  -32.8550 O   0  0  0  0  0  0  0  0  0  0  0  0
   -2.7370   20.6980  -32.6230 C   0  0  0  0  0  0  0  0  0  0  0  0
   -3.3010   21.3140  -31.4940 C   0  0  0  0  0  0  0  0  0  0  0  0
   -4.6840   21.2990  -31.3020 C   0  0  0  0  0  0  0  0  0  0  0  0
   -5.5270   20.6600  -32.2210 C   0  0  0  0  0  0  0  0  0  0  0  0
   -6.9500   20.6470  -32.0000 N   0  0  0  0  0  0  0  0  0  0  0  0
   -7.8290   21.6780  -32.0190 C   0  0  0  0  0  0  0  0  0  0  0  0
   -7.4170   23.3970  -32.3440 S   0  0  0  0  0  0  0  0  0  0  0  0
   -7.2150   23.8550  -30.5910 C   0  0  0  0  0  0  0  0  0  0  0  0
   -5.7760   24.1200  -30.2950 C   0  0  0  0  0  0  0  0  0  0  0  0
   -5.1070   23.5780  -29.2610 N   0  0  0  0  0  0  0  0  0  0  0  0
   -3.8800   24.1170  -29.4260 C   0  0  0  0  0  0  0  0  0  0  0  0
   -2.7280   23.8210  -28.5520 C   0  0  0  0  0  0  0  0  0  0  0  0
   -2.6250   22.5750  -27.9080 C   0  0  0  0  0  0  0  0  0  0  0  0
   -1.5450   22.3060  -27.0610 C   0  0  0  0  0  0  0  0  0  0  0  0
   -0.5580   23.2740  -26.8540 C   0  0  0  0  0  0  0  0  0  0  0  0
   -0.6500   24.5130  -27.4930 C   0  0  0  0  0  0  0  0  0  0  0  0
   -1.7290   24.7880  -28.3380 C   0  0  0  0  0  0  0  0  0  0  0  0
   -3.8190   24.9370  -30.4960 N   0  0  0  0  0  0  0  0  0  0  0  0
   -5.0130   24.9150  -31.0030 O   0  0  0  0  0  0  0  0  0  0  0  0
   -9.0920   21.2660  -31.7770 N   0  0  0  0  0  0  0  0  0  0  0  0
   -9.0280   19.9550  -31.6050 N   0  0  0  0  0  0  0  0  0  0  0  0
   -7.7460   19.5890  -31.7470 C   0  0  0  0  0  0  0  0  0  0  0  0
   -7.3490   18.3940  -31.6890 O   0  0  0  0  0  0  0  0  0  0  0  0
   -4.9700   20.0410  -33.3610 C   0  0  0  0  0  0  0  0  0  0  0  0
   -5.8200   19.3820  -34.2630 O   0  0  0  0  0  0  0  0  0  0  0  0
   -5.7640   17.9910  -34.5590 C   0  0  0  0  0  0  0  0  0  0  0  0
   -3.5750   20.0770  -33.5540 C   0  0  0  0  0  0  0  0  0  0  0  0
   -0.7434   20.9511  -30.8979 H   0  0  0  0  0  0  0  0  0  0  0  0
    0.5564   20.5515  -32.0716 H   0  0  0  0  0  0  0  0  0  0  0  0
   -0.1813   22.1893  -32.0716 H   0  0  0  0  0  0  0  0  0  0  0  0
   -2.6509   21.8101  -30.7583 H   0  0  0  0  0  0  0  0  0  0  0  0
   -5.1163   21.7941  -30.4200 H   0  0  0  0  0  0  0  0  0  0  0  0
   -7.8029   24.7607  -30.3811 H   0  0  0  0  0  0  0  0  0  0  0  0
   -7.5671   23.0267  -29.9585 H   0  0  0  0  0  0  0  0  0  0  0  0
   -3.3971   21.8087  -28.0711 H   0  0  0  0  0  0  0  0  0  0  0  0
   -1.4722   21.3310  -26.5569 H   0  0  0  0  0  0  0  0  0  0  0  0
    0.2910   23.0602  -26.1881 H   0  0  0  0  0  0  0  0  0  0  0  0
    0.1281   25.2735  -27.3309 H   0  0  0  0  0  0  0  0  0  0  0  0
   -1.7973   25.7654  -28.8381 H   0  0  0  0  0  0  0  0  0  0  0  0
   -9.8470   19.3360  -31.4120 H   0  0  0  0  0  0  0  0  0  0  0  0
   -5.7409   17.4171  -33.6208 H   0  0  0  0  0  0  0  0  0  0  0  0
   -6.6513   17.7043  -35.1425 H   0  0  0  0  0  0  0  0  0  0  0  0
   -4.8565   17.7765  -35.1425 H   0  0  0  0  0  0  0  0  0  0  0  0
   -3.1391   19.6101  -34.4495 H   0  0  0  0  0  0  0  0  0  0  0  0
  1  2  1  0
  2  3  1  0
  3  4  2  0
  4  5  1  0
  5  6  2  0
  6  7  1  0
  7  8  1  0
  8  9  1  0
  9 10  1  0
 10 11  1  0
 11 12  2  0
 12 13  1  0
 13 14  1  0
 14 15  2  0
 15 16  1  0
 16 17  2  0
 17 18  1  0
 18 19  2  0
 13 20  2  0
 20 21  1  0
  8 22  2  0
 22 23  1  0
 23 24  1  0
 24 25  2  0
  6 26  1  0
 26 27  1  0
 27 28  1  0
 26 29  2  0
 29  3  1  0
 24  7  1  0
 21 11  1  0
 19 14  1  0
  1 30  1  0
  1 31  1  0
  1 32  1  0
  4 33  1  0
  5 34  1  0
 10 35  1  0
 10 36  1  0
 15 37  1  0
 16 38  1  0
 17 39  1  0
 18 40  1  0
 19 41  1  0
 23 42  1  0
 28 43  1  0
 28 44  1  0
 28 45  1  0
 29 46  1  0
M  END
>  <UniqueID>  (28) 
27

>  <SMILES>  (28) 
COc1ccc(-n2c(SCc3nc(-c4ccccc4)no3)n[nH]c2=O)c(OC)c1

>  <Energy>  (28) 
115.75765246141937

>  <Genealogy>  (28) 
COc1ccc(-n2c(SCc3nc(-c4ccccc4)no3)n[nH]c2=O)c(OC)c1 (3D coordinates assigned)
COc1ccc(-n2c(SCc3nc(-c4ccccc4)no3)n[nH]c2=O)c(OC)c1 (optimized conformer: 115.75765246141937 kcal/mol)

>  <smiles>  (28) 
COc1ccc(-n2c(SCc3nc(-c4ccccc4)no3)n[nH]c2=O)c(OC)c1

>  <score_type>  (28) 
oracle

>  <origin>  (28) 
adgpu

>  <m_score__min__energy>  (28) 
-8.9299999999999997

>  <m_primary>  (28) 
energy

$$$$
28:0
     RDKit          3D

 58 61  0  0  0  0  0  0  0  0999 V2000
    4.2680   21.2920  -35.3790 C   0  0  0  0  0  0  0  0  0  0  0  0
    3.9340   19.8460  -35.0220 C   0  0  0  0  0  0  0  0  0  0  0  0
    2.5120   19.6960  -34.7140 N   0  0  0  0  0  0  0  0  0  0  0  0
    2.0540   19.5190  -33.3650 C   0  0  0  0  0  0  0  0  0  0  0  0
    2.8910   19.3150  -32.4420 O   0  0  0  0  0  0  0  0  0  0  0  0
    0.6060   19.5210  -33.0430 C   0  0  0  0  0  0  0  0  0  0  0  0
    0.1860   19.9860  -31.7920 C   0  0  0  0  0  0  0  0  0  0  0  0
   -1.1350   19.9930  -31.4320 N   0  0  0  0  0  0  0  0  0  0  0  0
   -1.4730   20.5030  -30.0840 C   0  0  0  0  0  0  0  0  0  0  0  0
   -2.1210   21.8650  -30.1550 C   0  0  0  0  0  0  0  0  0  0  0  0
   -3.1460   22.1260  -31.0820 C   0  0  0  0  0  0  0  0  0  0  0  0
   -3.7280   23.3950  -31.1510 C   0  0  0  0  0  0  0  0  0  0  0  0
   -3.2800   24.4190  -30.3130 C   0  0  0  0  0  0  0  0  0  0  0  0
   -3.8610   25.6790  -30.3830 O   0  0  0  0  0  0  0  0  0  0  0  0
   -2.2410   24.1770  -29.4120 C   0  0  0  0  0  0  0  0  0  0  0  0
   -1.6590   22.9080  -29.3340 C   0  0  0  0  0  0  0  0  0  0  0  0
   -2.1000   19.5450  -32.3140 C   0  0  0  0  0  0  0  0  0  0  0  0
   -3.4740   19.5370  -31.9780 C   0  0  0  0  0  0  0  0  0  0  0  0
   -4.4460   19.1020  -32.8890 C   0  0  0  0  0  0  0  0  0  0  0  0
   -5.8380   19.1340  -32.5220 N   0  0  0  0  0  0  0  0  0  0  0  0
   -6.7410   18.0560  -32.9400 C   0  0  0  0  0  0  0  0  0  0  0  0
   -7.9600   17.9820  -32.0060 C   0  0  0  0  0  0  0  0  0  0  0  0
   -8.6710   19.2810  -31.8780 N   0  0  0  0  0  0  0  0  0  0  0  0
   -9.7970   19.3680  -32.8250 C   0  0  0  0  0  0  0  0  0  0  0  0
   -7.8050   20.4810  -31.9890 C   0  0  0  0  0  0  0  0  0  0  0  0
   -6.3430   20.1890  -31.6370 C   0  0  0  0  0  0  0  0  0  0  0  0
   -4.0500   18.6540  -34.1560 C   0  0  0  0  0  0  0  0  0  0  0  0
   -4.9720   18.2600  -35.0690 F   0  0  0  0  0  0  0  0  0  0  0  0
   -2.7020   18.6460  -34.5080 C   0  0  0  0  0  0  0  0  0  0  0  0
   -1.7190   19.0880  -33.6020 C   0  0  0  0  0  0  0  0  0  0  0  0
   -0.3610   19.0890  -33.9630 C   0  0  0  0  0  0  0  0  0  0  0  0
   -0.0120   18.7270  -35.1220 O   0  0  0  0  0  0  0  0  0  0  0  0
    4.4028   21.8757  -34.4564 H   0  0  0  0  0  0  0  0  0  0  0  0
    5.1960   21.3191  -35.9689 H   0  0  0  0  0  0  0  0  0  0  0  0
    3.4458   21.7233  -35.9689 H   0  0  0  0  0  0  0  0  0  0  0  0
    4.1877   19.1976  -35.8736 H   0  0  0  0  0  0  0  0  0  0  0  0
    4.5165   19.5615  -34.1333 H   0  0  0  0  0  0  0  0  0  0  0  0
    1.8160   19.6660  -35.4940 H   0  0  0  0  0  0  0  0  0  0  0  0
    0.9372   20.3559  -31.0786 H   0  0  0  0  0  0  0  0  0  0  0  0
   -2.1681   19.8011  -29.6000 H   0  0  0  0  0  0  0  0  0  0  0  0
   -0.5419   20.5931  -29.5052 H   0  0  0  0  0  0  0  0  0  0  0  0
   -3.4912   21.3279  -31.7557 H   0  0  0  0  0  0  0  0  0  0  0  0
   -4.5407   23.5878  -31.8668 H   0  0  0  0  0  0  0  0  0  0  0  0
   -1.8793   24.9871  -28.7617 H   0  0  0  0  0  0  0  0  0  0  0  0
   -0.8362   22.7253  -28.6272 H   0  0  0  0  0  0  0  0  0  0  0  0
   -3.7862   19.8795  -30.9804 H   0  0  0  0  0  0  0  0  0  0  0  0
   -7.0834   18.2486  -33.9675 H   0  0  0  0  0  0  0  0  0  0  0  0
   -6.1989   17.0999  -32.8938 H   0  0  0  0  0  0  0  0  0  0  0  0
   -8.6625   17.2352  -32.4045 H   0  0  0  0  0  0  0  0  0  0  0  0
   -7.5932   17.7068  -31.0061 H   0  0  0  0  0  0  0  0  0  0  0  0
  -10.7415   19.4410  -32.2659 H   0  0  0  0  0  0  0  0  0  0  0  0
   -9.6757   20.2595  -33.4579 H   0  0  0  0  0  0  0  0  0  0  0  0
   -9.8141   18.4685  -33.4579 H   0  0  0  0  0  0  0  0  0  0  0  0
   -7.8505   20.8535  -33.0230 H   0  0  0  0  0  0  0  0  0  0  0  0
   -8.1771   21.2271  -31.2714 H   0  0  0  0  0  0  0  0  0  0  0  0
   -5.7426   21.1009  -31.7710 H   0  0  0  0  0  0  0  0  0  0  0  0
   -6.2725   19.8597  -30.5898 H   0  0  0  0  0  0  0  0  0  0  0  0
   -2.4023   18.2904  -35.5049 H   0  0  0  0  0  0  0  0  0  0  0  0
  1  2  1  0
  2  3  1  0
  3  4  1  0
  4  5  2  0
  4  6  1  0
  6  7  2  0
  7  8  1  0
  8  9  1  0
  9 10  1  0
 10 11  2  0
 11 12  1  0
 12 13  2  0
 13 14  1  0
 13 15  1  0
 15 16  2  0
  8 17  1  0
 17 18  2  0
 18 19  1  0
 19 20  1  0
 20 21  1  0
 21 22  1  0
 22 23  1  0
 23 24  1  0
 23 25  1  0
 25 26  1  0
 19 27  2  0
 27 28  1  0
 27 29  1  0
 29 30  2  0
 30 31  1  0
 31 32  2  0
 31  6  1  0
 16 10  1  0
 30 17  1  0
 26 20  1  0
  1 33  1  0
  1 34  1  0
  1 35  1  0
  2 36  1  0
  2 37  1  0
  3 38  1  0
  7 39  1  0
  9 40  1  0
  9 41  1  0
 11 42  1  0
 12 43  1  0
 15 44  1  0
 16 45  1  0
 18 46  1  0
 21 47  1  0
 21 48  1  0
 22 49  1  0
 22 50  1  0
 24 51  1  0
 24 52  1  0
 24 53  1  0
 25 54  1  0
 25 55  1  0
 26 56  1  0
 26 57  1  0
 29 58  1  0
M  CHG  1  14  -1
M  END
>  <UniqueID>  (29) 
28

>  <SMILES>  (29) 
CCNC(=O)c1cn(Cc2ccc([O-])cc2)c2cc(N3CCN(C)CC3)c(F)cc2c1=O

>  <Energy>  (29) 
80.52934406126342

>  <Genealogy>  (29) 
CCNC(=O)c1cn(Cc2ccc([O-])cc2)c2cc(N3CCN(C)CC3)c(F)cc2c1=O (protonated)
CCNC(=O)c1cn(Cc2ccc([O-])cc2)c2cc(N3CCN(C)CC3)c(F)cc2c1=O (3D coordinates assigned)
CCNC(=O)c1cn(Cc2ccc([O-])cc2)c2cc(N3CCN(C)CC3)c(F)cc2c1=O (nonaromatic ring conformer: 80.52934406126342 kcal/mol)

>  <smiles>  (29) 
CCNC(=O)c1cn(Cc2ccc(O)cc2)c2cc(N3CCN(C)CC3)c(F)cc2c1=O

>  <score_type>  (29) 
oracle

>  <origin>  (29) 
adgpu

>  <m_score__min__energy>  (29) 
-9.5299999999999994

>  <m_primary>  (29) 
energy

$$$$
29:0
     RDKit          3D

 60 63  0  0  0  0  0  0  0  0999 V2000
   -1.2760   18.6840  -27.1170 C   0  0  0  0  0  0  0  0  0  0  0  0
   -0.1960   18.3790  -28.1650 C   0  0  0  0  0  0  0  0  0  0  0  0
   -0.0070   19.4530  -29.1660 N   0  0  0  0  0  0  0  0  0  0  0  0
   -1.2610   19.9630  -29.7690 C   0  0  0  0  0  0  0  0  0  0  0  0
   -1.4480   19.5220  -31.2290 C   0  0  0  0  0  0  0  0  0  0  0  0
   -0.2570   19.8290  -32.0380 N   0  0  0  0  0  0  0  0  0  0  0  0
   -0.3200   19.8980  -33.4820 C   0  0  0  0  0  0  0  0  0  0  0  0
    0.6660   20.3450  -34.1320 O   0  0  0  0  0  0  0  0  0  0  0  0
   -1.5430   19.4840  -34.2550 C   0  0  0  0  0  0  0  0  0  0  0  0
   -2.7330   20.0960  -33.6690 N   0  0  0  0  0  0  0  0  0  0  0  0
   -2.8510   21.3760  -33.2690 C   0  0  0  0  0  0  0  0  0  0  0  0
   -4.1360   21.5450  -32.7920 C   0  0  0  0  0  0  0  0  0  0  0  0
   -4.7500   22.7720  -32.3780 N   0  0  0  0  0  0  0  0  0  0  0  0
   -4.7650   23.2980  -31.0450 C   0  0  0  0  0  0  0  0  0  0  0  0
   -5.8640   23.3610  -30.4370 O   0  0  0  0  0  0  0  0  0  0  0  0
   -3.5270   23.7160  -30.3460 C   0  0  0  0  0  0  0  0  0  0  0  0
   -2.3770   22.9130  -30.3430 C   0  0  0  0  0  0  0  0  0  0  0  0
   -1.2610   23.3260  -29.6890 N   0  0  0  0  0  0  0  0  0  0  0  0
   -1.2370   24.5090  -29.0170 C   0  0  0  0  0  0  0  0  0  0  0  0
   -0.1610   24.8930  -28.4110 N   0  0  0  0  0  0  0  0  0  0  0  0
   -2.3450   25.2910  -28.9860 N   0  0  0  0  0  0  0  0  0  0  0  0
   -3.4840   24.9190  -29.6260 C   0  0  0  0  0  0  0  0  0  0  0  0
   -4.7660   20.3220  -32.9630 C   0  0  0  0  0  0  0  0  0  0  0  0
   -6.1720   19.9680  -32.6500 C   0  0  0  0  0  0  0  0  0  0  0  0
   -7.0950   20.9770  -32.3050 C   0  0  0  0  0  0  0  0  0  0  0  0
   -8.4210   20.6570  -32.0070 C   0  0  0  0  0  0  0  0  0  0  0  0
   -9.5530   21.9230  -31.5730 Cl  0  0  0  0  0  0  0  0  0  0  0  0
   -8.8430   19.3280  -32.0450 C   0  0  0  0  0  0  0  0  0  0  0  0
   -7.9390   18.3130  -32.3730 C   0  0  0  0  0  0  0  0  0  0  0  0
   -6.5970   18.6200  -32.6740 C   0  0  0  0  0  0  0  0  0  0  0  0
   -5.6720   17.6130  -33.0060 O   0  0  0  0  0  0  0  0  0  0  0  0
   -5.6410   16.9130  -34.2440 C   0  0  0  0  0  0  0  0  0  0  0  0
   -3.8810   19.4570  -33.4980 N   0  0  0  0  0  0  0  0  0  0  0  0
    1.0200   20.0720  -31.3520 C   0  0  0  0  0  0  0  0  0  0  0  0
    1.1090   19.1930  -30.1030 C   0  0  0  0  0  0  0  0  0  0  0  0
   -0.8527   18.5645  -26.1088 H   0  0  0  0  0  0  0  0  0  0  0  0
   -1.6304   19.7174  -27.2457 H   0  0  0  0  0  0  0  0  0  0  0  0
   -2.1186   17.9887  -27.2457 H   0  0  0  0  0  0  0  0  0  0  0  0
    0.7588   18.2220  -27.6419 H   0  0  0  0  0  0  0  0  0  0  0  0
   -0.5298   17.4868  -28.7151 H   0  0  0  0  0  0  0  0  0  0  0  0
   -2.1108   19.5899  -29.1786 H   0  0  0  0  0  0  0  0  0  0  0  0
   -1.2065   21.0616  -29.7616 H   0  0  0  0  0  0  0  0  0  0  0  0
   -1.6289   18.4373  -31.2552 H   0  0  0  0  0  0  0  0  0  0  0  0
   -2.3039   20.0699  -31.6499 H   0  0  0  0  0  0  0  0  0  0  0  0
   -1.4418   19.8113  -35.3003 H   0  0  0  0  0  0  0  0  0  0  0  0
   -1.6425   18.3892  -34.2159 H   0  0  0  0  0  0  0  0  0  0  0  0
   -2.0672   22.1465  -33.3139 H   0  0  0  0  0  0  0  0  0  0  0  0
   -2.3792   21.9479  -30.8709 H   0  0  0  0  0  0  0  0  0  0  0  0
    0.7100   24.3140  -28.4220 H   0  0  0  0  0  0  0  0  0  0  0  0
   -4.3747   25.5627  -29.5795 H   0  0  0  0  0  0  0  0  0  0  0  0
   -6.7670   22.0264  -32.2703 H   0  0  0  0  0  0  0  0  0  0  0  0
   -9.8895   19.0779  -31.8164 H   0  0  0  0  0  0  0  0  0  0  0  0
   -8.2780   17.2668  -32.3963 H   0  0  0  0  0  0  0  0  0  0  0  0
   -5.5931   15.8309  -34.0523 H   0  0  0  0  0  0  0  0  0  0  0  0
   -6.5502   17.1437  -34.8185 H   0  0  0  0  0  0  0  0  0  0  0  0
   -4.7557   17.2231  -34.8185 H   0  0  0  0  0  0  0  0  0  0  0  0
    1.8514   19.8293  -32.0301 H   0  0  0  0  0  0  0  0  0  0  0  0
    1.0804   21.1303  -31.0581 H   0  0  0  0  0  0  0  0  0  0  0  0
    1.0786   18.1367  -30.4083 H   0  0  0  0  0  0  0  0  0  0  0  0
    2.0509   19.4286  -29.5860 H   0  0  0  0  0  0  0  0  0  0  0  0
  1  2  1  0
  2  3  1  0
  3  4  1  0
  4  5  1  0
  5  6  1  0
  6  7  1  0
  7  8  2  0
  7  9  1  0
  9 10  1  0
 10 11  1  0
 11 12  2  0
 12 13  1  0
 13 14  1  0
 14 15  2  0
 14 16  1  0
 16 17  1  0
 17 18  2  0
 18 19  1  0
 19 20  2  3
 19 21  1  0
 21 22  1  0
 12 23  1  0
 23 24  1  0
 24 25  2  0
 25 26  1  0
 26 27  1  0
 26 28  2  0
 28 29  1  0
 29 30  2  0
 30 31  1  0
 31 32  1  0
 23 33  2  0
  6 34  1  0
 34 35  1  0
 35  3  1  0
 33 10  1  0
 22 16  2  0
 30 24  1  0
  1 36  1  0
  1 37  1  0
  1 38  1  0
  2 39  1  0
  2 40  1  0
  4 41  1  0
  4 42  1  0
  5 43  1  0
  5 44  1  0
  9 45  1  0
  9 46  1  0
 11 47  1  0
 17 48  1  0
 20 49  1  0
 22 50  1  0
 25 51  1  0
 28 52  1  0
 29 53  1  0
 32 54  1  0
 32 55  1  0
 32 56  1  0
 34 57  1  0
 34 58  1  0
 35 59  1  0
 35 60  1  0
M  CHG  2  13  -1  21  -1
M  END
>  <UniqueID>  (30) 
29

>  <SMILES>  (30) 
CCN1CCN(C(=O)Cn2cc([N-]C(=O)c3cnc(=N)[n-]c3)c(-c3cc(Cl)ccc3OC)n2)CC1

>  <Energy>  (30) 
110.4889113909134

>  <Genealogy>  (30) 
CCN1CCN(C(=O)Cn2cc([N-]C(=O)c3cnc(=N)[n-]c3)c(-c3cc(Cl)ccc3OC)n2)CC1 (protonated)
CCN1CCN(C(=O)Cn2cc([N-]C(=O)c3cnc(=N)[n-]c3)c(-c3cc(Cl)ccc3OC)n2)CC1 (3D coordinates assigned)
CCN1CCN(C(=O)Cn2cc([N-]C(=O)c3cnc(=N)[n-]c3)c(-c3cc(Cl)ccc3OC)n2)CC1 (nonaromatic ring conformer: 110.4889113909134 kcal/mol)

>  <smiles>  (30) 
CCN1CCN(C(=O)Cn2cc(NC(=O)c3cnc(=N)[nH]c3)c(-c3cc(Cl)ccc3OC)n2)CC1

>  <score_type>  (30) 
oracle

>  <origin>  (30) 
adgpu

>  <m_score__min__energy>  (30) 
-11.02

>  <m_primary>  (30) 
energy

$$$$
30:0
     RDKit          3D

 39 42  0  0  0  0  0  0  0  0999 V2000
   -8.5800   22.7330  -31.6250 C   0  0  0  0  0  0  0  0  0  0  0  0
   -8.1420   21.3290  -31.9460 C   0  0  0  0  0  0  0  0  0  0  0  0
   -9.1020   20.3790  -32.3300 C   0  0  0  0  0  0  0  0  0  0  0  0
   -8.7200   19.0710  -32.6380 C   0  0  0  0  0  0  0  0  0  0  0  0
   -7.3770   18.6960  -32.5580 C   0  0  0  0  0  0  0  0  0  0  0  0
   -6.9000   17.0530  -32.9450 Cl  0  0  0  0  0  0  0  0  0  0  0  0
   -6.4150   19.6270  -32.1600 C   0  0  0  0  0  0  0  0  0  0  0  0
   -6.7870   20.9430  -31.8420 C   0  0  0  0  0  0  0  0  0  0  0  0
   -5.7770   21.8700  -31.4150 N   0  0  0  0  0  0  0  0  0  0  0  0
   -5.9990   22.7040  -30.2270 C   0  0  0  0  0  0  0  0  0  0  0  0
   -4.7460   22.7060  -29.3420 C   0  0  0  0  0  0  0  0  0  0  0  0
   -3.5160   22.8380  -30.1400 N   0  0  0  0  0  0  0  0  0  0  0  0
   -2.2490   22.8530  -29.4610 C   0  0  0  0  0  0  0  0  0  0  0  0
   -1.5310   21.7000  -29.3080 N   0  0  0  0  0  0  0  0  0  0  0  0
   -0.3080   21.6910  -28.6880 C   0  0  0  0  0  0  0  0  0  0  0  0
    0.2370   22.8530  -28.2170 N   0  0  0  0  0  0  0  0  0  0  0  0
   -0.4660   24.0000  -28.3770 C   0  0  0  0  0  0  0  0  0  0  0  0
   -0.0750   25.2300  -28.0240 N   0  0  0  0  0  0  0  0  0  0  0  0
   -1.1170   25.9910  -28.4560 C   0  0  0  0  0  0  0  0  0  0  0  0
   -2.1170   25.2930  -29.0570 N   0  0  0  0  0  0  0  0  0  0  0  0
   -1.6740   24.0300  -28.9790 C   0  0  0  0  0  0  0  0  0  0  0  0
   -3.6040   23.0380  -31.5920 C   0  0  0  0  0  0  0  0  0  0  0  0
   -4.5390   21.9890  -32.1960 C   0  0  0  0  0  0  0  0  0  0  0  0
   -8.6208   22.8639  -30.5336 H   0  0  0  0  0  0  0  0  0  0  0  0
   -7.8622   23.4480  -32.0534 H   0  0  0  0  0  0  0  0  0  0  0  0
   -9.5770   22.9131  -32.0534 H   0  0  0  0  0  0  0  0  0  0  0  0
  -10.1621   20.6666  -32.3887 H   0  0  0  0  0  0  0  0  0  0  0  0
   -9.4782   18.3352  -32.9440 H   0  0  0  0  0  0  0  0  0  0  0  0
   -5.3586   19.3272  -32.0952 H   0  0  0  0  0  0  0  0  0  0  0  0
   -6.2233   23.7337  -30.5422 H   0  0  0  0  0  0  0  0  0  0  0  0
   -6.8440   22.2954  -29.6534 H   0  0  0  0  0  0  0  0  0  0  0  0
   -4.8073   23.5500  -28.6392 H   0  0  0  0  0  0  0  0  0  0  0  0
   -4.7046   21.7474  -28.8041 H   0  0  0  0  0  0  0  0  0  0  0  0
    0.2377   20.7434  -28.5689 H   0  0  0  0  0  0  0  0  0  0  0  0
   -1.1478   27.0832  -28.3292 H   0  0  0  0  0  0  0  0  0  0  0  0
   -3.9981   24.0436  -31.8003 H   0  0  0  0  0  0  0  0  0  0  0  0
   -2.6032   22.9366  -32.0372 H   0  0  0  0  0  0  0  0  0  0  0  0
   -4.7909   22.2829  -33.2256 H   0  0  0  0  0  0  0  0  0  0  0  0
   -4.0252   21.0164  -32.1856 H   0  0  0  0  0  0  0  0  0  0  0  0
  1  2  1  0
  2  3  2  0
  3  4  1  0
  4  5  2  0
  5  6  1  0
  5  7  1  0
  7  8  2  0
  8  9  1  0
  9 10  1  0
 10 11  1  0
 11 12  1  0
 12 13  1  0
 13 14  2  0
 14 15  1  0
 15 16  2  0
 16 17  1  0
 17 18  1  0
 18 19  1  0
 19 20  2  0
 20 21  1  0
 12 22  1  0
 22 23  1  0
  8  2  1  0
 23  9  1  0
 21 13  1  0
 21 17  2  0
  1 24  1  0
  1 25  1  0
  1 26  1  0
  3 27  1  0
  4 28  1  0
  7 29  1  0
 10 30  1  0
 10 31  1  0
 11 32  1  0
 11 33  1  0
 15 34  1  0
 19 35  1  0
 22 36  1  0
 22 37  1  0
 23 38  1  0
 23 39  1  0
M  CHG  1  18  -1
M  END
>  <UniqueID>  (31) 
30

>  <SMILES>  (31) 
Cc1ccc(Cl)cc1N1CCN(c2ncnc3[n-]cnc23)CC1

>  <Energy>  (31) 
89.41837186435481

>  <Genealogy>  (31) 
Cc1ccc(Cl)cc1N1CCN(c2ncnc3[n-]cnc23)CC1 (protonated)
Cc1ccc(Cl)cc1N1CCN(c2ncnc3[n-]cnc23)CC1 (3D coordinates assigned)
Cc1ccc(Cl)cc1N1CCN(c2ncnc3[n-]cnc23)CC1 (nonaromatic ring conformer: 89.41837186435481 kcal/mol)

>  <smiles>  (31) 
Cc1ccc(Cl)cc1N1CCN(c2ncnc3[nH]cnc23)CC1

>  <score_type>  (31) 
oracle

>  <origin>  (31) 
adgpu

>  <m_score__min__energy>  (31) 
-8.75

>  <m_primary>  (31) 
energy

$$$$
31:0
     RDKit          3D

 46 48  0  0  0  0  0  0  0  0999 V2000
   -9.6990   21.8050  -31.8380 C   0  0  0  0  0  0  0  0  0  0  0  0
   -8.2460   22.1340  -31.6140 C   0  0  0  0  0  0  0  0  0  0  0  0
   -7.9350   23.4400  -31.2090 C   0  0  0  0  0  0  0  0  0  0  0  0
   -6.6220   23.8150  -30.9540 C   0  0  0  0  0  0  0  0  0  0  0  0
   -5.5800   22.9040  -31.1160 C   0  0  0  0  0  0  0  0  0  0  0  0
   -4.2430   23.3680  -30.8860 N   0  0  0  0  0  0  0  0  0  0  0  0
   -3.8670   24.6890  -30.4700 C   0  0  0  0  0  0  0  0  0  0  0  0
   -4.5730   25.6640  -30.8350 O   0  0  0  0  0  0  0  0  0  0  0  0
   -2.7350   24.9310  -29.6250 N   0  0  0  0  0  0  0  0  0  0  0  0
   -1.8310   23.9460  -29.1070 C   0  0  0  0  0  0  0  0  0  0  0  0
   -1.3680   23.9880  -27.7800 C   0  0  0  0  0  0  0  0  0  0  0  0
   -0.4800   23.0130  -27.3130 C   0  0  0  0  0  0  0  0  0  0  0  0
   -0.0770   21.9720  -28.1550 C   0  0  0  0  0  0  0  0  0  0  0  0
    0.8070   21.0060  -27.6920 O   0  0  0  0  0  0  0  0  0  0  0  0
   -0.5740   21.8980  -29.4600 C   0  0  0  0  0  0  0  0  0  0  0  0
   -1.4560   22.8750  -29.9290 C   0  0  0  0  0  0  0  0  0  0  0  0
   -5.8700   21.5630  -31.4550 C   0  0  0  0  0  0  0  0  0  0  0  0
   -4.8550   20.6030  -31.4920 O   0  0  0  0  0  0  0  0  0  0  0  0
   -7.2050   21.1670  -31.7180 C   0  0  0  0  0  0  0  0  0  0  0  0
   -7.5350   19.4490  -32.1040 S   0  0  0  0  0  0  0  0  0  0  0  0
   -7.9940   18.7480  -30.8550 O   0  0  0  0  0  0  0  0  0  0  0  0
   -8.6530   19.3300  -33.1000 O   0  0  0  0  0  0  0  0  0  0  0  0
   -6.1330   18.6180  -32.7370 N   0  0  0  0  0  0  0  0  0  0  0  0
   -6.1500   18.5970  -34.2050 C   0  0  0  0  0  0  0  0  0  0  0  0
   -4.8930   17.8750  -34.7370 C   0  0  0  0  0  0  0  0  0  0  0  0
   -4.1090   17.3280  -33.6910 O   0  0  0  0  0  0  0  0  0  0  0  0
   -4.9060   16.4710  -32.8950 C   0  0  0  0  0  0  0  0  0  0  0  0
   -6.0530   17.2450  -32.2130 C   0  0  0  0  0  0  0  0  0  0  0  0
  -10.2030   21.6909  -30.8670 H   0  0  0  0  0  0  0  0  0  0  0  0
  -10.1758   22.6179  -32.4053 H   0  0  0  0  0  0  0  0  0  0  0  0
   -9.7791   20.8660  -32.4053 H   0  0  0  0  0  0  0  0  0  0  0  0
   -8.7422   24.1780  -31.0916 H   0  0  0  0  0  0  0  0  0  0  0  0
   -6.4028   24.8403  -30.6212 H   0  0  0  0  0  0  0  0  0  0  0  0
   -1.7051   24.7901  -27.1069 H   0  0  0  0  0  0  0  0  0  0  0  0
   -0.0985   23.0654  -26.2826 H   0  0  0  0  0  0  0  0  0  0  0  0
   -0.2704   21.0702  -30.1177 H   0  0  0  0  0  0  0  0  0  0  0  0
   -1.8586   22.8029  -30.9501 H   0  0  0  0  0  0  0  0  0  0  0  0
   -4.9520   19.7100  -31.9570 H   0  0  0  0  0  0  0  0  0  0  0  0
   -7.0491   18.0662  -34.5514 H   0  0  0  0  0  0  0  0  0  0  0  0
   -6.1592   19.6307  -34.5810 H   0  0  0  0  0  0  0  0  0  0  0  0
   -5.2082   17.0612  -35.4066 H   0  0  0  0  0  0  0  0  0  0  0  0
   -4.2777   18.6150  -35.2698 H   0  0  0  0  0  0  0  0  0  0  0  0
   -5.3346   15.6846  -33.5337 H   0  0  0  0  0  0  0  0  0  0  0  0
   -4.2694   16.0329  -32.1122 H   0  0  0  0  0  0  0  0  0  0  0  0
   -7.0041   16.7277  -32.4072 H   0  0  0  0  0  0  0  0  0  0  0  0
   -5.8582   17.2884  -31.1313 H   0  0  0  0  0  0  0  0  0  0  0  0
  1  2  1  0
  2  3  2  0
  3  4  1  0
  4  5  2  0
  5  6  1  0
  6  7  1  0
  7  8  2  0
  7  9  1  0
  9 10  1  0
 10 11  2  0
 11 12  1  0
 12 13  2  0
 13 14  1  0
 13 15  1  0
 15 16  2  0
  5 17  1  0
 17 18  1  0
 17 19  2  0
 19 20  1  0
 20 21  2  0
 20 22  2  0
 20 23  1  0
 23 24  1  0
 24 25  1  0
 25 26  1  0
 26 27  1  0
 27 28  1  0
 19  2  1  0
 28 23  1  0
 16 10  1  0
  1 29  1  0
  1 30  1  0
  1 31  1  0
  3 32  1  0
  4 33  1  0
 11 34  1  0
 12 35  1  0
 15 36  1  0
 16 37  1  0
 18 38  1  0
 24 39  1  0
 24 40  1  0
 25 41  1  0
 25 42  1  0
 27 43  1  0
 27 44  1  0
 28 45  1  0
 28 46  1  0
M  CHG  3   6  -1   9  -1  14  -1
M  END
>  <UniqueID>  (32) 
31

>  <SMILES>  (32) 
Cc1ccc([N-]C(=O)[N-]c2ccc([O-])cc2)c(O)c1S(=O)(=O)N1CCOCC1

>  <Energy>  (32) 
67.29974476445291

>  <Genealogy>  (32) 
Cc1ccc([N-]C(=O)[N-]c2ccc([O-])cc2)c(O)c1S(=O)(=O)N1CCOCC1 (protonated)
Cc1ccc([N-]C(=O)[N-]c2ccc([O-])cc2)c(O)c1S(=O)(=O)N1CCOCC1 (3D coordinates assigned)
Cc1ccc([N-]C(=O)[N-]c2ccc([O-])cc2)c(O)c1S(=O)(=O)N1CCOCC1 (nonaromatic ring conformer: 67.29974476445291 kcal/mol)

>  <smiles>  (32) 
Cc1ccc(NC(=O)Nc2ccc(O)cc2)c(O)c1S(=O)(=O)N1CCOCC1

>  <score_type>  (32) 
oracle

>  <origin>  (32) 
adgpu

>  <m_score__min__energy>  (32) 
-11.449999999999999

>  <m_primary>  (32) 
energy

$$$$
32:0
     RDKit          3D

 64 67  0  0  0  0  0  0  0  0999 V2000
   -7.9510   19.0090  -32.3100 C   0  0  0  0  0  0  0  0  0  0  0  0
   -6.5500   18.9940  -32.8440 C   0  0  0  0  0  0  0  0  0  0  0  0
   -6.1750   18.0470  -33.8080 C   0  0  0  0  0  0  0  0  0  0  0  0
   -4.8600   18.0090  -34.2750 C   0  0  0  0  0  0  0  0  0  0  0  0
   -3.9220   18.9200  -33.7720 C   0  0  0  0  0  0  0  0  0  0  0  0
   -2.6940   18.8590  -34.1940 N   0  0  0  0  0  0  0  0  0  0  0  0
   -1.6350   19.7570  -33.8390 C   0  0  0  0  0  0  0  0  0  0  0  0
   -1.4140   20.7450  -34.5860 O   0  0  0  0  0  0  0  0  0  0  0  0
   -0.9060   19.6450  -32.5430 C   0  0  0  0  0  0  0  0  0  0  0  0
    0.0930   18.6630  -32.4010 C   0  0  0  0  0  0  0  0  0  0  0  0
    0.6790   18.4130  -31.1550 C   0  0  0  0  0  0  0  0  0  0  0  0
    0.2740   19.1400  -30.0390 C   0  0  0  0  0  0  0  0  0  0  0  0
   -0.7090   20.1240  -30.1580 C   0  0  0  0  0  0  0  0  0  0  0  0
   -1.2830   20.4060  -31.4080 C   0  0  0  0  0  0  0  0  0  0  0  0
   -2.2280   21.4820  -31.4980 N   0  0  0  0  0  0  0  0  0  0  0  0
   -2.0530   22.7180  -30.7960 C   0  0  0  0  0  0  0  0  0  0  0  0
   -0.9980   22.9310  -30.1310 O   0  0  0  0  0  0  0  0  0  0  0  0
   -3.1040   23.6860  -30.8020 N   0  0  0  0  0  0  0  0  0  0  0  0
   -4.4750   23.3180  -30.6470 C   0  0  0  0  0  0  0  0  0  0  0  0
   -5.2420   23.1450  -31.8030 C   0  0  0  0  0  0  0  0  0  0  0  0
   -6.6260   23.0190  -31.7150 C   0  0  0  0  0  0  0  0  0  0  0  0
   -7.2360   23.0820  -30.4660 C   0  0  0  0  0  0  0  0  0  0  0  0
   -6.4790   23.2240  -29.3480 N   0  0  0  0  0  0  0  0  0  0  0  0
   -5.1160   23.3010  -29.3830 C   0  0  0  0  0  0  0  0  0  0  0  0
   -4.4230   23.4050  -28.1610 O   0  0  0  0  0  0  0  0  0  0  0  0
   -3.3760   22.5590  -27.7630 C   0  0  0  0  0  0  0  0  0  0  0  0
   -3.4680   21.1930  -28.0900 C   0  0  0  0  0  0  0  0  0  0  0  0
   -2.5260   20.2770  -27.6360 C   0  0  0  0  0  0  0  0  0  0  0  0
   -1.4560   20.7120  -26.8670 C   0  0  0  0  0  0  0  0  0  0  0  0
   -1.2840   22.0770  -26.6140 C   0  0  0  0  0  0  0  0  0  0  0  0
   -2.1910   23.0490  -27.1150 C   0  0  0  0  0  0  0  0  0  0  0  0
   -1.8900   24.5690  -26.9150 C   0  0  0  0  0  0  0  0  0  0  0  0
   -0.6490   24.7970  -26.0060 C   0  0  0  0  0  0  0  0  0  0  0  0
   -1.6760   25.2390  -28.2880 C   0  0  0  0  0  0  0  0  0  0  0  0
   -3.0610   25.3030  -26.2040 C   0  0  0  0  0  0  0  0  0  0  0  0
   -4.3060   19.8390  -32.8420 N   0  0  0  0  0  0  0  0  0  0  0  0
   -5.5810   19.8950  -32.3710 C   0  0  0  0  0  0  0  0  0  0  0  0
   -7.9243   19.0087  -31.2103 H   0  0  0  0  0  0  0  0  0  0  0  0
   -8.4687   19.9127  -32.6640 H   0  0  0  0  0  0  0  0  0  0  0  0
   -8.4879   18.1166  -32.6640 H   0  0  0  0  0  0  0  0  0  0  0  0
   -6.9172   17.3340  -34.1962 H   0  0  0  0  0  0  0  0  0  0  0  0
   -4.5624   17.2690  -35.0325 H   0  0  0  0  0  0  0  0  0  0  0  0
    0.4166   18.0857  -33.2796 H   0  0  0  0  0  0  0  0  0  0  0  0
    1.4586   17.6431  -31.0576 H   0  0  0  0  0  0  0  0  0  0  0  0
    0.7307   18.9381  -29.0589 H   0  0  0  0  0  0  0  0  0  0  0  0
   -1.0357   20.6814  -29.2677 H   0  0  0  0  0  0  0  0  0  0  0  0
   -3.1590   21.2880  -31.9360 H   0  0  0  0  0  0  0  0  0  0  0  0
   -4.7501   23.1083  -32.7862 H   0  0  0  0  0  0  0  0  0  0  0  0
   -7.2300   22.8714  -32.6224 H   0  0  0  0  0  0  0  0  0  0  0  0
   -8.3310   23.0168  -30.3845 H   0  0  0  0  0  0  0  0  0  0  0  0
   -4.3015   20.8435  -28.7170 H   0  0  0  0  0  0  0  0  0  0  0  0
   -2.6285   19.2106  -27.8856 H   0  0  0  0  0  0  0  0  0  0  0  0
   -0.7424   19.9828  -26.4560 H   0  0  0  0  0  0  0  0  0  0  0  0
   -0.4244   22.4062  -26.0117 H   0  0  0  0  0  0  0  0  0  0  0  0
   -0.9526   24.7412  -24.9502 H   0  0  0  0  0  0  0  0  0  0  0  0
    0.1040   24.0222  -26.2124 H   0  0  0  0  0  0  0  0  0  0  0  0
   -0.2206   25.7889  -26.2124 H   0  0  0  0  0  0  0  0  0  0  0  0
   -1.3443   26.2775  -28.1415 H   0  0  0  0  0  0  0  0  0  0  0  0
   -0.9100   24.6853  -28.8508 H   0  0  0  0  0  0  0  0  0  0  0  0
   -2.6211   25.2319  -28.8508 H   0  0  0  0  0  0  0  0  0  0  0  0
   -2.9353   25.2242  -25.1141 H   0  0  0  0  0  0  0  0  0  0  0  0
   -3.0613   26.3632  -26.4974 H   0  0  0  0  0  0  0  0  0  0  0  0
   -4.0153   24.8412  -26.4974 H   0  0  0  0  0  0  0  0  0  0  0  0
   -5.8543   20.6482  -31.6173 H   0  0  0  0  0  0  0  0  0  0  0  0
  1  2  1  0
  2  3  1  0
  3  4  2  0
  4  5  1  0
  5  6  2  3
  6  7  1  0
  7  8  2  0
  7  9  1  0
  9 10  2  0
 10 11  1  0
 11 12  2  0
 12 13  1  0
 13 14  2  0
 14 15  1  0
 15 16  1  0
 16 17  2  0
 16 18  1  0
 18 19  1  0
 19 20  2  0
 20 21  1  0
 21 22  2  0
 22 23  1  0
 23 24  2  0
 24 25  1  0
 25 26  1  0
 26 27  2  0
 27 28  1  0
 28 29  2  0
 29 30  1  0
 30 31  2  0
 31 32  1  0
 32 33  1  0
 32 34  1  0
 32 35  1  0
  5 36  1  0
 36 37  1  0
 37  2  2  0
 14  9  1  0
 24 19  1  0
 31 26  1  0
  1 38  1  0
  1 39  1  0
  1 40  1  0
  3 41  1  0
  4 42  1  0
 10 43  1  0
 11 44  1  0
 12 45  1  0
 13 46  1  0
 15 47  1  0
 20 48  1  0
 21 49  1  0
 22 50  1  0
 27 51  1  0
 28 52  1  0
 29 53  1  0
 30 54  1  0
 33 55  1  0
 33 56  1  0
 33 57  1  0
 34 58  1  0
 34 59  1  0
 34 60  1  0
 35 61  1  0
 35 62  1  0
 35 63  1  0
 37 64  1  0
M  CHG  2  18  -1  36  -1
M  END
>  <UniqueID>  (33) 
32

>  <SMILES>  (33) 
Cc1ccc(=NC(=O)c2ccccc2NC(=O)[N-]c2cccnc2Oc2ccccc2C(C)(C)C)[n-]c1

>  <Energy>  (33) 
115.98900347076602

>  <Genealogy>  (33) 
Cc1ccc(=NC(=O)c2ccccc2NC(=O)[N-]c2cccnc2Oc2ccccc2C(C)(C)C)[n-]c1 (protonated)
Cc1ccc(=NC(=O)c2ccccc2NC(=O)[N-]c2cccnc2Oc2ccccc2C(C)(C)C)[n-]c1 (3D coordinates assigned)
Cc1ccc(=NC(=O)c2ccccc2NC(=O)[N-]c2cccnc2Oc2ccccc2C(C)(C)C)[n-]c1 (optimized conformer: 115.98900347076602 kcal/mol)

>  <smiles>  (33) 
Cc1ccc(=NC(=O)c2ccccc2NC(=O)Nc2cccnc2Oc2ccccc2C(C)(C)C)[nH]c1

>  <score_type>  (33) 
oracle

>  <origin>  (33) 
adgpu

>  <m_score__min__energy>  (33) 
-12.07

>  <m_primary>  (33) 
energy

$$$$
33:0
     RDKit          3D

 48 50  0  0  0  0  0  0  0  0999 V2000
   -5.7370   18.3540  -35.0250 C   0  0  0  0  0  0  0  0  0  0  0  0
   -5.4720   18.6670  -33.5490 C   0  0  1  0  0  0  0  0  0  0  0  0
   -4.4580   19.7160  -33.4170 N   0  0  0  0  0  0  0  0  0  0  0  0
   -3.2100   19.4710  -32.7510 C   0  0  0  0  0  0  0  0  0  0  0  0
   -2.7050   18.3150  -32.7850 O   0  0  0  0  0  0  0  0  0  0  0  0
   -2.5230   20.5490  -32.0040 C   0  0  0  0  0  0  0  0  0  0  0  0
   -1.1330   20.5000  -31.8000 C   0  0  0  0  0  0  0  0  0  0  0  0
   -0.4940   21.4840  -31.0420 C   0  0  0  0  0  0  0  0  0  0  0  0
   -1.2350   22.5200  -30.4670 C   0  0  0  0  0  0  0  0  0  0  0  0
   -2.6200   22.5820  -30.6580 C   0  0  0  0  0  0  0  0  0  0  0  0
   -3.5620   23.8540  -29.8840 S   0  0  0  0  0  0  0  0  0  0  0  0
   -4.3040   23.2600  -28.7190 O   0  0  0  0  0  0  0  0  0  0  0  0
   -2.6350   24.9190  -29.3650 O   0  0  0  0  0  0  0  0  0  0  0  0
   -4.6920   24.5240  -31.0440 N   0  0  0  0  0  0  0  0  0  0  0  0
   -5.4510   25.6670  -30.4860 C   0  0  0  0  0  0  0  0  0  0  0  0
   -6.8510   25.2660  -29.9860 C   0  0  0  0  0  0  0  0  0  0  0  0
   -6.8420   23.9390  -29.5100 O   0  0  0  0  0  0  0  0  0  0  0  0
   -6.6580   23.0350  -30.5860 C   0  0  0  0  0  0  0  0  0  0  0  0
   -5.5800   23.4880  -31.5990 C   0  0  0  0  0  0  0  0  0  0  0  0
   -3.2590   21.6010  -31.4280 C   0  0  0  0  0  0  0  0  0  0  0  0
   -6.7540   19.0970  -32.8670 C   0  0  0  0  0  0  0  0  0  0  0  0
   -7.1540   20.4440  -32.8930 C   0  0  0  0  0  0  0  0  0  0  0  0
   -8.3400   20.8410  -32.2680 C   0  0  0  0  0  0  0  0  0  0  0  0
   -9.1350   19.9000  -31.6090 C   0  0  0  0  0  0  0  0  0  0  0  0
   -8.7430   18.5590  -31.5680 C   0  0  0  0  0  0  0  0  0  0  0  0
   -7.5570   18.1580  -32.1890 C   0  0  0  0  0  0  0  0  0  0  0  0
   -6.4461   17.5165  -35.1006 H   0  0  0  0  0  0  0  0  0  0  0  0
   -6.1631   19.2407  -35.5171 H   0  0  0  0  0  0  0  0  0  0  0  0
   -4.7921   18.0800  -35.5171 H   0  0  0  0  0  0  0  0  0  0  0  0
   -5.0965   17.7541  -33.0636 H   0  0  0  0  0  0  0  0  0  0  0  0
   -4.6780   20.6870  -33.7350 H   0  0  0  0  0  0  0  0  0  0  0  0
   -0.5447   19.6814  -32.2402 H   0  0  0  0  0  0  0  0  0  0  0  0
    0.5957   21.4433  -30.8972 H   0  0  0  0  0  0  0  0  0  0  0  0
   -0.7289   23.2878  -29.8634 H   0  0  0  0  0  0  0  0  0  0  0  0
   -4.8837   26.0875  -29.6426 H   0  0  0  0  0  0  0  0  0  0  0  0
   -5.5855   26.4014  -31.2938 H   0  0  0  0  0  0  0  0  0  0  0  0
   -7.1519   25.9411  -29.1714 H   0  0  0  0  0  0  0  0  0  0  0  0
   -7.5628   25.3404  -30.8213 H   0  0  0  0  0  0  0  0  0  0  0  0
   -6.3596   22.0599  -30.1736 H   0  0  0  0  0  0  0  0  0  0  0  0
   -7.6119   22.9848  -31.1314 H   0  0  0  0  0  0  0  0  0  0  0  0
   -4.9723   22.6160  -31.8826 H   0  0  0  0  0  0  0  0  0  0  0  0
   -6.0961   23.9182  -32.4700 H   0  0  0  0  0  0  0  0  0  0  0  0
   -4.3466   21.6538  -31.5837 H   0  0  0  0  0  0  0  0  0  0  0  0
   -6.5307   21.1899  -33.4078 H   0  0  0  0  0  0  0  0  0  0  0  0
   -8.6478   21.8967  -32.2952 H   0  0  0  0  0  0  0  0  0  0  0  0
  -10.0699   20.2146  -31.1222 H   0  0  0  0  0  0  0  0  0  0  0  0
   -9.3682   17.8191  -31.0468 H   0  0  0  0  0  0  0  0  0  0  0  0
   -7.2483   17.1030  -32.1484 H   0  0  0  0  0  0  0  0  0  0  0  0
  1  2  1  0
  2  3  1  0
  3  4  1  0
  4  5  2  0
  4  6  1  0
  6  7  2  0
  7  8  1  0
  8  9  2  0
  9 10  1  0
 10 11  1  0
 11 12  2  0
 11 13  2  0
 11 14  1  0
 14 15  1  0
 15 16  1  0
 16 17  1  0
 17 18  1  0
 18 19  1  0
 10 20  2  0
  2 21  1  0
 21 22  2  0
 22 23  1  0
 23 24  2  0
 24 25  1  0
 25 26  2  0
 20  6  1  0
 26 21  1  0
 19 14  1  0
  1 27  1  0
  1 28  1  0
  1 29  1  0
  2 30  1  1
  3 31  1  0
  7 32  1  0
  8 33  1  0
  9 34  1  0
 15 35  1  0
 15 36  1  0
 16 37  1  0
 16 38  1  0
 18 39  1  0
 18 40  1  0
 19 41  1  0
 19 42  1  0
 20 43  1  0
 22 44  1  0
 23 45  1  0
 24 46  1  0
 25 47  1  0
 26 48  1  0
M  END
>  <UniqueID>  (34) 
33

>  <SMILES>  (34) 
C[C@@H](NC(=O)c1cccc(S(=O)(=O)N2CCOCC2)c1)c1ccccc1

>  <Energy>  (34) 
58.197505823166075

>  <Genealogy>  (34) 
C[C@@H](NC(=O)c1cccc(S(=O)(=O)N2CCOCC2)c1)c1ccccc1 (chirality)
C[C@@H](NC(=O)c1cccc(S(=O)(=O)N2CCOCC2)c1)c1ccccc1 (3D coordinates assigned)
C[C@@H](NC(=O)c1cccc(S(=O)(=O)N2CCOCC2)c1)c1ccccc1 (nonaromatic ring conformer: 58.197505823166075 kcal/mol)

>  <smiles>  (34) 
CC(NC(=O)c1cccc(S(=O)(=O)N2CCOCC2)c1)c1ccccc1

>  <score_type>  (34) 
oracle

>  <origin>  (34) 
adgpu

>  <m_score__min__energy>  (34) 
-9.6899999999999995

>  <m_primary>  (34) 
energy

$$$$
34:0
     RDKit          3D

 41 43  0  0  0  0  0  0  0  0999 V2000
   -0.4830   26.6900  -23.3490 C   0  0  0  0  0  0  0  0  0  0  0  0
   -0.4210   27.5050  -24.9280 S   0  0  0  0  0  0  0  0  0  0  0  0
    1.0120   27.7610  -25.3050 O   0  0  0  0  0  0  0  0  0  0  0  0
   -1.1400   28.8210  -24.8440 O   0  0  0  0  0  0  0  0  0  0  0  0
   -1.1840   26.4840  -26.1420 C   0  0  0  0  0  0  0  0  0  0  0  0
   -2.3020   25.7090  -25.8090 C   0  0  0  0  0  0  0  0  0  0  0  0
   -2.9010   24.8880  -26.7690 C   0  0  0  0  0  0  0  0  0  0  0  0
   -2.3860   24.8240  -28.0770 C   0  0  0  0  0  0  0  0  0  0  0  0
   -3.0210   23.9510  -29.0980 C   0  0  0  0  0  0  0  0  0  0  0  0
   -4.2800   24.2740  -29.6300 C   0  0  0  0  0  0  0  0  0  0  0  0
   -4.8770   23.4530  -30.5910 C   0  0  0  0  0  0  0  0  0  0  0  0
   -4.2260   22.2920  -31.0450 C   0  0  0  0  0  0  0  0  0  0  0  0
   -4.8710   21.4230  -32.0590 C   0  0  0  0  0  0  0  0  0  0  0  0
   -5.8710   21.8500  -32.6970 O   0  0  0  0  0  0  0  0  0  0  0  0
   -4.3390   20.1210  -32.3580 N   0  0  0  0  0  0  0  0  0  0  0  0
   -5.0960   19.0750  -32.9910 C   0  0  0  0  0  0  0  0  0  0  0  0
   -6.2270   18.5070  -32.3800 C   0  0  0  0  0  0  0  0  0  0  0  0
   -6.9210   17.4760  -33.0160 C   0  0  0  0  0  0  0  0  0  0  0  0
   -6.4710   17.0100  -34.2530 C   0  0  0  0  0  0  0  0  0  0  0  0
   -5.3640   17.5530  -34.8240 N   0  0  0  0  0  0  0  0  0  0  0  0
   -4.6720   18.5590  -34.2250 C   0  0  0  0  0  0  0  0  0  0  0  0
   -2.9710   21.9640  -30.5030 C   0  0  0  0  0  0  0  0  0  0  0  0
   -2.3740   22.7860  -29.5440 C   0  0  0  0  0  0  0  0  0  0  0  0
   -1.2560   25.5990  -28.4000 C   0  0  0  0  0  0  0  0  0  0  0  0
   -0.6600   26.4200  -27.4390 C   0  0  0  0  0  0  0  0  0  0  0  0
   -0.4259   27.4403  -22.5466 H   0  0  0  0  0  0  0  0  0  0  0  0
   -1.4263   26.1309  -23.2617 H   0  0  0  0  0  0  0  0  0  0  0  0
    0.3648   25.9946  -23.2617 H   0  0  0  0  0  0  0  0  0  0  0  0
   -2.7103   25.7464  -24.7883 H   0  0  0  0  0  0  0  0  0  0  0  0
   -3.7821   24.2871  -26.4997 H   0  0  0  0  0  0  0  0  0  0  0  0
   -4.8006   25.1805  -29.2876 H   0  0  0  0  0  0  0  0  0  0  0  0
   -5.8650   23.7174  -30.9958 H   0  0  0  0  0  0  0  0  0  0  0  0
   -3.3170   19.9620  -32.2090 H   0  0  0  0  0  0  0  0  0  0  0  0
   -6.5656   18.8749  -31.4002 H   0  0  0  0  0  0  0  0  0  0  0  0
   -7.8133   17.0352  -32.5474 H   0  0  0  0  0  0  0  0  0  0  0  0
   -7.0135   16.2022  -34.7660 H   0  0  0  0  0  0  0  0  0  0  0  0
   -3.7749   18.9704  -34.7107 H   0  0  0  0  0  0  0  0  0  0  0  0
   -2.4545   21.0520  -30.8370 H   0  0  0  0  0  0  0  0  0  0  0  0
   -1.3887   22.5189  -29.1344 H   0  0  0  0  0  0  0  0  0  0  0  0
   -0.8389   25.5580  -29.4170 H   0  0  0  0  0  0  0  0  0  0  0  0
    0.2245   27.0185  -27.7025 H   0  0  0  0  0  0  0  0  0  0  0  0
  1  2  1  0
  2  3  2  0
  2  4  2  0
  2  5  1  0
  5  6  2  0
  6  7  1  0
  7  8  2  0
  8  9  1  0
  9 10  2  0
 10 11  1  0
 11 12  2  0
 12 13  1  0
 13 14  2  0
 13 15  1  0
 15 16  1  0
 16 17  2  0
 17 18  1  0
 18 19  2  0
 19 20  1  0
 20 21  2  0
 12 22  1  0
 22 23  2  0
  8 24  1  0
 24 25  2  0
 25  5  1  0
 23  9  1  0
 21 16  1  0
  1 26  1  0
  1 27  1  0
  1 28  1  0
  6 29  1  0
  7 30  1  0
 10 31  1  0
 11 32  1  0
 15 33  1  0
 17 34  1  0
 18 35  1  0
 19 36  1  0
 21 37  1  0
 22 38  1  0
 23 39  1  0
 24 40  1  0
 25 41  1  0
M  END
>  <UniqueID>  (35) 
34

>  <SMILES>  (35) 
CS(=O)(=O)c1ccc(-c2ccc(C(=O)Nc3cccnc3)cc2)cc1

>  <Energy>  (35) 
52.71458941899592

>  <Genealogy>  (35) 
CS(=O)(=O)c1ccc(-c2ccc(C(=O)Nc3cccnc3)cc2)cc1 (3D coordinates assigned)
CS(=O)(=O)c1ccc(-c2ccc(C(=O)Nc3cccnc3)cc2)cc1 (optimized conformer: 52.71458941899592 kcal/mol)

>  <smiles>  (35) 
CS(=O)(=O)c1ccc(-c2ccc(C(=O)Nc3cccnc3)cc2)cc1

>  <score_type>  (35) 
oracle

>  <origin>  (35) 
adgpu

>  <m_score__min__energy>  (35) 
-7.5499999999999998

>  <m_primary>  (35) 
energy

$$$$
35:0
     RDKit          3D

 55 58  0  0  0  0  0  0  0  0999 V2000
   -3.9000   25.3920  -30.4670 O   0  0  0  0  0  0  0  0  0  0  0  0
   -3.8630   24.1330  -30.4860 C   0  0  0  0  0  0  0  0  0  0  0  0
   -4.4210   23.4420  -31.6130 N   0  0  0  0  0  0  0  0  0  0  0  0
   -5.7530   22.9200  -31.7040 C   0  0  0  0  0  0  0  0  0  0  0  0
   -6.8820   23.7460  -31.5560 C   0  0  0  0  0  0  0  0  0  0  0  0
   -8.1660   23.2040  -31.6490 C   0  0  0  0  0  0  0  0  0  0  0  0
   -8.3350   21.8430  -31.9110 C   0  0  0  0  0  0  0  0  0  0  0  0
   -7.2190   21.0180  -32.0980 C   0  0  0  0  0  0  0  0  0  0  0  0
   -7.4260   19.2980  -32.4130 S   0  0  0  0  0  0  0  0  0  0  0  0
   -6.9880   18.5040  -31.2110 O   0  0  0  0  0  0  0  0  0  0  0  0
   -8.8800   19.0120  -32.6690 O   0  0  0  0  0  0  0  0  0  0  0  0
   -6.4900   18.8490  -33.8160 N   0  0  0  0  0  0  0  0  0  0  0  0
   -5.0880   19.2540  -33.6910 C   0  0  0  0  0  0  0  0  0  0  0  0
   -4.2800   18.2910  -34.5490 C   0  0  0  0  0  0  0  0  0  0  0  0
   -5.1750   17.0770  -34.7510 C   0  0  0  0  0  0  0  0  0  0  0  0
   -6.4700   17.3990  -34.0160 C   0  0  0  0  0  0  0  0  0  0  0  0
   -5.9300   21.5620  -31.9950 C   0  0  0  0  0  0  0  0  0  0  0  0
   -3.1640   23.4080  -29.3990 C   0  0  0  0  0  0  0  0  0  0  0  0
   -2.9590   24.0700  -28.1750 C   0  0  0  0  0  0  0  0  0  0  0  0
   -2.3400   23.4200  -27.1100 C   0  0  0  0  0  0  0  0  0  0  0  0
   -1.9220   22.0980  -27.2490 C   0  0  0  0  0  0  0  0  0  0  0  0
   -2.1130   21.4250  -28.4560 C   0  0  0  0  0  0  0  0  0  0  0  0
   -2.7290   22.0670  -29.5500 C   0  0  0  0  0  0  0  0  0  0  0  0
   -2.8500   21.3910  -30.8200 N   0  0  0  0  0  0  0  0  0  0  0  0
   -2.1530   20.1400  -31.1260 C   0  0  0  0  0  0  0  0  0  0  0  0
   -1.4740   20.2260  -32.4660 C   0  0  0  0  0  0  0  0  0  0  0  0
   -1.0820   21.4680  -32.9890 C   0  0  0  0  0  0  0  0  0  0  0  0
   -0.4810   21.5370  -34.2470 C   0  0  0  0  0  0  0  0  0  0  0  0
   -0.2900   20.3630  -34.9790 C   0  0  0  0  0  0  0  0  0  0  0  0
   -0.6910   19.1680  -34.4670 N   0  0  0  0  0  0  0  0  0  0  0  0
   -1.2770   19.0740  -33.2440 C   0  0  0  0  0  0  0  0  0  0  0  0
   -6.7533   24.8219  -31.3665 H   0  0  0  0  0  0  0  0  0  0  0  0
   -9.0458   23.8507  -31.5156 H   0  0  0  0  0  0  0  0  0  0  0  0
   -9.3477   21.4176  -31.9707 H   0  0  0  0  0  0  0  0  0  0  0  0
   -6.9090   19.3100  -34.6590 H   0  0  0  0  0  0  0  0  0  0  0  0
   -4.9570   20.2850  -34.0513 H   0  0  0  0  0  0  0  0  0  0  0  0
   -4.7580   19.2239  -32.6421 H   0  0  0  0  0  0  0  0  0  0  0  0
   -4.0338   18.7523  -35.5168 H   0  0  0  0  0  0  0  0  0  0  0  0
   -3.3269   18.0202  -34.0712 H   0  0  0  0  0  0  0  0  0  0  0  0
   -5.3702   16.9172  -35.8217 H   0  0  0  0  0  0  0  0  0  0  0  0
   -4.7073   16.1573  -34.3697 H   0  0  0  0  0  0  0  0  0  0  0  0
   -7.3357   17.0874  -34.6188 H   0  0  0  0  0  0  0  0  0  0  0  0
   -6.5230   16.8660  -33.0552 H   0  0  0  0  0  0  0  0  0  0  0  0
   -5.0517   20.9167  -32.1440 H   0  0  0  0  0  0  0  0  0  0  0  0
   -3.2911   25.1121  -28.0576 H   0  0  0  0  0  0  0  0  0  0  0  0
   -2.1811   23.9501  -26.1594 H   0  0  0  0  0  0  0  0  0  0  0  0
   -1.4400   21.5836  -26.4046 H   0  0  0  0  0  0  0  0  0  0  0  0
   -1.7792   20.3816  -28.5554 H   0  0  0  0  0  0  0  0  0  0  0  0
   -3.4340   21.8240  -31.5700 H   0  0  0  0  0  0  0  0  0  0  0  0
   -1.3977   19.9478  -30.3497 H   0  0  0  0  0  0  0  0  0  0  0  0
   -2.8880   19.3220  -31.1528 H   0  0  0  0  0  0  0  0  0  0  0  0
   -1.2483   22.3869  -32.4077 H   0  0  0  0  0  0  0  0  0  0  0  0
   -0.1611   22.5061  -34.6576 H   0  0  0  0  0  0  0  0  0  0  0  0
    0.1850   20.4046  -35.9703 H   0  0  0  0  0  0  0  0  0  0  0  0
   -1.5976   18.0931  -32.8630 H   0  0  0  0  0  0  0  0  0  0  0  0
  1  2  2  0
  2  3  1  0
  3  4  1  0
  4  5  2  0
  5  6  1  0
  6  7  2  0
  7  8  1  0
  8  9  1  0
  9 10  2  0
  9 11  2  0
  9 12  1  0
 12 13  1  0
 13 14  1  0
 14 15  1  0
 15 16  1  0
  8 17  2  0
  2 18  1  0
 18 19  2  0
 19 20  1  0
 20 21  2  0
 21 22  1  0
 22 23  2  0
 23 24  1  0
 24 25  1  0
 25 26  1  0
 26 27  2  0
 27 28  1  0
 28 29  2  0
 29 30  1  0
 30 31  2  0
 17  4  1  0
 23 18  1  0
 31 26  1  0
 16 12  1  0
  5 32  1  0
  6 33  1  0
  7 34  1  0
 12 35  1  0
 13 36  1  0
 13 37  1  0
 14 38  1  0
 14 39  1  0
 15 40  1  0
 15 41  1  0
 16 42  1  0
 16 43  1  0
 17 44  1  0
 19 45  1  0
 20 46  1  0
 21 47  1  0
 22 48  1  0
 24 49  1  0
 25 50  1  0
 25 51  1  0
 27 52  1  0
 28 53  1  0
 29 54  1  0
 31 55  1  0
M  CHG  2   3  -1  12   1
M  END
>  <UniqueID>  (36) 
35

>  <SMILES>  (36) 
O=C([N-]c1cccc(S(=O)(=O)[NH+]2CCCC2)c1)c1ccccc1NCc1cccnc1

>  <Energy>  (36) 
69.0996224961312

>  <Genealogy>  (36) 
O=C([N-]c1cccc(S(=O)(=O)[NH+]2CCCC2)c1)c1ccccc1NCc1cccnc1 (protonated)
O=C([N-]c1cccc(S(=O)(=O)[NH+]2CCCC2)c1)c1ccccc1NCc1cccnc1 (3D coordinates assigned)
O=C([N-]c1cccc(S(=O)(=O)[NH+]2CCCC2)c1)c1ccccc1NCc1cccnc1 (nonaromatic ring conformer: 69.0996224961312 kcal/mol)

>  <smiles>  (36) 
O=C(Nc1cccc(S(=O)(=O)N2CCCC2)c1)c1ccccc1NCc1cccnc1

>  <score_type>  (36) 
oracle

>  <origin>  (36) 
adgpu

>  <m_score__min__energy>  (36) 
-11.210000000000001

>  <m_primary>  (36) 
energy

$$$$
36:0
     RDKit          3D

 69 72  0  0  0  0  0  0  0  0999 V2000
   -9.0960   18.6220  -31.6220 C   0  0  0  0  0  0  0  0  0  0  0  0
   -7.7300   19.0400  -32.0850 C   0  0  0  0  0  0  0  0  0  0  0  0
   -7.0090   18.2330  -32.9760 C   0  0  0  0  0  0  0  0  0  0  0  0
   -5.7460   18.6260  -33.4210 C   0  0  0  0  0  0  0  0  0  0  0  0
   -5.1880   19.8460  -33.0030 C   0  0  0  0  0  0  0  0  0  0  0  0
   -3.7850   20.2050  -33.4370 C   0  0  0  0  0  0  0  0  0  0  0  0
   -3.3070   19.2640  -34.3610 O   0  0  0  0  0  0  0  0  0  0  0  0
   -5.9280   20.6800  -32.1290 C   0  0  0  0  0  0  0  0  0  0  0  0
   -5.3980   21.9750  -31.6640 C   0  0  0  0  0  0  0  0  0  0  0  0
   -6.0930   23.1620  -31.9270 C   0  0  0  0  0  0  0  0  0  0  0  0
   -5.5750   24.3870  -31.5010 C   0  0  0  0  0  0  0  0  0  0  0  0
   -4.3570   24.4390  -30.8160 C   0  0  0  0  0  0  0  0  0  0  0  0
   -3.8620   25.6720  -30.4080 O   0  0  0  0  0  0  0  0  0  0  0  0
   -3.6450   23.2520  -30.5520 C   0  0  0  0  0  0  0  0  0  0  0  0
   -2.3130   23.2700  -29.8450 C   0  0  0  0  0  0  0  0  0  0  0  0
   -1.9150   21.9410  -29.4990 O   0  0  0  0  0  0  0  0  0  0  0  0
   -1.2210   21.0590  -30.3430 C   0  0  0  0  0  0  0  0  0  0  0  0
   -0.6710   19.8490  -29.8860 C   0  0  0  0  0  0  0  0  0  0  0  0
   -0.0110   18.9960  -30.7720 C   0  0  0  0  0  0  0  0  0  0  0  0
    0.1260   19.3410  -32.1310 C   0  0  0  0  0  0  0  0  0  0  0  0
    0.7570   18.4910  -33.0580 O   0  0  0  0  0  0  0  0  0  0  0  0
    0.2660   17.2180  -33.4760 C   0  0  0  0  0  0  0  0  0  0  0  0
   -0.8960   17.3880  -34.4160 C   0  0  0  0  0  0  0  0  0  0  0  0
   -0.7810   18.2050  -35.3690 O   0  0  0  0  0  0  0  0  0  0  0  0
   -2.1420   16.6820  -34.2270 N   0  0  0  0  0  0  0  0  0  0  0  0
   -3.0760   16.5400  -35.3520 C   0  0  0  0  0  0  0  0  0  0  0  0
   -3.8500   15.2270  -35.2040 C   0  0  0  0  0  0  0  0  0  0  0  0
   -4.6120   15.1600  -33.9330 N   0  0  0  0  0  0  0  0  0  0  0  0
   -4.8330   13.7600  -33.5360 C   0  0  0  0  0  0  0  0  0  0  0  0
   -4.0350   15.9500  -32.8170 C   0  0  0  0  0  0  0  0  0  0  0  0
   -2.5120   16.1220  -32.9210 C   0  0  0  0  0  0  0  0  0  0  0  0
   -0.3960   20.5690  -32.5840 C   0  0  0  0  0  0  0  0  0  0  0  0
   -0.2450   20.9710  -34.0220 C   0  0  0  0  0  0  0  0  0  0  0  0
   -1.0820   21.4070  -31.6900 C   0  0  0  0  0  0  0  0  0  0  0  0
   -4.1870   22.0220  -30.9610 C   0  0  0  0  0  0  0  0  0  0  0  0
   -7.1910   20.2680  -31.6770 C   0  0  0  0  0  0  0  0  0  0  0  0
   -9.1238   18.6135  -30.5224 H   0  0  0  0  0  0  0  0  0  0  0  0
   -9.8452   19.3320  -32.0022 H   0  0  0  0  0  0  0  0  0  0  0  0
   -9.3196   17.6143  -32.0022 H   0  0  0  0  0  0  0  0  0  0  0  0
   -7.4413   17.2842  -33.3266 H   0  0  0  0  0  0  0  0  0  0  0  0
   -5.1822   17.9748  -34.1052 H   0  0  0  0  0  0  0  0  0  0  0  0
   -3.7930   21.2009  -33.9040 H   0  0  0  0  0  0  0  0  0  0  0  0
   -3.1269   20.2082  -32.5556 H   0  0  0  0  0  0  0  0  0  0  0  0
   -2.3150   19.3380  -34.3520 H   0  0  0  0  0  0  0  0  0  0  0  0
   -7.0489   23.1294  -32.4703 H   0  0  0  0  0  0  0  0  0  0  0  0
   -6.1279   25.3157  -31.7053 H   0  0  0  0  0  0  0  0  0  0  0  0
   -1.5563   23.7139  -30.5086 H   0  0  0  0  0  0  0  0  0  0  0  0
   -2.4050   23.8661  -28.9251 H   0  0  0  0  0  0  0  0  0  0  0  0
   -0.7611   19.5729  -28.8250 H   0  0  0  0  0  0  0  0  0  0  0  0
    0.4058   18.0461  -30.4059 H   0  0  0  0  0  0  0  0  0  0  0  0
    1.0700   16.6698  -33.9888 H   0  0  0  0  0  0  0  0  0  0  0  0
   -0.0693   16.6565  -32.5915 H   0  0  0  0  0  0  0  0  0  0  0  0
   -3.7812   17.3842  -35.3530 H   0  0  0  0  0  0  0  0  0  0  0  0
   -2.5151   16.5326  -36.2982 H   0  0  0  0  0  0  0  0  0  0  0  0
   -4.5548   15.1358  -36.0436 H   0  0  0  0  0  0  0  0  0  0  0  0
   -3.1188   14.4052  -35.2004 H   0  0  0  0  0  0  0  0  0  0  0  0
   -4.8444   13.6875  -32.4384 H   0  0  0  0  0  0  0  0  0  0  0  0
   -5.7970   13.4131  -33.9364 H   0  0  0  0  0  0  0  0  0  0  0  0
   -4.0227   13.1330  -33.9364 H   0  0  0  0  0  0  0  0  0  0  0  0
   -4.5002   16.9468  -32.8173 H   0  0  0  0  0  0  0  0  0  0  0  0
   -4.2388   15.3990  -31.8870 H   0  0  0  0  0  0  0  0  0  0  0  0
   -2.1701   16.8016  -32.1265 H   0  0  0  0  0  0  0  0  0  0  0  0
   -2.0360   15.1365  -32.8105 H   0  0  0  0  0  0  0  0  0  0  0  0
    0.1413   21.9995  -34.0766 H   0  0  0  0  0  0  0  0  0  0  0  0
    0.4580   20.2883  -34.5217 H   0  0  0  0  0  0  0  0  0  0  0  0
   -1.2236   20.9199  -34.5217 H   0  0  0  0  0  0  0  0  0  0  0  0
   -1.5158   22.3499  -32.0544 H   0  0  0  0  0  0  0  0  0  0  0  0
   -3.6558   21.0876  -30.7272 H   0  0  0  0  0  0  0  0  0  0  0  0
   -7.7635   20.9149  -30.9960 H   0  0  0  0  0  0  0  0  0  0  0  0
  1  2  1  0
  2  3  2  0
  3  4  1  0
  4  5  2  0
  5  6  1  0
  6  7  1  0
  5  8  1  0
  8  9  1  0
  9 10  2  0
 10 11  1  0
 11 12  2  0
 12 13  1  0
 12 14  1  0
 14 15  1  0
 15 16  1  0
 16 17  1  0
 17 18  2  0
 18 19  1  0
 19 20  2  0
 20 21  1  0
 21 22  1  0
 22 23  1  0
 23 24  2  0
 23 25  1  0
 25 26  1  0
 26 27  1  0
 27 28  1  0
 28 29  1  0
 28 30  1  0
 30 31  1  0
 20 32  1  0
 32 33  1  0
 32 34  2  0
 14 35  2  0
  8 36  2  0
 36  2  1  0
 35  9  1  0
 34 17  1  0
 31 25  1  0
  1 37  1  0
  1 38  1  0
  1 39  1  0
  3 40  1  0
  4 41  1  0
  6 42  1  0
  6 43  1  0
  7 44  1  0
 10 45  1  0
 11 46  1  0
 15 47  1  0
 15 48  1  0
 18 49  1  0
 19 50  1  0
 22 51  1  0
 22 52  1  0
 26 53  1  0
 26 54  1  0
 27 55  1  0
 27 56  1  0
 29 57  1  0
 29 58  1  0
 29 59  1  0
 30 60  1  0
 30 61  1  0
 31 62  1  0
 31 63  1  0
 33 64  1  0
 33 65  1  0
 33 66  1  0
 34 67  1  0
 35 68  1  0
 36 69  1  0
M  CHG  1  13  -1
M  END
>  <UniqueID>  (37) 
36

>  <SMILES>  (37) 
Cc1ccc(CO)c(-c2ccc([O-])c(COc3ccc(OCC(=O)N4CCN(C)CC4)c(C)c3)c2)c1

>  <Energy>  (37) 
84.48928877225998

>  <Genealogy>  (37) 
Cc1ccc(CO)c(-c2ccc([O-])c(COc3ccc(OCC(=O)N4CCN(C)CC4)c(C)c3)c2)c1 (protonated)
Cc1ccc(CO)c(-c2ccc([O-])c(COc3ccc(OCC(=O)N4CCN(C)CC4)c(C)c3)c2)c1 (3D coordinates assigned)
Cc1ccc(CO)c(-c2ccc([O-])c(COc3ccc(OCC(=O)N4CCN(C)CC4)c(C)c3)c2)c1 (nonaromatic ring conformer: 84.48928877225998 kcal/mol)

>  <smiles>  (37) 
Cc1ccc(CO)c(-c2ccc(O)c(COc3ccc(OCC(=O)N4CCN(C)CC4)c(C)c3)c2)c1

>  <score_type>  (37) 
oracle

>  <origin>  (37) 
adgpu

>  <m_score__min__energy>  (37) 
-12.69

>  <m_primary>  (37) 
energy

$$$$
37:0
     RDKit          3D

 56 59  0  0  0  0  0  0  0  0999 V2000
   -1.5180   21.6540  -26.6550 C   0  0  0  0  0  0  0  0  0  0  0  0
   -2.0650   22.6190  -27.6760 C   0  0  0  0  0  0  0  0  0  0  0  0
   -3.2920   22.3200  -28.2880 C   0  0  0  0  0  0  0  0  0  0  0  0
   -3.8610   23.1960  -29.2080 C   0  0  0  0  0  0  0  0  0  0  0  0
   -3.2010   24.3800  -29.5540 C   0  0  0  0  0  0  0  0  0  0  0  0
   -3.7950   25.2910  -30.4850 N   0  0  0  0  0  0  0  0  0  0  0  0
   -5.1990   25.3180  -30.7580 C   0  0  0  0  0  0  0  0  0  0  0  0
   -5.9540   26.0180  -30.0350 O   0  0  0  0  0  0  0  0  0  0  0  0
   -5.7280   24.5510  -31.8500 N   0  0  0  0  0  0  0  0  0  0  0  0
   -6.0610   23.1540  -31.8590 C   0  0  0  0  0  0  0  0  0  0  0  0
   -5.0820   22.1460  -31.9110 C   0  0  0  0  0  0  0  0  0  0  0  0
   -5.4590   20.8010  -31.9860 C   0  0  0  0  0  0  0  0  0  0  0  0
   -6.8130   20.4470  -32.0270 C   0  0  0  0  0  0  0  0  0  0  0  0
   -7.2970   18.7620  -32.2040 S   0  0  0  0  0  0  0  0  0  0  0  0
   -6.6200   17.9230  -31.1550 O   0  0  0  0  0  0  0  0  0  0  0  0
   -8.7840   18.6660  -32.0110 O   0  0  0  0  0  0  0  0  0  0  0  0
   -6.8680   18.1850  -33.8020 N   0  0  0  0  0  0  0  0  0  0  0  0
   -5.7130   18.9270  -34.3240 C   0  0  0  0  0  0  0  0  0  0  0  0
   -4.4530   18.1510  -33.9720 C   0  0  0  0  0  0  0  0  0  0  0  0
   -4.9250   16.7560  -33.6030 C   0  0  0  0  0  0  0  0  0  0  0  0
   -6.4400   16.7840  -33.7420 C   0  0  0  0  0  0  0  0  0  0  0  0
   -7.7890   21.4480  -31.9890 C   0  0  0  0  0  0  0  0  0  0  0  0
   -7.4140   22.7920  -31.9040 C   0  0  0  0  0  0  0  0  0  0  0  0
   -1.9600   24.6820  -28.9800 C   0  0  0  0  0  0  0  0  0  0  0  0
   -1.3340   25.8720  -29.3310 O   0  0  0  0  0  0  0  0  0  0  0  0
   -1.3790   23.8100  -28.0320 C   0  0  0  0  0  0  0  0  0  0  0  0
    0.1200   24.2850  -27.1950 S   0  0  0  0  0  0  0  0  0  0  0  0
    1.1000   24.9120  -28.1470 O   0  0  0  0  0  0  0  0  0  0  0  0
    0.7680   23.0750  -26.5820 O   0  0  0  0  0  0  0  0  0  0  0  0
   -0.2800   25.4260  -25.9550 N   0  0  0  0  0  0  0  0  0  0  0  0
    0.6730   26.0550  -25.0560 C   0  0  0  0  0  0  0  0  0  0  0  0
   -0.1820   26.9150  -24.0950 C   0  0  0  0  0  0  0  0  0  0  0  0
   -1.5800   26.6320  -24.4130 N   0  0  0  0  0  0  0  0  0  0  0  0
   -1.5770   25.7630  -25.5240 C   0  0  0  0  0  0  0  0  0  0  0  0
   -2.6290   25.3280  -26.0640 O   0  0  0  0  0  0  0  0  0  0  0  0
   -1.7313   22.0303  -25.6436 H   0  0  0  0  0  0  0  0  0  0  0  0
   -1.9931   20.6709  -26.7882 H   0  0  0  0  0  0  0  0  0  0  0  0
   -0.4304   21.5567  -26.7882 H   0  0  0  0  0  0  0  0  0  0  0  0
   -3.8101   21.3825  -28.0378 H   0  0  0  0  0  0  0  0  0  0  0  0
   -4.8328   22.9565  -29.6645 H   0  0  0  0  0  0  0  0  0  0  0  0
   -4.0158   22.4161  -31.8926 H   0  0  0  0  0  0  0  0  0  0  0  0
   -4.6876   20.0173  -32.0129 H   0  0  0  0  0  0  0  0  0  0  0  0
   -5.7966   19.0262  -35.4163 H   0  0  0  0  0  0  0  0  0  0  0  0
   -5.6760   19.9336  -33.8820 H   0  0  0  0  0  0  0  0  0  0  0  0
   -3.7726   18.1107  -34.8354 H   0  0  0  0  0  0  0  0  0  0  0  0
   -3.8986   18.6251  -33.1487 H   0  0  0  0  0  0  0  0  0  0  0  0
   -4.4909   16.0110  -34.2860 H   0  0  0  0  0  0  0  0  0  0  0  0
   -4.6157   16.4788  -32.5844 H   0  0  0  0  0  0  0  0  0  0  0  0
   -6.7392   16.2633  -34.6636 H   0  0  0  0  0  0  0  0  0  0  0  0
   -6.9099   16.2792  -32.8850 H   0  0  0  0  0  0  0  0  0  0  0  0
   -8.8545   21.1770  -32.0261 H   0  0  0  0  0  0  0  0  0  0  0  0
   -8.1882   23.5727  -31.8721 H   0  0  0  0  0  0  0  0  0  0  0  0
    1.2350   25.2935  -24.4955 H   0  0  0  0  0  0  0  0  0  0  0  0
    1.4137   26.6596  -25.5998 H   0  0  0  0  0  0  0  0  0  0  0  0
    0.0321   26.6437  -23.0507 H   0  0  0  0  0  0  0  0  0  0  0  0
    0.0430   27.9852  -24.2139 H   0  0  0  0  0  0  0  0  0  0  0  0
  1  2  1  0
  2  3  2  0
  3  4  1  0
  4  5  2  0
  5  6  1  0
  6  7  1  0
  7  8  2  0
  7  9  1  0
  9 10  1  0
 10 11  2  0
 11 12  1  0
 12 13  2  0
 13 14  1  0
 14 15  2  0
 14 16  2  0
 14 17  1  0
 17 18  1  0
 18 19  1  0
 19 20  1  0
 20 21  1  0
 13 22  1  0
 22 23  2  0
  5 24  1  0
 24 25  1  0
 24 26  2  0
 26 27  1  0
 27 28  2  0
 27 29  2  0
 27 30  1  0
 30 31  1  0
 31 32  1  0
 32 33  1  0
 33 34  1  0
 34 35  2  0
 26  2  1  0
 34 30  1  0
 23 10  1  0
 21 17  1  0
  1 36  1  0
  1 37  1  0
  1 38  1  0
  3 39  1  0
  4 40  1  0
 11 41  1  0
 12 42  1  0
 18 43  1  0
 18 44  1  0
 19 45  1  0
 19 46  1  0
 20 47  1  0
 20 48  1  0
 21 49  1  0
 21 50  1  0
 22 51  1  0
 23 52  1  0
 31 53  1  0
 31 54  1  0
 32 55  1  0
 32 56  1  0
M  CHG  4   6  -1   9  -1  25  -1  33  -1
M  END
>  <UniqueID>  (38) 
37

>  <SMILES>  (38) 
Cc1ccc([N-]C(=O)[N-]c2ccc(S(=O)(=O)N3CCCC3)cc2)c([O-])c1S(=O)(=O)N1CC[N-]C1=O

>  <Energy>  (38) 
87.08137109449339

>  <Genealogy>  (38) 
Cc1ccc([N-]C(=O)[N-]c2ccc(S(=O)(=O)N3CCCC3)cc2)c([O-])c1S(=O)(=O)N1CC[N-]C1=O (protonated)
Cc1ccc([N-]C(=O)[N-]c2ccc(S(=O)(=O)N3CCCC3)cc2)c([O-])c1S(=O)(=O)N1CC[N-]C1=O (3D coordinates assigned)
Cc1ccc([N-]C(=O)[N-]c2ccc(S(=O)(=O)N3CCCC3)cc2)c([O-])c1S(=O)(=O)N1CC[N-]C1=O (nonaromatic ring conformer: 87.08137109449339 kcal/mol)

>  <smiles>  (38) 
Cc1ccc(NC(=O)Nc2ccc(S(=O)(=O)N3CCCC3)cc2)c(O)c1S(=O)(=O)N1CCNC1=O

>  <score_type>  (38) 
oracle

>  <origin>  (38) 
adgpu

>  <m_score__min__energy>  (38) 
-17.309999999999999

>  <m_primary>  (38) 
energy

$$$$
38:0
     RDKit          3D

 56 59  0  0  0  0  0  0  0  0999 V2000
   -9.8630   21.6410  -31.3710 O   0  0  0  0  0  0  0  0  0  0  0  0
   -8.7210   21.2590  -31.0160 C   0  0  0  0  0  0  0  0  0  0  0  0
   -7.7600   22.2640  -30.4360 C   0  0  0  0  0  0  0  0  0  0  0  0
   -7.4780   23.6270  -31.6170 S   0  0  0  0  0  0  0  0  0  0  0  0
   -5.9010   24.0990  -30.8960 C   0  0  0  0  0  0  0  0  0  0  0  0
   -4.9850   24.8570  -31.5360 N   0  0  0  0  0  0  0  0  0  0  0  0
   -3.8950   25.0950  -30.8000 N   0  0  0  0  0  0  0  0  0  0  0  0
   -3.9450   24.5290  -29.5750 C   0  0  0  0  0  0  0  0  0  0  0  0
   -2.9850   24.6570  -28.7060 N   0  0  0  0  0  0  0  0  0  0  0  0
   -2.9930   24.0600  -27.3750 C   0  0  0  0  0  0  0  0  0  0  0  0
   -2.4220   22.6730  -27.4530 C   0  0  0  0  0  0  0  0  0  0  0  0
   -3.2400   21.5920  -27.8290 C   0  0  0  0  0  0  0  0  0  0  0  0
   -2.7250   20.2910  -27.8530 C   0  0  0  0  0  0  0  0  0  0  0  0
   -1.3960   20.0590  -27.4810 C   0  0  0  0  0  0  0  0  0  0  0  0
   -0.5800   21.1290  -27.0910 C   0  0  0  0  0  0  0  0  0  0  0  0
   -1.0900   22.4310  -27.0710 C   0  0  0  0  0  0  0  0  0  0  0  0
   -5.3870   23.6760  -29.3430 S   0  0  0  0  0  0  0  0  0  0  0  0
   -8.3440   19.8940  -31.2560 N   0  0  0  0  0  0  0  0  0  0  0  0
   -7.2970   19.4430  -32.1330 C   0  0  0  0  0  0  0  0  0  0  0  0
   -7.4380   18.2090  -32.7890 C   0  0  0  0  0  0  0  0  0  0  0  0
   -6.4210   17.7310  -33.6230 C   0  0  0  0  0  0  0  0  0  0  0  0
   -5.2480   18.4740  -33.7910 C   0  0  0  0  0  0  0  0  0  0  0  0
   -5.0830   19.6990  -33.1180 C   0  0  0  0  0  0  0  0  0  0  0  0
   -3.6030   20.6490  -33.3120 S   0  0  0  0  0  0  0  0  0  0  0  0
   -2.6670   19.9630  -34.2810 O   0  0  0  0  0  0  0  0  0  0  0  0
   -3.9640   22.0080  -33.8550 O   0  0  0  0  0  0  0  0  0  0  0  0
   -2.8200   20.8130  -31.7560 N   0  0  0  0  0  0  0  0  0  0  0  0
   -1.7460   19.7950  -31.5940 C   0  0  0  0  0  0  0  0  0  0  0  0
   -0.3320   20.3890  -31.7020 C   0  0  0  0  0  0  0  0  0  0  0  0
   -0.1200   21.4920  -30.6520 C   0  0  0  0  0  0  0  0  0  0  0  0
   -1.3900   22.3310  -30.3980 C   0  0  0  0  0  0  0  0  0  0  0  0
   -2.3800   22.2130  -31.5620 C   0  0  0  0  0  0  0  0  0  0  0  0
   -6.1030   20.1750  -32.2870 C   0  0  0  0  0  0  0  0  0  0  0  0
   -8.1800   22.6720  -29.5048 H   0  0  0  0  0  0  0  0  0  0  0  0
   -6.8015   21.7649  -30.2306 H   0  0  0  0  0  0  0  0  0  0  0  0
   -2.3829   24.6714  -26.6938 H   0  0  0  0  0  0  0  0  0  0  0  0
   -4.0248   24.0144  -26.9964 H   0  0  0  0  0  0  0  0  0  0  0  0
   -4.2896   21.7703  -28.1055 H   0  0  0  0  0  0  0  0  0  0  0  0
   -3.3642   19.4515  -28.1640 H   0  0  0  0  0  0  0  0  0  0  0  0
   -0.9918   19.0360  -27.4948 H   0  0  0  0  0  0  0  0  0  0  0  0
    0.4646   20.9445  -26.7998 H   0  0  0  0  0  0  0  0  0  0  0  0
   -0.4485   23.2672  -26.7560 H   0  0  0  0  0  0  0  0  0  0  0  0
   -8.3528   17.6151  -32.6464 H   0  0  0  0  0  0  0  0  0  0  0  0
   -6.5441   16.7713  -34.1462 H   0  0  0  0  0  0  0  0  0  0  0  0
   -4.4518   18.0997  -34.4513 H   0  0  0  0  0  0  0  0  0  0  0  0
   -1.8543   19.3260  -30.6049 H   0  0  0  0  0  0  0  0  0  0  0  0
   -1.8590   19.0657  -32.4097 H   0  0  0  0  0  0  0  0  0  0  0  0
    0.4075   19.5908  -31.5406 H   0  0  0  0  0  0  0  0  0  0  0  0
   -0.2101   20.8280  -32.7032 H   0  0  0  0  0  0  0  0  0  0  0  0
    0.1852   21.0217  -29.7056 H   0  0  0  0  0  0  0  0  0  0  0  0
    0.6531   22.1721  -31.0390 H   0  0  0  0  0  0  0  0  0  0  0  0
   -1.8758   21.9752  -29.4775 H   0  0  0  0  0  0  0  0  0  0  0  0
   -1.0943   23.3860  -30.3005 H   0  0  0  0  0  0  0  0  0  0  0  0
   -3.2594   22.8384  -31.3488 H   0  0  0  0  0  0  0  0  0  0  0  0
   -1.8764   22.5484  -32.4806 H   0  0  0  0  0  0  0  0  0  0  0  0
   -5.9720   21.1264  -31.7507 H   0  0  0  0  0  0  0  0  0  0  0  0
  1  2  2  0
  2  3  1  0
  3  4  1  0
  4  5  1  0
  5  6  2  0
  6  7  1  0
  7  8  1  0
  8  9  2  3
  9 10  1  0
 10 11  1  0
 11 12  2  0
 12 13  1  0
 13 14  2  0
 14 15  1  0
 15 16  2  0
  8 17  1  0
  2 18  1  0
 18 19  1  0
 19 20  2  0
 20 21  1  0
 21 22  2  0
 22 23  1  0
 23 24  1  0
 24 25  2  0
 24 26  2  0
 24 27  1  0
 27 28  1  0
 28 29  1  0
 29 30  1  0
 30 31  1  0
 31 32  1  0
 23 33  2  0
 17  5  1  0
 33 19  1  0
 16 11  1  0
 32 27  1  0
  3 34  1  0
  3 35  1  0
 10 36  1  0
 10 37  1  0
 12 38  1  0
 13 39  1  0
 14 40  1  0
 15 41  1  0
 16 42  1  0
 20 43  1  0
 21 44  1  0
 22 45  1  0
 28 46  1  0
 28 47  1  0
 29 48  1  0
 29 49  1  0
 30 50  1  0
 30 51  1  0
 31 52  1  0
 31 53  1  0
 32 54  1  0
 32 55  1  0
 33 56  1  0
M  CHG  2   7  -1  18  -1
M  END
>  <UniqueID>  (39) 
38

>  <SMILES>  (39) 
O=C(CSc1n[n-]c(=NCc2ccccc2)s1)[N-]c1cccc(S(=O)(=O)N2CCCCC2)c1

>  <Energy>  (39) 
96.73380856537828

>  <Genealogy>  (39) 
O=C(CSc1n[n-]c(=NCc2ccccc2)s1)[N-]c1cccc(S(=O)(=O)N2CCCCC2)c1 (protonated)
O=C(CSc1n[n-]c(=NCc2ccccc2)s1)[N-]c1cccc(S(=O)(=O)N2CCCCC2)c1 (3D coordinates assigned)
O=C(CSc1n[n-]c(=NCc2ccccc2)s1)[N-]c1cccc(S(=O)(=O)N2CCCCC2)c1 (nonaromatic ring conformer: 96.73380856537828 kcal/mol)

>  <smiles>  (39) 
O=C(CSc1n[nH]c(=NCc2ccccc2)s1)Nc1cccc(S(=O)(=O)N2CCCCC2)c1

>  <score_type>  (39) 
oracle

>  <origin>  (39) 
adgpu

>  <m_score__min__energy>  (39) 
-13.199999999999999

>  <m_primary>  (39) 
energy

$$$$
39:0
     RDKit          3D

 42 44  0  0  0  0  0  0  0  0999 V2000
   -0.1090   16.7250  -35.6010 C   0  0  0  0  0  0  0  0  0  0  0  0
   -0.4430   18.1050  -35.1440 C   0  0  0  0  0  0  0  0  0  0  0  0
   -1.4080   18.4360  -34.2210 C   0  0  0  0  0  0  0  0  0  0  0  0
   -1.3500   19.7670  -34.0220 N   0  0  0  0  0  0  0  0  0  0  0  0
   -2.1720   20.5530  -33.1360 C   0  0  0  0  0  0  0  0  0  0  0  0
   -1.6060   21.5360  -32.3110 C   0  0  0  0  0  0  0  0  0  0  0  0
   -2.3880   22.2560  -31.4680 N   0  0  0  0  0  0  0  0  0  0  0  0
   -3.7350   22.0830  -31.3930 C   0  0  0  0  0  0  0  0  0  0  0  0
   -4.4740   22.8360  -30.4210 N   0  0  0  0  0  0  0  0  0  0  0  0
   -4.2600   22.5950  -28.9950 C   0  0  0  0  0  0  0  0  0  0  0  0
   -5.2350   24.3180  -30.9060 S   0  0  0  0  0  0  0  0  0  0  0  0
   -6.5850   24.6890  -29.8080 C   0  0  0  0  0  0  0  0  0  0  0  0
   -5.7500   24.1830  -32.3110 O   0  0  0  0  0  0  0  0  0  0  0  0
   -4.2330   25.4370  -30.8620 O   0  0  0  0  0  0  0  0  0  0  0  0
   -4.3630   21.1350  -32.2310 C   0  0  0  0  0  0  0  0  0  0  0  0
   -5.8310   20.9450  -32.2740 C   0  0  0  0  0  0  0  0  0  0  0  0
   -6.5250   19.9500  -32.9460 C   0  0  0  0  0  0  0  0  0  0  0  0
   -7.8580   20.1660  -32.6720 C   0  0  0  0  0  0  0  0  0  0  0  0
   -7.8950   21.2690  -31.8450 C   0  0  0  0  0  0  0  0  0  0  0  0
   -9.1270   21.8870  -31.2760 C   0  0  0  0  0  0  0  0  0  0  0  0
   -6.6780   21.7090  -31.6220 O   0  0  0  0  0  0  0  0  0  0  0  0
   -3.5600   20.3600  -33.0820 C   0  0  0  0  0  0  0  0  0  0  0  0
   -0.3480   20.2030  -34.8180 C   0  0  0  0  0  0  0  0  0  0  0  0
    0.2370   19.2070  -35.5170 N   0  0  0  0  0  0  0  0  0  0  0  0
    0.0479   16.0769  -34.7261 H   0  0  0  0  0  0  0  0  0  0  0  0
   -0.9372   16.3289  -36.2070 H   0  0  0  0  0  0  0  0  0  0  0  0
    0.8087   16.7515  -36.2070 H   0  0  0  0  0  0  0  0  0  0  0  0
   -2.1034   17.7378  -33.7323 H   0  0  0  0  0  0  0  0  0  0  0  0
   -0.5228   21.7241  -32.3477 H   0  0  0  0  0  0  0  0  0  0  0  0
   -4.8780   23.2910  -28.4087 H   0  0  0  0  0  0  0  0  0  0  0  0
   -4.5421   21.5600  -28.7517 H   0  0  0  0  0  0  0  0  0  0  0  0
   -3.1989   22.7527  -28.7517 H   0  0  0  0  0  0  0  0  0  0  0  0
   -6.2461   24.5959  -28.7657 H   0  0  0  0  0  0  0  0  0  0  0  0
   -6.9338   25.7163  -29.9898 H   0  0  0  0  0  0  0  0  0  0  0  0
   -7.4098   23.9842  -29.9898 H   0  0  0  0  0  0  0  0  0  0  0  0
   -6.0983   19.1512  -33.5704 H   0  0  0  0  0  0  0  0  0  0  0  0
   -8.7146   19.5804  -33.0370 H   0  0  0  0  0  0  0  0  0  0  0  0
   -9.0762   21.8615  -30.1775 H   0  0  0  0  0  0  0  0  0  0  0  0
   -9.2041   22.9305  -31.6154 H   0  0  0  0  0  0  0  0  0  0  0  0
  -10.0095   21.3249  -31.6154 H   0  0  0  0  0  0  0  0  0  0  0  0
   -4.0257   19.5906  -33.7154 H   0  0  0  0  0  0  0  0  0  0  0  0
   -0.0419   21.2572  -34.8887 H   0  0  0  0  0  0  0  0  0  0  0  0
  1  2  1  0
  2  3  2  0
  3  4  1  0
  4  5  1  0
  5  6  2  0
  6  7  1  0
  7  8  2  0
  8  9  1  0
  9 10  1  0
  9 11  1  0
 11 12  1  0
 11 13  2  0
 11 14  2  0
  8 15  1  0
 15 16  1  0
 16 17  2  0
 17 18  1  0
 18 19  2  0
 19 20  1  0
 19 21  1  0
 15 22  2  0
  4 23  1  0
 23 24  2  0
 24  2  1  0
 22  5  1  0
 21 16  1  0
  1 25  1  0
  1 26  1  0
  1 27  1  0
  3 28  1  0
  6 29  1  0
 10 30  1  0
 10 31  1  0
 10 32  1  0
 12 33  1  0
 12 34  1  0
 12 35  1  0
 17 36  1  0
 18 37  1  0
 20 38  1  0
 20 39  1  0
 20 40  1  0
 22 41  1  0
 23 42  1  0
M  END
>  <UniqueID>  (40) 
39

>  <SMILES>  (40) 
Cc1cn(-c2cnc(N(C)S(C)(=O)=O)c(-c3ccc(C)o3)c2)cn1

>  <Energy>  (40) 
104.68540704557645

>  <Genealogy>  (40) 
Cc1cn(-c2cnc(N(C)S(C)(=O)=O)c(-c3ccc(C)o3)c2)cn1 (3D coordinates assigned)
Cc1cn(-c2cnc(N(C)S(C)(=O)=O)c(-c3ccc(C)o3)c2)cn1 (optimized conformer: 104.68540704557645 kcal/mol)

>  <smiles>  (40) 
Cc1cn(-c2cnc(N(C)S(C)(=O)=O)c(-c3ccc(C)o3)c2)cn1

>  <score_type>  (40) 
oracle

>  <origin>  (40) 
adgpu

>  <m_score__min__energy>  (40) 
-7.4900000000000002

>  <m_primary>  (40) 
energy

$$$$
40:0
     RDKit          3D

 41 44  0  0  0  0  0  0  0  0999 V2000
   -2.4040   20.3270  -33.8690 C   0  0  0  0  0  0  0  0  0  0  0  0
   -2.9880   20.8200  -32.5720 C   0  0  0  0  0  0  0  0  0  0  0  0
   -2.2750   21.7740  -31.8260 C   0  0  0  0  0  0  0  0  0  0  0  0
   -2.7700   22.2600  -30.6070 C   0  0  0  0  0  0  0  0  0  0  0  0
   -2.0030   23.2730  -29.8450 C   0  0  0  0  0  0  0  0  0  0  0  0
   -0.5110   22.9990  -29.1000 S   0  0  0  0  0  0  0  0  0  0  0  0
   -0.4030   24.5710  -28.5240 C   0  0  0  0  0  0  0  0  0  0  0  0
    0.5590   25.0150  -27.8440 O   0  0  0  0  0  0  0  0  0  0  0  0
   -1.4690   25.3210  -28.8650 N   0  0  0  0  0  0  0  0  0  0  0  0
   -2.3640   24.6030  -29.5950 C   0  0  0  0  0  0  0  0  0  0  0  0
   -3.5620   25.1610  -30.0280 O   0  0  0  0  0  0  0  0  0  0  0  0
   -4.0080   21.7940  -30.1430 C   0  0  0  0  0  0  0  0  0  0  0  0
   -4.7210   20.8380  -30.8660 C   0  0  0  0  0  0  0  0  0  0  0  0
   -4.2160   20.3230  -32.0690 C   0  0  0  0  0  0  0  0  0  0  0  0
   -5.1540   19.0900  -32.9280 S   0  0  0  0  0  0  0  0  0  0  0  0
   -5.0010   19.3000  -34.4080 O   0  0  0  0  0  0  0  0  0  0  0  0
   -4.6720   17.7110  -32.5730 O   0  0  0  0  0  0  0  0  0  0  0  0
   -6.8320   19.2050  -32.5070 N   0  0  0  0  0  0  0  0  0  0  0  0
   -7.7360   18.0670  -32.3760 C   0  0  0  0  0  0  0  0  0  0  0  0
   -9.1300   18.6680  -32.0670 C   0  0  0  0  0  0  0  0  0  0  0  0
   -8.8840   20.1380  -32.0800 C   0  0  0  0  0  0  0  0  0  0  0  0
   -9.8050   21.1700  -31.8910 C   0  0  0  0  0  0  0  0  0  0  0  0
   -9.3490   22.4970  -31.9670 C   0  0  0  0  0  0  0  0  0  0  0  0
   -7.9920   22.7670  -32.2320 C   0  0  0  0  0  0  0  0  0  0  0  0
   -7.0850   21.7120  -32.4200 C   0  0  0  0  0  0  0  0  0  0  0  0
   -7.5660   20.4030  -32.3330 C   0  0  0  0  0  0  0  0  0  0  0  0
   -1.5790   19.6306  -33.6584 H   0  0  0  0  0  0  0  0  0  0  0  0
   -3.1825   19.8088  -34.4482 H   0  0  0  0  0  0  0  0  0  0  0  0
   -2.0238   21.1814  -34.4482 H   0  0  0  0  0  0  0  0  0  0  0  0
   -1.3117   22.1461  -32.2048 H   0  0  0  0  0  0  0  0  0  0  0  0
   -4.2970   25.3860  -29.3680 H   0  0  0  0  0  0  0  0  0  0  0  0
   -4.4203   22.1854  -29.2013 H   0  0  0  0  0  0  0  0  0  0  0  0
   -5.6913   20.4835  -30.4882 H   0  0  0  0  0  0  0  0  0  0  0  0
   -7.7661   17.4920  -33.3132 H   0  0  0  0  0  0  0  0  0  0  0  0
   -7.4075   17.3784  -31.5835 H   0  0  0  0  0  0  0  0  0  0  0  0
   -9.8606   18.3845  -32.8389 H   0  0  0  0  0  0  0  0  0  0  0  0
   -9.5494   18.3115  -31.1146 H   0  0  0  0  0  0  0  0  0  0  0  0
  -10.8632   20.9495  -31.6873 H   0  0  0  0  0  0  0  0  0  0  0  0
  -10.0543   23.3281  -31.8190 H   0  0  0  0  0  0  0  0  0  0  0  0
   -7.6418   23.8081  -32.2918 H   0  0  0  0  0  0  0  0  0  0  0  0
   -6.0237   21.9106  -32.6302 H   0  0  0  0  0  0  0  0  0  0  0  0
  1  2  1  0
  2  3  2  0
  3  4  1  0
  4  5  1  0
  5  6  1  0
  6  7  1  0
  7  8  2  0
  7  9  1  0
  9 10  1  0
 10 11  1  0
  4 12  2  0
 12 13  1  0
 13 14  2  0
 14 15  1  0
 15 16  2  0
 15 17  2  0
 15 18  1  0
 18 19  1  0
 19 20  1  0
 20 21  1  0
 21 22  2  0
 22 23  1  0
 23 24  2  0
 24 25  1  0
 25 26  2  0
 14  2  1  0
 26 18  1  0
 10  5  2  0
 26 21  1  0
  1 27  1  0
  1 28  1  0
  1 29  1  0
  3 30  1  0
 11 31  1  0
 12 32  1  0
 13 33  1  0
 19 34  1  0
 19 35  1  0
 20 36  1  0
 20 37  1  0
 22 38  1  0
 23 39  1  0
 24 40  1  0
 25 41  1  0
M  CHG  1   9  -1
M  END
>  <UniqueID>  (41) 
40

>  <SMILES>  (41) 
Cc1cc(-c2sc(=O)[n-]c2O)ccc1S(=O)(=O)N1CCc2ccccc21

>  <Energy>  (41) 
95.9864684350844

>  <Genealogy>  (41) 
Cc1cc(-c2sc(=O)[n-]c2O)ccc1S(=O)(=O)N1CCc2ccccc21 (protonated)
Cc1cc(-c2sc(=O)[n-]c2O)ccc1S(=O)(=O)N1CCc2ccccc21 (3D coordinates assigned)
Cc1cc(-c2sc(=O)[n-]c2O)ccc1S(=O)(=O)N1CCc2ccccc21 (nonaromatic ring conformer: 95.9864684350844 kcal/mol)

>  <smiles>  (41) 
Cc1cc(-c2sc(=O)[nH]c2O)ccc1S(=O)(=O)N1CCc2ccccc21

>  <score_type>  (41) 
oracle

>  <origin>  (41) 
adgpu

>  <m_score__min__energy>  (41) 
-11.56

>  <m_primary>  (41) 
energy

$$$$
41:0
     RDKit          3D

 41 43  0  0  0  0  0  0  0  0999 V2000
   -8.5630   21.7320  -30.0500 H   0  0  0  0  0  0  0  0  0  0  0  0
   -7.7330   21.8820  -29.4890 O   0  0  0  0  0  0  0  0  0  0  0  0
   -6.7510   22.8000  -29.8620 C   0  0  0  0  0  0  0  0  0  0  0  0
   -5.5050   22.7890  -29.2180 C   0  0  0  0  0  0  0  0  0  0  0  0
   -5.2913   22.0290  -28.4520 H   0  0  0  0  0  0  0  0  0  0  0  0
   -4.5340   23.7390  -29.5450 C   0  0  0  0  0  0  0  0  0  0  0  0
   -3.5575   23.7231  -29.0389 H   0  0  0  0  0  0  0  0  0  0  0  0
   -4.8020   24.7090  -30.5140 C   0  0  0  0  0  0  0  0  0  0  0  0
   -3.8410   25.6610  -30.8260 O   0  0  0  0  0  0  0  0  0  0  0  0
   -6.0380   24.7210  -31.1680 C   0  0  0  0  0  0  0  0  0  0  0  0
   -6.2503   25.4948  -31.9205 H   0  0  0  0  0  0  0  0  0  0  0  0
   -7.0090   23.7530  -30.8710 C   0  0  0  0  0  0  0  0  0  0  0  0
   -8.2980   23.7880  -31.5980 C   0  0  0  0  0  0  0  0  0  0  0  0
   -8.8485   24.7398  -31.6304 H   0  0  0  0  0  0  0  0  0  0  0  0
   -8.8190   22.7570  -32.2020 N   0  0  0  0  0  0  0  0  0  0  0  0
   -8.2050   21.4720  -32.3880 C   0  0  0  0  0  0  0  0  0  0  0  0
   -8.9650   20.3150  -32.1800 C   0  0  0  0  0  0  0  0  0  0  0  0
  -10.0299   20.3994  -31.9177 H   0  0  0  0  0  0  0  0  0  0  0  0
   -8.3770   19.0530  -32.3040 C   0  0  0  0  0  0  0  0  0  0  0  0
   -8.9751   18.1483  -32.1202 H   0  0  0  0  0  0  0  0  0  0  0  0
   -7.0270   18.9380  -32.6620 C   0  0  0  0  0  0  0  0  0  0  0  0
   -6.2680   17.3500  -32.7020 S   0  0  0  0  0  0  0  0  0  0  0  0
   -5.7780   17.0130  -31.3220 O   0  0  0  0  0  0  0  0  0  0  0  0
   -7.2510   16.3000  -33.1400 O   0  0  0  0  0  0  0  0  0  0  0  0
   -4.9240   17.3600  -33.8000 N   0  0  0  0  0  0  0  0  0  0  0  0
   -3.8630   18.0940  -33.6560 C   0  0  0  0  0  0  0  0  0  0  0  0
   -2.8430   18.0650  -34.5400 N   0  0  0  0  0  0  0  0  0  0  0  0
   -1.8420   18.8810  -34.2110 N   0  0  0  0  0  0  0  0  0  0  0  0
   -2.0600   19.5640  -33.0640 C   0  0  0  0  0  0  0  0  0  0  0  0
   -1.0770   20.5240  -32.4740 C   0  0  0  0  0  0  0  0  0  0  0  0
   -0.5325   21.0257  -33.2875 H   0  0  0  0  0  0  0  0  0  0  0  0
   -0.3825   19.9620  -31.8323 H   0  0  0  0  0  0  0  0  0  0  0  0
   -1.7790   21.5760  -31.6220 C   0  0  0  0  0  0  0  0  0  0  0  0
   -1.6262   21.3470  -30.5570 H   0  0  0  0  0  0  0  0  0  0  0  0
   -1.3615   22.5685  -31.8472 H   0  0  0  0  0  0  0  0  0  0  0  0
   -2.8557   21.5714  -31.8472 H   0  0  0  0  0  0  0  0  0  0  0  0
   -3.5560   19.1700  -32.3900 S   0  0  0  0  0  0  0  0  0  0  0  0
   -6.2800   20.0920  -32.9330 C   0  0  0  0  0  0  0  0  0  0  0  0
   -5.2291   20.0050  -33.2462 H   0  0  0  0  0  0  0  0  0  0  0  0
   -6.8680   21.3530  -32.8060 C   0  0  0  0  0  0  0  0  0  0  0  0
   -6.2827   22.2560  -33.0339 H   0  0  0  0  0  0  0  0  0  0  0  0
  1  2  1  0
  2  3  1  0
  3  4  2  0
  4  5  1  0
  4  6  1  0
  6  7  1  0
  6  8  2  0
  8  9  1  0
  8 10  1  0
 10 11  1  0
 10 12  2  0
 12 13  1  0
 13 14  1  0
 13 15  2  3
 15 16  1  0
 16 17  2  0
 17 18  1  0
 17 19  1  0
 19 20  1  0
 19 21  2  0
 21 22  1  0
 22 23  2  0
 22 24  2  0
 22 25  1  0
 25 26  2  0
 26 27  1  0
 27 28  1  0
 28 29  2  0
 29 30  1  0
 30 31  1  0
 30 32  1  0
 30 33  1  0
 33 34  1  0
 33 35  1  0
 33 36  1  0
 29 37  1  0
 21 38  1  0
 38 39  1  0
 38 40  2  0
 40 41  1  0
 12  3  1  0
 40 16  1  0
 37 26  1  0
M  CHG  2   9  -1  27  -1
M  END
>  <UniqueID>  (42) 
41

>  <SMILES>  (42) 
CCc1n[n-]/c(=N/S(=O)(=O)c2ccc(N=Cc3cc([O-])ccc3O)cc2)s1

>  <Energy>  (42) 
87.2214584461682

>  <Genealogy>  (42) 
CCc1n[n-]c(=NS(=O)(=O)c2ccc(N=Cc3cc([O-])ccc3O)cc2)s1 (protonated)
CCc1n[n-]/c(=N/S(=O)(=O)c2ccc(N=Cc3cc([O-])ccc3O)cc2)s1 (cis-trans isomerization)
CCc1n[n-]/c(=N/S(=O)(=O)c2ccc(N=Cc3cc([O-])ccc3O)cc2)s1 (3D coordinates assigned)
CCc1n[n-]/c(=N/S(=O)(=O)c2ccc(N=Cc3cc([O-])ccc3O)cc2)s1 (optimized conformer: 87.2214584461682 kcal/mol)

>  <smiles>  (42) 
CCc1n[nH]c(=NS(=O)(=O)c2ccc(N=Cc3cc(O)ccc3O)cc2)s1

>  <score_type>  (42) 
oracle

>  <origin>  (42) 
adgpu

>  <m_score__min__energy>  (42) 
-11.609999999999999

>  <m_primary>  (42) 
energy

$$$$
42:0
     RDKit          3D

 48 50  0  0  0  0  0  0  0  0999 V2000
   -0.3150   25.4970  -36.6400 C   0  0  0  0  0  0  0  0  0  0  0  0
    0.6860   24.4000  -36.5010 C   0  0  0  0  0  0  0  0  0  0  0  0
    0.4310   23.1190  -36.0640 C   0  0  0  0  0  0  0  0  0  0  0  0
    1.6810   22.5270  -36.1080 C   0  0  0  0  0  0  0  0  0  0  0  0
    1.9740   21.3050  -35.7870 N   0  0  0  0  0  0  0  0  0  0  0  0
    0.8200   20.1390  -35.2220 S   0  0  0  0  0  0  0  0  0  0  0  0
    1.3410   18.7480  -35.4560 O   0  0  0  0  0  0  0  0  0  0  0  0
   -0.4830   20.3080  -35.9560 O   0  0  0  0  0  0  0  0  0  0  0  0
    0.5540   20.3880  -33.5010 C   0  0  0  0  0  0  0  0  0  0  0  0
    1.2680   19.6310  -32.5630 C   0  0  0  0  0  0  0  0  0  0  0  0
    1.0530   19.8200  -31.1950 C   0  0  0  0  0  0  0  0  0  0  0  0
    0.1070   20.7520  -30.7460 C   0  0  0  0  0  0  0  0  0  0  0  0
   -0.0710   20.9520  -29.3340 N   0  0  0  0  0  0  0  0  0  0  0  0
   -0.5250   19.9300  -28.4350 C   0  0  0  0  0  0  0  0  0  0  0  0
   -0.3040   18.7140  -28.6840 O   0  0  0  0  0  0  0  0  0  0  0  0
   -1.2610   20.3100  -27.1880 C   0  0  0  0  0  0  0  0  0  0  0  0
   -1.8690   21.6330  -27.3460 N   0  0  0  0  0  0  0  0  0  0  0  0
   -2.5260   22.0600  -28.5570 C   0  0  0  0  0  0  0  0  0  0  0  0
   -3.4420   21.2070  -29.2020 C   0  0  0  0  0  0  0  0  0  0  0  0
   -4.0870   21.6080  -30.3730 C   0  0  0  0  0  0  0  0  0  0  0  0
   -3.8330   22.8660  -30.9140 C   0  0  0  0  0  0  0  0  0  0  0  0
   -2.9280   23.7260  -30.2910 C   0  0  0  0  0  0  0  0  0  0  0  0
   -2.2640   23.3350  -29.1160 C   0  0  0  0  0  0  0  0  0  0  0  0
   -1.0790   24.4370  -28.3990 S   0  0  0  0  0  0  0  0  0  0  0  0
   -1.3720   26.0470  -28.9550 N   0  0  0  0  0  0  0  0  0  0  0  0
    0.3160   24.0320  -28.7900 O   0  0  0  0  0  0  0  0  0  0  0  0
   -1.1870   24.3900  -26.9010 O   0  0  0  0  0  0  0  0  0  0  0  0
   -0.6000   21.5200  -31.6890 C   0  0  0  0  0  0  0  0  0  0  0  0
   -0.3820   21.3320  -33.0570 C   0  0  0  0  0  0  0  0  0  0  0  0
    2.6010   23.4080  -36.5410 N   0  0  0  0  0  0  0  0  0  0  0  0
    1.9670   24.5220  -36.7660 O   0  0  0  0  0  0  0  0  0  0  0  0
   -0.6262   25.8381  -35.6416 H   0  0  0  0  0  0  0  0  0  0  0  0
    0.1349   26.3364  -37.1905 H   0  0  0  0  0  0  0  0  0  0  0  0
   -1.1920   25.1256  -37.1905 H   0  0  0  0  0  0  0  0  0  0  0  0
   -0.5280   22.6765  -35.7564 H   0  0  0  0  0  0  0  0  0  0  0  0
    2.0007   18.8850  -32.9045 H   0  0  0  0  0  0  0  0  0  0  0  0
    1.6303   19.2332  -30.4654 H   0  0  0  0  0  0  0  0  0  0  0  0
    0.1260   21.8980  -28.9370 H   0  0  0  0  0  0  0  0  0  0  0  0
   -2.0492   19.5686  -26.9905 H   0  0  0  0  0  0  0  0  0  0  0  0
   -0.5533   20.3371  -26.3463 H   0  0  0  0  0  0  0  0  0  0  0  0
   -1.7290   22.3130  -26.5670 H   0  0  0  0  0  0  0  0  0  0  0  0
   -3.6515   20.2137  -28.7784 H   0  0  0  0  0  0  0  0  0  0  0  0
   -4.7967   20.9297  -30.8692 H   0  0  0  0  0  0  0  0  0  0  0  0
   -4.3467   23.1821  -31.8339 H   0  0  0  0  0  0  0  0  0  0  0  0
   -2.7327   24.7184  -30.7233 H   0  0  0  0  0  0  0  0  0  0  0  0
   -1.2410   26.0390  -29.9910 H   0  0  0  0  0  0  0  0  0  0  0  0
   -1.3274   22.2716  -31.3485 H   0  0  0  0  0  0  0  0  0  0  0  0
   -0.9478   21.9278  -33.7884 H   0  0  0  0  0  0  0  0  0  0  0  0
  1  2  1  0
  2  3  2  0
  3  4  1  0
  4  5  2  3
  5  6  1  0
  6  7  2  0
  6  8  2  0
  6  9  1  0
  9 10  2  0
 10 11  1  0
 11 12  2  0
 12 13  1  0
 13 14  1  0
 14 15  2  0
 14 16  1  0
 16 17  1  0
 17 18  1  0
 18 19  2  0
 19 20  1  0
 20 21  2  0
 21 22  1  0
 22 23  2  0
 23 24  1  0
 24 25  1  0
 24 26  2  0
 24 27  2  0
 12 28  1  0
 28 29  2  0
  4 30  1  0
 30 31  1  0
 31  2  1  0
 29  9  1  0
 23 18  1  0
  1 32  1  0
  1 33  1  0
  1 34  1  0
  3 35  1  0
 10 36  1  0
 11 37  1  0
 13 38  1  0
 16 39  1  0
 16 40  1  0
 17 41  1  0
 19 42  1  0
 20 43  1  0
 21 44  1  0
 22 45  1  0
 25 46  1  0
 28 47  1  0
 29 48  1  0
M  CHG  2  25  -1  30  -1
M  END
>  <UniqueID>  (43) 
42

>  <SMILES>  (43) 
Cc1cc(=NS(=O)(=O)c2ccc(NC(=O)CNc3ccccc3S([NH-])(=O)=O)cc2)[n-]o1

>  <Energy>  (43) 
87.5283340935257

>  <Genealogy>  (43) 
Cc1cc(=NS(=O)(=O)c2ccc(NC(=O)CNc3ccccc3S([NH-])(=O)=O)cc2)[n-]o1 (protonated)
Cc1cc(=NS(=O)(=O)c2ccc(NC(=O)CNc3ccccc3S([NH-])(=O)=O)cc2)[n-]o1 (3D coordinates assigned)
Cc1cc(=NS(=O)(=O)c2ccc(NC(=O)CNc3ccccc3S([NH-])(=O)=O)cc2)[n-]o1 (optimized conformer: 87.5283340935257 kcal/mol)

>  <smiles>  (43) 
Cc1cc(=NS(=O)(=O)c2ccc(NC(=O)CNc3ccccc3S(N)(=O)=O)cc2)[nH]o1

>  <score_type>  (43) 
oracle

>  <origin>  (43) 
adgpu

>  <m_score__min__energy>  (43) 
-11.76

>  <m_primary>  (43) 
energy

$$$$
43:0
     RDKit          3D

 30 31  0  0  0  0  0  0  0  0999 V2000
   -4.6420   18.9170  -34.1910 C   0  0  0  0  0  0  0  0  0  0  0  0
   -5.9360   18.7960  -33.4400 C   0  0  0  0  0  0  0  0  0  0  0  0
   -6.3830   17.5490  -32.9900 C   0  0  0  0  0  0  0  0  0  0  0  0
   -7.6000   17.4490  -32.3180 C   0  0  0  0  0  0  0  0  0  0  0  0
   -8.3710   18.5950  -32.1180 C   0  0  0  0  0  0  0  0  0  0  0  0
   -7.9470   19.8080  -32.5870 N   0  0  0  0  0  0  0  0  0  0  0  0
   -8.7550   21.0070  -32.3450 C   0  0  0  0  0  0  0  0  0  0  0  0
   -7.9320   22.0410  -31.7150 N   0  0  0  0  0  0  0  0  0  0  0  0
   -7.8400   22.1150  -30.3560 C   0  0  0  0  0  0  0  0  0  0  0  0
   -7.0230   23.0790  -29.7690 C   0  0  0  0  0  0  0  0  0  0  0  0
   -6.3120   23.9700  -30.5810 C   0  0  0  0  0  0  0  0  0  0  0  0
   -5.3800   24.9890  -29.9770 C   0  0  0  0  0  0  0  0  0  0  0  0
   -6.0840   26.1460  -29.7060 F   0  0  0  0  0  0  0  0  0  0  0  0
   -4.8280   24.5100  -28.8020 F   0  0  0  0  0  0  0  0  0  0  0  0
   -4.3480   25.2830  -30.8520 F   0  0  0  0  0  0  0  0  0  0  0  0
   -6.4140   23.8250  -31.9700 C   0  0  0  0  0  0  0  0  0  0  0  0
   -7.2230   22.8660  -32.4910 N   0  0  0  0  0  0  0  0  0  0  0  0
   -6.7480   19.9210  -33.2360 C   0  0  0  0  0  0  0  0  0  0  0  0
   -3.8093   18.9949  -33.4765 H   0  0  0  0  0  0  0  0  0  0  0  0
   -4.5006   18.0282  -34.8234 H   0  0  0  0  0  0  0  0  0  0  0  0
   -4.6678   19.8166  -34.8234 H   0  0  0  0  0  0  0  0  0  0  0  0
   -5.7752   16.6493  -33.1662 H   0  0  0  0  0  0  0  0  0  0  0  0
   -7.9502   16.4741  -31.9480 H   0  0  0  0  0  0  0  0  0  0  0  0
   -9.3271   18.5222  -31.5790 H   0  0  0  0  0  0  0  0  0  0  0  0
   -9.1452   21.3837  -33.3020 H   0  0  0  0  0  0  0  0  0  0  0  0
   -9.5918   20.7524  -31.6779 H   0  0  0  0  0  0  0  0  0  0  0  0
   -8.4090   21.4159  -29.7256 H   0  0  0  0  0  0  0  0  0  0  0  0
   -6.9373   23.1394  -28.6740 H   0  0  0  0  0  0  0  0  0  0  0  0
   -5.8409   24.4855  -32.6372 H   0  0  0  0  0  0  0  0  0  0  0  0
   -6.4175   20.9044  -33.6016 H   0  0  0  0  0  0  0  0  0  0  0  0
  1  2  1  0
  2  3  2  0
  3  4  1  0
  4  5  2  0
  5  6  1  0
  6  7  1  0
  7  8  1  0
  8  9  2  0
  9 10  1  0
 10 11  2  0
 11 12  1  0
 12 13  1  0
 12 14  1  0
 12 15  1  0
 11 16  1  0
 16 17  2  0
  6 18  2  0
 18  2  1  0
 17  8  1  0
  1 19  1  0
  1 20  1  0
  1 21  1  0
  3 22  1  0
  4 23  1  0
  5 24  1  0
  7 25  1  0
  7 26  1  0
  9 27  1  0
 10 28  1  0
 16 29  1  0
 18 30  1  0
M  CHG  2   6   1   8   1
M  END
>  <UniqueID>  (44) 
43

>  <SMILES>  (44) 
Cc1ccc[n+](C[n+]2ccc(C(F)(F)F)cn2)c1

>  <Energy>  (44) 
30.049131164565527

>  <Genealogy>  (44) 
Cc1ccc[n+](C[n+]2ccc(C(F)(F)F)cn2)c1 (3D coordinates assigned)
Cc1ccc[n+](C[n+]2ccc(C(F)(F)F)cn2)c1 (optimized conformer: 30.049131164565527 kcal/mol)

>  <smiles>  (44) 
Cc1ccc[n+](C[n+]2ccc(C(F)(F)F)cn2)c1

>  <score_type>  (44) 
oracle

>  <origin>  (44) 
adgpu

>  <m_score__min__energy>  (44) 
-5.3399999999999999

>  <m_primary>  (44) 
energy

$$$$
44:0
     RDKit          3D

 59 62  0  0  0  0  0  0  0  0999 V2000
   -0.9070   20.5020  -34.8780 C   0  0  0  0  0  0  0  0  0  0  0  0
   -1.5750   19.7680  -33.8030 N   0  0  0  0  0  0  0  0  0  0  0  0
   -2.0320   18.4160  -34.0180 C   0  0  0  0  0  0  0  0  0  0  0  0
   -3.2960   18.1670  -34.5830 C   0  0  0  0  0  0  0  0  0  0  0  0
   -3.7340   16.8570  -34.7990 C   0  0  0  0  0  0  0  0  0  0  0  0
   -2.9180   15.7740  -34.4470 C   0  0  0  0  0  0  0  0  0  0  0  0
   -3.4620   14.1180  -34.7020 S   0  0  0  0  0  0  0  0  0  0  0  0
   -3.8770   13.9630  -36.1400 O   0  0  0  0  0  0  0  0  0  0  0  0
   -2.3400   13.1590  -34.4070 O   0  0  0  0  0  0  0  0  0  0  0  0
   -4.8150   13.7760  -33.6490 N   0  0  0  0  0  0  0  0  0  0  0  0
   -4.6890   14.4990  -32.3620 C   0  0  0  0  0  0  0  0  0  0  0  0
   -4.2600   13.5680  -31.2120 C   0  0  0  0  0  0  0  0  0  0  0  0
   -5.1530   12.4820  -31.0060 O   0  0  0  0  0  0  0  0  0  0  0  0
   -5.7570   11.9980  -32.2010 C   0  0  0  0  0  0  0  0  0  0  0  0
   -4.9620   12.3170  -33.4800 C   0  0  0  0  0  0  0  0  0  0  0  0
   -1.6720   16.0130  -33.8570 C   0  0  0  0  0  0  0  0  0  0  0  0
   -1.2330   17.3210  -33.6430 C   0  0  0  0  0  0  0  0  0  0  0  0
   -1.7970   20.5440  -32.2590 S   0  0  0  0  0  0  0  0  0  0  0  0
   -0.7070   21.5570  -32.0410 O   0  0  0  0  0  0  0  0  0  0  0  0
   -1.6990   19.5170  -31.1630 O   0  0  0  0  0  0  0  0  0  0  0  0
   -3.3640   21.3470  -32.1990 C   0  0  0  0  0  0  0  0  0  0  0  0
   -4.4990   20.7400  -32.7540 C   0  0  0  0  0  0  0  0  0  0  0  0
   -5.7370   21.3830  -32.6980 C   0  0  0  0  0  0  0  0  0  0  0  0
   -5.8500   22.6370  -32.0920 C   0  0  0  0  0  0  0  0  0  0  0  0
   -4.7190   23.2660  -31.5410 C   0  0  0  0  0  0  0  0  0  0  0  0
   -4.8520   24.5940  -30.8920 C   0  0  0  0  0  0  0  0  0  0  0  0
   -5.9630   25.1870  -30.9170 O   0  0  0  0  0  0  0  0  0  0  0  0
   -3.7630   25.2160  -30.1940 N   0  0  0  0  0  0  0  0  0  0  0  0
   -2.9620   24.6230  -29.1600 C   0  0  0  0  0  0  0  0  0  0  0  0
   -3.4630   23.4980  -28.4890 C   0  0  0  0  0  0  0  0  0  0  0  0
   -2.7280   22.9000  -27.4620 C   0  0  0  0  0  0  0  0  0  0  0  0
   -1.4900   23.4270  -27.0900 C   0  0  0  0  0  0  0  0  0  0  0  0
   -0.9900   24.5600  -27.7360 C   0  0  0  0  0  0  0  0  0  0  0  0
   -1.7250   25.1720  -28.7580 C   0  0  0  0  0  0  0  0  0  0  0  0
   -1.2320   26.3350  -29.3410 O   0  0  0  0  0  0  0  0  0  0  0  0
   -3.4790   22.6030  -31.5880 C   0  0  0  0  0  0  0  0  0  0  0  0
   -0.2267   21.2495  -34.4439 H   0  0  0  0  0  0  0  0  0  0  0  0
   -0.3318   19.7997  -35.4992 H   0  0  0  0  0  0  0  0  0  0  0  0
   -1.6603   21.0087  -35.4992 H   0  0  0  0  0  0  0  0  0  0  0  0
   -3.9459   19.0110  -34.8574 H   0  0  0  0  0  0  0  0  0  0  0  0
   -4.7223   16.6761  -35.2467 H   0  0  0  0  0  0  0  0  0  0  0  0
   -3.9367   15.2936  -32.4741 H   0  0  0  0  0  0  0  0  0  0  0  0
   -5.6756   14.9150  -32.1100 H   0  0  0  0  0  0  0  0  0  0  0  0
   -3.2643   13.1622  -31.4441 H   0  0  0  0  0  0  0  0  0  0  0  0
   -4.2581   14.1680  -30.2901 H   0  0  0  0  0  0  0  0  0  0  0  0
   -5.8570   10.9056  -32.1197 H   0  0  0  0  0  0  0  0  0  0  0  0
   -6.7275   12.5073  -32.2951 H   0  0  0  0  0  0  0  0  0  0  0  0
   -3.9645   11.8588  -33.4095 H   0  0  0  0  0  0  0  0  0  0  0  0
   -5.5059   11.9123  -34.3463 H   0  0  0  0  0  0  0  0  0  0  0  0
   -1.0353   15.1664  -33.5604 H   0  0  0  0  0  0  0  0  0  0  0  0
   -0.2525   17.4968  -33.1765 H   0  0  0  0  0  0  0  0  0  0  0  0
   -4.4141   19.7544  -33.2350 H   0  0  0  0  0  0  0  0  0  0  0  0
   -6.6256   20.9013  -33.1320 H   0  0  0  0  0  0  0  0  0  0  0  0
   -6.8295   23.1354  -32.0456 H   0  0  0  0  0  0  0  0  0  0  0  0
   -4.4415   23.0834  -28.7732 H   0  0  0  0  0  0  0  0  0  0  0  0
   -3.1252   22.0133  -26.9463 H   0  0  0  0  0  0  0  0  0  0  0  0
   -0.9080   22.9498  -26.2878 H   0  0  0  0  0  0  0  0  0  0  0  0
   -0.0144   24.9731  -27.4403 H   0  0  0  0  0  0  0  0  0  0  0  0
   -2.5915   23.0748  -31.1410 H   0  0  0  0  0  0  0  0  0  0  0  0
  1  2  1  0
  2  3  1  0
  3  4  2  0
  4  5  1  0
  5  6  2  0
  6  7  1  0
  7  8  2  0
  7  9  2  0
  7 10  1  0
 10 11  1  0
 11 12  1  0
 12 13  1  0
 13 14  1  0
 14 15  1  0
  6 16  1  0
 16 17  2  0
  2 18  1  0
 18 19  2  0
 18 20  2  0
 18 21  1  0
 21 22  2  0
 22 23  1  0
 23 24  2  0
 24 25  1  0
 25 26  1  0
 26 27  2  0
 26 28  1  0
 28 29  1  0
 29 30  2  0
 30 31  1  0
 31 32  2  0
 32 33  1  0
 33 34  2  0
 34 35  1  0
 25 36  2  0
 17  3  1  0
 36 21  1  0
 15 10  1  0
 34 29  1  0
  1 37  1  0
  1 38  1  0
  1 39  1  0
  4 40  1  0
  5 41  1  0
 11 42  1  0
 11 43  1  0
 12 44  1  0
 12 45  1  0
 14 46  1  0
 14 47  1  0
 15 48  1  0
 15 49  1  0
 16 50  1  0
 17 51  1  0
 22 52  1  0
 23 53  1  0
 24 54  1  0
 30 55  1  0
 31 56  1  0
 32 57  1  0
 33 58  1  0
 36 59  1  0
M  CHG  2  28  -1  35  -1
M  END
>  <UniqueID>  (45) 
44

>  <SMILES>  (45) 
CN(c1ccc(S(=O)(=O)N2CCOCC2)cc1)S(=O)(=O)c1cccc(C(=O)[N-]c2ccccc2[O-])c1

>  <Energy>  (45) 
85.41946419237338

>  <Genealogy>  (45) 
CN(c1ccc(S(=O)(=O)N2CCOCC2)cc1)S(=O)(=O)c1cccc(C(=O)[N-]c2ccccc2[O-])c1 (protonated)
CN(c1ccc(S(=O)(=O)N2CCOCC2)cc1)S(=O)(=O)c1cccc(C(=O)[N-]c2ccccc2[O-])c1 (3D coordinates assigned)
CN(c1ccc(S(=O)(=O)N2CCOCC2)cc1)S(=O)(=O)c1cccc(C(=O)[N-]c2ccccc2[O-])c1 (nonaromatic ring conformer: 85.41946419237338 kcal/mol)

>  <smiles>  (45) 
CN(c1ccc(S(=O)(=O)N2CCOCC2)cc1)S(=O)(=O)c1cccc(C(=O)Nc2ccccc2O)c1

>  <score_type>  (45) 
oracle

>  <origin>  (45) 
adgpu

>  <m_score__min__energy>  (45) 
-14.18

>  <m_primary>  (45) 
energy

$$$$
45:0
     RDKit          3D

 57 62  0  0  0  0  0  0  0  0999 V2000
    4.3150   21.9290  -35.0620 O   0  0  0  0  0  0  0  0  0  0  0  0
    3.3080   21.9780  -36.1770 S   0  0  0  0  0  0  0  0  0  0  0  0
    4.0430   21.9490  -37.4890 O   0  0  0  0  0  0  0  0  0  0  0  0
    2.2510   20.6060  -36.0490 N   0  0  0  0  0  0  0  0  0  0  0  0
    2.1330   20.1540  -34.6630 C   0  0  0  0  0  0  0  0  0  0  0  0
    0.7640   20.4670  -34.1280 C   0  0  0  0  0  0  0  0  0  0  0  0
    0.6010   20.8060  -32.7750 C   0  0  0  0  0  0  0  0  0  0  0  0
   -0.6720   21.0780  -32.2620 C   0  0  0  0  0  0  0  0  0  0  0  0
   -1.8000   21.0020  -33.0930 C   0  0  0  0  0  0  0  0  0  0  0  0
   -3.1390   21.3030  -32.5450 C   0  0  0  0  0  0  0  0  0  0  0  0
   -3.4140   22.4520  -31.9000 N   0  0  0  0  0  0  0  0  0  0  0  0
   -4.7130   22.4550  -31.6510 N   0  0  0  0  0  0  0  0  0  0  0  0
   -5.2210   21.3100  -32.1500 C   0  0  0  0  0  0  0  0  0  0  0  0
   -4.2550   20.5480  -32.7080 N   0  0  0  0  0  0  0  0  0  0  0  0
   -4.3640   19.1890  -33.1730 C   0  0  0  0  0  0  0  0  0  0  0  0
   -3.3600   18.2500  -32.8800 C   0  0  0  0  0  0  0  0  0  0  0  0
   -3.4280   16.9610  -33.4050 C   0  0  0  0  0  0  0  0  0  0  0  0
   -4.5070   16.6120  -34.2120 C   0  0  0  0  0  0  0  0  0  0  0  0
   -5.4930   17.5150  -34.4560 N   0  0  0  0  0  0  0  0  0  0  0  0
   -5.4640   18.7760  -33.9440 C   0  0  0  0  0  0  0  0  0  0  0  0
   -6.5630   19.6520  -34.1980 N   0  0  0  0  0  0  0  0  0  0  0  0
   -7.2980   20.2380  -33.1130 C   0  0  0  0  0  0  0  0  0  0  0  0
   -8.6920   20.0790  -33.0810 C   0  0  0  0  0  0  0  0  0  0  0  0
   -9.4490   20.6270  -32.0460 C   0  0  0  0  0  0  0  0  0  0  0  0
   -8.8240   21.3480  -31.0340 C   0  0  0  0  0  0  0  0  0  0  0  0
   -7.4420   21.5350  -31.0620 C   0  0  0  0  0  0  0  0  0  0  0  0
   -6.6630   20.9850  -32.0970 C   0  0  0  0  0  0  0  0  0  0  0  0
   -1.6330   20.6890  -34.4540 C   0  0  0  0  0  0  0  0  0  0  0  0
   -0.3620   20.4180  -34.9660 C   0  0  0  0  0  0  0  0  0  0  0  0
    2.3680   23.4590  -36.0300 C   0  0  0  0  0  0  0  0  0  0  0  0
    0.9750   23.4110  -36.1700 C   0  0  0  0  0  0  0  0  0  0  0  0
    0.2150   24.5820  -36.0860 C   0  0  0  0  0  0  0  0  0  0  0  0
    0.8390   25.8240  -35.8750 C   0  0  0  0  0  0  0  0  0  0  0  0
    0.0020   27.0740  -35.7430 C   0  0  0  0  0  0  0  0  0  0  0  0
   -1.0570   27.0060  -36.6300 F   0  0  0  0  0  0  0  0  0  0  0  0
    0.7640   28.1920  -36.0320 F   0  0  0  0  0  0  0  0  0  0  0  0
   -0.4970   27.2080  -34.4580 F   0  0  0  0  0  0  0  0  0  0  0  0
    2.2370   25.8650  -35.7160 C   0  0  0  0  0  0  0  0  0  0  0  0
    2.9970   24.6920  -35.8020 C   0  0  0  0  0  0  0  0  0  0  0  0
    2.2999   19.0676  -34.6200 H   0  0  0  0  0  0  0  0  0  0  0  0
    2.8843   20.6748  -34.0512 H   0  0  0  0  0  0  0  0  0  0  0  0
    1.4792   20.8580  -32.1147 H   0  0  0  0  0  0  0  0  0  0  0  0
   -0.7889   21.3525  -31.2032 H   0  0  0  0  0  0  0  0  0  0  0  0
   -2.5167   18.5340  -32.2333 H   0  0  0  0  0  0  0  0  0  0  0  0
   -2.6382   16.2279  -33.1842 H   0  0  0  0  0  0  0  0  0  0  0  0
   -4.5617   15.6054  -34.6523 H   0  0  0  0  0  0  0  0  0  0  0  0
   -7.0810   19.4910  -35.0910 H   0  0  0  0  0  0  0  0  0  0  0  0
   -9.1933   19.5155  -33.8817 H   0  0  0  0  0  0  0  0  0  0  0  0
  -10.5402   20.4891  -32.0299 H   0  0  0  0  0  0  0  0  0  0  0  0
   -9.4196   21.7708  -30.2115 H   0  0  0  0  0  0  0  0  0  0  0  0
   -6.9558   22.1187  -30.2665 H   0  0  0  0  0  0  0  0  0  0  0  0
   -2.5085   20.6574  -35.1192 H   0  0  0  0  0  0  0  0  0  0  0  0
   -0.2425   20.1652  -36.0299 H   0  0  0  0  0  0  0  0  0  0  0  0
    0.4761   22.4468  -36.3470 H   0  0  0  0  0  0  0  0  0  0  0  0
   -0.8793   24.5309  -36.1858 H   0  0  0  0  0  0  0  0  0  0  0  0
    2.7363   26.8259  -35.5227 H   0  0  0  0  0  0  0  0  0  0  0  0
    4.0904   24.7375  -35.6904 H   0  0  0  0  0  0  0  0  0  0  0  0
  1  2  2  0
  2  3  2  0
  2  4  1  0
  4  5  1  0
  5  6  1  0
  6  7  2  0
  7  8  1  0
  8  9  2  0
  9 10  1  0
 10 11  2  0
 11 12  1  0
 12 13  2  0
 13 14  1  0
 14 15  1  0
 15 16  2  0
 16 17  1  0
 17 18  2  0
 18 19  1  0
 19 20  2  0
 20 21  1  0
 21 22  1  0
 22 23  2  0
 23 24  1  0
 24 25  2  0
 25 26  1  0
 26 27  2  0
  9 28  1  0
 28 29  2  0
  2 30  1  0
 30 31  2  0
 31 32  1  0
 32 33  2  0
 33 34  1  0
 34 35  1  0
 34 36  1  0
 34 37  1  0
 33 38  1  0
 38 39  2  0
 29  6  1  0
 39 30  1  0
 14 10  1  0
 20 15  1  0
 27 22  1  0
 27 13  1  0
  5 40  1  0
  5 41  1  0
  7 42  1  0
  8 43  1  0
 16 44  1  0
 17 45  1  0
 18 46  1  0
 21 47  1  0
 23 48  1  0
 24 49  1  0
 25 50  1  0
 26 51  1  0
 28 52  1  0
 29 53  1  0
 31 54  1  0
 32 55  1  0
 38 56  1  0
 39 57  1  0
M  CHG  1   4  -1
M  END
>  <UniqueID>  (46) 
45

>  <SMILES>  (46) 
O=S(=O)([N-]Cc1ccc(-c2nnc3n2-c2cccnc2Nc2ccccc2-3)cc1)c1ccc(C(F)(F)F)cc1

>  <Energy>  (46) 
124.07662415092322

>  <Genealogy>  (46) 
O=S(=O)([N-]Cc1ccc(-c2nnc3n2-c2cccnc2Nc2ccccc2-3)cc1)c1ccc(C(F)(F)F)cc1 (protonated)
O=S(=O)([N-]Cc1ccc(-c2nnc3n2-c2cccnc2Nc2ccccc2-3)cc1)c1ccc(C(F)(F)F)cc1 (3D coordinates assigned)
O=S(=O)([N-]Cc1ccc(-c2nnc3n2-c2cccnc2Nc2ccccc2-3)cc1)c1ccc(C(F)(F)F)cc1 (nonaromatic ring conformer: 124.07662415092322 kcal/mol)

>  <smiles>  (46) 
O=S(=O)(NCc1ccc(-c2nnc3n2-c2cccnc2Nc2ccccc2-3)cc1)c1ccc(C(F)(F)F)cc1

>  <score_type>  (46) 
oracle

>  <origin>  (46) 
adgpu

>  <m_score__min__energy>  (46) 
-11.18

>  <m_primary>  (46) 
energy

$$$$
46:0
     RDKit          3D

 54 57  0  0  0  0  0  0  0  0999 V2000
   -8.9080   23.3870  -32.0500 C   0  0  0  0  0  0  0  0  0  0  0  0
   -8.3710   22.0080  -31.8130 C   0  0  0  0  0  0  0  0  0  0  0  0
   -9.0440   20.8380  -32.0980 C   0  0  0  0  0  0  0  0  0  0  0  0
   -8.1450   19.8400  -31.7700 C   0  0  0  0  0  0  0  0  0  0  0  0
   -8.3670   18.3970  -31.9080 C   0  0  0  0  0  0  0  0  0  0  0  0
   -9.5440   17.9440  -31.9230 O   0  0  0  0  0  0  0  0  0  0  0  0
   -7.2480   17.5070  -31.9970 N   0  0  0  0  0  0  0  0  0  0  0  0
   -6.1730   17.6620  -32.9300 C   0  0  0  0  0  0  0  0  0  0  0  0
   -5.2990   18.7440  -32.7680 C   0  0  0  0  0  0  0  0  0  0  0  0
   -4.2090   18.9150  -33.6300 C   0  0  0  0  0  0  0  0  0  0  0  0
   -3.0980   20.2570  -33.3720 S   0  0  0  0  0  0  0  0  0  0  0  0
   -2.6930   20.2740  -31.9230 O   0  0  0  0  0  0  0  0  0  0  0  0
   -3.7760   21.5600  -33.6970 O   0  0  0  0  0  0  0  0  0  0  0  0
   -1.6870   20.0490  -34.3800 N   0  0  0  0  0  0  0  0  0  0  0  0
   -0.8190   21.2330  -34.2770 C   0  0  0  0  0  0  0  0  0  0  0  0
    0.3150   21.1610  -35.3170 C   0  0  0  0  0  0  0  0  0  0  0  0
    0.6170   19.7190  -35.7590 C   0  0  0  0  0  0  0  0  0  0  0  0
    0.4510   18.7420  -34.5920 C   0  0  0  0  0  0  0  0  0  0  0  0
   -0.9630   18.8250  -33.9750 C   0  0  0  0  0  0  0  0  0  0  0  0
   -3.9960   17.9990  -34.6670 C   0  0  0  0  0  0  0  0  0  0  0  0
   -4.8820   16.9360  -34.8570 C   0  0  0  0  0  0  0  0  0  0  0  0
   -5.9840   16.7700  -34.0090 C   0  0  0  0  0  0  0  0  0  0  0  0
   -6.8830   15.7390  -34.2860 O   0  0  0  0  0  0  0  0  0  0  0  0
   -7.0010   20.3830  -31.3080 N   0  0  0  0  0  0  0  0  0  0  0  0
   -7.1460   21.7000  -31.3230 N   0  0  0  0  0  0  0  0  0  0  0  0
   -6.1060   22.6020  -30.9080 C   0  0  0  0  0  0  0  0  0  0  0  0
   -6.4450   23.8240  -30.3050 C   0  0  0  0  0  0  0  0  0  0  0  0
   -5.4450   24.7190  -29.9120 C   0  0  0  0  0  0  0  0  0  0  0  0
   -4.1000   24.4060  -30.1300 C   0  0  0  0  0  0  0  0  0  0  0  0
   -3.1070   25.2970  -29.7390 O   0  0  0  0  0  0  0  0  0  0  0  0
   -3.7550   23.2010  -30.7480 C   0  0  0  0  0  0  0  0  0  0  0  0
   -4.7530   22.3040  -31.1410 C   0  0  0  0  0  0  0  0  0  0  0  0
   -9.0989   23.8772  -31.0839 H   0  0  0  0  0  0  0  0  0  0  0  0
   -8.1727   23.9739  -32.6200 H   0  0  0  0  0  0  0  0  0  0  0  0
   -9.8466   23.3221  -32.6200 H   0  0  0  0  0  0  0  0  0  0  0  0
  -10.0634   20.7248  -32.4955 H   0  0  0  0  0  0  0  0  0  0  0  0
   -5.4703   19.4662  -31.9561 H   0  0  0  0  0  0  0  0  0  0  0  0
   -1.4180   22.1380  -34.4563 H   0  0  0  0  0  0  0  0  0  0  0  0
   -0.3775   21.2646  -33.2700 H   0  0  0  0  0  0  0  0  0  0  0  0
    0.0213   21.7468  -36.2005 H   0  0  0  0  0  0  0  0  0  0  0  0
    1.2247   21.5649  -34.8487 H   0  0  0  0  0  0  0  0  0  0  0  0
   -0.0759   19.4373  -36.5655 H   0  0  0  0  0  0  0  0  0  0  0  0
    1.6579   19.6709  -36.1114 H   0  0  0  0  0  0  0  0  0  0  0  0
    0.6214   17.7184  -34.9569 H   0  0  0  0  0  0  0  0  0  0  0  0
    1.1812   19.0094  -33.8140 H   0  0  0  0  0  0  0  0  0  0  0  0
   -1.5421   17.9485  -34.3011 H   0  0  0  0  0  0  0  0  0  0  0  0
   -0.8492   18.8507  -32.8812 H   0  0  0  0  0  0  0  0  0  0  0  0
   -3.1290   18.1166  -35.3337 H   0  0  0  0  0  0  0  0  0  0  0  0
   -4.7129   16.2243  -35.6785 H   0  0  0  0  0  0  0  0  0  0  0  0
   -7.6740   15.5280  -33.6900 H   0  0  0  0  0  0  0  0  0  0  0  0
   -7.5025   24.0785  -30.1410 H   0  0  0  0  0  0  0  0  0  0  0  0
   -5.7169   25.6701  -29.4309 H   0  0  0  0  0  0  0  0  0  0  0  0
   -2.6970   22.9579  -30.9255 H   0  0  0  0  0  0  0  0  0  0  0  0
   -4.4775   21.3606  -31.6349 H   0  0  0  0  0  0  0  0  0  0  0  0
  1  2  1  0
  2  3  2  0
  3  4  1  0
  4  5  1  0
  5  6  2  0
  5  7  1  0
  7  8  1  0
  8  9  2  0
  9 10  1  0
 10 11  1  0
 11 12  2  0
 11 13  2  0
 11 14  1  0
 14 15  1  0
 15 16  1  0
 16 17  1  0
 17 18  1  0
 18 19  1  0
 10 20  2  0
 20 21  1  0
 21 22  2  0
 22 23  1  0
  4 24  2  0
 24 25  1  0
 25 26  1  0
 26 27  2  0
 27 28  1  0
 28 29  2  0
 29 30  1  0
 29 31  1  0
 31 32  2  0
 25  2  1  0
 32 26  1  0
 22  8  1  0
 19 14  1  0
  1 33  1  0
  1 34  1  0
  1 35  1  0
  3 36  1  0
  9 37  1  0
 15 38  1  0
 15 39  1  0
 16 40  1  0
 16 41  1  0
 17 42  1  0
 17 43  1  0
 18 44  1  0
 18 45  1  0
 19 46  1  0
 19 47  1  0
 20 48  1  0
 21 49  1  0
 23 50  1  0
 27 51  1  0
 28 52  1  0
 31 53  1  0
 32 54  1  0
M  CHG  2   7  -1  30  -1
M  END
>  <UniqueID>  (47) 
46

>  <SMILES>  (47) 
Cc1cc(C(=O)[N-]c2cc(S(=O)(=O)N3CCCCC3)ccc2O)nn1-c1ccc([O-])cc1

>  <Energy>  (47) 
100.02272070929274

>  <Genealogy>  (47) 
Cc1cc(C(=O)[N-]c2cc(S(=O)(=O)N3CCCCC3)ccc2O)nn1-c1ccc([O-])cc1 (protonated)
Cc1cc(C(=O)[N-]c2cc(S(=O)(=O)N3CCCCC3)ccc2O)nn1-c1ccc([O-])cc1 (3D coordinates assigned)
Cc1cc(C(=O)[N-]c2cc(S(=O)(=O)N3CCCCC3)ccc2O)nn1-c1ccc([O-])cc1 (nonaromatic ring conformer: 100.02272070929274 kcal/mol)

>  <smiles>  (47) 
Cc1cc(C(=O)Nc2cc(S(=O)(=O)N3CCCCC3)ccc2O)nn1-c1ccc(O)cc1

>  <score_type>  (47) 
oracle

>  <origin>  (47) 
adgpu

>  <m_score__min__energy>  (47) 
-12.359999999999999

>  <m_primary>  (47) 
energy

$$$$
47:0
     RDKit          3D

 66 69  0  0  0  0  0  0  0  0999 V2000
   -5.5350   25.6820  -30.3640 C   0  0  0  0  0  0  0  0  0  0  0  0
   -5.3670   24.6400  -31.3190 O   0  0  0  0  0  0  0  0  0  0  0  0
   -6.2380   23.5470  -31.4640 C   0  0  0  0  0  0  0  0  0  0  0  0
   -7.5850   23.7090  -31.8410 C   0  0  0  0  0  0  0  0  0  0  0  0
   -8.4200   22.5980  -31.9760 C   0  0  0  0  0  0  0  0  0  0  0  0
   -7.9240   21.3070  -31.7520 C   0  0  0  0  0  0  0  0  0  0  0  0
   -8.8340   20.1200  -31.8620 C   0  0  0  0  0  0  0  0  0  0  0  0
   -6.5890   21.1400  -31.3600 C   0  0  0  0  0  0  0  0  0  0  0  0
   -5.7450   22.2510  -31.2260 C   0  0  0  0  0  0  0  0  0  0  0  0
   -4.3420   22.0500  -30.8170 C   0  0  0  0  0  0  0  0  0  0  0  0
   -3.8740   22.7640  -29.7050 C   0  0  0  0  0  0  0  0  0  0  0  0
   -2.5550   22.6130  -29.2640 C   0  0  0  0  0  0  0  0  0  0  0  0
   -2.0650   23.3620  -28.1350 N   0  0  0  0  0  0  0  0  0  0  0  0
   -0.6240   23.4960  -27.8910 C   0  0  0  0  0  0  0  0  0  0  0  0
   -0.2620   24.9790  -27.7830 C   0  0  0  0  0  0  0  0  0  0  0  0
   -1.1860   25.6980  -26.8890 N   0  0  0  0  0  0  0  0  0  0  0  0
   -0.9110   27.0740  -26.5570 C   0  0  0  0  0  0  0  0  0  0  0  0
   -1.0950   27.5210  -25.2830 N   0  0  0  0  0  0  0  0  0  0  0  0
   -0.8410   28.8120  -24.9470 C   0  0  0  0  0  0  0  0  0  0  0  0
   -0.3860   29.7050  -25.9130 C   0  0  0  0  0  0  0  0  0  0  0  0
   -0.2040   29.2390  -27.2150 C   0  0  0  0  0  0  0  0  0  0  0  0
   -0.4680   27.9400  -27.5110 N   0  0  0  0  0  0  0  0  0  0  0  0
   -2.3010   24.9750  -26.2520 C   0  0  0  0  0  0  0  0  0  0  0  0
   -3.0170   24.0780  -27.2720 C   0  0  0  0  0  0  0  0  0  0  0  0
   -1.7140   21.7400  -29.9620 C   0  0  0  0  0  0  0  0  0  0  0  0
   -2.1780   21.0560  -31.0380 N   0  0  0  0  0  0  0  0  0  0  0  0
   -3.4570   21.1700  -31.4930 C   0  0  0  0  0  0  0  0  0  0  0  0
   -3.8500   20.3700  -32.6880 C   0  0  0  0  0  0  0  0  0  0  0  0
   -3.4670   20.7150  -33.8370 O   0  0  0  0  0  0  0  0  0  0  0  0
   -4.6660   19.1890  -32.5300 N   0  0  0  0  0  0  0  0  0  0  0  0
   -5.0370   18.2650  -33.6210 C   0  0  0  0  0  0  0  0  0  0  0  0
   -3.7760   17.8020  -34.3810 C   0  0  0  0  0  0  0  0  0  0  0  0
   -6.0240   18.9480  -34.5890 C   0  0  0  0  0  0  0  0  0  0  0  0
   -5.7250   17.0230  -33.0170 C   0  0  0  0  0  0  0  0  0  0  0  0
   -5.4675   25.2635  -29.3490 H   0  0  0  0  0  0  0  0  0  0  0  0
   -4.7470   26.4369  -30.5025 H   0  0  0  0  0  0  0  0  0  0  0  0
   -6.5203   26.1509  -30.5025 H   0  0  0  0  0  0  0  0  0  0  0  0
   -7.9820   24.7172  -32.0304 H   0  0  0  0  0  0  0  0  0  0  0  0
   -9.4736   22.7372  -32.2599 H   0  0  0  0  0  0  0  0  0  0  0  0
   -9.1028   19.7694  -30.8546 H   0  0  0  0  0  0  0  0  0  0  0  0
   -9.7461   20.4064  -32.4060 H   0  0  0  0  0  0  0  0  0  0  0  0
   -8.3206   19.3135  -32.4060 H   0  0  0  0  0  0  0  0  0  0  0  0
   -6.2011   20.1310  -31.1562 H   0  0  0  0  0  0  0  0  0  0  0  0
   -4.5506   23.4497  -29.1740 H   0  0  0  0  0  0  0  0  0  0  0  0
   -0.3616   22.9850  -26.9529 H   0  0  0  0  0  0  0  0  0  0  0  0
   -0.0668   23.0417  -28.7235 H   0  0  0  0  0  0  0  0  0  0  0  0
    0.7604   25.0692  -27.3873 H   0  0  0  0  0  0  0  0  0  0  0  0
   -0.3355   25.4255  -28.7856 H   0  0  0  0  0  0  0  0  0  0  0  0
   -0.9947   29.1518  -23.9122 H   0  0  0  0  0  0  0  0  0  0  0  0
   -0.1750   30.7534  -25.6556 H   0  0  0  0  0  0  0  0  0  0  0  0
    0.1525   29.9219  -28.0002 H   0  0  0  0  0  0  0  0  0  0  0  0
   -1.9079   24.3514  -25.4355 H   0  0  0  0  0  0  0  0  0  0  0  0
   -3.0202   25.7084  -25.8586 H   0  0  0  0  0  0  0  0  0  0  0  0
   -3.6294   23.3420  -26.7305 H   0  0  0  0  0  0  0  0  0  0  0  0
   -3.6416   24.7193  -27.9113 H   0  0  0  0  0  0  0  0  0  0  0  0
   -0.6715   21.6074  -29.6370 H   0  0  0  0  0  0  0  0  0  0  0  0
   -5.0170   18.9710  -31.5690 H   0  0  0  0  0  0  0  0  0  0  0  0
   -2.9970   17.5160  -33.6589 H   0  0  0  0  0  0  0  0  0  0  0  0
   -4.0257   16.9369  -35.0129 H   0  0  0  0  0  0  0  0  0  0  0  0
   -3.4066   18.6231  -35.0129 H   0  0  0  0  0  0  0  0  0  0  0  0
   -6.7941   19.4809  -34.0119 H   0  0  0  0  0  0  0  0  0  0  0  0
   -5.4799   19.6637  -35.2228 H   0  0  0  0  0  0  0  0  0  0  0  0
   -6.5021   18.1866  -35.2228 H   0  0  0  0  0  0  0  0  0  0  0  0
   -5.6918   17.0830  -31.9191 H   0  0  0  0  0  0  0  0  0  0  0  0
   -6.7725   16.9855  -33.3506 H   0  0  0  0  0  0  0  0  0  0  0  0
   -5.2012   16.1151  -33.3506 H   0  0  0  0  0  0  0  0  0  0  0  0
  1  2  1  0
  2  3  1  0
  3  4  2  0
  4  5  1  0
  5  6  2  0
  6  7  1  0
  6  8  1  0
  8  9  2  0
  9 10  1  0
 10 11  2  0
 11 12  1  0
 12 13  1  0
 13 14  1  0
 14 15  1  0
 15 16  1  0
 16 17  1  0
 17 18  2  0
 18 19  1  0
 19 20  2  0
 20 21  1  0
 21 22  2  0
 16 23  1  0
 23 24  1  0
 12 25  2  0
 25 26  1  0
 26 27  2  0
 27 28  1  0
 28 29  2  0
 28 30  1  0
 30 31  1  0
 31 32  1  0
 31 33  1  0
 31 34  1  0
  9  3  1  0
 27 10  1  0
 24 13  1  0
 22 17  1  0
  1 35  1  0
  1 36  1  0
  1 37  1  0
  4 38  1  0
  5 39  1  0
  7 40  1  0
  7 41  1  0
  7 42  1  0
  8 43  1  0
 11 44  1  0
 14 45  1  0
 14 46  1  0
 15 47  1  0
 15 48  1  0
 19 49  1  0
 20 50  1  0
 21 51  1  0
 23 52  1  0
 23 53  1  0
 24 54  1  0
 24 55  1  0
 25 56  1  0
 30 57  1  0
 32 58  1  0
 32 59  1  0
 32 60  1  0
 33 61  1  0
 33 62  1  0
 33 63  1  0
 34 64  1  0
 34 65  1  0
 34 66  1  0
M  END
>  <UniqueID>  (48) 
47

>  <SMILES>  (48) 
COc1ccc(C)cc1-c1cc(N2CCN(c3ncccn3)CC2)cnc1C(=O)NC(C)(C)C

>  <Energy>  (48) 
80.42603648182123

>  <Genealogy>  (48) 
COc1ccc(C)cc1-c1cc(N2CCN(c3ncccn3)CC2)cnc1C(=O)NC(C)(C)C (3D coordinates assigned)
COc1ccc(C)cc1-c1cc(N2CCN(c3ncccn3)CC2)cnc1C(=O)NC(C)(C)C (nonaromatic ring conformer: 80.42603648182123 kcal/mol)

>  <smiles>  (48) 
COc1ccc(C)cc1-c1cc(N2CCN(c3ncccn3)CC2)cnc1C(=O)NC(C)(C)C

>  <score_type>  (48) 
oracle

>  <origin>  (48) 
adgpu

>  <m_score__min__energy>  (48) 
-9.1099999999999994

>  <m_primary>  (48) 
energy

$$$$
