0:0
     RDKit          3D

 40 41  0  0  0  0  0  0  0  0999 V2000
   -2.7320   20.8150  -27.5890 C   0  0  0  0  0  0  0  0  0  0  0  0
   -2.3650   22.2320  -27.9430 C   0  0  0  0  0  0  0  0  0  0  0  0
   -3.0820   22.9050  -28.9410 C   0  0  0  0  0  0  0  0  0  0  0  0
   -2.7650   24.2260  -29.2780 C   0  0  0  0  0  0  0  0  0  0  0  0
   -3.4740   24.9260  -30.3100 N   0  0  0  0  0  0  0  0  0  0  0  0
   -4.8950   24.9730  -30.5010 C   0  0  0  0  0  0  0  0  0  0  0  0
   -5.4070   26.0200  -30.9780 O   0  0  0  0  0  0  0  0  0  0  0  0
   -5.8030   23.8650  -30.0370 C   0  0  0  0  0  0  0  0  0  0  0  0
   -7.1070   23.8380  -30.8500 C   0  0  0  0  0  0  0  0  0  0  0  0
   -6.9100   23.2290  -32.2460 C   0  0  0  0  0  0  0  0  0  0  0  0
   -7.3880   21.8010  -32.3120 C   0  0  0  0  0  0  0  0  0  0  0  0
   -8.7020   21.4780  -31.9320 C   0  0  0  0  0  0  0  0  0  0  0  0
   -9.1380   20.1500  -31.9680 C   0  0  0  0  0  0  0  0  0  0  0  0
   -8.2650   19.1370  -32.3750 C   0  0  0  0  0  0  0  0  0  0  0  0
   -6.9550   19.4490  -32.7470 C   0  0  0  0  0  0  0  0  0  0  0  0
   -6.5150   20.7760  -32.7130 C   0  0  0  0  0  0  0  0  0  0  0  0
   -1.6800   24.8410  -28.6430 C   0  0  0  0  0  0  0  0  0  0  0  0
   -1.3520   26.0180  -28.9540 O   0  0  0  0  0  0  0  0  0  0  0  0
   -0.9790   24.1760  -27.6830 N   0  0  0  0  0  0  0  0  0  0  0  0
   -1.2890   22.8980  -27.3140 C   0  0  0  0  0  0  0  0  0  0  0  0
   -0.4790   22.2200  -26.2390 C   0  0  0  0  0  0  0  0  0  0  0  0
   -2.7602   20.7060  -26.4948 H   0  0  0  0  0  0  0  0  0  0  0  0
   -3.7214   20.5772  -28.0068 H   0  0  0  0  0  0  0  0  0  0  0  0
   -1.9825   20.1268  -28.0068 H   0  0  0  0  0  0  0  0  0  0  0  0
   -3.9014   22.3906  -29.4644 H   0  0  0  0  0  0  0  0  0  0  0  0
   -5.2849   22.9022  -30.1577 H   0  0  0  0  0  0  0  0  0  0  0  0
   -6.0547   24.0402  -28.9806 H   0  0  0  0  0  0  0  0  0  0  0  0
   -7.8517   23.2396  -30.3047 H   0  0  0  0  0  0  0  0  0  0  0  0
   -7.4444   24.8769  -30.9802 H   0  0  0  0  0  0  0  0  0  0  0  0
   -7.4745   23.8265  -32.9770 H   0  0  0  0  0  0  0  0  0  0  0  0
   -5.8334   23.2375  -32.4714 H   0  0  0  0  0  0  0  0  0  0  0  0
   -9.3894   22.2722  -31.6053 H   0  0  0  0  0  0  0  0  0  0  0  0
  -10.1691   19.9021  -31.6757 H   0  0  0  0  0  0  0  0  0  0  0  0
   -8.6099   18.0928  -32.4024 H   0  0  0  0  0  0  0  0  0  0  0  0
   -6.2693   18.6505  -33.0668 H   0  0  0  0  0  0  0  0  0  0  0  0
   -5.4814   21.0181  -33.0013 H   0  0  0  0  0  0  0  0  0  0  0  0
   -0.1810   24.6680  -27.2190 H   0  0  0  0  0  0  0  0  0  0  0  0
   -0.8492   22.5299  -25.2506 H   0  0  0  0  0  0  0  0  0  0  0  0
   -0.5748   21.1289  -26.3409 H   0  0  0  0  0  0  0  0  0  0  0  0
    0.5782   22.5064  -26.3409 H   0  0  0  0  0  0  0  0  0  0  0  0
  1  2  1  0
  2  3  1  0
  3  4  2  0
  4  5  1  0
  5  6  1  0
  6  7  2  0
  6  8  1  0
  8  9  1  0
  9 10  1  0
 10 11  1  0
 11 12  2  0
 12 13  1  0
 13 14  2  0
 14 15  1  0
 15 16  2  0
  4 17  1  0
 17 18  2  0
 17 19  1  0
 19 20  1  0
 20 21  1  0
 20  2  2  0
 16 11  1  0
  1 22  1  0
  1 23  1  0
  1 24  1  0
  3 25  1  0
  8 26  1  0
  8 27  1  0
  9 28  1  0
  9 29  1  0
 10 30  1  0
 10 31  1  0
 12 32  1  0
 13 33  1  0
 14 34  1  0
 15 35  1  0
 16 36  1  0
 19 37  1  0
 21 38  1  0
 21 39  1  0
 21 40  1  0
M  CHG  1   5  -1
M  END
>  <UniqueID>  (1) 
1

>  <SMILES>  (1) 
Cc1cc([N-]C(=O)CCCc2ccccc2)c(=O)[nH]c1C

>  <Energy>  (1) 
40.74665427204062

>  <Genealogy>  (1) 
Cc1cc([N-]C(=O)CCCc2ccccc2)c(=O)[nH]c1C (protonated)
Cc1cc([N-]C(=O)CCCc2ccccc2)c(=O)[nH]c1C (3D coordinates assigned)
Cc1cc([N-]C(=O)CCCc2ccccc2)c(=O)[nH]c1C (optimized conformer: 40.74665427204062 kcal/mol)

>  <smiles>  (1) 
Cc1cc(NC(=O)CCCc2ccccc2)c(=O)[nH]c1C

>  <score_type>  (1) 
oracle

>  <origin>  (1) 
adgpu

>  <m_score__min__energy>  (1) 
-10.15

>  <m_primary>  (1) 
energy

$$$$
1:0
     RDKit          3D

 42 44  0  0  0  0  0  0  0  0999 V2000
   -0.4370   22.4250  -27.2060 O   0  0  0  0  0  0  0  0  0  0  0  0
   -0.7660   23.4990  -27.7760 C   0  0  0  0  0  0  0  0  0  0  0  0
   -1.1200   23.5030  -29.1660 N   0  0  0  0  0  0  0  0  0  0  0  0
   -2.4440   23.4100  -29.7110 C   0  0  0  0  0  0  0  0  0  0  0  0
   -3.4800   24.1090  -29.0810 C   0  0  0  0  0  0  0  0  0  0  0  0
   -4.7870   24.0320  -29.5690 C   0  0  0  0  0  0  0  0  0  0  0  0
   -5.0780   23.2400  -30.6900 C   0  0  0  0  0  0  0  0  0  0  0  0
   -6.7260   23.1580  -31.3190 S   0  0  0  0  0  0  0  0  0  0  0  0
   -6.7270   23.5870  -32.7600 O   0  0  0  0  0  0  0  0  0  0  0  0
   -7.5980   24.1110  -30.5490 O   0  0  0  0  0  0  0  0  0  0  0  0
   -7.3820   21.5410  -31.1980 N   0  0  0  0  0  0  0  0  0  0  0  0
   -7.1440   20.7930  -32.4460 C   0  0  0  0  0  0  0  0  0  0  0  0
   -8.1180   19.6090  -32.5620 C   0  0  0  0  0  0  0  0  0  0  0  0
   -9.4910   19.9870  -32.5750 O   0  0  0  0  0  0  0  0  0  0  0  0
   -9.7450   21.2480  -31.9720 C   0  0  0  0  0  0  0  0  0  0  0  0
   -8.8050   21.5580  -30.7930 C   0  0  0  0  0  0  0  0  0  0  0  0
   -4.0490   22.5100  -31.3010 C   0  0  0  0  0  0  0  0  0  0  0  0
   -2.7410   22.5890  -30.8140 C   0  0  0  0  0  0  0  0  0  0  0  0
   -0.7950   24.7670  -27.0150 C   0  0  0  0  0  0  0  0  0  0  0  0
   -0.6410   24.7150  -25.6170 C   0  0  0  0  0  0  0  0  0  0  0  0
   -0.5890   25.8880  -24.8610 C   0  0  0  0  0  0  0  0  0  0  0  0
   -0.6920   27.1290  -25.4880 C   0  0  0  0  0  0  0  0  0  0  0  0
   -0.8640   27.2000  -26.8710 C   0  0  0  0  0  0  0  0  0  0  0  0
   -0.9390   26.0330  -27.6420 C   0  0  0  0  0  0  0  0  0  0  0  0
   -1.1870   26.1720  -29.0090 O   0  0  0  0  0  0  0  0  0  0  0  0
   -3.2636   24.7237  -28.1948 H   0  0  0  0  0  0  0  0  0  0  0  0
   -5.5912   24.5947  -29.0722 H   0  0  0  0  0  0  0  0  0  0  0  0
   -7.2893   21.4659  -33.3040 H   0  0  0  0  0  0  0  0  0  0  0  0
   -6.1146   20.4054  -32.4361 H   0  0  0  0  0  0  0  0  0  0  0  0
   -7.8986   19.0710  -33.4960 H   0  0  0  0  0  0  0  0  0  0  0  0
   -7.9683   18.9853  -31.6684 H   0  0  0  0  0  0  0  0  0  0  0  0
   -9.6197   22.0313  -32.7341 H   0  0  0  0  0  0  0  0  0  0  0  0
  -10.7698   21.2187  -31.5734 H   0  0  0  0  0  0  0  0  0  0  0  0
   -9.0494   22.5546  -30.3968 H   0  0  0  0  0  0  0  0  0  0  0  0
   -8.9499   20.7793  -30.0297 H   0  0  0  0  0  0  0  0  0  0  0  0
   -4.2720   21.8715  -32.1685 H   0  0  0  0  0  0  0  0  0  0  0  0
   -1.9411   22.0070  -31.2951 H   0  0  0  0  0  0  0  0  0  0  0  0
   -0.5607   23.7398  -25.1144 H   0  0  0  0  0  0  0  0  0  0  0  0
   -0.4666   25.8328  -23.7692 H   0  0  0  0  0  0  0  0  0  0  0  0
   -0.6377   28.0522  -24.8925 H   0  0  0  0  0  0  0  0  0  0  0  0
   -0.9414   28.1820  -27.3605 H   0  0  0  0  0  0  0  0  0  0  0  0
   -0.8690   25.5090  -29.7040 H   0  0  0  0  0  0  0  0  0  0  0  0
  1  2  2  0
  2  3  1  0
  3  4  1  0
  4  5  2  0
  5  6  1  0
  6  7  2  0
  7  8  1  0
  8  9  2  0
  8 10  2  0
  8 11  1  0
 11 12  1  0
 12 13  1  0
 13 14  1  0
 14 15  1  0
 15 16  1  0
  7 17  1  0
 17 18  2  0
  2 19  1  0
 19 20  2  0
 20 21  1  0
 21 22  2  0
 22 23  1  0
 23 24  2  0
 24 25  1  0
 18  4  1  0
 24 19  1  0
 16 11  1  0
  5 26  1  0
  6 27  1  0
 12 28  1  0
 12 29  1  0
 13 30  1  0
 13 31  1  0
 15 32  1  0
 15 33  1  0
 16 34  1  0
 16 35  1  0
 17 36  1  0
 18 37  1  0
 20 38  1  0
 21 39  1  0
 22 40  1  0
 23 41  1  0
 25 42  1  0
M  CHG  1   3  -1
M  END
>  <UniqueID>  (2) 
2

>  <SMILES>  (2) 
O=C([N-]c1ccc(S(=O)(=O)N2CCOCC2)cc1)c1ccccc1O

>  <Energy>  (2) 
64.48673358433764

>  <Genealogy>  (2) 
O=C([N-]c1ccc(S(=O)(=O)N2CCOCC2)cc1)c1ccccc1O (protonated)
O=C([N-]c1ccc(S(=O)(=O)N2CCOCC2)cc1)c1ccccc1O (3D coordinates assigned)
O=C([N-]c1ccc(S(=O)(=O)N2CCOCC2)cc1)c1ccccc1O (nonaromatic ring conformer: 64.48673358433764 kcal/mol)

>  <smiles>  (2) 
O=C(Nc1ccc(S(=O)(=O)N2CCOCC2)cc1)c1ccccc1O

>  <score_type>  (2) 
oracle

>  <origin>  (2) 
adgpu

>  <m_score__min__energy>  (2) 
-10.1

>  <m_primary>  (2) 
energy

$$$$
2:0
     RDKit          3D

 56 59  0  0  0  0  0  0  0  0999 V2000
   -4.7670   21.0500  -30.7930 H   0  0  0  0  0  0  0  0  0  0  0  0
   -3.7690   21.1940  -30.6870 O   0  0  0  0  0  0  0  0  0  0  0  0
   -2.8780   20.9330  -31.7270 C   0  0  0  0  0  0  0  0  0  0  0  0
   -1.5840   21.4750  -31.6880 C   0  0  0  0  0  0  0  0  0  0  0  0
   -1.2874   22.1226  -30.8497 H   0  0  0  0  0  0  0  0  0  0  0  0
   -0.6710   21.1970  -32.7070 C   0  0  0  0  0  0  0  0  0  0  0  0
    0.3413   21.6260  -32.6709 H   0  0  0  0  0  0  0  0  0  0  0  0
   -1.0430   20.3750  -33.7710 C   0  0  0  0  0  0  0  0  0  0  0  0
   -0.3219   20.1539  -34.5717 H   0  0  0  0  0  0  0  0  0  0  0  0
   -2.3290   19.8320  -33.8220 C   0  0  0  0  0  0  0  0  0  0  0  0
   -2.6138   19.1813  -34.6620 H   0  0  0  0  0  0  0  0  0  0  0  0
   -3.2630   20.1110  -32.8070 C   0  0  0  0  0  0  0  0  0  0  0  0
   -4.5910   19.5520  -32.8800 N   0  0  0  0  0  0  0  0  0  0  0  0
   -4.8600   18.1920  -32.4010 C   0  0  0  0  0  0  0  0  0  0  0  0
   -4.1202   17.9209  -31.6334 H   0  0  0  0  0  0  0  0  0  0  0  0
   -4.7913   17.4873  -33.2428 H   0  0  0  0  0  0  0  0  0  0  0  0
   -6.2670   18.1300  -31.7980 C   0  0  0  0  0  0  0  0  0  0  0  0
   -6.3084   18.8057  -30.9310 H   0  0  0  0  0  0  0  0  0  0  0  0
   -6.4592   17.0861  -31.5095 H   0  0  0  0  0  0  0  0  0  0  0  0
   -7.3240   18.5310  -32.7650 N   0  0  0  0  0  0  0  0  0  0  0  0
   -8.5220   19.0520  -32.0710 C   0  0  0  0  0  0  0  0  0  0  0  0
   -8.6623   18.4989  -31.1306 H   0  0  0  0  0  0  0  0  0  0  0  0
   -9.3939   18.9200  -32.7286 H   0  0  0  0  0  0  0  0  0  0  0  0
   -8.3710   20.5110  -31.7640 C   0  0  0  0  0  0  0  0  0  0  0  0
   -7.3030   21.0370  -31.2120 O   0  0  0  0  0  0  0  0  0  0  0  0
   -7.5090   22.3240  -31.0510 C   0  0  0  0  0  0  0  0  0  0  0  0
   -6.5080   23.2210  -30.4450 C   0  0  0  0  0  0  0  0  0  0  0  0
   -6.6952   23.6063  -29.4318 H   0  0  0  0  0  0  0  0  0  0  0  0
   -5.3820   23.5890  -31.0690 C   0  0  0  0  0  0  0  0  0  0  0  0
   -5.1977   23.2173  -32.0877 H   0  0  0  0  0  0  0  0  0  0  0  0
   -4.3770   24.4740  -30.4450 C   0  0  0  0  0  0  0  0  0  0  0  0
   -4.3160   25.6700  -30.8370 O   0  0  0  0  0  0  0  0  0  0  0  0
   -3.4580   24.0240  -29.3720 C   0  0  0  0  0  0  0  0  0  0  0  0
   -2.1540   24.5400  -29.2710 C   0  0  0  0  0  0  0  0  0  0  0  0
   -1.8105   25.3010  -29.9871 H   0  0  0  0  0  0  0  0  0  0  0  0
   -1.2910   24.0920  -28.2660 C   0  0  0  0  0  0  0  0  0  0  0  0
   -0.2724   24.5014  -28.1970 H   0  0  0  0  0  0  0  0  0  0  0  0
   -1.7170   23.1240  -27.3460 C   0  0  0  0  0  0  0  0  0  0  0  0
   -0.7780   22.6180  -26.2910 C   0  0  0  0  0  0  0  0  0  0  0  0
   -1.1905   22.8403  -25.2958 H   0  0  0  0  0  0  0  0  0  0  0  0
   -0.6536   21.5307  -26.4018 H   0  0  0  0  0  0  0  0  0  0  0  0
    0.1986   23.1120  -26.4018 H   0  0  0  0  0  0  0  0  0  0  0  0
   -3.0050   22.5820  -27.4640 C   0  0  0  0  0  0  0  0  0  0  0  0
   -3.3375   21.8030  -26.7622 H   0  0  0  0  0  0  0  0  0  0  0  0
   -3.8680   23.0270  -28.4690 C   0  0  0  0  0  0  0  0  0  0  0  0
   -4.8756   22.5941  -28.5544 H   0  0  0  0  0  0  0  0  0  0  0  0
   -8.7720   22.6580  -31.5170 C   0  0  0  0  0  0  0  0  0  0  0  0
   -9.2347   23.6559  -31.5209 H   0  0  0  0  0  0  0  0  0  0  0  0
   -9.3280   21.4830  -31.9740 C   0  0  0  0  0  0  0  0  0  0  0  0
  -10.3268   21.3478  -32.4146 H   0  0  0  0  0  0  0  0  0  0  0  0
   -6.8640   19.4680  -33.8240 C   0  0  0  0  0  0  0  0  0  0  0  0
   -7.7102   20.1053  -34.1203 H   0  0  0  0  0  0  0  0  0  0  0  0
   -6.4945   18.8610  -34.6636 H   0  0  0  0  0  0  0  0  0  0  0  0
   -5.7100   20.3690  -33.3650 C   0  0  0  0  0  0  0  0  0  0  0  0
   -6.0607   21.0234  -32.5533 H   0  0  0  0  0  0  0  0  0  0  0  0
   -5.3685   20.9764  -34.2161 H   0  0  0  0  0  0  0  0  0  0  0  0
  1  2  1  0
  2  3  1  0
  3  4  2  0
  4  5  1  0
  4  6  1  0
  6  7  1  0
  6  8  2  0
  8  9  1  0
  8 10  1  0
 10 11  1  0
 10 12  2  0
 12 13  1  0
 13 14  1  0
 14 15  1  0
 14 16  1  0
 14 17  1  0
 17 18  1  0
 17 19  1  0
 17 20  1  0
 20 21  1  0
 21 22  1  0
 21 23  1  0
 21 24  1  0
 24 25  1  0
 25 26  1  0
 26 27  1  0
 27 28  1  0
 27 29  2  0
 29 30  1  0
 29 31  1  0
 31 32  2  0
 31 33  1  0
 33 34  2  0
 34 35  1  0
 34 36  1  0
 36 37  1  0
 36 38  2  0
 38 39  1  0
 39 40  1  0
 39 41  1  0
 39 42  1  0
 38 43  1  0
 43 44  1  0
 43 45  2  0
 45 46  1  0
 26 47  2  0
 47 48  1  0
 47 49  1  0
 49 50  1  0
 20 51  1  0
 51 52  1  0
 51 53  1  0
 51 54  1  0
 54 55  1  0
 54 56  1  0
 12  3  1  0
 54 13  1  0
 49 24  2  0
 45 33  1  0
M  END
>  <UniqueID>  (3) 
3

>  <SMILES>  (3) 
Cc1ccc(C(=O)/C=C/c2ccc(CN3CCN(c4ccccc4O)CC3)o2)cc1

>  <Energy>  (3) 
100.02844162535442

>  <Genealogy>  (3) 
Cc1ccc(C(=O)/C=C/c2ccc(CN3CCN(c4ccccc4O)CC3)o2)cc1 (cis-trans isomerization)
Cc1ccc(C(=O)/C=C/c2ccc(CN3CCN(c4ccccc4O)CC3)o2)cc1 (3D coordinates assigned)
Cc1ccc(C(=O)/C=C/c2ccc(CN3CCN(c4ccccc4O)CC3)o2)cc1 (nonaromatic ring conformer: 100.02844162535442 kcal/mol)

>  <smiles>  (3) 
Cc1ccc(C(=O)C=Cc2ccc(CN3CCN(c4ccccc4O)CC3)o2)cc1

>  <score_type>  (3) 
oracle

>  <origin>  (3) 
adgpu

>  <m_score__min__energy>  (3) 
-9.0800000000000001

>  <m_primary>  (3) 
energy

$$$$
3:0
     RDKit          3D

 42 45  0  0  0  0  0  0  0  0999 V2000
   -6.3460   19.8920  -34.2290 N   0  0  0  0  0  0  0  0  0  0  0  0
   -5.8690   18.5990  -33.8350 C   0  0  0  0  0  0  0  0  0  0  0  0
   -6.7840   17.5430  -33.6910 C   0  0  0  0  0  0  0  0  0  0  0  0
   -6.3540   16.2890  -33.2540 C   0  0  0  0  0  0  0  0  0  0  0  0
   -5.0070   16.0780  -32.9530 C   0  0  0  0  0  0  0  0  0  0  0  0
   -4.0860   17.1180  -33.0950 C   0  0  0  0  0  0  0  0  0  0  0  0
   -4.5000   18.3750  -33.5560 C   0  0  0  0  0  0  0  0  0  0  0  0
   -3.5260   19.4160  -33.6950 N   0  0  0  0  0  0  0  0  0  0  0  0
   -3.5600   20.6390  -32.9420 C   0  0  0  0  0  0  0  0  0  0  0  0
   -2.2030   21.5620  -32.9040 S   0  0  0  0  0  0  0  0  0  0  0  0
   -4.7180   20.9870  -32.1540 N   0  0  0  0  0  0  0  0  0  0  0  0
   -4.9200   22.2630  -31.5270 C   0  0  0  0  0  0  0  0  0  0  0  0
   -6.0120   23.0520  -31.9100 C   0  0  0  0  0  0  0  0  0  0  0  0
   -6.2070   24.3100  -31.3380 C   0  0  0  0  0  0  0  0  0  0  0  0
   -5.3120   24.7960  -30.3840 C   0  0  0  0  0  0  0  0  0  0  0  0
   -4.1990   24.0290  -30.0000 C   0  0  0  0  0  0  0  0  0  0  0  0
   -3.2500   24.5410  -28.9850 C   0  0  0  0  0  0  0  0  0  0  0  0
   -2.1260   25.2380  -29.3080 N   0  0  0  0  0  0  0  0  0  0  0  0
   -1.5740   25.4770  -28.1100 C   0  0  0  0  0  0  0  0  0  0  0  0
   -0.3870   26.1560  -27.8360 C   0  0  0  0  0  0  0  0  0  0  0  0
   -0.0050   26.2830  -26.4870 C   0  0  0  0  0  0  0  0  0  0  0  0
   -0.8100   25.7340  -25.4610 C   0  0  0  0  0  0  0  0  0  0  0  0
   -1.9980   25.0500  -25.7780 C   0  0  0  0  0  0  0  0  0  0  0  0
   -2.3430   24.9420  -27.1230 C   0  0  0  0  0  0  0  0  0  0  0  0
   -3.4180   24.3400  -27.6500 N   0  0  0  0  0  0  0  0  0  0  0  0
   -4.0040   22.7650  -30.5880 C   0  0  0  0  0  0  0  0  0  0  0  0
   -5.8390   20.7670  -33.9740 H   0  0  0  0  0  0  0  0  0  0  0  0
   -7.2480   19.9890  -34.7480 H   0  0  0  0  0  0  0  0  0  0  0  0
   -7.8467   17.7054  -33.9242 H   0  0  0  0  0  0  0  0  0  0  0  0
   -7.0767   15.4666  -33.1467 H   0  0  0  0  0  0  0  0  0  0  0  0
   -4.6707   15.0908  -32.6034 H   0  0  0  0  0  0  0  0  0  0  0  0
   -3.0285   16.9495  -32.8433 H   0  0  0  0  0  0  0  0  0  0  0  0
   -2.8440   19.3390  -34.4840 H   0  0  0  0  0  0  0  0  0  0  0  0
   -5.4450   20.2600  -31.9800 H   0  0  0  0  0  0  0  0  0  0  0  0
   -6.7192   22.6784  -32.6651 H   0  0  0  0  0  0  0  0  0  0  0  0
   -7.0701   24.9212  -31.6405 H   0  0  0  0  0  0  0  0  0  0  0  0
   -5.4786   25.7842  -29.9305 H   0  0  0  0  0  0  0  0  0  0  0  0
    0.2284   26.5771  -28.6447 H   0  0  0  0  0  0  0  0  0  0  0  0
    0.9244   26.8119  -26.2291 H   0  0  0  0  0  0  0  0  0  0  0  0
   -0.5053   25.8426  -24.4096 H   0  0  0  0  0  0  0  0  0  0  0  0
   -2.6321   24.6157  -24.9910 H   0  0  0  0  0  0  0  0  0  0  0  0
   -3.1255   22.1645  -30.3093 H   0  0  0  0  0  0  0  0  0  0  0  0
  1  2  1  0
  2  3  2  0
  3  4  1  0
  4  5  2  0
  5  6  1  0
  6  7  2  0
  7  8  1  0
  8  9  1  0
  9 10  2  0
  9 11  1  0
 11 12  1  0
 12 13  2  0
 13 14  1  0
 14 15  2  0
 15 16  1  0
 16 17  1  0
 17 18  2  0
 18 19  1  0
 19 20  2  0
 20 21  1  0
 21 22  2  0
 22 23  1  0
 23 24  2  0
 24 25  1  0
 16 26  2  0
  7  2  1  0
 26 12  1  0
 25 17  1  0
 24 19  1  0
  1 27  1  0
  1 28  1  0
  3 29  1  0
  4 30  1  0
  5 31  1  0
  6 32  1  0
  8 33  1  0
 11 34  1  0
 13 35  1  0
 14 36  1  0
 15 37  1  0
 20 38  1  0
 21 39  1  0
 22 40  1  0
 23 41  1  0
 26 42  1  0
M  CHG  1  25  -1
M  END
>  <UniqueID>  (4) 
4

>  <SMILES>  (4) 
Nc1ccccc1NC(=S)Nc1cccc(-c2nc3ccccc3[n-]2)c1

>  <Energy>  (4) 
93.69180568706363

>  <Genealogy>  (4) 
Nc1ccccc1NC(=S)Nc1cccc(-c2nc3ccccc3[n-]2)c1 (protonated)
Nc1ccccc1NC(=S)Nc1cccc(-c2nc3ccccc3[n-]2)c1 (3D coordinates assigned)
Nc1ccccc1NC(=S)Nc1cccc(-c2nc3ccccc3[n-]2)c1 (optimized conformer: 93.69180568706363 kcal/mol)

>  <smiles>  (4) 
Nc1ccccc1NC(=S)Nc1cccc(-c2nc3ccccc3[nH]2)c1

>  <score_type>  (4) 
oracle

>  <origin>  (4) 
adgpu

>  <m_score__min__energy>  (4) 
-9.6300000000000008

>  <m_primary>  (4) 
energy

$$$$
4:0
     RDKit          3D

 50 53  0  0  0  0  0  0  0  0999 V2000
   -0.2140   27.1700  -22.5740 N   0  0  0  0  0  0  0  0  0  0  0  0
   -0.2160   26.5860  -23.5720 C   0  0  0  0  0  0  0  0  0  0  0  0
   -0.2190   25.8590  -24.8150 C   0  0  0  0  0  0  0  0  0  0  0  0
   -0.4620   26.5310  -26.0170 C   0  0  0  0  0  0  0  0  0  0  0  0
   -0.4710   25.8260  -27.2230 C   0  0  0  0  0  0  0  0  0  0  0  0
   -0.2230   24.4400  -27.2400 C   0  0  0  0  0  0  0  0  0  0  0  0
   -0.2520   23.6830  -28.4640 N   0  0  0  0  0  0  0  0  0  0  0  0
   -1.4390   23.1040  -29.0290 C   0  0  0  0  0  0  0  0  0  0  0  0
   -1.5260   21.7110  -29.1510 C   0  0  0  0  0  0  0  0  0  0  0  0
   -2.6580   21.1190  -29.7100 C   0  0  0  0  0  0  0  0  0  0  0  0
   -3.7110   21.9130  -30.1610 C   0  0  0  0  0  0  0  0  0  0  0  0
   -3.6340   23.3100  -30.0720 C   0  0  0  0  0  0  0  0  0  0  0  0
   -4.9470   24.3020  -30.7090 S   0  0  0  0  0  0  0  0  0  0  0  0
   -6.0680   24.3830  -29.7150 O   0  0  0  0  0  0  0  0  0  0  0  0
   -4.4320   25.6910  -30.9510 O   0  0  0  0  0  0  0  0  0  0  0  0
   -5.5620   23.6610  -32.1980 N   0  0  0  0  0  0  0  0  0  0  0  0
   -6.2300   22.3990  -32.2790 C   0  0  0  0  0  0  0  0  0  0  0  0
   -5.5870   21.2870  -32.8340 C   0  0  0  0  0  0  0  0  0  0  0  0
   -6.2330   20.0450  -32.9110 C   0  0  0  0  0  0  0  0  0  0  0  0
   -7.5440   19.9120  -32.4070 C   0  0  0  0  0  0  0  0  0  0  0  0
   -8.2010   21.0400  -31.8940 C   0  0  0  0  0  0  0  0  0  0  0  0
   -7.5540   22.2770  -31.8280 C   0  0  0  0  0  0  0  0  0  0  0  0
   -8.2410   23.3670  -31.2960 O   0  0  0  0  0  0  0  0  0  0  0  0
   -8.3010   18.6080  -32.5070 C   0  0  0  0  0  0  0  0  0  0  0  0
   -7.3750   17.4060  -32.6990 C   0  0  0  0  0  0  0  0  0  0  0  0
   -6.3690   17.6830  -33.8130 C   0  0  0  0  0  0  0  0  0  0  0  0
   -5.4610   18.8570  -33.4320 C   0  0  0  0  0  0  0  0  0  0  0  0
   -2.4840   23.9090  -29.5250 C   0  0  0  0  0  0  0  0  0  0  0  0
   -2.3680   25.2960  -29.5020 O   0  0  0  0  0  0  0  0  0  0  0  0
    0.0010   23.7730  -26.0270 C   0  0  0  0  0  0  0  0  0  0  0  0
    0.0090   24.4790  -24.8220 C   0  0  0  0  0  0  0  0  0  0  0  0
   -0.6462   27.6155  -26.0129 H   0  0  0  0  0  0  0  0  0  0  0  0
   -0.6730   26.3568  -28.1650 H   0  0  0  0  0  0  0  0  0  0  0  0
    0.6580   23.4620  -28.9240 H   0  0  0  0  0  0  0  0  0  0  0  0
   -0.6951   21.0796  -28.8032 H   0  0  0  0  0  0  0  0  0  0  0  0
   -2.7200   20.0241  -29.7951 H   0  0  0  0  0  0  0  0  0  0  0  0
   -4.6075   21.4409  -30.5892 H   0  0  0  0  0  0  0  0  0  0  0  0
   -4.5602   21.3887  -33.2153 H   0  0  0  0  0  0  0  0  0  0  0  0
   -9.2383   20.9499  -31.5392 H   0  0  0  0  0  0  0  0  0  0  0  0
   -7.7730   24.2240  -31.0260 H   0  0  0  0  0  0  0  0  0  0  0  0
   -8.8789   18.4638  -31.5822 H   0  0  0  0  0  0  0  0  0  0  0  0
   -8.9564   18.6689  -33.3883 H   0  0  0  0  0  0  0  0  0  0  0  0
   -6.8335   17.2120  -31.7614 H   0  0  0  0  0  0  0  0  0  0  0  0
   -7.9800   16.5294  -32.9739 H   0  0  0  0  0  0  0  0  0  0  0  0
   -5.7530   16.7864  -33.9765 H   0  0  0  0  0  0  0  0  0  0  0  0
   -6.9158   17.9383  -34.7327 H   0  0  0  0  0  0  0  0  0  0  0  0
   -4.7615   18.5222  -32.6519 H   0  0  0  0  0  0  0  0  0  0  0  0
   -4.9324   19.1772  -34.3419 H   0  0  0  0  0  0  0  0  0  0  0  0
    0.1716   22.6863  -26.0246 H   0  0  0  0  0  0  0  0  0  0  0  0
    0.1950   23.9487  -23.8764 H   0  0  0  0  0  0  0  0  0  0  0  0
  1  2  3  0
  2  3  1  0
  3  4  2  0
  4  5  1  0
  5  6  2  0
  6  7  1  0
  7  8  1  0
  8  9  2  0
  9 10  1  0
 10 11  2  0
 11 12  1  0
 12 13  1  0
 13 14  2  0
 13 15  2  0
 13 16  1  0
 16 17  1  0
 17 18  2  0
 18 19  1  0
 19 20  2  0
 20 21  1  0
 21 22  2  0
 22 23  1  0
 20 24  1  0
 24 25  1  0
 25 26  1  0
 26 27  1  0
 12 28  2  0
 28 29  1  0
  6 30  1  0
 30 31  2  0
 31  3  1  0
 28  8  1  0
 22 17  1  0
 27 19  1  0
  4 32  1  0
  5 33  1  0
  7 34  1  0
  9 35  1  0
 10 36  1  0
 11 37  1  0
 18 38  1  0
 21 39  1  0
 23 40  1  0
 24 41  1  0
 24 42  1  0
 25 43  1  0
 25 44  1  0
 26 45  1  0
 26 46  1  0
 27 47  1  0
 27 48  1  0
 30 49  1  0
 31 50  1  0
M  CHG  2  16  -1  29  -1
M  END
>  <UniqueID>  (5) 
5

>  <SMILES>  (5) 
N#Cc1ccc(Nc2cccc(S(=O)(=O)[N-]c3cc4c(cc3O)CCCC4)c2[O-])cc1

>  <Energy>  (5) 
67.64954377761674

>  <Genealogy>  (5) 
N#Cc1ccc(Nc2cccc(S(=O)(=O)[N-]c3cc4c(cc3O)CCCC4)c2[O-])cc1 (protonated)
N#Cc1ccc(Nc2cccc(S(=O)(=O)[N-]c3cc4c(cc3O)CCCC4)c2[O-])cc1 (3D coordinates assigned)
N#Cc1ccc(Nc2cccc(S(=O)(=O)[N-]c3cc4c(cc3O)CCCC4)c2[O-])cc1 (nonaromatic ring conformer: 67.64954377761674 kcal/mol)

>  <smiles>  (5) 
N#Cc1ccc(Nc2cccc(S(=O)(=O)Nc3cc4c(cc3O)CCCC4)c2O)cc1

>  <score_type>  (5) 
oracle

>  <origin>  (5) 
adgpu

>  <m_score__min__energy>  (5) 
-13.789999999999999

>  <m_primary>  (5) 
energy

$$$$
5:0
     RDKit          3D

 49 51  0  0  0  0  0  0  0  0999 V2000
    0.7200   21.8500  -36.0590 C   0  0  0  0  0  0  0  0  0  0  0  0
    0.2530   20.1470  -35.6140 S   0  0  0  0  0  0  0  0  0  0  0  0
   -0.3970   20.6180  -34.0090 C   0  0  0  0  0  0  0  0  0  0  0  0
    0.4710   20.7850  -32.9230 C   0  0  0  0  0  0  0  0  0  0  0  0
   -0.0340   21.1560  -31.6740 C   0  0  0  0  0  0  0  0  0  0  0  0
   -1.4130   21.3560  -31.4990 C   0  0  0  0  0  0  0  0  0  0  0  0
   -1.9530   21.7940  -30.1640 C   0  0  0  0  0  0  0  0  0  0  0  0
   -2.6350   23.0850  -30.2810 N   0  0  0  0  0  0  0  0  0  0  0  0
   -4.0240   23.2150  -30.6530 C   0  0  0  0  0  0  0  0  0  0  0  0
   -4.8160   22.0830  -30.9330 C   0  0  0  0  0  0  0  0  0  0  0  0
   -6.1620   22.2260  -31.3000 C   0  0  0  0  0  0  0  0  0  0  0  0
   -7.1380   20.8080  -31.6770 S   0  0  0  0  0  0  0  0  0  0  0  0
   -8.3240   20.7580  -30.7550 O   0  0  0  0  0  0  0  0  0  0  0  0
   -7.6440   20.9410  -33.0870 O   0  0  0  0  0  0  0  0  0  0  0  0
   -6.1630   19.3590  -31.5410 N   0  0  0  0  0  0  0  0  0  0  0  0
   -6.9630   18.1250  -31.4160 C   0  0  0  0  0  0  0  0  0  0  0  0
   -7.5510   17.6520  -32.7530 C   0  0  0  0  0  0  0  0  0  0  0  0
   -6.4520   17.5070  -33.8040 C   0  0  0  0  0  0  0  0  0  0  0  0
   -5.6620   18.8060  -33.9430 C   0  0  0  0  0  0  0  0  0  0  0  0
   -5.1190   19.2710  -32.5820 C   0  0  0  0  0  0  0  0  0  0  0  0
   -6.7230   23.5030  -31.3950 C   0  0  0  0  0  0  0  0  0  0  0  0
   -5.9500   24.6310  -31.1150 C   0  0  0  0  0  0  0  0  0  0  0  0
   -4.6080   24.4940  -30.7460 C   0  0  0  0  0  0  0  0  0  0  0  0
   -3.8630   25.6370  -30.4750 O   0  0  0  0  0  0  0  0  0  0  0  0
   -2.2760   21.2080  -32.5970 C   0  0  0  0  0  0  0  0  0  0  0  0
   -1.7690   20.8360  -33.8450 C   0  0  0  0  0  0  0  0  0  0  0  0
    0.8810   22.4373  -35.1429 H   0  0  0  0  0  0  0  0  0  0  0  0
    1.6467   21.8332  -36.6514 H   0  0  0  0  0  0  0  0  0  0  0  0
   -0.0856   22.3082  -36.6514 H   0  0  0  0  0  0  0  0  0  0  0  0
    1.5513   20.6240  -33.0532 H   0  0  0  0  0  0  0  0  0  0  0  0
    0.6514   21.2919  -30.8244 H   0  0  0  0  0  0  0  0  0  0  0  0
   -2.6660   21.0406  -29.7978 H   0  0  0  0  0  0  0  0  0  0  0  0
   -1.1144   21.8990  -29.4599 H   0  0  0  0  0  0  0  0  0  0  0  0
   -2.0860   23.9550  -30.0920 H   0  0  0  0  0  0  0  0  0  0  0  0
   -4.3742   21.0781  -30.8630 H   0  0  0  0  0  0  0  0  0  0  0  0
   -6.3184   17.3287  -31.0155 H   0  0  0  0  0  0  0  0  0  0  0  0
   -7.8068   18.3469  -30.7461 H   0  0  0  0  0  0  0  0  0  0  0  0
   -8.0423   16.6786  -32.6074 H   0  0  0  0  0  0  0  0  0  0  0  0
   -8.2795   18.3981  -33.1031 H   0  0  0  0  0  0  0  0  0  0  0  0
   -5.7686   16.6995  -33.5025 H   0  0  0  0  0  0  0  0  0  0  0  0
   -6.9180   17.2717  -34.7722 H   0  0  0  0  0  0  0  0  0  0  0  0
   -4.8183   18.6418  -34.6295 H   0  0  0  0  0  0  0  0  0  0  0  0
   -6.3338   19.5835  -34.3356 H   0  0  0  0  0  0  0  0  0  0  0  0
   -4.3516   18.5568  -32.2487 H   0  0  0  0  0  0  0  0  0  0  0  0
   -4.7083   20.2820  -32.7208 H   0  0  0  0  0  0  0  0  0  0  0  0
   -7.7760   23.6191  -31.6911 H   0  0  0  0  0  0  0  0  0  0  0  0
   -6.3987   25.6329  -31.1849 H   0  0  0  0  0  0  0  0  0  0  0  0
   -3.3546   21.3855  -32.4743 H   0  0  0  0  0  0  0  0  0  0  0  0
   -2.4502   20.7144  -34.7001 H   0  0  0  0  0  0  0  0  0  0  0  0
  1  2  1  0
  2  3  1  0
  3  4  2  0
  4  5  1  0
  5  6  2  0
  6  7  1  0
  7  8  1  0
  8  9  1  0
  9 10  2  0
 10 11  1  0
 11 12  1  0
 12 13  2  0
 12 14  2  0
 12 15  1  0
 15 16  1  0
 16 17  1  0
 17 18  1  0
 18 19  1  0
 19 20  1  0
 11 21  2  0
 21 22  1  0
 22 23  2  0
 23 24  1  0
  6 25  1  0
 25 26  2  0
 26  3  1  0
 23  9  1  0
 20 15  1  0
  1 27  1  0
  1 28  1  0
  1 29  1  0
  4 30  1  0
  5 31  1  0
  7 32  1  0
  7 33  1  0
  8 34  1  0
 10 35  1  0
 16 36  1  0
 16 37  1  0
 17 38  1  0
 17 39  1  0
 18 40  1  0
 18 41  1  0
 19 42  1  0
 19 43  1  0
 20 44  1  0
 20 45  1  0
 21 46  1  0
 22 47  1  0
 25 48  1  0
 26 49  1  0
M  CHG  1  24  -1
M  END
>  <UniqueID>  (6) 
6

>  <SMILES>  (6) 
CSc1ccc(CNc2cc(S(=O)(=O)N3CCCCC3)ccc2[O-])cc1

>  <Energy>  (6) 
45.23507798278634

>  <Genealogy>  (6) 
CSc1ccc(CNc2cc(S(=O)(=O)N3CCCCC3)ccc2[O-])cc1 (protonated)
CSc1ccc(CNc2cc(S(=O)(=O)N3CCCCC3)ccc2[O-])cc1 (3D coordinates assigned)
CSc1ccc(CNc2cc(S(=O)(=O)N3CCCCC3)ccc2[O-])cc1 (nonaromatic ring conformer: 45.23507798278634 kcal/mol)

>  <smiles>  (6) 
CSc1ccc(CNc2cc(S(=O)(=O)N3CCCCC3)ccc2O)cc1

>  <score_type>  (6) 
oracle

>  <origin>  (6) 
adgpu

>  <m_score__min__energy>  (6) 
-12.44

>  <m_primary>  (6) 
energy

$$$$
6:0
     RDKit          3D

 49 51  0  0  0  0  0  0  0  0999 V2000
   -3.5220   19.0340  -26.3690 C   0  0  0  0  0  0  0  0  0  0  0  0
   -2.0540   18.9550  -27.4410 S   0  0  0  0  0  0  0  0  0  0  0  0
   -2.2690   20.6200  -28.0570 C   0  0  0  0  0  0  0  0  0  0  0  0
   -2.3990   21.6540  -27.1890 N   0  0  0  0  0  0  0  0  0  0  0  0
   -2.5850   22.9210  -27.6360 C   0  0  0  0  0  0  0  0  0  0  0  0
   -2.6700   23.1800  -29.0110 C   0  0  0  0  0  0  0  0  0  0  0  0
   -2.9630   24.5560  -29.4700 C   0  0  0  0  0  0  0  0  0  0  0  0
   -2.3410   25.5230  -28.9550 O   0  0  0  0  0  0  0  0  0  0  0  0
   -3.9260   24.8200  -30.5000 N   0  0  0  0  0  0  0  0  0  0  0  0
   -5.1020   24.0360  -30.7440 C   0  0  0  0  0  0  0  0  0  0  0  0
   -5.7350   24.1230  -31.9900 C   0  0  0  0  0  0  0  0  0  0  0  0
   -6.8230   23.2970  -32.2870 C   0  0  0  0  0  0  0  0  0  0  0  0
   -7.2970   22.3840  -31.3320 C   0  0  0  0  0  0  0  0  0  0  0  0
   -8.6020   21.2660  -31.7360 S   0  0  0  0  0  0  0  0  0  0  0  0
   -9.1090   20.6400  -30.4660 O   0  0  0  0  0  0  0  0  0  0  0  0
   -9.7360   22.0370  -32.3520 O   0  0  0  0  0  0  0  0  0  0  0  0
   -8.0970   20.0030  -32.8460 N   0  0  0  0  0  0  0  0  0  0  0  0
   -6.7000   20.1950  -33.3070 C   0  0  0  0  0  0  0  0  0  0  0  0
   -5.6280   19.6340  -32.3490 C   0  0  0  0  0  0  0  0  0  0  0  0
   -6.0350   18.3300  -31.6470 C   0  0  0  0  0  0  0  0  0  0  0  0
   -7.2300   17.6750  -32.3260 C   0  0  0  0  0  0  0  0  0  0  0  0
   -8.4210   18.6410  -32.3320 C   0  0  0  0  0  0  0  0  0  0  0  0
   -6.7250   22.3680  -30.0530 C   0  0  0  0  0  0  0  0  0  0  0  0
   -5.6320   23.1840  -29.7610 C   0  0  0  0  0  0  0  0  0  0  0  0
   -2.4880   22.0950  -29.8990 C   0  0  0  0  0  0  0  0  0  0  0  0
   -2.4950   22.2590  -31.3890 C   0  0  0  0  0  0  0  0  0  0  0  0
   -2.3080   20.8450  -29.3940 N   0  0  0  0  0  0  0  0  0  0  0  0
   -3.2077   19.0171  -25.3150 H   0  0  0  0  0  0  0  0  0  0  0  0
   -4.0747   19.9632  -26.5719 H   0  0  0  0  0  0  0  0  0  0  0  0
   -4.1712   18.1695  -26.5719 H   0  0  0  0  0  0  0  0  0  0  0  0
   -2.6695   23.7488  -26.9165 H   0  0  0  0  0  0  0  0  0  0  0  0
   -5.3746   24.8443  -32.7382 H   0  0  0  0  0  0  0  0  0  0  0  0
   -7.3089   23.3627  -33.2717 H   0  0  0  0  0  0  0  0  0  0  0  0
   -8.6940   20.1540  -33.6930 H   0  0  0  0  0  0  0  0  0  0  0  0
   -6.5873   19.6944  -34.2800 H   0  0  0  0  0  0  0  0  0  0  0  0
   -6.5344   21.2811  -33.3608 H   0  0  0  0  0  0  0  0  0  0  0  0
   -4.7127   19.4432  -32.9285 H   0  0  0  0  0  0  0  0  0  0  0  0
   -5.4823   20.3867  -31.5602 H   0  0  0  0  0  0  0  0  0  0  0  0
   -5.1850   17.6322  -31.6702 H   0  0  0  0  0  0  0  0  0  0  0  0
   -6.3182   18.5714  -30.6119 H   0  0  0  0  0  0  0  0  0  0  0  0
   -6.9646   17.4167  -33.3618 H   0  0  0  0  0  0  0  0  0  0  0  0
   -7.5054   16.7639  -31.7745 H   0  0  0  0  0  0  0  0  0  0  0  0
   -9.2111   18.2115  -32.9655 H   0  0  0  0  0  0  0  0  0  0  0  0
   -8.7358   18.7633  -31.2851 H   0  0  0  0  0  0  0  0  0  0  0  0
   -7.1396   21.7091  -29.2758 H   0  0  0  0  0  0  0  0  0  0  0  0
   -5.1833   23.1602  -28.7569 H   0  0  0  0  0  0  0  0  0  0  0  0
   -2.5407   23.3290  -31.6399 H   0  0  0  0  0  0  0  0  0  0  0  0
   -1.5774   21.8225  -31.8102 H   0  0  0  0  0  0  0  0  0  0  0  0
   -3.3721   21.7459  -31.8102 H   0  0  0  0  0  0  0  0  0  0  0  0
  1  2  1  0
  2  3  1  0
  3  4  2  0
  4  5  1  0
  5  6  2  0
  6  7  1  0
  7  8  2  0
  7  9  1  0
  9 10  1  0
 10 11  2  0
 11 12  1  0
 12 13  2  0
 13 14  1  0
 14 15  2  0
 14 16  2  0
 14 17  1  0
 17 18  1  0
 18 19  1  0
 19 20  1  0
 20 21  1  0
 21 22  1  0
 13 23  1  0
 23 24  2  0
  6 25  1  0
 25 26  1  0
 25 27  2  0
 27  3  1  0
 24 10  1  0
 22 17  1  0
  1 28  1  0
  1 29  1  0
  1 30  1  0
  5 31  1  0
 11 32  1  0
 12 33  1  0
 17 34  1  0
 18 35  1  0
 18 36  1  0
 19 37  1  0
 19 38  1  0
 20 39  1  0
 20 40  1  0
 21 41  1  0
 21 42  1  0
 22 43  1  0
 22 44  1  0
 23 45  1  0
 24 46  1  0
 26 47  1  0
 26 48  1  0
 26 49  1  0
M  CHG  2   9  -1  17   1
M  END
>  <UniqueID>  (7) 
7

>  <SMILES>  (7) 
CSc1ncc(C(=O)[N-]c2ccc(S(=O)(=O)[NH+]3CCCCC3)cc2)c(C)n1

>  <Energy>  (7) 
61.14297275768767

>  <Genealogy>  (7) 
CSc1ncc(C(=O)[N-]c2ccc(S(=O)(=O)[NH+]3CCCCC3)cc2)c(C)n1 (protonated)
CSc1ncc(C(=O)[N-]c2ccc(S(=O)(=O)[NH+]3CCCCC3)cc2)c(C)n1 (3D coordinates assigned)
CSc1ncc(C(=O)[N-]c2ccc(S(=O)(=O)[NH+]3CCCCC3)cc2)c(C)n1 (nonaromatic ring conformer: 61.14297275768767 kcal/mol)

>  <smiles>  (7) 
CSc1ncc(C(=O)Nc2ccc(S(=O)(=O)N3CCCCC3)cc2)c(C)n1

>  <score_type>  (7) 
oracle

>  <origin>  (7) 
adgpu

>  <m_score__min__energy>  (7) 
-10.77

>  <m_primary>  (7) 
energy

$$$$
7:0
     RDKit          3D

 56 60  0  0  0  0  0  0  0  0999 V2000
    2.5190   19.3630  -31.5800 N   0  0  0  0  0  0  0  0  0  0  0  0
    1.3910   19.6300  -31.5800 C   0  0  0  0  0  0  0  0  0  0  0  0
   -0.0110   19.9630  -31.5770 C   0  0  0  0  0  0  0  0  0  0  0  0
   -0.5860   20.5090  -30.4230 C   0  0  0  0  0  0  0  0  0  0  0  0
   -1.9410   20.8450  -30.4060 C   0  0  0  0  0  0  0  0  0  0  0  0
   -2.7300   20.6360  -31.5390 C   0  0  0  0  0  0  0  0  0  0  0  0
   -2.1710   20.0810  -32.7070 C   0  0  0  0  0  0  0  0  0  0  0  0
   -2.9770   19.8590  -33.8830 N   0  0  0  0  0  0  0  0  0  0  0  0
   -3.6790   18.6340  -34.1290 C   0  0  0  0  0  0  0  0  0  0  0  0
   -3.1080   17.6720  -34.9680 C   0  0  0  0  0  0  0  0  0  0  0  0
   -3.7850   16.4730  -35.2060 C   0  0  0  0  0  0  0  0  0  0  0  0
   -3.2750   15.5980  -35.9560 O   0  0  0  0  0  0  0  0  0  0  0  0
   -4.9950   16.2460  -34.6300 N   0  0  0  0  0  0  0  0  0  0  0  0
   -5.5820   17.1610  -33.8120 C   0  0  0  0  0  0  0  0  0  0  0  0
   -6.8320   16.8890  -33.2470 C   0  0  0  0  0  0  0  0  0  0  0  0
   -7.4410   17.8250  -32.4070 C   0  0  0  0  0  0  0  0  0  0  0  0
   -6.8050   19.0400  -32.1130 C   0  0  0  0  0  0  0  0  0  0  0  0
   -7.4690   19.9990  -31.2730 N   0  0  0  0  0  0  0  0  0  0  0  0
   -7.2450   21.4180  -31.3320 C   0  0  0  0  0  0  0  0  0  0  0  0
   -5.9880   21.9660  -31.0160 C   0  0  0  0  0  0  0  0  0  0  0  0
   -5.7920   23.3540  -31.0300 C   0  0  0  0  0  0  0  0  0  0  0  0
   -4.2370   24.0500  -30.5890 S   0  0  0  0  0  0  0  0  0  0  0  0
   -4.2670   25.5270  -30.8580 O   0  0  0  0  0  0  0  0  0  0  0  0
   -3.1240   23.4330  -31.3880 O   0  0  0  0  0  0  0  0  0  0  0  0
   -3.9420   23.7820  -28.9010 N   0  0  0  0  0  0  0  0  0  0  0  0
   -2.6470   23.6030  -28.3050 C   0  0  0  0  0  0  0  0  0  0  0  0
   -2.3480   22.4940  -27.4890 C   0  0  0  0  0  0  0  0  0  0  0  0
   -1.0760   22.3590  -26.9220 C   0  0  0  0  0  0  0  0  0  0  0  0
   -0.0930   23.3240  -27.1610 C   0  0  0  0  0  0  0  0  0  0  0  0
   -0.3830   24.4280  -27.9670 C   0  0  0  0  0  0  0  0  0  0  0  0
   -1.6540   24.5690  -28.5370 C   0  0  0  0  0  0  0  0  0  0  0  0
   -1.9290   25.6740  -29.3330 O   0  0  0  0  0  0  0  0  0  0  0  0
   -6.8580   24.2000  -31.3560 C   0  0  0  0  0  0  0  0  0  0  0  0
   -8.1110   23.6650  -31.6600 C   0  0  0  0  0  0  0  0  0  0  0  0
   -8.3100   22.2810  -31.6420 C   0  0  0  0  0  0  0  0  0  0  0  0
   -9.5670   21.7670  -31.9410 O   0  0  0  0  0  0  0  0  0  0  0  0
   -5.5580   19.3260  -32.6990 C   0  0  0  0  0  0  0  0  0  0  0  0
   -4.9350   18.3880  -33.5410 C   0  0  0  0  0  0  0  0  0  0  0  0
   -0.8010   19.7470  -32.7180 C   0  0  0  0  0  0  0  0  0  0  0  0
   -0.2260   19.1960  -33.8630 O   0  0  0  0  0  0  0  0  0  0  0  0
    0.0314   20.6736  -29.5276 H   0  0  0  0  0  0  0  0  0  0  0  0
   -2.3882   21.2754  -29.4978 H   0  0  0  0  0  0  0  0  0  0  0  0
   -3.7960   20.9067  -31.5194 H   0  0  0  0  0  0  0  0  0  0  0  0
   -3.1070   20.6270  -34.5800 H   0  0  0  0  0  0  0  0  0  0  0  0
   -2.1311   17.8581  -35.4381 H   0  0  0  0  0  0  0  0  0  0  0  0
   -7.3369   15.9362  -33.4643 H   0  0  0  0  0  0  0  0  0  0  0  0
   -8.4278   17.6070  -31.9726 H   0  0  0  0  0  0  0  0  0  0  0  0
   -8.1550   19.6400  -30.5720 H   0  0  0  0  0  0  0  0  0  0  0  0
   -5.1523   21.2997  -30.7558 H   0  0  0  0  0  0  0  0  0  0  0  0
   -3.1173   21.7316  -27.2970 H   0  0  0  0  0  0  0  0  0  0  0  0
   -0.8486   21.4907  -26.2861 H   0  0  0  0  0  0  0  0  0  0  0  0
    0.9067   23.2144  -26.7154 H   0  0  0  0  0  0  0  0  0  0  0  0
    0.3895   25.1884  -28.1542 H   0  0  0  0  0  0  0  0  0  0  0  0
   -6.7081   25.2896  -31.3727 H   0  0  0  0  0  0  0  0  0  0  0  0
   -8.9454   24.3350  -31.9148 H   0  0  0  0  0  0  0  0  0  0  0  0
   -5.0675   20.2896  -32.4970 H   0  0  0  0  0  0  0  0  0  0  0  0
  1  2  3  0
  2  3  1  0
  3  4  2  0
  4  5  1  0
  5  6  2  0
  6  7  1  0
  7  8  1  0
  8  9  1  0
  9 10  2  0
 10 11  1  0
 11 12  2  0
 11 13  1  0
 13 14  1  0
 14 15  2  0
 15 16  1  0
 16 17  2  0
 17 18  1  0
 18 19  1  0
 19 20  2  0
 20 21  1  0
 21 22  1  0
 22 23  2  0
 22 24  2  0
 22 25  1  0
 25 26  1  0
 26 27  2  0
 27 28  1  0
 28 29  2  0
 29 30  1  0
 30 31  2  0
 31 32  1  0
 21 33  2  0
 33 34  1  0
 34 35  2  0
 35 36  1  0
 17 37  1  0
 37 38  2  0
  7 39  2  0
 39 40  1  0
 39  3  1  0
 38  9  1  0
 38 14  1  0
 35 19  1  0
 31 26  1  0
  4 41  1  0
  5 42  1  0
  6 43  1  0
  8 44  1  0
 10 45  1  0
 15 46  1  0
 16 47  1  0
 18 48  1  0
 20 49  1  0
 27 50  1  0
 28 51  1  0
 29 52  1  0
 30 53  1  0
 33 54  1  0
 34 55  1  0
 37 56  1  0
M  CHG  5  13  -1  25  -1  32  -1  36  -1  40  -1
M  END
>  <UniqueID>  (8) 
8

>  <SMILES>  (8) 
N#Cc1cccc(Nc2cc(=O)[n-]c3ccc(Nc4cc(S(=O)(=O)[N-]c5ccccc5[O-])ccc4[O-])cc23)c1[O-]

>  <Energy>  (8) 
81.82561558381374

>  <Genealogy>  (8) 
N#Cc1cccc(Nc2cc(=O)[n-]c3ccc(Nc4cc(S(=O)(=O)[N-]c5ccccc5[O-])ccc4[O-])cc23)c1[O-] (protonated)
N#Cc1cccc(Nc2cc(=O)[n-]c3ccc(Nc4cc(S(=O)(=O)[N-]c5ccccc5[O-])ccc4[O-])cc23)c1[O-] (3D coordinates assigned)
N#Cc1cccc(Nc2cc(=O)[n-]c3ccc(Nc4cc(S(=O)(=O)[N-]c5ccccc5[O-])ccc4[O-])cc23)c1[O-] (optimized conformer: 81.82561558381374 kcal/mol)

>  <smiles>  (8) 
N#Cc1cccc(Nc2cc(=O)[nH]c3ccc(Nc4cc(S(=O)(=O)Nc5ccccc5O)ccc4O)cc23)c1O

>  <score_type>  (8) 
oracle

>  <origin>  (8) 
adgpu

>  <m_score__min__energy>  (8) 
-15.539999999999999

>  <m_primary>  (8) 
energy

$$$$
8:0
     RDKit          3D

 35 37  0  0  0  0  0  0  0  0999 V2000
    0.8210   21.4260  -27.2270 O   0  0  0  0  0  0  0  0  0  0  0  0
    0.1720   22.4160  -26.7950 C   0  0  0  0  0  0  0  0  0  0  0  0
    0.3550   22.8110  -25.4280 N   0  0  0  0  0  0  0  0  0  0  0  0
    0.3290   24.1540  -24.9240 C   0  0  0  0  0  0  0  0  0  0  0  0
   -0.8690   24.7840  -24.5450 C   0  0  0  0  0  0  0  0  0  0  0  0
   -0.8450   26.0970  -24.0720 C   0  0  0  0  0  0  0  0  0  0  0  0
    0.3730   26.7750  -23.9960 C   0  0  0  0  0  0  0  0  0  0  0  0
    1.5200   26.1590  -24.3890 N   0  0  0  0  0  0  0  0  0  0  0  0
    1.5230   24.8810  -24.8520 C   0  0  0  0  0  0  0  0  0  0  0  0
   -0.7890   23.1020  -27.6900 C   0  0  0  0  0  0  0  0  0  0  0  0
   -1.9580   22.4450  -28.1070 C   0  0  0  0  0  0  0  0  0  0  0  0
   -2.8600   23.0820  -28.9640 C   0  0  0  0  0  0  0  0  0  0  0  0
   -2.6090   24.3790  -29.4220 C   0  0  0  0  0  0  0  0  0  0  0  0
   -3.5290   24.9760  -30.2930 O   0  0  0  0  0  0  0  0  0  0  0  0
   -4.7870   24.4460  -30.6200 C   0  0  0  0  0  0  0  0  0  0  0  0
   -5.9810   24.9950  -30.1160 C   0  0  0  0  0  0  0  0  0  0  0  0
   -7.2160   24.4460  -30.4790 C   0  0  0  0  0  0  0  0  0  0  0  0
   -7.2680   23.3560  -31.3520 C   0  0  0  0  0  0  0  0  0  0  0  0
   -8.4960   22.8110  -31.7100 O   0  0  0  0  0  0  0  0  0  0  0  0
   -6.0860   22.8170  -31.8680 C   0  0  0  0  0  0  0  0  0  0  0  0
   -4.8500   23.3640  -31.5070 C   0  0  0  0  0  0  0  0  0  0  0  0
   -1.4660   25.0630  -28.9650 C   0  0  0  0  0  0  0  0  0  0  0  0
   -1.2360   26.3840  -29.3330 O   0  0  0  0  0  0  0  0  0  0  0  0
   -0.5630   24.4250  -28.1100 C   0  0  0  0  0  0  0  0  0  0  0  0
   -1.8238   24.2432  -24.6210 H   0  0  0  0  0  0  0  0  0  0  0  0
   -1.7768   26.5927  -23.7621 H   0  0  0  0  0  0  0  0  0  0  0  0
    0.4050   27.8076  -23.6182 H   0  0  0  0  0  0  0  0  0  0  0  0
    2.4675   24.4163  -25.1714 H   0  0  0  0  0  0  0  0  0  0  0  0
   -2.1651   21.4229  -27.7571 H   0  0  0  0  0  0  0  0  0  0  0  0
   -3.7744   22.5589  -29.2806 H   0  0  0  0  0  0  0  0  0  0  0  0
   -5.9433   25.8580  -29.4349 H   0  0  0  0  0  0  0  0  0  0  0  0
   -8.1466   24.8728  -30.0768 H   0  0  0  0  0  0  0  0  0  0  0  0
   -6.1277   21.9618  -32.5586 H   0  0  0  0  0  0  0  0  0  0  0  0
   -3.9228   22.9421  -31.9220 H   0  0  0  0  0  0  0  0  0  0  0  0
    0.3319   24.9622  -27.7627 H   0  0  0  0  0  0  0  0  0  0  0  0
  1  2  2  0
  2  3  1  0
  3  4  1  0
  4  5  2  0
  5  6  1  0
  6  7  2  0
  7  8  1  0
  8  9  2  0
  2 10  1  0
 10 11  2  0
 11 12  1  0
 12 13  2  0
 13 14  1  0
 14 15  1  0
 15 16  2  0
 16 17  1  0
 17 18  2  0
 18 19  1  0
 18 20  1  0
 20 21  2  0
 13 22  1  0
 22 23  1  0
 22 24  2  0
  9  4  1  0
 24 10  1  0
 21 15  1  0
  5 25  1  0
  6 26  1  0
  7 27  1  0
  9 28  1  0
 11 29  1  0
 12 30  1  0
 16 31  1  0
 17 32  1  0
 20 33  1  0
 21 34  1  0
 24 35  1  0
M  CHG  3   3  -1  19  -1  23  -1
M  END
>  <UniqueID>  (9) 
9

>  <SMILES>  (9) 
O=C([N-]c1cccnc1)c1ccc(Oc2ccc([O-])cc2)c([O-])c1

>  <Energy>  (9) 
53.62722776079372

>  <Genealogy>  (9) 
O=C([N-]c1cccnc1)c1ccc(Oc2ccc([O-])cc2)c([O-])c1 (protonated)
O=C([N-]c1cccnc1)c1ccc(Oc2ccc([O-])cc2)c([O-])c1 (3D coordinates assigned)
O=C([N-]c1cccnc1)c1ccc(Oc2ccc([O-])cc2)c([O-])c1 (optimized conformer: 53.62722776079372 kcal/mol)

>  <smiles>  (9) 
O=C(Nc1cccnc1)c1ccc(Oc2ccc(O)cc2)c(O)c1

>  <score_type>  (9) 
oracle

>  <origin>  (9) 
adgpu

>  <m_score__min__energy>  (9) 
-10.619999999999999

>  <m_primary>  (9) 
energy

$$$$
9:0
     RDKit          3D

 45 49  0  0  0  0  0  0  0  0999 V2000
   -3.8960   25.3650  -30.5120 N   0  0  0  0  0  0  0  0  0  0  0  0
   -5.2190   24.8530  -30.6700 C   0  0  0  0  0  0  0  0  0  0  0  0
   -6.1990   25.5680  -30.3260 O   0  0  0  0  0  0  0  0  0  0  0  0
   -5.4420   23.4990  -31.2280 C   0  0  0  0  0  0  0  0  0  0  0  0
   -4.3980   22.5630  -31.2790 C   0  0  0  0  0  0  0  0  0  0  0  0
   -4.6160   21.2910  -31.8110 C   0  0  0  0  0  0  0  0  0  0  0  0
   -5.8900   20.9490  -32.2970 C   0  0  0  0  0  0  0  0  0  0  0  0
   -6.1570   19.6440  -32.8580 N   0  0  0  0  0  0  0  0  0  0  0  0
   -5.4320   19.1910  -34.0600 C   0  0  0  0  0  0  0  0  0  0  0  0
   -6.1200   17.9940  -34.7210 C   0  0  0  0  0  0  0  0  0  0  0  0
   -6.4180   16.9710  -33.7150 N   0  0  0  0  0  0  0  0  0  0  0  0
   -6.0100   15.6200  -33.9400 C   0  0  0  0  0  0  0  0  0  0  0  0
   -6.9470   14.7020  -34.3150 N   0  0  0  0  0  0  0  0  0  0  0  0
   -6.6250   13.3990  -34.5560 C   0  0  0  0  0  0  0  0  0  0  0  0
   -5.3390   12.9740  -34.4240 N   0  0  0  0  0  0  0  0  0  0  0  0
   -4.3880   13.8620  -34.0510 C   0  0  0  0  0  0  0  0  0  0  0  0
   -2.7540   13.5250  -33.8390 S   0  0  0  0  0  0  0  0  0  0  0  0
   -2.3750   15.1120  -33.4090 C   0  0  0  0  0  0  0  0  0  0  0  0
   -1.1170   15.6070  -33.0780 C   0  0  0  0  0  0  0  0  0  0  0  0
   -1.0010   16.9650  -32.7510 C   0  0  0  0  0  0  0  0  0  0  0  0
   -2.1330   17.7960  -32.7590 C   0  0  0  0  0  0  0  0  0  0  0  0
   -3.3960   17.2810  -33.0930 C   0  0  0  0  0  0  0  0  0  0  0  0
   -3.5160   15.9210  -33.4250 C   0  0  0  0  0  0  0  0  0  0  0  0
   -4.6730   15.1990  -33.7960 C   0  0  0  0  0  0  0  0  0  0  0  0
   -6.9230   17.3440  -32.3890 C   0  0  0  0  0  0  0  0  0  0  0  0
   -7.2630   18.8360  -32.3210 C   0  0  0  0  0  0  0  0  0  0  0  0
   -6.8900   21.8730  -32.2310 N   0  0  0  0  0  0  0  0  0  0  0  0
   -6.7000   23.1170  -31.7180 C   0  0  0  0  0  0  0  0  0  0  0  0
   -3.4910   26.0240  -31.2130 H   0  0  0  0  0  0  0  0  0  0  0  0
   -3.4022   22.8331  -30.8976 H   0  0  0  0  0  0  0  0  0  0  0  0
   -3.7950   20.5599  -31.8498 H   0  0  0  0  0  0  0  0  0  0  0  0
   -5.3872   20.0195  -34.7822 H   0  0  0  0  0  0  0  0  0  0  0  0
   -4.4227   18.8790  -33.7534 H   0  0  0  0  0  0  0  0  0  0  0  0
   -7.0570   18.3263  -35.1917 H   0  0  0  0  0  0  0  0  0  0  0  0
   -5.4512   17.5678  -35.4833 H   0  0  0  0  0  0  0  0  0  0  0  0
   -7.4082   12.6883  -34.8584 H   0  0  0  0  0  0  0  0  0  0  0  0
   -0.2357   14.9488  -33.0731 H   0  0  0  0  0  0  0  0  0  0  0  0
   -0.0180   17.3820  -32.4867 H   0  0  0  0  0  0  0  0  0  0  0  0
   -2.0294   18.8603  -32.5012 H   0  0  0  0  0  0  0  0  0  0  0  0
   -4.2808   17.9345  -33.0947 H   0  0  0  0  0  0  0  0  0  0  0  0
   -7.8299   16.7599  -32.1739 H   0  0  0  0  0  0  0  0  0  0  0  0
   -6.1385   17.1331  -31.6473 H   0  0  0  0  0  0  0  0  0  0  0  0
   -8.1707   19.0273  -32.9122 H   0  0  0  0  0  0  0  0  0  0  0  0
   -7.4279   19.1146  -31.2697 H   0  0  0  0  0  0  0  0  0  0  0  0
   -7.5379   23.8290  -31.6867 H   0  0  0  0  0  0  0  0  0  0  0  0
  1  2  1  0
  2  3  2  0
  2  4  1  0
  4  5  2  0
  5  6  1  0
  6  7  2  0
  7  8  1  0
  8  9  1  0
  9 10  1  0
 10 11  1  0
 11 12  1  0
 12 13  2  0
 13 14  1  0
 14 15  2  0
 15 16  1  0
 16 17  1  0
 17 18  1  0
 18 19  2  0
 19 20  1  0
 20 21  2  0
 21 22  1  0
 22 23  2  0
 23 24  1  0
 11 25  1  0
 25 26  1  0
  7 27  1  0
 27 28  2  0
 28  4  1  0
 26  8  1  0
 24 12  1  0
 24 16  2  0
 23 18  1  0
  1 29  1  0
  5 30  1  0
  6 31  1  0
  9 32  1  0
  9 33  1  0
 10 34  1  0
 10 35  1  0
 14 36  1  0
 19 37  1  0
 20 38  1  0
 21 39  1  0
 22 40  1  0
 25 41  1  0
 25 42  1  0
 26 43  1  0
 26 44  1  0
 28 45  1  0
M  CHG  1   1  -1
M  END
>  <UniqueID>  (10) 
10

>  <SMILES>  (10) 
[NH-]C(=O)c1ccc(N2CCN(c3ncnc4sc5ccccc5c34)CC2)nc1

>  <Energy>  (10) 
100.34923849681996

>  <Genealogy>  (10) 
[NH-]C(=O)c1ccc(N2CCN(c3ncnc4sc5ccccc5c34)CC2)nc1 (protonated)
[NH-]C(=O)c1ccc(N2CCN(c3ncnc4sc5ccccc5c34)CC2)nc1 (3D coordinates assigned)
[NH-]C(=O)c1ccc(N2CCN(c3ncnc4sc5ccccc5c34)CC2)nc1 (nonaromatic ring conformer: 100.34923849681996 kcal/mol)

>  <smiles>  (10) 
NC(=O)c1ccc(N2CCN(c3ncnc4sc5ccccc5c34)CC2)nc1

>  <score_type>  (10) 
oracle

>  <origin>  (10) 
adgpu

>  <m_score__min__energy>  (10) 
-10.67

>  <m_primary>  (10) 
energy

$$$$
10:0
     RDKit          3D

 56 59  0  0  0  0  0  0  0  0999 V2000
   -8.8190   19.7570  -31.4500 C   0  0  0  0  0  0  0  0  0  0  0  0
   -8.0280   21.0320  -31.4870 C   0  0  0  0  0  0  0  0  0  0  0  0
   -7.2480   21.3520  -32.6080 C   0  0  0  0  0  0  0  0  0  0  0  0
   -6.5440   22.5590  -32.6540 C   0  0  0  0  0  0  0  0  0  0  0  0
   -6.6340   23.4740  -31.5980 C   0  0  0  0  0  0  0  0  0  0  0  0
   -5.8990   24.7030  -31.6800 N   0  0  0  0  0  0  0  0  0  0  0  0
   -5.1620   25.3040  -30.6110 C   0  0  0  0  0  0  0  0  0  0  0  0
   -5.7830   25.9720  -29.7420 O   0  0  0  0  0  0  0  0  0  0  0  0
   -3.7590   25.0470  -30.4690 N   0  0  0  0  0  0  0  0  0  0  0  0
   -3.1120   23.7690  -30.3770 C   0  0  0  0  0  0  0  0  0  0  0  0
   -3.2880   22.7820  -31.3640 C   0  0  0  0  0  0  0  0  0  0  0  0
   -2.6420   21.5380  -31.2580 C   0  0  0  0  0  0  0  0  0  0  0  0
   -2.8390   20.5080  -32.3060 C   0  0  0  0  0  0  0  0  0  0  0  0
   -1.9180   19.6820  -32.5400 O   0  0  0  0  0  0  0  0  0  0  0  0
   -4.0690   20.3860  -33.0330 N   0  0  0  0  0  0  0  0  0  0  0  0
   -4.9170   19.2290  -33.0770 C   0  0  0  0  0  0  0  0  0  0  0  0
   -5.2670   18.6930  -34.3230 C   0  0  0  0  0  0  0  0  0  0  0  0
   -6.1020   17.5740  -34.4030 C   0  0  0  0  0  0  0  0  0  0  0  0
   -6.6050   16.9920  -33.2350 C   0  0  0  0  0  0  0  0  0  0  0  0
   -6.2810   17.5340  -31.9890 C   0  0  0  0  0  0  0  0  0  0  0  0
   -5.4470   18.6530  -31.9070 C   0  0  0  0  0  0  0  0  0  0  0  0
   -1.8020   21.2940  -30.1610 C   0  0  0  0  0  0  0  0  0  0  0  0
   -1.6470   22.2570  -29.1640 C   0  0  0  0  0  0  0  0  0  0  0  0
   -2.3120   23.4870  -29.2540 C   0  0  0  0  0  0  0  0  0  0  0  0
   -2.1590   24.4490  -28.1980 N   0  0  0  0  0  0  0  0  0  0  0  0
   -3.1940   24.5800  -27.1680 C   0  0  0  0  0  0  0  0  0  0  0  0
   -2.6410   25.3080  -25.9380 C   0  0  0  0  0  0  0  0  0  0  0  0
   -1.2800   24.8420  -25.6390 N   0  0  0  0  0  0  0  0  0  0  0  0
   -0.3190   25.1840  -26.7060 C   0  0  0  0  0  0  0  0  0  0  0  0
   -0.9450   25.2670  -28.1150 C   0  0  0  0  0  0  0  0  0  0  0  0
   -7.4040   23.1470  -30.4680 C   0  0  0  0  0  0  0  0  0  0  0  0
   -8.1090   21.9400  -30.4210 C   0  0  0  0  0  0  0  0  0  0  0  0
   -8.9988   19.4672  -30.4042 H   0  0  0  0  0  0  0  0  0  0  0  0
   -9.7822   19.9081  -31.9594 H   0  0  0  0  0  0  0  0  0  0  0  0
   -8.2558   18.9612  -31.9594 H   0  0  0  0  0  0  0  0  0  0  0  0
   -7.1900   20.6510  -33.4537 H   0  0  0  0  0  0  0  0  0  0  0  0
   -5.9150   22.7915  -33.5259 H   0  0  0  0  0  0  0  0  0  0  0  0
   -3.9379   22.9859  -32.2277 H   0  0  0  0  0  0  0  0  0  0  0  0
   -4.8827   19.1552  -35.2443 H   0  0  0  0  0  0  0  0  0  0  0  0
   -6.3631   17.1516  -35.3845 H   0  0  0  0  0  0  0  0  0  0  0  0
   -7.2558   16.1074  -33.2975 H   0  0  0  0  0  0  0  0  0  0  0  0
   -6.6826   17.0798  -31.0712 H   0  0  0  0  0  0  0  0  0  0  0  0
   -5.2041   19.0848  -30.9249 H   0  0  0  0  0  0  0  0  0  0  0  0
   -1.2628   20.3381  -30.0868 H   0  0  0  0  0  0  0  0  0  0  0  0
   -0.9978   22.0493  -28.3006 H   0  0  0  0  0  0  0  0  0  0  0  0
   -4.0403   25.1517  -27.5765 H   0  0  0  0  0  0  0  0  0  0  0  0
   -3.5242   23.5749  -26.8668 H   0  0  0  0  0  0  0  0  0  0  0  0
   -2.6189   26.3898  -26.1360 H   0  0  0  0  0  0  0  0  0  0  0  0
   -3.2895   25.0962  -25.0751 H   0  0  0  0  0  0  0  0  0  0  0  0
   -1.3030   23.8010  -25.5270 H   0  0  0  0  0  0  0  0  0  0  0  0
    0.1279   26.1606  -26.4684 H   0  0  0  0  0  0  0  0  0  0  0  0
    0.4237   24.3731  -26.7360 H   0  0  0  0  0  0  0  0  0  0  0  0
   -1.2008   26.3142  -28.3342 H   0  0  0  0  0  0  0  0  0  0  0  0
   -0.2157   24.8881  -28.8461 H   0  0  0  0  0  0  0  0  0  0  0  0
   -7.4521   23.8431  -29.6176 H   0  0  0  0  0  0  0  0  0  0  0  0
   -8.7295   21.7018  -29.5445 H   0  0  0  0  0  0  0  0  0  0  0  0
  1  2  1  0
  2  3  2  0
  3  4  1  0
  4  5  2  0
  5  6  1  0
  6  7  1  0
  7  8  2  0
  7  9  1  0
  9 10  1  0
 10 11  2  0
 11 12  1  0
 12 13  1  0
 13 14  2  0
 13 15  1  0
 15 16  1  0
 16 17  2  0
 17 18  1  0
 18 19  2  0
 19 20  1  0
 20 21  2  0
 12 22  2  0
 22 23  1  0
 23 24  2  0
 24 25  1  0
 25 26  1  0
 26 27  1  0
 27 28  1  0
 28 29  1  0
 29 30  1  0
  5 31  1  0
 31 32  2  0
 32  2  1  0
 24 10  1  0
 30 25  1  0
 21 16  1  0
  1 33  1  0
  1 34  1  0
  1 35  1  0
  3 36  1  0
  4 37  1  0
 11 38  1  0
 17 39  1  0
 18 40  1  0
 19 41  1  0
 20 42  1  0
 21 43  1  0
 22 44  1  0
 23 45  1  0
 26 46  1  0
 26 47  1  0
 27 48  1  0
 27 49  1  0
 28 50  1  0
 29 51  1  0
 29 52  1  0
 30 53  1  0
 30 54  1  0
 31 55  1  0
 32 56  1  0
M  CHG  3   6  -1   9  -1  15  -1
M  END
>  <UniqueID>  (11) 
11

>  <SMILES>  (11) 
Cc1ccc([N-]C(=O)[N-]c2cc(C(=O)[N-]c3ccccc3)ccc2N2CCNCC2)cc1

>  <Energy>  (11) 
80.73948029827787

>  <Genealogy>  (11) 
Cc1ccc([N-]C(=O)[N-]c2cc(C(=O)[N-]c3ccccc3)ccc2N2CCNCC2)cc1 (protonated)
Cc1ccc([N-]C(=O)[N-]c2cc(C(=O)[N-]c3ccccc3)ccc2N2CCNCC2)cc1 (3D coordinates assigned)
Cc1ccc([N-]C(=O)[N-]c2cc(C(=O)[N-]c3ccccc3)ccc2N2CCNCC2)cc1 (nonaromatic ring conformer: 80.73948029827787 kcal/mol)

>  <smiles>  (11) 
Cc1ccc(NC(=O)Nc2cc(C(=O)Nc3ccccc3)ccc2N2CCNCC2)cc1

>  <score_type>  (11) 
oracle

>  <origin>  (11) 
adgpu

>  <m_score__min__energy>  (11) 
-11.44

>  <m_primary>  (11) 
energy

$$$$
11:0
     RDKit          3D

 55 58  0  0  0  0  0  0  0  0999 V2000
   -1.6741   24.6920  -29.1630 H   0  0  0  0  0  0  0  0  0  0  0  0
   -2.0180   23.7000  -28.8350 C   0  0  0  0  0  0  0  0  0  0  0  0
   -1.0960   22.6600  -28.6850 C   0  0  0  0  0  0  0  0  0  0  0  0
   -0.0311   22.8378  -28.8955 H   0  0  0  0  0  0  0  0  0  0  0  0
   -1.5220   21.3930  -28.2680 C   0  0  0  0  0  0  0  0  0  0  0  0
   -0.3420   20.1040  -28.0620 S   0  0  0  0  0  0  0  0  0  0  0  0
   -0.6320   19.3770  -26.7800 O   0  0  0  0  0  0  0  0  0  0  0  0
    1.0530   20.6570  -27.9950 O   0  0  0  0  0  0  0  0  0  0  0  0
   -0.4560   18.9900  -29.3890 N   0  0  0  0  0  0  0  0  0  0  0  0
   -0.7780   19.3260  -30.6020 C   0  0  0  0  0  0  0  0  0  0  0  0
   -0.8540   18.4370  -31.6080 N   0  0  0  0  0  0  0  0  0  0  0  0
   -1.1890   19.1120  -32.6710 O   0  0  0  0  0  0  0  0  0  0  0  0
   -1.3360   20.3880  -32.3960 C   0  0  0  0  0  0  0  0  0  0  0  0
   -1.6950   21.4340  -33.3950 C   0  0  0  0  0  0  0  0  0  0  0  0
   -2.0090   22.3489  -32.8712 H   0  0  0  0  0  0  0  0  0  0  0  0
   -0.8210   21.6541  -34.0256 H   0  0  0  0  0  0  0  0  0  0  0  0
   -2.5200   21.0710  -34.0256 H   0  0  0  0  0  0  0  0  0  0  0  0
   -1.0790   20.5970  -31.0570 C   0  0  0  0  0  0  0  0  0  0  0  0
   -1.1066   21.5401  -30.4916 H   0  0  0  0  0  0  0  0  0  0  0  0
   -2.8790   21.1740  -28.0000 C   0  0  0  0  0  0  0  0  0  0  0  0
   -3.2199   20.1806  -27.6728 H   0  0  0  0  0  0  0  0  0  0  0  0
   -3.8020   22.2140  -28.1470 C   0  0  0  0  0  0  0  0  0  0  0  0
   -4.8652   22.0338  -27.9300 H   0  0  0  0  0  0  0  0  0  0  0  0
   -3.3840   23.4860  -28.5690 C   0  0  0  0  0  0  0  0  0  0  0  0
   -4.3600   24.5350  -28.7070 N   0  0  0  0  0  0  0  0  0  0  0  0
   -4.6240   25.0950  -27.8650 H   0  0  0  0  0  0  0  0  0  0  0  0
   -5.2340   24.8570  -30.1710 S   0  0  0  0  0  0  0  0  0  0  0  0
   -4.2780   25.3660  -31.2140 O   0  0  0  0  0  0  0  0  0  0  0  0
   -6.2730   25.9110  -29.9070 O   0  0  0  0  0  0  0  0  0  0  0  0
   -6.0410   23.3910  -30.7200 C   0  0  0  0  0  0  0  0  0  0  0  0
   -5.2960   22.2890  -31.1590 C   0  0  0  0  0  0  0  0  0  0  0  0
   -4.1971   22.3379  -31.1673 H   0  0  0  0  0  0  0  0  0  0  0  0
   -5.9460   21.1260  -31.5870 C   0  0  0  0  0  0  0  0  0  0  0  0
   -5.3568   20.2630  -31.9306 H   0  0  0  0  0  0  0  0  0  0  0  0
   -7.3460   21.0580  -31.5790 C   0  0  0  0  0  0  0  0  0  0  0  0
   -8.1670   19.6080  -32.1480 S   0  0  0  0  0  0  0  0  0  0  0  0
   -9.2770   20.0020  -33.0840 O   0  0  0  0  0  0  0  0  0  0  0  0
   -8.7670   18.8750  -30.9780 O   0  0  0  0  0  0  0  0  0  0  0  0
   -7.0280   18.5920  -32.9950 N   0  0  0  0  0  0  0  0  0  0  0  0
   -6.2910   19.3500  -34.0060 C   0  0  0  0  0  0  0  0  0  0  0  0
   -6.8559   19.3761  -34.9495 H   0  0  0  0  0  0  0  0  0  0  0  0
   -6.1322   20.3911  -33.6885 H   0  0  0  0  0  0  0  0  0  0  0  0
   -4.9710   18.6250  -34.2030 C   0  0  0  0  0  0  0  0  0  0  0  0
   -5.0293   17.9445  -35.0653 H   0  0  0  0  0  0  0  0  0  0  0  0
   -4.1445   19.3221  -34.4054 H   0  0  0  0  0  0  0  0  0  0  0  0
   -4.7530   17.8410  -32.9180 C   0  0  0  0  0  0  0  0  0  0  0  0
   -4.6196   16.7716  -33.1384 H   0  0  0  0  0  0  0  0  0  0  0  0
   -3.8500   18.1742  -32.3856 H   0  0  0  0  0  0  0  0  0  0  0  0
   -6.0100   18.0600  -32.0880 C   0  0  0  0  0  0  0  0  0  0  0  0
   -6.3489   17.1071  -31.6554 H   0  0  0  0  0  0  0  0  0  0  0  0
   -5.8186   18.7557  -31.2577 H   0  0  0  0  0  0  0  0  0  0  0  0
   -8.0910   22.1650  -31.1500 C   0  0  0  0  0  0  0  0  0  0  0  0
   -9.1901   22.1199  -31.1507 H   0  0  0  0  0  0  0  0  0  0  0  0
   -7.4410   23.3270  -30.7210 C   0  0  0  0  0  0  0  0  0  0  0  0
   -8.0301   24.1925  -30.3836 H   0  0  0  0  0  0  0  0  0  0  0  0
  1  2  1  0
  2  3  2  0
  3  4  1  0
  3  5  1  0
  5  6  1  0
  6  7  2  0
  6  8  2  0
  6  9  1  0
  9 10  2  0
 10 11  1  0
 11 12  1  0
 12 13  1  0
 13 14  1  0
 14 15  1  0
 14 16  1  0
 14 17  1  0
 13 18  2  0
 18 19  1  0
  5 20  2  0
 20 21  1  0
 20 22  1  0
 22 23  1  0
 22 24  2  0
 24 25  1  0
 25 26  1  0
 25 27  1  0
 27 28  2  0
 27 29  2  0
 27 30  1  0
 30 31  2  0
 31 32  1  0
 31 33  1  0
 33 34  1  0
 33 35  2  0
 35 36  1  0
 36 37  2  0
 36 38  2  0
 36 39  1  0
 39 40  1  0
 40 41  1  0
 40 42  1  0
 40 43  1  0
 43 44  1  0
 43 45  1  0
 43 46  1  0
 46 47  1  0
 46 48  1  0
 46 49  1  0
 49 50  1  0
 49 51  1  0
 35 52  1  0
 52 53  1  0
 52 54  2  0
 54 55  1  0
 24  2  1  0
 54 30  1  0
 18 10  1  0
 49 39  1  0
M  CHG  1  11  -1
M  END
>  <UniqueID>  (12) 
12

>  <SMILES>  (12) 
Cc1c/c(=N\S(=O)(=O)c2ccc(NS(=O)(=O)c3ccc(S(=O)(=O)N4CCCC4)cc3)cc2)[n-]o1

>  <Energy>  (12) 
94.09505126188408

>  <Genealogy>  (12) 
Cc1cc(=NS(=O)(=O)c2ccc(NS(=O)(=O)c3ccc(S(=O)(=O)N4CCCC4)cc3)cc2)[n-]o1 (protonated)
Cc1c/c(=N\S(=O)(=O)c2ccc(NS(=O)(=O)c3ccc(S(=O)(=O)N4CCCC4)cc3)cc2)[n-]o1 (cis-trans isomerization)
Cc1c/c(=N\S(=O)(=O)c2ccc(NS(=O)(=O)c3ccc(S(=O)(=O)N4CCCC4)cc3)cc2)[n-]o1 (3D coordinates assigned)
Cc1c/c(=N\S(=O)(=O)c2ccc(NS(=O)(=O)c3ccc(S(=O)(=O)N4CCCC4)cc3)cc2)[n-]o1 (nonaromatic ring conformer: 94.09505126188408 kcal/mol)

>  <smiles>  (12) 
Cc1cc(=NS(=O)(=O)c2ccc(NS(=O)(=O)c3ccc(S(=O)(=O)N4CCCC4)cc3)cc2)[nH]o1

>  <score_type>  (12) 
oracle

>  <origin>  (12) 
adgpu

>  <m_score__min__energy>  (12) 
-12.539999999999999

>  <m_primary>  (12) 
energy

$$$$
12:0
     RDKit          3D

 56 59  0  0  0  0  0  0  0  0999 V2000
   -3.6430   25.2970  -30.8380 O   0  0  0  0  0  0  0  0  0  0  0  0
   -4.0340   24.3930  -30.0550 C   0  0  0  0  0  0  0  0  0  0  0  0
   -5.4140   24.0010  -30.1070 N   0  0  0  0  0  0  0  0  0  0  0  0
   -5.9690   22.8660  -30.7880 C   0  0  0  0  0  0  0  0  0  0  0  0
   -7.1020   22.2460  -30.2500 C   0  0  0  0  0  0  0  0  0  0  0  0
   -7.6690   21.1360  -30.8810 C   0  0  0  0  0  0  0  0  0  0  0  0
   -7.1180   20.6430  -32.0690 C   0  0  0  0  0  0  0  0  0  0  0  0
   -7.8200   19.2260  -32.8440 S   0  0  0  0  0  0  0  0  0  0  0  0
   -8.0350   18.1450  -31.8230 O   0  0  0  0  0  0  0  0  0  0  0  0
   -9.1510   19.5930  -33.4370 O   0  0  0  0  0  0  0  0  0  0  0  0
   -6.7890   18.6330  -34.1010 N   0  0  0  0  0  0  0  0  0  0  0  0
   -5.6910   17.7620  -33.8290 C   0  0  0  0  0  0  0  0  0  0  0  0
   -4.3730   18.2360  -33.9050 C   0  0  0  0  0  0  0  0  0  0  0  0
   -3.2960   17.3760  -33.6530 C   0  0  0  0  0  0  0  0  0  0  0  0
   -1.6450   17.9820  -33.7510 S   0  0  0  0  0  0  0  0  0  0  0  0
   -0.7110   17.0360  -33.0460 O   0  0  0  0  0  0  0  0  0  0  0  0
   -1.2450   18.0550  -35.1990 O   0  0  0  0  0  0  0  0  0  0  0  0
   -1.5450   19.5700  -33.0340 N   0  0  0  0  0  0  0  0  0  0  0  0
   -2.3670   20.5240  -33.7990 C   0  0  0  0  0  0  0  0  0  0  0  0
   -2.5880   21.8250  -33.0010 C   0  0  0  0  0  0  0  0  0  0  0  0
   -1.6490   21.9360  -31.9510 O   0  0  0  0  0  0  0  0  0  0  0  0
   -1.8690   20.9120  -30.9930 C   0  0  0  0  0  0  0  0  0  0  0  0
   -1.9980   19.5150  -31.6370 C   0  0  0  0  0  0  0  0  0  0  0  0
   -3.5430   16.0370  -33.3170 C   0  0  0  0  0  0  0  0  0  0  0  0
   -4.8540   15.5590  -33.2550 C   0  0  0  0  0  0  0  0  0  0  0  0
   -5.9310   16.4150  -33.5180 C   0  0  0  0  0  0  0  0  0  0  0  0
   -7.2410   15.9400  -33.4640 O   0  0  0  0  0  0  0  0  0  0  0  0
   -6.0000   21.2770  -32.6280 C   0  0  0  0  0  0  0  0  0  0  0  0
   -5.4370   22.3920  -32.0010 C   0  0  0  0  0  0  0  0  0  0  0  0
   -3.0830   23.8260  -29.0640 C   0  0  0  0  0  0  0  0  0  0  0  0
   -3.3670   22.6030  -28.4270 C   0  0  0  0  0  0  0  0  0  0  0  0
   -2.4860   22.0740  -27.4810 C   0  0  0  0  0  0  0  0  0  0  0  0
   -1.3160   22.7590  -27.1520 C   0  0  0  0  0  0  0  0  0  0  0  0
   -1.0240   23.9770  -27.7700 C   0  0  0  0  0  0  0  0  0  0  0  0
   -1.8980   24.5140  -28.7210 C   0  0  0  0  0  0  0  0  0  0  0  0
   -1.5720   25.7210  -29.3300 O   0  0  0  0  0  0  0  0  0  0  0  0
   -7.5495   22.6353  -29.3236 H   0  0  0  0  0  0  0  0  0  0  0  0
   -8.5518   20.6478  -30.4424 H   0  0  0  0  0  0  0  0  0  0  0  0
   -4.1840   19.2883  -34.1638 H   0  0  0  0  0  0  0  0  0  0  0  0
   -1.8558   20.7633  -34.7432 H   0  0  0  0  0  0  0  0  0  0  0  0
   -3.3460   20.0634  -33.9975 H   0  0  0  0  0  0  0  0  0  0  0  0
   -2.4766   22.6858  -33.6768 H   0  0  0  0  0  0  0  0  0  0  0  0
   -3.5993   21.8056  -32.5686 H   0  0  0  0  0  0  0  0  0  0  0  0
   -1.0229   20.8993  -30.2902 H   0  0  0  0  0  0  0  0  0  0  0  0
   -2.8177   21.1322  -30.4816 H   0  0  0  0  0  0  0  0  0  0  0  0
   -1.3786   18.7968  -31.0797 H   0  0  0  0  0  0  0  0  0  0  0  0
   -3.0503   19.1960  -31.6075 H   0  0  0  0  0  0  0  0  0  0  0  0
   -2.7021   15.3614  -33.1017 H   0  0  0  0  0  0  0  0  0  0  0  0
   -5.0414   14.5059  -32.9985 H   0  0  0  0  0  0  0  0  0  0  0  0
   -8.0230   16.5630  -33.3020 H   0  0  0  0  0  0  0  0  0  0  0  0
   -5.5642   20.8958  -33.5633 H   0  0  0  0  0  0  0  0  0  0  0  0
   -4.5751   22.9006  -32.4575 H   0  0  0  0  0  0  0  0  0  0  0  0
   -4.2903   22.0596  -28.6764 H   0  0  0  0  0  0  0  0  0  0  0  0
   -2.7153   21.1147  -26.9941 H   0  0  0  0  0  0  0  0  0  0  0  0
   -0.6241   22.3402  -26.4065 H   0  0  0  0  0  0  0  0  0  0  0  0
   -0.1021   24.5167  -27.5076 H   0  0  0  0  0  0  0  0  0  0  0  0
  1  2  2  0
  2  3  1  0
  3  4  1  0
  4  5  2  0
  5  6  1  0
  6  7  2  0
  7  8  1  0
  8  9  2  0
  8 10  2  0
  8 11  1  0
 11 12  1  0
 12 13  2  0
 13 14  1  0
 14 15  1  0
 15 16  2  0
 15 17  2  0
 15 18  1  0
 18 19  1  0
 19 20  1  0
 20 21  1  0
 21 22  1  0
 22 23  1  0
 14 24  2  0
 24 25  1  0
 25 26  2  0
 26 27  1  0
  7 28  1  0
 28 29  2  0
  2 30  1  0
 30 31  2  0
 31 32  1  0
 32 33  2  0
 33 34  1  0
 34 35  2  0
 35 36  1  0
 29  4  1  0
 35 30  1  0
 26 12  1  0
 23 18  1  0
  5 37  1  0
  6 38  1  0
 13 39  1  0
 19 40  1  0
 19 41  1  0
 20 42  1  0
 20 43  1  0
 22 44  1  0
 22 45  1  0
 23 46  1  0
 23 47  1  0
 24 48  1  0
 25 49  1  0
 27 50  1  0
 28 51  1  0
 29 52  1  0
 31 53  1  0
 32 54  1  0
 33 55  1  0
 34 56  1  0
M  CHG  3   3  -1  11  -1  36  -1
M  END
>  <UniqueID>  (13) 
13

>  <SMILES>  (13) 
O=C([N-]c1ccc(S(=O)(=O)[N-]c2cc(S(=O)(=O)N3CCOCC3)ccc2O)cc1)c1ccccc1[O-]

>  <Energy>  (13) 
76.94256657015265

>  <Genealogy>  (13) 
O=C([N-]c1ccc(S(=O)(=O)[N-]c2cc(S(=O)(=O)N3CCOCC3)ccc2O)cc1)c1ccccc1[O-] (protonated)
O=C([N-]c1ccc(S(=O)(=O)[N-]c2cc(S(=O)(=O)N3CCOCC3)ccc2O)cc1)c1ccccc1[O-] (3D coordinates assigned)
O=C([N-]c1ccc(S(=O)(=O)[N-]c2cc(S(=O)(=O)N3CCOCC3)ccc2O)cc1)c1ccccc1[O-] (nonaromatic ring conformer: 76.94256657015265 kcal/mol)

>  <smiles>  (13) 
O=C(Nc1ccc(S(=O)(=O)Nc2cc(S(=O)(=O)N3CCOCC3)ccc2O)cc1)c1ccccc1O

>  <score_type>  (13) 
oracle

>  <origin>  (13) 
adgpu

>  <m_score__min__energy>  (13) 
-13.44

>  <m_primary>  (13) 
energy

$$$$
13:0
     RDKit          3D

 48 50  0  0  0  0  0  0  0  0999 V2000
   -5.2450   25.5710  -30.1740 C   0  0  0  0  0  0  0  0  0  0  0  0
   -3.8880   25.2430  -30.4550 O   0  0  0  0  0  0  0  0  0  0  0  0
   -3.1370   24.2940  -29.7450 C   0  0  0  0  0  0  0  0  0  0  0  0
   -1.8160   24.5480  -29.3240 C   0  0  0  0  0  0  0  0  0  0  0  0
   -1.0950   23.5660  -28.6410 C   0  0  0  0  0  0  0  0  0  0  0  0
   -1.6850   22.3320  -28.3570 C   0  0  0  0  0  0  0  0  0  0  0  0
   -2.9970   22.0760  -28.7580 C   0  0  0  0  0  0  0  0  0  0  0  0
   -3.7230   23.0520  -29.4500 C   0  0  0  0  0  0  0  0  0  0  0  0
   -5.0300   22.7760  -29.8500 O   0  0  0  0  0  0  0  0  0  0  0  0
   -5.3970   22.4680  -31.4880 S   0  0  0  0  0  0  0  0  0  0  0  0
   -5.4250   23.7620  -32.2510 O   0  0  0  0  0  0  0  0  0  0  0  0
   -6.7520   21.8250  -31.5820 O   0  0  0  0  0  0  0  0  0  0  0  0
   -4.1810   21.3970  -32.1740 C   0  0  0  0  0  0  0  0  0  0  0  0
   -3.0560   21.9270  -32.8140 C   0  0  0  0  0  0  0  0  0  0  0  0
   -2.1370   21.0760  -33.4310 C   0  0  0  0  0  0  0  0  0  0  0  0
   -2.3330   19.6910  -33.4190 C   0  0  0  0  0  0  0  0  0  0  0  0
   -1.1350   18.6730  -34.2080 Cl  0  0  0  0  0  0  0  0  0  0  0  0
   -3.4610   19.1430  -32.7700 C   0  0  0  0  0  0  0  0  0  0  0  0
   -3.6800   17.7210  -32.7650 N   0  0  0  0  0  0  0  0  0  0  0  0
   -5.1600   16.9900  -33.2980 S   0  0  0  0  0  0  0  0  0  0  0  0
   -5.0840   16.7360  -34.7770 O   0  0  0  0  0  0  0  0  0  0  0  0
   -5.3420   15.6720  -32.5980 O   0  0  0  0  0  0  0  0  0  0  0  0
   -6.5150   18.0650  -32.9700 C   0  0  0  0  0  0  0  0  0  0  0  0
   -6.7400   19.1970  -33.7650 C   0  0  0  0  0  0  0  0  0  0  0  0
   -7.7930   20.0670  -33.4680 C   0  0  0  0  0  0  0  0  0  0  0  0
   -8.6350   19.8120  -32.3750 C   0  0  0  0  0  0  0  0  0  0  0  0
   -9.7210   20.7820  -32.0160 C   0  0  0  0  0  0  0  0  0  0  0  0
   -8.4050   18.6790  -31.5790 C   0  0  0  0  0  0  0  0  0  0  0  0
   -7.3570   17.8070  -31.8810 C   0  0  0  0  0  0  0  0  0  0  0  0
   -4.3820   20.0110  -32.1560 C   0  0  0  0  0  0  0  0  0  0  0  0
   -5.3955   25.6074  -29.0849 H   0  0  0  0  0  0  0  0  0  0  0  0
   -5.4828   26.5525  -30.6100 H   0  0  0  0  0  0  0  0  0  0  0  0
   -5.9049   24.8065  -30.6100 H   0  0  0  0  0  0  0  0  0  0  0  0
   -1.3515   25.5227  -29.5340 H   0  0  0  0  0  0  0  0  0  0  0  0
   -0.0600   23.7648  -28.3259 H   0  0  0  0  0  0  0  0  0  0  0  0
   -1.1151   21.5616  -27.8169 H   0  0  0  0  0  0  0  0  0  0  0  0
   -3.4613   21.1053  -28.5297 H   0  0  0  0  0  0  0  0  0  0  0  0
   -2.8951   23.0150  -32.8313 H   0  0  0  0  0  0  0  0  0  0  0  0
   -1.2522   21.4978  -33.9303 H   0  0  0  0  0  0  0  0  0  0  0  0
   -2.9720   17.0850  -32.3360 H   0  0  0  0  0  0  0  0  0  0  0  0
   -6.0859   19.4015  -34.6254 H   0  0  0  0  0  0  0  0  0  0  0  0
   -7.9623   20.9555  -34.0940 H   0  0  0  0  0  0  0  0  0  0  0  0
   -9.8014   20.8538  -30.9213 H   0  0  0  0  0  0  0  0  0  0  0  0
   -9.4808   21.7717  -32.4317 H   0  0  0  0  0  0  0  0  0  0  0  0
  -10.6774   20.4320  -32.4317 H   0  0  0  0  0  0  0  0  0  0  0  0
   -9.0532   18.4771  -30.7135 H   0  0  0  0  0  0  0  0  0  0  0  0
   -7.1920   16.9136  -31.2609 H   0  0  0  0  0  0  0  0  0  0  0  0
   -5.2700   19.5966  -31.6562 H   0  0  0  0  0  0  0  0  0  0  0  0
  1  2  1  0
  2  3  1  0
  3  4  2  0
  4  5  1  0
  5  6  2  0
  6  7  1  0
  7  8  2  0
  8  9  1  0
  9 10  1  0
 10 11  2  0
 10 12  2  0
 10 13  1  0
 13 14  2  0
 14 15  1  0
 15 16  2  0
 16 17  1  0
 16 18  1  0
 18 19  1  0
 19 20  1  0
 20 21  2  0
 20 22  2  0
 20 23  1  0
 23 24  2  0
 24 25  1  0
 25 26  2  0
 26 27  1  0
 26 28  1  0
 28 29  2  0
 18 30  2  0
  8  3  1  0
 30 13  1  0
 29 23  1  0
  1 31  1  0
  1 32  1  0
  1 33  1  0
  4 34  1  0
  5 35  1  0
  6 36  1  0
  7 37  1  0
 14 38  1  0
 15 39  1  0
 19 40  1  0
 24 41  1  0
 25 42  1  0
 27 43  1  0
 27 44  1  0
 27 45  1  0
 28 46  1  0
 29 47  1  0
 30 48  1  0
M  END
>  <UniqueID>  (14) 
14

>  <SMILES>  (14) 
COc1ccccc1OS(=O)(=O)c1ccc(Cl)c(NS(=O)(=O)c2ccc(C)cc2)c1

>  <Energy>  (14) 
52.89113482133642

>  <Genealogy>  (14) 
COc1ccccc1OS(=O)(=O)c1ccc(Cl)c(NS(=O)(=O)c2ccc(C)cc2)c1 (3D coordinates assigned)
COc1ccccc1OS(=O)(=O)c1ccc(Cl)c(NS(=O)(=O)c2ccc(C)cc2)c1 (optimized conformer: 52.89113482133642 kcal/mol)

>  <smiles>  (14) 
COc1ccccc1OS(=O)(=O)c1ccc(Cl)c(NS(=O)(=O)c2ccc(C)cc2)c1

>  <score_type>  (14) 
oracle

>  <origin>  (14) 
adgpu

>  <m_score__min__energy>  (14) 
-10.300000000000001

>  <m_primary>  (14) 
energy

$$$$
14:0
     RDKit          3D

 43 45  0  0  0  0  0  0  0  0999 V2000
   -4.9340   25.9270  -31.3480 H   0  0  0  0  0  0  0  0  0  0  0  0
   -4.2380   25.6820  -30.6090 N   0  0  0  0  0  0  0  0  0  0  0  0
   -3.7960   24.4740  -30.4700 C   0  0  0  0  0  0  0  0  0  0  0  0
   -2.8920   24.1950  -29.4980 N   0  0  0  0  0  0  0  0  0  0  0  0
   -2.4040   22.9370  -29.3250 C   0  0  0  0  0  0  0  0  0  0  0  0
   -1.4650   22.6760  -28.2650 N   0  0  0  0  0  0  0  0  0  0  0  0
   -1.3830   21.3570  -27.6240 C   0  0  0  0  0  0  0  0  0  0  0  0
   -2.3039   20.7953  -27.8394 H   0  0  0  0  0  0  0  0  0  0  0  0
   -0.5048   20.8289  -28.0238 H   0  0  0  0  0  0  0  0  0  0  0  0
   -1.2200   21.4900  -26.0950 C   0  0  0  0  0  0  0  0  0  0  0  0
   -2.2060   21.3567  -25.6259 H   0  0  0  0  0  0  0  0  0  0  0  0
   -0.5016   20.7205  -25.7758 H   0  0  0  0  0  0  0  0  0  0  0  0
   -0.6710   22.8070  -25.6740 N   0  0  0  0  0  0  0  0  0  0  0  0
   -1.4670   23.4860  -25.5880 H   0  0  0  0  0  0  0  0  0  0  0  0
   -0.0450   22.7010  -24.3460 C   0  0  0  0  0  0  0  0  0  0  0  0
   -0.8116   22.8308  -23.5679 H   0  0  0  0  0  0  0  0  0  0  0  0
    0.4223   21.7110  -24.2389 H   0  0  0  0  0  0  0  0  0  0  0  0
    0.7221   23.4820  -24.2389 H   0  0  0  0  0  0  0  0  0  0  0  0
    0.2950   23.3370  -26.6570 C   0  0  0  0  0  0  0  0  0  0  0  0
    0.7589   24.2501  -26.2556 H   0  0  0  0  0  0  0  0  0  0  0  0
    1.0680   22.5781  -26.8482 H   0  0  0  0  0  0  0  0  0  0  0  0
   -0.4220   23.6680  -27.9740 C   0  0  0  0  0  0  0  0  0  0  0  0
   -0.8837   24.6631  -27.8928 H   0  0  0  0  0  0  0  0  0  0  0  0
    0.3157   23.6529  -28.7899 H   0  0  0  0  0  0  0  0  0  0  0  0
   -2.8650   21.9040  -30.1550 C   0  0  0  0  0  0  0  0  0  0  0  0
   -2.5065   20.8735  -30.0151 H   0  0  0  0  0  0  0  0  0  0  0  0
   -3.7900   22.2050  -31.1660 C   0  0  0  0  0  0  0  0  0  0  0  0
   -4.3170   21.1590  -32.0810 C   0  0  0  0  0  0  0  0  0  0  0  0
   -5.7000   20.9960  -32.2890 C   0  0  0  0  0  0  0  0  0  0  0  0
   -6.4113   21.6566  -31.7717 H   0  0  0  0  0  0  0  0  0  0  0  0
   -6.1760   20.0010  -33.1480 C   0  0  0  0  0  0  0  0  0  0  0  0
   -7.2590   19.8887  -33.3047 H   0  0  0  0  0  0  0  0  0  0  0  0
   -5.2880   19.1470  -33.8100 C   0  0  0  0  0  0  0  0  0  0  0  0
   -5.8170   18.1670  -34.6630 O   0  0  0  0  0  0  0  0  0  0  0  0
   -6.4240   16.9580  -34.2180 C   0  0  0  0  0  0  0  0  0  0  0  0
   -6.4349   16.9363  -33.1183 H   0  0  0  0  0  0  0  0  0  0  0  0
   -7.4556   16.9049  -34.5960 H   0  0  0  0  0  0  0  0  0  0  0  0
   -5.8503   16.0989  -34.5960 H   0  0  0  0  0  0  0  0  0  0  0  0
   -3.9060   19.2970  -33.5990 C   0  0  0  0  0  0  0  0  0  0  0  0
   -3.1982   18.6300  -34.1129 H   0  0  0  0  0  0  0  0  0  0  0  0
   -3.4270   20.2900  -32.7390 C   0  0  0  0  0  0  0  0  0  0  0  0
   -2.3441   20.3929  -32.5752 H   0  0  0  0  0  0  0  0  0  0  0  0
   -4.2350   23.4850  -31.2920 N   0  0  0  0  0  0  0  0  0  0  0  0
  1  2  1  0
  2  3  2  0
  3  4  1  0
  4  5  2  0
  5  6  1  0
  6  7  1  0
  7  8  1  0
  7  9  1  0
  7 10  1  0
 10 11  1  0
 10 12  1  0
 10 13  1  0
 13 14  1  0
 13 15  1  0
 15 16  1  0
 15 17  1  0
 15 18  1  0
 13 19  1  0
 19 20  1  0
 19 21  1  0
 19 22  1  0
 22 23  1  0
 22 24  1  0
  5 25  1  0
 25 26  1  0
 25 27  2  0
 27 28  1  0
 28 29  2  0
 29 30  1  0
 29 31  1  0
 31 32  1  0
 31 33  2  0
 33 34  1  0
 34 35  1  0
 35 36  1  0
 35 37  1  0
 35 38  1  0
 33 39  1  0
 39 40  1  0
 39 41  2  0
 41 42  1  0
 27 43  1  0
 43  3  1  0
 22  6  1  0
 41 28  1  0
M  CHG  2  13   1  43  -1
M  END
>  <UniqueID>  (15) 
15

>  <SMILES>  (15) 
[H]/N=c1/nc(N2CC[NH+](C)CC2)cc(-c2ccc(OC)cc2)[n-]1

>  <Energy>  (15) 
56.42658312731872

>  <Genealogy>  (15) 
COc1ccc(-c2cc(N3CC[NH+](C)CC3)nc(=N)[n-]2)cc1 (protonated)
[H]/N=c1/nc(N2CC[NH+](C)CC2)cc(-c2ccc(OC)cc2)[n-]1 (cis-trans isomerization)
[H]/N=c1/nc(N2CC[NH+](C)CC2)cc(-c2ccc(OC)cc2)[n-]1 (3D coordinates assigned)
[H]/N=c1/nc(N2CC[NH+](C)CC2)cc(-c2ccc(OC)cc2)[n-]1 (nonaromatic ring conformer: 56.42658312731872 kcal/mol)

>  <smiles>  (15) 
COc1ccc(-c2cc(N3CCN(C)CC3)nc(=N)[nH]2)cc1

>  <score_type>  (15) 
oracle

>  <origin>  (15) 
adgpu

>  <m_score__min__energy>  (15) 
-7.6100000000000003

>  <m_primary>  (15) 
energy

$$$$
15:0
     RDKit          3D

 29 30  0  0  0  0  0  0  0  0999 V2000
   -1.4480   25.0350  -28.6190 C   0  0  0  0  0  0  0  0  0  0  0  0
   -2.3330   24.1090  -28.2170 C   0  0  0  0  0  0  0  0  0  0  0  0
   -3.4300   24.4990  -27.2630 C   0  0  0  0  0  0  0  0  0  0  0  0
   -2.2100   22.6880  -28.7060 C   0  0  0  0  0  0  0  0  0  0  0  0
   -1.8870   22.6720  -30.5010 S   0  0  0  0  0  0  0  0  0  0  0  0
   -3.6140   22.8510  -30.9270 C   0  0  0  0  0  0  0  0  0  0  0  0
   -4.2210   24.0580  -30.8090 N   0  0  0  0  0  0  0  0  0  0  0  0
   -5.5270   24.2190  -31.1360 C   0  0  0  0  0  0  0  0  0  0  0  0
   -6.0530   25.3590  -31.0230 O   0  0  0  0  0  0  0  0  0  0  0  0
   -6.2770   23.1250  -31.6000 C   0  0  0  0  0  0  0  0  0  0  0  0
   -7.6480   23.3310  -32.0100 C   0  0  0  0  0  0  0  0  0  0  0  0
   -8.7450   23.5050  -32.3390 N   0  0  0  0  0  0  0  0  0  0  0  0
   -5.6330   21.8680  -31.7020 C   0  0  0  0  0  0  0  0  0  0  0  0
   -6.3090   20.6310  -32.1630 C   0  0  0  0  0  0  0  0  0  0  0  0
   -5.7730   19.7270  -33.0770 C   0  0  0  0  0  0  0  0  0  0  0  0
   -6.5750   18.5970  -33.2900 C   0  0  0  0  0  0  0  0  0  0  0  0
   -7.7400   18.5910  -32.5370 C   0  0  0  0  0  0  0  0  0  0  0  0
   -7.7660   19.9880  -31.6060 S   0  0  0  0  0  0  0  0  0  0  0  0
   -4.3170   21.7780  -31.3680 N   0  0  0  0  0  0  0  0  0  0  0  0
   -0.6426   24.7601  -29.3160 H   0  0  0  0  0  0  0  0  0  0  0  0
   -1.5282   26.0686  -28.2514 H   0  0  0  0  0  0  0  0  0  0  0  0
   -3.0779   24.3738  -26.2284 H   0  0  0  0  0  0  0  0  0  0  0  0
   -3.7060   25.5504  -27.4317 H   0  0  0  0  0  0  0  0  0  0  0  0
   -4.3078   23.8578  -27.4317 H   0  0  0  0  0  0  0  0  0  0  0  0
   -1.3792   22.1930  -28.1819 H   0  0  0  0  0  0  0  0  0  0  0  0
   -3.1499   22.1537  -28.5034 H   0  0  0  0  0  0  0  0  0  0  0  0
   -4.8100   19.8850  -33.5845 H   0  0  0  0  0  0  0  0  0  0  0  0
   -6.3058   17.7910  -33.9885 H   0  0  0  0  0  0  0  0  0  0  0  0
   -8.5121   17.8076  -32.5479 H   0  0  0  0  0  0  0  0  0  0  0  0
  1  2  2  0
  2  3  1  0
  2  4  1  0
  4  5  1  0
  5  6  1  0
  6  7  2  0
  7  8  1  0
  8  9  2  0
  8 10  1  0
 10 11  1  0
 11 12  3  0
 10 13  2  0
 13 14  1  0
 14 15  2  0
 15 16  1  0
 16 17  2  0
 17 18  1  0
 13 19  1  0
 19  6  1  0
 18 14  1  0
  1 20  1  0
  1 21  1  0
  3 22  1  0
  3 23  1  0
  3 24  1  0
  4 25  1  0
  4 26  1  0
 15 27  1  0
 16 28  1  0
 17 29  1  0
M  CHG  1  19  -1
M  END
>  <UniqueID>  (16) 
16

>  <SMILES>  (16) 
C=C(C)CSc1nc(=O)c(C#N)c(-c2cccs2)[n-]1

>  <Energy>  (16) 
52.97058000500342

>  <Genealogy>  (16) 
C=C(C)CSc1nc(=O)c(C#N)c(-c2cccs2)[n-]1 (protonated)
C=C(C)CSc1nc(=O)c(C#N)c(-c2cccs2)[n-]1 (3D coordinates assigned)
C=C(C)CSc1nc(=O)c(C#N)c(-c2cccs2)[n-]1 (optimized conformer: 52.97058000500342 kcal/mol)

>  <smiles>  (16) 
C=C(C)CSc1nc(=O)c(C#N)c(-c2cccs2)[nH]1

>  <score_type>  (16) 
oracle

>  <origin>  (16) 
adgpu

>  <m_score__min__energy>  (16) 
-7.5599999999999996

>  <m_primary>  (16) 
energy

$$$$
16:0
     RDKit          3D

 51 53  0  0  0  0  0  0  0  0999 V2000
   -1.2720   21.5550  -31.8340 C   0  0  0  0  0  0  0  0  0  0  0  0
   -0.9090   22.0490  -30.5500 O   0  0  0  0  0  0  0  0  0  0  0  0
   -1.1120   21.3590  -29.3440 C   0  0  0  0  0  0  0  0  0  0  0  0
   -0.7160   20.0170  -29.1750 C   0  0  0  0  0  0  0  0  0  0  0  0
   -0.9380   19.3650  -27.9590 C   0  0  0  0  0  0  0  0  0  0  0  0
   -1.5530   20.0380  -26.9040 C   0  0  0  0  0  0  0  0  0  0  0  0
   -1.9500   21.3680  -27.0600 C   0  0  0  0  0  0  0  0  0  0  0  0
   -1.7290   22.0320  -28.2740 C   0  0  0  0  0  0  0  0  0  0  0  0
   -2.1420   23.3960  -28.4150 N   0  0  0  0  0  0  0  0  0  0  0  0
   -3.5450   23.7100  -28.6870 C   0  0  0  0  0  0  0  0  0  0  0  0
   -3.7140   24.1010  -30.1180 C   0  0  0  0  0  0  0  0  0  0  0  0
   -3.5140   25.2950  -30.4730 O   0  0  0  0  0  0  0  0  0  0  0  0
   -4.0440   23.1010  -31.0880 N   0  0  0  0  0  0  0  0  0  0  0  0
   -5.3770   22.6860  -31.3990 C   0  0  0  0  0  0  0  0  0  0  0  0
   -6.4460   23.3890  -30.8290 C   0  0  0  0  0  0  0  0  0  0  0  0
   -7.7650   23.0220  -31.1080 C   0  0  0  0  0  0  0  0  0  0  0  0
   -8.0250   21.9610  -31.9780 C   0  0  0  0  0  0  0  0  0  0  0  0
   -6.9680   21.2750  -32.5810 C   0  0  0  0  0  0  0  0  0  0  0  0
   -5.6420   21.6380  -32.3100 C   0  0  0  0  0  0  0  0  0  0  0  0
   -4.3240   20.7980  -33.2010 S   0  0  0  0  0  0  0  0  0  0  0  0
   -5.1640   19.2140  -33.1520 C   0  0  0  0  0  0  0  0  0  0  0  0
   -5.4900   18.6300  -31.9200 C   0  0  0  0  0  0  0  0  0  0  0  0
   -6.1400   17.3930  -31.8830 C   0  0  0  0  0  0  0  0  0  0  0  0
   -6.4710   16.7400  -33.0750 C   0  0  0  0  0  0  0  0  0  0  0  0
   -6.1520   17.3250  -34.3050 C   0  0  0  0  0  0  0  0  0  0  0  0
   -5.5020   18.5620  -34.3440 C   0  0  0  0  0  0  0  0  0  0  0  0
   -0.9550   24.6560  -28.2610 S   0  0  0  0  0  0  0  0  0  0  0  0
   -1.0080   25.3380  -26.6180 C   0  0  0  0  0  0  0  0  0  0  0  0
   -1.2340   25.7570  -29.2470 O   0  0  0  0  0  0  0  0  0  0  0  0
    0.4110   24.0920  -28.5320 O   0  0  0  0  0  0  0  0  0  0  0  0
   -1.9197   20.6735  -31.7181 H   0  0  0  0  0  0  0  0  0  0  0  0
   -1.8122   22.3366  -32.3883 H   0  0  0  0  0  0  0  0  0  0  0  0
   -0.3647   21.2730  -32.3883 H   0  0  0  0  0  0  0  0  0  0  0  0
   -0.2303   19.4807  -30.0035 H   0  0  0  0  0  0  0  0  0  0  0  0
   -0.6266   18.3175  -27.8338 H   0  0  0  0  0  0  0  0  0  0  0  0
   -1.7256   19.5212  -25.9484 H   0  0  0  0  0  0  0  0  0  0  0  0
   -2.4377   21.8959  -26.2272 H   0  0  0  0  0  0  0  0  0  0  0  0
   -4.1636   22.8253  -28.4759 H   0  0  0  0  0  0  0  0  0  0  0  0
   -3.8581   24.5467  -28.0453 H   0  0  0  0  0  0  0  0  0  0  0  0
   -6.2456   24.2363  -30.1567 H   0  0  0  0  0  0  0  0  0  0  0  0
   -8.5984   23.5686  -30.6425 H   0  0  0  0  0  0  0  0  0  0  0  0
   -9.0633   21.6651  -32.1887 H   0  0  0  0  0  0  0  0  0  0  0  0
   -7.1777   20.4454  -33.2723 H   0  0  0  0  0  0  0  0  0  0  0  0
   -5.2343   19.1452  -30.9823 H   0  0  0  0  0  0  0  0  0  0  0  0
   -6.3914   16.9328  -30.9160 H   0  0  0  0  0  0  0  0  0  0  0  0
   -6.9822   15.7664  -33.0451 H   0  0  0  0  0  0  0  0  0  0  0  0
   -6.4128   16.8113  -35.2421 H   0  0  0  0  0  0  0  0  0  0  0  0
   -5.2559   19.0234  -35.3118 H   0  0  0  0  0  0  0  0  0  0  0  0
   -0.9447   24.5240  -25.8809 H   0  0  0  0  0  0  0  0  0  0  0  0
   -0.1606   26.0254  -26.4788 H   0  0  0  0  0  0  0  0  0  0  0  0
   -1.9515   25.8862  -26.4788 H   0  0  0  0  0  0  0  0  0  0  0  0
  1  2  1  0
  2  3  1  0
  3  4  2  0
  4  5  1  0
  5  6  2  0
  6  7  1  0
  7  8  2  0
  8  9  1  0
  9 10  1  0
 10 11  1  0
 11 12  2  0
 11 13  1  0
 13 14  1  0
 14 15  2  0
 15 16  1  0
 16 17  2  0
 17 18  1  0
 18 19  2  0
 19 20  1  0
 20 21  1  0
 21 22  2  0
 22 23  1  0
 23 24  2  0
 24 25  1  0
 25 26  2  0
  9 27  1  0
 27 28  1  0
 27 29  2  0
 27 30  2  0
  8  3  1  0
 19 14  1  0
 26 21  1  0
  1 31  1  0
  1 32  1  0
  1 33  1  0
  4 34  1  0
  5 35  1  0
  6 36  1  0
  7 37  1  0
 10 38  1  0
 10 39  1  0
 15 40  1  0
 16 41  1  0
 17 42  1  0
 18 43  1  0
 22 44  1  0
 23 45  1  0
 24 46  1  0
 25 47  1  0
 26 48  1  0
 28 49  1  0
 28 50  1  0
 28 51  1  0
M  CHG  1  13  -1
M  END
>  <UniqueID>  (17) 
17

>  <SMILES>  (17) 
COc1ccccc1N(CC(=O)[N-]c1ccccc1Sc1ccccc1)S(C)(=O)=O

>  <Energy>  (17) 
53.06351275862993

>  <Genealogy>  (17) 
COc1ccccc1N(CC(=O)[N-]c1ccccc1Sc1ccccc1)S(C)(=O)=O (protonated)
COc1ccccc1N(CC(=O)[N-]c1ccccc1Sc1ccccc1)S(C)(=O)=O (3D coordinates assigned)
COc1ccccc1N(CC(=O)[N-]c1ccccc1Sc1ccccc1)S(C)(=O)=O (optimized conformer: 53.06351275862993 kcal/mol)

>  <smiles>  (17) 
COc1ccccc1N(CC(=O)Nc1ccccc1Sc1ccccc1)S(C)(=O)=O

>  <score_type>  (17) 
oracle

>  <origin>  (17) 
adgpu

>  <m_score__min__energy>  (17) 
-11

>  <m_primary>  (17) 
energy

$$$$
17:0
     RDKit          3D

 57 60  0  0  0  0  0  0  0  0999 V2000
   -5.7090   25.6830  -29.7220 O   0  0  0  0  0  0  0  0  0  0  0  0
   -4.9140   24.8800  -30.2780 C   0  0  0  0  0  0  0  0  0  0  0  0
   -3.5100   25.1590  -30.2370 N   0  0  0  0  0  0  0  0  0  0  0  0
   -2.5880   24.5060  -29.3550 C   0  0  0  0  0  0  0  0  0  0  0  0
   -2.3600   25.0460  -28.0840 C   0  0  0  0  0  0  0  0  0  0  0  0
   -1.5000   24.4040  -27.1910 C   0  0  0  0  0  0  0  0  0  0  0  0
   -0.8870   23.2010  -27.5510 C   0  0  0  0  0  0  0  0  0  0  0  0
   -1.1260   22.6360  -28.8100 C   0  0  0  0  0  0  0  0  0  0  0  0
   -0.4110   21.0780  -29.2360 S   0  0  0  0  0  0  0  0  0  0  0  0
   -0.0710   21.0770  -30.7020 O   0  0  0  0  0  0  0  0  0  0  0  0
    0.8680   20.8940  -28.4650 O   0  0  0  0  0  0  0  0  0  0  0  0
   -1.4950   19.7460  -28.9010 N   0  0  0  0  0  0  0  0  0  0  0  0
   -2.6960   20.2010  -28.1860 C   0  0  0  0  0  0  0  0  0  0  0  0
   -2.5140   19.8470  -26.7250 C   0  0  0  0  0  0  0  0  0  0  0  0
   -1.6140   18.6330  -26.7460 C   0  0  0  0  0  0  0  0  0  0  0  0
   -0.8540   18.7170  -28.0620 C   0  0  0  0  0  0  0  0  0  0  0  0
   -1.9690   23.2980  -29.7150 C   0  0  0  0  0  0  0  0  0  0  0  0
   -5.4440   23.7120  -31.0200 C   0  0  0  0  0  0  0  0  0  0  0  0
   -6.7460   23.7390  -31.5480 C   0  0  0  0  0  0  0  0  0  0  0  0
   -7.2140   22.6770  -32.3260 C   0  0  0  0  0  0  0  0  0  0  0  0
   -6.3850   21.5890  -32.6030 C   0  0  0  0  0  0  0  0  0  0  0  0
   -5.0860   21.5420  -32.0800 C   0  0  0  0  0  0  0  0  0  0  0  0
   -4.0210   20.1880  -32.4580 S   0  0  0  0  0  0  0  0  0  0  0  0
   -3.3850   20.4080  -33.8040 O   0  0  0  0  0  0  0  0  0  0  0  0
   -2.9280   20.1340  -31.4260 O   0  0  0  0  0  0  0  0  0  0  0  0
   -4.9270   18.6910  -32.4480 N   0  0  0  0  0  0  0  0  0  0  0  0
   -5.8050   18.5950  -31.2590 C   0  0  0  0  0  0  0  0  0  0  0  0
   -7.2750   18.8990  -31.6000 C   0  0  0  0  0  0  0  0  0  0  0  0
   -7.8150   18.0270  -32.5840 O   0  0  0  0  0  0  0  0  0  0  0  0
   -6.8620   17.5870  -33.5450 C   0  0  0  0  0  0  0  0  0  0  0  0
   -5.6660   18.5380  -33.7170 C   0  0  0  0  0  0  0  0  0  0  0  0
   -4.6250   22.5980  -31.2780 C   0  0  0  0  0  0  0  0  0  0  0  0
   -2.8603   25.9797  -27.7876 H   0  0  0  0  0  0  0  0  0  0  0  0
   -1.3047   24.8458  -26.2027 H   0  0  0  0  0  0  0  0  0  0  0  0
   -0.2140   22.6957  -26.8427 H   0  0  0  0  0  0  0  0  0  0  0  0
   -1.7760   19.3270  -29.8200 H   0  0  0  0  0  0  0  0  0  0  0  0
   -2.8105   21.2893  -28.2978 H   0  0  0  0  0  0  0  0  0  0  0  0
   -3.5968   19.7187  -28.5934 H   0  0  0  0  0  0  0  0  0  0  0  0
   -2.0387   20.6754  -26.1793 H   0  0  0  0  0  0  0  0  0  0  0  0
   -3.4700   19.6535  -26.2165 H   0  0  0  0  0  0  0  0  0  0  0  0
   -0.9160   18.6565  -25.8961 H   0  0  0  0  0  0  0  0  0  0  0  0
   -2.1865   17.6974  -26.6629 H   0  0  0  0  0  0  0  0  0  0  0  0
    0.1933   18.9930  -27.8699 H   0  0  0  0  0  0  0  0  0  0  0  0
   -0.8736   17.7437  -28.5742 H   0  0  0  0  0  0  0  0  0  0  0  0
   -2.1461   22.8685  -30.7121 H   0  0  0  0  0  0  0  0  0  0  0  0
   -7.4000   24.6005  -31.3478 H   0  0  0  0  0  0  0  0  0  0  0  0
   -8.2401   22.6985  -32.7218 H   0  0  0  0  0  0  0  0  0  0  0  0
   -6.7524   20.7661  -33.2337 H   0  0  0  0  0  0  0  0  0  0  0  0
   -5.7389   17.5759  -30.8504 H   0  0  0  0  0  0  0  0  0  0  0  0
   -5.4656   19.3412  -30.5256 H   0  0  0  0  0  0  0  0  0  0  0  0
   -7.8735   18.8032  -30.6821 H   0  0  0  0  0  0  0  0  0  0  0  0
   -7.3101   19.9181  -32.0127 H   0  0  0  0  0  0  0  0  0  0  0  0
   -6.4807   16.6045  -33.2299 H   0  0  0  0  0  0  0  0  0  0  0  0
   -7.3807   17.5477  -34.5142 H   0  0  0  0  0  0  0  0  0  0  0  0
   -4.9884   18.1297  -34.4813 H   0  0  0  0  0  0  0  0  0  0  0  0
   -6.0431   19.5244  -34.0249 H   0  0  0  0  0  0  0  0  0  0  0  0
   -3.6138   22.5538  -30.8473 H   0  0  0  0  0  0  0  0  0  0  0  0
  1  2  2  0
  2  3  1  0
  3  4  1  0
  4  5  2  0
  5  6  1  0
  6  7  2  0
  7  8  1  0
  8  9  1  0
  9 10  2  0
  9 11  2  0
  9 12  1  0
 12 13  1  0
 13 14  1  0
 14 15  1  0
 15 16  1  0
  8 17  2  0
  2 18  1  0
 18 19  2  0
 19 20  1  0
 20 21  2  0
 21 22  1  0
 22 23  1  0
 23 24  2  0
 23 25  2  0
 23 26  1  0
 26 27  1  0
 27 28  1  0
 28 29  1  0
 29 30  1  0
 30 31  1  0
 22 32  2  0
 17  4  1  0
 32 18  1  0
 16 12  1  0
 31 26  1  0
  5 33  1  0
  6 34  1  0
  7 35  1  0
 12 36  1  0
 13 37  1  0
 13 38  1  0
 14 39  1  0
 14 40  1  0
 15 41  1  0
 15 42  1  0
 16 43  1  0
 16 44  1  0
 17 45  1  0
 19 46  1  0
 20 47  1  0
 21 48  1  0
 27 49  1  0
 27 50  1  0
 28 51  1  0
 28 52  1  0
 30 53  1  0
 30 54  1  0
 31 55  1  0
 31 56  1  0
 32 57  1  0
M  CHG  2   3  -1  12   1
M  END
>  <UniqueID>  (18) 
18

>  <SMILES>  (18) 
O=C([N-]c1cccc(S(=O)(=O)[NH+]2CCCC2)c1)c1cccc(S(=O)(=O)N2CCOCC2)c1

>  <Energy>  (18) 
75.86436758408864

>  <Genealogy>  (18) 
O=C([N-]c1cccc(S(=O)(=O)[NH+]2CCCC2)c1)c1cccc(S(=O)(=O)N2CCOCC2)c1 (protonated)
O=C([N-]c1cccc(S(=O)(=O)[NH+]2CCCC2)c1)c1cccc(S(=O)(=O)N2CCOCC2)c1 (3D coordinates assigned)
O=C([N-]c1cccc(S(=O)(=O)[NH+]2CCCC2)c1)c1cccc(S(=O)(=O)N2CCOCC2)c1 (nonaromatic ring conformer: 75.86436758408864 kcal/mol)

>  <smiles>  (18) 
O=C(Nc1cccc(S(=O)(=O)N2CCCC2)c1)c1cccc(S(=O)(=O)N2CCOCC2)c1

>  <score_type>  (18) 
oracle

>  <origin>  (18) 
adgpu

>  <m_score__min__energy>  (18) 
-11.529999999999999

>  <m_primary>  (18) 
energy

$$$$
18:0
     RDKit          3D

 70 73  0  0  0  0  0  0  0  0999 V2000
    1.2200   19.1690  -27.8590 C   0  0  0  0  0  0  0  0  0  0  0  0
    0.6390   19.2660  -29.2460 C   0  0  0  0  0  0  0  0  0  0  0  0
    1.4290   18.8340  -30.3230 C   0  0  0  0  0  0  0  0  0  0  0  0
    0.9720   18.9410  -31.6300 C   0  0  0  0  0  0  0  0  0  0  0  0
   -0.3010   19.4420  -31.9020 C   0  0  0  0  0  0  0  0  0  0  0  0
   -0.6420   19.6500  -33.2830 N   0  0  0  0  0  0  0  0  0  0  0  0
   -1.7600   19.0820  -33.9870 C   0  0  0  0  0  0  0  0  0  0  0  0
   -1.5850   18.2490  -34.9110 O   0  0  0  0  0  0  0  0  0  0  0  0
   -3.1030   19.3830  -33.5880 N   0  0  0  0  0  0  0  0  0  0  0  0
   -4.1350   18.4080  -33.3690 C   0  0  0  0  0  0  0  0  0  0  0  0
   -3.8410   17.0790  -33.0350 C   0  0  0  0  0  0  0  0  0  0  0  0
   -4.8650   16.1270  -32.9320 C   0  0  0  0  0  0  0  0  0  0  0  0
   -4.4650   14.4520  -32.5640 S   0  0  0  0  0  0  0  0  0  0  0  0
   -2.7140   14.1800  -32.7600 C   0  0  0  0  0  0  0  0  0  0  0  0
   -5.1860   13.5280  -33.5040 O   0  0  0  0  0  0  0  0  0  0  0  0
   -4.8740   14.1370  -31.1540 O   0  0  0  0  0  0  0  0  0  0  0  0
   -6.2010   16.5200  -33.1370 C   0  0  0  0  0  0  0  0  0  0  0  0
   -6.5020   17.8560  -33.4090 C   0  0  0  0  0  0  0  0  0  0  0  0
   -5.4750   18.8010  -33.5360 C   0  0  0  0  0  0  0  0  0  0  0  0
   -5.7830   20.1320  -33.8340 O   0  0  0  0  0  0  0  0  0  0  0  0
   -5.5260   21.1850  -32.9480 C   0  0  0  0  0  0  0  0  0  0  0  0
   -6.5520   21.7830  -32.2010 C   0  0  0  0  0  0  0  0  0  0  0  0
   -6.2410   22.7850  -31.2840 C   0  0  0  0  0  0  0  0  0  0  0  0
   -4.9150   23.2270  -31.1410 C   0  0  0  0  0  0  0  0  0  0  0  0
   -4.5610   24.2600  -30.1410 C   0  0  0  0  0  0  0  0  0  0  0  0
   -3.6240   25.2920  -30.4630 N   0  0  0  0  0  0  0  0  0  0  0  0
   -5.0930   24.2520  -28.9980 O   0  0  0  0  0  0  0  0  0  0  0  0
   -3.9250   22.6330  -31.9420 C   0  0  0  0  0  0  0  0  0  0  0  0
   -4.2420   21.6170  -32.7860 N   0  0  0  0  0  0  0  0  0  0  0  0
   -1.1640   19.7610  -30.8290 C   0  0  0  0  0  0  0  0  0  0  0  0
   -2.5180   20.0390  -31.0500 O   0  0  0  0  0  0  0  0  0  0  0  0
   -0.6720   19.7670  -29.5030 C   0  0  0  0  0  0  0  0  0  0  0  0
   -1.6850   20.5370  -28.2490 S   0  0  0  0  0  0  0  0  0  0  0  0
   -3.1130   20.1060  -28.4260 O   0  0  0  0  0  0  0  0  0  0  0  0
   -1.2640   20.1730  -26.8540 O   0  0  0  0  0  0  0  0  0  0  0  0
   -1.5520   22.3170  -28.4740 C   0  0  0  0  0  0  0  0  0  0  0  0
   -0.0780   22.7730  -28.3640 C   0  0  0  0  0  0  0  0  0  0  0  0
    0.0600   24.2490  -27.9400 C   0  0  0  0  0  0  0  0  0  0  0  0
   -1.1060   25.0170  -28.4140 N   0  0  0  0  0  0  0  0  0  0  0  0
   -0.8790   26.4670  -28.2710 C   0  0  0  0  0  0  0  0  0  0  0  0
   -2.3420   24.6110  -27.6970 C   0  0  0  0  0  0  0  0  0  0  0  0
   -2.4350   23.0800  -27.4770 C   0  0  0  0  0  0  0  0  0  0  0  0
    0.4198   19.3026  -27.1161 H   0  0  0  0  0  0  0  0  0  0  0  0
    1.6842   18.1809  -27.7242 H   0  0  0  0  0  0  0  0  0  0  0  0
    1.9800   19.9527  -27.7242 H   0  0  0  0  0  0  0  0  0  0  0  0
    2.4232   18.4051  -30.1291 H   0  0  0  0  0  0  0  0  0  0  0  0
    1.6215   18.6270  -32.4604 H   0  0  0  0  0  0  0  0  0  0  0  0
   -2.7982   16.7804  -32.8522 H   0  0  0  0  0  0  0  0  0  0  0  0
   -2.2412   14.1066  -31.7695 H   0  0  0  0  0  0  0  0  0  0  0  0
   -2.5481   13.2453  -33.3157 H   0  0  0  0  0  0  0  0  0  0  0  0
   -2.2723   15.0203  -33.3157 H   0  0  0  0  0  0  0  0  0  0  0  0
   -7.0080   15.7745  -33.0829 H   0  0  0  0  0  0  0  0  0  0  0  0
   -7.5504   18.1683  -33.5242 H   0  0  0  0  0  0  0  0  0  0  0  0
   -7.5954   21.4629  -32.3383 H   0  0  0  0  0  0  0  0  0  0  0  0
   -7.0367   23.2317  -30.6697 H   0  0  0  0  0  0  0  0  0  0  0  0
   -2.6400   25.2460  -30.1090 H   0  0  0  0  0  0  0  0  0  0  0  0
   -2.8871   22.9929  -31.8852 H   0  0  0  0  0  0  0  0  0  0  0  0
   -2.9220   20.0900  -31.9780 H   0  0  0  0  0  0  0  0  0  0  0  0
   -1.9151   22.5531  -29.4851 H   0  0  0  0  0  0  0  0  0  0  0  0
    0.4299   22.1440  -27.6181 H   0  0  0  0  0  0  0  0  0  0  0  0
    0.3759   22.6706  -29.3607 H   0  0  0  0  0  0  0  0  0  0  0  0
    0.1158   24.3100  -26.8431 H   0  0  0  0  0  0  0  0  0  0  0  0
    0.9753   24.6694  -28.3821 H   0  0  0  0  0  0  0  0  0  0  0  0
   -0.8381   26.7282  -27.2032 H   0  0  0  0  0  0  0  0  0  0  0  0
    0.0726   26.7383  -28.7515 H   0  0  0  0  0  0  0  0  0  0  0  0
   -1.7021   27.0161  -28.7515 H   0  0  0  0  0  0  0  0  0  0  0  0
   -2.3583   25.1084  -26.7160 H   0  0  0  0  0  0  0  0  0  0  0  0
   -3.1983   24.9080  -28.3203 H   0  0  0  0  0  0  0  0  0  0  0  0
   -2.1058   22.8446  -26.4541 H   0  0  0  0  0  0  0  0  0  0  0  0
   -3.4792   22.7705  -27.6315 H   0  0  0  0  0  0  0  0  0  0  0  0
  1  2  1  0
  2  3  2  0
  3  4  1  0
  4  5  2  0
  5  6  1  0
  6  7  1  0
  7  8  2  0
  7  9  1  0
  9 10  1  0
 10 11  2  0
 11 12  1  0
 12 13  1  0
 13 14  1  0
 13 15  2  0
 13 16  2  0
 12 17  2  0
 17 18  1  0
 18 19  2  0
 19 20  1  0
 20 21  1  0
 21 22  2  0
 22 23  1  0
 23 24  2  0
 24 25  1  0
 25 26  1  0
 25 27  2  0
 24 28  1  0
 28 29  2  0
  5 30  1  0
 30 31  1  0
 30 32  2  0
 32 33  1  0
 33 34  2  0
 33 35  2  0
 33 36  1  0
 36 37  1  0
 37 38  1  0
 38 39  1  0
 39 40  1  0
 39 41  1  0
 41 42  1  0
 32  2  1  0
 42 36  1  0
 19 10  1  0
 29 21  1  0
  1 43  1  0
  1 44  1  0
  1 45  1  0
  3 46  1  0
  4 47  1  0
 11 48  1  0
 14 49  1  0
 14 50  1  0
 14 51  1  0
 17 52  1  0
 18 53  1  0
 22 54  1  0
 23 55  1  0
 26 56  1  0
 28 57  1  0
 31 58  1  0
 36 59  1  0
 37 60  1  0
 37 61  1  0
 38 62  1  0
 38 63  1  0
 40 64  1  0
 40 65  1  0
 40 66  1  0
 41 67  1  0
 41 68  1  0
 42 69  1  0
 42 70  1  0
M  CHG  3   6  -1   9  -1  26  -1
M  END
>  <UniqueID>  (19) 
19

>  <SMILES>  (19) 
Cc1ccc([N-]C(=O)[N-]c2cc(S(C)(=O)=O)ccc2Oc2ccc(C([NH-])=O)cn2)c(O)c1S(=O)(=O)C1CCN(C)CC1

>  <Energy>  (19) 
105.29887811701808

>  <Genealogy>  (19) 
Cc1ccc([N-]C(=O)[N-]c2cc(S(C)(=O)=O)ccc2Oc2ccc(C([NH-])=O)cn2)c(O)c1S(=O)(=O)C1CCN(C)CC1 (protonated)
Cc1ccc([N-]C(=O)[N-]c2cc(S(C)(=O)=O)ccc2Oc2ccc(C([NH-])=O)cn2)c(O)c1S(=O)(=O)C1CCN(C)CC1 (3D coordinates assigned)
Cc1ccc([N-]C(=O)[N-]c2cc(S(C)(=O)=O)ccc2Oc2ccc(C([NH-])=O)cn2)c(O)c1S(=O)(=O)C1CCN(C)CC1 (nonaromatic ring conformer: 105.29887811701808 kcal/mol)

>  <smiles>  (19) 
Cc1ccc(NC(=O)Nc2cc(S(C)(=O)=O)ccc2Oc2ccc(C(N)=O)cn2)c(O)c1S(=O)(=O)C1CCN(C)CC1

>  <score_type>  (19) 
oracle

>  <origin>  (19) 
adgpu

>  <m_score__min__energy>  (19) 
-12.69

>  <m_primary>  (19) 
energy

$$$$
19:0
     RDKit          3D

 46 48  0  0  1  0  0  0  0  0999 V2000
   -5.6990   16.8310  -34.6640 C   0  0  0  0  0  0  0  0  0  0  0  0
   -6.3110   17.9210  -33.8440 C   0  0  0  0  0  0  0  0  0  0  0  0
   -5.8240   19.2130  -33.8430 C   0  0  0  0  0  0  0  0  0  0  0  0
   -6.4440   20.1640  -33.0590 C   0  0  0  0  0  0  0  0  0  0  0  0
   -5.9710   21.3640  -33.0730 N   0  0  0  0  0  0  0  0  0  0  0  0
   -6.6300   22.6660  -32.1520 S   0  0  0  0  0  0  0  0  0  0  0  0
   -7.8150   22.2440  -31.3470 O   0  0  0  0  0  0  0  0  0  0  0  0
   -7.0330   23.7740  -33.0920 O   0  0  0  0  0  0  0  0  0  0  0  0
   -5.3920   23.2920  -31.0960 C   0  0  0  0  0  0  0  0  0  0  0  0
   -5.5360   24.4230  -30.3350 C   0  0  0  0  0  0  0  0  0  0  0  0
   -4.5290   24.8690  -29.5240 C   0  0  0  0  0  0  0  0  0  0  0  0
   -3.2930   24.2080  -29.4150 C   0  0  0  0  0  0  0  0  0  0  0  0
   -2.3090   24.7360  -28.5540 N   0  0  0  0  0  0  0  0  0  0  0  0
   -2.4270   25.0710  -27.2070 C   0  0  0  0  0  0  0  0  0  0  0  0
   -3.5560   24.8870  -26.6630 O   0  0  0  0  0  0  0  0  0  0  0  0
   -1.3970   25.6140  -26.3370 C   0  0  0  0  0  0  0  0  0  0  0  0
   -1.7540   26.0740  -25.0720 C   0  0  0  0  0  0  0  0  0  0  0  0
   -0.8460   26.6050  -24.1810 C   0  0  0  0  0  0  0  0  0  0  0  0
    0.4830   26.7040  -24.5130 C   0  0  0  0  0  0  0  0  0  0  0  0
    0.8550   26.2570  -25.7560 C   0  0  0  0  0  0  0  0  0  0  0  0
   -0.0650   25.7220  -26.6550 C   0  0  0  0  0  0  0  0  0  0  0  0
    0.4410   25.3120  -27.8620 O   0  0  0  0  0  0  0  0  0  0  0  0
   -3.1710   23.0810  -30.1840 C   0  0  0  0  0  0  0  0  0  0  0  0
   -4.1970   22.6200  -31.0150 C   0  0  0  0  0  0  0  0  0  0  0  0
   -7.5110   19.9030  -32.2830 N   0  0  0  0  0  0  0  0  0  0  0  0
   -7.9670   18.6250  -32.3060 C   0  0  0  0  0  0  0  0  0  0  0  0
   -9.1420   18.1880  -31.4990 C   0  0  0  0  0  0  0  0  0  0  0  0
   -7.3800   17.6710  -33.0640 N   0  0  0  0  0  0  0  0  0  0  0  0
   -5.2704   16.0677  -33.9979 H   0  0  0  0  0  0  0  0  0  0  0  0
   -6.4713   16.3720  -35.2987 H   0  0  0  0  0  0  0  0  0  0  0  0
   -4.9050   17.2514  -35.2987 H   0  0  0  0  0  0  0  0  0  0  0  0
   -4.9530   19.4806  -34.4593 H   0  0  0  0  0  0  0  0  0  0  0  0
   -6.4814   24.9837  -30.3775 H   0  0  0  0  0  0  0  0  0  0  0  0
   -4.6929   25.7821  -28.9329 H   0  0  0  0  0  0  0  0  0  0  0  0
   -1.3590   24.8920  -29.0040 H   0  0  0  0  0  0  0  0  0  0  0  0
   -2.8097   26.0107  -24.7697 H   0  0  0  0  0  0  0  0  0  0  0  0
   -1.1889   26.9525  -23.1953 H   0  0  0  0  0  0  0  0  0  0  0  0
    1.2188   27.1242  -23.8116 H   0  0  0  0  0  0  0  0  0  0  0  0
    1.9124   26.3232  -26.0517 H   0  0  0  0  0  0  0  0  0  0  0  0
    1.3740   25.5170  -28.1950 H   0  0  0  0  0  0  0  0  0  0  0  0
   -2.2280   22.5158  -30.1464 H   0  0  0  0  0  0  0  0  0  0  0  0
   -4.0450   21.7080  -31.6110 H   0  0  0  0  0  0  0  0  0  0  0  0
   -8.9048   18.2762  -30.4285 H   0  0  0  0  0  0  0  0  0  0  0  0
  -10.0071   18.8245  -31.7365 H   0  0  0  0  0  0  0  0  0  0  0  0
   -9.3810   17.1409  -31.7365 H   0  0  0  0  0  0  0  0  0  0  0  0
   -7.7320   16.6760  -33.0850 H   0  0  0  0  0  0  0  0  0  0  0  0
  1  2  1  0
  2  3  2  0
  3  4  1  0
  4  5  2  0
  5  6  1  0
  6  7  2  0
  6  8  2  0
  6  9  1  0
  9 10  2  0
 10 11  1  0
 11 12  2  0
 12 13  1  0
 13 14  1  0
 14 15  2  0
 14 16  1  0
 16 17  2  0
 17 18  1  0
 18 19  2  0
 19 20  1  0
 20 21  2  0
 21 22  1  0
 12 23  1  0
 23 24  2  0
  4 25  1  0
 25 26  2  0
 26 27  1  0
 26 28  1  0
 28  2  1  0
 24  9  1  0
 21 16  1  0
  1 29  1  0
  1 30  1  0
  1 31  1  0
  3 32  1  0
 10 33  1  0
 11 34  1  0
 13 35  1  0
 17 36  1  0
 18 37  1  0
 19 38  1  0
 20 39  1  0
 22 40  1  0
 23 41  1  0
 24 42  1  0
 27 43  1  0
 27 44  1  0
 27 45  1  0
 28 46  1  0
M  END
>  <smiles>  (20) 
Cc1cc(=NS(=O)(=O)c2ccc(NC(=O)c3ccccc3O)cc2)nc(C)[nH]1

>  <score_type>  (20) 
oracle

>  <origin>  (20) 
adgpu

>  <m_score__min__energy>  (20) 
-9.5399999999999991

>  <m_primary>  (20) 
energy

$$$$
20:0
     RDKit          3D

 52 54  0  0  0  0  0  0  0  0999 V2000
   -2.6020   16.2500  -35.0140 C   0  0  0  0  0  0  0  0  0  0  0  0
   -3.9940   16.0360  -34.8020 O   0  0  0  0  0  0  0  0  0  0  0  0
   -4.8730   16.9870  -34.2570 C   0  0  0  0  0  0  0  0  0  0  0  0
   -5.2540   18.1380  -34.9680 C   0  0  0  0  0  0  0  0  0  0  0  0
   -6.1200   19.0720  -34.3950 C   0  0  0  0  0  0  0  0  0  0  0  0
   -6.6130   18.8860  -33.0930 C   0  0  0  0  0  0  0  0  0  0  0  0
   -7.5200   19.8980  -32.4970 C   0  0  0  0  0  0  0  0  0  0  0  0
   -8.7600   19.6000  -31.9220 C   0  0  0  0  0  0  0  0  0  0  0  0
   -9.4270   21.0330  -31.3480 S   0  0  0  0  0  0  0  0  0  0  0  0
   -8.1330   21.9710  -31.8630 C   0  0  0  0  0  0  0  0  0  0  0  0
   -7.9960   23.4430  -31.6440 C   0  0  0  0  0  0  0  0  0  0  0  0
   -7.2350   23.7250  -30.3500 C   0  0  0  0  0  0  0  0  0  0  0  0
   -6.0690   22.8410  -30.2630 N   0  0  0  0  0  0  0  0  0  0  0  0
   -4.8300   23.3740  -31.3600 S   0  0  0  0  0  0  0  0  0  0  0  0
   -4.2370   24.6560  -30.8440 O   0  0  0  0  0  0  0  0  0  0  0  0
   -5.4500   23.6200  -32.7070 O   0  0  0  0  0  0  0  0  0  0  0  0
   -3.5670   22.1380  -31.5220 C   0  0  0  0  0  0  0  0  0  0  0  0
   -3.4380   21.4600  -32.7440 C   0  0  0  0  0  0  0  0  0  0  0  0
   -2.4830   20.4440  -32.9110 C   0  0  0  0  0  0  0  0  0  0  0  0
   -2.3920   19.7130  -34.2210 C   0  0  0  0  0  0  0  0  0  0  0  0
   -1.6350   20.1140  -31.8400 C   0  0  0  0  0  0  0  0  0  0  0  0
   -0.4240   18.8450  -31.9850 Cl  0  0  0  0  0  0  0  0  0  0  0  0
   -1.7370   20.8050  -30.6300 C   0  0  0  0  0  0  0  0  0  0  0  0
   -2.6840   21.8290  -30.4600 C   0  0  0  0  0  0  0  0  0  0  0  0
   -2.7560   22.5350  -29.1320 C   0  0  0  0  0  0  0  0  0  0  0  0
   -7.1810   21.2170  -32.4520 N   0  0  0  0  0  0  0  0  0  0  0  0
   -6.2380   17.7310  -32.3840 C   0  0  0  0  0  0  0  0  0  0  0  0
   -5.3860   16.7760  -32.9630 C   0  0  0  0  0  0  0  0  0  0  0  0
   -4.9840   15.5600  -32.1760 C   0  0  0  0  0  0  0  0  0  0  0  0
   -2.0910   16.3286  -34.0430 H   0  0  0  0  0  0  0  0  0  0  0  0
   -2.1834   15.4057  -35.5813 H   0  0  0  0  0  0  0  0  0  0  0  0
   -2.4564   17.1811  -35.5813 H   0  0  0  0  0  0  0  0  0  0  0  0
   -4.8669   18.3046  -35.9841 H   0  0  0  0  0  0  0  0  0  0  0  0
   -6.4188   19.9617  -34.9688 H   0  0  0  0  0  0  0  0  0  0  0  0
   -9.2187   18.6023  -31.8567 H   0  0  0  0  0  0  0  0  0  0  0  0
   -7.4481   23.8849  -32.4893 H   0  0  0  0  0  0  0  0  0  0  0  0
   -9.0002   23.8855  -31.5687 H   0  0  0  0  0  0  0  0  0  0  0  0
   -6.9012   24.7731  -30.3425 H   0  0  0  0  0  0  0  0  0  0  0  0
   -7.8964   23.5432  -29.4901 H   0  0  0  0  0  0  0  0  0  0  0  0
   -6.3630   21.8850  -30.5670 H   0  0  0  0  0  0  0  0  0  0  0  0
   -4.0952   21.7286  -33.5842 H   0  0  0  0  0  0  0  0  0  0  0  0
   -2.2581   18.6376  -34.0323 H   0  0  0  0  0  0  0  0  0  0  0  0
   -3.3169   19.8722  -34.7948 H   0  0  0  0  0  0  0  0  0  0  0  0
   -1.5344   20.0941  -34.7948 H   0  0  0  0  0  0  0  0  0  0  0  0
   -1.0662   20.5436  -29.7983 H   0  0  0  0  0  0  0  0  0  0  0  0
   -2.6807   21.7970  -28.3198 H   0  0  0  0  0  0  0  0  0  0  0  0
   -1.9264   23.2530  -29.0530 H   0  0  0  0  0  0  0  0  0  0  0  0
   -3.7134   23.0708  -29.0530 H   0  0  0  0  0  0  0  0  0  0  0  0
   -6.6165   17.5734  -31.3633 H   0  0  0  0  0  0  0  0  0  0  0  0
   -5.0564   15.7789  -31.1004 H   0  0  0  0  0  0  0  0  0  0  0  0
   -5.6535   14.7237  -32.4258 H   0  0  0  0  0  0  0  0  0  0  0  0
   -3.9480   15.2875  -32.4258 H   0  0  0  0  0  0  0  0  0  0  0  0
  1  2  1  0
  2  3  1  0
  3  4  2  0
  4  5  1  0
  5  6  2  0
  6  7  1  0
  7  8  2  0
  8  9  1  0
  9 10  1  0
 10 11  1  0
 11 12  1  0
 12 13  1  0
 13 14  1  0
 14 15  2  0
 14 16  2  0
 14 17  1  0
 17 18  2  0
 18 19  1  0
 19 20  1  0
 19 21  2  0
 21 22  1  0
 21 23  1  0
 23 24  2  0
 24 25  1  0
 10 26  2  0
  6 27  1  0
 27 28  2  0
 28 29  1  0
 28  3  1  0
 26  7  1  0
 24 17  1  0
  1 30  1  0
  1 31  1  0
  1 32  1  0
  4 33  1  0
  5 34  1  0
  8 35  1  0
 11 36  1  0
 11 37  1  0
 12 38  1  0
 12 39  1  0
 13 40  1  0
 18 41  1  0
 20 42  1  0
 20 43  1  0
 20 44  1  0
 23 45  1  0
 25 46  1  0
 25 47  1  0
 25 48  1  0
 27 49  1  0
 29 50  1  0
 29 51  1  0
 29 52  1  0
M  END
>  <UniqueID>  (21) 
20

>  <SMILES>  (21) 
COc1ccc(-c2csc(CCNS(=O)(=O)c3cc(C)c(Cl)cc3C)n2)cc1C

>  <Energy>  (21) 
80.8834301600807

>  <Genealogy>  (21) 
COc1ccc(-c2csc(CCNS(=O)(=O)c3cc(C)c(Cl)cc3C)n2)cc1C (3D coordinates assigned)
COc1ccc(-c2csc(CCNS(=O)(=O)c3cc(C)c(Cl)cc3C)n2)cc1C (optimized conformer: 80.8834301600807 kcal/mol)

>  <smiles>  (21) 
COc1ccc(-c2csc(CCNS(=O)(=O)c3cc(C)c(Cl)cc3C)n2)cc1C

>  <score_type>  (21) 
oracle

>  <origin>  (21) 
adgpu

>  <m_score__min__energy>  (21) 
-10.57

>  <m_primary>  (21) 
energy

$$$$
21:0
     RDKit          3D

 51 54  0  0  0  0  0  0  0  0999 V2000
   -0.4660   30.7930  -36.5920 N   0  0  0  0  0  0  0  0  0  0  0  0
   -0.0290   29.7300  -36.7320 C   0  0  0  0  0  0  0  0  0  0  0  0
    0.5170   28.4100  -36.9060 C   0  0  0  0  0  0  0  0  0  0  0  0
    0.8490   27.6280  -35.7950 C   0  0  0  0  0  0  0  0  0  0  0  0
    1.3810   26.3510  -35.9790 C   0  0  0  0  0  0  0  0  0  0  0  0
    1.5700   25.8630  -37.2760 C   0  0  0  0  0  0  0  0  0  0  0  0
    2.1270   24.5900  -37.4530 O   0  0  0  0  0  0  0  0  0  0  0  0
    2.0600   23.5410  -36.5240 C   0  0  0  0  0  0  0  0  0  0  0  0
    3.2110   22.9150  -36.0150 C   0  0  0  0  0  0  0  0  0  0  0  0
    3.0980   21.8660  -35.0980 C   0  0  0  0  0  0  0  0  0  0  0  0
    1.8350   21.4240  -34.6810 C   0  0  0  0  0  0  0  0  0  0  0  0
    1.6980   20.1040  -33.5140 S   0  0  0  0  0  0  0  0  0  0  0  0
    3.0400   19.8770  -32.8740 O   0  0  0  0  0  0  0  0  0  0  0  0
    1.3020   18.8510  -34.2470 O   0  0  0  0  0  0  0  0  0  0  0  0
    0.4870   20.5030  -32.3070 N   0  0  0  0  0  0  0  0  0  0  0  0
   -0.8780   20.2730  -32.8350 C   0  0  0  0  0  0  0  0  0  0  0  0
   -1.9560   20.2280  -31.7270 C   0  0  0  0  0  0  0  0  0  0  0  0
   -1.4480   20.7830  -30.4660 N   0  0  0  0  0  0  0  0  0  0  0  0
   -2.2340   21.7160  -29.6980 C   0  0  0  0  0  0  0  0  0  0  0  0
   -2.9540   21.2800  -28.5710 C   0  0  0  0  0  0  0  0  0  0  0  0
   -3.7280   22.1810  -27.8350 C   0  0  0  0  0  0  0  0  0  0  0  0
   -3.7970   23.5220  -28.2190 C   0  0  0  0  0  0  0  0  0  0  0  0
   -3.0940   23.9650  -29.3430 C   0  0  0  0  0  0  0  0  0  0  0  0
   -3.1660   25.2990  -29.7260 O   0  0  0  0  0  0  0  0  0  0  0  0
   -2.3170   23.0660  -30.0810 C   0  0  0  0  0  0  0  0  0  0  0  0
   -0.1680   20.2920  -29.9380 C   0  0  0  0  0  0  0  0  0  0  0  0
    0.7070   19.7300  -31.0690 C   0  0  0  0  0  0  0  0  0  0  0  0
    0.6860   22.0320  -35.2080 C   0  0  0  0  0  0  0  0  0  0  0  0
    0.8010   23.0780  -36.1280 C   0  0  0  0  0  0  0  0  0  0  0  0
    1.2480   26.6480  -38.3440 N   0  0  0  0  0  0  0  0  0  0  0  0
    0.7280   27.8950  -38.1900 C   0  0  0  0  0  0  0  0  0  0  0  0
    0.6912   28.0185  -34.7788 H   0  0  0  0  0  0  0  0  0  0  0  0
    1.6498   25.7325  -35.1099 H   0  0  0  0  0  0  0  0  0  0  0  0
    4.2062   23.2525  -36.3401 H   0  0  0  0  0  0  0  0  0  0  0  0
    4.0046   21.3852  -34.7018 H   0  0  0  0  0  0  0  0  0  0  0  0
    0.5930   21.5240  -32.0930 H   0  0  0  0  0  0  0  0  0  0  0  0
   -1.1258   21.0871  -33.5320 H   0  0  0  0  0  0  0  0  0  0  0  0
   -0.8769   19.2919  -33.3324 H   0  0  0  0  0  0  0  0  0  0  0  0
   -2.8280   20.8149  -32.0513 H   0  0  0  0  0  0  0  0  0  0  0  0
   -2.2354   19.1778  -31.5567 H   0  0  0  0  0  0  0  0  0  0  0  0
   -2.9075   20.2238  -28.2673 H   0  0  0  0  0  0  0  0  0  0  0  0
   -4.2839   21.8335  -26.9517 H   0  0  0  0  0  0  0  0  0  0  0  0
   -4.4049   24.2300  -27.6366 H   0  0  0  0  0  0  0  0  0  0  0  0
   -1.7675   23.4176  -30.9666 H   0  0  0  0  0  0  0  0  0  0  0  0
    0.3631   21.1221  -29.4492 H   0  0  0  0  0  0  0  0  0  0  0  0
   -0.3692   19.4884  -29.2143 H   0  0  0  0  0  0  0  0  0  0  0  0
    1.7659   19.7991  -30.7794 H   0  0  0  0  0  0  0  0  0  0  0  0
    0.4374   18.6784  -31.2464 H   0  0  0  0  0  0  0  0  0  0  0  0
   -0.3098   21.6841  -34.8959 H   0  0  0  0  0  0  0  0  0  0  0  0
   -0.1061   23.5408  -36.5440 H   0  0  0  0  0  0  0  0  0  0  0  0
    0.4735   28.4983  -39.0738 H   0  0  0  0  0  0  0  0  0  0  0  0
  1  2  3  0
  2  3  1  0
  3  4  2  0
  4  5  1  0
  5  6  2  0
  6  7  1  0
  7  8  1  0
  8  9  2  0
  9 10  1  0
 10 11  2  0
 11 12  1  0
 12 13  2  0
 12 14  2  0
 12 15  1  0
 15 16  1  0
 16 17  1  0
 17 18  1  0
 18 19  1  0
 19 20  2  0
 20 21  1  0
 21 22  2  0
 22 23  1  0
 23 24  1  0
 23 25  2  0
 18 26  1  0
 26 27  1  0
 11 28  1  0
 28 29  2  0
  6 30  1  0
 30 31  2  0
 31  3  1  0
 29  8  1  0
 27 15  1  0
 25 19  1  0
  4 32  1  0
  5 33  1  0
  9 34  1  0
 10 35  1  0
 15 36  1  0
 16 37  1  0
 16 38  1  0
 17 39  1  0
 17 40  1  0
 20 41  1  0
 21 42  1  0
 22 43  1  0
 25 44  1  0
 26 45  1  0
 26 46  1  0
 27 47  1  0
 27 48  1  0
 28 49  1  0
 29 50  1  0
 31 51  1  0
M  CHG  2  15   1  24  -1
M  END
>  <UniqueID>  (22) 
21

>  <SMILES>  (22) 
N#Cc1ccc(Oc2ccc(S(=O)(=O)[NH+]3CCN(c4cccc([O-])c4)CC3)cc2)nc1

>  <Energy>  (22) 
70.74297790687564

>  <Genealogy>  (22) 
N#Cc1ccc(Oc2ccc(S(=O)(=O)[NH+]3CCN(c4cccc([O-])c4)CC3)cc2)nc1 (protonated)
N#Cc1ccc(Oc2ccc(S(=O)(=O)[NH+]3CCN(c4cccc([O-])c4)CC3)cc2)nc1 (3D coordinates assigned)
N#Cc1ccc(Oc2ccc(S(=O)(=O)[NH+]3CCN(c4cccc([O-])c4)CC3)cc2)nc1 (nonaromatic ring conformer: 70.74297790687564 kcal/mol)

>  <smiles>  (22) 
N#Cc1ccc(Oc2ccc(S(=O)(=O)N3CCN(c4cccc(O)c4)CC3)cc2)nc1

>  <score_type>  (22) 
oracle

>  <origin>  (22) 
adgpu

>  <m_score__min__energy>  (22) 
-10.949999999999999

>  <m_primary>  (22) 
energy

$$$$
22:0
     RDKit          3D

 57 60  0  0  1  0  0  0  0  0999 V2000
   -2.8390   18.6910  -25.7540 C   0  0  0  0  0  0  0  0  0  0  0  0
   -2.3560   19.7450  -26.6710 C   0  0  0  0  0  0  0  0  0  0  0  0
   -1.0100   20.0330  -26.7350 C   0  0  0  0  0  0  0  0  0  0  0  0
   -0.5580   21.0290  -27.6040 C   0  0  0  0  0  0  0  0  0  0  0  0
   -1.4760   21.7130  -28.3880 C   0  0  0  0  0  0  0  0  0  0  0  0
   -0.9510   22.9640  -29.4860 S   0  0  0  0  0  0  0  0  0  0  0  0
   -2.0160   24.0400  -29.6150 O   0  0  0  0  0  0  0  0  0  0  0  0
    0.2810   23.6380  -28.9610 O   0  0  0  0  0  0  0  0  0  0  0  0
   -0.5860   22.3170  -31.0500 N   0  0  0  0  0  0  0  0  0  0  0  0
   -1.3590   21.2710  -31.6320 C   0  0  0  0  0  0  0  0  0  0  0  0
   -2.3160   21.5590  -32.6050 C   0  0  0  0  0  0  0  0  0  0  0  0
   -3.0850   20.5760  -33.1940 C   0  0  0  0  0  0  0  0  0  0  0  0
   -2.8730   19.2760  -32.7830 C   0  0  0  0  0  0  0  0  0  0  0  0
   -3.5970   18.1670  -33.3100 N   0  0  0  0  0  0  0  0  0  0  0  0
   -4.8800   18.1740  -33.3380 C   0  0  0  0  0  0  0  0  0  0  0  0
   -5.6010   19.2130  -32.8800 N   0  0  0  0  0  0  0  0  0  0  0  0
   -6.9440   19.1780  -32.9290 C   0  0  0  0  0  0  0  0  0  0  0  0
   -7.6980   20.1370  -32.5070 N   0  0  0  0  0  0  0  0  0  0  0  0
   -7.0360   21.2750  -31.9690 C   0  0  0  0  0  0  0  0  0  0  0  0
   -6.0390   21.9580  -32.6280 C   0  0  0  0  0  0  0  0  0  0  0  0
   -5.4780   23.0540  -31.9840 C   0  0  0  0  0  0  0  0  0  0  0  0
   -5.8900   23.4630  -30.7270 C   0  0  0  0  0  0  0  0  0  0  0  0
   -5.1790   24.8470  -29.9150 S   0  0  0  0  0  0  0  0  0  0  0  0
   -4.2790   24.3650  -28.5250 N   0  0  0  0  0  0  0  0  0  0  0  0
   -4.2770   25.5280  -30.9010 O   0  0  0  0  0  0  0  0  0  0  0  0
   -6.2370   25.8130  -29.4660 O   0  0  0  0  0  0  0  0  0  0  0  0
   -6.9030   22.7650  -30.0640 C   0  0  0  0  0  0  0  0  0  0  0  0
   -7.4640   21.6760  -30.6980 C   0  0  0  0  0  0  0  0  0  0  0  0
   -7.5680   18.1020  -33.4380 N   0  0  0  0  0  0  0  0  0  0  0  0
   -6.8880   17.0320  -33.9120 C   0  0  0  0  0  0  0  0  0  0  0  0
   -5.5090   17.0640  -33.8630 C   0  0  0  0  0  0  0  0  0  0  0  0
   -4.5110   15.5720  -34.5230 Br  0  0  0  0  0  0  0  0  0  0  0  0
   -1.9170   18.9630  -31.8080 C   0  0  0  0  0  0  0  0  0  0  0  0
   -1.1570   19.9710  -31.2310 C   0  0  0  0  0  0  0  0  0  0  0  0
   -2.8130   21.4290  -28.3290 C   0  0  0  0  0  0  0  0  0  0  0  0
   -3.2460   20.4420  -27.4660 C   0  0  0  0  0  0  0  0  0  0  0  0
   -2.6908   19.0144  -24.7131 H   0  0  0  0  0  0  0  0  0  0  0  0
   -3.9093   18.5113  -25.9332 H   0  0  0  0  0  0  0  0  0  0  0  0
   -2.2763   17.7630  -25.9332 H   0  0  0  0  0  0  0  0  0  0  0  0
   -0.2957   19.4819  -26.1056 H   0  0  0  0  0  0  0  0  0  0  0  0
    0.5138   21.2684  -27.6661 H   0  0  0  0  0  0  0  0  0  0  0  0
    0.2190   22.6770  -31.6160 H   0  0  0  0  0  0  0  0  0  0  0  0
   -2.4627   22.6047  -32.9132 H   0  0  0  0  0  0  0  0  0  0  0  0
   -3.8363   20.8189  -33.9599 H   0  0  0  0  0  0  0  0  0  0  0  0
   -5.1160   20.0470  -32.4850 H   0  0  0  0  0  0  0  0  0  0  0  0
   -5.6991   21.6477  -33.6271 H   0  0  0  0  0  0  0  0  0  0  0  0
   -4.6792   23.6160  -32.4901 H   0  0  0  0  0  0  0  0  0  0  0  0
   -3.5100   25.0680  -28.3540 H   0  0  0  0  0  0  0  0  0  0  0  0
   -3.8620   23.4130  -28.6570 H   0  0  0  0  0  0  0  0  0  0  0  0
   -7.2433   23.0752  -29.0650 H   0  0  0  0  0  0  0  0  0  0  0  0
   -8.2632   21.1117  -30.1951 H   0  0  0  0  0  0  0  0  0  0  0  0
   -8.6270   18.0670  -33.4800 H   0  0  0  0  0  0  0  0  0  0  0  0
   -7.4193   16.1616  -34.3246 H   0  0  0  0  0  0  0  0  0  0  0  0
   -1.7685   17.9176  -31.4995 H   0  0  0  0  0  0  0  0  0  0  0  0
   -0.4045   19.7337  -30.4646 H   0  0  0  0  0  0  0  0  0  0  0  0
   -3.5301   21.9771  -28.9578 H   0  0  0  0  0  0  0  0  0  0  0  0
   -4.3190   20.2061  -27.4102 H   0  0  0  0  0  0  0  0  0  0  0  0
  1  2  1  0
  2  3  2  0
  3  4  1  0
  4  5  2  0
  5  6  1  0
  6  7  2  0
  6  8  2  0
  6  9  1  0
  9 10  1  0
 10 11  2  0
 11 12  1  0
 12 13  2  0
 13 14  1  0
 14 15  2  0
 15 16  1  0
 16 17  1  0
 17 18  2  0
 18 19  1  0
 19 20  2  0
 20 21  1  0
 21 22  2  0
 22 23  1  0
 23 24  1  0
 23 25  2  0
 23 26  2  0
 22 27  1  0
 27 28  2  0
 17 29  1  0
 29 30  1  0
 30 31  2  0
 31 32  1  0
 13 33  1  0
 33 34  2  0
  5 35  1  0
 35 36  2  0
 36  2  1  0
 34 10  1  0
 31 15  1  0
 28 19  1  0
  1 37  1  0
  1 38  1  0
  1 39  1  0
  3 40  1  0
  4 41  1  0
  9 42  1  0
 11 43  1  0
 12 44  1  0
 16 45  1  0
 20 46  1  0
 21 47  1  0
 24 48  1  0
 24 49  1  0
 27 50  1  0
 28 51  1  0
 29 52  1  0
 30 53  1  0
 33 54  1  0
 34 55  1  0
 35 56  1  0
 36 57  1  0
M  END
>  <smiles>  (23) 
Cc1ccc(S(=O)(=O)Nc2ccc(N=c3[nH]c(=Nc4ccc(S(N)(=O)=O)cc4)[nH]cc3Br)cc2)cc1

>  <score_type>  (23) 
oracle

>  <origin>  (23) 
adgpu

>  <m_score__min__energy>  (23) 
-11.31

>  <m_primary>  (23) 
energy

$$$$
23:0
     RDKit          3D

 45 48  0  0  0  0  0  0  0  0999 V2000
   -0.2240   22.5760  -30.0950 O   0  0  0  0  0  0  0  0  0  0  0  0
   -1.6770   22.5520  -29.7150 S   0  0  0  0  0  0  0  0  0  0  0  0
   -1.8180   21.8700  -28.3830 O   0  0  0  0  0  0  0  0  0  0  0  0
   -2.2620   24.1780  -29.5900 N   0  0  0  0  0  0  0  0  0  0  0  0
   -3.6300   24.5540  -29.7750 C   0  0  0  0  0  0  0  0  0  0  0  0
   -4.6590   24.2090  -28.9000 C   0  0  0  0  0  0  0  0  0  0  0  0
   -6.0760   24.8820  -29.5030 S   0  0  0  0  0  0  0  0  0  0  0  0
   -5.3310   25.5670  -30.8440 C   0  0  0  0  0  0  0  0  0  0  0  0
   -4.0070   25.3010  -30.8470 N   0  0  0  0  0  0  0  0  0  0  0  0
   -2.5790   21.6940  -30.9600 C   0  0  0  0  0  0  0  0  0  0  0  0
   -1.9480   21.3640  -32.1650 C   0  0  0  0  0  0  0  0  0  0  0  0
   -2.6530   20.6900  -33.1660 C   0  0  0  0  0  0  0  0  0  0  0  0
   -4.0060   20.3540  -32.9760 C   0  0  0  0  0  0  0  0  0  0  0  0
   -4.7550   19.7000  -33.9670 O   0  0  0  0  0  0  0  0  0  0  0  0
   -5.0370   18.3270  -33.9770 C   0  0  0  0  0  0  0  0  0  0  0  0
   -4.0740   17.4610  -34.5030 C   0  0  0  0  0  0  0  0  0  0  0  0
   -4.3200   16.0880  -34.5800 C   0  0  0  0  0  0  0  0  0  0  0  0
   -5.5250   15.5520  -34.0990 C   0  0  0  0  0  0  0  0  0  0  0  0
   -5.8110   14.0770  -34.2330 C   0  0  0  0  0  0  0  0  0  0  0  0
   -5.0930   13.5320  -35.2830 F   0  0  0  0  0  0  0  0  0  0  0  0
   -7.1570   13.8590  -34.4720 F   0  0  0  0  0  0  0  0  0  0  0  0
   -5.4520   13.4370  -33.0610 F   0  0  0  0  0  0  0  0  0  0  0  0
   -6.4920   16.4190  -33.5650 C   0  0  0  0  0  0  0  0  0  0  0  0
   -6.2510   17.8010  -33.4710 C   0  0  0  0  0  0  0  0  0  0  0  0
   -7.2560   18.6640  -32.8070 C   0  0  0  0  0  0  0  0  0  0  0  0
   -8.1310   18.1310  -31.8480 C   0  0  0  0  0  0  0  0  0  0  0  0
   -9.0580   18.9660  -31.2230 C   0  0  0  0  0  0  0  0  0  0  0  0
   -9.1160   20.2840  -31.5460 N   0  0  0  0  0  0  0  0  0  0  0  0
   -8.2850   20.8270  -32.4760 C   0  0  0  0  0  0  0  0  0  0  0  0
   -7.3450   20.0270  -33.1270 C   0  0  0  0  0  0  0  0  0  0  0  0
   -4.6260   20.6660  -31.7610 C   0  0  0  0  0  0  0  0  0  0  0  0
   -3.9190   21.3380  -30.7580 C   0  0  0  0  0  0  0  0  0  0  0  0
   -4.5615   23.6075  -27.9842 H   0  0  0  0  0  0  0  0  0  0  0  0
   -5.8515   26.1532  -31.6156 H   0  0  0  0  0  0  0  0  0  0  0  0
   -0.8942   21.6359  -32.3246 H   0  0  0  0  0  0  0  0  0  0  0  0
   -2.1483   20.4213  -34.1057 H   0  0  0  0  0  0  0  0  0  0  0  0
   -3.1145   17.8640  -34.8593 H   0  0  0  0  0  0  0  0  0  0  0  0
   -3.5638   15.4219  -35.0209 H   0  0  0  0  0  0  0  0  0  0  0  0
   -7.4518   16.0111  -33.2152 H   0  0  0  0  0  0  0  0  0  0  0  0
   -8.0864   17.0624  -31.5908 H   0  0  0  0  0  0  0  0  0  0  0  0
   -9.7435   18.5558  -30.4668 H   0  0  0  0  0  0  0  0  0  0  0  0
   -8.3541   21.8984  -32.7153 H   0  0  0  0  0  0  0  0  0  0  0  0
   -6.6783   20.4622  -33.8860 H   0  0  0  0  0  0  0  0  0  0  0  0
   -5.6752   20.3813  -31.5935 H   0  0  0  0  0  0  0  0  0  0  0  0
   -4.4161   21.5873  -29.8090 H   0  0  0  0  0  0  0  0  0  0  0  0
  1  2  2  0
  2  3  2  0
  2  4  1  0
  4  5  1  0
  5  6  2  0
  6  7  1  0
  7  8  1  0
  8  9  2  0
  2 10  1  0
 10 11  2  0
 11 12  1  0
 12 13  2  0
 13 14  1  0
 14 15  1  0
 15 16  2  0
 16 17  1  0
 17 18  2  0
 18 19  1  0
 19 20  1  0
 19 21  1  0
 19 22  1  0
 18 23  1  0
 23 24  2  0
 24 25  1  0
 25 26  2  0
 26 27  1  0
 27 28  2  0
 28 29  1  0
 29 30  2  0
 13 31  1  0
 31 32  2  0
  9  5  1  0
 32 10  1  0
 24 15  1  0
 30 25  1  0
  6 33  1  0
  8 34  1  0
 11 35  1  0
 12 36  1  0
 16 37  1  0
 17 38  1  0
 23 39  1  0
 26 40  1  0
 27 41  1  0
 29 42  1  0
 30 43  1  0
 31 44  1  0
 32 45  1  0
M  CHG  1   4  -1
M  END
>  <UniqueID>  (24) 
22

>  <SMILES>  (24) 
O=S(=O)([N-]c1cscn1)c1ccc(Oc2ccc(C(F)(F)F)cc2-c2ccncc2)cc1

>  <Energy>  (24) 
93.50364410555105

>  <Genealogy>  (24) 
O=S(=O)([N-]c1cscn1)c1ccc(Oc2ccc(C(F)(F)F)cc2-c2ccncc2)cc1 (protonated)
O=S(=O)([N-]c1cscn1)c1ccc(Oc2ccc(C(F)(F)F)cc2-c2ccncc2)cc1 (3D coordinates assigned)
O=S(=O)([N-]c1cscn1)c1ccc(Oc2ccc(C(F)(F)F)cc2-c2ccncc2)cc1 (optimized conformer: 93.50364410555105 kcal/mol)

>  <smiles>  (24) 
O=S(=O)(Nc1cscn1)c1ccc(Oc2ccc(C(F)(F)F)cc2-c2ccncc2)cc1

>  <score_type>  (24) 
oracle

>  <origin>  (24) 
adgpu

>  <m_score__min__energy>  (24) 
-10.42

>  <m_primary>  (24) 
energy

$$$$
24:0
     RDKit          3D

 53 56  0  0  0  0  0  0  0  0999 V2000
   -9.4799   19.7587  -32.2441 H   0  0  0  0  0  0  0  0  0  0  0  0
   -8.4180   19.4740  -32.2810 C   0  0  0  0  0  0  0  0  0  0  0  0
   -7.4620   20.3770  -31.9490 N   0  0  0  0  0  0  0  0  0  0  0  0
   -6.1400   20.0530  -31.9980 C   0  0  0  0  0  0  0  0  0  0  0  0
   -5.2200   20.9090  -31.6620 N   0  0  0  0  0  0  0  0  0  0  0  0
   -5.4130   22.2860  -31.3000 C   0  0  0  0  0  0  0  0  0  0  0  0
   -6.7110   22.8100  -31.3160 C   0  0  0  0  0  0  0  0  0  0  0  0
   -7.5543   22.1705  -31.6158 H   0  0  0  0  0  0  0  0  0  0  0  0
   -6.9430   24.1390  -30.9540 C   0  0  0  0  0  0  0  0  0  0  0  0
   -7.9627   24.5496  -30.9942 H   0  0  0  0  0  0  0  0  0  0  0  0
   -5.8810   24.9470  -30.5410 C   0  0  0  0  0  0  0  0  0  0  0  0
   -6.0622   26.0007  -30.2824 H   0  0  0  0  0  0  0  0  0  0  0  0
   -4.5840   24.4190  -30.4550 C   0  0  0  0  0  0  0  0  0  0  0  0
   -3.4780   25.2290  -30.0430 N   0  0  0  0  0  0  0  0  0  0  0  0
   -2.5310   24.9070  -29.0160 C   0  0  0  0  0  0  0  0  0  0  0  0
   -1.3740   25.4000  -29.0840 O   0  0  0  0  0  0  0  0  0  0  0  0
   -2.8210   23.8550  -27.9750 C   0  0  0  0  0  0  0  0  0  0  0  0
   -2.1333   23.9874  -27.1267 H   0  0  0  0  0  0  0  0  0  0  0  0
   -3.8637   23.9652  -27.6423 H   0  0  0  0  0  0  0  0  0  0  0  0
   -2.6430   22.5020  -28.5360 N   0  0  0  0  0  0  0  0  0  0  0  0
   -2.9550   21.4600  -27.5520 C   0  0  0  0  0  0  0  0  0  0  0  0
   -2.6676   21.7933  -26.5439 H   0  0  0  0  0  0  0  0  0  0  0  0
   -4.0328   21.2406  -27.5386 H   0  0  0  0  0  0  0  0  0  0  0  0
   -2.1520   20.2270  -27.9450 C   0  0  0  0  0  0  0  0  0  0  0  0
   -1.6773   19.7789  -27.0597 H   0  0  0  0  0  0  0  0  0  0  0  0
   -2.7889   19.4506  -28.3940 H   0  0  0  0  0  0  0  0  0  0  0  0
   -1.0960   20.7250  -28.9200 C   0  0  0  0  0  0  0  0  0  0  0  0
   -0.0890   20.4516  -28.5718 H   0  0  0  0  0  0  0  0  0  0  0  0
   -1.2154   20.2816  -29.9196 H   0  0  0  0  0  0  0  0  0  0  0  0
   -1.2610   22.2350  -28.9430 C   0  0  0  0  0  0  0  0  0  0  0  0
   -0.5587   22.7060  -28.2395 H   0  0  0  0  0  0  0  0  0  0  0  0
   -1.0510   22.6458  -29.9416 H   0  0  0  0  0  0  0  0  0  0  0  0
   -4.3510   23.0960  -30.8500 C   0  0  0  0  0  0  0  0  0  0  0  0
   -3.3312   22.6857  -30.8088 H   0  0  0  0  0  0  0  0  0  0  0  0
   -5.7740   18.7950  -32.3630 N   0  0  0  0  0  0  0  0  0  0  0  0
   -6.6930   17.8480  -32.6980 C   0  0  0  0  0  0  0  0  0  0  0  0
   -6.2290   16.4940  -33.0990 C   0  0  0  0  0  0  0  0  0  0  0  0
   -6.8400   15.7950  -34.1570 C   0  0  0  0  0  0  0  0  0  0  0  0
   -7.6719   16.2569  -34.7089 H   0  0  0  0  0  0  0  0  0  0  0  0
   -6.3970   14.5200  -34.5100 C   0  0  0  0  0  0  0  0  0  0  0  0
   -6.8810   13.9829  -35.3390 H   0  0  0  0  0  0  0  0  0  0  0  0
   -5.3430   13.9220  -33.8170 C   0  0  0  0  0  0  0  0  0  0  0  0
   -5.0013   12.9163  -34.1028 H   0  0  0  0  0  0  0  0  0  0  0  0
   -4.7160   14.5980  -32.7560 C   0  0  0  0  0  0  0  0  0  0  0  0
   -3.6000   13.9730  -32.0030 C   0  0  0  0  0  0  0  0  0  0  0  0
   -3.8490   13.2930  -30.9710 O   0  0  0  0  0  0  0  0  0  0  0  0
   -2.2390   14.1350  -32.4100 N   0  0  0  0  0  0  0  0  0  0  0  0
   -1.9650   14.8110  -33.1570 H   0  0  0  0  0  0  0  0  0  0  0  0
   -1.4790   13.6360  -31.8960 H   0  0  0  0  0  0  0  0  0  0  0  0
   -5.1750   15.8790  -32.3980 C   0  0  0  0  0  0  0  0  0  0  0  0
   -4.7027   16.4080  -31.5571 H   0  0  0  0  0  0  0  0  0  0  0  0
   -8.0550   18.1850  -32.6690 C   0  0  0  0  0  0  0  0  0  0  0  0
   -8.8213   17.4465  -32.9470 H   0  0  0  0  0  0  0  0  0  0  0  0
  1  2  1  0
  2  3  1  0
  3  4  1  0
  4  5  2  0
  5  6  1  0
  6  7  2  0
  7  8  1  0
  7  9  1  0
  9 10  1  0
  9 11  2  0
 11 12  1  0
 11 13  1  0
 13 14  1  0
 14 15  1  0
 15 16  2  0
 15 17  1  0
 17 18  1  0
 17 19  1  0
 17 20  1  0
 20 21  1  0
 21 22  1  0
 21 23  1  0
 21 24  1  0
 24 25  1  0
 24 26  1  0
 24 27  1  0
 27 28  1  0
 27 29  1  0
 27 30  1  0
 30 31  1  0
 30 32  1  0
 13 33  2  0
 33 34  1  0
  4 35  1  0
 35 36  2  0
 36 37  1  0
 37 38  2  0
 38 39  1  0
 38 40  1  0
 40 41  1  0
 40 42  2  0
 42 43  1  0
 42 44  1  0
 44 45  1  0
 45 46  2  0
 45 47  1  0
 47 48  1  0
 47 49  1  0
 44 50  2  0
 50 51  1  0
 36 52  1  0
 52 53  1  0
 52  2  2  0
 33  6  1  0
 50 37  1  0
 30 20  1  0
M  CHG  2   3  -1  14  -1
M  END
>  <UniqueID>  (25) 
23

>  <SMILES>  (25) 
NC(=O)c1cccc(-c2cc[n-]/c(=N\c3cccc([N-]C(=O)CN4CCCC4)c3)n2)c1

>  <Energy>  (25) 
76.5468128851328

>  <Genealogy>  (25) 
NC(=O)c1cccc(-c2cc[n-]c(=Nc3cccc([N-]C(=O)CN4CCCC4)c3)n2)c1 (protonated)
NC(=O)c1cccc(-c2cc[n-]/c(=N\c3cccc([N-]C(=O)CN4CCCC4)c3)n2)c1 (cis-trans isomerization)
NC(=O)c1cccc(-c2cc[n-]/c(=N\c3cccc([N-]C(=O)CN4CCCC4)c3)n2)c1 (3D coordinates assigned)
NC(=O)c1cccc(-c2cc[n-]/c(=N\c3cccc([N-]C(=O)CN4CCCC4)c3)n2)c1 (nonaromatic ring conformer: 76.5468128851328 kcal/mol)

>  <smiles>  (25) 
NC(=O)c1cccc(-c2cc[nH]c(=Nc3cccc(NC(=O)CN4CCCC4)c3)n2)c1

>  <score_type>  (25) 
oracle

>  <origin>  (25) 
adgpu

>  <m_score__min__energy>  (25) 
-10.99

>  <m_primary>  (25) 
energy

$$$$
25:0
     RDKit          3D

 65 69  0  0  0  0  0  0  0  0999 V2000
   -4.6140   24.4990  -31.0240 O   0  0  0  0  0  0  0  0  0  0  0  0
   -5.0970   23.4850  -30.4540 C   0  0  0  0  0  0  0  0  0  0  0  0
   -4.4490   22.9350  -29.3000 N   0  0  0  0  0  0  0  0  0  0  0  0
   -3.2470   23.4350  -28.6890 C   0  0  0  0  0  0  0  0  0  0  0  0
   -2.6760   24.6130  -29.1880 C   0  0  0  0  0  0  0  0  0  0  0  0
   -1.5330   25.1540  -28.5870 C   0  0  0  0  0  0  0  0  0  0  0  0
   -0.9470   24.5190  -27.4850 C   0  0  0  0  0  0  0  0  0  0  0  0
    0.2600   25.0900  -26.8480 C   0  0  0  0  0  0  0  0  0  0  0  0
    1.3290   25.1000  -27.5180 O   0  0  0  0  0  0  0  0  0  0  0  0
    0.2430   25.7180  -25.5380 N   0  0  0  0  0  0  0  0  0  0  0  0
    1.3280   26.7130  -25.3390 C   0  0  0  0  0  0  0  0  0  0  0  0
    1.1510   27.5630  -24.0570 C   0  0  0  0  0  0  0  0  0  0  0  0
    0.1100   26.9730  -23.1030 C   0  0  0  0  0  0  0  0  0  0  0  0
   -1.2370   26.7600  -23.8140 C   0  0  0  0  0  0  0  0  0  0  0  0
   -1.0780   26.3350  -25.2920 C   0  0  0  0  0  0  0  0  0  0  0  0
   -1.5210   23.3510  -26.9710 C   0  0  0  0  0  0  0  0  0  0  0  0
   -2.6680   22.8130  -27.5660 C   0  0  0  0  0  0  0  0  0  0  0  0
   -6.3300   22.8670  -30.9860 C   0  0  0  0  0  0  0  0  0  0  0  0
   -7.4850   23.6510  -31.1610 C   0  0  0  0  0  0  0  0  0  0  0  0
   -8.6430   23.0950  -31.7070 C   0  0  0  0  0  0  0  0  0  0  0  0
   -8.6650   21.7480  -32.0710 C   0  0  0  0  0  0  0  0  0  0  0  0
   -7.5300   20.9440  -31.8860 C   0  0  0  0  0  0  0  0  0  0  0  0
   -7.6090   19.2410  -32.3260 S   0  0  0  0  0  0  0  0  0  0  0  0
   -8.8700   18.9390  -33.0890 O   0  0  0  0  0  0  0  0  0  0  0  0
   -7.6150   18.4090  -31.0740 O   0  0  0  0  0  0  0  0  0  0  0  0
   -6.2180   18.8480  -33.3090 N   0  0  0  0  0  0  0  0  0  0  0  0
   -5.3430   19.9300  -33.7730 C   0  0  0  0  0  0  0  0  0  0  0  0
   -3.8810   19.5580  -33.5240 C   0  0  0  0  0  0  0  0  0  0  0  0
   -3.5320   18.2660  -34.2690 C   0  0  0  0  0  0  0  0  0  0  0  0
   -4.5540   17.1740  -34.0520 C   0  0  0  0  0  0  0  0  0  0  0  0
   -4.2130   15.8510  -34.3760 C   0  0  0  0  0  0  0  0  0  0  0  0
   -5.1670   14.8350  -34.2960 C   0  0  0  0  0  0  0  0  0  0  0  0
   -6.4760   15.1340  -33.9180 C   0  0  0  0  0  0  0  0  0  0  0  0
   -6.8350   16.4490  -33.6070 C   0  0  0  0  0  0  0  0  0  0  0  0
   -5.8760   17.4820  -33.6500 C   0  0  0  0  0  0  0  0  0  0  0  0
   -6.3590   21.5080  -31.3510 C   0  0  0  0  0  0  0  0  0  0  0  0
   -3.1278   25.1153  -30.0561 H   0  0  0  0  0  0  0  0  0  0  0  0
   -1.0935   26.0817  -28.9821 H   0  0  0  0  0  0  0  0  0  0  0  0
    0.3870   24.9450  -24.8470 H   0  0  0  0  0  0  0  0  0  0  0  0
    2.2860   26.1765  -25.2729 H   0  0  0  0  0  0  0  0  0  0  0  0
    1.2982   27.4035  -26.1948 H   0  0  0  0  0  0  0  0  0  0  0  0
    2.1173   27.6188  -23.5343 H   0  0  0  0  0  0  0  0  0  0  0  0
    0.7987   28.5594  -24.3621 H   0  0  0  0  0  0  0  0  0  0  0  0
    0.4747   26.0055  -22.7276 H   0  0  0  0  0  0  0  0  0  0  0  0
   -0.0416   27.6785  -22.2727 H   0  0  0  0  0  0  0  0  0  0  0  0
   -1.7945   25.9754  -23.2815 H   0  0  0  0  0  0  0  0  0  0  0  0
   -1.7710   27.7216  -23.8032 H   0  0  0  0  0  0  0  0  0  0  0  0
   -1.8646   25.6077  -25.5416 H   0  0  0  0  0  0  0  0  0  0  0  0
   -1.1624   27.2334  -25.9210 H   0  0  0  0  0  0  0  0  0  0  0  0
   -1.0704   22.8552  -26.0986 H   0  0  0  0  0  0  0  0  0  0  0  0
   -3.1200   21.8987  -27.1539 H   0  0  0  0  0  0  0  0  0  0  0  0
   -7.4754   24.7104  -30.8652 H   0  0  0  0  0  0  0  0  0  0  0  0
   -9.5379   23.7184  -31.8503 H   0  0  0  0  0  0  0  0  0  0  0  0
   -9.5776   21.3139  -32.5055 H   0  0  0  0  0  0  0  0  0  0  0  0
   -5.5005   20.0904  -34.8498 H   0  0  0  0  0  0  0  0  0  0  0  0
   -5.5818   20.8514  -33.2216 H   0  0  0  0  0  0  0  0  0  0  0  0
   -3.2326   20.3711  -33.8825 H   0  0  0  0  0  0  0  0  0  0  0  0
   -3.7274   19.4043  -32.4457 H   0  0  0  0  0  0  0  0  0  0  0  0
   -3.4740   18.4850  -35.3454 H   0  0  0  0  0  0  0  0  0  0  0  0
   -2.5705   17.9046  -33.8754 H   0  0  0  0  0  0  0  0  0  0  0  0
   -3.1874   15.6136  -34.6950 H   0  0  0  0  0  0  0  0  0  0  0  0
   -4.8862   13.7978  -34.5312 H   0  0  0  0  0  0  0  0  0  0  0  0
   -7.2279   14.3329  -33.8644 H   0  0  0  0  0  0  0  0  0  0  0  0
   -7.8734   16.6795  -33.3266 H   0  0  0  0  0  0  0  0  0  0  0  0
   -5.4622   20.8852  -31.2171 H   0  0  0  0  0  0  0  0  0  0  0  0
  1  2  2  0
  2  3  1  0
  3  4  1  0
  4  5  2  0
  5  6  1  0
  6  7  2  0
  7  8  1  0
  8  9  2  0
  8 10  1  0
 10 11  1  0
 11 12  1  0
 12 13  1  0
 13 14  1  0
 14 15  1  0
  7 16  1  0
 16 17  2  0
  2 18  1  0
 18 19  2  0
 19 20  1  0
 20 21  2  0
 21 22  1  0
 22 23  1  0
 23 24  2  0
 23 25  2  0
 23 26  1  0
 26 27  1  0
 27 28  1  0
 28 29  1  0
 29 30  1  0
 30 31  2  0
 31 32  1  0
 32 33  2  0
 33 34  1  0
 34 35  2  0
 22 36  2  0
 17  4  1  0
 36 18  1  0
 15 10  1  0
 35 26  1  0
 35 30  1  0
  5 37  1  0
  6 38  1  0
 10 39  1  0
 11 40  1  0
 11 41  1  0
 12 42  1  0
 12 43  1  0
 13 44  1  0
 13 45  1  0
 14 46  1  0
 14 47  1  0
 15 48  1  0
 15 49  1  0
 16 50  1  0
 17 51  1  0
 19 52  1  0
 20 53  1  0
 21 54  1  0
 27 55  1  0
 27 56  1  0
 28 57  1  0
 28 58  1  0
 29 59  1  0
 29 60  1  0
 31 61  1  0
 32 62  1  0
 33 63  1  0
 34 64  1  0
 36 65  1  0
M  CHG  2   3  -1  10   1
M  END
>  <UniqueID>  (26) 
24

>  <SMILES>  (26) 
O=C([N-]c1ccc(C(=O)[NH+]2CCCCC2)cc1)c1cccc(S(=O)(=O)N2CCCc3ccccc32)c1

>  <Energy>  (26) 
96.4934799781133

>  <Genealogy>  (26) 
O=C([N-]c1ccc(C(=O)[NH+]2CCCCC2)cc1)c1cccc(S(=O)(=O)N2CCCc3ccccc32)c1 (protonated)
O=C([N-]c1ccc(C(=O)[NH+]2CCCCC2)cc1)c1cccc(S(=O)(=O)N2CCCc3ccccc32)c1 (3D coordinates assigned)
O=C([N-]c1ccc(C(=O)[NH+]2CCCCC2)cc1)c1cccc(S(=O)(=O)N2CCCc3ccccc32)c1 (nonaromatic ring conformer: 96.4934799781133 kcal/mol)

>  <smiles>  (26) 
O=C(Nc1ccc(C(=O)N2CCCCC2)cc1)c1cccc(S(=O)(=O)N2CCCc3ccccc32)c1

>  <score_type>  (26) 
oracle

>  <origin>  (26) 
adgpu

>  <m_score__min__energy>  (26) 
-13.43

>  <m_primary>  (26) 
energy

$$$$
26:0
     RDKit          3D

 41 43  0  0  0  0  0  0  0  0999 V2000
   -0.8470   16.9320  -26.3440 H   0  0  0  0  0  0  0  0  0  0  0  0
   -0.4230   17.4370  -27.1110 O   0  0  0  0  0  0  0  0  0  0  0  0
   -0.6800   18.7970  -27.3200 C   0  0  0  0  0  0  0  0  0  0  0  0
    0.1460   19.5420  -28.1760 C   0  0  0  0  0  0  0  0  0  0  0  0
    0.9923   19.0543  -28.6819 H   0  0  0  0  0  0  0  0  0  0  0  0
   -0.1020   20.8990  -28.3880 C   0  0  0  0  0  0  0  0  0  0  0  0
    0.5639   21.4824  -29.0409 H   0  0  0  0  0  0  0  0  0  0  0  0
   -1.2000   21.5230  -27.7700 C   0  0  0  0  0  0  0  0  0  0  0  0
   -1.3330   22.9920  -27.8930 C   0  0  0  0  0  0  0  0  0  0  0  0
   -0.6573   23.6058  -27.2793 H   0  0  0  0  0  0  0  0  0  0  0  0
   -2.1720   23.6260  -28.6570 N   0  0  0  0  0  0  0  0  0  0  0  0
   -3.0610   23.0810  -29.6530 C   0  0  0  0  0  0  0  0  0  0  0  0
   -3.1600   21.7190  -29.9230 C   0  0  0  0  0  0  0  0  0  0  0  0
   -2.5910   20.9967  -29.3193 H   0  0  0  0  0  0  0  0  0  0  0  0
   -3.9940   21.2610  -30.9760 C   0  0  0  0  0  0  0  0  0  0  0  0
   -3.9450   19.8910  -31.2180 O   0  0  0  0  0  0  0  0  0  0  0  0
   -4.9110   21.9210  -31.6850 C   0  0  0  0  0  0  0  0  0  0  0  0
   -5.9850   22.5610  -32.5740 N   0  0  0  0  0  0  0  0  0  0  0  0
   -5.7980   23.4800  -33.0690 H   0  0  0  0  0  0  0  0  0  0  0  0
   -7.3770   22.3430  -32.2130 C   0  0  0  0  0  0  0  0  0  0  0  0
   -7.5578   22.7383  -31.2025 H   0  0  0  0  0  0  0  0  0  0  0  0
   -8.0239   22.8609  -32.9364 H   0  0  0  0  0  0  0  0  0  0  0  0
   -7.6900   20.8620  -32.2360 C   0  0  0  0  0  0  0  0  0  0  0  0
   -8.7950   20.3620  -31.5130 C   0  0  0  0  0  0  0  0  0  0  0  0
   -9.4292   21.0495  -30.9342 H   0  0  0  0  0  0  0  0  0  0  0  0
   -9.0860   18.9850  -31.5320 C   0  0  0  0  0  0  0  0  0  0  0  0
   -9.9498   18.5972  -30.9721 H   0  0  0  0  0  0  0  0  0  0  0  0
   -8.2730   18.1070  -32.2660 C   0  0  0  0  0  0  0  0  0  0  0  0
   -8.4775   17.0263  -32.2494 H   0  0  0  0  0  0  0  0  0  0  0  0
   -7.2040   18.6030  -33.0180 C   0  0  0  0  0  0  0  0  0  0  0  0
   -6.5893   17.9158  -33.6179 H   0  0  0  0  0  0  0  0  0  0  0  0
   -6.9140   19.9740  -33.0090 C   0  0  0  0  0  0  0  0  0  0  0  0
   -6.0762   20.3597  -33.6084 H   0  0  0  0  0  0  0  0  0  0  0  0
   -4.4750   23.3620  -31.5700 C   0  0  0  0  0  0  0  0  0  0  0  0
   -4.8279   24.0501  -32.3523 H   0  0  0  0  0  0  0  0  0  0  0  0
   -3.6640   23.9110  -30.5640 C   0  0  0  0  0  0  0  0  0  0  0  0
   -3.5040   25.3070  -30.4610 O   0  0  0  0  0  0  0  0  0  0  0  0
   -2.0130   20.7800  -26.8980 C   0  0  0  0  0  0  0  0  0  0  0  0
   -2.8547   21.2692  -26.3859 H   0  0  0  0  0  0  0  0  0  0  0  0
   -1.7600   19.4250  -26.6770 C   0  0  0  0  0  0  0  0  0  0  0  0
   -2.4066   18.8486  -25.9990 H   0  0  0  0  0  0  0  0  0  0  0  0
  1  2  1  0
  2  3  1  0
  3  4  2  0
  4  5  1  0
  4  6  1  0
  6  7  1  0
  6  8  2  0
  8  9  1  0
  9 10  1  0
  9 11  2  0
 11 12  1  0
 12 13  2  0
 13 14  1  0
 13 15  1  0
 15 16  1  0
 15 17  2  0
 17 18  1  0
 18 19  1  0
 18 20  1  0
 20 21  1  0
 20 22  1  0
 20 23  1  0
 23 24  2  0
 24 25  1  0
 24 26  1  0
 26 27  1  0
 26 28  2  0
 28 29  1  0
 28 30  1  0
 30 31  1  0
 30 32  2  0
 32 33  1  0
 17 34  1  0
 34 35  1  0
 34 36  2  0
 36 37  1  0
  8 38  1  0
 38 39  1  0
 38 40  2  0
 40 41  1  0
 40  3  1  0
 36 12  1  0
 32 23  1  0
M  CHG  2  16  -1  37  -1
M  END
>  <UniqueID>  (27) 
25

>  <SMILES>  (27) 
[O-]c1cc(NCc2ccccc2)c([O-])cc1/N=C\c1ccc(O)cc1

>  <Energy>  (27) 
224.22950562469532

>  <Genealogy>  (27) 
[O-]c1cc(NCc2ccccc2)c([O-])cc1N=Cc1ccc(O)cc1 (protonated)
[O-]c1cc(NCc2ccccc2)c([O-])cc1/N=C\c1ccc(O)cc1 (cis-trans isomerization)
[O-]c1cc(NCc2ccccc2)c([O-])cc1/N=C\c1ccc(O)cc1 (3D coordinates assigned)
[O-]c1cc(NCc2ccccc2)c([O-])cc1/N=C\c1ccc(O)cc1 (optimized conformer: 224.22950562469532 kcal/mol)

>  <smiles>  (27) 
Oc1ccc(C=Nc2cc(O)c(NCc3ccccc3)cc2O)cc1

>  <score_type>  (27) 
oracle

>  <origin>  (27) 
adgpu

>  <m_score__min__energy>  (27) 
-11.220000000000001

>  <m_primary>  (27) 
energy

$$$$
27:0
     RDKit          3D

 58 61  0  0  0  0  0  0  0  0999 V2000
    0.2320   13.4360  -35.0530 C   0  0  0  0  0  0  0  0  0  0  0  0
   -0.2360   14.5370  -35.8200 O   0  0  0  0  0  0  0  0  0  0  0  0
   -1.3970   15.2740  -35.5320 C   0  0  0  0  0  0  0  0  0  0  0  0
   -2.6690   14.6700  -35.5160 C   0  0  0  0  0  0  0  0  0  0  0  0
   -3.8070   15.4210  -35.2180 C   0  0  0  0  0  0  0  0  0  0  0  0
   -3.6980   16.7850  -34.9200 C   0  0  0  0  0  0  0  0  0  0  0  0
   -4.9010   17.5910  -34.6080 C   0  0  0  0  0  0  0  0  0  0  0  0
   -5.5520   18.1350  -35.5420 O   0  0  0  0  0  0  0  0  0  0  0  0
   -5.3490   17.7340  -33.2510 N   0  0  0  0  0  0  0  0  0  0  0  0
   -5.9200   18.9400  -32.7190 C   0  0  0  0  0  0  0  0  0  0  0  0
   -7.2960   19.2150  -32.8280 C   0  0  0  0  0  0  0  0  0  0  0  0
   -7.8140   20.4250  -32.3590 C   0  0  0  0  0  0  0  0  0  0  0  0
   -6.9650   21.3810  -31.7850 C   0  0  0  0  0  0  0  0  0  0  0  0
   -7.5980   22.9390  -31.2680 S   0  0  0  0  0  0  0  0  0  0  0  0
   -8.8830   23.2500  -31.9840 O   0  0  0  0  0  0  0  0  0  0  0  0
   -7.8560   22.8920  -29.7910 O   0  0  0  0  0  0  0  0  0  0  0  0
   -6.4460   24.1940  -31.6050 N   0  0  0  0  0  0  0  0  0  0  0  0
   -5.3550   24.3900  -30.9270 C   0  0  0  0  0  0  0  0  0  0  0  0
   -4.9110   23.6620  -29.8370 C   0  0  0  0  0  0  0  0  0  0  0  0
   -3.7320   24.2950  -29.5060 C   0  0  0  0  0  0  0  0  0  0  0  0
   -2.8360   23.9470  -28.3640 C   0  0  0  0  0  0  0  0  0  0  0  0
   -3.5310   25.2960  -30.3340 O   0  0  0  0  0  0  0  0  0  0  0  0
   -4.4920   25.3830  -31.2110 N   0  0  0  0  0  0  0  0  0  0  0  0
   -5.5960   21.1100  -31.6670 C   0  0  0  0  0  0  0  0  0  0  0  0
   -5.0760   19.9020  -32.1410 C   0  0  0  0  0  0  0  0  0  0  0  0
   -2.4320   17.3880  -34.9480 C   0  0  0  0  0  0  0  0  0  0  0  0
   -1.2790   16.6500  -35.2550 C   0  0  0  0  0  0  0  0  0  0  0  0
    0.3290   17.4110  -35.2840 S   0  0  0  0  0  0  0  0  0  0  0  0
    0.6950   17.6680  -36.7190 O   0  0  0  0  0  0  0  0  0  0  0  0
    1.3150   16.4370  -34.7040 O   0  0  0  0  0  0  0  0  0  0  0  0
    0.4800   18.9280  -34.4200 N   0  0  0  0  0  0  0  0  0  0  0  0
   -0.1630   18.9000  -33.1050 C   0  0  0  0  0  0  0  0  0  0  0  0
   -0.7120   20.2920  -32.8480 C   0  0  0  0  0  0  0  0  0  0  0  0
   -0.8780   20.9230  -34.2170 C   0  0  0  0  0  0  0  0  0  0  0  0
   -0.0390   20.0780  -35.1700 C   0  0  0  0  0  0  0  0  0  0  0  0
    0.1338   13.6671  -33.9820 H   0  0  0  0  0  0  0  0  0  0  0  0
   -0.3643   12.5430  -35.2916 H   0  0  0  0  0  0  0  0  0  0  0  0
    1.2888   13.2457  -35.2916 H   0  0  0  0  0  0  0  0  0  0  0  0
   -2.7665   13.5975  -35.7402 H   0  0  0  0  0  0  0  0  0  0  0  0
   -4.7956   14.9386  -35.2172 H   0  0  0  0  0  0  0  0  0  0  0  0
   -5.2470   16.9120  -32.6140 H   0  0  0  0  0  0  0  0  0  0  0  0
   -7.9674   18.4732  -33.2850 H   0  0  0  0  0  0  0  0  0  0  0  0
   -8.8920   20.6280  -32.4406 H   0  0  0  0  0  0  0  0  0  0  0  0
   -5.3823   22.7932  -29.3542 H   0  0  0  0  0  0  0  0  0  0  0  0
   -3.3555   24.1488  -27.4156 H   0  0  0  0  0  0  0  0  0  0  0  0
   -2.5713   22.8807  -28.4174 H   0  0  0  0  0  0  0  0  0  0  0  0
   -1.9209   24.5551  -28.4174 H   0  0  0  0  0  0  0  0  0  0  0  0
   -4.9285   21.8493  -31.2003 H   0  0  0  0  0  0  0  0  0  0  0  0
   -3.9971   19.7035  -32.0605 H   0  0  0  0  0  0  0  0  0  0  0  0
   -2.3413   18.4613  -34.7247 H   0  0  0  0  0  0  0  0  0  0  0  0
   -0.9811   18.1647  -33.1004 H   0  0  0  0  0  0  0  0  0  0  0  0
    0.5553   18.6115  -32.3235 H   0  0  0  0  0  0  0  0  0  0  0  0
   -1.6817   20.2333  -32.3319 H   0  0  0  0  0  0  0  0  0  0  0  0
   -0.0417   20.8822  -32.2059 H   0  0  0  0  0  0  0  0  0  0  0  0
   -1.9352   20.9065  -34.5205 H   0  0  0  0  0  0  0  0  0  0  0  0
   -0.5561   21.9748  -34.2191 H   0  0  0  0  0  0  0  0  0  0  0  0
   -0.6626   19.7278  -36.0058 H   0  0  0  0  0  0  0  0  0  0  0  0
    0.7907   20.6734  -35.5787 H   0  0  0  0  0  0  0  0  0  0  0  0
  1  2  1  0
  2  3  1  0
  3  4  2  0
  4  5  1  0
  5  6  2  0
  6  7  1  0
  7  8  2  0
  7  9  1  0
  9 10  1  0
 10 11  2  0
 11 12  1  0
 12 13  2  0
 13 14  1  0
 14 15  2  0
 14 16  2  0
 14 17  1  0
 17 18  2  3
 18 19  1  0
 19 20  2  0
 20 21  1  0
 20 22  1  0
 22 23  1  0
 13 24  1  0
 24 25  2  0
  6 26  1  0
 26 27  2  0
 27 28  1  0
 28 29  2  0
 28 30  2  0
 28 31  1  0
 31 32  1  0
 32 33  1  0
 33 34  1  0
 34 35  1  0
 27  3  1  0
 35 31  1  0
 25 10  1  0
 23 18  1  0
  1 36  1  0
  1 37  1  0
  1 38  1  0
  4 39  1  0
  5 40  1  0
  9 41  1  0
 11 42  1  0
 12 43  1  0
 19 44  1  0
 21 45  1  0
 21 46  1  0
 21 47  1  0
 24 48  1  0
 25 49  1  0
 26 50  1  0
 32 51  1  0
 32 52  1  0
 33 53  1  0
 33 54  1  0
 34 55  1  0
 34 56  1  0
 35 57  1  0
 35 58  1  0
M  CHG  1  23  -1
M  END
>  <UniqueID>  (28) 
26

>  <SMILES>  (28) 
COc1ccc(C(=O)Nc2ccc(S(=O)(=O)N=c3cc(C)o[n-]3)cc2)cc1S(=O)(=O)N1CCCC1

>  <Energy>  (28) 
102.38579027773784

>  <Genealogy>  (28) 
COc1ccc(C(=O)Nc2ccc(S(=O)(=O)N=c3cc(C)o[n-]3)cc2)cc1S(=O)(=O)N1CCCC1 (protonated)
COc1ccc(C(=O)Nc2ccc(S(=O)(=O)N=c3cc(C)o[n-]3)cc2)cc1S(=O)(=O)N1CCCC1 (3D coordinates assigned)
COc1ccc(C(=O)Nc2ccc(S(=O)(=O)N=c3cc(C)o[n-]3)cc2)cc1S(=O)(=O)N1CCCC1 (nonaromatic ring conformer: 102.38579027773784 kcal/mol)

>  <smiles>  (28) 
COc1ccc(C(=O)Nc2ccc(S(=O)(=O)N=c3cc(C)o[nH]3)cc2)cc1S(=O)(=O)N1CCCC1

>  <score_type>  (28) 
oracle

>  <origin>  (28) 
adgpu

>  <m_score__min__energy>  (28) 
-10.51

>  <m_primary>  (28) 
energy

$$$$
28:0
     RDKit          3D

 48 50  0  0  0  0  0  0  0  0999 V2000
    1.0070   21.9570  -35.3330 C   0  0  0  0  0  0  0  0  0  0  0  0
    0.0660   20.9240  -34.8040 C   0  0  0  0  0  0  0  0  0  0  0  0
   -1.0150   21.2900  -34.2690 O   0  0  0  0  0  0  0  0  0  0  0  0
    0.4430   19.5390  -34.8230 N   0  0  0  0  0  0  0  0  0  0  0  0
   -0.4510   18.4550  -34.5160 C   0  0  0  0  0  0  0  0  0  0  0  0
   -0.6730   17.4050  -35.4250 C   0  0  0  0  0  0  0  0  0  0  0  0
   -1.5260   16.3490  -35.0910 C   0  0  0  0  0  0  0  0  0  0  0  0
   -2.1400   16.3050  -33.8340 C   0  0  0  0  0  0  0  0  0  0  0  0
   -3.0370   15.2250  -33.5300 N   0  0  0  0  0  0  0  0  0  0  0  0
   -4.3070   15.3170  -33.4110 N   0  0  0  0  0  0  0  0  0  0  0  0
   -5.0620   16.5400  -33.3940 C   0  0  0  0  0  0  0  0  0  0  0  0
   -5.5220   17.0390  -32.1710 C   0  0  0  0  0  0  0  0  0  0  0  0
   -6.2340   18.2410  -32.1190 C   0  0  0  0  0  0  0  0  0  0  0  0
   -6.4860   18.9670  -33.2980 C   0  0  0  0  0  0  0  0  0  0  0  0
   -7.2040   20.2140  -33.2690 N   0  0  0  0  0  0  0  0  0  0  0  0
   -6.7590   21.3770  -32.5510 C   0  0  0  0  0  0  0  0  0  0  0  0
   -5.4310   21.8150  -32.6930 C   0  0  0  0  0  0  0  0  0  0  0  0
   -4.9500   22.8860  -31.9410 C   0  0  0  0  0  0  0  0  0  0  0  0
   -5.7840   23.5330  -31.0250 C   0  0  0  0  0  0  0  0  0  0  0  0
   -5.1680   24.8720  -30.0620 S   0  0  0  0  0  0  0  0  0  0  0  0
   -4.7180   24.3710  -28.7190 O   0  0  0  0  0  0  0  0  0  0  0  0
   -6.2500   25.8950  -29.8590 O   0  0  0  0  0  0  0  0  0  0  0  0
   -3.8700   25.5810  -30.8590 O   0  0  0  0  0  0  0  0  0  0  0  0
   -7.1030   23.0950  -30.8610 C   0  0  0  0  0  0  0  0  0  0  0  0
   -7.6100   22.0260  -31.6230 C   0  0  0  0  0  0  0  0  0  0  0  0
   -8.9860   21.6360  -31.4580 N   0  0  0  0  0  0  0  0  0  0  0  0
   -9.6390   21.1810  -32.4210 O   0  0  0  0  0  0  0  0  0  0  0  0
   -9.6430   21.8990  -30.2790 O   0  0  0  0  0  0  0  0  0  0  0  0
   -5.9770   18.4910  -34.5150 C   0  0  0  0  0  0  0  0  0  0  0  0
   -5.2640   17.2900  -34.5630 C   0  0  0  0  0  0  0  0  0  0  0  0
   -1.9320   17.3600  -32.9290 C   0  0  0  0  0  0  0  0  0  0  0  0
   -1.0770   18.4150  -33.2620 C   0  0  0  0  0  0  0  0  0  0  0  0
    1.4852   22.4819  -34.4929 H   0  0  0  0  0  0  0  0  0  0  0  0
    1.7783   21.4700  -35.9478 H   0  0  0  0  0  0  0  0  0  0  0  0
    0.4503   22.6796  -35.9478 H   0  0  0  0  0  0  0  0  0  0  0  0
    1.4500   19.3130  -34.9920 H   0  0  0  0  0  0  0  0  0  0  0  0
   -0.1725   17.4148  -36.4045 H   0  0  0  0  0  0  0  0  0  0  0  0
   -1.7158   15.5478  -35.8205 H   0  0  0  0  0  0  0  0  0  0  0  0
   -5.3222   16.4819  -31.2438 H   0  0  0  0  0  0  0  0  0  0  0  0
   -6.5986   18.6207  -31.1531 H   0  0  0  0  0  0  0  0  0  0  0  0
   -8.1300   20.2640  -33.7520 H   0  0  0  0  0  0  0  0  0  0  0  0
   -4.7639   21.3073  -33.4052 H   0  0  0  0  0  0  0  0  0  0  0  0
   -3.9107   23.2228  -32.0691 H   0  0  0  0  0  0  0  0  0  0  0  0
   -7.7525   23.5933  -30.1262 H   0  0  0  0  0  0  0  0  0  0  0  0
   -6.1401   19.0668  -35.4380 H   0  0  0  0  0  0  0  0  0  0  0  0
   -4.8595   16.9310  -35.5209 H   0  0  0  0  0  0  0  0  0  0  0  0
   -2.4437   17.3557  -31.9553 H   0  0  0  0  0  0  0  0  0  0  0  0
   -0.8941   19.2197  -32.5347 H   0  0  0  0  0  0  0  0  0  0  0  0
  1  2  1  0
  2  3  2  0
  2  4  1  0
  4  5  1  0
  5  6  2  0
  6  7  1  0
  7  8  2  0
  8  9  1  0
  9 10  2  3
 10 11  1  0
 11 12  2  0
 12 13  1  0
 13 14  2  0
 14 15  1  0
 15 16  1  0
 16 17  2  0
 17 18  1  0
 18 19  2  0
 19 20  1  0
 20 21  2  0
 20 22  2  0
 20 23  1  0
 19 24  1  0
 24 25  2  0
 25 26  1  0
 26 27  2  0
 26 28  1  0
 14 29  1  0
 29 30  2  0
  8 31  1  0
 31 32  2  0
 32  5  1  0
 30 11  1  0
 25 16  1  0
  1 33  1  0
  1 34  1  0
  1 35  1  0
  4 36  1  0
  6 37  1  0
  7 38  1  0
 12 39  1  0
 13 40  1  0
 15 41  1  0
 17 42  1  0
 18 43  1  0
 24 44  1  0
 29 45  1  0
 30 46  1  0
 31 47  1  0
 32 48  1  0
M  CHG  3  23  -1  26   1  28  -1
M  END
>  <UniqueID>  (29) 
27

>  <SMILES>  (29) 
CC(=O)Nc1ccc(N=Nc2ccc(Nc3ccc(S(=O)(=O)[O-])cc3[N+](=O)[O-])cc2)cc1

>  <Energy>  (29) 
75.84212661935165

>  <Genealogy>  (29) 
CC(=O)Nc1ccc(N=Nc2ccc(Nc3ccc(S(=O)(=O)[O-])cc3[N+](=O)[O-])cc2)cc1 (protonated)
CC(=O)Nc1ccc(N=Nc2ccc(Nc3ccc(S(=O)(=O)[O-])cc3[N+](=O)[O-])cc2)cc1 (3D coordinates assigned)
CC(=O)Nc1ccc(N=Nc2ccc(Nc3ccc(S(=O)(=O)[O-])cc3[N+](=O)[O-])cc2)cc1 (optimized conformer: 75.84212661935165 kcal/mol)

>  <smiles>  (29) 
CC(=O)Nc1ccc(N=Nc2ccc(Nc3ccc(S(=O)(=O)O)cc3[N+](=O)[O-])cc2)cc1

>  <score_type>  (29) 
oracle

>  <origin>  (29) 
adgpu

>  <m_score__min__energy>  (29) 
-11.76

>  <m_primary>  (29) 
energy

$$$$
29:0
     RDKit          3D

 38 40  0  0  0  0  0  0  0  0999 V2000
   -9.7510   21.9020  -31.7090 C   0  0  0  0  0  0  0  0  0  0  0  0
   -8.4050   22.4710  -31.3690 C   0  0  0  0  0  0  0  0  0  0  0  0
   -7.8540   22.2680  -30.0950 C   0  0  0  0  0  0  0  0  0  0  0  0
   -6.6140   22.8250  -29.7680 C   0  0  0  0  0  0  0  0  0  0  0  0
   -5.9160   23.5960  -30.7080 C   0  0  0  0  0  0  0  0  0  0  0  0
   -4.3150   24.2350  -30.3340 S   0  0  0  0  0  0  0  0  0  0  0  0
   -4.2730   25.6870  -30.7150 O   0  0  0  0  0  0  0  0  0  0  0  0
   -4.0310   24.1140  -28.8620 O   0  0  0  0  0  0  0  0  0  0  0  0
   -3.1020   23.3730  -31.2250 N   0  0  0  0  0  0  0  0  0  0  0  0
   -3.3010   22.2030  -31.7470 C   0  0  0  0  0  0  0  0  0  0  0  0
   -4.4710   21.5340  -31.6690 N   0  0  0  0  0  0  0  0  0  0  0  0
   -4.4250   20.3430  -32.3240 C   0  0  0  0  0  0  0  0  0  0  0  0
   -5.6230   19.4740  -32.3780 C   0  0  0  0  0  0  0  0  0  0  0  0
   -6.8860   19.9880  -32.7230 C   0  0  0  0  0  0  0  0  0  0  0  0
   -8.0100   19.1570  -32.7270 C   0  0  0  0  0  0  0  0  0  0  0  0
   -7.8880   17.8110  -32.3720 C   0  0  0  0  0  0  0  0  0  0  0  0
   -6.6420   17.2970  -32.0050 C   0  0  0  0  0  0  0  0  0  0  0  0
   -5.5160   18.1240  -32.0010 C   0  0  0  0  0  0  0  0  0  0  0  0
   -3.1780   20.0540  -32.9020 C   0  0  0  0  0  0  0  0  0  0  0  0
   -2.7740   18.8190  -33.6420 C   0  0  0  0  0  0  0  0  0  0  0  0
   -2.1430   21.3540  -32.6120 S   0  0  0  0  0  0  0  0  0  0  0  0
   -6.4720   23.8130  -31.9740 C   0  0  0  0  0  0  0  0  0  0  0  0
   -7.7150   23.2610  -32.3010 C   0  0  0  0  0  0  0  0  0  0  0  0
  -10.2964   21.6714  -30.7820 H   0  0  0  0  0  0  0  0  0  0  0  0
  -10.3214   22.6360  -32.2971 H   0  0  0  0  0  0  0  0  0  0  0  0
   -9.6220   20.9814  -32.2971 H   0  0  0  0  0  0  0  0  0  0  0  0
   -8.3992   21.6687  -29.3510 H   0  0  0  0  0  0  0  0  0  0  0  0
   -6.1844   22.6576  -28.7693 H   0  0  0  0  0  0  0  0  0  0  0  0
   -6.9898   21.0498  -32.9911 H   0  0  0  0  0  0  0  0  0  0  0  0
   -8.9922   19.5633  -33.0101 H   0  0  0  0  0  0  0  0  0  0  0  0
   -8.7723   17.1568  -32.3815 H   0  0  0  0  0  0  0  0  0  0  0  0
   -6.5472   16.2392  -31.7186 H   0  0  0  0  0  0  0  0  0  0  0  0
   -4.5395   17.7162  -31.7009 H   0  0  0  0  0  0  0  0  0  0  0  0
   -2.5154   18.0284  -32.9223 H   0  0  0  0  0  0  0  0  0  0  0  0
   -3.6084   18.4808  -34.2741 H   0  0  0  0  0  0  0  0  0  0  0  0
   -1.9011   19.0393  -34.2741 H   0  0  0  0  0  0  0  0  0  0  0  0
   -5.9297   24.4196  -32.7142 H   0  0  0  0  0  0  0  0  0  0  0  0
   -8.1532   23.4470  -33.2926 H   0  0  0  0  0  0  0  0  0  0  0  0
  1  2  1  0
  2  3  2  0
  3  4  1  0
  4  5  2  0
  5  6  1  0
  6  7  2  0
  6  8  2  0
  6  9  1  0
  9 10  2  3
 10 11  1  0
 11 12  1  0
 12 13  1  0
 13 14  2  0
 14 15  1  0
 15 16  2  0
 16 17  1  0
 17 18  2  0
 12 19  2  0
 19 20  1  0
 19 21  1  0
  5 22  1  0
 22 23  2  0
 23  2  1  0
 21 10  1  0
 18 13  1  0
  1 24  1  0
  1 25  1  0
  1 26  1  0
  3 27  1  0
  4 28  1  0
 14 29  1  0
 15 30  1  0
 16 31  1  0
 17 32  1  0
 18 33  1  0
 20 34  1  0
 20 35  1  0
 20 36  1  0
 22 37  1  0
 23 38  1  0
M  CHG  1  11  -1
M  END
>  <UniqueID>  (30) 
28

>  <SMILES>  (30) 
Cc1ccc(S(=O)(=O)N=c2[n-]c(-c3ccccc3)c(C)s2)cc1

>  <Energy>  (30) 
75.15481345212004

>  <Genealogy>  (30) 
Cc1ccc(S(=O)(=O)N=c2[n-]c(-c3ccccc3)c(C)s2)cc1 (protonated)
Cc1ccc(S(=O)(=O)N=c2[n-]c(-c3ccccc3)c(C)s2)cc1 (3D coordinates assigned)
Cc1ccc(S(=O)(=O)N=c2[n-]c(-c3ccccc3)c(C)s2)cc1 (optimized conformer: 75.15481345212004 kcal/mol)

>  <smiles>  (30) 
Cc1ccc(S(=O)(=O)N=c2[nH]c(-c3ccccc3)c(C)s2)cc1

>  <score_type>  (30) 
oracle

>  <origin>  (30) 
adgpu

>  <m_score__min__energy>  (30) 
-9.8000000000000007

>  <m_primary>  (30) 
energy

$$$$
30:0
     RDKit          3D

 38 41  0  0  0  0  0  0  0  0999 V2000
   -4.9290   12.3950  -33.7430 C   0  0  0  0  0  0  0  0  0  0  0  0
   -5.3370   13.8170  -33.4990 C   0  0  0  0  0  0  0  0  0  0  0  0
   -6.3980   14.3820  -34.2200 C   0  0  0  0  0  0  0  0  0  0  0  0
   -6.7570   15.7190  -34.0210 C   0  0  0  0  0  0  0  0  0  0  0  0
   -6.0510   16.5180  -33.1030 C   0  0  0  0  0  0  0  0  0  0  0  0
   -6.4160   17.9390  -32.8770 C   0  0  0  0  0  0  0  0  0  0  0  0
   -7.7010   18.4450  -32.6560 C   0  0  0  0  0  0  0  0  0  0  0  0
   -7.4800   19.7950  -32.5110 C   0  0  0  0  0  0  0  0  0  0  0  0
   -8.3840   20.7710  -32.2950 N   0  0  0  0  0  0  0  0  0  0  0  0
   -7.9470   22.0620  -32.1940 C   0  0  0  0  0  0  0  0  0  0  0  0
   -9.0840   23.2340  -31.9710 S   0  0  0  0  0  0  0  0  0  0  0  0
   -6.5910   22.3580  -32.2960 N   0  0  0  0  0  0  0  0  0  0  0  0
   -6.1080   23.7560  -32.1950 C   0  0  0  0  0  0  0  0  0  0  0  0
   -5.3230   23.9460  -30.9340 C   0  0  0  0  0  0  0  0  0  0  0  0
   -5.6380   23.4210  -29.6970 C   0  0  0  0  0  0  0  0  0  0  0  0
   -4.6360   23.8430  -28.8510 C   0  0  0  0  0  0  0  0  0  0  0  0
   -3.7740   24.5960  -29.6220 C   0  0  0  0  0  0  0  0  0  0  0  0
   -4.2100   24.6390  -30.8600 O   0  0  0  0  0  0  0  0  0  0  0  0
   -5.7010   21.3260  -32.5430 C   0  0  0  0  0  0  0  0  0  0  0  0
   -4.0830   21.5790  -32.7500 S   0  0  0  0  0  0  0  0  0  0  0  0
   -6.1850   20.0630  -32.6360 N   0  0  0  0  0  0  0  0  0  0  0  0
   -5.5110   18.9480  -32.8610 N   0  0  0  0  0  0  0  0  0  0  0  0
   -4.9760   15.9490  -32.3950 C   0  0  0  0  0  0  0  0  0  0  0  0
   -4.6190   14.6130  -32.5960 C   0  0  0  0  0  0  0  0  0  0  0  0
   -4.7827   11.8850  -32.7794 H   0  0  0  0  0  0  0  0  0  0  0  0
   -5.7158   11.8807  -34.3143 H   0  0  0  0  0  0  0  0  0  0  0  0
   -3.9892   12.3761  -34.3143 H   0  0  0  0  0  0  0  0  0  0  0  0
   -6.9518   13.7699  -34.9470 H   0  0  0  0  0  0  0  0  0  0  0  0
   -7.5972   16.1489  -34.5861 H   0  0  0  0  0  0  0  0  0  0  0  0
   -8.6542   17.8979  -32.6095 H   0  0  0  0  0  0  0  0  0  0  0  0
   -9.3990   20.5330  -32.2170 H   0  0  0  0  0  0  0  0  0  0  0  0
   -5.4659   23.9812  -33.0593 H   0  0  0  0  0  0  0  0  0  0  0  0
   -6.9746   24.4334  -32.1819 H   0  0  0  0  0  0  0  0  0  0  0  0
   -6.5067   22.7968  -29.4405 H   0  0  0  0  0  0  0  0  0  0  0  0
   -4.5419   23.6239  -27.7772 H   0  0  0  0  0  0  0  0  0  0  0  0
   -2.8601   25.0860  -29.2551 H   0  0  0  0  0  0  0  0  0  0  0  0
   -4.4115   16.5617  -31.6767 H   0  0  0  0  0  0  0  0  0  0  0  0
   -3.7704   14.1840  -32.0429 H   0  0  0  0  0  0  0  0  0  0  0  0
  1  2  1  0
  2  3  2  0
  3  4  1  0
  4  5  2  0
  5  6  1  0
  6  7  1  0
  7  8  2  0
  8  9  1  0
  9 10  1  0
 10 11  2  0
 10 12  1  0
 12 13  1  0
 13 14  1  0
 14 15  2  0
 15 16  1  0
 16 17  2  0
 17 18  1  0
 12 19  1  0
 19 20  2  0
 19 21  1  0
 21 22  1  0
  5 23  1  0
 23 24  2  0
 24  2  1  0
 22  6  2  0
 21  8  1  0
 18 14  1  0
  1 25  1  0
  1 26  1  0
  1 27  1  0
  3 28  1  0
  4 29  1  0
  7 30  1  0
  9 31  1  0
 13 32  1  0
 13 33  1  0
 15 34  1  0
 16 35  1  0
 17 36  1  0
 23 37  1  0
 24 38  1  0
M  END
>  <UniqueID>  (31) 
29

>  <SMILES>  (31) 
Cc1ccc(-c2cc3[nH]c(=S)n(Cc4ccco4)c(=S)n3n2)cc1

>  <Energy>  (31) 
113.3278718690657

>  <Genealogy>  (31) 
Cc1ccc(-c2cc3[nH]c(=S)n(Cc4ccco4)c(=S)n3n2)cc1 (3D coordinates assigned)
Cc1ccc(-c2cc3[nH]c(=S)n(Cc4ccco4)c(=S)n3n2)cc1 (optimized conformer: 113.3278718690657 kcal/mol)

>  <smiles>  (31) 
Cc1ccc(-c2cc3[nH]c(=S)n(Cc4ccco4)c(=S)n3n2)cc1

>  <score_type>  (31) 
oracle

>  <origin>  (31) 
adgpu

>  <m_score__min__energy>  (31) 
-8.2899999999999991

>  <m_primary>  (31) 
energy

$$$$
31:0
     RDKit          3D

 78 83  0  0  0  0  0  0  0  0999 V2000
   -5.0174   22.5112  -31.5642 H   0  0  0  0  0  0  0  0  0  0  0  0
   -4.0460   22.7740  -31.1200 C   0  0  0  0  0  0  0  0  0  0  0  0
   -2.9560   22.0080  -31.3760 N   0  0  0  0  0  0  0  0  0  0  0  0
   -1.7420   22.3050  -30.8380 C   0  0  0  0  0  0  0  0  0  0  0  0
   -0.6900   21.5920  -31.1050 N   0  0  0  0  0  0  0  0  0  0  0  0
   -0.6480   20.3790  -31.8740 C   0  0  0  0  0  0  0  0  0  0  0  0
   -0.2480   19.1980  -31.2420 C   0  0  0  0  0  0  0  0  0  0  0  0
    0.0827   19.2252  -30.1932 H   0  0  0  0  0  0  0  0  0  0  0  0
   -0.2650   17.9840  -31.9320 C   0  0  0  0  0  0  0  0  0  0  0  0
    0.0845   17.0677  -31.4338 H   0  0  0  0  0  0  0  0  0  0  0  0
   -0.7250   17.9250  -33.2570 C   0  0  0  0  0  0  0  0  0  0  0  0
   -0.8350   16.6080  -33.9260 C   0  0  0  0  0  0  0  0  0  0  0  0
   -0.5240   15.5660  -33.2880 O   0  0  0  0  0  0  0  0  0  0  0  0
   -1.4170   16.4880  -35.2310 N   0  0  0  0  0  0  0  0  0  0  0  0
   -1.4060   17.3140  -35.8670 H   0  0  0  0  0  0  0  0  0  0  0  0
   -2.5210   15.5910  -35.3920 C   0  0  0  0  0  0  0  0  0  0  0  0
   -3.6200   15.7310  -34.5390 C   0  0  0  0  0  0  0  0  0  0  0  0
   -3.6959   16.6170  -33.8916 H   0  0  0  0  0  0  0  0  0  0  0  0
   -4.6260   14.7560  -34.4990 C   0  0  0  0  0  0  0  0  0  0  0  0
   -5.7320   14.8300  -33.4650 C   0  0  0  0  0  0  0  0  0  0  0  0
   -6.5384   14.1467  -33.7697 H   0  0  0  0  0  0  0  0  0  0  0  0
   -5.2873   14.5504  -32.4985 H   0  0  0  0  0  0  0  0  0  0  0  0
   -6.3060   16.1880  -33.3010 N   0  0  0  0  0  0  0  0  0  0  0  0
   -5.7090   16.9660  -32.1920 C   0  0  0  0  0  0  0  0  0  0  0  0
   -5.9928   16.5061  -31.2339 H   0  0  0  0  0  0  0  0  0  0  0  0
   -4.6149   16.9637  -32.3056 H   0  0  0  0  0  0  0  0  0  0  0  0
   -6.2070   18.4180  -32.2220 C   0  0  0  0  0  0  0  0  0  0  0  0
   -7.2996   18.4182  -32.0949 H   0  0  0  0  0  0  0  0  0  0  0  0
   -5.7034   18.9595  -31.4077 H   0  0  0  0  0  0  0  0  0  0  0  0
   -5.8760   19.1100  -33.4940 N   0  0  0  0  0  0  0  0  0  0  0  0
   -4.7690   20.0620  -33.3190 C   0  0  0  0  0  0  0  0  0  0  0  0
   -4.5866   20.2189  -32.2456 H   0  0  0  0  0  0  0  0  0  0  0  0
   -3.8606   19.6587  -33.7902 H   0  0  0  0  0  0  0  0  0  0  0  0
   -5.0318   21.0206  -33.7902 H   0  0  0  0  0  0  0  0  0  0  0  0
   -5.5900   18.1930  -34.6210 C   0  0  0  0  0  0  0  0  0  0  0  0
   -5.7717   18.7214  -35.5685 H   0  0  0  0  0  0  0  0  0  0  0  0
   -4.5402   17.8720  -34.5512 H   0  0  0  0  0  0  0  0  0  0  0  0
   -6.4850   16.9460  -34.5630 C   0  0  0  0  0  0  0  0  0  0  0  0
   -7.5362   17.2601  -34.6418 H   0  0  0  0  0  0  0  0  0  0  0  0
   -6.2013   16.2869  -35.3967 H   0  0  0  0  0  0  0  0  0  0  0  0
   -4.5610   13.6730  -35.3900 C   0  0  0  0  0  0  0  0  0  0  0  0
   -5.3517   12.9083  -35.3791 H   0  0  0  0  0  0  0  0  0  0  0  0
   -3.4980   13.5600  -36.2910 C   0  0  0  0  0  0  0  0  0  0  0  0
   -3.4661   12.7152  -36.9947 H   0  0  0  0  0  0  0  0  0  0  0  0
   -2.4700   14.5180  -36.3040 C   0  0  0  0  0  0  0  0  0  0  0  0
   -1.3120   14.3440  -37.2470 C   0  0  0  0  0  0  0  0  0  0  0  0
   -0.3863   14.2049  -36.6692 H   0  0  0  0  0  0  0  0  0  0  0  0
   -1.4847   13.4617  -37.8808 H   0  0  0  0  0  0  0  0  0  0  0  0
   -1.2178   15.2381  -37.8808 H   0  0  0  0  0  0  0  0  0  0  0  0
   -1.1340   19.1110  -33.8920 C   0  0  0  0  0  0  0  0  0  0  0  0
   -1.4838   19.0814  -34.9345 H   0  0  0  0  0  0  0  0  0  0  0  0
   -1.0980   20.3280  -33.2040 C   0  0  0  0  0  0  0  0  0  0  0  0
   -1.4238   21.2505  -33.7069 H   0  0  0  0  0  0  0  0  0  0  0  0
   -1.6170   23.3890  -30.0330 N   0  0  0  0  0  0  0  0  0  0  0  0
   -2.6800   24.1820  -29.7320 C   0  0  0  0  0  0  0  0  0  0  0  0
   -2.5200   25.2780  -28.8740 O   0  0  0  0  0  0  0  0  0  0  0  0
   -1.4840   25.3710  -27.9380 C   0  0  0  0  0  0  0  0  0  0  0  0
   -0.7770   26.5790  -27.8070 C   0  0  0  0  0  0  0  0  0  0  0  0
   -1.0644   27.4489  -28.4159 H   0  0  0  0  0  0  0  0  0  0  0  0
    0.2950   26.6830  -26.9030 C   0  0  0  0  0  0  0  0  0  0  0  0
    0.8489   27.6295  -26.8175 H   0  0  0  0  0  0  0  0  0  0  0  0
    0.6620   25.5850  -26.1090 C   0  0  0  0  0  0  0  0  0  0  0  0
    1.5053   25.6582  -25.4065 H   0  0  0  0  0  0  0  0  0  0  0  0
   -0.0640   24.3980  -26.2280 C   0  0  0  0  0  0  0  0  0  0  0  0
   -1.1160   24.2970  -27.1090 C   0  0  0  0  0  0  0  0  0  0  0  0
   -1.7200   22.9910  -26.9430 C   0  0  0  0  0  0  0  0  0  0  0  0
   -2.7740   22.6010  -27.5110 O   0  0  0  0  0  0  0  0  0  0  0  0
   -0.9640   22.1870  -25.9390 C   0  0  0  0  0  0  0  0  0  0  0  0
   -1.6198   21.8827  -25.1099 H   0  0  0  0  0  0  0  0  0  0  0  0
   -0.5563   21.2585  -26.3652 H   0  0  0  0  0  0  0  0  0  0  0  0
    0.1430   23.1430  -25.4390 C   0  0  0  0  0  0  0  0  0  0  0  0
    0.0319   23.3376  -24.3621 H   0  0  0  0  0  0  0  0  0  0  0  0
    1.1511   22.7242  -25.5745 H   0  0  0  0  0  0  0  0  0  0  0  0
   -3.9380   23.9010  -30.2900 C   0  0  0  0  0  0  0  0  0  0  0  0
   -5.1360   24.7620  -29.9640 C   0  0  0  0  0  0  0  0  0  0  0  0
   -4.9260   26.0420  -30.4480 F   0  0  0  0  0  0  0  0  0  0  0  0
   -6.2660   24.2340  -30.5620 F   0  0  0  0  0  0  0  0  0  0  0  0
   -5.3560   24.8340  -28.5990 F   0  0  0  0  0  0  0  0  0  0  0  0
  1  2  1  0
  2  3  1  0
  3  4  1  0
  4  5  2  0
  5  6  1  0
  6  7  2  0
  7  8  1  0
  7  9  1  0
  9 10  1  0
  9 11  2  0
 11 12  1  0
 12 13  2  0
 12 14  1  0
 14 15  1  0
 14 16  1  0
 16 17  2  0
 17 18  1  0
 17 19  1  0
 19 20  1  0
 20 21  1  0
 20 22  1  0
 20 23  1  0
 23 24  1  0
 24 25  1  0
 24 26  1  0
 24 27  1  0
 27 28  1  0
 27 29  1  0
 27 30  1  0
 30 31  1  0
 31 32  1  0
 31 33  1  0
 31 34  1  0
 30 35  1  0
 35 36  1  0
 35 37  1  0
 35 38  1  0
 38 39  1  0
 38 40  1  0
 19 41  2  0
 41 42  1  0
 41 43  1  0
 43 44  1  0
 43 45  2  0
 45 46  1  0
 46 47  1  0
 46 48  1  0
 46 49  1  0
 11 50  1  0
 50 51  1  0
 50 52  2  0
 52 53  1  0
  4 54  1  0
 54 55  2  0
 55 56  1  0
 56 57  1  0
 57 58  2  0
 58 59  1  0
 58 60  1  0
 60 61  1  0
 60 62  2  0
 62 63  1  0
 62 64  1  0
 64 65  2  0
 65 66  1  0
 66 67  2  0
 66 68  1  0
 68 69  1  0
 68 70  1  0
 68 71  1  0
 71 72  1  0
 71 73  1  0
 55 74  1  0
 74 75  1  0
 75 76  1  0
 75 77  1  0
 75 78  1  0
 74  2  2  0
 52  6  1  0
 65 57  1  0
 45 16  1  0
 71 64  1  0
 38 23  1  0
M  CHG  1   3  -1
M  END
>  <UniqueID>  (32) 
30

>  <SMILES>  (32) 
Cc1ccc(CN2CCN(C)CC2)cc1NC(=O)c1ccc(/N=c2/nc(Oc3cccc4c3C(=O)CC4)c(C(F)(F)F)c[n-]2)cc1

>  <Energy>  (32) 
139.74144847221356

>  <Genealogy>  (32) 
Cc1ccc(CN2CCN(C)CC2)cc1NC(=O)c1ccc(N=c2nc(Oc3cccc4c3C(=O)CC4)c(C(F)(F)F)c[n-]2)cc1 (protonated)
Cc1ccc(CN2CCN(C)CC2)cc1NC(=O)c1ccc(/N=c2/nc(Oc3cccc4c3C(=O)CC4)c(C(F)(F)F)c[n-]2)cc1 (cis-trans isomerization)
Cc1ccc(CN2CCN(C)CC2)cc1NC(=O)c1ccc(/N=c2/nc(Oc3cccc4c3C(=O)CC4)c(C(F)(F)F)c[n-]2)cc1 (3D coordinates assigned)
Cc1ccc(CN2CCN(C)CC2)cc1NC(=O)c1ccc(/N=c2/nc(Oc3cccc4c3C(=O)CC4)c(C(F)(F)F)c[n-]2)cc1 (nonaromatic ring conformer: 139.74144847221356 kcal/mol)

>  <smiles>  (32) 
Cc1ccc(CN2CCN(C)CC2)cc1NC(=O)c1ccc(N=c2nc(Oc3cccc4c3C(=O)CC4)c(C(F)(F)F)c[nH]2)cc1

>  <score_type>  (32) 
oracle

>  <origin>  (32) 
adgpu

>  <m_score__min__energy>  (32) 
-10.73

>  <m_primary>  (32) 
energy

$$$$
32:0
     RDKit          3D

 53 56  0  0  0  0  0  0  0  0999 V2000
    4.0371   20.3700  -35.4285 H   0  0  0  0  0  0  0  0  0  0  0  0
    3.0850   20.9210  -35.4310 C   0  0  0  0  0  0  0  0  0  0  0  0
    2.9890   22.1080  -36.0830 N   0  0  0  0  0  0  0  0  0  0  0  0
    1.8210   22.8080  -36.0960 C   0  0  0  0  0  0  0  0  0  0  0  0
    1.7260   24.0330  -36.7620 O   0  0  0  0  0  0  0  0  0  0  0  0
    0.8400   25.0660  -36.3460 C   0  0  0  0  0  0  0  0  0  0  0  0
    0.8091   25.1020  -35.2470 H   0  0  0  0  0  0  0  0  0  0  0  0
    1.1948   26.0319  -36.7347 H   0  0  0  0  0  0  0  0  0  0  0  0
   -0.1687   24.8625  -36.7347 H   0  0  0  0  0  0  0  0  0  0  0  0
    0.7320   22.3130  -35.4520 N   0  0  0  0  0  0  0  0  0  0  0  0
    0.7730   21.1220  -34.7920 C   0  0  0  0  0  0  0  0  0  0  0  0
   -0.4060   20.6380  -34.1170 N   0  0  0  0  0  0  0  0  0  0  0  0
   -1.1150   21.5460  -33.2000 C   0  0  0  0  0  0  0  0  0  0  0  0
   -1.6170   22.3273  -33.7895 H   0  0  0  0  0  0  0  0  0  0  0  0
   -0.3765   21.9840  -32.5124 H   0  0  0  0  0  0  0  0  0  0  0  0
   -2.1630   20.8040  -32.3650 C   0  0  0  0  0  0  0  0  0  0  0  0
   -2.7970   21.5367  -31.8443 H   0  0  0  0  0  0  0  0  0  0  0  0
   -1.6489   20.1629  -31.6338 H   0  0  0  0  0  0  0  0  0  0  0  0
   -3.0040   19.9630  -33.2300 N   0  0  0  0  0  0  0  0  0  0  0  0
   -4.4240   19.8430  -33.0000 C   0  0  0  0  0  0  0  0  0  0  0  0
   -5.1180   18.7780  -33.4800 N   0  0  0  0  0  0  0  0  0  0  0  0
   -6.4510   18.6710  -33.2550 C   0  0  0  0  0  0  0  0  0  0  0  0
   -7.0053   17.8035  -33.6426 H   0  0  0  0  0  0  0  0  0  0  0  0
   -7.1030   19.6330  -32.5520 N   0  0  0  0  0  0  0  0  0  0  0  0
   -8.1300   19.5400  -32.3840 H   0  0  0  0  0  0  0  0  0  0  0  0
   -6.4220   20.7120  -32.0810 C   0  0  0  0  0  0  0  0  0  0  0  0
   -7.0550   21.6250  -31.4000 N   0  0  0  0  0  0  0  0  0  0  0  0
   -6.4970   22.8480  -30.8930 C   0  0  0  0  0  0  0  0  0  0  0  0
   -7.3030   23.9610  -30.5910 C   0  0  0  0  0  0  0  0  0  0  0  0
   -8.3888   23.9135  -30.7607 H   0  0  0  0  0  0  0  0  0  0  0  0
   -6.7300   25.1250  -30.0770 C   0  0  0  0  0  0  0  0  0  0  0  0
   -7.3623   25.9998  -29.8650 H   0  0  0  0  0  0  0  0  0  0  0  0
   -5.3570   25.1830  -29.8310 C   0  0  0  0  0  0  0  0  0  0  0  0
   -4.9080   26.1087  -29.4418 H   0  0  0  0  0  0  0  0  0  0  0  0
   -4.5480   24.0630  -30.0790 C   0  0  0  0  0  0  0  0  0  0  0  0
   -3.0950   24.1100  -29.8180 C   0  0  0  0  0  0  0  0  0  0  0  0
   -2.4080   23.0690  -29.9930 O   0  0  0  0  0  0  0  0  0  0  0  0
   -2.4450   25.2910  -29.3310 N   0  0  0  0  0  0  0  0  0  0  0  0
   -1.2010   25.2980  -28.5680 C   0  0  0  0  0  0  0  0  0  0  0  0
   -1.4307   25.2967  -27.4922 H   0  0  0  0  0  0  0  0  0  0  0  0
   -0.6123   24.4032  -28.8183 H   0  0  0  0  0  0  0  0  0  0  0  0
   -0.6224   26.1994  -28.8183 H   0  0  0  0  0  0  0  0  0  0  0  0
   -5.1250   22.9000  -30.6180 C   0  0  0  0  0  0  0  0  0  0  0  0
   -4.4935   22.0235  -30.8255 H   0  0  0  0  0  0  0  0  0  0  0  0
   -5.0840   20.8020  -32.2980 N   0  0  0  0  0  0  0  0  0  0  0  0
   -2.3840   19.1690  -34.3030 C   0  0  0  0  0  0  0  0  0  0  0  0
   -2.7369   19.5482  -35.2734 H   0  0  0  0  0  0  0  0  0  0  0  0
   -2.6725   18.1179  -34.1550 H   0  0  0  0  0  0  0  0  0  0  0  0
   -0.8530   19.2460  -34.2700 C   0  0  0  0  0  0  0  0  0  0  0  0
   -0.4506   18.8387  -35.2093 H   0  0  0  0  0  0  0  0  0  0  0  0
   -0.4878   18.6610  -33.4130 H   0  0  0  0  0  0  0  0  0  0  0  0
    1.9770   20.4010  -34.7650 C   0  0  0  0  0  0  0  0  0  0  0  0
    2.0446   19.4433  -34.2281 H   0  0  0  0  0  0  0  0  0  0  0  0
  1  2  1  0
  2  3  2  0
  3  4  1  0
  4  5  1  0
  5  6  1  0
  6  7  1  0
  6  8  1  0
  6  9  1  0
  4 10  2  0
 10 11  1  0
 11 12  1  0
 12 13  1  0
 13 14  1  0
 13 15  1  0
 13 16  1  0
 16 17  1  0
 16 18  1  0
 16 19  1  0
 19 20  1  0
 20 21  1  0
 21 22  2  0
 22 23  1  0
 22 24  1  0
 24 25  1  0
 24 26  1  0
 26 27  2  0
 27 28  1  0
 28 29  2  0
 29 30  1  0
 29 31  1  0
 31 32  1  0
 31 33  2  0
 33 34  1  0
 33 35  1  0
 35 36  1  0
 36 37  2  0
 36 38  1  0
 38 39  1  0
 39 40  1  0
 39 41  1  0
 39 42  1  0
 35 43  2  0
 43 44  1  0
 26 45  1  0
 19 46  1  0
 46 47  1  0
 46 48  1  0
 46 49  1  0
 49 50  1  0
 49 51  1  0
 11 52  2  0
 52 53  1  0
 52  2  1  0
 49 12  1  0
 45 20  2  0
 43 28  1  0
M  CHG  1  38  -1
M  END
>  <UniqueID>  (33) 
31

>  <SMILES>  (33) 
C[N-]C(=O)c1cccc(/N=c2\nc(N3CCN(c4ccnc(OC)n4)CC3)nc[nH]2)c1

>  <Energy>  (33) 
67.7916567129388

>  <Genealogy>  (33) 
C[N-]C(=O)c1cccc(N=c2nc(N3CCN(c4ccnc(OC)n4)CC3)nc[nH]2)c1 (protonated)
C[N-]C(=O)c1cccc(/N=c2\nc(N3CCN(c4ccnc(OC)n4)CC3)nc[nH]2)c1 (cis-trans isomerization)
C[N-]C(=O)c1cccc(/N=c2\nc(N3CCN(c4ccnc(OC)n4)CC3)nc[nH]2)c1 (3D coordinates assigned)
C[N-]C(=O)c1cccc(/N=c2\nc(N3CCN(c4ccnc(OC)n4)CC3)nc[nH]2)c1 (nonaromatic ring conformer: 67.7916567129388 kcal/mol)

>  <smiles>  (33) 
CNC(=O)c1cccc(N=c2nc(N3CCN(c4ccnc(OC)n4)CC3)nc[nH]2)c1

>  <score_type>  (33) 
oracle

>  <origin>  (33) 
adgpu

>  <m_score__min__energy>  (33) 
-10.23

>  <m_primary>  (33) 
energy

$$$$
33:0
     RDKit          3D

 51 53  0  0  0  0  0  0  0  0999 V2000
   -8.3320   19.3620  -31.5990 C   0  0  0  0  0  0  0  0  0  0  0  0
   -7.5810   20.6680  -31.5850 C   0  0  0  0  0  0  0  0  0  0  0  0
   -8.1700   21.7490  -30.9080 C   0  0  0  0  0  0  0  0  0  0  0  0
   -7.5790   23.0060  -30.9190 C   0  0  0  0  0  0  0  0  0  0  0  0
   -6.3980   23.2270  -31.6340 C   0  0  0  0  0  0  0  0  0  0  0  0
   -5.8240   24.5400  -31.7020 N   0  0  0  0  0  0  0  0  0  0  0  0
   -5.1930   25.2290  -30.6120 C   0  0  0  0  0  0  0  0  0  0  0  0
   -5.9110   25.7870  -29.7440 O   0  0  0  0  0  0  0  0  0  0  0  0
   -3.7640   25.2980  -30.4840 N   0  0  0  0  0  0  0  0  0  0  0  0
   -2.9640   24.5020  -29.5990 C   0  0  0  0  0  0  0  0  0  0  0  0
   -1.9560   25.0740  -28.8030 C   0  0  0  0  0  0  0  0  0  0  0  0
   -1.2330   24.2800  -27.9060 C   0  0  0  0  0  0  0  0  0  0  0  0
   -0.0180   25.0120  -26.8740 Cl  0  0  0  0  0  0  0  0  0  0  0  0
   -1.4870   22.9080  -27.8250 C   0  0  0  0  0  0  0  0  0  0  0  0
   -2.4600   22.3270  -28.6440 C   0  0  0  0  0  0  0  0  0  0  0  0
   -2.7730   20.6030  -28.5460 Cl  0  0  0  0  0  0  0  0  0  0  0  0
   -3.1920   23.1210  -29.5340 C   0  0  0  0  0  0  0  0  0  0  0  0
   -5.7780   22.1570  -32.3040 C   0  0  0  0  0  0  0  0  0  0  0  0
   -4.5970   22.3780  -33.0180 O   0  0  0  0  0  0  0  0  0  0  0  0
   -6.3560   20.8630  -32.2820 C   0  0  0  0  0  0  0  0  0  0  0  0
   -5.5350   19.5360  -33.1600 S   0  0  0  0  0  0  0  0  0  0  0  0
   -5.7730   18.2210  -32.4730 O   0  0  0  0  0  0  0  0  0  0  0  0
   -6.1190   19.4190  -34.5400 O   0  0  0  0  0  0  0  0  0  0  0  0
   -3.7570   19.7910  -33.3270 C   0  0  0  0  0  0  0  0  0  0  0  0
   -3.1060   20.2250  -31.9950 C   0  0  0  0  0  0  0  0  0  0  0  0
   -1.6500   19.7360  -31.8440 C   0  0  0  0  0  0  0  0  0  0  0  0
   -0.9190   19.6990  -33.1270 N   0  0  0  0  0  0  0  0  0  0  0  0
   -0.6030   21.0490  -33.6210 C   0  0  0  0  0  0  0  0  0  0  0  0
   -1.5640   18.8460  -34.1590 C   0  0  0  0  0  0  0  0  0  0  0  0
   -3.0580   18.5580  -33.9030 C   0  0  0  0  0  0  0  0  0  0  0  0
   -8.5196   19.0358  -30.5654 H   0  0  0  0  0  0  0  0  0  0  0  0
   -9.2910   19.4961  -32.1209 H   0  0  0  0  0  0  0  0  0  0  0  0
   -7.7338   18.6006  -32.1209 H   0  0  0  0  0  0  0  0  0  0  0  0
   -9.1126   21.5978  -30.3615 H   0  0  0  0  0  0  0  0  0  0  0  0
   -8.0432   23.8329  -30.3616 H   0  0  0  0  0  0  0  0  0  0  0  0
   -1.7352   26.1484  -28.8856 H   0  0  0  0  0  0  0  0  0  0  0  0
   -0.9212   22.2850  -27.1166 H   0  0  0  0  0  0  0  0  0  0  0  0
   -3.9491   22.6593  -30.1849 H   0  0  0  0  0  0  0  0  0  0  0  0
   -4.5210   23.0700  -33.7540 H   0  0  0  0  0  0  0  0  0  0  0  0
   -3.6242   20.6157  -34.0428 H   0  0  0  0  0  0  0  0  0  0  0  0
   -3.1132   21.3238  -31.9437 H   0  0  0  0  0  0  0  0  0  0  0  0
   -3.6903   19.7704  -31.1814 H   0  0  0  0  0  0  0  0  0  0  0  0
   -1.1213   20.4147  -31.1585 H   0  0  0  0  0  0  0  0  0  0  0  0
   -1.6863   18.7075  -31.4555 H   0  0  0  0  0  0  0  0  0  0  0  0
   -0.4449   21.7242  -32.7671 H   0  0  0  0  0  0  0  0  0  0  0  0
    0.3106   21.0112  -34.2325 H   0  0  0  0  0  0  0  0  0  0  0  0
   -1.4385   21.4206  -34.2325 H   0  0  0  0  0  0  0  0  0  0  0  0
   -1.4727   19.3530  -35.1309 H   0  0  0  0  0  0  0  0  0  0  0  0
   -1.0475   17.8752  -34.1324 H   0  0  0  0  0  0  0  0  0  0  0  0
   -3.5398   18.2806  -34.8522 H   0  0  0  0  0  0  0  0  0  0  0  0
   -3.1396   17.7349  -33.1778 H   0  0  0  0  0  0  0  0  0  0  0  0
  1  2  1  0
  2  3  2  0
  3  4  1  0
  4  5  2  0
  5  6  1  0
  6  7  1  0
  7  8  2  0
  7  9  1  0
  9 10  1  0
 10 11  2  0
 11 12  1  0
 12 13  1  0
 12 14  2  0
 14 15  1  0
 15 16  1  0
 15 17  2  0
  5 18  1  0
 18 19  1  0
 18 20  2  0
 20 21  1  0
 21 22  2  0
 21 23  2  0
 21 24  1  0
 24 25  1  0
 25 26  1  0
 26 27  1  0
 27 28  1  0
 27 29  1  0
 29 30  1  0
 20  2  1  0
 30 24  1  0
 17 10  1  0
  1 31  1  0
  1 32  1  0
  1 33  1  0
  3 34  1  0
  4 35  1  0
 11 36  1  0
 14 37  1  0
 17 38  1  0
 19 39  1  0
 24 40  1  0
 25 41  1  0
 25 42  1  0
 26 43  1  0
 26 44  1  0
 28 45  1  0
 28 46  1  0
 28 47  1  0
 29 48  1  0
 29 49  1  0
 30 50  1  0
 30 51  1  0
M  CHG  2   6  -1   9  -1
M  END
>  <UniqueID>  (34) 
32

>  <SMILES>  (34) 
Cc1ccc([N-]C(=O)[N-]c2cc(Cl)cc(Cl)c2)c(O)c1S(=O)(=O)C1CCN(C)CC1

>  <Energy>  (34) 
69.43879593403167

>  <Genealogy>  (34) 
Cc1ccc([N-]C(=O)[N-]c2cc(Cl)cc(Cl)c2)c(O)c1S(=O)(=O)C1CCN(C)CC1 (protonated)
Cc1ccc([N-]C(=O)[N-]c2cc(Cl)cc(Cl)c2)c(O)c1S(=O)(=O)C1CCN(C)CC1 (3D coordinates assigned)
Cc1ccc([N-]C(=O)[N-]c2cc(Cl)cc(Cl)c2)c(O)c1S(=O)(=O)C1CCN(C)CC1 (nonaromatic ring conformer: 69.43879593403167 kcal/mol)

>  <smiles>  (34) 
Cc1ccc(NC(=O)Nc2cc(Cl)cc(Cl)c2)c(O)c1S(=O)(=O)C1CCN(C)CC1

>  <score_type>  (34) 
oracle

>  <origin>  (34) 
adgpu

>  <m_score__min__energy>  (34) 
-13.52

>  <m_primary>  (34) 
energy

$$$$
34:0
     RDKit          3D

 33 34  0  0  0  0  0  0  0  0999 V2000
   -9.1130   21.0900  -31.9870 C   0  0  0  0  0  0  0  0  0  0  0  0
   -7.7150   20.6890  -32.3340 C   0  0  0  0  0  0  0  0  0  0  0  0
   -6.6250   21.3280  -31.7320 C   0  0  0  0  0  0  0  0  0  0  0  0
   -5.3330   20.9120  -32.0730 C   0  0  0  0  0  0  0  0  0  0  0  0
   -4.1300   21.5480  -31.4420 C   0  0  0  0  0  0  0  0  0  0  0  0
   -4.1060   22.9930  -31.6790 N   0  0  0  0  0  0  0  0  0  0  0  0
   -3.9930   23.8880  -30.1890 S   0  0  0  0  0  0  0  0  0  0  0  0
   -5.2430   23.6680  -29.3840 O   0  0  0  0  0  0  0  0  0  0  0  0
   -3.8940   25.3530  -30.5110 O   0  0  0  0  0  0  0  0  0  0  0  0
   -2.5500   23.4200  -29.2780 C   0  0  0  0  0  0  0  0  0  0  0  0
   -2.4310   22.0890  -28.8540 C   0  0  0  0  0  0  0  0  0  0  0  0
   -1.3140   21.6640  -28.1090 C   0  0  0  0  0  0  0  0  0  0  0  0
   -1.2000   20.2550  -27.6650 C   0  0  0  0  0  0  0  0  0  0  0  0
   -0.0000   19.5180  -27.8940 N   0  0  0  0  0  0  0  0  0  0  0  0
   -2.1620   19.6920  -27.0780 O   0  0  0  0  0  0  0  0  0  0  0  0
   -0.3130   22.5980  -27.7930 C   0  0  0  0  0  0  0  0  0  0  0  0
   -0.4270   23.9260  -28.2130 C   0  0  0  0  0  0  0  0  0  0  0  0
   -1.5370   24.3430  -28.9510 C   0  0  0  0  0  0  0  0  0  0  0  0
   -1.6170   25.6720  -29.3500 O   0  0  0  0  0  0  0  0  0  0  0  0
   -5.1680   19.9030  -32.9690 N   0  0  0  0  0  0  0  0  0  0  0  0
   -6.2370   19.2900  -33.5390 C   0  0  0  0  0  0  0  0  0  0  0  0
   -6.0060   18.0750  -34.6050 S   0  0  0  0  0  0  0  0  0  0  0  0
   -7.4970   19.6810  -33.2200 N   0  0  0  0  0  0  0  0  0  0  0  0
   -9.2245   21.1220  -30.8931 H   0  0  0  0  0  0  0  0  0  0  0  0
   -9.3239   22.0848  -32.4063 H   0  0  0  0  0  0  0  0  0  0  0  0
   -9.8191   20.3582  -32.4063 H   0  0  0  0  0  0  0  0  0  0  0  0
   -6.7805   22.1399  -31.0063 H   0  0  0  0  0  0  0  0  0  0  0  0
   -4.1541   21.3631  -30.3579 H   0  0  0  0  0  0  0  0  0  0  0  0
   -3.2282   21.1074  -31.8921 H   0  0  0  0  0  0  0  0  0  0  0  0
   -3.2211   21.3666  -29.1067 H   0  0  0  0  0  0  0  0  0  0  0  0
    0.5750   19.1650  -27.0970 H   0  0  0  0  0  0  0  0  0  0  0  0
    0.5657   22.2820  -27.2115 H   0  0  0  0  0  0  0  0  0  0  0  0
    0.3633   24.6482  -27.9605 H   0  0  0  0  0  0  0  0  0  0  0  0
  1  2  1  0
  2  3  1  0
  3  4  2  0
  4  5  1  0
  5  6  1  0
  6  7  1  0
  7  8  2  0
  7  9  2  0
  7 10  1  0
 10 11  2  0
 11 12  1  0
 12 13  1  0
 13 14  1  0
 13 15  2  0
 12 16  2  0
 16 17  1  0
 17 18  2  0
 18 19  1  0
  4 20  1  0
 20 21  1  0
 21 22  2  0
 21 23  1  0
 23  2  2  0
 18 10  1  0
  1 24  1  0
  1 25  1  0
  1 26  1  0
  3 27  1  0
  5 28  1  0
  5 29  1  0
 11 30  1  0
 14 31  1  0
 16 32  1  0
 17 33  1  0
M  CHG  4   6  -1  14  -1  19  -1  20  -1
M  END
>  <UniqueID>  (35) 
33

>  <SMILES>  (35) 
Cc1cc(C[N-]S(=O)(=O)c2cc(C([NH-])=O)ccc2[O-])[n-]c(=S)n1

>  <Energy>  (35) 
32.67492296566191

>  <Genealogy>  (35) 
Cc1cc(C[N-]S(=O)(=O)c2cc(C([NH-])=O)ccc2[O-])[n-]c(=S)n1 (protonated)
Cc1cc(C[N-]S(=O)(=O)c2cc(C([NH-])=O)ccc2[O-])[n-]c(=S)n1 (3D coordinates assigned)
Cc1cc(C[N-]S(=O)(=O)c2cc(C([NH-])=O)ccc2[O-])[n-]c(=S)n1 (optimized conformer: 32.67492296566191 kcal/mol)

>  <smiles>  (35) 
Cc1cc(CNS(=O)(=O)c2cc(C(N)=O)ccc2O)[nH]c(=S)n1

>  <score_type>  (35) 
oracle

>  <origin>  (35) 
adgpu

>  <m_score__min__energy>  (35) 
-11.630000000000001

>  <m_primary>  (35) 
energy

$$$$
35:0
     RDKit          3D

 44 46  0  0  0  0  0  0  0  0999 V2000
   -6.5930   25.3160  -29.6970 C   0  0  0  0  0  0  0  0  0  0  0  0
   -6.4450   24.7150  -30.9790 O   0  0  0  0  0  0  0  0  0  0  0  0
   -6.6650   23.3550  -31.2520 C   0  0  0  0  0  0  0  0  0  0  0  0
   -7.9500   22.7810  -31.1940 C   0  0  0  0  0  0  0  0  0  0  0  0
   -8.1310   21.4250  -31.4780 C   0  0  0  0  0  0  0  0  0  0  0  0
   -7.0380   20.6330  -31.8320 C   0  0  0  0  0  0  0  0  0  0  0  0
   -5.7590   21.1910  -31.8940 C   0  0  0  0  0  0  0  0  0  0  0  0
   -5.5620   22.5500  -31.5860 C   0  0  0  0  0  0  0  0  0  0  0  0
   -4.2640   23.1590  -31.6640 N   0  0  0  0  0  0  0  0  0  0  0  0
   -3.6790   24.0600  -30.7140 C   0  0  0  0  0  0  0  0  0  0  0  0
   -3.8590   25.3030  -30.8240 O   0  0  0  0  0  0  0  0  0  0  0  0
   -2.8460   23.5450  -29.6540 N   0  0  0  0  0  0  0  0  0  0  0  0
   -1.9520   22.4050  -29.9000 C   0  0  0  0  0  0  0  0  0  0  0  0
   -1.9390   21.4830  -28.7090 C   0  0  0  0  0  0  0  0  0  0  0  0
   -3.0350   20.6420  -28.4590 C   0  0  0  0  0  0  0  0  0  0  0  0
   -3.0390   19.8020  -27.3410 C   0  0  0  0  0  0  0  0  0  0  0  0
   -1.9480   19.7940  -26.4670 C   0  0  0  0  0  0  0  0  0  0  0  0
   -0.8530   20.6260  -26.7110 C   0  0  0  0  0  0  0  0  0  0  0  0
   -0.8440   21.4670  -27.8270 C   0  0  0  0  0  0  0  0  0  0  0  0
   -2.8000   24.2180  -28.3810 C   0  0  0  0  0  0  0  0  0  0  0  0
   -1.6150   24.8320  -27.9460 C   0  0  0  0  0  0  0  0  0  0  0  0
   -1.5770   25.4970  -26.7160 C   0  0  0  0  0  0  0  0  0  0  0  0
   -2.7210   25.5550  -25.9150 C   0  0  0  0  0  0  0  0  0  0  0  0
   -3.9040   24.9470  -26.3420 C   0  0  0  0  0  0  0  0  0  0  0  0
   -3.9460   24.2800  -27.5710 C   0  0  0  0  0  0  0  0  0  0  0  0
   -6.4078   24.5639  -28.9159 H   0  0  0  0  0  0  0  0  0  0  0  0
   -5.8707   26.1390  -29.5923 H   0  0  0  0  0  0  0  0  0  0  0  0
   -7.6149   25.7095  -29.5923 H   0  0  0  0  0  0  0  0  0  0  0  0
   -8.8156   23.4036  -30.9237 H   0  0  0  0  0  0  0  0  0  0  0  0
   -9.1360   20.9813  -31.4225 H   0  0  0  0  0  0  0  0  0  0  0  0
   -7.1839   19.5674  -32.0626 H   0  0  0  0  0  0  0  0  0  0  0  0
   -4.9021   20.5656  -32.1848 H   0  0  0  0  0  0  0  0  0  0  0  0
   -2.3043   21.8518  -30.7831 H   0  0  0  0  0  0  0  0  0  0  0  0
   -0.9326   22.7809  -30.0721 H   0  0  0  0  0  0  0  0  0  0  0  0
   -3.8944   20.6438  -29.1456 H   0  0  0  0  0  0  0  0  0  0  0  0
   -3.9015   19.1469  -27.1491 H   0  0  0  0  0  0  0  0  0  0  0  0
   -1.9519   19.1330  -25.5878 H   0  0  0  0  0  0  0  0  0  0  0  0
    0.0049   20.6192  -26.0226 H   0  0  0  0  0  0  0  0  0  0  0  0
    0.0221   22.1183  -28.0160 H   0  0  0  0  0  0  0  0  0  0  0  0
   -0.7132   24.7900  -28.5745 H   0  0  0  0  0  0  0  0  0  0  0  0
   -0.6455   25.9750  -26.3786 H   0  0  0  0  0  0  0  0  0  0  0  0
   -2.6898   26.0793  -24.9485 H   0  0  0  0  0  0  0  0  0  0  0  0
   -4.8038   24.9928  -25.7109 H   0  0  0  0  0  0  0  0  0  0  0  0
   -4.8793   23.8026  -27.9041 H   0  0  0  0  0  0  0  0  0  0  0  0
  1  2  1  0
  2  3  1  0
  3  4  2  0
  4  5  1  0
  5  6  2  0
  6  7  1  0
  7  8  2  0
  8  9  1  0
  9 10  1  0
 10 11  2  0
 10 12  1  0
 12 13  1  0
 13 14  1  0
 14 15  2  0
 15 16  1  0
 16 17  2  0
 17 18  1  0
 18 19  2  0
 12 20  1  0
 20 21  2  0
 21 22  1  0
 22 23  2  0
 23 24  1  0
 24 25  2  0
  8  3  1  0
 19 14  1  0
 25 20  1  0
  1 26  1  0
  1 27  1  0
  1 28  1  0
  4 29  1  0
  5 30  1  0
  6 31  1  0
  7 32  1  0
 13 33  1  0
 13 34  1  0
 15 35  1  0
 16 36  1  0
 17 37  1  0
 18 38  1  0
 19 39  1  0
 21 40  1  0
 22 41  1  0
 23 42  1  0
 24 43  1  0
 25 44  1  0
M  CHG  1   9  -1
M  END
>  <UniqueID>  (36) 
34

>  <SMILES>  (36) 
COc1ccccc1[N-]C(=O)N(Cc1ccccc1)c1ccccc1

>  <Energy>  (36) 
52.857335324758544

>  <Genealogy>  (36) 
COc1ccccc1[N-]C(=O)N(Cc1ccccc1)c1ccccc1 (protonated)
COc1ccccc1[N-]C(=O)N(Cc1ccccc1)c1ccccc1 (3D coordinates assigned)
COc1ccccc1[N-]C(=O)N(Cc1ccccc1)c1ccccc1 (optimized conformer: 52.857335324758544 kcal/mol)

>  <smiles>  (36) 
COc1ccccc1NC(=O)N(Cc1ccccc1)c1ccccc1

>  <score_type>  (36) 
oracle

>  <origin>  (36) 
adgpu

>  <m_score__min__energy>  (36) 
-9.2400000000000002

>  <m_primary>  (36) 
energy

$$$$
36:0
     RDKit          3D

 47 49  0  0  0  0  0  0  0  0999 V2000
   -5.7670   16.9030  -31.8910 C   0  0  0  0  0  0  0  0  0  0  0  0
   -5.9910   18.0650  -32.7470 N   0  0  0  0  0  0  0  0  0  0  0  0
   -7.0360   19.0030  -32.4390 C   0  0  0  0  0  0  0  0  0  0  0  0
   -8.3570   18.5620  -32.2730 C   0  0  0  0  0  0  0  0  0  0  0  0
   -9.3690   19.4710  -31.9520 C   0  0  0  0  0  0  0  0  0  0  0  0
   -9.0700   20.8250  -31.7890 C   0  0  0  0  0  0  0  0  0  0  0  0
   -7.7530   21.2800  -31.9490 C   0  0  0  0  0  0  0  0  0  0  0  0
   -7.3650   22.9820  -31.7010 S   0  0  0  0  0  0  0  0  0  0  0  0
   -6.3270   23.3990  -32.7080 O   0  0  0  0  0  0  0  0  0  0  0  0
   -8.6020   23.7970  -31.9590 O   0  0  0  0  0  0  0  0  0  0  0  0
   -6.7800   23.3250  -30.0830 N   0  0  0  0  0  0  0  0  0  0  0  0
   -6.8410   24.7670  -29.7600 C   0  0  0  0  0  0  0  0  0  0  0  0
   -5.6510   25.5740  -30.3320 C   0  0  0  0  0  0  0  0  0  0  0  0
   -4.6330   24.7580  -30.8770 O   0  0  0  0  0  0  0  0  0  0  0  0
   -4.2970   23.7440  -29.9610 C   0  0  0  0  0  0  0  0  0  0  0  0
   -5.4450   22.7280  -29.8300 C   0  0  0  0  0  0  0  0  0  0  0  0
   -6.7440   20.3690  -32.2920 C   0  0  0  0  0  0  0  0  0  0  0  0
   -4.9930   18.2900  -34.1530 S   0  0  0  0  0  0  0  0  0  0  0  0
   -4.4130   16.9780  -34.6010 O   0  0  0  0  0  0  0  0  0  0  0  0
   -5.8290   18.8610  -35.2650 O   0  0  0  0  0  0  0  0  0  0  0  0
   -3.6660   19.3720  -33.7470 C   0  0  0  0  0  0  0  0  0  0  0  0
   -2.3370   18.9180  -33.7570 C   0  0  0  0  0  0  0  0  0  0  0  0
   -1.2950   19.7970  -33.4450 C   0  0  0  0  0  0  0  0  0  0  0  0
   -1.5730   21.1300  -33.1200 C   0  0  0  0  0  0  0  0  0  0  0  0
   -2.8950   21.5870  -33.1090 C   0  0  0  0  0  0  0  0  0  0  0  0
   -3.9390   20.7100  -33.4220 C   0  0  0  0  0  0  0  0  0  0  0  0
   -5.8258   17.2081  -30.8358 H   0  0  0  0  0  0  0  0  0  0  0  0
   -6.5351   16.1429  -32.0963 H   0  0  0  0  0  0  0  0  0  0  0  0
   -4.7713   16.4829  -32.0963 H   0  0  0  0  0  0  0  0  0  0  0  0
   -8.5977   17.4957  -32.3960 H   0  0  0  0  0  0  0  0  0  0  0  0
  -10.4036   19.1188  -31.8275 H   0  0  0  0  0  0  0  0  0  0  0  0
   -9.8693   21.5366  -31.5345 H   0  0  0  0  0  0  0  0  0  0  0  0
   -7.4590   22.8450  -29.4460 H   0  0  0  0  0  0  0  0  0  0  0  0
   -7.7731   25.1784  -30.1746 H   0  0  0  0  0  0  0  0  0  0  0  0
   -6.7989   24.8572  -28.6645 H   0  0  0  0  0  0  0  0  0  0  0  0
   -6.0278   26.2380  -31.1239 H   0  0  0  0  0  0  0  0  0  0  0  0
   -5.2066   26.1357  -29.4971 H   0  0  0  0  0  0  0  0  0  0  0  0
   -3.3933   23.2246  -30.3126 H   0  0  0  0  0  0  0  0  0  0  0  0
   -4.1155   24.2016  -28.9773 H   0  0  0  0  0  0  0  0  0  0  0  0
   -5.2803   21.9177  -30.5554 H   0  0  0  0  0  0  0  0  0  0  0  0
   -5.4408   22.3589  -28.7938 H   0  0  0  0  0  0  0  0  0  0  0  0
   -5.7155   20.7269  -32.4472 H   0  0  0  0  0  0  0  0  0  0  0  0
   -2.1156   17.8707  -34.0103 H   0  0  0  0  0  0  0  0  0  0  0  0
   -0.2545   19.4402  -33.4550 H   0  0  0  0  0  0  0  0  0  0  0  0
   -0.7514   21.8184  -32.8731 H   0  0  0  0  0  0  0  0  0  0  0  0
   -3.1134   22.6346  -32.8546 H   0  0  0  0  0  0  0  0  0  0  0  0
   -4.9782   21.0704  -33.4134 H   0  0  0  0  0  0  0  0  0  0  0  0
  1  2  1  0
  2  3  1  0
  3  4  2  0
  4  5  1  0
  5  6  2  0
  6  7  1  0
  7  8  1  0
  8  9  2  0
  8 10  2  0
  8 11  1  0
 11 12  1  0
 12 13  1  0
 13 14  1  0
 14 15  1  0
 15 16  1  0
  7 17  2  0
  2 18  1  0
 18 19  2  0
 18 20  2  0
 18 21  1  0
 21 22  2  0
 22 23  1  0
 23 24  2  0
 24 25  1  0
 25 26  2  0
 17  3  1  0
 26 21  1  0
 16 11  1  0
  1 27  1  0
  1 28  1  0
  1 29  1  0
  4 30  1  0
  5 31  1  0
  6 32  1  0
 11 33  1  0
 12 34  1  0
 12 35  1  0
 13 36  1  0
 13 37  1  0
 15 38  1  0
 15 39  1  0
 16 40  1  0
 16 41  1  0
 17 42  1  0
 22 43  1  0
 23 44  1  0
 24 45  1  0
 25 46  1  0
 26 47  1  0
M  CHG  1  11   1
M  END
>  <UniqueID>  (37) 
35

>  <SMILES>  (37) 
CN(c1cccc(S(=O)(=O)[NH+]2CCOCC2)c1)S(=O)(=O)c1ccccc1

>  <Energy>  (37) 
62.604413373470386

>  <Genealogy>  (37) 
CN(c1cccc(S(=O)(=O)[NH+]2CCOCC2)c1)S(=O)(=O)c1ccccc1 (protonated)
CN(c1cccc(S(=O)(=O)[NH+]2CCOCC2)c1)S(=O)(=O)c1ccccc1 (3D coordinates assigned)
CN(c1cccc(S(=O)(=O)[NH+]2CCOCC2)c1)S(=O)(=O)c1ccccc1 (nonaromatic ring conformer: 62.604413373470386 kcal/mol)

>  <smiles>  (37) 
CN(c1cccc(S(=O)(=O)N2CCOCC2)c1)S(=O)(=O)c1ccccc1

>  <score_type>  (37) 
oracle

>  <origin>  (37) 
adgpu

>  <m_score__min__energy>  (37) 
-9.1799999999999997

>  <m_primary>  (37) 
energy

$$$$
37:0
     RDKit          3D

 67 71  0  0  0  0  0  0  0  0999 V2000
    0.3120   21.1270  -35.7220 C   0  0  0  0  0  0  0  0  0  0  0  0
    0.4960   20.2820  -34.5860 O   0  0  0  0  0  0  0  0  0  0  0  0
   -0.1570   20.4570  -33.3530 C   0  0  0  0  0  0  0  0  0  0  0  0
   -1.2120   21.3780  -33.1930 C   0  0  0  0  0  0  0  0  0  0  0  0
   -1.8510   21.5130  -31.9570 C   0  0  0  0  0  0  0  0  0  0  0  0
   -1.4530   20.7350  -30.8720 C   0  0  0  0  0  0  0  0  0  0  0  0
   -0.4120   19.8200  -31.0150 C   0  0  0  0  0  0  0  0  0  0  0  0
    0.2480   19.6780  -32.2480 C   0  0  0  0  0  0  0  0  0  0  0  0
    1.3730   18.6810  -32.3780 C   0  0  0  0  0  0  0  0  0  0  0  0
    0.9900   17.4920  -33.1630 N   0  0  0  0  0  0  0  0  0  0  0  0
   -0.0940   16.6580  -32.6410 C   0  0  0  0  0  0  0  0  0  0  0  0
   -1.4570   17.2670  -33.0070 C   0  0  0  0  0  0  0  0  0  0  0  0
   -1.8400   16.9580  -34.3990 N   0  0  0  0  0  0  0  0  0  0  0  0
   -3.4670   16.3080  -34.4290 S   0  0  0  0  0  0  0  0  0  0  0  0
   -3.5130   14.9630  -33.7610 O   0  0  0  0  0  0  0  0  0  0  0  0
   -3.8680   16.1240  -35.8670 O   0  0  0  0  0  0  0  0  0  0  0  0
   -4.6180   17.3940  -33.6390 C   0  0  0  0  0  0  0  0  0  0  0  0
   -5.3410   16.9680  -32.5200 C   0  0  0  0  0  0  0  0  0  0  0  0
   -6.1600   17.8670  -31.8260 C   0  0  0  0  0  0  0  0  0  0  0  0
   -6.2890   19.1910  -32.2580 C   0  0  0  0  0  0  0  0  0  0  0  0
   -7.0540   20.0790  -31.4940 O   0  0  0  0  0  0  0  0  0  0  0  0
   -6.8320   21.4560  -31.3850 C   0  0  0  0  0  0  0  0  0  0  0  0
   -7.8460   22.3340  -31.7790 C   0  0  0  0  0  0  0  0  0  0  0  0
   -7.6590   23.7120  -31.6800 C   0  0  0  0  0  0  0  0  0  0  0  0
   -6.4410   24.2250  -31.2230 C   0  0  0  0  0  0  0  0  0  0  0  0
   -5.3950   23.3590  -30.8530 C   0  0  0  0  0  0  0  0  0  0  0  0
   -4.0950   23.9090  -30.3940 C   0  0  0  0  0  0  0  0  0  0  0  0
   -3.8120   25.3030  -30.5170 N   0  0  0  0  0  0  0  0  0  0  0  0
   -3.2250   23.1460  -29.8910 O   0  0  0  0  0  0  0  0  0  0  0  0
   -5.6020   21.9700  -30.9330 C   0  0  0  0  0  0  0  0  0  0  0  0
   -5.6060   19.6020  -33.4130 C   0  0  0  0  0  0  0  0  0  0  0  0
   -4.7760   18.7100  -34.0950 C   0  0  0  0  0  0  0  0  0  0  0  0
   -0.8720   16.0490  -35.0480 C   0  0  0  0  0  0  0  0  0  0  0  0
    0.3770   16.7910  -35.4890 C   0  0  0  0  0  0  0  0  0  0  0  0
    0.7170   16.7440  -36.8560 C   0  0  0  0  0  0  0  0  0  0  0  0
    1.9130   17.2980  -37.3140 C   0  0  0  0  0  0  0  0  0  0  0  0
    2.8070   17.8740  -36.4150 C   0  0  0  0  0  0  0  0  0  0  0  0
    2.4970   17.9260  -35.0570 C   0  0  0  0  0  0  0  0  0  0  0  0
    1.2730   17.4210  -34.5780 C   0  0  0  0  0  0  0  0  0  0  0  0
    0.0892   22.1503  -35.3856 H   0  0  0  0  0  0  0  0  0  0  0  0
    1.2301   21.1320  -36.3278 H   0  0  0  0  0  0  0  0  0  0  0  0
   -0.5250   20.7498  -36.3278 H   0  0  0  0  0  0  0  0  0  0  0  0
   -1.5343   21.9940  -34.0455 H   0  0  0  0  0  0  0  0  0  0  0  0
   -2.6714   22.2365  -31.8406 H   0  0  0  0  0  0  0  0  0  0  0  0
   -1.9607   20.8431  -29.9022 H   0  0  0  0  0  0  0  0  0  0  0  0
   -0.1044   19.2043  -30.1569 H   0  0  0  0  0  0  0  0  0  0  0  0
    2.2231   19.1719  -32.8743 H   0  0  0  0  0  0  0  0  0  0  0  0
    1.6353   18.3411  -31.3653 H   0  0  0  0  0  0  0  0  0  0  0  0
   -0.0182   15.6502  -33.0752 H   0  0  0  0  0  0  0  0  0  0  0  0
   -0.0084   16.6030  -31.5457 H   0  0  0  0  0  0  0  0  0  0  0  0
   -2.2220   16.8610  -32.3288 H   0  0  0  0  0  0  0  0  0  0  0  0
   -1.3806   18.3599  -32.9081 H   0  0  0  0  0  0  0  0  0  0  0  0
   -5.2659   15.9232  -32.1841 H   0  0  0  0  0  0  0  0  0  0  0  0
   -6.7067   17.5290  -30.9333 H   0  0  0  0  0  0  0  0  0  0  0  0
   -8.7947   21.9362  -32.1685 H   0  0  0  0  0  0  0  0  0  0  0  0
   -8.4717   24.3975  -31.9621 H   0  0  0  0  0  0  0  0  0  0  0  0
   -6.2993   25.3135  -31.1522 H   0  0  0  0  0  0  0  0  0  0  0  0
   -3.1180   25.6530  -31.2160 H   0  0  0  0  0  0  0  0  0  0  0  0
   -4.7967   21.2803  -30.6402 H   0  0  0  0  0  0  0  0  0  0  0  0
   -5.7250   20.6312  -33.7826 H   0  0  0  0  0  0  0  0  0  0  0  0
   -4.2419   19.0427  -34.9973 H   0  0  0  0  0  0  0  0  0  0  0  0
   -0.5871   15.2616  -34.3347 H   0  0  0  0  0  0  0  0  0  0  0  0
   -1.3491   15.6153  -35.9392 H   0  0  0  0  0  0  0  0  0  0  0  0
    0.0313   16.2649  -37.5704 H   0  0  0  0  0  0  0  0  0  0  0  0
    2.1503   17.2797  -38.3880 H   0  0  0  0  0  0  0  0  0  0  0  0
    3.7593   18.2886  -36.7771 H   0  0  0  0  0  0  0  0  0  0  0  0
    3.2168   18.3666  -34.3515 H   0  0  0  0  0  0  0  0  0  0  0  0
  1  2  1  0
  2  3  1  0
  3  4  2  0
  4  5  1  0
  5  6  2  0
  6  7  1  0
  7  8  2  0
  8  9  1  0
  9 10  1  0
 10 11  1  0
 11 12  1  0
 12 13  1  0
 13 14  1  0
 14 15  2  0
 14 16  2  0
 14 17  1  0
 17 18  2  0
 18 19  1  0
 19 20  2  0
 20 21  1  0
 21 22  1  0
 22 23  2  0
 23 24  1  0
 24 25  2  0
 25 26  1  0
 26 27  1  0
 27 28  1  0
 27 29  2  0
 26 30  2  0
 20 31  1  0
 31 32  2  0
 13 33  1  0
 33 34  1  0
 34 35  2  0
 35 36  1  0
 36 37  2  0
 37 38  1  0
 38 39  2  0
  8  3  1  0
 39 10  1  0
 32 17  1  0
 39 34  1  0
 30 22  1  0
  1 40  1  0
  1 41  1  0
  1 42  1  0
  4 43  1  0
  5 44  1  0
  6 45  1  0
  7 46  1  0
  9 47  1  0
  9 48  1  0
 11 49  1  0
 11 50  1  0
 12 51  1  0
 12 52  1  0
 18 53  1  0
 19 54  1  0
 23 55  1  0
 24 56  1  0
 25 57  1  0
 28 58  1  0
 30 59  1  0
 31 60  1  0
 32 61  1  0
 33 62  1  0
 33 63  1  0
 35 64  1  0
 36 65  1  0
 37 66  1  0
 38 67  1  0
M  CHG  1  28  -1
M  END
>  <UniqueID>  (38) 
36

>  <SMILES>  (38) 
COc1ccccc1CN1CCN(S(=O)(=O)c2ccc(Oc3cccc(C([NH-])=O)c3)cc2)Cc2ccccc21

>  <Energy>  (38) 
92.6876088511091

>  <Genealogy>  (38) 
COc1ccccc1CN1CCN(S(=O)(=O)c2ccc(Oc3cccc(C([NH-])=O)c3)cc2)Cc2ccccc21 (protonated)
COc1ccccc1CN1CCN(S(=O)(=O)c2ccc(Oc3cccc(C([NH-])=O)c3)cc2)Cc2ccccc21 (3D coordinates assigned)
COc1ccccc1CN1CCN(S(=O)(=O)c2ccc(Oc3cccc(C([NH-])=O)c3)cc2)Cc2ccccc21 (nonaromatic ring conformer: 92.6876088511091 kcal/mol)

>  <smiles>  (38) 
COc1ccccc1CN1CCN(S(=O)(=O)c2ccc(Oc3cccc(C(N)=O)c3)cc2)Cc2ccccc21

>  <score_type>  (38) 
oracle

>  <origin>  (38) 
adgpu

>  <m_score__min__energy>  (38) 
-9.4499999999999993

>  <m_primary>  (38) 
energy

$$$$
38:0
     RDKit          3D

 41 43  0  0  0  0  0  0  0  0999 V2000
   -3.9810   14.8490  -33.7390 C   0  0  0  0  0  0  0  0  0  0  0  0
   -4.9630   15.9330  -33.4340 C   0  0  0  0  0  0  0  0  0  0  0  0
   -5.7110   15.9790  -32.3130 N   0  0  0  0  0  0  0  0  0  0  0  0
   -6.3910   17.1350  -32.4590 C   0  0  0  0  0  0  0  0  0  0  0  0
   -7.2380   17.5640  -31.5760 N   0  0  0  0  0  0  0  0  0  0  0  0
   -8.1050   19.0520  -31.7620 S   0  0  0  0  0  0  0  0  0  0  0  0
   -9.1030   19.1900  -30.6480 O   0  0  0  0  0  0  0  0  0  0  0  0
   -8.8400   19.0370  -33.0730 O   0  0  0  0  0  0  0  0  0  0  0  0
   -6.9820   20.4080  -31.6910 C   0  0  0  0  0  0  0  0  0  0  0  0
   -5.6030   20.1670  -31.6880 C   0  0  0  0  0  0  0  0  0  0  0  0
   -4.7000   21.2340  -31.6580 C   0  0  0  0  0  0  0  0  0  0  0  0
   -5.1700   22.5590  -31.6470 C   0  0  0  0  0  0  0  0  0  0  0  0
   -4.2800   23.6840  -31.5910 N   0  0  0  0  0  0  0  0  0  0  0  0
   -3.9940   24.4960  -30.4430 C   0  0  0  0  0  0  0  0  0  0  0  0
   -4.4110   25.6850  -30.4020 O   0  0  0  0  0  0  0  0  0  0  0  0
   -3.2560   23.9330  -29.2800 C   0  0  0  0  0  0  0  0  0  0  0  0
   -3.7390   22.7660  -28.6540 C   0  0  0  0  0  0  0  0  0  0  0  0
   -3.0760   22.2170  -27.5530 C   0  0  0  0  0  0  0  0  0  0  0  0
   -1.9210   22.8220  -27.0590 C   0  0  0  0  0  0  0  0  0  0  0  0
   -1.4250   23.9760  -27.6650 C   0  0  0  0  0  0  0  0  0  0  0  0
   -2.0810   24.5370  -28.7680 C   0  0  0  0  0  0  0  0  0  0  0  0
   -1.5490   25.6880  -29.3380 O   0  0  0  0  0  0  0  0  0  0  0  0
   -6.5510   22.7950  -31.6270 C   0  0  0  0  0  0  0  0  0  0  0  0
   -7.4520   21.7280  -31.6580 C   0  0  0  0  0  0  0  0  0  0  0  0
   -6.1040   17.7790  -33.5690 O   0  0  0  0  0  0  0  0  0  0  0  0
   -5.2110   17.0560  -34.1950 C   0  0  0  0  0  0  0  0  0  0  0  0
   -4.5840   17.4230  -35.5000 C   0  0  0  0  0  0  0  0  0  0  0  0
   -3.5979   14.4261  -32.7986 H   0  0  0  0  0  0  0  0  0  0  0  0
   -4.4767   14.0584  -34.3215 H   0  0  0  0  0  0  0  0  0  0  0  0
   -3.1454   15.2644  -34.3215 H   0  0  0  0  0  0  0  0  0  0  0  0
   -5.2280   19.1331  -31.7093 H   0  0  0  0  0  0  0  0  0  0  0  0
   -3.6181   21.0361  -31.6430 H   0  0  0  0  0  0  0  0  0  0  0  0
   -4.6492   22.2813  -29.0369 H   0  0  0  0  0  0  0  0  0  0  0  0
   -3.4660   21.3061  -27.0754 H   0  0  0  0  0  0  0  0  0  0  0  0
   -1.4012   22.3892  -26.1915 H   0  0  0  0  0  0  0  0  0  0  0  0
   -0.5121   24.4490  -27.2739 H   0  0  0  0  0  0  0  0  0  0  0  0
   -6.9282   23.8275  -31.5866 H   0  0  0  0  0  0  0  0  0  0  0  0
   -8.5343   21.9245  -31.6565 H   0  0  0  0  0  0  0  0  0  0  0  0
   -3.6481   17.9708  -35.3159 H   0  0  0  0  0  0  0  0  0  0  0  0
   -4.3674   16.5091  -36.0726 H   0  0  0  0  0  0  0  0  0  0  0  0
   -5.2748   18.0594  -36.0726 H   0  0  0  0  0  0  0  0  0  0  0  0
  1  2  1  0
  2  3  1  0
  3  4  1  0
  4  5  2  3
  5  6  1  0
  6  7  2  0
  6  8  2  0
  6  9  1  0
  9 10  2  0
 10 11  1  0
 11 12  2  0
 12 13  1  0
 13 14  1  0
 14 15  2  0
 14 16  1  0
 16 17  2  0
 17 18  1  0
 18 19  2  0
 19 20  1  0
 20 21  2  0
 21 22  1  0
 12 23  1  0
 23 24  2  0
  4 25  1  0
 25 26  1  0
 26 27  1  0
 26  2  2  0
 24  9  1  0
 21 16  1  0
  1 28  1  0
  1 29  1  0
  1 30  1  0
 10 31  1  0
 11 32  1  0
 17 33  1  0
 18 34  1  0
 19 35  1  0
 20 36  1  0
 23 37  1  0
 24 38  1  0
 27 39  1  0
 27 40  1  0
 27 41  1  0
M  CHG  3   3  -1  13  -1  22  -1
M  END
>  <UniqueID>  (39) 
37

>  <SMILES>  (39) 
Cc1[n-]c(=NS(=O)(=O)c2ccc([N-]C(=O)c3ccccc3[O-])cc2)oc1C

>  <Energy>  (39) 
79.54804996962498

>  <Genealogy>  (39) 
Cc1[n-]c(=NS(=O)(=O)c2ccc([N-]C(=O)c3ccccc3[O-])cc2)oc1C (protonated)
Cc1[n-]c(=NS(=O)(=O)c2ccc([N-]C(=O)c3ccccc3[O-])cc2)oc1C (3D coordinates assigned)
Cc1[n-]c(=NS(=O)(=O)c2ccc([N-]C(=O)c3ccccc3[O-])cc2)oc1C (optimized conformer: 79.54804996962498 kcal/mol)

>  <smiles>  (39) 
Cc1[nH]c(=NS(=O)(=O)c2ccc(NC(=O)c3ccccc3O)cc2)oc1C

>  <score_type>  (39) 
oracle

>  <origin>  (39) 
adgpu

>  <m_score__min__energy>  (39) 
-12.779999999999999

>  <m_primary>  (39) 
energy

$$$$
39:0
     RDKit          3D

 45 48  0  0  0  0  0  0  0  0999 V2000
   -2.6330   18.4280  -33.9580 C   0  0  0  0  0  0  0  0  0  0  0  0
   -3.8970   19.1950  -33.7570 C   0  0  0  0  0  0  0  0  0  0  0  0
   -4.0540   20.2870  -32.9300 C   0  0  0  0  0  0  0  0  0  0  0  0
   -5.4030   20.5790  -33.0360 C   0  0  0  0  0  0  0  0  0  0  0  0
   -6.1510   21.6580  -32.3520 C   0  0  0  0  0  0  0  0  0  0  0  0
   -7.5490   21.5700  -32.2430 C   0  0  0  0  0  0  0  0  0  0  0  0
   -8.2730   22.5670  -31.5840 C   0  0  0  0  0  0  0  0  0  0  0  0
   -7.6090   23.6610  -31.0250 C   0  0  0  0  0  0  0  0  0  0  0  0
   -6.2150   23.7670  -31.1280 C   0  0  0  0  0  0  0  0  0  0  0  0
   -5.3740   25.1520  -30.4360 S   0  0  0  0  0  0  0  0  0  0  0  0
   -5.7410   26.4150  -31.1650 O   0  0  0  0  0  0  0  0  0  0  0  0
   -5.7700   25.2920  -28.9940 O   0  0  0  0  0  0  0  0  0  0  0  0
   -3.6570   24.9180  -30.5340 N   0  0  0  0  0  0  0  0  0  0  0  0
   -2.8860   24.0870  -29.6550 C   0  0  0  0  0  0  0  0  0  0  0  0
   -3.1150   22.7030  -29.5520 C   0  0  0  0  0  0  0  0  0  0  0  0
   -2.3510   21.9230  -28.6720 C   0  0  0  0  0  0  0  0  0  0  0  0
   -1.3440   22.5200  -27.8970 C   0  0  0  0  0  0  0  0  0  0  0  0
   -1.0990   23.8940  -28.0150 C   0  0  0  0  0  0  0  0  0  0  0  0
   -1.8720   24.6730  -28.8830 C   0  0  0  0  0  0  0  0  0  0  0  0
   -1.6270   26.0380  -28.9730 O   0  0  0  0  0  0  0  0  0  0  0  0
   -0.4740   21.6420  -27.0350 C   0  0  0  0  0  0  0  0  0  0  0  0
   -1.2870   20.5470  -26.3090 C   0  0  0  0  0  0  0  0  0  0  0  0
   -2.5430   20.0450  -27.0690 C   0  0  0  0  0  0  0  0  0  0  0  0
   -2.5650   20.4420  -28.5500 C   0  0  0  0  0  0  0  0  0  0  0  0
   -5.4890   22.7690  -31.7920 C   0  0  0  0  0  0  0  0  0  0  0  0
   -5.9550   19.7110  -33.8560 O   0  0  0  0  0  0  0  0  0  0  0  0
   -5.0800   18.8580  -34.3020 N   0  0  0  0  0  0  0  0  0  0  0  0
   -2.2030   18.1670  -32.9798 H   0  0  0  0  0  0  0  0  0  0  0  0
   -2.8480   17.5079  -34.5212 H   0  0  0  0  0  0  0  0  0  0  0  0
   -1.9162   19.0436  -34.5212 H   0  0  0  0  0  0  0  0  0  0  0  0
   -3.2901   20.8028  -32.3296 H   0  0  0  0  0  0  0  0  0  0  0  0
   -8.0775   20.7098  -32.6797 H   0  0  0  0  0  0  0  0  0  0  0  0
   -9.3675   22.4900  -31.5054 H   0  0  0  0  0  0  0  0  0  0  0  0
   -8.1814   24.4416  -30.5025 H   0  0  0  0  0  0  0  0  0  0  0  0
   -3.8969   22.2304  -30.1645 H   0  0  0  0  0  0  0  0  0  0  0  0
   -0.2975   24.3615  -27.4242 H   0  0  0  0  0  0  0  0  0  0  0  0
    0.2820   21.1586  -27.6712 H   0  0  0  0  0  0  0  0  0  0  0  0
   -0.0057   22.2782  -26.2695 H   0  0  0  0  0  0  0  0  0  0  0  0
   -0.6238   19.6856  -26.1409 H   0  0  0  0  0  0  0  0  0  0  0  0
   -1.6552   21.0054  -25.3793 H   0  0  0  0  0  0  0  0  0  0  0  0
   -2.5737   18.9474  -27.0029 H   0  0  0  0  0  0  0  0  0  0  0  0
   -3.4163   20.5177  -26.5957 H   0  0  0  0  0  0  0  0  0  0  0  0
   -1.7642   19.9101  -29.0846 H   0  0  0  0  0  0  0  0  0  0  0  0
   -3.5377   20.1738  -28.9881 H   0  0  0  0  0  0  0  0  0  0  0  0
   -4.3955   22.8533  -31.8766 H   0  0  0  0  0  0  0  0  0  0  0  0
  1  2  1  0
  2  3  1  0
  3  4  2  0
  4  5  1  0
  5  6  2  0
  6  7  1  0
  7  8  2  0
  8  9  1  0
  9 10  1  0
 10 11  2  0
 10 12  2  0
 10 13  1  0
 13 14  1  0
 14 15  2  0
 15 16  1  0
 16 17  2  0
 17 18  1  0
 18 19  2  0
 19 20  1  0
 17 21  1  0
 21 22  1  0
 22 23  1  0
 23 24  1  0
  9 25  2  0
  4 26  1  0
 26 27  1  0
 27  2  2  0
 25  5  1  0
 19 14  1  0
 24 16  1  0
  1 28  1  0
  1 29  1  0
  1 30  1  0
  3 31  1  0
  6 32  1  0
  7 33  1  0
  8 34  1  0
 15 35  1  0
 18 36  1  0
 21 37  1  0
 21 38  1  0
 22 39  1  0
 22 40  1  0
 23 41  1  0
 23 42  1  0
 24 43  1  0
 24 44  1  0
 25 45  1  0
M  CHG  2  13  -1  20  -1
M  END
>  <UniqueID>  (40) 
38

>  <SMILES>  (40) 
Cc1cc(-c2cccc(S(=O)(=O)[N-]c3cc4c(cc3[O-])CCCC4)c2)on1

>  <Energy>  (40) 
85.48053129719254

>  <Genealogy>  (40) 
Cc1cc(-c2cccc(S(=O)(=O)[N-]c3cc4c(cc3[O-])CCCC4)c2)on1 (protonated)
Cc1cc(-c2cccc(S(=O)(=O)[N-]c3cc4c(cc3[O-])CCCC4)c2)on1 (3D coordinates assigned)
Cc1cc(-c2cccc(S(=O)(=O)[N-]c3cc4c(cc3[O-])CCCC4)c2)on1 (nonaromatic ring conformer: 85.48053129719254 kcal/mol)

>  <smiles>  (40) 
Cc1cc(-c2cccc(S(=O)(=O)Nc3cc4c(cc3O)CCCC4)c2)on1

>  <score_type>  (40) 
oracle

>  <origin>  (40) 
adgpu

>  <m_score__min__energy>  (40) 
-14.449999999999999

>  <m_primary>  (40) 
energy

$$$$
40:0
     RDKit          3D

 40 42  0  0  0  0  0  0  0  0999 V2000
    0.0950   24.4850  -28.5140 O   0  0  0  0  0  0  0  0  0  0  0  0
   -1.0460   24.7390  -28.9820 C   0  0  0  0  0  0  0  0  0  0  0  0
   -1.5080   26.0510  -28.9560 O   0  0  0  0  0  0  0  0  0  0  0  0
   -1.8830   23.6600  -29.5530 C   0  0  0  0  0  0  0  0  0  0  0  0
   -1.3330   22.7380  -30.4580 C   0  0  0  0  0  0  0  0  0  0  0  0
   -2.1200   21.7170  -30.9990 C   0  0  0  0  0  0  0  0  0  0  0  0
   -3.4710   21.5920  -30.6320 C   0  0  0  0  0  0  0  0  0  0  0  0
   -4.3100   20.5680  -31.1910 N   0  0  0  0  0  0  0  0  0  0  0  0
   -4.1930   20.0780  -32.5390 C   0  0  0  0  0  0  0  0  0  0  0  0
   -3.3310   20.5610  -33.3220 O   0  0  0  0  0  0  0  0  0  0  0  0
   -5.0840   19.0050  -33.0320 C   0  0  0  0  0  0  0  0  0  0  0  0
   -4.5790   18.0740  -33.9550 C   0  0  0  0  0  0  0  0  0  0  0  0
   -5.3920   17.0520  -34.4470 C   0  0  0  0  0  0  0  0  0  0  0  0
   -6.7160   16.9450  -34.0230 C   0  0  0  0  0  0  0  0  0  0  0  0
   -7.2270   17.8490  -33.0900 C   0  0  0  0  0  0  0  0  0  0  0  0
   -6.4120   18.8710  -32.5660 C   0  0  0  0  0  0  0  0  0  0  0  0
   -6.9190   19.7710  -31.5660 N   0  0  0  0  0  0  0  0  0  0  0  0
   -7.6330   20.9910  -31.8060 C   0  0  0  0  0  0  0  0  0  0  0  0
   -8.7600   20.9290  -32.3650 O   0  0  0  0  0  0  0  0  0  0  0  0
   -7.0610   22.3160  -31.4680 C   0  0  0  0  0  0  0  0  0  0  0  0
   -7.4240   22.9840  -30.2870 C   0  0  0  0  0  0  0  0  0  0  0  0
   -6.8670   24.2290  -29.9870 C   0  0  0  0  0  0  0  0  0  0  0  0
   -5.9420   24.7940  -30.8650 C   0  0  0  0  0  0  0  0  0  0  0  0
   -5.5860   24.1310  -31.9980 N   0  0  0  0  0  0  0  0  0  0  0  0
   -6.1140   22.9180  -32.3130 C   0  0  0  0  0  0  0  0  0  0  0  0
   -4.0280   22.5270  -29.7490 C   0  0  0  0  0  0  0  0  0  0  0  0
   -3.2410   23.5470  -29.2070 C   0  0  0  0  0  0  0  0  0  0  0  0
   -0.2739   22.8197  -30.7437 H   0  0  0  0  0  0  0  0  0  0  0  0
   -1.6797   21.0079  -31.7155 H   0  0  0  0  0  0  0  0  0  0  0  0
   -5.0000   20.1130  -30.5530 H   0  0  0  0  0  0  0  0  0  0  0  0
   -3.5349   18.1512  -34.2924 H   0  0  0  0  0  0  0  0  0  0  0  0
   -4.9874   16.3293  -35.1709 H   0  0  0  0  0  0  0  0  0  0  0  0
   -7.3586   16.1474  -34.4241 H   0  0  0  0  0  0  0  0  0  0  0  0
   -8.2734   17.7625  -32.7619 H   0  0  0  0  0  0  0  0  0  0  0  0
   -8.1481   22.5258  -29.5973 H   0  0  0  0  0  0  0  0  0  0  0  0
   -7.1550   24.7590  -29.0671 H   0  0  0  0  0  0  0  0  0  0  0  0
   -5.5003   25.7762  -30.6410 H   0  0  0  0  0  0  0  0  0  0  0  0
   -5.7980   22.4059  -33.2338 H   0  0  0  0  0  0  0  0  0  0  0  0
   -5.0925   22.4576  -29.4805 H   0  0  0  0  0  0  0  0  0  0  0  0
   -3.6873   24.2665  -28.5047 H   0  0  0  0  0  0  0  0  0  0  0  0
  1  2  2  0
  2  3  1  0
  2  4  1  0
  4  5  2  0
  5  6  1  0
  6  7  2  0
  7  8  1  0
  8  9  1  0
  9 10  2  0
  9 11  1  0
 11 12  2  0
 12 13  1  0
 13 14  2  0
 14 15  1  0
 15 16  2  0
 16 17  1  0
 17 18  1  0
 18 19  2  0
 18 20  1  0
 20 21  2  0
 21 22  1  0
 22 23  2  0
 23 24  1  0
 24 25  2  0
  7 26  1  0
 26 27  2  0
 27  4  1  0
 16 11  1  0
 25 20  1  0
  5 28  1  0
  6 29  1  0
  8 30  1  0
 12 31  1  0
 13 32  1  0
 14 33  1  0
 15 34  1  0
 21 35  1  0
 22 36  1  0
 23 37  1  0
 25 38  1  0
 26 39  1  0
 27 40  1  0
M  CHG  2   3  -1  17  -1
M  END
>  <UniqueID>  (41) 
39

>  <SMILES>  (41) 
O=C([O-])c1ccc(NC(=O)c2ccccc2[N-]C(=O)c2cccnc2)cc1

>  <Energy>  (41) 
60.66801743205042

>  <Genealogy>  (41) 
O=C([O-])c1ccc(NC(=O)c2ccccc2[N-]C(=O)c2cccnc2)cc1 (protonated)
O=C([O-])c1ccc(NC(=O)c2ccccc2[N-]C(=O)c2cccnc2)cc1 (3D coordinates assigned)
O=C([O-])c1ccc(NC(=O)c2ccccc2[N-]C(=O)c2cccnc2)cc1 (optimized conformer: 60.66801743205042 kcal/mol)

>  <smiles>  (41) 
O=C(O)c1ccc(NC(=O)c2ccccc2NC(=O)c2cccnc2)cc1

>  <score_type>  (41) 
oracle

>  <origin>  (41) 
adgpu

>  <m_score__min__energy>  (41) 
-10.140000000000001

>  <m_primary>  (41) 
energy

$$$$
41:0
     RDKit          3D

 48 51  0  0  0  0  0  0  0  0999 V2000
   -7.4350   18.6150  -32.1850 C   0  0  0  0  0  0  0  0  0  0  0  0
   -6.3870   17.6730  -32.7790 C   0  0  0  0  0  0  0  0  0  0  0  0
   -6.1470   17.9400  -34.2710 C   0  0  0  0  0  0  0  0  0  0  0  0
   -4.6840   18.1300  -34.5830 C   0  0  0  0  0  0  0  0  0  0  0  0
   -4.0340   17.1760  -35.0860 O   0  0  0  0  0  0  0  0  0  0  0  0
   -3.9940   19.3450  -34.2650 N   0  0  0  0  0  0  0  0  0  0  0  0
   -4.1290   20.1050  -33.0580 C   0  0  0  0  0  0  0  0  0  0  0  0
   -3.4410   19.6750  -31.8990 C   0  0  0  0  0  0  0  0  0  0  0  0
   -3.5190   20.4060  -30.7000 C   0  0  0  0  0  0  0  0  0  0  0  0
   -4.2800   21.5770  -30.7030 C   0  0  0  0  0  0  0  0  0  0  0  0
   -4.9270   22.0100  -31.8240 C   0  0  0  0  0  0  0  0  0  0  0  0
   -4.8710   21.3100  -33.0260 C   0  0  0  0  0  0  0  0  0  0  0  0
   -5.5740   23.1640  -31.5820 N   0  0  0  0  0  0  0  0  0  0  0  0
   -5.2860   23.4100  -30.2770 C   0  0  0  0  0  0  0  0  0  0  0  0
   -5.8160   24.6050  -29.5340 C   0  0  0  0  0  0  0  0  0  0  0  0
   -5.7640   25.9010  -30.3300 C   0  0  0  0  0  0  0  0  0  0  0  0
   -7.0970   25.2160  -30.0890 C   0  0  0  0  0  0  0  0  0  0  0  0
   -4.5070   22.4510  -29.7060 N   0  0  0  0  0  0  0  0  0  0  0  0
   -4.0180   22.3970  -28.3240 C   0  0  0  0  0  0  0  0  0  0  0  0
   -2.7290   23.1650  -28.1850 C   0  0  0  0  0  0  0  0  0  0  0  0
   -1.6710   22.6420  -27.4230 C   0  0  0  0  0  0  0  0  0  0  0  0
   -0.4730   23.3500  -27.2990 C   0  0  0  0  0  0  0  0  0  0  0  0
   -0.3200   24.5920  -27.9280 C   0  0  0  0  0  0  0  0  0  0  0  0
    0.8730   25.3020  -27.8100 O   0  0  0  0  0  0  0  0  0  0  0  0
   -1.3740   25.1240  -28.6790 C   0  0  0  0  0  0  0  0  0  0  0  0
   -1.2330   26.3570  -29.3060 O   0  0  0  0  0  0  0  0  0  0  0  0
   -2.5750   24.4160  -28.8030 C   0  0  0  0  0  0  0  0  0  0  0  0
   -7.3867   18.5716  -31.0869 H   0  0  0  0  0  0  0  0  0  0  0  0
   -7.2357   19.6435  -32.5204 H   0  0  0  0  0  0  0  0  0  0  0  0
   -8.4365   18.3076  -32.5204 H   0  0  0  0  0  0  0  0  0  0  0  0
   -5.4394   17.8107  -32.2376 H   0  0  0  0  0  0  0  0  0  0  0  0
   -6.7610   16.6437  -32.6760 H   0  0  0  0  0  0  0  0  0  0  0  0
   -6.5254   17.0848  -34.8501 H   0  0  0  0  0  0  0  0  0  0  0  0
   -6.6747   18.8671  -34.5393 H   0  0  0  0  0  0  0  0  0  0  0  0
   -2.8369   18.7565  -31.9361 H   0  0  0  0  0  0  0  0  0  0  0  0
   -2.9989   20.0673  -29.7918 H   0  0  0  0  0  0  0  0  0  0  0  0
   -5.3874   21.6818  -33.9232 H   0  0  0  0  0  0  0  0  0  0  0  0
   -5.4884   24.2746  -28.5372 H   0  0  0  0  0  0  0  0  0  0  0  0
   -5.5336   26.8491  -29.8220 H   0  0  0  0  0  0  0  0  0  0  0  0
   -5.2168   26.2443  -31.2204 H   0  0  0  0  0  0  0  0  0  0  0  0
   -7.8317   25.6675  -29.4061 H   0  0  0  0  0  0  0  0  0  0  0  0
   -7.9145   24.8576  -30.7318 H   0  0  0  0  0  0  0  0  0  0  0  0
   -4.7738   22.8360  -27.6561 H   0  0  0  0  0  0  0  0  0  0  0  0
   -3.8347   21.3464  -28.0544 H   0  0  0  0  0  0  0  0  0  0  0  0
   -1.7864   21.6699  -26.9213 H   0  0  0  0  0  0  0  0  0  0  0  0
    0.3527   22.9306  -26.7055 H   0  0  0  0  0  0  0  0  0  0  0  0
    0.9890   26.2170  -28.2320 H   0  0  0  0  0  0  0  0  0  0  0  0
   -3.4031   24.8424  -29.3882 H   0  0  0  0  0  0  0  0  0  0  0  0
  1  2  1  0
  2  3  1  0
  3  4  1  0
  4  5  2  0
  4  6  1  0
  6  7  1  0
  7  8  2  0
  8  9  1  0
  9 10  2  0
 10 11  1  0
 11 12  2  0
 11 13  1  0
 13 14  2  0
 14 15  1  0
 15 16  1  0
 16 17  1  0
 14 18  1  0
 18 19  1  0
 19 20  1  0
 20 21  2  0
 21 22  1  0
 22 23  2  0
 23 24  1  0
 23 25  1  0
 25 26  1  0
 25 27  2  0
 12  7  1  0
 17 15  1  0
 27 20  1  0
 18 10  1  0
  1 28  1  0
  1 29  1  0
  1 30  1  0
  2 31  1  0
  2 32  1  0
  3 33  1  0
  3 34  1  0
  8 35  1  0
  9 36  1  0
 12 37  1  0
 15 38  1  0
 16 39  1  0
 16 40  1  0
 17 41  1  0
 17 42  1  0
 19 43  1  0
 19 44  1  0
 21 45  1  0
 22 46  1  0
 24 47  1  0
 27 48  1  0
M  CHG  2   6  -1  26  -1
M  END
>  <UniqueID>  (42) 
40

>  <SMILES>  (42) 
CCCC(=O)[N-]c1ccc2c(c1)nc(C1CC1)n2Cc1ccc(O)c([O-])c1

>  <Energy>  (42) 
349.4521307537825

>  <Genealogy>  (42) 
CCCC(=O)[N-]c1ccc2c(c1)nc(C1CC1)n2Cc1ccc(O)c([O-])c1 (protonated)
CCCC(=O)[N-]c1ccc2c(c1)nc(C1CC1)n2Cc1ccc(O)c([O-])c1 (3D coordinates assigned)
CCCC(=O)[N-]c1ccc2c(c1)nc(C1CC1)n2Cc1ccc(O)c([O-])c1 (nonaromatic ring conformer: 349.4521307537825 kcal/mol)

>  <smiles>  (42) 
CCCC(=O)Nc1ccc2c(c1)nc(C1CC1)n2Cc1ccc(O)c(O)c1

>  <score_type>  (42) 
oracle

>  <origin>  (42) 
adgpu

>  <m_score__min__energy>  (42) 
-11.050000000000001

>  <m_primary>  (42) 
energy

$$$$
42:0
     RDKit          3D

 70 75  0  0  0  0  0  0  0  0999 V2000
   -5.7240   25.7130  -30.7000 C   0  0  0  0  0  0  0  0  0  0  0  0
   -4.6690   24.6790  -30.4630 C   0  0  0  0  0  0  0  0  0  0  0  0
   -3.6640   24.8990  -29.5130 C   0  0  0  0  0  0  0  0  0  0  0  0
   -2.6620   23.9290  -29.3110 C   0  0  0  0  0  0  0  0  0  0  0  0
   -1.6960   24.0980  -28.4470 N   0  0  0  0  0  0  0  0  0  0  0  0
   -1.5170   25.1540  -27.4910 C   0  0  0  0  0  0  0  0  0  0  0  0
   -1.9560   25.0280  -26.1640 C   0  0  0  0  0  0  0  0  0  0  0  0
   -1.6580   26.0220  -25.2250 C   0  0  0  0  0  0  0  0  0  0  0  0
   -0.8940   27.1340  -25.5990 C   0  0  0  0  0  0  0  0  0  0  0  0
   -0.5440   28.1060  -24.6580 O   0  0  0  0  0  0  0  0  0  0  0  0
    0.7260   28.1930  -24.0640 C   0  0  0  0  0  0  0  0  0  0  0  0
    1.2360   29.4620  -23.7550 C   0  0  0  0  0  0  0  0  0  0  0  0
    2.5140   29.5970  -23.1980 C   0  0  0  0  0  0  0  0  0  0  0  0
    3.2910   28.4620  -22.9490 C   0  0  0  0  0  0  0  0  0  0  0  0
    2.7910   27.1940  -23.2490 C   0  0  0  0  0  0  0  0  0  0  0  0
    1.5160   27.0540  -23.8070 C   0  0  0  0  0  0  0  0  0  0  0  0
   -0.4610   27.2640  -26.9210 C   0  0  0  0  0  0  0  0  0  0  0  0
   -0.7540   26.2680  -27.8560 C   0  0  0  0  0  0  0  0  0  0  0  0
   -2.6700   22.7660  -30.1160 C   0  0  0  0  0  0  0  0  0  0  0  0
   -1.6850   21.7680  -29.9960 C   0  0  0  0  0  0  0  0  0  0  0  0
   -1.6960   20.6560  -30.8370 C   0  0  0  0  0  0  0  0  0  0  0  0
   -2.6910   20.5060  -31.8180 C   0  0  0  0  0  0  0  0  0  0  0  0
   -2.6480   19.3560  -32.7600 C   0  0  0  0  0  0  0  0  0  0  0  0
   -3.7540   19.0560  -33.5790 C   0  0  0  0  0  0  0  0  0  0  0  0
   -3.7420   17.9270  -34.4030 C   0  0  0  0  0  0  0  0  0  0  0  0
   -2.6240   17.0840  -34.4310 C   0  0  0  0  0  0  0  0  0  0  0  0
   -2.6300   15.6280  -35.4310 S   0  0  0  0  0  0  0  0  0  0  0  0
   -1.2290   15.3510  -35.9020 O   0  0  0  0  0  0  0  0  0  0  0  0
   -3.4870   15.8620  -36.6440 O   0  0  0  0  0  0  0  0  0  0  0  0
   -3.2300   14.2380  -34.5550 N   0  0  0  0  0  0  0  0  0  0  0  0
   -2.1430   13.5440  -33.8220 C   0  0  0  0  0  0  0  0  0  0  0  0
   -2.1750   13.8300  -32.3100 C   0  0  0  0  0  0  0  0  0  0  0  0
   -3.4650   13.4370  -31.7050 N   0  0  0  0  0  0  0  0  0  0  0  0
   -4.6220   13.5700  -32.6150 C   0  0  0  0  0  0  0  0  0  0  0  0
   -4.3760   14.6220  -33.7050 C   0  0  0  0  0  0  0  0  0  0  0  0
   -1.5120   17.3870  -33.6340 C   0  0  0  0  0  0  0  0  0  0  0  0
   -1.5220   18.5130  -32.8060 C   0  0  0  0  0  0  0  0  0  0  0  0
   -3.6950   21.4850  -31.9210 C   0  0  0  0  0  0  0  0  0  0  0  0
   -3.6870   22.6080  -31.0840 C   0  0  0  0  0  0  0  0  0  0  0  0
   -4.6500   23.5560  -31.2250 N   0  0  0  0  0  0  0  0  0  0  0  0
   -6.0999   26.0814  -29.7341 H   0  0  0  0  0  0  0  0  0  0  0  0
   -5.2952   26.5504  -31.2701 H   0  0  0  0  0  0  0  0  0  0  0  0
   -6.5526   25.2675  -31.2701 H   0  0  0  0  0  0  0  0  0  0  0  0
   -3.6567   25.8285  -28.9248 H   0  0  0  0  0  0  0  0  0  0  0  0
   -2.5367   24.1444  -25.8607 H   0  0  0  0  0  0  0  0  0  0  0  0
   -2.0244   25.9295  -24.1920 H   0  0  0  0  0  0  0  0  0  0  0  0
    0.6283   30.3576  -23.9514 H   0  0  0  0  0  0  0  0  0  0  0  0
    2.9062   30.5960  -22.9566 H   0  0  0  0  0  0  0  0  0  0  0  0
    4.2968   28.5683  -22.5165 H   0  0  0  0  0  0  0  0  0  0  0  0
    3.4016   26.3018  -23.0460 H   0  0  0  0  0  0  0  0  0  0  0  0
    1.1287   26.0525  -24.0459 H   0  0  0  0  0  0  0  0  0  0  0  0
    0.1117   28.1522  -27.2263 H   0  0  0  0  0  0  0  0  0  0  0  0
   -0.3818   26.3606  -28.8870 H   0  0  0  0  0  0  0  0  0  0  0  0
   -0.8996   21.8661  -29.2321 H   0  0  0  0  0  0  0  0  0  0  0  0
   -0.9166   19.8870  -30.7314 H   0  0  0  0  0  0  0  0  0  0  0  0
   -4.6343   19.7155  -33.5701 H   0  0  0  0  0  0  0  0  0  0  0  0
   -4.6149   17.6995  -35.0325 H   0  0  0  0  0  0  0  0  0  0  0  0
   -2.2483   12.4603  -33.9782 H   0  0  0  0  0  0  0  0  0  0  0  0
   -1.1851   13.9180  -34.2125 H   0  0  0  0  0  0  0  0  0  0  0  0
   -1.3665   13.2648  -31.8234 H   0  0  0  0  0  0  0  0  0  0  0  0
   -2.0439   14.9123  -32.1636 H   0  0  0  0  0  0  0  0  0  0  0  0
   -3.4060   12.4420  -31.3870 H   0  0  0  0  0  0  0  0  0  0  0  0
   -3.6270   14.0300  -30.8580 H   0  0  0  0  0  0  0  0  0  0  0  0
   -4.8103   12.5983  -33.0949 H   0  0  0  0  0  0  0  0  0  0  0  0
   -5.4884   13.8931  -32.0192 H   0  0  0  0  0  0  0  0  0  0  0  0
   -5.2761   14.7099  -34.3312 H   0  0  0  0  0  0  0  0  0  0  0  0
   -4.1503   15.5842  -33.2221 H   0  0  0  0  0  0  0  0  0  0  0  0
   -0.6264   16.7351  -33.6601 H   0  0  0  0  0  0  0  0  0  0  0  0
   -0.6430   18.7420  -32.1856 H   0  0  0  0  0  0  0  0  0  0  0  0
   -4.4951   21.3677  -32.6667 H   0  0  0  0  0  0  0  0  0  0  0  0
  1  2  1  0
  2  3  2  0
  3  4  1  0
  4  5  2  3
  5  6  1  0
  6  7  2  0
  7  8  1  0
  8  9  2  0
  9 10  1  0
 10 11  1  0
 11 12  2  0
 12 13  1  0
 13 14  2  0
 14 15  1  0
 15 16  2  0
  9 17  1  0
 17 18  2  0
  4 19  1  0
 19 20  2  0
 20 21  1  0
 21 22  2  0
 22 23  1  0
 23 24  2  0
 24 25  1  0
 25 26  2  0
 26 27  1  0
 27 28  2  0
 27 29  2  0
 27 30  1  0
 30 31  1  0
 31 32  1  0
 32 33  1  0
 33 34  1  0
 34 35  1  0
 26 36  1  0
 36 37  2  0
 22 38  1  0
 38 39  2  0
 39 40  1  0
 40  2  1  0
 18  6  1  0
 39 19  1  0
 16 11  1  0
 37 23  1  0
 35 30  1  0
  1 41  1  0
  1 42  1  0
  1 43  1  0
  3 44  1  0
  7 45  1  0
  8 46  1  0
 12 47  1  0
 13 48  1  0
 14 49  1  0
 15 50  1  0
 16 51  1  0
 17 52  1  0
 18 53  1  0
 20 54  1  0
 21 55  1  0
 24 56  1  0
 25 57  1  0
 31 58  1  0
 31 59  1  0
 32 60  1  0
 32 61  1  0
 33 62  1  0
 33 63  1  0
 34 64  1  0
 34 65  1  0
 35 66  1  0
 35 67  1  0
 36 68  1  0
 37 69  1  0
 38 70  1  0
M  CHG  2  33   1  40  -1
M  END
>  <UniqueID>  (43) 
41

>  <SMILES>  (43) 
Cc1cc(=Nc2ccc(Oc3ccccc3)cc2)c2ccc(-c3ccc(S(=O)(=O)N4CC[NH2+]CC4)cc3)cc2[n-]1

>  <Energy>  (43) 
113.39056590924623

>  <Genealogy>  (43) 
Cc1cc(=Nc2ccc(Oc3ccccc3)cc2)c2ccc(-c3ccc(S(=O)(=O)N4CC[NH2+]CC4)cc3)cc2[n-]1 (protonated)
Cc1cc(=Nc2ccc(Oc3ccccc3)cc2)c2ccc(-c3ccc(S(=O)(=O)N4CC[NH2+]CC4)cc3)cc2[n-]1 (3D coordinates assigned)
Cc1cc(=Nc2ccc(Oc3ccccc3)cc2)c2ccc(-c3ccc(S(=O)(=O)N4CC[NH2+]CC4)cc3)cc2[n-]1 (nonaromatic ring conformer: 113.39056590924623 kcal/mol)

>  <smiles>  (43) 
Cc1cc(=Nc2ccc(Oc3ccccc3)cc2)c2ccc(-c3ccc(S(=O)(=O)N4CCNCC4)cc3)cc2[nH]1

>  <score_type>  (43) 
oracle

>  <origin>  (43) 
adgpu

>  <m_score__min__energy>  (43) 
-11

>  <m_primary>  (43) 
energy

$$$$
43:0
     RDKit          3D

 54 57  0  0  0  0  0  0  0  0999 V2000
   -6.5310   16.6860  -33.7830 C   0  0  0  0  0  0  0  0  0  0  0  0
   -6.5400   18.0930  -33.2630 C   0  0  0  0  0  0  0  0  0  0  0  0
   -5.7700   19.0830  -33.8890 C   0  0  0  0  0  0  0  0  0  0  0  0
   -5.7480   20.3870  -33.3810 C   0  0  0  0  0  0  0  0  0  0  0  0
   -6.4970   20.7140  -32.2430 C   0  0  0  0  0  0  0  0  0  0  0  0
   -6.4520   22.0460  -31.7190 N   0  0  0  0  0  0  0  0  0  0  0  0
   -7.5170   22.6550  -31.2180 N   0  0  0  0  0  0  0  0  0  0  0  0
   -7.1300   23.8660  -30.7710 C   0  0  0  0  0  0  0  0  0  0  0  0
   -5.7700   24.0150  -30.9670 C   0  0  0  0  0  0  0  0  0  0  0  0
   -4.9650   25.1780  -30.5450 C   0  0  0  0  0  0  0  0  0  0  0  0
   -5.5470   26.2700  -30.3130 O   0  0  0  0  0  0  0  0  0  0  0  0
   -3.5400   25.1110  -30.4020 N   0  0  0  0  0  0  0  0  0  0  0  0
   -2.8250   24.3470  -29.4200 C   0  0  0  0  0  0  0  0  0  0  0  0
   -1.6000   23.7710  -29.7720 C   0  0  0  0  0  0  0  0  0  0  0  0
   -0.8810   23.0160  -28.8430 C   0  0  0  0  0  0  0  0  0  0  0  0
   -1.3710   22.8450  -27.5410 C   0  0  0  0  0  0  0  0  0  0  0  0
   -0.4560   21.8990  -26.3660 S   0  0  0  0  0  0  0  0  0  0  0  0
    1.0090   22.2000  -26.5250 O   0  0  0  0  0  0  0  0  0  0  0  0
   -0.8630   22.3230  -24.9830 O   0  0  0  0  0  0  0  0  0  0  0  0
   -0.7160   20.1750  -26.5380 N   0  0  0  0  0  0  0  0  0  0  0  0
   -0.4630   19.6970  -27.9100 C   0  0  0  0  0  0  0  0  0  0  0  0
   -1.6660   19.9120  -28.8590 C   0  0  0  0  0  0  0  0  0  0  0  0
   -2.8420   20.3230  -28.1880 O   0  0  0  0  0  0  0  0  0  0  0  0
   -3.0720   19.4850  -27.0800 C   0  0  0  0  0  0  0  0  0  0  0  0
   -2.0160   19.7330  -25.9900 C   0  0  0  0  0  0  0  0  0  0  0  0
   -2.5890   23.4350  -27.1800 C   0  0  0  0  0  0  0  0  0  0  0  0
   -3.3070   24.1920  -28.1080 C   0  0  0  0  0  0  0  0  0  0  0  0
   -5.3670   22.8440  -31.5950 C   0  0  0  0  0  0  0  0  0  0  0  0
   -3.9660   22.4640  -31.9820 C   0  0  0  0  0  0  0  0  0  0  0  0
   -7.2360   19.7150  -31.5930 C   0  0  0  0  0  0  0  0  0  0  0  0
   -7.2590   18.4120  -32.0990 C   0  0  0  0  0  0  0  0  0  0  0  0
   -6.5265   15.9826  -32.9373 H   0  0  0  0  0  0  0  0  0  0  0  0
   -7.4281   16.5161  -34.3965 H   0  0  0  0  0  0  0  0  0  0  0  0
   -5.6318   16.5276  -34.3965 H   0  0  0  0  0  0  0  0  0  0  0  0
   -5.1804   18.8339  -34.7836 H   0  0  0  0  0  0  0  0  0  0  0  0
   -5.1403   21.1581  -33.8771 H   0  0  0  0  0  0  0  0  0  0  0  0
   -7.7934   24.6188  -30.3202 H   0  0  0  0  0  0  0  0  0  0  0  0
   -1.2005   23.9136  -30.7869 H   0  0  0  0  0  0  0  0  0  0  0  0
    0.0737   22.5536  -29.1342 H   0  0  0  0  0  0  0  0  0  0  0  0
    0.4040   20.2392  -28.3154 H   0  0  0  0  0  0  0  0  0  0  0  0
   -0.2807   18.6138  -27.8516 H   0  0  0  0  0  0  0  0  0  0  0  0
   -1.3964   20.6836  -29.5952 H   0  0  0  0  0  0  0  0  0  0  0  0
   -1.8834   18.9439  -29.3338 H   0  0  0  0  0  0  0  0  0  0  0  0
   -4.0714   19.6928  -26.6700 H   0  0  0  0  0  0  0  0  0  0  0  0
   -3.0072   18.4367  -27.4068 H   0  0  0  0  0  0  0  0  0  0  0  0
   -2.3916   20.5098  -25.3077 H   0  0  0  0  0  0  0  0  0  0  0  0
   -1.8476   18.7782  -25.4704 H   0  0  0  0  0  0  0  0  0  0  0  0
   -2.9816   23.3014  -26.1611 H   0  0  0  0  0  0  0  0  0  0  0  0
   -4.2530   24.6688  -27.8118 H   0  0  0  0  0  0  0  0  0  0  0  0
   -3.3662   22.3013  -31.0744 H   0  0  0  0  0  0  0  0  0  0  0  0
   -3.9881   21.5394  -32.5775 H   0  0  0  0  0  0  0  0  0  0  0  0
   -3.5179   23.2730  -32.5775 H   0  0  0  0  0  0  0  0  0  0  0  0
   -7.8003   19.9578  -30.6805 H   0  0  0  0  0  0  0  0  0  0  0  0
   -7.8419   17.6341  -31.5841 H   0  0  0  0  0  0  0  0  0  0  0  0
  1  2  1  0
  2  3  2  0
  3  4  1  0
  4  5  2  0
  5  6  1  0
  6  7  1  0
  7  8  2  0
  8  9  1  0
  9 10  1  0
 10 11  2  0
 10 12  1  0
 12 13  1  0
 13 14  2  0
 14 15  1  0
 15 16  2  0
 16 17  1  0
 17 18  2  0
 17 19  2  0
 17 20  1  0
 20 21  1  0
 21 22  1  0
 22 23  1  0
 23 24  1  0
 24 25  1  0
 16 26  1  0
 26 27  2  0
  9 28  2  0
 28 29  1  0
  5 30  1  0
 30 31  2  0
 31  2  1  0
 28  6  1  0
 27 13  1  0
 25 20  1  0
  1 32  1  0
  1 33  1  0
  1 34  1  0
  3 35  1  0
  4 36  1  0
  8 37  1  0
 14 38  1  0
 15 39  1  0
 21 40  1  0
 21 41  1  0
 22 42  1  0
 22 43  1  0
 24 44  1  0
 24 45  1  0
 25 46  1  0
 25 47  1  0
 26 48  1  0
 27 49  1  0
 29 50  1  0
 29 51  1  0
 29 52  1  0
 30 53  1  0
 31 54  1  0
M  CHG  1  12  -1
M  END
>  <UniqueID>  (44) 
42

>  <SMILES>  (44) 
Cc1ccc(-n2ncc(C(=O)[N-]c3ccc(S(=O)(=O)N4CCOCC4)cc3)c2C)cc1

>  <Energy>  (44) 
109.70589818423201

>  <Genealogy>  (44) 
Cc1ccc(-n2ncc(C(=O)[N-]c3ccc(S(=O)(=O)N4CCOCC4)cc3)c2C)cc1 (protonated)
Cc1ccc(-n2ncc(C(=O)[N-]c3ccc(S(=O)(=O)N4CCOCC4)cc3)c2C)cc1 (3D coordinates assigned)
Cc1ccc(-n2ncc(C(=O)[N-]c3ccc(S(=O)(=O)N4CCOCC4)cc3)c2C)cc1 (nonaromatic ring conformer: 109.70589818423201 kcal/mol)

>  <smiles>  (44) 
Cc1ccc(-n2ncc(C(=O)Nc3ccc(S(=O)(=O)N4CCOCC4)cc3)c2C)cc1

>  <score_type>  (44) 
oracle

>  <origin>  (44) 
adgpu

>  <m_score__min__energy>  (44) 
-11.859999999999999

>  <m_primary>  (44) 
energy

$$$$
44:0
     RDKit          3D

 42 45  0  0  0  0  0  0  0  0999 V2000
   -0.0190   27.2000  -23.1560 N   0  0  0  0  0  0  0  0  0  0  0  0
   -0.1940   26.1830  -24.1450 C   0  0  0  0  0  0  0  0  0  0  0  0
   -1.4150   26.0590  -24.8220 C   0  0  0  0  0  0  0  0  0  0  0  0
   -1.5860   25.0640  -25.7880 C   0  0  0  0  0  0  0  0  0  0  0  0
   -0.5360   24.1870  -26.0920 C   0  0  0  0  0  0  0  0  0  0  0  0
   -0.7600   22.9200  -27.2900 S   0  0  0  0  0  0  0  0  0  0  0  0
   -0.8290   21.5800  -26.6130 O   0  0  0  0  0  0  0  0  0  0  0  0
    0.4030   22.9030  -28.2420 O   0  0  0  0  0  0  0  0  0  0  0  0
   -2.2510   23.2220  -28.1720 C   0  0  0  0  0  0  0  0  0  0  0  0
   -3.4300   22.5120  -27.8350 C   0  0  0  0  0  0  0  0  0  0  0  0
   -4.6360   22.7600  -28.5170 C   0  0  0  0  0  0  0  0  0  0  0  0
   -4.6210   23.7260  -29.5220 C   0  0  0  0  0  0  0  0  0  0  0  0
   -5.5900   24.2120  -30.3690 C   0  0  0  0  0  0  0  0  0  0  0  0
   -7.0180   23.8370  -30.3680 C   0  0  0  0  0  0  0  0  0  0  0  0
   -7.5590   22.8500  -31.0990 C   0  0  0  0  0  0  0  0  0  0  0  0
   -6.8020   21.8510  -31.8770 C   0  0  0  0  0  0  0  0  0  0  0  0
   -7.3780   20.6280  -32.2590 C   0  0  0  0  0  0  0  0  0  0  0  0
   -6.6390   19.7370  -33.0400 C   0  0  0  0  0  0  0  0  0  0  0  0
   -5.3490   20.0780  -33.4510 C   0  0  0  0  0  0  0  0  0  0  0  0
   -4.8200   21.3160  -33.0810 C   0  0  0  0  0  0  0  0  0  0  0  0
   -5.5540   22.1690  -32.3170 N   0  0  0  0  0  0  0  0  0  0  0  0
   -5.0320   25.1770  -31.1410 N   0  0  0  0  0  0  0  0  0  0  0  0
   -3.7460   25.2990  -30.8280 N   0  0  0  0  0  0  0  0  0  0  0  0
   -3.4900   24.4190  -29.8450 C   0  0  0  0  0  0  0  0  0  0  0  0
   -2.2810   24.1990  -29.1910 C   0  0  0  0  0  0  0  0  0  0  0  0
    0.6830   24.3040  -25.4090 C   0  0  0  0  0  0  0  0  0  0  0  0
    0.8540   25.3000  -24.4430 C   0  0  0  0  0  0  0  0  0  0  0  0
   -0.4820   28.1310  -23.2570 H   0  0  0  0  0  0  0  0  0  0  0  0
    0.5760   27.0300  -22.3130 H   0  0  0  0  0  0  0  0  0  0  0  0
   -2.2416   26.7474  -24.5920 H   0  0  0  0  0  0  0  0  0  0  0  0
   -2.5485   24.9687  -26.3119 H   0  0  0  0  0  0  0  0  0  0  0  0
   -3.4025   21.7599  -27.0328 H   0  0  0  0  0  0  0  0  0  0  0  0
   -5.5562   22.2119  -28.2663 H   0  0  0  0  0  0  0  0  0  0  0  0
   -7.6921   24.4123  -29.7163 H   0  0  0  0  0  0  0  0  0  0  0  0
   -8.6566   22.7802  -31.1197 H   0  0  0  0  0  0  0  0  0  0  0  0
   -8.4016   20.3746  -31.9458 H   0  0  0  0  0  0  0  0  0  0  0  0
   -7.0722   18.7686  -33.3308 H   0  0  0  0  0  0  0  0  0  0  0  0
   -4.7561   19.3792  -34.0594 H   0  0  0  0  0  0  0  0  0  0  0  0
   -3.8092   21.6016  -33.4075 H   0  0  0  0  0  0  0  0  0  0  0  0
   -1.3785   24.7677  -29.4593 H   0  0  0  0  0  0  0  0  0  0  0  0
    1.5067   23.6105  -25.6338 H   0  0  0  0  0  0  0  0  0  0  0  0
    1.8144   25.3915  -23.9145 H   0  0  0  0  0  0  0  0  0  0  0  0
  1  2  1  0
  2  3  2  0
  3  4  1  0
  4  5  2  0
  5  6  1  0
  6  7  2  0
  6  8  2  0
  6  9  1  0
  9 10  1  0
 10 11  2  0
 11 12  1  0
 12 13  2  0
 13 14  1  0
 14 15  2  3
 15 16  1  0
 16 17  2  0
 17 18  1  0
 18 19  2  0
 19 20  1  0
 20 21  2  0
 13 22  1  0
 22 23  1  0
 23 24  2  0
 24 25  1  0
  5 26  1  0
 26 27  2  0
 27  2  1  0
 25  9  2  0
 24 12  1  0
 21 16  1  0
  1 28  1  0
  1 29  1  0
  3 30  1  0
  4 31  1  0
 10 32  1  0
 11 33  1  0
 14 34  1  0
 15 35  1  0
 17 36  1  0
 18 37  1  0
 19 38  1  0
 20 39  1  0
 25 40  1  0
 26 41  1  0
 27 42  1  0
M  CHG  1  22  -1
M  END
>  <UniqueID>  (45) 
43

>  <SMILES>  (45) 
Nc1ccc(S(=O)(=O)c2ccc3c(C=Cc4ccccn4)[n-]nc3c2)cc1

>  <Energy>  (45) 
93.93114468952396

>  <Genealogy>  (45) 
Nc1ccc(S(=O)(=O)c2ccc3c(C=Cc4ccccn4)[n-]nc3c2)cc1 (protonated)
Nc1ccc(S(=O)(=O)c2ccc3c(C=Cc4ccccn4)[n-]nc3c2)cc1 (3D coordinates assigned)
Nc1ccc(S(=O)(=O)c2ccc3c(C=Cc4ccccn4)[n-]nc3c2)cc1 (optimized conformer: 93.93114468952396 kcal/mol)

>  <smiles>  (45) 
Nc1ccc(S(=O)(=O)c2ccc3c(C=Cc4ccccn4)[nH]nc3c2)cc1

>  <score_type>  (45) 
oracle

>  <origin>  (45) 
adgpu

>  <m_score__min__energy>  (45) 
-11.06

>  <m_primary>  (45) 
energy

$$$$
45:0
     RDKit          3D

 52 55  0  0  0  0  0  0  0  0999 V2000
   -3.9880   20.4700  -31.7780 N   0  0  0  0  0  0  0  0  0  0  0  0
   -5.1110   20.7480  -31.7880 C   0  0  0  0  0  0  0  0  0  0  0  0
   -6.5120   21.1000  -31.7990 C   0  0  0  0  0  0  0  0  0  0  0  0
   -6.9490   22.2770  -31.1620 C   0  0  0  0  0  0  0  0  0  0  0  0
   -6.0370   23.1000  -30.4180 N   0  0  0  0  0  0  0  0  0  0  0  0
   -5.3590   24.2130  -31.0950 C   0  0  0  0  0  0  0  0  0  0  0  0
   -4.3720   24.9150  -30.1560 C   0  0  0  0  0  0  0  0  0  0  0  0
   -3.4310   23.8940  -29.4780 C   0  0  0  0  0  0  0  0  0  0  0  0
   -2.5590   24.5850  -28.4450 C   0  0  0  0  0  0  0  0  0  0  0  0
   -2.9900   24.6890  -27.1090 C   0  0  0  0  0  0  0  0  0  0  0  0
   -2.1810   25.3110  -26.1520 C   0  0  0  0  0  0  0  0  0  0  0  0
   -0.9360   25.8310  -26.5160 C   0  0  0  0  0  0  0  0  0  0  0  0
   -0.4980   25.7310  -27.8390 C   0  0  0  0  0  0  0  0  0  0  0  0
   -1.3020   25.1100  -28.8000 C   0  0  0  0  0  0  0  0  0  0  0  0
   -4.1800   22.6690  -28.8720 C   0  0  0  0  0  0  0  0  0  0  0  0
   -5.7020   22.7520  -29.0340 C   0  0  0  0  0  0  0  0  0  0  0  0
   -8.2900   22.6610  -31.2630 C   0  0  0  0  0  0  0  0  0  0  0  0
   -9.1790   21.8720  -31.9910 C   0  0  0  0  0  0  0  0  0  0  0  0
   -8.7440   20.7350  -32.5910 N   0  0  0  0  0  0  0  0  0  0  0  0
   -7.4490   20.3210  -32.5130 C   0  0  0  0  0  0  0  0  0  0  0  0
   -7.0680   19.0980  -33.1660 N   0  0  0  0  0  0  0  0  0  0  0  0
   -7.3700   17.8140  -32.5210 C   0  0  0  0  0  0  0  0  0  0  0  0
   -6.0740   17.1170  -32.0800 C   0  0  0  0  0  0  0  0  0  0  0  0
   -4.9220   17.2620  -33.1000 C   0  0  0  0  0  0  0  0  0  0  0  0
   -5.3880   17.7990  -34.4610 C   0  0  0  0  0  0  0  0  0  0  0  0
   -6.1130   19.1410  -34.2860 C   0  0  0  0  0  0  0  0  0  0  0  0
   -4.8107   23.8230  -31.9652 H   0  0  0  0  0  0  0  0  0  0  0  0
   -6.1188   24.9433  -31.4104 H   0  0  0  0  0  0  0  0  0  0  0  0
   -3.7695   25.6294  -30.7363 H   0  0  0  0  0  0  0  0  0  0  0  0
   -4.9431   25.4379  -29.3747 H   0  0  0  0  0  0  0  0  0  0  0  0
   -2.7859   23.4809  -30.2674 H   0  0  0  0  0  0  0  0  0  0  0  0
   -3.9678   24.2791  -26.8160 H   0  0  0  0  0  0  0  0  0  0  0  0
   -2.5257   25.3909  -25.1105 H   0  0  0  0  0  0  0  0  0  0  0  0
   -0.3013   26.3187  -25.7615 H   0  0  0  0  0  0  0  0  0  0  0  0
    0.4815   26.1417  -28.1253 H   0  0  0  0  0  0  0  0  0  0  0  0
   -0.9502   25.0313  -29.8393 H   0  0  0  0  0  0  0  0  0  0  0  0
   -3.8240   21.7577  -29.3747 H   0  0  0  0  0  0  0  0  0  0  0  0
   -3.9661   22.6557  -27.7931 H   0  0  0  0  0  0  0  0  0  0  0  0
   -6.1493   21.7786  -28.7839 H   0  0  0  0  0  0  0  0  0  0  0  0
   -6.0968   23.5262  -28.3596 H   0  0  0  0  0  0  0  0  0  0  0  0
   -8.6410   23.5801  -30.7709 H   0  0  0  0  0  0  0  0  0  0  0  0
  -10.2339   22.1711  -32.0793 H   0  0  0  0  0  0  0  0  0  0  0  0
   -8.0038   17.9916  -31.6396 H   0  0  0  0  0  0  0  0  0  0  0  0
   -7.8947   17.1684  -33.2407 H   0  0  0  0  0  0  0  0  0  0  0  0
   -5.7505   17.5546  -31.1240 H   0  0  0  0  0  0  0  0  0  0  0  0
   -6.2964   16.0434  -31.9914 H   0  0  0  0  0  0  0  0  0  0  0  0
   -4.1740   17.9551  -32.6874 H   0  0  0  0  0  0  0  0  0  0  0  0
   -4.5042   16.2585  -33.2684 H   0  0  0  0  0  0  0  0  0  0  0  0
   -4.5138   17.9415  -35.1132 H   0  0  0  0  0  0  0  0  0  0  0  0
   -6.0817   17.0744  -34.9124 H   0  0  0  0  0  0  0  0  0  0  0  0
   -5.3682   19.9265  -34.0903 H   0  0  0  0  0  0  0  0  0  0  0  0
   -6.6733   19.3527  -35.2086 H   0  0  0  0  0  0  0  0  0  0  0  0
  1  2  3  0
  2  3  1  0
  3  4  2  0
  4  5  1  0
  5  6  1  0
  6  7  1  0
  7  8  1  0
  8  9  1  0
  9 10  2  0
 10 11  1  0
 11 12  2  0
 12 13  1  0
 13 14  2  0
  8 15  1  0
 15 16  1  0
  4 17  1  0
 17 18  2  0
 18 19  1  0
 19 20  2  0
 20 21  1  0
 21 22  1  0
 22 23  1  0
 23 24  1  0
 24 25  1  0
 25 26  1  0
 20  3  1  0
 26 21  1  0
 16  5  1  0
 14  9  1  0
  6 27  1  0
  6 28  1  0
  7 29  1  0
  7 30  1  0
  8 31  1  0
 10 32  1  0
 11 33  1  0
 12 34  1  0
 13 35  1  0
 14 36  1  0
 15 37  1  0
 15 38  1  0
 16 39  1  0
 16 40  1  0
 17 41  1  0
 18 42  1  0
 22 43  1  0
 22 44  1  0
 23 45  1  0
 23 46  1  0
 24 47  1  0
 24 48  1  0
 25 49  1  0
 25 50  1  0
 26 51  1  0
 26 52  1  0
M  END
>  <UniqueID>  (46) 
44

>  <SMILES>  (46) 
N#Cc1c(N2CCC(c3ccccc3)CC2)ccnc1N1CCCCC1

>  <Energy>  (46) 
70.02988193089666

>  <Genealogy>  (46) 
N#Cc1c(N2CCC(c3ccccc3)CC2)ccnc1N1CCCCC1 (3D coordinates assigned)
N#Cc1c(N2CCC(c3ccccc3)CC2)ccnc1N1CCCCC1 (nonaromatic ring conformer: 70.02988193089666 kcal/mol)

>  <smiles>  (46) 
N#Cc1c(N2CCC(c3ccccc3)CC2)ccnc1N1CCCCC1

>  <score_type>  (46) 
oracle

>  <origin>  (46) 
adgpu

>  <m_score__min__energy>  (46) 
-8.6899999999999995

>  <m_primary>  (46) 
energy

$$$$
46:0
     RDKit          3D

 37 39  0  0  0  0  0  0  0  0999 V2000
   -7.2330   17.2140  -33.0250 C   0  0  0  0  0  0  0  0  0  0  0  0
   -7.5130   18.6520  -32.7050 C   0  0  0  0  0  0  0  0  0  0  0  0
   -8.8360   19.1100  -32.6150 C   0  0  0  0  0  0  0  0  0  0  0  0
   -9.1040   20.4400  -32.2810 C   0  0  0  0  0  0  0  0  0  0  0  0
   -8.0540   21.3250  -32.0220 C   0  0  0  0  0  0  0  0  0  0  0  0
   -8.3200   22.5870  -31.7010 O   0  0  0  0  0  0  0  0  0  0  0  0
   -7.3690   23.4780  -31.4420 C   0  0  0  0  0  0  0  0  0  0  0  0
   -6.0120   23.1180  -31.5100 C   0  0  0  0  0  0  0  0  0  0  0  0
   -4.9860   24.0320  -31.2270 O   0  0  0  0  0  0  0  0  0  0  0  0
   -4.1540   23.9970  -30.0970 C   0  0  0  0  0  0  0  0  0  0  0  0
   -2.8440   23.5370  -30.2440 C   0  0  0  0  0  0  0  0  0  0  0  0
   -1.9810   23.4960  -29.1480 C   0  0  0  0  0  0  0  0  0  0  0  0
   -2.4120   23.9260  -27.8820 C   0  0  0  0  0  0  0  0  0  0  0  0
   -1.4560   23.8730  -26.7200 C   0  0  0  0  0  0  0  0  0  0  0  0
   -3.7280   24.4230  -27.7290 C   0  0  0  0  0  0  0  0  0  0  0  0
   -4.2280   24.9140  -26.3960 C   0  0  0  0  0  0  0  0  0  0  0  0
   -4.5870   24.4570  -28.8430 C   0  0  0  0  0  0  0  0  0  0  0  0
   -5.6880   21.7940  -31.8240 C   0  0  0  0  0  0  0  0  0  0  0  0
   -4.4780   21.4410  -31.8690 O   0  0  0  0  0  0  0  0  0  0  0  0
   -6.7160   20.8740  -32.0950 C   0  0  0  0  0  0  0  0  0  0  0  0
   -6.4550   19.5330  -32.4290 C   0  0  0  0  0  0  0  0  0  0  0  0
   -7.1222   16.6452  -32.0900 H   0  0  0  0  0  0  0  0  0  0  0  0
   -8.0673   16.7993  -33.6098 H   0  0  0  0  0  0  0  0  0  0  0  0
   -6.3041   17.1427  -33.6098 H   0  0  0  0  0  0  0  0  0  0  0  0
   -9.6682   18.4172  -32.8087 H   0  0  0  0  0  0  0  0  0  0  0  0
  -10.1446   20.7915  -32.2217 H   0  0  0  0  0  0  0  0  0  0  0  0
   -7.6464   24.5076  -31.1717 H   0  0  0  0  0  0  0  0  0  0  0  0
   -2.4895   23.2045  -31.2308 H   0  0  0  0  0  0  0  0  0  0  0  0
   -0.9540   23.1236  -29.2766 H   0  0  0  0  0  0  0  0  0  0  0  0
   -2.0223   23.9044  -25.7775 H   0  0  0  0  0  0  0  0  0  0  0  0
   -0.8733   22.9412  -26.7668 H   0  0  0  0  0  0  0  0  0  0  0  0
   -0.7739   24.7347  -26.7668 H   0  0  0  0  0  0  0  0  0  0  0  0
   -3.6948   24.3904  -25.5889 H   0  0  0  0  0  0  0  0  0  0  0  0
   -4.0479   25.9960  -26.3127 H   0  0  0  0  0  0  0  0  0  0  0  0
   -5.3065   24.7143  -26.3127 H   0  0  0  0  0  0  0  0  0  0  0  0
   -5.6089   24.8482  -28.7302 H   0  0  0  0  0  0  0  0  0  0  0  0
   -5.4167   19.1725  -32.4743 H   0  0  0  0  0  0  0  0  0  0  0  0
  1  2  1  0
  2  3  2  0
  3  4  1  0
  4  5  2  0
  5  6  1  0
  6  7  1  0
  7  8  2  0
  8  9  1  0
  9 10  1  0
 10 11  2  0
 11 12  1  0
 12 13  2  0
 13 14  1  0
 13 15  1  0
 15 16  1  0
 15 17  2  0
  8 18  1  0
 18 19  2  0
 18 20  1  0
 20 21  2  0
 21  2  1  0
 20  5  1  0
 17 10  1  0
  1 22  1  0
  1 23  1  0
  1 24  1  0
  3 25  1  0
  4 26  1  0
  7 27  1  0
 11 28  1  0
 12 29  1  0
 14 30  1  0
 14 31  1  0
 14 32  1  0
 16 33  1  0
 16 34  1  0
 16 35  1  0
 17 36  1  0
 21 37  1  0
M  END
>  <UniqueID>  (47) 
45

>  <SMILES>  (47) 
Cc1ccc2occ(Oc3ccc(C)c(C)c3)c(=O)c2c1

>  <Energy>  (47) 
50.75448710462395

>  <Genealogy>  (47) 
Cc1ccc2occ(Oc3ccc(C)c(C)c3)c(=O)c2c1 (3D coordinates assigned)
Cc1ccc2occ(Oc3ccc(C)c(C)c3)c(=O)c2c1 (optimized conformer: 50.75448710462395 kcal/mol)

>  <smiles>  (47) 
Cc1ccc2occ(Oc3ccc(C)c(C)c3)c(=O)c2c1

>  <score_type>  (47) 
oracle

>  <origin>  (47) 
adgpu

>  <m_score__min__energy>  (47) 
-7.6900000000000004

>  <m_primary>  (47) 
energy

$$$$
47:0
     RDKit          3D

 35 37  0  0  0  0  0  0  0  0999 V2000
   -4.8450   20.2300  -31.2050 O   0  0  0  0  0  0  0  0  0  0  0  0
   -5.4850   21.3150  -32.0250 S   0  0  0  0  0  0  0  0  0  0  0  0
   -4.6870   21.5110  -33.2840 O   0  0  0  0  0  0  0  0  0  0  0  0
   -5.4820   22.8090  -31.0920 C   0  0  0  0  0  0  0  0  0  0  0  0
   -6.1370   23.9490  -31.5810 C   0  0  0  0  0  0  0  0  0  0  0  0
   -6.1110   25.1410  -30.8510 C   0  0  0  0  0  0  0  0  0  0  0  0
   -5.4260   25.2030  -29.6340 C   0  0  0  0  0  0  0  0  0  0  0  0
   -4.7610   24.0730  -29.1470 C   0  0  0  0  0  0  0  0  0  0  0  0
   -3.8930   24.1530  -27.6260 Cl  0  0  0  0  0  0  0  0  0  0  0  0
   -4.7880   22.8780  -29.8760 C   0  0  0  0  0  0  0  0  0  0  0  0
   -7.1160   20.8690  -32.4280 N   0  0  0  0  0  0  0  0  0  0  0  0
   -8.2850   21.6050  -31.9730 C   0  0  0  0  0  0  0  0  0  0  0  0
   -9.4530   20.6350  -32.2050 C   0  0  0  0  0  0  0  0  0  0  0  0
   -8.8290   19.4210  -32.7100 N   0  0  0  0  0  0  0  0  0  0  0  0
   -7.5550   19.5790  -32.8310 C   0  0  0  0  0  0  0  0  0  0  0  0
   -6.6720   18.5250  -33.3730 C   0  0  0  0  0  0  0  0  0  0  0  0
   -5.8370   18.7970  -34.4710 C   0  0  0  0  0  0  0  0  0  0  0  0
   -4.9970   17.8020  -34.9810 C   0  0  0  0  0  0  0  0  0  0  0  0
   -4.9770   16.5340  -34.3950 C   0  0  0  0  0  0  0  0  0  0  0  0
   -5.7920   16.2600  -33.2940 C   0  0  0  0  0  0  0  0  0  0  0  0
   -6.6340   17.2520  -32.7810 C   0  0  0  0  0  0  0  0  0  0  0  0
   -6.6723   23.9049  -32.5410 H   0  0  0  0  0  0  0  0  0  0  0  0
   -6.6304   26.0315  -31.2348 H   0  0  0  0  0  0  0  0  0  0  0  0
   -5.4100   26.1407  -29.0592 H   0  0  0  0  0  0  0  0  0  0  0  0
   -4.2629   21.9904  -29.4933 H   0  0  0  0  0  0  0  0  0  0  0  0
   -8.1952   21.8599  -30.9067 H   0  0  0  0  0  0  0  0  0  0  0  0
   -8.4166   22.5587  -32.5051 H   0  0  0  0  0  0  0  0  0  0  0  0
   -9.9845   20.4352  -31.2629 H   0  0  0  0  0  0  0  0  0  0  0  0
  -10.1995   21.0413  -32.9034 H   0  0  0  0  0  0  0  0  0  0  0  0
   -9.3500   18.5560  -32.9750 H   0  0  0  0  0  0  0  0  0  0  0  0
   -5.8445   19.7963  -34.9307 H   0  0  0  0  0  0  0  0  0  0  0  0
   -4.3511   18.0181  -35.8448 H   0  0  0  0  0  0  0  0  0  0  0  0
   -4.3193   15.7511  -34.8007 H   0  0  0  0  0  0  0  0  0  0  0  0
   -5.7715   15.2629  -32.8300 H   0  0  0  0  0  0  0  0  0  0  0  0
   -7.2694   17.0341  -31.9099 H   0  0  0  0  0  0  0  0  0  0  0  0
  1  2  2  0
  2  3  2  0
  2  4  1  0
  4  5  2  0
  5  6  1  0
  6  7  2  0
  7  8  1  0
  8  9  1  0
  8 10  2  0
  2 11  1  0
 11 12  1  0
 12 13  1  0
 13 14  1  0
 14 15  2  0
 15 16  1  0
 16 17  2  0
 17 18  1  0
 18 19  2  0
 19 20  1  0
 20 21  2  0
 10  4  1  0
 15 11  1  0
 21 16  1  0
  5 22  1  0
  6 23  1  0
  7 24  1  0
 10 25  1  0
 12 26  1  0
 12 27  1  0
 13 28  1  0
 13 29  1  0
 14 30  1  0
 17 31  1  0
 18 32  1  0
 19 33  1  0
 20 34  1  0
 21 35  1  0
M  CHG  1  14   1
M  END
>  <UniqueID>  (48) 
46

>  <SMILES>  (48) 
O=S(=O)(c1cccc(Cl)c1)N1CC[NH+]=C1c1ccccc1

>  <Energy>  (48) 
54.341156577806494

>  <Genealogy>  (48) 
O=S(=O)(c1cccc(Cl)c1)N1CC[NH+]=C1c1ccccc1 (protonated)
O=S(=O)(c1cccc(Cl)c1)N1CC[NH+]=C1c1ccccc1 (3D coordinates assigned)
O=S(=O)(c1cccc(Cl)c1)N1CC[NH+]=C1c1ccccc1 (nonaromatic ring conformer: 54.341156577806494 kcal/mol)

>  <smiles>  (48) 
O=S(=O)(c1cccc(Cl)c1)N1CCN=C1c1ccccc1

>  <score_type>  (48) 
oracle

>  <origin>  (48) 
adgpu

>  <m_score__min__energy>  (48) 
-7.6200000000000001

>  <m_primary>  (48) 
energy

$$$$
48:0
     RDKit          3D

 43 45  0  0  0  0  0  0  0  0999 V2000
   -2.9400   15.6220  -33.1850 C   0  0  0  0  0  0  0  0  0  0  0  0
   -2.3120   16.9690  -33.0710 C   0  0  0  0  0  0  0  0  0  0  0  0
   -1.2490   17.2390  -32.2890 N   0  0  0  0  0  0  0  0  0  0  0  0
   -0.8910   18.4990  -32.5120 N   0  0  0  0  0  0  0  0  0  0  0  0
    0.1870   19.1600  -31.7860 C   0  0  0  0  0  0  0  0  0  0  0  0
   -1.7200   19.0600  -33.4230 C   0  0  0  0  0  0  0  0  0  0  0  0
   -1.6660   20.4890  -33.8660 C   0  0  0  0  0  0  0  0  0  0  0  0
   -2.6180   18.0860  -33.8270 C   0  0  0  0  0  0  0  0  0  0  0  0
   -3.6490   18.1600  -34.8180 N   0  0  0  0  0  0  0  0  0  0  0  0
   -5.3440   18.2180  -34.4610 S   0  0  0  0  0  0  0  0  0  0  0  0
   -5.7990   16.8870  -33.9330 O   0  0  0  0  0  0  0  0  0  0  0  0
   -6.0980   18.5260  -35.7250 O   0  0  0  0  0  0  0  0  0  0  0  0
   -5.6720   19.4980  -33.2950 C   0  0  0  0  0  0  0  0  0  0  0  0
   -4.7960   20.5860  -33.1670 C   0  0  0  0  0  0  0  0  0  0  0  0
   -5.0760   21.6120  -32.2580 C   0  0  0  0  0  0  0  0  0  0  0  0
   -6.2320   21.5570  -31.4620 C   0  0  0  0  0  0  0  0  0  0  0  0
   -6.5240   22.6540  -30.4720 C   0  0  0  0  0  0  0  0  0  0  0  0
   -5.2630   23.4090  -30.1350 C   0  0  0  0  0  0  0  0  0  0  0  0
   -4.3440   22.8720  -29.2220 C   0  0  0  0  0  0  0  0  0  0  0  0
   -3.1980   23.5400  -28.9370 N   0  0  0  0  0  0  0  0  0  0  0  0
   -2.9150   24.7300  -29.5330 C   0  0  0  0  0  0  0  0  0  0  0  0
   -1.8480   25.3350  -29.2530 O   0  0  0  0  0  0  0  0  0  0  0  0
   -3.7800   25.2670  -30.4320 N   0  0  0  0  0  0  0  0  0  0  0  0
   -4.9400   24.6360  -30.7500 C   0  0  0  0  0  0  0  0  0  0  0  0
   -5.7140   25.1620  -31.5950 O   0  0  0  0  0  0  0  0  0  0  0  0
   -7.0890   20.4500  -31.5680 C   0  0  0  0  0  0  0  0  0  0  0  0
   -6.8120   19.4280  -32.4830 C   0  0  0  0  0  0  0  0  0  0  0  0
   -3.1280   15.2188  -32.1790 H   0  0  0  0  0  0  0  0  0  0  0  0
   -3.8917   15.7061  -33.7301 H   0  0  0  0  0  0  0  0  0  0  0  0
   -2.2637   14.9471  -33.7301 H   0  0  0  0  0  0  0  0  0  0  0  0
    0.0179   19.0563  -30.7040 H   0  0  0  0  0  0  0  0  0  0  0  0
    1.1477   18.6955  -32.0531 H   0  0  0  0  0  0  0  0  0  0  0  0
    0.2087   20.2269  -32.0531 H   0  0  0  0  0  0  0  0  0  0  0  0
   -1.6412   21.1457  -32.9839 H   0  0  0  0  0  0  0  0  0  0  0  0
   -0.7611   20.6517  -34.4698 H   0  0  0  0  0  0  0  0  0  0  0  0
   -2.5561   20.7196  -34.4698 H   0  0  0  0  0  0  0  0  0  0  0  0
   -3.8860   20.6327  -33.7833 H   0  0  0  0  0  0  0  0  0  0  0  0
   -4.3880   22.4653  -32.1663 H   0  0  0  0  0  0  0  0  0  0  0  0
   -7.2570   23.3491  -30.9074 H   0  0  0  0  0  0  0  0  0  0  0  0
   -6.9274   22.2056  -29.5521 H   0  0  0  0  0  0  0  0  0  0  0  0
   -4.5526   21.9075  -28.7360 H   0  0  0  0  0  0  0  0  0  0  0  0
   -7.9821   20.3857  -30.9290 H   0  0  0  0  0  0  0  0  0  0  0  0
   -7.4914   18.5668  -32.5651 H   0  0  0  0  0  0  0  0  0  0  0  0
  1  2  1  0
  2  3  2  0
  3  4  1  0
  4  5  1  0
  4  6  1  0
  6  7  1  0
  6  8  2  0
  8  9  1  0
  9 10  1  0
 10 11  2  0
 10 12  2  0
 10 13  1  0
 13 14  2  0
 14 15  1  0
 15 16  2  0
 16 17  1  0
 17 18  1  0
 18 19  2  0
 19 20  1  0
 20 21  1  0
 21 22  2  0
 21 23  1  0
 23 24  1  0
 24 25  2  0
 16 26  1  0
 26 27  2  0
  8  2  1  0
 27 13  1  0
 24 18  1  0
  1 28  1  0
  1 29  1  0
  1 30  1  0
  5 31  1  0
  5 32  1  0
  5 33  1  0
  7 34  1  0
  7 35  1  0
  7 36  1  0
 14 37  1  0
 15 38  1  0
 17 39  1  0
 17 40  1  0
 19 41  1  0
 26 42  1  0
 27 43  1  0
M  CHG  3   9  -1  20  -1  23  -1
M  END
>  <UniqueID>  (49) 
47

>  <SMILES>  (49) 
Cc1nn(C)c(C)c1[N-]S(=O)(=O)c1ccc(Cc2c[n-]c(=O)[n-]c2=O)cc1

>  <Energy>  (49) 
81.01466558858782

>  <Genealogy>  (49) 
Cc1nn(C)c(C)c1[N-]S(=O)(=O)c1ccc(Cc2c[n-]c(=O)[n-]c2=O)cc1 (protonated)
Cc1nn(C)c(C)c1[N-]S(=O)(=O)c1ccc(Cc2c[n-]c(=O)[n-]c2=O)cc1 (3D coordinates assigned)
Cc1nn(C)c(C)c1[N-]S(=O)(=O)c1ccc(Cc2c[n-]c(=O)[n-]c2=O)cc1 (optimized conformer: 81.01466558858782 kcal/mol)

>  <smiles>  (49) 
Cc1nn(C)c(C)c1NS(=O)(=O)c1ccc(Cc2c[nH]c(=O)[nH]c2=O)cc1

>  <score_type>  (49) 
oracle

>  <origin>  (49) 
adgpu

>  <m_score__min__energy>  (49) 
-10.92

>  <m_primary>  (49) 
energy

$$$$
49:0
     RDKit          3D

 46 48  0  0  0  0  0  0  0  0999 V2000
   -7.1930   22.6980  -31.9670 C   0  0  0  0  0  0  0  0  0  0  0  0
   -5.9920   23.2650  -31.2690 C   0  0  0  0  0  0  0  0  0  0  0  0
   -4.7250   22.6970  -31.4660 C   0  0  0  0  0  0  0  0  0  0  0  0
   -3.6000   23.2470  -30.8440 C   0  0  0  0  0  0  0  0  0  0  0  0
   -3.7230   24.3910  -30.0360 C   0  0  0  0  0  0  0  0  0  0  0  0
   -2.5860   24.9630  -29.3650 N   0  0  0  0  0  0  0  0  0  0  0  0
   -1.2980   24.3320  -29.2890 C   0  0  0  0  0  0  0  0  0  0  0  0
   -0.9720   23.4500  -30.1280 O   0  0  0  0  0  0  0  0  0  0  0  0
   -0.3260   24.7640  -28.3310 N   0  0  0  0  0  0  0  0  0  0  0  0
   -0.6080   25.3740  -27.0610 C   0  0  0  0  0  0  0  0  0  0  0  0
   -0.9590   26.7350  -26.9790 C   0  0  0  0  0  0  0  0  0  0  0  0
   -1.2350   27.3210  -25.7420 C   0  0  0  0  0  0  0  0  0  0  0  0
   -1.1820   26.5550  -24.5780 C   0  0  0  0  0  0  0  0  0  0  0  0
   -0.8610   25.1980  -24.6470 C   0  0  0  0  0  0  0  0  0  0  0  0
   -0.5740   24.5950  -25.8830 C   0  0  0  0  0  0  0  0  0  0  0  0
   -0.2590   23.1490  -25.9280 C   0  0  0  0  0  0  0  0  0  0  0  0
    0.6070   22.6830  -25.1370 O   0  0  0  0  0  0  0  0  0  0  0  0
   -0.9100   22.2720  -26.8670 N   0  0  0  0  0  0  0  0  0  0  0  0
   -2.3520   22.4250  -27.1130 C   0  0  0  0  0  0  0  0  0  0  0  0
   -2.8740   21.3030  -28.0150 C   0  0  0  0  0  0  0  0  0  0  0  0
   -1.9720   21.1080  -29.1540 N   0  0  0  0  0  0  0  0  0  0  0  0
   -0.6230   20.6650  -28.7470 C   0  0  0  0  0  0  0  0  0  0  0  0
   -0.2320   21.0460  -27.3020 C   0  0  0  0  0  0  0  0  0  0  0  0
   -4.9920   24.9540  -29.8380 C   0  0  0  0  0  0  0  0  0  0  0  0
   -6.1180   24.4040  -30.4600 C   0  0  0  0  0  0  0  0  0  0  0  0
   -7.9228   22.3535  -31.2196 H   0  0  0  0  0  0  0  0  0  0  0  0
   -7.6518   23.4746  -32.5966 H   0  0  0  0  0  0  0  0  0  0  0  0
   -6.8849   21.8502  -32.5966 H   0  0  0  0  0  0  0  0  0  0  0  0
   -4.6157   21.8143  -32.1132 H   0  0  0  0  0  0  0  0  0  0  0  0
   -2.6134   22.7822  -30.9876 H   0  0  0  0  0  0  0  0  0  0  0  0
   -2.6750   25.9310  -28.9830 H   0  0  0  0  0  0  0  0  0  0  0  0
   -1.0162   27.3407  -27.8954 H   0  0  0  0  0  0  0  0  0  0  0  0
   -1.4946   28.3884  -25.6857 H   0  0  0  0  0  0  0  0  0  0  0  0
   -1.3934   27.0205  -23.6040 H   0  0  0  0  0  0  0  0  0  0  0  0
   -0.8326   24.5964  -23.7265 H   0  0  0  0  0  0  0  0  0  0  0  0
   -2.8867   22.3931  -26.1522 H   0  0  0  0  0  0  0  0  0  0  0  0
   -2.5227   23.3885  -27.6156 H   0  0  0  0  0  0  0  0  0  0  0  0
   -2.9349   20.3698  -27.4358 H   0  0  0  0  0  0  0  0  0  0  0  0
   -3.8709   21.5782  -28.3897 H   0  0  0  0  0  0  0  0  0  0  0  0
   -1.8890   22.0170  -29.6700 H   0  0  0  0  0  0  0  0  0  0  0  0
   -0.5794   19.5696  -28.8371 H   0  0  0  0  0  0  0  0  0  0  0  0
    0.0883   21.1800  -29.4095 H   0  0  0  0  0  0  0  0  0  0  0  0
   -0.5125   20.2238  -26.6272 H   0  0  0  0  0  0  0  0  0  0  0  0
    0.8533   21.2231  -27.2735 H   0  0  0  0  0  0  0  0  0  0  0  0
   -5.1029   25.8349  -29.1886 H   0  0  0  0  0  0  0  0  0  0  0  0
   -7.1054   24.8663  -30.3142 H   0  0  0  0  0  0  0  0  0  0  0  0
  1  2  1  0
  2  3  2  0
  3  4  1  0
  4  5  2  0
  5  6  1  0
  6  7  1  0
  7  8  2  0
  7  9  1  0
  9 10  1  0
 10 11  2  0
 11 12  1  0
 12 13  2  0
 13 14  1  0
 14 15  2  0
 15 16  1  0
 16 17  2  0
 16 18  1  0
 18 19  1  0
 19 20  1  0
 20 21  1  0
 21 22  1  0
 22 23  1  0
  5 24  1  0
 24 25  2  0
 25  2  1  0
 15 10  1  0
 23 18  1  0
  1 26  1  0
  1 27  1  0
  1 28  1  0
  3 29  1  0
  4 30  1  0
  6 31  1  0
 11 32  1  0
 12 33  1  0
 13 34  1  0
 14 35  1  0
 19 36  1  0
 19 37  1  0
 20 38  1  0
 20 39  1  0
 21 40  1  0
 22 41  1  0
 22 42  1  0
 23 43  1  0
 23 44  1  0
 24 45  1  0
 25 46  1  0
M  CHG  1   9  -1
M  END
>  <UniqueID>  (50) 
48

>  <SMILES>  (50) 
Cc1ccc(NC(=O)[N-]c2ccccc2C(=O)N2CCNCC2)cc1

>  <Energy>  (50) 
63.84987948941314

>  <Genealogy>  (50) 
Cc1ccc(NC(=O)[N-]c2ccccc2C(=O)N2CCNCC2)cc1 (protonated)
Cc1ccc(NC(=O)[N-]c2ccccc2C(=O)N2CCNCC2)cc1 (3D coordinates assigned)
Cc1ccc(NC(=O)[N-]c2ccccc2C(=O)N2CCNCC2)cc1 (nonaromatic ring conformer: 63.84987948941314 kcal/mol)

>  <smiles>  (50) 
Cc1ccc(NC(=O)Nc2ccccc2C(=O)N2CCNCC2)cc1

>  <score_type>  (50) 
oracle

>  <origin>  (50) 
adgpu

>  <m_score__min__energy>  (50) 
-10.16

>  <m_primary>  (50) 
energy

$$$$
