0:0
     RDKit          3D

 37 39  0  0  0  0  0  0  0  0999 V2000
   -3.8200   17.5260  -34.6010 C   0  0  0  0  0  0  0  0  0  0  0  0
   -4.7930   17.8200  -33.4530 C   0  0  2  0  0  0  0  0  0  0  0  0
   -6.2430   17.4790  -33.8690 C   0  0  0  0  0  0  0  0  0  0  0  0
   -7.2470   18.3230  -33.0780 C   0  0  0  0  0  0  0  0  0  0  0  0
   -7.0970   19.7690  -33.3750 N   0  0  1  0  0  0  0  0  0  0  0  0
   -7.8230   20.7100  -32.0930 S   0  0  0  0  0  0  0  0  0  0  0  0
   -7.9520   19.8700  -30.8510 O   0  0  0  0  0  0  0  0  0  0  0  0
   -9.1940   21.1680  -32.5070 O   0  0  0  0  0  0  0  0  0  0  0  0
   -6.8330   22.1290  -31.7610 C   0  0  0  0  0  0  0  0  0  0  0  0
   -7.2140   23.4040  -32.2460 C   0  0  0  0  0  0  0  0  0  0  0  0
   -6.4310   24.5390  -31.9670 C   0  0  0  0  0  0  0  0  0  0  0  0
   -5.2800   24.3680  -31.2010 C   0  0  0  0  0  0  0  0  0  0  0  0
   -4.4110   25.3260  -30.8300 N   0  0  0  0  0  0  0  0  0  0  0  0
   -3.4830   24.6560  -30.1070 C   0  0  0  0  0  0  0  0  0  0  0  0
   -2.3860   25.2770  -29.5250 O   0  0  0  0  0  0  0  0  0  0  0  0
   -3.7500   23.2970  -30.0160 C   0  0  0  0  0  0  0  0  0  0  0  0
   -4.9120   23.1350  -30.7290 C   0  0  0  0  0  0  0  0  0  0  0  0
   -5.6630   21.9910  -30.9860 C   0  0  0  0  0  0  0  0  0  0  0  0
   -5.6940   20.2000  -33.6250 C   0  0  0  0  0  0  0  0  0  0  0  0
   -4.6580   19.2820  -32.9590 C   0  0  0  0  0  0  0  0  0  0  0  0
   -2.8440   17.2311  -34.1880 H   0  0  0  0  0  0  0  0  0  0  0  0
   -4.2187   16.7082  -35.2193 H   0  0  0  0  0  0  0  0  0  0  0  0
   -3.6992   18.4277  -35.2193 H   0  0  0  0  0  0  0  0  0  0  0  0
   -4.5304   17.1733  -32.6028 H   0  0  0  0  0  0  0  0  0  0  0  0
   -6.3676   17.6822  -34.9429 H   0  0  0  0  0  0  0  0  0  0  0  0
   -6.4306   16.4161  -33.6569 H   0  0  0  0  0  0  0  0  0  0  0  0
   -8.2667   18.0076  -33.3441 H   0  0  0  0  0  0  0  0  0  0  0  0
   -7.0563   18.1700  -32.0055 H   0  0  0  0  0  0  0  0  0  0  0  0
   -7.6500   19.9740  -34.2410 H   0  0  0  0  0  0  0  0  0  0  0  0
   -8.1301   23.5077  -32.8460 H   0  0  0  0  0  0  0  0  0  0  0  0
   -6.7190   25.5320  -32.3425 H   0  0  0  0  0  0  0  0  0  0  0  0
   -3.1648   22.5265  -29.4927 H   0  0  0  0  0  0  0  0  0  0  0  0
   -5.3532   21.0100  -30.5966 H   0  0  0  0  0  0  0  0  0  0  0  0
   -5.5155   20.2011  -34.7104 H   0  0  0  0  0  0  0  0  0  0  0  0
   -5.5745   21.2028  -33.1890 H   0  0  0  0  0  0  0  0  0  0  0  0
   -3.6491   19.6486  -33.1991 H   0  0  0  0  0  0  0  0  0  0  0  0
   -4.8321   19.2965  -31.8730 H   0  0  0  0  0  0  0  0  0  0  0  0
  1  2  1  0
  2  3  1  0
  3  4  1  0
  4  5  1  0
  5  6  1  0
  6  7  2  0
  6  8  2  0
  6  9  1  0
  9 10  2  0
 10 11  1  0
 11 12  2  0
 12 13  1  0
 13 14  1  0
 14 15  1  0
 14 16  2  0
 16 17  1  0
 17 18  2  0
  5 19  1  0
 19 20  1  0
 20  2  1  0
 18  9  1  0
 17 12  1  0
  1 21  1  0
  1 22  1  0
  1 23  1  0
  2 24  1  1
  3 25  1  0
  3 26  1  0
  4 27  1  0
  4 28  1  0
  5 29  1  6
 10 30  1  0
 11 31  1  0
 16 32  1  0
 18 33  1  0
 19 34  1  0
 19 35  1  0
 20 36  1  0
 20 37  1  0
M  CHG  3   5   1  13  -1  15  -1
M  END
>  <UniqueID>  (1) 
1

>  <SMILES>  (1) 
CC1CC[NH+](S(=O)(=O)c2ccc3[n-]c([O-])cc3c2)CC1

>  <Energy>  (1) 
74.27682313692027

>  <Genealogy>  (1) 
CC1CC[NH+](S(=O)(=O)c2ccc3[n-]c([O-])cc3c2)CC1 (protonated)
CC1CC[NH+](S(=O)(=O)c2ccc3[n-]c([O-])cc3c2)CC1 (3D coordinates assigned)
CC1CC[NH+](S(=O)(=O)c2ccc3[n-]c([O-])cc3c2)CC1 (nonaromatic ring conformer: 74.27682313692027 kcal/mol)

>  <smiles>  (1) 
CC1CCN(S(=O)(=O)c2ccc3[nH]c(O)cc3c2)CC1

>  <score_type>  (1) 
oracle

>  <origin>  (1) 
adgpu

>  <m_score__min__energy>  (1) 
-12.48

>  <m_primary>  (1) 
energy

$$$$
1:0
     RDKit          3D

 60 63  0  0  0  0  0  0  0  0999 V2000
   -6.1120   25.9720  -29.3460 N   0  0  0  0  0  0  0  0  0  0  0  0
   -5.8390   24.8060  -30.1330 C   0  0  0  0  0  0  0  0  0  0  0  0
   -6.8810   24.1930  -30.8390 C   0  0  0  0  0  0  0  0  0  0  0  0
   -6.6400   23.0550  -31.6110 C   0  0  0  0  0  0  0  0  0  0  0  0
   -5.3470   22.5240  -31.7020 C   0  0  0  0  0  0  0  0  0  0  0  0
   -5.0400   21.0840  -32.6710 S   0  0  0  0  0  0  0  0  0  0  0  0
   -4.1420   21.4500  -33.8220 O   0  0  0  0  0  0  0  0  0  0  0  0
   -4.3290   20.0630  -31.8270 O   0  0  0  0  0  0  0  0  0  0  0  0
   -6.5750   20.4660  -33.2600 N   0  0  0  0  0  0  0  0  0  0  0  0
   -7.5270   20.1500  -32.1640 C   0  0  0  0  0  0  0  0  0  0  0  0
   -7.7860   18.6420  -31.9700 C   0  0  0  0  0  0  0  0  0  0  0  0
   -6.5070   17.8310  -32.1790 C   0  0  0  0  0  0  0  0  0  0  0  0
   -5.8960   18.0720  -33.5740 C   0  0  0  0  0  0  0  0  0  0  0  0
   -6.4010   19.3700  -34.2340 C   0  0  0  0  0  0  0  0  0  0  0  0
   -4.3010   23.1340  -31.0010 C   0  0  0  0  0  0  0  0  0  0  0  0
   -4.5410   24.2580  -30.1890 C   0  0  0  0  0  0  0  0  0  0  0  0
   -3.4740   24.8850  -29.4610 N   0  0  0  0  0  0  0  0  0  0  0  0
   -3.0240   24.5340  -28.1450 C   0  0  0  0  0  0  0  0  0  0  0  0
   -3.6570   24.9370  -27.1320 O   0  0  0  0  0  0  0  0  0  0  0  0
   -1.7810   23.7440  -27.9710 C   0  0  0  0  0  0  0  0  0  0  0  0
   -0.7120   24.2580  -27.2220 C   0  0  0  0  0  0  0  0  0  0  0  0
    0.4620   23.5210  -27.0660 C   0  0  0  0  0  0  0  0  0  0  0  0
    0.5970   22.2540  -27.6490 C   0  0  0  0  0  0  0  0  0  0  0  0
    1.8330   21.5480  -27.4810 N   0  0  0  0  0  0  0  0  0  0  0  0
   -0.4830   21.7140  -28.3900 C   0  0  0  0  0  0  0  0  0  0  0  0
   -0.3990   20.1060  -29.1270 S   0  0  0  0  0  0  0  0  0  0  0  0
    0.9910   19.5410  -29.0090 O   0  0  0  0  0  0  0  0  0  0  0  0
   -1.3510   19.1990  -28.3980 O   0  0  0  0  0  0  0  0  0  0  0  0
   -0.8110   20.1870  -30.8400 C   0  0  0  0  0  0  0  0  0  0  0  0
   -0.9460   19.0080  -31.5880 C   0  0  0  0  0  0  0  0  0  0  0  0
   -1.2460   19.0730  -32.9540 C   0  0  0  0  0  0  0  0  0  0  0  0
   -1.4150   20.3140  -33.5760 C   0  0  0  0  0  0  0  0  0  0  0  0
   -1.2910   21.4920  -32.8300 C   0  0  0  0  0  0  0  0  0  0  0  0
   -0.9920   21.4300  -31.4640 C   0  0  0  0  0  0  0  0  0  0  0  0
   -1.6550   22.4680  -28.5470 C   0  0  0  0  0  0  0  0  0  0  0  0
   -5.5990   26.1420  -28.4540 H   0  0  0  0  0  0  0  0  0  0  0  0
   -6.8450   26.6640  -29.6250 H   0  0  0  0  0  0  0  0  0  0  0  0
   -7.8970   24.6110  -30.7851 H   0  0  0  0  0  0  0  0  0  0  0  0
   -7.4690   22.5733  -32.1501 H   0  0  0  0  0  0  0  0  0  0  0  0
   -7.1197   20.5541  -31.2255 H   0  0  0  0  0  0  0  0  0  0  0  0
   -8.4901   20.6043  -32.4397 H   0  0  0  0  0  0  0  0  0  0  0  0
   -8.1573   18.4700  -30.9490 H   0  0  0  0  0  0  0  0  0  0  0  0
   -8.5299   18.3176  -32.7125 H   0  0  0  0  0  0  0  0  0  0  0  0
   -5.7723   18.1218  -31.4137 H   0  0  0  0  0  0  0  0  0  0  0  0
   -6.7623   16.7641  -32.0979 H   0  0  0  0  0  0  0  0  0  0  0  0
   -4.8024   18.1324  -33.4725 H   0  0  0  0  0  0  0  0  0  0  0  0
   -6.2018   17.2339  -34.2175 H   0  0  0  0  0  0  0  0  0  0  0  0
   -5.6722   19.6860  -34.9949 H   0  0  0  0  0  0  0  0  0  0  0  0
   -7.3839   19.1588  -34.6803 H   0  0  0  0  0  0  0  0  0  0  0  0
   -3.2810   22.7310  -31.0854 H   0  0  0  0  0  0  0  0  0  0  0  0
   -0.8002   25.2497  -26.7542 H   0  0  0  0  0  0  0  0  0  0  0  0
    1.2921   23.9396  -26.4780 H   0  0  0  0  0  0  0  0  0  0  0  0
    1.8340   20.5150  -27.3380 H   0  0  0  0  0  0  0  0  0  0  0  0
    2.7580   22.0290  -27.4580 H   0  0  0  0  0  0  0  0  0  0  0  0
   -0.8159   18.0306  -31.1004 H   0  0  0  0  0  0  0  0  0  0  0  0
   -1.3489   18.1469  -33.5386 H   0  0  0  0  0  0  0  0  0  0  0  0
   -1.6452   20.3645  -34.6505 H   0  0  0  0  0  0  0  0  0  0  0  0
   -1.4288   22.4681  -33.3181 H   0  0  0  0  0  0  0  0  0  0  0  0
   -0.8989   22.3571  -30.8793 H   0  0  0  0  0  0  0  0  0  0  0  0
   -2.4901   22.0537  -29.1310 H   0  0  0  0  0  0  0  0  0  0  0  0
  1  2  1  0
  2  3  2  0
  3  4  1  0
  4  5  2  0
  5  6  1  0
  6  7  2  0
  6  8  2  0
  6  9  1  0
  9 10  1  0
 10 11  1  0
 11 12  1  0
 12 13  1  0
 13 14  1  0
  5 15  1  0
 15 16  2  0
 16 17  1  0
 17 18  1  0
 18 19  2  0
 18 20  1  0
 20 21  2  0
 21 22  1  0
 22 23  2  0
 23 24  1  0
 23 25  1  0
 25 26  1  0
 26 27  2  0
 26 28  2  0
 26 29  1  0
 29 30  2  0
 30 31  1  0
 31 32  2  0
 32 33  1  0
 33 34  2  0
 25 35  2  0
 16  2  1  0
 35 20  1  0
 14  9  1  0
 34 29  1  0
  1 36  1  0
  1 37  1  0
  3 38  1  0
  4 39  1  0
 10 40  1  0
 10 41  1  0
 11 42  1  0
 11 43  1  0
 12 44  1  0
 12 45  1  0
 13 46  1  0
 13 47  1  0
 14 48  1  0
 14 49  1  0
 15 50  1  0
 21 51  1  0
 22 52  1  0
 24 53  1  0
 24 54  1  0
 30 55  1  0
 31 56  1  0
 32 57  1  0
 33 58  1  0
 34 59  1  0
 35 60  1  0
M  CHG  1  17  -1
M  END
>  <UniqueID>  (2) 
2

>  <SMILES>  (2) 
Nc1ccc(S(=O)(=O)N2CCCCC2)cc1[N-]C(=O)c1ccc(N)c(S(=O)(=O)c2ccccc2)c1

>  <Energy>  (2) 
79.39269197392046

>  <Genealogy>  (2) 
Nc1ccc(S(=O)(=O)N2CCCCC2)cc1[N-]C(=O)c1ccc(N)c(S(=O)(=O)c2ccccc2)c1 (protonated)
Nc1ccc(S(=O)(=O)N2CCCCC2)cc1[N-]C(=O)c1ccc(N)c(S(=O)(=O)c2ccccc2)c1 (3D coordinates assigned)
Nc1ccc(S(=O)(=O)N2CCCCC2)cc1[N-]C(=O)c1ccc(N)c(S(=O)(=O)c2ccccc2)c1 (nonaromatic ring conformer: 79.39269197392046 kcal/mol)

>  <smiles>  (2) 
Nc1ccc(S(=O)(=O)N2CCCCC2)cc1NC(=O)c1ccc(N)c(S(=O)(=O)c2ccccc2)c1

>  <score_type>  (2) 
oracle

>  <origin>  (2) 
adgpu

>  <m_score__min__energy>  (2) 
-11.75

>  <m_primary>  (2) 
energy

$$$$
2:0
     RDKit          3D

 48 50  0  0  0  0  0  0  0  0999 V2000
    0.5990   19.6990  -31.5030 C   0  0  0  0  0  0  0  0  0  0  0  0
   -0.6840   19.5800  -30.6850 C   0  0  0  0  0  0  0  0  0  0  0  0
   -1.5880   20.6970  -30.9780 N   0  0  0  0  0  0  0  0  0  0  0  0
   -1.8980   21.6780  -29.9700 C   0  0  0  0  0  0  0  0  0  0  0  0
   -1.9730   21.3030  -28.6210 C   0  0  0  0  0  0  0  0  0  0  0  0
   -2.2650   22.2520  -27.6390 C   0  0  0  0  0  0  0  0  0  0  0  0
   -2.4960   23.5910  -27.9890 C   0  0  0  0  0  0  0  0  0  0  0  0
   -2.7850   24.5910  -26.9380 C   0  0  0  0  0  0  0  0  0  0  0  0
   -3.9790   24.9570  -26.7610 O   0  0  0  0  0  0  0  0  0  0  0  0
   -1.7390   25.1530  -26.1180 N   0  0  0  0  0  0  0  0  0  0  0  0
   -0.5020   24.4040  -25.8720 C   0  0  0  0  0  0  0  0  0  0  0  0
   -1.9800   26.4210  -25.4260 C   0  0  0  0  0  0  0  0  0  0  0  0
   -2.4040   23.9730  -29.3400 C   0  0  0  0  0  0  0  0  0  0  0  0
   -2.6200   25.2940  -29.7200 O   0  0  0  0  0  0  0  0  0  0  0  0
   -2.1090   23.0200  -30.3210 C   0  0  0  0  0  0  0  0  0  0  0  0
   -2.3240   20.8130  -32.5500 S   0  0  0  0  0  0  0  0  0  0  0  0
   -1.6750   21.9230  -33.3310 O   0  0  0  0  0  0  0  0  0  0  0  0
   -2.1150   19.5300  -33.3060 O   0  0  0  0  0  0  0  0  0  0  0  0
   -4.0490   21.1220  -32.3770 C   0  0  0  0  0  0  0  0  0  0  0  0
   -4.5040   22.4350  -32.1940 C   0  0  0  0  0  0  0  0  0  0  0  0
   -5.8720   22.7000  -32.0760 C   0  0  0  0  0  0  0  0  0  0  0  0
   -6.7960   21.6520  -32.1410 C   0  0  0  0  0  0  0  0  0  0  0  0
   -8.1280   21.9080  -32.0280 N   0  0  0  0  0  0  0  0  0  0  0  0
   -9.0540   20.9140  -32.0880 C   0  0  0  0  0  0  0  0  0  0  0  0
  -10.2770   21.1910  -31.9800 O   0  0  0  0  0  0  0  0  0  0  0  0
   -8.6490   19.5870  -32.2690 C   0  0  0  0  0  0  0  0  0  0  0  0
   -7.2900   19.2930  -32.3880 C   0  0  0  0  0  0  0  0  0  0  0  0
   -6.3450   20.3260  -32.3240 C   0  0  0  0  0  0  0  0  0  0  0  0
   -4.9720   20.0670  -32.4410 C   0  0  0  0  0  0  0  0  0  0  0  0
    1.4607   19.7789  -30.8240 H   0  0  0  0  0  0  0  0  0  0  0  0
    0.7134   18.8076  -32.1373 H   0  0  0  0  0  0  0  0  0  0  0  0
    0.5476   20.5962  -32.1373 H   0  0  0  0  0  0  0  0  0  0  0  0
   -1.1858   18.6336  -30.9351 H   0  0  0  0  0  0  0  0  0  0  0  0
   -0.4265   19.6030  -29.6158 H   0  0  0  0  0  0  0  0  0  0  0  0
   -1.8008   20.2550  -28.3345 H   0  0  0  0  0  0  0  0  0  0  0  0
   -2.3143   21.9475  -26.5831 H   0  0  0  0  0  0  0  0  0  0  0  0
   -0.3416   24.3069  -24.7881 H   0  0  0  0  0  0  0  0  0  0  0  0
   -0.5836   23.4034  -26.3217 H   0  0  0  0  0  0  0  0  0  0  0  0
    0.3468   24.9400  -26.3217 H   0  0  0  0  0  0  0  0  0  0  0  0
   -1.9488   26.2570  -24.3387 H   0  0  0  0  0  0  0  0  0  0  0  0
   -1.2037   27.1469  -25.7098 H   0  0  0  0  0  0  0  0  0  0  0  0
   -2.9684   26.8115  -25.7098 H   0  0  0  0  0  0  0  0  0  0  0  0
   -2.0420   23.3252  -31.3757 H   0  0  0  0  0  0  0  0  0  0  0  0
   -3.7806   23.2621  -32.1429 H   0  0  0  0  0  0  0  0  0  0  0  0
   -6.2215   23.7330  -31.9320 H   0  0  0  0  0  0  0  0  0  0  0  0
   -9.3964   18.7813  -32.3171 H   0  0  0  0  0  0  0  0  0  0  0  0
   -6.9613   18.2531  -32.5317 H   0  0  0  0  0  0  0  0  0  0  0  0
   -4.6179   19.0353  -32.5832 H   0  0  0  0  0  0  0  0  0  0  0  0
  1  2  1  0
  2  3  1  0
  3  4  1  0
  4  5  2  0
  5  6  1  0
  6  7  2  0
  7  8  1  0
  8  9  2  0
  8 10  1  0
 10 11  1  0
 10 12  1  0
  7 13  1  0
 13 14  1  0
 13 15  2  0
  3 16  1  0
 16 17  2  0
 16 18  2  0
 16 19  1  0
 19 20  2  0
 20 21  1  0
 21 22  2  0
 22 23  1  0
 23 24  1  0
 24 25  2  0
 24 26  1  0
 26 27  2  0
 27 28  1  0
 28 29  2  0
 15  4  1  0
 29 19  1  0
 28 22  1  0
  1 30  1  0
  1 31  1  0
  1 32  1  0
  2 33  1  0
  2 34  1  0
  5 35  1  0
  6 36  1  0
 11 37  1  0
 11 38  1  0
 11 39  1  0
 12 40  1  0
 12 41  1  0
 12 42  1  0
 15 43  1  0
 20 44  1  0
 21 45  1  0
 26 46  1  0
 27 47  1  0
 29 48  1  0
M  CHG  2  14  -1  23  -1
M  END
>  <UniqueID>  (3) 
3

>  <SMILES>  (3) 
CCN(c1ccc(C(=O)N(C)C)c([O-])c1)S(=O)(=O)c1ccc2[n-]c(=O)ccc2c1

>  <Energy>  (3) 
58.7772558650286

>  <Genealogy>  (3) 
CCN(c1ccc(C(=O)N(C)C)c([O-])c1)S(=O)(=O)c1ccc2[n-]c(=O)ccc2c1 (protonated)
CCN(c1ccc(C(=O)N(C)C)c([O-])c1)S(=O)(=O)c1ccc2[n-]c(=O)ccc2c1 (3D coordinates assigned)
CCN(c1ccc(C(=O)N(C)C)c([O-])c1)S(=O)(=O)c1ccc2[n-]c(=O)ccc2c1 (optimized conformer: 58.7772558650286 kcal/mol)

>  <smiles>  (3) 
CCN(c1ccc(C(=O)N(C)C)c(O)c1)S(=O)(=O)c1ccc2[nH]c(=O)ccc2c1

>  <score_type>  (3) 
oracle

>  <origin>  (3) 
adgpu

>  <m_score__min__energy>  (3) 
-11.84

>  <m_primary>  (3) 
energy

$$$$
3:0
     RDKit          3D

 38 40  0  0  0  0  0  0  0  0999 V2000
   -2.7640   24.4460  -28.3610 C   0  0  0  0  0  0  0  0  0  0  0  0
   -3.7690   24.1810  -29.4330 C   0  0  0  0  0  0  0  0  0  0  0  0
   -4.7500   23.2140  -29.4000 C   0  0  0  0  0  0  0  0  0  0  0  0
   -5.4500   23.4240  -30.5750 C   0  0  0  0  0  0  0  0  0  0  0  0
   -6.6210   22.6670  -31.0750 C   0  0  0  0  0  0  0  0  0  0  0  0
   -7.8050   23.3530  -31.3940 C   0  0  0  0  0  0  0  0  0  0  0  0
   -8.9180   22.6580  -31.8760 C   0  0  0  0  0  0  0  0  0  0  0  0
   -8.8610   21.2740  -32.0450 C   0  0  0  0  0  0  0  0  0  0  0  0
   -7.6920   20.5730  -31.7250 C   0  0  0  0  0  0  0  0  0  0  0  0
   -7.6200   18.8290  -31.9670 S   0  0  0  0  0  0  0  0  0  0  0  0
   -9.0170   18.2750  -31.9720 O   0  0  0  0  0  0  0  0  0  0  0  0
   -6.8600   18.1830  -30.8420 O   0  0  0  0  0  0  0  0  0  0  0  0
   -6.8550   18.4590  -33.4810 N   0  0  0  0  0  0  0  0  0  0  0  0
   -6.2580   19.6710  -34.0460 C   0  0  0  0  0  0  0  0  0  0  0  0
   -4.8270   19.7840  -33.6000 C   0  0  0  0  0  0  0  0  0  0  0  0
   -4.2570   21.0430  -33.3560 C   0  0  0  0  0  0  0  0  0  0  0  0
   -2.9150   21.1290  -32.9760 C   0  0  0  0  0  0  0  0  0  0  0  0
   -2.1670   19.9990  -32.8550 N   0  0  0  0  0  0  0  0  0  0  0  0
   -2.6910   18.7680  -33.0990 C   0  0  0  0  0  0  0  0  0  0  0  0
   -4.0280   18.6380  -33.4810 C   0  0  0  0  0  0  0  0  0  0  0  0
   -6.5720   21.2710  -31.2460 C   0  0  0  0  0  0  0  0  0  0  0  0
   -4.9070   24.4400  -31.2070 O   0  0  0  0  0  0  0  0  0  0  0  0
   -3.8970   24.9260  -30.5470 N   0  0  0  0  0  0  0  0  0  0  0  0
   -3.2372   24.3212  -27.3758 H   0  0  0  0  0  0  0  0  0  0  0  0
   -1.9282   23.7375  -28.4587 H   0  0  0  0  0  0  0  0  0  0  0  0
   -2.3862   25.4745  -28.4587 H   0  0  0  0  0  0  0  0  0  0  0  0
   -4.9331   22.4558  -28.6244 H   0  0  0  0  0  0  0  0  0  0  0  0
   -7.8564   24.4440  -31.2636 H   0  0  0  0  0  0  0  0  0  0  0  0
   -9.8409   23.2034  -32.1226 H   0  0  0  0  0  0  0  0  0  0  0  0
   -9.7371   20.7321  -32.4308 H   0  0  0  0  0  0  0  0  0  0  0  0
   -7.6090   18.1350  -34.1300 H   0  0  0  0  0  0  0  0  0  0  0  0
   -6.2961   19.6201  -35.1442 H   0  0  0  0  0  0  0  0  0  0  0  0
   -6.8193   20.5507  -33.6982 H   0  0  0  0  0  0  0  0  0  0  0  0
   -4.8621   21.9553  -33.4631 H   0  0  0  0  0  0  0  0  0  0  0  0
   -2.4629   22.1113  -32.7745 H   0  0  0  0  0  0  0  0  0  0  0  0
   -2.0604   17.8727  -32.9952 H   0  0  0  0  0  0  0  0  0  0  0  0
   -4.4512   17.6438  -33.6870 H   0  0  0  0  0  0  0  0  0  0  0  0
   -5.6498   20.7229  -31.0027 H   0  0  0  0  0  0  0  0  0  0  0  0
  1  2  1  0
  2  3  1  0
  3  4  2  0
  4  5  1  0
  5  6  2  0
  6  7  1  0
  7  8  2  0
  8  9  1  0
  9 10  1  0
 10 11  2  0
 10 12  2  0
 10 13  1  0
 13 14  1  0
 14 15  1  0
 15 16  2  0
 16 17  1  0
 17 18  2  0
 18 19  1  0
 19 20  2  0
  9 21  2  0
  4 22  1  0
 22 23  1  0
 23  2  2  0
 21  5  1  0
 20 15  1  0
  1 24  1  0
  1 25  1  0
  1 26  1  0
  3 27  1  0
  6 28  1  0
  7 29  1  0
  8 30  1  0
 13 31  1  0
 14 32  1  0
 14 33  1  0
 16 34  1  0
 17 35  1  0
 19 36  1  0
 20 37  1  0
 21 38  1  0
M  END
>  <UniqueID>  (4) 
4

>  <SMILES>  (4) 
Cc1cc(-c2cccc(S(=O)(=O)NCc3ccncc3)c2)on1

>  <Energy>  (4) 
67.80404902805195

>  <Genealogy>  (4) 
Cc1cc(-c2cccc(S(=O)(=O)NCc3ccncc3)c2)on1 (3D coordinates assigned)
Cc1cc(-c2cccc(S(=O)(=O)NCc3ccncc3)c2)on1 (optimized conformer: 67.80404902805195 kcal/mol)

>  <smiles>  (4) 
Cc1cc(-c2cccc(S(=O)(=O)NCc3ccncc3)c2)on1

>  <score_type>  (4) 
oracle

>  <origin>  (4) 
adgpu

>  <m_score__min__energy>  (4) 
-9.5399999999999991

>  <m_primary>  (4) 
energy

$$$$
4:0
     RDKit          3D

 64 69  0  0  0  0  0  0  0  0999 V2000
    0.2730   17.3770  -27.7720 C   0  0  0  0  0  0  0  0  0  0  0  0
   -0.1740   18.6830  -28.3600 C   0  0  0  0  0  0  0  0  0  0  0  0
   -0.5100   19.7530  -27.5240 C   0  0  0  0  0  0  0  0  0  0  0  0
   -0.8920   20.9790  -28.0690 C   0  0  0  0  0  0  0  0  0  0  0  0
   -0.9350   21.1630  -29.4590 C   0  0  0  0  0  0  0  0  0  0  0  0
   -1.5290   22.7090  -30.0870 S   0  0  0  0  0  0  0  0  0  0  0  0
   -0.5100   23.7840  -29.8330 O   0  0  0  0  0  0  0  0  0  0  0  0
   -1.7830   22.6070  -31.5660 O   0  0  0  0  0  0  0  0  0  0  0  0
   -3.0100   23.1420  -29.3020 N   0  0  0  0  0  0  0  0  0  0  0  0
   -4.2300   23.2310  -30.0360 C   0  0  0  0  0  0  0  0  0  0  0  0
   -4.9600   22.0570  -30.2980 C   0  0  0  0  0  0  0  0  0  0  0  0
   -6.1380   22.1600  -31.0320 C   0  0  0  0  0  0  0  0  0  0  0  0
   -6.6050   23.3740  -31.4960 C   0  0  0  0  0  0  0  0  0  0  0  0
   -5.9050   24.5520  -31.2360 C   0  0  0  0  0  0  0  0  0  0  0  0
   -4.7090   24.4850  -30.4970 C   0  0  0  0  0  0  0  0  0  0  0  0
   -4.0210   25.6680  -30.2280 O   0  0  0  0  0  0  0  0  0  0  0  0
   -7.8940   23.2190  -32.2500 C   0  0  0  0  0  0  0  0  0  0  0  0
   -8.0940   21.7340  -32.1480 C   0  0  0  0  0  0  0  0  0  0  0  0
   -9.1470   20.9770  -32.6640 C   0  0  0  0  0  0  0  0  0  0  0  0
   -9.1430   19.5880  -32.4530 C   0  0  0  0  0  0  0  0  0  0  0  0
   -8.0950   18.9790  -31.7340 C   0  0  0  0  0  0  0  0  0  0  0  0
   -7.0420   19.7540  -31.2200 C   0  0  0  0  0  0  0  0  0  0  0  0
   -7.0700   21.1320  -31.4420 C   0  0  0  0  0  0  0  0  0  0  0  0
   -0.5430   20.1020  -30.3110 C   0  0  0  0  0  0  0  0  0  0  0  0
   -0.4750   20.2460  -31.7820 C   0  0  0  0  0  0  0  0  0  0  0  0
    0.1690   21.2080  -32.2820 O   0  0  0  0  0  0  0  0  0  0  0  0
   -1.1110   19.2850  -32.6470 N   0  0  0  0  0  0  0  0  0  0  0  0
   -0.3560   18.1220  -33.1230 C   0  0  0  0  0  0  0  0  0  0  0  0
   -1.1660   16.8500  -32.8840 C   0  0  0  0  0  0  0  0  0  0  0  0
   -2.5090   16.9660  -33.4730 N   0  0  0  0  0  0  0  0  0  0  0  0
   -3.1650   15.7530  -33.9780 C   0  0  0  0  0  0  0  0  0  0  0  0
   -3.1970   18.2410  -33.4480 C   0  0  0  0  0  0  0  0  0  0  0  0
   -4.5440   18.3630  -33.8520 C   0  0  0  0  0  0  0  0  0  0  0  0
   -5.1820   19.6040  -33.8310 C   0  0  0  0  0  0  0  0  0  0  0  0
   -4.4890   20.7420  -33.4220 C   0  0  0  0  0  0  0  0  0  0  0  0
   -3.1540   20.6440  -33.0290 C   0  0  0  0  0  0  0  0  0  0  0  0
   -2.5010   19.3970  -33.0220 C   0  0  0  0  0  0  0  0  0  0  0  0
   -0.1740   18.8670  -29.7490 C   0  0  0  0  0  0  0  0  0  0  0  0
    0.2506   17.4424  -26.6742 H   0  0  0  0  0  0  0  0  0  0  0  0
   -0.4017   16.5747  -28.1054 H   0  0  0  0  0  0  0  0  0  0  0  0
    1.2978   17.1564  -28.1054 H   0  0  0  0  0  0  0  0  0  0  0  0
   -0.4728   19.6271  -26.4319 H   0  0  0  0  0  0  0  0  0  0  0  0
   -1.1624   21.8105  -27.4015 H   0  0  0  0  0  0  0  0  0  0  0  0
   -4.6081   21.0813  -29.9315 H   0  0  0  0  0  0  0  0  0  0  0  0
   -6.2817   25.5182  -31.6027 H   0  0  0  0  0  0  0  0  0  0  0  0
   -3.1140   25.6760  -29.7790 H   0  0  0  0  0  0  0  0  0  0  0  0
   -8.7142   23.7731  -31.7703 H   0  0  0  0  0  0  0  0  0  0  0  0
   -7.8733   23.6091  -33.2783 H   0  0  0  0  0  0  0  0  0  0  0  0
   -9.9627   21.4577  -33.2240 H   0  0  0  0  0  0  0  0  0  0  0  0
   -9.9628   18.9721  -32.8514 H   0  0  0  0  0  0  0  0  0  0  0  0
   -8.1015   17.8907  -31.5744 H   0  0  0  0  0  0  0  0  0  0  0  0
   -6.2187   19.2882  -30.6585 H   0  0  0  0  0  0  0  0  0  0  0  0
   -0.1559   18.2314  -34.1991 H   0  0  0  0  0  0  0  0  0  0  0  0
    0.5957   18.0563  -32.5753 H   0  0  0  0  0  0  0  0  0  0  0  0
   -0.6433   15.9982  -33.3435 H   0  0  0  0  0  0  0  0  0  0  0  0
   -1.2692   16.6969  -31.7996 H   0  0  0  0  0  0  0  0  0  0  0  0
   -3.4984   15.1365  -33.1302 H   0  0  0  0  0  0  0  0  0  0  0  0
   -4.0340   16.0342  -34.5910 H   0  0  0  0  0  0  0  0  0  0  0  0
   -2.4539   15.1797  -34.5910 H   0  0  0  0  0  0  0  0  0  0  0  0
   -5.0957   17.4720  -34.1863 H   0  0  0  0  0  0  0  0  0  0  0  0
   -6.2352   19.6843  -34.1382 H   0  0  0  0  0  0  0  0  0  0  0  0
   -4.9952   21.7185  -33.4091 H   0  0  0  0  0  0  0  0  0  0  0  0
   -2.6075   21.5480  -32.7223 H   0  0  0  0  0  0  0  0  0  0  0  0
    0.1181   18.0357  -30.4075 H   0  0  0  0  0  0  0  0  0  0  0  0
  1  2  1  0
  2  3  2  0
  3  4  1  0
  4  5  2  0
  5  6  1  0
  6  7  2  0
  6  8  2  0
  6  9  1  0
  9 10  1  0
 10 11  2  0
 11 12  1  0
 12 13  2  0
 13 14  1  0
 14 15  2  0
 15 16  1  0
 13 17  1  0
 17 18  1  0
 18 19  2  0
 19 20  1  0
 20 21  2  0
 21 22  1  0
 22 23  2  0
  5 24  1  0
 24 25  1  0
 25 26  2  0
 25 27  1  0
 27 28  1  0
 28 29  1  0
 29 30  1  0
 30 31  1  0
 30 32  1  0
 32 33  2  0
 33 34  1  0
 34 35  2  0
 35 36  1  0
 36 37  2  0
 24 38  2  0
 38  2  1  0
 15 10  1  0
 23 18  1  0
 37 27  1  0
 23 12  1  0
 37 32  1  0
  1 39  1  0
  1 40  1  0
  1 41  1  0
  3 42  1  0
  4 43  1  0
 11 44  1  0
 14 45  1  0
 16 46  1  0
 17 47  1  0
 17 48  1  0
 19 49  1  0
 20 50  1  0
 21 51  1  0
 22 52  1  0
 28 53  1  0
 28 54  1  0
 29 55  1  0
 29 56  1  0
 31 57  1  0
 31 58  1  0
 31 59  1  0
 33 60  1  0
 34 61  1  0
 35 62  1  0
 36 63  1  0
 38 64  1  0
M  CHG  1   9  -1
M  END
>  <UniqueID>  (5) 
5

>  <SMILES>  (5) 
Cc1ccc(S(=O)(=O)[N-]c2cc3c(cc2O)Cc2ccccc2-3)c(C(=O)N2CCN(C)c3ccccc32)c1

>  <Energy>  (5) 
115.48852367937249

>  <Genealogy>  (5) 
Cc1ccc(S(=O)(=O)[N-]c2cc3c(cc2O)Cc2ccccc2-3)c(C(=O)N2CCN(C)c3ccccc32)c1 (protonated)
Cc1ccc(S(=O)(=O)[N-]c2cc3c(cc2O)Cc2ccccc2-3)c(C(=O)N2CCN(C)c3ccccc32)c1 (3D coordinates assigned)
Cc1ccc(S(=O)(=O)[N-]c2cc3c(cc2O)Cc2ccccc2-3)c(C(=O)N2CCN(C)c3ccccc32)c1 (nonaromatic ring conformer: 115.48852367937249 kcal/mol)

>  <smiles>  (5) 
Cc1ccc(S(=O)(=O)Nc2cc3c(cc2O)Cc2ccccc2-3)c(C(=O)N2CCN(C)c3ccccc32)c1

>  <score_type>  (5) 
oracle

>  <origin>  (5) 
adgpu

>  <m_score__min__energy>  (5) 
-13.32

>  <m_primary>  (5) 
energy

$$$$
5:0
     RDKit          3D

 56 59  0  0  0  0  0  0  0  0999 V2000
   -1.6420   26.2020  -26.3540 C   0  0  0  0  0  0  0  0  0  0  0  0
   -1.6220   24.9500  -27.1770 C   0  0  0  0  0  0  0  0  0  0  0  0
   -2.6340   23.9950  -27.0320 C   0  0  0  0  0  0  0  0  0  0  0  0
   -2.6100   22.8200  -27.7880 C   0  0  0  0  0  0  0  0  0  0  0  0
   -1.5690   22.5810  -28.6970 C   0  0  0  0  0  0  0  0  0  0  0  0
   -1.5400   21.2920  -29.5010 C   0  0  1  0  0  0  0  0  0  0  0  0
   -0.9520   20.1530  -28.6560 C   0  0  0  0  0  0  0  0  0  0  0  0
   -2.8820   20.9300  -30.0010 N   0  0  0  0  0  0  0  0  0  0  0  0
   -2.8160   20.5360  -31.3800 C   0  0  0  0  0  0  0  0  0  0  0  0
   -3.4910   20.8880  -32.5290 C   0  0  0  0  0  0  0  0  0  0  0  0
   -4.4890   21.8580  -32.8490 N   0  0  0  0  0  0  0  0  0  0  0  0
   -4.8320   22.9150  -31.9440 C   0  0  0  0  0  0  0  0  0  0  0  0
   -3.8160   23.5640  -31.2280 C   0  0  0  0  0  0  0  0  0  0  0  0
   -4.1240   24.6340  -30.3820 C   0  0  0  0  0  0  0  0  0  0  0  0
   -3.1100   25.2960  -29.6940 O   0  0  0  0  0  0  0  0  0  0  0  0
   -5.4480   25.0500  -30.2360 C   0  0  0  0  0  0  0  0  0  0  0  0
   -6.4720   24.3880  -30.9180 C   0  0  0  0  0  0  0  0  0  0  0  0
   -6.1770   23.2940  -31.7530 C   0  0  0  0  0  0  0  0  0  0  0  0
   -7.1900   22.5900  -32.4260 O   0  0  0  0  0  0  0  0  0  0  0  0
   -7.4540   21.2180  -32.3140 C   0  0  0  0  0  0  0  0  0  0  0  0
   -8.4570   20.7990  -31.4340 C   0  0  0  0  0  0  0  0  0  0  0  0
   -8.7440   19.4390  -31.2880 C   0  0  0  0  0  0  0  0  0  0  0  0
   -8.0340   18.4890  -32.0300 C   0  0  0  0  0  0  0  0  0  0  0  0
   -7.0610   18.8970  -32.9580 C   0  0  0  0  0  0  0  0  0  0  0  0
   -6.2850   17.8960  -33.7710 C   0  0  0  0  0  0  0  0  0  0  0  0
   -6.0070   18.3800  -35.0390 F   0  0  0  0  0  0  0  0  0  0  0  0
   -5.0870   17.6050  -33.1360 F   0  0  0  0  0  0  0  0  0  0  0  0
   -7.0260   16.7320  -33.8900 F   0  0  0  0  0  0  0  0  0  0  0  0
   -6.7780   20.2640  -33.0940 C   0  0  0  0  0  0  0  0  0  0  0  0
   -2.7850   19.9340  -33.2380 C   0  0  0  0  0  0  0  0  0  0  0  0
   -2.7620   19.5420  -34.4330 O   0  0  0  0  0  0  0  0  0  0  0  0
   -2.1100   19.5830  -32.0880 C   0  0  0  0  0  0  0  0  0  0  0  0
   -1.2240   18.7370  -31.8000 O   0  0  0  0  0  0  0  0  0  0  0  0
   -0.5370   23.5300  -28.8180 C   0  0  0  0  0  0  0  0  0  0  0  0
   -0.5610   24.7010  -28.0580 C   0  0  0  0  0  0  0  0  0  0  0  0
   -1.6378   25.9388  -25.2860 H   0  0  0  0  0  0  0  0  0  0  0  0
   -0.7534   26.8075  -26.5859 H   0  0  0  0  0  0  0  0  0  0  0  0
   -2.5495   26.7788  -26.5859 H   0  0  0  0  0  0  0  0  0  0  0  0
   -3.4531   24.1700  -26.3190 H   0  0  0  0  0  0  0  0  0  0  0  0
   -3.4129   22.0776  -27.6694 H   0  0  0  0  0  0  0  0  0  0  0  0
   -0.8959   21.4560  -30.3775 H   0  0  0  0  0  0  0  0  0  0  0  0
   -1.0734   20.3882  -27.5883 H   0  0  0  0  0  0  0  0  0  0  0  0
   -1.4787   19.2154  -28.8871 H   0  0  0  0  0  0  0  0  0  0  0  0
    0.1174   20.0394  -28.8871 H   0  0  0  0  0  0  0  0  0  0  0  0
   -3.5480   21.7310  -29.9090 H   0  0  0  0  0  0  0  0  0  0  0  0
   -3.2560   20.1220  -29.4530 H   0  0  0  0  0  0  0  0  0  0  0  0
   -5.0820   21.7010  -33.6960 H   0  0  0  0  0  0  0  0  0  0  0  0
   -2.7730   23.2303  -31.3322 H   0  0  0  0  0  0  0  0  0  0  0  0
   -5.6862   25.9018  -29.5819 H   0  0  0  0  0  0  0  0  0  0  0  0
   -7.5132   24.7232  -30.8019 H   0  0  0  0  0  0  0  0  0  0  0  0
   -9.0226   21.5432  -30.8541 H   0  0  0  0  0  0  0  0  0  0  0  0
   -9.5291   19.1152  -30.5888 H   0  0  0  0  0  0  0  0  0  0  0  0
   -8.2384   17.4178  -31.8863 H   0  0  0  0  0  0  0  0  0  0  0  0
   -6.0189   20.5930  -33.8189 H   0  0  0  0  0  0  0  0  0  0  0  0
    0.2938   23.3481  -29.5157 H   0  0  0  0  0  0  0  0  0  0  0  0
    0.2564   25.4312  -28.1512 H   0  0  0  0  0  0  0  0  0  0  0  0
  1  2  1  0
  2  3  2  0
  3  4  1  0
  4  5  2  0
  5  6  1  0
  6  7  1  0
  6  8  1  0
  8  9  1  0
  9 10  2  0
 10 11  1  0
 11 12  1  0
 12 13  2  0
 13 14  1  0
 14 15  1  0
 14 16  2  0
 16 17  1  0
 17 18  2  0
 18 19  1  0
 19 20  1  0
 20 21  2  0
 21 22  1  0
 22 23  2  0
 23 24  1  0
 24 25  1  0
 25 26  1  0
 25 27  1  0
 25 28  1  0
 24 29  2  0
 10 30  1  0
 30 31  2  0
 30 32  1  0
 32 33  2  0
  5 34  1  0
 34 35  2  0
 35  2  1  0
 32  9  1  0
 18 12  1  0
 29 20  1  0
  1 36  1  0
  1 37  1  0
  1 38  1  0
  3 39  1  0
  4 40  1  0
  6 41  1  6
  7 42  1  0
  7 43  1  0
  7 44  1  0
  8 45  1  0
  8 46  1  0
 11 47  1  0
 13 48  1  0
 16 49  1  0
 17 50  1  0
 21 51  1  0
 22 52  1  0
 23 53  1  0
 29 54  1  0
 34 55  1  0
 35 56  1  0
M  CHG  2   8   1  15  -1
M  END
>  <UniqueID>  (6) 
6

>  <SMILES>  (6) 
Cc1ccc([C@@H](C)[NH2+]c2c(Nc3cc([O-])ccc3Oc3cccc(C(F)(F)F)c3)c(=O)c2=O)cc1

>  <Energy>  (6) 
58.42919694937833

>  <Genealogy>  (6) 
Cc1ccc(C(C)[NH2+]c2c(Nc3cc([O-])ccc3Oc3cccc(C(F)(F)F)c3)c(=O)c2=O)cc1 (protonated)
Cc1ccc([C@@H](C)[NH2+]c2c(Nc3cc([O-])ccc3Oc3cccc(C(F)(F)F)c3)c(=O)c2=O)cc1 (chirality)
Cc1ccc([C@@H](C)[NH2+]c2c(Nc3cc([O-])ccc3Oc3cccc(C(F)(F)F)c3)c(=O)c2=O)cc1 (3D coordinates assigned)
Cc1ccc([C@@H](C)[NH2+]c2c(Nc3cc([O-])ccc3Oc3cccc(C(F)(F)F)c3)c(=O)c2=O)cc1 (optimized conformer: 58.42919694937833 kcal/mol)

>  <smiles>  (6) 
Cc1ccc(C(C)Nc2c(Nc3cc(O)ccc3Oc3cccc(C(F)(F)F)c3)c(=O)c2=O)cc1

>  <score_type>  (6) 
oracle

>  <origin>  (6) 
adgpu

>  <m_score__min__energy>  (6) 
-11.32

>  <m_primary>  (6) 
energy

$$$$
6:0
     RDKit          3D

 36 38  0  0  0  0  0  0  0  0999 V2000
   -9.2420   19.9560  -32.6990 C   0  0  0  0  0  0  0  0  0  0  0  0
   -7.9990   20.7320  -32.3760 C   0  0  0  0  0  0  0  0  0  0  0  0
   -8.1150   21.9280  -31.7370 N   0  0  0  0  0  0  0  0  0  0  0  0
   -7.0260   22.6760  -31.4220 C   0  0  0  0  0  0  0  0  0  0  0  0
   -7.1670   23.8990  -30.7620 C   0  0  0  0  0  0  0  0  0  0  0  0
   -6.0330   24.6560  -30.4440 C   0  0  0  0  0  0  0  0  0  0  0  0
   -4.7480   24.1900  -30.7840 C   0  0  0  0  0  0  0  0  0  0  0  0
   -3.5600   24.9310  -30.4680 N   0  0  0  0  0  0  0  0  0  0  0  0
   -2.4510   24.5460  -29.1930 S   0  0  0  0  0  0  0  0  0  0  0  0
   -3.1030   24.8340  -27.8700 O   0  0  0  0  0  0  0  0  0  0  0  0
   -1.2250   25.4040  -29.3320 O   0  0  0  0  0  0  0  0  0  0  0  0
   -1.9750   22.8540  -29.2970 C   0  0  0  0  0  0  0  0  0  0  0  0
   -2.2960   21.9610  -28.2620 C   0  0  0  0  0  0  0  0  0  0  0  0
   -1.9230   20.6170  -28.3550 C   0  0  0  0  0  0  0  0  0  0  0  0
   -1.2280   20.1580  -29.4790 C   0  0  0  0  0  0  0  0  0  0  0  0
   -0.9030   21.0450  -30.5100 C   0  0  0  0  0  0  0  0  0  0  0  0
   -1.2740   22.3900  -30.4190 C   0  0  0  0  0  0  0  0  0  0  0  0
   -4.6140   22.9630  -31.4490 C   0  0  0  0  0  0  0  0  0  0  0  0
   -5.7450   22.2070  -31.7660 C   0  0  0  0  0  0  0  0  0  0  0  0
   -5.6240   21.0140  -32.4050 N   0  0  0  0  0  0  0  0  0  0  0  0
   -6.7130   20.2600  -32.7200 C   0  0  0  0  0  0  0  0  0  0  0  0
   -6.5100   18.9490  -33.4210 C   0  0  0  0  0  0  0  0  0  0  0  0
   -9.7351   19.6482  -31.7652 H   0  0  0  0  0  0  0  0  0  0  0  0
   -9.9267   20.5874  -33.2843 H   0  0  0  0  0  0  0  0  0  0  0  0
   -8.9754   19.0636  -33.2843 H   0  0  0  0  0  0  0  0  0  0  0  0
   -8.1680   24.2669  -30.4924 H   0  0  0  0  0  0  0  0  0  0  0  0
   -6.1461   25.6197  -29.9259 H   0  0  0  0  0  0  0  0  0  0  0  0
   -2.8417   22.3195  -27.3768 H   0  0  0  0  0  0  0  0  0  0  0  0
   -2.1763   19.9193  -27.5432 H   0  0  0  0  0  0  0  0  0  0  0  0
   -0.9373   19.0996  -29.5517 H   0  0  0  0  0  0  0  0  0  0  0  0
   -0.3552   20.6844  -31.3931 H   0  0  0  0  0  0  0  0  0  0  0  0
   -1.0151   23.0863  -31.2303 H   0  0  0  0  0  0  0  0  0  0  0  0
   -3.6143   22.5942  -31.7222 H   0  0  0  0  0  0  0  0  0  0  0  0
   -6.3863   18.1498  -32.6754 H   0  0  0  0  0  0  0  0  0  0  0  0
   -7.3850   18.7306  -34.0508 H   0  0  0  0  0  0  0  0  0  0  0  0
   -5.6099   19.0055  -34.0508 H   0  0  0  0  0  0  0  0  0  0  0  0
  1  2  1  0
  2  3  2  0
  3  4  1  0
  4  5  2  0
  5  6  1  0
  6  7  2  0
  7  8  1  0
  8  9  1  0
  9 10  2  0
  9 11  2  0
  9 12  1  0
 12 13  2  0
 13 14  1  0
 14 15  2  0
 15 16  1  0
 16 17  2  0
  7 18  1  0
 18 19  2  0
 19 20  1  0
 20 21  2  0
 21 22  1  0
 21  2  1  0
 19  4  1  0
 17 12  1  0
  1 23  1  0
  1 24  1  0
  1 25  1  0
  5 26  1  0
  6 27  1  0
 13 28  1  0
 14 29  1  0
 15 30  1  0
 16 31  1  0
 17 32  1  0
 18 33  1  0
 22 34  1  0
 22 35  1  0
 22 36  1  0
M  CHG  1   8  -1
M  END
>  <UniqueID>  (7) 
7

>  <SMILES>  (7) 
Cc1nc2ccc([N-]S(=O)(=O)c3ccccc3)cc2nc1C

>  <Energy>  (7) 
43.91424844438289

>  <Genealogy>  (7) 
Cc1nc2ccc([N-]S(=O)(=O)c3ccccc3)cc2nc1C (protonated)
Cc1nc2ccc([N-]S(=O)(=O)c3ccccc3)cc2nc1C (3D coordinates assigned)
Cc1nc2ccc([N-]S(=O)(=O)c3ccccc3)cc2nc1C (optimized conformer: 43.91424844438289 kcal/mol)

>  <smiles>  (7) 
Cc1nc2ccc(NS(=O)(=O)c3ccccc3)cc2nc1C

>  <score_type>  (7) 
oracle

>  <origin>  (7) 
adgpu

>  <m_score__min__energy>  (7) 
-9.9299999999999997

>  <m_primary>  (7) 
energy

$$$$
7:0
     RDKit          3D

 49 51  0  0  0  0  0  0  0  0999 V2000
   -8.0690   23.2040  -31.5840 C   0  0  0  0  0  0  0  0  0  0  0  0
   -8.1150   21.7870  -31.2420 N   0  0  0  0  0  0  0  0  0  0  0  0
   -7.4710   20.7540  -32.0110 C   0  0  0  0  0  0  0  0  0  0  0  0
   -8.0400   19.6980  -32.7170 C   0  0  0  0  0  0  0  0  0  0  0  0
   -9.4860   19.3520  -32.8600 C   0  0  0  0  0  0  0  0  0  0  0  0
   -7.0630   19.0120  -33.3450 N   0  0  0  0  0  0  0  0  0  0  0  0
   -5.9050   19.5910  -33.0610 N   0  0  0  0  0  0  0  0  0  0  0  0
   -4.6290   19.0860  -33.5570 C   0  0  0  0  0  0  0  0  0  0  0  0
   -6.1140   20.6670  -32.2690 C   0  0  0  0  0  0  0  0  0  0  0  0
   -5.0690   21.5560  -31.7270 C   0  0  0  0  0  0  0  0  0  0  0  0
   -4.1660   21.9770  -32.4980 O   0  0  0  0  0  0  0  0  0  0  0  0
   -5.0850   21.9450  -30.3420 N   0  0  0  0  0  0  0  0  0  0  0  0
   -4.0680   22.7420  -29.7150 C   0  0  0  0  0  0  0  0  0  0  0  0
   -2.7460   22.6530  -30.1770 C   0  0  0  0  0  0  0  0  0  0  0  0
   -1.7400   23.4370  -29.6050 C   0  0  0  0  0  0  0  0  0  0  0  0
   -2.0480   24.3370  -28.5750 C   0  0  0  0  0  0  0  0  0  0  0  0
   -0.7790   25.3140  -27.8400 S   0  0  0  0  0  0  0  0  0  0  0  0
   -0.8690   26.7190  -28.3700 O   0  0  0  0  0  0  0  0  0  0  0  0
    0.5670   24.7520  -28.2050 O   0  0  0  0  0  0  0  0  0  0  0  0
   -0.9920   25.3300  -26.1080 N   0  0  0  0  0  0  0  0  0  0  0  0
    0.2940   25.2950  -25.4140 C   0  0  0  0  0  0  0  0  0  0  0  0
    0.0850   25.9840  -24.0730 C   0  0  0  0  0  0  0  0  0  0  0  0
   -1.1870   26.8020  -24.2340 C   0  0  0  0  0  0  0  0  0  0  0  0
   -1.6410   26.5630  -25.6660 C   0  0  0  0  0  0  0  0  0  0  0  0
   -3.3680   24.4410  -28.1210 C   0  0  0  0  0  0  0  0  0  0  0  0
   -4.3750   23.6580  -28.6930 C   0  0  0  0  0  0  0  0  0  0  0  0
   -8.0495   23.8033  -30.6618 H   0  0  0  0  0  0  0  0  0  0  0  0
   -7.1637   23.4096  -32.1741 H   0  0  0  0  0  0  0  0  0  0  0  0
   -8.9591   23.4679  -32.1741 H   0  0  0  0  0  0  0  0  0  0  0  0
   -8.7250   21.5060  -30.4420 H   0  0  0  0  0  0  0  0  0  0  0  0
   -9.9375   19.2440  -31.8628 H   0  0  0  0  0  0  0  0  0  0  0  0
  -10.0017   20.1521  -33.4113 H   0  0  0  0  0  0  0  0  0  0  0  0
   -9.5837   18.4051  -33.4113 H   0  0  0  0  0  0  0  0  0  0  0  0
   -3.9806   18.8294  -32.7063 H   0  0  0  0  0  0  0  0  0  0  0  0
   -4.8028   18.1888  -34.1693 H   0  0  0  0  0  0  0  0  0  0  0  0
   -4.1417   19.8591  -34.1693 H   0  0  0  0  0  0  0  0  0  0  0  0
   -5.9060   21.6670  -29.7590 H   0  0  0  0  0  0  0  0  0  0  0  0
   -2.4994   21.9609  -30.9957 H   0  0  0  0  0  0  0  0  0  0  0  0
   -0.7040   23.3476  -29.9639 H   0  0  0  0  0  0  0  0  0  0  0  0
    0.6135   24.2538  -25.2597 H   0  0  0  0  0  0  0  0  0  0  0  0
    1.0750   25.8001  -26.0014 H   0  0  0  0  0  0  0  0  0  0  0  0
   -0.0348   25.2395  -23.2722 H   0  0  0  0  0  0  0  0  0  0  0  0
    0.9443   26.6132  -23.7977 H   0  0  0  0  0  0  0  0  0  0  0  0
   -1.9558   26.4621  -23.5245 H   0  0  0  0  0  0  0  0  0  0  0  0
   -1.0158   27.8695  -24.0314 H   0  0  0  0  0  0  0  0  0  0  0  0
   -2.7347   26.4513  -25.7041 H   0  0  0  0  0  0  0  0  0  0  0  0
   -1.3706   27.4090  -26.3150 H   0  0  0  0  0  0  0  0  0  0  0  0
   -3.6142   25.1423  -27.3101 H   0  0  0  0  0  0  0  0  0  0  0  0
   -5.4126   23.7589  -28.3420 H   0  0  0  0  0  0  0  0  0  0  0  0
  1  2  1  0
  2  3  1  0
  3  4  1  0
  4  5  1  0
  4  6  2  0
  6  7  1  0
  7  8  1  0
  7  9  1  0
  9 10  1  0
 10 11  2  0
 10 12  1  0
 12 13  1  0
 13 14  2  0
 14 15  1  0
 15 16  2  0
 16 17  1  0
 17 18  2  0
 17 19  2  0
 17 20  1  0
 20 21  1  0
 21 22  1  0
 22 23  1  0
 23 24  1  0
 16 25  1  0
 25 26  2  0
  9  3  2  0
 26 13  1  0
 24 20  1  0
  1 27  1  0
  1 28  1  0
  1 29  1  0
  2 30  1  0
  5 31  1  0
  5 32  1  0
  5 33  1  0
  8 34  1  0
  8 35  1  0
  8 36  1  0
 12 37  1  0
 14 38  1  0
 15 39  1  0
 21 40  1  0
 21 41  1  0
 22 42  1  0
 22 43  1  0
 23 44  1  0
 23 45  1  0
 24 46  1  0
 24 47  1  0
 25 48  1  0
 26 49  1  0
M  END
>  <UniqueID>  (8) 
8

>  <SMILES>  (8) 
CNc1c(C)nn(C)c1C(=O)Nc1ccc(S(=O)(=O)N2CCCC2)cc1

>  <Energy>  (8) 
87.92046609534141

>  <Genealogy>  (8) 
CNc1c(C)nn(C)c1C(=O)Nc1ccc(S(=O)(=O)N2CCCC2)cc1 (3D coordinates assigned)
CNc1c(C)nn(C)c1C(=O)Nc1ccc(S(=O)(=O)N2CCCC2)cc1 (nonaromatic ring conformer: 87.92046609534141 kcal/mol)

>  <smiles>  (8) 
CNc1c(C)nn(C)c1C(=O)Nc1ccc(S(=O)(=O)N2CCCC2)cc1

>  <score_type>  (8) 
oracle

>  <origin>  (8) 
adgpu

>  <m_score__min__energy>  (8) 
-8.2799999999999994

>  <m_primary>  (8) 
energy

$$$$
8:0
     RDKit          3D

 65 68  0  0  0  0  0  0  0  0999 V2000
   -3.4720   23.4100  -30.9550 O   0  0  0  0  0  0  0  0  0  0  0  0
   -3.5670   24.5430  -30.4080 C   0  0  0  0  0  0  0  0  0  0  0  0
   -4.5930   25.4490  -30.8280 N   0  0  0  0  0  0  0  0  0  0  0  0
   -5.9620   25.3830  -30.3230 C   0  0  0  0  0  0  0  0  0  0  0  0
   -6.4460   23.9290  -30.2960 C   0  0  0  0  0  0  0  0  0  0  0  0
   -7.6410   23.6950  -31.2460 C   0  0  0  0  0  0  0  0  0  0  0  0
   -7.4420   22.5490  -32.1620 N   0  0  0  0  0  0  0  0  0  0  0  0
   -8.3390   21.4100  -31.8680 C   0  0  0  0  0  0  0  0  0  0  0  0
   -7.9890   20.1950  -32.7290 C   0  0  0  0  0  0  0  0  0  0  0  0
   -6.5870   19.8110  -32.5230 N   0  0  0  0  0  0  0  0  0  0  0  0
   -6.1500   18.4750  -32.8510 C   0  0  0  0  0  0  0  0  0  0  0  0
   -5.9030   17.5430  -31.8260 C   0  0  0  0  0  0  0  0  0  0  0  0
   -5.4900   16.2430  -32.1330 C   0  0  0  0  0  0  0  0  0  0  0  0
   -5.3210   15.8590  -33.4660 C   0  0  0  0  0  0  0  0  0  0  0  0
   -5.5520   16.7770  -34.4910 C   0  0  0  0  0  0  0  0  0  0  0  0
   -5.9580   18.0820  -34.1920 C   0  0  0  0  0  0  0  0  0  0  0  0
   -6.1250   18.9650  -35.2070 F   0  0  0  0  0  0  0  0  0  0  0  0
   -5.6510   20.7770  -31.9370 C   0  0  0  0  0  0  0  0  0  0  0  0
   -6.0110   22.2040  -32.3790 C   0  0  0  0  0  0  0  0  0  0  0  0
   -2.6760   24.9260  -29.3500 N   0  0  0  0  0  0  0  0  0  0  0  0
   -1.9670   23.9860  -28.5210 C   0  0  0  0  0  0  0  0  0  0  0  0
   -1.5130   24.3940  -27.2570 C   0  0  0  0  0  0  0  0  0  0  0  0
   -0.8790   23.4870  -26.4040 C   0  0  0  0  0  0  0  0  0  0  0  0
   -0.6890   22.1630  -26.8050 C   0  0  0  0  0  0  0  0  0  0  0  0
   -1.1040   21.7480  -28.0750 C   0  0  0  0  0  0  0  0  0  0  0  0
   -0.9250   20.0640  -28.5630 S   0  0  0  0  0  0  0  0  0  0  0  0
   -1.9620   19.2300  -27.8640 O   0  0  0  0  0  0  0  0  0  0  0  0
    0.4380   19.5680  -28.1610 O   0  0  0  0  0  0  0  0  0  0  0  0
   -1.1420   19.9360  -30.2920 N   0  0  0  0  0  0  0  0  0  0  0  0
   -2.4790   20.3700  -30.6940 C   0  0  0  0  0  0  0  0  0  0  0  0
   -2.3610   20.8370  -32.1330 C   0  0  0  0  0  0  0  0  0  0  0  0
   -0.8990   21.2130  -32.3110 C   0  0  0  0  0  0  0  0  0  0  0  0
   -0.2120   20.8080  -31.0130 C   0  0  0  0  0  0  0  0  0  0  0  0
   -1.7200   22.6640  -28.9390 C   0  0  0  0  0  0  0  0  0  0  0  0
   -5.9937   25.7956  -29.3038 H   0  0  0  0  0  0  0  0  0  0  0  0
   -6.6177   25.9676  -30.9851 H   0  0  0  0  0  0  0  0  0  0  0  0
   -5.6169   23.2738  -30.6014 H   0  0  0  0  0  0  0  0  0  0  0  0
   -6.7786   23.7024  -29.2723 H   0  0  0  0  0  0  0  0  0  0  0  0
   -8.5385   23.5055  -30.6388 H   0  0  0  0  0  0  0  0  0  0  0  0
   -7.7456   24.5963  -31.8679 H   0  0  0  0  0  0  0  0  0  0  0  0
   -8.2388   21.1388  -30.8067 H   0  0  0  0  0  0  0  0  0  0  0  0
   -9.3721   21.7121  -32.0947 H   0  0  0  0  0  0  0  0  0  0  0  0
   -8.6403   19.3534  -32.4507 H   0  0  0  0  0  0  0  0  0  0  0  0
   -8.1374   20.4524  -33.7881 H   0  0  0  0  0  0  0  0  0  0  0  0
   -6.0359   17.8395  -30.7751 H   0  0  0  0  0  0  0  0  0  0  0  0
   -5.2980   15.5220  -31.3247 H   0  0  0  0  0  0  0  0  0  0  0  0
   -5.0059   14.8331  -33.7071 H   0  0  0  0  0  0  0  0  0  0  0  0
   -5.4142   16.4732  -35.5392 H   0  0  0  0  0  0  0  0  0  0  0  0
   -5.7028   20.7129  -30.8401 H   0  0  0  0  0  0  0  0  0  0  0  0
   -4.6327   20.5422  -32.2805 H   0  0  0  0  0  0  0  0  0  0  0  0
   -5.3917   22.9119  -31.8086 H   0  0  0  0  0  0  0  0  0  0  0  0
   -5.8240   22.2645  -33.4613 H   0  0  0  0  0  0  0  0  0  0  0  0
   -2.7510   25.9100  -29.0080 H   0  0  0  0  0  0  0  0  0  0  0  0
   -1.6575   25.4360  -26.9355 H   0  0  0  0  0  0  0  0  0  0  0  0
   -0.5289   23.8166  -25.4147 H   0  0  0  0  0  0  0  0  0  0  0  0
   -0.2123   21.4452  -26.1213 H   0  0  0  0  0  0  0  0  0  0  0  0
   -3.1887   19.5327  -30.6224 H   0  0  0  0  0  0  0  0  0  0  0  0
   -2.8509   21.1742  -30.0421 H   0  0  0  0  0  0  0  0  0  0  0  0
   -2.6384   20.0282  -32.8251 H   0  0  0  0  0  0  0  0  0  0  0  0
   -3.0320   21.6818  -32.3475 H   0  0  0  0  0  0  0  0  0  0  0  0
   -0.4634   20.6692  -33.1621 H   0  0  0  0  0  0  0  0  0  0  0  0
   -0.7767   22.2862  -32.5191 H   0  0  0  0  0  0  0  0  0  0  0  0
    0.7207   20.2674  -31.2317 H   0  0  0  0  0  0  0  0  0  0  0  0
    0.0444   21.6924  -30.4113 H   0  0  0  0  0  0  0  0  0  0  0  0
   -2.0127   22.3478  -29.9511 H   0  0  0  0  0  0  0  0  0  0  0  0
  1  2  2  0
  2  3  1  0
  3  4  1  0
  4  5  1  0
  5  6  1  0
  6  7  1  0
  7  8  1  0
  8  9  1  0
  9 10  1  0
 10 11  1  0
 11 12  2  0
 12 13  1  0
 13 14  2  0
 14 15  1  0
 15 16  2  0
 16 17  1  0
 10 18  1  0
 18 19  1  0
  2 20  1  0
 20 21  1  0
 21 22  2  0
 22 23  1  0
 23 24  2  0
 24 25  1  0
 25 26  1  0
 26 27  2  0
 26 28  2  0
 26 29  1  0
 29 30  1  0
 30 31  1  0
 31 32  1  0
 32 33  1  0
 25 34  2  0
 19  7  1  0
 34 21  1  0
 16 11  1  0
 33 29  1  0
  4 35  1  0
  4 36  1  0
  5 37  1  0
  5 38  1  0
  6 39  1  0
  6 40  1  0
  8 41  1  0
  8 42  1  0
  9 43  1  0
  9 44  1  0
 12 45  1  0
 13 46  1  0
 14 47  1  0
 15 48  1  0
 18 49  1  0
 18 50  1  0
 19 51  1  0
 19 52  1  0
 20 53  1  0
 22 54  1  0
 23 55  1  0
 24 56  1  0
 30 57  1  0
 30 58  1  0
 31 59  1  0
 31 60  1  0
 32 61  1  0
 32 62  1  0
 33 63  1  0
 33 64  1  0
 34 65  1  0
M  CHG  1   3  -1
M  END
>  <UniqueID>  (9) 
9

>  <SMILES>  (9) 
O=C([N-]CCCN1CCN(c2ccccc2F)CC1)Nc1cccc(S(=O)(=O)N2CCCC2)c1

>  <Energy>  (9) 
78.78675773783588

>  <Genealogy>  (9) 
O=C([N-]CCCN1CCN(c2ccccc2F)CC1)Nc1cccc(S(=O)(=O)N2CCCC2)c1 (protonated)
O=C([N-]CCCN1CCN(c2ccccc2F)CC1)Nc1cccc(S(=O)(=O)N2CCCC2)c1 (3D coordinates assigned)
O=C([N-]CCCN1CCN(c2ccccc2F)CC1)Nc1cccc(S(=O)(=O)N2CCCC2)c1 (nonaromatic ring conformer: 78.78675773783588 kcal/mol)

>  <smiles>  (9) 
O=C(NCCCN1CCN(c2ccccc2F)CC1)Nc1cccc(S(=O)(=O)N2CCCC2)c1

>  <score_type>  (9) 
oracle

>  <origin>  (9) 
adgpu

>  <m_score__min__energy>  (9) 
-11.85

>  <m_primary>  (9) 
energy

$$$$
9:0
     RDKit          3D

 45 48  0  0  0  0  0  0  0  0999 V2000
   -0.9380   19.5650  -27.0460 C   0  0  0  0  0  0  0  0  0  0  0  0
    0.1630   20.0500  -27.8990 N   0  0  0  0  0  0  0  0  0  0  0  0
    0.0630   19.5610  -29.2890 C   0  0  0  0  0  0  0  0  0  0  0  0
   -1.1830   20.0940  -30.0110 C   0  0  0  0  0  0  0  0  0  0  0  0
   -1.4150   21.5610  -29.7460 C   0  0  0  0  0  0  0  0  0  0  0  0
   -2.3700   22.2470  -30.5110 C   0  0  0  0  0  0  0  0  0  0  0  0
   -2.6770   23.5930  -30.2400 C   0  0  0  0  0  0  0  0  0  0  0  0
   -3.6670   24.3070  -30.9950 N   0  0  0  0  0  0  0  0  0  0  0  0
   -5.2850   24.6260  -30.4590 S   0  0  0  0  0  0  0  0  0  0  0  0
   -5.8220   25.8360  -31.1710 O   0  0  0  0  0  0  0  0  0  0  0  0
   -5.2700   24.9010  -28.9810 O   0  0  0  0  0  0  0  0  0  0  0  0
   -6.2850   23.2080  -30.7610 C   0  0  0  0  0  0  0  0  0  0  0  0
   -7.5690   23.1030  -30.2070 C   0  0  0  0  0  0  0  0  0  0  0  0
   -8.3840   22.0110  -30.5200 C   0  0  0  0  0  0  0  0  0  0  0  0
   -7.9190   21.0060  -31.3820 C   0  0  0  0  0  0  0  0  0  0  0  0
   -8.7350   19.9120  -31.7130 C   0  0  0  0  0  0  0  0  0  0  0  0
   -8.2620   18.9190  -32.5770 C   0  0  0  0  0  0  0  0  0  0  0  0
   -6.9720   19.0090  -33.1100 C   0  0  0  0  0  0  0  0  0  0  0  0
   -6.1500   20.0950  -32.7890 C   0  0  0  0  0  0  0  0  0  0  0  0
   -6.6150   21.1010  -31.9280 C   0  0  0  0  0  0  0  0  0  0  0  0
   -5.8090   22.2060  -31.6140 C   0  0  0  0  0  0  0  0  0  0  0  0
   -2.0070   24.2560  -29.2000 C   0  0  0  0  0  0  0  0  0  0  0  0
   -2.3080   25.5900  -28.9220 O   0  0  0  0  0  0  0  0  0  0  0  0
   -1.0550   23.5730  -28.4310 C   0  0  0  0  0  0  0  0  0  0  0  0
   -0.7690   22.2220  -28.6830 C   0  0  0  0  0  0  0  0  0  0  0  0
    0.2880   21.5210  -27.8580 C   0  0  0  0  0  0  0  0  0  0  0  0
   -0.6628   19.6862  -25.9879 H   0  0  0  0  0  0  0  0  0  0  0  0
   -1.8483   20.1454  -27.2569 H   0  0  0  0  0  0  0  0  0  0  0  0
   -1.1241   18.5016  -27.2569 H   0  0  0  0  0  0  0  0  0  0  0  0
    0.9569   19.8848  -29.8422 H   0  0  0  0  0  0  0  0  0  0  0  0
   -0.0147   18.4643  -29.2530 H   0  0  0  0  0  0  0  0  0  0  0  0
   -1.0549   19.9461  -31.0935 H   0  0  0  0  0  0  0  0  0  0  0  0
   -2.0546   19.5414  -29.6302 H   0  0  0  0  0  0  0  0  0  0  0  0
   -2.8847   21.7266  -31.3321 H   0  0  0  0  0  0  0  0  0  0  0  0
   -7.9363   23.8828  -29.5236 H   0  0  0  0  0  0  0  0  0  0  0  0
   -9.3935   21.9393  -30.0890 H   0  0  0  0  0  0  0  0  0  0  0  0
   -9.7483   19.8359  -31.2918 H   0  0  0  0  0  0  0  0  0  0  0  0
   -8.9056   18.0659  -32.8377 H   0  0  0  0  0  0  0  0  0  0  0  0
   -6.6020   18.2227  -33.7844 H   0  0  0  0  0  0  0  0  0  0  0  0
   -5.1369   20.1603  -33.2125 H   0  0  0  0  0  0  0  0  0  0  0  0
   -4.7981   22.2849  -32.0405 H   0  0  0  0  0  0  0  0  0  0  0  0
   -3.1100   26.0520  -29.3360 H   0  0  0  0  0  0  0  0  0  0  0  0
   -0.5272   24.1003  -27.6227 H   0  0  0  0  0  0  0  0  0  0  0  0
    1.2789   21.8005  -28.2453 H   0  0  0  0  0  0  0  0  0  0  0  0
    0.1551   21.8359  -26.8124 H   0  0  0  0  0  0  0  0  0  0  0  0
  1  2  1  0
  2  3  1  0
  3  4  1  0
  4  5  1  0
  5  6  2  0
  6  7  1  0
  7  8  1  0
  8  9  1  0
  9 10  2  0
  9 11  2  0
  9 12  1  0
 12 13  2  0
 13 14  1  0
 14 15  2  0
 15 16  1  0
 16 17  2  0
 17 18  1  0
 18 19  2  0
 19 20  1  0
 20 21  2  0
  7 22  2  0
 22 23  1  0
 22 24  1  0
 24 25  2  0
 25 26  1  0
 26  2  1  0
 25  5  1  0
 21 12  1  0
 20 15  1  0
  1 27  1  0
  1 28  1  0
  1 29  1  0
  3 30  1  0
  3 31  1  0
  4 32  1  0
  4 33  1  0
  6 34  1  0
 13 35  1  0
 14 36  1  0
 16 37  1  0
 17 38  1  0
 18 39  1  0
 19 40  1  0
 21 41  1  0
 23 42  1  0
 24 43  1  0
 26 44  1  0
 26 45  1  0
M  CHG  1   8  -1
M  END
>  <UniqueID>  (10) 
10

>  <SMILES>  (10) 
CN1CCc2cc([N-]S(=O)(=O)c3ccc4ccccc4c3)c(O)cc2C1

>  <Energy>  (10) 
59.79138574663681

>  <Genealogy>  (10) 
CN1CCc2cc([N-]S(=O)(=O)c3ccc4ccccc4c3)c(O)cc2C1 (protonated)
CN1CCc2cc([N-]S(=O)(=O)c3ccc4ccccc4c3)c(O)cc2C1 (3D coordinates assigned)
CN1CCc2cc([N-]S(=O)(=O)c3ccc4ccccc4c3)c(O)cc2C1 (nonaromatic ring conformer: 59.79138574663681 kcal/mol)

>  <smiles>  (10) 
CN1CCc2cc(NS(=O)(=O)c3ccc4ccccc4c3)c(O)cc2C1

>  <score_type>  (10) 
oracle

>  <origin>  (10) 
adgpu

>  <m_score__min__energy>  (10) 
-12.73

>  <m_primary>  (10) 
energy

$$$$
10:0
     RDKit          3D

 53 56  0  0  0  0  0  0  0  0999 V2000
   -1.8580   19.3500  -34.2200 C   0  0  0  0  0  0  0  0  0  0  0  0
   -2.9800   18.5880  -33.5140 C   0  0  0  0  0  0  0  0  0  0  0  0
   -4.1090   19.4790  -33.2270 N   0  0  0  0  0  0  0  0  0  0  0  0
   -5.4270   19.2770  -33.4950 C   0  0  0  0  0  0  0  0  0  0  0  0
   -6.0770   17.8240  -34.3260 S   0  0  0  0  0  0  0  0  0  0  0  0
   -6.0930   16.8150  -32.8040 C   0  0  0  0  0  0  0  0  0  0  0  0
   -5.3800   15.5020  -33.0330 C   0  0  0  0  0  0  0  0  0  0  0  0
   -4.1320   15.3070  -32.4100 C   0  0  0  0  0  0  0  0  0  0  0  0
   -3.4240   14.1170  -32.5880 C   0  0  0  0  0  0  0  0  0  0  0  0
   -3.9410   13.1130  -33.4050 C   0  0  0  0  0  0  0  0  0  0  0  0
   -5.1670   13.2920  -34.0480 C   0  0  0  0  0  0  0  0  0  0  0  0
   -5.9000   14.4800  -33.8760 C   0  0  0  0  0  0  0  0  0  0  0  0
   -7.2190   14.6280  -34.5910 C   0  0  0  0  0  0  0  0  0  0  0  0
   -6.2310   20.2780  -33.0530 N   0  0  0  0  0  0  0  0  0  0  0  0
   -5.3620   21.1290  -32.4780 C   0  0  0  0  0  0  0  0  0  0  0  0
   -5.6540   22.3160  -31.8130 C   0  0  0  0  0  0  0  0  0  0  0  0
   -4.5830   23.0370  -31.2430 C   0  0  0  0  0  0  0  0  0  0  0  0
   -4.9210   24.4750  -30.2850 S   0  0  0  0  0  0  0  0  0  0  0  0
   -6.4040   24.7190  -30.2920 O   0  0  0  0  0  0  0  0  0  0  0  0
   -4.2300   25.6740  -30.8780 O   0  0  0  0  0  0  0  0  0  0  0  0
   -4.3860   24.2250  -28.6560 N   0  0  0  0  0  0  0  0  0  0  0  0
   -3.0900   23.6800  -28.3750 C   0  0  0  0  0  0  0  0  0  0  0  0
   -2.9910   22.4420  -27.7210 C   0  0  0  0  0  0  0  0  0  0  0  0
   -1.7360   21.8750  -27.4710 C   0  0  0  0  0  0  0  0  0  0  0  0
   -0.5750   22.5430  -27.8690 C   0  0  0  0  0  0  0  0  0  0  0  0
   -0.6650   23.7830  -28.5090 C   0  0  0  0  0  0  0  0  0  0  0  0
   -1.9160   24.3620  -28.7500 C   0  0  0  0  0  0  0  0  0  0  0  0
   -1.9790   25.6190  -29.3360 O   0  0  0  0  0  0  0  0  0  0  0  0
   -3.2580   22.5440  -31.3610 C   0  0  0  0  0  0  0  0  0  0  0  0
   -2.9990   21.3400  -32.0390 C   0  0  0  0  0  0  0  0  0  0  0  0
   -4.0880   20.6550  -32.5800 C   0  0  0  0  0  0  0  0  0  0  0  0
   -1.1928   19.8018  -33.4694 H   0  0  0  0  0  0  0  0  0  0  0  0
   -1.2824   18.6552  -34.8493 H   0  0  0  0  0  0  0  0  0  0  0  0
   -2.2916   20.1412  -34.8493 H   0  0  0  0  0  0  0  0  0  0  0  0
   -3.3227   17.7675  -34.1616 H   0  0  0  0  0  0  0  0  0  0  0  0
   -2.5940   18.1882  -32.5647 H   0  0  0  0  0  0  0  0  0  0  0  0
   -5.5863   17.3666  -31.9984 H   0  0  0  0  0  0  0  0  0  0  0  0
   -7.1367   16.6094  -32.5239 H   0  0  0  0  0  0  0  0  0  0  0  0
   -3.7105   16.1011  -31.7762 H   0  0  0  0  0  0  0  0  0  0  0  0
   -2.4576   13.9716  -32.0832 H   0  0  0  0  0  0  0  0  0  0  0  0
   -3.3810   12.1764  -33.5435 H   0  0  0  0  0  0  0  0  0  0  0  0
   -5.5637   12.4962  -34.6955 H   0  0  0  0  0  0  0  0  0  0  0  0
   -8.0286   14.7188  -33.8519 H   0  0  0  0  0  0  0  0  0  0  0  0
   -7.1953   15.5291  -35.2214 H   0  0  0  0  0  0  0  0  0  0  0  0
   -7.3956   13.7440  -35.2214 H   0  0  0  0  0  0  0  0  0  0  0  0
   -6.6885   22.6814  -31.7340 H   0  0  0  0  0  0  0  0  0  0  0  0
   -5.1280   24.1490  -27.9230 H   0  0  0  0  0  0  0  0  0  0  0  0
   -3.9032   21.9154  -27.4038 H   0  0  0  0  0  0  0  0  0  0  0  0
   -1.6636   20.9031  -26.9610 H   0  0  0  0  0  0  0  0  0  0  0  0
    0.4106   22.0930  -27.6787 H   0  0  0  0  0  0  0  0  0  0  0  0
    0.2505   24.3050  -28.8241 H   0  0  0  0  0  0  0  0  0  0  0  0
   -2.4251   23.1094  -30.9176 H   0  0  0  0  0  0  0  0  0  0  0  0
   -1.9747   20.9517  -32.1395 H   0  0  0  0  0  0  0  0  0  0  0  0
  1  2  1  0
  2  3  1  0
  3  4  1  0
  4  5  1  0
  5  6  1  0
  6  7  1  0
  7  8  2  0
  8  9  1  0
  9 10  2  0
 10 11  1  0
 11 12  2  0
 12 13  1  0
  4 14  2  0
 14 15  1  0
 15 16  2  0
 16 17  1  0
 17 18  1  0
 18 19  2  0
 18 20  2  0
 18 21  1  0
 21 22  1  0
 22 23  2  0
 23 24  1  0
 24 25  2  0
 25 26  1  0
 26 27  2  0
 27 28  1  0
 17 29  2  0
 29 30  1  0
 30 31  2  0
 31  3  1  0
 12  7  1  0
 31 15  1  0
 27 22  1  0
  1 32  1  0
  1 33  1  0
  1 34  1  0
  2 35  1  0
  2 36  1  0
  6 37  1  0
  6 38  1  0
  8 39  1  0
  9 40  1  0
 10 41  1  0
 11 42  1  0
 13 43  1  0
 13 44  1  0
 13 45  1  0
 16 46  1  0
 21 47  1  0
 23 48  1  0
 24 49  1  0
 25 50  1  0
 26 51  1  0
 29 52  1  0
 30 53  1  0
M  CHG  1  28  -1
M  END
>  <UniqueID>  (11) 
11

>  <SMILES>  (11) 
CCn1c(SCc2ccccc2C)nc2cc(S(=O)(=O)Nc3ccccc3[O-])ccc21

>  <Energy>  (11) 
94.79795736604274

>  <Genealogy>  (11) 
CCn1c(SCc2ccccc2C)nc2cc(S(=O)(=O)Nc3ccccc3[O-])ccc21 (protonated)
CCn1c(SCc2ccccc2C)nc2cc(S(=O)(=O)Nc3ccccc3[O-])ccc21 (3D coordinates assigned)
CCn1c(SCc2ccccc2C)nc2cc(S(=O)(=O)Nc3ccccc3[O-])ccc21 (optimized conformer: 94.79795736604274 kcal/mol)

>  <smiles>  (11) 
CCn1c(SCc2ccccc2C)nc2cc(S(=O)(=O)Nc3ccccc3O)ccc21

>  <score_type>  (11) 
oracle

>  <origin>  (11) 
adgpu

>  <m_score__min__energy>  (11) 
-13.69

>  <m_primary>  (11) 
energy

$$$$
11:0
     RDKit          3D

 52 55  0  0  0  0  0  0  0  0999 V2000
   -0.0330   23.2070  -25.3330 C   0  0  0  0  0  0  0  0  0  0  0  0
    0.4010   22.5290  -26.5710 N   0  0  0  0  0  0  0  0  0  0  0  0
   -0.1830   21.1800  -26.7120 C   0  0  0  0  0  0  0  0  0  0  0  0
   -1.7110   21.2160  -26.8590 C   0  0  0  0  0  0  0  0  0  0  0  0
   -2.1610   22.2830  -27.8210 C   0  0  0  0  0  0  0  0  0  0  0  0
   -3.4910   22.2840  -28.2650 C   0  0  0  0  0  0  0  0  0  0  0  0
   -3.9520   23.2740  -29.1350 C   0  0  0  0  0  0  0  0  0  0  0  0
   -5.3120   23.2560  -29.5610 N   0  0  0  0  0  0  0  0  0  0  0  0
   -5.7150   23.4480  -31.2290 S   0  0  0  0  0  0  0  0  0  0  0  0
   -6.0780   24.8770  -31.5190 O   0  0  0  0  0  0  0  0  0  0  0  0
   -4.5080   23.0840  -32.0450 O   0  0  0  0  0  0  0  0  0  0  0  0
   -7.0710   22.3890  -31.6630 C   0  0  0  0  0  0  0  0  0  0  0  0
   -8.3730   22.8930  -31.4950 C   0  0  0  0  0  0  0  0  0  0  0  0
   -9.4880   22.1260  -31.8270 C   0  0  0  0  0  0  0  0  0  0  0  0
   -9.3230   20.8400  -32.3310 C   0  0  0  0  0  0  0  0  0  0  0  0
   -8.0430   20.3150  -32.5000 C   0  0  0  0  0  0  0  0  0  0  0  0
   -6.9020   21.0660  -32.1640 C   0  0  0  0  0  0  0  0  0  0  0  0
   -5.3170   20.3070  -32.4270 S   0  0  0  0  0  0  0  0  0  0  0  0
   -4.5210   20.3440  -31.1480 O   0  0  0  0  0  0  0  0  0  0  0  0
   -4.5530   21.0740  -33.4720 O   0  0  0  0  0  0  0  0  0  0  0  0
   -5.4930   18.6210  -32.9140 C   0  0  0  0  0  0  0  0  0  0  0  0
   -5.7360   18.3000  -34.2590 C   0  0  0  0  0  0  0  0  0  0  0  0
   -5.8940   16.9660  -34.6460 C   0  0  0  0  0  0  0  0  0  0  0  0
   -5.7950   15.9460  -33.6940 C   0  0  0  0  0  0  0  0  0  0  0  0
   -5.5360   16.2590  -32.3560 C   0  0  0  0  0  0  0  0  0  0  0  0
   -5.3840   17.5930  -31.9660 C   0  0  0  0  0  0  0  0  0  0  0  0
   -3.0750   24.2790  -29.5760 C   0  0  0  0  0  0  0  0  0  0  0  0
   -3.4920   25.2610  -30.4730 O   0  0  0  0  0  0  0  0  0  0  0  0
   -1.7560   24.3020  -29.1110 C   0  0  0  0  0  0  0  0  0  0  0  0
   -1.2960   23.3250  -28.2160 C   0  0  0  0  0  0  0  0  0  0  0  0
    0.1490   23.3540  -27.7710 C   0  0  0  0  0  0  0  0  0  0  0  0
    0.3280   22.6431  -24.4603 H   0  0  0  0  0  0  0  0  0  0  0  0
    0.3813   24.2257  -25.3083 H   0  0  0  0  0  0  0  0  0  0  0  0
   -1.1316   23.2573  -25.3083 H   0  0  0  0  0  0  0  0  0  0  0  0
    0.2465   20.7006  -27.6040 H   0  0  0  0  0  0  0  0  0  0  0  0
    0.0527   20.6153  -25.7979 H   0  0  0  0  0  0  0  0  0  0  0  0
   -2.0553   20.2382  -27.2270 H   0  0  0  0  0  0  0  0  0  0  0  0
   -2.1415   21.4447  -25.8729 H   0  0  0  0  0  0  0  0  0  0  0  0
   -4.1788   21.4961  -27.9241 H   0  0  0  0  0  0  0  0  0  0  0  0
   -8.5134   23.9082  -31.0954 H   0  0  0  0  0  0  0  0  0  0  0  0
  -10.4989   22.5376  -31.6905 H   0  0  0  0  0  0  0  0  0  0  0  0
  -10.2037   20.2368  -32.5965 H   0  0  0  0  0  0  0  0  0  0  0  0
   -7.9232   19.2982  -32.9021 H   0  0  0  0  0  0  0  0  0  0  0  0
   -5.8023   19.1005  -35.0105 H   0  0  0  0  0  0  0  0  0  0  0  0
   -6.0961   16.7186  -35.6986 H   0  0  0  0  0  0  0  0  0  0  0  0
   -5.9210   14.8964  -33.9982 H   0  0  0  0  0  0  0  0  0  0  0  0
   -5.4518   15.4552  -31.6098 H   0  0  0  0  0  0  0  0  0  0  0  0
   -5.1785   17.8369  -30.9133 H   0  0  0  0  0  0  0  0  0  0  0  0
   -3.9060   25.0330  -31.3710 H   0  0  0  0  0  0  0  0  0  0  0  0
   -1.0727   25.0943  -29.4507 H   0  0  0  0  0  0  0  0  0  0  0  0
    0.7763   22.9781  -28.5927 H   0  0  0  0  0  0  0  0  0  0  0  0
    0.3922   24.3949  -27.5113 H   0  0  0  0  0  0  0  0  0  0  0  0
  1  2  1  0
  2  3  1  0
  3  4  1  0
  4  5  1  0
  5  6  2  0
  6  7  1  0
  7  8  1  0
  8  9  1  0
  9 10  2  0
  9 11  2  0
  9 12  1  0
 12 13  2  0
 13 14  1  0
 14 15  2  0
 15 16  1  0
 16 17  2  0
 17 18  1  0
 18 19  2  0
 18 20  2  0
 18 21  1  0
 21 22  2  0
 22 23  1  0
 23 24  2  0
 24 25  1  0
 25 26  2  0
  7 27  2  0
 27 28  1  0
 27 29  1  0
 29 30  2  0
 30 31  1  0
 31  2  1  0
 30  5  1  0
 17 12  1  0
 26 21  1  0
  1 32  1  0
  1 33  1  0
  1 34  1  0
  3 35  1  0
  3 36  1  0
  4 37  1  0
  4 38  1  0
  6 39  1  0
 13 40  1  0
 14 41  1  0
 15 42  1  0
 16 43  1  0
 22 44  1  0
 23 45  1  0
 24 46  1  0
 25 47  1  0
 26 48  1  0
 28 49  1  0
 29 50  1  0
 31 51  1  0
 31 52  1  0
M  CHG  1   8  -1
M  END
>  <UniqueID>  (12) 
12

>  <SMILES>  (12) 
CN1CCc2cc([N-]S(=O)(=O)c3ccccc3S(=O)(=O)c3ccccc3)c(O)cc2C1

>  <Energy>  (12) 
75.43991617447219

>  <Genealogy>  (12) 
CN1CCc2cc([N-]S(=O)(=O)c3ccccc3S(=O)(=O)c3ccccc3)c(O)cc2C1 (protonated)
CN1CCc2cc([N-]S(=O)(=O)c3ccccc3S(=O)(=O)c3ccccc3)c(O)cc2C1 (3D coordinates assigned)
CN1CCc2cc([N-]S(=O)(=O)c3ccccc3S(=O)(=O)c3ccccc3)c(O)cc2C1 (nonaromatic ring conformer: 75.43991617447219 kcal/mol)

>  <smiles>  (12) 
CN1CCc2cc(NS(=O)(=O)c3ccccc3S(=O)(=O)c3ccccc3)c(O)cc2C1

>  <score_type>  (12) 
oracle

>  <origin>  (12) 
adgpu

>  <m_score__min__energy>  (12) 
-11.720000000000001

>  <m_primary>  (12) 
energy

$$$$
12:0
     RDKit          3D

 47 49  0  0  0  0  0  0  0  0999 V2000
   -8.9150   18.6150  -31.7620 C   0  0  0  0  0  0  0  0  0  0  0  0
   -8.3040   19.9730  -31.9290 C   0  0  0  0  0  0  0  0  0  0  0  0
   -7.0020   20.1070  -32.4330 C   0  0  0  0  0  0  0  0  0  0  0  0
   -6.4170   21.3720  -32.5500 C   0  0  0  0  0  0  0  0  0  0  0  0
   -7.1240   22.5190  -32.1570 C   0  0  0  0  0  0  0  0  0  0  0  0
   -6.4790   23.8730  -32.2630 C   0  0  0  0  0  0  0  0  0  0  0  0
   -5.1350   23.8380  -31.7000 N   0  0  0  0  0  0  0  0  0  0  0  0
   -4.7560   24.5240  -30.5010 C   0  0  0  0  0  0  0  0  0  0  0  0
   -5.6120   24.7590  -29.6080 O   0  0  0  0  0  0  0  0  0  0  0  0
   -3.3930   24.9040  -30.2770 N   0  0  0  0  0  0  0  0  0  0  0  0
   -2.5240   24.3770  -29.2640 C   0  0  0  0  0  0  0  0  0  0  0  0
   -2.6900   23.0770  -28.7520 C   0  0  0  0  0  0  0  0  0  0  0  0
   -1.8180   22.5840  -27.7720 C   0  0  0  0  0  0  0  0  0  0  0  0
   -2.0310   20.9510  -27.1480 S   0  0  0  0  0  0  0  0  0  0  0  0
   -3.4890   20.5840  -27.2210 O   0  0  0  0  0  0  0  0  0  0  0  0
   -1.5960   20.8950  -25.7100 O   0  0  0  0  0  0  0  0  0  0  0  0
   -1.1010   19.8380  -28.1180 N   0  0  0  0  0  0  0  0  0  0  0  0
    0.2710   20.3110  -28.3010 C   0  0  0  0  0  0  0  0  0  0  0  0
    1.1330   19.0740  -28.5070 C   0  0  0  0  0  0  0  0  0  0  0  0
    0.3080   17.9130  -27.9740 C   0  0  0  0  0  0  0  0  0  0  0  0
   -0.9810   18.5360  -27.4630 C   0  0  0  0  0  0  0  0  0  0  0  0
   -0.7540   23.3790  -27.3270 C   0  0  0  0  0  0  0  0  0  0  0  0
   -0.5650   24.6580  -27.8550 C   0  0  0  0  0  0  0  0  0  0  0  0
   -1.4420   25.1550  -28.8240 C   0  0  0  0  0  0  0  0  0  0  0  0
   -1.2400   26.4290  -29.3420 O   0  0  0  0  0  0  0  0  0  0  0  0
   -8.4190   22.3820  -31.6310 C   0  0  0  0  0  0  0  0  0  0  0  0
   -9.0030   21.1170  -31.5150 C   0  0  0  0  0  0  0  0  0  0  0  0
   -9.0171   18.3881  -30.6905 H   0  0  0  0  0  0  0  0  0  0  0  0
   -9.9073   18.5985  -32.2364 H   0  0  0  0  0  0  0  0  0  0  0  0
   -8.2692   17.8615  -32.2364 H   0  0  0  0  0  0  0  0  0  0  0  0
   -6.4383   19.2129  -32.7377 H   0  0  0  0  0  0  0  0  0  0  0  0
   -5.3977   21.4684  -32.9521 H   0  0  0  0  0  0  0  0  0  0  0  0
   -6.4215   24.1658  -33.3218 H   0  0  0  0  0  0  0  0  0  0  0  0
   -7.0829   24.6021  -31.7029 H   0  0  0  0  0  0  0  0  0  0  0  0
   -3.5093   22.4438  -29.1232 H   0  0  0  0  0  0  0  0  0  0  0  0
    0.3320   20.9672  -29.1817 H   0  0  0  0  0  0  0  0  0  0  0  0
    0.6104   20.8907  -27.4300 H   0  0  0  0  0  0  0  0  0  0  0  0
    1.3525   18.9315  -29.5754 H   0  0  0  0  0  0  0  0  0  0  0  0
    2.1005   19.1592  -27.9906 H   0  0  0  0  0  0  0  0  0  0  0  0
    0.0952   17.1915  -28.7766 H   0  0  0  0  0  0  0  0  0  0  0  0
    0.8386   17.3628  -27.1829 H   0  0  0  0  0  0  0  0  0  0  0  0
   -1.8397   17.8994  -27.7226 H   0  0  0  0  0  0  0  0  0  0  0  0
   -0.9652   18.6414  -26.3682 H   0  0  0  0  0  0  0  0  0  0  0  0
   -0.0656   22.9949  -26.5598 H   0  0  0  0  0  0  0  0  0  0  0  0
    0.2760   25.2761  -27.5076 H   0  0  0  0  0  0  0  0  0  0  0  0
   -8.9763   23.2740  -31.3088 H   0  0  0  0  0  0  0  0  0  0  0  0
  -10.0157   21.0181  -31.0970 H   0  0  0  0  0  0  0  0  0  0  0  0
  1  2  1  0
  2  3  2  0
  3  4  1  0
  4  5  2  0
  5  6  1  0
  6  7  1  0
  7  8  1  0
  8  9  2  0
  8 10  1  0
 10 11  1  0
 11 12  2  0
 12 13  1  0
 13 14  1  0
 14 15  2  0
 14 16  2  0
 14 17  1  0
 17 18  1  0
 18 19  1  0
 19 20  1  0
 20 21  1  0
 13 22  2  0
 22 23  1  0
 23 24  2  0
 24 25  1  0
  5 26  1  0
 26 27  2  0
 27  2  1  0
 24 11  1  0
 21 17  1  0
  1 28  1  0
  1 29  1  0
  1 30  1  0
  3 31  1  0
  4 32  1  0
  6 33  1  0
  6 34  1  0
 12 35  1  0
 18 36  1  0
 18 37  1  0
 19 38  1  0
 19 39  1  0
 20 40  1  0
 20 41  1  0
 21 42  1  0
 21 43  1  0
 22 44  1  0
 23 45  1  0
 26 46  1  0
 27 47  1  0
M  CHG  3   7  -1  10  -1  25  -1
M  END
>  <UniqueID>  (13) 
13

>  <SMILES>  (13) 
Cc1ccc(C[N-]C(=O)[N-]c2cc(S(=O)(=O)N3CCCC3)ccc2[O-])cc1

>  <Energy>  (13) 
48.90369711375734

>  <Genealogy>  (13) 
Cc1ccc(C[N-]C(=O)[N-]c2cc(S(=O)(=O)N3CCCC3)ccc2[O-])cc1 (protonated)
Cc1ccc(C[N-]C(=O)[N-]c2cc(S(=O)(=O)N3CCCC3)ccc2[O-])cc1 (3D coordinates assigned)
Cc1ccc(C[N-]C(=O)[N-]c2cc(S(=O)(=O)N3CCCC3)ccc2[O-])cc1 (nonaromatic ring conformer: 48.90369711375734 kcal/mol)

>  <smiles>  (13) 
Cc1ccc(CNC(=O)Nc2cc(S(=O)(=O)N3CCCC3)ccc2O)cc1

>  <score_type>  (13) 
oracle

>  <origin>  (13) 
adgpu

>  <m_score__min__energy>  (13) 
-14.34

>  <m_primary>  (13) 
energy

$$$$
13:0
     RDKit          3D

 62 65  0  0  0  0  0  0  0  0999 V2000
   -2.7317   23.3962  -26.9297 H   0  0  0  0  0  0  0  0  0  0  0  0
   -3.3030   23.1950  -27.8480 C   0  0  0  0  0  0  0  0  0  0  0  0
   -3.1290   21.8690  -28.4890 C   0  0  0  0  0  0  0  0  0  0  0  0
   -3.4520   20.8260  -27.8570 O   0  0  0  0  0  0  0  0  0  0  0  0
   -2.6340   21.7480  -29.8840 C   0  0  0  0  0  0  0  0  0  0  0  0
   -1.2560   21.7070  -30.1660 C   0  0  0  0  0  0  0  0  0  0  0  0
   -0.5289   21.7842  -29.3442 H   0  0  0  0  0  0  0  0  0  0  0  0
   -0.8030   21.5690  -31.4810 C   0  0  0  0  0  0  0  0  0  0  0  0
    0.2773   21.5487  -31.6871 H   0  0  0  0  0  0  0  0  0  0  0  0
   -1.7180   21.4560  -32.5420 C   0  0  0  0  0  0  0  0  0  0  0  0
   -1.2820   21.2840  -33.9020 N   0  0  0  0  0  0  0  0  0  0  0  0
   -1.5500   21.9990  -34.6150 H   0  0  0  0  0  0  0  0  0  0  0  0
   -0.5480   19.8250  -34.4870 S   0  0  0  0  0  0  0  0  0  0  0  0
    0.6770   19.5350  -33.6660 O   0  0  0  0  0  0  0  0  0  0  0  0
   -0.1290   20.0140  -35.9170 O   0  0  0  0  0  0  0  0  0  0  0  0
   -1.7040   18.4840  -34.3960 C   0  0  0  0  0  0  0  0  0  0  0  0
   -3.0660   18.7780  -34.2300 C   0  0  0  0  0  0  0  0  0  0  0  0
   -3.3881   19.8259  -34.1396 H   0  0  0  0  0  0  0  0  0  0  0  0
   -4.0200   17.7550  -34.1780 C   0  0  0  0  0  0  0  0  0  0  0  0
   -5.7250   18.1450  -33.9520 S   0  0  0  0  0  0  0  0  0  0  0  0
   -6.5550   16.9270  -34.2500 O   0  0  0  0  0  0  0  0  0  0  0  0
   -6.1110   19.2130  -34.9390 O   0  0  0  0  0  0  0  0  0  0  0  0
   -6.0790   18.7040  -32.3300 N   0  0  0  0  0  0  0  0  0  0  0  0
   -7.1210   17.8970  -31.6600 C   0  0  0  0  0  0  0  0  0  0  0  0
   -7.2104   16.9342  -32.1845 H   0  0  0  0  0  0  0  0  0  0  0  0
   -6.8134   17.7658  -30.6121 H   0  0  0  0  0  0  0  0  0  0  0  0
   -8.4980   18.5820  -31.6540 C   0  0  0  0  0  0  0  0  0  0  0  0
   -9.2847   17.8133  -31.6682 H   0  0  0  0  0  0  0  0  0  0  0  0
   -8.5852   19.1973  -30.7464 H   0  0  0  0  0  0  0  0  0  0  0  0
   -8.6410   19.4120  -32.7820 O   0  0  0  0  0  0  0  0  0  0  0  0
   -7.7840   20.5310  -32.6650 C   0  0  0  0  0  0  0  0  0  0  0  0
   -7.7611   21.0555  -33.6316 H   0  0  0  0  0  0  0  0  0  0  0  0
   -8.1834   21.1638  -31.8587 H   0  0  0  0  0  0  0  0  0  0  0  0
   -6.3340   20.1550  -32.2760 C   0  0  0  0  0  0  0  0  0  0  0  0
   -5.6438   20.6579  -32.9694 H   0  0  0  0  0  0  0  0  0  0  0  0
   -6.1793   20.4769  -31.2356 H   0  0  0  0  0  0  0  0  0  0  0  0
   -3.6120   16.4230  -34.3110 C   0  0  0  0  0  0  0  0  0  0  0  0
   -4.3587   15.6157  -34.2862 H   0  0  0  0  0  0  0  0  0  0  0  0
   -2.2610   16.1160  -34.4750 C   0  0  0  0  0  0  0  0  0  0  0  0
   -1.9508   15.0658  -34.5796 H   0  0  0  0  0  0  0  0  0  0  0  0
   -1.2930   17.1320  -34.5080 C   0  0  0  0  0  0  0  0  0  0  0  0
    0.1510   16.7520  -34.7090 C   0  0  0  0  0  0  0  0  0  0  0  0
    0.6362   16.6243  -33.7301 H   0  0  0  0  0  0  0  0  0  0  0  0
    0.2070   15.8086  -35.2718 H   0  0  0  0  0  0  0  0  0  0  0  0
    0.6641   17.5457  -35.2718 H   0  0  0  0  0  0  0  0  0  0  0  0
   -3.0910   21.5090  -32.2630 C   0  0  0  0  0  0  0  0  0  0  0  0
   -3.8174   21.4421  -33.0863 H   0  0  0  0  0  0  0  0  0  0  0  0
   -3.5450   21.6460  -30.9490 C   0  0  0  0  0  0  0  0  0  0  0  0
   -4.6258   21.6743  -30.7461 H   0  0  0  0  0  0  0  0  0  0  0  0
   -4.1060   24.1670  -28.3060 C   0  0  0  0  0  0  0  0  0  0  0  0
   -4.0536   25.1477  -27.8105 H   0  0  0  0  0  0  0  0  0  0  0  0
   -5.0560   24.0160  -29.4280 C   0  0  0  0  0  0  0  0  0  0  0  0
   -6.0780   23.0580  -29.3290 C   0  0  0  0  0  0  0  0  0  0  0  0
   -6.1685   22.4462  -28.4193 H   0  0  0  0  0  0  0  0  0  0  0  0
   -6.9810   22.8780  -30.3810 C   0  0  0  0  0  0  0  0  0  0  0  0
   -7.7877   22.1356  -30.2915 H   0  0  0  0  0  0  0  0  0  0  0  0
   -6.8600   23.6400  -31.5460 C   0  0  0  0  0  0  0  0  0  0  0  0
   -7.5778   23.5044  -32.3684 H   0  0  0  0  0  0  0  0  0  0  0  0
   -5.8280   24.5740  -31.6670 C   0  0  0  0  0  0  0  0  0  0  0  0
   -5.7301   25.1666  -32.5885 H   0  0  0  0  0  0  0  0  0  0  0  0
   -4.9180   24.7580  -30.6190 C   0  0  0  0  0  0  0  0  0  0  0  0
   -3.8730   25.6620  -30.7790 O   0  0  0  0  0  0  0  0  0  0  0  0
  1  2  1  0
  2  3  1  0
  3  4  2  0
  3  5  1  0
  5  6  2  0
  6  7  1  0
  6  8  1  0
  8  9  1  0
  8 10  2  0
 10 11  1  0
 11 12  1  0
 11 13  1  0
 13 14  2  0
 13 15  2  0
 13 16  1  0
 16 17  2  0
 17 18  1  0
 17 19  1  0
 19 20  1  0
 20 21  2  0
 20 22  2  0
 20 23  1  0
 23 24  1  0
 24 25  1  0
 24 26  1  0
 24 27  1  0
 27 28  1  0
 27 29  1  0
 27 30  1  0
 30 31  1  0
 31 32  1  0
 31 33  1  0
 31 34  1  0
 34 35  1  0
 34 36  1  0
 19 37  2  0
 37 38  1  0
 37 39  1  0
 39 40  1  0
 39 41  2  0
 41 42  1  0
 42 43  1  0
 42 44  1  0
 42 45  1  0
 10 46  1  0
 46 47  1  0
 46 48  2  0
 48 49  1  0
  2 50  2  0
 50 51  1  0
 50 52  1  0
 52 53  2  0
 53 54  1  0
 53 55  1  0
 55 56  1  0
 55 57  2  0
 57 58  1  0
 57 59  1  0
 59 60  1  0
 59 61  2  0
 61 62  1  0
 48  5  1  0
 61 52  1  0
 41 16  1  0
 34 23  1  0
M  CHG  1  62  -1
M  END
>  <UniqueID>  (14) 
14

>  <SMILES>  (14) 
Cc1ccc(S(=O)(=O)N2CCOCC2)cc1S(=O)(=O)Nc1ccc(C(=O)/C=C\c2ccccc2[O-])cc1

>  <Energy>  (14) 
90.37376463549617

>  <Genealogy>  (14) 
Cc1ccc(S(=O)(=O)N2CCOCC2)cc1S(=O)(=O)Nc1ccc(C(=O)C=Cc2ccccc2[O-])cc1 (protonated)
Cc1ccc(S(=O)(=O)N2CCOCC2)cc1S(=O)(=O)Nc1ccc(C(=O)/C=C\c2ccccc2[O-])cc1 (cis-trans isomerization)
Cc1ccc(S(=O)(=O)N2CCOCC2)cc1S(=O)(=O)Nc1ccc(C(=O)/C=C\c2ccccc2[O-])cc1 (3D coordinates assigned)
Cc1ccc(S(=O)(=O)N2CCOCC2)cc1S(=O)(=O)Nc1ccc(C(=O)/C=C\c2ccccc2[O-])cc1 (nonaromatic ring conformer: 90.37376463549617 kcal/mol)

>  <smiles>  (14) 
Cc1ccc(S(=O)(=O)N2CCOCC2)cc1S(=O)(=O)Nc1ccc(C(=O)C=Cc2ccccc2O)cc1

>  <score_type>  (14) 
oracle

>  <origin>  (14) 
adgpu

>  <m_score__min__energy>  (14) 
-14.859999999999999

>  <m_primary>  (14) 
energy

$$$$
14:0
     RDKit          3D

 49 52  0  0  0  0  0  0  0  0999 V2000
   -0.8430   26.3580  -27.0620 C   0  0  0  0  0  0  0  0  0  0  0  0
   -1.1320   24.9180  -28.0710 S   0  0  0  0  0  0  0  0  0  0  0  0
   -1.6260   23.7980  -27.1930 O   0  0  0  0  0  0  0  0  0  0  0  0
    0.1450   24.4770  -28.7350 O   0  0  0  0  0  0  0  0  0  0  0  0
   -2.3470   25.2730  -29.2660 N   0  0  0  0  0  0  0  0  0  0  0  0
   -3.2590   24.3160  -29.8230 C   0  0  0  0  0  0  0  0  0  0  0  0
   -4.6090   24.3880  -29.4620 C   0  0  0  0  0  0  0  0  0  0  0  0
   -5.5280   23.4660  -29.9680 C   0  0  0  0  0  0  0  0  0  0  0  0
   -5.0990   22.4300  -30.8000 C   0  0  0  0  0  0  0  0  0  0  0  0
   -6.0420   21.4480  -31.2190 O   0  0  0  0  0  0  0  0  0  0  0  0
   -6.9420   20.5110  -31.6180 C   0  0  0  0  0  0  0  0  0  0  0  0
   -6.7440   19.1590  -31.3080 C   0  0  0  0  0  0  0  0  0  0  0  0
   -7.6600   18.1970  -31.7500 C   0  0  0  0  0  0  0  0  0  0  0  0
   -8.7760   18.5890  -32.5010 C   0  0  0  0  0  0  0  0  0  0  0  0
   -8.9820   19.9380  -32.7970 C   0  0  0  0  0  0  0  0  0  0  0  0
   -8.0630   20.9000  -32.3610 C   0  0  0  0  0  0  0  0  0  0  0  0
   -3.7430   22.3470  -31.1820 C   0  0  0  0  0  0  0  0  0  0  0  0
   -3.2430   21.2600  -32.0480 C   0  0  0  0  0  0  0  0  0  0  0  0
   -1.9550   21.2830  -32.5960 C   0  0  0  0  0  0  0  0  0  0  0  0
   -1.5390   20.2420  -33.3630 N   0  0  0  0  0  0  0  0  0  0  0  0
   -2.3370   19.1700  -33.6180 C   0  0  0  0  0  0  0  0  0  0  0  0
   -1.8520   18.1860  -34.3110 N   0  0  0  0  0  0  0  0  0  0  0  0
   -3.6440   19.1460  -33.0720 C   0  0  0  0  0  0  0  0  0  0  0  0
   -4.6260   18.0700  -33.3310 C   0  0  0  0  0  0  0  0  0  0  0  0
   -5.6150   18.2580  -34.3100 C   0  0  0  0  0  0  0  0  0  0  0  0
   -6.4930   17.2190  -34.6340 C   0  0  0  0  0  0  0  0  0  0  0  0
   -6.3760   15.9790  -33.9970 C   0  0  0  0  0  0  0  0  0  0  0  0
   -7.2430   14.9440  -34.3230 O   0  0  0  0  0  0  0  0  0  0  0  0
   -5.3830   15.7780  -33.0330 C   0  0  0  0  0  0  0  0  0  0  0  0
   -4.5050   16.8160  -32.7070 C   0  0  0  0  0  0  0  0  0  0  0  0
   -4.0410   20.1890  -32.2950 N   0  0  0  0  0  0  0  0  0  0  0  0
   -2.8320   23.2970  -30.6900 C   0  0  0  0  0  0  0  0  0  0  0  0
   -0.8991   26.0785  -25.9996 H   0  0  0  0  0  0  0  0  0  0  0  0
    0.1548   26.7655  -27.2818 H   0  0  0  0  0  0  0  0  0  0  0  0
   -1.6063   27.1189  -27.2818 H   0  0  0  0  0  0  0  0  0  0  0  0
   -4.9490   25.1766  -28.7746 H   0  0  0  0  0  0  0  0  0  0  0  0
   -6.5935   23.5563  -29.7101 H   0  0  0  0  0  0  0  0  0  0  0  0
   -5.8682   18.8532  -30.7169 H   0  0  0  0  0  0  0  0  0  0  0  0
   -7.5039   17.1353  -31.5081 H   0  0  0  0  0  0  0  0  0  0  0  0
   -9.4909   17.8330  -32.8579 H   0  0  0  0  0  0  0  0  0  0  0  0
   -9.8672   20.2451  -33.3733 H   0  0  0  0  0  0  0  0  0  0  0  0
   -8.2217   21.9614  -32.6022 H   0  0  0  0  0  0  0  0  0  0  0  0
   -1.2863   22.1358  -32.4073 H   0  0  0  0  0  0  0  0  0  0  0  0
   -2.3730   17.3070  -34.5230 H   0  0  0  0  0  0  0  0  0  0  0  0
   -5.6994   19.2267  -34.8242 H   0  0  0  0  0  0  0  0  0  0  0  0
   -7.2761   17.3768  -35.3902 H   0  0  0  0  0  0  0  0  0  0  0  0
   -5.2928   14.8033  -32.5313 H   0  0  0  0  0  0  0  0  0  0  0  0
   -3.7158   16.6508  -31.9588 H   0  0  0  0  0  0  0  0  0  0  0  0
   -1.7742   23.2420  -30.9868 H   0  0  0  0  0  0  0  0  0  0  0  0
  1  2  1  0
  2  3  2  0
  2  4  2  0
  2  5  1  0
  5  6  1  0
  6  7  2  0
  7  8  1  0
  8  9  2  0
  9 10  1  0
 10 11  1  0
 11 12  2  0
 12 13  1  0
 13 14  2  0
 14 15  1  0
 15 16  2  0
  9 17  1  0
 17 18  1  0
 18 19  2  0
 19 20  1  0
 20 21  1  0
 21 22  2  3
 21 23  1  0
 23 24  1  0
 24 25  2  0
 25 26  1  0
 26 27  2  0
 27 28  1  0
 27 29  1  0
 29 30  2  0
 23 31  2  0
 17 32  2  0
 32  6  1  0
 16 11  1  0
 31 18  1  0
 30 24  1  0
  1 33  1  0
  1 34  1  0
  1 35  1  0
  7 36  1  0
  8 37  1  0
 12 38  1  0
 13 39  1  0
 14 40  1  0
 15 41  1  0
 16 42  1  0
 19 43  1  0
 22 44  1  0
 25 45  1  0
 26 46  1  0
 29 47  1  0
 30 48  1  0
 32 49  1  0
M  CHG  3   5  -1  20  -1  28  -1
M  END
>  <UniqueID>  (15) 
15

>  <SMILES>  (15) 
CS(=O)(=O)[N-]c1ccc(Oc2ccccc2)c(-c2c[n-]c(=N)c(-c3ccc([O-])cc3)n2)c1

>  <Energy>  (15) 
127.87921253081886

>  <Genealogy>  (15) 
CS(=O)(=O)[N-]c1ccc(Oc2ccccc2)c(-c2c[n-]c(=N)c(-c3ccc([O-])cc3)n2)c1 (protonated)
CS(=O)(=O)[N-]c1ccc(Oc2ccccc2)c(-c2c[n-]c(=N)c(-c3ccc([O-])cc3)n2)c1 (3D coordinates assigned)
CS(=O)(=O)[N-]c1ccc(Oc2ccccc2)c(-c2c[n-]c(=N)c(-c3ccc([O-])cc3)n2)c1 (optimized conformer: 127.87921253081886 kcal/mol)

>  <smiles>  (15) 
CS(=O)(=O)Nc1ccc(Oc2ccccc2)c(-c2c[nH]c(=N)c(-c3ccc(O)cc3)n2)c1

>  <score_type>  (15) 
oracle

>  <origin>  (15) 
adgpu

>  <m_score__min__energy>  (15) 
-11.58

>  <m_primary>  (15) 
energy

$$$$
15:0
     RDKit          3D

 56 59  0  0  0  0  0  0  0  0999 V2000
   -4.7770   25.3780  -31.1530 O   0  0  0  0  0  0  0  0  0  0  0  0
   -4.3760   24.3600  -30.5310 C   0  0  0  0  0  0  0  0  0  0  0  0
   -3.9590   24.4910  -29.1650 N   0  0  0  0  0  0  0  0  0  0  0  0
   -2.7430   23.9200  -28.6590 C   0  0  0  0  0  0  0  0  0  0  0  0
   -2.7110   22.5890  -28.2150 C   0  0  0  0  0  0  0  0  0  0  0  0
   -1.5290   22.0310  -27.7170 C   0  0  0  0  0  0  0  0  0  0  0  0
   -1.5440   20.3860  -27.0740 S   0  0  0  0  0  0  0  0  0  0  0  0
   -1.6030   20.4470  -25.5730 O   0  0  0  0  0  0  0  0  0  0  0  0
   -2.7890   19.6940  -27.5550 O   0  0  0  0  0  0  0  0  0  0  0  0
   -0.1610   19.4360  -27.5550 N   0  0  0  0  0  0  0  0  0  0  0  0
   -0.3850   17.9950  -27.4370 C   0  0  0  0  0  0  0  0  0  0  0  0
    0.5460   17.3310  -28.4490 C   0  0  0  0  0  0  0  0  0  0  0  0
    1.0630   18.4660  -29.3230 C   0  0  0  0  0  0  0  0  0  0  0  0
    0.1980   19.6540  -28.9510 C   0  0  0  0  0  0  0  0  0  0  0  0
   -0.3670   22.8100  -27.6640 C   0  0  0  0  0  0  0  0  0  0  0  0
   -0.3970   24.1410  -28.0850 C   0  0  0  0  0  0  0  0  0  0  0  0
   -1.5830   24.7000  -28.5740 C   0  0  0  0  0  0  0  0  0  0  0  0
   -1.5990   26.0250  -28.9860 O   0  0  0  0  0  0  0  0  0  0  0  0
   -4.3060   23.0540  -31.2150 C   0  0  0  0  0  0  0  0  0  0  0  0
   -3.0700   22.4780  -31.5480 C   0  0  0  0  0  0  0  0  0  0  0  0
   -3.0270   21.2730  -32.2570 C   0  0  0  0  0  0  0  0  0  0  0  0
   -4.2130   20.6290  -32.6250 C   0  0  0  0  0  0  0  0  0  0  0  0
   -5.4510   21.1910  -32.2830 C   0  0  0  0  0  0  0  0  0  0  0  0
   -6.9530   20.3680  -32.6920 S   0  0  0  0  0  0  0  0  0  0  0  0
   -6.8840   19.9800  -34.1410 O   0  0  0  0  0  0  0  0  0  0  0  0
   -8.1190   21.2930  -32.4880 O   0  0  0  0  0  0  0  0  0  0  0  0
   -7.1350   18.9350  -31.6990 N   0  0  0  0  0  0  0  0  0  0  0  0
   -7.9750   17.9150  -32.3530 C   0  0  0  0  0  0  0  0  0  0  0  0
   -7.2110   17.1360  -33.4480 C   0  0  0  0  0  0  0  0  0  0  0  0
   -5.8020   17.2240  -33.3370 O   0  0  0  0  0  0  0  0  0  0  0  0
   -5.4140   17.1280  -31.9870 C   0  0  0  0  0  0  0  0  0  0  0  0
   -5.8380   18.3950  -31.2330 C   0  0  0  0  0  0  0  0  0  0  0  0
   -5.4910   22.3950  -31.5720 C   0  0  0  0  0  0  0  0  0  0  0  0
   -3.6249   21.9783  -28.2591 H   0  0  0  0  0  0  0  0  0  0  0  0
   -0.1453   17.6546  -26.4188 H   0  0  0  0  0  0  0  0  0  0  0  0
   -1.4363   17.7370  -27.6324 H   0  0  0  0  0  0  0  0  0  0  0  0
    1.3795   16.8299  -27.9350 H   0  0  0  0  0  0  0  0  0  0  0  0
    0.0280   16.5612  -29.0398 H   0  0  0  0  0  0  0  0  0  0  0  0
    2.1215   18.6725  -29.1065 H   0  0  0  0  0  0  0  0  0  0  0  0
    1.0079   18.2273  -30.3954 H   0  0  0  0  0  0  0  0  0  0  0  0
    0.7607   20.5925  -29.0636 H   0  0  0  0  0  0  0  0  0  0  0  0
   -0.6880   19.7389  -29.5974 H   0  0  0  0  0  0  0  0  0  0  0  0
    0.5708   22.3730  -27.2903 H   0  0  0  0  0  0  0  0  0  0  0  0
    0.5156   24.7528  -28.0320 H   0  0  0  0  0  0  0  0  0  0  0  0
   -2.1345   22.9746  -31.2512 H   0  0  0  0  0  0  0  0  0  0  0  0
   -2.0568   20.8301  -32.5262 H   0  0  0  0  0  0  0  0  0  0  0  0
   -4.1743   19.6817  -33.1827 H   0  0  0  0  0  0  0  0  0  0  0  0
   -8.3235   17.2026  -31.5907 H   0  0  0  0  0  0  0  0  0  0  0  0
   -8.8169   18.4330  -32.8355 H   0  0  0  0  0  0  0  0  0  0  0  0
   -7.4981   16.0761  -33.3833 H   0  0  0  0  0  0  0  0  0  0  0  0
   -7.4844   17.5893  -34.4123 H   0  0  0  0  0  0  0  0  0  0  0  0
   -5.8971   16.2520  -31.5296 H   0  0  0  0  0  0  0  0  0  0  0  0
   -4.3208   17.0203  -31.9301 H   0  0  0  0  0  0  0  0  0  0  0  0
   -5.9217   18.1552  -30.1627 H   0  0  0  0  0  0  0  0  0  0  0  0
   -5.0735   19.1631  -31.4215 H   0  0  0  0  0  0  0  0  0  0  0  0
   -6.4617   22.8291  -31.2902 H   0  0  0  0  0  0  0  0  0  0  0  0
  1  2  2  0
  2  3  1  0
  3  4  1  0
  4  5  2  0
  5  6  1  0
  6  7  1  0
  7  8  2  0
  7  9  2  0
  7 10  1  0
 10 11  1  0
 11 12  1  0
 12 13  1  0
 13 14  1  0
  6 15  2  0
 15 16  1  0
 16 17  2  0
 17 18  1  0
  2 19  1  0
 19 20  2  0
 20 21  1  0
 21 22  2  0
 22 23  1  0
 23 24  1  0
 24 25  2  0
 24 26  2  0
 24 27  1  0
 27 28  1  0
 28 29  1  0
 29 30  1  0
 30 31  1  0
 31 32  1  0
 23 33  2  0
 17  4  1  0
 33 19  1  0
 14 10  1  0
 32 27  1  0
  5 34  1  0
 11 35  1  0
 11 36  1  0
 12 37  1  0
 12 38  1  0
 13 39  1  0
 13 40  1  0
 14 41  1  0
 14 42  1  0
 15 43  1  0
 16 44  1  0
 20 45  1  0
 21 46  1  0
 22 47  1  0
 28 48  1  0
 28 49  1  0
 29 50  1  0
 29 51  1  0
 31 52  1  0
 31 53  1  0
 32 54  1  0
 32 55  1  0
 33 56  1  0
M  CHG  2   3  -1  18  -1
M  END
>  <UniqueID>  (16) 
16

>  <SMILES>  (16) 
O=C([N-]c1cc(S(=O)(=O)N2CCCC2)ccc1[O-])c1cccc(S(=O)(=O)N2CCOCC2)c1

>  <Energy>  (16) 
71.72379503320579

>  <Genealogy>  (16) 
O=C([N-]c1cc(S(=O)(=O)N2CCCC2)ccc1[O-])c1cccc(S(=O)(=O)N2CCOCC2)c1 (protonated)
O=C([N-]c1cc(S(=O)(=O)N2CCCC2)ccc1[O-])c1cccc(S(=O)(=O)N2CCOCC2)c1 (3D coordinates assigned)
O=C([N-]c1cc(S(=O)(=O)N2CCCC2)ccc1[O-])c1cccc(S(=O)(=O)N2CCOCC2)c1 (nonaromatic ring conformer: 71.72379503320579 kcal/mol)

>  <smiles>  (16) 
O=C(Nc1cc(S(=O)(=O)N2CCCC2)ccc1O)c1cccc(S(=O)(=O)N2CCOCC2)c1

>  <score_type>  (16) 
oracle

>  <origin>  (16) 
adgpu

>  <m_score__min__energy>  (16) 
-14.6

>  <m_primary>  (16) 
energy

$$$$
16:0
     RDKit          3D

 44 46  0  0  0  0  0  0  0  0999 V2000
    1.2310   20.0080  -36.4440 N   0  0  0  0  0  0  0  0  0  0  0  0
    0.3010   20.0550  -35.3560 C   0  0  0  0  0  0  0  0  0  0  0  0
   -0.2760   18.8680  -34.8800 C   0  0  0  0  0  0  0  0  0  0  0  0
   -1.1920   18.8960  -33.8160 C   0  0  0  0  0  0  0  0  0  0  0  0
   -1.7800   17.6130  -33.2880 C   0  0  0  0  0  0  0  0  0  0  0  0
   -2.6840   16.9460  -34.3260 C   0  0  0  0  0  0  0  0  0  0  0  0
   -4.0750   16.9840  -33.8810 N   0  0  0  0  0  0  0  0  0  0  0  0
   -5.0720   17.8740  -34.3950 C   0  0  0  0  0  0  0  0  0  0  0  0
   -5.2780   17.9020  -35.6370 O   0  0  0  0  0  0  0  0  0  0  0  0
   -5.8870   18.7340  -33.5140 C   0  0  0  0  0  0  0  0  0  0  0  0
   -7.1730   18.3390  -33.1200 C   0  0  0  0  0  0  0  0  0  0  0  0
   -7.9280   19.1520  -32.2730 C   0  0  0  0  0  0  0  0  0  0  0  0
   -7.4070   20.3620  -31.7970 C   0  0  0  0  0  0  0  0  0  0  0  0
   -8.1640   21.1470  -30.9280 O   0  0  0  0  0  0  0  0  0  0  0  0
   -6.1100   20.7660  -32.1790 C   0  0  0  0  0  0  0  0  0  0  0  0
   -5.5310   22.0450  -31.6990 C   0  0  0  0  0  0  0  0  0  0  0  0
   -4.2020   22.0930  -31.2450 C   0  0  0  0  0  0  0  0  0  0  0  0
   -3.6510   23.3000  -30.8000 C   0  0  0  0  0  0  0  0  0  0  0  0
   -4.4190   24.4670  -30.8110 C   0  0  0  0  0  0  0  0  0  0  0  0
   -3.8700   25.6650  -30.3690 O   0  0  0  0  0  0  0  0  0  0  0  0
   -5.7390   24.4310  -31.2680 C   0  0  0  0  0  0  0  0  0  0  0  0
   -6.2940   23.2260  -31.7120 C   0  0  0  0  0  0  0  0  0  0  0  0
   -5.3550   19.9360  -33.0260 C   0  0  0  0  0  0  0  0  0  0  0  0
   -1.5150   20.1240  -33.2180 C   0  0  0  0  0  0  0  0  0  0  0  0
   -0.9440   21.3080  -33.6890 C   0  0  0  0  0  0  0  0  0  0  0  0
   -0.0400   21.2800  -34.7550 C   0  0  0  0  0  0  0  0  0  0  0  0
    0.5180   22.4700  -35.2080 O   0  0  0  0  0  0  0  0  0  0  0  0
    1.7000   20.8790  -36.7810 H   0  0  0  0  0  0  0  0  0  0  0  0
    1.4610   19.1090  -36.9220 H   0  0  0  0  0  0  0  0  0  0  0  0
   -0.0086   17.9073  -35.3442 H   0  0  0  0  0  0  0  0  0  0  0  0
   -0.9624   16.9240  -33.0297 H   0  0  0  0  0  0  0  0  0  0  0  0
   -2.3861   17.8487  -32.4008 H   0  0  0  0  0  0  0  0  0  0  0  0
   -2.5939   17.4801  -35.2834 H   0  0  0  0  0  0  0  0  0  0  0  0
   -2.3752   15.8977  -34.4509 H   0  0  0  0  0  0  0  0  0  0  0  0
   -7.5882   17.3858  -33.4793 H   0  0  0  0  0  0  0  0  0  0  0  0
   -8.9404   18.8399  -31.9769 H   0  0  0  0  0  0  0  0  0  0  0  0
   -7.7470   21.6090  -30.1280 H   0  0  0  0  0  0  0  0  0  0  0  0
   -3.5920   21.1777  -31.2394 H   0  0  0  0  0  0  0  0  0  0  0  0
   -2.6117   23.3299  -30.4410 H   0  0  0  0  0  0  0  0  0  0  0  0
   -6.3422   25.3508  -31.2787 H   0  0  0  0  0  0  0  0  0  0  0  0
   -7.3327   23.2023  -32.0732 H   0  0  0  0  0  0  0  0  0  0  0  0
   -4.3345   20.2332  -33.3093 H   0  0  0  0  0  0  0  0  0  0  0  0
   -2.2208   20.1538  -32.3748 H   0  0  0  0  0  0  0  0  0  0  0  0
   -1.2067   22.2672  -33.2191 H   0  0  0  0  0  0  0  0  0  0  0  0
  1  2  1  0
  2  3  2  0
  3  4  1  0
  4  5  1  0
  5  6  1  0
  6  7  1  0
  7  8  1  0
  8  9  2  0
  8 10  1  0
 10 11  2  0
 11 12  1  0
 12 13  2  0
 13 14  1  0
 13 15  1  0
 15 16  1  0
 16 17  2  0
 17 18  1  0
 18 19  2  0
 19 20  1  0
 19 21  1  0
 21 22  2  0
 15 23  2  0
  4 24  2  0
 24 25  1  0
 25 26  2  0
 26 27  1  0
 26  2  1  0
 23 10  1  0
 22 16  1  0
  1 28  1  0
  1 29  1  0
  3 30  1  0
  5 31  1  0
  5 32  1  0
  6 33  1  0
  6 34  1  0
 11 35  1  0
 12 36  1  0
 14 37  1  0
 17 38  1  0
 18 39  1  0
 21 40  1  0
 22 41  1  0
 23 42  1  0
 24 43  1  0
 25 44  1  0
M  CHG  3   7  -1  20  -1  27  -1
M  END
>  <UniqueID>  (17) 
17

>  <SMILES>  (17) 
Nc1cc(CC[N-]C(=O)c2ccc(O)c(-c3ccc([O-])cc3)c2)ccc1[O-]

>  <Energy>  (17) 
53.91539956760458

>  <Genealogy>  (17) 
Nc1cc(CC[N-]C(=O)c2ccc(O)c(-c3ccc([O-])cc3)c2)ccc1[O-] (protonated)
Nc1cc(CC[N-]C(=O)c2ccc(O)c(-c3ccc([O-])cc3)c2)ccc1[O-] (3D coordinates assigned)
Nc1cc(CC[N-]C(=O)c2ccc(O)c(-c3ccc([O-])cc3)c2)ccc1[O-] (optimized conformer: 53.91539956760458 kcal/mol)

>  <smiles>  (17) 
Nc1cc(CCNC(=O)c2ccc(O)c(-c3ccc(O)cc3)c2)ccc1O

>  <score_type>  (17) 
oracle

>  <origin>  (17) 
adgpu

>  <m_score__min__energy>  (17) 
-11.539999999999999

>  <m_primary>  (17) 
energy

$$$$
17:0
     RDKit          3D

 38 41  0  0  0  0  0  0  0  0999 V2000
   -0.3420   24.0870  -29.2990 O   0  0  0  0  0  0  0  0  0  0  0  0
   -1.3660   24.8170  -29.3210 C   0  0  0  0  0  0  0  0  0  0  0  0
   -1.2350   26.1900  -28.9280 N   0  0  0  0  0  0  0  0  0  0  0  0
   -0.7270   26.6550  -27.6450 C   0  0  0  0  0  0  0  0  0  0  0  0
   -0.4410   25.4800  -26.7680 C   0  0  0  0  0  0  0  0  0  0  0  0
   -1.2710   24.9930  -25.7780 C   0  0  0  0  0  0  0  0  0  0  0  0
   -0.6160   23.8990  -25.2510 C   0  0  0  0  0  0  0  0  0  0  0  0
    0.5690   23.7870  -25.9550 C   0  0  0  0  0  0  0  0  0  0  0  0
    0.6430   24.7430  -26.8540 O   0  0  0  0  0  0  0  0  0  0  0  0
   -2.6650   24.2350  -29.7260 C   0  0  0  0  0  0  0  0  0  0  0  0
   -3.6060   24.9170  -30.4020 N   0  0  0  0  0  0  0  0  0  0  0  0
   -4.6500   24.0670  -30.4720 C   0  0  0  0  0  0  0  0  0  0  0  0
   -5.9220   24.4190  -31.1820 C   0  0  0  0  0  0  0  0  0  0  0  0
   -6.4540   23.3990  -32.1800 C   0  0  0  0  0  0  0  0  0  0  0  0
   -7.0940   23.5240  -30.8080 C   0  0  0  0  0  0  0  0  0  0  0  0
   -4.4240   22.8780  -29.8720 N   0  0  0  0  0  0  0  0  0  0  0  0
   -3.1690   22.9840  -29.4000 C   0  0  0  0  0  0  0  0  0  0  0  0
   -2.4880   21.8900  -28.6810 C   0  0  0  0  0  0  0  0  0  0  0  0
   -3.0860   21.3230  -27.5430 C   0  0  0  0  0  0  0  0  0  0  0  0
   -2.4570   20.2770  -26.8580 C   0  0  0  0  0  0  0  0  0  0  0  0
   -1.2340   19.7780  -27.3170 C   0  0  0  0  0  0  0  0  0  0  0  0
   -0.6450   20.3150  -28.4670 C   0  0  0  0  0  0  0  0  0  0  0  0
    0.8750   19.6690  -29.0580 Cl  0  0  0  0  0  0  0  0  0  0  0  0
   -1.2740   21.3610  -29.1490 C   0  0  0  0  0  0  0  0  0  0  0  0
    0.1982   27.2286  -27.8029 H   0  0  0  0  0  0  0  0  0  0  0  0
   -1.4789   27.2977  -27.1638 H   0  0  0  0  0  0  0  0  0  0  0  0
   -2.2493   25.3932  -25.4733 H   0  0  0  0  0  0  0  0  0  0  0  0
   -0.9655   23.2479  -24.4361 H   0  0  0  0  0  0  0  0  0  0  0  0
    1.3341   23.0145  -25.7879 H   0  0  0  0  0  0  0  0  0  0  0  0
   -5.7258   25.5004  -31.2286 H   0  0  0  0  0  0  0  0  0  0  0  0
   -6.9989   23.7367  -33.0739 H   0  0  0  0  0  0  0  0  0  0  0  0
   -6.0126   22.5752  -32.7602 H   0  0  0  0  0  0  0  0  0  0  0  0
   -8.1025   23.9518  -30.7088 H   0  0  0  0  0  0  0  0  0  0  0  0
   -7.3079   22.8275  -29.9839 H   0  0  0  0  0  0  0  0  0  0  0  0
   -4.0550   21.7037  -27.1880 H   0  0  0  0  0  0  0  0  0  0  0  0
   -2.9243   19.8479  -25.9594 H   0  0  0  0  0  0  0  0  0  0  0  0
   -0.7345   18.9625  -26.7734 H   0  0  0  0  0  0  0  0  0  0  0  0
   -0.8143   21.7730  -30.0595 H   0  0  0  0  0  0  0  0  0  0  0  0
  1  2  2  0
  2  3  1  0
  3  4  1  0
  4  5  1  0
  5  6  2  0
  6  7  1  0
  7  8  2  0
  8  9  1  0
  2 10  1  0
 10 11  1  0
 11 12  1  0
 12 13  1  0
 13 14  1  0
 14 15  1  0
 12 16  2  0
 16 17  1  0
 17 18  1  0
 18 19  2  0
 19 20  1  0
 20 21  2  0
 21 22  1  0
 22 23  1  0
 22 24  2  0
  9  5  1  0
 17 10  2  0
 24 18  1  0
 15 13  1  0
  4 25  1  0
  4 26  1  0
  6 27  1  0
  7 28  1  0
  8 29  1  0
 13 30  1  0
 14 31  1  0
 14 32  1  0
 15 33  1  0
 15 34  1  0
 19 35  1  0
 20 36  1  0
 21 37  1  0
 24 38  1  0
M  CHG  2   3  -1  11  -1
M  END
>  <UniqueID>  (18) 
18

>  <SMILES>  (18) 
O=C([N-]Cc1ccco1)c1[n-]c(C2CC2)nc1-c1cccc(Cl)c1

>  <Energy>  (18) 
362.70812190083797

>  <Genealogy>  (18) 
O=C([N-]Cc1ccco1)c1[n-]c(C2CC2)nc1-c1cccc(Cl)c1 (protonated)
O=C([N-]Cc1ccco1)c1[n-]c(C2CC2)nc1-c1cccc(Cl)c1 (3D coordinates assigned)
O=C([N-]Cc1ccco1)c1[n-]c(C2CC2)nc1-c1cccc(Cl)c1 (nonaromatic ring conformer: 362.70812190083797 kcal/mol)

>  <smiles>  (18) 
O=C(NCc1ccco1)c1[nH]c(C2CC2)nc1-c1cccc(Cl)c1

>  <score_type>  (18) 
oracle

>  <origin>  (18) 
adgpu

>  <m_score__min__energy>  (18) 
-10.42

>  <m_primary>  (18) 
energy

$$$$
18:0
     RDKit          3D

 62 65  0  0  0  0  0  0  0  0999 V2000
    0.4200   27.5740  -23.9040 C   0  0  0  0  0  0  0  0  0  0  0  0
   -0.6390   27.8190  -24.8990 N   0  0  0  0  0  0  0  0  0  0  0  0
   -1.6720   26.7640  -24.8750 C   0  0  0  0  0  0  0  0  0  0  0  0
   -1.1570   25.4160  -25.4280 C   0  0  0  0  0  0  0  0  0  0  0  0
    0.0300   25.5810  -26.2910 N   0  0  0  0  0  0  0  0  0  0  0  0
    0.2450   24.1640  -27.2860 S   0  0  0  0  0  0  0  0  0  0  0  0
    0.9350   24.5380  -28.5710 O   0  0  0  0  0  0  0  0  0  0  0  0
    1.0940   23.1570  -26.5620 O   0  0  0  0  0  0  0  0  0  0  0  0
   -1.3280   23.4400  -27.6290 C   0  0  0  0  0  0  0  0  0  0  0  0
   -1.5990   22.1250  -27.2260 C   0  0  0  0  0  0  0  0  0  0  0  0
   -2.8220   21.5310  -27.5410 C   0  0  0  0  0  0  0  0  0  0  0  0
   -3.7910   22.2500  -28.2440 C   0  0  0  0  0  0  0  0  0  0  0  0
   -3.5510   23.5750  -28.6270 C   0  0  0  0  0  0  0  0  0  0  0  0
   -4.5760   24.2760  -29.3430 N   0  0  0  0  0  0  0  0  0  0  0  0
   -4.5900   24.4950  -30.7570 C   0  0  0  0  0  0  0  0  0  0  0  0
   -4.4740   25.6610  -31.2210 O   0  0  0  0  0  0  0  0  0  0  0  0
   -4.8270   23.3880  -31.6320 N   0  0  0  0  0  0  0  0  0  0  0  0
   -6.0710   22.6820  -31.7400 C   0  0  0  0  0  0  0  0  0  0  0  0
   -7.2540   23.4220  -31.8110 C   0  0  0  0  0  0  0  0  0  0  0  0
   -8.4830   22.7750  -31.9280 C   0  0  0  0  0  0  0  0  0  0  0  0
   -8.5470   21.3810  -31.9710 C   0  0  0  0  0  0  0  0  0  0  0  0
   -9.7910   20.7740  -32.1050 O   0  0  0  0  0  0  0  0  0  0  0  0
   -7.3680   20.6130  -31.8790 C   0  0  0  0  0  0  0  0  0  0  0  0
   -7.4420   18.8350  -31.9530 S   0  0  0  0  0  0  0  0  0  0  0  0
   -8.8460   18.3750  -31.6780 O   0  0  0  0  0  0  0  0  0  0  0  0
   -6.5610   18.2470  -30.8860 O   0  0  0  0  0  0  0  0  0  0  0  0
   -6.9420   18.2260  -33.5150 N   0  0  0  0  0  0  0  0  0  0  0  0
   -5.7090   18.8990  -33.9670 C   0  0  0  0  0  0  0  0  0  0  0  0
   -4.9960   18.0590  -35.0400 C   0  0  0  0  0  0  0  0  0  0  0  0
   -4.6030   16.7650  -34.5940 O   0  0  0  0  0  0  0  0  0  0  0  0
   -5.3740   16.2760  -33.5040 C   0  0  0  0  0  0  0  0  0  0  0  0
   -6.8370   16.7500  -33.5330 C   0  0  0  0  0  0  0  0  0  0  0  0
   -6.1310   21.2740  -31.7260 C   0  0  0  0  0  0  0  0  0  0  0  0
   -4.9670   20.5380  -31.5240 O   0  0  0  0  0  0  0  0  0  0  0  0
   -2.2970   24.1600  -28.3520 C   0  0  0  0  0  0  0  0  0  0  0  0
   -1.9970   25.4340  -28.8250 O   0  0  0  0  0  0  0  0  0  0  0  0
   -0.0980   26.7740  -27.1360 C   0  0  0  0  0  0  0  0  0  0  0  0
   -0.0940   28.0430  -26.2600 C   0  0  0  0  0  0  0  0  0  0  0  0
    0.0013   27.6709  -22.8914 H   0  0  0  0  0  0  0  0  0  0  0  0
    0.8222   26.5591  -24.0389 H   0  0  0  0  0  0  0  0  0  0  0  0
    1.2271   28.3092  -24.0389 H   0  0  0  0  0  0  0  0  0  0  0  0
   -2.0006   26.6161  -23.8357 H   0  0  0  0  0  0  0  0  0  0  0  0
   -2.5004   27.0939  -25.5191 H   0  0  0  0  0  0  0  0  0  0  0  0
   -0.8916   24.7648  -24.5821 H   0  0  0  0  0  0  0  0  0  0  0  0
   -1.9584   24.9746  -26.0387 H   0  0  0  0  0  0  0  0  0  0  0  0
   -0.8449   21.5592  -26.6593 H   0  0  0  0  0  0  0  0  0  0  0  0
   -3.0232   20.4938  -27.2347 H   0  0  0  0  0  0  0  0  0  0  0  0
   -4.7487   21.7724  -28.4984 H   0  0  0  0  0  0  0  0  0  0  0  0
   -7.2153   24.5207  -31.7744 H   0  0  0  0  0  0  0  0  0  0  0  0
   -9.4085   23.3666  -31.9868 H   0  0  0  0  0  0  0  0  0  0  0  0
   -5.9673   19.8812  -34.3895 H   0  0  0  0  0  0  0  0  0  0  0  0
   -5.0352   19.0204  -33.1060 H   0  0  0  0  0  0  0  0  0  0  0  0
   -5.6778   17.9383  -35.8947 H   0  0  0  0  0  0  0  0  0  0  0  0
   -4.0748   18.5978  -35.3068 H   0  0  0  0  0  0  0  0  0  0  0  0
   -5.3625   15.1765  -33.5336 H   0  0  0  0  0  0  0  0  0  0  0  0
   -4.9218   16.6704  -32.5820 H   0  0  0  0  0  0  0  0  0  0  0  0
   -7.3150   16.3711  -34.4484 H   0  0  0  0  0  0  0  0  0  0  0  0
   -7.3375   16.3628  -32.6332 H   0  0  0  0  0  0  0  0  0  0  0  0
    0.7465   26.8144  -27.8397 H   0  0  0  0  0  0  0  0  0  0  0  0
   -1.0452   26.7224  -27.6929 H   0  0  0  0  0  0  0  0  0  0  0  0
    0.9425   28.3993  -26.1666 H   0  0  0  0  0  0  0  0  0  0  0  0
   -0.7436   28.7810  -26.7533 H   0  0  0  0  0  0  0  0  0  0  0  0
  1  2  1  0
  2  3  1  0
  3  4  1  0
  4  5  1  0
  5  6  1  0
  6  7  2  0
  6  8  2  0
  6  9  1  0
  9 10  2  0
 10 11  1  0
 11 12  2  0
 12 13  1  0
 13 14  1  0
 14 15  1  0
 15 16  2  0
 15 17  1  0
 17 18  1  0
 18 19  2  0
 19 20  1  0
 20 21  2  0
 21 22  1  0
 21 23  1  0
 23 24  1  0
 24 25  2  0
 24 26  2  0
 24 27  1  0
 27 28  1  0
 28 29  1  0
 29 30  1  0
 30 31  1  0
 31 32  1  0
 23 33  2  0
 33 34  1  0
 13 35  2  0
 35 36  1  0
  5 37  1  0
 37 38  1  0
 38  2  1  0
 35  9  1  0
 33 18  1  0
 32 27  1  0
  1 39  1  0
  1 40  1  0
  1 41  1  0
  3 42  1  0
  3 43  1  0
  4 44  1  0
  4 45  1  0
 10 46  1  0
 11 47  1  0
 12 48  1  0
 19 49  1  0
 20 50  1  0
 28 51  1  0
 28 52  1  0
 29 53  1  0
 29 54  1  0
 31 55  1  0
 31 56  1  0
 32 57  1  0
 32 58  1  0
 37 59  1  0
 37 60  1  0
 38 61  1  0
 38 62  1  0
M  CHG  5  14  -1  17  -1  22  -1  34  -1  36  -1
M  END
>  <UniqueID>  (19) 
19

>  <SMILES>  (19) 
CN1CCN(S(=O)(=O)c2cccc([N-]C(=O)[N-]c3ccc([O-])c(S(=O)(=O)N4CCOCC4)c3[O-])c2[O-])CC1

>  <Energy>  (19) 
98.63135927462727

>  <Genealogy>  (19) 
CN1CCN(S(=O)(=O)c2cccc([N-]C(=O)[N-]c3ccc([O-])c(S(=O)(=O)N4CCOCC4)c3[O-])c2[O-])CC1 (protonated)
CN1CCN(S(=O)(=O)c2cccc([N-]C(=O)[N-]c3ccc([O-])c(S(=O)(=O)N4CCOCC4)c3[O-])c2[O-])CC1 (3D coordinates assigned)
CN1CCN(S(=O)(=O)c2cccc([N-]C(=O)[N-]c3ccc([O-])c(S(=O)(=O)N4CCOCC4)c3[O-])c2[O-])CC1 (nonaromatic ring conformer: 98.63135927462727 kcal/mol)

>  <smiles>  (19) 
CN1CCN(S(=O)(=O)c2cccc(NC(=O)Nc3ccc(O)c(S(=O)(=O)N4CCOCC4)c3O)c2O)CC1

>  <score_type>  (19) 
oracle

>  <origin>  (19) 
adgpu

>  <m_score__min__energy>  (19) 
-16.510000000000002

>  <m_primary>  (19) 
energy

$$$$
19:0
     RDKit          3D

 59 62  0  0  1  0  0  0  0  0999 V2000
   -9.8700   21.1580  -31.9510 C   0  0  0  0  0  0  0  0  0  0  0  0
   -8.7280   20.7290  -32.6680 O   0  0  0  0  0  0  0  0  0  0  0  0
   -7.4840   21.2260  -32.3440 C   0  0  0  0  0  0  0  0  0  0  0  0
   -7.2730   22.5940  -32.2660 C   0  0  0  0  0  0  0  0  0  0  0  0
   -6.0430   23.1270  -31.9420 C   0  0  0  0  0  0  0  0  0  0  0  0
   -5.0060   22.2560  -31.6950 C   0  0  0  0  0  0  0  0  0  0  0  0
   -3.7460   22.8360  -31.3630 N   0  0  0  0  0  0  0  0  0  0  0  0
   -3.5320   23.3910  -30.2270 C   0  0  0  0  0  0  0  0  0  0  0  0
   -4.5160   23.4580  -29.2570 C   0  0  0  0  0  0  0  0  0  0  0  0
   -4.2010   24.0740  -28.0630 C   0  0  0  0  0  0  0  0  0  0  0  0
   -2.9920   24.6050  -27.8010 N   0  0  0  0  0  0  0  0  0  0  0  0
   -2.0540   24.5250  -28.7630 C   0  0  0  0  0  0  0  0  0  0  0  0
   -0.8680   25.0070  -28.5980 N   0  0  0  0  0  0  0  0  0  0  0  0
   -0.4810   25.6440  -27.4110 C   0  0  0  0  0  0  0  0  0  0  0  0
   -0.5600   27.0140  -27.1980 C   0  0  0  0  0  0  0  0  0  0  0  0
   -0.1650   27.5910  -26.0070 C   0  0  0  0  0  0  0  0  0  0  0  0
    0.3270   26.7710  -24.9890 C   0  0  0  0  0  0  0  0  0  0  0  0
    0.8440   27.4510  -23.4540 S   0  0  0  0  0  0  0  0  0  0  0  0
    2.3550   26.7270  -23.0320 N   0  0  0  0  0  0  0  0  0  0  0  0
   -0.2040   27.2120  -22.4010 O   0  0  0  0  0  0  0  0  0  0  0  0
    1.0720   28.9340  -23.6460 O   0  0  0  0  0  0  0  0  0  0  0  0
    0.4130   25.4070  -25.1800 C   0  0  0  0  0  0  0  0  0  0  0  0
    0.0140   24.8410  -26.3800 C   0  0  0  0  0  0  0  0  0  0  0  0
   -2.3400   23.9270  -29.9390 N   0  0  0  0  0  0  0  0  0  0  0  0
   -5.2170   20.9190  -31.7740 C   0  0  0  0  0  0  0  0  0  0  0  0
   -6.4570   20.3550  -32.1010 C   0  0  0  0  0  0  0  0  0  0  0  0
   -6.5720   18.6260  -32.1850 S   0  0  0  0  0  0  0  0  0  0  0  0
   -6.4530   18.0070  -30.8060 O   0  0  0  0  0  0  0  0  0  0  0  0
   -7.9480   18.1970  -32.6730 O   0  0  0  0  0  0  0  0  0  0  0  0
   -5.4260   17.9060  -33.1770 N   0  0  0  0  0  0  0  0  0  0  0  0
   -5.5960   18.2760  -34.5530 C   0  0  0  0  0  0  0  0  0  0  0  0
   -4.6490   17.4590  -35.4300 C   0  0  0  0  0  0  0  0  0  0  0  0
   -3.5220   17.1890  -34.6800 O   0  0  0  0  0  0  0  0  0  0  0  0
   -3.7300   16.3160  -33.6290 C   0  0  0  0  0  0  0  0  0  0  0  0
   -5.1070   16.5370  -32.9940 C   0  0  0  0  0  0  0  0  0  0  0  0
   -9.6740   21.0844  -30.8711 H   0  0  0  0  0  0  0  0  0  0  0  0
  -10.0960   22.2023  -32.2123 H   0  0  0  0  0  0  0  0  0  0  0  0
  -10.7277   20.5208  -32.2123 H   0  0  0  0  0  0  0  0  0  0  0  0
   -8.1125   23.2753  -32.4688 H   0  0  0  0  0  0  0  0  0  0  0  0
   -5.8950   24.2154  -31.8827 H   0  0  0  0  0  0  0  0  0  0  0  0
   -5.5161   23.0344  -29.4316 H   0  0  0  0  0  0  0  0  0  0  0  0
   -4.9772   24.1342  -27.2859 H   0  0  0  0  0  0  0  0  0  0  0  0
   -2.7400   25.0670  -26.9170 H   0  0  0  0  0  0  0  0  0  0  0  0
   -0.9483   27.6580  -28.0008 H   0  0  0  0  0  0  0  0  0  0  0  0
   -0.2367   28.6791  -25.8624 H   0  0  0  0  0  0  0  0  0  0  0  0
    2.2130   25.7210  -22.7740 H   0  0  0  0  0  0  0  0  0  0  0  0
    2.7520   27.1930  -22.1860 H   0  0  0  0  0  0  0  0  0  0  0  0
    0.8006   24.7654  -24.3749 H   0  0  0  0  0  0  0  0  0  0  0  0
    0.0873   23.7527  -26.5221 H   0  0  0  0  0  0  0  0  0  0  0  0
   -1.6020   23.8740  -30.6740 H   0  0  0  0  0  0  0  0  0  0  0  0
   -4.3727   20.2437  -31.5713 H   0  0  0  0  0  0  0  0  0  0  0  0
   -6.6349   18.0814  -34.8577 H   0  0  0  0  0  0  0  0  0  0  0  0
   -5.3687   19.3457  -34.6719 H   0  0  0  0  0  0  0  0  0  0  0  0
   -5.1335   16.5189  -35.7324 H   0  0  0  0  0  0  0  0  0  0  0  0
   -4.3852   18.0163  -36.3410 H   0  0  0  0  0  0  0  0  0  0  0  0
   -3.6678   15.2830  -34.0020 H   0  0  0  0  0  0  0  0  0  0  0  0
   -2.9594   16.4978  -32.8654 H   0  0  0  0  0  0  0  0  0  0  0  0
   -5.8583   15.9035  -33.4882 H   0  0  0  0  0  0  0  0  0  0  0  0
   -5.0969   16.2728  -31.9262 H   0  0  0  0  0  0  0  0  0  0  0  0
  1  2  1  0
  2  3  1  0
  3  4  2  0
  4  5  1  0
  5  6  2  0
  6  7  1  0
  7  8  2  0
  8  9  1  0
  9 10  2  0
 10 11  1  0
 11 12  1  0
 12 13  2  0
 13 14  1  0
 14 15  2  0
 15 16  1  0
 16 17  2  0
 17 18  1  0
 18 19  1  0
 18 20  2  0
 18 21  2  0
 17 22  1  0
 22 23  2  0
 12 24  1  0
  6 25  1  0
 25 26  2  0
 26 27  1  0
 27 28  2  0
 27 29  2  0
 27 30  1  0
 30 31  1  0
 31 32  1  0
 32 33  1  0
 33 34  1  0
 34 35  1  0
 26  3  1  0
 35 30  1  0
 24  8  1  0
 23 14  1  0
  1 36  1  0
  1 37  1  0
  1 38  1  0
  4 39  1  0
  5 40  1  0
  9 41  1  0
 10 42  1  0
 11 43  1  0
 15 44  1  0
 16 45  1  0
 19 46  1  0
 19 47  1  0
 22 48  1  0
 23 49  1  0
 24 50  1  0
 25 51  1  0
 31 52  1  0
 31 53  1  0
 32 54  1  0
 32 55  1  0
 34 56  1  0
 34 57  1  0
 35 58  1  0
 35 59  1  0
M  END
>  <smiles>  (20) 
COc1ccc(N=c2cc[nH]c(=Nc3ccc(S(N)(=O)=O)cc3)[nH]2)cc1S(=O)(=O)N1CCOCC1

>  <score_type>  (20) 
oracle

>  <origin>  (20) 
adgpu

>  <m_score__min__energy>  (20) 
-10.43

>  <m_primary>  (20) 
energy

$$$$
20:0
     RDKit          3D

 53 56  0  0  0  0  0  0  0  0999 V2000
    1.2240   28.2090  -22.7920 N   0  0  0  0  0  0  0  0  0  0  0  0
    1.1240   27.7580  -24.4480 S   0  0  0  0  0  0  0  0  0  0  0  0
    0.1730   28.6640  -25.1620 O   0  0  0  0  0  0  0  0  0  0  0  0
    2.4770   27.8880  -25.0870 O   0  0  0  0  0  0  0  0  0  0  0  0
    0.5540   26.0950  -24.5790 C   0  0  0  0  0  0  0  0  0  0  0  0
   -0.7910   25.8190  -24.8390 C   0  0  0  0  0  0  0  0  0  0  0  0
   -1.2350   24.4980  -24.9450 C   0  0  0  0  0  0  0  0  0  0  0  0
   -0.3420   23.4280  -24.7700 C   0  0  0  0  0  0  0  0  0  0  0  0
   -0.8420   22.0000  -24.8570 C   0  0  0  0  0  0  0  0  0  0  0  0
   -0.4920   21.3200  -26.1270 N   0  0  0  0  0  0  0  0  0  0  0  0
   -1.5870   20.4920  -26.7080 C   0  0  0  0  0  0  0  0  0  0  0  0
   -1.9210   20.7860  -28.1840 C   0  0  0  0  0  0  0  0  0  0  0  0
   -1.7800   22.2500  -28.4910 C   0  0  0  0  0  0  0  0  0  0  0  0
   -2.6890   22.9230  -29.3180 C   0  0  0  0  0  0  0  0  0  0  0  0
   -2.5380   24.3030  -29.5700 C   0  0  0  0  0  0  0  0  0  0  0  0
   -3.4960   25.0600  -30.3130 N   0  0  0  0  0  0  0  0  0  0  0  0
   -5.2250   25.0150  -30.1740 S   0  0  0  0  0  0  0  0  0  0  0  0
   -5.5760   25.0290  -28.7250 O   0  0  0  0  0  0  0  0  0  0  0  0
   -5.8050   26.2430  -30.8180 O   0  0  0  0  0  0  0  0  0  0  0  0
   -5.9130   23.5550  -30.8850 C   0  0  0  0  0  0  0  0  0  0  0  0
   -5.1790   22.8240  -31.8150 C   0  0  0  0  0  0  0  0  0  0  0  0
   -5.7240   21.6650  -32.3810 C   0  0  0  0  0  0  0  0  0  0  0  0
   -7.0160   21.2460  -32.0380 C   0  0  0  0  0  0  0  0  0  0  0  0
   -7.6930   19.8000  -32.7620 Cl  0  0  0  0  0  0  0  0  0  0  0  0
   -7.7610   21.9800  -31.1100 C   0  0  0  0  0  0  0  0  0  0  0  0
   -7.2080   23.1280  -30.5330 C   0  0  0  0  0  0  0  0  0  0  0  0
   -1.4070   24.9660  -29.0670 C   0  0  0  0  0  0  0  0  0  0  0  0
   -1.2090   26.3170  -29.3370 O   0  0  0  0  0  0  0  0  0  0  0  0
   -0.4720   24.2790  -28.2820 C   0  0  0  0  0  0  0  0  0  0  0  0
   -0.6780   22.9280  -27.9730 C   0  0  0  0  0  0  0  0  0  0  0  0
    0.2610   22.1640  -27.0810 C   0  0  0  0  0  0  0  0  0  0  0  0
    1.0040   23.7150  -24.5150 C   0  0  0  0  0  0  0  0  0  0  0  0
    1.4450   25.0380  -24.4150 C   0  0  0  0  0  0  0  0  0  0  0  0
    1.5230   27.3550  -22.2630 H   0  0  0  0  0  0  0  0  0  0  0  0
    0.2620   28.4440  -22.4810 H   0  0  0  0  0  0  0  0  0  0  0  0
   -1.5050   26.6469  -24.9610 H   0  0  0  0  0  0  0  0  0  0  0  0
   -2.2929   24.2945  -25.1674 H   0  0  0  0  0  0  0  0  0  0  0  0
   -0.4046   21.4281  -24.0254 H   0  0  0  0  0  0  0  0  0  0  0  0
   -1.9401   22.0414  -24.8077 H   0  0  0  0  0  0  0  0  0  0  0  0
   -1.2922   19.4351  -26.6300 H   0  0  0  0  0  0  0  0  0  0  0  0
   -2.4930   20.7395  -26.1353 H   0  0  0  0  0  0  0  0  0  0  0  0
   -1.2344   20.2165  -28.8277 H   0  0  0  0  0  0  0  0  0  0  0  0
   -2.9635   20.4893  -28.3713 H   0  0  0  0  0  0  0  0  0  0  0  0
   -3.5252   22.3723  -29.7734 H   0  0  0  0  0  0  0  0  0  0  0  0
   -4.1714   23.1567  -32.1050 H   0  0  0  0  0  0  0  0  0  0  0  0
   -5.1332   21.0791  -33.1004 H   0  0  0  0  0  0  0  0  0  0  0  0
   -8.7759   21.6566  -30.8353 H   0  0  0  0  0  0  0  0  0  0  0  0
   -7.7901   23.7026  -29.7975 H   0  0  0  0  0  0  0  0  0  0  0  0
    0.4224   24.7993  -27.9088 H   0  0  0  0  0  0  0  0  0  0  0  0
    0.9048   21.5221  -27.7003 H   0  0  0  0  0  0  0  0  0  0  0  0
    0.8703   22.8820  -26.5124 H   0  0  0  0  0  0  0  0  0  0  0  0
    1.7223   22.8911  -24.3920 H   0  0  0  0  0  0  0  0  0  0  0  0
    2.5047   25.2454  -24.2050 H   0  0  0  0  0  0  0  0  0  0  0  0
  1  2  1  0
  2  3  2  0
  2  4  2  0
  2  5  1  0
  5  6  2  0
  6  7  1  0
  7  8  2  0
  8  9  1  0
  9 10  1  0
 10 11  1  0
 11 12  1  0
 12 13  1  0
 13 14  2  0
 14 15  1  0
 15 16  1  0
 16 17  1  0
 17 18  2  0
 17 19  2  0
 17 20  1  0
 20 21  2  0
 21 22  1  0
 22 23  2  0
 23 24  1  0
 23 25  1  0
 25 26  2  0
 15 27  2  0
 27 28  1  0
 27 29  1  0
 29 30  2  0
 30 31  1  0
  8 32  1  0
 32 33  2  0
 33  5  1  0
 31 10  1  0
 30 13  1  0
 26 20  1  0
  1 34  1  0
  1 35  1  0
  6 36  1  0
  7 37  1  0
  9 38  1  0
  9 39  1  0
 11 40  1  0
 11 41  1  0
 12 42  1  0
 12 43  1  0
 14 44  1  0
 21 45  1  0
 22 46  1  0
 25 47  1  0
 26 48  1  0
 29 49  1  0
 31 50  1  0
 31 51  1  0
 32 52  1  0
 33 53  1  0
M  CHG  2  16  -1  28  -1
M  END
>  <UniqueID>  (21) 
20

>  <SMILES>  (21) 
NS(=O)(=O)c1ccc(CN2CCc3cc([N-]S(=O)(=O)c4ccc(Cl)cc4)c([O-])cc3C2)cc1

>  <Energy>  (21) 
69.04916323566539

>  <Genealogy>  (21) 
NS(=O)(=O)c1ccc(CN2CCc3cc([N-]S(=O)(=O)c4ccc(Cl)cc4)c([O-])cc3C2)cc1 (protonated)
NS(=O)(=O)c1ccc(CN2CCc3cc([N-]S(=O)(=O)c4ccc(Cl)cc4)c([O-])cc3C2)cc1 (3D coordinates assigned)
NS(=O)(=O)c1ccc(CN2CCc3cc([N-]S(=O)(=O)c4ccc(Cl)cc4)c([O-])cc3C2)cc1 (nonaromatic ring conformer: 69.04916323566539 kcal/mol)

>  <smiles>  (21) 
NS(=O)(=O)c1ccc(CN2CCc3cc(NS(=O)(=O)c4ccc(Cl)cc4)c(O)cc3C2)cc1

>  <score_type>  (21) 
oracle

>  <origin>  (21) 
adgpu

>  <m_score__min__energy>  (21) 
-15.16

>  <m_primary>  (21) 
energy

$$$$
21:0
     RDKit          3D

 45 49  0  0  0  0  0  0  0  0999 V2000
   -4.0690   25.5550  -29.6490 H   0  0  0  0  0  0  0  0  0  0  0  0
   -3.9220   24.9170  -30.4700 N   0  0  0  0  0  0  0  0  0  0  0  0
   -3.2330   23.8270  -30.3680 C   0  0  0  0  0  0  0  0  0  0  0  0
   -2.6840   23.4700  -29.1780 N   0  0  0  0  0  0  0  0  0  0  0  0
   -1.9330   22.3420  -29.0600 C   0  0  0  0  0  0  0  0  0  0  0  0
   -1.2750   21.9370  -27.4850 Cl  0  0  0  0  0  0  0  0  0  0  0  0
   -1.6840   21.5480  -30.1940 C   0  0  0  0  0  0  0  0  0  0  0  0
   -2.3160   21.8980  -31.3870 C   0  0  0  0  0  0  0  0  0  0  0  0
   -3.0700   23.0270  -31.4540 N   0  0  0  0  0  0  0  0  0  0  0  0
   -2.2320   21.0230  -32.5140 N   0  0  0  0  0  0  0  0  0  0  0  0
   -3.4370   20.4300  -33.0250 C   0  0  0  0  0  0  0  0  0  0  0  0
   -4.6480   21.1350  -32.9530 C   0  0  0  0  0  0  0  0  0  0  0  0
   -4.6594   22.1618  -32.5587 H   0  0  0  0  0  0  0  0  0  0  0  0
   -5.8380   20.5430  -33.3780 C   0  0  0  0  0  0  0  0  0  0  0  0
   -6.7809   21.1073  -33.3281 H   0  0  0  0  0  0  0  0  0  0  0  0
   -5.8330   19.2390  -33.8650 C   0  0  0  0  0  0  0  0  0  0  0  0
   -6.7722   18.7738  -34.1991 H   0  0  0  0  0  0  0  0  0  0  0  0
   -4.6380   18.5210  -33.9300 C   0  0  0  0  0  0  0  0  0  0  0  0
   -4.6410   17.4879  -34.3077 H   0  0  0  0  0  0  0  0  0  0  0  0
   -3.4340   19.1080  -33.5170 C   0  0  0  0  0  0  0  0  0  0  0  0
   -2.2000   18.3020  -33.5480 C   0  0  0  0  0  0  0  0  0  0  0  0
   -1.6380   17.8440  -32.3470 C   0  0  0  0  0  0  0  0  0  0  0  0
   -2.1033   18.1100  -31.3864 H   0  0  0  0  0  0  0  0  0  0  0  0
   -0.4860   17.0490  -32.3690 C   0  0  0  0  0  0  0  0  0  0  0  0
   -0.0434   16.6967  -31.4256 H   0  0  0  0  0  0  0  0  0  0  0  0
    0.1030   16.7020  -33.5900 C   0  0  0  0  0  0  0  0  0  0  0  0
    1.0080   16.0769  -33.6061 H   0  0  0  0  0  0  0  0  0  0  0  0
   -0.4590   17.1500  -34.7900 C   0  0  0  0  0  0  0  0  0  0  0  0
    0.0032   16.8744  -35.7494 H   0  0  0  0  0  0  0  0  0  0  0  0
   -1.6080   17.9480  -34.7720 C   0  0  0  0  0  0  0  0  0  0  0  0
   -2.0483   18.2986  -35.7171 H   0  0  0  0  0  0  0  0  0  0  0  0
   -0.9790   20.8680  -33.1960 C   0  0  0  0  0  0  0  0  0  0  0  0
   -0.9300   21.1070  -34.5850 C   0  0  0  0  0  0  0  0  0  0  0  0
   -1.8535   21.3668  -35.1231 H   0  0  0  0  0  0  0  0  0  0  0  0
    0.2700   21.0190  -35.2850 C   0  0  0  0  0  0  0  0  0  0  0  0
    0.2926   21.2138  -36.3674 H   0  0  0  0  0  0  0  0  0  0  0  0
    1.4440   20.6830  -34.6100 C   0  0  0  0  0  0  0  0  0  0  0  0
    2.3938   20.6165  -35.1608 H   0  0  0  0  0  0  0  0  0  0  0  0
    1.4160   20.4310  -33.2370 C   0  0  0  0  0  0  0  0  0  0  0  0
    2.3465   20.1553  -32.7191 H   0  0  0  0  0  0  0  0  0  0  0  0
    0.2130   20.5240  -32.5010 C   0  0  0  0  0  0  0  0  0  0  0  0
    0.2560   20.1730  -31.0430 C   0  0  0  0  0  0  0  0  0  0  0  0
    1.3110   19.6410  -30.5770 O   0  0  0  0  0  0  0  0  0  0  0  0
   -0.8370   20.3920  -30.1330 N   0  0  0  0  0  0  0  0  0  0  0  0
   -0.8000   19.8640  -29.2310 H   0  0  0  0  0  0  0  0  0  0  0  0
  1  2  1  0
  2  3  2  0
  3  4  1  0
  4  5  2  0
  5  6  1  0
  5  7  1  0
  7  8  2  0
  8  9  1  0
  8 10  1  0
 10 11  1  0
 11 12  2  0
 12 13  1  0
 12 14  1  0
 14 15  1  0
 14 16  2  0
 16 17  1  0
 16 18  1  0
 18 19  1  0
 18 20  2  0
 20 21  1  0
 21 22  2  0
 22 23  1  0
 22 24  1  0
 24 25  1  0
 24 26  2  0
 26 27  1  0
 26 28  1  0
 28 29  1  0
 28 30  2  0
 30 31  1  0
 10 32  1  0
 32 33  2  0
 33 34  1  0
 33 35  1  0
 35 36  1  0
 35 37  2  0
 37 38  1  0
 37 39  1  0
 39 40  1  0
 39 41  2  0
 41 42  1  0
 42 43  2  0
 42 44  1  0
 44 45  1  0
  9  3  1  0
 20 11  1  0
 30 21  1  0
 41 32  1  0
 44  7  1  0
M  CHG  1   9  -1
M  END
>  <UniqueID>  (22) 
21

>  <SMILES>  (22) 
[H]/N=c1\nc(Cl)c2c([n-]1)N(c1ccccc1-c1ccccc1)c1ccccc1C(=O)N2

>  <Energy>  (22) 
88.07803826163068

>  <Genealogy>  (22) 
N=c1nc(Cl)c2c([n-]1)N(c1ccccc1-c1ccccc1)c1ccccc1C(=O)N2 (protonated)
[H]/N=c1\nc(Cl)c2c([n-]1)N(c1ccccc1-c1ccccc1)c1ccccc1C(=O)N2 (cis-trans isomerization)
[H]/N=c1\nc(Cl)c2c([n-]1)N(c1ccccc1-c1ccccc1)c1ccccc1C(=O)N2 (3D coordinates assigned)
[H]/N=c1\nc(Cl)c2c([n-]1)N(c1ccccc1-c1ccccc1)c1ccccc1C(=O)N2 (nonaromatic ring conformer: 88.07803826163068 kcal/mol)

>  <smiles>  (22) 
N=c1nc(Cl)c2c([nH]1)N(c1ccccc1-c1ccccc1)c1ccccc1C(=O)N2

>  <score_type>  (22) 
oracle

>  <origin>  (22) 
adgpu

>  <m_score__min__energy>  (22) 
-8.5099999999999998

>  <m_primary>  (22) 
energy

$$$$
22:0
     RDKit          3D

 55 58  0  0  0  0  0  0  0  0999 V2000
   -8.8690   21.7670  -31.5780 C   0  0  0  0  0  0  0  0  0  0  0  0
   -7.3940   22.0620  -31.5780 C   0  0  0  0  0  0  0  0  0  0  0  0
   -6.9060   23.1880  -30.8910 C   0  0  0  0  0  0  0  0  0  0  0  0
   -5.5390   23.4940  -30.9010 C   0  0  0  0  0  0  0  0  0  0  0  0
   -4.9340   24.9280  -30.0670 S   0  0  0  0  0  0  0  0  0  0  0  0
   -5.5770   24.9860  -28.7080 O   0  0  0  0  0  0  0  0  0  0  0  0
   -5.3090   26.1690  -30.8380 O   0  0  0  0  0  0  0  0  0  0  0  0
   -3.2090   24.8820  -29.8630 N   0  0  0  0  0  0  0  0  0  0  0  0
   -2.5040   23.9650  -29.0150 C   0  0  0  0  0  0  0  0  0  0  0  0
   -1.8190   22.8600  -29.5500 C   0  0  0  0  0  0  0  0  0  0  0  0
   -1.2000   21.9210  -28.7070 C   0  0  0  0  0  0  0  0  0  0  0  0
   -0.5690   20.7080  -29.2810 C   0  0  0  0  0  0  0  0  0  0  0  0
   -0.0200   19.8700  -28.5100 O   0  0  0  0  0  0  0  0  0  0  0  0
   -0.5210   20.4940  -30.7030 N   0  0  0  0  0  0  0  0  0  0  0  0
    0.6570   19.8490  -31.2980 C   0  0  0  0  0  0  0  0  0  0  0  0
    0.9220   20.4280  -32.6890 C   0  0  0  0  0  0  0  0  0  0  0  0
   -0.3240   20.4280  -33.4670 N   0  0  0  0  0  0  0  0  0  0  0  0
   -0.4870   19.5470  -34.5930 C   0  0  0  0  0  0  0  0  0  0  0  0
   -1.4860   18.7760  -34.6430 O   0  0  0  0  0  0  0  0  0  0  0  0
    0.4980   19.5310  -35.6920 C   0  0  0  0  0  0  0  0  0  0  0  0
    0.5930   18.4980  -36.6400 C   0  0  0  0  0  0  0  0  0  0  0  0
    1.6040   18.6860  -37.5730 C   0  0  0  0  0  0  0  0  0  0  0  0
    2.3800   20.1300  -37.2120 S   0  0  0  0  0  0  0  0  0  0  0  0
    1.4480   20.5330  -35.8740 C   0  0  0  0  0  0  0  0  0  0  0  0
   -1.4850   21.1020  -32.8780 C   0  0  0  0  0  0  0  0  0  0  0  0
   -1.7640   20.5240  -31.4910 C   0  0  0  0  0  0  0  0  0  0  0  0
   -1.2330   22.1260  -27.3170 C   0  0  0  0  0  0  0  0  0  0  0  0
   -1.8510   23.2590  -26.7850 C   0  0  0  0  0  0  0  0  0  0  0  0
   -2.4890   24.1800  -27.6240 C   0  0  0  0  0  0  0  0  0  0  0  0
   -3.1180   25.2870  -27.0520 O   0  0  0  0  0  0  0  0  0  0  0  0
   -4.6500   22.6760  -31.6100 C   0  0  0  0  0  0  0  0  0  0  0  0
   -5.1260   21.5600  -32.3040 C   0  0  0  0  0  0  0  0  0  0  0  0
   -6.4900   21.2460  -32.2900 C   0  0  0  0  0  0  0  0  0  0  0  0
   -7.0380   19.8280  -33.1800 Cl  0  0  0  0  0  0  0  0  0  0  0  0
   -9.2285   21.6951  -30.5409 H   0  0  0  0  0  0  0  0  0  0  0  0
   -9.4047   22.5758  -32.0965 H   0  0  0  0  0  0  0  0  0  0  0  0
   -9.0524   20.8144  -32.0965 H   0  0  0  0  0  0  0  0  0  0  0  0
   -7.6047   23.8349  -30.3403 H   0  0  0  0  0  0  0  0  0  0  0  0
   -1.7669   22.7288  -30.6409 H   0  0  0  0  0  0  0  0  0  0  0  0
    1.5327   20.0263  -30.6564 H   0  0  0  0  0  0  0  0  0  0  0  0
    0.4721   18.7682  -31.3853 H   0  0  0  0  0  0  0  0  0  0  0  0
    1.2933   21.4589  -32.5920 H   0  0  0  0  0  0  0  0  0  0  0  0
    1.6748   19.8130  -33.2039 H   0  0  0  0  0  0  0  0  0  0  0  0
   -0.0719   17.6217  -36.6427 H   0  0  0  0  0  0  0  0  0  0  0  0
    1.8527   18.0080  -38.4027 H   0  0  0  0  0  0  0  0  0  0  0  0
    1.5672   21.4313  -35.2505 H   0  0  0  0  0  0  0  0  0  0  0  0
   -1.2780   22.1788  -32.7910 H   0  0  0  0  0  0  0  0  0  0  0  0
   -2.3632   20.9467  -33.5220 H   0  0  0  0  0  0  0  0  0  0  0  0
   -2.5071   21.1513  -30.9769 H   0  0  0  0  0  0  0  0  0  0  0  0
   -2.1518   19.5000  -31.5960 H   0  0  0  0  0  0  0  0  0  0  0  0
   -0.7692   21.3894  -26.6444 H   0  0  0  0  0  0  0  0  0  0  0  0
   -1.8365   23.4293  -25.6984 H   0  0  0  0  0  0  0  0  0  0  0  0
   -3.9790   25.6690  -27.4160 H   0  0  0  0  0  0  0  0  0  0  0  0
   -3.5757   22.9123  -31.6206 H   0  0  0  0  0  0  0  0  0  0  0  0
   -4.4245   20.9247  -32.8645 H   0  0  0  0  0  0  0  0  0  0  0  0
  1  2  1  0
  2  3  2  0
  3  4  1  0
  4  5  1  0
  5  6  2  0
  5  7  2  0
  5  8  1  0
  8  9  1  0
  9 10  2  0
 10 11  1  0
 11 12  1  0
 12 13  2  0
 12 14  1  0
 14 15  1  0
 15 16  1  0
 16 17  1  0
 17 18  1  0
 18 19  2  0
 18 20  1  0
 20 21  1  0
 21 22  2  0
 22 23  1  0
 23 24  1  0
 17 25  1  0
 25 26  1  0
 11 27  2  0
 27 28  1  0
 28 29  2  0
 29 30  1  0
  4 31  2  0
 31 32  1  0
 32 33  2  0
 33 34  1  0
 33  2  1  0
 29  9  1  0
 26 14  1  0
 24 20  2  0
  1 35  1  0
  1 36  1  0
  1 37  1  0
  3 38  1  0
 10 39  1  0
 15 40  1  0
 15 41  1  0
 16 42  1  0
 16 43  1  0
 21 44  1  0
 22 45  1  0
 24 46  1  0
 25 47  1  0
 25 48  1  0
 26 49  1  0
 26 50  1  0
 27 51  1  0
 28 52  1  0
 30 53  1  0
 31 54  1  0
 32 55  1  0
M  CHG  1   8  -1
M  END
>  <UniqueID>  (23) 
22

>  <SMILES>  (23) 
Cc1cc(S(=O)(=O)[N-]c2cc(C(=O)N3CCN(C(=O)c4ccsc4)CC3)ccc2O)ccc1Cl

>  <Energy>  (23) 
97.98642376150622

>  <Genealogy>  (23) 
Cc1cc(S(=O)(=O)[N-]c2cc(C(=O)N3CCN(C(=O)c4ccsc4)CC3)ccc2O)ccc1Cl (protonated)
Cc1cc(S(=O)(=O)[N-]c2cc(C(=O)N3CCN(C(=O)c4ccsc4)CC3)ccc2O)ccc1Cl (3D coordinates assigned)
Cc1cc(S(=O)(=O)[N-]c2cc(C(=O)N3CCN(C(=O)c4ccsc4)CC3)ccc2O)ccc1Cl (nonaromatic ring conformer: 97.98642376150622 kcal/mol)

>  <smiles>  (23) 
Cc1cc(S(=O)(=O)Nc2cc(C(=O)N3CCN(C(=O)c4ccsc4)CC3)ccc2O)ccc1Cl

>  <score_type>  (23) 
oracle

>  <origin>  (23) 
adgpu

>  <m_score__min__energy>  (23) 
-12.539999999999999

>  <m_primary>  (23) 
energy

$$$$
23:0
     RDKit          3D

 63 66  0  0  0  0  0  0  0  0999 V2000
   -6.1180   19.1670  -34.1470 C   0  0  0  0  0  0  0  0  0  0  0  0
   -6.4970   20.1840  -33.1570 N   0  0  0  0  0  0  0  0  0  0  0  0
   -7.3440   19.5820  -32.1210 C   0  0  0  0  0  0  0  0  0  0  0  0
   -5.0650   20.8550  -32.4050 S   0  0  0  0  0  0  0  0  0  0  0  0
   -4.5560   19.8980  -31.3660 O   0  0  0  0  0  0  0  0  0  0  0  0
   -3.9840   21.0570  -33.4290 O   0  0  0  0  0  0  0  0  0  0  0  0
   -5.4030   22.4090  -31.6390 C   0  0  0  0  0  0  0  0  0  0  0  0
   -6.7200   22.8060  -31.3790 C   0  0  0  0  0  0  0  0  0  0  0  0
   -6.9730   24.0220  -30.7360 C   0  0  0  0  0  0  0  0  0  0  0  0
   -5.9160   24.8450  -30.3470 C   0  0  0  0  0  0  0  0  0  0  0  0
   -4.5930   24.4350  -30.5530 C   0  0  0  0  0  0  0  0  0  0  0  0
   -3.5220   25.2940  -30.1410 N   0  0  0  0  0  0  0  0  0  0  0  0
   -2.4320   24.9170  -29.2890 C   0  0  0  0  0  0  0  0  0  0  0  0
   -1.6000   25.7930  -28.9390 O   0  0  0  0  0  0  0  0  0  0  0  0
   -2.2910   23.5400  -28.7800 C   0  0  0  0  0  0  0  0  0  0  0  0
   -1.1820   22.7340  -28.9250 C   0  0  0  0  0  0  0  0  0  0  0  0
   -1.5450   21.5610  -28.2920 C   0  0  0  0  0  0  0  0  0  0  0  0
   -0.7340   20.3350  -28.1500 C   0  0  0  0  0  0  0  0  0  0  0  0
    0.6150   20.3050  -28.5410 C   0  0  0  0  0  0  0  0  0  0  0  0
    1.3650   19.1350  -28.4010 C   0  0  0  0  0  0  0  0  0  0  0  0
    0.7880   17.9840  -27.8520 C   0  0  0  0  0  0  0  0  0  0  0  0
    1.7390   16.5060  -27.6910 S   0  0  0  0  0  0  0  0  0  0  0  0
    0.9850   15.4920  -26.8730 O   0  0  0  0  0  0  0  0  0  0  0  0
    3.0300   16.8240  -26.9840 O   0  0  0  0  0  0  0  0  0  0  0  0
    2.1060   15.8790  -29.2710 N   0  0  0  0  0  0  0  0  0  0  0  0
    1.0740   16.2510  -30.2470 C   0  0  0  0  0  0  0  0  0  0  0  0
    1.6690   17.1760  -31.3110 C   0  0  0  0  0  0  0  0  0  0  0  0
    0.6990   18.2730  -31.6790 C   0  0  0  0  0  0  0  0  0  0  0  0
   -0.6660   17.9850  -31.8470 C   0  0  0  0  0  0  0  0  0  0  0  0
   -1.5700   19.0120  -32.1290 C   0  0  0  0  0  0  0  0  0  0  0  0
   -1.1180   20.3280  -32.2470 C   0  0  0  0  0  0  0  0  0  0  0  0
    0.2350   20.6240  -32.0790 C   0  0  0  0  0  0  0  0  0  0  0  0
    1.1420   19.6030  -31.7830 C   0  0  0  0  0  0  0  0  0  0  0  0
   -0.5570   18.0110  -27.4590 C   0  0  0  0  0  0  0  0  0  0  0  0
   -1.3150   19.1760  -27.6160 C   0  0  0  0  0  0  0  0  0  0  0  0
   -2.7620   21.7020  -27.8210 O   0  0  0  0  0  0  0  0  0  0  0  0
   -3.2440   22.8790  -28.0960 N   0  0  0  0  0  0  0  0  0  0  0  0
   -4.3440   23.2250  -31.2210 C   0  0  0  0  0  0  0  0  0  0  0  0
   -5.7793   18.2582  -33.6279 H   0  0  0  0  0  0  0  0  0  0  0  0
   -6.9870   18.9270  -34.7772 H   0  0  0  0  0  0  0  0  0  0  0  0
   -5.3038   19.5542  -34.7772 H   0  0  0  0  0  0  0  0  0  0  0  0
   -6.9588   19.8558  -31.1277 H   0  0  0  0  0  0  0  0  0  0  0  0
   -8.3744   19.9515  -32.2293 H   0  0  0  0  0  0  0  0  0  0  0  0
   -7.3338   18.4874  -32.2293 H   0  0  0  0  0  0  0  0  0  0  0  0
   -7.5577   22.1602  -31.6811 H   0  0  0  0  0  0  0  0  0  0  0  0
   -8.0097   24.3307  -30.5362 H   0  0  0  0  0  0  0  0  0  0  0  0
   -6.1222   25.8181  -29.8774 H   0  0  0  0  0  0  0  0  0  0  0  0
   -0.2318   22.9695  -29.4266 H   0  0  0  0  0  0  0  0  0  0  0  0
    1.0833   21.2080  -28.9598 H   0  0  0  0  0  0  0  0  0  0  0  0
    2.4162   19.1180  -28.7244 H   0  0  0  0  0  0  0  0  0  0  0  0
    2.1330   14.8370  -29.2010 H   0  0  0  0  0  0  0  0  0  0  0  0
    0.6853   15.3425  -30.7303 H   0  0  0  0  0  0  0  0  0  0  0  0
    0.2583   16.7755  -29.7278 H   0  0  0  0  0  0  0  0  0  0  0  0
    2.5917   17.6285  -30.9188 H   0  0  0  0  0  0  0  0  0  0  0  0
    1.8834   16.5816  -32.2114 H   0  0  0  0  0  0  0  0  0  0  0  0
   -1.0235   16.9487  -31.7563 H   0  0  0  0  0  0  0  0  0  0  0  0
   -2.6383   18.7840  -32.2582 H   0  0  0  0  0  0  0  0  0  0  0  0
   -1.8313   21.1342  -32.4732 H   0  0  0  0  0  0  0  0  0  0  0  0
    0.5878   21.6610  -32.1795 H   0  0  0  0  0  0  0  0  0  0  0  0
    2.2052   19.8406  -31.6310 H   0  0  0  0  0  0  0  0  0  0  0  0
   -1.0187   17.1118  -27.0251 H   0  0  0  0  0  0  0  0  0  0  0  0
   -2.3740   19.1830  -27.3185 H   0  0  0  0  0  0  0  0  0  0  0  0
   -3.3071   22.9150  -31.4179 H   0  0  0  0  0  0  0  0  0  0  0  0
  1  2  1  0
  2  3  1  0
  2  4  1  0
  4  5  2  0
  4  6  2  0
  4  7  1  0
  7  8  2  0
  8  9  1  0
  9 10  2  0
 10 11  1  0
 11 12  1  0
 12 13  1  0
 13 14  2  0
 13 15  1  0
 15 16  1  0
 16 17  2  0
 17 18  1  0
 18 19  2  0
 19 20  1  0
 20 21  2  0
 21 22  1  0
 22 23  2  0
 22 24  2  0
 22 25  1  0
 25 26  1  0
 26 27  1  0
 27 28  1  0
 28 29  2  0
 29 30  1  0
 30 31  2  0
 31 32  1  0
 32 33  2  0
 21 34  1  0
 34 35  2  0
 17 36  1  0
 36 37  1  0
 11 38  2  0
 38  7  1  0
 37 15  2  0
 35 18  1  0
 33 28  1  0
  1 39  1  0
  1 40  1  0
  1 41  1  0
  3 42  1  0
  3 43  1  0
  3 44  1  0
  8 45  1  0
  9 46  1  0
 10 47  1  0
 16 48  1  0
 19 49  1  0
 20 50  1  0
 25 51  1  0
 26 52  1  0
 26 53  1  0
 27 54  1  0
 27 55  1  0
 29 56  1  0
 30 57  1  0
 31 58  1  0
 32 59  1  0
 33 60  1  0
 34 61  1  0
 35 62  1  0
 38 63  1  0
M  CHG  1  12  -1
M  END
>  <UniqueID>  (24) 
23

>  <SMILES>  (24) 
CN(C)S(=O)(=O)c1cccc([N-]C(=O)c2cc(-c3ccc(S(=O)(=O)NCCc4ccccc4)cc3)on2)c1

>  <Energy>  (24) 
95.4718006296779

>  <Genealogy>  (24) 
CN(C)S(=O)(=O)c1cccc([N-]C(=O)c2cc(-c3ccc(S(=O)(=O)NCCc4ccccc4)cc3)on2)c1 (protonated)
CN(C)S(=O)(=O)c1cccc([N-]C(=O)c2cc(-c3ccc(S(=O)(=O)NCCc4ccccc4)cc3)on2)c1 (3D coordinates assigned)
CN(C)S(=O)(=O)c1cccc([N-]C(=O)c2cc(-c3ccc(S(=O)(=O)NCCc4ccccc4)cc3)on2)c1 (optimized conformer: 95.4718006296779 kcal/mol)

>  <smiles>  (24) 
CN(C)S(=O)(=O)c1cccc(NC(=O)c2cc(-c3ccc(S(=O)(=O)NCCc4ccccc4)cc3)on2)c1

>  <score_type>  (24) 
oracle

>  <origin>  (24) 
adgpu

>  <m_score__min__energy>  (24) 
-12.01

>  <m_primary>  (24) 
energy

$$$$
24:0
     RDKit          3D

 36 38  0  0  0  0  0  0  0  0999 V2000
   -6.0512   18.2931  -30.5480 H   0  0  0  0  0  0  0  0  0  0  0  0
   -6.0450   18.1060  -31.6320 C   0  0  0  0  0  0  0  0  0  0  0  0
   -6.0630   16.7930  -32.1120 C   0  0  0  0  0  0  0  0  0  0  0  0
   -6.1054   15.9517  -31.4046 H   0  0  0  0  0  0  0  0  0  0  0  0
   -6.0270   16.5430  -33.4980 C   0  0  0  0  0  0  0  0  0  0  0  0
   -6.0450   15.2450  -34.0290 O   0  0  0  0  0  0  0  0  0  0  0  0
   -7.2030   14.6140  -34.5680 C   0  0  0  0  0  0  0  0  0  0  0  0
   -7.8456   14.2639  -33.7467 H   0  0  0  0  0  0  0  0  0  0  0  0
   -7.7585   15.3341  -35.1867 H   0  0  0  0  0  0  0  0  0  0  0  0
   -6.8990   13.7568  -35.1867 H   0  0  0  0  0  0  0  0  0  0  0  0
   -5.9650   17.6250  -34.3840 C   0  0  0  0  0  0  0  0  0  0  0  0
   -5.9294   17.4410  -35.4679 H   0  0  0  0  0  0  0  0  0  0  0  0
   -5.9480   18.9370  -33.9030 C   0  0  0  0  0  0  0  0  0  0  0  0
   -5.8784   19.7774  -34.6094 H   0  0  0  0  0  0  0  0  0  0  0  0
   -6.0190   19.1880  -32.5290 C   0  0  0  0  0  0  0  0  0  0  0  0
   -5.9420   20.5420  -32.0590 N   0  0  0  0  0  0  0  0  0  0  0  0
   -4.9170   21.1390  -31.5140 C   0  0  0  0  0  0  0  0  0  0  0  0
   -3.7210   20.4470  -31.1760 C   0  0  0  0  0  0  0  0  0  0  0  0
   -3.6314   19.3708  -31.3853 H   0  0  0  0  0  0  0  0  0  0  0  0
   -2.6570   21.1340  -30.5770 C   0  0  0  0  0  0  0  0  0  0  0  0
   -1.7212   20.6191  -30.3140 H   0  0  0  0  0  0  0  0  0  0  0  0
   -2.8280   22.4880  -30.3280 C   0  0  0  0  0  0  0  0  0  0  0  0
   -1.9340   23.3120  -29.7410 N   0  0  0  0  0  0  0  0  0  0  0  0
   -2.5930   24.4950  -29.7130 C   0  0  0  0  0  0  0  0  0  0  0  0
   -2.0610   25.6580  -29.1720 O   0  0  0  0  0  0  0  0  0  0  0  0
   -3.8500   24.3790  -30.2830 C   0  0  0  0  0  0  0  0  0  0  0  0
   -4.9100   25.4380  -30.3750 C   0  0  0  0  0  0  0  0  0  0  0  0
   -5.2842   25.4857  -31.4083 H   0  0  0  0  0  0  0  0  0  0  0  0
   -4.4717   26.4038  -30.0832 H   0  0  0  0  0  0  0  0  0  0  0  0
   -6.0690   25.1220  -29.4370 C   0  0  0  0  0  0  0  0  0  0  0  0
   -5.7320   25.2139  -28.3939 H   0  0  0  0  0  0  0  0  0  0  0  0
   -6.8920   25.8285  -29.6201 H   0  0  0  0  0  0  0  0  0  0  0  0
   -6.4195   24.0955  -29.6201 H   0  0  0  0  0  0  0  0  0  0  0  0
   -3.9780   23.0950  -30.6540 N   0  0  0  0  0  0  0  0  0  0  0  0
   -5.0130   22.4710  -31.2180 N   0  0  0  0  0  0  0  0  0  0  0  0
   -5.8890   22.9940  -31.4410 H   0  0  0  0  0  0  0  0  0  0  0  0
  1  2  1  0
  2  3  2  0
  3  4  1  0
  3  5  1  0
  5  6  1  0
  6  7  1  0
  7  8  1  0
  7  9  1  0
  7 10  1  0
  5 11  2  0
 11 12  1  0
 11 13  1  0
 13 14  1  0
 13 15  2  0
 15 16  1  0
 16 17  2  0
 17 18  1  0
 18 19  1  0
 18 20  2  0
 20 21  1  0
 20 22  1  0
 22 23  2  0
 23 24  1  0
 24 25  1  0
 24 26  2  0
 26 27  1  0
 27 28  1  0
 27 29  1  0
 27 30  1  0
 30 31  1  0
 30 32  1  0
 30 33  1  0
 26 34  1  0
 34 35  1  0
 35 36  1  0
 15  2  1  0
 35 17  1  0
 34 22  1  0
M  CHG  1  25  -1
M  END
>  <UniqueID>  (25) 
24

>  <SMILES>  (25) 
CCc1c([O-])nc2cc/c(=N\c3ccc(OC)cc3)[nH]n12

>  <Energy>  (25) 
80.92568238584201

>  <Genealogy>  (25) 
CCc1c([O-])nc2ccc(=Nc3ccc(OC)cc3)[nH]n12 (protonated)
CCc1c([O-])nc2cc/c(=N\c3ccc(OC)cc3)[nH]n12 (cis-trans isomerization)
CCc1c([O-])nc2cc/c(=N\c3ccc(OC)cc3)[nH]n12 (3D coordinates assigned)
CCc1c([O-])nc2cc/c(=N\c3ccc(OC)cc3)[nH]n12 (optimized conformer: 80.92568238584201 kcal/mol)

>  <smiles>  (25) 
CCc1c(O)nc2ccc(=Nc3ccc(OC)cc3)[nH]n12

>  <score_type>  (25) 
oracle

>  <origin>  (25) 
adgpu

>  <m_score__min__energy>  (25) 
-9.2799999999999994

>  <m_primary>  (25) 
energy

$$$$
25:0
     RDKit          3D

 51 53  0  0  0  0  0  0  0  0999 V2000
   -3.5470   18.8930  -26.2120 C   0  0  0  0  0  0  0  0  0  0  0  0
   -2.3620   19.8150  -26.1540 C   0  0  0  0  0  0  0  0  0  0  0  0
   -1.2590   19.2800  -26.9610 C   0  0  0  0  0  0  0  0  0  0  0  0
   -0.8320   17.9930  -26.8330 N   0  0  0  0  0  0  0  0  0  0  0  0
    0.1750   17.4930  -27.5650 C   0  0  0  0  0  0  0  0  0  0  0  0
    0.5720   16.2760  -27.4370 N   0  0  0  0  0  0  0  0  0  0  0  0
    0.8180   18.2550  -28.4740 N   0  0  0  0  0  0  0  0  0  0  0  0
    0.4240   19.5350  -28.6300 C   0  0  0  0  0  0  0  0  0  0  0  0
    1.0420   20.2590  -29.4990 N   0  0  0  0  0  0  0  0  0  0  0  0
   -0.6270   20.0660  -27.8700 C   0  0  0  0  0  0  0  0  0  0  0  0
   -0.9520   21.4620  -28.1430 C   0  0  0  0  0  0  0  0  0  0  0  0
   -0.3390   22.5140  -27.5020 C   0  0  0  0  0  0  0  0  0  0  0  0
   -0.6920   23.8110  -27.8130 C   0  0  0  0  0  0  0  0  0  0  0  0
   -1.6730   24.0220  -28.7770 C   0  0  0  0  0  0  0  0  0  0  0  0
   -1.9820   25.3440  -29.0500 O   0  0  0  0  0  0  0  0  0  0  0  0
   -2.3100   23.0070  -29.4390 C   0  0  0  0  0  0  0  0  0  0  0  0
   -3.5530   23.2200  -30.6360 S   0  0  0  0  0  0  0  0  0  0  0  0
   -3.0640   22.7050  -31.9640 O   0  0  0  0  0  0  0  0  0  0  0  0
   -3.8140   24.6940  -30.8550 O   0  0  0  0  0  0  0  0  0  0  0  0
   -5.0280   22.4780  -30.2730 N   0  0  0  0  0  0  0  0  0  0  0  0
   -6.0660   23.2490  -29.7230 C   0  0  0  0  0  0  0  0  0  0  0  0
   -7.3840   22.4870  -29.9830 C   0  0  0  0  0  0  0  0  0  0  0  0
   -7.5480   22.5790  -31.4300 N   0  0  0  0  0  0  0  0  0  0  0  0
   -8.8740   22.2740  -31.8780 C   0  0  0  0  0  0  0  0  0  0  0  0
   -6.5190   21.8180  -32.1130 C   0  0  0  0  0  0  0  0  0  0  0  0
   -5.3940   21.4330  -31.1850 C   0  0  0  0  0  0  0  0  0  0  0  0
   -1.9190   21.7080  -29.0930 C   0  0  0  0  0  0  0  0  0  0  0  0
   -3.8678   18.6434  -25.1898 H   0  0  0  0  0  0  0  0  0  0  0  0
   -4.3719   19.3892  -26.7443 H   0  0  0  0  0  0  0  0  0  0  0  0
   -3.2688   17.9714  -26.7443 H   0  0  0  0  0  0  0  0  0  0  0  0
   -2.6511   20.8021  -26.5439 H   0  0  0  0  0  0  0  0  0  0  0  0
   -2.0297   19.9045  -25.1092 H   0  0  0  0  0  0  0  0  0  0  0  0
   -1.2790   17.3400  -26.1490 H   0  0  0  0  0  0  0  0  0  0  0  0
    0.1540   15.5910  -26.7700 H   0  0  0  0  0  0  0  0  0  0  0  0
    1.6040   17.8410  -29.0360 H   0  0  0  0  0  0  0  0  0  0  0  0
    1.8130   19.8020  -30.0280 H   0  0  0  0  0  0  0  0  0  0  0  0
    0.4323   22.3210  -26.7418 H   0  0  0  0  0  0  0  0  0  0  0  0
   -0.2079   24.6607  -27.3093 H   0  0  0  0  0  0  0  0  0  0  0  0
   -2.0480   25.6740  -29.9970 H   0  0  0  0  0  0  0  0  0  0  0  0
   -5.9101   23.3752  -28.6414 H   0  0  0  0  0  0  0  0  0  0  0  0
   -6.0952   24.2493  -30.1797 H   0  0  0  0  0  0  0  0  0  0  0  0
   -7.3021   21.4381  -29.6620 H   0  0  0  0  0  0  0  0  0  0  0  0
   -8.2372   22.9026  -29.4268 H   0  0  0  0  0  0  0  0  0  0  0  0
   -9.5295   22.1232  -31.0076 H   0  0  0  0  0  0  0  0  0  0  0  0
   -9.2567   23.1076  -32.4852 H   0  0  0  0  0  0  0  0  0  0  0  0
   -8.8540   21.3570  -32.4852 H   0  0  0  0  0  0  0  0  0  0  0  0
   -6.9685   20.9027  -32.5256 H   0  0  0  0  0  0  0  0  0  0  0  0
   -6.1014   22.4495  -32.9110 H   0  0  0  0  0  0  0  0  0  0  0  0
   -5.7075   20.5546  -30.6018 H   0  0  0  0  0  0  0  0  0  0  0  0
   -4.5135   21.2228  -31.8100 H   0  0  0  0  0  0  0  0  0  0  0  0
   -2.3995   20.8559  -29.5961 H   0  0  0  0  0  0  0  0  0  0  0  0
  1  2  1  0
  2  3  1  0
  3  4  1  0
  4  5  1  0
  5  6  2  3
  5  7  1  0
  7  8  1  0
  8  9  2  3
  8 10  1  0
 10 11  1  0
 11 12  2  0
 12 13  1  0
 13 14  2  0
 14 15  1  0
 14 16  1  0
 16 17  1  0
 17 18  2  0
 17 19  2  0
 17 20  1  0
 20 21  1  0
 21 22  1  0
 22 23  1  0
 23 24  1  0
 23 25  1  0
 25 26  1  0
 16 27  2  0
 10  3  2  0
 27 11  1  0
 26 20  1  0
  1 28  1  0
  1 29  1  0
  1 30  1  0
  2 31  1  0
  2 32  1  0
  4 33  1  0
  6 34  1  0
  7 35  1  0
  9 36  1  0
 12 37  1  0
 13 38  1  0
 15 39  1  0
 21 40  1  0
 21 41  1  0
 22 42  1  0
 22 43  1  0
 24 44  1  0
 24 45  1  0
 24 46  1  0
 25 47  1  0
 25 48  1  0
 26 49  1  0
 26 50  1  0
 27 51  1  0
M  END
>  <smiles>  (26) 
CCc1[nH]c(=N)[nH]c(=N)c1-c1ccc(O)c(S(=O)(=O)N2CCN(C)CC2)c1

>  <score_type>  (26) 
oracle

>  <origin>  (26) 
adgpu

>  <m_score__min__energy>  (26) 
-9.8900000000000006

>  <m_primary>  (26) 
energy

$$$$
26:0
     RDKit          3D

 53 57  0  0  0  0  0  0  0  0999 V2000
   -8.5160   18.3530  -31.8680 C   0  0  0  0  0  0  0  0  0  0  0  0
   -8.2140   19.8130  -31.8120 C   0  0  0  0  0  0  0  0  0  0  0  0
   -9.1300   20.8350  -31.9870 C   0  0  0  0  0  0  0  0  0  0  0  0
   -8.3700   21.9830  -31.9140 C   0  0  0  0  0  0  0  0  0  0  0  0
   -8.8960   23.3840  -31.9720 C   0  0  0  0  0  0  0  0  0  0  0  0
   -7.0830   21.6370  -31.7020 N   0  0  0  0  0  0  0  0  0  0  0  0
   -5.7370   22.7100  -31.4980 S   0  0  0  0  0  0  0  0  0  0  0  0
   -5.9580   23.9570  -32.3060 O   0  0  0  0  0  0  0  0  0  0  0  0
   -5.6200   23.0810  -30.0460 O   0  0  0  0  0  0  0  0  0  0  0  0
   -4.2690   21.9200  -32.0620 C   0  0  0  0  0  0  0  0  0  0  0  0
   -3.0300   22.2030  -31.4710 C   0  0  0  0  0  0  0  0  0  0  0  0
   -1.8780   21.5430  -31.9060 C   0  0  0  0  0  0  0  0  0  0  0  0
   -1.9530   20.5950  -32.9370 C   0  0  0  0  0  0  0  0  0  0  0  0
   -0.7740   19.8950  -33.3680 N   0  0  0  0  0  0  0  0  0  0  0  0
    0.2720   20.6060  -34.0720 C   0  0  0  0  0  0  0  0  0  0  0  0
   -0.1190   21.6040  -34.9920 C   0  0  0  0  0  0  0  0  0  0  0  0
    0.8210   22.3190  -35.7290 C   0  0  0  0  0  0  0  0  0  0  0  0
    2.1750   22.0510  -35.5760 C   0  0  0  0  0  0  0  0  0  0  0  0
    2.5930   21.0680  -34.6830 C   0  0  0  0  0  0  0  0  0  0  0  0
    1.6720   20.3370  -33.9080 C   0  0  0  0  0  0  0  0  0  0  0  0
    2.2240   19.3370  -33.0230 N   0  0  0  0  0  0  0  0  0  0  0  0
    1.7780   19.0590  -31.6880 C   0  0  0  0  0  0  0  0  0  0  0  0
    2.6580   19.2500  -30.6110 C   0  0  0  0  0  0  0  0  0  0  0  0
    2.2840   18.8750  -29.3180 C   0  0  0  0  0  0  0  0  0  0  0  0
    1.0380   18.2850  -29.0940 C   0  0  0  0  0  0  0  0  0  0  0  0
    0.1650   18.0690  -30.1640 C   0  0  0  0  0  0  0  0  0  0  0  0
    0.5440   18.4420  -31.4620 C   0  0  0  0  0  0  0  0  0  0  0  0
   -0.5490   18.2760  -32.8050 S   0  0  0  0  0  0  0  0  0  0  0  0
    0.0490   17.4190  -33.8870 O   0  0  0  0  0  0  0  0  0  0  0  0
   -1.8550   17.6750  -32.3660 O   0  0  0  0  0  0  0  0  0  0  0  0
   -3.1950   20.3140  -33.5280 C   0  0  0  0  0  0  0  0  0  0  0  0
   -4.3450   20.9750  -33.0930 C   0  0  0  0  0  0  0  0  0  0  0  0
   -6.9760   20.3190  -31.6500 N   0  0  0  0  0  0  0  0  0  0  0  0
   -8.5981   17.9561  -30.8454 H   0  0  0  0  0  0  0  0  0  0  0  0
   -9.4658   18.1952  -32.3999 H   0  0  0  0  0  0  0  0  0  0  0  0
   -7.7068   17.8313  -32.3999 H   0  0  0  0  0  0  0  0  0  0  0  0
  -10.2150   20.7510  -32.1475 H   0  0  0  0  0  0  0  0  0  0  0  0
   -9.0389   23.7646  -30.9499 H   0  0  0  0  0  0  0  0  0  0  0  0
   -8.1769   24.0239  -32.5044 H   0  0  0  0  0  0  0  0  0  0  0  0
   -9.8586   23.3925  -32.5044 H   0  0  0  0  0  0  0  0  0  0  0  0
   -2.9645   22.9464  -30.6629 H   0  0  0  0  0  0  0  0  0  0  0  0
   -0.9082   21.7677  -31.4380 H   0  0  0  0  0  0  0  0  0  0  0  0
   -1.1887   21.8208  -35.1290 H   0  0  0  0  0  0  0  0  0  0  0  0
    0.4910   23.0970  -36.4332 H   0  0  0  0  0  0  0  0  0  0  0  0
    2.9170   22.6151  -36.1601 H   0  0  0  0  0  0  0  0  0  0  0  0
    3.6678   20.8574  -34.5804 H   0  0  0  0  0  0  0  0  0  0  0  0
    3.1980   19.0170  -33.2310 H   0  0  0  0  0  0  0  0  0  0  0  0
    3.6475   19.6974  -30.7860 H   0  0  0  0  0  0  0  0  0  0  0  0
    2.9713   19.0445  -28.4760 H   0  0  0  0  0  0  0  0  0  0  0  0
    0.7438   17.9904  -28.0758 H   0  0  0  0  0  0  0  0  0  0  0  0
   -0.8178   17.6072  -29.9884 H   0  0  0  0  0  0  0  0  0  0  0  0
   -3.2622   19.5708  -34.3362 H   0  0  0  0  0  0  0  0  0  0  0  0
   -5.3149   20.7528  -33.5619 H   0  0  0  0  0  0  0  0  0  0  0  0
  1  2  1  0
  2  3  1  0
  3  4  2  0
  4  5  1  0
  4  6  1  0
  6  7  1  0
  7  8  2  0
  7  9  2  0
  7 10  1  0
 10 11  2  0
 11 12  1  0
 12 13  2  0
 13 14  1  0
 14 15  1  0
 15 16  2  0
 16 17  1  0
 17 18  2  0
 18 19  1  0
 19 20  2  0
 20 21  1  0
 21 22  1  0
 22 23  2  0
 23 24  1  0
 24 25  2  0
 25 26  1  0
 26 27  2  0
 27 28  1  0
 28 29  2  0
 28 30  2  0
 13 31  1  0
 31 32  2  0
  6 33  1  0
 33  2  2  0
 32 10  1  0
 28 14  1  0
 20 15  1  0
 27 22  1  0
  1 34  1  0
  1 35  1  0
  1 36  1  0
  3 37  1  0
  5 38  1  0
  5 39  1  0
  5 40  1  0
 11 41  1  0
 12 42  1  0
 16 43  1  0
 17 44  1  0
 18 45  1  0
 19 46  1  0
 21 47  1  0
 23 48  1  0
 24 49  1  0
 25 50  1  0
 26 51  1  0
 31 52  1  0
 32 53  1  0
M  END
>  <UniqueID>  (27) 
25

>  <SMILES>  (27) 
Cc1cc(C)n(S(=O)(=O)c2ccc(N3c4ccccc4Nc4ccccc4S3(=O)=O)cc2)n1

>  <Energy>  (27) 
117.35871558308736

>  <Genealogy>  (27) 
Cc1cc(C)n(S(=O)(=O)c2ccc(N3c4ccccc4Nc4ccccc4S3(=O)=O)cc2)n1 (3D coordinates assigned)
Cc1cc(C)n(S(=O)(=O)c2ccc(N3c4ccccc4Nc4ccccc4S3(=O)=O)cc2)n1 (nonaromatic ring conformer: 117.35871558308736 kcal/mol)

>  <smiles>  (27) 
Cc1cc(C)n(S(=O)(=O)c2ccc(N3c4ccccc4Nc4ccccc4S3(=O)=O)cc2)n1

>  <score_type>  (27) 
oracle

>  <origin>  (27) 
adgpu

>  <m_score__min__energy>  (27) 
-9.3100000000000005

>  <m_primary>  (27) 
energy

$$$$
27:0
     RDKit          3D

 47 50  0  0  0  0  0  0  0  0999 V2000
   -7.7130   25.2830  -30.1970 O   0  0  0  0  0  0  0  0  0  0  0  0
   -6.9350   24.2940  -30.2640 C   0  0  0  0  0  0  0  0  0  0  0  0
   -7.4940   22.9870  -30.4490 N   0  0  0  0  0  0  0  0  0  0  0  0
   -7.0300   21.9960  -31.3770 C   0  0  0  0  0  0  0  0  0  0  0  0
   -5.6910   21.5920  -31.3240 C   0  0  0  0  0  0  0  0  0  0  0  0
   -5.2100   20.6220  -32.2080 C   0  0  0  0  0  0  0  0  0  0  0  0
   -6.0690   20.0360  -33.1470 C   0  0  0  0  0  0  0  0  0  0  0  0
   -5.4590   18.7980  -34.2420 S   0  0  0  0  0  0  0  0  0  0  0  0
   -3.9770   18.9900  -34.4100 O   0  0  0  0  0  0  0  0  0  0  0  0
   -6.1160   18.9360  -35.5890 O   0  0  0  0  0  0  0  0  0  0  0  0
   -5.7740   17.2110  -33.5820 N   0  0  0  0  0  0  0  0  0  0  0  0
   -4.5060   16.5750  -33.1750 C   0  0  0  0  0  0  0  0  0  0  0  0
   -4.7650   15.4560  -32.1530 C   0  0  0  0  0  0  0  0  0  0  0  0
   -5.3990   15.8940  -30.9580 O   0  0  0  0  0  0  0  0  0  0  0  0
   -6.1080   17.1160  -31.1000 C   0  0  0  0  0  0  0  0  0  0  0  0
   -6.7640   17.2790  -32.4830 C   0  0  0  0  0  0  0  0  0  0  0  0
   -7.4180   20.4140  -33.1810 C   0  0  0  0  0  0  0  0  0  0  0  0
   -7.8990   21.3830  -32.2960 C   0  0  0  0  0  0  0  0  0  0  0  0
   -5.4880   24.5110  -30.0880 C   0  0  0  0  0  0  0  0  0  0  0  0
   -4.7070   24.0710  -29.0370 C   0  0  0  0  0  0  0  0  0  0  0  0
   -3.4430   24.5480  -29.3330 C   0  0  0  0  0  0  0  0  0  0  0  0
   -2.1970   24.3290  -28.5600 C   0  0  0  0  0  0  0  0  0  0  0  0
   -2.0540   23.1390  -27.8210 C   0  0  0  0  0  0  0  0  0  0  0  0
   -0.9000   22.9010  -27.0690 C   0  0  0  0  0  0  0  0  0  0  0  0
    0.1270   23.8430  -27.0480 C   0  0  0  0  0  0  0  0  0  0  0  0
    0.0090   25.0220  -27.7870 C   0  0  0  0  0  0  0  0  0  0  0  0
   -1.1400   25.2680  -28.5490 C   0  0  0  0  0  0  0  0  0  0  0  0
   -1.2010   26.4320  -29.3040 O   0  0  0  0  0  0  0  0  0  0  0  0
   -3.4880   25.2290  -30.4960 N   0  0  0  0  0  0  0  0  0  0  0  0
   -4.7310   25.2150  -30.9490 N   0  0  0  0  0  0  0  0  0  0  0  0
   -5.0134   22.0404  -30.5825 H   0  0  0  0  0  0  0  0  0  0  0  0
   -4.1537   20.3178  -32.1663 H   0  0  0  0  0  0  0  0  0  0  0  0
   -4.0149   16.1480  -34.0618 H   0  0  0  0  0  0  0  0  0  0  0  0
   -3.8606   17.3358  -32.7117 H   0  0  0  0  0  0  0  0  0  0  0  0
   -5.4067   14.6982  -32.6263 H   0  0  0  0  0  0  0  0  0  0  0  0
   -3.7811   15.0594  -31.8620 H   0  0  0  0  0  0  0  0  0  0  0  0
   -6.8953   17.1546  -30.3328 H   0  0  0  0  0  0  0  0  0  0  0  0
   -5.3793   17.9320  -30.9855 H   0  0  0  0  0  0  0  0  0  0  0  0
   -7.5031   16.4762  -32.6216 H   0  0  0  0  0  0  0  0  0  0  0  0
   -7.2395   18.2704  -32.5170 H   0  0  0  0  0  0  0  0  0  0  0  0
   -8.1003   19.9467  -33.9063 H   0  0  0  0  0  0  0  0  0  0  0  0
   -8.9615   21.6669  -32.3188 H   0  0  0  0  0  0  0  0  0  0  0  0
   -5.0188   23.4775  -28.1649 H   0  0  0  0  0  0  0  0  0  0  0  0
   -2.8586   22.3890  -27.8356 H   0  0  0  0  0  0  0  0  0  0  0  0
   -0.8023   21.9690  -26.4930 H   0  0  0  0  0  0  0  0  0  0  0  0
    1.0309   23.6577  -26.4491 H   0  0  0  0  0  0  0  0  0  0  0  0
    0.8231   25.7616  -27.7705 H   0  0  0  0  0  0  0  0  0  0  0  0
  1  2  2  0
  2  3  1  0
  3  4  1  0
  4  5  2  0
  5  6  1  0
  6  7  2  0
  7  8  1  0
  8  9  2  0
  8 10  2  0
  8 11  1  0
 11 12  1  0
 12 13  1  0
 13 14  1  0
 14 15  1  0
 15 16  1  0
  7 17  1  0
 17 18  2  0
  2 19  1  0
 19 20  1  0
 20 21  2  0
 21 22  1  0
 22 23  2  0
 23 24  1  0
 24 25  2  0
 25 26  1  0
 26 27  2  0
 27 28  1  0
 21 29  1  0
 29 30  1  0
 18  4  1  0
 30 19  2  0
 16 11  1  0
 27 22  1  0
  5 31  1  0
  6 32  1  0
 12 33  1  0
 12 34  1  0
 13 35  1  0
 13 36  1  0
 15 37  1  0
 15 38  1  0
 16 39  1  0
 16 40  1  0
 17 41  1  0
 18 42  1  0
 20 43  1  0
 23 44  1  0
 24 45  1  0
 25 46  1  0
 26 47  1  0
M  CHG  3   3  -1  28  -1  29  -1
M  END
>  <UniqueID>  (28) 
26

>  <SMILES>  (28) 
O=C([N-]c1ccc(S(=O)(=O)N2CCOCC2)cc1)c1cc(-c2ccccc2[O-])[n-]n1

>  <Energy>  (28) 
101.05089754552718

>  <Genealogy>  (28) 
O=C([N-]c1ccc(S(=O)(=O)N2CCOCC2)cc1)c1cc(-c2ccccc2[O-])[n-]n1 (protonated)
O=C([N-]c1ccc(S(=O)(=O)N2CCOCC2)cc1)c1cc(-c2ccccc2[O-])[n-]n1 (3D coordinates assigned)
O=C([N-]c1ccc(S(=O)(=O)N2CCOCC2)cc1)c1cc(-c2ccccc2[O-])[n-]n1 (nonaromatic ring conformer: 101.05089754552718 kcal/mol)

>  <smiles>  (28) 
O=C(Nc1ccc(S(=O)(=O)N2CCOCC2)cc1)c1cc(-c2ccccc2O)[nH]n1

>  <score_type>  (28) 
oracle

>  <origin>  (28) 
adgpu

>  <m_score__min__energy>  (28) 
-14.869999999999999

>  <m_primary>  (28) 
energy

$$$$
28:0
     RDKit          3D

 55 57  0  0  0  0  0  0  0  0999 V2000
   -6.7620   25.6810  -29.3340 C   0  0  0  0  0  0  0  0  0  0  0  0
   -5.4870   24.5260  -29.8000 S   0  0  0  0  0  0  0  0  0  0  0  0
   -4.7680   24.0500  -28.5700 O   0  0  0  0  0  0  0  0  0  0  0  0
   -4.4960   25.1980  -30.7120 O   0  0  0  0  0  0  0  0  0  0  0  0
   -6.2290   23.1640  -30.6360 C   0  0  0  0  0  0  0  0  0  0  0  0
   -5.5210   21.9640  -30.7680 C   0  0  0  0  0  0  0  0  0  0  0  0
   -6.0570   20.9080  -31.5090 C   0  0  0  0  0  0  0  0  0  0  0  0
   -7.3180   21.0350  -32.1150 C   0  0  0  0  0  0  0  0  0  0  0  0
   -7.8420   19.9560  -33.0270 C   0  0  0  0  0  0  0  0  0  0  0  0
   -6.7330   19.3560  -33.7690 N   0  0  0  0  0  0  0  0  0  0  0  0
   -6.0980   18.1450  -33.3370 C   0  0  0  0  0  0  0  0  0  0  0  0
   -6.7290   17.3310  -32.6110 O   0  0  0  0  0  0  0  0  0  0  0  0
   -4.6810   17.8820  -33.6810 C   0  0  0  0  0  0  0  0  0  0  0  0
   -4.1660   16.5750  -33.8450 C   0  0  0  0  0  0  0  0  0  0  0  0
   -5.1700   15.1210  -33.7930 S   0  0  0  0  0  0  0  0  0  0  0  0
   -4.4700   13.8620  -34.8390 C   0  0  0  0  0  0  0  0  0  0  0  0
   -5.3070   14.6100  -32.3830 O   0  0  0  0  0  0  0  0  0  0  0  0
   -6.5420   15.4660  -34.3040 O   0  0  0  0  0  0  0  0  0  0  0  0
   -2.8420   16.4100  -34.0890 N   0  0  0  0  0  0  0  0  0  0  0  0
   -1.9920   17.4610  -34.1900 C   0  0  0  0  0  0  0  0  0  0  0  0
   -2.4550   18.7390  -34.0640 N   0  0  0  0  0  0  0  0  0  0  0  0
   -1.5130   19.8650  -34.1850 C   0  0  0  0  0  0  0  0  0  0  0  0
   -1.3380   20.5560  -32.8540 C   0  0  0  0  0  0  0  0  0  0  0  0
   -0.3330   20.1350  -31.9670 C   0  0  0  0  0  0  0  0  0  0  0  0
   -0.1760   20.7650  -30.7260 C   0  0  0  0  0  0  0  0  0  0  0  0
   -1.0220   21.8160  -30.3610 C   0  0  0  0  0  0  0  0  0  0  0  0
   -2.0280   22.2480  -31.2390 C   0  0  0  0  0  0  0  0  0  0  0  0
   -2.8820   23.3370  -30.8740 N   0  0  0  0  0  0  0  0  0  0  0  0
   -2.1880   21.6110  -32.4790 C   0  0  0  0  0  0  0  0  0  0  0  0
   -3.7830   18.9630  -33.8070 C   0  0  0  0  0  0  0  0  0  0  0  0
   -4.2030   20.1460  -33.6610 O   0  0  0  0  0  0  0  0  0  0  0  0
   -8.0330   22.2340  -31.9670 C   0  0  0  0  0  0  0  0  0  0  0  0
   -7.4870   23.2970  -31.2350 C   0  0  0  0  0  0  0  0  0  0  0  0
   -6.8233   25.7366  -28.2371 H   0  0  0  0  0  0  0  0  0  0  0  0
   -6.5218   26.6753  -29.7386 H   0  0  0  0  0  0  0  0  0  0  0  0
   -7.7278   25.3440  -29.7386 H   0  0  0  0  0  0  0  0  0  0  0  0
   -4.5385   21.8519  -30.2863 H   0  0  0  0  0  0  0  0  0  0  0  0
   -5.4889   19.9725  -31.6185 H   0  0  0  0  0  0  0  0  0  0  0  0
   -8.3422   19.1813  -32.4272 H   0  0  0  0  0  0  0  0  0  0  0  0
   -8.5595   20.3949  -33.7359 H   0  0  0  0  0  0  0  0  0  0  0  0
   -6.3300   19.8860  -34.5740 H   0  0  0  0  0  0  0  0  0  0  0  0
   -4.0297   13.0701  -34.2153 H   0  0  0  0  0  0  0  0  0  0  0  0
   -5.2589   13.4325  -35.4740 H   0  0  0  0  0  0  0  0  0  0  0  0
   -3.6889   14.3054  -35.4740 H   0  0  0  0  0  0  0  0  0  0  0  0
   -0.9223   17.2830  -34.3747 H   0  0  0  0  0  0  0  0  0  0  0  0
   -0.5385   19.4861  -34.5266 H   0  0  0  0  0  0  0  0  0  0  0  0
   -1.9152   20.5879  -34.9100 H   0  0  0  0  0  0  0  0  0  0  0  0
    0.3337   19.3066  -32.2486 H   0  0  0  0  0  0  0  0  0  0  0  0
    0.6145   20.4321  -30.0374 H   0  0  0  0  0  0  0  0  0  0  0  0
   -0.8991   22.3055  -29.3836 H   0  0  0  0  0  0  0  0  0  0  0  0
   -3.2770   23.3980  -29.9090 H   0  0  0  0  0  0  0  0  0  0  0  0
   -3.0910   24.1060  -31.5540 H   0  0  0  0  0  0  0  0  0  0  0  0
   -2.9845   21.9396  -33.1628 H   0  0  0  0  0  0  0  0  0  0  0  0
   -9.0263   22.3396  -32.4277 H   0  0  0  0  0  0  0  0  0  0  0  0
   -8.0480   24.2375  -31.1310 H   0  0  0  0  0  0  0  0  0  0  0  0
  1  2  1  0
  2  3  2  0
  2  4  2  0
  2  5  1  0
  5  6  2  0
  6  7  1  0
  7  8  2  0
  8  9  1  0
  9 10  1  0
 10 11  1  0
 11 12  2  0
 11 13  1  0
 13 14  2  0
 14 15  1  0
 15 16  1  0
 15 17  2  0
 15 18  2  0
 14 19  1  0
 19 20  2  0
 20 21  1  0
 21 22  1  0
 22 23  1  0
 23 24  2  0
 24 25  1  0
 25 26  2  0
 26 27  1  0
 27 28  1  0
 27 29  2  0
 21 30  1  0
 30 31  2  0
  8 32  1  0
 32 33  2  0
 33  5  1  0
 30 13  1  0
 29 23  1  0
  1 34  1  0
  1 35  1  0
  1 36  1  0
  6 37  1  0
  7 38  1  0
  9 39  1  0
  9 40  1  0
 10 41  1  0
 16 42  1  0
 16 43  1  0
 16 44  1  0
 20 45  1  0
 22 46  1  0
 22 47  1  0
 24 48  1  0
 25 49  1  0
 26 50  1  0
 28 51  1  0
 28 52  1  0
 29 53  1  0
 32 54  1  0
 33 55  1  0
M  END
>  <UniqueID>  (29) 
27

>  <SMILES>  (29) 
CS(=O)(=O)c1ccc(CNC(=O)c2c(S(C)(=O)=O)ncn(Cc3cccc(N)c3)c2=O)cc1

>  <Energy>  (29) 
56.00074941400275

>  <Genealogy>  (29) 
CS(=O)(=O)c1ccc(CNC(=O)c2c(S(C)(=O)=O)ncn(Cc3cccc(N)c3)c2=O)cc1 (3D coordinates assigned)
CS(=O)(=O)c1ccc(CNC(=O)c2c(S(C)(=O)=O)ncn(Cc3cccc(N)c3)c2=O)cc1 (optimized conformer: 56.00074941400275 kcal/mol)

>  <smiles>  (29) 
CS(=O)(=O)c1ccc(CNC(=O)c2c(S(C)(=O)=O)ncn(Cc3cccc(N)c3)c2=O)cc1

>  <score_type>  (29) 
oracle

>  <origin>  (29) 
adgpu

>  <m_score__min__energy>  (29) 
-10.140000000000001

>  <m_primary>  (29) 
energy

$$$$
29:0
     RDKit          3D

 62 65  0  0  0  0  0  0  0  0999 V2000
   -1.3790   17.6150  -33.5090 O   0  0  0  0  0  0  0  0  0  0  0  0
   -2.4870   18.1720  -33.7380 C   0  0  0  0  0  0  0  0  0  0  0  0
   -2.5590   19.6020  -33.6440 N   0  0  0  0  0  0  0  0  0  0  0  0
   -1.9810   20.3790  -32.5910 C   0  0  0  0  0  0  0  0  0  0  0  0
   -2.7830   21.3010  -31.9100 C   0  0  0  0  0  0  0  0  0  0  0  0
   -2.2660   22.0360  -30.8360 C   0  0  0  0  0  0  0  0  0  0  0  0
   -3.3070   23.1380  -29.9300 S   0  0  0  0  0  0  0  0  0  0  0  0
   -3.7150   24.2810  -30.8210 O   0  0  0  0  0  0  0  0  0  0  0  0
   -4.5550   22.4070  -29.5140 O   0  0  0  0  0  0  0  0  0  0  0  0
   -2.4890   23.7780  -28.5210 N   0  0  0  0  0  0  0  0  0  0  0  0
   -1.4570   24.7480  -28.9310 C   0  0  0  0  0  0  0  0  0  0  0  0
   -0.6910   25.2570  -27.7050 C   0  0  0  0  0  0  0  0  0  0  0  0
   -1.6550   25.8890  -26.6970 C   0  0  0  0  0  0  0  0  0  0  0  0
   -2.7830   24.9140  -26.3500 C   0  0  0  0  0  0  0  0  0  0  0  0
   -3.4720   24.4130  -27.6240 C   0  0  0  0  0  0  0  0  0  0  0  0
   -0.9260   21.8650  -30.4620 C   0  0  0  0  0  0  0  0  0  0  0  0
   -0.1100   20.9750  -31.1630 C   0  0  0  0  0  0  0  0  0  0  0  0
   -0.6230   20.2350  -32.2340 C   0  0  0  0  0  0  0  0  0  0  0  0
    0.2300   19.3760  -32.9260 O   0  0  0  0  0  0  0  0  0  0  0  0
   -3.6820   17.3470  -34.1830 C   0  0  1  0  0  0  0  0  0  0  0  0
   -4.2180   16.4990  -33.0170 C   0  0  0  0  0  0  0  0  0  0  0  0
   -5.6550   16.0730  -33.2800 C   0  0  0  0  0  0  0  0  0  0  0  0
   -6.5740   17.3020  -33.3550 C   0  0  0  0  0  0  0  0  0  0  0  0
   -5.9760   18.4680  -34.0510 N   0  0  0  0  0  0  0  0  0  0  0  0
   -5.7620   19.8500  -32.9980 S   0  0  0  0  0  0  0  0  0  0  0  0
   -5.0190   19.4270  -31.7610 O   0  0  0  0  0  0  0  0  0  0  0  0
   -4.9870   20.9280  -33.7050 O   0  0  0  0  0  0  0  0  0  0  0  0
   -7.3370   20.5220  -32.5450 C   0  0  0  0  0  0  0  0  0  0  0  0
   -8.4900   19.7280  -32.6730 C   0  0  0  0  0  0  0  0  0  0  0  0
   -9.7460   20.2420  -32.3400 C   0  0  0  0  0  0  0  0  0  0  0  0
   -9.8690   21.5550  -31.8870 C   0  0  0  0  0  0  0  0  0  0  0  0
   -8.7340   22.3620  -31.7720 C   0  0  0  0  0  0  0  0  0  0  0  0
   -7.4680   21.8580  -32.1040 C   0  0  0  0  0  0  0  0  0  0  0  0
   -6.0870   22.9440  -31.9860 Cl  0  0  0  0  0  0  0  0  0  0  0  0
   -4.7930   18.1790  -34.8910 C   0  0  0  0  0  0  0  0  0  0  0  0
   -3.8277   21.4498  -32.2205 H   0  0  0  0  0  0  0  0  0  0  0  0
   -0.7537   24.2599  -29.6218 H   0  0  0  0  0  0  0  0  0  0  0  0
   -1.9432   25.5998  -29.4291 H   0  0  0  0  0  0  0  0  0  0  0  0
   -0.1693   24.4142  -27.2281 H   0  0  0  0  0  0  0  0  0  0  0  0
    0.0353   26.0171  -28.0286 H   0  0  0  0  0  0  0  0  0  0  0  0
   -1.1035   26.1455  -25.7805 H   0  0  0  0  0  0  0  0  0  0  0  0
   -2.0922   26.7948  -27.1425 H   0  0  0  0  0  0  0  0  0  0  0  0
   -2.3642   24.0559  -25.8038 H   0  0  0  0  0  0  0  0  0  0  0  0
   -3.5243   25.4357  -25.7269 H   0  0  0  0  0  0  0  0  0  0  0  0
   -4.2446   23.6781  -27.3538 H   0  0  0  0  0  0  0  0  0  0  0  0
   -3.9303   25.2678  -28.1429 H   0  0  0  0  0  0  0  0  0  0  0  0
   -0.5163   22.4334  -29.6141 H   0  0  0  0  0  0  0  0  0  0  0  0
    0.9438   20.8547  -30.8712 H   0  0  0  0  0  0  0  0  0  0  0  0
   -0.1140   18.6660  -33.5610 H   0  0  0  0  0  0  0  0  0  0  0  0
   -3.3229   16.6595  -34.9630 H   0  0  0  0  0  0  0  0  0  0  0  0
   -3.5904   15.6028  -32.9036 H   0  0  0  0  0  0  0  0  0  0  0  0
   -4.1899   17.1025  -32.0977 H   0  0  0  0  0  0  0  0  0  0  0  0
   -5.7021   15.5267  -34.2336 H   0  0  0  0  0  0  0  0  0  0  0  0
   -5.9914   15.4263  -32.4562 H   0  0  0  0  0  0  0  0  0  0  0  0
   -7.4913   17.0145  -33.8897 H   0  0  0  0  0  0  0  0  0  0  0  0
   -6.7653   17.6170  -32.3186 H   0  0  0  0  0  0  0  0  0  0  0  0
   -8.4028   18.6940  -33.0381 H   0  0  0  0  0  0  0  0  0  0  0  0
  -10.6404   19.6089  -32.4355 H   0  0  0  0  0  0  0  0  0  0  0  0
  -10.8584   21.9551  -31.6205 H   0  0  0  0  0  0  0  0  0  0  0  0
   -8.8341   23.3990  -31.4189 H   0  0  0  0  0  0  0  0  0  0  0  0
   -5.1293   17.6192  -35.7761 H   0  0  0  0  0  0  0  0  0  0  0  0
   -4.3430   19.1512  -35.1405 H   0  0  0  0  0  0  0  0  0  0  0  0
  1  2  2  0
  2  3  1  0
  3  4  1  0
  4  5  2  0
  5  6  1  0
  6  7  1  0
  7  8  2  0
  7  9  2  0
  7 10  1  0
 10 11  1  0
 11 12  1  0
 12 13  1  0
 13 14  1  0
 14 15  1  0
  6 16  2  0
 16 17  1  0
 17 18  2  0
 18 19  1  0
  2 20  1  0
 20 21  1  0
 21 22  1  0
 22 23  1  0
 23 24  1  0
 24 25  1  0
 25 26  2  0
 25 27  2  0
 25 28  1  0
 28 29  2  0
 29 30  1  0
 30 31  2  0
 31 32  1  0
 32 33  2  0
 33 34  1  0
 24 35  1  0
 18  4  1  0
 35 20  1  0
 15 10  1  0
 33 28  1  0
  5 36  1  0
 11 37  1  0
 11 38  1  0
 12 39  1  0
 12 40  1  0
 13 41  1  0
 13 42  1  0
 14 43  1  0
 14 44  1  0
 15 45  1  0
 15 46  1  0
 16 47  1  0
 17 48  1  0
 19 49  1  0
 20 50  1  6
 21 51  1  0
 21 52  1  0
 22 53  1  0
 22 54  1  0
 23 55  1  0
 23 56  1  0
 29 57  1  0
 30 58  1  0
 31 59  1  0
 32 60  1  0
 35 61  1  0
 35 62  1  0
M  CHG  1   3  -1
M  END
>  <UniqueID>  (30) 
28

>  <SMILES>  (30) 
O=C([N-]c1cc(S(=O)(=O)N2CCCCC2)ccc1O)[C@H]1CCCN(S(=O)(=O)c2ccccc2Cl)C1

>  <Energy>  (30) 
76.61537142204968

>  <Genealogy>  (30) 
O=C([N-]c1cc(S(=O)(=O)N2CCCCC2)ccc1O)C1CCCN(S(=O)(=O)c2ccccc2Cl)C1 (protonated)
O=C([N-]c1cc(S(=O)(=O)N2CCCCC2)ccc1O)[C@H]1CCCN(S(=O)(=O)c2ccccc2Cl)C1 (chirality)
O=C([N-]c1cc(S(=O)(=O)N2CCCCC2)ccc1O)[C@H]1CCCN(S(=O)(=O)c2ccccc2Cl)C1 (3D coordinates assigned)
O=C([N-]c1cc(S(=O)(=O)N2CCCCC2)ccc1O)[C@H]1CCCN(S(=O)(=O)c2ccccc2Cl)C1 (nonaromatic ring conformer: 76.61537142204968 kcal/mol)

>  <smiles>  (30) 
O=C(Nc1cc(S(=O)(=O)N2CCCCC2)ccc1O)C1CCCN(S(=O)(=O)c2ccccc2Cl)C1

>  <score_type>  (30) 
oracle

>  <origin>  (30) 
adgpu

>  <m_score__min__energy>  (30) 
-13.390000000000001

>  <m_primary>  (30) 
energy

$$$$
30:0
     RDKit          3D

 57 61  0  0  0  0  0  0  0  0999 V2000
   -0.9100   17.6340  -35.2720 O   0  0  0  0  0  0  0  0  0  0  0  0
   -1.0220   18.8020  -34.3320 S   0  0  0  0  0  0  0  0  0  0  0  0
   -0.6030   20.0440  -35.0680 O   0  0  0  0  0  0  0  0  0  0  0  0
    0.0490   18.5580  -32.9900 N   0  0  0  0  0  0  0  0  0  0  0  0
   -0.1690   19.1220  -31.6960 C   0  0  0  0  0  0  0  0  0  0  0  0
   -1.4240   19.6790  -31.3450 C   0  0  0  0  0  0  0  0  0  0  0  0
   -1.6280   20.2410  -30.0720 C   0  0  0  0  0  0  0  0  0  0  0  0
   -0.5530   20.2500  -29.1800 C   0  0  0  0  0  0  0  0  0  0  0  0
    0.6690   19.7360  -29.5300 C   0  0  0  0  0  0  0  0  0  0  0  0
    1.5200   19.9150  -28.4610 C   0  0  0  0  0  0  0  0  0  0  0  0
    0.7570   20.5480  -27.4860 C   0  0  0  0  0  0  0  0  0  0  0  0
   -0.5100   20.7450  -27.9250 N   0  0  0  0  0  0  0  0  0  0  0  0
   -1.5640   21.4570  -27.2020 C   0  0  0  0  0  0  0  0  0  0  0  0
   -2.1770   22.5100  -28.0850 C   0  0  0  0  0  0  0  0  0  0  0  0
   -3.4370   22.2920  -28.6660 C   0  0  0  0  0  0  0  0  0  0  0  0
   -4.0280   23.2790  -29.4600 C   0  0  0  0  0  0  0  0  0  0  0  0
   -3.3690   24.4970  -29.6780 C   0  0  0  0  0  0  0  0  0  0  0  0
   -3.9520   25.4850  -30.4690 O   0  0  0  0  0  0  0  0  0  0  0  0
   -2.1150   24.7210  -29.0950 C   0  0  0  0  0  0  0  0  0  0  0  0
   -1.4540   25.9260  -29.3040 O   0  0  0  0  0  0  0  0  0  0  0  0
   -1.5220   23.7330  -28.3020 C   0  0  0  0  0  0  0  0  0  0  0  0
    0.9020   19.1720  -30.7820 C   0  0  0  0  0  0  0  0  0  0  0  0
   -2.6940   18.9850  -33.8130 C   0  0  0  0  0  0  0  0  0  0  0  0
   -3.2630   20.2570  -33.7080 C   0  0  0  0  0  0  0  0  0  0  0  0
   -4.6000   20.4070  -33.3310 C   0  0  0  0  0  0  0  0  0  0  0  0
   -5.4090   19.2800  -33.0450 C   0  0  0  0  0  0  0  0  0  0  0  0
   -6.8090   19.4330  -32.6540 N   0  0  0  0  0  0  0  0  0  0  0  0
   -7.6340   18.2250  -32.4340 C   0  0  0  0  0  0  0  0  0  0  0  0
   -9.0540   18.5330  -31.9500 C   0  0  0  0  0  0  0  0  0  0  0  0
   -9.5670   19.6770  -32.5910 O   0  0  0  0  0  0  0  0  0  0  0  0
   -8.8580   20.8010  -32.1260 C   0  0  0  0  0  0  0  0  0  0  0  0
   -7.4110   20.7830  -32.6280 C   0  0  0  0  0  0  0  0  0  0  0  0
   -4.8140   18.0020  -33.1620 C   0  0  0  0  0  0  0  0  0  0  0  0
   -3.4760   17.8600  -33.5400 C   0  0  0  0  0  0  0  0  0  0  0  0
   -2.2465   19.6717  -32.0753 H   0  0  0  0  0  0  0  0  0  0  0  0
   -2.6042   20.6606  -29.7875 H   0  0  0  0  0  0  0  0  0  0  0  0
    2.5775   19.6200  -28.3934 H   0  0  0  0  0  0  0  0  0  0  0  0
    1.1301   20.8474  -26.4955 H   0  0  0  0  0  0  0  0  0  0  0  0
   -2.3415   20.7419  -26.8952 H   0  0  0  0  0  0  0  0  0  0  0  0
   -1.1285   21.9402  -26.3150 H   0  0  0  0  0  0  0  0  0  0  0  0
   -3.9612   21.3401  -28.4954 H   0  0  0  0  0  0  0  0  0  0  0  0
   -5.0132   23.0995  -29.9152 H   0  0  0  0  0  0  0  0  0  0  0  0
   -3.8660   26.4680  -30.2400 H   0  0  0  0  0  0  0  0  0  0  0  0
   -0.5376   23.9150  -27.8461 H   0  0  0  0  0  0  0  0  0  0  0  0
    1.8933   18.7771  -31.0494 H   0  0  0  0  0  0  0  0  0  0  0  0
   -2.6536   21.1470  -33.9238 H   0  0  0  0  0  0  0  0  0  0  0  0
   -5.0311   21.4161  -33.2551 H   0  0  0  0  0  0  0  0  0  0  0  0
   -7.7020   17.6726  -33.3828 H   0  0  0  0  0  0  0  0  0  0  0  0
   -7.1434   17.6386  -31.6432 H   0  0  0  0  0  0  0  0  0  0  0  0
   -9.7042   17.6740  -32.1719 H   0  0  0  0  0  0  0  0  0  0  0  0
   -9.0225   18.7218  -30.8668 H   0  0  0  0  0  0  0  0  0  0  0  0
   -9.3532   21.7140  -32.4883 H   0  0  0  0  0  0  0  0  0  0  0  0
   -8.8479   20.7789  -31.0263 H   0  0  0  0  0  0  0  0  0  0  0  0
   -7.3923   21.1915  -33.6491 H   0  0  0  0  0  0  0  0  0  0  0  0
   -6.8185   21.3863  -31.9244 H   0  0  0  0  0  0  0  0  0  0  0  0
   -5.4146   17.1047  -32.9519 H   0  0  0  0  0  0  0  0  0  0  0  0
   -3.0356   16.8554  -33.6231 H   0  0  0  0  0  0  0  0  0  0  0  0
  1  2  2  0
  2  3  2  0
  2  4  1  0
  4  5  1  0
  5  6  2  0
  6  7  1  0
  7  8  2  0
  8  9  1  0
  9 10  1  0
 10 11  2  0
 11 12  1  0
 12 13  1  0
 13 14  1  0
 14 15  2  0
 15 16  1  0
 16 17  2  0
 17 18  1  0
 17 19  1  0
 19 20  1  0
 19 21  2  0
  9 22  2  0
  2 23  1  0
 23 24  2  0
 24 25  1  0
 25 26  2  0
 26 27  1  0
 27 28  1  0
 28 29  1  0
 29 30  1  0
 30 31  1  0
 31 32  1  0
 26 33  1  0
 33 34  2  0
 22  5  1  0
 34 23  1  0
 12  8  1  0
 21 14  1  0
 32 27  1  0
  6 35  1  0
  7 36  1  0
 10 37  1  0
 11 38  1  0
 13 39  1  0
 13 40  1  0
 15 41  1  0
 16 42  1  0
 18 43  1  0
 21 44  1  0
 22 45  1  0
 24 46  1  0
 25 47  1  0
 28 48  1  0
 28 49  1  0
 29 50  1  0
 29 51  1  0
 31 52  1  0
 31 53  1  0
 32 54  1  0
 32 55  1  0
 33 56  1  0
 34 57  1  0
M  CHG  2   4  -1  20  -1
M  END
>  <UniqueID>  (31) 
29

>  <SMILES>  (31) 
O=S(=O)([N-]c1ccc2c(ccn2Cc2ccc(O)c([O-])c2)c1)c1ccc(N2CCOCC2)cc1

>  <Energy>  (31) 
110.51445367317271

>  <Genealogy>  (31) 
O=S(=O)([N-]c1ccc2c(ccn2Cc2ccc(O)c([O-])c2)c1)c1ccc(N2CCOCC2)cc1 (protonated)
O=S(=O)([N-]c1ccc2c(ccn2Cc2ccc(O)c([O-])c2)c1)c1ccc(N2CCOCC2)cc1 (3D coordinates assigned)
O=S(=O)([N-]c1ccc2c(ccn2Cc2ccc(O)c([O-])c2)c1)c1ccc(N2CCOCC2)cc1 (nonaromatic ring conformer: 110.51445367317271 kcal/mol)

>  <smiles>  (31) 
O=S(=O)(Nc1ccc2c(ccn2Cc2ccc(O)c(O)c2)c1)c1ccc(N2CCOCC2)cc1

>  <score_type>  (31) 
oracle

>  <origin>  (31) 
adgpu

>  <m_score__min__energy>  (31) 
-13.800000000000001

>  <m_primary>  (31) 
energy

$$$$
31:0
     RDKit          3D

 48 51  0  0  0  0  0  0  0  0999 V2000
   -4.6170   25.5460  -30.8630 O   0  0  0  0  0  0  0  0  0  0  0  0
   -3.9600   24.6270  -30.3000 C   0  0  0  0  0  0  0  0  0  0  0  0
   -2.6920   24.9140  -29.7060 N   0  0  0  0  0  0  0  0  0  0  0  0
   -2.2750   24.3580  -28.4270 C   0  0  0  0  0  0  0  0  0  0  0  0
   -2.0030   22.8950  -28.5850 C   0  0  0  0  0  0  0  0  0  0  0  0
   -1.8750   22.0650  -27.4630 C   0  0  0  0  0  0  0  0  0  0  0  0
   -1.5800   20.7150  -27.6430 C   0  0  0  0  0  0  0  0  0  0  0  0
   -1.4100   20.2030  -28.9300 C   0  0  0  0  0  0  0  0  0  0  0  0
   -1.5350   21.0580  -30.0410 C   0  0  0  0  0  0  0  0  0  0  0  0
   -1.3560   20.5770  -31.3910 N   0  0  0  0  0  0  0  0  0  0  0  0
   -1.4390   21.5250  -32.5100 C   0  0  0  0  0  0  0  0  0  0  0  0
   -1.8660   20.8030  -33.7900 C   0  0  0  0  0  0  0  0  0  0  0  0
   -1.0470   19.6750  -34.0270 O   0  0  0  0  0  0  0  0  0  0  0  0
   -1.2560   18.7190  -33.0070 C   0  0  0  0  0  0  0  0  0  0  0  0
   -0.7790   19.2510  -31.6520 C   0  0  0  0  0  0  0  0  0  0  0  0
   -1.8190   22.3750  -29.8290 N   0  0  0  0  0  0  0  0  0  0  0  0
   -4.4890   23.2980  -30.2220 N   0  0  0  0  0  0  0  0  0  0  0  0
   -5.6890   22.8870  -30.8990 C   0  0  0  0  0  0  0  0  0  0  0  0
   -6.8180   23.7230  -30.8770 C   0  0  0  0  0  0  0  0  0  0  0  0
   -7.9790   23.3750  -31.5680 C   0  0  0  0  0  0  0  0  0  0  0  0
   -8.0310   22.1910  -32.3020 C   0  0  0  0  0  0  0  0  0  0  0  0
   -6.9190   21.3390  -32.3480 C   0  0  0  0  0  0  0  0  0  0  0  0
   -6.9770   20.1470  -33.0860 C   0  0  0  0  0  0  0  0  0  0  0  0
   -5.8780   19.2880  -33.1210 C   0  0  0  0  0  0  0  0  0  0  0  0
   -4.7160   19.6070  -32.4190 C   0  0  0  0  0  0  0  0  0  0  0  0
   -4.6410   20.7910  -31.6810 C   0  0  0  0  0  0  0  0  0  0  0  0
   -5.7340   21.6810  -31.6420 C   0  0  0  0  0  0  0  0  0  0  0  0
   -1.3609   24.8664  -28.0865 H   0  0  0  0  0  0  0  0  0  0  0  0
   -3.0737   24.5048  -27.6850 H   0  0  0  0  0  0  0  0  0  0  0  0
   -2.0060   22.4750  -26.4507 H   0  0  0  0  0  0  0  0  0  0  0  0
   -1.4811   20.0527  -26.7703 H   0  0  0  0  0  0  0  0  0  0  0  0
   -1.1796   19.1373  -29.0754 H   0  0  0  0  0  0  0  0  0  0  0  0
   -2.1768   22.3049  -32.2704 H   0  0  0  0  0  0  0  0  0  0  0  0
   -0.4490   21.9774  -32.6687 H   0  0  0  0  0  0  0  0  0  0  0  0
   -2.9109   20.4749  -33.6876 H   0  0  0  0  0  0  0  0  0  0  0  0
   -1.7640   21.4971  -34.6372 H   0  0  0  0  0  0  0  0  0  0  0  0
   -2.3296   18.4874  -32.9451 H   0  0  0  0  0  0  0  0  0  0  0  0
   -0.6807   17.8137  -33.2510 H   0  0  0  0  0  0  0  0  0  0  0  0
   -1.0930   18.5565  -30.8589 H   0  0  0  0  0  0  0  0  0  0  0  0
    0.3176   19.3356  -31.6676 H   0  0  0  0  0  0  0  0  0  0  0  0
   -3.9770   22.6030  -29.6330 H   0  0  0  0  0  0  0  0  0  0  0  0
   -6.7861   24.6637  -30.3078 H   0  0  0  0  0  0  0  0  0  0  0  0
   -8.8566   24.0373  -31.5335 H   0  0  0  0  0  0  0  0  0  0  0  0
   -8.9484   21.9243  -32.8472 H   0  0  0  0  0  0  0  0  0  0  0  0
   -7.8922   19.8888  -33.6390 H   0  0  0  0  0  0  0  0  0  0  0  0
   -5.9283   18.3565  -33.7040 H   0  0  0  0  0  0  0  0  0  0  0  0
   -3.8546   18.9234  -32.4464 H   0  0  0  0  0  0  0  0  0  0  0  0
   -3.7220   21.0308  -31.1260 H   0  0  0  0  0  0  0  0  0  0  0  0
  1  2  2  0
  2  3  1  0
  3  4  1  0
  4  5  1  0
  5  6  2  0
  6  7  1  0
  7  8  2  0
  8  9  1  0
  9 10  1  0
 10 11  1  0
 11 12  1  0
 12 13  1  0
 13 14  1  0
 14 15  1  0
  9 16  2  0
  2 17  1  0
 17 18  1  0
 18 19  2  0
 19 20  1  0
 20 21  2  0
 21 22  1  0
 22 23  2  0
 23 24  1  0
 24 25  2  0
 25 26  1  0
 26 27  2  0
 16  5  1  0
 27 18  1  0
 15 10  1  0
 27 22  1  0
  4 28  1  0
  4 29  1  0
  6 30  1  0
  7 31  1  0
  8 32  1  0
 11 33  1  0
 11 34  1  0
 12 35  1  0
 12 36  1  0
 14 37  1  0
 14 38  1  0
 15 39  1  0
 15 40  1  0
 17 41  1  0
 19 42  1  0
 20 43  1  0
 21 44  1  0
 23 45  1  0
 24 46  1  0
 25 47  1  0
 26 48  1  0
M  CHG  1   3  -1
M  END
>  <UniqueID>  (32) 
30

>  <SMILES>  (32) 
O=C([N-]Cc1cccc(N2CCOCC2)n1)Nc1cccc2ccccc12

>  <Energy>  (32) 
61.44257166364466

>  <Genealogy>  (32) 
O=C([N-]Cc1cccc(N2CCOCC2)n1)Nc1cccc2ccccc12 (protonated)
O=C([N-]Cc1cccc(N2CCOCC2)n1)Nc1cccc2ccccc12 (3D coordinates assigned)
O=C([N-]Cc1cccc(N2CCOCC2)n1)Nc1cccc2ccccc12 (nonaromatic ring conformer: 61.44257166364466 kcal/mol)

>  <smiles>  (32) 
O=C(NCc1cccc(N2CCOCC2)n1)Nc1cccc2ccccc12

>  <score_type>  (32) 
oracle

>  <origin>  (32) 
adgpu

>  <m_score__min__energy>  (32) 
-10.83

>  <m_primary>  (32) 
energy

$$$$
32:0
     RDKit          3D

 50 53  0  0  0  0  0  0  0  0999 V2000
   -3.6660   20.1270  -32.5620 O   0  0  0  0  0  0  0  0  0  0  0  0
   -3.2020   21.2630  -32.2740 C   0  0  0  0  0  0  0  0  0  0  0  0
   -1.7380   21.5260  -32.4580 C   0  0  0  0  0  0  0  0  0  0  0  0
   -0.7560   20.8340  -31.0790 S   0  0  0  0  0  0  0  0  0  0  0  0
   -1.1740   22.1370  -29.9250 C   0  0  0  0  0  0  0  0  0  0  0  0
   -2.0650   23.1010  -30.2800 N   0  0  0  0  0  0  0  0  0  0  0  0
   -2.4140   24.0900  -29.4160 C   0  0  0  0  0  0  0  0  0  0  0  0
   -3.2500   24.9610  -29.7810 O   0  0  0  0  0  0  0  0  0  0  0  0
   -1.8460   24.1260  -28.1310 C   0  0  0  0  0  0  0  0  0  0  0  0
   -2.1730   25.1170  -27.1880 C   0  0  0  0  0  0  0  0  0  0  0  0
   -1.5800   25.0960  -25.9210 C   0  0  0  0  0  0  0  0  0  0  0  0
   -0.6670   24.0920  -25.5860 C   0  0  0  0  0  0  0  0  0  0  0  0
   -0.3370   23.1040  -26.5180 C   0  0  0  0  0  0  0  0  0  0  0  0
   -0.9200   23.1170  -27.7890 C   0  0  0  0  0  0  0  0  0  0  0  0
   -0.6080   22.1520  -28.6920 N   0  0  0  0  0  0  0  0  0  0  0  0
   -4.0540   22.2820  -31.7290 N   0  0  0  0  0  0  0  0  0  0  0  0
   -5.4910   22.2700  -31.8160 C   0  0  0  0  0  0  0  0  0  0  0  0
   -6.2450   23.4520  -31.7030 C   0  0  0  0  0  0  0  0  0  0  0  0
   -7.6410   23.4040  -31.7510 C   0  0  0  0  0  0  0  0  0  0  0  0
   -8.2970   22.1810  -31.9090 C   0  0  0  0  0  0  0  0  0  0  0  0
   -7.5600   20.9950  -32.0110 C   0  0  0  0  0  0  0  0  0  0  0  0
   -8.3890   19.4480  -32.2040 S   0  0  0  0  0  0  0  0  0  0  0  0
   -8.9720   19.0330  -30.8820 O   0  0  0  0  0  0  0  0  0  0  0  0
   -9.5220   19.6130  -33.1800 O   0  0  0  0  0  0  0  0  0  0  0  0
   -7.3100   18.1980  -32.7750 N   0  0  0  0  0  0  0  0  0  0  0  0
   -6.4990   18.6890  -33.9010 C   0  0  0  0  0  0  0  0  0  0  0  0
   -5.3970   17.6720  -34.2620 C   0  0  0  0  0  0  0  0  0  0  0  0
   -5.6100   16.4360  -33.6080 O   0  0  0  0  0  0  0  0  0  0  0  0
   -5.5100   16.6110  -32.2050 C   0  0  0  0  0  0  0  0  0  0  0  0
   -6.4390   17.7300  -31.6880 C   0  0  0  0  0  0  0  0  0  0  0  0
   -6.1590   21.0440  -31.9570 C   0  0  0  0  0  0  0  0  0  0  0  0
   -1.4072   21.0640  -33.3998 H   0  0  0  0  0  0  0  0  0  0  0  0
   -1.5825   22.6147  -32.4810 H   0  0  0  0  0  0  0  0  0  0  0  0
   -2.8936   25.9070  -27.4462 H   0  0  0  0  0  0  0  0  0  0  0  0
   -1.8334   25.8732  -25.1850 H   0  0  0  0  0  0  0  0  0  0  0  0
   -0.2072   24.0794  -24.5868 H   0  0  0  0  0  0  0  0  0  0  0  0
    0.3821   22.3154  -26.2514 H   0  0  0  0  0  0  0  0  0  0  0  0
   -3.6000   23.0640  -31.2020 H   0  0  0  0  0  0  0  0  0  0  0  0
   -5.7340   24.4178  -31.5764 H   0  0  0  0  0  0  0  0  0  0  0  0
   -8.2249   24.3322  -31.6641 H   0  0  0  0  0  0  0  0  0  0  0  0
   -9.3957   22.1496  -31.9534 H   0  0  0  0  0  0  0  0  0  0  0  0
   -7.1493   18.8424  -34.7748 H   0  0  0  0  0  0  0  0  0  0  0  0
   -6.0239   19.6370  -33.6084 H   0  0  0  0  0  0  0  0  0  0  0  0
   -5.4017   17.5083  -35.3497 H   0  0  0  0  0  0  0  0  0  0  0  0
   -4.4277   18.0771  -33.9359 H   0  0  0  0  0  0  0  0  0  0  0  0
   -5.7831   15.6673  -31.7102 H   0  0  0  0  0  0  0  0  0  0  0  0
   -4.4739   16.8995  -31.9742 H   0  0  0  0  0  0  0  0  0  0  0  0
   -7.0581   17.3399  -30.8667 H   0  0  0  0  0  0  0  0  0  0  0  0
   -5.8280   18.5700  -31.3260 H   0  0  0  0  0  0  0  0  0  0  0  0
   -5.5784   20.1122  -32.0259 H   0  0  0  0  0  0  0  0  0  0  0  0
  1  2  2  0
  2  3  1  0
  3  4  1  0
  4  5  1  0
  5  6  2  0
  6  7  1  0
  7  8  2  0
  7  9  1  0
  9 10  2  0
 10 11  1  0
 11 12  2  0
 12 13  1  0
 13 14  2  0
 14 15  1  0
  2 16  1  0
 16 17  1  0
 17 18  2  0
 18 19  1  0
 19 20  2  0
 20 21  1  0
 21 22  1  0
 22 23  2  0
 22 24  2  0
 22 25  1  0
 25 26  1  0
 26 27  1  0
 27 28  1  0
 28 29  1  0
 29 30  1  0
 21 31  2  0
 15  5  1  0
 31 17  1  0
 14  9  1  0
 30 25  1  0
  3 32  1  0
  3 33  1  0
 10 34  1  0
 11 35  1  0
 12 36  1  0
 13 37  1  0
 16 38  1  0
 18 39  1  0
 19 40  1  0
 20 41  1  0
 26 42  1  0
 26 43  1  0
 27 44  1  0
 27 45  1  0
 29 46  1  0
 29 47  1  0
 30 48  1  0
 30 49  1  0
 31 50  1  0
M  CHG  1  15  -1
M  END
>  <UniqueID>  (33) 
31

>  <SMILES>  (33) 
O=C(CSc1nc(=O)c2ccccc2[n-]1)Nc1cccc(S(=O)(=O)N2CCOCC2)c1

>  <Energy>  (33) 
61.90113625780156

>  <Genealogy>  (33) 
O=C(CSc1nc(=O)c2ccccc2[n-]1)Nc1cccc(S(=O)(=O)N2CCOCC2)c1 (protonated)
O=C(CSc1nc(=O)c2ccccc2[n-]1)Nc1cccc(S(=O)(=O)N2CCOCC2)c1 (3D coordinates assigned)
O=C(CSc1nc(=O)c2ccccc2[n-]1)Nc1cccc(S(=O)(=O)N2CCOCC2)c1 (nonaromatic ring conformer: 61.90113625780156 kcal/mol)

>  <smiles>  (33) 
O=C(CSc1nc(=O)c2ccccc2[nH]1)Nc1cccc(S(=O)(=O)N2CCOCC2)c1

>  <score_type>  (33) 
oracle

>  <origin>  (33) 
adgpu

>  <m_score__min__energy>  (33) 
-10.91

>  <m_primary>  (33) 
energy

$$$$
33:0
     RDKit          3D

 51 53  0  0  0  0  0  0  0  0999 V2000
   -3.1920   18.9090  -26.0800 C   0  0  0  0  0  0  0  0  0  0  0  0
   -3.2530   19.8960  -27.1020 O   0  0  0  0  0  0  0  0  0  0  0  0
   -2.1170   20.3450  -27.7850 C   0  0  0  0  0  0  0  0  0  0  0  0
   -1.1870   19.5380  -28.0610 O   0  0  0  0  0  0  0  0  0  0  0  0
   -2.0040   21.7700  -28.1700 C   0  0  0  0  0  0  0  0  0  0  0  0
   -1.0340   22.5900  -27.5740 C   0  0  0  0  0  0  0  0  0  0  0  0
   -0.9150   23.9300  -27.9500 C   0  0  0  0  0  0  0  0  0  0  0  0
   -1.7450   24.4620  -28.9400 C   0  0  0  0  0  0  0  0  0  0  0  0
   -1.5910   25.7930  -29.3150 O   0  0  0  0  0  0  0  0  0  0  0  0
   -2.7120   23.6530  -29.5620 C   0  0  0  0  0  0  0  0  0  0  0  0
   -3.5240   24.1870  -30.6230 N   0  0  0  0  0  0  0  0  0  0  0  0
   -5.2350   24.4270  -30.4530 S   0  0  0  0  0  0  0  0  0  0  0  0
   -5.6460   25.6650  -31.2020 O   0  0  0  0  0  0  0  0  0  0  0  0
   -5.5660   24.5990  -28.9970 O   0  0  0  0  0  0  0  0  0  0  0  0
   -6.0900   23.0440  -31.1300 C   0  0  0  0  0  0  0  0  0  0  0  0
   -5.4390   21.8080  -31.2160 C   0  0  0  0  0  0  0  0  0  0  0  0
   -6.1470   20.6640  -31.5940 C   0  0  0  0  0  0  0  0  0  0  0  0
   -7.5120   20.7480  -31.8920 C   0  0  0  0  0  0  0  0  0  0  0  0
   -8.4160   19.2740  -32.2170 S   0  0  0  0  0  0  0  0  0  0  0  0
   -8.9290   18.6830  -30.9320 O   0  0  0  0  0  0  0  0  0  0  0  0
   -9.5850   19.6080  -33.1020 O   0  0  0  0  0  0  0  0  0  0  0  0
   -7.3670   18.1340  -33.0200 N   0  0  0  0  0  0  0  0  0  0  0  0
   -6.4810   18.8380  -33.9620 C   0  0  0  0  0  0  0  0  0  0  0  0
   -5.7140   17.8290  -34.8370 C   0  0  0  0  0  0  0  0  0  0  0  0
   -5.6000   16.4460  -34.1750 C   0  0  0  0  0  0  0  0  0  0  0  0
   -5.4290   16.5760  -32.6580 C   0  0  0  0  0  0  0  0  0  0  0  0
   -6.5820   17.3830  -32.0180 C   0  0  0  0  0  0  0  0  0  0  0  0
   -8.1570   21.9920  -31.8430 C   0  0  0  0  0  0  0  0  0  0  0  0
   -7.4490   23.1360  -31.4660 C   0  0  0  0  0  0  0  0  0  0  0  0
   -2.8540   22.3160  -29.1480 C   0  0  0  0  0  0  0  0  0  0  0  0
   -3.2222   19.3984  -25.0953 H   0  0  0  0  0  0  0  0  0  0  0  0
   -4.0497   18.2272  -26.1771 H   0  0  0  0  0  0  0  0  0  0  0  0
   -2.2568   18.3380  -26.1771 H   0  0  0  0  0  0  0  0  0  0  0  0
   -0.3637   22.1755  -26.8066 H   0  0  0  0  0  0  0  0  0  0  0  0
   -0.1637   24.5699  -27.4640 H   0  0  0  0  0  0  0  0  0  0  0  0
   -3.1300   24.2520  -31.5890 H   0  0  0  0  0  0  0  0  0  0  0  0
   -4.3659   21.7368  -30.9851 H   0  0  0  0  0  0  0  0  0  0  0  0
   -5.6302   19.6950  -31.6575 H   0  0  0  0  0  0  0  0  0  0  0  0
   -7.0855   19.4915  -34.6082 H   0  0  0  0  0  0  0  0  0  0  0  0
   -5.7564   19.4361  -33.3899 H   0  0  0  0  0  0  0  0  0  0  0  0
   -6.2426   17.7193  -35.7954 H   0  0  0  0  0  0  0  0  0  0  0  0
   -4.6947   18.2168  -34.9806 H   0  0  0  0  0  0  0  0  0  0  0  0
   -6.5129   15.8698  -34.3860 H   0  0  0  0  0  0  0  0  0  0  0  0
   -4.7173   15.9330  -34.5846 H   0  0  0  0  0  0  0  0  0  0  0  0
   -5.4094   15.5697  -32.2142 H   0  0  0  0  0  0  0  0  0  0  0  0
   -4.4879   17.1115  -32.4644 H   0  0  0  0  0  0  0  0  0  0  0  0
   -7.2525   16.6862  -31.4937 H   0  0  0  0  0  0  0  0  0  0  0  0
   -6.1371   18.1121  -31.3249 H   0  0  0  0  0  0  0  0  0  0  0  0
   -9.2234   22.0675  -32.1021 H   0  0  0  0  0  0  0  0  0  0  0  0
   -7.9581   24.1105  -31.4326 H   0  0  0  0  0  0  0  0  0  0  0  0
   -3.6400   21.6897  -29.5951 H   0  0  0  0  0  0  0  0  0  0  0  0
  1  2  1  0
  2  3  1  0
  3  4  2  0
  3  5  1  0
  5  6  2  0
  6  7  1  0
  7  8  2  0
  8  9  1  0
  8 10  1  0
 10 11  1  0
 11 12  1  0
 12 13  2  0
 12 14  2  0
 12 15  1  0
 15 16  2  0
 16 17  1  0
 17 18  2  0
 18 19  1  0
 19 20  2  0
 19 21  2  0
 19 22  1  0
 22 23  1  0
 23 24  1  0
 24 25  1  0
 25 26  1  0
 26 27  1  0
 18 28  1  0
 28 29  2  0
 10 30  2  0
 30  5  1  0
 29 15  1  0
 27 22  1  0
  1 31  1  0
  1 32  1  0
  1 33  1  0
  6 34  1  0
  7 35  1  0
 11 36  1  0
 16 37  1  0
 17 38  1  0
 23 39  1  0
 23 40  1  0
 24 41  1  0
 24 42  1  0
 25 43  1  0
 25 44  1  0
 26 45  1  0
 26 46  1  0
 27 47  1  0
 27 48  1  0
 28 49  1  0
 29 50  1  0
 30 51  1  0
M  CHG  1   9  -1
M  END
>  <UniqueID>  (34) 
32

>  <SMILES>  (34) 
COC(=O)c1ccc([O-])c(NS(=O)(=O)c2ccc(S(=O)(=O)N3CCCCC3)cc2)c1

>  <Energy>  (34) 
53.47286082814286

>  <Genealogy>  (34) 
COC(=O)c1ccc([O-])c(NS(=O)(=O)c2ccc(S(=O)(=O)N3CCCCC3)cc2)c1 (protonated)
COC(=O)c1ccc([O-])c(NS(=O)(=O)c2ccc(S(=O)(=O)N3CCCCC3)cc2)c1 (3D coordinates assigned)
COC(=O)c1ccc([O-])c(NS(=O)(=O)c2ccc(S(=O)(=O)N3CCCCC3)cc2)c1 (nonaromatic ring conformer: 53.47286082814286 kcal/mol)

>  <smiles>  (34) 
COC(=O)c1ccc(O)c(NS(=O)(=O)c2ccc(S(=O)(=O)N3CCCCC3)cc2)c1

>  <score_type>  (34) 
oracle

>  <origin>  (34) 
adgpu

>  <m_score__min__energy>  (34) 
-14.75

>  <m_primary>  (34) 
energy

$$$$
34:0
     RDKit          3D

 46 49  0  0  0  0  0  0  0  0999 V2000
  -10.3420   19.6556  -32.2660 H   0  0  0  0  0  0  0  0  0  0  0  0
   -9.3250   20.0380  -32.0940 C   0  0  0  0  0  0  0  0  0  0  0  0
   -8.2510   19.2370  -32.3150 N   0  0  0  0  0  0  0  0  0  0  0  0
   -6.9820   19.6890  -32.1140 C   0  0  0  0  0  0  0  0  0  0  0  0
   -5.9510   18.9170  -32.2970 N   0  0  0  0  0  0  0  0  0  0  0  0
   -5.9580   17.5730  -32.8070 C   0  0  0  0  0  0  0  0  0  0  0  0
   -6.8530   17.1610  -33.8140 C   0  0  0  0  0  0  0  0  0  0  0  0
   -7.5938   17.8699  -34.2123 H   0  0  0  0  0  0  0  0  0  0  0  0
   -6.8030   15.8540  -34.3090 C   0  0  0  0  0  0  0  0  0  0  0  0
   -7.5135   15.5339  -35.0853 H   0  0  0  0  0  0  0  0  0  0  0  0
   -5.8510   14.9520  -33.8190 C   0  0  0  0  0  0  0  0  0  0  0  0
   -5.8000   13.6080  -34.3300 C   0  0  0  0  0  0  0  0  0  0  0  0
   -5.7590   12.5260  -34.7410 N   0  0  0  0  0  0  0  0  0  0  0  0
   -4.9400   15.3660  -32.8400 C   0  0  0  0  0  0  0  0  0  0  0  0
   -4.1855   14.6621  -32.4589 H   0  0  0  0  0  0  0  0  0  0  0  0
   -4.9880   16.6730  -32.3460 C   0  0  0  0  0  0  0  0  0  0  0  0
   -4.2584   16.9974  -31.5894 H   0  0  0  0  0  0  0  0  0  0  0  0
   -6.7880   20.9580  -31.6690 N   0  0  0  0  0  0  0  0  0  0  0  0
   -7.8330   21.8000  -31.4440 C   0  0  0  0  0  0  0  0  0  0  0  0
   -7.6280   23.1020  -30.9710 O   0  0  0  0  0  0  0  0  0  0  0  0
   -6.3900   23.6350  -30.5850 C   0  0  0  0  0  0  0  0  0  0  0  0
   -5.8440   24.7790  -31.1950 C   0  0  0  0  0  0  0  0  0  0  0  0
   -6.3920   25.2810  -32.0060 H   0  0  0  0  0  0  0  0  0  0  0  0
   -4.6090   25.2810  -30.7760 C   0  0  0  0  0  0  0  0  0  0  0  0
   -4.1930   26.1796  -31.2551 H   0  0  0  0  0  0  0  0  0  0  0  0
   -3.8980   24.6470  -29.7500 C   0  0  0  0  0  0  0  0  0  0  0  0
   -2.6340   25.1890  -29.3430 N   0  0  0  0  0  0  0  0  0  0  0  0
   -1.4200   24.4490  -29.1500 C   0  0  0  0  0  0  0  0  0  0  0  0
   -0.4420   25.0280  -28.6060 O   0  0  0  0  0  0  0  0  0  0  0  0
   -1.2670   23.0500  -29.6180 C   0  0  0  0  0  0  0  0  0  0  0  0
   -0.5150   22.1220  -28.8790 C   0  0  0  0  0  0  0  0  0  0  0  0
   -0.0377   22.4326  -27.9379 H   0  0  0  0  0  0  0  0  0  0  0  0
   -0.3680   20.8060  -29.3300 C   0  0  0  0  0  0  0  0  0  0  0  0
    0.6770   19.5750  -28.3040 Br  0  0  0  0  0  0  0  0  0  0  0  0
   -0.9870   20.4000  -30.5200 C   0  0  0  0  0  0  0  0  0  0  0  0
   -0.8410   19.0930  -30.9700 O   0  0  0  0  0  0  0  0  0  0  0  0
   -1.7540   21.3140  -31.2540 C   0  0  0  0  0  0  0  0  0  0  0  0
   -2.6120   20.7830  -32.8790 Br  0  0  0  0  0  0  0  0  0  0  0  0
   -1.8970   22.6310  -30.8020 C   0  0  0  0  0  0  0  0  0  0  0  0
   -2.5068   23.3429  -31.3777 H   0  0  0  0  0  0  0  0  0  0  0  0
   -4.4640   23.5310  -29.1090 C   0  0  0  0  0  0  0  0  0  0  0  0
   -3.9316   23.0490  -28.2758 H   0  0  0  0  0  0  0  0  0  0  0  0
   -5.7010   23.0320  -29.5270 C   0  0  0  0  0  0  0  0  0  0  0  0
   -6.1363   22.1582  -29.0201 H   0  0  0  0  0  0  0  0  0  0  0  0
   -9.1370   21.3450  -31.6490 C   0  0  0  0  0  0  0  0  0  0  0  0
   -9.9977   22.0043  -31.4632 H   0  0  0  0  0  0  0  0  0  0  0  0
  1  2  1  0
  2  3  1  0
  3  4  1  0
  4  5  2  0
  5  6  1  0
  6  7  2  0
  7  8  1  0
  7  9  1  0
  9 10  1  0
  9 11  2  0
 11 12  1  0
 12 13  3  0
 11 14  1  0
 14 15  1  0
 14 16  2  0
 16 17  1  0
  4 18  1  0
 18 19  2  0
 19 20  1  0
 20 21  1  0
 21 22  2  0
 22 23  1  0
 22 24  1  0
 24 25  1  0
 24 26  2  0
 26 27  1  0
 27 28  1  0
 28 29  2  0
 28 30  1  0
 30 31  2  0
 31 32  1  0
 31 33  1  0
 33 34  1  0
 33 35  2  0
 35 36  1  0
 35 37  1  0
 37 38  1  0
 37 39  2  0
 39 40  1  0
 26 41  1  0
 41 42  1  0
 41 43  2  0
 43 44  1  0
 19 45  1  0
 45 46  1  0
 45  2  2  0
 16  6  1  0
 43 21  1  0
 39 30  1  0
M  CHG  3   3  -1  27  -1  36  -1
M  END
>  <UniqueID>  (35) 
33

>  <SMILES>  (35) 
N#Cc1ccc(/N=c2/nc(Oc3ccc([N-]C(=O)c4cc(Br)c([O-])c(Br)c4)cc3)cc[n-]2)cc1

>  <Energy>  (35) 
69.83296572499592

>  <Genealogy>  (35) 
N#Cc1ccc(N=c2nc(Oc3ccc([N-]C(=O)c4cc(Br)c([O-])c(Br)c4)cc3)cc[n-]2)cc1 (protonated)
N#Cc1ccc(/N=c2/nc(Oc3ccc([N-]C(=O)c4cc(Br)c([O-])c(Br)c4)cc3)cc[n-]2)cc1 (cis-trans isomerization)
N#Cc1ccc(/N=c2/nc(Oc3ccc([N-]C(=O)c4cc(Br)c([O-])c(Br)c4)cc3)cc[n-]2)cc1 (3D coordinates assigned)
N#Cc1ccc(/N=c2/nc(Oc3ccc([N-]C(=O)c4cc(Br)c([O-])c(Br)c4)cc3)cc[n-]2)cc1 (optimized conformer: 69.83296572499592 kcal/mol)

>  <smiles>  (35) 
N#Cc1ccc(N=c2nc(Oc3ccc(NC(=O)c4cc(Br)c(O)c(Br)c4)cc3)cc[nH]2)cc1

>  <score_type>  (35) 
oracle

>  <origin>  (35) 
adgpu

>  <m_score__min__energy>  (35) 
-11.83

>  <m_primary>  (35) 
energy

$$$$
35:0
     RDKit          3D

 59 62  0  0  0  0  0  0  0  0999 V2000
   -3.9330   25.6590  -30.8160 O   0  0  0  0  0  0  0  0  0  0  0  0
   -4.0380   24.4360  -30.5360 C   0  0  0  0  0  0  0  0  0  0  0  0
   -5.0280   23.6530  -31.2100 N   0  0  0  0  0  0  0  0  0  0  0  0
   -4.7660   22.0170  -31.7180 S   0  0  0  0  0  0  0  0  0  0  0  0
   -3.9270   21.3080  -30.6890 O   0  0  0  0  0  0  0  0  0  0  0  0
   -4.0350   22.0160  -33.0310 O   0  0  0  0  0  0  0  0  0  0  0  0
   -6.3150   21.2070  -31.9320 C   0  0  0  0  0  0  0  0  0  0  0  0
   -7.5010   21.9450  -31.8360 C   0  0  0  0  0  0  0  0  0  0  0  0
   -8.7370   21.3100  -31.9740 C   0  0  0  0  0  0  0  0  0  0  0  0
   -8.7960   19.9350  -32.2140 C   0  0  0  0  0  0  0  0  0  0  0  0
   -7.6110   19.1870  -32.3290 C   0  0  0  0  0  0  0  0  0  0  0  0
   -7.6360   17.7700  -32.5570 N   0  0  0  0  0  0  0  0  0  0  0  0
   -6.7670   17.0470  -33.4380 C   0  0  0  0  0  0  0  0  0  0  0  0
   -7.2430   16.0960  -34.1130 O   0  0  0  0  0  0  0  0  0  0  0  0
   -5.3190   17.3540  -33.5350 C   0  0  0  0  0  0  0  0  0  0  0  0
   -4.8780   18.4430  -34.3080 C   0  0  0  0  0  0  0  0  0  0  0  0
   -3.5150   18.7380  -34.4030 C   0  0  0  0  0  0  0  0  0  0  0  0
   -2.5720   17.9480  -33.7310 C   0  0  0  0  0  0  0  0  0  0  0  0
   -0.8480   18.3250  -33.8450 S   0  0  0  0  0  0  0  0  0  0  0  0
   -0.5320   18.7520  -35.2520 O   0  0  0  0  0  0  0  0  0  0  0  0
   -0.0530   17.0840  -33.5450 O   0  0  0  0  0  0  0  0  0  0  0  0
   -0.3670   19.5920  -32.7430 N   0  0  0  0  0  0  0  0  0  0  0  0
   -1.1150   20.8310  -32.9600 C   0  0  0  0  0  0  0  0  0  0  0  0
   -1.0680   21.5920  -31.6460 C   0  0  0  0  0  0  0  0  0  0  0  0
   -0.8390   20.5300  -30.5790 C   0  0  0  0  0  0  0  0  0  0  0  0
   -0.5870   19.2310  -31.3390 C   0  0  0  0  0  0  0  0  0  0  0  0
   -3.0040   16.8440  -32.9840 C   0  0  0  0  0  0  0  0  0  0  0  0
   -4.3670   16.5480  -32.8860 C   0  0  0  0  0  0  0  0  0  0  0  0
   -6.3750   19.8260  -32.1680 C   0  0  0  0  0  0  0  0  0  0  0  0
   -3.1520   23.8370  -29.5770 N   0  0  0  0  0  0  0  0  0  0  0  0
   -2.5830   24.5440  -28.4640 C   0  0  0  0  0  0  0  0  0  0  0  0
   -1.3810   25.2690  -28.5860 C   0  0  0  0  0  0  0  0  0  0  0  0
   -0.8570   25.9580  -27.4900 C   0  0  0  0  0  0  0  0  0  0  0  0
   -1.5330   25.9480  -26.2660 C   0  0  0  0  0  0  0  0  0  0  0  0
   -2.7400   25.2580  -26.1410 C   0  0  0  0  0  0  0  0  0  0  0  0
   -3.2680   24.5660  -27.2350 C   0  0  0  0  0  0  0  0  0  0  0  0
   -7.4590   23.0286  -31.6513 H   0  0  0  0  0  0  0  0  0  0  0  0
   -9.6660   21.8936  -31.8936 H   0  0  0  0  0  0  0  0  0  0  0  0
   -9.7715   19.4365  -32.3132 H   0  0  0  0  0  0  0  0  0  0  0  0
   -5.6105   19.0667  -34.8413 H   0  0  0  0  0  0  0  0  0  0  0  0
   -3.1809   19.5939  -35.0078 H   0  0  0  0  0  0  0  0  0  0  0  0
    0.6530   19.7820  -32.8900 H   0  0  0  0  0  0  0  0  0  0  0  0
   -0.6473   21.4233  -33.7603 H   0  0  0  0  0  0  0  0  0  0  0  0
   -2.1512   20.6245  -33.2660 H   0  0  0  0  0  0  0  0  0  0  0  0
   -0.2425   22.3190  -31.6504 H   0  0  0  0  0  0  0  0  0  0  0  0
   -1.9914   22.1625  -31.4675 H   0  0  0  0  0  0  0  0  0  0  0  0
    0.0335   20.7886  -29.9611 H   0  0  0  0  0  0  0  0  0  0  0  0
   -1.7001   20.4434  -29.9001 H   0  0  0  0  0  0  0  0  0  0  0  0
    0.3017   18.7236  -30.9356 H   0  0  0  0  0  0  0  0  0  0  0  0
   -1.4414   18.5454  -31.2390 H   0  0  0  0  0  0  0  0  0  0  0  0
   -2.2674   16.2072  -32.4723 H   0  0  0  0  0  0  0  0  0  0  0  0
   -4.6966   15.6791  -32.2975 H   0  0  0  0  0  0  0  0  0  0  0  0
   -5.4455   19.2408  -32.2271 H   0  0  0  0  0  0  0  0  0  0  0  0
   -2.8670   22.8430  -29.7310 H   0  0  0  0  0  0  0  0  0  0  0  0
   -0.8522   25.2925  -29.5503 H   0  0  0  0  0  0  0  0  0  0  0  0
    0.0894   26.5097  -27.5898 H   0  0  0  0  0  0  0  0  0  0  0  0
   -1.1137   26.4838  -25.4017 H   0  0  0  0  0  0  0  0  0  0  0  0
   -3.2763   25.2588  -25.1806 H   0  0  0  0  0  0  0  0  0  0  0  0
   -4.2260   24.0348  -27.1343 H   0  0  0  0  0  0  0  0  0  0  0  0
  1  2  2  0
  2  3  1  0
  3  4  1  0
  4  5  2  0
  4  6  2  0
  4  7  1  0
  7  8  2  0
  8  9  1  0
  9 10  2  0
 10 11  1  0
 11 12  1  0
 12 13  1  0
 13 14  2  0
 13 15  1  0
 15 16  2  0
 16 17  1  0
 17 18  2  0
 18 19  1  0
 19 20  2  0
 19 21  2  0
 19 22  1  0
 22 23  1  0
 23 24  1  0
 24 25  1  0
 25 26  1  0
 18 27  1  0
 27 28  2  0
 11 29  2  0
  2 30  1  0
 30 31  1  0
 31 32  2  0
 32 33  1  0
 33 34  2  0
 34 35  1  0
 35 36  2  0
 29  7  1  0
 36 31  1  0
 28 15  1  0
 26 22  1  0
  8 37  1  0
  9 38  1  0
 10 39  1  0
 16 40  1  0
 17 41  1  0
 22 42  1  0
 23 43  1  0
 23 44  1  0
 24 45  1  0
 24 46  1  0
 25 47  1  0
 25 48  1  0
 26 49  1  0
 26 50  1  0
 27 51  1  0
 28 52  1  0
 29 53  1  0
 30 54  1  0
 32 55  1  0
 33 56  1  0
 34 57  1  0
 35 58  1  0
 36 59  1  0
M  CHG  3   3  -1  12  -1  22   1
M  END
>  <UniqueID>  (36) 
34

>  <SMILES>  (36) 
O=C([N-]S(=O)(=O)c1cccc([N-]C(=O)c2ccc(S(=O)(=O)[NH+]3CCCC3)cc2)c1)Nc1ccccc1

>  <Energy>  (36) 
74.51016003538244

>  <Genealogy>  (36) 
O=C([N-]S(=O)(=O)c1cccc([N-]C(=O)c2ccc(S(=O)(=O)[NH+]3CCCC3)cc2)c1)Nc1ccccc1 (protonated)
O=C([N-]S(=O)(=O)c1cccc([N-]C(=O)c2ccc(S(=O)(=O)[NH+]3CCCC3)cc2)c1)Nc1ccccc1 (3D coordinates assigned)
O=C([N-]S(=O)(=O)c1cccc([N-]C(=O)c2ccc(S(=O)(=O)[NH+]3CCCC3)cc2)c1)Nc1ccccc1 (nonaromatic ring conformer: 74.51016003538244 kcal/mol)

>  <smiles>  (36) 
O=C(Nc1ccccc1)NS(=O)(=O)c1cccc(NC(=O)c2ccc(S(=O)(=O)N3CCCC3)cc2)c1

>  <score_type>  (36) 
oracle

>  <origin>  (36) 
adgpu

>  <m_score__min__energy>  (36) 
-12.16

>  <m_primary>  (36) 
energy

$$$$
36:0
     RDKit          3D

 43 45  0  0  0  0  0  0  0  0999 V2000
   -1.5980   25.6400  -25.8610 C   0  0  0  0  0  0  0  0  0  0  0  0
   -0.3240   25.1090  -26.4520 C   0  0  0  0  0  0  0  0  0  0  0  0
    0.7940   25.1020  -25.6750 N   0  0  0  0  0  0  0  0  0  0  0  0
    1.9930   24.6790  -26.1500 C   0  0  0  0  0  0  0  0  0  0  0  0
    2.0920   24.2490  -27.4700 C   0  0  0  0  0  0  0  0  0  0  0  0
    0.9840   24.2400  -28.2530 N   0  0  0  0  0  0  0  0  0  0  0  0
   -0.2320   24.6360  -27.7850 C   0  0  0  0  0  0  0  0  0  0  0  0
   -1.3850   24.5800  -28.7050 C   0  0  0  0  0  0  0  0  0  0  0  0
   -2.0100   25.6440  -28.9650 O   0  0  0  0  0  0  0  0  0  0  0  0
   -1.7320   23.3610  -29.3790 N   0  0  0  0  0  0  0  0  0  0  0  0
   -3.0300   23.1010  -29.9400 C   0  0  0  0  0  0  0  0  0  0  0  0
   -3.1760   22.4620  -31.1860 C   0  0  0  0  0  0  0  0  0  0  0  0
   -4.4480   22.2380  -31.7200 C   0  0  0  0  0  0  0  0  0  0  0  0
   -5.5890   22.6540  -31.0220 C   0  0  0  0  0  0  0  0  0  0  0  0
   -7.1960   22.3710  -31.6860 S   0  0  0  0  0  0  0  0  0  0  0  0
   -8.1970   22.4200  -30.5660 O   0  0  0  0  0  0  0  0  0  0  0  0
   -7.5280   23.4360  -32.6950 O   0  0  0  0  0  0  0  0  0  0  0  0
   -7.2440   20.8040  -32.4580 N   0  0  0  0  0  0  0  0  0  0  0  0
   -8.6400   20.3740  -32.7100 C   0  0  0  0  0  0  0  0  0  0  0  0
   -9.0700   19.2160  -31.7950 C   0  0  0  0  0  0  0  0  0  0  0  0
   -8.2340   18.0770  -31.9220 O   0  0  0  0  0  0  0  0  0  0  0  0
   -6.8520   18.3930  -32.0590 C   0  0  0  0  0  0  0  0  0  0  0  0
   -6.4770   19.8310  -31.6610 C   0  0  0  0  0  0  0  0  0  0  0  0
   -5.4480   23.3140  -29.7950 C   0  0  0  0  0  0  0  0  0  0  0  0
   -4.1760   23.5390  -29.2610 C   0  0  0  0  0  0  0  0  0  0  0  0
   -1.5323   25.6126  -24.7633 H   0  0  0  0  0  0  0  0  0  0  0  0
   -1.7520   26.6772  -26.1934 H   0  0  0  0  0  0  0  0  0  0  0  0
   -2.4431   25.0192  -26.1934 H   0  0  0  0  0  0  0  0  0  0  0  0
    2.8786   24.6761  -25.4975 H   0  0  0  0  0  0  0  0  0  0  0  0
    3.0602   23.9193  -27.8749 H   0  0  0  0  0  0  0  0  0  0  0  0
   -0.9680   22.6730  -29.5610 H   0  0  0  0  0  0  0  0  0  0  0  0
   -2.2842   22.1373  -31.7422 H   0  0  0  0  0  0  0  0  0  0  0  0
   -4.5535   21.7333  -32.6917 H   0  0  0  0  0  0  0  0  0  0  0  0
   -9.3099   21.2290  -32.5364 H   0  0  0  0  0  0  0  0  0  0  0  0
   -8.6997   20.0202  -33.7498 H   0  0  0  0  0  0  0  0  0  0  0  0
   -9.0372   19.5617  -30.7512 H   0  0  0  0  0  0  0  0  0  0  0  0
  -10.0856   18.9170  -32.0934 H   0  0  0  0  0  0  0  0  0  0  0  0
   -6.2782   17.7015  -31.4244 H   0  0  0  0  0  0  0  0  0  0  0  0
   -6.6166   18.2963  -33.1292 H   0  0  0  0  0  0  0  0  0  0  0  0
   -6.6999   19.9811  -30.5943 H   0  0  0  0  0  0  0  0  0  0  0  0
   -5.4041   19.9839  -31.8496 H   0  0  0  0  0  0  0  0  0  0  0  0
   -6.3403   23.6561  -29.2502 H   0  0  0  0  0  0  0  0  0  0  0  0
   -4.0731   24.0641  -28.2999 H   0  0  0  0  0  0  0  0  0  0  0  0
  1  2  1  0
  2  3  2  0
  3  4  1  0
  4  5  2  0
  5  6  1  0
  6  7  2  0
  7  8  1  0
  8  9  2  0
  8 10  1  0
 10 11  1  0
 11 12  2  0
 12 13  1  0
 13 14  2  0
 14 15  1  0
 15 16  2  0
 15 17  2  0
 15 18  1  0
 18 19  1  0
 19 20  1  0
 20 21  1  0
 21 22  1  0
 22 23  1  0
 14 24  1  0
 24 25  2  0
  7  2  1  0
 25 11  1  0
 23 18  1  0
  1 26  1  0
  1 27  1  0
  1 28  1  0
  4 29  1  0
  5 30  1  0
 10 31  1  0
 12 32  1  0
 13 33  1  0
 19 34  1  0
 19 35  1  0
 20 36  1  0
 20 37  1  0
 22 38  1  0
 22 39  1  0
 23 40  1  0
 23 41  1  0
 24 42  1  0
 25 43  1  0
M  END
>  <UniqueID>  (37) 
35

>  <SMILES>  (37) 
Cc1nccnc1C(=O)Nc1ccc(S(=O)(=O)N2CCOCC2)cc1

>  <Energy>  (37) 
65.59530451504631

>  <Genealogy>  (37) 
Cc1nccnc1C(=O)Nc1ccc(S(=O)(=O)N2CCOCC2)cc1 (3D coordinates assigned)
Cc1nccnc1C(=O)Nc1ccc(S(=O)(=O)N2CCOCC2)cc1 (nonaromatic ring conformer: 65.59530451504631 kcal/mol)

>  <smiles>  (37) 
Cc1nccnc1C(=O)Nc1ccc(S(=O)(=O)N2CCOCC2)cc1

>  <score_type>  (37) 
oracle

>  <origin>  (37) 
adgpu

>  <m_score__min__energy>  (37) 
-8.6999999999999993

>  <m_primary>  (37) 
energy

$$$$
37:0
     RDKit          3D

 56 59  0  0  0  0  0  0  0  0999 V2000
   -4.2430   22.8190  -27.2250 O   0  0  0  0  0  0  0  0  0  0  0  0
   -4.1740   24.0410  -27.5260 C   0  0  0  0  0  0  0  0  0  0  0  0
   -3.3260   24.9220  -26.6990 C   0  0  0  0  0  0  0  0  0  0  0  0
   -2.0650   25.2380  -27.0290 C   0  0  0  0  0  0  0  0  0  0  0  0
   -1.2000   26.1320  -26.2210 C   0  0  0  0  0  0  0  0  0  0  0  0
   -1.2870   26.0720  -24.8210 C   0  0  0  0  0  0  0  0  0  0  0  0
   -0.4900   26.9000  -24.0280 C   0  0  0  0  0  0  0  0  0  0  0  0
    0.3860   27.7950  -24.6420 C   0  0  0  0  0  0  0  0  0  0  0  0
    0.4520   27.8620  -25.9960 N   0  0  0  0  0  0  0  0  0  0  0  0
   -0.3110   27.0650  -26.7930 C   0  0  0  0  0  0  0  0  0  0  0  0
   -4.9620   24.5560  -28.6140 N   0  0  0  0  0  0  0  0  0  0  0  0
   -5.4460   23.7490  -29.7030 C   0  0  0  0  0  0  0  0  0  0  0  0
   -6.8150   23.6750  -30.0110 C   0  0  0  0  0  0  0  0  0  0  0  0
   -7.2600   22.8650  -31.0590 C   0  0  0  0  0  0  0  0  0  0  0  0
   -6.3540   22.0950  -31.7960 C   0  0  0  0  0  0  0  0  0  0  0  0
   -6.8410   21.2950  -32.8390 O   0  0  0  0  0  0  0  0  0  0  0  0
   -6.5060   19.9480  -33.0400 C   0  0  0  0  0  0  0  0  0  0  0  0
   -5.8000   19.5960  -34.1950 C   0  0  0  0  0  0  0  0  0  0  0  0
   -5.4600   18.2620  -34.4390 C   0  0  0  0  0  0  0  0  0  0  0  0
   -5.8300   17.2620  -33.5280 C   0  0  0  0  0  0  0  0  0  0  0  0
   -5.4270   15.5760  -33.8400 S   0  0  0  0  0  0  0  0  0  0  0  0
   -6.6880   14.7840  -34.0580 O   0  0  0  0  0  0  0  0  0  0  0  0
   -4.5930   15.5000  -35.0890 O   0  0  0  0  0  0  0  0  0  0  0  0
   -4.5270   14.9150  -32.4950 N   0  0  0  0  0  0  0  0  0  0  0  0
   -4.9540   13.5270  -32.2350 C   0  0  0  0  0  0  0  0  0  0  0  0
   -3.8690   12.7630  -31.4590 C   0  0  0  0  0  0  0  0  0  0  0  0
   -2.6210   12.6760  -32.1380 O   0  0  0  0  0  0  0  0  0  0  0  0
   -2.4260   13.6950  -33.1090 C   0  0  0  0  0  0  0  0  0  0  0  0
   -3.0690   15.0380  -32.7190 C   0  0  0  0  0  0  0  0  0  0  0  0
   -6.5560   17.6070  -32.3810 C   0  0  0  0  0  0  0  0  0  0  0  0
   -6.8930   18.9420  -32.1370 C   0  0  0  0  0  0  0  0  0  0  0  0
   -4.9800   22.1730  -31.4980 C   0  0  0  0  0  0  0  0  0  0  0  0
   -4.0490   21.4700  -32.2550 O   0  0  0  0  0  0  0  0  0  0  0  0
   -4.5370   22.9830  -30.4480 C   0  0  0  0  0  0  0  0  0  0  0  0
   -3.7468   25.3375  -25.7715 H   0  0  0  0  0  0  0  0  0  0  0  0
   -1.6481   24.8094  -27.9523 H   0  0  0  0  0  0  0  0  0  0  0  0
   -1.9870   25.3687  -24.3462 H   0  0  0  0  0  0  0  0  0  0  0  0
   -0.5523   26.8470  -22.9310 H   0  0  0  0  0  0  0  0  0  0  0  0
    1.0243   28.4474  -24.0280 H   0  0  0  0  0  0  0  0  0  0  0  0
   -0.2338   27.1491  -27.8871 H   0  0  0  0  0  0  0  0  0  0  0  0
   -5.2990   25.5430  -28.5520 H   0  0  0  0  0  0  0  0  0  0  0  0
   -7.5401   24.2578  -29.4240 H   0  0  0  0  0  0  0  0  0  0  0  0
   -8.3313   22.8326  -31.3065 H   0  0  0  0  0  0  0  0  0  0  0  0
   -5.5102   20.3742  -34.9164 H   0  0  0  0  0  0  0  0  0  0  0  0
   -4.9007   17.9960  -35.3481 H   0  0  0  0  0  0  0  0  0  0  0  0
   -5.8811   13.5389  -31.6430 H   0  0  0  0  0  0  0  0  0  0  0  0
   -5.1233   13.0221  -33.1975 H   0  0  0  0  0  0  0  0  0  0  0  0
   -3.7052   13.2753  -30.4995 H   0  0  0  0  0  0  0  0  0  0  0  0
   -4.2344   11.7330  -31.3339 H   0  0  0  0  0  0  0  0  0  0  0  0
   -1.3449   13.8504  -33.2399 H   0  0  0  0  0  0  0  0  0  0  0  0
   -2.9115   13.3584  -34.0369 H   0  0  0  0  0  0  0  0  0  0  0  0
   -2.5977   15.4011  -31.7938 H   0  0  0  0  0  0  0  0  0  0  0  0
   -2.9129   15.7414  -33.5501 H   0  0  0  0  0  0  0  0  0  0  0  0
   -6.8620   16.8254  -31.6700 H   0  0  0  0  0  0  0  0  0  0  0  0
   -7.4635   19.2064  -31.2344 H   0  0  0  0  0  0  0  0  0  0  0  0
   -3.4651   23.0200  -30.2037 H   0  0  0  0  0  0  0  0  0  0  0  0
  1  2  2  0
  2  3  1  0
  3  4  2  3
  4  5  1  0
  5  6  2  0
  6  7  1  0
  7  8  2  0
  8  9  1  0
  9 10  2  0
  2 11  1  0
 11 12  1  0
 12 13  2  0
 13 14  1  0
 14 15  2  0
 15 16  1  0
 16 17  1  0
 17 18  2  0
 18 19  1  0
 19 20  2  0
 20 21  1  0
 21 22  2  0
 21 23  2  0
 21 24  1  0
 24 25  1  0
 25 26  1  0
 26 27  1  0
 27 28  1  0
 28 29  1  0
 20 30  1  0
 30 31  2  0
 15 32  1  0
 32 33  1  0
 32 34  2  0
 10  5  1  0
 34 12  1  0
 31 17  1  0
 29 24  1  0
  3 35  1  0
  4 36  1  0
  6 37  1  0
  7 38  1  0
  8 39  1  0
 10 40  1  0
 11 41  1  0
 13 42  1  0
 14 43  1  0
 18 44  1  0
 19 45  1  0
 25 46  1  0
 25 47  1  0
 26 48  1  0
 26 49  1  0
 28 50  1  0
 28 51  1  0
 29 52  1  0
 29 53  1  0
 30 54  1  0
 31 55  1  0
 34 56  1  0
M  CHG  1  33  -1
M  END
>  <UniqueID>  (38) 
36

>  <SMILES>  (38) 
O=C(C=Cc1cccnc1)Nc1ccc(Oc2ccc(S(=O)(=O)N3CCOCC3)cc2)c([O-])c1

>  <Energy>  (38) 
86.83152253655794

>  <Genealogy>  (38) 
O=C(C=Cc1cccnc1)Nc1ccc(Oc2ccc(S(=O)(=O)N3CCOCC3)cc2)c([O-])c1 (protonated)
O=C(C=Cc1cccnc1)Nc1ccc(Oc2ccc(S(=O)(=O)N3CCOCC3)cc2)c([O-])c1 (3D coordinates assigned)
O=C(C=Cc1cccnc1)Nc1ccc(Oc2ccc(S(=O)(=O)N3CCOCC3)cc2)c([O-])c1 (nonaromatic ring conformer: 86.83152253655794 kcal/mol)

>  <smiles>  (38) 
O=C(C=Cc1cccnc1)Nc1ccc(Oc2ccc(S(=O)(=O)N3CCOCC3)cc2)c(O)c1

>  <score_type>  (38) 
oracle

>  <origin>  (38) 
adgpu

>  <m_score__min__energy>  (38) 
-11.43

>  <m_primary>  (38) 
energy

$$$$
38:0
     RDKit          3D

 39 41  0  0  0  0  0  0  0  0999 V2000
   -6.1100   17.0300  -34.2550 C   0  0  0  0  0  0  0  0  0  0  0  0
   -6.5510   18.0920  -33.3050 C   0  0  0  0  0  0  0  0  0  0  0  0
   -6.1110   19.3990  -33.2900 C   0  0  0  0  0  0  0  0  0  0  0  0
   -6.8610   19.9810  -32.2840 C   0  0  0  0  0  0  0  0  0  0  0  0
   -6.8070   21.3850  -31.8150 C   0  0  0  0  0  0  0  0  0  0  0  0
   -7.9030   22.2520  -31.9670 C   0  0  0  0  0  0  0  0  0  0  0  0
   -7.8270   23.5710  -31.5170 C   0  0  0  0  0  0  0  0  0  0  0  0
   -6.6610   24.0470  -30.9030 C   0  0  0  0  0  0  0  0  0  0  0  0
   -6.5910   25.3700  -30.4700 O   0  0  0  0  0  0  0  0  0  0  0  0
   -5.5630   23.1860  -30.7320 C   0  0  0  0  0  0  0  0  0  0  0  0
   -4.0810   23.7540  -29.9550 S   0  0  0  0  0  0  0  0  0  0  0  0
   -3.7050   25.0870  -30.5360 O   0  0  0  0  0  0  0  0  0  0  0  0
   -4.2990   23.9010  -28.4750 O   0  0  0  0  0  0  0  0  0  0  0  0
   -2.7850   22.6300  -30.2350 N   0  0  0  0  0  0  0  0  0  0  0  0
   -1.4960   23.3010  -30.0770 C   0  0  0  0  0  0  0  0  0  0  0  0
   -1.3570   23.7620  -28.6530 C   0  0  0  0  0  0  0  0  0  0  0  0
   -1.2900   22.8140  -27.6160 C   0  0  0  0  0  0  0  0  0  0  0  0
   -1.1220   23.2250  -26.2920 C   0  0  0  0  0  0  0  0  0  0  0  0
   -1.0050   24.5840  -25.9900 C   0  0  0  0  0  0  0  0  0  0  0  0
   -1.0500   25.5340  -27.0140 C   0  0  0  0  0  0  0  0  0  0  0  0
   -1.2190   25.1300  -28.3440 C   0  0  0  0  0  0  0  0  0  0  0  0
   -1.2440   26.0900  -29.3490 O   0  0  0  0  0  0  0  0  0  0  0  0
   -5.6380   21.8660  -31.2040 C   0  0  0  0  0  0  0  0  0  0  0  0
   -7.6680   19.0700  -31.7860 O   0  0  0  0  0  0  0  0  0  0  0  0
   -7.5140   17.9220  -32.3800 N   0  0  0  0  0  0  0  0  0  0  0  0
   -5.7483   16.1589  -33.6890 H   0  0  0  0  0  0  0  0  0  0  0  0
   -6.9577   16.7295  -34.8883 H   0  0  0  0  0  0  0  0  0  0  0  0
   -5.2988   17.4184  -34.8883 H   0  0  0  0  0  0  0  0  0  0  0  0
   -5.3458   19.8672  -33.9266 H   0  0  0  0  0  0  0  0  0  0  0  0
   -8.8257   21.8889  -32.4432 H   0  0  0  0  0  0  0  0  0  0  0  0
   -8.6891   24.2420  -31.6454 H   0  0  0  0  0  0  0  0  0  0  0  0
   -5.7590   25.7400  -30.0250 H   0  0  0  0  0  0  0  0  0  0  0  0
   -0.6832   22.6005  -30.3191 H   0  0  0  0  0  0  0  0  0  0  0  0
   -1.4408   24.1654  -30.7551 H   0  0  0  0  0  0  0  0  0  0  0  0
   -1.3705   21.7421  -27.8494 H   0  0  0  0  0  0  0  0  0  0  0  0
   -1.0817   22.4777  -25.4858 H   0  0  0  0  0  0  0  0  0  0  0  0
   -0.8774   24.9063  -24.9461 H   0  0  0  0  0  0  0  0  0  0  0  0
   -0.9523   26.6031  -26.7743 H   0  0  0  0  0  0  0  0  0  0  0  0
   -4.7696   21.1999  -31.0937 H   0  0  0  0  0  0  0  0  0  0  0  0
  1  2  1  0
  2  3  1  0
  3  4  2  0
  4  5  1  0
  5  6  2  0
  6  7  1  0
  7  8  2  0
  8  9  1  0
  8 10  1  0
 10 11  1  0
 11 12  2  0
 11 13  2  0
 11 14  1  0
 14 15  1  0
 15 16  1  0
 16 17  2  0
 17 18  1  0
 18 19  2  0
 19 20  1  0
 20 21  2  0
 21 22  1  0
 10 23  2  0
  4 24  1  0
 24 25  1  0
 25  2  2  0
 23  5  1  0
 21 16  1  0
  1 26  1  0
  1 27  1  0
  1 28  1  0
  3 29  1  0
  6 30  1  0
  7 31  1  0
  9 32  1  0
 15 33  1  0
 15 34  1  0
 17 35  1  0
 18 36  1  0
 19 37  1  0
 20 38  1  0
 23 39  1  0
M  CHG  2  14  -1  22  -1
M  END
>  <UniqueID>  (39) 
37

>  <SMILES>  (39) 
Cc1cc(-c2ccc(O)c(S(=O)(=O)[N-]Cc3ccccc3[O-])c2)on1

>  <Energy>  (39) 
69.71771984501224

>  <Genealogy>  (39) 
Cc1cc(-c2ccc(O)c(S(=O)(=O)[N-]Cc3ccccc3[O-])c2)on1 (protonated)
Cc1cc(-c2ccc(O)c(S(=O)(=O)[N-]Cc3ccccc3[O-])c2)on1 (3D coordinates assigned)
Cc1cc(-c2ccc(O)c(S(=O)(=O)[N-]Cc3ccccc3[O-])c2)on1 (optimized conformer: 69.71771984501224 kcal/mol)

>  <smiles>  (39) 
Cc1cc(-c2ccc(O)c(S(=O)(=O)NCc3ccccc3O)c2)on1

>  <score_type>  (39) 
oracle

>  <origin>  (39) 
adgpu

>  <m_score__min__energy>  (39) 
-12.51

>  <m_primary>  (39) 
energy

$$$$
39:0
     RDKit          3D

 39 42  0  0  0  0  0  0  0  0999 V2000
   -5.7830   17.9340  -34.5890 C   0  0  0  0  0  0  0  0  0  0  0  0
   -6.0060   19.0520  -33.6170 C   0  0  0  0  0  0  0  0  0  0  0  0
   -7.2830   19.2450  -33.0390 C   0  0  0  0  0  0  0  0  0  0  0  0
   -7.5240   20.3280  -32.1800 C   0  0  0  0  0  0  0  0  0  0  0  0
   -6.4850   21.2210  -31.9130 C   0  0  0  0  0  0  0  0  0  0  0  0
   -6.5770   22.3830  -31.1410 C   0  0  0  0  0  0  0  0  0  0  0  0
   -5.3810   23.0970  -31.1280 C   0  0  0  0  0  0  0  0  0  0  0  0
   -5.1810   24.6940  -30.4320 S   0  0  0  0  0  0  0  0  0  0  0  0
   -5.6990   24.7020  -29.0190 O   0  0  0  0  0  0  0  0  0  0  0  0
   -5.9750   25.6790  -31.2430 O   0  0  0  0  0  0  0  0  0  0  0  0
   -3.4990   25.1520  -30.4600 N   0  0  0  0  0  0  0  0  0  0  0  0
   -2.8320   24.8450  -29.1920 C   0  0  0  0  0  0  0  0  0  0  0  0
   -2.2650   23.4570  -29.2000 C   0  0  0  0  0  0  0  0  0  0  0  0
   -2.5410   22.6040  -28.1780 N   0  0  0  0  0  0  0  0  0  0  0  0
   -1.9900   21.3630  -28.1340 C   0  0  0  0  0  0  0  0  0  0  0  0
   -2.2580   20.5150  -27.0540 C   0  0  0  0  0  0  0  0  0  0  0  0
   -1.6590   19.2540  -26.9890 C   0  0  0  0  0  0  0  0  0  0  0  0
   -0.7930   18.8330  -28.0040 C   0  0  0  0  0  0  0  0  0  0  0  0
   -0.5250   19.6710  -29.0910 C   0  0  0  0  0  0  0  0  0  0  0  0
   -1.1220   20.9420  -29.1640 C   0  0  0  0  0  0  0  0  0  0  0  0
   -0.8770   21.8310  -30.2240 C   0  0  0  0  0  0  0  0  0  0  0  0
   -0.1210   21.5090  -31.1790 O   0  0  0  0  0  0  0  0  0  0  0  0
   -1.4510   23.0630  -30.2140 N   0  0  0  0  0  0  0  0  0  0  0  0
   -4.2160   22.2930  -32.0510 S   0  0  0  0  0  0  0  0  0  0  0  0
   -5.2360   21.0310  -32.4850 C   0  0  0  0  0  0  0  0  0  0  0  0
   -4.9700   19.9670  -33.3410 C   0  0  0  0  0  0  0  0  0  0  0  0
   -5.5968   17.0005  -34.0377 H   0  0  0  0  0  0  0  0  0  0  0  0
   -6.6750   17.8146  -35.2215 H   0  0  0  0  0  0  0  0  0  0  0  0
   -4.9134   18.1660  -35.2215 H   0  0  0  0  0  0  0  0  0  0  0  0
   -8.0953   18.5387  -33.2654 H   0  0  0  0  0  0  0  0  0  0  0  0
   -8.5151   20.4709  -31.7247 H   0  0  0  0  0  0  0  0  0  0  0  0
   -7.4862   22.6963  -30.6071 H   0  0  0  0  0  0  0  0  0  0  0  0
   -2.0159   25.5651  -29.0323 H   0  0  0  0  0  0  0  0  0  0  0  0
   -3.5737   24.9137  -28.3826 H   0  0  0  0  0  0  0  0  0  0  0  0
   -2.9407   20.8410  -26.2554 H   0  0  0  0  0  0  0  0  0  0  0  0
   -1.8691   18.5904  -26.1372 H   0  0  0  0  0  0  0  0  0  0  0  0
   -0.3219   17.8406  -27.9469 H   0  0  0  0  0  0  0  0  0  0  0  0
    0.1533   19.3357  -29.8894 H   0  0  0  0  0  0  0  0  0  0  0  0
   -3.9744   19.8427  -33.7919 H   0  0  0  0  0  0  0  0  0  0  0  0
  1  2  1  0
  2  3  2  0
  3  4  1  0
  4  5  2  0
  5  6  1  0
  6  7  2  0
  7  8  1  0
  8  9  2  0
  8 10  2  0
  8 11  1  0
 11 12  1  0
 12 13  1  0
 13 14  2  0
 14 15  1  0
 15 16  2  0
 16 17  1  0
 17 18  2  0
 18 19  1  0
 19 20  2  0
 20 21  1  0
 21 22  2  0
 21 23  1  0
  7 24  1  0
 24 25  1  0
 25 26  2  0
 26  2  1  0
 25  5  1  0
 23 13  1  0
 20 15  1  0
  1 27  1  0
  1 28  1  0
  1 29  1  0
  3 30  1  0
  4 31  1  0
  6 32  1  0
 12 33  1  0
 12 34  1  0
 16 35  1  0
 17 36  1  0
 18 37  1  0
 19 38  1  0
 26 39  1  0
M  CHG  2  11  -1  23  -1
M  END
>  <UniqueID>  (40) 
38

>  <SMILES>  (40) 
Cc1ccc2cc(S(=O)(=O)[N-]Cc3nc4ccccc4c(=O)[n-]3)sc2c1

>  <Energy>  (40) 
69.71421487665152

>  <Genealogy>  (40) 
Cc1ccc2cc(S(=O)(=O)[N-]Cc3nc4ccccc4c(=O)[n-]3)sc2c1 (protonated)
Cc1ccc2cc(S(=O)(=O)[N-]Cc3nc4ccccc4c(=O)[n-]3)sc2c1 (3D coordinates assigned)
Cc1ccc2cc(S(=O)(=O)[N-]Cc3nc4ccccc4c(=O)[n-]3)sc2c1 (optimized conformer: 69.71421487665152 kcal/mol)

>  <smiles>  (40) 
Cc1ccc2cc(S(=O)(=O)NCc3nc4ccccc4c(=O)[nH]3)sc2c1

>  <score_type>  (40) 
oracle

>  <origin>  (40) 
adgpu

>  <m_score__min__energy>  (40) 
-12.01

>  <m_primary>  (40) 
energy

$$$$
40:0
     RDKit          3D

 55 58  0  0  0  0  0  0  0  0999 V2000
    1.2310   20.5490  -28.0330 C   0  0  0  0  0  0  0  0  0  0  0  0
   -0.0190   20.6120  -27.2540 N   0  0  0  0  0  0  0  0  0  0  0  0
   -1.1500   19.9850  -28.0040 C   0  0  0  0  0  0  0  0  0  0  0  0
   -2.4790   20.7590  -27.9030 C   0  0  0  0  0  0  0  0  0  0  0  0
   -2.2230   22.1970  -28.2550 C   0  0  0  0  0  0  0  0  0  0  0  0
   -3.0510   22.9120  -29.1290 C   0  0  0  0  0  0  0  0  0  0  0  0
   -2.7330   24.2350  -29.4840 C   0  0  0  0  0  0  0  0  0  0  0  0
   -3.5330   24.9900  -30.4050 N   0  0  0  0  0  0  0  0  0  0  0  0
   -5.2610   25.1350  -30.3650 S   0  0  0  0  0  0  0  0  0  0  0  0
   -5.7020   26.2840  -31.2290 O   0  0  0  0  0  0  0  0  0  0  0  0
   -5.6930   25.4140  -28.9540 O   0  0  0  0  0  0  0  0  0  0  0  0
   -5.9850   23.6210  -30.8930 C   0  0  0  0  0  0  0  0  0  0  0  0
   -5.8300   23.2110  -32.2240 C   0  0  0  0  0  0  0  0  0  0  0  0
   -6.4340   22.0360  -32.6760 C   0  0  0  0  0  0  0  0  0  0  0  0
   -7.2110   21.2640  -31.8020 C   0  0  0  0  0  0  0  0  0  0  0  0
   -8.0050   19.8090  -32.4020 S   0  0  0  0  0  0  0  0  0  0  0  0
   -8.7250   19.1070  -31.2810 O   0  0  0  0  0  0  0  0  0  0  0  0
   -9.0140   20.2110  -33.4460 O   0  0  0  0  0  0  0  0  0  0  0  0
   -6.8110   18.7420  -33.1010 N   0  0  0  0  0  0  0  0  0  0  0  0
   -5.9570   19.4620  -34.0700 C   0  0  0  0  0  0  0  0  0  0  0  0
   -4.5770   19.8130  -33.4790 C   0  0  0  0  0  0  0  0  0  0  0  0
   -3.8480   18.6740  -33.0430 O   0  0  0  0  0  0  0  0  0  0  0  0
   -4.6660   17.6200  -32.5500 C   0  0  0  0  0  0  0  0  0  0  0  0
   -6.0370   18.0850  -32.0280 C   0  0  0  0  0  0  0  0  0  0  0  0
   -7.3580   21.6640  -30.4640 C   0  0  0  0  0  0  0  0  0  0  0  0
   -6.7450   22.8370  -30.0110 C   0  0  0  0  0  0  0  0  0  0  0  0
   -1.5770   24.8320  -28.9490 C   0  0  0  0  0  0  0  0  0  0  0  0
   -1.2340   26.1310  -29.3220 O   0  0  0  0  0  0  0  0  0  0  0  0
   -0.7620   24.1210  -28.0540 C   0  0  0  0  0  0  0  0  0  0  0  0
   -1.0890   22.8050  -27.7080 C   0  0  0  0  0  0  0  0  0  0  0  0
   -0.2600   21.9920  -26.7500 C   0  0  0  0  0  0  0  0  0  0  0  0
    2.0892   20.5057  -27.3463 H   0  0  0  0  0  0  0  0  0  0  0  0
    1.2230   19.6501  -28.6670 H   0  0  0  0  0  0  0  0  0  0  0  0
    1.3134   21.4441  -28.6670 H   0  0  0  0  0  0  0  0  0  0  0  0
   -0.8673   19.9213  -29.0652 H   0  0  0  0  0  0  0  0  0  0  0  0
   -1.3228   18.9981  -27.5498 H   0  0  0  0  0  0  0  0  0  0  0  0
   -3.2116   20.3307  -28.6029 H   0  0  0  0  0  0  0  0  0  0  0  0
   -2.8793   20.6874  -26.8809 H   0  0  0  0  0  0  0  0  0  0  0  0
   -3.9541   22.4368  -29.5397 H   0  0  0  0  0  0  0  0  0  0  0  0
   -5.2290   23.8183  -32.9168 H   0  0  0  0  0  0  0  0  0  0  0  0
   -6.2997   21.7159  -33.7198 H   0  0  0  0  0  0  0  0  0  0  0  0
   -5.8120   18.8261  -34.9558 H   0  0  0  0  0  0  0  0  0  0  0  0
   -6.4622   20.4033  -34.3323 H   0  0  0  0  0  0  0  0  0  0  0  0
   -3.9879   20.3307  -34.2503 H   0  0  0  0  0  0  0  0  0  0  0  0
   -4.7511   20.4467  -32.5969 H   0  0  0  0  0  0  0  0  0  0  0  0
   -4.8320   16.9004  -33.3653 H   0  0  0  0  0  0  0  0  0  0  0  0
   -4.1336   17.1761  -31.6959 H   0  0  0  0  0  0  0  0  0  0  0  0
   -6.5979   17.2129  -31.6608 H   0  0  0  0  0  0  0  0  0  0  0  0
   -5.8780   18.8080  -31.2143 H   0  0  0  0  0  0  0  0  0  0  0  0
   -7.9561   21.0540  -29.7710 H   0  0  0  0  0  0  0  0  0  0  0  0
   -6.8588   23.1456  -28.9613 H   0  0  0  0  0  0  0  0  0  0  0  0
   -1.2270   26.4220  -30.2970 H   0  0  0  0  0  0  0  0  0  0  0  0
    0.1321   24.5974  -27.6254 H   0  0  0  0  0  0  0  0  0  0  0  0
    0.7092   22.4920  -26.6062 H   0  0  0  0  0  0  0  0  0  0  0  0
   -0.8127   21.9160  -25.8020 H   0  0  0  0  0  0  0  0  0  0  0  0
  1  2  1  0
  2  3  1  0
  3  4  1  0
  4  5  1  0
  5  6  2  0
  6  7  1  0
  7  8  1  0
  8  9  1  0
  9 10  2  0
  9 11  2  0
  9 12  1  0
 12 13  2  0
 13 14  1  0
 14 15  2  0
 15 16  1  0
 16 17  2  0
 16 18  2  0
 16 19  1  0
 19 20  1  0
 20 21  1  0
 21 22  1  0
 22 23  1  0
 23 24  1  0
 15 25  1  0
 25 26  2  0
  7 27  2  0
 27 28  1  0
 27 29  1  0
 29 30  2  0
 30 31  1  0
 31  2  1  0
 30  5  1  0
 26 12  1  0
 24 19  1  0
  1 32  1  0
  1 33  1  0
  1 34  1  0
  3 35  1  0
  3 36  1  0
  4 37  1  0
  4 38  1  0
  6 39  1  0
 13 40  1  0
 14 41  1  0
 20 42  1  0
 20 43  1  0
 21 44  1  0
 21 45  1  0
 23 46  1  0
 23 47  1  0
 24 48  1  0
 24 49  1  0
 25 50  1  0
 26 51  1  0
 28 52  1  0
 29 53  1  0
 31 54  1  0
 31 55  1  0
M  CHG  1   8  -1
M  END
>  <UniqueID>  (41) 
39

>  <SMILES>  (41) 
CN1CCc2cc([N-]S(=O)(=O)c3ccc(S(=O)(=O)N4CCOCC4)cc3)c(O)cc2C1

>  <Energy>  (41) 
84.24750762711737

>  <Genealogy>  (41) 
CN1CCc2cc([N-]S(=O)(=O)c3ccc(S(=O)(=O)N4CCOCC4)cc3)c(O)cc2C1 (protonated)
CN1CCc2cc([N-]S(=O)(=O)c3ccc(S(=O)(=O)N4CCOCC4)cc3)c(O)cc2C1 (3D coordinates assigned)
CN1CCc2cc([N-]S(=O)(=O)c3ccc(S(=O)(=O)N4CCOCC4)cc3)c(O)cc2C1 (nonaromatic ring conformer: 84.24750762711737 kcal/mol)

>  <smiles>  (41) 
CN1CCc2cc(NS(=O)(=O)c3ccc(S(=O)(=O)N4CCOCC4)cc3)c(O)cc2C1

>  <score_type>  (41) 
oracle

>  <origin>  (41) 
adgpu

>  <m_score__min__energy>  (41) 
-12.859999999999999

>  <m_primary>  (41) 
energy

$$$$
41:0
     RDKit          3D

 43 45  0  0  0  0  0  0  0  0999 V2000
   -5.8460   25.0860  -29.0710 O   0  0  0  0  0  0  0  0  0  0  0  0
   -5.3070   25.0700  -30.4680 S   0  0  0  0  0  0  0  0  0  0  0  0
   -5.7510   26.3130  -31.1820 O   0  0  0  0  0  0  0  0  0  0  0  0
   -3.5750   25.0460  -30.4080 N   0  0  0  0  0  0  0  0  0  0  0  0
   -2.7960   24.3010  -29.4670 C   0  0  0  0  0  0  0  0  0  0  0  0
   -3.1550   23.0000  -29.0710 C   0  0  0  0  0  0  0  0  0  0  0  0
   -2.3450   22.2780  -28.1980 C   0  0  0  0  0  0  0  0  0  0  0  0
   -2.7820   20.6390  -27.7550 Cl  0  0  0  0  0  0  0  0  0  0  0  0
   -1.1660   22.8400  -27.7140 C   0  0  0  0  0  0  0  0  0  0  0  0
   -0.8010   24.1300  -28.0970 C   0  0  0  0  0  0  0  0  0  0  0  0
   -1.6150   24.8630  -28.9630 C   0  0  0  0  0  0  0  0  0  0  0  0
   -1.2310   26.1460  -29.3480 O   0  0  0  0  0  0  0  0  0  0  0  0
   -5.9120   23.6640  -31.3460 C   0  0  0  0  0  0  0  0  0  0  0  0
   -7.2730   23.5530  -31.6450 C   0  0  0  0  0  0  0  0  0  0  0  0
   -7.7580   22.4220  -32.3020 C   0  0  0  0  0  0  0  0  0  0  0  0
   -6.8920   21.3800  -32.6560 C   0  0  0  0  0  0  0  0  0  0  0  0
   -7.4600   20.2410  -33.2290 O   0  0  0  0  0  0  0  0  0  0  0  0
   -5.4990   21.5000  -32.4090 C   0  0  0  0  0  0  0  0  0  0  0  0
   -4.3720   20.2110  -32.9140 S   0  0  0  0  0  0  0  0  0  0  0  0
   -3.3810   20.8070  -33.8700 O   0  0  0  0  0  0  0  0  0  0  0  0
   -3.6330   19.7440  -31.6910 O   0  0  0  0  0  0  0  0  0  0  0  0
   -5.0740   18.7860  -33.6540 N   0  0  0  0  0  0  0  0  0  0  0  0
   -4.0890   18.0540  -34.4640 C   0  0  0  0  0  0  0  0  0  0  0  0
   -4.6910   16.7570  -35.0010 C   0  0  0  0  0  0  0  0  0  0  0  0
   -5.1950   15.9700  -33.9450 O   0  0  0  0  0  0  0  0  0  0  0  0
   -6.2720   16.6450  -33.3280 C   0  0  0  0  0  0  0  0  0  0  0  0
   -5.8020   17.9540  -32.6810 C   0  0  0  0  0  0  0  0  0  0  0  0
   -5.0380   22.6510  -31.7450 C   0  0  0  0  0  0  0  0  0  0  0  0
   -4.0826   22.5494  -29.4538 H   0  0  0  0  0  0  0  0  0  0  0  0
   -0.5232   22.2664  -27.0300 H   0  0  0  0  0  0  0  0  0  0  0  0
    0.1314   24.5718  -27.7157 H   0  0  0  0  0  0  0  0  0  0  0  0
   -7.9641   24.3604  -31.3612 H   0  0  0  0  0  0  0  0  0  0  0  0
   -8.8286   22.3481  -32.5438 H   0  0  0  0  0  0  0  0  0  0  0  0
   -7.0240   19.7150  -33.9790 H   0  0  0  0  0  0  0  0  0  0  0  0
   -3.7762   18.6844  -35.3094 H   0  0  0  0  0  0  0  0  0  0  0  0
   -3.2232   17.8077  -33.8318 H   0  0  0  0  0  0  0  0  0  0  0  0
   -5.5098   16.9984  -35.6948 H   0  0  0  0  0  0  0  0  0  0  0  0
   -3.9055   16.1903  -35.5224 H   0  0  0  0  0  0  0  0  0  0  0  0
   -7.0358   16.8725  -34.0862 H   0  0  0  0  0  0  0  0  0  0  0  0
   -6.6890   15.9963  -32.5436 H   0  0  0  0  0  0  0  0  0  0  0  0
   -6.6776   18.5100  -32.3147 H   0  0  0  0  0  0  0  0  0  0  0  0
   -5.1258   17.7126  -31.8476 H   0  0  0  0  0  0  0  0  0  0  0  0
   -3.9633   22.7555  -31.5351 H   0  0  0  0  0  0  0  0  0  0  0  0
  1  2  2  0
  2  3  2  0
  2  4  1  0
  4  5  1  0
  5  6  2  0
  6  7  1  0
  7  8  1  0
  7  9  2  0
  9 10  1  0
 10 11  2  0
 11 12  1  0
  2 13  1  0
 13 14  2  0
 14 15  1  0
 15 16  2  0
 16 17  1  0
 16 18  1  0
 18 19  1  0
 19 20  2  0
 19 21  2  0
 19 22  1  0
 22 23  1  0
 23 24  1  0
 24 25  1  0
 25 26  1  0
 26 27  1  0
 18 28  2  0
 11  5  1  0
 28 13  1  0
 27 22  1  0
  6 29  1  0
  9 30  1  0
 10 31  1  0
 14 32  1  0
 15 33  1  0
 17 34  1  0
 23 35  1  0
 23 36  1  0
 24 37  1  0
 24 38  1  0
 26 39  1  0
 26 40  1  0
 27 41  1  0
 27 42  1  0
 28 43  1  0
M  CHG  2   4  -1  12  -1
M  END
>  <UniqueID>  (42) 
40

>  <SMILES>  (42) 
O=S(=O)([N-]c1cc(Cl)ccc1[O-])c1ccc(O)c(S(=O)(=O)N2CCOCC2)c1

>  <Energy>  (42) 
55.473814076801716

>  <Genealogy>  (42) 
O=S(=O)([N-]c1cc(Cl)ccc1[O-])c1ccc(O)c(S(=O)(=O)N2CCOCC2)c1 (protonated)
O=S(=O)([N-]c1cc(Cl)ccc1[O-])c1ccc(O)c(S(=O)(=O)N2CCOCC2)c1 (3D coordinates assigned)
O=S(=O)([N-]c1cc(Cl)ccc1[O-])c1ccc(O)c(S(=O)(=O)N2CCOCC2)c1 (nonaromatic ring conformer: 55.473814076801716 kcal/mol)

>  <smiles>  (42) 
O=S(=O)(Nc1cc(Cl)ccc1O)c1ccc(O)c(S(=O)(=O)N2CCOCC2)c1

>  <score_type>  (42) 
oracle

>  <origin>  (42) 
adgpu

>  <m_score__min__energy>  (42) 
-13.5

>  <m_primary>  (42) 
energy

$$$$
42:0
     RDKit          3D

 45 47  0  0  0  0  0  0  0  0999 V2000
   -3.5540   25.2610  -30.5380 N   0  0  0  0  0  0  0  0  0  0  0  0
   -5.1280   25.1820  -29.8280 S   0  0  0  0  0  0  0  0  0  0  0  0
   -5.8350   26.4930  -30.0380 O   0  0  0  0  0  0  0  0  0  0  0  0
   -5.0050   24.9280  -28.3510 O   0  0  0  0  0  0  0  0  0  0  0  0
   -6.0370   23.8750  -30.5760 C   0  0  0  0  0  0  0  0  0  0  0  0
   -5.9440   23.6360  -31.9530 C   0  0  0  0  0  0  0  0  0  0  0  0
   -6.6330   22.5660  -32.5300 C   0  0  0  0  0  0  0  0  0  0  0  0
   -7.4050   21.7080  -31.7310 C   0  0  0  0  0  0  0  0  0  0  0  0
   -8.0930   20.5100  -32.3350 C   0  0  0  0  0  0  0  0  0  0  0  0
   -7.1240   19.4200  -32.6090 N   0  0  0  0  0  0  0  0  0  0  0  0
   -7.8140   18.1140  -32.6660 C   0  0  0  0  0  0  0  0  0  0  0  0
   -6.8140   17.0110  -32.8320 C   0  0  0  0  0  0  0  0  0  0  0  0
   -5.7500   16.7350  -31.9830 C   0  0  0  0  0  0  0  0  0  0  0  0
   -5.0050   15.6190  -32.3820 C   0  0  0  0  0  0  0  0  0  0  0  0
   -5.4800   15.0150  -33.5400 C   0  0  0  0  0  0  0  0  0  0  0  0
   -6.8290   15.8700  -34.0670 S   0  0  0  0  0  0  0  0  0  0  0  0
   -6.3600   19.6630  -33.8610 C   0  0  0  0  0  0  0  0  0  0  0  0
   -4.8710   19.5610  -33.6070 C   0  0  0  0  0  0  0  0  0  0  0  0
   -4.2930   20.5270  -32.7630 C   0  0  0  0  0  0  0  0  0  0  0  0
   -2.9190   20.5360  -32.5240 C   0  0  0  0  0  0  0  0  0  0  0  0
   -2.1010   19.5780  -33.1160 C   0  0  0  0  0  0  0  0  0  0  0  0
   -2.6520   18.6000  -33.9450 C   0  0  0  0  0  0  0  0  0  0  0  0
   -1.4890   17.3140  -34.7590 Br  0  0  0  0  0  0  0  0  0  0  0  0
   -4.0350   18.5750  -34.1980 C   0  0  0  0  0  0  0  0  0  0  0  0
   -4.5200   17.5740  -35.0460 O   0  0  0  0  0  0  0  0  0  0  0  0
   -7.5290   21.9750  -30.3580 C   0  0  0  0  0  0  0  0  0  0  0  0
   -6.8380   23.0450  -29.7820 C   0  0  0  0  0  0  0  0  0  0  0  0
   -3.5650   26.0530  -31.2200 H   0  0  0  0  0  0  0  0  0  0  0  0
   -5.3262   24.2932  -32.5826 H   0  0  0  0  0  0  0  0  0  0  0  0
   -6.5702   22.3953  -33.6149 H   0  0  0  0  0  0  0  0  0  0  0  0
   -8.8575   20.1434  -31.6342 H   0  0  0  0  0  0  0  0  0  0  0  0
   -8.5547   20.8145  -33.2858 H   0  0  0  0  0  0  0  0  0  0  0  0
   -8.3761   17.9583  -31.7334 H   0  0  0  0  0  0  0  0  0  0  0  0
   -8.5031   18.1077  -33.5234 H   0  0  0  0  0  0  0  0  0  0  0  0
   -5.5167   17.3320  -31.0890 H   0  0  0  0  0  0  0  0  0  0  0  0
   -4.1259   15.2543  -31.8305 H   0  0  0  0  0  0  0  0  0  0  0  0
   -5.0476   14.1292  -34.0283 H   0  0  0  0  0  0  0  0  0  0  0  0
   -6.6504   18.9140  -34.6124 H   0  0  0  0  0  0  0  0  0  0  0  0
   -6.5885   20.6759  -34.2240 H   0  0  0  0  0  0  0  0  0  0  0  0
   -4.9325   21.2842  -32.2859 H   0  0  0  0  0  0  0  0  0  0  0  0
   -2.4810   21.3015  -31.8665 H   0  0  0  0  0  0  0  0  0  0  0  0
   -1.0170   19.5919  -32.9298 H   0  0  0  0  0  0  0  0  0  0  0  0
   -4.0110   16.7430  -35.3050 H   0  0  0  0  0  0  0  0  0  0  0  0
   -8.1730   21.3391  -29.7327 H   0  0  0  0  0  0  0  0  0  0  0  0
   -6.9237   23.2355  -28.7020 H   0  0  0  0  0  0  0  0  0  0  0  0
  1  2  1  0
  2  3  2  0
  2  4  2  0
  2  5  1  0
  5  6  2  0
  6  7  1  0
  7  8  2  0
  8  9  1  0
  9 10  1  0
 10 11  1  0
 11 12  1  0
 12 13  2  0
 13 14  1  0
 14 15  2  0
 15 16  1  0
 10 17  1  0
 17 18  1  0
 18 19  2  0
 19 20  1  0
 20 21  2  0
 21 22  1  0
 22 23  1  0
 22 24  2  0
 24 25  1  0
  8 26  1  0
 26 27  2  0
 27  5  1  0
 16 12  1  0
 24 18  1  0
  1 28  1  0
  6 29  1  0
  7 30  1  0
  9 31  1  0
  9 32  1  0
 11 33  1  0
 11 34  1  0
 13 35  1  0
 14 36  1  0
 15 37  1  0
 17 38  1  0
 17 39  1  0
 19 40  1  0
 20 41  1  0
 21 42  1  0
 25 43  1  0
 26 44  1  0
 27 45  1  0
M  CHG  1   1  -1
M  END
>  <UniqueID>  (43) 
41

>  <SMILES>  (43) 
[NH-]S(=O)(=O)c1ccc(CN(Cc2cccs2)Cc2cccc(Br)c2O)cc1

>  <Energy>  (43) 
73.67806619510755

>  <Genealogy>  (43) 
[NH-]S(=O)(=O)c1ccc(CN(Cc2cccs2)Cc2cccc(Br)c2O)cc1 (protonated)
[NH-]S(=O)(=O)c1ccc(CN(Cc2cccs2)Cc2cccc(Br)c2O)cc1 (3D coordinates assigned)
[NH-]S(=O)(=O)c1ccc(CN(Cc2cccs2)Cc2cccc(Br)c2O)cc1 (optimized conformer: 73.67806619510755 kcal/mol)

>  <smiles>  (43) 
NS(=O)(=O)c1ccc(CN(Cc2cccs2)Cc2cccc(Br)c2O)cc1

>  <score_type>  (43) 
oracle

>  <origin>  (43) 
adgpu

>  <m_score__min__energy>  (43) 
-10.949999999999999

>  <m_primary>  (43) 
energy

$$$$
43:0
     RDKit          3D

 62 65  0  0  0  0  0  0  0  0999 V2000
   -1.7640   19.7740  -26.3930 C   0  0  0  0  0  0  0  0  0  0  0  0
   -0.4690   20.0120  -27.5890 S   0  0  0  0  0  0  0  0  0  0  0  0
    0.3070   18.7340  -27.7570 O   0  0  0  0  0  0  0  0  0  0  0  0
    0.4660   21.0850  -27.1010 O   0  0  0  0  0  0  0  0  0  0  0  0
   -1.1780   20.4800  -29.1320 C   0  0  0  0  0  0  0  0  0  0  0  0
   -0.3460   20.8790  -30.1870 C   0  0  0  0  0  0  0  0  0  0  0  0
   -0.8970   21.2410  -31.4200 C   0  0  0  0  0  0  0  0  0  0  0  0
   -2.2880   21.2140  -31.6090 C   0  0  0  0  0  0  0  0  0  0  0  0
   -2.8790   21.5710  -32.9440 C   0  0  0  0  0  0  0  0  0  0  0  0
   -3.9400   20.5860  -33.3180 C   0  0  0  0  0  0  0  0  0  0  0  0
   -3.6700   19.6540  -34.1220 O   0  0  0  0  0  0  0  0  0  0  0  0
   -5.2200   20.6530  -32.6780 N   0  0  0  0  0  0  0  0  0  0  0  0
   -5.8720   21.8360  -32.1920 C   0  0  0  0  0  0  0  0  0  0  0  0
   -7.2690   21.8400  -32.1020 C   0  0  0  0  0  0  0  0  0  0  0  0
   -7.9410   22.9640  -31.6170 C   0  0  0  0  0  0  0  0  0  0  0  0
   -7.2240   24.0880  -31.2030 C   0  0  0  0  0  0  0  0  0  0  0  0
   -5.8170   24.0960  -31.2580 C   0  0  0  0  0  0  0  0  0  0  0  0
   -5.0560   25.2800  -30.7960 C   0  0  0  0  0  0  0  0  0  0  0  0
   -5.6230   26.4060  -30.7240 O   0  0  0  0  0  0  0  0  0  0  0  0
   -3.6600   25.1600  -30.4870 N   0  0  0  0  0  0  0  0  0  0  0  0
   -3.0950   24.5130  -29.3380 C   0  0  0  0  0  0  0  0  0  0  0  0
   -3.8840   23.5990  -28.6250 C   0  0  0  0  0  0  0  0  0  0  0  0
   -3.3770   22.9640  -27.4890 C   0  0  0  0  0  0  0  0  0  0  0  0
   -2.0830   23.2470  -27.0460 C   0  0  0  0  0  0  0  0  0  0  0  0
   -1.2910   24.1770  -27.7350 C   0  0  0  0  0  0  0  0  0  0  0  0
    0.3390   24.5580  -27.1830 S   0  0  0  0  0  0  0  0  0  0  0  0
    1.3010   24.5130  -28.3390 O   0  0  0  0  0  0  0  0  0  0  0  0
    0.7490   23.5290  -26.1670 O   0  0  0  0  0  0  0  0  0  0  0  0
    0.3530   26.1510  -26.4560 N   0  0  0  0  0  0  0  0  0  0  0  0
    0.7750   26.0740  -25.0530 C   0  0  0  0  0  0  0  0  0  0  0  0
   -0.4720   25.9520  -24.1900 C   0  0  0  0  0  0  0  0  0  0  0  0
   -1.6250   26.3810  -25.0780 C   0  0  0  0  0  0  0  0  0  0  0  0
   -1.0020   26.7130  -26.4250 C   0  0  0  0  0  0  0  0  0  0  0  0
   -1.8010   24.8140  -28.8740 C   0  0  0  0  0  0  0  0  0  0  0  0
   -5.1480   22.9580  -31.7480 C   0  0  0  0  0  0  0  0  0  0  0  0
   -3.1180   20.7950  -30.5550 C   0  0  0  0  0  0  0  0  0  0  0  0
   -2.5650   20.4330  -29.3230 C   0  0  0  0  0  0  0  0  0  0  0  0
   -1.3451   19.8510  -25.3788 H   0  0  0  0  0  0  0  0  0  0  0  0
   -2.5362   20.5453  -26.5303 H   0  0  0  0  0  0  0  0  0  0  0  0
   -2.2115   18.7786  -26.5303 H   0  0  0  0  0  0  0  0  0  0  0  0
    0.7444   20.9074  -30.0444 H   0  0  0  0  0  0  0  0  0  0  0  0
   -0.2380   21.5482  -32.2454 H   0  0  0  0  0  0  0  0  0  0  0  0
   -3.3202   22.5771  -32.8889 H   0  0  0  0  0  0  0  0  0  0  0  0
   -2.0853   21.5506  -33.7054 H   0  0  0  0  0  0  0  0  0  0  0  0
   -7.8402   20.9535  -32.4148 H   0  0  0  0  0  0  0  0  0  0  0  0
   -9.0396   22.9637  -31.5610 H   0  0  0  0  0  0  0  0  0  0  0  0
   -7.7615   24.9729  -30.8315 H   0  0  0  0  0  0  0  0  0  0  0  0
   -4.9080   23.3809  -28.9623 H   0  0  0  0  0  0  0  0  0  0  0  0
   -3.9982   22.2394  -26.9420 H   0  0  0  0  0  0  0  0  0  0  0  0
   -1.6844   22.7396  -26.1551 H   0  0  0  0  0  0  0  0  0  0  0  0
    1.4183   25.1941  -24.9050 H   0  0  0  0  0  0  0  0  0  0  0  0
    1.3433   26.9742  -24.7762 H   0  0  0  0  0  0  0  0  0  0  0  0
   -0.6091   24.9123  -23.8579 H   0  0  0  0  0  0  0  0  0  0  0  0
   -0.4028   26.5721  -23.2841 H   0  0  0  0  0  0  0  0  0  0  0  0
   -2.3536   25.5636  -25.1829 H   0  0  0  0  0  0  0  0  0  0  0  0
   -2.1654   27.2413  -24.6563 H   0  0  0  0  0  0  0  0  0  0  0  0
   -1.6057   26.2735  -27.2327 H   0  0  0  0  0  0  0  0  0  0  0  0
   -0.9639   27.8031  -26.5670 H   0  0  0  0  0  0  0  0  0  0  0  0
   -1.1865   25.5534  -29.4085 H   0  0  0  0  0  0  0  0  0  0  0  0
   -4.0487   22.9459  -31.7841 H   0  0  0  0  0  0  0  0  0  0  0  0
   -4.2075   20.7517  -30.7000 H   0  0  0  0  0  0  0  0  0  0  0  0
   -3.2210   20.1103  -28.5011 H   0  0  0  0  0  0  0  0  0  0  0  0
  1  2  1  0
  2  3  2  0
  2  4  2  0
  2  5  1  0
  5  6  2  0
  6  7  1  0
  7  8  2  0
  8  9  1  0
  9 10  1  0
 10 11  2  0
 10 12  1  0
 12 13  1  0
 13 14  2  0
 14 15  1  0
 15 16  2  0
 16 17  1  0
 17 18  1  0
 18 19  2  0
 18 20  1  0
 20 21  1  0
 21 22  2  0
 22 23  1  0
 23 24  2  0
 24 25  1  0
 25 26  1  0
 26 27  2  0
 26 28  2  0
 26 29  1  0
 29 30  1  0
 30 31  1  0
 31 32  1  0
 32 33  1  0
 25 34  2  0
 17 35  2  0
  8 36  1  0
 36 37  2  0
 37  5  1  0
 35 13  1  0
 34 21  1  0
 33 29  1  0
  1 38  1  0
  1 39  1  0
  1 40  1  0
  6 41  1  0
  7 42  1  0
  9 43  1  0
  9 44  1  0
 14 45  1  0
 15 46  1  0
 16 47  1  0
 22 48  1  0
 23 49  1  0
 24 50  1  0
 30 51  1  0
 30 52  1  0
 31 53  1  0
 31 54  1  0
 32 55  1  0
 32 56  1  0
 33 57  1  0
 33 58  1  0
 34 59  1  0
 35 60  1  0
 36 61  1  0
 37 62  1  0
M  CHG  2  12  -1  20  -1
M  END
>  <UniqueID>  (44) 
42

>  <SMILES>  (44) 
CS(=O)(=O)c1ccc(CC(=O)[N-]c2cccc(C(=O)[N-]c3cccc(S(=O)(=O)N4CCCC4)c3)c2)cc1

>  <Energy>  (44) 
69.00815459747318

>  <Genealogy>  (44) 
CS(=O)(=O)c1ccc(CC(=O)[N-]c2cccc(C(=O)[N-]c3cccc(S(=O)(=O)N4CCCC4)c3)c2)cc1 (protonated)
CS(=O)(=O)c1ccc(CC(=O)[N-]c2cccc(C(=O)[N-]c3cccc(S(=O)(=O)N4CCCC4)c3)c2)cc1 (3D coordinates assigned)
CS(=O)(=O)c1ccc(CC(=O)[N-]c2cccc(C(=O)[N-]c3cccc(S(=O)(=O)N4CCCC4)c3)c2)cc1 (nonaromatic ring conformer: 69.00815459747318 kcal/mol)

>  <smiles>  (44) 
CS(=O)(=O)c1ccc(CC(=O)Nc2cccc(C(=O)Nc3cccc(S(=O)(=O)N4CCCC4)c3)c2)cc1

>  <score_type>  (44) 
oracle

>  <origin>  (44) 
adgpu

>  <m_score__min__energy>  (44) 
-12.369999999999999

>  <m_primary>  (44) 
energy

$$$$
44:0
     RDKit          3D

 42 44  0  0  0  0  0  0  0  0999 V2000
   -1.8047   18.3483  -32.9777 H   0  0  0  0  0  0  0  0  0  0  0  0
   -0.8200   18.8120  -33.1370 C   0  0  0  0  0  0  0  0  0  0  0  0
   -0.4820   19.3090  -34.3990 C   0  0  0  0  0  0  0  0  0  0  0  0
   -1.2094   19.2531  -35.2223 H   0  0  0  0  0  0  0  0  0  0  0  0
    0.7790   19.8780  -34.6200 C   0  0  0  0  0  0  0  0  0  0  0  0
    1.1830   20.5250  -36.2080 S   0  0  0  0  0  0  0  0  0  0  0  0
    2.1770   21.6410  -36.0340 O   0  0  0  0  0  0  0  0  0  0  0  0
   -0.0520   21.0820  -36.8610 O   0  0  0  0  0  0  0  0  0  0  0  0
    1.8760   19.2680  -37.2020 N   0  0  0  0  0  0  0  0  0  0  0  0
    3.1930   18.8950  -36.6720 C   0  0  0  0  0  0  0  0  0  0  0  0
    3.1617   18.9039  -35.5725 H   0  0  0  0  0  0  0  0  0  0  0  0
    3.4574   17.8866  -37.0232 H   0  0  0  0  0  0  0  0  0  0  0  0
    3.9469   19.6150  -37.0232 H   0  0  0  0  0  0  0  0  0  0  0  0
    0.9840   18.1020  -37.2000 C   0  0  0  0  0  0  0  0  0  0  0  0
    0.7621   17.8119  -36.1624 H   0  0  0  0  0  0  0  0  0  0  0  0
    0.0474   18.3559  -37.7180 H   0  0  0  0  0  0  0  0  0  0  0  0
    1.4741   17.2645  -37.7180 H   0  0  0  0  0  0  0  0  0  0  0  0
    1.7020   19.9410  -33.5680 C   0  0  0  0  0  0  0  0  0  0  0  0
    2.6957   20.3817  -33.7366 H   0  0  0  0  0  0  0  0  0  0  0  0
    1.3650   19.4460  -32.3050 C   0  0  0  0  0  0  0  0  0  0  0  0
    2.1009   19.4825  -31.4882 H   0  0  0  0  0  0  0  0  0  0  0  0
    0.0880   18.9010  -32.0740 C   0  0  0  0  0  0  0  0  0  0  0  0
   -0.2870   18.3620  -30.7950 N   0  0  0  0  0  0  0  0  0  0  0  0
   -0.5850   19.0420  -29.7260 C   0  0  0  0  0  0  0  0  0  0  0  0
   -0.6500   20.4010  -29.7520 N   0  0  0  0  0  0  0  0  0  0  0  0
   -0.9790   21.1150  -28.6420 C   0  0  0  0  0  0  0  0  0  0  0  0
   -1.0290   22.5980  -28.7190 C   0  0  0  0  0  0  0  0  0  0  0  0
   -0.0270   23.4000  -28.1380 C   0  0  0  0  0  0  0  0  0  0  0  0
    0.8199   22.9253  -27.6210 H   0  0  0  0  0  0  0  0  0  0  0  0
   -0.1000   24.7950  -28.2130 C   0  0  0  0  0  0  0  0  0  0  0  0
    0.8970   25.5710  -27.6340 O   0  0  0  0  0  0  0  0  0  0  0  0
   -1.1750   25.4080  -28.8650 C   0  0  0  0  0  0  0  0  0  0  0  0
   -1.2460   26.7940  -28.9410 O   0  0  0  0  0  0  0  0  0  0  0  0
   -2.1820   24.6230  -29.4370 C   0  0  0  0  0  0  0  0  0  0  0  0
   -3.2560   25.2260  -30.0820 O   0  0  0  0  0  0  0  0  0  0  0  0
   -2.1130   23.2280  -29.3620 C   0  0  0  0  0  0  0  0  0  0  0  0
   -2.9117   22.6176  -29.8087 H   0  0  0  0  0  0  0  0  0  0  0  0
   -1.2440   20.4200  -27.4540 C   0  0  0  0  0  0  0  0  0  0  0  0
   -1.5005   20.9572  -26.5290 H   0  0  0  0  0  0  0  0  0  0  0  0
   -1.1730   19.0270  -27.4790 C   0  0  0  0  0  0  0  0  0  0  0  0
   -1.4090   18.3660  -26.4330 O   0  0  0  0  0  0  0  0  0  0  0  0
   -0.8540   18.3900  -28.6010 O   0  0  0  0  0  0  0  0  0  0  0  0
  1  2  1  0
  2  3  2  0
  3  4  1  0
  3  5  1  0
  5  6  1  0
  6  7  2  0
  6  8  2  0
  6  9  1  0
  9 10  1  0
 10 11  1  0
 10 12  1  0
 10 13  1  0
  9 14  1  0
 14 15  1  0
 14 16  1  0
 14 17  1  0
  5 18  2  0
 18 19  1  0
 18 20  1  0
 20 21  1  0
 20 22  2  0
 22 23  1  0
 23 24  2  0
 24 25  1  0
 25 26  1  0
 26 27  1  0
 27 28  2  0
 28 29  1  0
 28 30  1  0
 30 31  1  0
 30 32  2  0
 32 33  1  0
 32 34  1  0
 34 35  1  0
 34 36  2  0
 36 37  1  0
 26 38  2  0
 38 39  1  0
 38 40  1  0
 40 41  2  0
 40 42  1  0
 22  2  1  0
 42 24  1  0
 36 27  1  0
M  CHG  4  25  -1  31  -1  33  -1  35  -1
M  END
>  <UniqueID>  (45) 
43

>  <SMILES>  (45) 
CN(C)S(=O)(=O)c1ccc(/N=c2\[n-]c(-c3cc([O-])c([O-])c([O-])c3)cc(=O)o2)cc1

>  <Energy>  (45) 
54.16247102924501

>  <Genealogy>  (45) 
CN(C)S(=O)(=O)c1ccc(N=c2[n-]c(-c3cc([O-])c([O-])c([O-])c3)cc(=O)o2)cc1 (protonated)
CN(C)S(=O)(=O)c1ccc(/N=c2\[n-]c(-c3cc([O-])c([O-])c([O-])c3)cc(=O)o2)cc1 (cis-trans isomerization)
CN(C)S(=O)(=O)c1ccc(/N=c2\[n-]c(-c3cc([O-])c([O-])c([O-])c3)cc(=O)o2)cc1 (3D coordinates assigned)
CN(C)S(=O)(=O)c1ccc(/N=c2\[n-]c(-c3cc([O-])c([O-])c([O-])c3)cc(=O)o2)cc1 (optimized conformer: 54.16247102924501 kcal/mol)

>  <smiles>  (45) 
CN(C)S(=O)(=O)c1ccc(N=c2[nH]c(-c3cc(O)c(O)c(O)c3)cc(=O)o2)cc1

>  <score_type>  (45) 
oracle

>  <origin>  (45) 
adgpu

>  <m_score__min__energy>  (45) 
-12.6

>  <m_primary>  (45) 
energy

$$$$
45:0
     RDKit          3D

 56 59  0  0  0  0  0  0  0  0999 V2000
   -1.2130   26.1670  -24.8100 C   0  0  0  0  0  0  0  0  0  0  0  0
   -1.6980   24.9460  -25.3590 O   0  0  0  0  0  0  0  0  0  0  0  0
   -1.6020   24.5940  -26.7110 C   0  0  0  0  0  0  0  0  0  0  0  0
   -0.3690   24.1360  -27.1920 C   0  0  0  0  0  0  0  0  0  0  0  0
   -0.2280   23.7540  -28.5280 C   0  0  0  0  0  0  0  0  0  0  0  0
   -1.3180   23.8260  -29.3970 C   0  0  0  0  0  0  0  0  0  0  0  0
   -2.5580   24.2860  -28.9340 C   0  0  0  0  0  0  0  0  0  0  0  0
   -3.9600   24.2910  -30.0000 S   0  0  0  0  0  0  0  0  0  0  0  0
   -4.2430   25.6880  -30.4800 O   0  0  0  0  0  0  0  0  0  0  0  0
   -5.1560   23.8050  -29.2290 O   0  0  0  0  0  0  0  0  0  0  0  0
   -3.7180   23.2590  -31.3720 N   0  0  0  0  0  0  0  0  0  0  0  0
   -4.5780   22.1600  -31.6840 C   0  0  0  0  0  0  0  0  0  0  0  0
   -5.9710   22.3640  -31.7890 C   0  0  0  0  0  0  0  0  0  0  0  0
   -6.7760   21.2720  -32.0920 C   0  0  0  0  0  0  0  0  0  0  0  0
   -6.2530   20.0250  -32.3010 C   0  0  0  0  0  0  0  0  0  0  0  0
   -4.8830   19.7830  -32.2290 C   0  0  0  0  0  0  0  0  0  0  0  0
   -4.0280   20.8650  -31.9290 C   0  0  0  0  0  0  0  0  0  0  0  0
   -2.2830   20.5680  -31.8390 S   0  0  0  0  0  0  0  0  0  0  0  0
   -1.5740   21.5580  -32.7220 O   0  0  0  0  0  0  0  0  0  0  0  0
   -1.9700   19.1920  -32.3550 O   0  0  0  0  0  0  0  0  0  0  0  0
   -1.6800   20.7270  -30.2090 N   0  0  0  0  0  0  0  0  0  0  0  0
   -2.7880   20.6900  -29.2420 C   0  0  0  0  0  0  0  0  0  0  0  0
   -2.2450   20.6760  -27.8000 C   0  0  0  0  0  0  0  0  0  0  0  0
   -0.8420   20.8670  -27.7670 O   0  0  0  0  0  0  0  0  0  0  0  0
   -0.1960   19.8140  -28.4600 C   0  0  0  0  0  0  0  0  0  0  0  0
   -0.7140   19.6620  -29.9050 C   0  0  0  0  0  0  0  0  0  0  0  0
   -7.2560   19.1550  -32.5380 N   0  0  0  0  0  0  0  0  0  0  0  0
   -7.1620   17.7070  -32.7090 C   0  0  0  0  0  0  0  0  0  0  0  0
   -8.3790   19.9100  -32.4410 C   0  0  0  0  0  0  0  0  0  0  0  0
   -9.5440   19.4400  -32.5480 O   0  0  0  0  0  0  0  0  0  0  0  0
   -8.1190   21.2180  -32.1930 N   0  0  0  0  0  0  0  0  0  0  0  0
   -9.0770   22.2920  -31.9400 C   0  0  0  0  0  0  0  0  0  0  0  0
   -2.6980   24.6740  -27.5940 C   0  0  0  0  0  0  0  0  0  0  0  0
   -1.2357   26.1098  -23.7117 H   0  0  0  0  0  0  0  0  0  0  0  0
   -0.1796   26.3357  -25.1471 H   0  0  0  0  0  0  0  0  0  0  0  0
   -1.8490   26.9988  -25.1471 H   0  0  0  0  0  0  0  0  0  0  0  0
    0.4943   24.0767  -26.5129 H   0  0  0  0  0  0  0  0  0  0  0  0
    0.7445   23.3955  -28.8964 H   0  0  0  0  0  0  0  0  0  0  0  0
   -1.2033   23.5210  -30.4476 H   0  0  0  0  0  0  0  0  0  0  0  0
   -6.4082   23.3616  -31.6350 H   0  0  0  0  0  0  0  0  0  0  0  0
   -4.4782   18.7748  -32.4015 H   0  0  0  0  0  0  0  0  0  0  0  0
   -3.4206   21.5789  -29.3821 H   0  0  0  0  0  0  0  0  0  0  0  0
   -3.3764   19.7758  -29.4097 H   0  0  0  0  0  0  0  0  0  0  0  0
   -2.7282   21.4827  -27.2292 H   0  0  0  0  0  0  0  0  0  0  0  0
   -2.4679   19.6932  -27.3590 H   0  0  0  0  0  0  0  0  0  0  0  0
    0.8840   20.0206  -28.4909 H   0  0  0  0  0  0  0  0  0  0  0  0
   -0.4097   18.8770  -27.9248 H   0  0  0  0  0  0  0  0  0  0  0  0
    0.1327   19.7282  -30.6040 H   0  0  0  0  0  0  0  0  0  0  0  0
   -1.2095   18.6855  -30.0094 H   0  0  0  0  0  0  0  0  0  0  0  0
   -7.1305   17.2225  -31.7219 H   0  0  0  0  0  0  0  0  0  0  0  0
   -8.0386   17.3460  -33.2669 H   0  0  0  0  0  0  0  0  0  0  0  0
   -6.2461   17.4624  -33.2669 H   0  0  0  0  0  0  0  0  0  0  0  0
   -9.1979   22.4275  -30.8551 H   0  0  0  0  0  0  0  0  0  0  0  0
   -8.7069   23.2264  -32.3872 H   0  0  0  0  0  0  0  0  0  0  0  0
  -10.0474   22.0306  -32.3872 H   0  0  0  0  0  0  0  0  0  0  0  0
   -3.6682   25.0428  -27.2297 H   0  0  0  0  0  0  0  0  0  0  0  0
  1  2  1  0
  2  3  1  0
  3  4  2  0
  4  5  1  0
  5  6  2  0
  6  7  1  0
  7  8  1  0
  8  9  2  0
  8 10  2  0
  8 11  1  0
 11 12  1  0
 12 13  2  0
 13 14  1  0
 14 15  2  0
 15 16  1  0
 16 17  2  0
 17 18  1  0
 18 19  2  0
 18 20  2  0
 18 21  1  0
 21 22  1  0
 22 23  1  0
 23 24  1  0
 24 25  1  0
 25 26  1  0
 15 27  1  0
 27 28  1  0
 27 29  1  0
 29 30  2  0
 29 31  1  0
 31 32  1  0
  7 33  2  0
 33  3  1  0
 17 12  1  0
 26 21  1  0
 31 14  1  0
  1 34  1  0
  1 35  1  0
  1 36  1  0
  4 37  1  0
  5 38  1  0
  6 39  1  0
 13 40  1  0
 16 41  1  0
 22 42  1  0
 22 43  1  0
 23 44  1  0
 23 45  1  0
 25 46  1  0
 25 47  1  0
 26 48  1  0
 26 49  1  0
 28 50  1  0
 28 51  1  0
 28 52  1  0
 32 53  1  0
 32 54  1  0
 32 55  1  0
 33 56  1  0
M  CHG  1  11  -1
M  END
>  <UniqueID>  (46) 
44

>  <SMILES>  (46) 
COc1cccc(S(=O)(=O)[N-]c2cc3c(cc2S(=O)(=O)N2CCOCC2)n(C)c(=O)n3C)c1

>  <Energy>  (46) 
113.50977983372036

>  <Genealogy>  (46) 
COc1cccc(S(=O)(=O)[N-]c2cc3c(cc2S(=O)(=O)N2CCOCC2)n(C)c(=O)n3C)c1 (protonated)
COc1cccc(S(=O)(=O)[N-]c2cc3c(cc2S(=O)(=O)N2CCOCC2)n(C)c(=O)n3C)c1 (3D coordinates assigned)
COc1cccc(S(=O)(=O)[N-]c2cc3c(cc2S(=O)(=O)N2CCOCC2)n(C)c(=O)n3C)c1 (nonaromatic ring conformer: 113.50977983372036 kcal/mol)

>  <smiles>  (46) 
COc1cccc(S(=O)(=O)Nc2cc3c(cc2S(=O)(=O)N2CCOCC2)n(C)c(=O)n3C)c1

>  <score_type>  (46) 
oracle

>  <origin>  (46) 
adgpu

>  <m_score__min__energy>  (46) 
-10.390000000000001

>  <m_primary>  (46) 
energy

$$$$
46:0
     RDKit          3D

 60 64  0  0  0  0  0  0  0  0999 V2000
    1.8850   20.8700  -27.5630 O   0  0  0  0  0  0  0  0  0  0  0  0
    1.1140   19.9540  -27.9550 C   0  0  0  0  0  0  0  0  0  0  0  0
    1.6240   18.6170  -28.0340 N   0  0  0  0  0  0  0  0  0  0  0  0
    1.6900   17.8120  -29.2500 C   0  0  0  0  0  0  0  0  0  0  0  0
    0.9270   18.4680  -30.3700 C   0  0  0  0  0  0  0  0  0  0  0  0
   -0.2380   17.8740  -30.8820 C   0  0  0  0  0  0  0  0  0  0  0  0
   -0.9550   18.4950  -31.9090 C   0  0  0  0  0  0  0  0  0  0  0  0
   -0.5230   19.7220  -32.4280 C   0  0  0  0  0  0  0  0  0  0  0  0
   -1.4310   20.5200  -33.7080 S   0  0  0  0  0  0  0  0  0  0  0  0
   -0.8720   21.8930  -33.9640 O   0  0  0  0  0  0  0  0  0  0  0  0
   -1.3230   19.7160  -34.9740 O   0  0  0  0  0  0  0  0  0  0  0  0
   -3.1190   20.6790  -33.2330 C   0  0  0  0  0  0  0  0  0  0  0  0
   -3.6750   21.9480  -33.0260 C   0  0  0  0  0  0  0  0  0  0  0  0
   -5.0160   22.0740  -32.6510 C   0  0  0  0  0  0  0  0  0  0  0  0
   -5.8040   20.9350  -32.4740 C   0  0  0  0  0  0  0  0  0  0  0  0
   -5.2520   19.6600  -32.6620 C   0  0  0  0  0  0  0  0  0  0  0  0
   -6.2480   18.2190  -32.4600 S   0  0  0  0  0  0  0  0  0  0  0  0
   -7.6710   18.5430  -32.8220 O   0  0  0  0  0  0  0  0  0  0  0  0
   -6.2100   17.7800  -31.0210 O   0  0  0  0  0  0  0  0  0  0  0  0
   -5.6560   16.9550  -33.5080 N   0  0  0  0  0  0  0  0  0  0  0  0
   -4.6920   16.0950  -32.8210 C   0  0  0  0  0  0  0  0  0  0  0  0
   -4.7730   14.7310  -33.4900 C   0  0  0  0  0  0  0  0  0  0  0  0
   -6.1010   14.7220  -34.2330 C   0  0  0  0  0  0  0  0  0  0  0  0
   -6.7390   16.0670  -33.9300 C   0  0  0  0  0  0  0  0  0  0  0  0
   -3.9090   19.5360  -33.0420 C   0  0  0  0  0  0  0  0  0  0  0  0
    0.6260   20.3280  -31.9050 C   0  0  0  0  0  0  0  0  0  0  0  0
    1.3480   19.7050  -30.8830 C   0  0  0  0  0  0  0  0  0  0  0  0
   -0.2520   20.2510  -28.2860 N   0  0  0  0  0  0  0  0  0  0  0  0
   -0.7580   21.5830  -28.4960 C   0  0  0  0  0  0  0  0  0  0  0  0
   -0.1050   22.7190  -27.9400 C   0  0  0  0  0  0  0  0  0  0  0  0
   -0.5930   24.0190  -28.1780 C   0  0  0  0  0  0  0  0  0  0  0  0
   -1.7220   24.1500  -28.9820 C   0  0  0  0  0  0  0  0  0  0  0  0
   -2.3550   25.2800  -29.3420 N   0  0  0  0  0  0  0  0  0  0  0  0
   -3.3770   24.9260  -30.1160 N   0  0  0  0  0  0  0  0  0  0  0  0
   -3.3950   23.5780  -30.2490 C   0  0  0  0  0  0  0  0  0  0  0  0
   -2.3420   23.0680  -29.5300 C   0  0  0  0  0  0  0  0  0  0  0  0
   -1.8910   21.7660  -29.3230 C   0  0  0  0  0  0  0  0  0  0  0  0
    2.7422   17.6975  -29.5496 H   0  0  0  0  0  0  0  0  0  0  0  0
    1.2398   16.8293  -29.0461 H   0  0  0  0  0  0  0  0  0  0  0  0
   -0.5883   16.9149  -30.4728 H   0  0  0  0  0  0  0  0  0  0  0  0
   -1.8613   18.0184  -32.3107 H   0  0  0  0  0  0  0  0  0  0  0  0
   -3.0553   22.8471  -33.1588 H   0  0  0  0  0  0  0  0  0  0  0  0
   -5.4510   23.0722  -32.4951 H   0  0  0  0  0  0  0  0  0  0  0  0
   -6.8607   21.0383  -32.1863 H   0  0  0  0  0  0  0  0  0  0  0  0
   -3.6770   16.5071  -32.9208 H   0  0  0  0  0  0  0  0  0  0  0  0
   -4.9182   16.0243  -31.7468 H   0  0  0  0  0  0  0  0  0  0  0  0
   -3.9379   14.5974  -34.1933 H   0  0  0  0  0  0  0  0  0  0  0  0
   -4.7089   13.9125  -32.7579 H   0  0  0  0  0  0  0  0  0  0  0  0
   -5.9365   14.6085  -35.3147 H   0  0  0  0  0  0  0  0  0  0  0  0
   -6.7411   13.8844  -33.9188 H   0  0  0  0  0  0  0  0  0  0  0  0
   -7.2290   16.4665  -34.8301 H   0  0  0  0  0  0  0  0  0  0  0  0
   -7.5064   15.9758  -33.1472 H   0  0  0  0  0  0  0  0  0  0  0  0
   -3.4723   18.5375  -33.1912 H   0  0  0  0  0  0  0  0  0  0  0  0
    0.9617   21.2982  -32.3000 H   0  0  0  0  0  0  0  0  0  0  0  0
    2.2506   20.1865  -30.4787 H   0  0  0  0  0  0  0  0  0  0  0  0
   -0.9470   19.4740  -28.2870 H   0  0  0  0  0  0  0  0  0  0  0  0
    0.7911   22.5803  -27.3173 H   0  0  0  0  0  0  0  0  0  0  0  0
   -0.0988   24.9004  -27.7434 H   0  0  0  0  0  0  0  0  0  0  0  0
   -4.1244   22.9948  -30.8303 H   0  0  0  0  0  0  0  0  0  0  0  0
   -2.3995   20.9083  -29.7876 H   0  0  0  0  0  0  0  0  0  0  0  0
  1  2  2  0
  2  3  1  0
  3  4  1  0
  4  5  1  0
  5  6  2  0
  6  7  1  0
  7  8  2  0
  8  9  1  0
  9 10  2  0
  9 11  2  0
  9 12  1  0
 12 13  2  0
 13 14  1  0
 14 15  2  0
 15 16  1  0
 16 17  1  0
 17 18  2  0
 17 19  2  0
 17 20  1  0
 20 21  1  0
 21 22  1  0
 22 23  1  0
 23 24  1  0
 16 25  2  0
  8 26  1  0
 26 27  2  0
  2 28  1  0
 28 29  1  0
 29 30  2  0
 30 31  1  0
 31 32  2  0
 32 33  1  0
 33 34  1  0
 34 35  2  0
 35 36  1  0
 36 37  2  0
 27  5  1  0
 37 29  1  0
 25 12  1  0
 36 32  1  0
 24 20  1  0
  4 38  1  0
  4 39  1  0
  6 40  1  0
  7 41  1  0
 13 42  1  0
 14 43  1  0
 15 44  1  0
 21 45  1  0
 21 46  1  0
 22 47  1  0
 22 48  1  0
 23 49  1  0
 23 50  1  0
 24 51  1  0
 24 52  1  0
 25 53  1  0
 26 54  1  0
 27 55  1  0
 28 56  1  0
 30 57  1  0
 31 58  1  0
 35 59  1  0
 37 60  1  0
M  CHG  2   3  -1  33  -1
M  END
>  <UniqueID>  (47) 
45

>  <SMILES>  (47) 
O=C([N-]Cc1ccc(S(=O)(=O)c2cccc(S(=O)(=O)N3CCCC3)c2)cc1)Nc1ccc2[n-]ncc2c1

>  <Energy>  (47) 
107.01674093907289

>  <Genealogy>  (47) 
O=C([N-]Cc1ccc(S(=O)(=O)c2cccc(S(=O)(=O)N3CCCC3)c2)cc1)Nc1ccc2[n-]ncc2c1 (protonated)
O=C([N-]Cc1ccc(S(=O)(=O)c2cccc(S(=O)(=O)N3CCCC3)c2)cc1)Nc1ccc2[n-]ncc2c1 (3D coordinates assigned)
O=C([N-]Cc1ccc(S(=O)(=O)c2cccc(S(=O)(=O)N3CCCC3)c2)cc1)Nc1ccc2[n-]ncc2c1 (nonaromatic ring conformer: 107.01674093907289 kcal/mol)

>  <smiles>  (47) 
O=C(NCc1ccc(S(=O)(=O)c2cccc(S(=O)(=O)N3CCCC3)c2)cc1)Nc1ccc2[nH]ncc2c1

>  <score_type>  (47) 
oracle

>  <origin>  (47) 
adgpu

>  <m_score__min__energy>  (47) 
-12.31

>  <m_primary>  (47) 
energy

$$$$
47:0
     RDKit          3D

 71 75  0  0  0  0  0  0  0  0999 V2000
   -1.3330   16.3850  -33.7960 H   0  0  0  0  0  0  0  0  0  0  0  0
   -2.3060   16.7190  -33.6160 N   0  0  0  0  0  0  0  0  0  0  0  0
   -2.5340   17.8930  -33.1230 C   0  0  0  0  0  0  0  0  0  0  0  0
   -1.4970   18.7230  -32.8290 N   0  0  0  0  0  0  0  0  0  0  0  0
   -1.6840   19.9700  -32.3200 C   0  0  0  0  0  0  0  0  0  0  0  0
   -0.2350   21.0000  -32.0480 S   0  0  0  0  0  0  0  0  0  0  0  0
    0.3140   20.8070  -33.7420 C   0  0  0  0  0  0  0  0  0  0  0  0
    0.6830   19.5450  -34.2110 C   0  0  0  0  0  0  0  0  0  0  0  0
    0.6093   18.6695  -33.5491 H   0  0  0  0  0  0  0  0  0  0  0  0
    1.1460   19.3930  -35.5210 C   0  0  0  0  0  0  0  0  0  0  0  0
    1.4233   18.3959  -35.8936 H   0  0  0  0  0  0  0  0  0  0  0  0
    1.2570   20.5070  -36.3580 C   0  0  0  0  0  0  0  0  0  0  0  0
    1.6245   20.3860  -37.3877 H   0  0  0  0  0  0  0  0  0  0  0  0
    0.9000   21.7800  -35.8860 C   0  0  0  0  0  0  0  0  0  0  0  0
    1.0110   22.9360  -36.7230 N   0  0  0  0  0  0  0  0  0  0  0  0
    1.1900   24.2780  -36.2490 C   0  0  0  0  0  0  0  0  0  0  0  0
    1.7930   24.4570  -35.1580 O   0  0  0  0  0  0  0  0  0  0  0  0
    0.7070   25.4640  -37.0500 C   0  0  0  0  0  0  0  0  0  0  0  0
    1.5033   26.2221  -37.0838 H   0  0  0  0  0  0  0  0  0  0  0  0
    0.4551   25.1195  -38.0638 H   0  0  0  0  0  0  0  0  0  0  0  0
   -0.5060   26.0640  -36.4440 N   0  0  0  0  0  0  0  0  0  0  0  0
   -0.1560   27.0320  -35.3920 C   0  0  0  0  0  0  0  0  0  0  0  0
   -0.9540   27.0690  -34.6358 H   0  0  0  0  0  0  0  0  0  0  0  0
    0.7788   26.7383  -34.8922 H   0  0  0  0  0  0  0  0  0  0  0  0
   -0.0040   28.3910  -36.0510 C   0  0  0  0  0  0  0  0  0  0  0  0
   -0.3774   29.1860  -35.3888 H   0  0  0  0  0  0  0  0  0  0  0  0
    1.0475   28.6305  -36.2677 H   0  0  0  0  0  0  0  0  0  0  0  0
   -0.8420   28.3100  -37.3120 C   0  0  0  0  0  0  0  0  0  0  0  0
   -1.7254   28.9600  -37.2278 H   0  0  0  0  0  0  0  0  0  0  0  0
   -0.2787   28.6438  -38.1959 H   0  0  0  0  0  0  0  0  0  0  0  0
   -1.2660   26.8490  -37.4330 C   0  0  0  0  0  0  0  0  0  0  0  0
   -2.3437   26.7565  -37.2328 H   0  0  0  0  0  0  0  0  0  0  0  0
   -1.0632   26.4780  -38.4485 H   0  0  0  0  0  0  0  0  0  0  0  0
    0.3980   21.9190  -34.5870 C   0  0  0  0  0  0  0  0  0  0  0  0
    0.0684   22.9056  -34.2292 H   0  0  0  0  0  0  0  0  0  0  0  0
   -2.9970   20.4330  -32.0680 C   0  0  0  0  0  0  0  0  0  0  0  0
   -3.2730   21.7750  -31.5000 C   0  0  0  0  0  0  0  0  0  0  0  0
   -2.3090   22.3720  -30.6680 C   0  0  0  0  0  0  0  0  0  0  0  0
   -1.3879   21.8221  -30.4248 H   0  0  0  0  0  0  0  0  0  0  0  0
   -2.5050   23.6600  -30.1430 C   0  0  0  0  0  0  0  0  0  0  0  0
   -1.4310   24.2880  -29.3440 C   0  0  0  0  0  0  0  0  0  0  0  0
   -1.4580   25.5340  -29.1620 O   0  0  0  0  0  0  0  0  0  0  0  0
   -0.3520   23.5320  -28.7750 N   0  0  0  0  0  0  0  0  0  0  0  0
   -0.1480   23.2900  -27.3490 C   0  0  0  0  0  0  0  0  0  0  0  0
    0.8052   22.7606  -27.2036 H   0  0  0  0  0  0  0  0  0  0  0  0
   -0.1275   24.2552  -26.8218 H   0  0  0  0  0  0  0  0  0  0  0  0
   -1.2880   22.4400  -26.7860 C   0  0  0  0  0  0  0  0  0  0  0  0
   -1.3448   22.5902  -25.6978 H   0  0  0  0  0  0  0  0  0  0  0  0
   -2.2268   22.7502  -27.2681 H   0  0  0  0  0  0  0  0  0  0  0  0
   -1.0640   20.9780  -27.0700 C   0  0  0  0  0  0  0  0  0  0  0  0
   -1.9260   20.0080  -26.5350 C   0  0  0  0  0  0  0  0  0  0  0  0
   -2.7607   20.3139  -25.8872 H   0  0  0  0  0  0  0  0  0  0  0  0
   -1.7270   18.6530  -26.8230 C   0  0  0  0  0  0  0  0  0  0  0  0
   -2.4050   17.8965  -26.4009 H   0  0  0  0  0  0  0  0  0  0  0  0
   -0.6670   18.2590  -27.6470 C   0  0  0  0  0  0  0  0  0  0  0  0
   -0.5099   17.1933  -27.8699 H   0  0  0  0  0  0  0  0  0  0  0  0
    0.1910   19.2190  -28.1860 C   0  0  0  0  0  0  0  0  0  0  0  0
    1.0220   18.9092  -28.8368 H   0  0  0  0  0  0  0  0  0  0  0  0
   -0.0040   20.5750  -27.9000 C   0  0  0  0  0  0  0  0  0  0  0  0
    0.6749   21.3281  -28.3264 H   0  0  0  0  0  0  0  0  0  0  0  0
   -3.6760   24.3630  -30.4710 C   0  0  0  0  0  0  0  0  0  0  0  0
   -3.8680   25.6680  -30.0280 O   0  0  0  0  0  0  0  0  0  0  0  0
   -4.6430   23.7730  -31.2880 C   0  0  0  0  0  0  0  0  0  0  0  0
   -5.5748   24.3153  -31.5063 H   0  0  0  0  0  0  0  0  0  0  0  0
   -4.4400   22.5000  -31.8320 C   0  0  0  0  0  0  0  0  0  0  0  0
   -5.3930   22.0010  -32.7240 O   0  0  0  0  0  0  0  0  0  0  0  0
   -5.3490   22.1670  -33.7210 H   0  0  0  0  0  0  0  0  0  0  0  0
   -4.0730   19.5870  -32.3730 C   0  0  0  0  0  0  0  0  0  0  0  0
   -5.1034   19.9281  -32.1946 H   0  0  0  0  0  0  0  0  0  0  0  0
   -3.8460   18.3160  -32.9010 C   0  0  0  0  0  0  0  0  0  0  0  0
   -4.6915   17.6541  -33.1399 H   0  0  0  0  0  0  0  0  0  0  0  0
  1  2  1  0
  2  3  2  0
  3  4  1  0
  4  5  1  0
  5  6  1  0
  6  7  1  0
  7  8  2  0
  8  9  1  0
  8 10  1  0
 10 11  1  0
 10 12  2  0
 12 13  1  0
 12 14  1  0
 14 15  1  0
 15 16  1  0
 16 17  2  0
 16 18  1  0
 18 19  1  0
 18 20  1  0
 18 21  1  0
 21 22  1  0
 22 23  1  0
 22 24  1  0
 22 25  1  0
 25 26  1  0
 25 27  1  0
 25 28  1  0
 28 29  1  0
 28 30  1  0
 28 31  1  0
 31 32  1  0
 31 33  1  0
 14 34  2  0
 34 35  1  0
  5 36  2  0
 36 37  1  0
 37 38  2  0
 38 39  1  0
 38 40  1  0
 40 41  1  0
 41 42  2  0
 41 43  1  0
 43 44  1  0
 44 45  1  0
 44 46  1  0
 44 47  1  0
 47 48  1  0
 47 49  1  0
 47 50  1  0
 50 51  2  0
 51 52  1  0
 51 53  1  0
 53 54  1  0
 53 55  2  0
 55 56  1  0
 55 57  1  0
 57 58  1  0
 57 59  2  0
 59 60  1  0
 40 61  2  0
 61 62  1  0
 61 63  1  0
 63 64  1  0
 63 65  2  0
 65 66  1  0
 66 67  1  0
 36 68  1  0
 68 69  1  0
 68 70  2  0
 70 71  1  0
 70  3  1  0
 34  7  1  0
 65 37  1  0
 31 21  1  0
 59 50  1  0
M  CHG  4   4  -1  15  -1  43  -1  62  -1
M  END
>  <UniqueID>  (48) 
46

>  <SMILES>  (48) 
[H]/N=c1/ccc(-c2cc(C(=O)[N-]CCc3ccccc3)c([O-])cc2O)c(Sc2cccc([N-]C(=O)CN3CCCC3)c2)[n-]1

>  <Energy>  (48) 
88.75178220051822

>  <Genealogy>  (48) 
N=c1ccc(-c2cc(C(=O)[N-]CCc3ccccc3)c([O-])cc2O)c(Sc2cccc([N-]C(=O)CN3CCCC3)c2)[n-]1 (protonated)
[H]/N=c1/ccc(-c2cc(C(=O)[N-]CCc3ccccc3)c([O-])cc2O)c(Sc2cccc([N-]C(=O)CN3CCCC3)c2)[n-]1 (cis-trans isomerization)
[H]/N=c1/ccc(-c2cc(C(=O)[N-]CCc3ccccc3)c([O-])cc2O)c(Sc2cccc([N-]C(=O)CN3CCCC3)c2)[n-]1 (3D coordinates assigned)
[H]/N=c1/ccc(-c2cc(C(=O)[N-]CCc3ccccc3)c([O-])cc2O)c(Sc2cccc([N-]C(=O)CN3CCCC3)c2)[n-]1 (nonaromatic ring conformer: 88.75178220051822 kcal/mol)

>  <smiles>  (48) 
N=c1ccc(-c2cc(C(=O)NCCc3ccccc3)c(O)cc2O)c(Sc2cccc(NC(=O)CN3CCCC3)c2)[nH]1

>  <score_type>  (48) 
oracle

>  <origin>  (48) 
adgpu

>  <m_score__min__energy>  (48) 
-14.6

>  <m_primary>  (48) 
energy

$$$$
48:0
     RDKit          3D

 54 57  0  0  0  0  0  0  0  0999 V2000
   -8.0890   21.1820  -32.1690 O   0  0  0  0  0  0  0  0  0  0  0  0
   -6.9210   21.0470  -31.7170 C   0  0  0  0  0  0  0  0  0  0  0  0
   -6.3300   19.7460  -31.6360 N   0  0  0  0  0  0  0  0  0  0  0  0
   -5.6690   19.0360  -32.6940 C   0  0  0  0  0  0  0  0  0  0  0  0
   -6.4020   18.7010  -33.8360 C   0  0  0  0  0  0  0  0  0  0  0  0
   -5.7950   18.0200  -34.8930 C   0  0  0  0  0  0  0  0  0  0  0  0
   -4.4410   17.6910  -34.8290 C   0  0  0  0  0  0  0  0  0  0  0  0
   -3.6790   18.0670  -33.7150 C   0  0  0  0  0  0  0  0  0  0  0  0
   -1.9540   17.7110  -33.6600 S   0  0  0  0  0  0  0  0  0  0  0  0
   -1.6950   16.6920  -32.5820 O   0  0  0  0  0  0  0  0  0  0  0  0
   -1.5160   17.1320  -34.9770 O   0  0  0  0  0  0  0  0  0  0  0  0
   -1.0630   19.1690  -33.3020 N   0  0  0  0  0  0  0  0  0  0  0  0
   -0.9480   19.3900  -31.8590 C   0  0  0  0  0  0  0  0  0  0  0  0
   -0.7700   20.8840  -31.6730 C   0  0  0  0  0  0  0  0  0  0  0  0
   -1.4090   21.5140  -32.8990 C   0  0  0  0  0  0  0  0  0  0  0  0
   -1.7410   20.3520  -33.8310 C   0  0  0  0  0  0  0  0  0  0  0  0
   -4.2940   18.7410  -32.6480 C   0  0  0  0  0  0  0  0  0  0  0  0
   -6.1280   22.2430  -31.3420 C   0  0  0  0  0  0  0  0  0  0  0  0
   -6.7460   23.5000  -31.2270 C   0  0  0  0  0  0  0  0  0  0  0  0
   -5.9900   24.6340  -30.9300 C   0  0  0  0  0  0  0  0  0  0  0  0
   -4.6120   24.5320  -30.7440 C   0  0  0  0  0  0  0  0  0  0  0  0
   -3.8720   25.6760  -30.4710 O   0  0  0  0  0  0  0  0  0  0  0  0
   -3.9750   23.2830  -30.8240 C   0  0  0  0  0  0  0  0  0  0  0  0
   -2.5540   23.2200  -30.6300 N   0  0  0  0  0  0  0  0  0  0  0  0
   -1.7170   23.3110  -29.1110 S   0  0  0  0  0  0  0  0  0  0  0  0
   -0.3290   23.8500  -29.2880 O   0  0  0  0  0  0  0  0  0  0  0  0
   -2.4700   24.2650  -28.2250 O   0  0  0  0  0  0  0  0  0  0  0  0
   -1.6820   21.7120  -28.3600 C   0  0  0  0  0  0  0  0  0  0  0  0
   -0.4680   21.0170  -28.2350 C   0  0  0  0  0  0  0  0  0  0  0  0
   -0.4210   19.8050  -27.5410 C   0  0  0  0  0  0  0  0  0  0  0  0
   -1.5870   19.2770  -26.9660 C   0  0  0  0  0  0  0  0  0  0  0  0
   -2.8010   19.9540  -27.1000 C   0  0  0  0  0  0  0  0  0  0  0  0
   -2.8490   21.1710  -27.8040 C   0  0  0  0  0  0  0  0  0  0  0  0
   -4.7410   22.1400  -31.1210 C   0  0  0  0  0  0  0  0  0  0  0  0
   -7.4650   18.9759  -33.9025 H   0  0  0  0  0  0  0  0  0  0  0  0
   -6.3859   17.7423  -35.7783 H   0  0  0  0  0  0  0  0  0  0  0  0
   -3.9710   17.1357  -35.6541 H   0  0  0  0  0  0  0  0  0  0  0  0
   -1.8595   19.0479  -31.3470 H   0  0  0  0  0  0  0  0  0  0  0  0
   -0.1025   18.8295  -31.4337 H   0  0  0  0  0  0  0  0  0  0  0  0
   -1.2761   21.2222  -30.7568 H   0  0  0  0  0  0  0  0  0  0  0  0
    0.2890   21.1634  -31.5704 H   0  0  0  0  0  0  0  0  0  0  0  0
   -2.3246   22.0557  -32.6194 H   0  0  0  0  0  0  0  0  0  0  0  0
   -0.7386   22.2422  -33.3789 H   0  0  0  0  0  0  0  0  0  0  0  0
   -2.8281   20.1853  -33.8537 H   0  0  0  0  0  0  0  0  0  0  0  0
   -1.4097   20.5667  -34.8577 H   0  0  0  0  0  0  0  0  0  0  0  0
   -3.6986   19.0396  -31.7726 H   0  0  0  0  0  0  0  0  0  0  0  0
   -7.8327   23.5901  -31.3721 H   0  0  0  0  0  0  0  0  0  0  0  0
   -6.4833   25.6133  -30.8421 H   0  0  0  0  0  0  0  0  0  0  0  0
    0.4481   21.4277  -28.6845 H   0  0  0  0  0  0  0  0  0  0  0  0
    0.5319   19.2638  -27.4453 H   0  0  0  0  0  0  0  0  0  0  0  0
   -1.5447   18.3292  -26.4093 H   0  0  0  0  0  0  0  0  0  0  0  0
   -3.7171   19.5369  -26.6564 H   0  0  0  0  0  0  0  0  0  0  0  0
   -3.8066   21.7001  -27.9185 H   0  0  0  0  0  0  0  0  0  0  0  0
   -4.2514   21.1568  -31.1811 H   0  0  0  0  0  0  0  0  0  0  0  0
  1  2  2  0
  2  3  1  0
  3  4  1  0
  4  5  2  0
  5  6  1  0
  6  7  2  0
  7  8  1  0
  8  9  1  0
  9 10  2  0
  9 11  2  0
  9 12  1  0
 12 13  1  0
 13 14  1  0
 14 15  1  0
 15 16  1  0
  8 17  2  0
  2 18  1  0
 18 19  2  0
 19 20  1  0
 20 21  2  0
 21 22  1  0
 21 23  1  0
 23 24  1  0
 24 25  1  0
 25 26  2  0
 25 27  2  0
 25 28  1  0
 28 29  2  0
 29 30  1  0
 30 31  2  0
 31 32  1  0
 32 33  2  0
 23 34  2  0
 17  4  1  0
 34 18  1  0
 16 12  1  0
 33 28  1  0
  5 35  1  0
  6 36  1  0
  7 37  1  0
 13 38  1  0
 13 39  1  0
 14 40  1  0
 14 41  1  0
 15 42  1  0
 15 43  1  0
 16 44  1  0
 16 45  1  0
 17 46  1  0
 19 47  1  0
 20 48  1  0
 29 49  1  0
 30 50  1  0
 31 51  1  0
 32 52  1  0
 33 53  1  0
 34 54  1  0
M  CHG  3   3  -1  22  -1  24  -1
M  END
>  <UniqueID>  (49) 
47

>  <SMILES>  (49) 
O=C([N-]c1cccc(S(=O)(=O)N2CCCC2)c1)c1ccc([O-])c([N-]S(=O)(=O)c2ccccc2)c1

>  <Energy>  (49) 
68.8321927351067

>  <Genealogy>  (49) 
O=C([N-]c1cccc(S(=O)(=O)N2CCCC2)c1)c1ccc([O-])c([N-]S(=O)(=O)c2ccccc2)c1 (protonated)
O=C([N-]c1cccc(S(=O)(=O)N2CCCC2)c1)c1ccc([O-])c([N-]S(=O)(=O)c2ccccc2)c1 (3D coordinates assigned)
O=C([N-]c1cccc(S(=O)(=O)N2CCCC2)c1)c1ccc([O-])c([N-]S(=O)(=O)c2ccccc2)c1 (nonaromatic ring conformer: 68.8321927351067 kcal/mol)

>  <smiles>  (49) 
O=C(Nc1cccc(S(=O)(=O)N2CCCC2)c1)c1ccc(O)c(NS(=O)(=O)c2ccccc2)c1

>  <score_type>  (49) 
oracle

>  <origin>  (49) 
adgpu

>  <m_score__min__energy>  (49) 
-14.109999999999999

>  <m_primary>  (49) 
energy

$$$$
49:0
     RDKit          3D

 64 68  0  0  0  0  0  0  0  0999 V2000
   -0.4700   21.5720  -31.3130 C   0  0  0  0  0  0  0  0  0  0  0  0
   -1.1100   20.4410  -32.0770 C   0  0  0  0  0  0  0  0  0  0  0  0
   -2.0770   20.7370  -33.0460 C   0  0  0  0  0  0  0  0  0  0  0  0
   -2.7030   19.7210  -33.7640 C   0  0  0  0  0  0  0  0  0  0  0  0
   -2.3720   18.3730  -33.5380 C   0  0  0  0  0  0  0  0  0  0  0  0
   -1.3780   18.0680  -32.5840 C   0  0  0  0  0  0  0  0  0  0  0  0
   -0.7360   19.0940  -31.8570 C   0  0  0  0  0  0  0  0  0  0  0  0
    0.3020   18.7440  -30.8160 C   0  0  0  0  0  0  0  0  0  0  0  0
   -1.0480   16.7300  -32.3360 O   0  0  0  0  0  0  0  0  0  0  0  0
   -1.3630   15.6770  -33.2410 C   0  0  0  0  0  0  0  0  0  0  0  0
   -2.6750   15.9340  -33.9110 C   0  0  0  0  0  0  0  0  0  0  0  0
   -3.3970   14.9570  -34.2510 O   0  0  0  0  0  0  0  0  0  0  0  0
   -3.0690   17.2880  -34.2080 N   0  0  0  0  0  0  0  0  0  0  0  0
   -4.2460   17.5270  -35.0640 C   0  0  0  0  0  0  0  0  0  0  0  0
   -5.4080   18.0230  -34.2520 C   0  0  0  0  0  0  0  0  0  0  0  0
   -5.5240   19.2780  -33.7770 N   0  0  0  0  0  0  0  0  0  0  0  0
   -6.7010   19.2560  -33.1150 C   0  0  0  0  0  0  0  0  0  0  0  0
   -7.2690   20.4310  -32.4230 C   0  0  0  0  0  0  0  0  0  0  0  0
   -8.6600   20.5780  -32.3000 C   0  0  0  0  0  0  0  0  0  0  0  0
   -9.1950   21.6850  -31.6370 C   0  0  0  0  0  0  0  0  0  0  0  0
   -8.3490   22.6560  -31.0940 C   0  0  0  0  0  0  0  0  0  0  0  0
   -6.9600   22.5280  -31.2210 C   0  0  0  0  0  0  0  0  0  0  0  0
   -5.8920   23.7430  -30.5200 S   0  0  0  0  0  0  0  0  0  0  0  0
   -5.0080   24.3180  -31.5940 O   0  0  0  0  0  0  0  0  0  0  0  0
   -6.7300   24.8530  -29.9480 O   0  0  0  0  0  0  0  0  0  0  0  0
   -4.9170   23.0330  -29.2570 N   0  0  0  0  0  0  0  0  0  0  0  0
   -3.9590   22.0670  -29.8420 C   0  0  0  0  0  0  0  0  0  0  0  0
   -2.8070   21.7650  -28.8800 C   0  0  0  0  0  0  0  0  0  0  0  0
   -1.9900   23.0340  -28.5800 C   0  0  0  0  0  0  0  0  0  0  0  0
   -2.8140   24.3230  -28.7460 C   0  0  0  0  0  0  0  0  0  0  0  0
   -4.2930   24.0840  -28.4130 C   0  0  0  0  0  0  0  0  0  0  0  0
   -6.4230   21.4130  -31.8800 C   0  0  0  0  0  0  0  0  0  0  0  0
   -7.2860   18.0770  -33.1560 O   0  0  0  0  0  0  0  0  0  0  0  0
   -6.5040   17.2890  -33.8540 C   0  0  0  0  0  0  0  0  0  0  0  0
   -6.7920   15.8560  -34.1560 C   0  0  0  0  0  0  0  0  0  0  0  0
   -0.5732   21.3896  -30.2331 H   0  0  0  0  0  0  0  0  0  0  0  0
    0.5968   21.6335  -31.5742 H   0  0  0  0  0  0  0  0  0  0  0  0
   -0.9666   22.5181  -31.5742 H   0  0  0  0  0  0  0  0  0  0  0  0
   -2.3455   21.7855  -33.2425 H   0  0  0  0  0  0  0  0  0  0  0  0
   -3.4645   19.9756  -34.5159 H   0  0  0  0  0  0  0  0  0  0  0  0
   -0.1231   18.8873  -29.8116 H   0  0  0  0  0  0  0  0  0  0  0  0
    0.6054   17.6939  -30.9393 H   0  0  0  0  0  0  0  0  0  0  0  0
    1.1793   19.3960  -30.9393 H   0  0  0  0  0  0  0  0  0  0  0  0
   -0.5743   15.6086  -34.0047 H   0  0  0  0  0  0  0  0  0  0  0  0
   -1.4306   14.7341  -32.6785 H   0  0  0  0  0  0  0  0  0  0  0  0
   -3.9911   18.2795  -35.8248 H   0  0  0  0  0  0  0  0  0  0  0  0
   -4.5311   16.5782  -35.5421 H   0  0  0  0  0  0  0  0  0  0  0  0
   -9.3311   19.8184  -32.7274 H   0  0  0  0  0  0  0  0  0  0  0  0
  -10.2856   21.7929  -31.5420 H   0  0  0  0  0  0  0  0  0  0  0  0
   -8.7747   23.5221  -30.5661 H   0  0  0  0  0  0  0  0  0  0  0  0
   -4.4896   21.1306  -30.0690 H   0  0  0  0  0  0  0  0  0  0  0  0
   -3.5374   22.5104  -30.7562 H   0  0  0  0  0  0  0  0  0  0  0  0
   -3.2185   21.3715  -27.9388 H   0  0  0  0  0  0  0  0  0  0  0  0
   -2.1432   21.0247  -29.3506 H   0  0  0  0  0  0  0  0  0  0  0  0
   -1.6247   22.9807  -27.5438 H   0  0  0  0  0  0  0  0  0  0  0  0
   -1.1609   23.0741  -29.3017 H   0  0  0  0  0  0  0  0  0  0  0  0
   -2.4143   25.0937  -28.0705 H   0  0  0  0  0  0  0  0  0  0  0  0
   -2.7416   24.6497  -29.7939 H   0  0  0  0  0  0  0  0  0  0  0  0
   -4.3698   23.7783  -27.3591 H   0  0  0  0  0  0  0  0  0  0  0  0
   -4.8297   25.0240  -28.6088 H   0  0  0  0  0  0  0  0  0  0  0  0
   -5.3321   21.3062  -31.9726 H   0  0  0  0  0  0  0  0  0  0  0  0
   -6.9041   15.2982  -33.2145 H   0  0  0  0  0  0  0  0  0  0  0  0
   -7.7226   15.7838  -34.7380 H   0  0  0  0  0  0  0  0  0  0  0  0
   -5.9615   15.4299  -34.7380 H   0  0  0  0  0  0  0  0  0  0  0  0
  1  2  1  0
  2  3  2  0
  3  4  1  0
  4  5  2  0
  5  6  1  0
  6  7  2  0
  7  8  1  0
  6  9  1  0
  9 10  1  0
 10 11  1  0
 11 12  2  0
 11 13  1  0
 13 14  1  0
 14 15  1  0
 15 16  1  0
 16 17  2  0
 17 18  1  0
 18 19  2  0
 19 20  1  0
 20 21  2  0
 21 22  1  0
 22 23  1  0
 23 24  2  0
 23 25  2  0
 23 26  1  0
 26 27  1  0
 27 28  1  0
 28 29  1  0
 29 30  1  0
 30 31  1  0
 22 32  2  0
 17 33  1  0
 33 34  1  0
 34 35  1  0
  7  2  1  0
 34 15  2  0
 13  5  1  0
 32 18  1  0
 31 26  1  0
  1 36  1  0
  1 37  1  0
  1 38  1  0
  3 39  1  0
  4 40  1  0
  8 41  1  0
  8 42  1  0
  8 43  1  0
 10 44  1  0
 10 45  1  0
 14 46  1  0
 14 47  1  0
 19 48  1  0
 20 49  1  0
 21 50  1  0
 27 51  1  0
 27 52  1  0
 28 53  1  0
 28 54  1  0
 29 55  1  0
 29 56  1  0
 30 57  1  0
 30 58  1  0
 31 59  1  0
 31 60  1  0
 32 61  1  0
 35 62  1  0
 35 63  1  0
 35 64  1  0
M  END
>  <UniqueID>  (50) 
48

>  <SMILES>  (50) 
Cc1ccc2c(c1C)OCC(=O)N2Cc1nc(-c2cccc(S(=O)(=O)N3CCCCC3)c2)oc1C

>  <Energy>  (50) 
106.43243785924096

>  <Genealogy>  (50) 
Cc1ccc2c(c1C)OCC(=O)N2Cc1nc(-c2cccc(S(=O)(=O)N3CCCCC3)c2)oc1C (3D coordinates assigned)
Cc1ccc2c(c1C)OCC(=O)N2Cc1nc(-c2cccc(S(=O)(=O)N3CCCCC3)c2)oc1C (nonaromatic ring conformer: 106.43243785924096 kcal/mol)

>  <smiles>  (50) 
Cc1ccc2c(c1C)OCC(=O)N2Cc1nc(-c2cccc(S(=O)(=O)N3CCCCC3)c2)oc1C

>  <score_type>  (50) 
oracle

>  <origin>  (50) 
adgpu

>  <m_score__min__energy>  (50) 
-10.9

>  <m_primary>  (50) 
energy

$$$$
