0:0
     RDKit          3D

 44 45  0  0  0  0  0  0  0  0999 V2000
   -1.2870   24.8020  -28.4590 C   0  0  0  0  0  0  0  0  0  0  0  0
   -2.2850   25.2860  -29.3530 O   0  0  0  0  0  0  0  0  0  0  0  0
   -3.4680   24.5980  -29.6680 C   0  0  0  0  0  0  0  0  0  0  0  0
   -3.5130   23.2180  -29.4430 C   0  0  0  0  0  0  0  0  0  0  0  0
   -4.6700   22.4890  -29.7330 C   0  0  0  0  0  0  0  0  0  0  0  0
   -5.8000   23.1350  -30.2530 C   0  0  0  0  0  0  0  0  0  0  0  0
   -6.9830   22.3800  -30.5560 N   0  0  0  0  0  0  0  0  0  0  0  0
   -8.0660   22.3040  -29.5810 C   0  0  0  0  0  0  0  0  0  0  0  0
   -7.3330   22.0190  -32.2180 S   0  0  0  0  0  0  0  0  0  0  0  0
   -7.2350   23.2720  -33.0420 O   0  0  0  0  0  0  0  0  0  0  0  0
   -8.7410   21.5050  -32.3430 O   0  0  0  0  0  0  0  0  0  0  0  0
   -6.2110   20.7620  -32.7710 C   0  0  0  0  0  0  0  0  0  0  0  0
   -4.8980   21.1580  -33.0680 C   0  0  0  0  0  0  0  0  0  0  0  0
   -3.9480   20.2370  -33.5260 C   0  0  0  0  0  0  0  0  0  0  0  0
   -2.6210   20.6920  -33.8470 N   0  0  0  0  0  0  0  0  0  0  0  0
   -1.6100   20.9770  -32.8700 C   0  0  0  0  0  0  0  0  0  0  0  0
   -0.1930   21.1820  -33.3000 C   0  0  0  0  0  0  0  0  0  0  0  0
   -1.9190   21.1460  -31.6580 O   0  0  0  0  0  0  0  0  0  0  0  0
   -4.3320   18.9030  -33.7270 C   0  0  0  0  0  0  0  0  0  0  0  0
   -5.6370   18.4950  -33.4500 C   0  0  0  0  0  0  0  0  0  0  0  0
   -6.5940   19.4120  -32.9820 C   0  0  0  0  0  0  0  0  0  0  0  0
   -7.9900   18.9170  -32.7120 C   0  0  0  0  0  0  0  0  0  0  0  0
   -5.7600   24.5180  -30.4830 C   0  0  0  0  0  0  0  0  0  0  0  0
   -4.6010   25.2470  -30.1960 C   0  0  0  0  0  0  0  0  0  0  0  0
   -1.6157   24.9614  -27.4214 H   0  0  0  0  0  0  0  0  0  0  0  0
   -1.1293   23.7273  -28.6326 H   0  0  0  0  0  0  0  0  0  0  0  0
   -0.3454   25.3436  -28.6326 H   0  0  0  0  0  0  0  0  0  0  0  0
   -2.6312   22.7026  -29.0347 H   0  0  0  0  0  0  0  0  0  0  0  0
   -4.6937   21.4042  -29.5524 H   0  0  0  0  0  0  0  0  0  0  0  0
   -7.6469   22.3334  -28.5644 H   0  0  0  0  0  0  0  0  0  0  0  0
   -8.7466   23.1566  -29.7218 H   0  0  0  0  0  0  0  0  0  0  0  0
   -8.6209   21.3647  -29.7218 H   0  0  0  0  0  0  0  0  0  0  0  0
   -4.6097   22.2116  -32.9386 H   0  0  0  0  0  0  0  0  0  0  0  0
   -2.3930   20.8780  -34.8500 H   0  0  0  0  0  0  0  0  0  0  0  0
    0.4498   21.2750  -32.4122 H   0  0  0  0  0  0  0  0  0  0  0  0
    0.1355   20.3220  -33.9021 H   0  0  0  0  0  0  0  0  0  0  0  0
   -0.1217   22.0998  -33.9021 H   0  0  0  0  0  0  0  0  0  0  0  0
   -3.5999   18.1743  -34.1052 H   0  0  0  0  0  0  0  0  0  0  0  0
   -5.9205   17.4428  -33.5997 H   0  0  0  0  0  0  0  0  0  0  0  0
   -8.1547   18.8586  -31.6260 H   0  0  0  0  0  0  0  0  0  0  0  0
   -8.7178   19.6119  -33.1564 H   0  0  0  0  0  0  0  0  0  0  0  0
   -8.1175   17.9189  -33.1564 H   0  0  0  0  0  0  0  0  0  0  0  0
   -6.6433   25.0314  -30.8906 H   0  0  0  0  0  0  0  0  0  0  0  0
   -4.5745   26.3306  -30.3833 H   0  0  0  0  0  0  0  0  0  0  0  0
  1  2  1  0
  2  3  1  0
  3  4  2  0
  4  5  1  0
  5  6  2  0
  6  7  1  0
  7  8  1  0
  7  9  1  0
  9 10  2  0
  9 11  2  0
  9 12  1  0
 12 13  2  0
 13 14  1  0
 14 15  1  0
 15 16  1  0
 16 17  1  0
 16 18  2  0
 14 19  2  0
 19 20  1  0
 20 21  2  0
 21 22  1  0
  6 23  1  0
 23 24  2  0
 24  3  1  0
 21 12  1  0
  1 25  1  0
  1 26  1  0
  1 27  1  0
  4 28  1  0
  5 29  1  0
  8 30  1  0
  8 31  1  0
  8 32  1  0
 13 33  1  0
 15 34  1  0
 17 35  1  0
 17 36  1  0
 17 37  1  0
 19 38  1  0
 20 39  1  0
 22 40  1  0
 22 41  1  0
 22 42  1  0
 23 43  1  0
 24 44  1  0
M  END
>  <UniqueID>  (1) 
1

>  <SMILES>  (1) 
COc1ccc(N(C)S(=O)(=O)c2cc(NC(C)=O)ccc2C)cc1

>  <Energy>  (1) 
52.44665898634325

>  <Genealogy>  (1) 
COc1ccc(N(C)S(=O)(=O)c2cc(NC(C)=O)ccc2C)cc1 (3D coordinates assigned)
COc1ccc(N(C)S(=O)(=O)c2cc(NC(C)=O)ccc2C)cc1 (optimized conformer: 52.44665898634325 kcal/mol)

>  <smiles>  (1) 
COc1ccc(N(C)S(=O)(=O)c2cc(NC(C)=O)ccc2C)cc1

>  <score_type>  (1) 
oracle

>  <origin>  (1) 
adgpu

>  <m_score__min__energy>  (1) 
-8.3000000000000007

>  <m_primary>  (1) 
energy

$$$$
1:0
     RDKit          3D

 52 56  0  0  0  0  0  0  0  0999 V2000
   -6.1290   25.4430  -29.1640 C   0  0  0  0  0  0  0  0  0  0  0  0
   -4.9770   24.5660  -28.9440 N   0  0  0  0  0  0  0  0  0  0  0  0
   -4.2930   24.5410  -27.6490 C   0  0  0  0  0  0  0  0  0  0  0  0
   -4.5040   23.7190  -30.0070 C   0  0  0  0  0  0  0  0  0  0  0  0
   -4.7610   23.9490  -31.3130 N   0  0  0  0  0  0  0  0  0  0  0  0
   -4.2240   23.0380  -32.1250 N   0  0  0  0  0  0  0  0  0  0  0  0
   -3.5330   22.0700  -31.4770 C   0  0  0  0  0  0  0  0  0  0  0  0
   -2.8490   20.9530  -32.1670 C   0  0  0  0  0  0  0  0  0  0  0  0
   -2.2210   19.9270  -31.4370 C   0  0  0  0  0  0  0  0  0  0  0  0
   -1.5800   18.8750  -32.0980 C   0  0  0  0  0  0  0  0  0  0  0  0
   -1.5630   18.8250  -33.5030 C   0  0  0  0  0  0  0  0  0  0  0  0
   -0.9220   17.7980  -34.2100 O   0  0  0  0  0  0  0  0  0  0  0  0
   -1.5390   16.6300  -34.6760 C   0  0  0  0  0  0  0  0  0  0  0  0
   -0.8890   15.5870  -35.2240 N   0  0  0  0  0  0  0  0  0  0  0  0
   -1.7850   14.6660  -35.5470 N   0  0  0  0  0  0  0  0  0  0  0  0
   -3.0090   15.1130  -35.2020 C   0  0  0  0  0  0  0  0  0  0  0  0
   -2.8950   16.3670  -34.6280 C   0  0  0  0  0  0  0  0  0  0  0  0
   -3.9920   17.2160  -34.1060 C   0  0  0  0  0  0  0  0  0  0  0  0
   -4.6570   18.1330  -34.9390 C   0  0  0  0  0  0  0  0  0  0  0  0
   -5.6880   18.9310  -34.4370 C   0  0  0  0  0  0  0  0  0  0  0  0
   -6.0730   18.8330  -33.0900 C   0  0  0  0  0  0  0  0  0  0  0  0
   -7.1740   19.6720  -32.5560 C   0  0  0  0  0  0  0  0  0  0  0  0
   -7.0050   21.0650  -32.4470 C   0  0  0  0  0  0  0  0  0  0  0  0
   -8.0330   21.8660  -31.9410 C   0  0  0  0  0  0  0  0  0  0  0  0
   -9.2400   21.2870  -31.5410 C   0  0  0  0  0  0  0  0  0  0  0  0
  -10.2370   22.0660  -31.0520 F   0  0  0  0  0  0  0  0  0  0  0  0
   -9.4220   19.9060  -31.6510 C   0  0  0  0  0  0  0  0  0  0  0  0
   -8.3970   19.0980  -32.1550 C   0  0  0  0  0  0  0  0  0  0  0  0
   -8.6170   17.7650  -32.2860 F   0  0  0  0  0  0  0  0  0  0  0  0
   -5.4100   17.9180  -32.2560 C   0  0  0  0  0  0  0  0  0  0  0  0
   -4.3760   17.1220  -32.7590 C   0  0  0  0  0  0  0  0  0  0  0  0
   -2.1680   19.8550  -34.2300 C   0  0  0  0  0  0  0  0  0  0  0  0
   -2.8110   20.9070  -33.5710 C   0  0  0  0  0  0  0  0  0  0  0  0
   -3.5690   22.3280  -29.8070 S   0  0  0  0  0  0  0  0  0  0  0  0
   -6.5414   25.7570  -28.1938 H   0  0  0  0  0  0  0  0  0  0  0  0
   -5.8114   26.3300  -29.7317 H   0  0  0  0  0  0  0  0  0  0  0  0
   -6.8995   24.9008  -29.7317 H   0  0  0  0  0  0  0  0  0  0  0  0
   -5.0381   24.5682  -26.8402 H   0  0  0  0  0  0  0  0  0  0  0  0
   -3.6964   23.6205  -27.5671 H   0  0  0  0  0  0  0  0  0  0  0  0
   -3.6308   25.4155  -27.5671 H   0  0  0  0  0  0  0  0  0  0  0  0
   -2.2345   19.9529  -30.3374 H   0  0  0  0  0  0  0  0  0  0  0  0
   -1.0866   18.0826  -31.5161 H   0  0  0  0  0  0  0  0  0  0  0  0
   -3.9515   14.5663  -35.3532 H   0  0  0  0  0  0  0  0  0  0  0  0
   -4.3629   18.2229  -35.9951 H   0  0  0  0  0  0  0  0  0  0  0  0
   -6.2019   19.6411  -35.1015 H   0  0  0  0  0  0  0  0  0  0  0  0
   -6.0576   21.5266  -32.7621 H   0  0  0  0  0  0  0  0  0  0  0  0
   -7.8914   22.9537  -31.8577 H   0  0  0  0  0  0  0  0  0  0  0  0
  -10.3747   19.4524  -31.3402 H   0  0  0  0  0  0  0  0  0  0  0  0
   -5.7059   17.8269  -31.2005 H   0  0  0  0  0  0  0  0  0  0  0  0
   -3.8588   16.4157  -32.0930 H   0  0  0  0  0  0  0  0  0  0  0  0
   -2.1377   19.8373  -35.3294 H   0  0  0  0  0  0  0  0  0  0  0  0
   -3.2911   21.7052  -34.1562 H   0  0  0  0  0  0  0  0  0  0  0  0
  1  2  1  0
  2  3  1  0
  2  4  1  0
  4  5  2  0
  5  6  1  0
  6  7  2  0
  7  8  1  0
  8  9  2  0
  9 10  1  0
 10 11  2  0
 11 12  1  0
 12 13  1  0
 13 14  2  0
 14 15  1  0
 15 16  1  0
 16 17  2  0
 17 18  1  0
 18 19  2  0
 19 20  1  0
 20 21  2  0
 21 22  1  0
 22 23  2  0
 23 24  1  0
 24 25  2  0
 25 26  1  0
 25 27  1  0
 27 28  2  0
 28 29  1  0
 21 30  1  0
 30 31  2  0
 11 32  1  0
 32 33  2  0
  7 34  1  0
 34  4  1  0
 33  8  1  0
 17 13  1  0
 31 18  1  0
 28 22  1  0
  1 35  1  0
  1 36  1  0
  1 37  1  0
  3 38  1  0
  3 39  1  0
  3 40  1  0
  9 41  1  0
 10 42  1  0
 16 43  1  0
 19 44  1  0
 20 45  1  0
 23 46  1  0
 24 47  1  0
 27 48  1  0
 30 49  1  0
 31 50  1  0
 32 51  1  0
 33 52  1  0
M  CHG  1  15  -1
M  END
>  <UniqueID>  (2) 
2

>  <SMILES>  (2) 
CN(C)c1nnc(-c2ccc(Oc3n[n-]cc3-c3ccc(-c4ccc(F)cc4F)cc3)cc2)s1

>  <Energy>  (2) 
135.18286435974886

>  <Genealogy>  (2) 
CN(C)c1nnc(-c2ccc(Oc3n[n-]cc3-c3ccc(-c4ccc(F)cc4F)cc3)cc2)s1 (protonated)
CN(C)c1nnc(-c2ccc(Oc3n[n-]cc3-c3ccc(-c4ccc(F)cc4F)cc3)cc2)s1 (3D coordinates assigned)
CN(C)c1nnc(-c2ccc(Oc3n[n-]cc3-c3ccc(-c4ccc(F)cc4F)cc3)cc2)s1 (optimized conformer: 135.18286435974886 kcal/mol)

>  <smiles>  (2) 
CN(C)c1nnc(-c2ccc(Oc3n[nH]cc3-c3ccc(-c4ccc(F)cc4F)cc3)cc2)s1

>  <score_type>  (2) 
oracle

>  <origin>  (2) 
adgpu

>  <m_score__min__energy>  (2) 
-9.5999999999999996

>  <m_primary>  (2) 
energy

$$$$
2:0
     RDKit          3D

 59 62  0  0  0  0  0  0  0  0999 V2000
   -0.8780   18.5140  -34.6700 C   0  0  0  0  0  0  0  0  0  0  0  0
    0.1250   19.5940  -34.9790 C   0  0  0  0  0  0  0  0  0  0  0  0
    1.1100   19.3600  -35.9540 C   0  0  0  0  0  0  0  0  0  0  0  0
    2.0560   20.3430  -36.2640 C   0  0  0  0  0  0  0  0  0  0  0  0
    3.2900   20.0270  -37.4800 S   0  0  0  0  0  0  0  0  0  0  0  0
    4.0470   21.5120  -37.9330 N   0  0  0  0  0  0  0  0  0  0  0  0
    4.3210   19.0860  -36.9230 O   0  0  0  0  0  0  0  0  0  0  0  0
    2.6650   19.3960  -38.6920 O   0  0  0  0  0  0  0  0  0  0  0  0
    2.0230   21.5700  -35.5940 C   0  0  0  0  0  0  0  0  0  0  0  0
    1.0430   21.8200  -34.6320 C   0  0  0  0  0  0  0  0  0  0  0  0
    0.0890   20.8390  -34.3080 C   0  0  0  0  0  0  0  0  0  0  0  0
   -0.9420   21.1230  -33.3430 N   0  0  0  0  0  0  0  0  0  0  0  0
   -0.8970   20.6680  -31.9800 C   0  0  0  0  0  0  0  0  0  0  0  0
   -0.1250   19.7230  -31.6630 O   0  0  0  0  0  0  0  0  0  0  0  0
   -1.7730   21.2840  -30.9510 C   0  0  0  0  0  0  0  0  0  0  0  0
   -1.2940   21.4570  -29.6410 C   0  0  0  0  0  0  0  0  0  0  0  0
   -2.1000   22.0210  -28.6520 C   0  0  0  0  0  0  0  0  0  0  0  0
   -3.4100   22.4300  -28.9470 C   0  0  0  0  0  0  0  0  0  0  0  0
   -4.2630   23.0240  -27.9500 N   0  0  0  0  0  0  0  0  0  0  0  0
   -4.2080   24.4430  -27.5880 C   0  0  0  0  0  0  0  0  0  0  0  0
   -2.7820   24.8770  -27.3570 C   0  0  0  0  0  0  0  0  0  0  0  0
   -2.2650   24.9220  -26.0510 C   0  0  0  0  0  0  0  0  0  0  0  0
   -0.9550   25.3530  -25.8230 C   0  0  0  0  0  0  0  0  0  0  0  0
   -0.1520   25.7500  -26.8940 C   0  0  0  0  0  0  0  0  0  0  0  0
   -0.6610   25.7250  -28.1960 C   0  0  0  0  0  0  0  0  0  0  0  0
   -1.9730   25.2980  -28.4310 C   0  0  0  0  0  0  0  0  0  0  0  0
   -2.4660   25.2980  -29.7330 O   0  0  0  0  0  0  0  0  0  0  0  0
   -3.8970   22.2520  -30.2500 C   0  0  0  0  0  0  0  0  0  0  0  0
   -3.0980   21.6710  -31.2520 C   0  0  0  0  0  0  0  0  0  0  0  0
   -3.5850   21.5320  -32.5620 O   0  0  0  0  0  0  0  0  0  0  0  0
   -4.3840   20.4760  -33.0220 C   0  0  0  0  0  0  0  0  0  0  0  0
   -5.7760   20.5920  -32.9270 C   0  0  0  0  0  0  0  0  0  0  0  0
   -6.6050   19.5620  -33.3800 C   0  0  0  0  0  0  0  0  0  0  0  0
   -6.0470   18.4130  -33.9480 C   0  0  0  0  0  0  0  0  0  0  0  0
   -6.8520   17.4150  -34.3880 F   0  0  0  0  0  0  0  0  0  0  0  0
   -4.6600   18.2980  -34.0720 C   0  0  0  0  0  0  0  0  0  0  0  0
   -3.8290   19.3250  -33.6140 C   0  0  0  0  0  0  0  0  0  0  0  0
   -0.9774   18.4070  -33.5797 H   0  0  0  0  0  0  0  0  0  0  0  0
   -1.8527   18.7843  -35.1023 H   0  0  0  0  0  0  0  0  0  0  0  0
   -0.5365   17.5619  -35.1023 H   0  0  0  0  0  0  0  0  0  0  0  0
    1.1374   18.3937  -36.4789 H   0  0  0  0  0  0  0  0  0  0  0  0
    4.3900   21.3930  -38.9130 H   0  0  0  0  0  0  0  0  0  0  0  0
    2.7723   22.3412  -35.8260 H   0  0  0  0  0  0  0  0  0  0  0  0
    1.0167   22.7943  -34.1221 H   0  0  0  0  0  0  0  0  0  0  0  0
   -1.7990   21.6250  -33.6630 H   0  0  0  0  0  0  0  0  0  0  0  0
   -0.2694   21.1433  -29.3922 H   0  0  0  0  0  0  0  0  0  0  0  0
   -1.7058   22.1463  -27.6327 H   0  0  0  0  0  0  0  0  0  0  0  0
   -4.9550   22.4090  -27.4650 H   0  0  0  0  0  0  0  0  0  0  0  0
   -4.6403   25.0412  -28.4036 H   0  0  0  0  0  0  0  0  0  0  0  0
   -4.7796   24.5948  -26.6605 H   0  0  0  0  0  0  0  0  0  0  0  0
   -2.8952   24.6161  -25.2029 H   0  0  0  0  0  0  0  0  0  0  0  0
   -0.5561   25.3794  -24.7982 H   0  0  0  0  0  0  0  0  0  0  0  0
    0.8809   26.0824  -26.7135 H   0  0  0  0  0  0  0  0  0  0  0  0
   -0.0284   26.0419  -29.0382 H   0  0  0  0  0  0  0  0  0  0  0  0
   -4.9210   22.5720  -30.4929 H   0  0  0  0  0  0  0  0  0  0  0  0
   -6.2202   21.4999  -32.4929 H   0  0  0  0  0  0  0  0  0  0  0  0
   -7.6973   19.6555  -33.2895 H   0  0  0  0  0  0  0  0  0  0  0  0
   -4.2217   17.3991  -34.5301 H   0  0  0  0  0  0  0  0  0  0  0  0
   -2.7376   19.2336  -33.7165 H   0  0  0  0  0  0  0  0  0  0  0  0
  1  2  1  0
  2  3  2  0
  3  4  1  0
  4  5  1  0
  5  6  1  0
  5  7  2  0
  5  8  2  0
  4  9  2  0
  9 10  1  0
 10 11  2  0
 11 12  1  0
 12 13  1  0
 13 14  2  0
 13 15  1  0
 15 16  2  0
 16 17  1  0
 17 18  2  0
 18 19  1  0
 19 20  1  0
 20 21  1  0
 21 22  2  0
 22 23  1  0
 23 24  2  0
 24 25  1  0
 25 26  2  0
 26 27  1  0
 18 28  1  0
 28 29  2  0
 29 30  1  0
 30 31  1  0
 31 32  2  0
 32 33  1  0
 33 34  2  0
 34 35  1  0
 34 36  1  0
 36 37  2  0
 11  2  1  0
 29 15  1  0
 37 31  1  0
 26 21  1  0
  1 38  1  0
  1 39  1  0
  1 40  1  0
  3 41  1  0
  6 42  1  0
  9 43  1  0
 10 44  1  0
 12 45  1  0
 16 46  1  0
 17 47  1  0
 19 48  1  0
 20 49  1  0
 20 50  1  0
 22 51  1  0
 23 52  1  0
 24 53  1  0
 25 54  1  0
 28 55  1  0
 32 56  1  0
 33 57  1  0
 36 58  1  0
 37 59  1  0
M  CHG  2   6  -1  27  -1
M  END
>  <UniqueID>  (3) 
3

>  <SMILES>  (3) 
Cc1cc(S([NH-])(=O)=O)ccc1NC(=O)c1ccc(NCc2ccccc2[O-])cc1Oc1ccc(F)cc1

>  <Energy>  (3) 
77.64130241315945

>  <Genealogy>  (3) 
Cc1cc(S([NH-])(=O)=O)ccc1NC(=O)c1ccc(NCc2ccccc2[O-])cc1Oc1ccc(F)cc1 (protonated)
Cc1cc(S([NH-])(=O)=O)ccc1NC(=O)c1ccc(NCc2ccccc2[O-])cc1Oc1ccc(F)cc1 (3D coordinates assigned)
Cc1cc(S([NH-])(=O)=O)ccc1NC(=O)c1ccc(NCc2ccccc2[O-])cc1Oc1ccc(F)cc1 (optimized conformer: 77.64130241315945 kcal/mol)

>  <smiles>  (3) 
Cc1cc(S(N)(=O)=O)ccc1NC(=O)c1ccc(NCc2ccccc2O)cc1Oc1ccc(F)cc1

>  <score_type>  (3) 
oracle

>  <origin>  (3) 
adgpu

>  <m_score__min__energy>  (3) 
-12.279999999999999

>  <m_primary>  (3) 
energy

$$$$
3:0
     RDKit          3D

 26 27  0  0  0  0  0  0  0  0999 V2000
   -8.7420   19.5580  -31.4750 C   0  0  0  0  0  0  0  0  0  0  0  0
   -8.8570   20.8080  -32.3420 C   0  0  0  0  0  0  0  0  0  0  0  0
   -7.7360   21.7330  -32.0770 N   0  0  0  0  0  0  0  0  0  0  0  0
   -8.0360   22.9290  -31.4840 C   0  0  0  0  0  0  0  0  0  0  0  0
   -7.0640   23.8310  -31.2040 N   0  0  0  0  0  0  0  0  0  0  0  0
   -5.7680   23.5930  -31.5030 C   0  0  0  0  0  0  0  0  0  0  0  0
   -4.9020   24.4630  -31.2170 O   0  0  0  0  0  0  0  0  0  0  0  0
   -5.4080   22.3910  -32.1290 C   0  0  0  0  0  0  0  0  0  0  0  0
   -4.0700   22.1160  -32.4670 C   0  0  0  0  0  0  0  0  0  0  0  0
   -3.7270   20.9120  -33.0950 C   0  0  0  0  0  0  0  0  0  0  0  0
   -2.3050   20.6440  -33.4880 C   0  0  0  0  0  0  0  0  0  0  0  0
   -4.7320   19.9970  -33.4190 C   0  0  0  0  0  0  0  0  0  0  0  0
   -6.0640   20.2550  -33.0880 C   0  0  0  0  0  0  0  0  0  0  0  0
   -6.4300   21.4510  -32.4270 C   0  0  0  0  0  0  0  0  0  0  0  0
   -8.7684   19.8445  -30.4133 H   0  0  0  0  0  0  0  0  0  0  0  0
   -9.5817   18.8818  -31.6933 H   0  0  0  0  0  0  0  0  0  0  0  0
   -7.7930   19.0464  -31.6933 H   0  0  0  0  0  0  0  0  0  0  0  0
   -8.8402   20.5148  -33.4021 H   0  0  0  0  0  0  0  0  0  0  0  0
   -9.8011   21.3190  -32.1019 H   0  0  0  0  0  0  0  0  0  0  0  0
   -9.0809   23.1617  -31.2309 H   0  0  0  0  0  0  0  0  0  0  0  0
   -3.2867   22.8530  -32.2360 H   0  0  0  0  0  0  0  0  0  0  0  0
   -1.6902   20.5281  -32.5833 H   0  0  0  0  0  0  0  0  0  0  0  0
   -2.2572   19.7210  -34.0845 H   0  0  0  0  0  0  0  0  0  0  0  0
   -1.9245   21.4862  -34.0845 H   0  0  0  0  0  0  0  0  0  0  0  0
   -4.4714   19.0640  -33.9401 H   0  0  0  0  0  0  0  0  0  0  0  0
   -6.8393   19.5181  -33.3448 H   0  0  0  0  0  0  0  0  0  0  0  0
  1  2  1  0
  2  3  1  0
  3  4  1  0
  4  5  2  0
  5  6  1  0
  6  7  2  0
  6  8  1  0
  8  9  2  0
  9 10  1  0
 10 11  1  0
 10 12  2  0
 12 13  1  0
 13 14  2  0
 14  3  1  0
 14  8  1  0
  1 15  1  0
  1 16  1  0
  1 17  1  0
  2 18  1  0
  2 19  1  0
  4 20  1  0
  9 21  1  0
 11 22  1  0
 11 23  1  0
 11 24  1  0
 12 25  1  0
 13 26  1  0
M  END
>  <UniqueID>  (4) 
4

>  <SMILES>  (4) 
CCn1cnc(=O)c2cc(C)ccc21

>  <Energy>  (4) 
32.47252394343351

>  <Genealogy>  (4) 
CCn1cnc(=O)c2cc(C)ccc21 (3D coordinates assigned)
CCn1cnc(=O)c2cc(C)ccc21 (optimized conformer: 32.47252394343351 kcal/mol)

>  <smiles>  (4) 
CCn1cnc(=O)c2cc(C)ccc21

>  <score_type>  (4) 
oracle

>  <origin>  (4) 
adgpu

>  <m_score__min__energy>  (4) 
-6.0199999999999996

>  <m_primary>  (4) 
energy

$$$$
4:0
     RDKit          3D

 58 60  0  0  0  0  0  0  0  0999 V2000
    0.1370   19.3250  -31.8900 C   0  0  0  0  0  0  0  0  0  0  0  0
   -0.8680   19.4510  -32.8910 O   0  0  0  0  0  0  0  0  0  0  0  0
   -1.9950   20.2780  -32.7820 C   0  0  0  0  0  0  0  0  0  0  0  0
   -3.2000   20.0060  -33.4590 C   0  0  0  0  0  0  0  0  0  0  0  0
   -4.2970   20.8600  -33.3160 C   0  0  0  0  0  0  0  0  0  0  0  0
   -4.2140   21.9900  -32.4860 C   0  0  0  0  0  0  0  0  0  0  0  0
   -5.3960   22.9140  -32.3430 C   0  0  0  0  0  0  0  0  0  0  0  0
   -5.8300   23.0080  -30.9350 N   0  0  0  0  0  0  0  0  0  0  0  0
   -7.3030   23.0720  -30.8530 C   0  0  0  0  0  0  0  0  0  0  0  0
   -7.9310   21.7980  -31.3580 C   0  0  0  0  0  0  0  0  0  0  0  0
   -7.1930   20.6020  -31.3660 C   0  0  0  0  0  0  0  0  0  0  0  0
   -7.7680   19.4220  -31.8430 C   0  0  0  0  0  0  0  0  0  0  0  0
   -9.0790   19.4280  -32.3280 C   0  0  0  0  0  0  0  0  0  0  0  0
   -9.8140   20.6170  -32.3410 C   0  0  0  0  0  0  0  0  0  0  0  0
   -9.2420   21.8000  -31.8640 C   0  0  0  0  0  0  0  0  0  0  0  0
   -5.1010   24.4020  -30.1490 S   0  0  0  0  0  0  0  0  0  0  0  0
   -4.5820   25.3570  -31.1870 O   0  0  0  0  0  0  0  0  0  0  0  0
   -6.1400   25.1320  -29.3440 O   0  0  0  0  0  0  0  0  0  0  0  0
   -3.7720   23.9410  -29.0810 C   0  0  0  0  0  0  0  0  0  0  0  0
   -3.8460   22.7610  -28.3300 C   0  0  0  0  0  0  0  0  0  0  0  0
   -2.7980   22.4020  -27.4770 C   0  0  0  0  0  0  0  0  0  0  0  0
   -1.6610   23.2130  -27.3780 C   0  0  0  0  0  0  0  0  0  0  0  0
   -0.3590   22.7650  -26.2780 S   0  0  0  0  0  0  0  0  0  0  0  0
    0.7430   22.0810  -27.0410 O   0  0  0  0  0  0  0  0  0  0  0  0
   -0.9020   21.8030  -25.2580 O   0  0  0  0  0  0  0  0  0  0  0  0
    0.2560   24.1890  -25.4780 N   0  0  0  0  0  0  0  0  0  0  0  0
    1.2870   23.8020  -24.5070 C   0  0  0  0  0  0  0  0  0  0  0  0
   -0.8470   24.8760  -24.7930 C   0  0  0  0  0  0  0  0  0  0  0  0
   -1.5800   24.3900  -28.1360 C   0  0  0  0  0  0  0  0  0  0  0  0
   -2.6280   24.7480  -28.9870 C   0  0  0  0  0  0  0  0  0  0  0  0
   -3.0060   22.2700  -31.8270 C   0  0  0  0  0  0  0  0  0  0  0  0
   -1.9100   21.4150  -31.9710 C   0  0  0  0  0  0  0  0  0  0  0  0
   -0.3276   19.3832  -30.8946 H   0  0  0  0  0  0  0  0  0  0  0  0
    0.6457   18.3560  -32.0011 H   0  0  0  0  0  0  0  0  0  0  0  0
    0.8692   20.1384  -32.0011 H   0  0  0  0  0  0  0  0  0  0  0  0
   -3.2779   19.1176  -34.1030 H   0  0  0  0  0  0  0  0  0  0  0  0
   -5.2308   20.6460  -33.8566 H   0  0  0  0  0  0  0  0  0  0  0  0
   -5.1142   23.9157  -32.6997 H   0  0  0  0  0  0  0  0  0  0  0  0
   -6.2283   22.5113  -32.9390 H   0  0  0  0  0  0  0  0  0  0  0  0
   -7.5980   23.2268  -29.8047 H   0  0  0  0  0  0  0  0  0  0  0  0
   -7.6517   23.9057  -31.4802 H   0  0  0  0  0  0  0  0  0  0  0  0
   -6.1575   20.5952  -30.9948 H   0  0  0  0  0  0  0  0  0  0  0  0
   -7.1886   18.4870  -31.8370 H   0  0  0  0  0  0  0  0  0  0  0  0
   -9.5323   18.4971  -32.6994 H   0  0  0  0  0  0  0  0  0  0  0  0
  -10.8440   20.6218  -32.7271 H   0  0  0  0  0  0  0  0  0  0  0  0
   -9.8201   22.7356  -31.8848 H   0  0  0  0  0  0  0  0  0  0  0  0
   -4.7320   22.1143  -28.4116 H   0  0  0  0  0  0  0  0  0  0  0  0
   -2.8670   21.4795  -26.8818 H   0  0  0  0  0  0  0  0  0  0  0  0
    0.9023   23.9464  -23.4866 H   0  0  0  0  0  0  0  0  0  0  0  0
    1.5499   22.7440  -24.6534 H   0  0  0  0  0  0  0  0  0  0  0  0
    2.1812   24.4257  -24.6534 H   0  0  0  0  0  0  0  0  0  0  0  0
   -0.7118   24.7918  -23.7046 H   0  0  0  0  0  0  0  0  0  0  0  0
   -0.8527   25.9377  -25.0807 H   0  0  0  0  0  0  0  0  0  0  0  0
   -1.8024   24.4130  -25.0807 H   0  0  0  0  0  0  0  0  0  0  0  0
   -0.6900   25.0321  -28.0603 H   0  0  0  0  0  0  0  0  0  0  0  0
   -2.5562   25.6674  -29.5867 H   0  0  0  0  0  0  0  0  0  0  0  0
   -2.9221   23.1662  -31.1947 H   0  0  0  0  0  0  0  0  0  0  0  0
   -0.9718   21.6380  -31.4418 H   0  0  0  0  0  0  0  0  0  0  0  0
  1  2  1  0
  2  3  1  0
  3  4  2  0
  4  5  1  0
  5  6  2  0
  6  7  1  0
  7  8  1  0
  8  9  1  0
  9 10  1  0
 10 11  2  0
 11 12  1  0
 12 13  2  0
 13 14  1  0
 14 15  2  0
  8 16  1  0
 16 17  2  0
 16 18  2  0
 16 19  1  0
 19 20  2  0
 20 21  1  0
 21 22  2  0
 22 23  1  0
 23 24  2  0
 23 25  2  0
 23 26  1  0
 26 27  1  0
 26 28  1  0
 22 29  1  0
 29 30  2  0
  6 31  1  0
 31 32  2  0
 32  3  1  0
 15 10  1  0
 30 19  1  0
  1 33  1  0
  1 34  1  0
  1 35  1  0
  4 36  1  0
  5 37  1  0
  7 38  1  0
  7 39  1  0
  9 40  1  0
  9 41  1  0
 11 42  1  0
 12 43  1  0
 13 44  1  0
 14 45  1  0
 15 46  1  0
 20 47  1  0
 21 48  1  0
 27 49  1  0
 27 50  1  0
 27 51  1  0
 28 52  1  0
 28 53  1  0
 28 54  1  0
 29 55  1  0
 30 56  1  0
 31 57  1  0
 32 58  1  0
M  END
>  <UniqueID>  (5) 
5

>  <SMILES>  (5) 
COc1ccc(CN(Cc2ccccc2)S(=O)(=O)c2ccc(S(=O)(=O)N(C)C)cc2)cc1

>  <Energy>  (5) 
56.03241770752583

>  <Genealogy>  (5) 
COc1ccc(CN(Cc2ccccc2)S(=O)(=O)c2ccc(S(=O)(=O)N(C)C)cc2)cc1 (3D coordinates assigned)
COc1ccc(CN(Cc2ccccc2)S(=O)(=O)c2ccc(S(=O)(=O)N(C)C)cc2)cc1 (optimized conformer: 56.03241770752583 kcal/mol)

>  <smiles>  (5) 
COc1ccc(CN(Cc2ccccc2)S(=O)(=O)c2ccc(S(=O)(=O)N(C)C)cc2)cc1

>  <score_type>  (5) 
oracle

>  <origin>  (5) 
adgpu

>  <m_score__min__energy>  (5) 
-10.19

>  <m_primary>  (5) 
energy

$$$$
5:0
     RDKit          3D

 52 55  0  0  0  0  0  0  0  0999 V2000
    0.8380   26.4560  -23.0850 N   0  0  0  0  0  0  0  0  0  0  0  0
   -0.3210   26.4280  -23.9280 C   0  0  0  0  0  0  0  0  0  0  0  0
   -1.1280   27.4460  -23.9400 N   0  0  0  0  0  0  0  0  0  0  0  0
   -0.5830   25.2460  -24.7870 C   0  0  0  0  0  0  0  0  0  0  0  0
    0.2520   24.1190  -24.7380 C   0  0  0  0  0  0  0  0  0  0  0  0
   -0.0060   23.0120  -25.5480 C   0  0  0  0  0  0  0  0  0  0  0  0
   -1.0950   23.0170  -26.4180 C   0  0  0  0  0  0  0  0  0  0  0  0
   -1.9330   24.1350  -26.4850 C   0  0  0  0  0  0  0  0  0  0  0  0
   -3.3040   24.1590  -27.5840 S   0  0  0  0  0  0  0  0  0  0  0  0
   -2.8910   24.8310  -28.8680 O   0  0  0  0  0  0  0  0  0  0  0  0
   -4.4580   24.9230  -26.9870 O   0  0  0  0  0  0  0  0  0  0  0  0
   -3.8130   22.5410  -27.9260 N   0  0  0  0  0  0  0  0  0  0  0  0
   -2.8840   21.4570  -28.1000 C   0  0  0  0  0  0  0  0  0  0  0  0
   -2.7500   20.4850  -27.0930 C   0  0  0  0  0  0  0  0  0  0  0  0
   -1.8400   19.4370  -27.2270 C   0  0  0  0  0  0  0  0  0  0  0  0
   -1.0420   19.3370  -28.3740 C   0  0  0  0  0  0  0  0  0  0  0  0
   -0.0570   18.2440  -28.5100 C   0  0  0  0  0  0  0  0  0  0  0  0
    0.5440   17.9110  -29.6750 N   0  0  0  0  0  0  0  0  0  0  0  0
    1.3370   16.8790  -29.3320 C   0  0  0  0  0  0  0  0  0  0  0  0
    1.1910   16.6220  -27.9840 C   0  0  0  0  0  0  0  0  0  0  0  0
    0.3260   17.4800  -27.5080 O   0  0  0  0  0  0  0  0  0  0  0  0
   -1.1790   20.2940  -29.3890 C   0  0  0  0  0  0  0  0  0  0  0  0
   -2.0870   21.3600  -29.2650 C   0  0  0  0  0  0  0  0  0  0  0  0
   -2.1670   22.3840  -30.3760 C   0  0  0  0  0  0  0  0  0  0  0  0
   -3.5150   22.3590  -31.0520 C   0  0  0  0  0  0  0  0  0  0  0  0
   -4.4290   23.4130  -30.8620 C   0  0  0  0  0  0  0  0  0  0  0  0
   -5.6800   23.3830  -31.4850 C   0  0  0  0  0  0  0  0  0  0  0  0
   -6.0270   22.3130  -32.3130 C   0  0  0  0  0  0  0  0  0  0  0  0
   -5.1190   21.2750  -32.5270 C   0  0  0  0  0  0  0  0  0  0  0  0
   -3.8680   21.2980  -31.9050 C   0  0  0  0  0  0  0  0  0  0  0  0
   -1.6760   25.2450  -25.6710 C   0  0  0  0  0  0  0  0  0  0  0  0
    1.0680   27.3040  -22.5210 H   0  0  0  0  0  0  0  0  0  0  0  0
    1.4650   25.6280  -22.9890 H   0  0  0  0  0  0  0  0  0  0  0  0
   -1.9690   27.4800  -24.5630 H   0  0  0  0  0  0  0  0  0  0  0  0
   -0.9420   28.2760  -23.3350 H   0  0  0  0  0  0  0  0  0  0  0  0
    1.1155   24.1081  -24.0567 H   0  0  0  0  0  0  0  0  0  0  0  0
    0.6526   22.1323  -25.4996 H   0  0  0  0  0  0  0  0  0  0  0  0
   -1.2956   22.1411  -27.0524 H   0  0  0  0  0  0  0  0  0  0  0  0
   -4.8360   22.3530  -27.8840 H   0  0  0  0  0  0  0  0  0  0  0  0
   -3.3711   20.5521  -26.1876 H   0  0  0  0  0  0  0  0  0  0  0  0
   -1.7484   18.6857  -26.4288 H   0  0  0  0  0  0  0  0  0  0  0  0
    1.9971   16.3276  -30.0177 H   0  0  0  0  0  0  0  0  0  0  0  0
    1.7086   15.8372  -27.4129 H   0  0  0  0  0  0  0  0  0  0  0  0
   -0.5655   20.2094  -30.2981 H   0  0  0  0  0  0  0  0  0  0  0  0
   -1.9975   23.3851  -29.9528 H   0  0  0  0  0  0  0  0  0  0  0  0
   -1.3994   22.1418  -31.1257 H   0  0  0  0  0  0  0  0  0  0  0  0
   -4.1574   24.2641  -30.2203 H   0  0  0  0  0  0  0  0  0  0  0  0
   -6.3933   24.2045  -31.3227 H   0  0  0  0  0  0  0  0  0  0  0  0
   -7.0150   22.2885  -32.7960 H   0  0  0  0  0  0  0  0  0  0  0  0
   -5.3887   20.4371  -33.1867 H   0  0  0  0  0  0  0  0  0  0  0  0
   -3.1542   20.4804  -32.0838 H   0  0  0  0  0  0  0  0  0  0  0  0
   -2.3352   26.1240  -25.7238 H   0  0  0  0  0  0  0  0  0  0  0  0
  1  2  1  0
  2  3  2  0
  2  4  1  0
  4  5  2  0
  5  6  1  0
  6  7  2  0
  7  8  1  0
  8  9  1  0
  9 10  2  0
  9 11  2  0
  9 12  1  0
 12 13  1  0
 13 14  2  0
 14 15  1  0
 15 16  2  0
 16 17  1  0
 17 18  2  0
 18 19  1  0
 19 20  2  0
 20 21  1  0
 16 22  1  0
 22 23  2  0
 23 24  1  0
 24 25  1  0
 25 26  2  0
 26 27  1  0
 27 28  2  0
 28 29  1  0
 29 30  2  0
  8 31  2  0
 31  4  1  0
 23 13  1  0
 30 25  1  0
 21 17  1  0
  1 32  1  0
  1 33  1  0
  3 34  1  0
  3 35  1  0
  5 36  1  0
  6 37  1  0
  7 38  1  0
 12 39  1  0
 14 40  1  0
 15 41  1  0
 19 42  1  0
 20 43  1  0
 22 44  1  0
 24 45  1  0
 24 46  1  0
 26 47  1  0
 27 48  1  0
 28 49  1  0
 29 50  1  0
 30 51  1  0
 31 52  1  0
M  CHG  1   3   1
M  END
>  <UniqueID>  (6) 
6

>  <SMILES>  (6) 
NC(=[NH2+])c1cccc(S(=O)(=O)Nc2ccc(-c3ncco3)cc2Cc2ccccc2)c1

>  <Energy>  (6) 
92.77875262705072

>  <Genealogy>  (6) 
NC(=[NH2+])c1cccc(S(=O)(=O)Nc2ccc(-c3ncco3)cc2Cc2ccccc2)c1 (protonated)
NC(=[NH2+])c1cccc(S(=O)(=O)Nc2ccc(-c3ncco3)cc2Cc2ccccc2)c1 (3D coordinates assigned)
NC(=[NH2+])c1cccc(S(=O)(=O)Nc2ccc(-c3ncco3)cc2Cc2ccccc2)c1 (optimized conformer: 92.77875262705072 kcal/mol)

>  <smiles>  (6) 
N=C(N)c1cccc(S(=O)(=O)Nc2ccc(-c3ncco3)cc2Cc2ccccc2)c1

>  <score_type>  (6) 
oracle

>  <origin>  (6) 
adgpu

>  <m_score__min__energy>  (6) 
-10.35

>  <m_primary>  (6) 
energy

$$$$
6:0
     RDKit          3D

 48 50  0  0  0  0  0  0  0  0999 V2000
   -7.1860   14.5520  -34.5540 C   0  0  0  0  0  0  0  0  0  0  0  0
   -6.0250   15.2830  -34.0430 N   0  0  0  0  0  0  0  0  0  0  0  0
   -6.1520   16.6660  -33.6430 C   0  0  0  0  0  0  0  0  0  0  0  0
   -6.4340   17.0060  -32.3060 C   0  0  0  0  0  0  0  0  0  0  0  0
   -6.5580   18.3440  -31.9210 C   0  0  0  0  0  0  0  0  0  0  0  0
   -6.3980   19.3620  -32.8640 C   0  0  0  0  0  0  0  0  0  0  0  0
   -6.5600   21.0410  -32.3800 Cl  0  0  0  0  0  0  0  0  0  0  0  0
   -6.1100   19.0410  -34.1930 C   0  0  0  0  0  0  0  0  0  0  0  0
   -5.9860   17.7040  -34.5820 C   0  0  0  0  0  0  0  0  0  0  0  0
   -4.4960   14.4580  -33.9120 S   0  0  0  0  0  0  0  0  0  0  0  0
   -4.3150   13.9830  -32.4970 O   0  0  0  0  0  0  0  0  0  0  0  0
   -4.4800   13.2560  -34.8150 O   0  0  0  0  0  0  0  0  0  0  0  0
   -3.1870   15.5450  -34.3680 C   0  0  0  0  0  0  0  0  0  0  0  0
   -2.1960   15.1310  -35.2680 C   0  0  0  0  0  0  0  0  0  0  0  0
   -1.1550   15.9940  -35.6110 C   0  0  0  0  0  0  0  0  0  0  0  0
   -1.0990   17.2790  -35.0660 C   0  0  0  0  0  0  0  0  0  0  0  0
   -2.0940   17.7190  -34.1720 C   0  0  0  0  0  0  0  0  0  0  0  0
   -2.0490   19.0830  -33.5890 C   0  0  0  0  0  0  0  0  0  0  0  0
   -2.0280   20.0840  -34.3570 O   0  0  0  0  0  0  0  0  0  0  0  0
   -1.9760   19.2750  -32.1670 N   0  0  0  0  0  0  0  0  0  0  0  0
   -2.2730   20.5210  -31.5120 C   0  0  0  0  0  0  0  0  0  0  0  0
   -3.0970   21.4590  -32.1540 C   0  0  0  0  0  0  0  0  0  0  0  0
   -3.3830   22.6840  -31.5460 C   0  0  0  0  0  0  0  0  0  0  0  0
   -2.8360   22.9960  -30.2960 C   0  0  0  0  0  0  0  0  0  0  0  0
   -3.2140   24.5380  -29.5350 S   0  0  0  0  0  0  0  0  0  0  0  0
   -4.1640   25.4970  -30.6140 N   0  0  0  0  0  0  0  0  0  0  0  0
   -3.9820   24.3130  -28.2620 O   0  0  0  0  0  0  0  0  0  0  0  0
   -1.9400   25.2650  -29.2060 O   0  0  0  0  0  0  0  0  0  0  0  0
   -1.9990   22.0710  -29.6560 C   0  0  0  0  0  0  0  0  0  0  0  0
   -1.7110   20.8450  -30.2630 C   0  0  0  0  0  0  0  0  0  0  0  0
   -3.1320   16.8350  -33.8240 C   0  0  0  0  0  0  0  0  0  0  0  0
   -7.7831   14.1761  -33.7101 H   0  0  0  0  0  0  0  0  0  0  0  0
   -7.8022   15.2254  -35.1679 H   0  0  0  0  0  0  0  0  0  0  0  0
   -6.8451   13.7053  -35.1679 H   0  0  0  0  0  0  0  0  0  0  0  0
   -6.5580   16.2103  -31.5566 H   0  0  0  0  0  0  0  0  0  0  0  0
   -6.7819   18.5957  -30.8738 H   0  0  0  0  0  0  0  0  0  0  0  0
   -5.9805   19.8425  -34.9352 H   0  0  0  0  0  0  0  0  0  0  0  0
   -5.7569   17.4599  -35.6298 H   0  0  0  0  0  0  0  0  0  0  0  0
   -2.2390   14.1226  -35.7053 H   0  0  0  0  0  0  0  0  0  0  0  0
   -0.3759   15.6616  -36.3128 H   0  0  0  0  0  0  0  0  0  0  0  0
   -0.2720   17.9517  -35.3371 H   0  0  0  0  0  0  0  0  0  0  0  0
   -1.5600   18.5100  -31.5880 H   0  0  0  0  0  0  0  0  0  0  0  0
   -3.5204   21.2279  -33.1426 H   0  0  0  0  0  0  0  0  0  0  0  0
   -4.0407   23.4062  -32.0518 H   0  0  0  0  0  0  0  0  0  0  0  0
   -3.4970   26.0160  -31.2270 H   0  0  0  0  0  0  0  0  0  0  0  0
   -1.5675   22.3107  -28.6730 H   0  0  0  0  0  0  0  0  0  0  0  0
   -1.0418   20.1300  -29.7619 H   0  0  0  0  0  0  0  0  0  0  0  0
   -3.9091   17.1604  -33.1168 H   0  0  0  0  0  0  0  0  0  0  0  0
  1  2  1  0
  2  3  1  0
  3  4  2  0
  4  5  1  0
  5  6  2  0
  6  7  1  0
  6  8  1  0
  8  9  2  0
  2 10  1  0
 10 11  2  0
 10 12  2  0
 10 13  1  0
 13 14  2  0
 14 15  1  0
 15 16  2  0
 16 17  1  0
 17 18  1  0
 18 19  2  0
 18 20  1  0
 20 21  1  0
 21 22  2  0
 22 23  1  0
 23 24  2  0
 24 25  1  0
 25 26  1  0
 25 27  2  0
 25 28  2  0
 24 29  1  0
 29 30  2  0
 17 31  2  0
  9  3  1  0
 31 13  1  0
 30 21  1  0
  1 32  1  0
  1 33  1  0
  1 34  1  0
  4 35  1  0
  5 36  1  0
  8 37  1  0
  9 38  1  0
 14 39  1  0
 15 40  1  0
 16 41  1  0
 20 42  1  0
 22 43  1  0
 23 44  1  0
 26 45  1  0
 29 46  1  0
 30 47  1  0
 31 48  1  0
M  CHG  1  26  -1
M  END
>  <UniqueID>  (7) 
7

>  <SMILES>  (7) 
CN(c1ccc(Cl)cc1)S(=O)(=O)c1cccc(C(=O)Nc2ccc(S([NH-])(=O)=O)cc2)c1

>  <Energy>  (7) 
60.03909525153454

>  <Genealogy>  (7) 
CN(c1ccc(Cl)cc1)S(=O)(=O)c1cccc(C(=O)Nc2ccc(S([NH-])(=O)=O)cc2)c1 (protonated)
CN(c1ccc(Cl)cc1)S(=O)(=O)c1cccc(C(=O)Nc2ccc(S([NH-])(=O)=O)cc2)c1 (3D coordinates assigned)
CN(c1ccc(Cl)cc1)S(=O)(=O)c1cccc(C(=O)Nc2ccc(S([NH-])(=O)=O)cc2)c1 (optimized conformer: 60.03909525153454 kcal/mol)

>  <smiles>  (7) 
CN(c1ccc(Cl)cc1)S(=O)(=O)c1cccc(C(=O)Nc2ccc(S(N)(=O)=O)cc2)c1

>  <score_type>  (7) 
oracle

>  <origin>  (7) 
adgpu

>  <m_score__min__energy>  (7) 
-11.31

>  <m_primary>  (7) 
energy

$$$$
7:0
     RDKit          3D

 32 33  0  0  0  0  0  0  0  0999 V2000
   -9.5620   17.7550  -30.6940 H   0  0  0  0  0  0  0  0  0  0  0  0
   -9.5150   18.2640  -31.5690 O   0  0  0  0  0  0  0  0  0  0  0  0
   -8.3010   18.4860  -32.2160 C   0  0  0  0  0  0  0  0  0  0  0  0
   -7.3330   17.4770  -32.2330 C   0  0  0  0  0  0  0  0  0  0  0  0
   -7.5332   16.5170  -31.7347 H   0  0  0  0  0  0  0  0  0  0  0  0
   -6.1120   17.6840  -32.8810 C   0  0  0  0  0  0  0  0  0  0  0  0
   -5.3566   16.8845  -32.8940 H   0  0  0  0  0  0  0  0  0  0  0  0
   -5.8450   18.9090  -33.5160 C   0  0  0  0  0  0  0  0  0  0  0  0
   -4.5500   19.1120  -34.2570 C   0  0  0  0  0  0  0  0  0  0  0  0
   -4.7070   19.8615  -35.0467 H   0  0  0  0  0  0  0  0  0  0  0  0
   -4.2468   18.1432  -34.6807 H   0  0  0  0  0  0  0  0  0  0  0  0
   -3.4250   19.5960  -33.3320 C   0  0  0  0  0  0  0  0  0  0  0  0
   -2.4839   19.6319  -33.9003 H   0  0  0  0  0  0  0  0  0  0  0  0
   -3.3426   18.8951  -32.4882 H   0  0  0  0  0  0  0  0  0  0  0  0
   -3.7120   20.9270  -32.8010 N   0  0  0  0  0  0  0  0  0  0  0  0
   -4.3960   21.1260  -31.7170 C   0  0  0  0  0  0  0  0  0  0  0  0
   -4.8123   20.2642  -31.1749 H   0  0  0  0  0  0  0  0  0  0  0  0
   -4.6260   22.4920  -31.1970 C   0  0  0  0  0  0  0  0  0  0  0  0
   -3.5590   23.2600  -30.6910 C   0  0  0  0  0  0  0  0  0  0  0  0
   -2.5409   22.8436  -30.6843 H   0  0  0  0  0  0  0  0  0  0  0  0
   -3.7860   24.5490  -30.1970 C   0  0  0  0  0  0  0  0  0  0  0  0
   -2.7270   25.2990  -29.7010 O   0  0  0  0  0  0  0  0  0  0  0  0
   -5.0770   25.0830  -30.2010 C   0  0  0  0  0  0  0  0  0  0  0  0
   -5.2543   26.0965  -29.8119 H   0  0  0  0  0  0  0  0  0  0  0  0
   -6.1420   24.3300  -30.6990 C   0  0  0  0  0  0  0  0  0  0  0  0
   -7.1573   24.7532  -30.7021 H   0  0  0  0  0  0  0  0  0  0  0  0
   -5.9240   23.0400  -31.1940 C   0  0  0  0  0  0  0  0  0  0  0  0
   -7.0060   22.3100  -31.6790 O   0  0  0  0  0  0  0  0  0  0  0  0
   -6.8210   19.9200  -33.4970 C   0  0  0  0  0  0  0  0  0  0  0  0
   -6.6232   20.8815  -33.9934 H   0  0  0  0  0  0  0  0  0  0  0  0
   -8.0420   19.7090  -32.8500 C   0  0  0  0  0  0  0  0  0  0  0  0
   -8.8014   20.5047  -32.8384 H   0  0  0  0  0  0  0  0  0  0  0  0
  1  2  1  0
  2  3  1  0
  3  4  2  0
  4  5  1  0
  4  6  1  0
  6  7  1  0
  6  8  2  0
  8  9  1  0
  9 10  1  0
  9 11  1  0
  9 12  1  0
 12 13  1  0
 12 14  1  0
 12 15  1  0
 15 16  2  0
 16 17  1  0
 16 18  1  0
 18 19  2  0
 19 20  1  0
 19 21  1  0
 21 22  1  0
 21 23  2  0
 23 24  1  0
 23 25  1  0
 25 26  1  0
 25 27  2  0
 27 28  1  0
  8 29  1  0
 29 30  1  0
 29 31  2  0
 31 32  1  0
 31  3  1  0
 27 18  1  0
M  CHG  2  22  -1  28  -1
M  END
>  <UniqueID>  (8) 
8

>  <SMILES>  (8) 
[O-]c1ccc([O-])c(/C=N/CCc2ccc(O)cc2)c1

>  <Energy>  (8) 
28.724765446573677

>  <Genealogy>  (8) 
[O-]c1ccc([O-])c(C=NCCc2ccc(O)cc2)c1 (protonated)
[O-]c1ccc([O-])c(/C=N/CCc2ccc(O)cc2)c1 (cis-trans isomerization)
[O-]c1ccc([O-])c(/C=N/CCc2ccc(O)cc2)c1 (3D coordinates assigned)
[O-]c1ccc([O-])c(/C=N/CCc2ccc(O)cc2)c1 (optimized conformer: 28.724765446573677 kcal/mol)

>  <smiles>  (8) 
Oc1ccc(CCN=Cc2cc(O)ccc2O)cc1

>  <score_type>  (8) 
oracle

>  <origin>  (8) 
adgpu

>  <m_score__min__energy>  (8) 
-9.8699999999999992

>  <m_primary>  (8) 
energy

$$$$
8:0
     RDKit          3D

 66 69  0  0  1  0  0  0  0  0999 V2000
   -5.8230   25.5630  -30.1900 C   0  0  0  0  0  0  0  0  0  0  0  0
   -4.8440   24.9030  -30.9790 O   0  0  0  0  0  0  0  0  0  0  0  0
   -4.9500   23.5370  -31.2030 C   0  0  0  0  0  0  0  0  0  0  0  0
   -6.1470   22.9480  -31.5520 C   0  0  0  0  0  0  0  0  0  0  0  0
   -6.2000   21.5670  -31.7670 C   0  0  0  0  0  0  0  0  0  0  0  0
   -7.4440   20.9660  -32.1290 N   0  0  0  0  0  0  0  0  0  0  0  0
   -7.5000   19.8630  -33.0780 C   0  0  0  0  0  0  0  0  0  0  0  0
   -8.7020   19.0190  -32.6620 C   0  0  0  0  0  0  0  0  0  0  0  0
   -9.8000   19.8370  -32.8460 O   0  0  0  0  0  0  0  0  0  0  0  0
   -9.8950   20.8680  -31.9550 C   0  0  0  0  0  0  0  0  0  0  0  0
   -8.6340   21.5040  -31.5120 C   0  0  0  0  0  0  0  0  0  0  0  0
   -5.0370   20.8370  -31.6180 C   0  0  0  0  0  0  0  0  0  0  0  0
   -5.0500   19.3650  -31.8360 C   0  0  0  0  0  0  0  0  0  0  0  0
   -3.8340   21.4230  -31.2670 C   0  0  0  0  0  0  0  0  0  0  0  0
   -3.7790   22.7900  -31.0540 C   0  0  0  0  0  0  0  0  0  0  0  0
   -2.5560   23.4290  -30.6900 N   0  0  0  0  0  0  0  0  0  0  0  0
   -2.2020   23.6300  -29.4630 C   0  0  0  0  0  0  0  0  0  0  0  0
   -3.0080   23.2270  -28.4690 N   0  0  0  0  0  0  0  0  0  0  0  0
   -2.6320   23.4420  -27.1860 C   0  0  0  0  0  0  0  0  0  0  0  0
   -1.4400   24.0630  -26.9010 C   0  0  0  0  0  0  0  0  0  0  0  0
   -0.9650   24.3580  -25.2660 Cl  0  0  0  0  0  0  0  0  0  0  0  0
   -0.6590   24.4510  -27.9660 C   0  0  0  0  0  0  0  0  0  0  0  0
    0.4480   25.0090  -27.7410 N   0  0  0  0  0  0  0  0  0  0  0  0
    1.0530   25.3150  -26.5070 C   0  0  0  0  0  0  0  0  0  0  0  0
    1.9620   24.3720  -26.0050 C   0  0  0  0  0  0  0  0  0  0  0  0
    2.6440   24.5770  -24.8250 C   0  0  0  0  0  0  0  0  0  0  0  0
    2.3920   25.7540  -24.1550 C   0  0  0  0  0  0  0  0  0  0  0  0
    1.4970   26.6780  -24.6540 C   0  0  0  0  0  0  0  0  0  0  0  0
    0.8030   26.4900  -25.8390 C   0  0  0  0  0  0  0  0  0  0  0  0
   -0.2770   27.7240  -26.3580 S   0  0  0  0  0  0  0  0  0  0  0  0
   -1.5970   27.6350  -25.5910 O   0  0  0  0  0  0  0  0  0  0  0  0
   -0.6700   27.5010  -27.8130 O   0  0  0  0  0  0  0  0  0  0  0  0
    0.2800   29.3690  -26.2120 C   0  0  0  0  0  0  0  0  0  0  0  0
   -0.5880   30.0550  -25.1410 C   0  0  0  0  0  0  0  0  0  0  0  0
    0.0510   30.1220  -27.5080 C   0  0  0  0  0  0  0  0  0  0  0  0
   -1.0180   24.2460  -29.2560 N   0  0  0  0  0  0  0  0  0  0  0  0
   -5.5980   25.4113  -29.1240 H   0  0  0  0  0  0  0  0  0  0  0  0
   -5.8126   26.6392  -30.4174 H   0  0  0  0  0  0  0  0  0  0  0  0
   -6.8167   25.1498  -30.4174 H   0  0  0  0  0  0  0  0  0  0  0  0
   -7.0543   23.5603  -31.6606 H   0  0  0  0  0  0  0  0  0  0  0  0
   -7.6348   20.2440  -34.1010 H   0  0  0  0  0  0  0  0  0  0  0  0
   -6.5702   19.2752  -33.0718 H   0  0  0  0  0  0  0  0  0  0  0  0
   -8.7798   18.1212  -33.2928 H   0  0  0  0  0  0  0  0  0  0  0  0
   -8.6191   18.6698  -31.6222 H   0  0  0  0  0  0  0  0  0  0  0  0
  -10.5133   21.6500  -32.4200 H   0  0  0  0  0  0  0  0  0  0  0  0
  -10.3165   20.4155  -31.0453 H   0  0  0  0  0  0  0  0  0  0  0  0
   -8.6887   22.5769  -31.7482 H   0  0  0  0  0  0  0  0  0  0  0  0
   -8.5449   21.3055  -30.4337 H   0  0  0  0  0  0  0  0  0  0  0  0
   -5.0545   18.8504  -30.8638 H   0  0  0  0  0  0  0  0  0  0  0  0
   -5.9506   19.0862  -32.4027 H   0  0  0  0  0  0  0  0  0  0  0  0
   -4.1544   19.0703  -32.4027 H   0  0  0  0  0  0  0  0  0  0  0  0
   -2.9285   20.8080  -31.1580 H   0  0  0  0  0  0  0  0  0  0  0  0
   -3.9120   22.7560  -28.6690 H   0  0  0  0  0  0  0  0  0  0  0  0
   -3.2869   23.1165  -26.3644 H   0  0  0  0  0  0  0  0  0  0  0  0
    2.1353   23.4434  -26.5686 H   0  0  0  0  0  0  0  0  0  0  0  0
    3.3568   23.8349  -24.4361 H   0  0  0  0  0  0  0  0  0  0  0  0
    2.9121   25.9603  -23.2079 H   0  0  0  0  0  0  0  0  0  0  0  0
    1.3267   27.6047  -24.0864 H   0  0  0  0  0  0  0  0  0  0  0  0
    1.3509   29.3708  -25.9605 H   0  0  0  0  0  0  0  0  0  0  0  0
   -0.2288   29.7711  -24.1408 H   0  0  0  0  0  0  0  0  0  0  0  0
   -0.5208   31.1466  -25.2585 H   0  0  0  0  0  0  0  0  0  0  0  0
   -1.6346   29.7373  -25.2585 H   0  0  0  0  0  0  0  0  0  0  0  0
   -0.2623   31.1522  -27.2831 H   0  0  0  0  0  0  0  0  0  0  0  0
    0.9839   30.1414  -28.0906 H   0  0  0  0  0  0  0  0  0  0  0  0
   -0.7347   29.6187  -28.0906 H   0  0  0  0  0  0  0  0  0  0  0  0
   -0.4170   24.5450  -30.0630 H   0  0  0  0  0  0  0  0  0  0  0  0
  1  2  1  0
  2  3  1  0
  3  4  2  0
  4  5  1  0
  5  6  1  0
  6  7  1  0
  7  8  1  0
  8  9  1  0
  9 10  1  0
 10 11  1  0
  5 12  2  0
 12 13  1  0
 12 14  1  0
 14 15  2  0
 15 16  1  0
 16 17  2  0
 17 18  1  0
 18 19  1  0
 19 20  2  0
 20 21  1  0
 20 22  1  0
 22 23  2  0
 23 24  1  0
 24 25  2  0
 25 26  1  0
 26 27  2  0
 27 28  1  0
 28 29  2  0
 29 30  1  0
 30 31  2  0
 30 32  2  0
 30 33  1  0
 33 34  1  0
 33 35  1  0
 22 36  1  0
 15  3  1  0
 36 17  1  0
 11  6  1  0
 29 24  1  0
  1 37  1  0
  1 38  1  0
  1 39  1  0
  4 40  1  0
  7 41  1  0
  7 42  1  0
  8 43  1  0
  8 44  1  0
 10 45  1  0
 10 46  1  0
 11 47  1  0
 11 48  1  0
 13 49  1  0
 13 50  1  0
 13 51  1  0
 14 52  1  0
 18 53  1  0
 19 54  1  0
 25 55  1  0
 26 56  1  0
 27 57  1  0
 28 58  1  0
 33 59  1  0
 34 60  1  0
 34 61  1  0
 34 62  1  0
 35 63  1  0
 35 64  1  0
 35 65  1  0
 36 66  1  0
M  END
>  <smiles>  (9) 
COc1cc(N2CCOCC2)c(C)cc1N=c1[nH]cc(Cl)c(=Nc2ccccc2S(=O)(=O)C(C)C)[nH]1

>  <score_type>  (9) 
oracle

>  <origin>  (9) 
adgpu

>  <m_score__min__energy>  (9) 
-10.66

>  <m_primary>  (9) 
energy

$$$$
9:0
     RDKit          3D

 43 45  0  0  0  0  0  0  0  0999 V2000
   -8.6180   21.1120  -32.3470 C   0  0  0  0  0  0  0  0  0  0  0  0
   -7.6960   19.9340  -32.4630 C   0  0  0  0  0  0  0  0  0  0  0  0
   -7.8000   18.8650  -31.5610 C   0  0  0  0  0  0  0  0  0  0  0  0
   -6.9650   17.7510  -31.6880 C   0  0  0  0  0  0  0  0  0  0  0  0
   -6.0160   17.6890  -32.7220 C   0  0  0  0  0  0  0  0  0  0  0  0
   -5.1570   16.5430  -32.8440 N   0  0  0  0  0  0  0  0  0  0  0  0
   -5.0170   15.5330  -31.9650 C   0  0  0  0  0  0  0  0  0  0  0  0
   -4.0800   14.6580  -32.3750 N   0  0  0  0  0  0  0  0  0  0  0  0
   -3.5970   15.1100  -33.5230 N   0  0  0  0  0  0  0  0  0  0  0  0
   -4.2520   16.2520  -33.8010 C   0  0  0  0  0  0  0  0  0  0  0  0
   -3.8450   17.2950  -35.2080 S   0  0  0  0  0  0  0  0  0  0  0  0
   -2.1960   17.7720  -34.5850 C   0  0  0  0  0  0  0  0  0  0  0  0
   -2.2350   19.1260  -33.9460 C   0  0  0  0  0  0  0  0  0  0  0  0
   -1.5230   20.0510  -34.4230 O   0  0  0  0  0  0  0  0  0  0  0  0
   -3.0120   19.3360  -32.7560 N   0  0  0  0  0  0  0  0  0  0  0  0
   -3.1450   20.6050  -32.0950 C   0  0  0  0  0  0  0  0  0  0  0  0
   -4.0120   21.5990  -32.5800 C   0  0  0  0  0  0  0  0  0  0  0  0
   -4.1420   22.8150  -31.9020 C   0  0  0  0  0  0  0  0  0  0  0  0
   -3.4210   23.0460  -30.7210 C   0  0  0  0  0  0  0  0  0  0  0  0
   -3.5770   24.5810  -29.8720 S   0  0  0  0  0  0  0  0  0  0  0  0
   -2.0290   25.0800  -29.2900 N   0  0  0  0  0  0  0  0  0  0  0  0
   -4.1260   25.6270  -30.8020 O   0  0  0  0  0  0  0  0  0  0  0  0
   -4.5210   24.4260  -28.7130 O   0  0  0  0  0  0  0  0  0  0  0  0
   -2.5650   22.0520  -30.2290 C   0  0  0  0  0  0  0  0  0  0  0  0
   -2.4360   20.8370  -30.9060 C   0  0  0  0  0  0  0  0  0  0  0  0
   -5.9360   18.7460  -33.6420 C   0  0  0  0  0  0  0  0  0  0  0  0
   -6.7720   19.8590  -33.5150 C   0  0  0  0  0  0  0  0  0  0  0  0
   -8.7939   21.3367  -31.2847 H   0  0  0  0  0  0  0  0  0  0  0  0
   -8.1608   21.9850  -32.8356 H   0  0  0  0  0  0  0  0  0  0  0  0
   -9.5753   20.8779  -32.8356 H   0  0  0  0  0  0  0  0  0  0  0  0
   -8.5420   18.9033  -30.7499 H   0  0  0  0  0  0  0  0  0  0  0  0
   -7.0515   16.9184  -30.9744 H   0  0  0  0  0  0  0  0  0  0  0  0
   -5.5933   15.4355  -31.0331 H   0  0  0  0  0  0  0  0  0  0  0  0
   -1.8647   17.0325  -33.8411 H   0  0  0  0  0  0  0  0  0  0  0  0
   -1.4967   17.8048  -35.4335 H   0  0  0  0  0  0  0  0  0  0  0  0
   -3.4060   18.4950  -32.2770 H   0  0  0  0  0  0  0  0  0  0  0  0
   -4.5913   21.4195  -33.4977 H   0  0  0  0  0  0  0  0  0  0  0  0
   -4.8120   23.5933  -32.2961 H   0  0  0  0  0  0  0  0  0  0  0  0
   -1.5840   25.6420  -30.0500 H   0  0  0  0  0  0  0  0  0  0  0  0
   -1.9926   22.2290  -29.3065 H   0  0  0  0  0  0  0  0  0  0  0  0
   -1.7737   20.0560  -30.5042 H   0  0  0  0  0  0  0  0  0  0  0  0
   -5.2110   18.6982  -34.4679 H   0  0  0  0  0  0  0  0  0  0  0  0
   -6.7047   20.6801  -34.2439 H   0  0  0  0  0  0  0  0  0  0  0  0
  1  2  1  0
  2  3  2  0
  3  4  1  0
  4  5  2  0
  5  6  1  0
  6  7  1  0
  7  8  2  0
  8  9  1  0
  9 10  2  0
 10 11  1  0
 11 12  1  0
 12 13  1  0
 13 14  2  0
 13 15  1  0
 15 16  1  0
 16 17  2  0
 17 18  1  0
 18 19  2  0
 19 20  1  0
 20 21  1  0
 20 22  2  0
 20 23  2  0
 19 24  1  0
 24 25  2  0
  5 26  1  0
 26 27  2  0
 27  2  1  0
 10  6  1  0
 25 16  1  0
  1 28  1  0
  1 29  1  0
  1 30  1  0
  3 31  1  0
  4 32  1  0
  7 33  1  0
 12 34  1  0
 12 35  1  0
 15 36  1  0
 17 37  1  0
 18 38  1  0
 21 39  1  0
 24 40  1  0
 25 41  1  0
 26 42  1  0
 27 43  1  0
M  CHG  1  21  -1
M  END
>  <UniqueID>  (10) 
9

>  <SMILES>  (10) 
Cc1ccc(-n2cnnc2SCC(=O)Nc2ccc(S([NH-])(=O)=O)cc2)cc1

>  <Energy>  (10) 
81.27819725761735

>  <Genealogy>  (10) 
Cc1ccc(-n2cnnc2SCC(=O)Nc2ccc(S([NH-])(=O)=O)cc2)cc1 (protonated)
Cc1ccc(-n2cnnc2SCC(=O)Nc2ccc(S([NH-])(=O)=O)cc2)cc1 (3D coordinates assigned)
Cc1ccc(-n2cnnc2SCC(=O)Nc2ccc(S([NH-])(=O)=O)cc2)cc1 (optimized conformer: 81.27819725761735 kcal/mol)

>  <smiles>  (10) 
Cc1ccc(-n2cnnc2SCC(=O)Nc2ccc(S(N)(=O)=O)cc2)cc1

>  <score_type>  (10) 
oracle

>  <origin>  (10) 
adgpu

>  <m_score__min__energy>  (10) 
-11.16

>  <m_primary>  (10) 
energy

$$$$
10:0
     RDKit          3D

 49 53  0  0  0  0  0  0  0  0999 V2000
   -4.4120   25.1620  -30.7160 N   0  0  0  0  0  0  0  0  0  0  0  0
   -5.5410   24.3000  -30.8780 C   0  0  0  0  0  0  0  0  0  0  0  0
   -6.0760   23.6220  -29.7740 C   0  0  0  0  0  0  0  0  0  0  0  0
   -7.1650   22.7610  -29.9360 C   0  0  0  0  0  0  0  0  0  0  0  0
   -7.7420   22.5740  -31.2040 C   0  0  0  0  0  0  0  0  0  0  0  0
   -8.8900   21.6560  -31.3910 C   0  0  0  0  0  0  0  0  0  0  0  0
   -9.9780   21.9030  -30.8070 O   0  0  0  0  0  0  0  0  0  0  0  0
   -8.8250   20.5180  -32.2620 N   0  0  0  0  0  0  0  0  0  0  0  0
   -7.6680   19.7100  -32.5270 C   0  0  0  0  0  0  0  0  0  0  0  0
   -7.8360   18.3350  -32.7220 C   0  0  0  0  0  0  0  0  0  0  0  0
   -6.7310   17.5130  -32.9500 C   0  0  0  0  0  0  0  0  0  0  0  0
   -5.4450   18.0570  -32.9740 C   0  0  0  0  0  0  0  0  0  0  0  0
   -5.2520   19.4340  -32.7670 C   0  0  0  0  0  0  0  0  0  0  0  0
   -3.8890   20.0120  -32.7770 C   0  0  0  0  0  0  0  0  0  0  0  0
   -2.9940   19.6920  -33.8100 C   0  0  0  0  0  0  0  0  0  0  0  0
   -1.7030   20.2210  -33.8130 C   0  0  0  0  0  0  0  0  0  0  0  0
   -1.2930   21.0820  -32.7930 C   0  0  0  0  0  0  0  0  0  0  0  0
   -2.1770   21.4290  -31.7570 C   0  0  0  0  0  0  0  0  0  0  0  0
   -1.7490   22.3690  -30.6970 C   0  0  0  0  0  0  0  0  0  0  0  0
   -0.5350   22.2960  -30.0850 N   0  0  0  0  0  0  0  0  0  0  0  0
   -0.5920   23.3020  -29.2010 C   0  0  0  0  0  0  0  0  0  0  0  0
    0.3810   23.6870  -28.2810 C   0  0  0  0  0  0  0  0  0  0  0  0
    0.0880   24.7750  -27.4380 C   0  0  0  0  0  0  0  0  0  0  0  0
   -1.1570   25.4370  -27.5310 C   0  0  0  0  0  0  0  0  0  0  0  0
   -2.1180   25.0160  -28.4700 C   0  0  0  0  0  0  0  0  0  0  0  0
   -1.7900   23.9390  -29.2890 C   0  0  0  0  0  0  0  0  0  0  0  0
   -2.5500   23.3650  -30.2320 N   0  0  0  0  0  0  0  0  0  0  0  0
   -3.4740   20.8820  -31.7520 C   0  0  0  0  0  0  0  0  0  0  0  0
   -6.3700   20.2540  -32.5330 C   0  0  0  0  0  0  0  0  0  0  0  0
   -7.2000   23.2550  -32.3090 C   0  0  0  0  0  0  0  0  0  0  0  0
   -6.1100   24.1140  -32.1440 C   0  0  0  0  0  0  0  0  0  0  0  0
   -3.5160   24.9680  -31.2170 H   0  0  0  0  0  0  0  0  0  0  0  0
   -4.4690   26.0040  -30.1010 H   0  0  0  0  0  0  0  0  0  0  0  0
   -5.6370   23.7682  -28.7760 H   0  0  0  0  0  0  0  0  0  0  0  0
   -7.5731   22.2263  -29.0656 H   0  0  0  0  0  0  0  0  0  0  0  0
   -8.8454   17.8987  -32.6955 H   0  0  0  0  0  0  0  0  0  0  0  0
   -6.8735   16.4342  -33.1111 H   0  0  0  0  0  0  0  0  0  0  0  0
   -4.5783   17.4044  -33.1559 H   0  0  0  0  0  0  0  0  0  0  0  0
   -3.3122   19.0207  -34.6213 H   0  0  0  0  0  0  0  0  0  0  0  0
   -1.0054   19.9588  -34.6221 H   0  0  0  0  0  0  0  0  0  0  0  0
   -0.2719   21.4911  -32.8004 H   0  0  0  0  0  0  0  0  0  0  0  0
    1.3439   23.1592  -28.2160 H   0  0  0  0  0  0  0  0  0  0  0  0
    0.8327   25.1123  -26.7021 H   0  0  0  0  0  0  0  0  0  0  0  0
   -1.3765   26.2856  -26.8664 H   0  0  0  0  0  0  0  0  0  0  0  0
   -3.0924   25.5197  -28.5534 H   0  0  0  0  0  0  0  0  0  0  0  0
   -4.1697   21.1371  -30.9390 H   0  0  0  0  0  0  0  0  0  0  0  0
   -6.2289   21.3300  -32.3531 H   0  0  0  0  0  0  0  0  0  0  0  0
   -7.6364   23.1107  -33.3084 H   0  0  0  0  0  0  0  0  0  0  0  0
   -5.6968   24.6468  -33.0131 H   0  0  0  0  0  0  0  0  0  0  0  0
  1  2  1  0
  2  3  2  0
  3  4  1  0
  4  5  2  0
  5  6  1  0
  6  7  2  0
  6  8  1  0
  8  9  1  0
  9 10  2  0
 10 11  1  0
 11 12  2  0
 12 13  1  0
 13 14  1  0
 14 15  2  0
 15 16  1  0
 16 17  2  0
 17 18  1  0
 18 19  1  0
 19 20  2  0
 20 21  1  0
 21 22  2  0
 22 23  1  0
 23 24  2  0
 24 25  1  0
 25 26  2  0
 26 27  1  0
 18 28  2  0
 13 29  2  0
  5 30  1  0
 30 31  2  0
 31  2  1  0
 29  9  1  0
 28 14  1  0
 27 19  1  0
 26 21  1  0
  1 32  1  0
  1 33  1  0
  3 34  1  0
  4 35  1  0
 10 36  1  0
 11 37  1  0
 12 38  1  0
 15 39  1  0
 16 40  1  0
 17 41  1  0
 22 42  1  0
 23 43  1  0
 24 44  1  0
 25 45  1  0
 28 46  1  0
 29 47  1  0
 30 48  1  0
 31 49  1  0
M  CHG  2   8  -1  27  -1
M  END
>  <UniqueID>  (11) 
10

>  <SMILES>  (11) 
Nc1ccc(C(=O)[N-]c2cccc(-c3cccc(-c4nc5ccccc5[n-]4)c3)c2)cc1

>  <Energy>  (11) 
100.49817417415782

>  <Genealogy>  (11) 
Nc1ccc(C(=O)[N-]c2cccc(-c3cccc(-c4nc5ccccc5[n-]4)c3)c2)cc1 (protonated)
Nc1ccc(C(=O)[N-]c2cccc(-c3cccc(-c4nc5ccccc5[n-]4)c3)c2)cc1 (3D coordinates assigned)
Nc1ccc(C(=O)[N-]c2cccc(-c3cccc(-c4nc5ccccc5[n-]4)c3)c2)cc1 (optimized conformer: 100.49817417415782 kcal/mol)

>  <smiles>  (11) 
Nc1ccc(C(=O)Nc2cccc(-c3cccc(-c4nc5ccccc5[nH]4)c3)c2)cc1

>  <score_type>  (11) 
oracle

>  <origin>  (11) 
adgpu

>  <m_score__min__energy>  (11) 
-11.640000000000001

>  <m_primary>  (11) 
energy

$$$$
11:0
     RDKit          3D

 37 39  0  0  0  0  0  0  0  0999 V2000
    4.6160   27.1490  -27.2720 H   0  0  0  0  0  0  0  0  0  0  0  0
    4.6280   26.1520  -26.9620 N   0  0  0  0  0  0  0  0  0  0  0  0
    3.4280   25.3800  -26.9270 C   0  0  0  0  0  0  0  0  0  0  0  0
    3.5160   24.1270  -26.8330 O   0  0  0  0  0  0  0  0  0  0  0  0
    2.0980   26.0470  -26.9990 C   0  0  0  0  0  0  0  0  0  0  0  0
    0.9700   25.3080  -27.4120 C   0  0  0  0  0  0  0  0  0  0  0  0
    1.0869   24.2465  -27.6757 H   0  0  0  0  0  0  0  0  0  0  0  0
   -0.3030   25.9040  -27.4930 C   0  0  0  0  0  0  0  0  0  0  0  0
   -1.4970   25.1320  -27.9270 C   0  0  0  0  0  0  0  0  0  0  0  0
   -2.0460   25.3080  -29.1630 N   0  0  0  0  0  0  0  0  0  0  0  0
   -3.1090   24.5070  -29.3700 C   0  0  0  0  0  0  0  0  0  0  0  0
   -3.8030   24.5520  -30.4700 N   0  0  0  0  0  0  0  0  0  0  0  0
   -4.9230   23.7190  -30.8080 C   0  0  0  0  0  0  0  0  0  0  0  0
   -6.2170   24.1920  -30.5590 C   0  0  0  0  0  0  0  0  0  0  0  0
   -6.3575   25.1738  -30.0832 H   0  0  0  0  0  0  0  0  0  0  0  0
   -7.3320   23.4250  -30.9110 C   0  0  0  0  0  0  0  0  0  0  0  0
   -8.3442   23.7950  -30.6906 H   0  0  0  0  0  0  0  0  0  0  0  0
   -7.1630   22.1860  -31.5440 C   0  0  0  0  0  0  0  0  0  0  0  0
   -8.5670   21.2150  -31.9750 S   0  0  0  0  0  0  0  0  0  0  0  0
   -8.9990   20.3910  -30.7940 O   0  0  0  0  0  0  0  0  0  0  0  0
   -9.7040   22.1110  -32.3790 O   0  0  0  0  0  0  0  0  0  0  0  0
   -8.1640   20.1710  -33.2920 N   0  0  0  0  0  0  0  0  0  0  0  0
   -9.0380   20.0310  -33.8470 H   0  0  0  0  0  0  0  0  0  0  0  0
   -5.8710   21.7210  -31.8200 C   0  0  0  0  0  0  0  0  0  0  0  0
   -5.7327   20.7491  -32.3162 H   0  0  0  0  0  0  0  0  0  0  0  0
   -4.7560   22.4880  -31.4670 C   0  0  0  0  0  0  0  0  0  0  0  0
   -3.7447   22.1270  -31.7057 H   0  0  0  0  0  0  0  0  0  0  0  0
   -3.4360   23.5500  -28.0210 S   0  0  0  0  0  0  0  0  0  0  0  0
   -2.1470   24.1730  -27.1390 C   0  0  0  0  0  0  0  0  0  0  0  0
   -1.8627   23.8781  -26.1181 H   0  0  0  0  0  0  0  0  0  0  0  0
   -0.4410   27.2560  -27.1400 C   0  0  0  0  0  0  0  0  0  0  0  0
   -1.4309   27.7335  -27.1868 H   0  0  0  0  0  0  0  0  0  0  0  0
    0.6650   27.9980  -26.7310 C   0  0  0  0  0  0  0  0  0  0  0  0
    0.5407   29.0575  -26.4627 H   0  0  0  0  0  0  0  0  0  0  0  0
    1.9330   27.4090  -26.6580 C   0  0  0  0  0  0  0  0  0  0  0  0
    3.0190   28.1810  -26.2470 O   0  0  0  0  0  0  0  0  0  0  0  0
    3.9720   27.8380  -26.3090 H   0  0  0  0  0  0  0  0  0  0  0  0
  1  2  1  0
  2  3  1  0
  3  4  2  0
  3  5  1  0
  5  6  2  0
  6  7  1  0
  6  8  1  0
  8  9  1  0
  9 10  1  0
 10 11  1  0
 11 12  2  0
 12 13  1  0
 13 14  2  0
 14 15  1  0
 14 16  1  0
 16 17  1  0
 16 18  2  0
 18 19  1  0
 19 20  2  0
 19 21  2  0
 19 22  1  0
 22 23  1  0
 18 24  1  0
 24 25  1  0
 24 26  2  0
 26 27  1  0
 11 28  1  0
 28 29  1  0
 29 30  1  0
  8 31  2  0
 31 32  1  0
 31 33  1  0
 33 34  1  0
 33 35  2  0
 35 36  1  0
 36 37  1  0
 35  5  1  0
 29  9  2  0
 26 13  1  0
M  CHG  3   2  -1  10  -1  22  -1
M  END
>  <UniqueID>  (12) 
11

>  <SMILES>  (12) 
[NH-]C(=O)c1cc(-c2cs/c(=N\c3ccc(S([NH-])(=O)=O)cc3)[n-]2)ccc1O

>  <Energy>  (12) 
81.09041389873603

>  <Genealogy>  (12) 
[NH-]C(=O)c1cc(-c2csc(=Nc3ccc(S([NH-])(=O)=O)cc3)[n-]2)ccc1O (protonated)
[NH-]C(=O)c1cc(-c2cs/c(=N\c3ccc(S([NH-])(=O)=O)cc3)[n-]2)ccc1O (cis-trans isomerization)
[NH-]C(=O)c1cc(-c2cs/c(=N\c3ccc(S([NH-])(=O)=O)cc3)[n-]2)ccc1O (3D coordinates assigned)
[NH-]C(=O)c1cc(-c2cs/c(=N\c3ccc(S([NH-])(=O)=O)cc3)[n-]2)ccc1O (optimized conformer: 81.09041389873603 kcal/mol)

>  <smiles>  (12) 
NC(=O)c1cc(-c2csc(=Nc3ccc(S(N)(=O)=O)cc3)[nH]2)ccc1O

>  <score_type>  (12) 
oracle

>  <origin>  (12) 
adgpu

>  <m_score__min__energy>  (12) 
-9.0299999999999994

>  <m_primary>  (12) 
energy

$$$$
12:0
     RDKit          3D

 37 39  0  0  0  0  0  0  0  0999 V2000
    1.1770   24.7530  -27.8150 H   0  0  0  0  0  0  0  0  0  0  0  0
    0.6950   24.1930  -28.5520 N   0  0  0  0  0  0  0  0  0  0  0  0
   -0.5800   24.2590  -28.7670 C   0  0  0  0  0  0  0  0  0  0  0  0
   -1.4470   25.0580  -28.1010 N   0  0  0  0  0  0  0  0  0  0  0  0
   -1.2060   25.9420  -26.9950 C   0  0  0  0  0  0  0  0  0  0  0  0
   -1.7150   25.6550  -25.7170 C   0  0  0  0  0  0  0  0  0  0  0  0
   -2.2813   24.7272  -25.5482 H   0  0  0  0  0  0  0  0  0  0  0  0
   -1.5040   26.5450  -24.6590 C   0  0  0  0  0  0  0  0  0  0  0  0
   -1.8941   26.3100  -23.6577 H   0  0  0  0  0  0  0  0  0  0  0  0
   -0.7980   27.7330  -24.8720 C   0  0  0  0  0  0  0  0  0  0  0  0
   -0.6273   28.4289  -24.0374 H   0  0  0  0  0  0  0  0  0  0  0  0
   -0.3090   28.0360  -26.1470 C   0  0  0  0  0  0  0  0  0  0  0  0
    0.2413   28.9733  -26.3161 H   0  0  0  0  0  0  0  0  0  0  0  0
   -0.5190   27.1490  -27.2060 C   0  0  0  0  0  0  0  0  0  0  0  0
   -0.1444   27.3971  -28.2101 H   0  0  0  0  0  0  0  0  0  0  0  0
   -2.6280   24.9350  -28.6830 N   0  0  0  0  0  0  0  0  0  0  0  0
   -2.4560   24.0520  -29.6880 C   0  0  0  0  0  0  0  0  0  0  0  0
   -3.3890   23.7050  -30.5220 N   0  0  0  0  0  0  0  0  0  0  0  0
   -5.0100   24.3230  -30.4420 S   0  0  0  0  0  0  0  0  0  0  0  0
   -5.3670   24.5960  -29.0090 O   0  0  0  0  0  0  0  0  0  0  0  0
   -5.0850   25.6090  -31.2170 O   0  0  0  0  0  0  0  0  0  0  0  0
   -6.1410   23.1370  -31.0930 C   0  0  0  0  0  0  0  0  0  0  0  0
   -5.7790   22.3220  -32.1740 C   0  0  0  0  0  0  0  0  0  0  0  0
   -4.8055   22.4642  -32.6660 H   0  0  0  0  0  0  0  0  0  0  0  0
   -6.6510   21.3290  -32.6290 C   0  0  0  0  0  0  0  0  0  0  0  0
   -6.3566   20.6863  -33.4718 H   0  0  0  0  0  0  0  0  0  0  0  0
   -7.9000   21.1480  -32.0160 C   0  0  0  0  0  0  0  0  0  0  0  0
   -8.8100   20.0440  -32.4660 C   0  0  0  0  0  0  0  0  0  0  0  0
   -9.2304   19.5340  -31.5867 H   0  0  0  0  0  0  0  0  0  0  0  0
   -9.6266   20.4654  -33.0707 H   0  0  0  0  0  0  0  0  0  0  0  0
   -8.2405   19.3229  -33.0707 H   0  0  0  0  0  0  0  0  0  0  0  0
   -8.2560   21.9600  -30.9280 C   0  0  0  0  0  0  0  0  0  0  0  0
   -9.2269   21.8151  -30.4316 H   0  0  0  0  0  0  0  0  0  0  0  0
   -7.3830   22.9520  -30.4720 C   0  0  0  0  0  0  0  0  0  0  0  0
   -7.6721   23.5891  -29.6232 H   0  0  0  0  0  0  0  0  0  0  0  0
   -1.1900   23.5980  -29.7680 N   0  0  0  0  0  0  0  0  0  0  0  0
   -0.7740   22.9420  -30.4670 H   0  0  0  0  0  0  0  0  0  0  0  0
  1  2  1  0
  2  3  2  3
  3  4  1  0
  4  5  1  0
  5  6  2  0
  6  7  1  0
  6  8  1  0
  8  9  1  0
  8 10  2  0
 10 11  1  0
 10 12  1  0
 12 13  1  0
 12 14  2  0
 14 15  1  0
  4 16  1  0
 16 17  1  0
 17 18  2  0
 18 19  1  0
 19 20  2  0
 19 21  2  0
 19 22  1  0
 22 23  2  0
 23 24  1  0
 23 25  1  0
 25 26  1  0
 25 27  2  0
 27 28  1  0
 28 29  1  0
 28 30  1  0
 28 31  1  0
 27 32  1  0
 32 33  1  0
 32 34  2  0
 34 35  1  0
 17 36  1  0
 36 37  1  0
 36  3  1  0
 14  5  1  0
 34 22  1  0
M  CHG  1  16  -1
M  END
>  <UniqueID>  (13) 
12

>  <SMILES>  (13) 
Cc1ccc(S(=O)(=O)/N=c2\[n-]n(-c3ccccc3)c(=N)[nH]2)cc1

>  <Energy>  (13) 
83.1117227145132

>  <Genealogy>  (13) 
Cc1ccc(S(=O)(=O)N=c2[n-]n(-c3ccccc3)c(=N)[nH]2)cc1 (protonated)
Cc1ccc(S(=O)(=O)/N=c2\[n-]n(-c3ccccc3)c(=N)[nH]2)cc1 (cis-trans isomerization)
Cc1ccc(S(=O)(=O)/N=c2\[n-]n(-c3ccccc3)c(=N)[nH]2)cc1 (3D coordinates assigned)
Cc1ccc(S(=O)(=O)/N=c2\[n-]n(-c3ccccc3)c(=N)[nH]2)cc1 (optimized conformer: 83.1117227145132 kcal/mol)

>  <smiles>  (13) 
Cc1ccc(S(=O)(=O)N=c2[nH]c(=N)n(-c3ccccc3)[nH]2)cc1

>  <score_type>  (13) 
oracle

>  <origin>  (13) 
adgpu

>  <m_score__min__energy>  (13) 
-10.06

>  <m_primary>  (13) 
energy

$$$$
13:0
     RDKit          3D

 37 39  0  0  0  0  0  0  0  0999 V2000
   -1.2100   25.8100  -29.2930 N   0  0  0  0  0  0  0  0  0  0  0  0
   -0.6400   24.8310  -27.9840 S   0  0  0  0  0  0  0  0  0  0  0  0
   -0.8240   25.5850  -26.6960 O   0  0  0  0  0  0  0  0  0  0  0  0
    0.8200   24.5470  -28.1980 O   0  0  0  0  0  0  0  0  0  0  0  0
   -1.5380   23.3100  -27.9000 C   0  0  0  0  0  0  0  0  0  0  0  0
   -0.9010   22.1500  -27.4330 C   0  0  0  0  0  0  0  0  0  0  0  0
   -1.5940   20.9400  -27.3670 C   0  0  0  0  0  0  0  0  0  0  0  0
   -2.9270   20.8760  -27.7710 C   0  0  0  0  0  0  0  0  0  0  0  0
   -3.5710   22.0200  -28.2460 C   0  0  0  0  0  0  0  0  0  0  0  0
   -2.8850   23.2470  -28.3160 C   0  0  0  0  0  0  0  0  0  0  0  0
   -3.5260   24.4360  -28.8030 N   0  0  0  0  0  0  0  0  0  0  0  0
   -4.7190   24.4980  -30.0590 S   0  0  0  0  0  0  0  0  0  0  0  0
   -4.4830   25.6950  -30.9380 O   0  0  0  0  0  0  0  0  0  0  0  0
   -6.0890   24.5690  -29.4440 O   0  0  0  0  0  0  0  0  0  0  0  0
   -4.5910   23.0430  -31.0240 C   0  0  0  0  0  0  0  0  0  0  0  0
   -3.5170   22.6930  -31.8290 C   0  0  0  0  0  0  0  0  0  0  0  0
   -3.6910   21.4610  -32.4730 C   0  0  0  0  0  0  0  0  0  0  0  0
   -4.9070   20.8380  -32.1740 C   0  0  0  0  0  0  0  0  0  0  0  0
   -5.3870   19.5290  -32.6920 C   0  0  0  0  0  0  0  0  0  0  0  0
   -6.2810   18.7490  -31.9310 C   0  0  0  0  0  0  0  0  0  0  0  0
   -6.7330   17.5160  -32.4100 C   0  0  0  0  0  0  0  0  0  0  0  0
   -6.3050   17.0450  -33.6530 C   0  0  0  0  0  0  0  0  0  0  0  0
   -6.8800   15.4950  -34.2430 Cl  0  0  0  0  0  0  0  0  0  0  0  0
   -5.4230   17.8130  -34.4230 C   0  0  0  0  0  0  0  0  0  0  0  0
   -5.0040   17.3650  -35.6340 F   0  0  0  0  0  0  0  0  0  0  0  0
   -4.9660   19.0460  -33.9460 C   0  0  0  0  0  0  0  0  0  0  0  0
   -5.7510   21.8330  -31.1010 S   0  0  0  0  0  0  0  0  0  0  0  0
   -2.0070   25.2990  -29.7350 H   0  0  0  0  0  0  0  0  0  0  0  0
    0.1516   22.1945  -27.1168 H   0  0  0  0  0  0  0  0  0  0  0  0
   -1.0881   20.0364  -26.9960 H   0  0  0  0  0  0  0  0  0  0  0  0
   -3.4723   19.9223  -27.7153 H   0  0  0  0  0  0  0  0  0  0  0  0
   -4.6213   21.9621  -28.5676 H   0  0  0  0  0  0  0  0  0  0  0  0
   -2.6204   23.3187  -31.9494 H   0  0  0  0  0  0  0  0  0  0  0  0
   -2.9418   21.0248  -33.1500 H   0  0  0  0  0  0  0  0  0  0  0  0
   -6.6258   19.1135  -30.9521 H   0  0  0  0  0  0  0  0  0  0  0  0
   -7.4282   16.9147  -31.8057 H   0  0  0  0  0  0  0  0  0  0  0  0
   -4.2720   19.6433  -34.5555 H   0  0  0  0  0  0  0  0  0  0  0  0
  1  2  1  0
  2  3  2  0
  2  4  2  0
  2  5  1  0
  5  6  2  0
  6  7  1  0
  7  8  2  0
  8  9  1  0
  9 10  2  0
 10 11  1  0
 11 12  1  0
 12 13  2  0
 12 14  2  0
 12 15  1  0
 15 16  2  0
 16 17  1  0
 17 18  2  0
 18 19  1  0
 19 20  2  0
 20 21  1  0
 21 22  2  0
 22 23  1  0
 22 24  1  0
 24 25  1  0
 24 26  2  0
 18 27  1  0
 10  5  1  0
 27 15  1  0
 26 19  1  0
  1 28  1  0
  6 29  1  0
  7 30  1  0
  8 31  1  0
  9 32  1  0
 16 33  1  0
 17 34  1  0
 20 35  1  0
 21 36  1  0
 26 37  1  0
M  CHG  2   1  -1  11  -1
M  END
>  <UniqueID>  (14) 
13

>  <SMILES>  (14) 
[NH-]S(=O)(=O)c1ccccc1[N-]S(=O)(=O)c1ccc(-c2ccc(Cl)c(F)c2)s1

>  <Energy>  (14) 
73.13197471534859

>  <Genealogy>  (14) 
[NH-]S(=O)(=O)c1ccccc1[N-]S(=O)(=O)c1ccc(-c2ccc(Cl)c(F)c2)s1 (protonated)
[NH-]S(=O)(=O)c1ccccc1[N-]S(=O)(=O)c1ccc(-c2ccc(Cl)c(F)c2)s1 (3D coordinates assigned)
[NH-]S(=O)(=O)c1ccccc1[N-]S(=O)(=O)c1ccc(-c2ccc(Cl)c(F)c2)s1 (optimized conformer: 73.13197471534859 kcal/mol)

>  <smiles>  (14) 
NS(=O)(=O)c1ccccc1NS(=O)(=O)c1ccc(-c2ccc(Cl)c(F)c2)s1

>  <score_type>  (14) 
oracle

>  <origin>  (14) 
adgpu

>  <m_score__min__energy>  (14) 
-12.67

>  <m_primary>  (14) 
energy

$$$$
14:0
     RDKit          3D

 41 43  0  0  0  0  0  0  0  0999 V2000
   -2.8120   24.4170  -27.6060 C   0  0  0  0  0  0  0  0  0  0  0  0
   -2.3440   24.9250  -28.9280 C   0  0  0  0  0  0  0  0  0  0  0  0
   -1.2330   25.5140  -29.0150 O   0  0  0  0  0  0  0  0  0  0  0  0
   -3.1660   24.7480  -30.0850 N   0  0  0  0  0  0  0  0  0  0  0  0
   -4.0280   23.6220  -30.2880 C   0  0  0  0  0  0  0  0  0  0  0  0
   -3.7010   22.2900  -30.0880 C   0  0  0  0  0  0  0  0  0  0  0  0
   -2.4250   21.7270  -29.5900 C   0  0  0  0  0  0  0  0  0  0  0  0
   -2.2900   21.2710  -28.2660 C   0  0  0  0  0  0  0  0  0  0  0  0
   -1.0760   20.7390  -27.8200 C   0  0  0  0  0  0  0  0  0  0  0  0
    0.0230   20.6580  -28.6850 C   0  0  0  0  0  0  0  0  0  0  0  0
    1.3120   20.0510  -28.2160 C   0  0  0  0  0  0  0  0  0  0  0  0
   -0.1160   21.0810  -30.0150 C   0  0  0  0  0  0  0  0  0  0  0  0
   -1.3300   21.6130  -30.4630 C   0  0  0  0  0  0  0  0  0  0  0  0
   -4.7430   21.5290  -30.4840 N   0  0  0  0  0  0  0  0  0  0  0  0
   -5.7170   22.3310  -30.8900 N   0  0  0  0  0  0  0  0  0  0  0  0
   -6.9740   21.8340  -31.3770 C   0  0  0  0  0  0  0  0  0  0  0  0
   -8.1910   22.3580  -30.9080 C   0  0  0  0  0  0  0  0  0  0  0  0
   -9.4060   21.8480  -31.3770 C   0  0  0  0  0  0  0  0  0  0  0  0
   -9.4150   20.8040  -32.3060 C   0  0  0  0  0  0  0  0  0  0  0  0
   -8.2110   20.2630  -32.7610 C   0  0  0  0  0  0  0  0  0  0  0  0
   -6.9940   20.7690  -32.2930 C   0  0  0  0  0  0  0  0  0  0  0  0
   -5.3130   23.6210  -30.8020 C   0  0  0  0  0  0  0  0  0  0  0  0
   -6.1590   24.8220  -31.1160 C   0  0  0  0  0  0  0  0  0  0  0  0
   -2.3042   24.9682  -26.8008 H   0  0  0  0  0  0  0  0  0  0  0  0
   -3.8990   24.5626  -27.5211 H   0  0  0  0  0  0  0  0  0  0  0  0
   -2.5779   23.3456  -27.5211 H   0  0  0  0  0  0  0  0  0  0  0  0
   -3.1451   21.3333  -27.5769 H   0  0  0  0  0  0  0  0  0  0  0  0
   -0.9835   20.3820  -26.7837 H   0  0  0  0  0  0  0  0  0  0  0  0
    1.3337   20.0408  -27.1163 H   0  0  0  0  0  0  0  0  0  0  0  0
    1.3911   19.0210  -28.5939 H   0  0  0  0  0  0  0  0  0  0  0  0
    2.1564   20.6461  -28.5939 H   0  0  0  0  0  0  0  0  0  0  0  0
    0.7331   20.9941  -30.7089 H   0  0  0  0  0  0  0  0  0  0  0  0
   -1.4280   21.9447  -31.5072 H   0  0  0  0  0  0  0  0  0  0  0  0
   -8.1879   23.1727  -30.1689 H   0  0  0  0  0  0  0  0  0  0  0  0
  -10.3553   22.2690  -31.0143 H   0  0  0  0  0  0  0  0  0  0  0  0
  -10.3712   20.4083  -32.6789 H   0  0  0  0  0  0  0  0  0  0  0  0
   -8.2196   19.4379  -33.4884 H   0  0  0  0  0  0  0  0  0  0  0  0
   -6.0479   20.3310  -32.6438 H   0  0  0  0  0  0  0  0  0  0  0  0
   -6.4903   25.2924  -30.1785 H   0  0  0  0  0  0  0  0  0  0  0  0
   -5.5688   25.5438  -31.6997 H   0  0  0  0  0  0  0  0  0  0  0  0
   -7.0373   24.5093  -31.6997 H   0  0  0  0  0  0  0  0  0  0  0  0
  1  2  1  0
  2  3  2  0
  2  4  1  0
  4  5  1  0
  5  6  1  0
  6  7  1  0
  7  8  2  0
  8  9  1  0
  9 10  2  0
 10 11  1  0
 10 12  1  0
 12 13  2  0
  6 14  2  0
 14 15  1  0
 15 16  1  0
 16 17  2  0
 17 18  1  0
 18 19  2  0
 19 20  1  0
 20 21  2  0
 15 22  1  0
 22 23  1  0
 22  5  2  0
 13  7  1  0
 21 16  1  0
  1 24  1  0
  1 25  1  0
  1 26  1  0
  8 27  1  0
  9 28  1  0
 11 29  1  0
 11 30  1  0
 11 31  1  0
 12 32  1  0
 13 33  1  0
 17 34  1  0
 18 35  1  0
 19 36  1  0
 20 37  1  0
 21 38  1  0
 23 39  1  0
 23 40  1  0
 23 41  1  0
M  CHG  1   4  -1
M  END
>  <UniqueID>  (15) 
14

>  <SMILES>  (15) 
CC(=O)[N-]c1c(-c2ccc(C)cc2)nn(-c2ccccc2)c1C

>  <Energy>  (15) 
86.83225210162327

>  <Genealogy>  (15) 
CC(=O)[N-]c1c(-c2ccc(C)cc2)nn(-c2ccccc2)c1C (protonated)
CC(=O)[N-]c1c(-c2ccc(C)cc2)nn(-c2ccccc2)c1C (3D coordinates assigned)
CC(=O)[N-]c1c(-c2ccc(C)cc2)nn(-c2ccccc2)c1C (optimized conformer: 86.83225210162327 kcal/mol)

>  <smiles>  (15) 
CC(=O)Nc1c(-c2ccc(C)cc2)nn(-c2ccccc2)c1C

>  <score_type>  (15) 
oracle

>  <origin>  (15) 
adgpu

>  <m_score__min__energy>  (15) 
-9.3599999999999994

>  <m_primary>  (15) 
energy

$$$$
15:0
     RDKit          3D

 40 42  0  0  0  0  0  0  0  0999 V2000
   -7.9010   23.0420  -32.4160 O   0  0  0  0  0  0  0  0  0  0  0  0
   -8.3600   22.1040  -31.3360 S   0  0  0  0  0  0  0  0  0  0  0  0
   -9.8240   22.3250  -31.0810 O   0  0  0  0  0  0  0  0  0  0  0  0
   -7.4710   22.4360  -29.8820 N   0  0  0  0  0  0  0  0  0  0  0  0
   -6.2440   23.1870  -29.8430 C   0  0  0  0  0  0  0  0  0  0  0  0
   -5.0590   22.5400  -29.4590 C   0  0  0  0  0  0  0  0  0  0  0  0
   -3.8500   23.2400  -29.4110 C   0  0  0  0  0  0  0  0  0  0  0  0
   -2.7170   22.6020  -29.0260 F   0  0  0  0  0  0  0  0  0  0  0  0
   -3.8110   24.5950  -29.7540 C   0  0  0  0  0  0  0  0  0  0  0  0
   -2.6100   25.2930  -29.6980 O   0  0  0  0  0  0  0  0  0  0  0  0
   -4.9820   25.2480  -30.1470 C   0  0  0  0  0  0  0  0  0  0  0  0
   -4.9500   26.5620  -30.4830 F   0  0  0  0  0  0  0  0  0  0  0  0
   -6.1960   24.5530  -30.1820 C   0  0  0  0  0  0  0  0  0  0  0  0
   -8.1190   20.4300  -31.8300 C   0  0  0  0  0  0  0  0  0  0  0  0
   -9.0850   19.4600  -31.5340 C   0  0  0  0  0  0  0  0  0  0  0  0
   -8.9130   18.1420  -31.9700 C   0  0  0  0  0  0  0  0  0  0  0  0
   -7.7790   17.7910  -32.7090 C   0  0  0  0  0  0  0  0  0  0  0  0
   -6.8050   18.7560  -33.0020 C   0  0  0  0  0  0  0  0  0  0  0  0
   -5.3940   18.3540  -33.9700 S   0  0  0  0  0  0  0  0  0  0  0  0
   -5.6770   18.5540  -35.4330 O   0  0  0  0  0  0  0  0  0  0  0  0
   -5.0320   16.9120  -33.7470 O   0  0  0  0  0  0  0  0  0  0  0  0
   -4.0650   19.4070  -33.4970 C   0  0  0  0  0  0  0  0  0  0  0  0
   -4.2370   20.7980  -33.4490 C   0  0  0  0  0  0  0  0  0  0  0  0
   -3.1700   21.6250  -33.0830 C   0  0  0  0  0  0  0  0  0  0  0  0
   -1.9290   21.0670  -32.7650 C   0  0  0  0  0  0  0  0  0  0  0  0
   -1.7480   19.6830  -32.8280 C   0  0  0  0  0  0  0  0  0  0  0  0
   -2.8120   18.8540  -33.1970 C   0  0  0  0  0  0  0  0  0  0  0  0
   -6.9720   20.0710  -32.5480 C   0  0  0  0  0  0  0  0  0  0  0  0
   -7.8190   21.9890  -29.0050 H   0  0  0  0  0  0  0  0  0  0  0  0
   -5.0820   21.4728  -29.1935 H   0  0  0  0  0  0  0  0  0  0  0  0
   -7.1178   25.0764  -30.4759 H   0  0  0  0  0  0  0  0  0  0  0  0
   -9.9806   19.7351  -30.9576 H   0  0  0  0  0  0  0  0  0  0  0  0
   -9.6705   17.3810  -31.7313 H   0  0  0  0  0  0  0  0  0  0  0  0
   -7.6510   16.7567  -33.0608 H   0  0  0  0  0  0  0  0  0  0  0  0
   -5.2128   21.2395  -33.6997 H   0  0  0  0  0  0  0  0  0  0  0  0
   -3.3079   22.7157  -33.0455 H   0  0  0  0  0  0  0  0  0  0  0  0
   -1.0943   21.7176  -32.4650 H   0  0  0  0  0  0  0  0  0  0  0  0
   -0.7680   19.2453  -32.5872 H   0  0  0  0  0  0  0  0  0  0  0  0
   -2.6655   17.7652  -33.2520 H   0  0  0  0  0  0  0  0  0  0  0  0
   -6.1984   20.8247  -32.7567 H   0  0  0  0  0  0  0  0  0  0  0  0
  1  2  2  0
  2  3  2  0
  2  4  1  0
  4  5  1  0
  5  6  2  0
  6  7  1  0
  7  8  1  0
  7  9  2  0
  9 10  1  0
  9 11  1  0
 11 12  1  0
 11 13  2  0
  2 14  1  0
 14 15  2  0
 15 16  1  0
 16 17  2  0
 17 18  1  0
 18 19  1  0
 19 20  2  0
 19 21  2  0
 19 22  1  0
 22 23  2  0
 23 24  1  0
 24 25  2  0
 25 26  1  0
 26 27  2  0
 18 28  2  0
 13  5  1  0
 28 14  1  0
 27 22  1  0
  4 29  1  0
  6 30  1  0
 13 31  1  0
 15 32  1  0
 16 33  1  0
 17 34  1  0
 23 35  1  0
 24 36  1  0
 25 37  1  0
 26 38  1  0
 27 39  1  0
 28 40  1  0
M  CHG  1  10  -1
M  END
>  <UniqueID>  (16) 
15

>  <SMILES>  (16) 
O=S(=O)(Nc1cc(F)c([O-])c(F)c1)c1cccc(S(=O)(=O)c2ccccc2)c1

>  <Energy>  (16) 
43.76373939391686

>  <Genealogy>  (16) 
O=S(=O)(Nc1cc(F)c([O-])c(F)c1)c1cccc(S(=O)(=O)c2ccccc2)c1 (protonated)
O=S(=O)(Nc1cc(F)c([O-])c(F)c1)c1cccc(S(=O)(=O)c2ccccc2)c1 (3D coordinates assigned)
O=S(=O)(Nc1cc(F)c([O-])c(F)c1)c1cccc(S(=O)(=O)c2ccccc2)c1 (optimized conformer: 43.76373939391686 kcal/mol)

>  <smiles>  (16) 
O=S(=O)(Nc1cc(F)c(O)c(F)c1)c1cccc(S(=O)(=O)c2ccccc2)c1

>  <score_type>  (16) 
oracle

>  <origin>  (16) 
adgpu

>  <m_score__min__energy>  (16) 
-12.539999999999999

>  <m_primary>  (16) 
energy

$$$$
16:0
     RDKit          3D

 45 47  0  0  0  0  0  0  0  0999 V2000
   -4.5630   16.4550  -34.1750 C   0  0  0  0  0  0  0  0  0  0  0  0
   -5.6330   17.4270  -33.7760 C   0  0  0  0  0  0  0  0  0  0  0  0
   -5.5970   18.7510  -34.2420 C   0  0  0  0  0  0  0  0  0  0  0  0
   -6.5740   19.6650  -33.8410 C   0  0  0  0  0  0  0  0  0  0  0  0
   -7.5890   19.2760  -32.9530 C   0  0  0  0  0  0  0  0  0  0  0  0
   -8.6620   20.2490  -32.5490 C   0  0  0  0  0  0  0  0  0  0  0  0
   -8.0820   21.3260  -31.6870 C   0  0  0  0  0  0  0  0  0  0  0  0
   -8.5910   21.5580  -30.5570 O   0  0  0  0  0  0  0  0  0  0  0  0
   -7.0020   22.1340  -32.1760 N   0  0  0  0  0  0  0  0  0  0  0  0
   -6.3490   23.1210  -31.3650 C   0  0  0  0  0  0  0  0  0  0  0  0
   -7.1000   24.2020  -30.8810 C   0  0  0  0  0  0  0  0  0  0  0  0
   -6.5090   25.1610  -30.0550 C   0  0  0  0  0  0  0  0  0  0  0  0
   -5.1600   25.0540  -29.7150 C   0  0  0  0  0  0  0  0  0  0  0  0
   -4.3940   23.9980  -30.2120 C   0  0  0  0  0  0  0  0  0  0  0  0
   -4.9730   23.0280  -31.0470 C   0  0  0  0  0  0  0  0  0  0  0  0
   -4.1370   22.0100  -31.6260 N   0  0  0  0  0  0  0  0  0  0  0  0
   -4.0340   21.8930  -33.0850 C   0  0  0  0  0  0  0  0  0  0  0  0
   -2.7550   21.1470  -33.4620 C   0  0  0  0  0  0  0  0  0  0  0  0
   -1.6990   21.5890  -32.6360 O   0  0  0  0  0  0  0  0  0  0  0  0
   -1.8510   21.0800  -31.3190 C   0  0  0  0  0  0  0  0  0  0  0  0
   -3.2960   21.1640  -30.7720 C   0  0  0  0  0  0  0  0  0  0  0  0
   -7.6210   17.9540  -32.4830 C   0  0  0  0  0  0  0  0  0  0  0  0
   -6.6430   17.0390  -32.8830 C   0  0  0  0  0  0  0  0  0  0  0  0
   -4.0971   16.0318  -33.2728 H   0  0  0  0  0  0  0  0  0  0  0  0
   -5.0074   15.6453  -34.7724 H   0  0  0  0  0  0  0  0  0  0  0  0
   -3.7996   16.9749  -34.7724 H   0  0  0  0  0  0  0  0  0  0  0  0
   -4.7962   19.0697  -34.9255 H   0  0  0  0  0  0  0  0  0  0  0  0
   -6.5478   20.6960  -34.2235 H   0  0  0  0  0  0  0  0  0  0  0  0
   -9.1009   20.7015  -33.4505 H   0  0  0  0  0  0  0  0  0  0  0  0
   -9.4384   19.7138  -31.9827 H   0  0  0  0  0  0  0  0  0  0  0  0
   -6.7940   22.1190  -33.1990 H   0  0  0  0  0  0  0  0  0  0  0  0
   -8.1616   24.2953  -31.1537 H   0  0  0  0  0  0  0  0  0  0  0  0
   -7.1074   26.0010  -29.6724 H   0  0  0  0  0  0  0  0  0  0  0  0
   -4.6993   25.8030  -29.0542 H   0  0  0  0  0  0  0  0  0  0  0  0
   -3.3287   23.9249  -29.9477 H   0  0  0  0  0  0  0  0  0  0  0  0
   -4.9043   21.3400  -33.4682 H   0  0  0  0  0  0  0  0  0  0  0  0
   -4.0072   22.9002  -33.5263 H   0  0  0  0  0  0  0  0  0  0  0  0
   -2.9044   20.0663  -33.3214 H   0  0  0  0  0  0  0  0  0  0  0  0
   -2.5082   21.3458  -34.5154 H   0  0  0  0  0  0  0  0  0  0  0  0
   -1.5425   20.0242  -31.3190 H   0  0  0  0  0  0  0  0  0  0  0  0
   -1.2269   21.7050  -30.6634 H   0  0  0  0  0  0  0  0  0  0  0  0
   -3.7253   20.1519  -30.7351 H   0  0  0  0  0  0  0  0  0  0  0  0
   -3.2629   21.6076  -29.7659 H   0  0  0  0  0  0  0  0  0  0  0  0
   -8.4196   17.6364  -31.7965 H   0  0  0  0  0  0  0  0  0  0  0  0
   -6.6654   16.0097  -32.4957 H   0  0  0  0  0  0  0  0  0  0  0  0
  1  2  1  0
  2  3  2  0
  3  4  1  0
  4  5  2  0
  5  6  1  0
  6  7  1  0
  7  8  2  0
  7  9  1  0
  9 10  1  0
 10 11  2  0
 11 12  1  0
 12 13  2  0
 13 14  1  0
 14 15  2  0
 15 16  1  0
 16 17  1  0
 17 18  1  0
 18 19  1  0
 19 20  1  0
 20 21  1  0
  5 22  1  0
 22 23  2  0
 23  2  1  0
 15 10  1  0
 21 16  1  0
  1 24  1  0
  1 25  1  0
  1 26  1  0
  3 27  1  0
  4 28  1  0
  6 29  1  0
  6 30  1  0
  9 31  1  0
 11 32  1  0
 12 33  1  0
 13 34  1  0
 14 35  1  0
 17 36  1  0
 17 37  1  0
 18 38  1  0
 18 39  1  0
 20 40  1  0
 20 41  1  0
 21 42  1  0
 21 43  1  0
 22 44  1  0
 23 45  1  0
M  END
>  <UniqueID>  (17) 
16

>  <SMILES>  (17) 
Cc1ccc(CC(=O)Nc2ccccc2N2CCOCC2)cc1

>  <Energy>  (17) 
59.336070867139924

>  <Genealogy>  (17) 
Cc1ccc(CC(=O)Nc2ccccc2N2CCOCC2)cc1 (3D coordinates assigned)
Cc1ccc(CC(=O)Nc2ccccc2N2CCOCC2)cc1 (nonaromatic ring conformer: 59.336070867139924 kcal/mol)

>  <smiles>  (17) 
Cc1ccc(CC(=O)Nc2ccccc2N2CCOCC2)cc1

>  <score_type>  (17) 
oracle

>  <origin>  (17) 
adgpu

>  <m_score__min__energy>  (17) 
-7.9900000000000002

>  <m_primary>  (17) 
energy

$$$$
17:0
     RDKit          3D

 46 49  0  0  0  0  0  0  0  0999 V2000
   -8.8534   20.0147  -31.4394 H   0  0  0  0  0  0  0  0  0  0  0  0
   -7.9230   20.5980  -31.3750 C   0  0  0  0  0  0  0  0  0  0  0  0
   -7.9790   21.7770  -30.7330 C   0  0  0  0  0  0  0  0  0  0  0  0
   -8.9041   22.0131  -30.1868 H   0  0  0  0  0  0  0  0  0  0  0  0
   -6.8960   22.7810  -30.7030 C   0  0  0  0  0  0  0  0  0  0  0  0
   -6.8350   23.8130  -31.6570 C   0  0  0  0  0  0  0  0  0  0  0  0
   -7.5892   23.8663  -32.4559 H   0  0  0  0  0  0  0  0  0  0  0  0
   -5.8190   24.7710  -31.5930 C   0  0  0  0  0  0  0  0  0  0  0  0
   -5.7670   25.5678  -32.3496 H   0  0  0  0  0  0  0  0  0  0  0  0
   -4.8690   24.7180  -30.5690 C   0  0  0  0  0  0  0  0  0  0  0  0
   -3.8560   25.6670  -30.5110 O   0  0  0  0  0  0  0  0  0  0  0  0
   -4.9400   23.7100  -29.6010 C   0  0  0  0  0  0  0  0  0  0  0  0
   -4.1953   23.6711  -28.7923 H   0  0  0  0  0  0  0  0  0  0  0  0
   -5.9570   22.7520  -29.6610 C   0  0  0  0  0  0  0  0  0  0  0  0
   -6.0210   21.9722  -28.8878 H   0  0  0  0  0  0  0  0  0  0  0  0
   -6.7180   20.0200  -32.0010 C   0  0  0  0  0  0  0  0  0  0  0  0
   -6.7420   18.7330  -32.4190 N   0  0  0  0  0  0  0  0  0  0  0  0
   -5.6520   18.1350  -32.9670 C   0  0  0  0  0  0  0  0  0  0  0  0
   -5.7810   16.7080  -33.3250 C   0  0  0  0  0  0  0  0  0  0  0  0
   -4.9630   15.7440  -32.7130 C   0  0  0  0  0  0  0  0  0  0  0  0
   -4.1989   16.0546  -31.9852 H   0  0  0  0  0  0  0  0  0  0  0  0
   -5.1180   14.3910  -33.0270 C   0  0  0  0  0  0  0  0  0  0  0  0
   -4.4680   13.6394  -32.5551 H   0  0  0  0  0  0  0  0  0  0  0  0
   -6.0980   13.9920  -33.9400 C   0  0  0  0  0  0  0  0  0  0  0  0
   -6.2162   12.9271  -34.1890 H   0  0  0  0  0  0  0  0  0  0  0  0
   -6.9280   14.9450  -34.5370 C   0  0  0  0  0  0  0  0  0  0  0  0
   -7.7009   14.6290  -35.2531 H   0  0  0  0  0  0  0  0  0  0  0  0
   -6.7770   16.3000  -34.2250 C   0  0  0  0  0  0  0  0  0  0  0  0
   -7.4401   17.0469  -34.6859 H   0  0  0  0  0  0  0  0  0  0  0  0
   -4.4500   18.8810  -33.1240 C   0  0  0  0  0  0  0  0  0  0  0  0
   -3.2910   18.4050  -33.7700 C   0  0  0  0  0  0  0  0  0  0  0  0
   -3.2900   17.2690  -34.3220 O   0  0  0  0  0  0  0  0  0  0  0  0
   -2.1660   19.1860  -33.8350 N   0  0  0  0  0  0  0  0  0  0  0  0
   -0.9620   18.6790  -34.5210 C   0  0  0  0  0  0  0  0  0  0  0  0
   -0.2185   18.3659  -33.7733 H   0  0  0  0  0  0  0  0  0  0  0  0
   -1.2336   17.8188  -35.1506 H   0  0  0  0  0  0  0  0  0  0  0  0
   -0.5364   19.4743  -35.1506 H   0  0  0  0  0  0  0  0  0  0  0  0
   -2.1820   20.4660  -33.3450 C   0  0  0  0  0  0  0  0  0  0  0  0
   -1.1610   21.2000  -33.4810 O   0  0  0  0  0  0  0  0  0  0  0  0
   -3.2970   20.9640  -32.7220 N   0  0  0  0  0  0  0  0  0  0  0  0
   -3.2960   22.3550  -32.2310 C   0  0  0  0  0  0  0  0  0  0  0  0
   -3.2960   22.3556  -31.1310 H   0  0  0  0  0  0  0  0  0  0  0  0
   -2.3975   22.8727  -32.5979 H   0  0  0  0  0  0  0  0  0  0  0  0
   -4.1938   22.8740  -32.5979 H   0  0  0  0  0  0  0  0  0  0  0  0
   -4.4320   20.2030  -32.6330 C   0  0  0  0  0  0  0  0  0  0  0  0
   -5.5630   20.7250  -32.0860 N   0  0  0  0  0  0  0  0  0  0  0  0
  1  2  1  0
  2  3  2  0
  3  4  1  0
  3  5  1  0
  5  6  2  0
  6  7  1  0
  6  8  1  0
  8  9  1  0
  8 10  2  0
 10 11  1  0
 10 12  1  0
 12 13  1  0
 12 14  2  0
 14 15  1  0
  2 16  1  0
 16 17  2  0
 17 18  1  0
 18 19  1  0
 19 20  2  0
 20 21  1  0
 20 22  1  0
 22 23  1  0
 22 24  2  0
 24 25  1  0
 24 26  1  0
 26 27  1  0
 26 28  2  0
 28 29  1  0
 18 30  2  0
 30 31  1  0
 31 32  2  0
 31 33  1  0
 33 34  1  0
 34 35  1  0
 34 36  1  0
 34 37  1  0
 33 38  1  0
 38 39  2  0
 38 40  1  0
 40 41  1  0
 41 42  1  0
 41 43  1  0
 41 44  1  0
 40 45  1  0
 45 46  2  0
 14  5  1  0
 46 16  1  0
 28 19  1  0
 45 30  1  0
M  CHG  1  11  -1
M  END
>  <UniqueID>  (18) 
17

>  <SMILES>  (18) 
Cn1c(=O)c2c(-c3ccccc3)nc(/C=C\c3ccc([O-])cc3)nc2n(C)c1=O

>  <Energy>  (18) 
79.45754010707681

>  <Genealogy>  (18) 
Cn1c(=O)c2c(-c3ccccc3)nc(C=Cc3ccc([O-])cc3)nc2n(C)c1=O (protonated)
Cn1c(=O)c2c(-c3ccccc3)nc(/C=C\c3ccc([O-])cc3)nc2n(C)c1=O (cis-trans isomerization)
Cn1c(=O)c2c(-c3ccccc3)nc(/C=C\c3ccc([O-])cc3)nc2n(C)c1=O (3D coordinates assigned)
Cn1c(=O)c2c(-c3ccccc3)nc(/C=C\c3ccc([O-])cc3)nc2n(C)c1=O (optimized conformer: 79.45754010707681 kcal/mol)

>  <smiles>  (18) 
Cn1c(=O)c2c(-c3ccccc3)nc(C=Cc3ccc(O)cc3)nc2n(C)c1=O

>  <score_type>  (18) 
oracle

>  <origin>  (18) 
adgpu

>  <m_score__min__energy>  (18) 
-11.869999999999999

>  <m_primary>  (18) 
energy

$$$$
18:0
     RDKit          3D

 45 47  0  0  0  0  0  0  0  0999 V2000
   -0.5530   22.7440  -26.1500 C   0  0  0  0  0  0  0  0  0  0  0  0
   -1.3590   23.3550  -27.2660 C   0  0  0  0  0  0  0  0  0  0  0  0
   -1.0900   24.6740  -27.6670 C   0  0  0  0  0  0  0  0  0  0  0  0
   -1.8220   25.2670  -28.6970 C   0  0  0  0  0  0  0  0  0  0  0  0
   -2.8280   24.5530  -29.3530 C   0  0  0  0  0  0  0  0  0  0  0  0
   -3.5600   25.1960  -30.4060 N   0  0  0  0  0  0  0  0  0  0  0  0
   -4.8870   24.8650  -30.8390 C   0  0  0  0  0  0  0  0  0  0  0  0
   -5.7720   25.7600  -30.8030 O   0  0  0  0  0  0  0  0  0  0  0  0
   -5.2290   23.5250  -31.3720 C   0  0  0  0  0  0  0  0  0  0  0  0
   -6.5740   23.1430  -31.5030 C   0  0  0  0  0  0  0  0  0  0  0  0
   -6.9070   21.8800  -32.0010 C   0  0  0  0  0  0  0  0  0  0  0  0
   -5.8990   20.9840  -32.3990 C   0  0  0  0  0  0  0  0  0  0  0  0
   -6.2150   19.6690  -32.8890 N   0  0  0  0  0  0  0  0  0  0  0  0
   -6.0770   18.4710  -32.1080 C   0  0  0  0  0  0  0  0  0  0  0  0
   -6.0740   18.5420  -30.8480 O   0  0  0  0  0  0  0  0  0  0  0  0
   -5.9900   17.1410  -32.7620 C   0  0  0  0  0  0  0  0  0  0  0  0
   -6.9220   16.7760  -33.7520 C   0  0  0  0  0  0  0  0  0  0  0  0
   -6.8480   15.5230  -34.3670 C   0  0  0  0  0  0  0  0  0  0  0  0
   -5.8500   14.6180  -33.9990 C   0  0  0  0  0  0  0  0  0  0  0  0
   -5.7610   13.0450  -34.7710 Cl  0  0  0  0  0  0  0  0  0  0  0  0
   -4.9250   14.9650  -33.0110 C   0  0  0  0  0  0  0  0  0  0  0  0
   -4.9940   16.2180  -32.3930 C   0  0  0  0  0  0  0  0  0  0  0  0
   -4.5570   21.3650  -32.2640 C   0  0  0  0  0  0  0  0  0  0  0  0
   -4.2240   22.6270  -31.7680 C   0  0  0  0  0  0  0  0  0  0  0  0
   -3.1290   23.2460  -28.9350 C   0  0  0  0  0  0  0  0  0  0  0  0
   -2.4030   22.6380  -27.8980 C   0  0  0  0  0  0  0  0  0  0  0  0
   -2.7390   21.2260  -27.4910 C   0  0  0  0  0  0  0  0  0  0  0  0
   -0.9692   23.0595  -25.1819 H   0  0  0  0  0  0  0  0  0  0  0  0
   -0.5932   21.6474  -26.2265 H   0  0  0  0  0  0  0  0  0  0  0  0
    0.4920   23.0789  -26.2265 H   0  0  0  0  0  0  0  0  0  0  0  0
   -0.2952   25.2449  -27.1647 H   0  0  0  0  0  0  0  0  0  0  0  0
   -1.6053   26.3037  -28.9943 H   0  0  0  0  0  0  0  0  0  0  0  0
   -7.3712   23.8427  -31.2116 H   0  0  0  0  0  0  0  0  0  0  0  0
   -7.9637   21.5853  -32.0820 H   0  0  0  0  0  0  0  0  0  0  0  0
   -6.6760   19.5950  -33.8250 H   0  0  0  0  0  0  0  0  0  0  0  0
   -7.7138   17.4817  -34.0435 H   0  0  0  0  0  0  0  0  0  0  0  0
   -7.5779   15.2490  -35.1430 H   0  0  0  0  0  0  0  0  0  0  0  0
   -4.1408   14.2513  -32.7185 H   0  0  0  0  0  0  0  0  0  0  0  0
   -4.2648   16.4836  -31.6134 H   0  0  0  0  0  0  0  0  0  0  0  0
   -3.7595   20.6640  -32.5512 H   0  0  0  0  0  0  0  0  0  0  0  0
   -3.1669   22.9202  -31.6867 H   0  0  0  0  0  0  0  0  0  0  0  0
   -3.9430   22.6923  -29.4258 H   0  0  0  0  0  0  0  0  0  0  0  0
   -2.7559   21.1550  -26.3934 H   0  0  0  0  0  0  0  0  0  0  0  0
   -3.7269   20.9543  -27.8913 H   0  0  0  0  0  0  0  0  0  0  0  0
   -1.9794   20.5384  -27.8913 H   0  0  0  0  0  0  0  0  0  0  0  0
  1  2  1  0
  2  3  2  0
  3  4  1  0
  4  5  2  0
  5  6  1  0
  6  7  1  0
  7  8  2  0
  7  9  1  0
  9 10  2  0
 10 11  1  0
 11 12  2  0
 12 13  1  0
 13 14  1  0
 14 15  2  0
 14 16  1  0
 16 17  2  0
 17 18  1  0
 18 19  2  0
 19 20  1  0
 19 21  1  0
 21 22  2  0
 12 23  1  0
 23 24  2  0
  5 25  1  0
 25 26  2  0
 26 27  1  0
 26  2  1  0
 24  9  1  0
 22 16  1  0
  1 28  1  0
  1 29  1  0
  1 30  1  0
  3 31  1  0
  4 32  1  0
 10 33  1  0
 11 34  1  0
 13 35  1  0
 17 36  1  0
 18 37  1  0
 21 38  1  0
 22 39  1  0
 23 40  1  0
 24 41  1  0
 25 42  1  0
 27 43  1  0
 27 44  1  0
 27 45  1  0
M  CHG  1   6  -1
M  END
>  <UniqueID>  (19) 
18

>  <SMILES>  (19) 
Cc1ccc([N-]C(=O)c2ccc(NC(=O)c3ccc(Cl)cc3)cc2)cc1C

>  <Energy>  (19) 
59.86859506905759

>  <Genealogy>  (19) 
Cc1ccc([N-]C(=O)c2ccc(NC(=O)c3ccc(Cl)cc3)cc2)cc1C (protonated)
Cc1ccc([N-]C(=O)c2ccc(NC(=O)c3ccc(Cl)cc3)cc2)cc1C (3D coordinates assigned)
Cc1ccc([N-]C(=O)c2ccc(NC(=O)c3ccc(Cl)cc3)cc2)cc1C (optimized conformer: 59.86859506905759 kcal/mol)

>  <smiles>  (19) 
Cc1ccc(NC(=O)c2ccc(NC(=O)c3ccc(Cl)cc3)cc2)cc1C

>  <score_type>  (19) 
oracle

>  <origin>  (19) 
adgpu

>  <m_score__min__energy>  (19) 
-10.15

>  <m_primary>  (19) 
energy

$$$$
19:0
     RDKit          3D

 44 47  0  0  0  0  0  0  0  0999 V2000
   -2.3030   25.3010  -29.0150 O   0  0  0  0  0  0  0  0  0  0  0  0
   -2.9140   24.5280  -29.8000 C   0  0  0  0  0  0  0  0  0  0  0  0
   -4.0750   25.0210  -30.4810 N   0  0  0  0  0  0  0  0  0  0  0  0
   -5.2930   24.2980  -30.7110 C   0  0  0  0  0  0  0  0  0  0  0  0
   -5.9950   23.6810  -29.6590 C   0  0  0  0  0  0  0  0  0  0  0  0
   -7.1720   22.9720  -29.9200 C   0  0  0  0  0  0  0  0  0  0  0  0
   -7.6490   22.8620  -31.2300 C   0  0  0  0  0  0  0  0  0  0  0  0
   -9.1240   21.9720  -31.5560 Cl  0  0  0  0  0  0  0  0  0  0  0  0
   -6.9420   23.4550  -32.2820 C   0  0  0  0  0  0  0  0  0  0  0  0
   -5.7650   24.1650  -32.0220 C   0  0  0  0  0  0  0  0  0  0  0  0
   -2.4480   23.1290  -29.9490 C   0  0  0  0  0  0  0  0  0  0  0  0
   -1.5960   22.5480  -28.9920 C   0  0  0  0  0  0  0  0  0  0  0  0
   -1.1540   21.2330  -29.1470 C   0  0  0  0  0  0  0  0  0  0  0  0
   -1.5500   20.4850  -30.2570 C   0  0  0  0  0  0  0  0  0  0  0  0
   -2.3940   21.0510  -31.2210 C   0  0  0  0  0  0  0  0  0  0  0  0
   -2.8640   20.1230  -32.6430 S   0  0  0  0  0  0  0  0  0  0  0  0
   -1.9840   18.9100  -32.7580 O   0  0  0  0  0  0  0  0  0  0  0  0
   -2.6950   20.9710  -33.8740 O   0  0  0  0  0  0  0  0  0  0  0  0
   -4.5190   19.6310  -32.4990 N   0  0  0  0  0  0  0  0  0  0  0  0
   -5.5500   20.3720  -31.7750 C   0  0  0  0  0  0  0  0  0  0  0  0
   -6.8510   19.5460  -31.9330 C   0  0  0  0  0  0  0  0  0  0  0  0
   -6.4240   18.3800  -32.7570 C   0  0  0  0  0  0  0  0  0  0  0  0
   -7.1990   17.3090  -33.2040 C   0  0  0  0  0  0  0  0  0  0  0  0
   -6.5820   16.3100  -33.9750 C   0  0  0  0  0  0  0  0  0  0  0  0
   -5.2100   16.4000  -34.2840 C   0  0  0  0  0  0  0  0  0  0  0  0
   -4.4500   17.4870  -33.8230 C   0  0  0  0  0  0  0  0  0  0  0  0
   -5.0920   18.4660  -33.0580 C   0  0  0  0  0  0  0  0  0  0  0  0
   -2.8300   22.3740  -31.0710 C   0  0  0  0  0  0  0  0  0  0  0  0
   -5.6171   23.7565  -28.6287 H   0  0  0  0  0  0  0  0  0  0  0  0
   -7.7235   22.5001  -29.0934 H   0  0  0  0  0  0  0  0  0  0  0  0
   -7.3119   23.3628  -33.3138 H   0  0  0  0  0  0  0  0  0  0  0  0
   -5.2071   24.6215  -32.8529 H   0  0  0  0  0  0  0  0  0  0  0  0
   -1.2765   23.1330  -28.1170 H   0  0  0  0  0  0  0  0  0  0  0  0
   -0.4915   20.7848  -28.3919 H   0  0  0  0  0  0  0  0  0  0  0  0
   -1.1987   19.4493  -30.3749 H   0  0  0  0  0  0  0  0  0  0  0  0
   -5.2810   20.4639  -30.7124 H   0  0  0  0  0  0  0  0  0  0  0  0
   -5.6674   21.3925  -32.1683 H   0  0  0  0  0  0  0  0  0  0  0  0
   -7.2300   19.2179  -30.9538 H   0  0  0  0  0  0  0  0  0  0  0  0
   -7.6696   20.1192  -32.3928 H   0  0  0  0  0  0  0  0  0  0  0  0
   -8.2694   17.2484  -32.9580 H   0  0  0  0  0  0  0  0  0  0  0  0
   -7.1713   15.4552  -34.3385 H   0  0  0  0  0  0  0  0  0  0  0  0
   -4.7323   15.6153  -34.8890 H   0  0  0  0  0  0  0  0  0  0  0  0
   -3.3782   17.5664  -34.0573 H   0  0  0  0  0  0  0  0  0  0  0  0
   -3.4767   22.8255  -31.8378 H   0  0  0  0  0  0  0  0  0  0  0  0
  1  2  2  0
  2  3  1  0
  3  4  1  0
  4  5  2  0
  5  6  1  0
  6  7  2  0
  7  8  1  0
  7  9  1  0
  9 10  2  0
  2 11  1  0
 11 12  2  0
 12 13  1  0
 13 14  2  0
 14 15  1  0
 15 16  1  0
 16 17  2  0
 16 18  2  0
 16 19  1  0
 19 20  1  0
 20 21  1  0
 21 22  1  0
 22 23  2  0
 23 24  1  0
 24 25  2  0
 25 26  1  0
 26 27  2  0
 15 28  2  0
 10  4  1  0
 28 11  1  0
 27 19  1  0
 27 22  1  0
  5 29  1  0
  6 30  1  0
  9 31  1  0
 10 32  1  0
 12 33  1  0
 13 34  1  0
 14 35  1  0
 20 36  1  0
 20 37  1  0
 21 38  1  0
 21 39  1  0
 23 40  1  0
 24 41  1  0
 25 42  1  0
 26 43  1  0
 28 44  1  0
M  CHG  1   3  -1
M  END
>  <UniqueID>  (20) 
19

>  <SMILES>  (20) 
O=C([N-]c1ccc(Cl)cc1)c1cccc(S(=O)(=O)N2CCc3ccccc32)c1

>  <Energy>  (20) 
70.95542755631442

>  <Genealogy>  (20) 
O=C([N-]c1ccc(Cl)cc1)c1cccc(S(=O)(=O)N2CCc3ccccc32)c1 (protonated)
O=C([N-]c1ccc(Cl)cc1)c1cccc(S(=O)(=O)N2CCc3ccccc32)c1 (3D coordinates assigned)
O=C([N-]c1ccc(Cl)cc1)c1cccc(S(=O)(=O)N2CCc3ccccc32)c1 (nonaromatic ring conformer: 70.95542755631442 kcal/mol)

>  <smiles>  (20) 
O=C(Nc1ccc(Cl)cc1)c1cccc(S(=O)(=O)N2CCc3ccccc32)c1

>  <score_type>  (20) 
oracle

>  <origin>  (20) 
adgpu

>  <m_score__min__energy>  (20) 
-11.66

>  <m_primary>  (20) 
energy

$$$$
20:0
     RDKit          3D

 47 49  0  0  0  0  0  0  0  0999 V2000
   -3.4226   20.7404  -33.2091 H   0  0  0  0  0  0  0  0  0  0  0  0
   -4.1680   21.3840  -32.7190 C   0  0  0  0  0  0  0  0  0  0  0  0
   -3.7480   22.4210  -31.8820 C   0  0  0  0  0  0  0  0  0  0  0  0
   -2.6737   22.5827  -31.7094 H   0  0  0  0  0  0  0  0  0  0  0  0
   -4.6890   23.2590  -31.2590 C   0  0  0  0  0  0  0  0  0  0  0  0
   -4.2520   24.3700  -30.3810 C   0  0  0  0  0  0  0  0  0  0  0  0
   -4.2020   25.5390  -30.8470 O   0  0  0  0  0  0  0  0  0  0  0  0
   -3.8300   24.1560  -29.0250 N   0  0  0  0  0  0  0  0  0  0  0  0
   -2.7350   24.6140  -28.4940 C   0  0  0  0  0  0  0  0  0  0  0  0
   -1.7840   25.2970  -29.1590 N   0  0  0  0  0  0  0  0  0  0  0  0
   -0.8440   25.5480  -28.2950 O   0  0  0  0  0  0  0  0  0  0  0  0
   -1.1370   25.0560  -27.1090 C   0  0  0  0  0  0  0  0  0  0  0  0
   -0.2560   25.1720  -25.8810 C   0  0  0  0  0  0  0  0  0  0  0  0
   -0.8850   26.1700  -24.8910 C   0  0  0  0  0  0  0  0  0  0  0  0
   -0.6793   25.8436  -23.8609 H   0  0  0  0  0  0  0  0  0  0  0  0
   -0.4527   27.1685  -25.0525 H   0  0  0  0  0  0  0  0  0  0  0  0
   -1.9723   26.2107  -25.0525 H   0  0  0  0  0  0  0  0  0  0  0  0
   -0.1230   23.7900  -25.2130 C   0  0  0  0  0  0  0  0  0  0  0  0
   -0.1344   23.9087  -24.1195 H   0  0  0  0  0  0  0  0  0  0  0  0
   -0.9638   23.1513  -25.5213 H   0  0  0  0  0  0  0  0  0  0  0  0
    0.8242   23.3234  -25.5213 H   0  0  0  0  0  0  0  0  0  0  0  0
    1.1460   25.6750  -26.2800 C   0  0  0  0  0  0  0  0  0  0  0  0
    1.7320   25.8852  -25.3731 H   0  0  0  0  0  0  0  0  0  0  0  0
    1.6564   24.9039  -26.8758 H   0  0  0  0  0  0  0  0  0  0  0  0
    1.0498   26.5947  -26.8758 H   0  0  0  0  0  0  0  0  0  0  0  0
   -2.3670   24.4260  -27.1830 C   0  0  0  0  0  0  0  0  0  0  0  0
   -2.9163   23.9024  -26.3867 H   0  0  0  0  0  0  0  0  0  0  0  0
   -6.0560   23.0650  -31.5230 C   0  0  0  0  0  0  0  0  0  0  0  0
   -6.8014   23.7340  -31.0682 H   0  0  0  0  0  0  0  0  0  0  0  0
   -6.4730   22.0270  -32.3600 C   0  0  0  0  0  0  0  0  0  0  0  0
   -7.5443   21.8885  -32.5679 H   0  0  0  0  0  0  0  0  0  0  0  0
   -5.5320   21.1600  -32.9370 C   0  0  0  0  0  0  0  0  0  0  0  0
   -5.9350   20.1210  -33.8440 N   0  0  0  0  0  0  0  0  0  0  0  0
   -5.7560   18.8350  -33.7110 C   0  0  0  0  0  0  0  0  0  0  0  0
   -4.9900   18.2820  -32.6650 C   0  0  0  0  0  0  0  0  0  0  0  0
   -4.5243   18.9381  -31.9149 H   0  0  0  0  0  0  0  0  0  0  0  0
   -4.8250   16.8990  -32.5850 C   0  0  0  0  0  0  0  0  0  0  0  0
   -4.2484   16.4631  -31.7558 H   0  0  0  0  0  0  0  0  0  0  0  0
   -5.3910   16.0630  -33.5570 C   0  0  0  0  0  0  0  0  0  0  0  0
   -5.2620   14.5640  -33.4510 C   0  0  0  0  0  0  0  0  0  0  0  0
   -6.4280   13.9430  -33.8670 F   0  0  0  0  0  0  0  0  0  0  0  0
   -4.2170   14.1400  -34.2490 F   0  0  0  0  0  0  0  0  0  0  0  0
   -5.0140   14.1850  -32.1430 F   0  0  0  0  0  0  0  0  0  0  0  0
   -6.1520   16.6480  -34.5780 C   0  0  0  0  0  0  0  0  0  0  0  0
   -6.6320   16.0099  -35.3346 H   0  0  0  0  0  0  0  0  0  0  0  0
   -6.3020   17.9990  -34.6410 N   0  0  0  0  0  0  0  0  0  0  0  0
   -6.8670   18.3990  -35.4260 H   0  0  0  0  0  0  0  0  0  0  0  0
  1  2  1  0
  2  3  2  0
  3  4  1  0
  3  5  1  0
  5  6  1  0
  6  7  2  0
  6  8  1  0
  8  9  2  3
  9 10  1  0
 10 11  1  0
 11 12  1  0
 12 13  1  0
 13 14  1  0
 14 15  1  0
 14 16  1  0
 14 17  1  0
 13 18  1  0
 18 19  1  0
 18 20  1  0
 18 21  1  0
 13 22  1  0
 22 23  1  0
 22 24  1  0
 22 25  1  0
 12 26  2  0
 26 27  1  0
  5 28  2  0
 28 29  1  0
 28 30  1  0
 30 31  1  0
 30 32  2  0
 32 33  1  0
 33 34  2  0
 34 35  1  0
 35 36  1  0
 35 37  2  0
 37 38  1  0
 37 39  1  0
 39 40  1  0
 40 41  1  0
 40 42  1  0
 40 43  1  0
 39 44  2  0
 44 45  1  0
 44 46  1  0
 46 47  1  0
 32  2  1  0
 46 34  1  0
 26  9  1  0
M  CHG  1  10  -1
M  END
>  <UniqueID>  (21) 
20

>  <SMILES>  (21) 
CC(C)(C)c1cc(=NC(=O)c2ccc(/N=c3\ccc(C(F)(F)F)c[nH]3)cc2)[n-]o1

>  <Energy>  (21) 
93.46399172624903

>  <Genealogy>  (21) 
CC(C)(C)c1cc(=NC(=O)c2ccc(N=c3ccc(C(F)(F)F)c[nH]3)cc2)[n-]o1 (protonated)
CC(C)(C)c1cc(=NC(=O)c2ccc(/N=c3\ccc(C(F)(F)F)c[nH]3)cc2)[n-]o1 (cis-trans isomerization)
CC(C)(C)c1cc(=NC(=O)c2ccc(/N=c3\ccc(C(F)(F)F)c[nH]3)cc2)[n-]o1 (3D coordinates assigned)
CC(C)(C)c1cc(=NC(=O)c2ccc(/N=c3\ccc(C(F)(F)F)c[nH]3)cc2)[n-]o1 (optimized conformer: 93.46399172624903 kcal/mol)

>  <smiles>  (21) 
CC(C)(C)c1cc(=NC(=O)c2ccc(N=c3ccc(C(F)(F)F)c[nH]3)cc2)[nH]o1

>  <score_type>  (21) 
oracle

>  <origin>  (21) 
adgpu

>  <m_score__min__energy>  (21) 
-10.359999999999999

>  <m_primary>  (21) 
energy

$$$$
21:0
     RDKit          3D

 58 62  0  0  0  0  0  0  0  0999 V2000
   -3.4293   24.6926  -27.9502 H   0  0  0  0  0  0  0  0  0  0  0  0
   -3.5530   23.9990  -28.7950 C   0  0  0  0  0  0  0  0  0  0  0  0
   -4.7810   23.5110  -29.0920 N   0  0  0  0  0  0  0  0  0  0  0  0
   -4.9960   22.7010  -30.1600 C   0  0  0  0  0  0  0  0  0  0  0  0
   -6.3020   22.2900  -30.4460 C   0  0  0  0  0  0  0  0  0  0  0  0
   -7.1168   22.5394  -29.7504 H   0  0  0  0  0  0  0  0  0  0  0  0
   -6.5810   21.5640  -31.6100 C   0  0  0  0  0  0  0  0  0  0  0  0
   -7.9650   21.1360  -31.9080 C   0  0  0  0  0  0  0  0  0  0  0  0
   -8.4490   19.8490  -32.0810 C   0  0  0  0  0  0  0  0  0  0  0  0
   -7.6770   18.5730  -31.9980 C   0  0  0  0  0  0  0  0  0  0  0  0
   -7.5173   18.3091  -30.9421 H   0  0  0  0  0  0  0  0  0  0  0  0
   -8.2410   17.7702  -32.4954 H   0  0  0  0  0  0  0  0  0  0  0  0
   -6.7041   18.7000  -32.4954 H   0  0  0  0  0  0  0  0  0  0  0  0
   -9.7720   19.9010  -32.3390 N   0  0  0  0  0  0  0  0  0  0  0  0
  -10.1130   21.1580  -32.3370 O   0  0  0  0  0  0  0  0  0  0  0  0
   -9.0830   21.9330  -32.0860 C   0  0  0  0  0  0  0  0  0  0  0  0
   -9.1570   23.4240  -32.0200 C   0  0  0  0  0  0  0  0  0  0  0  0
   -9.1729   23.7441  -30.9677 H   0  0  0  0  0  0  0  0  0  0  0  0
   -8.2793   23.8573  -32.5218 H   0  0  0  0  0  0  0  0  0  0  0  0
  -10.0733   23.7682  -32.5218 H   0  0  0  0  0  0  0  0  0  0  0  0
   -5.5430   21.2890  -32.5070 C   0  0  0  0  0  0  0  0  0  0  0  0
   -5.7596   20.7573  -33.4453 H   0  0  0  0  0  0  0  0  0  0  0  0
   -4.2340   21.6840  -32.2210 C   0  0  0  0  0  0  0  0  0  0  0  0
   -3.4381   21.4949  -32.9564 H   0  0  0  0  0  0  0  0  0  0  0  0
   -3.9170   22.3230  -31.0010 C   0  0  0  0  0  0  0  0  0  0  0  0
   -2.5920   22.7080  -30.6190 C   0  0  0  0  0  0  0  0  0  0  0  0
   -1.4940   22.2320  -31.1560 N   0  0  0  0  0  0  0  0  0  0  0  0
   -1.2990   21.0820  -31.9890 C   0  0  0  0  0  0  0  0  0  0  0  0
   -1.1620   21.2150  -33.3800 C   0  0  0  0  0  0  0  0  0  0  0  0
   -1.1824   22.2142  -33.8395 H   0  0  0  0  0  0  0  0  0  0  0  0
   -1.0000   20.0840  -34.1820 C   0  0  0  0  0  0  0  0  0  0  0  0
   -0.8755   20.1978  -35.2690 H   0  0  0  0  0  0  0  0  0  0  0  0
   -0.9950   18.8010  -33.6090 C   0  0  0  0  0  0  0  0  0  0  0  0
   -0.8160   17.5990  -34.4560 C   0  0  0  0  0  0  0  0  0  0  0  0
    0.2990   17.3940  -35.0080 O   0  0  0  0  0  0  0  0  0  0  0  0
   -1.8830   16.6530  -34.6430 N   0  0  0  0  0  0  0  0  0  0  0  0
   -1.5590   15.2190  -34.6960 C   0  0  0  0  0  0  0  0  0  0  0  0
   -0.9177   15.0302  -35.5696 H   0  0  0  0  0  0  0  0  0  0  0  0
   -1.0426   14.9488  -33.7631 H   0  0  0  0  0  0  0  0  0  0  0  0
   -2.8230   14.3570  -34.8110 C   0  0  0  0  0  0  0  0  0  0  0  0
   -3.1856   14.3798  -35.8493 H   0  0  0  0  0  0  0  0  0  0  0  0
   -2.5814   13.3237  -34.5213 H   0  0  0  0  0  0  0  0  0  0  0  0
   -3.9150   14.8960  -33.8810 C   0  0  0  0  0  0  0  0  0  0  0  0
   -4.8038   14.2540  -33.9692 H   0  0  0  0  0  0  0  0  0  0  0  0
   -3.5173   14.8912  -32.8554 H   0  0  0  0  0  0  0  0  0  0  0  0
   -4.3130   16.3450  -34.2270 C   0  0  0  0  0  0  0  0  0  0  0  0
   -5.2290   16.3181  -34.8354 H   0  0  0  0  0  0  0  0  0  0  0  0
   -4.4585   16.8755  -33.2744 H   0  0  0  0  0  0  0  0  0  0  0  0
   -3.2310   17.1120  -35.0100 C   0  0  0  0  0  0  0  0  0  0  0  0
   -3.3845   16.9495  -36.0870 H   0  0  0  0  0  0  0  0  0  0  0  0
   -3.3142   18.1807  -34.7632 H   0  0  0  0  0  0  0  0  0  0  0  0
   -1.1990   18.6700  -32.2240 C   0  0  0  0  0  0  0  0  0  0  0  0
   -1.2353   17.6692  -31.7689 H   0  0  0  0  0  0  0  0  0  0  0  0
   -1.3560   19.8040  -31.4220 C   0  0  0  0  0  0  0  0  0  0  0  0
   -1.5250   19.6913  -30.3409 H   0  0  0  0  0  0  0  0  0  0  0  0
   -2.4430   23.6260  -29.5560 C   0  0  0  0  0  0  0  0  0  0  0  0
   -1.1430   24.1270  -29.1710 C   0  0  0  0  0  0  0  0  0  0  0  0
   -0.1030   24.5290  -28.8620 N   0  0  0  0  0  0  0  0  0  0  0  0
  1  2  1  0
  2  3  1  0
  3  4  1  0
  4  5  2  0
  5  6  1  0
  5  7  1  0
  7  8  1  0
  8  9  1  0
  9 10  1  0
 10 11  1  0
 10 12  1  0
 10 13  1  0
  9 14  2  0
 14 15  1  0
 15 16  1  0
 16 17  1  0
 17 18  1  0
 17 19  1  0
 17 20  1  0
  7 21  2  0
 21 22  1  0
 21 23  1  0
 23 24  1  0
 23 25  2  0
 25 26  1  0
 26 27  2  0
 27 28  1  0
 28 29  2  0
 29 30  1  0
 29 31  1  0
 31 32  1  0
 31 33  2  0
 33 34  1  0
 34 35  2  0
 34 36  1  0
 36 37  1  0
 37 38  1  0
 37 39  1  0
 37 40  1  0
 40 41  1  0
 40 42  1  0
 40 43  1  0
 43 44  1  0
 43 45  1  0
 43 46  1  0
 46 47  1  0
 46 48  1  0
 46 49  1  0
 49 50  1  0
 49 51  1  0
 33 52  1  0
 52 53  1  0
 52 54  2  0
 54 55  1  0
 26 56  1  0
 56 57  1  0
 57 58  3  0
 56  2  2  0
 25  4  1  0
 54 28  1  0
 16  8  2  0
 49 36  1  0
M  CHG  1   3  -1
M  END
>  <UniqueID>  (22) 
21

>  <SMILES>  (22) 
Cc1noc(C)c1-c1ccc2/c(=N\c3ccc(C(=O)N4CCCCC4)cc3)c(C#N)c[n-]c2c1

>  <Energy>  (22) 
125.84372929890094

>  <Genealogy>  (22) 
Cc1noc(C)c1-c1ccc2c(=Nc3ccc(C(=O)N4CCCCC4)cc3)c(C#N)c[n-]c2c1 (protonated)
Cc1noc(C)c1-c1ccc2/c(=N\c3ccc(C(=O)N4CCCCC4)cc3)c(C#N)c[n-]c2c1 (cis-trans isomerization)
Cc1noc(C)c1-c1ccc2/c(=N\c3ccc(C(=O)N4CCCCC4)cc3)c(C#N)c[n-]c2c1 (3D coordinates assigned)
Cc1noc(C)c1-c1ccc2/c(=N\c3ccc(C(=O)N4CCCCC4)cc3)c(C#N)c[n-]c2c1 (nonaromatic ring conformer: 125.84372929890094 kcal/mol)

>  <smiles>  (22) 
Cc1noc(C)c1-c1ccc2c(=Nc3ccc(C(=O)N4CCCCC4)cc3)c(C#N)c[nH]c2c1

>  <score_type>  (22) 
oracle

>  <origin>  (22) 
adgpu

>  <m_score__min__energy>  (22) 
-9.7599999999999998

>  <m_primary>  (22) 
energy

$$$$
22:0
     RDKit          3D

 57 60  0  0  0  0  0  0  0  0999 V2000
    3.6170   25.3910  -23.0050 C   0  0  0  0  0  0  0  0  0  0  0  0
    3.0780   24.6460  -24.0930 O   0  0  0  0  0  0  0  0  0  0  0  0
    2.0920   25.1230  -24.9690 C   0  0  0  0  0  0  0  0  0  0  0  0
    1.1180   26.0600  -24.5730 C   0  0  0  0  0  0  0  0  0  0  0  0
    0.1590   26.5090  -25.4860 C   0  0  0  0  0  0  0  0  0  0  0  0
    0.1550   26.0280  -26.8040 C   0  0  0  0  0  0  0  0  0  0  0  0
   -0.8560   26.5420  -27.7940 C   0  0  0  0  0  0  0  0  0  0  0  0
   -1.1120   25.5390  -28.8270 N   0  0  0  0  0  0  0  0  0  0  0  0
   -2.0380   24.4560  -28.6300 C   0  0  0  0  0  0  0  0  0  0  0  0
   -2.7710   24.4470  -27.6050 O   0  0  0  0  0  0  0  0  0  0  0  0
   -2.1640   23.3590  -29.6200 C   0  0  0  0  0  0  0  0  0  0  0  0
   -3.2750   23.3130  -30.4790 C   0  0  0  0  0  0  0  0  0  0  0  0
   -3.4080   22.2900  -31.4210 C   0  0  0  0  0  0  0  0  0  0  0  0
   -2.4300   21.2890  -31.5270 C   0  0  0  0  0  0  0  0  0  0  0  0
   -2.5610   20.2140  -32.5420 C   0  0  0  0  0  0  0  0  0  0  0  0
   -1.4200   19.6880  -33.1760 C   0  0  0  0  0  0  0  0  0  0  0  0
   -1.5490   18.6890  -34.1440 C   0  0  0  0  0  0  0  0  0  0  0  0
   -2.8120   18.2000  -34.4870 C   0  0  0  0  0  0  0  0  0  0  0  0
   -3.9570   18.7060  -33.8570 C   0  0  0  0  0  0  0  0  0  0  0  0
   -5.5570   18.0780  -34.2470 S   0  0  0  0  0  0  0  0  0  0  0  0
   -6.1130   18.8620  -35.4010 O   0  0  0  0  0  0  0  0  0  0  0  0
   -5.4890   16.6300  -34.6440 O   0  0  0  0  0  0  0  0  0  0  0  0
   -6.6100   18.2610  -32.8820 N   0  0  0  0  0  0  0  0  0  0  0  0
   -7.3620   19.4430  -32.5680 C   0  0  0  0  0  0  0  0  0  0  0  0
   -6.7400   20.6580  -32.2190 C   0  0  0  0  0  0  0  0  0  0  0  0
   -7.5150   21.7850  -31.9210 C   0  0  0  0  0  0  0  0  0  0  0  0
   -8.9110   21.7120  -31.9710 C   0  0  0  0  0  0  0  0  0  0  0  0
   -9.5330   20.5070  -32.3130 C   0  0  0  0  0  0  0  0  0  0  0  0
   -8.7610   19.3780  -32.6070 C   0  0  0  0  0  0  0  0  0  0  0  0
   -3.8290   19.7120  -32.8900 C   0  0  0  0  0  0  0  0  0  0  0  0
   -1.3240   21.3230  -30.6620 C   0  0  0  0  0  0  0  0  0  0  0  0
   -1.1950   22.3420  -29.7130 C   0  0  0  0  0  0  0  0  0  0  0  0
    1.1270   25.0940  -27.1980 C   0  0  0  0  0  0  0  0  0  0  0  0
    2.0860   24.6470  -26.2860 C   0  0  0  0  0  0  0  0  0  0  0  0
    3.2914   24.9410  -22.0555 H   0  0  0  0  0  0  0  0  0  0  0  0
    4.7156   25.3772  -23.0597 H   0  0  0  0  0  0  0  0  0  0  0  0
    3.2602   26.4301  -23.0597 H   0  0  0  0  0  0  0  0  0  0  0  0
    1.1117   26.4403  -23.5408 H   0  0  0  0  0  0  0  0  0  0  0  0
   -0.5964   27.2433  -25.1693 H   0  0  0  0  0  0  0  0  0  0  0  0
   -1.7952   26.7691  -27.2684 H   0  0  0  0  0  0  0  0  0  0  0  0
   -0.4600   27.4515  -28.2694 H   0  0  0  0  0  0  0  0  0  0  0  0
   -0.6470   25.6670  -29.7500 H   0  0  0  0  0  0  0  0  0  0  0  0
   -4.0490   24.0915  -30.4089 H   0  0  0  0  0  0  0  0  0  0  0  0
   -4.2853   22.2689  -32.0842 H   0  0  0  0  0  0  0  0  0  0  0  0
   -0.4220   20.0652  -32.9081 H   0  0  0  0  0  0  0  0  0  0  0  0
   -0.6527   18.2858  -34.6381 H   0  0  0  0  0  0  0  0  0  0  0  0
   -2.9078   17.4164  -35.2530 H   0  0  0  0  0  0  0  0  0  0  0  0
   -5.6425   20.7212  -32.1806 H   0  0  0  0  0  0  0  0  0  0  0  0
   -7.0248   22.7308  -31.6467 H   0  0  0  0  0  0  0  0  0  0  0  0
   -9.5181   22.6002  -31.7419 H   0  0  0  0  0  0  0  0  0  0  0  0
  -10.6307   20.4469  -32.3509 H   0  0  0  0  0  0  0  0  0  0  0  0
   -9.2562   18.4319  -32.8708 H   0  0  0  0  0  0  0  0  0  0  0  0
   -4.7276   20.1130  -32.3984 H   0  0  0  0  0  0  0  0  0  0  0  0
   -0.5529   20.5416  -30.7316 H   0  0  0  0  0  0  0  0  0  0  0  0
   -0.3297   22.3489  -29.0339 H   0  0  0  0  0  0  0  0  0  0  0  0
    1.1332   24.7126  -28.2297 H   0  0  0  0  0  0  0  0  0  0  0  0
    2.8427   23.9151  -26.6049 H   0  0  0  0  0  0  0  0  0  0  0  0
  1  2  1  0
  2  3  1  0
  3  4  2  0
  4  5  1  0
  5  6  2  0
  6  7  1  0
  7  8  1  0
  8  9  1  0
  9 10  2  0
  9 11  1  0
 11 12  2  0
 12 13  1  0
 13 14  2  0
 14 15  1  0
 15 16  2  0
 16 17  1  0
 17 18  2  0
 18 19  1  0
 19 20  1  0
 20 21  2  0
 20 22  2  0
 20 23  1  0
 23 24  1  0
 24 25  2  0
 25 26  1  0
 26 27  2  0
 27 28  1  0
 28 29  2  0
 19 30  2  0
 14 31  1  0
 31 32  2  0
  6 33  1  0
 33 34  2  0
 34  3  1  0
 32 11  1  0
 30 15  1  0
 29 24  1  0
  1 35  1  0
  1 36  1  0
  1 37  1  0
  4 38  1  0
  5 39  1  0
  7 40  1  0
  7 41  1  0
  8 42  1  0
 12 43  1  0
 13 44  1  0
 16 45  1  0
 17 46  1  0
 18 47  1  0
 25 48  1  0
 26 49  1  0
 27 50  1  0
 28 51  1  0
 29 52  1  0
 30 53  1  0
 31 54  1  0
 32 55  1  0
 33 56  1  0
 34 57  1  0
M  CHG  1  23  -1
M  END
>  <UniqueID>  (23) 
22

>  <SMILES>  (23) 
COc1ccc(CNC(=O)c2ccc(-c3cccc(S(=O)(=O)[N-]c4ccccc4)c3)cc2)cc1

>  <Energy>  (23) 
69.56640694360425

>  <Genealogy>  (23) 
COc1ccc(CNC(=O)c2ccc(-c3cccc(S(=O)(=O)[N-]c4ccccc4)c3)cc2)cc1 (protonated)
COc1ccc(CNC(=O)c2ccc(-c3cccc(S(=O)(=O)[N-]c4ccccc4)c3)cc2)cc1 (3D coordinates assigned)
COc1ccc(CNC(=O)c2ccc(-c3cccc(S(=O)(=O)[N-]c4ccccc4)c3)cc2)cc1 (optimized conformer: 69.56640694360425 kcal/mol)

>  <smiles>  (23) 
COc1ccc(CNC(=O)c2ccc(-c3cccc(S(=O)(=O)Nc4ccccc4)c3)cc2)cc1

>  <score_type>  (23) 
oracle

>  <origin>  (23) 
adgpu

>  <m_score__min__energy>  (23) 
-9.9600000000000009

>  <m_primary>  (23) 
energy

$$$$
23:0
     RDKit          3D

 27 28  0  0  0  0  0  0  0  0999 V2000
   -9.1130   18.6140  -31.2990 C   0  0  0  0  0  0  0  0  0  0  0  0
   -7.9400   18.8930  -32.2030 C   0  0  0  0  0  0  0  0  0  0  0  0
   -7.2180   17.8070  -32.7290 C   0  0  0  0  0  0  0  0  0  0  0  0
   -6.1410   18.0200  -33.5930 C   0  0  0  0  0  0  0  0  0  0  0  0
   -5.2600   16.6540  -34.2510 Cl  0  0  0  0  0  0  0  0  0  0  0  0
   -5.7690   19.3210  -33.9370 C   0  0  0  0  0  0  0  0  0  0  0  0
   -6.4610   20.4110  -33.4070 C   0  0  0  0  0  0  0  0  0  0  0  0
   -7.5330   20.2130  -32.5210 C   0  0  0  0  0  0  0  0  0  0  0  0
   -8.2130   21.4000  -31.9650 C   0  0  0  0  0  0  0  0  0  0  0  0
   -9.4510   21.5400  -32.1550 O   0  0  0  0  0  0  0  0  0  0  0  0
   -7.4690   22.4400  -31.2320 C   0  0  0  0  0  0  0  0  0  0  0  0
   -7.3180   22.5440  -29.8590 C   0  0  0  0  0  0  0  0  0  0  0  0
   -6.5500   23.6080  -29.5650 N   0  0  0  0  0  0  0  0  0  0  0  0
   -6.2060   24.1780  -30.7360 C   0  0  0  0  0  0  0  0  0  0  0  0
   -5.3620   25.3710  -30.8590 C   0  0  0  0  0  0  0  0  0  0  0  0
   -4.1080   25.2740  -30.8200 O   0  0  0  0  0  0  0  0  0  0  0  0
   -6.7530   23.4810  -31.7950 C   0  0  0  0  0  0  0  0  0  0  0  0
   -8.7932   18.6901  -30.2493 H   0  0  0  0  0  0  0  0  0  0  0  0
   -9.9089   19.3479  -31.4939 H   0  0  0  0  0  0  0  0  0  0  0  0
   -9.4932   17.6004  -31.4939 H   0  0  0  0  0  0  0  0  0  0  0  0
   -7.5039   16.7801  -32.4576 H   0  0  0  0  0  0  0  0  0  0  0  0
   -4.9288   19.4873  -34.6272 H   0  0  0  0  0  0  0  0  0  0  0  0
   -6.1647   21.4331  -33.6852 H   0  0  0  0  0  0  0  0  0  0  0  0
   -7.7599   21.8592  -29.1202 H   0  0  0  0  0  0  0  0  0  0  0  0
   -6.2730   23.9220  -28.6080 H   0  0  0  0  0  0  0  0  0  0  0  0
   -5.8290   26.3588  -30.9864 H   0  0  0  0  0  0  0  0  0  0  0  0
   -6.6422   23.7070  -32.8658 H   0  0  0  0  0  0  0  0  0  0  0  0
  1  2  1  0
  2  3  2  0
  3  4  1  0
  4  5  1  0
  4  6  2  0
  6  7  1  0
  7  8  2  0
  8  9  1  0
  9 10  2  0
  9 11  1  0
 11 12  2  0
 12 13  1  0
 13 14  1  0
 14 15  1  0
 15 16  2  0
 14 17  2  0
  8  2  1  0
 17 11  1  0
  1 18  1  0
  1 19  1  0
  1 20  1  0
  3 21  1  0
  6 22  1  0
  7 23  1  0
 12 24  1  0
 13 25  1  0
 15 26  1  0
 17 27  1  0
M  END
>  <UniqueID>  (24) 
23

>  <SMILES>  (24) 
Cc1cc(Cl)ccc1C(=O)c1c[nH]c(C=O)c1

>  <Energy>  (24) 
58.21440397602536

>  <Genealogy>  (24) 
Cc1cc(Cl)ccc1C(=O)c1c[nH]c(C=O)c1 (3D coordinates assigned)
Cc1cc(Cl)ccc1C(=O)c1c[nH]c(C=O)c1 (optimized conformer: 58.21440397602536 kcal/mol)

>  <smiles>  (24) 
Cc1cc(Cl)ccc1C(=O)c1c[nH]c(C=O)c1

>  <score_type>  (24) 
oracle

>  <origin>  (24) 
adgpu

>  <m_score__min__energy>  (24) 
-8.3000000000000007

>  <m_primary>  (24) 
energy

$$$$
24:0
     RDKit          3D

 47 49  0  0  0  0  0  0  0  0999 V2000
   -1.1700   26.4770  -24.3570 C   0  0  0  0  0  0  0  0  0  0  0  0
   -1.0840   25.2530  -25.0790 O   0  0  0  0  0  0  0  0  0  0  0  0
   -1.9410   24.8910  -26.1290 C   0  0  0  0  0  0  0  0  0  0  0  0
   -1.3750   24.4560  -27.3320 C   0  0  0  0  0  0  0  0  0  0  0  0
   -2.1870   24.0920  -28.4110 C   0  0  0  0  0  0  0  0  0  0  0  0
   -3.5870   24.1750  -28.3070 C   0  0  0  0  0  0  0  0  0  0  0  0
   -4.4520   23.8120  -29.3970 N   0  0  0  0  0  0  0  0  0  0  0  0
   -4.6290   24.5960  -30.5920 C   0  0  0  0  0  0  0  0  0  0  0  0
   -3.8650   25.5640  -30.8460 O   0  0  0  0  0  0  0  0  0  0  0  0
   -5.6650   24.2770  -31.5290 N   0  0  0  0  0  0  0  0  0  0  0  0
   -6.3990   23.0450  -31.5760 C   0  0  0  0  0  0  0  0  0  0  0  0
   -7.7660   23.0820  -31.8680 C   0  0  0  0  0  0  0  0  0  0  0  0
   -8.5090   21.9010  -31.9040 C   0  0  0  0  0  0  0  0  0  0  0  0
   -7.8770   20.6900  -31.6230 C   0  0  0  0  0  0  0  0  0  0  0  0
   -6.5560   20.6690  -31.3050 N   0  0  0  0  0  0  0  0  0  0  0  0
   -5.8020   21.8050  -31.2720 C   0  0  0  0  0  0  0  0  0  0  0  0
   -4.4600   21.7540  -30.8750 O   0  0  0  0  0  0  0  0  0  0  0  0
   -3.3640   21.4830  -31.7080 C   0  0  0  0  0  0  0  0  0  0  0  0
   -3.5140   21.0430  -33.0370 C   0  0  0  0  0  0  0  0  0  0  0  0
   -2.3890   20.8410  -33.8430 C   0  0  0  0  0  0  0  0  0  0  0  0
   -1.1060   21.0860  -33.3380 C   0  0  0  0  0  0  0  0  0  0  0  0
    0.3100   20.8330  -34.3520 S   0  0  0  0  0  0  0  0  0  0  0  0
    1.4370   19.7300  -33.5300 C   0  0  0  0  0  0  0  0  0  0  0  0
    0.9910   22.1470  -34.6120 O   0  0  0  0  0  0  0  0  0  0  0  0
   -0.1050   20.2370  -35.6690 O   0  0  0  0  0  0  0  0  0  0  0  0
   -0.9550   21.5210  -32.0150 C   0  0  0  0  0  0  0  0  0  0  0  0
   -2.0790   21.7230  -31.2100 C   0  0  0  0  0  0  0  0  0  0  0  0
   -4.1530   24.5750  -27.0870 C   0  0  0  0  0  0  0  0  0  0  0  0
   -3.3430   24.9430  -26.0110 C   0  0  0  0  0  0  0  0  0  0  0  0
   -1.1553   26.2676  -23.2772 H   0  0  0  0  0  0  0  0  0  0  0  0
   -0.3146   27.1175  -24.6180 H   0  0  0  0  0  0  0  0  0  0  0  0
   -2.1065   26.9916  -24.6180 H   0  0  0  0  0  0  0  0  0  0  0  0
   -0.2808   24.3997  -27.4303 H   0  0  0  0  0  0  0  0  0  0  0  0
   -1.7280   23.7388  -29.3462 H   0  0  0  0  0  0  0  0  0  0  0  0
   -5.0950   23.0030  -29.2470 H   0  0  0  0  0  0  0  0  0  0  0  0
   -8.2575   24.0451  -32.0700 H   0  0  0  0  0  0  0  0  0  0  0  0
   -9.5806   21.9251  -32.1511 H   0  0  0  0  0  0  0  0  0  0  0  0
   -8.4485   19.7508  -31.6588 H   0  0  0  0  0  0  0  0  0  0  0  0
   -4.5194   20.8575  -33.4428 H   0  0  0  0  0  0  0  0  0  0  0  0
   -2.5124   20.4883  -34.8776 H   0  0  0  0  0  0  0  0  0  0  0  0
    1.3268   19.8379  -32.4409 H   0  0  0  0  0  0  0  0  0  0  0  0
    1.2125   18.6930  -33.8203 H   0  0  0  0  0  0  0  0  0  0  0  0
    2.4689   19.9768  -33.8203 H   0  0  0  0  0  0  0  0  0  0  0  0
    0.0508   21.7040  -31.6089 H   0  0  0  0  0  0  0  0  0  0  0  0
   -1.9523   22.0739  -30.1752 H   0  0  0  0  0  0  0  0  0  0  0  0
   -5.2472   24.5989  -26.9771 H   0  0  0  0  0  0  0  0  0  0  0  0
   -3.8018   25.2747  -25.0679 H   0  0  0  0  0  0  0  0  0  0  0  0
  1  2  1  0
  2  3  1  0
  3  4  2  0
  4  5  1  0
  5  6  2  0
  6  7  1  0
  7  8  1  0
  8  9  2  0
  8 10  1  0
 10 11  1  0
 11 12  2  0
 12 13  1  0
 13 14  2  0
 14 15  1  0
 15 16  2  0
 16 17  1  0
 17 18  1  0
 18 19  2  0
 19 20  1  0
 20 21  2  0
 21 22  1  0
 22 23  1  0
 22 24  2  0
 22 25  2  0
 21 26  1  0
 26 27  2  0
  6 28  1  0
 28 29  2  0
 29  3  1  0
 16 11  1  0
 27 18  1  0
  1 30  1  0
  1 31  1  0
  1 32  1  0
  4 33  1  0
  5 34  1  0
  7 35  1  0
 12 36  1  0
 13 37  1  0
 14 38  1  0
 19 39  1  0
 20 40  1  0
 23 41  1  0
 23 42  1  0
 23 43  1  0
 26 44  1  0
 27 45  1  0
 28 46  1  0
 29 47  1  0
M  CHG  1  10  -1
M  END
>  <UniqueID>  (25) 
24

>  <SMILES>  (25) 
COc1ccc(NC(=O)[N-]c2cccnc2Oc2ccc(S(C)(=O)=O)cc2)cc1

>  <Energy>  (25) 
58.66803758395478

>  <Genealogy>  (25) 
COc1ccc(NC(=O)[N-]c2cccnc2Oc2ccc(S(C)(=O)=O)cc2)cc1 (protonated)
COc1ccc(NC(=O)[N-]c2cccnc2Oc2ccc(S(C)(=O)=O)cc2)cc1 (3D coordinates assigned)
COc1ccc(NC(=O)[N-]c2cccnc2Oc2ccc(S(C)(=O)=O)cc2)cc1 (optimized conformer: 58.66803758395478 kcal/mol)

>  <smiles>  (25) 
COc1ccc(NC(=O)Nc2cccnc2Oc2ccc(S(C)(=O)=O)cc2)cc1

>  <score_type>  (25) 
oracle

>  <origin>  (25) 
adgpu

>  <m_score__min__energy>  (25) 
-9.2699999999999996

>  <m_primary>  (25) 
energy

$$$$
25:0
     RDKit          3D

 42 45  0  0  0  0  0  0  0  0999 V2000
   -0.7860   27.0230  -29.6820 H   0  0  0  0  0  0  0  0  0  0  0  0
   -1.2350   26.4280  -28.9520 N   0  0  0  0  0  0  0  0  0  0  0  0
   -0.7680   25.1060  -28.6900 C   0  0  0  0  0  0  0  0  0  0  0  0
    0.2850   24.9590  -28.0110 O   0  0  0  0  0  0  0  0  0  0  0  0
   -1.4990   23.9130  -29.1990 C   0  0  0  0  0  0  0  0  0  0  0  0
   -0.9470   22.6320  -29.0060 C   0  0  0  0  0  0  0  0  0  0  0  0
    0.0165   22.5288  -28.4854 H   0  0  0  0  0  0  0  0  0  0  0  0
   -1.6070   21.4910  -29.4670 C   0  0  0  0  0  0  0  0  0  0  0  0
   -1.1528   20.5000  -29.3201 H   0  0  0  0  0  0  0  0  0  0  0  0
   -2.8470   21.6010  -30.1170 C   0  0  0  0  0  0  0  0  0  0  0  0
   -3.5410   20.4550  -30.6390 N   0  0  0  0  0  0  0  0  0  0  0  0
   -3.3920   19.9190  -31.8150 C   0  0  0  0  0  0  0  0  0  0  0  0
   -2.4460   20.3660  -32.6830 N   0  0  0  0  0  0  0  0  0  0  0  0
   -2.2950   19.7750  -33.8920 C   0  0  0  0  0  0  0  0  0  0  0  0
   -1.5336   20.1459  -34.5939 H   0  0  0  0  0  0  0  0  0  0  0  0
   -3.0820   18.7260  -34.2380 N   0  0  0  0  0  0  0  0  0  0  0  0
   -4.0250   18.2600  -33.3740 C   0  0  0  0  0  0  0  0  0  0  0  0
   -4.8610   17.1440  -33.7440 N   0  0  0  0  0  0  0  0  0  0  0  0
   -4.2670   15.7920  -33.7540 C   0  0  0  0  0  0  0  0  0  0  0  0
   -3.9459   15.5460  -32.7311 H   0  0  0  0  0  0  0  0  0  0  0  0
   -3.4265   15.8150  -34.4632 H   0  0  0  0  0  0  0  0  0  0  0  0
   -5.2160   14.7160  -34.2280 C   0  0  0  0  0  0  0  0  0  0  0  0
   -4.7050   13.4560  -34.5820 C   0  0  0  0  0  0  0  0  0  0  0  0
   -3.6203   13.2762  -34.5472 H   0  0  0  0  0  0  0  0  0  0  0  0
   -5.5670   12.4300  -34.9780 C   0  0  0  0  0  0  0  0  0  0  0  0
   -5.1589   11.4496  -35.2648 H   0  0  0  0  0  0  0  0  0  0  0  0
   -6.9460   12.6480  -35.0100 C   0  0  0  0  0  0  0  0  0  0  0  0
   -7.6233   11.8385  -35.3198 H   0  0  0  0  0  0  0  0  0  0  0  0
   -7.4660   13.8930  -34.6490 C   0  0  0  0  0  0  0  0  0  0  0  0
   -8.5534   14.0581  -34.6642 H   0  0  0  0  0  0  0  0  0  0  0  0
   -6.6060   14.9340  -34.2670 C   0  0  0  0  0  0  0  0  0  0  0  0
   -7.1630   16.2600  -33.8460 C   0  0  0  0  0  0  0  0  0  0  0  0
   -7.2829   16.2736  -32.7526 H   0  0  0  0  0  0  0  0  0  0  0  0
   -8.1384   16.4111  -34.3316 H   0  0  0  0  0  0  0  0  0  0  0  0
   -6.2180   17.3830  -34.2640 C   0  0  0  0  0  0  0  0  0  0  0  0
   -6.5938   18.3374  -33.8666 H   0  0  0  0  0  0  0  0  0  0  0  0
   -6.1742   17.4169  -35.3626 H   0  0  0  0  0  0  0  0  0  0  0  0
   -4.1700   18.8630  -32.1630 N   0  0  0  0  0  0  0  0  0  0  0  0
   -3.3850   22.8710  -30.3430 C   0  0  0  0  0  0  0  0  0  0  0  0
   -4.3354   22.9683  -30.8882 H   0  0  0  0  0  0  0  0  0  0  0  0
   -2.7310   24.0210  -29.8850 C   0  0  0  0  0  0  0  0  0  0  0  0
   -3.3230   25.2570  -30.1220 O   0  0  0  0  0  0  0  0  0  0  0  0
  1  2  1  0
  2  3  1  0
  3  4  2  0
  3  5  1  0
  5  6  2  0
  6  7  1  0
  6  8  1  0
  8  9  1  0
  8 10  2  0
 10 11  1  0
 11 12  2  0
 12 13  1  0
 13 14  2  0
 14 15  1  0
 14 16  1  0
 16 17  1  0
 17 18  1  0
 18 19  1  0
 19 20  1  0
 19 21  1  0
 19 22  1  0
 22 23  2  0
 23 24  1  0
 23 25  1  0
 25 26  1  0
 25 27  2  0
 27 28  1  0
 27 29  1  0
 29 30  1  0
 29 31  2  0
 31 32  1  0
 32 33  1  0
 32 34  1  0
 32 35  1  0
 35 36  1  0
 35 37  1  0
 17 38  2  0
 10 39  1  0
 39 40  1  0
 39 41  2  0
 41 42  1  0
 41  5  1  0
 38 12  1  0
 35 18  1  0
 31 22  1  0
M  CHG  3   2  -1  16  -1  42  -1
M  END
>  <UniqueID>  (26) 
25

>  <SMILES>  (26) 
[NH-]C(=O)c1ccc(/N=c2\nc[n-]c(N3CCc4ccccc4C3)n2)cc1[O-]

>  <Energy>  (26) 
58.37055276450159

>  <Genealogy>  (26) 
[NH-]C(=O)c1ccc(N=c2nc[n-]c(N3CCc4ccccc4C3)n2)cc1[O-] (protonated)
[NH-]C(=O)c1ccc(/N=c2\nc[n-]c(N3CCc4ccccc4C3)n2)cc1[O-] (cis-trans isomerization)
[NH-]C(=O)c1ccc(/N=c2\nc[n-]c(N3CCc4ccccc4C3)n2)cc1[O-] (3D coordinates assigned)
[NH-]C(=O)c1ccc(/N=c2\nc[n-]c(N3CCc4ccccc4C3)n2)cc1[O-] (nonaromatic ring conformer: 58.37055276450159 kcal/mol)

>  <smiles>  (26) 
NC(=O)c1ccc(N=c2nc[nH]c(N3CCc4ccccc4C3)n2)cc1O

>  <score_type>  (26) 
oracle

>  <origin>  (26) 
adgpu

>  <m_score__min__energy>  (26) 
-12.08

>  <m_primary>  (26) 
energy

$$$$
26:0
     RDKit          3D

 34 36  0  0  0  0  0  0  0  0999 V2000
    0.1960   23.3070  -28.0650 C   0  0  0  0  0  0  0  0  0  0  0  0
   -0.4970   22.3540  -28.8150 C   0  0  0  0  0  0  0  0  0  0  0  0
   -1.7480   22.6640  -29.3570 C   0  0  0  0  0  0  0  0  0  0  0  0
   -2.3160   23.9330  -29.1530 C   0  0  0  0  0  0  0  0  0  0  0  0
   -3.6380   24.2570  -29.7260 C   0  0  0  0  0  0  0  0  0  0  0  0
   -4.7420   23.5000  -29.5420 N   0  0  0  0  0  0  0  0  0  0  0  0
   -5.6870   24.1700  -30.2300 C   0  0  0  0  0  0  0  0  0  0  0  0
   -7.1030   23.7040  -30.3830 C   0  0  0  0  0  0  0  0  0  0  0  0
   -7.2790   22.9490  -31.6430 N   0  0  0  0  0  0  0  0  0  0  0  0
   -8.7140   22.6760  -31.9140 C   0  0  0  0  0  0  0  0  0  0  0  0
   -9.1810   21.3240  -31.3640 C   0  0  0  0  0  0  0  0  0  0  0  0
   -8.4390   19.9260  -32.2830 S   0  0  0  0  0  0  0  0  0  0  0  0
   -6.8570   20.7320  -32.7320 C   0  0  0  0  0  0  0  0  0  0  0  0
   -6.4180   21.7390  -31.6690 C   0  0  0  0  0  0  0  0  0  0  0  0
   -5.1330   25.2860  -30.8120 C   0  0  0  0  0  0  0  0  0  0  0  0
   -3.8680   25.3130  -30.4780 O   0  0  0  0  0  0  0  0  0  0  0  0
   -1.6100   24.8860  -28.3950 C   0  0  0  0  0  0  0  0  0  0  0  0
   -0.3590   24.5710  -27.8550 C   0  0  0  0  0  0  0  0  0  0  0  0
    1.1801   23.0615  -27.6393 H   0  0  0  0  0  0  0  0  0  0  0  0
   -0.0582   21.3588  -28.9794 H   0  0  0  0  0  0  0  0  0  0  0  0
   -2.2906   21.9103  -29.9464 H   0  0  0  0  0  0  0  0  0  0  0  0
   -7.3613   23.0533  -29.5346 H   0  0  0  0  0  0  0  0  0  0  0  0
   -7.7614   24.5849  -30.4072 H   0  0  0  0  0  0  0  0  0  0  0  0
   -9.3159   23.4705  -31.4486 H   0  0  0  0  0  0  0  0  0  0  0  0
   -8.8431   22.6491  -33.0061 H   0  0  0  0  0  0  0  0  0  0  0  0
   -8.8895   21.2498  -30.3059 H   0  0  0  0  0  0  0  0  0  0  0  0
  -10.2737   21.2670  -31.4770 H   0  0  0  0  0  0  0  0  0  0  0  0
   -6.0799   19.9604  -32.8356 H   0  0  0  0  0  0  0  0  0  0  0  0
   -7.0023   21.2722  -33.6791 H   0  0  0  0  0  0  0  0  0  0  0  0
   -6.4621   21.2532  -30.6831 H   0  0  0  0  0  0  0  0  0  0  0  0
   -5.3955   22.0611  -31.9153 H   0  0  0  0  0  0  0  0  0  0  0  0
   -5.6565   26.0203  -31.4419 H   0  0  0  0  0  0  0  0  0  0  0  0
   -2.0440   25.8826  -28.2267 H   0  0  0  0  0  0  0  0  0  0  0  0
    0.1885   25.3200  -27.2640 H   0  0  0  0  0  0  0  0  0  0  0  0
  1  2  2  0
  2  3  1  0
  3  4  2  0
  4  5  1  0
  5  6  2  0
  6  7  1  0
  7  8  1  0
  8  9  1  0
  9 10  1  0
 10 11  1  0
 11 12  1  0
 12 13  1  0
 13 14  1  0
  7 15  2  0
 15 16  1  0
  4 17  1  0
 17 18  2  0
 18  1  1  0
 16  5  1  0
 14  9  1  0
  1 19  1  0
  2 20  1  0
  3 21  1  0
  8 22  1  0
  8 23  1  0
 10 24  1  0
 10 25  1  0
 11 26  1  0
 11 27  1  0
 13 28  1  0
 13 29  1  0
 14 30  1  0
 14 31  1  0
 15 32  1  0
 17 33  1  0
 18 34  1  0
M  END
>  <UniqueID>  (27) 
26

>  <SMILES>  (27) 
c1ccc(-c2nc(CN3CCSCC3)co2)cc1

>  <Energy>  (27) 
70.73948064297653

>  <Genealogy>  (27) 
c1ccc(-c2nc(CN3CCSCC3)co2)cc1 (3D coordinates assigned)
c1ccc(-c2nc(CN3CCSCC3)co2)cc1 (nonaromatic ring conformer: 70.73948064297653 kcal/mol)

>  <smiles>  (27) 
c1ccc(-c2nc(CN3CCSCC3)co2)cc1

>  <score_type>  (27) 
oracle

>  <origin>  (27) 
adgpu

>  <m_score__min__energy>  (27) 
-7.4100000000000001

>  <m_primary>  (27) 
energy

$$$$
27:0
     RDKit          3D

 39 41  0  0  0  0  0  0  0  0999 V2000
   -3.5180   25.0640  -30.4810 N   0  0  0  0  0  0  0  0  0  0  0  0
   -3.9670   23.7150  -30.3660 C   0  0  0  0  0  0  0  0  0  0  0  0
   -4.6860   23.3980  -29.3810 O   0  0  0  0  0  0  0  0  0  0  0  0
   -3.5910   22.6870  -31.3760 C   0  0  0  0  0  0  0  0  0  0  0  0
   -2.3530   22.0260  -31.2500 C   0  0  0  0  0  0  0  0  0  0  0  0
   -1.9580   21.0540  -32.1760 C   0  0  0  0  0  0  0  0  0  0  0  0
   -0.4070   20.2390  -31.9860 S   0  0  0  0  0  0  0  0  0  0  0  0
   -0.5890   19.0440  -31.0950 O   0  0  0  0  0  0  0  0  0  0  0  0
    0.6040   21.1640  -31.3700 O   0  0  0  0  0  0  0  0  0  0  0  0
    0.1790   19.7140  -33.5320 N   0  0  0  0  0  0  0  0  0  0  0  0
    0.5820   20.5340  -34.4520 C   0  0  0  0  0  0  0  0  0  0  0  0
    0.5920   21.8780  -34.3130 N   0  0  0  0  0  0  0  0  0  0  0  0
    1.0550   22.4870  -35.4370 C   0  0  0  0  0  0  0  0  0  0  0  0
    1.4130   21.6260  -36.4690 C   0  0  0  0  0  0  0  0  0  0  0  0
    1.1400   20.0470  -35.9560 S   0  0  0  0  0  0  0  0  0  0  0  0
   -2.7990   20.7310  -33.2430 C   0  0  0  0  0  0  0  0  0  0  0  0
   -4.0300   21.3710  -33.3830 C   0  0  0  0  0  0  0  0  0  0  0  0
   -4.4350   22.3580  -32.4650 C   0  0  0  0  0  0  0  0  0  0  0  0
   -5.6910   22.9710  -32.5960 O   0  0  0  0  0  0  0  0  0  0  0  0
   -6.9240   22.3650  -32.3190 C   0  0  0  0  0  0  0  0  0  0  0  0
   -8.0230   23.1810  -32.0290 C   0  0  0  0  0  0  0  0  0  0  0  0
   -9.2670   22.6160  -31.7460 C   0  0  0  0  0  0  0  0  0  0  0  0
   -9.4310   21.2290  -31.7720 C   0  0  0  0  0  0  0  0  0  0  0  0
   -8.3520   20.3930  -32.1100 C   0  0  0  0  0  0  0  0  0  0  0  0
   -8.5160   18.8940  -32.1090 C   0  0  0  0  0  0  0  0  0  0  0  0
   -8.1700   18.3670  -30.8760 F   0  0  0  0  0  0  0  0  0  0  0  0
   -9.8340   18.5790  -32.3780 F   0  0  0  0  0  0  0  0  0  0  0  0
   -7.7080   18.3090  -33.0690 F   0  0  0  0  0  0  0  0  0  0  0  0
   -7.0960   20.9690  -32.3670 C   0  0  0  0  0  0  0  0  0  0  0  0
   -2.5010   25.2970  -30.4410 H   0  0  0  0  0  0  0  0  0  0  0  0
   -1.6872   22.2777  -30.4114 H   0  0  0  0  0  0  0  0  0  0  0  0
    1.1402   23.5803  -35.5238 H   0  0  0  0  0  0  0  0  0  0  0  0
    1.8068   21.9257  -37.4514 H   0  0  0  0  0  0  0  0  0  0  0  0
   -2.4897   19.9701  -33.9747 H   0  0  0  0  0  0  0  0  0  0  0  0
   -4.6914   21.1016  -34.2196 H   0  0  0  0  0  0  0  0  0  0  0  0
   -7.9055   24.2747  -32.0241 H   0  0  0  0  0  0  0  0  0  0  0  0
  -10.1211   23.2647  -31.5017 H   0  0  0  0  0  0  0  0  0  0  0  0
  -10.4088   20.7887  -31.5269 H   0  0  0  0  0  0  0  0  0  0  0  0
   -6.2393   20.3225  -32.6080 H   0  0  0  0  0  0  0  0  0  0  0  0
  1  2  1  0
  2  3  2  0
  2  4  1  0
  4  5  2  0
  5  6  1  0
  6  7  1  0
  7  8  2  0
  7  9  2  0
  7 10  1  0
 10 11  2  3
 11 12  1  0
 12 13  1  0
 13 14  2  0
 14 15  1  0
  6 16  2  0
 16 17  1  0
 17 18  2  0
 18 19  1  0
 19 20  1  0
 20 21  2  0
 21 22  1  0
 22 23  2  0
 23 24  1  0
 24 25  1  0
 25 26  1  0
 25 27  1  0
 25 28  1  0
 24 29  2  0
 18  4  1  0
 29 20  1  0
 15 11  1  0
  1 30  1  0
  5 31  1  0
 13 32  1  0
 14 33  1  0
 16 34  1  0
 17 35  1  0
 21 36  1  0
 22 37  1  0
 23 38  1  0
 29 39  1  0
M  CHG  2   1  -1  12  -1
M  END
>  <UniqueID>  (28) 
27

>  <SMILES>  (28) 
[NH-]C(=O)c1cc(S(=O)(=O)N=c2[n-]ccs2)ccc1Oc1cccc(C(F)(F)F)c1

>  <Energy>  (28) 
83.41144624385417

>  <Genealogy>  (28) 
[NH-]C(=O)c1cc(S(=O)(=O)N=c2[n-]ccs2)ccc1Oc1cccc(C(F)(F)F)c1 (protonated)
[NH-]C(=O)c1cc(S(=O)(=O)N=c2[n-]ccs2)ccc1Oc1cccc(C(F)(F)F)c1 (3D coordinates assigned)
[NH-]C(=O)c1cc(S(=O)(=O)N=c2[n-]ccs2)ccc1Oc1cccc(C(F)(F)F)c1 (optimized conformer: 83.41144624385417 kcal/mol)

>  <smiles>  (28) 
NC(=O)c1cc(S(=O)(=O)N=c2[nH]ccs2)ccc1Oc1cccc(C(F)(F)F)c1

>  <score_type>  (28) 
oracle

>  <origin>  (28) 
adgpu

>  <m_score__min__energy>  (28) 
-10.83

>  <m_primary>  (28) 
energy

$$$$
28:0
     RDKit          3D

 34 35  0  0  0  0  0  0  0  0999 V2000
   -3.6820   21.9210  -33.4780 N   0  0  0  0  0  0  0  0  0  0  0  0
   -3.7070   20.6640  -32.7330 C   0  0  0  0  0  0  0  0  0  0  0  0
   -4.4490   19.5790  -33.5190 C   0  0  0  0  0  0  0  0  0  0  0  0
   -5.7970   19.2750  -32.9180 C   0  0  0  0  0  0  0  0  0  0  0  0
   -6.0150   18.0680  -32.2350 C   0  0  0  0  0  0  0  0  0  0  0  0
   -7.2730   17.7800  -31.7020 C   0  0  0  0  0  0  0  0  0  0  0  0
   -8.3220   18.6910  -31.8480 C   0  0  0  0  0  0  0  0  0  0  0  0
   -8.1280   19.8980  -32.5290 C   0  0  0  0  0  0  0  0  0  0  0  0
   -9.2160   20.7770  -32.6440 O   0  0  0  0  0  0  0  0  0  0  0  0
   -9.4620   21.9010  -31.7980 C   0  0  0  0  0  0  0  0  0  0  0  0
   -8.1710   22.5620  -31.3940 C   0  0  0  0  0  0  0  0  0  0  0  0
   -7.6240   22.3400  -30.1180 C   0  0  0  0  0  0  0  0  0  0  0  0
   -6.4220   22.9530  -29.7510 C   0  0  0  0  0  0  0  0  0  0  0  0
   -5.7530   23.7840  -30.6560 C   0  0  0  0  0  0  0  0  0  0  0  0
   -4.2450   24.5520  -30.1940 Cl  0  0  0  0  0  0  0  0  0  0  0  0
   -6.2860   23.9970  -31.9320 C   0  0  0  0  0  0  0  0  0  0  0  0
   -7.4870   23.3870  -32.3020 C   0  0  0  0  0  0  0  0  0  0  0  0
   -6.8590   20.1820  -33.0720 C   0  0  0  0  0  0  0  0  0  0  0  0
   -2.9890   21.8280  -34.2560 H   0  0  0  0  0  0  0  0  0  0  0  0
   -4.6160   22.0390  -33.9330 H   0  0  0  0  0  0  0  0  0  0  0  0
   -2.6741   20.3333  -32.5494 H   0  0  0  0  0  0  0  0  0  0  0  0
   -4.2317   20.8297  -31.7805 H   0  0  0  0  0  0  0  0  0  0  0  0
   -4.5902   19.9230  -34.5542 H   0  0  0  0  0  0  0  0  0  0  0  0
   -3.8452   18.6601  -33.4864 H   0  0  0  0  0  0  0  0  0  0  0  0
   -5.1923   17.3470  -32.1194 H   0  0  0  0  0  0  0  0  0  0  0  0
   -7.4384   16.8338  -31.1660 H   0  0  0  0  0  0  0  0  0  0  0  0
   -9.3096   18.4574  -31.4237 H   0  0  0  0  0  0  0  0  0  0  0  0
  -10.0856   22.6286  -32.3381 H   0  0  0  0  0  0  0  0  0  0  0  0
   -9.9771   21.5521  -30.8909 H   0  0  0  0  0  0  0  0  0  0  0  0
   -8.1434   21.6818  -29.4059 H   0  0  0  0  0  0  0  0  0  0  0  0
   -6.0017   22.7815  -28.7490 H   0  0  0  0  0  0  0  0  0  0  0  0
   -5.7579   24.6465  -32.6457 H   0  0  0  0  0  0  0  0  0  0  0  0
   -7.8987   23.5534  -33.3084 H   0  0  0  0  0  0  0  0  0  0  0  0
   -6.6985   21.1216  -33.6210 H   0  0  0  0  0  0  0  0  0  0  0  0
  1  2  1  0
  2  3  1  0
  3  4  1  0
  4  5  2  0
  5  6  1  0
  6  7  2  0
  7  8  1  0
  8  9  1  0
  9 10  1  0
 10 11  1  0
 11 12  2  0
 12 13  1  0
 13 14  2  0
 14 15  1  0
 14 16  1  0
 16 17  2  0
  8 18  2  0
 18  4  1  0
 17 11  1  0
  1 19  1  0
  1 20  1  0
  2 21  1  0
  2 22  1  0
  3 23  1  0
  3 24  1  0
  5 25  1  0
  6 26  1  0
  7 27  1  0
 10 28  1  0
 10 29  1  0
 12 30  1  0
 13 31  1  0
 16 32  1  0
 17 33  1  0
 18 34  1  0
M  END
>  <UniqueID>  (29) 
28

>  <SMILES>  (29) 
NCCc1cccc(OCc2ccc(Cl)cc2)c1

>  <Energy>  (29) 
29.874227206416034

>  <Genealogy>  (29) 
NCCc1cccc(OCc2ccc(Cl)cc2)c1 (3D coordinates assigned)
NCCc1cccc(OCc2ccc(Cl)cc2)c1 (optimized conformer: 29.874227206416034 kcal/mol)

>  <smiles>  (29) 
NCCc1cccc(OCc2ccc(Cl)cc2)c1

>  <score_type>  (29) 
oracle

>  <origin>  (29) 
adgpu

>  <m_score__min__energy>  (29) 
-7.9100000000000001

>  <m_primary>  (29) 
energy

$$$$
29:0
     RDKit          3D

 40 42  0  0  0  0  0  0  0  0999 V2000
   -4.4390   22.8220  -32.7660 O   0  0  0  0  0  0  0  0  0  0  0  0
   -4.0760   21.6550  -32.4520 C   0  0  0  0  0  0  0  0  0  0  0  0
   -5.0170   20.7630  -31.8280 N   0  0  0  0  0  0  0  0  0  0  0  0
   -6.4360   20.9860  -31.8430 C   0  0  0  0  0  0  0  0  0  0  0  0
   -7.3020   20.0190  -32.3830 C   0  0  0  0  0  0  0  0  0  0  0  0
   -8.6860   20.2000  -32.3360 C   0  0  0  0  0  0  0  0  0  0  0  0
   -9.2220   21.3440  -31.7410 C   0  0  0  0  0  0  0  0  0  0  0  0
   -8.3750   22.3090  -31.1930 C   0  0  0  0  0  0  0  0  0  0  0  0
   -6.9830   22.1420  -31.2400 C   0  0  0  0  0  0  0  0  0  0  0  0
   -6.1340   23.1710  -30.7070 N   0  0  0  0  0  0  0  0  0  0  0  0
   -5.2560   22.8880  -29.5660 C   0  0  0  0  0  0  0  0  0  0  0  0
   -3.8650   23.5250  -29.7680 C   0  0  0  0  0  0  0  0  0  0  0  0
   -3.8670   24.7450  -30.6010 N   0  0  0  0  0  0  0  0  0  0  0  0
   -5.1640   25.4320  -30.6090 C   0  0  0  0  0  0  0  0  0  0  0  0
   -6.2360   24.5340  -31.2340 C   0  0  0  0  0  0  0  0  0  0  0  0
   -2.6720   21.2390  -32.6880 C   0  0  0  0  0  0  0  0  0  0  0  0
   -1.6590   21.5440  -31.7600 C   0  0  0  0  0  0  0  0  0  0  0  0
   -0.3400   21.1410  -31.9940 C   0  0  0  0  0  0  0  0  0  0  0  0
   -0.0200   20.4270  -33.1510 C   0  0  0  0  0  0  0  0  0  0  0  0
   -1.0180   20.1100  -34.0740 C   0  0  0  0  0  0  0  0  0  0  0  0
   -2.3380   20.5090  -33.8450 C   0  0  0  0  0  0  0  0  0  0  0  0
   -4.6490   19.9720  -31.2550 H   0  0  0  0  0  0  0  0  0  0  0  0
   -6.8860   19.1123  -32.8464 H   0  0  0  0  0  0  0  0  0  0  0  0
   -9.3545   19.4407  -32.7681 H   0  0  0  0  0  0  0  0  0  0  0  0
  -10.3123   21.4849  -31.7041 H   0  0  0  0  0  0  0  0  0  0  0  0
   -8.8020   23.2063  -30.7212 H   0  0  0  0  0  0  0  0  0  0  0  0
   -5.7103   23.2981  -28.6520 H   0  0  0  0  0  0  0  0  0  0  0  0
   -5.1335   21.7983  -29.4796 H   0  0  0  0  0  0  0  0  0  0  0  0
   -3.4586   23.7843  -28.7793 H   0  0  0  0  0  0  0  0  0  0  0  0
   -3.2542   22.7819  -30.3016 H   0  0  0  0  0  0  0  0  0  0  0  0
   -3.6250   24.4830  -31.5860 H   0  0  0  0  0  0  0  0  0  0  0  0
   -5.4520   25.6760  -29.5758 H   0  0  0  0  0  0  0  0  0  0  0  0
   -5.0776   26.3537  -31.2032 H   0  0  0  0  0  0  0  0  0  0  0  0
   -7.2308   24.9399  -30.9982 H   0  0  0  0  0  0  0  0  0  0  0  0
   -6.0864   24.5065  -32.3234 H   0  0  0  0  0  0  0  0  0  0  0  0
   -1.9058   22.1026  -30.8451 H   0  0  0  0  0  0  0  0  0  0  0  0
    0.4466   21.3869  -31.2654 H   0  0  0  0  0  0  0  0  0  0  0  0
    1.0185   20.1145  -33.3348 H   0  0  0  0  0  0  0  0  0  0  0  0
   -0.7652   19.5451  -34.9834 H   0  0  0  0  0  0  0  0  0  0  0  0
   -3.1210   20.2511  -34.5733 H   0  0  0  0  0  0  0  0  0  0  0  0
  1  2  2  0
  2  3  1  0
  3  4  1  0
  4  5  2  0
  5  6  1  0
  6  7  2  0
  7  8  1  0
  8  9  2  0
  9 10  1  0
 10 11  1  0
 11 12  1  0
 12 13  1  0
 13 14  1  0
 14 15  1  0
  2 16  1  0
 16 17  2  0
 17 18  1  0
 18 19  2  0
 19 20  1  0
 20 21  2  0
  9  4  1  0
 15 10  1  0
 21 16  1  0
  3 22  1  0
  5 23  1  0
  6 24  1  0
  7 25  1  0
  8 26  1  0
 11 27  1  0
 11 28  1  0
 12 29  1  0
 12 30  1  0
 13 31  1  0
 14 32  1  0
 14 33  1  0
 15 34  1  0
 15 35  1  0
 17 36  1  0
 18 37  1  0
 19 38  1  0
 20 39  1  0
 21 40  1  0
M  END
>  <UniqueID>  (30) 
29

>  <SMILES>  (30) 
O=C(Nc1ccccc1N1CCNCC1)c1ccccc1

>  <Energy>  (30) 
56.367653306837994

>  <Genealogy>  (30) 
O=C(Nc1ccccc1N1CCNCC1)c1ccccc1 (3D coordinates assigned)
O=C(Nc1ccccc1N1CCNCC1)c1ccccc1 (nonaromatic ring conformer: 56.367653306837994 kcal/mol)

>  <smiles>  (30) 
O=C(Nc1ccccc1N1CCNCC1)c1ccccc1

>  <score_type>  (30) 
oracle

>  <origin>  (30) 
adgpu

>  <m_score__min__energy>  (30) 
-7.7599999999999998

>  <m_primary>  (30) 
energy

$$$$
30:0
     RDKit          3D

 42 44  0  0  0  0  0  0  0  0999 V2000
   -2.3610   21.5700  -32.6420 F   0  0  0  0  0  0  0  0  0  0  0  0
   -2.8470   20.4380  -33.2070 C   0  0  0  0  0  0  0  0  0  0  0  0
   -1.9730   19.4070  -33.5690 C   0  0  0  0  0  0  0  0  0  0  0  0
   -2.4740   18.2350  -34.1410 C   0  0  0  0  0  0  0  0  0  0  0  0
   -3.8480   18.0930  -34.3600 C   0  0  0  0  0  0  0  0  0  0  0  0
   -4.7320   19.1340  -34.0200 C   0  0  0  0  0  0  0  0  0  0  0  0
   -6.1510   19.0000  -34.2070 N   0  0  0  0  0  0  0  0  0  0  0  0
   -7.1280   19.1780  -33.1660 C   0  0  0  0  0  0  0  0  0  0  0  0
   -7.8490   18.0940  -32.6410 C   0  0  0  0  0  0  0  0  0  0  0  0
   -8.7870   18.3000  -31.6800 N   0  0  0  0  0  0  0  0  0  0  0  0
   -9.0690   19.5410  -31.2080 C   0  0  0  0  0  0  0  0  0  0  0  0
   -8.4010   20.6640  -31.7170 C   0  0  0  0  0  0  0  0  0  0  0  0
   -8.7320   21.9740  -31.2130 N   0  0  0  0  0  0  0  0  0  0  0  0
   -8.3250   23.2300  -31.8450 C   0  0  0  0  0  0  0  0  0  0  0  0
   -6.9690   23.6610  -31.3510 C   0  0  0  0  0  0  0  0  0  0  0  0
   -5.8110   22.9730  -31.7470 C   0  0  0  0  0  0  0  0  0  0  0  0
   -4.5550   23.3760  -31.2850 C   0  0  0  0  0  0  0  0  0  0  0  0
   -4.4390   24.4730  -30.4090 C   0  0  0  0  0  0  0  0  0  0  0  0
   -3.2030   24.9230  -29.9150 O   0  0  0  0  0  0  0  0  0  0  0  0
   -2.2570   24.1210  -29.2110 C   0  0  0  0  0  0  0  0  0  0  0  0
   -2.8480   23.6410  -28.0580 F   0  0  0  0  0  0  0  0  0  0  0  0
   -1.8670   23.0490  -29.9910 F   0  0  0  0  0  0  0  0  0  0  0  0
   -1.1540   24.8800  -28.8640 F   0  0  0  0  0  0  0  0  0  0  0  0
   -5.5970   25.1480  -30.0060 C   0  0  0  0  0  0  0  0  0  0  0  0
   -6.8530   24.7460  -30.4680 C   0  0  0  0  0  0  0  0  0  0  0  0
   -7.4230   20.4670  -32.7070 C   0  0  0  0  0  0  0  0  0  0  0  0
   -4.2210   20.2970  -33.4240 C   0  0  0  0  0  0  0  0  0  0  0  0
   -0.8914   19.5193  -33.4032 H   0  0  0  0  0  0  0  0  0  0  0  0
   -1.7867   17.4226  -34.4196 H   0  0  0  0  0  0  0  0  0  0  0  0
   -4.2394   17.1638  -34.7998 H   0  0  0  0  0  0  0  0  0  0  0  0
   -6.4960   18.7520  -35.1620 H   0  0  0  0  0  0  0  0  0  0  0  0
   -7.6541   17.0757  -33.0084 H   0  0  0  0  0  0  0  0  0  0  0  0
   -9.8269   19.6667  -30.4207 H   0  0  0  0  0  0  0  0  0  0  0  0
   -9.3380   22.0420  -30.3650 H   0  0  0  0  0  0  0  0  0  0  0  0
   -8.2838   23.0887  -32.9351 H   0  0  0  0  0  0  0  0  0  0  0  0
   -9.0583   24.0085  -31.5879 H   0  0  0  0  0  0  0  0  0  0  0  0
   -5.8928   22.1110  -32.4254 H   0  0  0  0  0  0  0  0  0  0  0  0
   -3.6533   22.8343  -31.6068 H   0  0  0  0  0  0  0  0  0  0  0  0
   -5.5176   26.0033  -29.3189 H   0  0  0  0  0  0  0  0  0  0  0  0
   -7.7550   25.2823  -30.1382 H   0  0  0  0  0  0  0  0  0  0  0  0
   -6.8858   21.3316  -33.1239 H   0  0  0  0  0  0  0  0  0  0  0  0
   -4.9065   21.1038  -33.1253 H   0  0  0  0  0  0  0  0  0  0  0  0
  1  2  1  0
  2  3  2  0
  3  4  1  0
  4  5  2  0
  5  6  1  0
  6  7  1  0
  7  8  1  0
  8  9  2  0
  9 10  1  0
 10 11  2  0
 11 12  1  0
 12 13  1  0
 13 14  1  0
 14 15  1  0
 15 16  2  0
 16 17  1  0
 17 18  2  0
 18 19  1  0
 19 20  1  0
 20 21  1  0
 20 22  1  0
 20 23  1  0
 18 24  1  0
 24 25  2  0
 12 26  2  0
  6 27  2  0
 27  2  1  0
 26  8  1  0
 25 15  1  0
  3 28  1  0
  4 29  1  0
  5 30  1  0
  7 31  1  0
  9 32  1  0
 11 33  1  0
 13 34  1  0
 14 35  1  0
 14 36  1  0
 16 37  1  0
 17 38  1  0
 24 39  1  0
 25 40  1  0
 26 41  1  0
 27 42  1  0
M  END
>  <UniqueID>  (31) 
30

>  <SMILES>  (31) 
Fc1cccc(Nc2cncc(NCc3ccc(OC(F)(F)F)cc3)c2)c1

>  <Energy>  (31) 
50.0405089418738

>  <Genealogy>  (31) 
Fc1cccc(Nc2cncc(NCc3ccc(OC(F)(F)F)cc3)c2)c1 (3D coordinates assigned)
Fc1cccc(Nc2cncc(NCc3ccc(OC(F)(F)F)cc3)c2)c1 (optimized conformer: 50.0405089418738 kcal/mol)

>  <smiles>  (31) 
Fc1cccc(Nc2cncc(NCc3ccc(OC(F)(F)F)cc3)c2)c1

>  <score_type>  (31) 
oracle

>  <origin>  (31) 
adgpu

>  <m_score__min__energy>  (31) 
-7.8200000000000003

>  <m_primary>  (31) 
energy

$$$$
31:0
     RDKit          3D

 38 40  0  0  1  0  0  0  0  0999 V2000
   -1.5930   16.4700  -33.3740 C   0  0  0  0  0  0  0  0  0  0  0  0
   -2.8390   17.2290  -33.6410 C   0  0  0  0  0  0  0  0  0  0  0  0
   -3.9690   16.5260  -33.9890 C   0  0  0  0  0  0  0  0  0  0  0  0
   -5.1400   17.2110  -34.2330 C   0  0  0  0  0  0  0  0  0  0  0  0
   -5.2300   18.5980  -34.1400 C   0  0  0  0  0  0  0  0  0  0  0  0
   -6.4630   19.2740  -34.3590 N   0  0  0  0  0  0  0  0  0  0  0  0
   -7.2430   19.8300  -33.2890 C   0  0  0  0  0  0  0  0  0  0  0  0
   -6.6900   20.7190  -32.3980 C   0  0  0  0  0  0  0  0  0  0  0  0
   -7.4550   21.2270  -31.3570 C   0  0  0  0  0  0  0  0  0  0  0  0
   -7.0090   22.0540  -30.4860 N   0  0  0  0  0  0  0  0  0  0  0  0
   -5.6680   22.5190  -30.5240 C   0  0  0  0  0  0  0  0  0  0  0  0
   -4.6440   21.6230  -30.3500 C   0  0  0  0  0  0  0  0  0  0  0  0
   -3.3400   22.0800  -30.3960 C   0  0  0  0  0  0  0  0  0  0  0  0
   -3.0710   23.4250  -30.6160 C   0  0  0  0  0  0  0  0  0  0  0  0
   -4.1230   24.3180  -30.7910 C   0  0  0  0  0  0  0  0  0  0  0  0
   -3.8610   25.6610  -31.0100 O   0  0  0  0  0  0  0  0  0  0  0  0
   -5.4170   23.8560  -30.7430 C   0  0  0  0  0  0  0  0  0  0  0  0
   -8.7410   20.8420  -31.2280 N   0  0  0  0  0  0  0  0  0  0  0  0
   -9.2890   19.9740  -32.0950 C   0  0  0  0  0  0  0  0  0  0  0  0
   -8.5290   19.4920  -33.0980 N   0  0  0  0  0  0  0  0  0  0  0  0
   -4.0760   19.3100  -33.7870 C   0  0  0  0  0  0  0  0  0  0  0  0
   -2.8970   18.6230  -33.5410 C   0  0  0  0  0  0  0  0  0  0  0  0
   -1.4444   16.3795  -32.2878 H   0  0  0  0  0  0  0  0  0  0  0  0
   -1.6725   15.4668  -33.8181 H   0  0  0  0  0  0  0  0  0  0  0  0
   -0.7380   17.0008  -33.8181 H   0  0  0  0  0  0  0  0  0  0  0  0
   -3.9385   15.4295  -34.0716 H   0  0  0  0  0  0  0  0  0  0  0  0
   -6.0381   16.6404  -34.5119 H   0  0  0  0  0  0  0  0  0  0  0  0
   -6.8220   19.3740  -35.3270 H   0  0  0  0  0  0  0  0  0  0  0  0
   -5.6403   21.0281  -32.5101 H   0  0  0  0  0  0  0  0  0  0  0  0
   -4.8570   20.5578  -30.1766 H   0  0  0  0  0  0  0  0  0  0  0  0
   -2.5088   21.3729  -30.2573 H   0  0  0  0  0  0  0  0  0  0  0  0
   -2.0312   23.7821  -30.6516 H   0  0  0  0  0  0  0  0  0  0  0  0
   -3.9100   26.0250  -31.9450 H   0  0  0  0  0  0  0  0  0  0  0  0
   -6.2545   24.5559  -30.8799 H   0  0  0  0  0  0  0  0  0  0  0  0
  -10.3386   19.6626  -31.9880 H   0  0  0  0  0  0  0  0  0  0  0  0
   -9.0330   18.7960  -33.7260 H   0  0  0  0  0  0  0  0  0  0  0  0
   -4.1052   20.4066  -33.7056 H   0  0  0  0  0  0  0  0  0  0  0  0
   -1.9924   19.1835  -33.2626 H   0  0  0  0  0  0  0  0  0  0  0  0
  1  2  1  0
  2  3  2  0
  3  4  1  0
  4  5  2  0
  5  6  1  0
  6  7  1  0
  7  8  2  0
  8  9  1  0
  9 10  2  0
 10 11  1  0
 11 12  2  0
 12 13  1  0
 13 14  2  0
 14 15  1  0
 15 16  1  0
 15 17  2  0
  9 18  1  0
 18 19  2  0
 19 20  1  0
  5 21  1  0
 21 22  2  0
 22  2  1  0
 20  7  1  0
 17 11  1  0
  1 23  1  0
  1 24  1  0
  1 25  1  0
  3 26  1  0
  4 27  1  0
  6 28  1  0
  8 29  1  0
 12 30  1  0
 13 31  1  0
 14 32  1  0
 16 33  1  0
 17 34  1  0
 19 35  1  0
 20 36  1  0
 21 37  1  0
 22 38  1  0
M  END
>  <smiles>  (32) 
Cc1ccc(Nc2cc(=Nc3cccc(O)c3)nc[nH]2)cc1

>  <score_type>  (32) 
oracle

>  <origin>  (32) 
adgpu

>  <m_score__min__energy>  (32) 
-8.6099999999999994

>  <m_primary>  (32) 
energy

$$$$
32:0
     RDKit          3D

 60 62  0  0  0  0  0  0  0  0999 V2000
   -0.8890   20.0500  -30.8870 C   0  0  0  0  0  0  0  0  0  0  0  0
   -2.1880   20.7990  -31.0270 C   0  0  0  0  0  0  0  0  0  0  0  0
   -2.5620   21.3020  -32.2840 C   0  0  0  0  0  0  0  0  0  0  0  0
   -3.7570   22.0020  -32.4430 C   0  0  0  0  0  0  0  0  0  0  0  0
   -4.6000   22.2120  -31.3470 C   0  0  0  0  0  0  0  0  0  0  0  0
   -5.8250   22.9420  -31.5040 N   0  0  0  0  0  0  0  0  0  0  0  0
   -5.8050   24.3390  -31.9410 C   0  0  0  0  0  0  0  0  0  0  0  0
   -5.3420   25.2180  -30.8240 C   0  0  0  0  0  0  0  0  0  0  0  0
   -6.1880   25.8630  -30.1500 O   0  0  0  0  0  0  0  0  0  0  0  0
   -3.9530   25.2290  -30.4670 N   0  0  0  0  0  0  0  0  0  0  0  0
   -3.3760   24.7810  -29.2330 C   0  0  0  0  0  0  0  0  0  0  0  0
   -4.2100   24.1700  -28.2900 C   0  0  0  0  0  0  0  0  0  0  0  0
   -3.6870   23.6940  -27.0850 C   0  0  0  0  0  0  0  0  0  0  0  0
   -2.3230   23.8130  -26.8180 C   0  0  0  0  0  0  0  0  0  0  0  0
   -1.4710   24.4000  -27.7620 C   0  0  0  0  0  0  0  0  0  0  0  0
    0.2610   24.5200  -27.4630 S   0  0  0  0  0  0  0  0  0  0  0  0
    1.0290   24.1130  -28.6920 O   0  0  0  0  0  0  0  0  0  0  0  0
    0.6150   23.5870  -26.3370 O   0  0  0  0  0  0  0  0  0  0  0  0
    0.6660   26.1600  -27.0230 N   0  0  0  0  0  0  0  0  0  0  0  0
    1.5360   26.1510  -25.8380 C   0  0  0  0  0  0  0  0  0  0  0  0
   -0.5650   26.9070  -26.7380 C   0  0  0  0  0  0  0  0  0  0  0  0
   -1.9980   24.8790  -28.9700 C   0  0  0  0  0  0  0  0  0  0  0  0
   -7.3370   22.0920  -31.4130 S   0  0  0  0  0  0  0  0  0  0  0  0
   -8.4030   22.8760  -32.1300 O   0  0  0  0  0  0  0  0  0  0  0  0
   -7.7590   21.9230  -29.9770 O   0  0  0  0  0  0  0  0  0  0  0  0
   -7.1310   20.5080  -32.1490 C   0  0  0  0  0  0  0  0  0  0  0  0
   -7.7410   19.3870  -31.5690 C   0  0  0  0  0  0  0  0  0  0  0  0
   -7.5530   18.1190  -32.1260 C   0  0  0  0  0  0  0  0  0  0  0  0
   -6.7480   17.9640  -33.2610 C   0  0  0  0  0  0  0  0  0  0  0  0
   -6.1300   19.0770  -33.8350 C   0  0  0  0  0  0  0  0  0  0  0  0
   -6.3170   20.3480  -33.2810 C   0  0  0  0  0  0  0  0  0  0  0  0
   -4.2410   21.7130  -30.0900 C   0  0  0  0  0  0  0  0  0  0  0  0
   -3.0410   21.0050  -29.9160 C   0  0  0  0  0  0  0  0  0  0  0  0
   -2.6870   20.4770  -28.5510 C   0  0  0  0  0  0  0  0  0  0  0  0
   -0.6563   19.9158  -29.8203 H   0  0  0  0  0  0  0  0  0  0  0  0
   -0.9796   19.0655  -31.3692 H   0  0  0  0  0  0  0  0  0  0  0  0
   -0.0823   20.6216  -31.3692 H   0  0  0  0  0  0  0  0  0  0  0  0
   -1.9052   21.1419  -33.1518 H   0  0  0  0  0  0  0  0  0  0  0  0
   -4.0377   22.3902  -33.4332 H   0  0  0  0  0  0  0  0  0  0  0  0
   -5.1195   24.4437  -32.7949 H   0  0  0  0  0  0  0  0  0  0  0  0
   -6.8207   24.6386  -32.2387 H   0  0  0  0  0  0  0  0  0  0  0  0
   -5.2847   24.0637  -28.4988 H   0  0  0  0  0  0  0  0  0  0  0  0
   -4.3522   23.2245  -26.3453 H   0  0  0  0  0  0  0  0  0  0  0  0
   -1.9159   23.4452  -25.8646 H   0  0  0  0  0  0  0  0  0  0  0  0
    0.9171   26.1574  -24.9287 H   0  0  0  0  0  0  0  0  0  0  0  0
    2.1617   25.2463  -25.8493 H   0  0  0  0  0  0  0  0  0  0  0  0
    2.1802   27.0425  -25.8493 H   0  0  0  0  0  0  0  0  0  0  0  0
   -0.7004   26.9891  -25.6495 H   0  0  0  0  0  0  0  0  0  0  0  0
   -0.4926   27.9137  -27.1755 H   0  0  0  0  0  0  0  0  0  0  0  0
   -1.4245   26.3780  -27.1755 H   0  0  0  0  0  0  0  0  0  0  0  0
   -1.3298   25.3339  -29.7160 H   0  0  0  0  0  0  0  0  0  0  0  0
   -8.3689   19.5056  -30.6736 H   0  0  0  0  0  0  0  0  0  0  0  0
   -8.0379   17.2421  -31.6723 H   0  0  0  0  0  0  0  0  0  0  0  0
   -6.6024   16.9661  -33.7003 H   0  0  0  0  0  0  0  0  0  0  0  0
   -5.4948   18.9541  -34.7246 H   0  0  0  0  0  0  0  0  0  0  0  0
   -5.8258   21.2224  -33.7329 H   0  0  0  0  0  0  0  0  0  0  0  0
   -4.9058   21.8771  -29.2291 H   0  0  0  0  0  0  0  0  0  0  0  0
   -3.1243   21.1293  -27.7808 H   0  0  0  0  0  0  0  0  0  0  0  0
   -3.0850   19.4578  -28.4375 H   0  0  0  0  0  0  0  0  0  0  0  0
   -1.5930   20.4581  -28.4375 H   0  0  0  0  0  0  0  0  0  0  0  0
  1  2  1  0
  2  3  2  0
  3  4  1  0
  4  5  2  0
  5  6  1  0
  6  7  1  0
  7  8  1  0
  8  9  2  0
  8 10  1  0
 10 11  1  0
 11 12  2  0
 12 13  1  0
 13 14  2  0
 14 15  1  0
 15 16  1  0
 16 17  2  0
 16 18  2  0
 16 19  1  0
 19 20  1  0
 19 21  1  0
 15 22  2  0
  6 23  1  0
 23 24  2  0
 23 25  2  0
 23 26  1  0
 26 27  2  0
 27 28  1  0
 28 29  2  0
 29 30  1  0
 30 31  2  0
  5 32  1  0
 32 33  2  0
 33 34  1  0
 33  2  1  0
 22 11  1  0
 31 26  1  0
  1 35  1  0
  1 36  1  0
  1 37  1  0
  3 38  1  0
  4 39  1  0
  7 40  1  0
  7 41  1  0
 12 42  1  0
 13 43  1  0
 14 44  1  0
 20 45  1  0
 20 46  1  0
 20 47  1  0
 21 48  1  0
 21 49  1  0
 21 50  1  0
 22 51  1  0
 27 52  1  0
 28 53  1  0
 29 54  1  0
 30 55  1  0
 31 56  1  0
 32 57  1  0
 34 58  1  0
 34 59  1  0
 34 60  1  0
M  CHG  1  10  -1
M  END
>  <UniqueID>  (33) 
31

>  <SMILES>  (33) 
Cc1ccc(N(CC(=O)[N-]c2cccc(S(=O)(=O)N(C)C)c2)S(=O)(=O)c2ccccc2)cc1C

>  <Energy>  (33) 
66.59776563761616

>  <Genealogy>  (33) 
Cc1ccc(N(CC(=O)[N-]c2cccc(S(=O)(=O)N(C)C)c2)S(=O)(=O)c2ccccc2)cc1C (protonated)
Cc1ccc(N(CC(=O)[N-]c2cccc(S(=O)(=O)N(C)C)c2)S(=O)(=O)c2ccccc2)cc1C (3D coordinates assigned)
Cc1ccc(N(CC(=O)[N-]c2cccc(S(=O)(=O)N(C)C)c2)S(=O)(=O)c2ccccc2)cc1C (optimized conformer: 66.59776563761616 kcal/mol)

>  <smiles>  (33) 
Cc1ccc(N(CC(=O)Nc2cccc(S(=O)(=O)N(C)C)c2)S(=O)(=O)c2ccccc2)cc1C

>  <score_type>  (33) 
oracle

>  <origin>  (33) 
adgpu

>  <m_score__min__energy>  (33) 
-12.869999999999999

>  <m_primary>  (33) 
energy

$$$$
33:0
     RDKit          3D

 45 48  0  0  0  0  0  0  0  0999 V2000
   -2.3210   21.8160  -33.3280 N   0  0  0  0  0  0  0  0  0  0  0  0
   -3.4030   20.9710  -32.9130 C   0  0  0  0  0  0  0  0  0  0  0  0
   -3.5520   19.7060  -33.5000 C   0  0  0  0  0  0  0  0  0  0  0  0
   -4.5960   18.8630  -33.1110 C   0  0  0  0  0  0  0  0  0  0  0  0
   -5.5010   19.2750  -32.1320 C   0  0  0  0  0  0  0  0  0  0  0  0
   -5.3660   20.5320  -31.5400 C   0  0  0  0  0  0  0  0  0  0  0  0
   -4.3220   21.3870  -31.9230 C   0  0  0  0  0  0  0  0  0  0  0  0
   -4.2190   22.7130  -31.2880 C   0  0  0  0  0  0  0  0  0  0  0  0
   -3.1950   23.1240  -30.4390 C   0  0  0  0  0  0  0  0  0  0  0  0
   -2.0090   22.3430  -30.0250 C   0  0  0  0  0  0  0  0  0  0  0  0
   -0.9980   22.3230  -30.7770 O   0  0  0  0  0  0  0  0  0  0  0  0
   -1.9730   21.5830  -28.7540 C   0  0  0  0  0  0  0  0  0  0  0  0
   -1.0830   21.9600  -27.7340 C   0  0  0  0  0  0  0  0  0  0  0  0
   -1.0300   21.2360  -26.5380 C   0  0  0  0  0  0  0  0  0  0  0  0
   -1.8550   20.1240  -26.3550 C   0  0  0  0  0  0  0  0  0  0  0  0
   -2.7320   19.7310  -27.3680 C   0  0  0  0  0  0  0  0  0  0  0  0
   -2.7890   20.4510  -28.5650 C   0  0  0  0  0  0  0  0  0  0  0  0
   -3.4800   24.4420  -30.1300 C   0  0  0  0  0  0  0  0  0  0  0  0
   -2.7060   25.2990  -29.3570 O   0  0  0  0  0  0  0  0  0  0  0  0
   -4.6500   24.7740  -30.7700 C   0  0  0  0  0  0  0  0  0  0  0  0
   -5.2440   26.0330  -30.7200 O   0  0  0  0  0  0  0  0  0  0  0  0
   -5.1180   23.7130  -31.4660 N   0  0  0  0  0  0  0  0  0  0  0  0
   -6.3070   23.6640  -32.3220 C   0  0  0  0  0  0  0  0  0  0  0  0
   -7.3800   22.8520  -31.6700 C   0  0  0  0  0  0  0  0  0  0  0  0
   -7.6100   22.7530  -30.3120 C   0  0  0  0  0  0  0  0  0  0  0  0
   -8.7030   21.9240  -30.1820 C   0  0  0  0  0  0  0  0  0  0  0  0
   -9.0690   21.5670  -31.4650 C   0  0  0  0  0  0  0  0  0  0  0  0
   -8.2620   22.1360  -32.3290 O   0  0  0  0  0  0  0  0  0  0  0  0
   -2.1030   21.9760  -34.3360 H   0  0  0  0  0  0  0  0  0  0  0  0
   -1.7150   22.2860  -32.6210 H   0  0  0  0  0  0  0  0  0  0  0  0
   -2.8418   19.3752  -34.2722 H   0  0  0  0  0  0  0  0  0  0  0  0
   -4.7048   17.8727  -33.5773 H   0  0  0  0  0  0  0  0  0  0  0  0
   -6.3213   18.6088  -31.8265 H   0  0  0  0  0  0  0  0  0  0  0  0
   -6.0819   20.8536  -30.7693 H   0  0  0  0  0  0  0  0  0  0  0  0
   -0.4242   22.8293  -27.8767 H   0  0  0  0  0  0  0  0  0  0  0  0
   -0.3374   21.5431  -25.7405 H   0  0  0  0  0  0  0  0  0  0  0  0
   -1.8139   19.5578  -25.4128 H   0  0  0  0  0  0  0  0  0  0  0  0
   -3.3792   18.8533  -27.2239 H   0  0  0  0  0  0  0  0  0  0  0  0
   -3.4749   20.1316  -29.3634 H   0  0  0  0  0  0  0  0  0  0  0  0
   -5.2060   26.6180  -29.8960 H   0  0  0  0  0  0  0  0  0  0  0  0
   -6.6764   24.6865  -32.4896 H   0  0  0  0  0  0  0  0  0  0  0  0
   -6.0388   23.1993  -33.2823 H   0  0  0  0  0  0  0  0  0  0  0  0
   -7.0403   23.2348  -29.5037 H   0  0  0  0  0  0  0  0  0  0  0  0
   -9.1865   21.6099  -29.2452 H   0  0  0  0  0  0  0  0  0  0  0  0
   -9.9095   20.9060  -31.7233 H   0  0  0  0  0  0  0  0  0  0  0  0
  1  2  1  0
  2  3  2  0
  3  4  1  0
  4  5  2  0
  5  6  1  0
  6  7  2  0
  7  8  1  0
  8  9  2  0
  9 10  1  0
 10 11  2  0
 10 12  1  0
 12 13  2  0
 13 14  1  0
 14 15  2  0
 15 16  1  0
 16 17  2  0
  9 18  1  0
 18 19  1  0
 18 20  2  0
 20 21  1  0
 20 22  1  0
 22 23  1  0
 23 24  1  0
 24 25  2  0
 25 26  1  0
 26 27  2  0
 27 28  1  0
  7  2  1  0
 22  8  1  0
 28 24  1  0
 17 12  1  0
  1 29  1  0
  1 30  1  0
  3 31  1  0
  4 32  1  0
  5 33  1  0
  6 34  1  0
 13 35  1  0
 14 36  1  0
 15 37  1  0
 16 38  1  0
 17 39  1  0
 21 40  1  0
 23 41  1  0
 23 42  1  0
 25 43  1  0
 26 44  1  0
 27 45  1  0
M  CHG  1  19  -1
M  END
>  <UniqueID>  (34) 
32

>  <SMILES>  (34) 
Nc1ccccc1-c1c(C(=O)c2ccccc2)c([O-])c(O)n1Cc1ccco1

>  <Energy>  (34) 
114.2091942393284

>  <Genealogy>  (34) 
Nc1ccccc1-c1c(C(=O)c2ccccc2)c([O-])c(O)n1Cc1ccco1 (protonated)
Nc1ccccc1-c1c(C(=O)c2ccccc2)c([O-])c(O)n1Cc1ccco1 (3D coordinates assigned)
Nc1ccccc1-c1c(C(=O)c2ccccc2)c([O-])c(O)n1Cc1ccco1 (optimized conformer: 114.2091942393284 kcal/mol)

>  <smiles>  (34) 
Nc1ccccc1-c1c(C(=O)c2ccccc2)c(O)c(O)n1Cc1ccco1

>  <score_type>  (34) 
oracle

>  <origin>  (34) 
adgpu

>  <m_score__min__energy>  (34) 
-11.19

>  <m_primary>  (34) 
energy

$$$$
34:0
     RDKit          3D

 53 55  0  0  0  0  0  0  0  0999 V2000
   -8.7680   19.1400  -32.2170 C   0  0  0  0  0  0  0  0  0  0  0  0
   -8.3420   20.3780  -32.7770 O   0  0  0  0  0  0  0  0  0  0  0  0
   -7.5020   21.3040  -32.1350 C   0  0  0  0  0  0  0  0  0  0  0  0
   -8.0130   22.2360  -31.2210 C   0  0  0  0  0  0  0  0  0  0  0  0
   -7.1730   23.1440  -30.5900 C   0  0  0  0  0  0  0  0  0  0  0  0
   -5.7940   23.1360  -30.8280 C   0  0  0  0  0  0  0  0  0  0  0  0
   -4.8140   24.3040  -29.9170 S   0  0  0  0  0  0  0  0  0  0  0  0
   -5.7210   25.2970  -29.2450 O   0  0  0  0  0  0  0  0  0  0  0  0
   -3.9000   25.0750  -30.8270 O   0  0  0  0  0  0  0  0  0  0  0  0
   -3.9000   23.4540  -28.7090 N   0  0  0  0  0  0  0  0  0  0  0  0
   -4.4720   22.2990  -28.0170 C   0  0  0  0  0  0  0  0  0  0  0  0
   -2.7280   24.0790  -28.1790 C   0  0  0  0  0  0  0  0  0  0  0  0
   -1.4700   24.0910  -28.7460 C   0  0  0  0  0  0  0  0  0  0  0  0
   -1.0460   23.4030  -30.0000 C   0  0  0  0  0  0  0  0  0  0  0  0
   -0.6740   24.9110  -28.0340 N   0  0  0  0  0  0  0  0  0  0  0  0
   -1.3830   25.3960  -27.0230 N   0  0  0  0  0  0  0  0  0  0  0  0
   -0.8470   26.3460  -26.0850 C   0  0  0  0  0  0  0  0  0  0  0  0
   -0.7490   26.0060  -24.7240 C   0  0  0  0  0  0  0  0  0  0  0  0
   -0.2280   26.9200  -23.8010 C   0  0  0  0  0  0  0  0  0  0  0  0
    0.1890   28.1810  -24.2280 C   0  0  0  0  0  0  0  0  0  0  0  0
    0.0730   28.5380  -25.5780 C   0  0  0  0  0  0  0  0  0  0  0  0
   -0.4500   27.6280  -26.5030 C   0  0  0  0  0  0  0  0  0  0  0  0
   -2.6520   24.9250  -27.0910 C   0  0  0  0  0  0  0  0  0  0  0  0
   -3.7820   25.2980  -26.1780 C   0  0  0  0  0  0  0  0  0  0  0  0
   -5.2410   22.1690  -31.7100 C   0  0  0  0  0  0  0  0  0  0  0  0
   -3.7430   22.0930  -31.9190 C   0  0  0  0  0  0  0  0  0  0  0  0
   -6.1150   21.2880  -32.4110 C   0  0  0  0  0  0  0  0  0  0  0  0
   -5.5750   20.2950  -33.4170 C   0  0  0  0  0  0  0  0  0  0  0  0
   -8.7450   19.2069  -31.1193 H   0  0  0  0  0  0  0  0  0  0  0  0
   -9.7933   18.9206  -32.5496 H   0  0  0  0  0  0  0  0  0  0  0  0
   -8.0948   18.3362  -32.5496 H   0  0  0  0  0  0  0  0  0  0  0  0
   -9.0908   22.2482  -31.0013 H   0  0  0  0  0  0  0  0  0  0  0  0
   -7.5980   23.8808  -29.8925 H   0  0  0  0  0  0  0  0  0  0  0  0
   -4.3976   22.4491  -26.9298 H   0  0  0  0  0  0  0  0  0  0  0  0
   -5.5291   22.1883  -28.3004 H   0  0  0  0  0  0  0  0  0  0  0  0
   -3.9194   21.3911  -28.3004 H   0  0  0  0  0  0  0  0  0  0  0  0
   -0.4844   22.4918  -29.7464 H   0  0  0  0  0  0  0  0  0  0  0  0
   -1.9351   23.1338  -30.5891 H   0  0  0  0  0  0  0  0  0  0  0  0
   -0.4059   24.0762  -30.5891 H   0  0  0  0  0  0  0  0  0  0  0  0
   -1.0840   25.0154  -24.3827 H   0  0  0  0  0  0  0  0  0  0  0  0
   -0.1473   26.6442  -22.7392 H   0  0  0  0  0  0  0  0  0  0  0  0
    0.6090   28.8953  -23.5046 H   0  0  0  0  0  0  0  0  0  0  0  0
    0.3939   29.5360  -25.9112 H   0  0  0  0  0  0  0  0  0  0  0  0
   -0.5508   27.9164  -27.5597 H   0  0  0  0  0  0  0  0  0  0  0  0
   -3.4588   25.1913  -25.1320 H   0  0  0  0  0  0  0  0  0  0  0  0
   -4.0765   26.3410  -26.3662 H   0  0  0  0  0  0  0  0  0  0  0  0
   -4.6395   24.6352  -26.3662 H   0  0  0  0  0  0  0  0  0  0  0  0
   -3.2374   22.0673  -30.9424 H   0  0  0  0  0  0  0  0  0  0  0  0
   -3.4973   21.1812  -32.4832 H   0  0  0  0  0  0  0  0  0  0  0  0
   -3.4063   22.9752  -32.4832 H   0  0  0  0  0  0  0  0  0  0  0  0
   -5.1148   19.4487  -32.8861 H   0  0  0  0  0  0  0  0  0  0  0  0
   -6.3979   19.9282  -34.0481 H   0  0  0  0  0  0  0  0  0  0  0  0
   -4.8198   20.7863  -34.0481 H   0  0  0  0  0  0  0  0  0  0  0  0
  1  2  1  0
  2  3  1  0
  3  4  2  0
  4  5  1  0
  5  6  2  0
  6  7  1  0
  7  8  2  0
  7  9  2  0
  7 10  1  0
 10 11  1  0
 10 12  1  0
 12 13  1  0
 13 14  1  0
 13 15  2  0
 15 16  1  0
 16 17  1  0
 17 18  2  0
 18 19  1  0
 19 20  2  0
 20 21  1  0
 21 22  2  0
 16 23  1  0
 23 24  1  0
  6 25  1  0
 25 26  1  0
 25 27  2  0
 27 28  1  0
 27  3  1  0
 23 12  2  0
 22 17  1  0
  1 29  1  0
  1 30  1  0
  1 31  1  0
  4 32  1  0
  5 33  1  0
 11 34  1  0
 11 35  1  0
 11 36  1  0
 14 37  1  0
 14 38  1  0
 14 39  1  0
 18 40  1  0
 19 41  1  0
 20 42  1  0
 21 43  1  0
 22 44  1  0
 24 45  1  0
 24 46  1  0
 24 47  1  0
 26 48  1  0
 26 49  1  0
 26 50  1  0
 28 51  1  0
 28 52  1  0
 28 53  1  0
M  END
>  <UniqueID>  (35) 
33

>  <SMILES>  (35) 
COc1ccc(S(=O)(=O)N(C)c2c(C)nn(-c3ccccc3)c2C)c(C)c1C

>  <Energy>  (35) 
99.26988891680318

>  <Genealogy>  (35) 
COc1ccc(S(=O)(=O)N(C)c2c(C)nn(-c3ccccc3)c2C)c(C)c1C (3D coordinates assigned)
COc1ccc(S(=O)(=O)N(C)c2c(C)nn(-c3ccccc3)c2C)c(C)c1C (optimized conformer: 99.26988891680318 kcal/mol)

>  <smiles>  (35) 
COc1ccc(S(=O)(=O)N(C)c2c(C)nn(-c3ccccc3)c2C)c(C)c1C

>  <score_type>  (35) 
oracle

>  <origin>  (35) 
adgpu

>  <m_score__min__energy>  (35) 
-9.2200000000000006

>  <m_primary>  (35) 
energy

$$$$
35:0
     RDKit          3D

 38 40  0  0  0  0  0  0  0  0999 V2000
   -4.0670   24.1610  -28.2890 C   0  0  0  0  0  0  0  0  0  0  0  0
   -4.8240   24.0730  -29.5690 C   0  0  0  0  0  0  0  0  0  0  0  0
   -6.0920   23.5670  -29.7370 C   0  0  0  0  0  0  0  0  0  0  0  0
   -6.3860   23.7300  -31.0400 N   0  0  0  0  0  0  0  0  0  0  0  0
   -7.6520   23.4210  -31.6970 C   0  0  0  0  0  0  0  0  0  0  0  0
   -7.7660   21.9370  -31.9660 C   0  0  0  0  0  0  0  0  0  0  0  0
   -9.0260   21.3240  -31.8480 C   0  0  0  0  0  0  0  0  0  0  0  0
   -9.1710   19.9510  -32.0430 C   0  0  0  0  0  0  0  0  0  0  0  0
   -8.0610   19.1710  -32.3620 C   0  0  0  0  0  0  0  0  0  0  0  0
   -6.8010   19.7590  -32.4780 C   0  0  0  0  0  0  0  0  0  0  0  0
   -6.6300   21.1420  -32.2670 C   0  0  0  0  0  0  0  0  0  0  0  0
   -5.3220   21.7380  -32.3810 N   0  0  0  0  0  0  0  0  0  0  0  0
   -4.2610   21.2120  -33.2430 C   0  0  0  0  0  0  0  0  0  0  0  0
   -2.9290   21.3270  -32.5620 C   0  0  0  0  0  0  0  0  0  0  0  0
   -1.7880   20.7150  -33.1010 C   0  0  0  0  0  0  0  0  0  0  0  0
   -0.5680   20.8330  -32.4330 C   0  0  0  0  0  0  0  0  0  0  0  0
   -0.4940   21.5560  -31.2430 C   0  0  0  0  0  0  0  0  0  0  0  0
   -1.6520   22.1430  -30.7270 C   0  0  0  0  0  0  0  0  0  0  0  0
   -2.8330   22.0140  -31.3890 N   0  0  0  0  0  0  0  0  0  0  0  0
   -5.3630   24.3270  -31.6300 N   0  0  0  0  0  0  0  0  0  0  0  0
   -4.3910   24.5490  -30.7540 N   0  0  0  0  0  0  0  0  0  0  0  0
   -4.7658   24.0798  -27.4434 H   0  0  0  0  0  0  0  0  0  0  0  0
   -3.3344   23.3420  -28.2392 H   0  0  0  0  0  0  0  0  0  0  0  0
   -3.5418   25.1262  -28.2392 H   0  0  0  0  0  0  0  0  0  0  0  0
   -6.7346   23.1203  -28.9640 H   0  0  0  0  0  0  0  0  0  0  0  0
   -8.4822   23.7351  -31.0473 H   0  0  0  0  0  0  0  0  0  0  0  0
   -7.6935   23.9586  -32.6558 H   0  0  0  0  0  0  0  0  0  0  0  0
   -9.9068   21.9342  -31.5992 H   0  0  0  0  0  0  0  0  0  0  0  0
  -10.1618   19.4833  -31.9450 H   0  0  0  0  0  0  0  0  0  0  0  0
   -8.1785   18.0892  -32.5227 H   0  0  0  0  0  0  0  0  0  0  0  0
   -5.9318   19.1365  -32.7369 H   0  0  0  0  0  0  0  0  0  0  0  0
   -5.0600   22.5260  -31.7490 H   0  0  0  0  0  0  0  0  0  0  0  0
   -4.4649   20.1539  -33.4642 H   0  0  0  0  0  0  0  0  0  0  0  0
   -4.2367   21.7951  -34.1754 H   0  0  0  0  0  0  0  0  0  0  0  0
   -1.8538   20.1475  -34.0410 H   0  0  0  0  0  0  0  0  0  0  0  0
    0.3338   20.3563  -32.8448 H   0  0  0  0  0  0  0  0  0  0  0  0
    0.4657   21.6630  -30.7162 H   0  0  0  0  0  0  0  0  0  0  0  0
   -1.6086   22.7096  -29.7852 H   0  0  0  0  0  0  0  0  0  0  0  0
  1  2  1  0
  2  3  2  0
  3  4  1  0
  4  5  1  0
  5  6  1  0
  6  7  2  0
  7  8  1  0
  8  9  2  0
  9 10  1  0
 10 11  2  0
 11 12  1  0
 12 13  1  0
 13 14  1  0
 14 15  2  0
 15 16  1  0
 16 17  2  0
 17 18  1  0
 18 19  2  0
  4 20  1  0
 20 21  2  0
 21  2  1  0
 11  6  1  0
 19 14  1  0
  1 22  1  0
  1 23  1  0
  1 24  1  0
  3 25  1  0
  5 26  1  0
  5 27  1  0
  7 28  1  0
  8 29  1  0
  9 30  1  0
 10 31  1  0
 12 32  1  0
 13 33  1  0
 13 34  1  0
 15 35  1  0
 16 36  1  0
 17 37  1  0
 18 38  1  0
M  END
>  <UniqueID>  (36) 
34

>  <SMILES>  (36) 
Cc1cn(Cc2ccccc2NCc2ccccn2)nn1

>  <Energy>  (36) 
71.85615747701101

>  <Genealogy>  (36) 
Cc1cn(Cc2ccccc2NCc2ccccn2)nn1 (3D coordinates assigned)
Cc1cn(Cc2ccccc2NCc2ccccn2)nn1 (optimized conformer: 71.85615747701101 kcal/mol)

>  <smiles>  (36) 
Cc1cn(Cc2ccccc2NCc2ccccn2)nn1

>  <score_type>  (36) 
oracle

>  <origin>  (36) 
adgpu

>  <m_score__min__energy>  (36) 
-7.7599999999999998

>  <m_primary>  (36) 
energy

$$$$
36:0
     RDKit          3D

 43 45  0  0  0  0  0  0  0  0999 V2000
   -4.7280   16.8470  -34.5520 C   0  0  0  0  0  0  0  0  0  0  0  0
   -5.1170   18.2100  -34.8810 N   0  0  0  0  0  0  0  0  0  0  0  0
   -5.2980   19.2240  -33.8870 C   0  0  0  0  0  0  0  0  0  0  0  0
   -4.3920   20.0780  -33.6850 O   0  0  0  0  0  0  0  0  0  0  0  0
   -6.5460   19.2610  -33.1030 C   0  0  0  0  0  0  0  0  0  0  0  0
   -7.2050   20.4730  -32.8390 C   0  0  0  0  0  0  0  0  0  0  0  0
   -8.3830   20.4650  -32.0860 C   0  0  0  0  0  0  0  0  0  0  0  0
   -9.2330   22.0030  -31.7280 S   0  0  0  0  0  0  0  0  0  0  0  0
   -7.7070   22.8620  -31.3400 C   0  0  0  0  0  0  0  0  0  0  0  0
   -6.9870   23.5030  -32.3540 C   0  0  0  0  0  0  0  0  0  0  0  0
   -5.7940   24.1660  -32.0540 C   0  0  0  0  0  0  0  0  0  0  0  0
   -5.3030   24.1860  -30.7400 C   0  0  0  0  0  0  0  0  0  0  0  0
   -4.0830   24.8920  -30.4550 N   0  0  0  0  0  0  0  0  0  0  0  0
   -3.0590   24.4130  -29.5720 C   0  0  0  0  0  0  0  0  0  0  0  0
   -3.1060   23.2390  -29.1150 O   0  0  0  0  0  0  0  0  0  0  0  0
   -1.9850   25.2910  -29.2090 N   0  0  0  0  0  0  0  0  0  0  0  0
   -1.6060   25.6760  -27.8800 C   0  0  0  0  0  0  0  0  0  0  0  0
   -0.5690   26.5950  -27.6350 C   0  0  0  0  0  0  0  0  0  0  0  0
   -0.2460   26.9590  -26.3230 C   0  0  0  0  0  0  0  0  0  0  0  0
   -0.9630   26.4220  -25.2490 C   0  0  0  0  0  0  0  0  0  0  0  0
   -0.5580   26.8830  -23.6050 Cl  0  0  0  0  0  0  0  0  0  0  0  0
   -2.0090   25.5270  -25.4880 C   0  0  0  0  0  0  0  0  0  0  0  0
   -2.3340   25.1620  -26.7990 C   0  0  0  0  0  0  0  0  0  0  0  0
   -6.0460   23.5630  -29.7210 C   0  0  0  0  0  0  0  0  0  0  0  0
   -7.2400   22.9010  -30.0230 C   0  0  0  0  0  0  0  0  0  0  0  0
   -8.8970   19.2540  -31.6140 C   0  0  0  0  0  0  0  0  0  0  0  0
   -8.2180   18.0690  -31.8970 C   0  0  0  0  0  0  0  0  0  0  0  0
   -7.0710   18.0970  -32.6260 N   0  0  0  0  0  0  0  0  0  0  0  0
   -4.6943   16.7290  -33.4589 H   0  0  0  0  0  0  0  0  0  0  0  0
   -5.4615   16.1443  -34.9742 H   0  0  0  0  0  0  0  0  0  0  0  0
   -3.7341   16.6373  -34.9742 H   0  0  0  0  0  0  0  0  0  0  0  0
   -6.7977   21.4205  -33.2215 H   0  0  0  0  0  0  0  0  0  0  0  0
   -7.3604   23.4851  -33.3885 H   0  0  0  0  0  0  0  0  0  0  0  0
   -5.2362   24.6756  -32.8535 H   0  0  0  0  0  0  0  0  0  0  0  0
   -3.8810   25.7650  -30.9930 H   0  0  0  0  0  0  0  0  0  0  0  0
   -0.0104   27.0287  -28.4776 H   0  0  0  0  0  0  0  0  0  0  0  0
    0.5733   27.6688  -26.1361 H   0  0  0  0  0  0  0  0  0  0  0  0
   -2.5777   25.1088  -24.6444 H   0  0  0  0  0  0  0  0  0  0  0  0
   -3.1666   24.4669  -26.9822 H   0  0  0  0  0  0  0  0  0  0  0  0
   -5.6862   23.5967  -28.6821 H   0  0  0  0  0  0  0  0  0  0  0  0
   -7.8130   22.4099  -29.2227 H   0  0  0  0  0  0  0  0  0  0  0  0
   -9.8265   19.2357  -31.0260 H   0  0  0  0  0  0  0  0  0  0  0  0
   -8.6115   17.1098  -31.5295 H   0  0  0  0  0  0  0  0  0  0  0  0
  1  2  1  0
  2  3  1  0
  3  4  2  0
  3  5  1  0
  5  6  2  0
  6  7  1  0
  7  8  1  0
  8  9  1  0
  9 10  2  0
 10 11  1  0
 11 12  2  0
 12 13  1  0
 13 14  1  0
 14 15  2  0
 14 16  1  0
 16 17  1  0
 17 18  2  0
 18 19  1  0
 19 20  2  0
 20 21  1  0
 20 22  1  0
 22 23  2  0
 12 24  1  0
 24 25  2  0
  7 26  2  0
 26 27  1  0
 27 28  2  0
 28  5  1  0
 25  9  1  0
 23 17  1  0
  1 29  1  0
  1 30  1  0
  1 31  1  0
  6 32  1  0
 10 33  1  0
 11 34  1  0
 13 35  1  0
 18 36  1  0
 19 37  1  0
 22 38  1  0
 23 39  1  0
 24 40  1  0
 25 41  1  0
 26 42  1  0
 27 43  1  0
M  CHG  2   2  -1  16  -1
M  END
>  <UniqueID>  (37) 
35

>  <SMILES>  (37) 
C[N-]C(=O)c1cc(Sc2ccc(NC(=O)[N-]c3ccc(Cl)cc3)cc2)ccn1

>  <Energy>  (37) 
45.46161538502759

>  <Genealogy>  (37) 
C[N-]C(=O)c1cc(Sc2ccc(NC(=O)[N-]c3ccc(Cl)cc3)cc2)ccn1 (protonated)
C[N-]C(=O)c1cc(Sc2ccc(NC(=O)[N-]c3ccc(Cl)cc3)cc2)ccn1 (3D coordinates assigned)
C[N-]C(=O)c1cc(Sc2ccc(NC(=O)[N-]c3ccc(Cl)cc3)cc2)ccn1 (optimized conformer: 45.46161538502759 kcal/mol)

>  <smiles>  (37) 
CNC(=O)c1cc(Sc2ccc(NC(=O)Nc3ccc(Cl)cc3)cc2)ccn1

>  <score_type>  (37) 
oracle

>  <origin>  (37) 
adgpu

>  <m_score__min__energy>  (37) 
-11.460000000000001

>  <m_primary>  (37) 
energy

$$$$
37:0
     RDKit          3D

 55 57  0  0  0  0  0  0  0  0999 V2000
   -3.7750   24.6360  -26.7860 C   0  0  0  0  0  0  0  0  0  0  0  0
   -4.1000   24.1940  -28.2210 C   0  0  0  0  0  0  0  0  0  0  0  0
   -4.3170   22.6760  -28.2880 C   0  0  0  0  0  0  0  0  0  0  0  0
   -3.0770   24.7230  -29.2680 C   0  0  1  0  0  0  0  0  0  0  0  0
   -1.9090   23.7700  -29.6140 C   0  0  0  0  0  0  0  0  0  0  0  0
   -1.0500   23.4140  -28.4270 C   0  0  0  0  0  0  0  0  0  0  0  0
   -1.0790   22.1150  -27.8910 C   0  0  0  0  0  0  0  0  0  0  0  0
   -0.2770   21.7860  -26.7930 C   0  0  0  0  0  0  0  0  0  0  0  0
    0.5630   22.7480  -26.2280 C   0  0  0  0  0  0  0  0  0  0  0  0
    0.6120   24.0370  -26.7650 C   0  0  0  0  0  0  0  0  0  0  0  0
   -0.1840   24.3690  -27.8650 C   0  0  0  0  0  0  0  0  0  0  0  0
   -3.7910   25.0430  -30.5070 N   0  0  0  0  0  0  0  0  0  0  0  0
   -5.0330   24.4570  -30.9160 C   0  0  0  0  0  0  0  0  0  0  0  0
   -6.1060   25.0700  -30.6690 O   0  0  0  0  0  0  0  0  0  0  0  0
   -5.0880   23.1570  -31.6090 C   0  0  0  0  0  0  0  0  0  0  0  0
   -3.9570   22.3290  -31.6460 C   0  0  0  0  0  0  0  0  0  0  0  0
   -4.0310   21.0640  -32.2350 C   0  0  0  0  0  0  0  0  0  0  0  0
   -5.2350   20.6200  -32.7980 C   0  0  0  0  0  0  0  0  0  0  0  0
   -5.3320   19.2660  -33.3710 C   0  0  0  0  0  0  0  0  0  0  0  0
   -4.2310   18.7600  -34.0780 C   0  0  0  0  0  0  0  0  0  0  0  0
   -4.2770   17.4840  -34.6400 C   0  0  0  0  0  0  0  0  0  0  0  0
   -5.4270   16.7040  -34.5090 C   0  0  0  0  0  0  0  0  0  0  0  0
   -6.5320   17.1960  -33.8100 C   0  0  0  0  0  0  0  0  0  0  0  0
   -6.5000   18.4770  -33.2290 C   0  0  0  0  0  0  0  0  0  0  0  0
   -7.9300   19.0610  -32.3520 S   0  0  0  0  0  0  0  0  0  0  0  0
   -8.9070   20.0580  -33.3750 N   0  0  0  0  0  0  0  0  0  0  0  0
   -7.5020   19.8400  -31.1410 O   0  0  0  0  0  0  0  0  0  0  0  0
   -8.7610   17.8940  -31.8950 O   0  0  0  0  0  0  0  0  0  0  0  0
   -6.3470   21.4690  -32.8220 C   0  0  0  0  0  0  0  0  0  0  0  0
   -6.2750   22.7320  -32.2280 C   0  0  0  0  0  0  0  0  0  0  0  0
   -4.2713   23.9610  -26.0732 H   0  0  0  0  0  0  0  0  0  0  0  0
   -2.6869   24.5997  -26.6287 H   0  0  0  0  0  0  0  0  0  0  0  0
   -4.1341   25.6638  -26.6287 H   0  0  0  0  0  0  0  0  0  0  0  0
   -5.0515   24.6668  -28.5058 H   0  0  0  0  0  0  0  0  0  0  0  0
   -4.3752   22.2686  -27.2679 H   0  0  0  0  0  0  0  0  0  0  0  0
   -5.2547   22.4629  -28.8221 H   0  0  0  0  0  0  0  0  0  0  0  0
   -3.4765   22.2087  -28.8221 H   0  0  0  0  0  0  0  0  0  0  0  0
   -2.6133   25.6016  -28.7957 H   0  0  0  0  0  0  0  0  0  0  0  0
   -2.3285   22.8424  -30.0307 H   0  0  0  0  0  0  0  0  0  0  0  0
   -1.2643   24.2968  -30.3329 H   0  0  0  0  0  0  0  0  0  0  0  0
   -1.7355   21.3534  -28.3370 H   0  0  0  0  0  0  0  0  0  0  0  0
   -0.3080   20.7692  -26.3745 H   0  0  0  0  0  0  0  0  0  0  0  0
    1.1868   22.4907  -25.3593 H   0  0  0  0  0  0  0  0  0  0  0  0
    1.2781   24.7917  -26.3214 H   0  0  0  0  0  0  0  0  0  0  0  0
   -0.1329   25.3811  -28.2927 H   0  0  0  0  0  0  0  0  0  0  0  0
   -3.0087   22.6763  -31.2101 H   0  0  0  0  0  0  0  0  0  0  0  0
   -3.1427   20.4156  -32.2568 H   0  0  0  0  0  0  0  0  0  0  0  0
   -3.3250   19.3737  -34.1900 H   0  0  0  0  0  0  0  0  0  0  0  0
   -3.4065   17.0924  -35.1867 H   0  0  0  0  0  0  0  0  0  0  0  0
   -5.4633   15.7000  -34.9570 H   0  0  0  0  0  0  0  0  0  0  0  0
   -7.4355   16.5761  -33.7130 H   0  0  0  0  0  0  0  0  0  0  0  0
   -9.6570   19.4520  -33.7780 H   0  0  0  0  0  0  0  0  0  0  0  0
   -8.3120   20.3860  -34.1670 H   0  0  0  0  0  0  0  0  0  0  0  0
   -7.2779   21.1423  -33.3084 H   0  0  0  0  0  0  0  0  0  0  0  0
   -7.1517   23.3961  -32.2453 H   0  0  0  0  0  0  0  0  0  0  0  0
  1  2  1  0
  2  3  1  0
  2  4  1  0
  4  5  1  0
  5  6  1  0
  6  7  2  0
  7  8  1  0
  8  9  2  0
  9 10  1  0
 10 11  2  0
  4 12  1  0
 12 13  1  0
 13 14  2  0
 13 15  1  0
 15 16  2  0
 16 17  1  0
 17 18  2  0
 18 19  1  0
 19 20  2  0
 20 21  1  0
 21 22  2  0
 22 23  1  0
 23 24  2  0
 24 25  1  0
 25 26  1  0
 25 27  2  0
 25 28  2  0
 18 29  1  0
 29 30  2  0
 11  6  1  0
 30 15  1  0
 24 19  1  0
  1 31  1  0
  1 32  1  0
  1 33  1  0
  2 34  1  0
  3 35  1  0
  3 36  1  0
  3 37  1  0
  4 38  1  1
  5 39  1  0
  5 40  1  0
  7 41  1  0
  8 42  1  0
  9 43  1  0
 10 44  1  0
 11 45  1  0
 16 46  1  0
 17 47  1  0
 20 48  1  0
 21 49  1  0
 22 50  1  0
 23 51  1  0
 26 52  1  0
 26 53  1  0
 29 54  1  0
 30 55  1  0
M  CHG  1  12  -1
M  END
>  <UniqueID>  (38) 
36

>  <SMILES>  (38) 
CC(C)[C@@H](Cc1ccccc1)[N-]C(=O)c1ccc(-c2ccccc2S(N)(=O)=O)cc1

>  <Energy>  (38) 
65.42691687722886

>  <Genealogy>  (38) 
CC(C)C(Cc1ccccc1)[N-]C(=O)c1ccc(-c2ccccc2S(N)(=O)=O)cc1 (protonated)
CC(C)[C@@H](Cc1ccccc1)[N-]C(=O)c1ccc(-c2ccccc2S(N)(=O)=O)cc1 (chirality)
CC(C)[C@@H](Cc1ccccc1)[N-]C(=O)c1ccc(-c2ccccc2S(N)(=O)=O)cc1 (3D coordinates assigned)
CC(C)[C@@H](Cc1ccccc1)[N-]C(=O)c1ccc(-c2ccccc2S(N)(=O)=O)cc1 (optimized conformer: 65.42691687722886 kcal/mol)

>  <smiles>  (38) 
CC(C)C(Cc1ccccc1)NC(=O)c1ccc(-c2ccccc2S(N)(=O)=O)cc1

>  <score_type>  (38) 
oracle

>  <origin>  (38) 
adgpu

>  <m_score__min__energy>  (38) 
-11.789999999999999

>  <m_primary>  (38) 
energy

$$$$
38:0
     RDKit          3D

 41 44  0  0  0  0  0  0  0  0999 V2000
   -4.7380   17.9880  -34.0780 C   0  0  0  0  0  0  0  0  0  0  0  0
   -3.9570   19.1740  -34.1800 O   0  0  0  0  0  0  0  0  0  0  0  0
   -2.9010   19.5050  -33.3170 C   0  0  0  0  0  0  0  0  0  0  0  0
   -1.9900   18.5500  -32.8350 C   0  0  0  0  0  0  0  0  0  0  0  0
   -0.9890   18.9270  -31.9980 N   0  0  0  0  0  0  0  0  0  0  0  0
   -0.8500   20.2210  -31.6150 C   0  0  0  0  0  0  0  0  0  0  0  0
   -1.7180   21.1620  -32.0660 N   0  0  0  0  0  0  0  0  0  0  0  0
   -2.7360   20.8330  -32.9030 C   0  0  0  0  0  0  0  0  0  0  0  0
   -3.8620   22.1140  -33.4690 S   0  0  0  0  0  0  0  0  0  0  0  0
   -4.2580   22.6330  -31.7990 C   0  0  0  0  0  0  0  0  0  0  0  0
   -3.3840   23.3010  -31.0280 N   0  0  0  0  0  0  0  0  0  0  0  0
   -4.0200   23.4300  -29.8440 C   0  0  0  0  0  0  0  0  0  0  0  0
   -3.4270   24.1200  -28.6780 C   0  0  0  0  0  0  0  0  0  0  0  0
   -4.1660   24.2830  -27.4930 C   0  0  0  0  0  0  0  0  0  0  0  0
   -3.6040   24.9370  -26.3920 C   0  0  0  0  0  0  0  0  0  0  0  0
   -2.3000   25.4350  -26.4630 C   0  0  0  0  0  0  0  0  0  0  0  0
   -1.5340   26.3300  -24.9600 Br  0  0  0  0  0  0  0  0  0  0  0  0
   -1.5570   25.2790  -27.6380 C   0  0  0  0  0  0  0  0  0  0  0  0
   -2.1150   24.6250  -28.7400 C   0  0  0  0  0  0  0  0  0  0  0  0
   -5.2420   22.8560  -29.8250 N   0  0  0  0  0  0  0  0  0  0  0  0
   -5.4000   22.3550  -31.0650 C   0  0  0  0  0  0  0  0  0  0  0  0
   -6.5840   21.5570  -31.4600 C   0  0  0  0  0  0  0  0  0  0  0  0
   -7.8900   21.9440  -31.1070 C   0  0  0  0  0  0  0  0  0  0  0  0
   -8.9870   21.1640  -31.4860 C   0  0  0  0  0  0  0  0  0  0  0  0
   -8.7930   19.9860  -32.2110 C   0  0  0  0  0  0  0  0  0  0  0  0
   -9.8580   19.2300  -32.5750 F   0  0  0  0  0  0  0  0  0  0  0  0
   -7.5000   19.5820  -32.5520 C   0  0  0  0  0  0  0  0  0  0  0  0
   -6.4010   20.3600  -32.1740 C   0  0  0  0  0  0  0  0  0  0  0  0
   -4.8983   17.7446  -33.0173 H   0  0  0  0  0  0  0  0  0  0  0  0
   -5.7097   18.1455  -34.5689 H   0  0  0  0  0  0  0  0  0  0  0  0
   -4.2095   17.1576  -34.5689 H   0  0  0  0  0  0  0  0  0  0  0  0
   -2.0876   17.4964  -33.1357 H   0  0  0  0  0  0  0  0  0  0  0  0
   -0.0323   20.5082  -30.9376 H   0  0  0  0  0  0  0  0  0  0  0  0
   -5.1929   23.8936  -27.4315 H   0  0  0  0  0  0  0  0  0  0  0  0
   -4.1892   25.0597  -25.4687 H   0  0  0  0  0  0  0  0  0  0  0  0
   -0.5312   25.6720  -27.6948 H   0  0  0  0  0  0  0  0  0  0  0  0
   -1.5254   24.5044  -29.6608 H   0  0  0  0  0  0  0  0  0  0  0  0
   -8.0491   22.8663  -30.5290 H   0  0  0  0  0  0  0  0  0  0  0  0
  -10.0049   21.4788  -31.2126 H   0  0  0  0  0  0  0  0  0  0  0  0
   -7.3461   18.6515  -33.1181 H   0  0  0  0  0  0  0  0  0  0  0  0
   -5.3846   20.0324  -32.4377 H   0  0  0  0  0  0  0  0  0  0  0  0
  1  2  1  0
  2  3  1  0
  3  4  2  0
  4  5  1  0
  5  6  2  0
  6  7  1  0
  7  8  2  0
  8  9  1  0
  9 10  1  0
 10 11  1  0
 11 12  1  0
 12 13  1  0
 13 14  2  0
 14 15  1  0
 15 16  2  0
 16 17  1  0
 16 18  1  0
 18 19  2  0
 12 20  2  0
 20 21  1  0
 21 22  1  0
 22 23  2  0
 23 24  1  0
 24 25  2  0
 25 26  1  0
 25 27  1  0
 27 28  2  0
  8  3  1  0
 21 10  2  0
 28 22  1  0
 19 13  1  0
  1 29  1  0
  1 30  1  0
  1 31  1  0
  4 32  1  0
  6 33  1  0
 14 34  1  0
 15 35  1  0
 18 36  1  0
 19 37  1  0
 23 38  1  0
 24 39  1  0
 27 40  1  0
 28 41  1  0
M  CHG  1  11  -1
M  END
>  <UniqueID>  (39) 
37

>  <SMILES>  (39) 
COc1cncnc1Sc1[n-]c(-c2ccc(Br)cc2)nc1-c1ccc(F)cc1

>  <Energy>  (39) 
75.62466706404233

>  <Genealogy>  (39) 
COc1cncnc1Sc1[n-]c(-c2ccc(Br)cc2)nc1-c1ccc(F)cc1 (protonated)
COc1cncnc1Sc1[n-]c(-c2ccc(Br)cc2)nc1-c1ccc(F)cc1 (3D coordinates assigned)
COc1cncnc1Sc1[n-]c(-c2ccc(Br)cc2)nc1-c1ccc(F)cc1 (optimized conformer: 75.62466706404233 kcal/mol)

>  <smiles>  (39) 
COc1cncnc1Sc1[nH]c(-c2ccc(Br)cc2)nc1-c1ccc(F)cc1

>  <score_type>  (39) 
oracle

>  <origin>  (39) 
adgpu

>  <m_score__min__energy>  (39) 
-8.7200000000000006

>  <m_primary>  (39) 
energy

$$$$
39:0
     RDKit          3D

 42 44  0  0  0  0  0  0  0  0999 V2000
   -5.6692   15.6056  -34.4781 H   0  0  0  0  0  0  0  0  0  0  0  0
   -5.8040   16.5880  -34.0020 C   0  0  0  0  0  0  0  0  0  0  0  0
   -4.7220   17.4630  -33.8950 C   0  0  0  0  0  0  0  0  0  0  0  0
   -3.7366   17.1654  -34.2829 H   0  0  0  0  0  0  0  0  0  0  0  0
   -4.8850   18.7160  -33.2970 C   0  0  0  0  0  0  0  0  0  0  0  0
   -3.7770   19.5720  -33.1990 O   0  0  0  0  0  0  0  0  0  0  0  0
   -3.7220   20.7200  -32.3960 C   0  0  0  0  0  0  0  0  0  0  0  0
   -2.8490   20.8110  -31.2970 C   0  0  0  0  0  0  0  0  0  0  0  0
   -2.1900   19.9656  -31.0498 H   0  0  0  0  0  0  0  0  0  0  0  0
   -2.8150   21.9700  -30.5180 C   0  0  0  0  0  0  0  0  0  0  0  0
   -2.1233   22.0377  -29.6653 H   0  0  0  0  0  0  0  0  0  0  0  0
   -3.6600   23.0470  -30.8200 C   0  0  0  0  0  0  0  0  0  0  0  0
   -3.6220   24.5000  -29.8290 S   0  0  0  0  0  0  0  0  0  0  0  0
   -4.2440   25.6460  -30.5780 O   0  0  0  0  0  0  0  0  0  0  0  0
   -2.1990   24.8540  -29.5010 O   0  0  0  0  0  0  0  0  0  0  0  0
   -4.5260   24.2130  -28.3250 C   0  0  0  0  0  0  0  0  0  0  0  0
   -3.8763   24.4193  -27.4617 H   0  0  0  0  0  0  0  0  0  0  0  0
   -5.4022   24.8771  -28.2915 H   0  0  0  0  0  0  0  0  0  0  0  0
   -4.8587   23.1651  -28.2915 H   0  0  0  0  0  0  0  0  0  0  0  0
   -4.5540   22.9440  -31.8930 C   0  0  0  0  0  0  0  0  0  0  0  0
   -5.2329   23.7785  -32.1225 H   0  0  0  0  0  0  0  0  0  0  0  0
   -4.5870   21.7840  -32.6740 C   0  0  0  0  0  0  0  0  0  0  0  0
   -5.2966   21.7079  -33.5110 H   0  0  0  0  0  0  0  0  0  0  0  0
   -6.1400   19.0740  -32.7730 C   0  0  0  0  0  0  0  0  0  0  0  0
   -6.2624   20.0421  -32.2653 H   0  0  0  0  0  0  0  0  0  0  0  0
   -7.2400   18.2060  -32.8920 C   0  0  0  0  0  0  0  0  0  0  0  0
   -8.5690   18.5840  -32.3450 C   0  0  0  0  0  0  0  0  0  0  0  0
   -9.1500   17.8070  -31.5400 O   0  0  0  0  0  0  0  0  0  0  0  0
   -9.1840   19.8460  -32.6450 N   0  0  0  0  0  0  0  0  0  0  0  0
   -8.8820   20.9890  -32.1020 C   0  0  0  0  0  0  0  0  0  0  0  0
   -9.5250   22.1010  -32.3670 O   0  0  0  0  0  0  0  0  0  0  0  0
   -9.0090   23.0850  -31.6940 N   0  0  0  0  0  0  0  0  0  0  0  0
   -9.3360   24.0760  -31.7370 H   0  0  0  0  0  0  0  0  0  0  0  0
   -7.9900   22.6000  -30.9600 C   0  0  0  0  0  0  0  0  0  0  0  0
   -7.0960   23.4290  -30.0980 C   0  0  0  0  0  0  0  0  0  0  0  0
   -7.3155   23.2255  -29.0395 H   0  0  0  0  0  0  0  0  0  0  0  0
   -6.0463   23.1775  -30.3097 H   0  0  0  0  0  0  0  0  0  0  0  0
   -7.2677   24.4947  -30.3097 H   0  0  0  0  0  0  0  0  0  0  0  0
   -7.8580   21.2460  -31.2030 C   0  0  0  0  0  0  0  0  0  0  0  0
   -7.1211   20.5441  -30.7855 H   0  0  0  0  0  0  0  0  0  0  0  0
   -7.0570   16.9550  -33.5070 C   0  0  0  0  0  0  0  0  0  0  0  0
   -7.9058   16.2614  -33.5987 H   0  0  0  0  0  0  0  0  0  0  0  0
  1  2  1  0
  2  3  2  0
  3  4  1  0
  3  5  1  0
  5  6  1  0
  6  7  1  0
  7  8  2  0
  8  9  1  0
  8 10  1  0
 10 11  1  0
 10 12  2  0
 12 13  1  0
 13 14  2  0
 13 15  2  0
 13 16  1  0
 16 17  1  0
 16 18  1  0
 16 19  1  0
 12 20  1  0
 20 21  1  0
 20 22  2  0
 22 23  1  0
  5 24  2  0
 24 25  1  0
 24 26  1  0
 26 27  1  0
 27 28  2  0
 27 29  1  0
 29 30  2  0
 30 31  1  0
 31 32  1  0
 32 33  1  0
 32 34  1  0
 34 35  1  0
 35 36  1  0
 35 37  1  0
 35 38  1  0
 34 39  2  0
 39 40  1  0
 26 41  2  0
 41 42  1  0
 41  2  1  0
 22  7  1  0
 39 30  1  0
M  END
>  <UniqueID>  (40) 
38

>  <SMILES>  (40) 
Cc1c/c(=N\C(=O)c2cccc(Oc3ccc(S(C)(=O)=O)cc3)c2)o[nH]1

>  <Energy>  (40) 
84.14570189088954

>  <Genealogy>  (40) 
Cc1c/c(=N\C(=O)c2cccc(Oc3ccc(S(C)(=O)=O)cc3)c2)o[nH]1 (cis-trans isomerization)
Cc1c/c(=N\C(=O)c2cccc(Oc3ccc(S(C)(=O)=O)cc3)c2)o[nH]1 (3D coordinates assigned)
Cc1c/c(=N\C(=O)c2cccc(Oc3ccc(S(C)(=O)=O)cc3)c2)o[nH]1 (optimized conformer: 84.14570189088954 kcal/mol)

>  <smiles>  (40) 
Cc1cc(=NC(=O)c2cccc(Oc3ccc(S(C)(=O)=O)cc3)c2)o[nH]1

>  <score_type>  (40) 
oracle

>  <origin>  (40) 
adgpu

>  <m_score__min__energy>  (40) 
-10.09

>  <m_primary>  (40) 
energy

$$$$
40:0
     RDKit          3D

 43 46  0  0  0  0  0  0  0  0999 V2000
   -9.7260   21.6910  -31.0940 C   0  0  0  0  0  0  0  0  0  0  0  0
   -8.3690   21.4240  -30.7600 O   0  0  0  0  0  0  0  0  0  0  0  0
   -7.4090   20.8000  -31.5830 C   0  0  0  0  0  0  0  0  0  0  0  0
   -6.1940   21.4790  -31.8120 C   0  0  0  0  0  0  0  0  0  0  0  0
   -5.9570   22.8250  -31.2340 C   0  0  0  0  0  0  0  0  0  0  0  0
   -7.0440   23.6680  -30.9500 C   0  0  0  0  0  0  0  0  0  0  0  0
   -6.8300   24.9280  -30.3870 C   0  0  0  0  0  0  0  0  0  0  0  0
   -5.5310   25.3600  -30.1060 C   0  0  0  0  0  0  0  0  0  0  0  0
   -4.4320   24.5310  -30.3930 C   0  0  0  0  0  0  0  0  0  0  0  0
   -3.1160   24.9190  -30.1030 O   0  0  0  0  0  0  0  0  0  0  0  0
   -2.2860   24.3250  -29.1410 C   0  0  0  0  0  0  0  0  0  0  0  0
   -2.3470   24.6830  -27.7810 C   0  0  0  0  0  0  0  0  0  0  0  0
   -1.4910   24.0790  -26.8550 C   0  0  0  0  0  0  0  0  0  0  0  0
   -0.5610   23.1260  -27.2800 C   0  0  0  0  0  0  0  0  0  0  0  0
   -0.4820   22.7810  -28.6320 C   0  0  0  0  0  0  0  0  0  0  0  0
   -1.3380   23.3840  -29.5590 C   0  0  0  0  0  0  0  0  0  0  0  0
   -4.6540   23.2600  -30.9370 C   0  0  0  0  0  0  0  0  0  0  0  0
   -5.2120   20.8980  -32.5620 N   0  0  0  0  0  0  0  0  0  0  0  0
   -5.3680   19.6710  -33.1300 C   0  0  0  0  0  0  0  0  0  0  0  0
   -4.3350   19.1130  -33.9010 C   0  0  0  0  0  0  0  0  0  0  0  0
   -4.4930   17.8560  -34.4880 C   0  0  0  0  0  0  0  0  0  0  0  0
   -5.6810   17.1440  -34.3120 C   0  0  0  0  0  0  0  0  0  0  0  0
   -6.7180   17.6870  -33.5470 C   0  0  0  0  0  0  0  0  0  0  0  0
   -6.5720   18.9550  -32.9490 C   0  0  0  0  0  0  0  0  0  0  0  0
   -7.5960   19.5250  -32.1700 C   0  0  0  0  0  0  0  0  0  0  0  0
   -8.6720   18.8910  -31.9990 O   0  0  0  0  0  0  0  0  0  0  0  0
  -10.3146   21.8068  -30.1720 H   0  0  0  0  0  0  0  0  0  0  0  0
   -9.7829   22.6176  -31.6841 H   0  0  0  0  0  0  0  0  0  0  0  0
  -10.1297   20.8551  -31.6841 H   0  0  0  0  0  0  0  0  0  0  0  0
   -8.0684   23.3343  -31.1720 H   0  0  0  0  0  0  0  0  0  0  0  0
   -7.6860   25.5820  -30.1642 H   0  0  0  0  0  0  0  0  0  0  0  0
   -5.3677   26.3517  -29.6589 H   0  0  0  0  0  0  0  0  0  0  0  0
   -3.0706   25.4406  -27.4456 H   0  0  0  0  0  0  0  0  0  0  0  0
   -1.5495   24.3539  -25.7915 H   0  0  0  0  0  0  0  0  0  0  0  0
    0.1087   22.6475  -26.5503 H   0  0  0  0  0  0  0  0  0  0  0  0
    0.2537   22.0350  -28.9671 H   0  0  0  0  0  0  0  0  0  0  0  0
   -1.2658   23.1170  -30.6237 H   0  0  0  0  0  0  0  0  0  0  0  0
   -3.8000   22.5953  -31.1339 H   0  0  0  0  0  0  0  0  0  0  0  0
   -4.3200   21.4210  -32.7200 H   0  0  0  0  0  0  0  0  0  0  0  0
   -3.3967   19.6692  -34.0431 H   0  0  0  0  0  0  0  0  0  0  0  0
   -3.6795   17.4257  -35.0906 H   0  0  0  0  0  0  0  0  0  0  0  0
   -5.8015   16.1540  -34.7760 H   0  0  0  0  0  0  0  0  0  0  0  0
   -7.6520   17.1220  -33.4113 H   0  0  0  0  0  0  0  0  0  0  0  0
  1  2  1  0
  2  3  1  0
  3  4  2  0
  4  5  1  0
  5  6  2  0
  6  7  1  0
  7  8  2  0
  8  9  1  0
  9 10  1  0
 10 11  1  0
 11 12  2  0
 12 13  1  0
 13 14  2  0
 14 15  1  0
 15 16  2  0
  9 17  2  0
  4 18  1  0
 18 19  1  0
 19 20  2  0
 20 21  1  0
 21 22  2  0
 22 23  1  0
 23 24  2  0
 24 25  1  0
 25 26  2  0
 25  3  1  0
 17  5  1  0
 24 19  1  0
 16 11  1  0
  1 27  1  0
  1 28  1  0
  1 29  1  0
  6 30  1  0
  7 31  1  0
  8 32  1  0
 12 33  1  0
 13 34  1  0
 14 35  1  0
 15 36  1  0
 16 37  1  0
 17 38  1  0
 18 39  1  0
 20 40  1  0
 21 41  1  0
 22 42  1  0
 23 43  1  0
M  END
>  <UniqueID>  (41) 
39

>  <SMILES>  (41) 
COc1c(-c2cccc(Oc3ccccc3)c2)[nH]c2ccccc2c1=O

>  <Energy>  (41) 
67.71855859642895

>  <Genealogy>  (41) 
COc1c(-c2cccc(Oc3ccccc3)c2)[nH]c2ccccc2c1=O (3D coordinates assigned)
COc1c(-c2cccc(Oc3ccccc3)c2)[nH]c2ccccc2c1=O (optimized conformer: 67.71855859642895 kcal/mol)

>  <smiles>  (41) 
COc1c(-c2cccc(Oc3ccccc3)c2)[nH]c2ccccc2c1=O

>  <score_type>  (41) 
oracle

>  <origin>  (41) 
adgpu

>  <m_score__min__energy>  (41) 
-9.4299999999999997

>  <m_primary>  (41) 
energy

$$$$
41:0
     RDKit          3D

 39 42  0  0  0  0  0  0  0  0999 V2000
   -4.9730   24.5080  -28.8450 C   0  0  0  0  0  0  0  0  0  0  0  0
   -5.9900   25.2440  -29.7130 C   0  0  0  0  0  0  0  0  0  0  0  0
   -5.7520   24.9630  -31.2050 C   0  0  0  0  0  0  0  0  0  0  0  0
   -5.5900   23.4960  -31.5900 C   0  0  0  0  0  0  0  0  0  0  0  0
   -4.3200   22.9080  -31.7580 C   0  0  0  0  0  0  0  0  0  0  0  0
   -4.2180   21.5590  -32.1060 C   0  0  0  0  0  0  0  0  0  0  0  0
   -3.0830   21.0320  -32.2510 O   0  0  0  0  0  0  0  0  0  0  0  0
   -5.3050   20.8230  -32.2840 O   0  0  0  0  0  0  0  0  0  0  0  0
   -6.5300   21.3140  -32.1480 C   0  0  0  0  0  0  0  0  0  0  0  0
   -6.7320   22.6750  -31.7810 C   0  0  0  0  0  0  0  0  0  0  0  0
   -8.0620   23.1530  -31.6040 C   0  0  0  0  0  0  0  0  0  0  0  0
   -9.1630   22.2990  -31.7770 C   0  0  0  0  0  0  0  0  0  0  0  0
   -8.9220   20.9800  -32.1400 C   0  0  0  0  0  0  0  0  0  0  0  0
   -9.8130   20.0340  -32.3200 O   0  0  0  0  0  0  0  0  0  0  0  0
   -9.1700   18.9300  -32.6450 C   0  0  0  0  0  0  0  0  0  0  0  0
   -7.8010   19.1680  -32.6860 C   0  0  0  0  0  0  0  0  0  0  0  0
   -6.7630   18.1830  -33.0500 C   0  0  0  0  0  0  0  0  0  0  0  0
   -6.3860   17.1730  -32.1480 C   0  0  0  0  0  0  0  0  0  0  0  0
   -5.3880   16.2570  -32.4940 C   0  0  0  0  0  0  0  0  0  0  0  0
   -4.7510   16.3490  -33.7340 C   0  0  0  0  0  0  0  0  0  0  0  0
   -5.1040   17.3650  -34.6270 C   0  0  0  0  0  0  0  0  0  0  0  0
   -6.1020   18.2830  -34.2850 C   0  0  0  0  0  0  0  0  0  0  0  0
   -7.6540   20.5040  -32.3470 C   0  0  0  0  0  0  0  0  0  0  0  0
   -5.2065   24.6770  -27.7834 H   0  0  0  0  0  0  0  0  0  0  0  0
   -5.0163   23.4307  -29.0630 H   0  0  0  0  0  0  0  0  0  0  0  0
   -3.9632   24.8859  -29.0630 H   0  0  0  0  0  0  0  0  0  0  0  0
   -7.0023   24.9098  -29.4417 H   0  0  0  0  0  0  0  0  0  0  0  0
   -5.8796   26.3246  -29.5396 H   0  0  0  0  0  0  0  0  0  0  0  0
   -6.6093   25.3654  -31.7645 H   0  0  0  0  0  0  0  0  0  0  0  0
   -4.7921   25.4419  -31.4482 H   0  0  0  0  0  0  0  0  0  0  0  0
   -3.4108   23.5104  -31.6153 H   0  0  0  0  0  0  0  0  0  0  0  0
   -8.2287   24.2047  -31.3282 H   0  0  0  0  0  0  0  0  0  0  0  0
  -10.1897   22.6649  -31.6289 H   0  0  0  0  0  0  0  0  0  0  0  0
   -9.6474   17.9612  -32.8535 H   0  0  0  0  0  0  0  0  0  0  0  0
   -6.8778   17.1031  -31.1666 H   0  0  0  0  0  0  0  0  0  0  0  0
   -5.1038   15.4623  -31.7885 H   0  0  0  0  0  0  0  0  0  0  0  0
   -3.9719   15.6222  -34.0076 H   0  0  0  0  0  0  0  0  0  0  0  0
   -4.5962   17.4424  -35.5997 H   0  0  0  0  0  0  0  0  0  0  0  0
   -6.3704   19.0868  -34.9863 H   0  0  0  0  0  0  0  0  0  0  0  0
  1  2  1  0
  2  3  1  0
  3  4  1  0
  4  5  2  0
  5  6  1  0
  6  7  2  0
  6  8  1  0
  8  9  1  0
  9 10  2  0
 10 11  1  0
 11 12  2  0
 12 13  1  0
 13 14  1  0
 14 15  1  0
 15 16  2  0
 16 17  1  0
 17 18  2  0
 18 19  1  0
 19 20  2  0
 20 21  1  0
 21 22  2  0
 16 23  1  0
 10  4  1  0
 23 13  2  0
 23  9  1  0
 22 17  1  0
  1 24  1  0
  1 25  1  0
  1 26  1  0
  2 27  1  0
  2 28  1  0
  3 29  1  0
  3 30  1  0
  5 31  1  0
 11 32  1  0
 12 33  1  0
 15 34  1  0
 18 35  1  0
 19 36  1  0
 20 37  1  0
 21 38  1  0
 22 39  1  0
M  END
>  <UniqueID>  (42) 
40

>  <SMILES>  (42) 
CCCc1cc(=O)oc2c1ccc1occ(-c3ccccc3)c12

>  <Energy>  (42) 
87.80333456620674

>  <Genealogy>  (42) 
CCCc1cc(=O)oc2c1ccc1occ(-c3ccccc3)c12 (3D coordinates assigned)
CCCc1cc(=O)oc2c1ccc1occ(-c3ccccc3)c12 (optimized conformer: 87.80333456620674 kcal/mol)

>  <smiles>  (42) 
CCCc1cc(=O)oc2c1ccc1occ(-c3ccccc3)c12

>  <score_type>  (42) 
oracle

>  <origin>  (42) 
adgpu

>  <m_score__min__energy>  (42) 
-8.5399999999999991

>  <m_primary>  (42) 
energy

$$$$
42:0
     RDKit          3D

 29 30  0  0  0  0  0  0  0  0999 V2000
   -6.8790   18.6450  -31.2190 O   0  0  0  0  0  0  0  0  0  0  0  0
   -6.9560   18.6450  -32.4770 C   0  0  0  0  0  0  0  0  0  0  0  0
   -7.2310   17.3580  -33.1950 C   0  0  0  0  0  0  0  0  0  0  0  0
   -5.9850   16.8210  -33.7660 N   0  0  0  0  0  0  0  0  0  0  0  0
   -5.4900   15.6420  -33.2740 C   0  0  0  0  0  0  0  0  0  0  0  0
   -4.3270   15.0800  -33.8030 C   0  0  0  0  0  0  0  0  0  0  0  0
   -3.6710   15.7240  -34.8480 C   0  0  0  0  0  0  0  0  0  0  0  0
   -4.1820   16.9160  -35.3550 C   0  0  0  0  0  0  0  0  0  0  0  0
   -5.3490   17.4570  -34.8050 C   0  0  0  0  0  0  0  0  0  0  0  0
   -5.8050   18.5330  -35.2790 O   0  0  0  0  0  0  0  0  0  0  0  0
   -6.8480   19.8730  -33.2120 N   0  0  0  0  0  0  0  0  0  0  0  0
   -6.6220   21.1340  -32.5680 C   0  0  0  0  0  0  0  0  0  0  0  0
   -5.3140   21.6320  -32.4860 C   0  0  0  0  0  0  0  0  0  0  0  0
   -5.0610   22.8590  -31.8680 C   0  0  0  0  0  0  0  0  0  0  0  0
   -6.1130   23.5930  -31.3130 C   0  0  0  0  0  0  0  0  0  0  0  0
   -5.7670   25.2680  -30.4650 Br  0  0  0  0  0  0  0  0  0  0  0  0
   -7.4180   23.0920  -31.3660 C   0  0  0  0  0  0  0  0  0  0  0  0
   -7.6790   21.8630  -31.9830 C   0  0  0  0  0  0  0  0  0  0  0  0
   -9.4690   21.1790  -31.9300 Br  0  0  0  0  0  0  0  0  0  0  0  0
   -7.6505   16.6286  -32.4865 H   0  0  0  0  0  0  0  0  0  0  0  0
   -7.9481   17.5453  -34.0078 H   0  0  0  0  0  0  0  0  0  0  0  0
   -6.0151   15.1325  -32.4527 H   0  0  0  0  0  0  0  0  0  0  0  0
   -3.9325   14.1366  -33.3976 H   0  0  0  0  0  0  0  0  0  0  0  0
   -2.7521   15.2929  -35.2719 H   0  0  0  0  0  0  0  0  0  0  0  0
   -3.6711   17.4292  -36.1830 H   0  0  0  0  0  0  0  0  0  0  0  0
   -7.1380   19.8820  -34.2150 H   0  0  0  0  0  0  0  0  0  0  0  0
   -4.4813   21.0526  -32.9112 H   0  0  0  0  0  0  0  0  0  0  0  0
   -4.0332   23.2477  -31.8181 H   0  0  0  0  0  0  0  0  0  0  0  0
   -8.2433   23.6668  -30.9205 H   0  0  0  0  0  0  0  0  0  0  0  0
  1  2  2  0
  2  3  1  0
  3  4  1  0
  4  5  1  0
  5  6  2  0
  6  7  1  0
  7  8  2  0
  8  9  1  0
  9 10  2  0
  2 11  1  0
 11 12  1  0
 12 13  2  0
 13 14  1  0
 14 15  2  0
 15 16  1  0
 15 17  1  0
 17 18  2  0
 18 19  1  0
  9  4  1  0
 18 12  1  0
  3 20  1  0
  3 21  1  0
  5 22  1  0
  6 23  1  0
  7 24  1  0
  8 25  1  0
 11 26  1  0
 13 27  1  0
 14 28  1  0
 17 29  1  0
M  END
>  <UniqueID>  (43) 
41

>  <SMILES>  (43) 
O=C(Cn1ccccc1=O)Nc1ccc(Br)cc1Br

>  <Energy>  (43) 
36.595406832027976

>  <Genealogy>  (43) 
O=C(Cn1ccccc1=O)Nc1ccc(Br)cc1Br (3D coordinates assigned)
O=C(Cn1ccccc1=O)Nc1ccc(Br)cc1Br (optimized conformer: 36.595406832027976 kcal/mol)

>  <smiles>  (43) 
O=C(Cn1ccccc1=O)Nc1ccc(Br)cc1Br

>  <score_type>  (43) 
oracle

>  <origin>  (43) 
adgpu

>  <m_score__min__energy>  (43) 
-8.1099999999999994

>  <m_primary>  (43) 
energy

$$$$
43:0
     RDKit          3D

 38 41  0  0  0  0  0  0  0  0999 V2000
   -4.1380   25.6270  -31.0240 O   0  0  0  0  0  0  0  0  0  0  0  0
   -4.3460   24.2620  -30.8390 C   0  0  0  0  0  0  0  0  0  0  0  0
   -5.0120   23.4980  -31.7230 N   0  0  0  0  0  0  0  0  0  0  0  0
   -4.9080   22.2610  -31.1860 C   0  0  0  0  0  0  0  0  0  0  0  0
   -5.4730   21.0850  -31.7930 N   0  0  0  0  0  0  0  0  0  0  0  0
   -6.9280   20.8900  -31.7750 C   0  0  0  0  0  0  0  0  0  0  0  0
   -7.2620   19.4110  -31.6100 C   0  0  0  0  0  0  0  0  0  0  0  0
   -6.5730   18.6020  -32.6700 C   0  0  0  0  0  0  0  0  0  0  0  0
   -7.1710   17.4310  -33.1620 C   0  0  0  0  0  0  0  0  0  0  0  0
   -6.5170   16.6590  -34.1260 C   0  0  0  0  0  0  0  0  0  0  0  0
   -5.2580   17.0420  -34.5940 C   0  0  0  0  0  0  0  0  0  0  0  0
   -4.6490   18.1970  -34.0980 C   0  0  0  0  0  0  0  0  0  0  0  0
   -5.2990   18.9870  -33.1360 C   0  0  0  0  0  0  0  0  0  0  0  0
   -4.5960   20.2080  -32.5870 C   0  0  0  0  0  0  0  0  0  0  0  0
   -4.2360   22.2440  -30.0550 O   0  0  0  0  0  0  0  0  0  0  0  0
   -3.8790   23.4780  -29.7990 C   0  0  0  0  0  0  0  0  0  0  0  0
   -3.1220   23.8830  -28.5990 C   0  0  0  0  0  0  0  0  0  0  0  0
   -3.7500   24.5430  -27.5280 C   0  0  0  0  0  0  0  0  0  0  0  0
   -3.0180   24.8940  -26.3910 C   0  0  0  0  0  0  0  0  0  0  0  0
   -1.6590   24.5780  -26.3060 C   0  0  0  0  0  0  0  0  0  0  0  0
   -1.0330   23.9010  -27.3560 C   0  0  0  0  0  0  0  0  0  0  0  0
   -1.7620   23.5460  -28.4940 C   0  0  0  0  0  0  0  0  0  0  0  0
   -4.1400   26.0490  -31.9430 H   0  0  0  0  0  0  0  0  0  0  0  0
   -7.3595   21.4552  -30.9358 H   0  0  0  0  0  0  0  0  0  0  0  0
   -7.3487   21.2478  -32.7263 H   0  0  0  0  0  0  0  0  0  0  0  0
   -6.9271   19.0714  -30.6188 H   0  0  0  0  0  0  0  0  0  0  0  0
   -8.3495   19.2760  -31.7060 H   0  0  0  0  0  0  0  0  0  0  0  0
   -8.1575   17.1201  -32.7875 H   0  0  0  0  0  0  0  0  0  0  0  0
   -6.9945   15.7483  -34.5168 H   0  0  0  0  0  0  0  0  0  0  0  0
   -4.7457   16.4335  -35.3538 H   0  0  0  0  0  0  0  0  0  0  0  0
   -3.6536   18.4897  -34.4634 H   0  0  0  0  0  0  0  0  0  0  0  0
   -3.7666   19.8734  -31.9466 H   0  0  0  0  0  0  0  0  0  0  0  0
   -4.2475   20.7951  -33.4495 H   0  0  0  0  0  0  0  0  0  0  0  0
   -4.8218   24.7839  -27.5856 H   0  0  0  0  0  0  0  0  0  0  0  0
   -3.5121   25.4201  -25.5609 H   0  0  0  0  0  0  0  0  0  0  0  0
   -1.0827   24.8621  -25.4131 H   0  0  0  0  0  0  0  0  0  0  0  0
    0.0351   23.6472  -27.2866 H   0  0  0  0  0  0  0  0  0  0  0  0
   -1.2687   23.0000  -29.3117 H   0  0  0  0  0  0  0  0  0  0  0  0
  1  2  1  0
  2  3  1  0
  3  4  2  0
  4  5  1  0
  5  6  1  0
  6  7  1  0
  7  8  1  0
  8  9  2  0
  9 10  1  0
 10 11  2  0
 11 12  1  0
 12 13  2  0
 13 14  1  0
  4 15  1  0
 15 16  1  0
 16 17  1  0
 17 18  2  0
 18 19  1  0
 19 20  2  0
 20 21  1  0
 21 22  2  0
 16  2  2  0
 22 17  1  0
 14  5  1  0
 13  8  1  0
  1 23  1  0
  6 24  1  0
  6 25  1  0
  7 26  1  0
  7 27  1  0
  9 28  1  0
 10 29  1  0
 11 30  1  0
 12 31  1  0
 14 32  1  0
 14 33  1  0
 18 34  1  0
 19 35  1  0
 20 36  1  0
 21 37  1  0
 22 38  1  0
M  END
>  <UniqueID>  (44) 
42

>  <SMILES>  (44) 
Oc1nc(N2CCc3ccccc3C2)oc1-c1ccccc1

>  <Energy>  (44) 
77.91365972907734

>  <Genealogy>  (44) 
Oc1nc(N2CCc3ccccc3C2)oc1-c1ccccc1 (3D coordinates assigned)
Oc1nc(N2CCc3ccccc3C2)oc1-c1ccccc1 (nonaromatic ring conformer: 77.91365972907734 kcal/mol)

>  <smiles>  (44) 
Oc1nc(N2CCc3ccccc3C2)oc1-c1ccccc1

>  <score_type>  (44) 
oracle

>  <origin>  (44) 
adgpu

>  <m_score__min__energy>  (44) 
-8.4499999999999993

>  <m_primary>  (44) 
energy

$$$$
44:0
     RDKit          3D

 50 52  0  0  1  0  0  0  0  0999 V2000
   -0.0870   18.7610  -35.3080 C   0  0  0  0  0  0  0  0  0  0  0  0
   -0.9430   19.2140  -34.1780 C   0  0  0  0  0  0  0  0  0  0  0  0
   -0.3610   19.6860  -33.0540 N   0  0  0  0  0  0  0  0  0  0  0  0
   -1.0800   20.1100  -32.0010 C   0  0  0  0  0  0  0  0  0  0  0  0
   -0.4870   20.5530  -30.9470 N   0  0  0  0  0  0  0  0  0  0  0  0
   -1.2080   21.0110  -29.8090 C   0  0  0  0  0  0  0  0  0  0  0  0
   -1.3320   20.2800  -28.6470 C   0  0  0  0  0  0  0  0  0  0  0  0
   -2.0650   20.8370  -27.6000 C   0  0  0  0  0  0  0  0  0  0  0  0
   -2.6480   22.0810  -27.7250 C   0  0  0  0  0  0  0  0  0  0  0  0
   -2.5290   22.8270  -28.8930 C   0  0  0  0  0  0  0  0  0  0  0  0
   -3.2630   24.4080  -29.0680 S   0  0  0  0  0  0  0  0  0  0  0  0
   -4.5440   24.5590  -27.9460 N   0  0  0  0  0  0  0  0  0  0  0  0
   -3.8920   24.4110  -30.4540 O   0  0  0  0  0  0  0  0  0  0  0  0
   -2.2600   25.4940  -28.9350 O   0  0  0  0  0  0  0  0  0  0  0  0
   -1.8010   22.2600  -29.9170 C   0  0  0  0  0  0  0  0  0  0  0  0
   -2.4530   20.0600  -32.0710 C   0  0  0  0  0  0  0  0  0  0  0  0
   -3.0670   19.5840  -33.2040 C   0  0  0  0  0  0  0  0  0  0  0  0
   -4.5030   19.5450  -33.2450 C   0  0  0  0  0  0  0  0  0  0  0  0
   -5.0700   19.1870  -34.3100 O   0  0  0  0  0  0  0  0  0  0  0  0
   -5.3430   19.8890  -32.1480 N   0  0  0  0  0  0  0  0  0  0  0  0
   -6.7580   19.8470  -32.2020 C   0  0  0  0  0  0  0  0  0  0  0  0
   -7.3620   18.6080  -32.1680 C   0  0  0  0  0  0  0  0  0  0  0  0
   -6.5410   17.3770  -32.0800 C   0  0  0  0  0  0  0  0  0  0  0  0
   -8.7420   18.5550  -32.2200 C   0  0  0  0  0  0  0  0  0  0  0  0
   -9.4880   19.7230  -32.3020 C   0  0  0  0  0  0  0  0  0  0  0  0
   -8.8740   20.9490  -32.3340 C   0  0  0  0  0  0  0  0  0  0  0  0
   -7.4970   21.0110  -32.2830 C   0  0  0  0  0  0  0  0  0  0  0  0
   -6.8250   22.3220  -32.3170 C   0  0  0  0  0  0  0  0  0  0  0  0
   -2.2990   19.1710  -34.2320 N   0  0  0  0  0  0  0  0  0  0  0  0
    0.8199   18.2811  -34.9115 H   0  0  0  0  0  0  0  0  0  0  0  0
   -0.6442   18.0397  -35.9239 H   0  0  0  0  0  0  0  0  0  0  0  0
    0.1960   19.6274  -35.9239 H   0  0  0  0  0  0  0  0  0  0  0  0
   -0.8670   19.2879  -28.5488 H   0  0  0  0  0  0  0  0  0  0  0  0
   -2.1801   20.2764  -26.6606 H   0  0  0  0  0  0  0  0  0  0  0  0
   -3.2206   22.4928  -26.8809 H   0  0  0  0  0  0  0  0  0  0  0  0
   -4.7300   25.5360  -27.6780 H   0  0  0  0  0  0  0  0  0  0  0  0
   -5.3660   24.0560  -28.3000 H   0  0  0  0  0  0  0  0  0  0  0  0
   -1.6859   22.8202  -30.8567 H   0  0  0  0  0  0  0  0  0  0  0  0
   -3.0596   20.4014  -31.2192 H   0  0  0  0  0  0  0  0  0  0  0  0
   -4.9150   20.1910  -31.2500 H   0  0  0  0  0  0  0  0  0  0  0  0
   -6.3721   17.1237  -31.0230 H   0  0  0  0  0  0  0  0  0  0  0  0
   -7.0680   16.5485  -32.5759 H   0  0  0  0  0  0  0  0  0  0  0  0
   -5.5736   17.5452  -32.5759 H   0  0  0  0  0  0  0  0  0  0  0  0
   -9.2527   17.5810  -32.1963 H   0  0  0  0  0  0  0  0  0  0  0  0
  -10.5857   19.6644  -32.3418 H   0  0  0  0  0  0  0  0  0  0  0  0
   -9.4715   21.8702  -32.3994 H   0  0  0  0  0  0  0  0  0  0  0  0
   -6.6469   22.6695  -31.2886 H   0  0  0  0  0  0  0  0  0  0  0  0
   -5.8640   22.2279  -32.8439 H   0  0  0  0  0  0  0  0  0  0  0  0
   -7.4625   23.0473  -32.8439 H   0  0  0  0  0  0  0  0  0  0  0  0
   -2.7260   18.8020  -35.1110 H   0  0  0  0  0  0  0  0  0  0  0  0
  1  2  1  0
  2  3  2  0
  3  4  1  0
  4  5  2  0
  5  6  1  0
  6  7  2  0
  7  8  1  0
  8  9  2  0
  9 10  1  0
 10 11  1  0
 11 12  1  0
 11 13  2  0
 11 14  2  0
 10 15  2  0
  4 16  1  0
 16 17  2  0
 17 18  1  0
 18 19  2  0
 18 20  1  0
 20 21  1  0
 21 22  2  0
 22 23  1  0
 22 24  1  0
 24 25  2  0
 25 26  1  0
 26 27  2  0
 27 28  1  0
 17 29  1  0
 29  2  1  0
 15  6  1  0
 27 21  1  0
  1 30  1  0
  1 31  1  0
  1 32  1  0
  7 33  1  0
  8 34  1  0
  9 35  1  0
 12 36  1  0
 12 37  1  0
 15 38  1  0
 16 39  1  0
 20 40  1  0
 23 41  1  0
 23 42  1  0
 23 43  1  0
 24 44  1  0
 25 45  1  0
 26 46  1  0
 28 47  1  0
 28 48  1  0
 28 49  1  0
 29 50  1  0
M  END
>  <smiles>  (45) 
Cc1nc(=Nc2cccc(S(N)(=O)=O)c2)cc(C(=O)Nc2c(C)cccc2C)[nH]1

>  <score_type>  (45) 
oracle

>  <origin>  (45) 
adgpu

>  <m_score__min__energy>  (45) 
-10.140000000000001

>  <m_primary>  (45) 
energy

$$$$
45:0
     RDKit          3D

 49 51  0  0  0  0  0  0  0  0999 V2000
   -2.4360   18.5950  -26.3580 C   0  0  0  0  0  0  0  0  0  0  0  0
   -1.3780   18.9700  -27.3930 C   0  0  0  0  0  0  0  0  0  0  0  0
   -1.8230   20.1150  -28.2010 N   0  0  0  0  0  0  0  0  0  0  0  0
   -2.6700   21.1390  -27.5660 C   0  0  0  0  0  0  0  0  0  0  0  0
   -2.9270   22.3320  -28.4640 C   0  0  0  0  0  0  0  0  0  0  0  0
   -4.1080   22.3580  -29.2260 C   0  0  0  0  0  0  0  0  0  0  0  0
   -4.4230   23.4660  -30.0180 C   0  0  0  0  0  0  0  0  0  0  0  0
   -3.5670   24.5700  -30.0500 C   0  0  0  0  0  0  0  0  0  0  0  0
   -3.8980   25.6800  -30.8210 O   0  0  0  0  0  0  0  0  0  0  0  0
   -2.3870   24.5610  -29.2930 C   0  0  0  0  0  0  0  0  0  0  0  0
   -1.5340   25.6600  -29.3130 O   0  0  0  0  0  0  0  0  0  0  0  0
   -2.0670   23.4490  -28.5070 C   0  0  0  0  0  0  0  0  0  0  0  0
   -1.4250   20.2170  -29.5900 C   0  0  0  0  0  0  0  0  0  0  0  0
   -2.3750   20.2170  -30.6230 C   0  0  0  0  0  0  0  0  0  0  0  0
   -1.9350   20.2510  -31.9550 C   0  0  0  0  0  0  0  0  0  0  0  0
   -2.8360   20.1920  -33.0270 O   0  0  0  0  0  0  0  0  0  0  0  0
   -4.1870   19.8410  -32.8840 C   0  0  0  0  0  0  0  0  0  0  0  0
   -4.5920   18.4850  -32.8950 C   0  0  0  0  0  0  0  0  0  0  0  0
   -3.6120   17.3730  -33.1510 C   0  0  0  0  0  0  0  0  0  0  0  0
   -5.9330   18.1630  -32.6420 C   0  0  0  0  0  0  0  0  0  0  0  0
   -6.8760   19.1720  -32.4310 C   0  0  0  0  0  0  0  0  0  0  0  0
   -8.2510   18.8290  -32.1700 C   0  0  0  0  0  0  0  0  0  0  0  0
   -9.3550   18.5530  -31.9610 N   0  0  0  0  0  0  0  0  0  0  0  0
   -6.4880   20.5130  -32.4860 C   0  0  0  0  0  0  0  0  0  0  0  0
   -5.1490   20.8570  -32.7270 C   0  0  0  0  0  0  0  0  0  0  0  0
   -4.7350   22.2990  -32.7430 C   0  0  0  0  0  0  0  0  0  0  0  0
   -0.6040   20.3400  -32.2130 N   0  0  0  0  0  0  0  0  0  0  0  0
    0.3070   20.3540  -31.2070 C   0  0  0  0  0  0  0  0  0  0  0  0
   -0.1040   20.2790  -29.9140 N   0  0  0  0  0  0  0  0  0  0  0  0
   -2.0274   18.7398  -25.3470 H   0  0  0  0  0  0  0  0  0  0  0  0
   -3.3214   19.2341  -26.4907 H   0  0  0  0  0  0  0  0  0  0  0  0
   -2.7213   17.5410  -26.4907 H   0  0  0  0  0  0  0  0  0  0  0  0
   -0.4444   19.2348  -26.8751 H   0  0  0  0  0  0  0  0  0  0  0  0
   -1.2148   18.1098  -28.0590 H   0  0  0  0  0  0  0  0  0  0  0  0
   -3.6359   20.6824  -27.3041 H   0  0  0  0  0  0  0  0  0  0  0  0
   -2.1352   21.5045  -26.6769 H   0  0  0  0  0  0  0  0  0  0  0  0
   -4.7919   21.4969  -29.1988 H   0  0  0  0  0  0  0  0  0  0  0  0
   -5.3458   23.4688  -30.6167 H   0  0  0  0  0  0  0  0  0  0  0  0
   -1.1379   23.4457  -27.9182 H   0  0  0  0  0  0  0  0  0  0  0  0
   -3.4501   20.1907  -30.3916 H   0  0  0  0  0  0  0  0  0  0  0  0
   -3.2564   16.9695  -32.1914 H   0  0  0  0  0  0  0  0  0  0  0  0
   -4.1053   16.5743  -33.7244 H   0  0  0  0  0  0  0  0  0  0  0  0
   -2.7576   17.7620  -33.7244 H   0  0  0  0  0  0  0  0  0  0  0  0
   -6.2447   17.1086  -32.6094 H   0  0  0  0  0  0  0  0  0  0  0  0
   -7.2374   21.3048  -32.3394 H   0  0  0  0  0  0  0  0  0  0  0  0
   -4.6308   22.6620  -31.7099 H   0  0  0  0  0  0  0  0  0  0  0  0
   -3.7721   22.3982  -33.2654 H   0  0  0  0  0  0  0  0  0  0  0  0
   -5.4986   22.8939  -33.2654 H   0  0  0  0  0  0  0  0  0  0  0  0
    1.3799   20.4262  -31.4388 H   0  0  0  0  0  0  0  0  0  0  0  0
  1  2  1  0
  2  3  1  0
  3  4  1  0
  4  5  1  0
  5  6  2  0
  6  7  1  0
  7  8  2  0
  8  9  1  0
  8 10  1  0
 10 11  1  0
 10 12  2  0
  3 13  1  0
 13 14  2  0
 14 15  1  0
 15 16  1  0
 16 17  1  0
 17 18  2  0
 18 19  1  0
 18 20  1  0
 20 21  2  0
 21 22  1  0
 22 23  3  0
 21 24  1  0
 24 25  2  0
 25 26  1  0
 15 27  2  0
 27 28  1  0
 28 29  2  0
 12  5  1  0
 29 13  1  0
 25 17  1  0
  1 30  1  0
  1 31  1  0
  1 32  1  0
  2 33  1  0
  2 34  1  0
  4 35  1  0
  4 36  1  0
  6 37  1  0
  7 38  1  0
 12 39  1  0
 14 40  1  0
 19 41  1  0
 19 42  1  0
 19 43  1  0
 20 44  1  0
 24 45  1  0
 26 46  1  0
 26 47  1  0
 26 48  1  0
 28 49  1  0
M  CHG  2   9  -1  11  -1
M  END
>  <UniqueID>  (46) 
43

>  <SMILES>  (46) 
CCN(Cc1ccc([O-])c([O-])c1)c1cc(Oc2c(C)cc(C#N)cc2C)ncn1

>  <Energy>  (46) 
57.304029314845685

>  <Genealogy>  (46) 
CCN(Cc1ccc([O-])c([O-])c1)c1cc(Oc2c(C)cc(C#N)cc2C)ncn1 (protonated)
CCN(Cc1ccc([O-])c([O-])c1)c1cc(Oc2c(C)cc(C#N)cc2C)ncn1 (3D coordinates assigned)
CCN(Cc1ccc([O-])c([O-])c1)c1cc(Oc2c(C)cc(C#N)cc2C)ncn1 (optimized conformer: 57.304029314845685 kcal/mol)

>  <smiles>  (46) 
CCN(Cc1ccc(O)c(O)c1)c1cc(Oc2c(C)cc(C#N)cc2C)ncn1

>  <score_type>  (46) 
oracle

>  <origin>  (46) 
adgpu

>  <m_score__min__energy>  (46) 
-15.140000000000001

>  <m_primary>  (46) 
energy

$$$$
46:0
     RDKit          3D

 53 55  0  0  0  0  0  0  0  0999 V2000
   -7.0670   20.0870  -34.6130 H   0  0  0  0  0  0  0  0  0  0  0  0
   -6.3910   19.2920  -34.6690 N   0  0  0  0  0  0  0  0  0  0  0  0
   -5.2750   19.2980  -34.0100 C   0  0  0  0  0  0  0  0  0  0  0  0
   -4.9810   20.3680  -33.2250 N   0  0  0  0  0  0  0  0  0  0  0  0
   -3.8310   20.4480  -32.5080 C   0  0  0  0  0  0  0  0  0  0  0  0
   -3.5750   21.6480  -31.6700 C   0  0  0  0  0  0  0  0  0  0  0  0
   -2.2960   21.9200  -31.1470 C   0  0  0  0  0  0  0  0  0  0  0  0
   -1.4639   21.2308  -31.3537 H   0  0  0  0  0  0  0  0  0  0  0  0
   -2.0760   23.0580  -30.3680 C   0  0  0  0  0  0  0  0  0  0  0  0
   -1.0699   23.2612  -29.9724 H   0  0  0  0  0  0  0  0  0  0  0  0
   -3.1230   23.9420  -30.0860 C   0  0  0  0  0  0  0  0  0  0  0  0
   -2.8450   25.1100  -29.3000 N   0  0  0  0  0  0  0  0  0  0  0  0
   -1.6220   25.4080  -28.6120 C   0  0  0  0  0  0  0  0  0  0  0  0
   -0.8800   26.3420  -29.0200 O   0  0  0  0  0  0  0  0  0  0  0  0
   -1.2570   24.6550  -27.3890 C   0  0  0  0  0  0  0  0  0  0  0  0
   -1.1840   25.3040  -26.1420 C   0  0  0  0  0  0  0  0  0  0  0  0
   -1.3983   26.3807  -26.0729 H   0  0  0  0  0  0  0  0  0  0  0  0
   -0.8410   24.5890  -24.9910 C   0  0  0  0  0  0  0  0  0  0  0  0
   -0.7873   25.1050  -24.0210 H   0  0  0  0  0  0  0  0  0  0  0  0
   -0.5660   23.2210  -25.0680 C   0  0  0  0  0  0  0  0  0  0  0  0
   -0.1360   22.3270  -23.6210 Cl  0  0  0  0  0  0  0  0  0  0  0  0
   -0.6370   22.5660  -26.3000 C   0  0  0  0  0  0  0  0  0  0  0  0
   -0.4233   21.4887  -26.3615 H   0  0  0  0  0  0  0  0  0  0  0  0
   -0.9790   23.2760  -27.4550 C   0  0  0  0  0  0  0  0  0  0  0  0
   -1.0313   22.7539  -28.4218 H   0  0  0  0  0  0  0  0  0  0  0  0
   -4.3930   23.6970  -30.6350 C   0  0  0  0  0  0  0  0  0  0  0  0
   -5.2154   24.4036  -30.4495 H   0  0  0  0  0  0  0  0  0  0  0  0
   -4.6160   22.5590  -31.4160 C   0  0  0  0  0  0  0  0  0  0  0  0
   -5.6157   22.3743  -31.8361 H   0  0  0  0  0  0  0  0  0  0  0  0
   -2.9290   19.3820  -32.5670 C   0  0  0  0  0  0  0  0  0  0  0  0
   -1.9952   19.4092  -31.9862 H   0  0  0  0  0  0  0  0  0  0  0  0
   -3.2290   18.2820  -33.3730 C   0  0  0  0  0  0  0  0  0  0  0  0
   -2.4100   17.3230  -33.4150 O   0  0  0  0  0  0  0  0  0  0  0  0
   -4.3950   18.2440  -34.0980 N   0  0  0  0  0  0  0  0  0  0  0  0
   -4.6770   17.0790  -34.9670 C   0  0  0  0  0  0  0  0  0  0  0  0
   -5.2272   17.4224  -35.8555 H   0  0  0  0  0  0  0  0  0  0  0  0
   -3.7169   16.6221  -35.2487 H   0  0  0  0  0  0  0  0  0  0  0  0
   -5.5190   16.0140  -34.2400 C   0  0  0  0  0  0  0  0  0  0  0  0
   -6.4468   15.8579  -34.8100 H   0  0  0  0  0  0  0  0  0  0  0  0
   -4.9015   15.1056  -34.1802 H   0  0  0  0  0  0  0  0  0  0  0  0
   -5.8950   16.3930  -32.7980 C   0  0  0  0  0  0  0  0  0  0  0  0
   -5.9327   15.4767  -32.1906 H   0  0  0  0  0  0  0  0  0  0  0  0
   -5.1322   17.0929  -32.4262 H   0  0  0  0  0  0  0  0  0  0  0  0
   -7.2600   17.0990  -32.7120 C   0  0  0  0  0  0  0  0  0  0  0  0
   -7.4853   17.5521  -33.6887 H   0  0  0  0  0  0  0  0  0  0  0  0
   -8.0105   16.3442  -32.4344 H   0  0  0  0  0  0  0  0  0  0  0  0
   -7.2850   18.2000  -31.6400 C   0  0  0  0  0  0  0  0  0  0  0  0
   -7.5082   17.7387  -30.6667 H   0  0  0  0  0  0  0  0  0  0  0  0
   -6.2994   18.6884  -31.6417 H   0  0  0  0  0  0  0  0  0  0  0  0
   -8.3340   19.2750  -31.9240 C   0  0  0  0  0  0  0  0  0  0  0  0
   -8.7202   19.6708  -30.9731 H   0  0  0  0  0  0  0  0  0  0  0  0
   -7.8755   20.0912  -32.5016 H   0  0  0  0  0  0  0  0  0  0  0  0
   -9.1611   18.8366  -32.5016 H   0  0  0  0  0  0  0  0  0  0  0  0
  1  2  1  0
  2  3  2  0
  3  4  1  0
  4  5  1  0
  5  6  1  0
  6  7  2  0
  7  8  1  0
  7  9  1  0
  9 10  1  0
  9 11  2  0
 11 12  1  0
 12 13  1  0
 13 14  2  0
 13 15  1  0
 15 16  2  0
 16 17  1  0
 16 18  1  0
 18 19  1  0
 18 20  2  0
 20 21  1  0
 20 22  1  0
 22 23  1  0
 22 24  2  0
 24 25  1  0
 11 26  1  0
 26 27  1  0
 26 28  2  0
 28 29  1  0
  5 30  2  0
 30 31  1  0
 30 32  1  0
 32 33  2  0
 32 34  1  0
 34 35  1  0
 35 36  1  0
 35 37  1  0
 35 38  1  0
 38 39  1  0
 38 40  1  0
 38 41  1  0
 41 42  1  0
 41 43  1  0
 41 44  1  0
 44 45  1  0
 44 46  1  0
 44 47  1  0
 47 48  1  0
 47 49  1  0
 47 50  1  0
 50 51  1  0
 50 52  1  0
 50 53  1  0
 34  3  1  0
 28  6  1  0
 24 15  1  0
M  CHG  2   4  -1  12  -1
M  END
>  <UniqueID>  (47) 
44

>  <SMILES>  (47) 
[H]/N=c1\[n-]c(-c2ccc([N-]C(=O)c3ccc(Cl)cc3)cc2)cc(=O)n1CCCCCC

>  <Energy>  (47) 
58.89253194173787

>  <Genealogy>  (47) 
CCCCCCn1c(=O)cc(-c2ccc([N-]C(=O)c3ccc(Cl)cc3)cc2)[n-]c1=N (protonated)
[H]/N=c1\[n-]c(-c2ccc([N-]C(=O)c3ccc(Cl)cc3)cc2)cc(=O)n1CCCCCC (cis-trans isomerization)
[H]/N=c1\[n-]c(-c2ccc([N-]C(=O)c3ccc(Cl)cc3)cc2)cc(=O)n1CCCCCC (3D coordinates assigned)
[H]/N=c1\[n-]c(-c2ccc([N-]C(=O)c3ccc(Cl)cc3)cc2)cc(=O)n1CCCCCC (optimized conformer: 58.89253194173787 kcal/mol)

>  <smiles>  (47) 
CCCCCCn1c(=O)cc(-c2ccc(NC(=O)c3ccc(Cl)cc3)cc2)[nH]c1=N

>  <score_type>  (47) 
oracle

>  <origin>  (47) 
adgpu

>  <m_score__min__energy>  (47) 
-11.23

>  <m_primary>  (47) 
energy

$$$$
47:0
     RDKit          3D

 41 43  0  0  0  0  0  0  0  0999 V2000
   -4.3480   20.5530  -33.2210 C   0  0  0  0  0  0  0  0  0  0  0  0
   -5.7500   20.6830  -33.4280 O   0  0  0  0  0  0  0  0  0  0  0  0
   -6.7220   19.8400  -32.8640 C   0  0  0  0  0  0  0  0  0  0  0  0
   -6.5960   18.4370  -32.9020 C   0  0  0  0  0  0  0  0  0  0  0  0
   -7.5840   17.6230  -32.3440 C   0  0  0  0  0  0  0  0  0  0  0  0
   -8.7090   18.1930  -31.7500 C   0  0  0  0  0  0  0  0  0  0  0  0
   -8.8440   19.5820  -31.6980 C   0  0  0  0  0  0  0  0  0  0  0  0
   -7.8510   20.4170  -32.2410 C   0  0  0  0  0  0  0  0  0  0  0  0
   -8.0000   21.9200  -32.1280 C   0  0  0  0  0  0  0  0  0  0  0  0
   -6.7450   22.6490  -32.4010 N   0  0  0  0  0  0  0  0  0  0  0  0
   -6.7430   24.0390  -31.9030 C   0  0  0  0  0  0  0  0  0  0  0  0
   -5.4830   24.3640  -31.1510 C   0  0  0  0  0  0  0  0  0  0  0  0
   -5.0300   25.6240  -30.8260 C   0  0  0  0  0  0  0  0  0  0  0  0
   -3.8650   25.4820  -30.2460 O   0  0  0  0  0  0  0  0  0  0  0  0
   -3.6000   24.1930  -30.2100 C   0  0  0  0  0  0  0  0  0  0  0  0
   -2.3520   23.6290  -29.6600 C   0  0  0  0  0  0  0  0  0  0  0  0
   -1.5560   24.3810  -28.7770 C   0  0  0  0  0  0  0  0  0  0  0  0
   -0.3860   23.8330  -28.2420 C   0  0  0  0  0  0  0  0  0  0  0  0
    0.0010   22.5360  -28.5840 C   0  0  0  0  0  0  0  0  0  0  0  0
   -0.7830   21.7820  -29.4620 C   0  0  0  0  0  0  0  0  0  0  0  0
   -1.9550   22.3250  -29.9980 C   0  0  0  0  0  0  0  0  0  0  0  0
   -4.5830   23.4470  -30.7570 N   0  0  0  0  0  0  0  0  0  0  0  0
   -4.1370   20.5334  -32.1416 H   0  0  0  0  0  0  0  0  0  0  0  0
   -3.9946   19.6182  -33.6807 H   0  0  0  0  0  0  0  0  0  0  0  0
   -3.8288   21.4069  -33.6807 H   0  0  0  0  0  0  0  0  0  0  0  0
   -5.7138   17.9801  -33.3742 H   0  0  0  0  0  0  0  0  0  0  0  0
   -7.4742   16.5289  -32.3733 H   0  0  0  0  0  0  0  0  0  0  0  0
   -9.4908   17.5483  -31.3220 H   0  0  0  0  0  0  0  0  0  0  0  0
   -9.7340   20.0265  -31.2286 H   0  0  0  0  0  0  0  0  0  0  0  0
   -8.7614   22.2515  -32.8494 H   0  0  0  0  0  0  0  0  0  0  0  0
   -8.2901   22.1437  -31.0908 H   0  0  0  0  0  0  0  0  0  0  0  0
   -5.9230   22.1170  -32.0340 H   0  0  0  0  0  0  0  0  0  0  0  0
   -6.6330   22.6850  -33.4410 H   0  0  0  0  0  0  0  0  0  0  0  0
   -6.8324   24.7235  -32.7594 H   0  0  0  0  0  0  0  0  0  0  0  0
   -7.5912   24.1544  -31.2122 H   0  0  0  0  0  0  0  0  0  0  0  0
   -5.5509   26.5736  -31.0183 H   0  0  0  0  0  0  0  0  0  0  0  0
   -1.8551   25.4043  -28.5063 H   0  0  0  0  0  0  0  0  0  0  0  0
    0.2308   24.4252  -27.5501 H   0  0  0  0  0  0  0  0  0  0  0  0
    0.9224   22.1076  -28.1628 H   0  0  0  0  0  0  0  0  0  0  0  0
   -0.4777   20.7602  -29.7317 H   0  0  0  0  0  0  0  0  0  0  0  0
   -2.5691   21.7276  -30.6879 H   0  0  0  0  0  0  0  0  0  0  0  0
  1  2  1  0
  2  3  1  0
  3  4  2  0
  4  5  1  0
  5  6  2  0
  6  7  1  0
  7  8  2  0
  8  9  1  0
  9 10  1  0
 10 11  1  0
 11 12  1  0
 12 13  2  0
 13 14  1  0
 14 15  1  0
 15 16  1  0
 16 17  2  0
 17 18  1  0
 18 19  2  0
 19 20  1  0
 20 21  2  0
 15 22  2  0
  8  3  1  0
 22 12  1  0
 21 16  1  0
  1 23  1  0
  1 24  1  0
  1 25  1  0
  4 26  1  0
  5 27  1  0
  6 28  1  0
  7 29  1  0
  9 30  1  0
  9 31  1  0
 10 32  1  0
 10 33  1  0
 11 34  1  0
 11 35  1  0
 13 36  1  0
 17 37  1  0
 18 38  1  0
 19 39  1  0
 20 40  1  0
 21 41  1  0
M  CHG  1  10   1
M  END
>  <UniqueID>  (48) 
45

>  <SMILES>  (48) 
COc1ccccc1C[NH2+]Cc1coc(-c2ccccc2)n1

>  <Energy>  (48) 
69.99447372830936

>  <Genealogy>  (48) 
COc1ccccc1C[NH2+]Cc1coc(-c2ccccc2)n1 (protonated)
COc1ccccc1C[NH2+]Cc1coc(-c2ccccc2)n1 (3D coordinates assigned)
COc1ccccc1C[NH2+]Cc1coc(-c2ccccc2)n1 (optimized conformer: 69.99447372830936 kcal/mol)

>  <smiles>  (48) 
COc1ccccc1CNCc1coc(-c2ccccc2)n1

>  <score_type>  (48) 
oracle

>  <origin>  (48) 
adgpu

>  <m_score__min__energy>  (48) 
-6.6399999999999997

>  <m_primary>  (48) 
energy

$$$$
48:0
     RDKit          3D

 49 52  0  0  0  0  0  0  0  0999 V2000
   -4.3630   15.9180  -34.7360 C   0  0  0  0  0  0  0  0  0  0  0  0
   -5.4690   15.8750  -33.6590 C   0  0  0  0  0  0  0  0  0  0  0  0
   -6.6330   15.0220  -34.2170 C   0  0  0  0  0  0  0  0  0  0  0  0
   -4.9300   15.1650  -32.3990 C   0  0  0  0  0  0  0  0  0  0  0  0
   -5.8930   17.3140  -33.2990 C   0  0  0  0  0  0  0  0  0  0  0  0
   -6.4670   17.6540  -32.0520 C   0  0  0  0  0  0  0  0  0  0  0  0
   -6.8370   18.9710  -31.7650 C   0  0  0  0  0  0  0  0  0  0  0  0
   -6.6600   19.9840  -32.7130 C   0  0  0  0  0  0  0  0  0  0  0  0
   -7.0270   21.3340  -32.3820 N   0  0  0  0  0  0  0  0  0  0  0  0
   -6.1380   22.2960  -31.7890 C   0  0  0  0  0  0  0  0  0  0  0  0
   -6.6270   23.3620  -31.0130 C   0  0  0  0  0  0  0  0  0  0  0  0
   -5.7420   24.2680  -30.4220 C   0  0  0  0  0  0  0  0  0  0  0  0
   -4.3600   24.1280  -30.5920 C   0  0  0  0  0  0  0  0  0  0  0  0
   -3.5120   25.0570  -29.9760 O   0  0  0  0  0  0  0  0  0  0  0  0
   -2.5040   24.7430  -29.0540 C   0  0  0  0  0  0  0  0  0  0  0  0
   -1.4690   25.6020  -28.7920 N   0  0  0  0  0  0  0  0  0  0  0  0
   -0.4920   25.3090  -27.8740 C   0  0  0  0  0  0  0  0  0  0  0  0
   -0.5290   24.0990  -27.1560 C   0  0  0  0  0  0  0  0  0  0  0  0
   -1.5900   23.2410  -27.4260 C   0  0  0  0  0  0  0  0  0  0  0  0
   -1.8610   22.0450  -26.8820 N   0  0  0  0  0  0  0  0  0  0  0  0
   -2.9780   21.5780  -27.4330 N   0  0  0  0  0  0  0  0  0  0  0  0
   -3.4240   22.4870  -28.3360 C   0  0  0  0  0  0  0  0  0  0  0  0
   -2.5480   23.5500  -28.3400 C   0  0  0  0  0  0  0  0  0  0  0  0
   -3.8680   23.0370  -31.3330 C   0  0  0  0  0  0  0  0  0  0  0  0
   -4.7520   22.1290  -31.9230 C   0  0  0  0  0  0  0  0  0  0  0  0
   -6.0680   19.6690  -33.9440 C   0  0  0  0  0  0  0  0  0  0  0  0
   -5.6960   18.3540  -34.2350 C   0  0  0  0  0  0  0  0  0  0  0  0
   -3.3777   15.9563  -34.2484 H   0  0  0  0  0  0  0  0  0  0  0  0
   -4.4269   15.0167  -35.3633 H   0  0  0  0  0  0  0  0  0  0  0  0
   -4.4967   16.8116  -35.3633 H   0  0  0  0  0  0  0  0  0  0  0  0
   -7.2105   14.5988  -33.3819 H   0  0  0  0  0  0  0  0  0  0  0  0
   -7.2889   15.6548  -34.8329 H   0  0  0  0  0  0  0  0  0  0  0  0
   -6.2271   14.2059  -34.8329 H   0  0  0  0  0  0  0  0  0  0  0  0
   -5.3139   15.6707  -31.5007 H   0  0  0  0  0  0  0  0  0  0  0  0
   -5.2614   14.1161  -32.3992 H   0  0  0  0  0  0  0  0  0  0  0  0
   -3.8306   15.2022  -32.3992 H   0  0  0  0  0  0  0  0  0  0  0  0
   -6.6247   16.8702  -31.2965 H   0  0  0  0  0  0  0  0  0  0  0  0
   -7.2716   19.2131  -30.7839 H   0  0  0  0  0  0  0  0  0  0  0  0
   -8.0070   21.6370  -32.5850 H   0  0  0  0  0  0  0  0  0  0  0  0
   -7.7110   23.4833  -30.8705 H   0  0  0  0  0  0  0  0  0  0  0  0
   -6.1354   25.0987  -29.8177 H   0  0  0  0  0  0  0  0  0  0  0  0
    0.3251   26.0242  -27.6982 H   0  0  0  0  0  0  0  0  0  0  0  0
    0.2444   23.8440  -26.4165 H   0  0  0  0  0  0  0  0  0  0  0  0
   -1.3070   21.5470  -26.1510 H   0  0  0  0  0  0  0  0  0  0  0  0
   -4.3273   22.3918  -28.9565 H   0  0  0  0  0  0  0  0  0  0  0  0
   -2.7829   22.8983  -31.4483 H   0  0  0  0  0  0  0  0  0  0  0  0
   -4.3576   21.2773  -32.4966 H   0  0  0  0  0  0  0  0  0  0  0  0
   -5.8951   20.4625  -34.6859 H   0  0  0  0  0  0  0  0  0  0  0  0
   -5.2417   18.1243  -35.2101 H   0  0  0  0  0  0  0  0  0  0  0  0
  1  2  1  0
  2  3  1  0
  2  4  1  0
  2  5  1  0
  5  6  2  0
  6  7  1  0
  7  8  2  0
  8  9  1  0
  9 10  1  0
 10 11  2  0
 11 12  1  0
 12 13  2  0
 13 14  1  0
 14 15  1  0
 15 16  2  0
 16 17  1  0
 17 18  2  0
 18 19  1  0
 19 20  1  0
 20 21  1  0
 21 22  2  0
 22 23  1  0
 13 24  1  0
 24 25  2  0
  8 26  1  0
 26 27  2  0
 27  5  1  0
 25 10  1  0
 23 15  1  0
 23 19  2  0
  1 28  1  0
  1 29  1  0
  1 30  1  0
  3 31  1  0
  3 32  1  0
  3 33  1  0
  4 34  1  0
  4 35  1  0
  4 36  1  0
  6 37  1  0
  7 38  1  0
  9 39  1  0
 11 40  1  0
 12 41  1  0
 17 42  1  0
 18 43  1  0
 20 44  1  0
 22 45  1  0
 24 46  1  0
 25 47  1  0
 26 48  1  0
 27 49  1  0
M  END
>  <UniqueID>  (49) 
46

>  <SMILES>  (49) 
CC(C)(C)c1ccc(Nc2ccc(Oc3nccc4[nH]ncc34)cc2)cc1

>  <Energy>  (49) 
104.52602378762144

>  <Genealogy>  (49) 
CC(C)(C)c1ccc(Nc2ccc(Oc3nccc4[nH]ncc34)cc2)cc1 (3D coordinates assigned)
CC(C)(C)c1ccc(Nc2ccc(Oc3nccc4[nH]ncc34)cc2)cc1 (optimized conformer: 104.52602378762144 kcal/mol)

>  <smiles>  (49) 
CC(C)(C)c1ccc(Nc2ccc(Oc3nccc4[nH]ncc34)cc2)cc1

>  <score_type>  (49) 
oracle

>  <origin>  (49) 
adgpu

>  <m_score__min__energy>  (49) 
-8.9700000000000006

>  <m_primary>  (49) 
energy

$$$$
