0:0
     RDKit          3D

 57 60  0  0  0  0  0  0  0  0999 V2000
   -4.9780   23.8000  -31.8010 O   0  0  0  0  0  0  0  0  0  0  0  0
   -3.9210   23.3870  -30.8170 S   0  0  0  0  0  0  0  0  0  0  0  0
   -3.1480   24.6040  -30.3860 O   0  0  0  0  0  0  0  0  0  0  0  0
   -4.7030   22.7150  -29.4160 N   0  0  0  0  0  0  0  0  0  0  0  0
   -4.6800   23.6780  -28.3110 C   0  0  0  0  0  0  0  0  0  0  0  0
   -3.3630   23.5950  -27.5900 C   0  0  0  0  0  0  0  0  0  0  0  0
   -2.5830   22.4340  -27.6700 C   0  0  0  0  0  0  0  0  0  0  0  0
   -1.3410   22.3990  -27.0360 C   0  0  0  0  0  0  0  0  0  0  0  0
   -0.8910   23.4840  -26.3540 N   0  0  0  0  0  0  0  0  0  0  0  0
   -1.6150   24.6350  -26.2570 C   0  0  0  0  0  0  0  0  0  0  0  0
   -1.0760   25.7570  -25.5250 N   0  0  0  0  0  0  0  0  0  0  0  0
   -0.4810   25.5320  -24.2010 C   0  0  0  0  0  0  0  0  0  0  0  0
   -0.5600   26.8060  -23.3560 C   0  0  0  0  0  0  0  0  0  0  0  0
   -0.0370   27.9120  -24.0640 O   0  0  0  0  0  0  0  0  0  0  0  0
   -0.8560   28.1870  -25.1830 C   0  0  0  0  0  0  0  0  0  0  0  0
   -0.8060   27.0370  -26.1940 C   0  0  0  0  0  0  0  0  0  0  0  0
   -2.8710   24.7050  -26.8900 C   0  0  0  0  0  0  0  0  0  0  0  0
   -2.8240   22.2380  -31.6190 C   0  0  0  0  0  0  0  0  0  0  0  0
   -1.5100   22.0810  -31.1410 C   0  0  0  0  0  0  0  0  0  0  0  0
   -0.6160   21.2270  -31.7860 C   0  0  0  0  0  0  0  0  0  0  0  0
   -1.0190   20.5090  -32.9080 C   0  0  0  0  0  0  0  0  0  0  0  0
   -2.3270   20.6290  -33.3810 C   0  0  0  0  0  0  0  0  0  0  0  0
   -3.2470   21.4800  -32.7390 C   0  0  0  0  0  0  0  0  0  0  0  0
   -4.6110   21.5390  -33.2000 N   0  0  0  0  0  0  0  0  0  0  0  0
   -5.4730   20.3600  -33.2660 C   0  0  0  0  0  0  0  0  0  0  0  0
   -6.8430   20.6850  -32.7340 C   0  0  0  0  0  0  0  0  0  0  0  0
   -7.1030   21.9510  -32.1820 C   0  0  0  0  0  0  0  0  0  0  0  0
   -8.3620   22.2400  -31.6450 C   0  0  0  0  0  0  0  0  0  0  0  0
   -9.3640   21.2640  -31.6440 C   0  0  0  0  0  0  0  0  0  0  0  0
   -9.1080   19.9960  -32.1770 C   0  0  0  0  0  0  0  0  0  0  0  0
   -7.8500   19.7030  -32.7150 C   0  0  0  0  0  0  0  0  0  0  0  0
   -4.1890   21.8470  -29.1400 H   0  0  0  0  0  0  0  0  0  0  0  0
   -4.8147   24.6944  -28.7096 H   0  0  0  0  0  0  0  0  0  0  0  0
   -5.4938   23.4443  -27.6087 H   0  0  0  0  0  0  0  0  0  0  0  0
   -2.9466   21.5582  -28.2275 H   0  0  0  0  0  0  0  0  0  0  0  0
   -0.7241   21.4898  -27.0885 H   0  0  0  0  0  0  0  0  0  0  0  0
   -1.0268   24.7246  -23.6910 H   0  0  0  0  0  0  0  0  0  0  0  0
    0.5755   25.2533  -24.3277 H   0  0  0  0  0  0  0  0  0  0  0  0
   -1.6115   27.0053  -23.1017 H   0  0  0  0  0  0  0  0  0  0  0  0
    0.0343   26.6599  -22.4420 H   0  0  0  0  0  0  0  0  0  0  0  0
   -1.8937   28.3240  -24.8447 H   0  0  0  0  0  0  0  0  0  0  0  0
   -0.4871   29.1006  -25.6720 H   0  0  0  0  0  0  0  0  0  0  0  0
   -1.5637   27.2059  -26.9733 H   0  0  0  0  0  0  0  0  0  0  0  0
    0.1968   27.0004  -26.6446 H   0  0  0  0  0  0  0  0  0  0  0  0
   -3.4649   25.6293  -26.8351 H   0  0  0  0  0  0  0  0  0  0  0  0
   -1.1847   22.6375  -30.2496 H   0  0  0  0  0  0  0  0  0  0  0  0
    0.4110   21.1205  -31.4067 H   0  0  0  0  0  0  0  0  0  0  0  0
   -0.3068   19.8469  -33.4222 H   0  0  0  0  0  0  0  0  0  0  0  0
   -2.6420   20.0532  -34.2637 H   0  0  0  0  0  0  0  0  0  0  0  0
   -5.0110   22.4650  -33.4750 H   0  0  0  0  0  0  0  0  0  0  0  0
   -5.5585   20.0309  -34.3121 H   0  0  0  0  0  0  0  0  0  0  0  0
   -5.0320   19.5592  -32.6543 H   0  0  0  0  0  0  0  0  0  0  0  0
   -6.3139   22.7173  -32.1722 H   0  0  0  0  0  0  0  0  0  0  0  0
   -8.5642   23.2356  -31.2232 H   0  0  0  0  0  0  0  0  0  0  0  0
  -10.3543   21.4936  -31.2237 H   0  0  0  0  0  0  0  0  0  0  0  0
   -9.8963   19.2288  -32.1731 H   0  0  0  0  0  0  0  0  0  0  0  0
   -7.6480   18.7021  -33.1242 H   0  0  0  0  0  0  0  0  0  0  0  0
  1  2  2  0
  2  3  2  0
  2  4  1  0
  4  5  1  0
  5  6  1  0
  6  7  2  0
  7  8  1  0
  8  9  2  0
  9 10  1  0
 10 11  1  0
 11 12  1  0
 12 13  1  0
 13 14  1  0
 14 15  1  0
 15 16  1  0
 10 17  2  0
  2 18  1  0
 18 19  2  0
 19 20  1  0
 20 21  2  0
 21 22  1  0
 22 23  2  0
 23 24  1  0
 24 25  1  0
 25 26  1  0
 26 27  2  0
 27 28  1  0
 28 29  2  0
 29 30  1  0
 30 31  2  0
 17  6  1  0
 23 18  1  0
 31 26  1  0
 16 11  1  0
  4 32  1  0
  5 33  1  0
  5 34  1  0
  7 35  1  0
  8 36  1  0
 12 37  1  0
 12 38  1  0
 13 39  1  0
 13 40  1  0
 15 41  1  0
 15 42  1  0
 16 43  1  0
 16 44  1  0
 17 45  1  0
 19 46  1  0
 20 47  1  0
 21 48  1  0
 22 49  1  0
 24 50  1  0
 25 51  1  0
 25 52  1  0
 27 53  1  0
 28 54  1  0
 29 55  1  0
 30 56  1  0
 31 57  1  0
M  END
>  <UniqueID>  (1) 
1

>  <SMILES>  (1) 
O=S(=O)(NCc1ccnc(N2CCOCC2)c1)c1ccccc1NCc1ccccc1

>  <Energy>  (1) 
65.88127121768166

>  <Genealogy>  (1) 
O=S(=O)(NCc1ccnc(N2CCOCC2)c1)c1ccccc1NCc1ccccc1 (3D coordinates assigned)
O=S(=O)(NCc1ccnc(N2CCOCC2)c1)c1ccccc1NCc1ccccc1 (nonaromatic ring conformer: 65.88127121768166 kcal/mol)

>  <smiles>  (1) 
O=S(=O)(NCc1ccnc(N2CCOCC2)c1)c1ccccc1NCc1ccccc1

>  <score_type>  (1) 
oracle

>  <origin>  (1) 
adgpu

>  <m_score__min__energy>  (1) 
-10.619999999999999

>  <m_primary>  (1) 
energy

$$$$
1:0
     RDKit          3D

 51 54  0  0  0  0  0  0  0  0999 V2000
   -5.4570   26.2230  -30.5070 O   0  0  0  0  0  0  0  0  0  0  0  0
   -4.9190   25.0980  -30.7020 C   0  0  0  0  0  0  0  0  0  0  0  0
   -3.5170   24.9320  -30.4570 N   0  0  0  0  0  0  0  0  0  0  0  0
   -2.9950   24.1490  -29.3780 C   0  0  0  0  0  0  0  0  0  0  0  0
   -3.2690   24.5520  -28.0660 C   0  0  0  0  0  0  0  0  0  0  0  0
   -2.7960   23.8110  -26.9820 C   0  0  0  0  0  0  0  0  0  0  0  0
   -2.0370   22.6600  -27.1990 C   0  0  0  0  0  0  0  0  0  0  0  0
   -1.7410   22.2490  -28.5050 C   0  0  0  0  0  0  0  0  0  0  0  0
   -2.2020   22.9990  -29.6040 C   0  0  0  0  0  0  0  0  0  0  0  0
   -1.7080   22.5940  -30.9740 C   0  0  0  0  0  0  0  0  0  0  0  0
   -1.8150   21.0710  -31.1820 C   0  0  0  0  0  0  0  0  0  0  0  0
   -1.4690   20.2220  -29.9310 C   0  0  0  0  0  0  0  0  0  0  0  0
   -0.8900   21.0350  -28.7630 C   0  0  0  0  0  0  0  0  0  0  0  0
   -5.7320   23.9600  -31.1880 C   0  0  0  0  0  0  0  0  0  0  0  0
   -7.1340   24.0170  -31.1450 C   0  0  0  0  0  0  0  0  0  0  0  0
   -7.9000   22.9400  -31.5930 C   0  0  0  0  0  0  0  0  0  0  0  0
   -7.2820   21.7850  -32.0870 C   0  0  0  0  0  0  0  0  0  0  0  0
   -8.0620   20.7170  -32.5290 O   0  0  0  0  0  0  0  0  0  0  0  0
   -5.8770   21.7080  -32.1280 C   0  0  0  0  0  0  0  0  0  0  0  0
   -5.0500   20.2610  -32.7350 S   0  0  0  0  0  0  0  0  0  0  0  0
   -4.2890   19.6270  -31.6040 O   0  0  0  0  0  0  0  0  0  0  0  0
   -4.0550   20.6540  -33.7920 O   0  0  0  0  0  0  0  0  0  0  0  0
   -6.1510   19.0810  -33.4040 N   0  0  0  0  0  0  0  0  0  0  0  0
   -5.5620   18.3510  -34.5250 C   0  0  0  0  0  0  0  0  0  0  0  0
   -6.2680   17.0010  -34.5830 C   0  0  0  0  0  0  0  0  0  0  0  0
   -6.9550   16.8450  -33.2350 C   0  0  0  0  0  0  0  0  0  0  0  0
   -6.5290   18.0620  -32.4300 C   0  0  0  0  0  0  0  0  0  0  0  0
   -5.1130   22.8000  -31.6880 C   0  0  0  0  0  0  0  0  0  0  0  0
   -3.8624   25.4609  -27.8876 H   0  0  0  0  0  0  0  0  0  0  0  0
   -3.0217   24.1346  -25.9552 H   0  0  0  0  0  0  0  0  0  0  0  0
   -1.6706   22.0745  -26.3429 H   0  0  0  0  0  0  0  0  0  0  0  0
   -2.3139   23.1031  -31.7380 H   0  0  0  0  0  0  0  0  0  0  0  0
   -0.6498   22.8819  -31.0598 H   0  0  0  0  0  0  0  0  0  0  0  0
   -2.8477   20.8373  -31.4802 H   0  0  0  0  0  0  0  0  0  0  0  0
   -1.0736   20.8088  -31.9511 H   0  0  0  0  0  0  0  0  0  0  0  0
   -2.3878   19.7260  -29.5849 H   0  0  0  0  0  0  0  0  0  0  0  0
   -0.6907   19.5075  -30.2373 H   0  0  0  0  0  0  0  0  0  0  0  0
   -0.8673   20.4080  -27.8594 H   0  0  0  0  0  0  0  0  0  0  0  0
    0.1294   21.3584  -29.0203 H   0  0  0  0  0  0  0  0  0  0  0  0
   -7.6323   24.9170  -30.7554 H   0  0  0  0  0  0  0  0  0  0  0  0
   -8.9978   22.9990  -31.5577 H   0  0  0  0  0  0  0  0  0  0  0  0
   -7.7350   20.0780  -33.2430 H   0  0  0  0  0  0  0  0  0  0  0  0
   -5.7206   18.9031  -35.4631 H   0  0  0  0  0  0  0  0  0  0  0  0
   -4.4772   18.2266  -34.3919 H   0  0  0  0  0  0  0  0  0  0  0  0
   -7.0089   16.9890  -35.3960 H   0  0  0  0  0  0  0  0  0  0  0  0
   -5.5635   16.1795  -34.7801 H   0  0  0  0  0  0  0  0  0  0  0  0
   -8.0479   16.8269  -33.3584 H   0  0  0  0  0  0  0  0  0  0  0  0
   -6.6774   15.9040  -32.7375 H   0  0  0  0  0  0  0  0  0  0  0  0
   -7.3631   18.4193  -31.8083 H   0  0  0  0  0  0  0  0  0  0  0  0
   -5.6946   17.8240  -31.7538 H   0  0  0  0  0  0  0  0  0  0  0  0
   -4.0152   22.7481  -31.7348 H   0  0  0  0  0  0  0  0  0  0  0  0
  1  2  2  0
  2  3  1  0
  3  4  1  0
  4  5  2  0
  5  6  1  0
  6  7  2  0
  7  8  1  0
  8  9  2  0
  9 10  1  0
 10 11  1  0
 11 12  1  0
 12 13  1  0
  2 14  1  0
 14 15  2  0
 15 16  1  0
 16 17  2  0
 17 18  1  0
 17 19  1  0
 19 20  1  0
 20 21  2  0
 20 22  2  0
 20 23  1  0
 23 24  1  0
 24 25  1  0
 25 26  1  0
 26 27  1  0
 19 28  2  0
  9  4  1  0
 28 14  1  0
 13  8  1  0
 27 23  1  0
  5 29  1  0
  6 30  1  0
  7 31  1  0
 10 32  1  0
 10 33  1  0
 11 34  1  0
 11 35  1  0
 12 36  1  0
 12 37  1  0
 13 38  1  0
 13 39  1  0
 15 40  1  0
 16 41  1  0
 18 42  1  0
 24 43  1  0
 24 44  1  0
 25 45  1  0
 25 46  1  0
 26 47  1  0
 26 48  1  0
 27 49  1  0
 27 50  1  0
 28 51  1  0
M  CHG  1   3  -1
M  END
>  <UniqueID>  (2) 
2

>  <SMILES>  (2) 
O=C([N-]c1cccc2c1CCCC2)c1ccc(O)c(S(=O)(=O)N2CCCC2)c1

>  <Energy>  (2) 
67.98394962341722

>  <Genealogy>  (2) 
O=C([N-]c1cccc2c1CCCC2)c1ccc(O)c(S(=O)(=O)N2CCCC2)c1 (protonated)
O=C([N-]c1cccc2c1CCCC2)c1ccc(O)c(S(=O)(=O)N2CCCC2)c1 (3D coordinates assigned)
O=C([N-]c1cccc2c1CCCC2)c1ccc(O)c(S(=O)(=O)N2CCCC2)c1 (nonaromatic ring conformer: 67.98394962341722 kcal/mol)

>  <smiles>  (2) 
O=C(Nc1cccc2c1CCCC2)c1ccc(O)c(S(=O)(=O)N2CCCC2)c1

>  <score_type>  (2) 
oracle

>  <origin>  (2) 
adgpu

>  <m_score__min__energy>  (2) 
-10.65

>  <m_primary>  (2) 
energy

$$$$
2:0
     RDKit          3D

 34 36  0  0  0  0  0  0  0  0999 V2000
   -5.5270   17.4380  -33.0910 C   0  0  0  0  0  0  0  0  0  0  0  0
   -6.3760   18.6500  -32.8120 C   0  0  0  0  0  0  0  0  0  0  0  0
   -7.7510   18.4500  -32.5570 C   0  0  0  0  0  0  0  0  0  0  0  0
   -8.5970   19.5180  -32.2530 C   0  0  0  0  0  0  0  0  0  0  0  0
   -8.0740   20.8050  -32.1940 C   0  0  0  0  0  0  0  0  0  0  0  0
   -8.8330   21.8860  -31.8860 N   0  0  0  0  0  0  0  0  0  0  0  0
   -7.6920   23.0780  -31.9670 S   0  0  0  0  0  0  0  0  0  0  0  0
   -6.2770   22.3250  -32.3690 N   0  0  0  0  0  0  0  0  0  0  0  0
   -6.6940   21.0350  -32.4570 C   0  0  0  0  0  0  0  0  0  0  0  0
   -5.8380   19.9700  -32.7930 C   0  0  0  0  0  0  0  0  0  0  0  0
   -4.1310   20.3390  -33.1540 S   0  0  0  0  0  0  0  0  0  0  0  0
   -3.6580   19.3810  -34.2090 O   0  0  0  0  0  0  0  0  0  0  0  0
   -3.9380   21.7380  -33.6660 O   0  0  0  0  0  0  0  0  0  0  0  0
   -3.1370   20.1390  -31.7350 N   0  0  0  0  0  0  0  0  0  0  0  0
   -3.8240   20.5910  -30.5210 C   0  0  0  0  0  0  0  0  0  0  0  0
   -3.3540   21.9560  -30.0960 C   0  0  0  0  0  0  0  0  0  0  0  0
   -2.2530   22.0870  -29.2350 C   0  0  0  0  0  0  0  0  0  0  0  0
   -1.8000   23.3550  -28.8600 C   0  0  0  0  0  0  0  0  0  0  0  0
   -2.4380   24.5000  -29.3440 C   0  0  0  0  0  0  0  0  0  0  0  0
   -1.9770   25.7580  -28.9700 O   0  0  0  0  0  0  0  0  0  0  0  0
   -3.5370   24.3810  -30.2040 C   0  0  0  0  0  0  0  0  0  0  0  0
   -4.1670   25.5280  -30.6870 O   0  0  0  0  0  0  0  0  0  0  0  0
   -3.9960   23.1100  -30.5750 C   0  0  0  0  0  0  0  0  0  0  0  0
   -5.2100   16.9855  -32.1398 H   0  0  0  0  0  0  0  0  0  0  0  0
   -6.1110   16.7063  -33.6685 H   0  0  0  0  0  0  0  0  0  0  0  0
   -4.6398   17.7369  -33.6685 H   0  0  0  0  0  0  0  0  0  0  0  0
   -8.1637   17.4312  -32.5989 H   0  0  0  0  0  0  0  0  0  0  0  0
   -9.6661   19.3432  -32.0621 H   0  0  0  0  0  0  0  0  0  0  0  0
   -4.9058   20.6304  -30.7163 H   0  0  0  0  0  0  0  0  0  0  0  0
   -3.5973   19.8810  -29.7120 H   0  0  0  0  0  0  0  0  0  0  0  0
   -1.7451   21.1887  -28.8542 H   0  0  0  0  0  0  0  0  0  0  0  0
   -0.9391   23.4517  -28.1822 H   0  0  0  0  0  0  0  0  0  0  0  0
   -3.8670   26.4540  -30.4080 H   0  0  0  0  0  0  0  0  0  0  0  0
   -4.8635   23.0155  -31.2447 H   0  0  0  0  0  0  0  0  0  0  0  0
  1  2  1  0
  2  3  1  0
  3  4  2  0
  4  5  1  0
  5  6  2  0
  6  7  1  0
  7  8  1  0
  8  9  2  0
  9 10  1  0
 10 11  1  0
 11 12  2  0
 11 13  2  0
 11 14  1  0
 14 15  1  0
 15 16  1  0
 16 17  2  0
 17 18  1  0
 18 19  2  0
 19 20  1  0
 19 21  1  0
 21 22  1  0
 21 23  2  0
 10  2  2  0
 23 16  1  0
  9  5  1  0
  1 24  1  0
  1 25  1  0
  1 26  1  0
  3 27  1  0
  4 28  1  0
 15 29  1  0
 15 30  1  0
 17 31  1  0
 18 32  1  0
 22 33  1  0
 23 34  1  0
M  CHG  2  14  -1  20  -1
M  END
>  <UniqueID>  (3) 
3

>  <SMILES>  (3) 
Cc1ccc2nsnc2c1S(=O)(=O)[N-]Cc1ccc([O-])c(O)c1

>  <Energy>  (3) 
75.95375541126808

>  <Genealogy>  (3) 
Cc1ccc2nsnc2c1S(=O)(=O)[N-]Cc1ccc([O-])c(O)c1 (protonated)
Cc1ccc2nsnc2c1S(=O)(=O)[N-]Cc1ccc([O-])c(O)c1 (3D coordinates assigned)
Cc1ccc2nsnc2c1S(=O)(=O)[N-]Cc1ccc([O-])c(O)c1 (optimized conformer: 75.95375541126808 kcal/mol)

>  <smiles>  (3) 
Cc1ccc2nsnc2c1S(=O)(=O)NCc1ccc(O)c(O)c1

>  <score_type>  (3) 
oracle

>  <origin>  (3) 
adgpu

>  <m_score__min__energy>  (3) 
-12.220000000000001

>  <m_primary>  (3) 
energy

$$$$
3:0
     RDKit          3D

 39 42  0  0  0  0  0  0  0  0999 V2000
   -5.3620   26.1440  -30.8000 O   0  0  0  0  0  0  0  0  0  0  0  0
   -4.9010   24.9720  -30.7910 C   0  0  0  0  0  0  0  0  0  0  0  0
   -3.5180   24.7820  -30.4620 N   0  0  0  0  0  0  0  0  0  0  0  0
   -2.9300   23.5850  -29.9290 C   0  0  0  0  0  0  0  0  0  0  0  0
   -2.2540   22.6740  -30.7610 C   0  0  0  0  0  0  0  0  0  0  0  0
   -1.6950   21.5100  -30.2270 C   0  0  0  0  0  0  0  0  0  0  0  0
   -1.8180   21.2370  -28.8630 C   0  0  0  0  0  0  0  0  0  0  0  0
   -2.5080   22.1230  -28.0320 C   0  0  0  0  0  0  0  0  0  0  0  0
   -3.0750   23.2890  -28.5610 C   0  0  0  0  0  0  0  0  0  0  0  0
   -3.9610   24.4050  -27.4650 S   0  0  0  0  0  0  0  0  0  0  0  0
   -2.4600   25.2180  -26.9160 C   0  0  0  0  0  0  0  0  0  0  0  0
   -2.3400   25.6440  -25.5870 C   0  0  0  0  0  0  0  0  0  0  0  0
   -1.1700   26.2810  -25.1600 C   0  0  0  0  0  0  0  0  0  0  0  0
   -0.1180   26.4900  -26.0570 C   0  0  0  0  0  0  0  0  0  0  0  0
   -0.2340   26.0590  -27.3820 C   0  0  0  0  0  0  0  0  0  0  0  0
   -1.4020   25.4210  -27.8110 C   0  0  0  0  0  0  0  0  0  0  0  0
   -5.7810   23.8410  -31.1680 C   0  0  0  0  0  0  0  0  0  0  0  0
   -7.1120   23.7620  -30.6740 C   0  0  0  0  0  0  0  0  0  0  0  0
   -7.9490   22.6890  -31.0290 C   0  0  0  0  0  0  0  0  0  0  0  0
   -7.4230   21.7120  -31.8670 C   0  0  0  0  0  0  0  0  0  0  0  0
   -8.0150   20.6080  -32.3350 N   0  0  0  0  0  0  0  0  0  0  0  0
   -7.0590   20.0170  -33.0910 C   0  0  0  0  0  0  0  0  0  0  0  0
   -5.8860   20.7040  -33.1150 N   0  0  0  0  0  0  0  0  0  0  0  0
   -6.1460   21.7670  -32.3340 C   0  0  0  0  0  0  0  0  0  0  0  0
   -5.2870   22.8130  -32.0060 C   0  0  0  0  0  0  0  0  0  0  0  0
   -2.1650   22.8792  -31.8380 H   0  0  0  0  0  0  0  0  0  0  0  0
   -1.1576   20.8081  -30.8816 H   0  0  0  0  0  0  0  0  0  0  0  0
   -1.3714   20.3238  -28.4427 H   0  0  0  0  0  0  0  0  0  0  0  0
   -2.6062   21.9040  -26.9585 H   0  0  0  0  0  0  0  0  0  0  0  0
   -3.1655   25.4777  -24.8793 H   0  0  0  0  0  0  0  0  0  0  0  0
   -1.0775   26.6180  -24.1170 H   0  0  0  0  0  0  0  0  0  0  0  0
    0.8004   26.9932  -25.7204 H   0  0  0  0  0  0  0  0  0  0  0  0
    0.5941   26.2219  -28.0875 H   0  0  0  0  0  0  0  0  0  0  0  0
   -1.4900   25.0782  -28.8525 H   0  0  0  0  0  0  0  0  0  0  0  0
   -7.4915   24.5495  -30.0063 H   0  0  0  0  0  0  0  0  0  0  0  0
   -8.9823   22.6250  -30.6572 H   0  0  0  0  0  0  0  0  0  0  0  0
   -8.9900   20.2750  -32.1610 H   0  0  0  0  0  0  0  0  0  0  0  0
   -7.2164   19.0728  -33.6330 H   0  0  0  0  0  0  0  0  0  0  0  0
   -4.2554   22.8394  -32.3869 H   0  0  0  0  0  0  0  0  0  0  0  0
  1  2  2  0
  2  3  1  0
  3  4  1  0
  4  5  2  0
  5  6  1  0
  6  7  2  0
  7  8  1  0
  8  9  2  0
  9 10  1  0
 10 11  1  0
 11 12  2  0
 12 13  1  0
 13 14  2  0
 14 15  1  0
 15 16  2  0
  2 17  1  0
 17 18  2  0
 18 19  1  0
 19 20  2  0
 20 21  1  0
 21 22  1  0
 22 23  2  0
 23 24  1  0
 24 25  2  0
  9  4  1  0
 16 11  1  0
 25 17  1  0
 24 20  1  0
  5 26  1  0
  6 27  1  0
  7 28  1  0
  8 29  1  0
 12 30  1  0
 13 31  1  0
 14 32  1  0
 15 33  1  0
 16 34  1  0
 18 35  1  0
 19 36  1  0
 21 37  1  0
 22 38  1  0
 25 39  1  0
M  CHG  1   3  -1
M  END
>  <UniqueID>  (4) 
4

>  <SMILES>  (4) 
O=C([N-]c1ccccc1Sc1ccccc1)c1ccc2[nH]cnc2c1

>  <Energy>  (4) 
82.66225830910085

>  <Genealogy>  (4) 
O=C([N-]c1ccccc1Sc1ccccc1)c1ccc2[nH]cnc2c1 (protonated)
O=C([N-]c1ccccc1Sc1ccccc1)c1ccc2[nH]cnc2c1 (3D coordinates assigned)
O=C([N-]c1ccccc1Sc1ccccc1)c1ccc2[nH]cnc2c1 (optimized conformer: 82.66225830910085 kcal/mol)

>  <smiles>  (4) 
O=C(Nc1ccccc1Sc1ccccc1)c1ccc2[nH]cnc2c1

>  <score_type>  (4) 
oracle

>  <origin>  (4) 
adgpu

>  <m_score__min__energy>  (4) 
-9.9000000000000004

>  <m_primary>  (4) 
energy

$$$$
4:0
     RDKit          3D

 27 28  0  0  0  0  0  0  0  0999 V2000
    0.2430   21.5720  -35.8540 N   0  0  0  0  0  0  0  0  0  0  0  0
    0.0670   21.2750  -34.7500 C   0  0  0  0  0  0  0  0  0  0  0  0
   -0.1520   20.9070  -33.3760 C   0  0  0  0  0  0  0  0  0  0  0  0
   -1.4090   21.0930  -32.7910 C   0  0  0  0  0  0  0  0  0  0  0  0
   -1.6230   20.7370  -31.4560 C   0  0  0  0  0  0  0  0  0  0  0  0
   -0.5780   20.1840  -30.6920 C   0  0  0  0  0  0  0  0  0  0  0  0
   -0.7600   19.7980  -29.3220 N   0  0  0  0  0  0  0  0  0  0  0  0
   -1.4740   20.7870  -28.0890 S   0  0  0  0  0  0  0  0  0  0  0  0
   -2.5560   20.0060  -27.3990 O   0  0  0  0  0  0  0  0  0  0  0  0
   -0.4190   21.1580  -27.0850 O   0  0  0  0  0  0  0  0  0  0  0  0
   -2.1840   22.2300  -28.8070 C   0  0  0  0  0  0  0  0  0  0  0  0
   -3.4560   22.1760  -29.3940 C   0  0  0  0  0  0  0  0  0  0  0  0
   -4.0200   23.3270  -29.9540 C   0  0  0  0  0  0  0  0  0  0  0  0
   -3.3160   24.5340  -29.9340 C   0  0  0  0  0  0  0  0  0  0  0  0
   -3.8820   25.6760  -30.4900 O   0  0  0  0  0  0  0  0  0  0  0  0
   -2.0420   24.5910  -29.3530 C   0  0  0  0  0  0  0  0  0  0  0  0
   -1.3370   25.7890  -29.3300 O   0  0  0  0  0  0  0  0  0  0  0  0
   -1.4780   23.4410  -28.7920 C   0  0  0  0  0  0  0  0  0  0  0  0
    0.6820   20.0020  -31.2850 C   0  0  0  0  0  0  0  0  0  0  0  0
    1.7280   19.4600  -30.5480 O   0  0  0  0  0  0  0  0  0  0  0  0
    0.8920   20.3610  -32.6200 C   0  0  0  0  0  0  0  0  0  0  0  0
   -2.2315   21.5206  -33.3831 H   0  0  0  0  0  0  0  0  0  0  0  0
   -2.6126   20.8898  -31.0006 H   0  0  0  0  0  0  0  0  0  0  0  0
   -4.0115   21.2268  -29.4142 H   0  0  0  0  0  0  0  0  0  0  0  0
   -5.0196   23.2820  -30.4110 H   0  0  0  0  0  0  0  0  0  0  0  0
   -0.4773   23.4867  -28.3375 H   0  0  0  0  0  0  0  0  0  0  0  0
    1.8813   20.2138  -33.0779 H   0  0  0  0  0  0  0  0  0  0  0  0
  1  2  3  0
  2  3  1  0
  3  4  2  0
  4  5  1  0
  5  6  2  0
  6  7  1  0
  7  8  1  0
  8  9  2  0
  8 10  2  0
  8 11  1  0
 11 12  2  0
 12 13  1  0
 13 14  2  0
 14 15  1  0
 14 16  1  0
 16 17  1  0
 16 18  2  0
  6 19  1  0
 19 20  1  0
 19 21  2  0
 21  3  1  0
 18 11  1  0
  4 22  1  0
  5 23  1  0
 12 24  1  0
 13 25  1  0
 18 26  1  0
 21 27  1  0
M  CHG  4   7  -1  15  -1  17  -1  20  -1
M  END
>  <UniqueID>  (5) 
5

>  <SMILES>  (5) 
N#Cc1ccc([N-]S(=O)(=O)c2ccc([O-])c([O-])c2)c([O-])c1

>  <Energy>  (5) 
30.92763241781631

>  <Genealogy>  (5) 
N#Cc1ccc([N-]S(=O)(=O)c2ccc([O-])c([O-])c2)c([O-])c1 (protonated)
N#Cc1ccc([N-]S(=O)(=O)c2ccc([O-])c([O-])c2)c([O-])c1 (3D coordinates assigned)
N#Cc1ccc([N-]S(=O)(=O)c2ccc([O-])c([O-])c2)c([O-])c1 (optimized conformer: 30.92763241781631 kcal/mol)

>  <smiles>  (5) 
N#Cc1ccc(NS(=O)(=O)c2ccc(O)c(O)c2)c(O)c1

>  <score_type>  (5) 
oracle

>  <origin>  (5) 
adgpu

>  <m_score__min__energy>  (5) 
-12.44

>  <m_primary>  (5) 
energy

$$$$
5:0
     RDKit          3D

 49 52  0  0  0  0  0  0  0  0999 V2000
   -5.8290   25.4660  -28.9340 O   0  0  0  0  0  0  0  0  0  0  0  0
   -5.4150   25.1800  -30.3500 S   0  0  0  0  0  0  0  0  0  0  0  0
   -5.7620   26.3700  -31.2030 O   0  0  0  0  0  0  0  0  0  0  0  0
   -3.6960   24.9440  -30.4070 N   0  0  0  0  0  0  0  0  0  0  0  0
   -2.9510   24.1370  -29.4810 C   0  0  0  0  0  0  0  0  0  0  0  0
   -3.2840   22.7920  -29.2380 C   0  0  0  0  0  0  0  0  0  0  0  0
   -2.5470   22.0360  -28.3230 C   0  0  0  0  0  0  0  0  0  0  0  0
   -1.4190   22.5960  -27.6880 C   0  0  0  0  0  0  0  0  0  0  0  0
   -1.1110   23.9470  -27.8960 C   0  0  0  0  0  0  0  0  0  0  0  0
   -1.8790   24.7150  -28.7800 C   0  0  0  0  0  0  0  0  0  0  0  0
   -1.5520   26.0520  -28.9830 O   0  0  0  0  0  0  0  0  0  0  0  0
   -0.5800   21.7570  -26.7490 C   0  0  0  0  0  0  0  0  0  0  0  0
   -0.8000   20.2530  -26.9830 C   0  0  0  0  0  0  0  0  0  0  0  0
   -2.3030   19.9450  -27.0290 C   0  0  0  0  0  0  0  0  0  0  0  0
   -2.9280   20.7140  -28.0570 O   0  0  0  0  0  0  0  0  0  0  0  0
   -6.2670   23.7490  -30.9280 C   0  0  0  0  0  0  0  0  0  0  0  0
   -5.9040   23.1610  -32.1480 C   0  0  0  0  0  0  0  0  0  0  0  0
   -6.4710   21.9450  -32.5380 C   0  0  0  0  0  0  0  0  0  0  0  0
   -7.4040   21.3030  -31.7110 C   0  0  0  0  0  0  0  0  0  0  0  0
   -8.0330   19.7100  -32.1510 S   0  0  0  0  0  0  0  0  0  0  0  0
   -9.0470   19.8690  -33.2530 O   0  0  0  0  0  0  0  0  0  0  0  0
   -8.7270   19.1080  -30.9590 O   0  0  0  0  0  0  0  0  0  0  0  0
   -6.7720   18.6230  -32.6900 N   0  0  0  0  0  0  0  0  0  0  0  0
   -7.2640   17.2580  -32.9140 C   0  0  0  0  0  0  0  0  0  0  0  0
   -6.4650   16.6710  -34.0790 C   0  0  0  0  0  0  0  0  0  0  0  0
   -5.5940   17.8080  -34.5920 C   0  0  0  0  0  0  0  0  0  0  0  0
   -6.1820   19.0540  -33.9580 C   0  0  0  0  0  0  0  0  0  0  0  0
   -7.8150   21.9240  -30.5200 C   0  0  0  0  0  0  0  0  0  0  0  0
   -7.2420   23.1390  -30.1270 C   0  0  0  0  0  0  0  0  0  0  0  0
   -4.1294   22.3329  -29.7714 H   0  0  0  0  0  0  0  0  0  0  0  0
   -0.2643   24.4052  -27.3639 H   0  0  0  0  0  0  0  0  0  0  0  0
    0.4820   21.9921  -26.9129 H   0  0  0  0  0  0  0  0  0  0  0  0
   -0.8800   21.9919  -25.7171 H   0  0  0  0  0  0  0  0  0  0  0  0
   -0.3387   19.9613  -27.9380 H   0  0  0  0  0  0  0  0  0  0  0  0
   -0.3398   19.6876  -26.1593 H   0  0  0  0  0  0  0  0  0  0  0  0
   -2.4493   18.8744  -27.2350 H   0  0  0  0  0  0  0  0  0  0  0  0
   -2.7543   20.2036  -26.0597 H   0  0  0  0  0  0  0  0  0  0  0  0
   -5.1708   23.6584  -32.7999 H   0  0  0  0  0  0  0  0  0  0  0  0
   -6.1844   21.4895  -33.4974 H   0  0  0  0  0  0  0  0  0  0  0  0
   -7.1124   16.6503  -32.0097 H   0  0  0  0  0  0  0  0  0  0  0  0
   -8.3396   17.2650  -33.1443 H   0  0  0  0  0  0  0  0  0  0  0  0
   -5.8400   15.8346  -33.7330 H   0  0  0  0  0  0  0  0  0  0  0  0
   -7.1239   16.2760  -34.8663 H   0  0  0  0  0  0  0  0  0  0  0  0
   -4.5488   17.6687  -34.2786 H   0  0  0  0  0  0  0  0  0  0  0  0
   -5.5834   17.8634  -35.6906 H   0  0  0  0  0  0  0  0  0  0  0  0
   -5.3935   19.7997  -33.7785 H   0  0  0  0  0  0  0  0  0  0  0  0
   -6.9321   19.5226  -34.6121 H   0  0  0  0  0  0  0  0  0  0  0  0
   -8.5888   21.4545  -29.8949 H   0  0  0  0  0  0  0  0  0  0  0  0
   -7.5576   23.6162  -29.1875 H   0  0  0  0  0  0  0  0  0  0  0  0
  1  2  2  0
  2  3  2  0
  2  4  1  0
  4  5  1  0
  5  6  2  0
  6  7  1  0
  7  8  2  0
  8  9  1  0
  9 10  2  0
 10 11  1  0
  8 12  1  0
 12 13  1  0
 13 14  1  0
 14 15  1  0
  2 16  1  0
 16 17  2  0
 17 18  1  0
 18 19  2  0
 19 20  1  0
 20 21  2  0
 20 22  2  0
 20 23  1  0
 23 24  1  0
 24 25  1  0
 25 26  1  0
 26 27  1  0
 19 28  1  0
 28 29  2  0
 10  5  1  0
 29 16  1  0
 15  7  1  0
 27 23  1  0
  6 30  1  0
  9 31  1  0
 12 32  1  0
 12 33  1  0
 13 34  1  0
 13 35  1  0
 14 36  1  0
 14 37  1  0
 17 38  1  0
 18 39  1  0
 24 40  1  0
 24 41  1  0
 25 42  1  0
 25 43  1  0
 26 44  1  0
 26 45  1  0
 27 46  1  0
 27 47  1  0
 28 48  1  0
 29 49  1  0
M  CHG  2   4  -1  11  -1
M  END
>  <UniqueID>  (6) 
6

>  <SMILES>  (6) 
O=S(=O)([N-]c1cc2c(cc1[O-])CCCO2)c1ccc(S(=O)(=O)N2CCCC2)cc1

>  <Energy>  (6) 
56.02385956753026

>  <Genealogy>  (6) 
O=S(=O)([N-]c1cc2c(cc1[O-])CCCO2)c1ccc(S(=O)(=O)N2CCCC2)cc1 (protonated)
O=S(=O)([N-]c1cc2c(cc1[O-])CCCO2)c1ccc(S(=O)(=O)N2CCCC2)cc1 (3D coordinates assigned)
O=S(=O)([N-]c1cc2c(cc1[O-])CCCO2)c1ccc(S(=O)(=O)N2CCCC2)cc1 (nonaromatic ring conformer: 56.02385956753026 kcal/mol)

>  <smiles>  (6) 
O=S(=O)(Nc1cc2c(cc1O)CCCO2)c1ccc(S(=O)(=O)N2CCCC2)cc1

>  <score_type>  (6) 
oracle

>  <origin>  (6) 
adgpu

>  <m_score__min__energy>  (6) 
-15.31

>  <m_primary>  (6) 
energy

$$$$
6:0
     RDKit          3D

 68 72  0  0  0  0  0  0  0  0999 V2000
   -3.9640   18.5530  -34.5880 O   0  0  0  0  0  0  0  0  0  0  0  0
   -4.1890   19.5260  -33.8210 C   0  0  0  0  0  0  0  0  0  0  0  0
   -3.1830   20.5350  -33.6560 N   0  0  0  0  0  0  0  0  0  0  0  0
   -2.1570   20.5180  -32.6550 C   0  0  0  0  0  0  0  0  0  0  0  0
   -0.8110   20.3090  -32.9930 C   0  0  0  0  0  0  0  0  0  0  0  0
    0.1720   20.3180  -32.0000 C   0  0  0  0  0  0  0  0  0  0  0  0
   -0.1800   20.5310  -30.6650 C   0  0  0  0  0  0  0  0  0  0  0  0
   -1.5270   20.7040  -30.3140 C   0  0  0  0  0  0  0  0  0  0  0  0
   -1.9910   21.0320  -28.6490 S   0  0  0  0  0  0  0  0  0  0  0  0
   -3.4880   21.1250  -28.5650 O   0  0  0  0  0  0  0  0  0  0  0  0
   -1.5240   19.9190  -27.7500 O   0  0  0  0  0  0  0  0  0  0  0  0
   -1.2810   22.5500  -28.1600 N   0  0  0  0  0  0  0  0  0  0  0  0
   -2.2150   23.3380  -27.3590 C   0  0  0  0  0  0  0  0  0  0  0  0
   -1.8050   24.7910  -27.5310 C   0  0  0  0  0  0  0  0  0  0  0  0
   -1.0210   24.8310  -28.8350 C   0  0  0  0  0  0  0  0  0  0  0  0
   -0.9570   23.3880  -29.3140 C   0  0  0  0  0  0  0  0  0  0  0  0
   -2.5120   20.6760  -31.3100 C   0  0  0  0  0  0  0  0  0  0  0  0
   -5.4590   19.5720  -33.0750 C   0  0  0  0  0  0  0  0  0  0  0  0
   -5.9720   20.8170  -32.6840 C   0  0  0  0  0  0  0  0  0  0  0  0
   -7.1410   20.8970  -31.9210 C   0  0  0  0  0  0  0  0  0  0  0  0
   -7.6740   22.4600  -31.3120 S   0  0  0  0  0  0  0  0  0  0  0  0
   -8.6910   23.0320  -32.2590 O   0  0  0  0  0  0  0  0  0  0  0  0
   -8.3130   22.2950  -29.9600 O   0  0  0  0  0  0  0  0  0  0  0  0
   -6.3010   23.5310  -31.2040 N   0  0  0  0  0  0  0  0  0  0  0  0
   -5.1660   22.8370  -30.5680 C   0  0  0  0  0  0  0  0  0  0  0  0
   -4.0590   23.8350  -30.1740 C   0  0  0  0  0  0  0  0  0  0  0  0
   -4.2500   25.0790  -30.8160 O   0  0  0  0  0  0  0  0  0  0  0  0
   -5.4440   25.6830  -30.3480 C   0  0  0  0  0  0  0  0  0  0  0  0
   -6.6590   24.7340  -30.4380 C   0  0  0  0  0  0  0  0  0  0  0  0
   -7.8270   19.7250  -31.5800 C   0  0  0  0  0  0  0  0  0  0  0  0
   -7.3540   18.4850  -32.0100 C   0  0  0  0  0  0  0  0  0  0  0  0
   -6.1710   18.3950  -32.7600 C   0  0  0  0  0  0  0  0  0  0  0  0
   -5.7310   17.1110  -33.2280 N   0  0  0  0  0  0  0  0  0  0  0  0
   -4.7210   16.3270  -32.5400 C   0  0  0  0  0  0  0  0  0  0  0  0
   -4.9830   14.8830  -32.9420 C   0  0  0  0  0  0  0  0  0  0  0  0
   -5.8210   14.9600  -34.2150 C   0  0  0  0  0  0  0  0  0  0  0  0
   -6.5010   16.3220  -34.1750 C   0  0  0  0  0  0  0  0  0  0  0  0
   -0.5291   20.1377  -34.0424 H   0  0  0  0  0  0  0  0  0  0  0  0
    1.2260   20.1569  -32.2703 H   0  0  0  0  0  0  0  0  0  0  0  0
    0.5991   20.5631  -29.8891 H   0  0  0  0  0  0  0  0  0  0  0  0
   -3.2442   23.1879  -27.7169 H   0  0  0  0  0  0  0  0  0  0  0  0
   -2.1865   23.0374  -26.3013 H   0  0  0  0  0  0  0  0  0  0  0  0
   -2.6926   25.4377  -27.5942 H   0  0  0  0  0  0  0  0  0  0  0  0
   -1.2089   25.1541  -26.6808 H   0  0  0  0  0  0  0  0  0  0  0  0
   -1.5377   25.4595  -29.5753 H   0  0  0  0  0  0  0  0  0  0  0  0
   -0.0178   25.2601  -28.6955 H   0  0  0  0  0  0  0  0  0  0  0  0
   -1.6872   23.2229  -30.1199 H   0  0  0  0  0  0  0  0  0  0  0  0
    0.0393   23.1462  -29.7127 H   0  0  0  0  0  0  0  0  0  0  0  0
   -3.5716   20.7789  -31.0333 H   0  0  0  0  0  0  0  0  0  0  0  0
   -5.4502   21.7390  -32.9801 H   0  0  0  0  0  0  0  0  0  0  0  0
   -5.5214   22.3190  -29.6650 H   0  0  0  0  0  0  0  0  0  0  0  0
   -4.7486   22.1163  -31.2866 H   0  0  0  0  0  0  0  0  0  0  0  0
   -4.0804   23.9849  -29.0845 H   0  0  0  0  0  0  0  0  0  0  0  0
   -3.0877   23.4238  -30.4862 H   0  0  0  0  0  0  0  0  0  0  0  0
   -5.3027   25.9772  -29.2975 H   0  0  0  0  0  0  0  0  0  0  0  0
   -5.6513   26.5544  -30.9865 H   0  0  0  0  0  0  0  0  0  0  0  0
   -6.9688   24.4415  -29.4239 H   0  0  0  0  0  0  0  0  0  0  0  0
   -7.4858   25.2526  -30.9453 H   0  0  0  0  0  0  0  0  0  0  0  0
   -8.7415   19.7821  -30.9713 H   0  0  0  0  0  0  0  0  0  0  0  0
   -7.9123   17.5710  -31.7594 H   0  0  0  0  0  0  0  0  0  0  0  0
   -3.7136   16.6369  -32.8547 H   0  0  0  0  0  0  0  0  0  0  0  0
   -4.7722   16.4626  -31.4496 H   0  0  0  0  0  0  0  0  0  0  0  0
   -4.0350   14.3601  -33.1368 H   0  0  0  0  0  0  0  0  0  0  0  0
   -5.4991   14.3251  -32.1467 H   0  0  0  0  0  0  0  0  0  0  0  0
   -5.1780   14.8777  -35.1037 H   0  0  0  0  0  0  0  0  0  0  0  0
   -6.5530   14.1408  -34.2710 H   0  0  0  0  0  0  0  0  0  0  0  0
   -6.4831   16.7903  -35.1702 H   0  0  0  0  0  0  0  0  0  0  0  0
   -7.5571   16.2430  -33.8778 H   0  0  0  0  0  0  0  0  0  0  0  0
  1  2  2  0
  2  3  1  0
  3  4  1  0
  4  5  2  0
  5  6  1  0
  6  7  2  0
  7  8  1  0
  8  9  1  0
  9 10  2  0
  9 11  2  0
  9 12  1  0
 12 13  1  0
 13 14  1  0
 14 15  1  0
 15 16  1  0
  8 17  2  0
  2 18  1  0
 18 19  2  0
 19 20  1  0
 20 21  1  0
 21 22  2  0
 21 23  2  0
 21 24  1  0
 24 25  1  0
 25 26  1  0
 26 27  1  0
 27 28  1  0
 28 29  1  0
 20 30  2  0
 30 31  1  0
 31 32  2  0
 32 33  1  0
 33 34  1  0
 34 35  1  0
 35 36  1  0
 36 37  1  0
 17  4  1  0
 32 18  1  0
 37 33  1  0
 16 12  1  0
 29 24  1  0
  5 38  1  0
  6 39  1  0
  7 40  1  0
 13 41  1  0
 13 42  1  0
 14 43  1  0
 14 44  1  0
 15 45  1  0
 15 46  1  0
 16 47  1  0
 16 48  1  0
 17 49  1  0
 19 50  1  0
 25 51  1  0
 25 52  1  0
 26 53  1  0
 26 54  1  0
 28 55  1  0
 28 56  1  0
 29 57  1  0
 29 58  1  0
 30 59  1  0
 31 60  1  0
 34 61  1  0
 34 62  1  0
 35 63  1  0
 35 64  1  0
 36 65  1  0
 36 66  1  0
 37 67  1  0
 37 68  1  0
M  CHG  1   3  -1
M  END
>  <UniqueID>  (7) 
7

>  <SMILES>  (7) 
O=C([N-]c1cccc(S(=O)(=O)N2CCCC2)c1)c1cc(S(=O)(=O)N2CCOCC2)ccc1N1CCCC1

>  <Energy>  (7) 
92.44296477780993

>  <Genealogy>  (7) 
O=C([N-]c1cccc(S(=O)(=O)N2CCCC2)c1)c1cc(S(=O)(=O)N2CCOCC2)ccc1N1CCCC1 (protonated)
O=C([N-]c1cccc(S(=O)(=O)N2CCCC2)c1)c1cc(S(=O)(=O)N2CCOCC2)ccc1N1CCCC1 (3D coordinates assigned)
O=C([N-]c1cccc(S(=O)(=O)N2CCCC2)c1)c1cc(S(=O)(=O)N2CCOCC2)ccc1N1CCCC1 (nonaromatic ring conformer: 92.44296477780993 kcal/mol)

>  <smiles>  (7) 
O=C(Nc1cccc(S(=O)(=O)N2CCCC2)c1)c1cc(S(=O)(=O)N2CCOCC2)ccc1N1CCCC1

>  <score_type>  (7) 
oracle

>  <origin>  (7) 
adgpu

>  <m_score__min__energy>  (7) 
-12.07

>  <m_primary>  (7) 
energy

$$$$
7:0
     RDKit          3D

 41 44  0  0  0  0  0  0  0  0999 V2000
    0.7830   19.9760  -28.6580 C   0  0  0  0  0  0  0  0  0  0  0  0
    0.0970   20.4070  -27.4290 N   0  0  0  0  0  0  0  0  0  0  0  0
   -1.2980   19.9300  -27.3590 C   0  0  0  0  0  0  0  0  0  0  0  0
   -2.1860   20.5430  -28.4530 C   0  0  0  0  0  0  0  0  0  0  0  0
   -1.9420   22.0180  -28.6340 C   0  0  0  0  0  0  0  0  0  0  0  0
   -2.8370   22.7670  -29.4120 C   0  0  0  0  0  0  0  0  0  0  0  0
   -2.6010   24.1300  -29.6650 C   0  0  0  0  0  0  0  0  0  0  0  0
   -3.4880   24.9160  -30.4760 N   0  0  0  0  0  0  0  0  0  0  0  0
   -5.2200   24.8810  -30.3830 S   0  0  0  0  0  0  0  0  0  0  0  0
   -5.7740   26.1180  -31.0290 O   0  0  0  0  0  0  0  0  0  0  0  0
   -5.6320   24.8550  -28.9370 O   0  0  0  0  0  0  0  0  0  0  0  0
   -5.8340   23.4680  -31.2350 C   0  0  0  0  0  0  0  0  0  0  0  0
   -4.9570   22.6980  -32.0340 C   0  0  0  0  0  0  0  0  0  0  0  0
   -5.4170   21.5440  -32.6940 C   0  0  0  0  0  0  0  0  0  0  0  0
   -6.7550   21.1940  -32.5300 C   0  0  0  0  0  0  0  0  0  0  0  0
   -7.4670   20.1340  -33.0340 C   0  0  0  0  0  0  0  0  0  0  0  0
   -8.7460   20.3090  -32.5220 C   0  0  0  0  0  0  0  0  0  0  0  0
   -9.8110   19.4560  -32.7730 O   0  0  0  0  0  0  0  0  0  0  0  0
   -8.8500   21.4080  -31.7380 N   0  0  0  0  0  0  0  0  0  0  0  0
   -7.6120   21.9370  -31.7600 C   0  0  0  0  0  0  0  0  0  0  0  0
   -7.1850   23.0850  -31.0970 C   0  0  0  0  0  0  0  0  0  0  0  0
   -1.4660   24.7420  -29.1180 C   0  0  0  0  0  0  0  0  0  0  0  0
   -1.2230   26.0930  -29.3410 O   0  0  0  0  0  0  0  0  0  0  0  0
   -0.5670   24.0000  -28.3460 C   0  0  0  0  0  0  0  0  0  0  0  0
   -0.7830   22.6340  -28.1180 C   0  0  0  0  0  0  0  0  0  0  0  0
    0.1750   21.8690  -27.2350 C   0  0  0  0  0  0  0  0  0  0  0  0
    1.6871   19.4080  -28.3933 H   0  0  0  0  0  0  0  0  0  0  0  0
    0.1095   19.3385  -29.2495 H   0  0  0  0  0  0  0  0  0  0  0  0
    1.0651   20.8595  -29.2495 H   0  0  0  0  0  0  0  0  0  0  0  0
   -1.3027   18.8359  -27.4730 H   0  0  0  0  0  0  0  0  0  0  0  0
   -1.7075   20.2374  -26.3854 H   0  0  0  0  0  0  0  0  0  0  0  0
   -1.9776   20.0315  -29.4043 H   0  0  0  0  0  0  0  0  0  0  0  0
   -3.2340   20.4127  -28.1451 H   0  0  0  0  0  0  0  0  0  0  0  0
   -3.7328   22.2832  -29.8286 H   0  0  0  0  0  0  0  0  0  0  0  0
   -3.9058   23.0042  -32.1403 H   0  0  0  0  0  0  0  0  0  0  0  0
   -4.7431   20.9389  -33.3182 H   0  0  0  0  0  0  0  0  0  0  0  0
   -7.1068   19.3300  -33.6927 H   0  0  0  0  0  0  0  0  0  0  0  0
   -7.8809   23.6760  -30.4835 H   0  0  0  0  0  0  0  0  0  0  0  0
    0.3169   24.4922  -27.9141 H   0  0  0  0  0  0  0  0  0  0  0  0
    1.1997   22.1984  -27.4617 H   0  0  0  0  0  0  0  0  0  0  0  0
   -0.1021   22.0775  -26.1911 H   0  0  0  0  0  0  0  0  0  0  0  0
  1  2  1  0
  2  3  1  0
  3  4  1  0
  4  5  1  0
  5  6  2  0
  6  7  1  0
  7  8  1  0
  8  9  1  0
  9 10  2  0
  9 11  2  0
  9 12  1  0
 12 13  2  0
 13 14  1  0
 14 15  2  0
 15 16  1  0
 16 17  2  0
 17 18  1  0
 17 19  1  0
 19 20  1  0
 20 21  2  0
  7 22  2  0
 22 23  1  0
 22 24  1  0
 24 25  2  0
 25 26  1  0
 26  2  1  0
 25  5  1  0
 21 12  1  0
 20 15  1  0
  1 27  1  0
  1 28  1  0
  1 29  1  0
  3 30  1  0
  3 31  1  0
  4 32  1  0
  4 33  1  0
  6 34  1  0
 13 35  1  0
 14 36  1  0
 16 37  1  0
 21 38  1  0
 24 39  1  0
 26 40  1  0
 26 41  1  0
M  CHG  4   8  -1  18  -1  19  -1  23  -1
M  END
>  <UniqueID>  (8) 
8

>  <SMILES>  (8) 
CN1CCc2cc([N-]S(=O)(=O)c3ccc4cc([O-])[n-]c4c3)c([O-])cc2C1

>  <Energy>  (8) 
84.92399263152778

>  <Genealogy>  (8) 
CN1CCc2cc([N-]S(=O)(=O)c3ccc4cc([O-])[n-]c4c3)c([O-])cc2C1 (protonated)
CN1CCc2cc([N-]S(=O)(=O)c3ccc4cc([O-])[n-]c4c3)c([O-])cc2C1 (3D coordinates assigned)
CN1CCc2cc([N-]S(=O)(=O)c3ccc4cc([O-])[n-]c4c3)c([O-])cc2C1 (nonaromatic ring conformer: 84.92399263152778 kcal/mol)

>  <smiles>  (8) 
CN1CCc2cc(NS(=O)(=O)c3ccc4cc(O)[nH]c4c3)c(O)cc2C1

>  <score_type>  (8) 
oracle

>  <origin>  (8) 
adgpu

>  <m_score__min__energy>  (8) 
-13.359999999999999

>  <m_primary>  (8) 
energy

$$$$
8:0
     RDKit          3D

 42 45  0  0  0  0  0  0  0  0999 V2000
   -6.4060   18.0950  -33.8780 C   0  0  0  0  0  0  0  0  0  0  0  0
   -6.7730   19.2440  -32.9880 C   0  0  0  0  0  0  0  0  0  0  0  0
   -8.0210   19.2530  -32.3230 C   0  0  0  0  0  0  0  0  0  0  0  0
   -8.3620   20.3060  -31.4600 C   0  0  0  0  0  0  0  0  0  0  0  0
   -7.4360   21.3270  -31.2700 C   0  0  0  0  0  0  0  0  0  0  0  0
   -7.5870   22.7010  -30.3150 S   0  0  0  0  0  0  0  0  0  0  0  0
   -6.0550   23.3010  -30.7010 C   0  0  0  0  0  0  0  0  0  0  0  0
   -5.4320   24.8480  -30.1540 S   0  0  0  0  0  0  0  0  0  0  0  0
   -6.5610   25.8160  -29.9330 O   0  0  0  0  0  0  0  0  0  0  0  0
   -4.5120   25.3970  -31.2070 O   0  0  0  0  0  0  0  0  0  0  0  0
   -4.5560   24.6350  -28.6710 N   0  0  0  0  0  0  0  0  0  0  0  0
   -3.4000   23.7860  -28.5580 C   0  0  0  0  0  0  0  0  0  0  0  0
   -3.5140   22.4580  -28.1110 C   0  0  0  0  0  0  0  0  0  0  0  0
   -2.3900   21.6220  -28.0460 C   0  0  0  0  0  0  0  0  0  0  0  0
   -1.1210   22.1340  -28.3740 C   0  0  0  0  0  0  0  0  0  0  0  0
   -1.0020   23.4610  -28.8090 C   0  0  0  0  0  0  0  0  0  0  0  0
   -2.1290   24.2830  -28.8970 C   0  0  0  0  0  0  0  0  0  0  0  0
   -1.9790   25.5930  -29.3400 O   0  0  0  0  0  0  0  0  0  0  0  0
    0.0990   21.2420  -28.3620 C   0  0  0  0  0  0  0  0  0  0  0  0
   -0.0820   20.0580  -27.5100 N   0  0  0  0  0  0  0  0  0  0  0  0
   -1.3200   19.3510  -27.8580 C   0  0  0  0  0  0  0  0  0  0  0  0
   -2.5490   20.2110  -27.5380 C   0  0  0  0  0  0  0  0  0  0  0  0
   -5.4130   22.4380  -31.5850 C   0  0  0  0  0  0  0  0  0  0  0  0
   -6.2010   21.3270  -31.9000 C   0  0  0  0  0  0  0  0  0  0  0  0
   -5.8500   20.2860  -32.7620 C   0  0  0  0  0  0  0  0  0  0  0  0
   -6.1289   17.2274  -33.2612 H   0  0  0  0  0  0  0  0  0  0  0  0
   -7.2655   17.8339  -34.5130 H   0  0  0  0  0  0  0  0  0  0  0  0
   -5.5543   18.3805  -34.5130 H   0  0  0  0  0  0  0  0  0  0  0  0
   -8.7304   18.4278  -32.4834 H   0  0  0  0  0  0  0  0  0  0  0  0
   -9.3352   20.3236  -30.9476 H   0  0  0  0  0  0  0  0  0  0  0  0
   -4.8110   25.2680  -27.8800 H   0  0  0  0  0  0  0  0  0  0  0  0
   -4.4976   22.0696  -27.8083 H   0  0  0  0  0  0  0  0  0  0  0  0
   -0.0138   23.8587  -29.0833 H   0  0  0  0  0  0  0  0  0  0  0  0
    0.3038   20.9095  -29.3903 H   0  0  0  0  0  0  0  0  0  0  0  0
    0.9373   21.8251  -27.9529 H   0  0  0  0  0  0  0  0  0  0  0  0
   -0.1300   20.3630  -26.5100 H   0  0  0  0  0  0  0  0  0  0  0  0
   -1.3125   19.1193  -28.9333 H   0  0  0  0  0  0  0  0  0  0  0  0
   -1.3747   18.4253  -27.2663 H   0  0  0  0  0  0  0  0  0  0  0  0
   -3.4332   19.7592  -28.0113 H   0  0  0  0  0  0  0  0  0  0  0  0
   -2.6643   20.2511  -26.4448 H   0  0  0  0  0  0  0  0  0  0  0  0
   -4.4042   22.6101  -31.9883 H   0  0  0  0  0  0  0  0  0  0  0  0
   -4.8679   20.2788  -33.2575 H   0  0  0  0  0  0  0  0  0  0  0  0
  1  2  1  0
  2  3  2  0
  3  4  1  0
  4  5  2  0
  5  6  1  0
  6  7  1  0
  7  8  1  0
  8  9  2  0
  8 10  2  0
  8 11  1  0
 11 12  1  0
 12 13  2  0
 13 14  1  0
 14 15  2  0
 15 16  1  0
 16 17  2  0
 17 18  1  0
 15 19  1  0
 19 20  1  0
 20 21  1  0
 21 22  1  0
  7 23  2  0
 23 24  1  0
 24 25  2  0
 25  2  1  0
 24  5  1  0
 17 12  1  0
 22 14  1  0
  1 26  1  0
  1 27  1  0
  1 28  1  0
  3 29  1  0
  4 30  1  0
 11 31  1  0
 13 32  1  0
 16 33  1  0
 19 34  1  0
 19 35  1  0
 20 36  1  0
 21 37  1  0
 21 38  1  0
 22 39  1  0
 22 40  1  0
 23 41  1  0
 25 42  1  0
M  CHG  1  18  -1
M  END
>  <UniqueID>  (9) 
9

>  <SMILES>  (9) 
Cc1ccc2sc(S(=O)(=O)Nc3cc4c(cc3[O-])CNCC4)cc2c1

>  <Energy>  (9) 
80.20104373921046

>  <Genealogy>  (9) 
Cc1ccc2sc(S(=O)(=O)Nc3cc4c(cc3[O-])CNCC4)cc2c1 (protonated)
Cc1ccc2sc(S(=O)(=O)Nc3cc4c(cc3[O-])CNCC4)cc2c1 (3D coordinates assigned)
Cc1ccc2sc(S(=O)(=O)Nc3cc4c(cc3[O-])CNCC4)cc2c1 (nonaromatic ring conformer: 80.20104373921046 kcal/mol)

>  <smiles>  (9) 
Cc1ccc2sc(S(=O)(=O)Nc3cc4c(cc3O)CNCC4)cc2c1

>  <score_type>  (9) 
oracle

>  <origin>  (9) 
adgpu

>  <m_score__min__energy>  (9) 
-13.66

>  <m_primary>  (9) 
energy

$$$$
9:0
     RDKit          3D

 56 59  0  0  0  0  0  0  0  0999 V2000
   -1.9490   23.0030  -30.1470 O   0  0  0  0  0  0  0  0  0  0  0  0
   -3.0250   22.4150  -30.4410 C   0  0  0  0  0  0  0  0  0  0  0  0
   -2.9990   20.9980  -30.6570 N   0  0  0  0  0  0  0  0  0  0  0  0
   -2.7380   20.3410  -31.9070 C   0  0  0  0  0  0  0  0  0  0  0  0
   -3.7460   19.5440  -32.4650 C   0  0  0  0  0  0  0  0  0  0  0  0
   -3.5430   18.8930  -33.6900 C   0  0  0  0  0  0  0  0  0  0  0  0
   -4.8200   17.9120  -34.4050 S   0  0  0  0  0  0  0  0  0  0  0  0
   -5.9140   18.8000  -34.9310 O   0  0  0  0  0  0  0  0  0  0  0  0
   -4.2340   17.1250  -35.5430 O   0  0  0  0  0  0  0  0  0  0  0  0
   -5.4690   16.8190  -33.2010 N   0  0  0  0  0  0  0  0  0  0  0  0
   -6.4610   15.9200  -33.8020 C   0  0  0  0  0  0  0  0  0  0  0  0
   -5.7540   14.6340  -34.2050 C   0  0  0  0  0  0  0  0  0  0  0  0
   -4.4180   14.6590  -33.4880 C   0  0  0  0  0  0  0  0  0  0  0  0
   -4.4140   15.9460  -32.6770 C   0  0  0  0  0  0  0  0  0  0  0  0
   -2.3190   19.0330  -34.3540 C   0  0  0  0  0  0  0  0  0  0  0  0
   -1.2970   19.7970  -33.7880 C   0  0  0  0  0  0  0  0  0  0  0  0
   -1.4910   20.4400  -32.5580 C   0  0  0  0  0  0  0  0  0  0  0  0
   -0.4410   21.1490  -31.9750 O   0  0  0  0  0  0  0  0  0  0  0  0
   -4.2780   23.2000  -30.5270 C   0  0  0  0  0  0  0  0  0  0  0  0
   -5.4790   22.5440  -30.8500 C   0  0  0  0  0  0  0  0  0  0  0  0
   -6.6850   23.2550  -30.9200 C   0  0  0  0  0  0  0  0  0  0  0  0
   -8.1940   22.4130  -31.2960 S   0  0  0  0  0  0  0  0  0  0  0  0
   -9.0910   23.3380  -32.0690 O   0  0  0  0  0  0  0  0  0  0  0  0
   -8.8890   22.0570  -30.0110 O   0  0  0  0  0  0  0  0  0  0  0  0
   -7.9420   20.9560  -32.2290 N   0  0  0  0  0  0  0  0  0  0  0  0
   -9.1840   20.2150  -32.4370 C   0  0  0  0  0  0  0  0  0  0  0  0
   -8.7850   18.7660  -32.6650 C   0  0  0  0  0  0  0  0  0  0  0  0
   -7.3840   18.6380  -32.0840 C   0  0  0  0  0  0  0  0  0  0  0  0
   -7.0380   20.0230  -31.5590 C   0  0  0  0  0  0  0  0  0  0  0  0
   -6.6910   24.6310  -30.6640 C   0  0  0  0  0  0  0  0  0  0  0  0
   -5.5000   25.2960  -30.3650 C   0  0  0  0  0  0  0  0  0  0  0  0
   -4.2940   24.5920  -30.3070 C   0  0  0  0  0  0  0  0  0  0  0  0
   -3.1170   25.2890  -30.0570 O   0  0  0  0  0  0  0  0  0  0  0  0
   -4.7044   19.4280  -31.9378 H   0  0  0  0  0  0  0  0  0  0  0  0
   -7.2523   15.6967  -33.0713 H   0  0  0  0  0  0  0  0  0  0  0  0
   -6.9194   16.3939  -34.6825 H   0  0  0  0  0  0  0  0  0  0  0  0
   -6.3415   13.7586  -33.8911 H   0  0  0  0  0  0  0  0  0  0  0  0
   -5.6285   14.5640  -35.2956 H   0  0  0  0  0  0  0  0  0  0  0  0
   -4.3216   13.7867  -32.8248 H   0  0  0  0  0  0  0  0  0  0  0  0
   -3.5757   14.6200  -34.1944 H   0  0  0  0  0  0  0  0  0  0  0  0
   -4.6090   15.7200  -31.6183 H   0  0  0  0  0  0  0  0  0  0  0  0
   -3.4354   16.4422  -32.7553 H   0  0  0  0  0  0  0  0  0  0  0  0
   -2.1619   18.5397  -35.3245 H   0  0  0  0  0  0  0  0  0  0  0  0
   -0.3339   19.8949  -34.3104 H   0  0  0  0  0  0  0  0  0  0  0  0
   -0.5710   21.6910  -31.1280 H   0  0  0  0  0  0  0  0  0  0  0  0
   -5.4721   21.4623  -31.0497 H   0  0  0  0  0  0  0  0  0  0  0  0
   -9.8293   20.2970  -31.5499 H   0  0  0  0  0  0  0  0  0  0  0  0
   -9.7478   20.6133  -33.2934 H   0  0  0  0  0  0  0  0  0  0  0  0
   -9.4801   18.0890  -32.1469 H   0  0  0  0  0  0  0  0  0  0  0  0
   -8.8127   18.4963  -33.7311 H   0  0  0  0  0  0  0  0  0  0  0  0
   -7.3719   17.9021  -31.2665 H   0  0  0  0  0  0  0  0  0  0  0  0
   -6.6590   18.2917  -32.8353 H   0  0  0  0  0  0  0  0  0  0  0  0
   -7.1866   20.0651  -30.4699 H   0  0  0  0  0  0  0  0  0  0  0  0
   -5.9859   20.2740  -31.7591 H   0  0  0  0  0  0  0  0  0  0  0  0
   -7.6374   25.1907  -30.6985 H   0  0  0  0  0  0  0  0  0  0  0  0
   -5.5111   26.3793  -30.1742 H   0  0  0  0  0  0  0  0  0  0  0  0
  1  2  2  0
  2  3  1  0
  3  4  1  0
  4  5  2  0
  5  6  1  0
  6  7  1  0
  7  8  2  0
  7  9  2  0
  7 10  1  0
 10 11  1  0
 11 12  1  0
 12 13  1  0
 13 14  1  0
  6 15  2  0
 15 16  1  0
 16 17  2  0
 17 18  1  0
  2 19  1  0
 19 20  2  0
 20 21  1  0
 21 22  1  0
 22 23  2  0
 22 24  2  0
 22 25  1  0
 25 26  1  0
 26 27  1  0
 27 28  1  0
 28 29  1  0
 21 30  2  0
 30 31  1  0
 31 32  2  0
 32 33  1  0
 17  4  1  0
 32 19  1  0
 14 10  1  0
 29 25  1  0
  5 34  1  0
 11 35  1  0
 11 36  1  0
 12 37  1  0
 12 38  1  0
 13 39  1  0
 13 40  1  0
 14 41  1  0
 14 42  1  0
 15 43  1  0
 16 44  1  0
 18 45  1  0
 20 46  1  0
 26 47  1  0
 26 48  1  0
 27 49  1  0
 27 50  1  0
 28 51  1  0
 28 52  1  0
 29 53  1  0
 29 54  1  0
 30 55  1  0
 31 56  1  0
M  CHG  2   3  -1  33  -1
M  END
>  <UniqueID>  (10) 
10

>  <SMILES>  (10) 
O=C([N-]c1cc(S(=O)(=O)N2CCCC2)ccc1O)c1cc(S(=O)(=O)N2CCCC2)ccc1[O-]

>  <Energy>  (10) 
69.65461574425616

>  <Genealogy>  (10) 
O=C([N-]c1cc(S(=O)(=O)N2CCCC2)ccc1O)c1cc(S(=O)(=O)N2CCCC2)ccc1[O-] (protonated)
O=C([N-]c1cc(S(=O)(=O)N2CCCC2)ccc1O)c1cc(S(=O)(=O)N2CCCC2)ccc1[O-] (3D coordinates assigned)
O=C([N-]c1cc(S(=O)(=O)N2CCCC2)ccc1O)c1cc(S(=O)(=O)N2CCCC2)ccc1[O-] (nonaromatic ring conformer: 69.65461574425616 kcal/mol)

>  <smiles>  (10) 
O=C(Nc1cc(S(=O)(=O)N2CCCC2)ccc1O)c1cc(S(=O)(=O)N2CCCC2)ccc1O

>  <score_type>  (10) 
oracle

>  <origin>  (10) 
adgpu

>  <m_score__min__energy>  (10) 
-14.460000000000001

>  <m_primary>  (10) 
energy

$$$$
10:0
     RDKit          3D

 50 53  0  0  0  0  0  0  0  0999 V2000
   -0.0590   18.1610  -27.4630 C   0  0  0  0  0  0  0  0  0  0  0  0
   -0.8870   19.1990  -28.1370 C   0  0  0  0  0  0  0  0  0  0  0  0
   -0.6900   19.5870  -29.4200 N   0  0  0  0  0  0  0  0  0  0  0  0
   -1.5450   20.5870  -29.7590 C   0  0  0  0  0  0  0  0  0  0  0  0
   -1.5950   21.1890  -31.0150 C   0  0  0  0  0  0  0  0  0  0  0  0
   -2.5300   22.2140  -31.2370 C   0  0  0  0  0  0  0  0  0  0  0  0
   -3.3980   22.6320  -30.2050 C   0  0  0  0  0  0  0  0  0  0  0  0
   -4.5490   23.9260  -30.5160 S   0  0  0  0  0  0  0  0  0  0  0  0
   -5.4920   24.0240  -29.3480 O   0  0  0  0  0  0  0  0  0  0  0  0
   -3.8480   25.2420  -30.6900 O   0  0  0  0  0  0  0  0  0  0  0  0
   -5.4570   23.5580  -31.9460 N   0  0  0  0  0  0  0  0  0  0  0  0
   -6.7200   22.8820  -31.9700 C   0  0  0  0  0  0  0  0  0  0  0  0
   -7.9430   23.5740  -31.9070 C   0  0  0  0  0  0  0  0  0  0  0  0
   -9.1510   22.8720  -31.9520 C   0  0  0  0  0  0  0  0  0  0  0  0
   -9.1510   21.4800  -32.0600 C   0  0  0  0  0  0  0  0  0  0  0  0
   -7.9390   20.7800  -32.1190 C   0  0  0  0  0  0  0  0  0  0  0  0
   -7.9330   19.0210  -32.2630 S   0  0  0  0  0  0  0  0  0  0  0  0
   -7.6350   18.4140  -30.9210 O   0  0  0  0  0  0  0  0  0  0  0  0
   -9.2990   18.5570  -32.6900 O   0  0  0  0  0  0  0  0  0  0  0  0
   -6.7480   18.4740  -33.4250 N   0  0  0  0  0  0  0  0  0  0  0  0
   -6.8100   17.0000  -33.5660 C   0  0  0  0  0  0  0  0  0  0  0  0
   -5.5480   16.4020  -34.2280 C   0  0  0  0  0  0  0  0  0  0  0  0
   -4.7750   17.4480  -35.0340 C   0  0  0  0  0  0  0  0  0  0  0  0
   -4.3750   18.6480  -34.1560 C   0  0  0  0  0  0  0  0  0  0  0  0
   -5.4000   18.9270  -33.0380 C   0  0  0  0  0  0  0  0  0  0  0  0
   -6.7300   21.4850  -32.0700 C   0  0  0  0  0  0  0  0  0  0  0  0
   -3.3370   22.0140  -28.9410 C   0  0  0  0  0  0  0  0  0  0  0  0
   -2.4020   20.9990  -28.7510 C   0  0  0  0  0  0  0  0  0  0  0  0
   -2.1030   20.0980  -27.3690 S   0  0  0  0  0  0  0  0  0  0  0  0
   -0.1478   18.2724  -26.3723 H   0  0  0  0  0  0  0  0  0  0  0  0
   -0.4109   17.1618  -27.7594 H   0  0  0  0  0  0  0  0  0  0  0  0
    0.9934   18.2820  -27.7594 H   0  0  0  0  0  0  0  0  0  0  0  0
   -0.9150   20.8676  -31.8177 H   0  0  0  0  0  0  0  0  0  0  0  0
   -2.5863   22.6954  -32.2244 H   0  0  0  0  0  0  0  0  0  0  0  0
   -7.9489   24.6707  -31.8221 H   0  0  0  0  0  0  0  0  0  0  0  0
  -10.1046   23.4180  -31.9022 H   0  0  0  0  0  0  0  0  0  0  0  0
  -10.1041   20.9322  -32.0988 H   0  0  0  0  0  0  0  0  0  0  0  0
   -7.0040   18.9170  -34.3410 H   0  0  0  0  0  0  0  0  0  0  0  0
   -6.9243   16.5569  -32.5657 H   0  0  0  0  0  0  0  0  0  0  0  0
   -7.6646   16.7680  -34.2186 H   0  0  0  0  0  0  0  0  0  0  0  0
   -4.8904   16.0015  -33.4424 H   0  0  0  0  0  0  0  0  0  0  0  0
   -5.8695   15.6090  -34.9192 H   0  0  0  0  0  0  0  0  0  0  0  0
   -3.8652   16.9844  -35.4432 H   0  0  0  0  0  0  0  0  0  0  0  0
   -5.4246   17.8117  -35.8437 H   0  0  0  0  0  0  0  0  0  0  0  0
   -3.3983   18.4385  -33.6954 H   0  0  0  0  0  0  0  0  0  0  0  0
   -4.3339   19.5371  -34.8023 H   0  0  0  0  0  0  0  0  0  0  0  0
   -5.0905   18.3945  -32.1266 H   0  0  0  0  0  0  0  0  0  0  0  0
   -5.4350   20.0120  -32.8606 H   0  0  0  0  0  0  0  0  0  0  0  0
   -5.7779   20.9356  -32.1105 H   0  0  0  0  0  0  0  0  0  0  0  0
   -4.0086   22.3240  -28.1268 H   0  0  0  0  0  0  0  0  0  0  0  0
  1  2  1  0
  2  3  2  0
  3  4  1  0
  4  5  2  0
  5  6  1  0
  6  7  2  0
  7  8  1  0
  8  9  2  0
  8 10  2  0
  8 11  1  0
 11 12  1  0
 12 13  2  0
 13 14  1  0
 14 15  2  0
 15 16  1  0
 16 17  1  0
 17 18  2  0
 17 19  2  0
 17 20  1  0
 20 21  1  0
 21 22  1  0
 22 23  1  0
 23 24  1  0
 24 25  1  0
 16 26  2  0
  7 27  1  0
 27 28  2  0
 28 29  1  0
 29  2  1  0
 28  4  1  0
 26 12  1  0
 25 20  1  0
  1 30  1  0
  1 31  1  0
  1 32  1  0
  5 33  1  0
  6 34  1  0
 13 35  1  0
 14 36  1  0
 15 37  1  0
 20 38  1  0
 21 39  1  0
 21 40  1  0
 22 41  1  0
 22 42  1  0
 23 43  1  0
 23 44  1  0
 24 45  1  0
 24 46  1  0
 25 47  1  0
 25 48  1  0
 26 49  1  0
 27 50  1  0
M  CHG  2  11  -1  20   1
M  END
>  <UniqueID>  (11) 
11

>  <SMILES>  (11) 
Cc1nc2ccc(S(=O)(=O)[N-]c3cccc(S(=O)(=O)[NH+]4CCCCC4)c3)cc2s1

>  <Energy>  (11) 
91.62701736049614

>  <Genealogy>  (11) 
Cc1nc2ccc(S(=O)(=O)[N-]c3cccc(S(=O)(=O)[NH+]4CCCCC4)c3)cc2s1 (protonated)
Cc1nc2ccc(S(=O)(=O)[N-]c3cccc(S(=O)(=O)[NH+]4CCCCC4)c3)cc2s1 (3D coordinates assigned)
Cc1nc2ccc(S(=O)(=O)[N-]c3cccc(S(=O)(=O)[NH+]4CCCCC4)c3)cc2s1 (nonaromatic ring conformer: 91.62701736049614 kcal/mol)

>  <smiles>  (11) 
Cc1nc2ccc(S(=O)(=O)Nc3cccc(S(=O)(=O)N4CCCCC4)c3)cc2s1

>  <score_type>  (11) 
oracle

>  <origin>  (11) 
adgpu

>  <m_score__min__energy>  (11) 
-11.18

>  <m_primary>  (11) 
energy

$$$$
11:0
     RDKit          3D

 43 45  0  0  0  0  0  0  0  0999 V2000
   -5.7410   26.2930  -30.5720 O   0  0  0  0  0  0  0  0  0  0  0  0
   -4.9970   25.3400  -30.9250 C   0  0  0  0  0  0  0  0  0  0  0  0
   -3.6270   25.2910  -30.5050 N   0  0  0  0  0  0  0  0  0  0  0  0
   -3.1030   24.5790  -29.3740 C   0  0  0  0  0  0  0  0  0  0  0  0
   -3.7380   23.4340  -28.8580 C   0  0  0  0  0  0  0  0  0  0  0  0
   -3.1850   22.7510  -27.7710 C   0  0  0  0  0  0  0  0  0  0  0  0
   -1.9900   23.1940  -27.1990 C   0  0  0  0  0  0  0  0  0  0  0  0
   -1.3410   24.3150  -27.7200 C   0  0  0  0  0  0  0  0  0  0  0  0
   -1.8900   25.0040  -28.8090 C   0  0  0  0  0  0  0  0  0  0  0  0
   -1.2290   26.1130  -29.3220 O   0  0  0  0  0  0  0  0  0  0  0  0
   -5.5070   24.3630  -31.8360 N   0  0  0  0  0  0  0  0  0  0  0  0
   -6.3530   23.2630  -31.4740 C   0  0  0  0  0  0  0  0  0  0  0  0
   -6.3750   22.1330  -32.3010 C   0  0  0  0  0  0  0  0  0  0  0  0
   -7.1880   21.0350  -31.9880 C   0  0  0  0  0  0  0  0  0  0  0  0
   -7.2170   19.6160  -33.0330 S   0  0  0  0  0  0  0  0  0  0  0  0
   -6.8750   20.0520  -34.4310 O   0  0  0  0  0  0  0  0  0  0  0  0
   -8.5980   19.0240  -33.0490 O   0  0  0  0  0  0  0  0  0  0  0  0
   -6.0420   18.4310  -32.4950 N   0  0  0  0  0  0  0  0  0  0  0  0
   -6.5170   17.0510  -32.6990 C   0  0  0  0  0  0  0  0  0  0  0  0
   -6.4820   16.6330  -34.1890 C   0  0  0  0  0  0  0  0  0  0  0  0
   -5.6470   17.4520  -34.9890 O   0  0  0  0  0  0  0  0  0  0  0  0
   -4.4450   17.7360  -34.3100 C   0  0  0  0  0  0  0  0  0  0  0  0
   -4.7150   18.6610  -33.1070 C   0  0  0  0  0  0  0  0  0  0  0  0
   -8.0060   21.0810  -30.8540 C   0  0  0  0  0  0  0  0  0  0  0  0
   -8.0160   22.2170  -30.0410 C   0  0  0  0  0  0  0  0  0  0  0  0
   -7.2060   23.3180  -30.3510 C   0  0  0  0  0  0  0  0  0  0  0  0
   -7.2720   24.4700  -29.5690 O   0  0  0  0  0  0  0  0  0  0  0  0
   -4.6734   23.0750  -29.3120 H   0  0  0  0  0  0  0  0  0  0  0  0
   -3.6918   21.8630  -27.3652 H   0  0  0  0  0  0  0  0  0  0  0  0
   -1.5606   22.6599  -26.3386 H   0  0  0  0  0  0  0  0  0  0  0  0
   -0.3958   24.6581  -27.2740 H   0  0  0  0  0  0  0  0  0  0  0  0
   -5.7484   22.1069  -33.2047 H   0  0  0  0  0  0  0  0  0  0  0  0
   -5.8750   16.3671  -32.1244 H   0  0  0  0  0  0  0  0  0  0  0  0
   -7.5620   17.0007  -32.3594 H   0  0  0  0  0  0  0  0  0  0  0  0
   -6.1159   15.5976  -34.2511 H   0  0  0  0  0  0  0  0  0  0  0  0
   -7.5055   16.7392  -34.5777 H   0  0  0  0  0  0  0  0  0  0  0  0
   -3.9998   16.7960  -33.9520 H   0  0  0  0  0  0  0  0  0  0  0  0
   -3.7545   18.2411  -35.0015 H   0  0  0  0  0  0  0  0  0  0  0  0
   -3.9411   18.4830  -32.3458 H   0  0  0  0  0  0  0  0  0  0  0  0
   -4.6943   19.6976  -33.4744 H   0  0  0  0  0  0  0  0  0  0  0  0
   -8.6430   20.2204  -30.6019 H   0  0  0  0  0  0  0  0  0  0  0  0
   -8.6634   22.2476  -29.1522 H   0  0  0  0  0  0  0  0  0  0  0  0
   -6.8330   25.3360  -29.8600 H   0  0  0  0  0  0  0  0  0  0  0  0
  1  2  2  0
  2  3  1  0
  3  4  1  0
  4  5  2  0
  5  6  1  0
  6  7  2  0
  7  8  1  0
  8  9  2  0
  9 10  1  0
  2 11  1  0
 11 12  1  0
 12 13  2  0
 13 14  1  0
 14 15  1  0
 15 16  2  0
 15 17  2  0
 15 18  1  0
 18 19  1  0
 19 20  1  0
 20 21  1  0
 21 22  1  0
 22 23  1  0
 14 24  2  0
 24 25  1  0
 25 26  2  0
 26 27  1  0
  9  4  1  0
 26 12  1  0
 23 18  1  0
  5 28  1  0
  6 29  1  0
  7 30  1  0
  8 31  1  0
 13 32  1  0
 19 33  1  0
 19 34  1  0
 20 35  1  0
 20 36  1  0
 22 37  1  0
 22 38  1  0
 23 39  1  0
 23 40  1  0
 24 41  1  0
 25 42  1  0
 27 43  1  0
M  CHG  3   3  -1  10  -1  11  -1
M  END
>  <UniqueID>  (12) 
12

>  <SMILES>  (12) 
O=C([N-]c1ccccc1[O-])[N-]c1cc(S(=O)(=O)N2CCOCC2)ccc1O

>  <Energy>  (12) 
63.73614963294139

>  <Genealogy>  (12) 
O=C([N-]c1ccccc1[O-])[N-]c1cc(S(=O)(=O)N2CCOCC2)ccc1O (protonated)
O=C([N-]c1ccccc1[O-])[N-]c1cc(S(=O)(=O)N2CCOCC2)ccc1O (3D coordinates assigned)
O=C([N-]c1ccccc1[O-])[N-]c1cc(S(=O)(=O)N2CCOCC2)ccc1O (nonaromatic ring conformer: 63.73614963294139 kcal/mol)

>  <smiles>  (12) 
O=C(Nc1ccccc1O)Nc1cc(S(=O)(=O)N2CCOCC2)ccc1O

>  <score_type>  (12) 
oracle

>  <origin>  (12) 
adgpu

>  <m_score__min__energy>  (12) 
-14.029999999999999

>  <m_primary>  (12) 
energy

$$$$
12:0
     RDKit          3D

 52 55  0  0  0  0  0  0  0  0999 V2000
   -4.3310   25.2350  -31.0790 O   0  0  0  0  0  0  0  0  0  0  0  0
   -5.4680   24.6940  -30.2580 S   0  0  0  0  0  0  0  0  0  0  0  0
   -6.5340   25.7460  -30.1380 O   0  0  0  0  0  0  0  0  0  0  0  0
   -4.8840   24.2710  -28.6790 N   0  0  0  0  0  0  0  0  0  0  0  0
   -3.6930   23.4870  -28.4990 C   0  0  0  0  0  0  0  0  0  0  0  0
   -3.7620   22.1950  -27.9490 C   0  0  0  0  0  0  0  0  0  0  0  0
   -2.5920   21.4630  -27.7070 C   0  0  0  0  0  0  0  0  0  0  0  0
   -1.3440   22.0160  -28.0210 C   0  0  0  0  0  0  0  0  0  0  0  0
   -1.2690   23.2930  -28.5910 C   0  0  0  0  0  0  0  0  0  0  0  0
   -2.4380   24.0250  -28.8350 C   0  0  0  0  0  0  0  0  0  0  0  0
   -2.3400   25.2970  -29.3870 O   0  0  0  0  0  0  0  0  0  0  0  0
   -0.1050   21.2320  -27.6850 C   0  0  0  0  0  0  0  0  0  0  0  0
   -0.2750   19.7570  -28.0840 C   0  0  0  0  0  0  0  0  0  0  0  0
   -1.6440   19.1360  -27.6930 C   0  0  0  0  0  0  0  0  0  0  0  0
   -2.6360   20.1140  -27.0400 C   0  0  0  0  0  0  0  0  0  0  0  0
   -6.1630   23.2620  -31.0130 C   0  0  0  0  0  0  0  0  0  0  0  0
   -7.4920   23.2960  -31.4550 C   0  0  0  0  0  0  0  0  0  0  0  0
   -8.1130   22.1290  -31.9010 C   0  0  0  0  0  0  0  0  0  0  0  0
   -7.4120   20.9170  -31.9130 C   0  0  0  0  0  0  0  0  0  0  0  0
   -8.2560   19.4350  -32.3460 S   0  0  0  0  0  0  0  0  0  0  0  0
   -8.6340   18.7000  -31.0910 O   0  0  0  0  0  0  0  0  0  0  0  0
   -9.5060   19.7570  -33.1200 O   0  0  0  0  0  0  0  0  0  0  0  0
   -7.1890   18.4430  -33.3090 N   0  0  0  0  0  0  0  0  0  0  0  0
   -6.3340   17.6120  -32.4630 C   0  0  0  0  0  0  0  0  0  0  0  0
   -5.0790   17.3240  -33.2700 C   0  0  0  0  0  0  0  0  0  0  0  0
   -5.0210   18.4190  -34.3250 C   0  0  0  0  0  0  0  0  0  0  0  0
   -6.2740   19.2570  -34.1090 C   0  0  0  0  0  0  0  0  0  0  0  0
   -6.0710   20.8880  -31.5050 C   0  0  0  0  0  0  0  0  0  0  0  0
   -5.4480   22.0560  -31.0580 C   0  0  0  0  0  0  0  0  0  0  0  0
   -5.5420   24.3980  -27.8780 H   0  0  0  0  0  0  0  0  0  0  0  0
   -4.7411   21.7558  -27.7070 H   0  0  0  0  0  0  0  0  0  0  0  0
   -0.2894   23.7224  -28.8478 H   0  0  0  0  0  0  0  0  0  0  0  0
    0.7511   21.6576  -28.2291 H   0  0  0  0  0  0  0  0  0  0  0  0
    0.0681   21.2889  -26.6002 H   0  0  0  0  0  0  0  0  0  0  0  0
   -0.1631   19.6816  -29.1757 H   0  0  0  0  0  0  0  0  0  0  0  0
    0.4922   19.1940  -27.5322 H   0  0  0  0  0  0  0  0  0  0  0  0
   -2.1101   18.7346  -28.6049 H   0  0  0  0  0  0  0  0  0  0  0  0
   -1.4288   18.3651  -26.9384 H   0  0  0  0  0  0  0  0  0  0  0  0
   -3.6531   19.7042  -27.1267 H   0  0  0  0  0  0  0  0  0  0  0  0
   -2.3562   20.2393  -25.9836 H   0  0  0  0  0  0  0  0  0  0  0  0
   -8.0474   24.2455  -31.4504 H   0  0  0  0  0  0  0  0  0  0  0  0
   -9.1575   22.1612  -32.2446 H   0  0  0  0  0  0  0  0  0  0  0  0
   -6.0764   18.1495  -31.5384 H   0  0  0  0  0  0  0  0  0  0  0  0
   -6.8439   16.6811  -32.1741 H   0  0  0  0  0  0  0  0  0  0  0  0
   -4.1887   17.3626  -32.6251 H   0  0  0  0  0  0  0  0  0  0  0  0
   -5.1019   16.3208  -33.7205 H   0  0  0  0  0  0  0  0  0  0  0  0
   -4.1190   19.0343  -34.1916 H   0  0  0  0  0  0  0  0  0  0  0  0
   -4.9774   18.0039  -35.3428 H   0  0  0  0  0  0  0  0  0  0  0  0
   -6.0228   20.1838  -33.5725 H   0  0  0  0  0  0  0  0  0  0  0  0
   -6.7314   19.5409  -35.0683 H   0  0  0  0  0  0  0  0  0  0  0  0
   -5.5080   19.9435  -31.5369 H   0  0  0  0  0  0  0  0  0  0  0  0
   -4.3950   22.0298  -30.7408 H   0  0  0  0  0  0  0  0  0  0  0  0
  1  2  2  0
  2  3  2  0
  2  4  1  0
  4  5  1  0
  5  6  2  0
  6  7  1  0
  7  8  2  0
  8  9  1  0
  9 10  2  0
 10 11  1  0
  8 12  1  0
 12 13  1  0
 13 14  1  0
 14 15  1  0
  2 16  1  0
 16 17  2  0
 17 18  1  0
 18 19  2  0
 19 20  1  0
 20 21  2  0
 20 22  2  0
 20 23  1  0
 23 24  1  0
 24 25  1  0
 25 26  1  0
 26 27  1  0
 19 28  1  0
 28 29  2  0
 10  5  1  0
 29 16  1  0
 15  7  1  0
 27 23  1  0
  4 30  1  0
  6 31  1  0
  9 32  1  0
 12 33  1  0
 12 34  1  0
 13 35  1  0
 13 36  1  0
 14 37  1  0
 14 38  1  0
 15 39  1  0
 15 40  1  0
 17 41  1  0
 18 42  1  0
 24 43  1  0
 24 44  1  0
 25 45  1  0
 25 46  1  0
 26 47  1  0
 26 48  1  0
 27 49  1  0
 27 50  1  0
 28 51  1  0
 29 52  1  0
M  CHG  1  11  -1
M  END
>  <UniqueID>  (13) 
13

>  <SMILES>  (13) 
O=S(=O)(Nc1cc2c(cc1[O-])CCCC2)c1ccc(S(=O)(=O)N2CCCC2)cc1

>  <Energy>  (13) 
60.14734227952479

>  <Genealogy>  (13) 
O=S(=O)(Nc1cc2c(cc1[O-])CCCC2)c1ccc(S(=O)(=O)N2CCCC2)cc1 (protonated)
O=S(=O)(Nc1cc2c(cc1[O-])CCCC2)c1ccc(S(=O)(=O)N2CCCC2)cc1 (3D coordinates assigned)
O=S(=O)(Nc1cc2c(cc1[O-])CCCC2)c1ccc(S(=O)(=O)N2CCCC2)cc1 (nonaromatic ring conformer: 60.14734227952479 kcal/mol)

>  <smiles>  (13) 
O=S(=O)(Nc1cc2c(cc1O)CCCC2)c1ccc(S(=O)(=O)N2CCCC2)cc1

>  <score_type>  (13) 
oracle

>  <origin>  (13) 
adgpu

>  <m_score__min__energy>  (13) 
-15.109999999999999

>  <m_primary>  (13) 
energy

$$$$
13:0
     RDKit          3D

 67 70  0  0  0  0  0  0  0  0999 V2000
   -2.9230   19.3070  -26.7840 C   0  0  0  0  0  0  0  0  0  0  0  0
   -2.2220   20.5460  -26.8130 O   0  0  0  0  0  0  0  0  0  0  0  0
   -2.0720   21.3470  -27.9550 C   0  0  0  0  0  0  0  0  0  0  0  0
   -1.5230   20.7660  -29.1070 C   0  0  0  0  0  0  0  0  0  0  0  0
   -1.3630   21.5190  -30.2730 C   0  0  0  0  0  0  0  0  0  0  0  0
   -1.7530   22.8610  -30.3010 C   0  0  0  0  0  0  0  0  0  0  0  0
   -2.3060   23.4610  -29.1570 C   0  0  0  0  0  0  0  0  0  0  0  0
   -2.6960   24.9140  -29.1660 C   0  0  0  0  0  0  0  0  0  0  0  0
   -3.4910   25.2170  -30.3540 N   0  0  0  0  0  0  0  0  0  0  0  0
   -4.8980   24.9790  -30.4990 C   0  0  0  0  0  0  0  0  0  0  0  0
   -5.7030   25.8890  -30.1680 O   0  0  0  0  0  0  0  0  0  0  0  0
   -5.4310   23.7020  -31.0110 C   0  0  0  0  0  0  0  0  0  0  0  0
   -4.8690   22.4800  -30.6070 C   0  0  0  0  0  0  0  0  0  0  0  0
   -5.3670   21.2760  -31.1060 C   0  0  0  0  0  0  0  0  0  0  0  0
   -6.4500   21.2730  -32.0040 C   0  0  0  0  0  0  0  0  0  0  0  0
   -6.9730   20.0770  -32.5160 O   0  0  0  0  0  0  0  0  0  0  0  0
   -6.2120   19.0930  -33.1630 C   0  0  0  0  0  0  0  0  0  0  0  0
   -6.8010   17.9110  -33.6420 C   0  0  0  0  0  0  0  0  0  0  0  0
   -6.0240   16.9550  -34.2990 C   0  0  0  0  0  0  0  0  0  0  0  0
   -4.6550   17.1680  -34.4760 C   0  0  0  0  0  0  0  0  0  0  0  0
   -4.0440   18.3300  -33.9780 C   0  0  0  0  0  0  0  0  0  0  0  0
   -2.6470   18.5510  -34.2300 N   0  0  0  0  0  0  0  0  0  0  0  0
   -1.7390   19.1370  -33.2870 C   0  0  0  0  0  0  0  0  0  0  0  0
   -1.9900   19.0940  -32.0510 O   0  0  0  0  0  0  0  0  0  0  0  0
   -0.4380   19.7360  -33.7650 C   0  0  0  0  0  0  0  0  0  0  0  0
   -0.0230   19.1200  -35.1150 C   0  0  0  0  0  0  0  0  0  0  0  0
    1.2530   19.7890  -35.6400 C   0  0  0  0  0  0  0  0  0  0  0  0
    1.1360   21.2590  -35.6430 N   0  0  0  0  0  0  0  0  0  0  0  0
    2.1870   22.0640  -36.2240 C   0  0  0  0  0  0  0  0  0  0  0  0
    3.5220   21.4730  -36.5680 C   0  0  0  0  0  0  0  0  0  0  0  0
    1.9910   23.2880  -36.4560 O   0  0  0  0  0  0  0  0  0  0  0  0
   -0.1000   21.8900  -35.1520 C   0  0  0  0  0  0  0  0  0  0  0  0
   -0.5140   21.2870  -33.8020 C   0  0  0  0  0  0  0  0  0  0  0  0
   -4.8350   19.2890  -33.3160 C   0  0  0  0  0  0  0  0  0  0  0  0
   -7.0440   22.4870  -32.3640 C   0  0  0  0  0  0  0  0  0  0  0  0
   -6.5380   23.6960  -31.8730 C   0  0  0  0  0  0  0  0  0  0  0  0
   -2.4530   22.7030  -27.9830 C   0  0  0  0  0  0  0  0  0  0  0  0
   -3.0931   19.0063  -25.7397 H   0  0  0  0  0  0  0  0  0  0  0  0
   -3.8904   19.4210  -27.2950 H   0  0  0  0  0  0  0  0  0  0  0  0
   -2.3270   18.5365  -27.2950 H   0  0  0  0  0  0  0  0  0  0  0  0
   -1.2161   19.7098  -29.0927 H   0  0  0  0  0  0  0  0  0  0  0  0
   -0.9292   21.0547  -31.1709 H   0  0  0  0  0  0  0  0  0  0  0  0
   -1.6266   23.4494  -31.2217 H   0  0  0  0  0  0  0  0  0  0  0  0
   -3.2883   25.1366  -28.2662 H   0  0  0  0  0  0  0  0  0  0  0  0
   -1.7845   25.5297  -29.1781 H   0  0  0  0  0  0  0  0  0  0  0  0
   -4.0319   22.4721  -29.8935 H   0  0  0  0  0  0  0  0  0  0  0  0
   -4.9106   20.3244  -30.7958 H   0  0  0  0  0  0  0  0  0  0  0  0
   -7.8779   17.7381  -33.4990 H   0  0  0  0  0  0  0  0  0  0  0  0
   -6.4903   16.0334  -34.6775 H   0  0  0  0  0  0  0  0  0  0  0  0
   -4.0508   16.4196  -35.0097 H   0  0  0  0  0  0  0  0  0  0  0  0
   -2.2740   18.3050  -35.1770 H   0  0  0  0  0  0  0  0  0  0  0  0
    0.3544   19.4863  -33.0441 H   0  0  0  0  0  0  0  0  0  0  0  0
    0.1613   18.0439  -34.9807 H   0  0  0  0  0  0  0  0  0  0  0  0
   -0.8329   19.2777  -35.8424 H   0  0  0  0  0  0  0  0  0  0  0  0
    2.0975   19.4998  -34.9972 H   0  0  0  0  0  0  0  0  0  0  0  0
    1.4140   19.4555  -36.6758 H   0  0  0  0  0  0  0  0  0  0  0  0
    4.0658   21.2322  -35.6426 H   0  0  0  0  0  0  0  0  0  0  0  0
    3.3760   20.5554  -37.1568 H   0  0  0  0  0  0  0  0  0  0  0  0
    4.1032   22.1979  -37.1568 H   0  0  0  0  0  0  0  0  0  0  0  0
    0.0694   22.9699  -35.0291 H   0  0  0  0  0  0  0  0  0  0  0  0
   -0.9036   21.7120  -35.8817 H   0  0  0  0  0  0  0  0  0  0  0  0
    0.1525   21.6866  -33.0235 H   0  0  0  0  0  0  0  0  0  0  0  0
   -1.5655   21.5628  -33.6340 H   0  0  0  0  0  0  0  0  0  0  0  0
   -4.3662   20.2001  -32.9157 H   0  0  0  0  0  0  0  0  0  0  0  0
   -7.9140   22.4916  -33.0370 H   0  0  0  0  0  0  0  0  0  0  0  0
   -7.0103   24.6458  -32.1642 H   0  0  0  0  0  0  0  0  0  0  0  0
   -2.8687   23.1719  -27.0790 H   0  0  0  0  0  0  0  0  0  0  0  0
  1  2  1  0
  2  3  1  0
  3  4  2  0
  4  5  1  0
  5  6  2  0
  6  7  1  0
  7  8  1  0
  8  9  1  0
  9 10  1  0
 10 11  2  0
 10 12  1  0
 12 13  2  0
 13 14  1  0
 14 15  2  0
 15 16  1  0
 16 17  1  0
 17 18  2  0
 18 19  1  0
 19 20  2  0
 20 21  1  0
 21 22  1  0
 22 23  1  0
 23 24  2  0
 23 25  1  0
 25 26  1  0
 26 27  1  0
 27 28  1  0
 28 29  1  0
 29 30  1  0
 29 31  2  0
 28 32  1  0
 32 33  1  0
 21 34  2  0
 15 35  1  0
 35 36  2  0
  7 37  2  0
 37  3  1  0
 36 12  1  0
 34 17  1  0
 33 25  1  0
  1 38  1  0
  1 39  1  0
  1 40  1  0
  4 41  1  0
  5 42  1  0
  6 43  1  0
  8 44  1  0
  8 45  1  0
 13 46  1  0
 14 47  1  0
 18 48  1  0
 19 49  1  0
 20 50  1  0
 22 51  1  0
 25 52  1  0
 26 53  1  0
 26 54  1  0
 27 55  1  0
 27 56  1  0
 30 57  1  0
 30 58  1  0
 30 59  1  0
 32 60  1  0
 32 61  1  0
 33 62  1  0
 33 63  1  0
 34 64  1  0
 35 65  1  0
 36 66  1  0
 37 67  1  0
M  CHG  1   9  -1
M  END
>  <UniqueID>  (14) 
14

>  <SMILES>  (14) 
COc1cccc(C[N-]C(=O)c2ccc(Oc3cccc(NC(=O)C4CCN(C(C)=O)CC4)c3)cc2)c1

>  <Energy>  (14) 
83.22729349817952

>  <Genealogy>  (14) 
COc1cccc(C[N-]C(=O)c2ccc(Oc3cccc(NC(=O)C4CCN(C(C)=O)CC4)c3)cc2)c1 (protonated)
COc1cccc(C[N-]C(=O)c2ccc(Oc3cccc(NC(=O)C4CCN(C(C)=O)CC4)c3)cc2)c1 (3D coordinates assigned)
COc1cccc(C[N-]C(=O)c2ccc(Oc3cccc(NC(=O)C4CCN(C(C)=O)CC4)c3)cc2)c1 (nonaromatic ring conformer: 83.22729349817952 kcal/mol)

>  <smiles>  (14) 
COc1cccc(CNC(=O)c2ccc(Oc3cccc(NC(=O)C4CCN(C(C)=O)CC4)c3)cc2)c1

>  <score_type>  (14) 
oracle

>  <origin>  (14) 
adgpu

>  <m_score__min__energy>  (14) 
-11.42

>  <m_primary>  (14) 
energy

$$$$
14:0
     RDKit          3D

 67 71  0  0  0  0  0  0  0  0999 V2000
   -2.4740   21.1200  -32.5720 C   0  0  0  0  0  0  0  0  0  0  0  0
   -3.7520   20.4140  -32.8940 C   0  0  0  0  0  0  0  0  0  0  0  0
   -3.9000   19.5670  -33.9340 N   0  0  0  0  0  0  0  0  0  0  0  0
   -5.1400   19.0970  -33.8950 N   0  0  0  0  0  0  0  0  0  0  0  0
   -5.6640   18.1310  -34.8530 C   0  0  0  0  0  0  0  0  0  0  0  0
   -5.8040   19.6290  -32.8440 C   0  0  0  0  0  0  0  0  0  0  0  0
   -7.1890   19.2590  -32.4120 C   0  0  0  0  0  0  0  0  0  0  0  0
   -4.9320   20.4590  -32.1770 C   0  0  0  0  0  0  0  0  0  0  0  0
   -5.1880   21.1850  -30.9760 N   0  0  0  0  0  0  0  0  0  0  0  0
   -5.0050   22.9030  -30.9280 S   0  0  0  0  0  0  0  0  0  0  0  0
   -6.2300   23.5210  -30.3110 O   0  0  0  0  0  0  0  0  0  0  0  0
   -4.8530   23.4330  -32.3270 O   0  0  0  0  0  0  0  0  0  0  0  0
   -3.5940   23.3000  -29.9460 C   0  0  0  0  0  0  0  0  0  0  0  0
   -2.8990   22.2870  -29.2690 C   0  0  0  0  0  0  0  0  0  0  0  0
   -1.7930   22.5960  -28.4570 C   0  0  0  0  0  0  0  0  0  0  0  0
   -1.0520   21.5490  -27.7950 N   0  0  0  0  0  0  0  0  0  0  0  0
    0.3930   21.4270  -28.0390 C   0  0  0  0  0  0  0  0  0  0  0  0
    0.9450   20.0780  -27.5540 C   0  0  0  0  0  0  0  0  0  0  0  0
    0.0200   18.9800  -27.8930 N   0  0  0  0  0  0  0  0  0  0  0  0
    0.5510   17.6930  -28.2820 C   0  0  0  0  0  0  0  0  0  0  0  0
    1.4880   17.0110  -27.4920 C   0  0  0  0  0  0  0  0  0  0  0  0
    1.9580   15.7650  -27.9000 C   0  0  0  0  0  0  0  0  0  0  0  0
    1.4950   15.2080  -29.1040 C   0  0  0  0  0  0  0  0  0  0  0  0
    1.9400   13.9120  -29.5780 N   0  0  0  0  0  0  0  0  0  0  0  0
    2.4790   13.7600  -30.9430 C   0  0  0  0  0  0  0  0  0  0  0  0
    2.6560   12.2940  -31.3440 C   0  0  0  0  0  0  0  0  0  0  0  0
    3.2360   11.5570  -30.2910 O   0  0  0  0  0  0  0  0  0  0  0  0
    2.2980   11.4530  -29.2440 C   0  0  0  0  0  0  0  0  0  0  0  0
    2.0400   12.8150  -28.5940 C   0  0  0  0  0  0  0  0  0  0  0  0
    0.5850   15.9170  -29.8310 N   0  0  0  0  0  0  0  0  0  0  0  0
    0.1320   17.1080  -29.4370 N   0  0  0  0  0  0  0  0  0  0  0  0
   -1.4250   19.1420  -27.6500 C   0  0  0  0  0  0  0  0  0  0  0  0
   -1.7380   20.5040  -27.0270 C   0  0  0  0  0  0  0  0  0  0  0  0
   -1.3890   23.9360  -28.3330 C   0  0  0  0  0  0  0  0  0  0  0  0
   -2.0780   24.9470  -29.0060 C   0  0  0  0  0  0  0  0  0  0  0  0
   -3.1770   24.6350  -29.8110 C   0  0  0  0  0  0  0  0  0  0  0  0
   -3.8500   25.6580  -30.4710 O   0  0  0  0  0  0  0  0  0  0  0  0
   -2.3561   21.1851  -31.4803 H   0  0  0  0  0  0  0  0  0  0  0  0
   -1.6285   20.5610  -32.9994 H   0  0  0  0  0  0  0  0  0  0  0  0
   -2.4971   22.1333  -32.9994 H   0  0  0  0  0  0  0  0  0  0  0  0
   -6.1207   17.2890  -34.3122 H   0  0  0  0  0  0  0  0  0  0  0  0
   -6.4228   18.6158  -35.4848 H   0  0  0  0  0  0  0  0  0  0  0  0
   -4.8438   17.7593  -35.4848 H   0  0  0  0  0  0  0  0  0  0  0  0
   -7.2391   19.2456  -31.3132 H   0  0  0  0  0  0  0  0  0  0  0  0
   -7.9045   19.9975  -32.8027 H   0  0  0  0  0  0  0  0  0  0  0  0
   -7.4409   18.2621  -32.8027 H   0  0  0  0  0  0  0  0  0  0  0  0
   -3.2221   21.2408  -29.3742 H   0  0  0  0  0  0  0  0  0  0  0  0
    0.5802   21.5201  -29.1189 H   0  0  0  0  0  0  0  0  0  0  0  0
    0.9016   22.2246  -27.4776 H   0  0  0  0  0  0  0  0  0  0  0  0
    1.9167   19.8922  -28.0350 H   0  0  0  0  0  0  0  0  0  0  0  0
    1.0597   20.1170  -26.4607 H   0  0  0  0  0  0  0  0  0  0  0  0
    1.8500   17.4582  -26.5545 H   0  0  0  0  0  0  0  0  0  0  0  0
    2.6876   15.2200  -27.2831 H   0  0  0  0  0  0  0  0  0  0  0  0
    1.7860   14.2380  -31.6510 H   0  0  0  0  0  0  0  0  0  0  0  0
    3.4712   14.2343  -30.9649 H   0  0  0  0  0  0  0  0  0  0  0  0
    1.6728   11.8646  -31.5869 H   0  0  0  0  0  0  0  0  0  0  0  0
    3.3204   12.2439  -32.2193 H   0  0  0  0  0  0  0  0  0  0  0  0
    1.3519   11.0630  -29.6474 H   0  0  0  0  0  0  0  0  0  0  0  0
    2.7033   10.7736  -28.4797 H   0  0  0  0  0  0  0  0  0  0  0  0
    1.0968   12.7619  -28.0305 H   0  0  0  0  0  0  0  0  0  0  0  0
    2.8961   13.0358  -27.9395 H   0  0  0  0  0  0  0  0  0  0  0  0
   -1.9607   19.0547  -28.6068 H   0  0  0  0  0  0  0  0  0  0  0  0
   -1.7477   18.3585  -26.9486 H   0  0  0  0  0  0  0  0  0  0  0  0
   -2.8235   20.6804  -27.0519 H   0  0  0  0  0  0  0  0  0  0  0  0
   -1.3933   20.5232  -25.9826 H   0  0  0  0  0  0  0  0  0  0  0  0
   -0.5247   24.1902  -27.7019 H   0  0  0  0  0  0  0  0  0  0  0  0
   -1.7545   25.9932  -28.9022 H   0  0  0  0  0  0  0  0  0  0  0  0
  1  2  1  0
  2  3  2  0
  3  4  1  0
  4  5  1  0
  4  6  1  0
  6  7  1  0
  6  8  2  0
  8  9  1  0
  9 10  1  0
 10 11  2  0
 10 12  2  0
 10 13  1  0
 13 14  2  0
 14 15  1  0
 15 16  1  0
 16 17  1  0
 17 18  1  0
 18 19  1  0
 19 20  1  0
 20 21  2  0
 21 22  1  0
 22 23  2  0
 23 24  1  0
 24 25  1  0
 25 26  1  0
 26 27  1  0
 27 28  1  0
 28 29  1  0
 23 30  1  0
 30 31  2  0
 19 32  1  0
 32 33  1  0
 15 34  2  0
 34 35  1  0
 35 36  2  0
 36 37  1  0
  8  2  1  0
 36 13  1  0
 33 16  1  0
 31 20  1  0
 29 24  1  0
  1 38  1  0
  1 39  1  0
  1 40  1  0
  5 41  1  0
  5 42  1  0
  5 43  1  0
  7 44  1  0
  7 45  1  0
  7 46  1  0
 14 47  1  0
 17 48  1  0
 17 49  1  0
 18 50  1  0
 18 51  1  0
 21 52  1  0
 22 53  1  0
 25 54  1  0
 25 55  1  0
 26 56  1  0
 26 57  1  0
 28 58  1  0
 28 59  1  0
 29 60  1  0
 29 61  1  0
 32 62  1  0
 32 63  1  0
 33 64  1  0
 33 65  1  0
 34 66  1  0
 35 67  1  0
M  CHG  2   9  -1  37  -1
M  END
>  <UniqueID>  (15) 
15

>  <SMILES>  (15) 
Cc1nn(C)c(C)c1[N-]S(=O)(=O)c1cc(N2CCN(c3ccc(N4CCOCC4)nn3)CC2)ccc1[O-]

>  <Energy>  (15) 
121.3639623512503

>  <Genealogy>  (15) 
Cc1nn(C)c(C)c1[N-]S(=O)(=O)c1cc(N2CCN(c3ccc(N4CCOCC4)nn3)CC2)ccc1[O-] (protonated)
Cc1nn(C)c(C)c1[N-]S(=O)(=O)c1cc(N2CCN(c3ccc(N4CCOCC4)nn3)CC2)ccc1[O-] (3D coordinates assigned)
Cc1nn(C)c(C)c1[N-]S(=O)(=O)c1cc(N2CCN(c3ccc(N4CCOCC4)nn3)CC2)ccc1[O-] (nonaromatic ring conformer: 121.3639623512503 kcal/mol)

>  <smiles>  (15) 
Cc1nn(C)c(C)c1NS(=O)(=O)c1cc(N2CCN(c3ccc(N4CCOCC4)nn3)CC2)ccc1O

>  <score_type>  (15) 
oracle

>  <origin>  (15) 
adgpu

>  <m_score__min__energy>  (15) 
-10.68

>  <m_primary>  (15) 
energy

$$$$
15:0
     RDKit          3D

 52 55  0  0  0  0  0  0  0  0999 V2000
   -3.8840   25.3160  -30.8260 O   0  0  0  0  0  0  0  0  0  0  0  0
   -4.6210   24.3110  -30.6500 C   0  0  0  0  0  0  0  0  0  0  0  0
   -4.6880   23.7050  -29.2700 C   0  0  0  0  0  0  0  0  0  0  0  0
   -3.5660   22.7320  -29.0300 C   0  0  0  0  0  0  0  0  0  0  0  0
   -3.5090   21.9880  -27.8470 C   0  0  0  0  0  0  0  0  0  0  0  0
   -2.5130   21.0300  -27.6750 C   0  0  0  0  0  0  0  0  0  0  0  0
   -1.5570   20.8380  -28.6780 C   0  0  0  0  0  0  0  0  0  0  0  0
   -0.6700   19.9560  -28.5110 O   0  0  0  0  0  0  0  0  0  0  0  0
   -1.5820   21.6060  -29.8160 N   0  0  0  0  0  0  0  0  0  0  0  0
   -0.5720   21.4430  -30.8740 C   0  0  0  0  0  0  0  0  0  0  0  0
   -1.1020   20.5630  -31.9720 C   0  0  0  0  0  0  0  0  0  0  0  0
   -1.5730   21.1310  -33.1670 C   0  0  0  0  0  0  0  0  0  0  0  0
   -2.0320   20.3120  -34.2040 C   0  0  0  0  0  0  0  0  0  0  0  0
   -2.0130   18.9220  -34.0590 C   0  0  0  0  0  0  0  0  0  0  0  0
   -1.5340   18.3490  -32.8770 C   0  0  0  0  0  0  0  0  0  0  0  0
   -1.0770   19.1650  -31.8380 C   0  0  0  0  0  0  0  0  0  0  0  0
   -2.5770   22.5260  -30.0030 C   0  0  0  0  0  0  0  0  0  0  0  0
   -5.2820   23.7430  -31.7930 N   0  0  0  0  0  0  0  0  0  0  0  0
   -6.4760   22.9490  -31.8090 C   0  0  0  0  0  0  0  0  0  0  0  0
   -7.7380   23.5330  -32.0180 C   0  0  0  0  0  0  0  0  0  0  0  0
   -8.8940   22.7500  -31.9680 C   0  0  0  0  0  0  0  0  0  0  0  0
   -8.7980   21.3750  -31.7530 C   0  0  0  0  0  0  0  0  0  0  0  0
   -7.5440   20.7720  -31.6320 C   0  0  0  0  0  0  0  0  0  0  0  0
   -6.3810   21.5510  -31.6810 C   0  0  0  0  0  0  0  0  0  0  0  0
   -4.7830   20.7260  -31.6990 S   0  0  0  0  0  0  0  0  0  0  0  0
   -5.3590   19.2930  -32.6060 C   0  0  0  0  0  0  0  0  0  0  0  0
   -5.7090   18.1250  -31.9170 C   0  0  0  0  0  0  0  0  0  0  0  0
   -6.0560   16.9710  -32.6270 C   0  0  0  0  0  0  0  0  0  0  0  0
   -6.0700   16.9880  -34.0250 C   0  0  0  0  0  0  0  0  0  0  0  0
   -5.7350   18.1560  -34.7150 C   0  0  0  0  0  0  0  0  0  0  0  0
   -5.3720   19.3070  -34.0070 C   0  0  0  0  0  0  0  0  0  0  0  0
   -4.6255   24.5111  -28.5241 H   0  0  0  0  0  0  0  0  0  0  0  0
   -5.6383   23.1579  -29.1835 H   0  0  0  0  0  0  0  0  0  0  0  0
   -4.2506   22.1595  -27.0528 H   0  0  0  0  0  0  0  0  0  0  0  0
   -2.4782   20.4275  -26.7553 H   0  0  0  0  0  0  0  0  0  0  0  0
   -0.3199   22.4297  -31.2898 H   0  0  0  0  0  0  0  0  0  0  0  0
    0.3250   20.9749  -30.4425 H   0  0  0  0  0  0  0  0  0  0  0  0
   -1.5810   22.2243  -33.2880 H   0  0  0  0  0  0  0  0  0  0  0  0
   -2.4082   20.7623  -35.1344 H   0  0  0  0  0  0  0  0  0  0  0  0
   -2.3749   18.2789  -34.8748 H   0  0  0  0  0  0  0  0  0  0  0  0
   -1.5167   17.2549  -32.7645 H   0  0  0  0  0  0  0  0  0  0  0  0
   -0.6962   18.7104  -30.9116 H   0  0  0  0  0  0  0  0  0  0  0  0
   -2.6019   23.1142  -30.9322 H   0  0  0  0  0  0  0  0  0  0  0  0
   -7.8154   24.6112  -32.2218 H   0  0  0  0  0  0  0  0  0  0  0  0
   -9.8808   23.2182  -32.0983 H   0  0  0  0  0  0  0  0  0  0  0  0
   -9.7105   20.7653  -31.6787 H   0  0  0  0  0  0  0  0  0  0  0  0
   -7.4696   19.6827  -31.4979 H   0  0  0  0  0  0  0  0  0  0  0  0
   -5.7110   18.1152  -30.8170 H   0  0  0  0  0  0  0  0  0  0  0  0
   -6.3179   16.0500  -32.0855 H   0  0  0  0  0  0  0  0  0  0  0  0
   -6.3451   16.0806  -34.5825 H   0  0  0  0  0  0  0  0  0  0  0  0
   -5.7567   18.1706  -35.8147 H   0  0  0  0  0  0  0  0  0  0  0  0
   -5.0968   20.2230  -34.5504 H   0  0  0  0  0  0  0  0  0  0  0  0
  1  2  2  0
  2  3  1  0
  3  4  1  0
  4  5  1  0
  5  6  2  0
  6  7  1  0
  7  8  2  0
  7  9  1  0
  9 10  1  0
 10 11  1  0
 11 12  2  0
 12 13  1  0
 13 14  2  0
 14 15  1  0
 15 16  2  0
  9 17  1  0
  2 18  1  0
 18 19  1  0
 19 20  2  0
 20 21  1  0
 21 22  2  0
 22 23  1  0
 23 24  2  0
 24 25  1  0
 25 26  1  0
 26 27  2  0
 27 28  1  0
 28 29  2  0
 29 30  1  0
 30 31  2  0
 17  4  2  0
 24 19  1  0
 31 26  1  0
 16 11  1  0
  3 32  1  0
  3 33  1  0
  5 34  1  0
  6 35  1  0
 10 36  1  0
 10 37  1  0
 12 38  1  0
 13 39  1  0
 14 40  1  0
 15 41  1  0
 16 42  1  0
 17 43  1  0
 20 44  1  0
 21 45  1  0
 22 46  1  0
 23 47  1  0
 27 48  1  0
 28 49  1  0
 29 50  1  0
 30 51  1  0
 31 52  1  0
M  CHG  1  18  -1
M  END
>  <UniqueID>  (16) 
16

>  <SMILES>  (16) 
O=C(Cc1ccc(=O)n(Cc2ccccc2)c1)[N-]c1ccccc1Sc1ccccc1

>  <Energy>  (16) 
52.2125636628632

>  <Genealogy>  (16) 
O=C(Cc1ccc(=O)n(Cc2ccccc2)c1)[N-]c1ccccc1Sc1ccccc1 (protonated)
O=C(Cc1ccc(=O)n(Cc2ccccc2)c1)[N-]c1ccccc1Sc1ccccc1 (3D coordinates assigned)
O=C(Cc1ccc(=O)n(Cc2ccccc2)c1)[N-]c1ccccc1Sc1ccccc1 (optimized conformer: 52.2125636628632 kcal/mol)

>  <smiles>  (16) 
O=C(Cc1ccc(=O)n(Cc2ccccc2)c1)Nc1ccccc1Sc1ccccc1

>  <score_type>  (16) 
oracle

>  <origin>  (16) 
adgpu

>  <m_score__min__energy>  (16) 
-11.869999999999999

>  <m_primary>  (16) 
energy

$$$$
16:0
     RDKit          3D

 60 63  0  0  0  0  0  0  0  0999 V2000
   -0.4100   27.1380  -23.4410 C   0  0  0  0  0  0  0  0  0  0  0  0
   -0.6930   26.8020  -24.8740 C   0  0  0  0  0  0  0  0  0  0  0  0
   -1.4850   25.6920  -25.2040 C   0  0  0  0  0  0  0  0  0  0  0  0
   -1.7590   25.3930  -26.5450 C   0  0  0  0  0  0  0  0  0  0  0  0
   -1.2460   26.1940  -27.5720 C   0  0  0  0  0  0  0  0  0  0  0  0
   -1.6000   25.8830  -28.9300 N   0  0  0  0  0  0  0  0  0  0  0  0
   -2.5800   24.9240  -29.3590 C   0  0  0  0  0  0  0  0  0  0  0  0
   -2.5580   23.7450  -28.9200 O   0  0  0  0  0  0  0  0  0  0  0  0
   -3.5930   25.2990  -30.2960 N   0  0  0  0  0  0  0  0  0  0  0  0
   -4.6680   24.4320  -30.6740 C   0  0  0  0  0  0  0  0  0  0  0  0
   -5.9820   24.8720  -30.5150 C   0  0  0  0  0  0  0  0  0  0  0  0
   -7.0450   24.0430  -30.8600 C   0  0  0  0  0  0  0  0  0  0  0  0
   -6.8120   22.7760  -31.4040 C   0  0  0  0  0  0  0  0  0  0  0  0
   -8.2290   21.8010  -31.7800 Cl  0  0  0  0  0  0  0  0  0  0  0  0
   -5.4850   22.3310  -31.6260 C   0  0  0  0  0  0  0  0  0  0  0  0
   -5.1510   20.7700  -32.4240 S   0  0  0  0  0  0  0  0  0  0  0  0
   -5.7060   20.7760  -33.8210 O   0  0  0  0  0  0  0  0  0  0  0  0
   -5.8330   19.6560  -31.6780 O   0  0  0  0  0  0  0  0  0  0  0  0
   -3.3850   20.4140  -32.4850 C   0  0  0  0  0  0  0  0  0  0  0  0
   -2.6880   21.1960  -33.6210 C   0  0  0  0  0  0  0  0  0  0  0  0
   -1.5310   20.4100  -34.2710 C   0  0  0  0  0  0  0  0  0  0  0  0
   -0.7720   19.5940  -33.2970 N   0  0  0  0  0  0  0  0  0  0  0  0
    0.0570   20.4050  -32.3780 C   0  0  0  0  0  0  0  0  0  0  0  0
   -0.2650   20.0940  -30.9380 C   0  0  0  0  0  0  0  0  0  0  0  0
    0.3410   19.0050  -30.2890 C   0  0  0  0  0  0  0  0  0  0  0  0
    0.0180   18.7070  -28.9600 C   0  0  0  0  0  0  0  0  0  0  0  0
   -0.9150   19.4890  -28.2760 C   0  0  0  0  0  0  0  0  0  0  0  0
   -1.5230   20.5710  -28.9170 C   0  0  0  0  0  0  0  0  0  0  0  0
   -1.1990   20.8760  -30.2420 C   0  0  0  0  0  0  0  0  0  0  0  0
   -1.6170   18.6000  -32.5790 C   0  0  0  0  0  0  0  0  0  0  0  0
   -3.1280   18.9080  -32.6130 C   0  0  0  0  0  0  0  0  0  0  0  0
   -4.4130   23.1680  -31.2390 C   0  0  0  0  0  0  0  0  0  0  0  0
   -3.0930   22.7670  -31.4270 O   0  0  0  0  0  0  0  0  0  0  0  0
   -0.4820   27.3290  -27.2390 C   0  0  0  0  0  0  0  0  0  0  0  0
   -0.2080   27.6290  -25.8980 C   0  0  0  0  0  0  0  0  0  0  0  0
   -0.9795   26.4618  -22.7865 H   0  0  0  0  0  0  0  0  0  0  0  0
    0.6656   27.0208  -23.2424 H   0  0  0  0  0  0  0  0  0  0  0  0
   -0.7083   28.1780  -23.2424 H   0  0  0  0  0  0  0  0  0  0  0  0
   -1.8926   25.0536  -24.4063 H   0  0  0  0  0  0  0  0  0  0  0  0
   -2.3826   24.5214  -26.7930 H   0  0  0  0  0  0  0  0  0  0  0  0
   -6.1786   25.8778  -30.1155 H   0  0  0  0  0  0  0  0  0  0  0  0
   -8.0779   24.3874  -30.7034 H   0  0  0  0  0  0  0  0  0  0  0  0
   -2.9475   20.7518  -31.5340 H   0  0  0  0  0  0  0  0  0  0  0  0
   -3.4335   21.4276  -34.3960 H   0  0  0  0  0  0  0  0  0  0  0  0
   -2.2594   22.1074  -33.1786 H   0  0  0  0  0  0  0  0  0  0  0  0
   -1.9480   19.7422  -35.0392 H   0  0  0  0  0  0  0  0  0  0  0  0
   -0.8339   21.1437  -34.7020 H   0  0  0  0  0  0  0  0  0  0  0  0
    1.1188   20.1858  -32.5640 H   0  0  0  0  0  0  0  0  0  0  0  0
   -0.1565   21.4683  -32.5617 H   0  0  0  0  0  0  0  0  0  0  0  0
    1.0722   18.3842  -30.8275 H   0  0  0  0  0  0  0  0  0  0  0  0
    0.4992   17.8568  -28.4544 H   0  0  0  0  0  0  0  0  0  0  0  0
   -1.1711   19.2530  -27.2326 H   0  0  0  0  0  0  0  0  0  0  0  0
   -2.2591   21.1849  -28.3773 H   0  0  0  0  0  0  0  0  0  0  0  0
   -1.6777   21.7317  -30.7406 H   0  0  0  0  0  0  0  0  0  0  0  0
   -1.4560   17.6143  -33.0399 H   0  0  0  0  0  0  0  0  0  0  0  0
   -1.3128   18.6331  -31.5224 H   0  0  0  0  0  0  0  0  0  0  0  0
   -3.5464   18.5514  -33.5658 H   0  0  0  0  0  0  0  0  0  0  0  0
   -3.6088   18.3973  -31.7657 H   0  0  0  0  0  0  0  0  0  0  0  0
   -0.0984   27.9834  -28.0356 H   0  0  0  0  0  0  0  0  0  0  0  0
    0.3903   28.5173  -25.6470 H   0  0  0  0  0  0  0  0  0  0  0  0
  1  2  1  0
  2  3  2  0
  3  4  1  0
  4  5  2  0
  5  6  1  0
  6  7  1  0
  7  8  2  0
  7  9  1  0
  9 10  1  0
 10 11  2  0
 11 12  1  0
 12 13  2  0
 13 14  1  0
 13 15  1  0
 15 16  1  0
 16 17  2  0
 16 18  2  0
 16 19  1  0
 19 20  1  0
 20 21  1  0
 21 22  1  0
 22 23  1  0
 23 24  1  0
 24 25  2  0
 25 26  1  0
 26 27  2  0
 27 28  1  0
 28 29  2  0
 22 30  1  0
 30 31  1  0
 15 32  2  0
 32 33  1  0
  5 34  1  0
 34 35  2  0
 35  2  1  0
 32 10  1  0
 31 19  1  0
 29 24  1  0
  1 36  1  0
  1 37  1  0
  1 38  1  0
  3 39  1  0
  4 40  1  0
 11 41  1  0
 12 42  1  0
 19 43  1  0
 20 44  1  0
 20 45  1  0
 21 46  1  0
 21 47  1  0
 23 48  1  0
 23 49  1  0
 25 50  1  0
 26 51  1  0
 27 52  1  0
 28 53  1  0
 29 54  1  0
 30 55  1  0
 30 56  1  0
 31 57  1  0
 31 58  1  0
 34 59  1  0
 35 60  1  0
M  CHG  3   6  -1   9  -1  33  -1
M  END
>  <UniqueID>  (17) 
17

>  <SMILES>  (17) 
Cc1ccc([N-]C(=O)[N-]c2ccc(Cl)c(S(=O)(=O)C3CCN(Cc4ccccc4)CC3)c2[O-])cc1

>  <Energy>  (17) 
83.60847235662919

>  <Genealogy>  (17) 
Cc1ccc([N-]C(=O)[N-]c2ccc(Cl)c(S(=O)(=O)C3CCN(Cc4ccccc4)CC3)c2[O-])cc1 (protonated)
Cc1ccc([N-]C(=O)[N-]c2ccc(Cl)c(S(=O)(=O)C3CCN(Cc4ccccc4)CC3)c2[O-])cc1 (3D coordinates assigned)
Cc1ccc([N-]C(=O)[N-]c2ccc(Cl)c(S(=O)(=O)C3CCN(Cc4ccccc4)CC3)c2[O-])cc1 (nonaromatic ring conformer: 83.60847235662919 kcal/mol)

>  <smiles>  (17) 
Cc1ccc(NC(=O)Nc2ccc(Cl)c(S(=O)(=O)C3CCN(Cc4ccccc4)CC3)c2O)cc1

>  <score_type>  (17) 
oracle

>  <origin>  (17) 
adgpu

>  <m_score__min__energy>  (17) 
-15.93

>  <m_primary>  (17) 
energy

$$$$
17:0
     RDKit          3D

 56 60  0  0  0  0  0  0  0  0999 V2000
    0.1980   17.2190  -31.6550 C   0  0  0  0  0  0  0  0  0  0  0  0
    0.1820   17.6320  -30.2090 C   0  0  0  0  0  0  0  0  0  0  0  0
    0.6890   16.7590  -29.2270 C   0  0  0  0  0  0  0  0  0  0  0  0
    0.6140   17.1110  -27.8700 C   0  0  0  0  0  0  0  0  0  0  0  0
    0.0290   18.3230  -27.4860 C   0  0  0  0  0  0  0  0  0  0  0  0
   -0.4440   19.1640  -28.4880 C   0  0  0  0  0  0  0  0  0  0  0  0
   -1.0520   20.3500  -28.2790 N   0  0  0  0  0  0  0  0  0  0  0  0
   -1.3280   20.8020  -29.5250 C   0  0  0  0  0  0  0  0  0  0  0  0
   -2.0230   22.0860  -29.7780 C   0  0  0  0  0  0  0  0  0  0  0  0
   -3.2750   22.0780  -30.4170 C   0  0  0  0  0  0  0  0  0  0  0  0
   -3.9550   23.2740  -30.6620 C   0  0  0  0  0  0  0  0  0  0  0  0
   -3.3990   24.4920  -30.2630 C   0  0  0  0  0  0  0  0  0  0  0  0
   -4.0790   25.6780  -30.5120 O   0  0  0  0  0  0  0  0  0  0  0  0
   -2.1620   24.5120  -29.6100 C   0  0  0  0  0  0  0  0  0  0  0  0
   -1.6100   25.7200  -29.1960 O   0  0  0  0  0  0  0  0  0  0  0  0
   -1.4780   23.3170  -29.3640 C   0  0  0  0  0  0  0  0  0  0  0  0
   -0.8780   19.8710  -30.4550 C   0  0  0  0  0  0  0  0  0  0  0  0
   -0.9640   19.9890  -31.8790 N   0  0  0  0  0  0  0  0  0  0  0  0
   -1.9700   19.3130  -32.6550 C   0  0  0  0  0  0  0  0  0  0  0  0
   -1.6010   18.6480  -33.8320 C   0  0  0  0  0  0  0  0  0  0  0  0
   -2.5590   17.9700  -34.5910 C   0  0  0  0  0  0  0  0  0  0  0  0
   -3.8920   17.9400  -34.1750 C   0  0  0  0  0  0  0  0  0  0  0  0
   -4.2770   18.5970  -32.9990 C   0  0  0  0  0  0  0  0  0  0  0  0
   -5.9520   18.5200  -32.4450 S   0  0  0  0  0  0  0  0  0  0  0  0
   -5.9690   18.6560  -30.9480 O   0  0  0  0  0  0  0  0  0  0  0  0
   -6.5220   17.1700  -32.7860 O   0  0  0  0  0  0  0  0  0  0  0  0
   -6.9610   19.7680  -33.1450 N   0  0  0  0  0  0  0  0  0  0  0  0
   -8.3850   19.6320  -32.7680 C   0  0  0  0  0  0  0  0  0  0  0  0
   -8.8160   20.6450  -31.6970 C   0  0  0  0  0  0  0  0  0  0  0  0
   -7.7370   20.9350  -30.8390 O   0  0  0  0  0  0  0  0  0  0  0  0
   -6.7660   21.6950  -31.5330 C   0  0  0  0  0  0  0  0  0  0  0  0
   -6.4190   21.1220  -32.9270 C   0  0  0  0  0  0  0  0  0  0  0  0
   -3.3180   19.2820  -32.2430 C   0  0  0  0  0  0  0  0  0  0  0  0
   -0.3350   18.8300  -29.7910 N   0  0  0  0  0  0  0  0  0  0  0  0
    0.2405   16.1219  -31.7225 H   0  0  0  0  0  0  0  0  0  0  0  0
   -0.7149   17.5817  -32.1501 H   0  0  0  0  0  0  0  0  0  0  0  0
    1.0801   17.6513  -32.1501 H   0  0  0  0  0  0  0  0  0  0  0  0
    1.1434   15.8020  -29.5230 H   0  0  0  0  0  0  0  0  0  0  0  0
    1.0169   16.4310  -27.1050 H   0  0  0  0  0  0  0  0  0  0  0  0
   -0.0542   18.6018  -26.4252 H   0  0  0  0  0  0  0  0  0  0  0  0
   -3.7232   21.1224  -30.7268 H   0  0  0  0  0  0  0  0  0  0  0  0
   -4.9304   23.2564  -31.1702 H   0  0  0  0  0  0  0  0  0  0  0  0
   -0.5088   23.3387  -28.8442 H   0  0  0  0  0  0  0  0  0  0  0  0
   -0.2080   20.5160  -32.3700 H   0  0  0  0  0  0  0  0  0  0  0  0
   -0.5513   18.6597  -34.1605 H   0  0  0  0  0  0  0  0  0  0  0  0
   -2.2623   17.4586  -35.5186 H   0  0  0  0  0  0  0  0  0  0  0  0
   -4.6412   17.3993  -34.7720 H   0  0  0  0  0  0  0  0  0  0  0  0
   -9.0024   19.7851  -33.6654 H   0  0  0  0  0  0  0  0  0  0  0  0
   -8.5214   18.6254  -32.3460 H   0  0  0  0  0  0  0  0  0  0  0  0
   -9.1499   21.5716  -32.1868 H   0  0  0  0  0  0  0  0  0  0  0  0
   -9.6384   20.2148  -31.1065 H   0  0  0  0  0  0  0  0  0  0  0  0
   -7.1505   22.7175  -31.6621 H   0  0  0  0  0  0  0  0  0  0  0  0
   -5.8444   21.6701  -30.9330 H   0  0  0  0  0  0  0  0  0  0  0  0
   -6.8325   21.7928  -33.6945 H   0  0  0  0  0  0  0  0  0  0  0  0
   -5.3231   21.0517  -32.9902 H   0  0  0  0  0  0  0  0  0  0  0  0
   -3.6187   19.8000  -31.3204 H   0  0  0  0  0  0  0  0  0  0  0  0
  1  2  1  0
  2  3  2  0
  3  4  1  0
  4  5  2  0
  5  6  1  0
  6  7  2  0
  7  8  1  0
  8  9  1  0
  9 10  2  0
 10 11  1  0
 11 12  2  0
 12 13  1  0
 12 14  1  0
 14 15  1  0
 14 16  2  0
  8 17  2  0
 17 18  1  0
 18 19  1  0
 19 20  2  0
 20 21  1  0
 21 22  2  0
 22 23  1  0
 23 24  1  0
 24 25  2  0
 24 26  2  0
 24 27  1  0
 27 28  1  0
 28 29  1  0
 29 30  1  0
 30 31  1  0
 31 32  1  0
 23 33  2  0
 17 34  1  0
 34  2  1  0
 34  6  1  0
 16  9  1  0
 33 19  1  0
 32 27  1  0
  1 35  1  0
  1 36  1  0
  1 37  1  0
  3 38  1  0
  4 39  1  0
  5 40  1  0
 10 41  1  0
 11 42  1  0
 16 43  1  0
 18 44  1  0
 20 45  1  0
 21 46  1  0
 22 47  1  0
 28 48  1  0
 28 49  1  0
 29 50  1  0
 29 51  1  0
 31 52  1  0
 31 53  1  0
 32 54  1  0
 32 55  1  0
 33 56  1  0
M  CHG  2  13  -1  15  -1
M  END
>  <UniqueID>  (18) 
18

>  <SMILES>  (18) 
Cc1cccc2nc(-c3ccc([O-])c([O-])c3)c(Nc3cccc(S(=O)(=O)N4CCOCC4)c3)n12

>  <Energy>  (18) 
117.40800786768509

>  <Genealogy>  (18) 
Cc1cccc2nc(-c3ccc([O-])c([O-])c3)c(Nc3cccc(S(=O)(=O)N4CCOCC4)c3)n12 (protonated)
Cc1cccc2nc(-c3ccc([O-])c([O-])c3)c(Nc3cccc(S(=O)(=O)N4CCOCC4)c3)n12 (3D coordinates assigned)
Cc1cccc2nc(-c3ccc([O-])c([O-])c3)c(Nc3cccc(S(=O)(=O)N4CCOCC4)c3)n12 (nonaromatic ring conformer: 117.40800786768509 kcal/mol)

>  <smiles>  (18) 
Cc1cccc2nc(-c3ccc(O)c(O)c3)c(Nc3cccc(S(=O)(=O)N4CCOCC4)c3)n12

>  <score_type>  (18) 
oracle

>  <origin>  (18) 
adgpu

>  <m_score__min__energy>  (18) 
-14.69

>  <m_primary>  (18) 
energy

$$$$
18:0
     RDKit          3D

 55 58  0  0  0  0  0  0  0  0999 V2000
   -6.0940   22.9160  -31.6770 O   0  0  0  0  0  0  0  0  0  0  0  0
   -5.7690   21.7040  -31.5500 C   0  0  0  0  0  0  0  0  0  0  0  0
   -4.4850   21.3650  -31.0010 N   0  0  0  0  0  0  0  0  0  0  0  0
   -3.6520   22.2880  -30.2780 C   0  0  0  0  0  0  0  0  0  0  0  0
   -4.2460   23.2130  -29.4060 C   0  0  0  0  0  0  0  0  0  0  0  0
   -3.4610   24.1340  -28.7060 C   0  0  0  0  0  0  0  0  0  0  0  0
   -2.0700   24.1480  -28.8740 C   0  0  0  0  0  0  0  0  0  0  0  0
   -1.0770   25.3160  -27.9940 S   0  0  0  0  0  0  0  0  0  0  0  0
   -1.2440   26.6710  -28.6220 O   0  0  0  0  0  0  0  0  0  0  0  0
    0.3690   24.9230  -28.1190 O   0  0  0  0  0  0  0  0  0  0  0  0
   -1.4940   25.4190  -26.3000 N   0  0  0  0  0  0  0  0  0  0  0  0
   -0.5850   24.6410  -25.4610 C   0  0  0  0  0  0  0  0  0  0  0  0
   -0.6150   25.2820  -24.0820 C   0  0  0  0  0  0  0  0  0  0  0  0
   -1.1770   26.6810  -24.2990 C   0  0  0  0  0  0  0  0  0  0  0  0
   -1.4160   26.7890  -25.7970 C   0  0  0  0  0  0  0  0  0  0  0  0
   -1.4750   23.2480  -29.7700 C   0  0  0  0  0  0  0  0  0  0  0  0
   -2.2590   22.3260  -30.4700 C   0  0  0  0  0  0  0  0  0  0  0  0
   -6.6960   20.6260  -31.9760 C   0  0  0  0  0  0  0  0  0  0  0  0
   -6.1580   19.4310  -32.3420 N   0  0  0  0  0  0  0  0  0  0  0  0
   -6.9300   18.3860  -32.7360 C   0  0  0  0  0  0  0  0  0  0  0  0
   -6.1850   16.8660  -33.1810 S   0  0  0  0  0  0  0  0  0  0  0  0
   -5.5580   16.2430  -31.9650 O   0  0  0  0  0  0  0  0  0  0  0  0
   -7.2350   15.9360  -33.7200 O   0  0  0  0  0  0  0  0  0  0  0  0
   -4.9390   17.1650  -34.4240 C   0  0  0  0  0  0  0  0  0  0  0  0
   -3.7890   17.9350  -33.8380 C   0  0  0  0  0  0  0  0  0  0  0  0
   -2.7020   17.2560  -33.2630 C   0  0  0  0  0  0  0  0  0  0  0  0
   -1.6170   17.9740  -32.7480 C   0  0  0  0  0  0  0  0  0  0  0  0
   -1.6070   19.3700  -32.8100 C   0  0  0  0  0  0  0  0  0  0  0  0
   -2.6800   20.0510  -33.3920 C   0  0  0  0  0  0  0  0  0  0  0  0
   -3.7660   19.3380  -33.9090 C   0  0  0  0  0  0  0  0  0  0  0  0
   -8.2800   18.5160  -32.7660 N   0  0  0  0  0  0  0  0  0  0  0  0
   -8.8750   19.6830  -32.4150 C   0  0  0  0  0  0  0  0  0  0  0  0
   -8.1020   20.7750  -32.0100 C   0  0  0  0  0  0  0  0  0  0  0  0
   -8.9380   22.2720  -31.6080 Cl  0  0  0  0  0  0  0  0  0  0  0  0
   -4.0890   20.4220  -31.2190 H   0  0  0  0  0  0  0  0  0  0  0  0
   -5.3378   23.2135  -29.2721 H   0  0  0  0  0  0  0  0  0  0  0  0
   -3.9372   24.8505  -28.0206 H   0  0  0  0  0  0  0  0  0  0  0  0
   -0.9232   23.5960  -25.4017 H   0  0  0  0  0  0  0  0  0  0  0  0
    0.4338   24.6369  -25.8757 H   0  0  0  0  0  0  0  0  0  0  0  0
   -1.2636   24.7074  -23.4044 H   0  0  0  0  0  0  0  0  0  0  0  0
    0.3835   25.3089  -23.6214 H   0  0  0  0  0  0  0  0  0  0  0  0
   -2.1207   26.8069  -23.7481 H   0  0  0  0  0  0  0  0  0  0  0  0
   -0.4904   27.4599  -23.9358 H   0  0  0  0  0  0  0  0  0  0  0  0
   -2.3579   27.3216  -25.9950 H   0  0  0  0  0  0  0  0  0  0  0  0
   -0.6096   27.3508  -26.2909 H   0  0  0  0  0  0  0  0  0  0  0  0
   -0.3858   23.2676  -29.9228 H   0  0  0  0  0  0  0  0  0  0  0  0
   -1.7843   21.6270  -31.1743 H   0  0  0  0  0  0  0  0  0  0  0  0
   -4.5720   16.2019  -34.8084 H   0  0  0  0  0  0  0  0  0  0  0  0
   -5.3833   17.7532  -35.2405 H   0  0  0  0  0  0  0  0  0  0  0  0
   -2.7037   16.1569  -33.2175 H   0  0  0  0  0  0  0  0  0  0  0  0
   -0.7704   17.4386  -32.2935 H   0  0  0  0  0  0  0  0  0  0  0  0
   -0.7550   19.9328  -32.4009 H   0  0  0  0  0  0  0  0  0  0  0  0
   -2.6700   21.1498  -33.4434 H   0  0  0  0  0  0  0  0  0  0  0  0
   -4.6051   19.8773  -34.3728 H   0  0  0  0  0  0  0  0  0  0  0  0
   -9.9710   19.7707  -32.4492 H   0  0  0  0  0  0  0  0  0  0  0  0
  1  2  2  0
  2  3  1  0
  3  4  1  0
  4  5  2  0
  5  6  1  0
  6  7  2  0
  7  8  1  0
  8  9  2  0
  8 10  2  0
  8 11  1  0
 11 12  1  0
 12 13  1  0
 13 14  1  0
 14 15  1  0
  7 16  1  0
 16 17  2  0
  2 18  1  0
 18 19  2  0
 19 20  1  0
 20 21  1  0
 21 22  2  0
 21 23  2  0
 21 24  1  0
 24 25  1  0
 25 26  2  0
 26 27  1  0
 27 28  2  0
 28 29  1  0
 29 30  2  0
 20 31  2  0
 31 32  1  0
 32 33  2  0
 33 34  1  0
 17  4  1  0
 33 18  1  0
 15 11  1  0
 30 25  1  0
  3 35  1  0
  5 36  1  0
  6 37  1  0
 12 38  1  0
 12 39  1  0
 13 40  1  0
 13 41  1  0
 14 42  1  0
 14 43  1  0
 15 44  1  0
 15 45  1  0
 16 46  1  0
 17 47  1  0
 24 48  1  0
 24 49  1  0
 26 50  1  0
 27 51  1  0
 28 52  1  0
 29 53  1  0
 30 54  1  0
 32 55  1  0
M  END
>  <UniqueID>  (19) 
19

>  <SMILES>  (19) 
O=C(Nc1ccc(S(=O)(=O)N2CCCC2)cc1)c1nc(S(=O)(=O)Cc2ccccc2)ncc1Cl

>  <Energy>  (19) 
63.848676732580536

>  <Genealogy>  (19) 
O=C(Nc1ccc(S(=O)(=O)N2CCCC2)cc1)c1nc(S(=O)(=O)Cc2ccccc2)ncc1Cl (3D coordinates assigned)
O=C(Nc1ccc(S(=O)(=O)N2CCCC2)cc1)c1nc(S(=O)(=O)Cc2ccccc2)ncc1Cl (nonaromatic ring conformer: 63.848676732580536 kcal/mol)

>  <smiles>  (19) 
O=C(Nc1ccc(S(=O)(=O)N2CCCC2)cc1)c1nc(S(=O)(=O)Cc2ccccc2)ncc1Cl

>  <score_type>  (19) 
oracle

>  <origin>  (19) 
adgpu

>  <m_score__min__energy>  (19) 
-10.65

>  <m_primary>  (19) 
energy

$$$$
19:0
     RDKit          3D

 43 46  0  0  0  0  0  0  0  0999 V2000
   -0.6990   26.3470  -27.9750 O   0  0  0  0  0  0  0  0  0  0  0  0
   -1.1100   25.3700  -28.6520 C   0  0  0  0  0  0  0  0  0  0  0  0
   -2.3830   25.2930  -29.1170 N   0  0  0  0  0  0  0  0  0  0  0  0
   -2.3740   24.1160  -29.7630 C   0  0  0  0  0  0  0  0  0  0  0  0
   -3.4250   23.5110  -30.4460 C   0  0  0  0  0  0  0  0  0  0  0  0
   -3.1780   22.2650  -31.0550 C   0  0  0  0  0  0  0  0  0  0  0  0
   -1.9010   21.6580  -30.9730 C   0  0  0  0  0  0  0  0  0  0  0  0
   -1.7070   20.3870  -31.6080 N   0  0  0  0  0  0  0  0  0  0  0  0
   -2.5220   19.8550  -33.0420 S   0  0  0  0  0  0  0  0  0  0  0  0
   -2.2070   20.7970  -34.1690 O   0  0  0  0  0  0  0  0  0  0  0  0
   -2.0330   18.4810  -33.4090 O   0  0  0  0  0  0  0  0  0  0  0  0
   -4.2620   19.8530  -32.7710 C   0  0  0  0  0  0  0  0  0  0  0  0
   -4.7620   19.6930  -31.4720 C   0  0  0  0  0  0  0  0  0  0  0  0
   -6.1410   19.6760  -31.2460 C   0  0  0  0  0  0  0  0  0  0  0  0
   -7.0330   19.8120  -32.3170 C   0  0  0  0  0  0  0  0  0  0  0  0
   -8.7690   19.8000  -32.0150 S   0  0  0  0  0  0  0  0  0  0  0  0
   -9.4950   19.2230  -33.1990 O   0  0  0  0  0  0  0  0  0  0  0  0
   -9.0360   18.9310  -30.8180 O   0  0  0  0  0  0  0  0  0  0  0  0
   -9.3200   21.4320  -31.7000 N   0  0  0  0  0  0  0  0  0  0  0  0
   -9.3400   21.7000  -30.2580 C   0  0  0  0  0  0  0  0  0  0  0  0
   -8.0020   22.3160  -29.8750 C   0  0  0  0  0  0  0  0  0  0  0  0
   -7.3890   22.7950  -31.1780 C   0  0  0  0  0  0  0  0  0  0  0  0
   -8.3810   22.4080  -32.2660 C   0  0  0  0  0  0  0  0  0  0  0  0
   -6.5330   19.9730  -33.6190 C   0  0  0  0  0  0  0  0  0  0  0  0
   -5.1540   19.9960  -33.8440 C   0  0  0  0  0  0  0  0  0  0  0  0
   -0.8600   22.3100  -30.2680 C   0  0  0  0  0  0  0  0  0  0  0  0
   -1.1450   23.5390  -29.6760 C   0  0  0  0  0  0  0  0  0  0  0  0
   -0.3120   24.3180  -28.9700 N   0  0  0  0  0  0  0  0  0  0  0  0
   -4.4138   23.9890  -30.5081 H   0  0  0  0  0  0  0  0  0  0  0  0
   -3.9868   21.7573  -31.6009 H   0  0  0  0  0  0  0  0  0  0  0  0
   -4.0667   19.5804  -30.6271 H   0  0  0  0  0  0  0  0  0  0  0  0
   -6.5272   19.5554  -30.2231 H   0  0  0  0  0  0  0  0  0  0  0  0
  -10.1548   22.3995  -30.0197 H   0  0  0  0  0  0  0  0  0  0  0  0
   -9.5053   20.7675  -29.6985 H   0  0  0  0  0  0  0  0  0  0  0  0
   -8.1507   23.1609  -29.1865 H   0  0  0  0  0  0  0  0  0  0  0  0
   -7.3524   21.5933  -29.3595 H   0  0  0  0  0  0  0  0  0  0  0  0
   -7.2482   23.8858  -31.1576 H   0  0  0  0  0  0  0  0  0  0  0  0
   -6.4002   22.3454  -31.3512 H   0  0  0  0  0  0  0  0  0  0  0  0
   -8.9290   23.2994  -32.6053 H   0  0  0  0  0  0  0  0  0  0  0  0
   -7.8522   21.9734  -33.1271 H   0  0  0  0  0  0  0  0  0  0  0  0
   -7.2286   20.0813  -34.4642 H   0  0  0  0  0  0  0  0  0  0  0  0
   -4.7670   20.1266  -34.8654 H   0  0  0  0  0  0  0  0  0  0  0  0
    0.1411   21.8609  -30.1902 H   0  0  0  0  0  0  0  0  0  0  0  0
  1  2  2  0
  2  3  1  0
  3  4  1  0
  4  5  2  0
  5  6  1  0
  6  7  2  0
  7  8  1  0
  8  9  1  0
  9 10  2  0
  9 11  2  0
  9 12  1  0
 12 13  2  0
 13 14  1  0
 14 15  2  0
 15 16  1  0
 16 17  2  0
 16 18  2  0
 16 19  1  0
 19 20  1  0
 20 21  1  0
 21 22  1  0
 22 23  1  0
 15 24  1  0
 24 25  2  0
  7 26  1  0
 26 27  2  0
 27 28  1  0
 28  2  1  0
 27  4  1  0
 25 12  1  0
 23 19  1  0
  5 29  1  0
  6 30  1  0
 13 31  1  0
 14 32  1  0
 20 33  1  0
 20 34  1  0
 21 35  1  0
 21 36  1  0
 22 37  1  0
 22 38  1  0
 23 39  1  0
 23 40  1  0
 24 41  1  0
 25 42  1  0
 26 43  1  0
M  CHG  3   3  -1   8  -1  28  -1
M  END
>  <UniqueID>  (20) 
20

>  <SMILES>  (20) 
O=c1[n-]c2ccc([N-]S(=O)(=O)c3ccc(S(=O)(=O)N4CCCC4)cc3)cc2[n-]1

>  <Energy>  (20) 
85.58842993600582

>  <Genealogy>  (20) 
O=c1[n-]c2ccc([N-]S(=O)(=O)c3ccc(S(=O)(=O)N4CCCC4)cc3)cc2[n-]1 (protonated)
O=c1[n-]c2ccc([N-]S(=O)(=O)c3ccc(S(=O)(=O)N4CCCC4)cc3)cc2[n-]1 (3D coordinates assigned)
O=c1[n-]c2ccc([N-]S(=O)(=O)c3ccc(S(=O)(=O)N4CCCC4)cc3)cc2[n-]1 (nonaromatic ring conformer: 85.58842993600582 kcal/mol)

>  <smiles>  (20) 
O=c1[nH]c2ccc(NS(=O)(=O)c3ccc(S(=O)(=O)N4CCCC4)cc3)cc2[nH]1

>  <score_type>  (20) 
oracle

>  <origin>  (20) 
adgpu

>  <m_score__min__energy>  (20) 
-11.73

>  <m_primary>  (20) 
energy

$$$$
20:0
     RDKit          3D

 70 73  0  0  0  0  0  0  0  0999 V2000
   -8.9650   20.8760  -32.3200 C   0  0  0  0  0  0  0  0  0  0  0  0
   -7.9200   21.7300  -31.7360 N   0  0  0  0  0  0  0  0  0  0  0  0
   -8.1400   21.8900  -30.2830 C   0  0  0  0  0  0  0  0  0  0  0  0
   -7.2260   22.9790  -29.6860 C   0  0  0  0  0  0  0  0  0  0  0  0
   -6.1580   23.3220  -30.6370 N   0  0  0  0  0  0  0  0  0  0  0  0
   -5.0280   24.4380  -29.9090 S   0  0  0  0  0  0  0  0  0  0  0  0
   -4.5170   25.3830  -30.9600 O   0  0  0  0  0  0  0  0  0  0  0  0
   -5.7360   25.2500  -28.8590 O   0  0  0  0  0  0  0  0  0  0  0  0
   -3.6610   23.5980  -29.1730 C   0  0  0  0  0  0  0  0  0  0  0  0
   -3.8580   22.7590  -28.0670 C   0  0  0  0  0  0  0  0  0  0  0  0
   -2.7750   22.0920  -27.4890 C   0  0  0  0  0  0  0  0  0  0  0  0
   -1.4830   22.2490  -28.0140 C   0  0  0  0  0  0  0  0  0  0  0  0
   -0.3110   21.5460  -27.3730 C   0  0  0  0  0  0  0  0  0  0  0  0
   -0.6840   20.2270  -26.8380 N   0  0  0  0  0  0  0  0  0  0  0  0
   -1.1380   19.3140  -27.8970 C   0  0  0  0  0  0  0  0  0  0  0  0
   -0.6510   19.7700  -29.2410 C   0  0  0  0  0  0  0  0  0  0  0  0
    0.5690   20.0330  -29.4230 O   0  0  0  0  0  0  0  0  0  0  0  0
   -1.5740   19.8470  -30.3340 N   0  0  0  0  0  0  0  0  0  0  0  0
   -1.1620   20.2500  -31.6420 C   0  0  0  0  0  0  0  0  0  0  0  0
    0.1970   20.1670  -31.9730 C   0  0  0  0  0  0  0  0  0  0  0  0
    0.6460   20.5720  -33.2300 C   0  0  0  0  0  0  0  0  0  0  0  0
   -0.2600   21.0750  -34.1640 C   0  0  0  0  0  0  0  0  0  0  0  0
   -1.6150   21.1750  -33.8430 C   0  0  0  0  0  0  0  0  0  0  0  0
   -2.0850   20.7650  -32.5830 C   0  0  0  0  0  0  0  0  0  0  0  0
   -3.8120   20.9670  -32.2080 S   0  0  0  0  0  0  0  0  0  0  0  0
   -3.9510   21.2430  -30.7370 O   0  0  0  0  0  0  0  0  0  0  0  0
   -4.3580   22.1610  -32.9400 O   0  0  0  0  0  0  0  0  0  0  0  0
   -4.7580   19.5400  -32.5730 N   0  0  0  0  0  0  0  0  0  0  0  0
   -5.3970   19.6450  -33.8930 C   0  0  0  0  0  0  0  0  0  0  0  0
   -6.1320   18.3270  -34.2210 C   0  0  0  0  0  0  0  0  0  0  0  0
   -6.2740   17.4840  -33.0890 O   0  0  0  0  0  0  0  0  0  0  0  0
   -6.7840   18.2230  -31.9980 C   0  0  0  0  0  0  0  0  0  0  0  0
   -5.7570   19.2700  -31.5250 C   0  0  0  0  0  0  0  0  0  0  0  0
   -1.2870   23.0950  -29.1180 C   0  0  0  0  0  0  0  0  0  0  0  0
   -2.3710   23.7660  -29.6920 C   0  0  0  0  0  0  0  0  0  0  0  0
   -6.7280   23.9000  -31.8680 C   0  0  0  0  0  0  0  0  0  0  0  0
   -7.8950   23.0430  -32.4040 C   0  0  0  0  0  0  0  0  0  0  0  0
   -9.5445   20.4024  -31.5138 H   0  0  0  0  0  0  0  0  0  0  0  0
   -9.6344   21.4888  -32.9415 H   0  0  0  0  0  0  0  0  0  0  0  0
   -8.4978   20.0979  -32.9415 H   0  0  0  0  0  0  0  0  0  0  0  0
   -9.1894   22.1706  -30.1098 H   0  0  0  0  0  0  0  0  0  0  0  0
   -7.9021   20.9347  -29.7922 H   0  0  0  0  0  0  0  0  0  0  0  0
   -7.8234   23.8772  -29.4709 H   0  0  0  0  0  0  0  0  0  0  0  0
   -6.7728   22.5989  -28.7586 H   0  0  0  0  0  0  0  0  0  0  0  0
   -4.8684   22.6255  -27.6531 H   0  0  0  0  0  0  0  0  0  0  0  0
   -2.9359   21.4402  -26.6176 H   0  0  0  0  0  0  0  0  0  0  0  0
    0.4788   21.4129  -28.1270 H   0  0  0  0  0  0  0  0  0  0  0  0
    0.0394   22.1658  -26.5345 H   0  0  0  0  0  0  0  0  0  0  0  0
    0.1450   19.8040  -26.3570 H   0  0  0  0  0  0  0  0  0  0  0  0
   -0.7474   18.3057  -27.6953 H   0  0  0  0  0  0  0  0  0  0  0  0
   -2.2379   19.3048  -27.9059 H   0  0  0  0  0  0  0  0  0  0  0  0
   -2.5990   19.7850  -30.1390 H   0  0  0  0  0  0  0  0  0  0  0  0
    0.9155   19.7794  -31.2357 H   0  0  0  0  0  0  0  0  0  0  0  0
    1.7134   20.4949  -33.4846 H   0  0  0  0  0  0  0  0  0  0  0  0
    0.0940   21.3935  -35.1556 H   0  0  0  0  0  0  0  0  0  0  0  0
   -2.3217   21.5785  -34.5831 H   0  0  0  0  0  0  0  0  0  0  0  0
   -6.1195   20.4744  -33.8847 H   0  0  0  0  0  0  0  0  0  0  0  0
   -4.6278   19.8332  -34.6565 H   0  0  0  0  0  0  0  0  0  0  0  0
   -7.1330   18.5689  -34.6076 H   0  0  0  0  0  0  0  0  0  0  0  0
   -5.5288   17.7860  -34.9650 H   0  0  0  0  0  0  0  0  0  0  0  0
   -7.7064   18.7358  -32.3083 H   0  0  0  0  0  0  0  0  0  0  0  0
   -6.9937   17.5318  -31.1684 H   0  0  0  0  0  0  0  0  0  0  0  0
   -6.2828   20.2046  -31.2799 H   0  0  0  0  0  0  0  0  0  0  0  0
   -5.2377   18.8763  -30.6388 H   0  0  0  0  0  0  0  0  0  0  0  0
   -0.2771   23.2301  -29.5325 H   0  0  0  0  0  0  0  0  0  0  0  0
   -2.2100   24.4288  -30.5550 H   0  0  0  0  0  0  0  0  0  0  0  0
   -7.0981   24.9126  -31.6500 H   0  0  0  0  0  0  0  0  0  0  0  0
   -5.9394   23.9296  -32.6343 H   0  0  0  0  0  0  0  0  0  0  0  0
   -8.8446   23.5644  -32.2131 H   0  0  0  0  0  0  0  0  0  0  0  0
   -7.7571   22.8899  -33.4845 H   0  0  0  0  0  0  0  0  0  0  0  0
  1  2  1  0
  2  3  1  0
  3  4  1  0
  4  5  1  0
  5  6  1  0
  6  7  2  0
  6  8  2  0
  6  9  1  0
  9 10  2  0
 10 11  1  0
 11 12  2  0
 12 13  1  0
 13 14  1  0
 14 15  1  0
 15 16  1  0
 16 17  2  0
 16 18  1  0
 18 19  1  0
 19 20  2  0
 20 21  1  0
 21 22  2  0
 22 23  1  0
 23 24  2  0
 24 25  1  0
 25 26  2  0
 25 27  2  0
 25 28  1  0
 28 29  1  0
 29 30  1  0
 30 31  1  0
 31 32  1  0
 32 33  1  0
 12 34  1  0
 34 35  2  0
  5 36  1  0
 36 37  1  0
 37  2  1  0
 35  9  1  0
 24 19  1  0
 33 28  1  0
  1 38  1  0
  1 39  1  0
  1 40  1  0
  3 41  1  0
  3 42  1  0
  4 43  1  0
  4 44  1  0
 10 45  1  0
 11 46  1  0
 13 47  1  0
 13 48  1  0
 14 49  1  0
 15 50  1  0
 15 51  1  0
 18 52  1  0
 20 53  1  0
 21 54  1  0
 22 55  1  0
 23 56  1  0
 29 57  1  0
 29 58  1  0
 30 59  1  0
 30 60  1  0
 32 61  1  0
 32 62  1  0
 33 63  1  0
 33 64  1  0
 34 65  1  0
 35 66  1  0
 36 67  1  0
 36 68  1  0
 37 69  1  0
 37 70  1  0
M  END
>  <UniqueID>  (21) 
21

>  <SMILES>  (21) 
CN1CCN(S(=O)(=O)c2ccc(CNCC(=O)Nc3ccccc3S(=O)(=O)N3CCOCC3)cc2)CC1

>  <Energy>  (21) 
92.64374587211238

>  <Genealogy>  (21) 
CN1CCN(S(=O)(=O)c2ccc(CNCC(=O)Nc3ccccc3S(=O)(=O)N3CCOCC3)cc2)CC1 (3D coordinates assigned)
CN1CCN(S(=O)(=O)c2ccc(CNCC(=O)Nc3ccccc3S(=O)(=O)N3CCOCC3)cc2)CC1 (nonaromatic ring conformer: 92.64374587211238 kcal/mol)

>  <smiles>  (21) 
CN1CCN(S(=O)(=O)c2ccc(CNCC(=O)Nc3ccccc3S(=O)(=O)N3CCOCC3)cc2)CC1

>  <score_type>  (21) 
oracle

>  <origin>  (21) 
adgpu

>  <m_score__min__energy>  (21) 
-11.949999999999999

>  <m_primary>  (21) 
energy

$$$$
21:0
     RDKit          3D

 57 60  0  0  0  0  0  0  0  0999 V2000
   -8.1722   20.7560  -30.9021 H   0  0  0  0  0  0  0  0  0  0  0  0
   -7.4080   20.2020  -31.4670 C   0  0  0  0  0  0  0  0  0  0  0  0
   -7.5990   18.9220  -31.8910 N   0  0  0  0  0  0  0  0  0  0  0  0
   -6.5300   18.4560  -32.5700 C   0  0  0  0  0  0  0  0  0  0  0  0
   -6.4680   17.2360  -33.0140 N   0  0  0  0  0  0  0  0  0  0  0  0
   -5.3590   16.7070  -33.7520 C   0  0  0  0  0  0  0  0  0  0  0  0
   -4.9980   17.2710  -34.9800 C   0  0  0  0  0  0  0  0  0  0  0  0
   -5.5621   18.1291  -35.3742 H   0  0  0  0  0  0  0  0  0  0  0  0
   -3.9270   16.7520  -35.7080 C   0  0  0  0  0  0  0  0  0  0  0  0
   -3.6542   17.2010  -36.6744 H   0  0  0  0  0  0  0  0  0  0  0  0
   -3.1960   15.6610  -35.2150 C   0  0  0  0  0  0  0  0  0  0  0  0
   -2.0890   15.1290  -35.9650 N   0  0  0  0  0  0  0  0  0  0  0  0
   -0.8080   14.8490  -35.3050 C   0  0  0  0  0  0  0  0  0  0  0  0
   -0.7800   13.7926  -34.9997 H   0  0  0  0  0  0  0  0  0  0  0  0
   -0.7099   15.4982  -34.4224 H   0  0  0  0  0  0  0  0  0  0  0  0
    0.3640   15.1320  -36.2710 C   0  0  2  0  0  0  0  0  0  0  0  0
    1.2302   14.6095  -35.8389 H   0  0  0  0  0  0  0  0  0  0  0  0
    0.6190   16.6390  -36.3730 C   0  0  0  0  0  0  0  0  0  0  0  0
    0.6916   17.0678  -35.3626 H   0  0  0  0  0  0  0  0  0  0  0  0
    1.5598   16.8158  -36.9148 H   0  0  0  0  0  0  0  0  0  0  0  0
   -0.2113   17.1155  -36.9148 H   0  0  0  0  0  0  0  0  0  0  0  0
    0.1600   14.5960  -37.6420 N   0  0  0  0  0  0  0  0  0  0  0  0
    0.9610   13.9560  -37.8740 H   0  0  0  0  0  0  0  0  0  0  0  0
   -1.0990   13.8530  -37.8380 C   0  0  2  0  0  0  0  0  0  0  0  0
   -1.0647   12.9234  -37.2508 H   0  0  0  0  0  0  0  0  0  0  0  0
   -1.2650   13.5010  -39.3200 C   0  0  0  0  0  0  0  0  0  0  0  0
   -1.7326   12.5095  -39.4112 H   0  0  0  0  0  0  0  0  0  0  0  0
   -1.9031   14.2535  -39.8064 H   0  0  0  0  0  0  0  0  0  0  0  0
   -0.2785   13.4873  -39.8064 H   0  0  0  0  0  0  0  0  0  0  0  0
   -2.2940   14.6950  -37.3510 C   0  0  0  0  0  0  0  0  0  0  0  0
   -3.2104   14.0892  -37.4083 H   0  0  0  0  0  0  0  0  0  0  0  0
   -2.3853   15.5847  -37.9914 H   0  0  0  0  0  0  0  0  0  0  0  0
   -3.5620   15.0910  -33.9840 C   0  0  0  0  0  0  0  0  0  0  0  0
   -2.9957   14.2339  -33.5908 H   0  0  0  0  0  0  0  0  0  0  0  0
   -4.6480   15.6070  -33.2480 C   0  0  0  0  0  0  0  0  0  0  0  0
   -5.0320   15.0720  -32.0100 O   0  0  0  0  0  0  0  0  0  0  0  0
   -4.6080   13.8060  -31.5110 C   0  0  0  0  0  0  0  0  0  0  0  0
   -4.6142   13.8246  -30.4112 H   0  0  0  0  0  0  0  0  0  0  0  0
   -5.2929   13.0229  -31.8684 H   0  0  0  0  0  0  0  0  0  0  0  0
   -3.5896   13.5934  -31.8684 H   0  0  0  0  0  0  0  0  0  0  0  0
   -5.2990   19.6050  -32.6700 S   0  0  0  0  0  0  0  0  0  0  0  0
   -6.1680   20.7630  -31.8020 C   0  0  0  0  0  0  0  0  0  0  0  0
   -5.6630   22.1060  -31.4160 C   0  0  0  0  0  0  0  0  0  0  0  0
   -6.2770   23.2670  -31.9220 C   0  0  0  0  0  0  0  0  0  0  0  0
   -7.1550   23.1768  -32.5786 H   0  0  0  0  0  0  0  0  0  0  0  0
   -5.7830   24.5310  -31.5990 C   0  0  0  0  0  0  0  0  0  0  0  0
   -6.2764   25.4297  -31.9976 H   0  0  0  0  0  0  0  0  0  0  0  0
   -4.6650   24.6610  -30.7720 C   0  0  0  0  0  0  0  0  0  0  0  0
   -4.2010   25.9380  -30.4680 O   0  0  0  0  0  0  0  0  0  0  0  0
   -4.0310   23.5120  -30.2480 C   0  0  0  0  0  0  0  0  0  0  0  0
   -2.8230   23.6260  -29.3890 C   0  0  0  0  0  0  0  0  0  0  0  0
   -2.4380   22.6350  -28.7080 O   0  0  0  0  0  0  0  0  0  0  0  0
   -2.0850   24.8510  -29.3080 N   0  0  0  0  0  0  0  0  0  0  0  0
   -2.2780   25.6500  -29.9550 H   0  0  0  0  0  0  0  0  0  0  0  0
   -1.2910   24.9390  -28.6320 H   0  0  0  0  0  0  0  0  0  0  0  0
   -4.5420   22.2410  -30.5770 C   0  0  0  0  0  0  0  0  0  0  0  0
   -4.0571   21.3407  -30.1717 H   0  0  0  0  0  0  0  0  0  0  0  0
  1  2  1  0
  2  3  1  0
  3  4  1  0
  4  5  2  0
  5  6  1  0
  6  7  2  0
  7  8  1  0
  7  9  1  0
  9 10  1  0
  9 11  2  0
 11 12  1  0
 12 13  1  0
 13 14  1  0
 13 15  1  0
 13 16  1  0
 16 17  1  1
 16 18  1  0
 18 19  1  0
 18 20  1  0
 18 21  1  0
 16 22  1  0
 22 23  1  0
 22 24  1  0
 24 25  1  1
 24 26  1  0
 26 27  1  0
 26 28  1  0
 26 29  1  0
 24 30  1  0
 30 31  1  0
 30 32  1  0
 11 33  1  0
 33 34  1  0
 33 35  2  0
 35 36  1  0
 36 37  1  0
 37 38  1  0
 37 39  1  0
 37 40  1  0
  4 41  1  0
 41 42  1  0
 42 43  1  0
 43 44  2  0
 44 45  1  0
 44 46  1  0
 46 47  1  0
 46 48  2  0
 48 49  1  0
 48 50  1  0
 50 51  1  0
 51 52  2  0
 51 53  1  0
 53 54  1  0
 53 55  1  0
 50 56  2  0
 56 57  1  0
 42  2  2  0
 56 43  1  0
 35  6  1  0
 30 12  1  0
M  CHG  2   3  -1  49  -1
M  END
>  <UniqueID>  (22) 
22

>  <SMILES>  (22) 
COc1cc(N2C[C@@H](C)N[C@@H](C)C2)ccc1/N=c1/[n-]cc(-c2ccc([O-])c(C(N)=O)c2)s1

>  <Energy>  (22) 
107.76635063842997

>  <Genealogy>  (22) 
COc1cc(N2CC(C)NC(C)C2)ccc1N=c1[n-]cc(-c2ccc([O-])c(C(N)=O)c2)s1 (protonated)
COc1cc(N2C[C@@H](C)N[C@@H](C)C2)ccc1N=c1[n-]cc(-c2ccc([O-])c(C(N)=O)c2)s1 (chirality)
COc1cc(N2C[C@@H](C)N[C@@H](C)C2)ccc1/N=c1/[n-]cc(-c2ccc([O-])c(C(N)=O)c2)s1 (cis-trans isomerization)
COc1cc(N2C[C@@H](C)N[C@@H](C)C2)ccc1/N=c1/[n-]cc(-c2ccc([O-])c(C(N)=O)c2)s1 (3D coordinates assigned)
COc1cc(N2C[C@@H](C)N[C@@H](C)C2)ccc1/N=c1/[n-]cc(-c2ccc([O-])c(C(N)=O)c2)s1 (nonaromatic ring conformer: 107.76635063842997 kcal/mol)

>  <smiles>  (22) 
COc1cc(N2CC(C)NC(C)C2)ccc1N=c1[nH]cc(-c2ccc(O)c(C(N)=O)c2)s1

>  <score_type>  (22) 
oracle

>  <origin>  (22) 
adgpu

>  <m_score__min__energy>  (22) 
-9.9800000000000004

>  <m_primary>  (22) 
energy

$$$$
22:0
     RDKit          3D

 49 50  0  0  0  0  0  0  0  0999 V2000
   -5.9540   20.0730  -33.0070 C   0  0  0  0  0  0  0  0  0  0  0  0
   -6.5860   19.8080  -31.6420 C   0  0  0  0  0  0  0  0  0  0  0  0
   -7.8530   20.5430  -31.4920 N   0  0  0  0  0  0  0  0  0  0  0  0
   -9.0770   20.0050  -32.0980 C   0  0  0  0  0  0  0  0  0  0  0  0
   -9.1230   18.4860  -31.9680 C   0  0  0  0  0  0  0  0  0  0  0  0
   -7.9390   21.7020  -30.6370 C   0  0  0  0  0  0  0  0  0  0  0  0
   -8.9440   21.8500  -29.8910 O   0  0  0  0  0  0  0  0  0  0  0  0
   -6.8710   22.7250  -30.6130 C   0  0  0  0  0  0  0  0  0  0  0  0
   -6.7860   23.6920  -31.6250 C   0  0  0  0  0  0  0  0  0  0  0  0
   -5.7840   24.6620  -31.5900 C   0  0  0  0  0  0  0  0  0  0  0  0
   -4.8610   24.6920  -30.5350 C   0  0  0  0  0  0  0  0  0  0  0  0
   -3.8590   25.6620  -30.5250 O   0  0  0  0  0  0  0  0  0  0  0  0
   -4.9590   23.7460  -29.4960 C   0  0  0  0  0  0  0  0  0  0  0  0
   -3.8460   23.7400  -28.1200 S   0  0  0  0  0  0  0  0  0  0  0  0
   -3.5340   22.3410  -27.6720 O   0  0  0  0  0  0  0  0  0  0  0  0
   -4.5100   24.4610  -26.9810 O   0  0  0  0  0  0  0  0  0  0  0  0
   -2.3610   24.5590  -28.5020 N   0  0  0  0  0  0  0  0  0  0  0  0
   -1.0670   23.4230  -28.7530 S   0  0  0  0  0  0  0  0  0  0  0  0
   -0.9170   22.5820  -27.5170 O   0  0  0  0  0  0  0  0  0  0  0  0
    0.2200   24.1700  -28.9710 O   0  0  0  0  0  0  0  0  0  0  0  0
   -1.3860   22.3520  -30.1170 C   0  0  0  0  0  0  0  0  0  0  0  0
   -2.4880   22.5970  -30.9480 C   0  0  0  0  0  0  0  0  0  0  0  0
   -2.7390   21.7670  -32.0450 C   0  0  0  0  0  0  0  0  0  0  0  0
   -1.9010   20.6750  -32.3120 C   0  0  0  0  0  0  0  0  0  0  0  0
   -2.1420   19.8130  -33.5150 C   0  0  0  0  0  0  0  0  0  0  0  0
   -0.7930   20.4370  -31.4850 C   0  0  0  0  0  0  0  0  0  0  0  0
   -0.5430   21.2660  -30.3870 C   0  0  0  0  0  0  0  0  0  0  0  0
   -5.9600   22.7650  -29.5470 C   0  0  0  0  0  0  0  0  0  0  0  0
   -4.9475   20.4950  -32.8694 H   0  0  0  0  0  0  0  0  0  0  0  0
   -5.8823   19.1291  -33.5674 H   0  0  0  0  0  0  0  0  0  0  0  0
   -6.5769   20.7857  -33.5674 H   0  0  0  0  0  0  0  0  0  0  0  0
   -6.7817   18.7304  -31.5400 H   0  0  0  0  0  0  0  0  0  0  0  0
   -5.8895   20.1503  -30.8625 H   0  0  0  0  0  0  0  0  0  0  0  0
   -9.9513   20.4372  -31.5893 H   0  0  0  0  0  0  0  0  0  0  0  0
   -9.0868   20.2680  -33.1660 H   0  0  0  0  0  0  0  0  0  0  0  0
   -9.1314   18.2092  -30.9034 H   0  0  0  0  0  0  0  0  0  0  0  0
  -10.0331   18.1038  -32.4534 H   0  0  0  0  0  0  0  0  0  0  0  0
   -8.2377   18.0495  -32.4534 H   0  0  0  0  0  0  0  0  0  0  0  0
   -7.5130   23.6857  -32.4505 H   0  0  0  0  0  0  0  0  0  0  0  0
   -5.7176   25.4083  -32.3954 H   0  0  0  0  0  0  0  0  0  0  0  0
   -3.1250   25.6610  -29.8260 H   0  0  0  0  0  0  0  0  0  0  0  0
   -3.1569   23.4443  -30.7366 H   0  0  0  0  0  0  0  0  0  0  0  0
   -3.5976   21.9717  -32.7014 H   0  0  0  0  0  0  0  0  0  0  0  0
   -2.4250   18.8009  -33.1901 H   0  0  0  0  0  0  0  0  0  0  0  0
   -2.9539   20.2447  -34.1187 H   0  0  0  0  0  0  0  0  0  0  0  0
   -1.2239   19.7610  -34.1187 H   0  0  0  0  0  0  0  0  0  0  0  0
   -0.1186   19.5953  -31.7011 H   0  0  0  0  0  0  0  0  0  0  0  0
    0.3184   21.0648  -29.7331 H   0  0  0  0  0  0  0  0  0  0  0  0
   -6.0316   22.0186  -28.7421 H   0  0  0  0  0  0  0  0  0  0  0  0
  1  2  1  0
  2  3  1  0
  3  4  1  0
  4  5  1  0
  3  6  1  0
  6  7  2  0
  6  8  1  0
  8  9  2  0
  9 10  1  0
 10 11  2  0
 11 12  1  0
 11 13  1  0
 13 14  1  0
 14 15  2  0
 14 16  2  0
 14 17  1  0
 17 18  1  0
 18 19  2  0
 18 20  2  0
 18 21  1  0
 21 22  2  0
 22 23  1  0
 23 24  2  0
 24 25  1  0
 24 26  1  0
 26 27  2  0
 13 28  2  0
 28  8  1  0
 27 21  1  0
  1 29  1  0
  1 30  1  0
  1 31  1  0
  2 32  1  0
  2 33  1  0
  4 34  1  0
  4 35  1  0
  5 36  1  0
  5 37  1  0
  5 38  1  0
  9 39  1  0
 10 40  1  0
 12 41  1  0
 22 42  1  0
 23 43  1  0
 25 44  1  0
 25 45  1  0
 25 46  1  0
 26 47  1  0
 27 48  1  0
 28 49  1  0
M  CHG  1  17  -1
M  END
>  <UniqueID>  (23) 
23

>  <SMILES>  (23) 
CCN(CC)C(=O)c1ccc(O)c(S(=O)(=O)[N-]S(=O)(=O)c2ccc(C)cc2)c1

>  <Energy>  (23) 
45.012234376274435

>  <Genealogy>  (23) 
CCN(CC)C(=O)c1ccc(O)c(S(=O)(=O)[N-]S(=O)(=O)c2ccc(C)cc2)c1 (protonated)
CCN(CC)C(=O)c1ccc(O)c(S(=O)(=O)[N-]S(=O)(=O)c2ccc(C)cc2)c1 (3D coordinates assigned)
CCN(CC)C(=O)c1ccc(O)c(S(=O)(=O)[N-]S(=O)(=O)c2ccc(C)cc2)c1 (optimized conformer: 45.012234376274435 kcal/mol)

>  <smiles>  (23) 
CCN(CC)C(=O)c1ccc(O)c(S(=O)(=O)NS(=O)(=O)c2ccc(C)cc2)c1

>  <score_type>  (23) 
oracle

>  <origin>  (23) 
adgpu

>  <m_score__min__energy>  (23) 
-11.380000000000001

>  <m_primary>  (23) 
energy

$$$$
23:0
     RDKit          3D

 53 56  0  0  0  0  0  0  0  0999 V2000
   -5.7360   18.0180  -34.7810 C   0  0  0  0  0  0  0  0  0  0  0  0
   -5.0590   19.2050  -34.3760 O   0  0  0  0  0  0  0  0  0  0  0  0
   -3.8400   19.2290  -33.6760 C   0  0  0  0  0  0  0  0  0  0  0  0
   -3.1790   18.0140  -33.4450 C   0  0  0  0  0  0  0  0  0  0  0  0
   -1.9670   17.9840  -32.7480 C   0  0  0  0  0  0  0  0  0  0  0  0
   -1.4060   19.1760  -32.2640 C   0  0  0  0  0  0  0  0  0  0  0  0
    0.0990   19.1440  -31.3430 S   0  0  0  0  0  0  0  0  0  0  0  0
    0.1260   17.9550  -30.4180 O   0  0  0  0  0  0  0  0  0  0  0  0
    1.2540   19.0200  -32.2970 O   0  0  0  0  0  0  0  0  0  0  0  0
    0.2970   20.5920  -30.4010 N   0  0  0  0  0  0  0  0  0  0  0  0
   -0.7790   21.2020  -29.6770 C   0  0  0  0  0  0  0  0  0  0  0  0
   -1.1540   22.5290  -29.9380 C   0  0  0  0  0  0  0  0  0  0  0  0
   -2.2040   23.1360  -29.2270 C   0  0  0  0  0  0  0  0  0  0  0  0
   -2.5530   24.5520  -29.5030 C   0  0  0  0  0  0  0  0  0  0  0  0
   -1.9180   25.4680  -28.9200 O   0  0  0  0  0  0  0  0  0  0  0  0
   -3.5780   24.9220  -30.4350 N   0  0  0  0  0  0  0  0  0  0  0  0
   -4.7630   24.1710  -30.7570 C   0  0  0  0  0  0  0  0  0  0  0  0
   -6.0240   24.7330  -30.4370 C   0  0  0  0  0  0  0  0  0  0  0  0
   -7.2170   24.0310  -30.7000 C   0  0  0  0  0  0  0  0  0  0  0  0
   -7.1070   22.7690  -31.2790 C   0  0  0  0  0  0  0  0  0  0  0  0
   -8.0430   21.8380  -31.6800 C   0  0  0  0  0  0  0  0  0  0  0  0
   -9.5310   21.9320  -31.5280 C   0  0  0  0  0  0  0  0  0  0  0  0
   -7.3670   20.7670  -32.1700 N   0  0  0  0  0  0  0  0  0  0  0  0
   -7.9570   19.5570  -32.7360 C   0  0  0  0  0  0  0  0  0  0  0  0
   -6.0570   20.9870  -32.1220 N   0  0  0  0  0  0  0  0  0  0  0  0
   -5.8920   22.2070  -31.5740 C   0  0  0  0  0  0  0  0  0  0  0  0
   -4.6950   22.8710  -31.3150 C   0  0  0  0  0  0  0  0  0  0  0  0
   -2.9040   22.3810  -28.2690 C   0  0  0  0  0  0  0  0  0  0  0  0
   -2.5210   21.0660  -27.9880 C   0  0  0  0  0  0  0  0  0  0  0  0
   -1.4530   20.4760  -28.6750 C   0  0  0  0  0  0  0  0  0  0  0  0
   -1.0890   19.1650  -28.3610 O   0  0  0  0  0  0  0  0  0  0  0  0
   -2.0570   20.3960  -32.4970 C   0  0  0  0  0  0  0  0  0  0  0  0
   -3.2660   20.4250  -33.1990 C   0  0  0  0  0  0  0  0  0  0  0  0
   -6.0562   17.4566  -33.8909 H   0  0  0  0  0  0  0  0  0  0  0  0
   -6.6173   18.2856  -35.3824 H   0  0  0  0  0  0  0  0  0  0  0  0
   -5.0570   17.3957  -35.3824 H   0  0  0  0  0  0  0  0  0  0  0  0
   -3.6179   17.0759  -33.8155 H   0  0  0  0  0  0  0  0  0  0  0  0
   -1.4533   17.0261  -32.5791 H   0  0  0  0  0  0  0  0  0  0  0  0
   -0.6190   23.1021  -30.7096 H   0  0  0  0  0  0  0  0  0  0  0  0
   -6.0721   25.7310  -29.9770 H   0  0  0  0  0  0  0  0  0  0  0  0
   -8.1988   24.4635  -30.4571 H   0  0  0  0  0  0  0  0  0  0  0  0
   -9.7901   21.9484  -30.4591 H   0  0  0  0  0  0  0  0  0  0  0  0
   -9.8909   22.8547  -32.0067 H   0  0  0  0  0  0  0  0  0  0  0  0
  -10.0042   21.0620  -32.0067 H   0  0  0  0  0  0  0  0  0  0  0  0
   -8.2813   18.8919  -31.9221 H   0  0  0  0  0  0  0  0  0  0  0  0
   -8.8243   19.8275  -33.3561 H   0  0  0  0  0  0  0  0  0  0  0  0
   -7.2098   19.0402  -33.3561 H   0  0  0  0  0  0  0  0  0  0  0  0
   -3.7262   22.3998  -31.5372 H   0  0  0  0  0  0  0  0  0  0  0  0
   -3.7575   22.8275  -27.7378 H   0  0  0  0  0  0  0  0  0  0  0  0
   -3.0623   20.4911  -27.2222 H   0  0  0  0  0  0  0  0  0  0  0  0
   -0.4160   18.6470  -28.9120 H   0  0  0  0  0  0  0  0  0  0  0  0
   -1.6153   21.3328  -32.1265 H   0  0  0  0  0  0  0  0  0  0  0  0
   -3.7714   21.3852  -33.3798 H   0  0  0  0  0  0  0  0  0  0  0  0
  1  2  1  0
  2  3  1  0
  3  4  2  0
  4  5  1  0
  5  6  2  0
  6  7  1  0
  7  8  2  0
  7  9  2  0
  7 10  1  0
 10 11  1  0
 11 12  2  0
 12 13  1  0
 13 14  1  0
 14 15  2  0
 14 16  1  0
 16 17  1  0
 17 18  1  0
 18 19  2  0
 19 20  1  0
 20 21  2  0
 21 22  1  0
 21 23  1  0
 23 24  1  0
 23 25  1  0
 25 26  2  0
 26 27  1  0
 13 28  2  0
 28 29  1  0
 29 30  2  0
 30 31  1  0
  6 32  1  0
 32 33  2  0
 33  3  1  0
 30 11  1  0
 27 17  2  0
 26 20  1  0
  1 34  1  0
  1 35  1  0
  1 36  1  0
  4 37  1  0
  5 38  1  0
 12 39  1  0
 18 40  1  0
 19 41  1  0
 22 42  1  0
 22 43  1  0
 22 44  1  0
 24 45  1  0
 24 46  1  0
 24 47  1  0
 27 48  1  0
 28 49  1  0
 29 50  1  0
 31 51  1  0
 32 52  1  0
 33 53  1  0
M  CHG  2  10  -1  16  -1
M  END
>  <UniqueID>  (24) 
24

>  <SMILES>  (24) 
COc1ccc(S(=O)(=O)[N-]c2cc(C(=O)[N-]c3ccc4c(C)n(C)nc4c3)ccc2O)cc1

>  <Energy>  (24) 
107.58923573843545

>  <Genealogy>  (24) 
COc1ccc(S(=O)(=O)[N-]c2cc(C(=O)[N-]c3ccc4c(C)n(C)nc4c3)ccc2O)cc1 (protonated)
COc1ccc(S(=O)(=O)[N-]c2cc(C(=O)[N-]c3ccc4c(C)n(C)nc4c3)ccc2O)cc1 (3D coordinates assigned)
COc1ccc(S(=O)(=O)[N-]c2cc(C(=O)[N-]c3ccc4c(C)n(C)nc4c3)ccc2O)cc1 (optimized conformer: 107.58923573843545 kcal/mol)

>  <smiles>  (24) 
COc1ccc(S(=O)(=O)Nc2cc(C(=O)Nc3ccc4c(C)n(C)nc4c3)ccc2O)cc1

>  <score_type>  (24) 
oracle

>  <origin>  (24) 
adgpu

>  <m_score__min__energy>  (24) 
-11.07

>  <m_primary>  (24) 
energy

$$$$
24:0
     RDKit          3D

 73 77  0  0  0  0  0  0  0  0999 V2000
   -5.7830   24.1820  -31.5400 C   0  0  0  0  0  0  0  0  0  0  0  0
   -4.8630   24.5440  -30.4150 C   0  0  0  0  0  0  0  0  0  0  0  0
   -3.8690   25.2790  -30.6450 O   0  0  0  0  0  0  0  0  0  0  0  0
   -5.0620   24.0350  -29.0900 N   0  0  0  0  0  0  0  0  0  0  0  0
   -4.3570   24.5310  -27.9110 C   0  0  0  0  0  0  0  0  0  0  0  0
   -3.0750   23.7250  -27.6720 C   0  0  1  0  0  0  0  0  0  0  0  0
   -3.1100   22.3130  -28.3200 C   0  0  0  0  0  0  0  0  0  0  0  0
   -1.9750   22.2730  -29.2440 N   0  0  0  0  0  0  0  0  0  0  0  0
   -1.6970   21.1930  -30.1680 C   0  0  0  0  0  0  0  0  0  0  0  0
   -2.2020   21.2390  -31.4800 C   0  0  0  0  0  0  0  0  0  0  0  0
   -1.9240   20.2160  -32.3910 C   0  0  0  0  0  0  0  0  0  0  0  0
   -1.1340   19.1170  -32.0170 C   0  0  0  0  0  0  0  0  0  0  0  0
   -0.8590   18.0650  -32.9650 N   0  0  0  0  0  0  0  0  0  0  0  0
   -0.3270   18.3850  -34.2930 C   0  0  0  0  0  0  0  0  0  0  0  0
   -0.9220   17.4240  -35.3310 C   0  0  0  0  0  0  0  0  0  0  0  0
   -0.8220   15.9910  -34.9500 N   0  0  0  0  0  0  0  0  0  0  0  0
   -2.3390   15.1600  -35.2150 S   0  0  0  0  0  0  0  0  0  0  0  0
   -2.1660   13.6750  -35.0380 O   0  0  0  0  0  0  0  0  0  0  0  0
   -2.8270   15.4140  -36.6170 O   0  0  0  0  0  0  0  0  0  0  0  0
   -3.5500   15.7840  -34.0870 C   0  0  0  0  0  0  0  0  0  0  0  0
   -4.0520   17.0770  -34.2840 C   0  0  0  0  0  0  0  0  0  0  0  0
   -5.0020   17.6180  -33.4060 C   0  0  0  0  0  0  0  0  0  0  0  0
   -5.6300   19.2420  -33.6680 S   0  0  0  0  0  0  0  0  0  0  0  0
   -4.4910   20.2240  -33.6780 O   0  0  0  0  0  0  0  0  0  0  0  0
   -6.3210   19.2990  -35.0030 O   0  0  0  0  0  0  0  0  0  0  0  0
   -6.7750   19.6300  -32.4090 N   0  0  0  0  0  0  0  0  0  0  0  0
   -7.0490   21.0670  -32.3540 C   0  0  0  0  0  0  0  0  0  0  0  0
   -8.4670   21.2270  -31.8220 C   0  0  0  0  0  0  0  0  0  0  0  0
   -9.1090   19.8560  -31.9600 C   0  0  0  0  0  0  0  0  0  0  0  0
   -8.0670   18.9930  -32.6520 C   0  0  0  0  0  0  0  0  0  0  0  0
   -5.4560   16.8560  -32.3240 C   0  0  0  0  0  0  0  0  0  0  0  0
   -4.9610   15.5670  -32.1170 C   0  0  0  0  0  0  0  0  0  0  0  0
   -4.0050   15.0240  -32.9890 C   0  0  0  0  0  0  0  0  0  0  0  0
   -3.5200   13.7350  -32.7670 O   0  0  0  0  0  0  0  0  0  0  0  0
   -0.2930   15.7380  -33.5920 C   0  0  0  0  0  0  0  0  0  0  0  0
   -0.9180   16.6600  -32.5390 C   0  0  0  0  0  0  0  0  0  0  0  0
   -0.6290   19.0620  -30.7070 C   0  0  0  0  0  0  0  0  0  0  0  0
    0.0840   17.9910  -30.2840 F   0  0  0  0  0  0  0  0  0  0  0  0
   -0.8920   20.0950  -29.8010 C   0  0  0  0  0  0  0  0  0  0  0  0
   -1.3170   23.5260  -29.1240 C   0  0  0  0  0  0  0  0  0  0  0  0
   -0.2160   23.8110  -29.6690 O   0  0  0  0  0  0  0  0  0  0  0  0
   -1.9550   24.3780  -28.2550 O   0  0  0  0  0  0  0  0  0  0  0  0
   -6.7332   23.8081  -31.1308 H   0  0  0  0  0  0  0  0  0  0  0  0
   -5.9746   25.0718  -32.1577 H   0  0  0  0  0  0  0  0  0  0  0  0
   -5.3169   23.4002  -32.1577 H   0  0  0  0  0  0  0  0  0  0  0  0
   -4.0962   25.5887  -28.0637 H   0  0  0  0  0  0  0  0  0  0  0  0
   -5.0124   24.4243  -27.0341 H   0  0  0  0  0  0  0  0  0  0  0  0
   -2.9961   23.6399  -26.5781 H   0  0  0  0  0  0  0  0  0  0  0  0
   -3.0051   21.5348  -27.5497 H   0  0  0  0  0  0  0  0  0  0  0  0
   -4.0623   22.1276  -28.8384 H   0  0  0  0  0  0  0  0  0  0  0  0
   -2.8236   22.0908  -31.7931 H   0  0  0  0  0  0  0  0  0  0  0  0
   -2.3286   20.2725  -33.4123 H   0  0  0  0  0  0  0  0  0  0  0  0
   -0.5951   19.4191  -34.5554 H   0  0  0  0  0  0  0  0  0  0  0  0
    0.7679   18.2798  -34.2831 H   0  0  0  0  0  0  0  0  0  0  0  0
   -1.9849   17.6736  -35.4652 H   0  0  0  0  0  0  0  0  0  0  0  0
   -0.3392   17.5507  -36.2553 H   0  0  0  0  0  0  0  0  0  0  0  0
   -3.6970   17.6743  -35.1368 H   0  0  0  0  0  0  0  0  0  0  0  0
   -6.3342   21.5629  -31.6808 H   0  0  0  0  0  0  0  0  0  0  0  0
   -6.9476   21.5255  -33.3487 H   0  0  0  0  0  0  0  0  0  0  0  0
   -8.4491   21.5388  -30.7673 H   0  0  0  0  0  0  0  0  0  0  0  0
   -9.0258   21.9970  -32.3741 H   0  0  0  0  0  0  0  0  0  0  0  0
   -9.3546   19.4441  -30.9700 H   0  0  0  0  0  0  0  0  0  0  0  0
  -10.0494   19.8990  -32.5291 H   0  0  0  0  0  0  0  0  0  0  0  0
   -8.0749   17.9766  -32.2314 H   0  0  0  0  0  0  0  0  0  0  0  0
   -8.2725   18.9072  -33.7292 H   0  0  0  0  0  0  0  0  0  0  0  0
   -6.2047   17.2735  -31.6347 H   0  0  0  0  0  0  0  0  0  0  0  0
   -5.3228   14.9732  -31.2647 H   0  0  0  0  0  0  0  0  0  0  0  0
   -2.8770   13.2890  -33.4110 H   0  0  0  0  0  0  0  0  0  0  0  0
   -0.5067   14.6941  -33.3187 H   0  0  0  0  0  0  0  0  0  0  0  0
    0.7887   15.9369  -33.6116 H   0  0  0  0  0  0  0  0  0  0  0  0
   -1.9695   16.3737  -32.3893 H   0  0  0  0  0  0  0  0  0  0  0  0
   -0.3518   16.5547  -31.6018 H   0  0  0  0  0  0  0  0  0  0  0  0
   -0.4649   20.0501  -28.7883 H   0  0  0  0  0  0  0  0  0  0  0  0
  1  2  1  0
  2  3  2  0
  2  4  1  0
  4  5  1  0
  5  6  1  0
  6  7  1  0
  7  8  1  0
  8  9  1  0
  9 10  2  0
 10 11  1  0
 11 12  2  0
 12 13  1  0
 13 14  1  0
 14 15  1  0
 15 16  1  0
 16 17  1  0
 17 18  2  0
 17 19  2  0
 17 20  1  0
 20 21  2  0
 21 22  1  0
 22 23  1  0
 23 24  2  0
 23 25  2  0
 23 26  1  0
 26 27  1  0
 27 28  1  0
 28 29  1  0
 29 30  1  0
 22 31  2  0
 31 32  1  0
 32 33  2  0
 33 34  1  0
 16 35  1  0
 35 36  1  0
 12 37  1  0
 37 38  1  0
 37 39  2  0
  8 40  1  0
 40 41  2  0
 40 42  1  0
 42  6  1  0
 39  9  1  0
 36 13  1  0
 33 20  1  0
 30 26  1  0
  1 43  1  0
  1 44  1  0
  1 45  1  0
  5 46  1  0
  5 47  1  0
  6 48  1  1
  7 49  1  0
  7 50  1  0
 10 51  1  0
 11 52  1  0
 14 53  1  0
 14 54  1  0
 15 55  1  0
 15 56  1  0
 21 57  1  0
 27 58  1  0
 27 59  1  0
 28 60  1  0
 28 61  1  0
 29 62  1  0
 29 63  1  0
 30 64  1  0
 30 65  1  0
 31 66  1  0
 32 67  1  0
 34 68  1  0
 35 69  1  0
 35 70  1  0
 36 71  1  0
 36 72  1  0
 39 73  1  0
M  CHG  1   4  -1
M  END
>  <UniqueID>  (25) 
25

>  <SMILES>  (25) 
CC(=O)[N-]C[C@H]1CN(c2ccc(N3CCN(S(=O)(=O)c4cc(S(=O)(=O)N5CCCC5)ccc4O)CC3)c(F)c2)C(=O)O1

>  <Energy>  (25) 
103.38354905411924

>  <Genealogy>  (25) 
CC(=O)[N-]CC1CN(c2ccc(N3CCN(S(=O)(=O)c4cc(S(=O)(=O)N5CCCC5)ccc4O)CC3)c(F)c2)C(=O)O1 (protonated)
CC(=O)[N-]C[C@H]1CN(c2ccc(N3CCN(S(=O)(=O)c4cc(S(=O)(=O)N5CCCC5)ccc4O)CC3)c(F)c2)C(=O)O1 (chirality)
CC(=O)[N-]C[C@H]1CN(c2ccc(N3CCN(S(=O)(=O)c4cc(S(=O)(=O)N5CCCC5)ccc4O)CC3)c(F)c2)C(=O)O1 (3D coordinates assigned)
CC(=O)[N-]C[C@H]1CN(c2ccc(N3CCN(S(=O)(=O)c4cc(S(=O)(=O)N5CCCC5)ccc4O)CC3)c(F)c2)C(=O)O1 (nonaromatic ring conformer: 103.38354905411924 kcal/mol)

>  <smiles>  (25) 
CC(=O)NCC1CN(c2ccc(N3CCN(S(=O)(=O)c4cc(S(=O)(=O)N5CCCC5)ccc4O)CC3)c(F)c2)C(=O)O1

>  <score_type>  (25) 
oracle

>  <origin>  (25) 
adgpu

>  <m_score__min__energy>  (25) 
-10.74

>  <m_primary>  (25) 
energy

$$$$
25:0
     RDKit          3D

 25 26  0  0  0  0  0  0  0  0999 V2000
   -4.2550   22.4830  -32.8210 N   0  0  0  0  0  0  0  0  0  0  0  0
   -5.1560   23.0460  -31.8710 C   0  0  0  0  0  0  0  0  0  0  0  0
   -6.4150   22.7240  -31.3850 C   0  0  0  0  0  0  0  0  0  0  0  0
   -7.3630   21.6720  -31.6190 N   0  0  0  0  0  0  0  0  0  0  0  0
   -8.6890   21.7160  -30.9890 C   0  0  0  0  0  0  0  0  0  0  0  0
   -9.7550   21.2120  -31.9670 C   0  0  0  0  0  0  0  0  0  0  0  0
   -9.4050   19.8470  -32.6020 C   0  0  0  0  0  0  0  0  0  0  0  0
   -7.9810   19.3650  -32.2940 C   0  0  0  0  0  0  0  0  0  0  0  0
   -6.9630   20.5050  -32.4160 C   0  0  0  0  0  0  0  0  0  0  0  0
   -6.3740   23.8440  -30.5700 C   0  0  0  0  0  0  0  0  0  0  0  0
   -7.1530   24.3640  -29.7270 O   0  0  0  0  0  0  0  0  0  0  0  0
   -5.1230   24.1580  -31.0560 C   0  0  0  0  0  0  0  0  0  0  0  0
   -4.2940   25.0820  -30.8440 O   0  0  0  0  0  0  0  0  0  0  0  0
   -4.3830   22.6770  -33.8380 H   0  0  0  0  0  0  0  0  0  0  0  0
   -3.4710   21.8660  -32.5150 H   0  0  0  0  0  0  0  0  0  0  0  0
   -8.6871   21.0781  -30.0928 H   0  0  0  0  0  0  0  0  0  0  0  0
   -8.9199   22.7545  -30.7095 H   0  0  0  0  0  0  0  0  0  0  0  0
  -10.7067   21.1111  -31.4247 H   0  0  0  0  0  0  0  0  0  0  0  0
   -9.8198   21.9449  -32.7847 H   0  0  0  0  0  0  0  0  0  0  0  0
  -10.1143   19.0965  -32.2229 H   0  0  0  0  0  0  0  0  0  0  0  0
   -9.4696   19.9761  -33.6925 H   0  0  0  0  0  0  0  0  0  0  0  0
   -7.9520   18.9682  -31.2685 H   0  0  0  0  0  0  0  0  0  0  0  0
   -7.7152   18.5856  -33.0233 H   0  0  0  0  0  0  0  0  0  0  0  0
   -5.9840   20.1493  -32.0623 H   0  0  0  0  0  0  0  0  0  0  0  0
   -6.9112   20.8096  -33.4717 H   0  0  0  0  0  0  0  0  0  0  0  0
  1  2  1  0
  2  3  2  0
  3  4  1  0
  4  5  1  0
  5  6  1  0
  6  7  1  0
  7  8  1  0
  8  9  1  0
  3 10  1  0
 10 11  2  0
 10 12  1  0
 12 13  2  0
 12  2  1  0
  9  4  1  0
  1 14  1  0
  1 15  1  0
  5 16  1  0
  5 17  1  0
  6 18  1  0
  6 19  1  0
  7 20  1  0
  7 21  1  0
  8 22  1  0
  8 23  1  0
  9 24  1  0
  9 25  1  0
M  END
>  <UniqueID>  (26) 
26

>  <SMILES>  (26) 
Nc1c(N2CCCCC2)c(=O)c1=O

>  <Energy>  (26) 
13.662540815669686

>  <Genealogy>  (26) 
Nc1c(N2CCCCC2)c(=O)c1=O (3D coordinates assigned)
Nc1c(N2CCCCC2)c(=O)c1=O (nonaromatic ring conformer: 13.662540815669686 kcal/mol)

>  <smiles>  (26) 
Nc1c(N2CCCCC2)c(=O)c1=O

>  <score_type>  (26) 
oracle

>  <origin>  (26) 
adgpu

>  <m_score__min__energy>  (26) 
-6.1100000000000003

>  <m_primary>  (26) 
energy

$$$$
26:0
     RDKit          3D

 40 42  0  0  0  0  0  0  0  0999 V2000
   -4.0018   23.7162  -26.0528 H   0  0  0  0  0  0  0  0  0  0  0  0
   -3.4270   24.1800  -26.8680 C   0  0  0  0  0  0  0  0  0  0  0  0
   -3.8010   23.9850  -28.1580 N   0  0  0  0  0  0  0  0  0  0  0  0
   -3.1000   24.5390  -29.1850 C   0  0  0  0  0  0  0  0  0  0  0  0
   -3.4650   24.3720  -30.4220 N   0  0  0  0  0  0  0  0  0  0  0  0
   -4.5420   23.5490  -30.9020 C   0  0  0  0  0  0  0  0  0  0  0  0
   -4.3510   22.1620  -30.9650 C   0  0  0  0  0  0  0  0  0  0  0  0
   -3.3823   21.7301  -30.6733 H   0  0  0  0  0  0  0  0  0  0  0  0
   -5.3830   21.3240  -31.3960 C   0  0  0  0  0  0  0  0  0  0  0  0
   -5.2180   20.2381  -31.4558 H   0  0  0  0  0  0  0  0  0  0  0  0
   -6.6260   21.8610  -31.7520 C   0  0  0  0  0  0  0  0  0  0  0  0
   -7.9320   20.8070  -32.2830 S   0  0  0  0  0  0  0  0  0  0  0  0
   -9.1960   21.6090  -32.4170 O   0  0  0  0  0  0  0  0  0  0  0  0
   -8.1410   19.7080  -31.2780 O   0  0  0  0  0  0  0  0  0  0  0  0
   -7.5310   20.0990  -33.8090 N   0  0  0  0  0  0  0  0  0  0  0  0
   -8.2760   20.3850  -34.4840 H   0  0  0  0  0  0  0  0  0  0  0  0
   -7.6080   19.0640  -33.6960 H   0  0  0  0  0  0  0  0  0  0  0  0
   -6.8360   23.2430  -31.6530 C   0  0  0  0  0  0  0  0  0  0  0  0
   -7.8163   23.6684  -31.9138 H   0  0  0  0  0  0  0  0  0  0  0  0
   -5.8040   24.0830  -31.2240 C   0  0  0  0  0  0  0  0  0  0  0  0
   -5.9789   25.1656  -31.1377 H   0  0  0  0  0  0  0  0  0  0  0  0
   -2.0210   25.3190  -28.9130 N   0  0  0  0  0  0  0  0  0  0  0  0
   -1.6060   25.5540  -27.6370 C   0  0  0  0  0  0  0  0  0  0  0  0
   -0.4120   26.4060  -27.4040 C   0  0  0  0  0  0  0  0  0  0  0  0
   -0.5210   27.8060  -27.2950 C   0  0  0  0  0  0  0  0  0  0  0  0
   -1.5078   28.2851  -27.3767 H   0  0  0  0  0  0  0  0  0  0  0  0
    0.6150   28.5900  -27.0840 C   0  0  0  0  0  0  0  0  0  0  0  0
    0.4970   29.9380  -26.9840 F   0  0  0  0  0  0  0  0  0  0  0  0
    1.8720   27.9920  -26.9840 C   0  0  0  0  0  0  0  0  0  0  0  0
    2.7613   28.6165  -26.8133 H   0  0  0  0  0  0  0  0  0  0  0  0
    2.0100   26.6060  -27.0990 C   0  0  0  0  0  0  0  0  0  0  0  0
    3.2950   26.0550  -26.9960 O   0  0  0  0  0  0  0  0  0  0  0  0
    3.7930   25.0100  -27.8260 C   0  0  0  0  0  0  0  0  0  0  0  0
    4.1812   24.1955  -27.1968 H   0  0  0  0  0  0  0  0  0  0  0  0
    2.9804   24.6274  -28.4611 H   0  0  0  0  0  0  0  0  0  0  0  0
    4.6020   25.4001  -28.4611 H   0  0  0  0  0  0  0  0  0  0  0  0
    0.8630   25.8150  -27.3130 C   0  0  0  0  0  0  0  0  0  0  0  0
    0.9650   24.7240  -27.4100 H   0  0  0  0  0  0  0  0  0  0  0  0
   -2.3160   24.9670  -26.5760 C   0  0  0  0  0  0  0  0  0  0  0  0
   -2.0001   25.1262  -25.5344 H   0  0  0  0  0  0  0  0  0  0  0  0
  1  2  1  0
  2  3  1  0
  3  4  1  0
  4  5  2  0
  5  6  1  0
  6  7  2  0
  7  8  1  0
  7  9  1  0
  9 10  1  0
  9 11  2  0
 11 12  1  0
 12 13  2  0
 12 14  2  0
 12 15  1  0
 15 16  1  0
 15 17  1  0
 11 18  1  0
 18 19  1  0
 18 20  2  0
 20 21  1  0
  4 22  1  0
 22 23  2  0
 23 24  1  0
 24 25  2  0
 25 26  1  0
 25 27  1  0
 27 28  1  0
 27 29  2  0
 29 30  1  0
 29 31  1  0
 31 32  1  0
 32 33  1  0
 33 34  1  0
 33 35  1  0
 33 36  1  0
 31 37  2  0
 37 38  1  0
 23 39  1  0
 39 40  1  0
 39  2  2  0
 20  6  1  0
 37 24  1  0
M  CHG  1   3  -1
M  END
>  <UniqueID>  (27) 
27

>  <SMILES>  (27) 
COc1cc(F)cc(-c2cc[n-]/c(=N\c3ccc(S(N)(=O)=O)cc3)n2)c1

>  <Energy>  (27) 
52.07285502940026

>  <Genealogy>  (27) 
COc1cc(F)cc(-c2cc[n-]c(=Nc3ccc(S(N)(=O)=O)cc3)n2)c1 (protonated)
COc1cc(F)cc(-c2cc[n-]/c(=N\c3ccc(S(N)(=O)=O)cc3)n2)c1 (cis-trans isomerization)
COc1cc(F)cc(-c2cc[n-]/c(=N\c3ccc(S(N)(=O)=O)cc3)n2)c1 (3D coordinates assigned)
COc1cc(F)cc(-c2cc[n-]/c(=N\c3ccc(S(N)(=O)=O)cc3)n2)c1 (optimized conformer: 52.07285502940026 kcal/mol)

>  <smiles>  (27) 
COc1cc(F)cc(-c2cc[nH]c(=Nc3ccc(S(N)(=O)=O)cc3)n2)c1

>  <score_type>  (27) 
oracle

>  <origin>  (27) 
adgpu

>  <m_score__min__energy>  (27) 
-9.1400000000000006

>  <m_primary>  (27) 
energy

$$$$
27:0
     RDKit          3D

 56 59  0  0  0  0  0  0  0  0999 V2000
   -0.6439   22.8648  -25.1406 H   0  0  0  0  0  0  0  0  0  0  0  0
   -0.8580   23.6130  -25.9180 C   0  0  0  0  0  0  0  0  0  0  0  0
   -0.0940   24.7790  -25.9910 C   0  0  0  0  0  0  0  0  0  0  0  0
    0.7166   24.9472  -25.2667 H   0  0  0  0  0  0  0  0  0  0  0  0
   -0.3530   25.7380  -26.9820 C   0  0  0  0  0  0  0  0  0  0  0  0
    0.4690   26.9710  -27.0400 C   0  0  0  0  0  0  0  0  0  0  0  0
    1.8710   26.8920  -26.9930 C   0  0  0  0  0  0  0  0  0  0  0  0
    2.3613   25.9099  -26.9220 H   0  0  0  0  0  0  0  0  0  0  0  0
    2.6460   28.0540  -27.0360 C   0  0  0  0  0  0  0  0  0  0  0  0
    3.7431   27.9830  -26.9996 H   0  0  0  0  0  0  0  0  0  0  0  0
    2.0320   29.3050  -27.1250 C   0  0  0  0  0  0  0  0  0  0  0  0
    2.6466   30.2169  -27.1536 H   0  0  0  0  0  0  0  0  0  0  0  0
    0.6330   29.4020  -27.1780 C   0  0  0  0  0  0  0  0  0  0  0  0
   -0.0270   30.7530  -27.2320 C   0  0  0  0  0  0  0  0  0  0  0  0
   -0.2401   31.0960  -26.2088 H   0  0  0  0  0  0  0  0  0  0  0  0
    0.6467   31.4657  -27.7302 H   0  0  0  0  0  0  0  0  0  0  0  0
   -1.2750   30.6660  -27.9830 N   0  0  0  0  0  0  0  0  0  0  0  0
   -1.9340   30.0520  -27.4520 H   0  0  0  0  0  0  0  0  0  0  0  0
   -1.0700   30.1740  -28.8840 H   0  0  0  0  0  0  0  0  0  0  0  0
   -0.1430   28.2350  -27.1200 C   0  0  0  0  0  0  0  0  0  0  0  0
   -1.2404   28.3089  -27.1372 H   0  0  0  0  0  0  0  0  0  0  0  0
   -1.3860   25.5060  -27.9170 C   0  0  0  0  0  0  0  0  0  0  0  0
   -1.5930   26.4100  -28.9550 O   0  0  0  0  0  0  0  0  0  0  0  0
   -2.1740   24.3380  -27.8280 C   0  0  0  0  0  0  0  0  0  0  0  0
   -3.2830   24.0860  -28.7790 C   0  0  0  0  0  0  0  0  0  0  0  0
   -3.9760   22.8790  -28.9020 C   0  0  0  0  0  0  0  0  0  0  0  0
   -3.8039   21.9484  -28.3414 H   0  0  0  0  0  0  0  0  0  0  0  0
   -4.9210   23.1070  -29.8770 C   0  0  0  0  0  0  0  0  0  0  0  0
   -5.8970   22.2670  -30.4070 C   0  0  0  0  0  0  0  0  0  0  0  0
   -6.0165   21.2360  -30.0425 H   0  0  0  0  0  0  0  0  0  0  0  0
   -6.7280   22.7790  -31.4260 C   0  0  0  0  0  0  0  0  0  0  0  0
   -7.8260   21.9560  -31.9610 C   0  0  0  0  0  0  0  0  0  0  0  0
   -9.1300   22.5450  -32.0070 N   0  0  0  0  0  0  0  0  0  0  0  0
   -9.9480   22.0200  -32.3890 H   0  0  0  0  0  0  0  0  0  0  0  0
   -9.2840   23.5170  -31.6560 H   0  0  0  0  0  0  0  0  0  0  0  0
   -7.6590   20.7330  -32.4020 N   0  0  0  0  0  0  0  0  0  0  0  0
   -8.5040   20.2370  -32.7680 H   0  0  0  0  0  0  0  0  0  0  0  0
   -6.4100   19.9470  -32.4490 C   0  0  0  0  0  0  0  0  0  0  0  0
   -5.6415   20.5634  -31.9596 H   0  0  0  0  0  0  0  0  0  0  0  0
   -5.9250   19.7050  -33.8830 C   0  0  0  0  0  0  0  0  0  0  0  0
   -4.9410   19.2140  -33.8593 H   0  0  0  0  0  0  0  0  0  0  0  0
   -6.6440   19.0600  -34.4093 H   0  0  0  0  0  0  0  0  0  0  0  0
   -5.8420   20.6673  -34.4093 H   0  0  0  0  0  0  0  0  0  0  0  0
   -6.5010   18.6490  -31.6390 C   0  0  0  0  0  0  0  0  0  0  0  0
   -6.4844   18.8852  -30.5648 H   0  0  0  0  0  0  0  0  0  0  0  0
   -7.4379   18.1279  -31.8854 H   0  0  0  0  0  0  0  0  0  0  0  0
   -5.6460   18.0023  -31.8854 H   0  0  0  0  0  0  0  0  0  0  0  0
   -6.6080   24.1340  -31.8220 C   0  0  0  0  0  0  0  0  0  0  0  0
   -7.2974   24.5456  -32.5738 H   0  0  0  0  0  0  0  0  0  0  0  0
   -5.6150   24.9570  -31.2620 C   0  0  0  0  0  0  0  0  0  0  0  0
   -5.5005   26.0041  -31.5792 H   0  0  0  0  0  0  0  0  0  0  0  0
   -4.7800   24.4040  -30.2920 C   0  0  0  0  0  0  0  0  0  0  0  0
   -3.7850   25.0150  -29.6290 N   0  0  0  0  0  0  0  0  0  0  0  0
   -3.4980   26.0140  -29.7240 H   0  0  0  0  0  0  0  0  0  0  0  0
   -1.8920   23.3940  -26.8280 C   0  0  0  0  0  0  0  0  0  0  0  0
   -2.4914   22.4741  -26.7616 H   0  0  0  0  0  0  0  0  0  0  0  0
  1  2  1  0
  2  3  2  0
  3  4  1  0
  3  5  1  0
  5  6  1  0
  6  7  2  0
  7  8  1  0
  7  9  1  0
  9 10  1  0
  9 11  2  0
 11 12  1  0
 11 13  1  0
 13 14  1  0
 14 15  1  0
 14 16  1  0
 14 17  1  0
 17 18  1  0
 17 19  1  0
 13 20  2  0
 20 21  1  0
  5 22  2  0
 22 23  1  0
 22 24  1  0
 24 25  1  0
 25 26  2  0
 26 27  1  0
 26 28  1  0
 28 29  2  0
 29 30  1  0
 29 31  1  0
 31 32  1  0
 32 33  1  0
 33 34  1  0
 33 35  1  0
 32 36  2  0
 36 37  1  0
 36 38  1  0
 38 39  1  0
 38 40  1  0
 40 41  1  0
 40 42  1  0
 40 43  1  0
 38 44  1  0
 44 45  1  0
 44 46  1  0
 44 47  1  0
 31 48  2  0
 48 49  1  0
 48 50  1  0
 50 51  1  0
 50 52  2  0
 52 53  1  0
 53 54  1  0
 24 55  2  0
 55 56  1  0
 55  2  1  0
 20  6  1  0
 53 25  1  0
 52 28  1  0
M  CHG  2  23  -1  36   1
M  END
>  <UniqueID>  (28) 
28

>  <SMILES>  (28) 
CC(C)/[NH+]=C(/N)c1ccc2[nH]c(-c3cccc(-c4cccc(CN)c4)c3[O-])cc2c1

>  <Energy>  (28) 
108.15396444500716

>  <Genealogy>  (28) 
CC(C)[NH+]=C(N)c1ccc2[nH]c(-c3cccc(-c4cccc(CN)c4)c3[O-])cc2c1 (protonated)
CC(C)/[NH+]=C(/N)c1ccc2[nH]c(-c3cccc(-c4cccc(CN)c4)c3[O-])cc2c1 (cis-trans isomerization)
CC(C)/[NH+]=C(/N)c1ccc2[nH]c(-c3cccc(-c4cccc(CN)c4)c3[O-])cc2c1 (3D coordinates assigned)
CC(C)/[NH+]=C(/N)c1ccc2[nH]c(-c3cccc(-c4cccc(CN)c4)c3[O-])cc2c1 (optimized conformer: 108.15396444500716 kcal/mol)

>  <smiles>  (28) 
CC(C)N=C(N)c1ccc2[nH]c(-c3cccc(-c4cccc(CN)c4)c3O)cc2c1

>  <score_type>  (28) 
oracle

>  <origin>  (28) 
adgpu

>  <m_score__min__energy>  (28) 
-11.66

>  <m_primary>  (28) 
energy

$$$$
28:0
     RDKit          3D

 52 54  0  0  0  0  0  0  0  0999 V2000
   -9.4050   19.5260  -32.3200 C   0  0  0  0  0  0  0  0  0  0  0  0
   -8.0570   18.8840  -32.3460 C   0  0  0  0  0  0  0  0  0  0  0  0
   -7.6460   18.2660  -31.3280 O   0  0  0  0  0  0  0  0  0  0  0  0
   -7.2090   19.0520  -33.4930 N   0  0  0  0  0  0  0  0  0  0  0  0
   -5.9940   18.3130  -33.7090 C   0  0  0  0  0  0  0  0  0  0  0  0
   -6.0570   16.9250  -33.9050 C   0  0  0  0  0  0  0  0  0  0  0  0
   -4.8890   16.1850  -34.0990 C   0  0  0  0  0  0  0  0  0  0  0  0
   -3.6440   16.8210  -34.0850 C   0  0  0  0  0  0  0  0  0  0  0  0
   -3.5640   18.2010  -33.8610 C   0  0  0  0  0  0  0  0  0  0  0  0
   -2.0080   19.0220  -33.8260 S   0  0  0  0  0  0  0  0  0  0  0  0
   -2.0720   20.3100  -34.5990 O   0  0  0  0  0  0  0  0  0  0  0  0
   -0.9710   18.1420  -34.4650 O   0  0  0  0  0  0  0  0  0  0  0  0
   -1.5870   19.3520  -32.1710 N   0  0  0  0  0  0  0  0  0  0  0  0
   -0.7280   18.4280  -31.4360 C   0  0  0  0  0  0  0  0  0  0  0  0
   -1.9420   20.6150  -31.5920 C   0  0  0  0  0  0  0  0  0  0  0  0
   -3.0690   21.3150  -32.0490 C   0  0  0  0  0  0  0  0  0  0  0  0
   -3.4310   22.5310  -31.4630 C   0  0  0  0  0  0  0  0  0  0  0  0
   -2.6730   23.0700  -30.4080 C   0  0  0  0  0  0  0  0  0  0  0  0
   -3.0630   24.3530  -29.7820 C   0  0  0  0  0  0  0  0  0  0  0  0
   -2.6790   24.6280  -28.6120 O   0  0  0  0  0  0  0  0  0  0  0  0
   -3.8730   25.2900  -30.5020 N   0  0  0  0  0  0  0  0  0  0  0  0
   -5.2900   25.5040  -30.2400 C   0  0  0  0  0  0  0  0  0  0  0  0
   -6.0860   24.2990  -30.6620 C   0  0  0  0  0  0  0  0  0  0  0  0
   -6.3630   24.0750  -32.0170 C   0  0  0  0  0  0  0  0  0  0  0  0
   -7.0860   22.9440  -32.4040 C   0  0  0  0  0  0  0  0  0  0  0  0
   -7.5210   22.0450  -31.4280 C   0  0  0  0  0  0  0  0  0  0  0  0
   -7.2390   22.2710  -30.1190 N   0  0  0  0  0  0  0  0  0  0  0  0
   -6.5380   23.3650  -29.7170 C   0  0  0  0  0  0  0  0  0  0  0  0
   -1.5390   22.3680  -29.9600 C   0  0  0  0  0  0  0  0  0  0  0  0
   -1.1780   21.1530  -30.5480 C   0  0  0  0  0  0  0  0  0  0  0  0
   -4.7370   18.9440  -33.6700 C   0  0  0  0  0  0  0  0  0  0  0  0
   -9.7197   19.6759  -31.2767 H   0  0  0  0  0  0  0  0  0  0  0  0
   -9.3580   20.4984  -32.8321 H   0  0  0  0  0  0  0  0  0  0  0  0
  -10.1303   18.8766  -32.8321 H   0  0  0  0  0  0  0  0  0  0  0  0
   -7.4520   19.8090  -34.1700 H   0  0  0  0  0  0  0  0  0  0  0  0
   -7.0326   16.4168  -33.9058 H   0  0  0  0  0  0  0  0  0  0  0  0
   -4.9485   15.0990  -34.2633 H   0  0  0  0  0  0  0  0  0  0  0  0
   -2.7266   16.2369  -34.2501 H   0  0  0  0  0  0  0  0  0  0  0  0
   -0.8677   18.5783  -30.3553 H   0  0  0  0  0  0  0  0  0  0  0  0
   -0.9924   17.3933  -31.6995 H   0  0  0  0  0  0  0  0  0  0  0  0
    0.3232   18.6163  -31.6995 H   0  0  0  0  0  0  0  0  0  0  0  0
   -3.6709   20.9043  -32.8731 H   0  0  0  0  0  0  0  0  0  0  0  0
   -4.3162   23.0711  -31.8300 H   0  0  0  0  0  0  0  0  0  0  0  0
   -5.4380   25.6782  -29.1640 H   0  0  0  0  0  0  0  0  0  0  0  0
   -5.6322   26.3781  -30.8134 H   0  0  0  0  0  0  0  0  0  0  0  0
   -6.0113   24.7894  -32.7759 H   0  0  0  0  0  0  0  0  0  0  0  0
   -7.3101   22.7636  -33.4657 H   0  0  0  0  0  0  0  0  0  0  0  0
   -8.0932   21.1521  -31.7201 H   0  0  0  0  0  0  0  0  0  0  0  0
   -6.3248   23.5181  -28.6488 H   0  0  0  0  0  0  0  0  0  0  0  0
   -0.9316   22.7790  -29.1401 H   0  0  0  0  0  0  0  0  0  0  0  0
   -0.2881   20.6153  -30.1889 H   0  0  0  0  0  0  0  0  0  0  0  0
   -4.6745   20.0271  -33.4885 H   0  0  0  0  0  0  0  0  0  0  0  0
  1  2  1  0
  2  3  2  0
  2  4  1  0
  4  5  1  0
  5  6  2  0
  6  7  1  0
  7  8  2  0
  8  9  1  0
  9 10  1  0
 10 11  2  0
 10 12  2  0
 10 13  1  0
 13 14  1  0
 13 15  1  0
 15 16  2  0
 16 17  1  0
 17 18  2  0
 18 19  1  0
 19 20  2  0
 19 21  1  0
 21 22  1  0
 22 23  1  0
 23 24  2  0
 24 25  1  0
 25 26  2  0
 26 27  1  0
 27 28  2  0
 18 29  1  0
 29 30  2  0
  9 31  2  0
 31  5  1  0
 30 15  1  0
 28 23  1  0
  1 32  1  0
  1 33  1  0
  1 34  1  0
  4 35  1  0
  6 36  1  0
  7 37  1  0
  8 38  1  0
 14 39  1  0
 14 40  1  0
 14 41  1  0
 16 42  1  0
 17 43  1  0
 22 44  1  0
 22 45  1  0
 24 46  1  0
 25 47  1  0
 26 48  1  0
 28 49  1  0
 29 50  1  0
 30 51  1  0
 31 52  1  0
M  CHG  1  21  -1
M  END
>  <UniqueID>  (29) 
29

>  <SMILES>  (29) 
CC(=O)Nc1cccc(S(=O)(=O)N(C)c2ccc(C(=O)[N-]Cc3cccnc3)cc2)c1

>  <Energy>  (29) 
59.71950384539601

>  <Genealogy>  (29) 
CC(=O)Nc1cccc(S(=O)(=O)N(C)c2ccc(C(=O)[N-]Cc3cccnc3)cc2)c1 (protonated)
CC(=O)Nc1cccc(S(=O)(=O)N(C)c2ccc(C(=O)[N-]Cc3cccnc3)cc2)c1 (3D coordinates assigned)
CC(=O)Nc1cccc(S(=O)(=O)N(C)c2ccc(C(=O)[N-]Cc3cccnc3)cc2)c1 (optimized conformer: 59.71950384539601 kcal/mol)

>  <smiles>  (29) 
CC(=O)Nc1cccc(S(=O)(=O)N(C)c2ccc(C(=O)NCc3cccnc3)cc2)c1

>  <score_type>  (29) 
oracle

>  <origin>  (29) 
adgpu

>  <m_score__min__energy>  (29) 
-10.9

>  <m_primary>  (29) 
energy

$$$$
29:0
     RDKit          3D

 52 55  0  0  0  0  0  0  0  0999 V2000
   -3.9800   24.5690  -27.1910 C   0  0  0  0  0  0  0  0  0  0  0  0
   -3.1910   23.5550  -27.9540 C   0  0  0  0  0  0  0  0  0  0  0  0
   -2.4920   22.5600  -27.3700 N   0  0  0  0  0  0  0  0  0  0  0  0
   -1.9530   21.8220  -28.3310 N   0  0  0  0  0  0  0  0  0  0  0  0
   -1.1640   20.6460  -28.0780 C   0  0  0  0  0  0  0  0  0  0  0  0
    0.1530   20.5370  -28.5630 C   0  0  0  0  0  0  0  0  0  0  0  0
    0.8980   19.3780  -28.3310 C   0  0  0  0  0  0  0  0  0  0  0  0
    0.3380   18.3150  -27.6190 C   0  0  0  0  0  0  0  0  0  0  0  0
   -0.9720   18.4070  -27.1410 C   0  0  0  0  0  0  0  0  0  0  0  0
   -1.7230   19.5640  -27.3760 C   0  0  0  0  0  0  0  0  0  0  0  0
   -2.2850   22.3470  -29.5300 C   0  0  0  0  0  0  0  0  0  0  0  0
   -1.8080   21.8750  -30.7520 O   0  0  0  0  0  0  0  0  0  0  0  0
   -3.1050   23.4450  -29.3350 C   0  0  0  0  0  0  0  0  0  0  0  0
   -3.8070   24.2570  -30.3490 C   0  0  0  0  0  0  0  0  0  0  0  0
   -3.9920   25.4840  -30.1360 O   0  0  0  0  0  0  0  0  0  0  0  0
   -4.2710   23.6880  -31.5810 N   0  0  0  0  0  0  0  0  0  0  0  0
   -5.0690   22.5020  -31.7010 C   0  0  0  0  0  0  0  0  0  0  0  0
   -6.3830   22.6090  -32.1760 C   0  0  0  0  0  0  0  0  0  0  0  0
   -7.1560   21.4630  -32.3800 C   0  0  0  0  0  0  0  0  0  0  0  0
   -6.6300   20.1970  -32.0880 C   0  0  0  0  0  0  0  0  0  0  0  0
   -7.5740   18.7540  -32.4450 S   0  0  0  0  0  0  0  0  0  0  0  0
   -8.9940   19.1660  -32.7220 O   0  0  0  0  0  0  0  0  0  0  0  0
   -7.5650   17.8310  -31.2580 O   0  0  0  0  0  0  0  0  0  0  0  0
   -6.8900   17.9580  -33.8470 N   0  0  0  0  0  0  0  0  0  0  0  0
   -5.7460   18.7120  -34.4090 C   0  0  0  0  0  0  0  0  0  0  0  0
   -4.3830   18.1290  -33.9950 C   0  0  0  0  0  0  0  0  0  0  0  0
   -4.4620   17.5870  -32.6950 O   0  0  0  0  0  0  0  0  0  0  0  0
   -5.2690   16.4220  -32.6960 C   0  0  0  0  0  0  0  0  0  0  0  0
   -6.5490   16.5530  -33.5590 C   0  0  0  0  0  0  0  0  0  0  0  0
   -5.3340   20.0900  -31.5660 C   0  0  0  0  0  0  0  0  0  0  0  0
   -4.5610   21.2360  -31.3650 C   0  0  0  0  0  0  0  0  0  0  0  0
   -3.8484   24.3999  -26.1121 H   0  0  0  0  0  0  0  0  0  0  0  0
   -3.6274   25.5783  -27.4496 H   0  0  0  0  0  0  0  0  0  0  0  0
   -5.0450   24.4752  -27.4496 H   0  0  0  0  0  0  0  0  0  0  0  0
    0.5982   21.3692  -29.1280 H   0  0  0  0  0  0  0  0  0  0  0  0
    1.9279   19.3026  -28.7100 H   0  0  0  0  0  0  0  0  0  0  0  0
    0.9281   17.4052  -27.4344 H   0  0  0  0  0  0  0  0  0  0  0  0
   -1.4128   17.5698  -26.5800 H   0  0  0  0  0  0  0  0  0  0  0  0
   -2.7580   19.6273  -27.0089 H   0  0  0  0  0  0  0  0  0  0  0  0
   -2.2570   22.1170  -31.6260 H   0  0  0  0  0  0  0  0  0  0  0  0
   -6.8083   23.6007  -32.3895 H   0  0  0  0  0  0  0  0  0  0  0  0
   -8.1801   21.5546  -32.7708 H   0  0  0  0  0  0  0  0  0  0  0  0
   -5.8176   18.6919  -35.5065 H   0  0  0  0  0  0  0  0  0  0  0  0
   -5.8003   19.7372  -34.0139 H   0  0  0  0  0  0  0  0  0  0  0  0
   -4.0960   17.3371  -34.7025 H   0  0  0  0  0  0  0  0  0  0  0  0
   -3.6303   18.9311  -34.0054 H   0  0  0  0  0  0  0  0  0  0  0  0
   -4.6709   15.5854  -33.0863 H   0  0  0  0  0  0  0  0  0  0  0  0
   -5.5957   16.2558  -31.6589 H   0  0  0  0  0  0  0  0  0  0  0  0
   -6.3889   16.0258  -34.5111 H   0  0  0  0  0  0  0  0  0  0  0  0
   -7.3830   16.1145  -32.9914 H   0  0  0  0  0  0  0  0  0  0  0  0
   -4.9242   19.1008  -31.3138 H   0  0  0  0  0  0  0  0  0  0  0  0
   -3.5497   21.1468  -30.9416 H   0  0  0  0  0  0  0  0  0  0  0  0
  1  2  1  0
  2  3  2  0
  3  4  1  0
  4  5  1  0
  5  6  2  0
  6  7  1  0
  7  8  2  0
  8  9  1  0
  9 10  2  0
  4 11  1  0
 11 12  1  0
 11 13  2  0
 13 14  1  0
 14 15  2  0
 14 16  1  0
 16 17  1  0
 17 18  2  0
 18 19  1  0
 19 20  2  0
 20 21  1  0
 21 22  2  0
 21 23  2  0
 21 24  1  0
 24 25  1  0
 25 26  1  0
 26 27  1  0
 27 28  1  0
 28 29  1  0
 20 30  1  0
 30 31  2  0
 13  2  1  0
 31 17  1  0
 10  5  1  0
 29 24  1  0
  1 32  1  0
  1 33  1  0
  1 34  1  0
  6 35  1  0
  7 36  1  0
  8 37  1  0
  9 38  1  0
 10 39  1  0
 12 40  1  0
 18 41  1  0
 19 42  1  0
 25 43  1  0
 25 44  1  0
 26 45  1  0
 26 46  1  0
 28 47  1  0
 28 48  1  0
 29 49  1  0
 29 50  1  0
 30 51  1  0
 31 52  1  0
M  CHG  1  16  -1
M  END
>  <UniqueID>  (30) 
30

>  <SMILES>  (30) 
Cc1nn(-c2ccccc2)c(O)c1C(=O)[N-]c1ccc(S(=O)(=O)N2CCOCC2)cc1

>  <Energy>  (30) 
105.54432982445681

>  <Genealogy>  (30) 
Cc1nn(-c2ccccc2)c(O)c1C(=O)[N-]c1ccc(S(=O)(=O)N2CCOCC2)cc1 (protonated)
Cc1nn(-c2ccccc2)c(O)c1C(=O)[N-]c1ccc(S(=O)(=O)N2CCOCC2)cc1 (3D coordinates assigned)
Cc1nn(-c2ccccc2)c(O)c1C(=O)[N-]c1ccc(S(=O)(=O)N2CCOCC2)cc1 (nonaromatic ring conformer: 105.54432982445681 kcal/mol)

>  <smiles>  (30) 
Cc1nn(-c2ccccc2)c(O)c1C(=O)Nc1ccc(S(=O)(=O)N2CCOCC2)cc1

>  <score_type>  (30) 
oracle

>  <origin>  (30) 
adgpu

>  <m_score__min__energy>  (30) 
-10.41

>  <m_primary>  (30) 
energy

$$$$
30:0
     RDKit          3D

 56 59  0  0  0  0  0  0  0  0999 V2000
   -2.4770   18.5730  -25.7750 C   0  0  0  0  0  0  0  0  0  0  0  0
   -2.3820   19.7610  -26.6870 C   0  0  0  0  0  0  0  0  0  0  0  0
   -1.4810   20.7970  -26.4010 C   0  0  0  0  0  0  0  0  0  0  0  0
   -1.3550   21.8850  -27.2710 C   0  0  0  0  0  0  0  0  0  0  0  0
   -2.1300   21.9460  -28.4380 C   0  0  0  0  0  0  0  0  0  0  0  0
   -1.9730   23.2950  -29.5590 S   0  0  0  0  0  0  0  0  0  0  0  0
   -0.5620   23.3360  -30.0790 O   0  0  0  0  0  0  0  0  0  0  0  0
   -2.2580   24.6040  -28.8750 O   0  0  0  0  0  0  0  0  0  0  0  0
   -3.0600   23.0850  -30.8950 N   0  0  0  0  0  0  0  0  0  0  0  0
   -4.4640   23.3870  -30.9090 C   0  0  0  0  0  0  0  0  0  0  0  0
   -5.3610   22.3140  -30.9970 C   0  0  0  0  0  0  0  0  0  0  0  0
   -6.7460   22.5300  -31.0680 C   0  0  0  0  0  0  0  0  0  0  0  0
   -7.6860   21.3900  -31.1810 C   0  0  0  0  0  0  0  0  0  0  0  0
   -8.7450   21.3950  -30.4940 O   0  0  0  0  0  0  0  0  0  0  0  0
   -7.4070   20.2650  -32.0370 N   0  0  0  0  0  0  0  0  0  0  0  0
   -7.7610   18.9150  -31.5750 C   0  0  0  0  0  0  0  0  0  0  0  0
   -7.4760   17.8600  -32.6490 C   0  0  0  0  0  0  0  0  0  0  0  0
   -6.1620   18.1170  -33.2560 N   0  0  0  0  0  0  0  0  0  0  0  0
   -5.1510   17.0910  -33.2860 C   0  0  0  0  0  0  0  0  0  0  0  0
   -4.0710   17.1800  -34.1820 C   0  0  0  0  0  0  0  0  0  0  0  0
   -3.0840   16.1890  -34.2020 C   0  0  0  0  0  0  0  0  0  0  0  0
   -3.1660   15.1020  -33.3280 C   0  0  0  0  0  0  0  0  0  0  0  0
   -4.2340   15.0050  -32.4330 C   0  0  0  0  0  0  0  0  0  0  0  0
   -5.2200   15.9950  -32.4070 C   0  0  0  0  0  0  0  0  0  0  0  0
   -5.8500   19.4600  -33.7740 C   0  0  0  0  0  0  0  0  0  0  0  0
   -6.9510   20.4710  -33.4230 C   0  0  0  0  0  0  0  0  0  0  0  0
   -7.2350   23.8430  -30.9980 C   0  0  0  0  0  0  0  0  0  0  0  0
   -6.3540   24.9180  -30.8650 C   0  0  0  0  0  0  0  0  0  0  0  0
   -4.9710   24.7020  -30.8070 C   0  0  0  0  0  0  0  0  0  0  0  0
   -4.1180   25.7860  -30.6180 O   0  0  0  0  0  0  0  0  0  0  0  0
   -3.0230   20.9060  -28.7310 C   0  0  0  0  0  0  0  0  0  0  0  0
   -3.1440   19.8160  -27.8660 C   0  0  0  0  0  0  0  0  0  0  0  0
   -2.4500   18.9110  -24.7286 H   0  0  0  0  0  0  0  0  0  0  0  0
   -3.4206   18.0402  -25.9640 H   0  0  0  0  0  0  0  0  0  0  0  0
   -1.6300   17.8970  -25.9640 H   0  0  0  0  0  0  0  0  0  0  0  0
   -0.8700   20.7537  -25.4874 H   0  0  0  0  0  0  0  0  0  0  0  0
   -0.6467   22.6941  -27.0393 H   0  0  0  0  0  0  0  0  0  0  0  0
   -4.9730   21.2848  -31.0107 H   0  0  0  0  0  0  0  0  0  0  0  0
   -7.1715   18.6788  -30.6769 H   0  0  0  0  0  0  0  0  0  0  0  0
   -8.8382   18.8982  -31.3527 H   0  0  0  0  0  0  0  0  0  0  0  0
   -7.4780   16.8604  -32.1899 H   0  0  0  0  0  0  0  0  0  0  0  0
   -8.2534   17.9100  -33.4257 H   0  0  0  0  0  0  0  0  0  0  0  0
   -4.0018   18.0343  -34.8715 H   0  0  0  0  0  0  0  0  0  0  0  0
   -2.2426   16.2655  -34.9064 H   0  0  0  0  0  0  0  0  0  0  0  0
   -2.3897   14.3228  -33.3447 H   0  0  0  0  0  0  0  0  0  0  0  0
   -4.2991   14.1475  -31.7471 H   0  0  0  0  0  0  0  0  0  0  0  0
   -6.0549   15.9167  -31.6951 H   0  0  0  0  0  0  0  0  0  0  0  0
   -4.9002   19.8000  -33.3355 H   0  0  0  0  0  0  0  0  0  0  0  0
   -5.7768   19.3977  -34.8698 H   0  0  0  0  0  0  0  0  0  0  0  0
   -6.5540   21.4916  -33.5271 H   0  0  0  0  0  0  0  0  0  0  0  0
   -7.8013   20.3277  -34.1060 H   0  0  0  0  0  0  0  0  0  0  0  0
   -8.3184   24.0266  -31.0482 H   0  0  0  0  0  0  0  0  0  0  0  0
   -6.7490   25.9429  -30.8053 H   0  0  0  0  0  0  0  0  0  0  0  0
   -3.1120   25.6740  -30.5760 H   0  0  0  0  0  0  0  0  0  0  0  0
   -3.6314   20.9485  -29.6465 H   0  0  0  0  0  0  0  0  0  0  0  0
   -3.8382   18.9980  -28.1087 H   0  0  0  0  0  0  0  0  0  0  0  0
  1  2  1  0
  2  3  2  0
  3  4  1  0
  4  5  2  0
  5  6  1  0
  6  7  2  0
  6  8  2  0
  6  9  1  0
  9 10  1  0
 10 11  2  0
 11 12  1  0
 12 13  1  0
 13 14  2  0
 13 15  1  0
 15 16  1  0
 16 17  1  0
 17 18  1  0
 18 19  1  0
 19 20  2  0
 20 21  1  0
 21 22  2  0
 22 23  1  0
 23 24  2  0
 18 25  1  0
 25 26  1  0
 12 27  2  0
 27 28  1  0
 28 29  2  0
 29 30  1  0
  5 31  1  0
 31 32  2  0
 32  2  1  0
 29 10  1  0
 26 15  1  0
 24 19  1  0
  1 33  1  0
  1 34  1  0
  1 35  1  0
  3 36  1  0
  4 37  1  0
 11 38  1  0
 16 39  1  0
 16 40  1  0
 17 41  1  0
 17 42  1  0
 20 43  1  0
 21 44  1  0
 22 45  1  0
 23 46  1  0
 24 47  1  0
 25 48  1  0
 25 49  1  0
 26 50  1  0
 26 51  1  0
 27 52  1  0
 28 53  1  0
 30 54  1  0
 31 55  1  0
 32 56  1  0
M  CHG  1   9  -1
M  END
>  <UniqueID>  (31) 
31

>  <SMILES>  (31) 
Cc1ccc(S(=O)(=O)[N-]c2cc(C(=O)N3CCN(c4ccccc4)CC3)ccc2O)cc1

>  <Energy>  (31) 
75.13410237360695

>  <Genealogy>  (31) 
Cc1ccc(S(=O)(=O)[N-]c2cc(C(=O)N3CCN(c4ccccc4)CC3)ccc2O)cc1 (protonated)
Cc1ccc(S(=O)(=O)[N-]c2cc(C(=O)N3CCN(c4ccccc4)CC3)ccc2O)cc1 (3D coordinates assigned)
Cc1ccc(S(=O)(=O)[N-]c2cc(C(=O)N3CCN(c4ccccc4)CC3)ccc2O)cc1 (nonaromatic ring conformer: 75.13410237360695 kcal/mol)

>  <smiles>  (31) 
Cc1ccc(S(=O)(=O)Nc2cc(C(=O)N3CCN(c4ccccc4)CC3)ccc2O)cc1

>  <score_type>  (31) 
oracle

>  <origin>  (31) 
adgpu

>  <m_score__min__energy>  (31) 
-11.779999999999999

>  <m_primary>  (31) 
energy

$$$$
31:0
     RDKit          3D

 58 61  0  0  0  0  0  0  0  0999 V2000
   -4.2520   25.6730  -30.9700 O   0  0  0  0  0  0  0  0  0  0  0  0
   -3.8500   24.9290  -30.0390 C   0  0  0  0  0  0  0  0  0  0  0  0
   -2.6380   25.2470  -29.3470 N   0  0  0  0  0  0  0  0  0  0  0  0
   -1.6210   24.2910  -29.0300 C   0  0  0  0  0  0  0  0  0  0  0  0
   -0.7860   24.5190  -27.9320 C   0  0  0  0  0  0  0  0  0  0  0  0
    0.1560   23.5570  -27.5560 C   0  0  0  0  0  0  0  0  0  0  0  0
    0.2430   22.3510  -28.2530 C   0  0  0  0  0  0  0  0  0  0  0  0
   -0.6000   22.1060  -29.3440 C   0  0  0  0  0  0  0  0  0  0  0  0
   -0.5730   20.5370  -30.1410 S   0  0  0  0  0  0  0  0  0  0  0  0
    0.3460   19.6020  -29.4010 O   0  0  0  0  0  0  0  0  0  0  0  0
   -1.9600   19.9590  -30.1280 O   0  0  0  0  0  0  0  0  0  0  0  0
   -0.0240   20.7380  -31.7860 N   0  0  0  0  0  0  0  0  0  0  0  0
    0.3060   19.4350  -32.4090 C   0  0  0  0  0  0  0  0  0  0  0  0
   -0.7610   18.9850  -33.4200 C   0  0  0  0  0  0  0  0  0  0  0  0
   -0.9680   19.9190  -34.4680 O   0  0  0  0  0  0  0  0  0  0  0  0
   -0.8300   21.2760  -34.0630 C   0  0  0  0  0  0  0  0  0  0  0  0
   -1.0190   21.5060  -32.5550 C   0  0  0  0  0  0  0  0  0  0  0  0
   -1.5230   23.0820  -29.7370 C   0  0  0  0  0  0  0  0  0  0  0  0
   -4.6030   23.7560  -29.7210 N   0  0  0  0  0  0  0  0  0  0  0  0
   -5.4910   23.0450  -30.6010 C   0  0  0  0  0  0  0  0  0  0  0  0
   -6.8510   23.3730  -30.6890 C   0  0  0  0  0  0  0  0  0  0  0  0
   -7.6970   22.6350  -31.5120 C   0  0  0  0  0  0  0  0  0  0  0  0
   -7.1980   21.5780  -32.2710 C   0  0  0  0  0  0  0  0  0  0  0  0
   -5.8380   21.2570  -32.2270 C   0  0  0  0  0  0  0  0  0  0  0  0
   -5.2340   19.9150  -33.2150 S   0  0  0  0  0  0  0  0  0  0  0  0
   -3.8160   20.1950  -33.6300 O   0  0  0  0  0  0  0  0  0  0  0  0
   -6.0620   19.8290  -34.4670 O   0  0  0  0  0  0  0  0  0  0  0  0
   -5.3050   18.3750  -32.3820 N   0  0  0  0  0  0  0  0  0  0  0  0
   -5.3610   17.2580  -33.3290 C   0  0  0  0  0  0  0  0  0  0  0  0
   -6.8190   16.8580  -33.5020 C   0  0  0  0  0  0  0  0  0  0  0  0
   -7.5570   17.4830  -32.3400 C   0  0  0  0  0  0  0  0  0  0  0  0
   -6.5080   18.2590  -31.5550 C   0  0  0  0  0  0  0  0  0  0  0  0
   -4.9760   22.0070  -31.4060 C   0  0  0  0  0  0  0  0  0  0  0  0
   -3.6160   21.7080  -31.3850 O   0  0  0  0  0  0  0  0  0  0  0  0
   -0.8704   25.4567  -27.3632 H   0  0  0  0  0  0  0  0  0  0  0  0
    0.8302   23.7510  -26.7088 H   0  0  0  0  0  0  0  0  0  0  0  0
    0.9758   21.5908  -27.9445 H   0  0  0  0  0  0  0  0  0  0  0  0
    1.2707   19.5260  -32.9297 H   0  0  0  0  0  0  0  0  0  0  0  0
    0.3509   18.6812  -31.6091 H   0  0  0  0  0  0  0  0  0  0  0  0
   -0.4430   18.0290  -33.8616 H   0  0  0  0  0  0  0  0  0  0  0  0
   -1.7108   18.8921  -32.8729 H   0  0  0  0  0  0  0  0  0  0  0  0
    0.1780   21.6180  -34.3404 H   0  0  0  0  0  0  0  0  0  0  0  0
   -1.6263   21.8399  -34.5709 H   0  0  0  0  0  0  0  0  0  0  0  0
   -0.8986   22.5769  -32.3345 H   0  0  0  0  0  0  0  0  0  0  0  0
   -2.0263   21.1700  -32.2679 H   0  0  0  0  0  0  0  0  0  0  0  0
   -2.1750   22.9009  -30.6043 H   0  0  0  0  0  0  0  0  0  0  0  0
   -7.2508   24.2159  -30.1061 H   0  0  0  0  0  0  0  0  0  0  0  0
   -8.7663   22.8877  -31.5636 H   0  0  0  0  0  0  0  0  0  0  0  0
   -7.8778   20.9932  -32.9081 H   0  0  0  0  0  0  0  0  0  0  0  0
   -4.9421   17.5688  -34.2975 H   0  0  0  0  0  0  0  0  0  0  0  0
   -4.7747   16.4077  -32.9506 H   0  0  0  0  0  0  0  0  0  0  0  0
   -7.2110   17.2412  -34.4557 H   0  0  0  0  0  0  0  0  0  0  0  0
   -6.9402   15.7648  -33.5184 H   0  0  0  0  0  0  0  0  0  0  0  0
   -8.3425   18.1612  -32.7047 H   0  0  0  0  0  0  0  0  0  0  0  0
   -8.0506   16.7230  -31.7166 H   0  0  0  0  0  0  0  0  0  0  0  0
   -6.8909   19.2615  -31.3133 H   0  0  0  0  0  0  0  0  0  0  0  0
   -6.2731   17.7347  -30.6169 H   0  0  0  0  0  0  0  0  0  0  0  0
   -3.2490   20.8010  -31.6460 H   0  0  0  0  0  0  0  0  0  0  0  0
  1  2  2  0
  2  3  1  0
  3  4  1  0
  4  5  2  0
  5  6  1  0
  6  7  2  0
  7  8  1  0
  8  9  1  0
  9 10  2  0
  9 11  2  0
  9 12  1  0
 12 13  1  0
 13 14  1  0
 14 15  1  0
 15 16  1  0
 16 17  1  0
  8 18  2  0
  2 19  1  0
 19 20  1  0
 20 21  2  0
 21 22  1  0
 22 23  2  0
 23 24  1  0
 24 25  1  0
 25 26  2  0
 25 27  2  0
 25 28  1  0
 28 29  1  0
 29 30  1  0
 30 31  1  0
 31 32  1  0
 24 33  2  0
 33 34  1  0
 18  4  1  0
 33 20  1  0
 17 12  1  0
 32 28  1  0
  5 35  1  0
  6 36  1  0
  7 37  1  0
 13 38  1  0
 13 39  1  0
 14 40  1  0
 14 41  1  0
 16 42  1  0
 16 43  1  0
 17 44  1  0
 17 45  1  0
 18 46  1  0
 21 47  1  0
 22 48  1  0
 23 49  1  0
 29 50  1  0
 29 51  1  0
 30 52  1  0
 30 53  1  0
 31 54  1  0
 31 55  1  0
 32 56  1  0
 32 57  1  0
 34 58  1  0
M  CHG  2   3  -1  19  -1
M  END
>  <UniqueID>  (32) 
32

>  <SMILES>  (32) 
O=C([N-]c1cccc(S(=O)(=O)N2CCOCC2)c1)[N-]c1cccc(S(=O)(=O)N2CCCC2)c1O

>  <Energy>  (32) 
83.34440853562353

>  <Genealogy>  (32) 
O=C([N-]c1cccc(S(=O)(=O)N2CCOCC2)c1)[N-]c1cccc(S(=O)(=O)N2CCCC2)c1O (protonated)
O=C([N-]c1cccc(S(=O)(=O)N2CCOCC2)c1)[N-]c1cccc(S(=O)(=O)N2CCCC2)c1O (3D coordinates assigned)
O=C([N-]c1cccc(S(=O)(=O)N2CCOCC2)c1)[N-]c1cccc(S(=O)(=O)N2CCCC2)c1O (nonaromatic ring conformer: 83.34440853562353 kcal/mol)

>  <smiles>  (32) 
O=C(Nc1cccc(S(=O)(=O)N2CCOCC2)c1)Nc1cccc(S(=O)(=O)N2CCCC2)c1O

>  <score_type>  (32) 
oracle

>  <origin>  (32) 
adgpu

>  <m_score__min__energy>  (32) 
-14.710000000000001

>  <m_primary>  (32) 
energy

$$$$
32:0
     RDKit          3D

 57 60  0  0  0  0  0  0  0  0999 V2000
   -8.7380   22.5190  -31.5950 C   0  0  0  0  0  0  0  0  0  0  0  0
   -7.6550   21.5580  -31.9890 C   0  0  0  0  0  0  0  0  0  0  0  0
   -7.9680   20.2250  -32.3010 C   0  0  0  0  0  0  0  0  0  0  0  0
   -6.9530   19.3200  -32.6230 C   0  0  0  0  0  0  0  0  0  0  0  0
   -5.6190   19.7370  -32.6320 C   0  0  0  0  0  0  0  0  0  0  0  0
   -5.2910   21.0680  -32.3290 C   0  0  0  0  0  0  0  0  0  0  0  0
   -3.8760   21.4960  -32.3320 C   0  0  0  0  0  0  0  0  0  0  0  0
   -3.4730   22.2290  -33.2750 O   0  0  0  0  0  0  0  0  0  0  0  0
   -2.9660   21.1210  -31.2730 N   0  0  0  0  0  0  0  0  0  0  0  0
   -3.4860   20.8060  -29.9270 C   0  0  0  0  0  0  0  0  0  0  0  0
   -2.3900   20.9230  -28.8570 C   0  0  0  0  0  0  0  0  0  0  0  0
   -1.5520   22.0990  -29.1320 N   0  0  0  0  0  0  0  0  0  0  0  0
   -1.3670   23.1220  -28.1350 C   0  0  0  0  0  0  0  0  0  0  0  0
   -1.6390   24.4670  -28.4360 C   0  0  0  0  0  0  0  0  0  0  0  0
   -1.4360   25.4630  -27.4760 C   0  0  0  0  0  0  0  0  0  0  0  0
   -0.9470   25.1310  -26.2050 C   0  0  0  0  0  0  0  0  0  0  0  0
   -0.7120   26.3890  -24.9840 S   0  0  0  0  0  0  0  0  0  0  0  0
   -0.5790   27.7190  -25.6720 O   0  0  0  0  0  0  0  0  0  0  0  0
   -1.9260   26.4450  -24.0980 O   0  0  0  0  0  0  0  0  0  0  0  0
    0.7020   26.1130  -23.9950 N   0  0  0  0  0  0  0  0  0  0  0  0
    1.1990   27.3400  -23.3650 C   0  0  0  0  0  0  0  0  0  0  0  0
    2.6950   27.1440  -23.1410 C   0  0  0  0  0  0  0  0  0  0  0  0
    3.0810   25.9380  -23.9880 C   0  0  0  0  0  0  0  0  0  0  0  0
    1.8240   25.5790  -24.7650 C   0  0  0  0  0  0  0  0  0  0  0  0
   -0.6740   23.7910  -25.9010 C   0  0  0  0  0  0  0  0  0  0  0  0
   -0.8770   22.7940  -26.8590 C   0  0  0  0  0  0  0  0  0  0  0  0
   -0.9490   22.2630  -30.4650 C   0  0  0  0  0  0  0  0  0  0  0  0
   -1.5130   21.2440  -31.4610 C   0  0  0  0  0  0  0  0  0  0  0  0
   -6.3130   21.9690  -31.9830 C   0  0  0  0  0  0  0  0  0  0  0  0
   -8.7990   22.5731  -30.4980 H   0  0  0  0  0  0  0  0  0  0  0  0
   -8.5084   23.5160  -31.9991 H   0  0  0  0  0  0  0  0  0  0  0  0
   -9.7006   22.1724  -31.9991 H   0  0  0  0  0  0  0  0  0  0  0  0
   -9.0163   19.8919  -32.2919 H   0  0  0  0  0  0  0  0  0  0  0  0
   -7.2043   18.2779  -32.8697 H   0  0  0  0  0  0  0  0  0  0  0  0
   -4.8226   19.0191  -32.8776 H   0  0  0  0  0  0  0  0  0  0  0  0
   -4.2981   21.5073  -29.6847 H   0  0  0  0  0  0  0  0  0  0  0  0
   -3.8522   19.7688  -29.9331 H   0  0  0  0  0  0  0  0  0  0  0  0
   -2.8561   21.0299  -27.8664 H   0  0  0  0  0  0  0  0  0  0  0  0
   -1.7649   20.0181  -28.8757 H   0  0  0  0  0  0  0  0  0  0  0  0
   -2.0142   24.7384  -29.4338 H   0  0  0  0  0  0  0  0  0  0  0  0
   -1.6611   26.5119  -27.7192 H   0  0  0  0  0  0  0  0  0  0  0  0
    0.4470   25.4260  -23.2460 H   0  0  0  0  0  0  0  0  0  0  0  0
    1.0245   28.2024  -24.0252 H   0  0  0  0  0  0  0  0  0  0  0  0
    0.6794   27.5351  -22.4153 H   0  0  0  0  0  0  0  0  0  0  0  0
    3.2520   28.0353  -23.4655 H   0  0  0  0  0  0  0  0  0  0  0  0
    2.9305   26.9872  -22.0780 H   0  0  0  0  0  0  0  0  0  0  0  0
    3.8996   26.1958  -24.6761 H   0  0  0  0  0  0  0  0  0  0  0  0
    3.4375   25.0994  -23.3718 H   0  0  0  0  0  0  0  0  0  0  0  0
    1.8510   26.0349  -25.7657 H   0  0  0  0  0  0  0  0  0  0  0  0
    1.7345   24.4912  -24.9020 H   0  0  0  0  0  0  0  0  0  0  0  0
   -0.2978   23.5222  -24.9029 H   0  0  0  0  0  0  0  0  0  0  0  0
   -0.6519   21.7458  -26.6129 H   0  0  0  0  0  0  0  0  0  0  0  0
   -1.1615   23.2780  -30.8319 H   0  0  0  0  0  0  0  0  0  0  0  0
    0.1353   22.0995  -30.3778 H   0  0  0  0  0  0  0  0  0  0  0  0
   -1.3041   21.5810  -32.4870 H   0  0  0  0  0  0  0  0  0  0  0  0
   -1.0390   20.2662  -31.2903 H   0  0  0  0  0  0  0  0  0  0  0  0
   -6.0593   23.0028  -31.7058 H   0  0  0  0  0  0  0  0  0  0  0  0
  1  2  1  0
  2  3  2  0
  3  4  1  0
  4  5  2  0
  5  6  1  0
  6  7  1  0
  7  8  2  0
  7  9  1  0
  9 10  1  0
 10 11  1  0
 11 12  1  0
 12 13  1  0
 13 14  2  0
 14 15  1  0
 15 16  2  0
 16 17  1  0
 17 18  2  0
 17 19  2  0
 17 20  1  0
 20 21  1  0
 21 22  1  0
 22 23  1  0
 23 24  1  0
 16 25  1  0
 25 26  2  0
 12 27  1  0
 27 28  1  0
  6 29  2  0
 29  2  1  0
 28  9  1  0
 26 13  1  0
 24 20  1  0
  1 30  1  0
  1 31  1  0
  1 32  1  0
  3 33  1  0
  4 34  1  0
  5 35  1  0
 10 36  1  0
 10 37  1  0
 11 38  1  0
 11 39  1  0
 14 40  1  0
 15 41  1  0
 20 42  1  0
 21 43  1  0
 21 44  1  0
 22 45  1  0
 22 46  1  0
 23 47  1  0
 23 48  1  0
 24 49  1  0
 24 50  1  0
 25 51  1  0
 26 52  1  0
 27 53  1  0
 27 54  1  0
 28 55  1  0
 28 56  1  0
 29 57  1  0
M  CHG  1  20   1
M  END
>  <UniqueID>  (33) 
33

>  <SMILES>  (33) 
Cc1cccc(C(=O)N2CCN(c3ccc(S(=O)(=O)[NH+]4CCCC4)cc3)CC2)c1

>  <Energy>  (33) 
70.09179869075949

>  <Genealogy>  (33) 
Cc1cccc(C(=O)N2CCN(c3ccc(S(=O)(=O)[NH+]4CCCC4)cc3)CC2)c1 (protonated)
Cc1cccc(C(=O)N2CCN(c3ccc(S(=O)(=O)[NH+]4CCCC4)cc3)CC2)c1 (3D coordinates assigned)
Cc1cccc(C(=O)N2CCN(c3ccc(S(=O)(=O)[NH+]4CCCC4)cc3)CC2)c1 (nonaromatic ring conformer: 70.09179869075949 kcal/mol)

>  <smiles>  (33) 
Cc1cccc(C(=O)N2CCN(c3ccc(S(=O)(=O)N4CCCC4)cc3)CC2)c1

>  <score_type>  (33) 
oracle

>  <origin>  (33) 
adgpu

>  <m_score__min__energy>  (33) 
-10.19

>  <m_primary>  (33) 
energy

$$$$
33:0
     RDKit          3D

 63 66  0  0  0  0  0  0  0  0999 V2000
    4.0880   18.7890  -33.9610 C   0  0  0  0  0  0  0  0  0  0  0  0
    3.4070   20.0180  -33.7300 O   0  0  0  0  0  0  0  0  0  0  0  0
    2.1540   20.3500  -34.2690 C   0  0  0  0  0  0  0  0  0  0  0  0
    1.0080   20.4720  -33.4570 C   0  0  0  0  0  0  0  0  0  0  0  0
   -0.2260   20.8450  -34.0110 C   0  0  0  0  0  0  0  0  0  0  0  0
   -1.4310   20.9530  -33.1590 C   0  0  0  0  0  0  0  0  0  0  0  0
   -1.4100   21.7890  -32.0280 C   0  0  0  0  0  0  0  0  0  0  0  0
   -2.5460   21.9240  -31.2090 C   0  0  0  0  0  0  0  0  0  0  0  0
   -2.5270   22.8340  -30.0340 C   0  0  0  0  0  0  0  0  0  0  0  0
   -3.7160   23.1400  -29.3480 C   0  0  0  0  0  0  0  0  0  0  0  0
   -3.6990   23.9990  -28.2460 C   0  0  0  0  0  0  0  0  0  0  0  0
   -2.4980   24.5630  -27.7990 C   0  0  0  0  0  0  0  0  0  0  0  0
   -2.5190   25.4600  -26.6750 N   0  0  0  0  0  0  0  0  0  0  0  0
   -1.5440   25.4650  -25.6190 C   0  0  0  0  0  0  0  0  0  0  0  0
   -1.5970   26.5210  -24.5620 C   0  0  0  0  0  0  0  0  0  0  0  0
   -0.7020   24.5310  -25.5160 O   0  0  0  0  0  0  0  0  0  0  0  0
   -1.3110   24.2830  -28.4990 C   0  0  0  0  0  0  0  0  0  0  0  0
   -1.3240   23.4200  -29.5980 C   0  0  0  0  0  0  0  0  0  0  0  0
   -3.7060   21.1970  -31.5310 C   0  0  0  0  0  0  0  0  0  0  0  0
   -3.7310   20.3620  -32.6500 C   0  0  0  0  0  0  0  0  0  0  0  0
   -2.6030   20.2360  -33.4640 C   0  0  0  0  0  0  0  0  0  0  0  0
   -2.6490   19.3850  -34.5630 O   0  0  0  0  0  0  0  0  0  0  0  0
   -0.3120   21.1070  -35.3860 C   0  0  0  0  0  0  0  0  0  0  0  0
    0.8200   20.9950  -36.1950 C   0  0  0  0  0  0  0  0  0  0  0  0
    2.0450   20.5910  -35.6540 C   0  0  0  0  0  0  0  0  0  0  0  0
    3.1740   20.4770  -36.5290 N   0  0  0  0  0  0  0  0  0  0  0  0
    4.0620   21.5510  -36.8640 C   0  0  0  0  0  0  0  0  0  0  0  0
    4.4020   21.7520  -38.0620 O   0  0  0  0  0  0  0  0  0  0  0  0
    4.5680   22.4520  -35.7890 C   0  0  0  0  0  0  0  0  0  0  0  0
    3.5050   23.2850  -35.3320 O   0  0  0  0  0  0  0  0  0  0  0  0
    3.5780   24.6790  -35.1780 C   0  0  0  0  0  0  0  0  0  0  0  0
    4.6870   25.2850  -34.5490 C   0  0  0  0  0  0  0  0  0  0  0  0
    4.7650   26.6730  -34.4320 C   0  0  0  0  0  0  0  0  0  0  0  0
    3.7440   27.4750  -34.9360 C   0  0  0  0  0  0  0  0  0  0  0  0
    2.6330   26.8920  -35.5470 C   0  0  0  0  0  0  0  0  0  0  0  0
    2.5270   25.4920  -35.6720 C   0  0  0  0  0  0  0  0  0  0  0  0
    1.3160   24.9120  -36.3110 C   0  0  0  0  0  0  0  0  0  0  0  0
    1.4090   23.7970  -37.1950 N   0  0  0  0  0  0  0  0  0  0  0  0
    0.1780   25.3900  -36.0590 O   0  0  0  0  0  0  0  0  0  0  0  0
    4.3449   18.3254  -32.9971 H   0  0  0  0  0  0  0  0  0  0  0  0
    3.4370   18.1108  -34.5322 H   0  0  0  0  0  0  0  0  0  0  0  0
    5.0082   18.9814  -34.5322 H   0  0  0  0  0  0  0  0  0  0  0  0
    1.0820   20.2727  -32.3777 H   0  0  0  0  0  0  0  0  0  0  0  0
   -0.4934   22.3445  -31.7806 H   0  0  0  0  0  0  0  0  0  0  0  0
   -4.6671   22.6995  -29.6817 H   0  0  0  0  0  0  0  0  0  0  0  0
   -4.6385   24.2344  -27.7245 H   0  0  0  0  0  0  0  0  0  0  0  0
   -3.3470   26.0870  -26.5670 H   0  0  0  0  0  0  0  0  0  0  0  0
   -1.5732   26.0477  -23.5693 H   0  0  0  0  0  0  0  0  0  0  0  0
   -0.7314   27.1912  -24.6695 H   0  0  0  0  0  0  0  0  0  0  0  0
   -2.5254   27.1011  -24.6695 H   0  0  0  0  0  0  0  0  0  0  0  0
   -0.3660   24.7464  -28.1794 H   0  0  0  0  0  0  0  0  0  0  0  0
   -0.3857   23.1967  -30.1270 H   0  0  0  0  0  0  0  0  0  0  0  0
   -4.6002   21.2868  -30.8967 H   0  0  0  0  0  0  0  0  0  0  0  0
   -4.6450   19.7998  -32.8920 H   0  0  0  0  0  0  0  0  0  0  0  0
   -1.2749   21.4018  -35.8286 H   0  0  0  0  0  0  0  0  0  0  0  0
    0.7480   21.2266  -37.2679 H   0  0  0  0  0  0  0  0  0  0  0  0
    4.9471   21.8478  -34.9516 H   0  0  0  0  0  0  0  0  0  0  0  0
    5.3814   23.0775  -36.1855 H   0  0  0  0  0  0  0  0  0  0  0  0
    5.4965   24.6575  -34.1477 H   0  0  0  0  0  0  0  0  0  0  0  0
    5.6343   27.1347  -33.9409 H   0  0  0  0  0  0  0  0  0  0  0  0
    3.8134   28.5696  -34.8523 H   0  0  0  0  0  0  0  0  0  0  0  0
    1.8290   27.5338  -35.9364 H   0  0  0  0  0  0  0  0  0  0  0  0
    2.1340   23.0570  -37.0620 H   0  0  0  0  0  0  0  0  0  0  0  0
  1  2  1  0
  2  3  1  0
  3  4  2  0
  4  5  1  0
  5  6  1  0
  6  7  2  0
  7  8  1  0
  8  9  1  0
  9 10  2  0
 10 11  1  0
 11 12  2  0
 12 13  1  0
 13 14  1  0
 14 15  1  0
 14 16  2  0
 12 17  1  0
 17 18  2  0
  8 19  2  0
 19 20  1  0
 20 21  2  0
 21 22  1  0
  5 23  2  0
 23 24  1  0
 24 25  2  0
 25 26  1  0
 26 27  1  0
 27 28  2  0
 27 29  1  0
 29 30  1  0
 30 31  1  0
 31 32  2  0
 32 33  1  0
 33 34  2  0
 34 35  1  0
 35 36  2  0
 36 37  1  0
 37 38  1  0
 37 39  2  0
 25  3  1  0
 36 31  1  0
 21  6  1  0
 18  9  1  0
  1 40  1  0
  1 41  1  0
  1 42  1  0
  4 43  1  0
  7 44  1  0
 10 45  1  0
 11 46  1  0
 13 47  1  0
 15 48  1  0
 15 49  1  0
 15 50  1  0
 17 51  1  0
 18 52  1  0
 19 53  1  0
 20 54  1  0
 23 55  1  0
 24 56  1  0
 29 57  1  0
 29 58  1  0
 32 59  1  0
 33 60  1  0
 34 61  1  0
 35 62  1  0
 38 63  1  0
M  CHG  3  22  -1  26  -1  38  -1
M  END
>  <UniqueID>  (34) 
34

>  <SMILES>  (34) 
COc1cc(-c2cc(-c3ccc(NC(C)=O)cc3)ccc2[O-])ccc1[N-]C(=O)COc1ccccc1C([NH-])=O

>  <Energy>  (34) 
86.9663940531146

>  <Genealogy>  (34) 
COc1cc(-c2cc(-c3ccc(NC(C)=O)cc3)ccc2[O-])ccc1[N-]C(=O)COc1ccccc1C([NH-])=O (protonated)
COc1cc(-c2cc(-c3ccc(NC(C)=O)cc3)ccc2[O-])ccc1[N-]C(=O)COc1ccccc1C([NH-])=O (3D coordinates assigned)
COc1cc(-c2cc(-c3ccc(NC(C)=O)cc3)ccc2[O-])ccc1[N-]C(=O)COc1ccccc1C([NH-])=O (optimized conformer: 86.9663940531146 kcal/mol)

>  <smiles>  (34) 
COc1cc(-c2cc(-c3ccc(NC(C)=O)cc3)ccc2O)ccc1NC(=O)COc1ccccc1C(N)=O

>  <score_type>  (34) 
oracle

>  <origin>  (34) 
adgpu

>  <m_score__min__energy>  (34) 
-13.710000000000001

>  <m_primary>  (34) 
energy

$$$$
34:0
     RDKit          3D

 41 43  0  0  0  0  0  0  0  0999 V2000
   -4.6350   14.4370  -32.8400 C   0  0  0  0  0  0  0  0  0  0  0  0
   -5.1290   14.8560  -34.2190 C   0  0  0  0  0  0  0  0  0  0  0  0
   -5.7250   16.1870  -34.1570 N   0  0  0  0  0  0  0  0  0  0  0  0
   -6.5480   16.6350  -33.1920 C   0  0  0  0  0  0  0  0  0  0  0  0
   -6.8070   17.9620  -33.4470 C   0  0  0  0  0  0  0  0  0  0  0  0
   -7.7500   19.0570  -32.4530 S   0  0  0  0  0  0  0  0  0  0  0  0
   -8.0360   18.3990  -31.1320 O   0  0  0  0  0  0  0  0  0  0  0  0
   -9.0470   19.3870  -33.1370 O   0  0  0  0  0  0  0  0  0  0  0  0
   -6.8260   20.5380  -32.2280 C   0  0  0  0  0  0  0  0  0  0  0  0
   -7.4700   21.7740  -32.0830 C   0  0  0  0  0  0  0  0  0  0  0  0
   -6.7270   22.9250  -31.7990 C   0  0  0  0  0  0  0  0  0  0  0  0
   -5.3390   22.8450  -31.6360 C   0  0  0  0  0  0  0  0  0  0  0  0
   -4.6080   24.0200  -31.2600 N   0  0  0  0  0  0  0  0  0  0  0  0
   -4.2990   24.4030  -29.9120 C   0  0  0  0  0  0  0  0  0  0  0  0
   -4.9890   25.3050  -29.3670 O   0  0  0  0  0  0  0  0  0  0  0  0
   -3.2320   23.7250  -29.1330 C   0  0  0  0  0  0  0  0  0  0  0  0
   -3.4400   22.4220  -28.6430 C   0  0  0  0  0  0  0  0  0  0  0  0
   -2.4340   21.7630  -27.9320 C   0  0  0  0  0  0  0  0  0  0  0  0
   -2.7040   20.1330  -27.3410 Cl  0  0  0  0  0  0  0  0  0  0  0  0
   -1.2160   22.4030  -27.6850 C   0  0  0  0  0  0  0  0  0  0  0  0
   -1.0050   23.7030  -28.1500 C   0  0  0  0  0  0  0  0  0  0  0  0
   -2.0040   24.3670  -28.8710 C   0  0  0  0  0  0  0  0  0  0  0  0
   -1.7590   25.6540  -29.3400 O   0  0  0  0  0  0  0  0  0  0  0  0
   -4.6890   21.6140  -31.8350 C   0  0  0  0  0  0  0  0  0  0  0  0
   -5.4320   20.4680  -32.1250 C   0  0  0  0  0  0  0  0  0  0  0  0
   -6.0950   18.2690  -34.5890 C   0  0  0  0  0  0  0  0  0  0  0  0
   -5.4350   17.1670  -35.0010 N   0  0  0  0  0  0  0  0  0  0  0  0
   -5.2320   14.9433  -32.0672 H   0  0  0  0  0  0  0  0  0  0  0  0
   -4.7391   13.3476  -32.7286 H   0  0  0  0  0  0  0  0  0  0  0  0
   -3.5772   14.7175  -32.7286 H   0  0  0  0  0  0  0  0  0  0  0  0
   -4.2815   14.8695  -34.9201 H   0  0  0  0  0  0  0  0  0  0  0  0
   -5.8883   14.1379  -34.5622 H   0  0  0  0  0  0  0  0  0  0  0  0
   -6.9428   16.0465  -32.3507 H   0  0  0  0  0  0  0  0  0  0  0  0
   -8.5625   21.8395  -32.1927 H   0  0  0  0  0  0  0  0  0  0  0  0
   -7.2352   23.8959  -31.7035 H   0  0  0  0  0  0  0  0  0  0  0  0
   -4.4018   21.9188  -28.8212 H   0  0  0  0  0  0  0  0  0  0  0  0
   -0.4246   21.8833  -27.1250 H   0  0  0  0  0  0  0  0  0  0  0  0
   -0.0486   24.2076  -27.9485 H   0  0  0  0  0  0  0  0  0  0  0  0
   -3.5931   21.5538  -31.7621 H   0  0  0  0  0  0  0  0  0  0  0  0
   -4.9195   19.5060  -32.2732 H   0  0  0  0  0  0  0  0  0  0  0  0
   -6.0699   19.2518  -35.0825 H   0  0  0  0  0  0  0  0  0  0  0  0
  1  2  1  0
  2  3  1  0
  3  4  1  0
  4  5  2  0
  5  6  1  0
  6  7  2  0
  6  8  2  0
  6  9  1  0
  9 10  2  0
 10 11  1  0
 11 12  2  0
 12 13  1  0
 13 14  1  0
 14 15  2  0
 14 16  1  0
 16 17  2  0
 17 18  1  0
 18 19  1  0
 18 20  2  0
 20 21  1  0
 21 22  2  0
 22 23  1  0
 12 24  1  0
 24 25  2  0
  5 26  1  0
 26 27  2  0
 27  3  1  0
 25  9  1  0
 22 16  1  0
  1 28  1  0
  1 29  1  0
  1 30  1  0
  2 31  1  0
  2 32  1  0
  4 33  1  0
 10 34  1  0
 11 35  1  0
 17 36  1  0
 20 37  1  0
 21 38  1  0
 24 39  1  0
 25 40  1  0
 26 41  1  0
M  CHG  2  13  -1  23  -1
M  END
>  <UniqueID>  (35) 
35

>  <SMILES>  (35) 
CCn1cc(S(=O)(=O)c2ccc([N-]C(=O)c3cc(Cl)ccc3[O-])cc2)cn1

>  <Energy>  (35) 
77.8050309825851

>  <Genealogy>  (35) 
CCn1cc(S(=O)(=O)c2ccc([N-]C(=O)c3cc(Cl)ccc3[O-])cc2)cn1 (protonated)
CCn1cc(S(=O)(=O)c2ccc([N-]C(=O)c3cc(Cl)ccc3[O-])cc2)cn1 (3D coordinates assigned)
CCn1cc(S(=O)(=O)c2ccc([N-]C(=O)c3cc(Cl)ccc3[O-])cc2)cn1 (optimized conformer: 77.8050309825851 kcal/mol)

>  <smiles>  (35) 
CCn1cc(S(=O)(=O)c2ccc(NC(=O)c3cc(Cl)ccc3O)cc2)cn1

>  <score_type>  (35) 
oracle

>  <origin>  (35) 
adgpu

>  <m_score__min__energy>  (35) 
-13.58

>  <m_primary>  (35) 
energy

$$$$
35:0
     RDKit          3D

 64 68  0  0  0  0  0  0  0  0999 V2000
   -6.5080   17.1690  -30.8460 C   0  0  0  0  0  0  0  0  0  0  0  0
   -7.3820   17.8720  -31.8880 C   0  0  1  0  0  0  0  0  0  0  0  0
   -8.6440   18.5050  -31.2330 C   0  0  0  0  0  0  0  0  0  0  0  0
   -8.4810   19.9590  -31.5080 C   0  0  0  0  0  0  0  0  0  0  0  0
   -9.3550   20.9970  -31.1780 C   0  0  0  0  0  0  0  0  0  0  0  0
   -9.0440   22.2980  -31.6010 C   0  0  0  0  0  0  0  0  0  0  0  0
   -7.8760   22.5380  -32.3500 C   0  0  0  0  0  0  0  0  0  0  0  0
   -7.0150   21.4770  -32.6780 C   0  0  0  0  0  0  0  0  0  0  0  0
   -7.3440   20.1910  -32.2340 C   0  0  0  0  0  0  0  0  0  0  0  0
   -6.6510   18.9850  -32.5060 N   0  0  0  0  0  0  0  0  0  0  0  0
   -5.4480   18.7890  -33.7470 S   0  0  0  0  0  0  0  0  0  0  0  0
   -6.0010   19.2780  -35.0550 O   0  0  0  0  0  0  0  0  0  0  0  0
   -5.1120   17.3290  -33.8780 O   0  0  0  0  0  0  0  0  0  0  0  0
   -3.9820   19.7110  -33.3880 C   0  0  0  0  0  0  0  0  0  0  0  0
   -3.9820   21.1110  -33.4750 C   0  0  0  0  0  0  0  0  0  0  0  0
   -2.8270   21.8350  -33.1830 C   0  0  0  0  0  0  0  0  0  0  0  0
   -1.6470   21.1710  -32.8530 C   0  0  0  0  0  0  0  0  0  0  0  0
   -1.6100   19.7730  -32.8160 C   0  0  0  0  0  0  0  0  0  0  0  0
   -0.3540   19.1310  -32.5660 N   0  0  0  0  0  0  0  0  0  0  0  0
    0.7820   19.7980  -32.0060 C   0  0  0  0  0  0  0  0  0  0  0  0
    1.6150   20.3760  -32.7580 O   0  0  0  0  0  0  0  0  0  0  0  0
    0.9290   19.8550  -30.5830 N   0  0  0  0  0  0  0  0  0  0  0  0
   -0.0890   20.2740  -29.6620 C   0  0  0  0  0  0  0  0  0  0  0  0
   -0.5630   19.4210  -28.6490 C   0  0  0  0  0  0  0  0  0  0  0  0
   -1.5650   19.8530  -27.7780 C   0  0  0  0  0  0  0  0  0  0  0  0
   -2.1060   21.1330  -27.9120 C   0  0  0  0  0  0  0  0  0  0  0  0
   -1.6680   21.9820  -28.9380 C   0  0  0  0  0  0  0  0  0  0  0  0
   -2.3640   23.5960  -29.1130 S   0  0  0  0  0  0  0  0  0  0  0  0
   -1.2710   24.5690  -29.4610 O   0  0  0  0  0  0  0  0  0  0  0  0
   -2.9600   24.0210  -27.7980 O   0  0  0  0  0  0  0  0  0  0  0  0
   -3.6010   23.6470  -30.3520 N   0  0  0  0  0  0  0  0  0  0  0  0
   -4.3340   24.9180  -30.3170 C   0  0  0  0  0  0  0  0  0  0  0  0
   -5.6820   24.6570  -29.6740 C   0  0  0  0  0  0  0  0  0  0  0  0
   -5.9620   23.2060  -29.9780 C   0  0  0  0  0  0  0  0  0  0  0  0
   -4.5910   22.5730  -30.1670 C   0  0  0  0  0  0  0  0  0  0  0  0
   -0.6620   21.5440  -29.8130 C   0  0  0  0  0  0  0  0  0  0  0  0
   -2.8000   19.0360  -33.0330 C   0  0  0  0  0  0  0  0  0  0  0  0
   -2.8350   17.6490  -32.8750 O   0  0  0  0  0  0  0  0  0  0  0  0
   -6.8487   17.4430  -29.8366 H   0  0  0  0  0  0  0  0  0  0  0  0
   -6.5866   16.0796  -30.9763 H   0  0  0  0  0  0  0  0  0  0  0  0
   -5.4607   17.4793  -30.9763 H   0  0  0  0  0  0  0  0  0  0  0  0
   -7.6619   17.1062  -32.6264 H   0  0  0  0  0  0  0  0  0  0  0  0
   -9.5640   18.1175  -31.6950 H   0  0  0  0  0  0  0  0  0  0  0  0
   -8.7319   18.2774  -30.1604 H   0  0  0  0  0  0  0  0  0  0  0  0
  -10.2686   20.7986  -30.5983 H   0  0  0  0  0  0  0  0  0  0  0  0
   -9.7141   23.1325  -31.3470 H   0  0  0  0  0  0  0  0  0  0  0  0
   -7.6367   23.5598  -32.6796 H   0  0  0  0  0  0  0  0  0  0  0  0
   -6.1044   21.6529  -33.2695 H   0  0  0  0  0  0  0  0  0  0  0  0
   -4.8983   21.6404  -33.7752 H   0  0  0  0  0  0  0  0  0  0  0  0
   -2.8471   22.9344  -33.2132 H   0  0  0  0  0  0  0  0  0  0  0  0
   -0.7404   21.7489  -32.6205 H   0  0  0  0  0  0  0  0  0  0  0  0
   -0.1428   18.4100  -28.5427 H   0  0  0  0  0  0  0  0  0  0  0  0
   -1.9289   19.1835  -26.9847 H   0  0  0  0  0  0  0  0  0  0  0  0
   -2.8794   21.4769  -27.2094 H   0  0  0  0  0  0  0  0  0  0  0  0
   -3.7738   25.6570  -29.7254 H   0  0  0  0  0  0  0  0  0  0  0  0
   -4.4637   25.3153  -31.3345 H   0  0  0  0  0  0  0  0  0  0  0  0
   -5.6356   24.8262  -28.5881 H   0  0  0  0  0  0  0  0  0  0  0  0
   -6.4673   25.3265  -30.0548 H   0  0  0  0  0  0  0  0  0  0  0  0
   -6.4952   22.7313  -29.1411 H   0  0  0  0  0  0  0  0  0  0  0  0
   -6.5996   23.0849  -30.8661 H   0  0  0  0  0  0  0  0  0  0  0  0
   -4.3314   21.9783  -29.2788 H   0  0  0  0  0  0  0  0  0  0  0  0
   -4.5992   21.9129  -31.0469 H   0  0  0  0  0  0  0  0  0  0  0  0
   -0.3202   22.2033  -30.6245 H   0  0  0  0  0  0  0  0  0  0  0  0
   -3.0790   17.0150  -33.6230 H   0  0  0  0  0  0  0  0  0  0  0  0
  1  2  1  0
  2  3  1  0
  3  4  1  0
  4  5  2  0
  5  6  1  0
  6  7  2  0
  7  8  1  0
  8  9  2  0
  9 10  1  0
 10 11  1  0
 11 12  2  0
 11 13  2  0
 11 14  1  0
 14 15  2  0
 15 16  1  0
 16 17  2  0
 17 18  1  0
 18 19  1  0
 19 20  1  0
 20 21  2  0
 20 22  1  0
 22 23  1  0
 23 24  2  0
 24 25  1  0
 25 26  2  0
 26 27  1  0
 27 28  1  0
 28 29  2  0
 28 30  2  0
 28 31  1  0
 31 32  1  0
 32 33  1  0
 33 34  1  0
 34 35  1  0
 27 36  2  0
 18 37  2  0
 37 38  1  0
 10  2  1  0
 37 14  1  0
  9  4  1  0
 36 23  1  0
 35 31  1  0
  1 39  1  0
  1 40  1  0
  1 41  1  0
  2 42  1  6
  3 43  1  0
  3 44  1  0
  5 45  1  0
  6 46  1  0
  7 47  1  0
  8 48  1  0
 15 49  1  0
 16 50  1  0
 17 51  1  0
 24 52  1  0
 25 53  1  0
 26 54  1  0
 32 55  1  0
 32 56  1  0
 33 57  1  0
 33 58  1  0
 34 59  1  0
 34 60  1  0
 35 61  1  0
 35 62  1  0
 36 63  1  0
 38 64  1  0
M  CHG  2  19  -1  22  -1
M  END
>  <UniqueID>  (36) 
36

>  <SMILES>  (36) 
C[C@H]1Cc2ccccc2N1S(=O)(=O)c1cccc([N-]C(=O)[N-]c2cccc(S(=O)(=O)N3CCCC3)c2)c1O

>  <Energy>  (36) 
95.08116201865501

>  <Genealogy>  (36) 
CC1Cc2ccccc2N1S(=O)(=O)c1cccc([N-]C(=O)[N-]c2cccc(S(=O)(=O)N3CCCC3)c2)c1O (protonated)
C[C@H]1Cc2ccccc2N1S(=O)(=O)c1cccc([N-]C(=O)[N-]c2cccc(S(=O)(=O)N3CCCC3)c2)c1O (chirality)
C[C@H]1Cc2ccccc2N1S(=O)(=O)c1cccc([N-]C(=O)[N-]c2cccc(S(=O)(=O)N3CCCC3)c2)c1O (3D coordinates assigned)
C[C@H]1Cc2ccccc2N1S(=O)(=O)c1cccc([N-]C(=O)[N-]c2cccc(S(=O)(=O)N3CCCC3)c2)c1O (nonaromatic ring conformer: 95.08116201865501 kcal/mol)

>  <smiles>  (36) 
CC1Cc2ccccc2N1S(=O)(=O)c1cccc(NC(=O)Nc2cccc(S(=O)(=O)N3CCCC3)c2)c1O

>  <score_type>  (36) 
oracle

>  <origin>  (36) 
adgpu

>  <m_score__min__energy>  (36) 
-15.25

>  <m_primary>  (36) 
energy

$$$$
36:0
     RDKit          3D

 51 54  0  0  0  0  0  0  0  0999 V2000
   -6.4200   17.4620  -31.2300 C   0  0  0  0  0  0  0  0  0  0  0  0
   -7.4320   17.5140  -32.3700 C   0  0  0  0  0  0  0  0  0  0  0  0
   -7.8100   18.9360  -32.6770 C   0  0  0  0  0  0  0  0  0  0  0  0
   -9.0280   19.2190  -32.8260 O   0  0  0  0  0  0  0  0  0  0  0  0
   -6.8020   19.9550  -32.8190 N   0  0  0  0  0  0  0  0  0  0  0  0
   -5.5310   19.7610  -33.5230 C   0  0  0  0  0  0  0  0  0  0  0  0
   -4.6640   20.9990  -33.2050 C   0  0  0  0  0  0  0  0  0  0  0  0
   -5.5520   21.8310  -32.3510 C   0  0  0  0  0  0  0  0  0  0  0  0
   -5.2530   23.0560  -31.7540 C   0  0  0  0  0  0  0  0  0  0  0  0
   -6.2230   23.6610  -30.9330 C   0  0  0  0  0  0  0  0  0  0  0  0
   -5.8130   25.0650  -29.9490 S   0  0  0  0  0  0  0  0  0  0  0  0
   -7.0810   25.7580  -29.5360 O   0  0  0  0  0  0  0  0  0  0  0  0
   -4.9580   26.0260  -30.7270 O   0  0  0  0  0  0  0  0  0  0  0  0
   -4.9480   24.5380  -28.5380 N   0  0  0  0  0  0  0  0  0  0  0  0
   -3.8660   23.6000  -28.6420 C   0  0  0  0  0  0  0  0  0  0  0  0
   -4.0210   22.2850  -28.1740 C   0  0  0  0  0  0  0  0  0  0  0  0
   -2.9180   21.4270  -28.0950 C   0  0  0  0  0  0  0  0  0  0  0  0
   -1.6630   21.8560  -28.5520 C   0  0  0  0  0  0  0  0  0  0  0  0
   -1.5230   23.1370  -29.1030 C   0  0  0  0  0  0  0  0  0  0  0  0
   -2.6150   24.0110  -29.1370 C   0  0  0  0  0  0  0  0  0  0  0  0
   -2.4440   25.2980  -29.6350 O   0  0  0  0  0  0  0  0  0  0  0  0
   -0.5020   20.9020  -28.4640 C   0  0  0  0  0  0  0  0  0  0  0  0
   -0.4750   20.1690  -27.1070 C   0  0  0  0  0  0  0  0  0  0  0  0
   -1.8690   19.8110  -26.5250 C   0  0  0  0  0  0  0  0  0  0  0  0
   -3.0330   20.0520  -27.4980 C   0  0  0  0  0  0  0  0  0  0  0  0
   -7.4810   23.0460  -30.7680 C   0  0  0  0  0  0  0  0  0  0  0  0
   -7.7580   21.8160  -31.3850 C   0  0  0  0  0  0  0  0  0  0  0  0
   -6.7550   21.2110  -32.1520 C   0  0  0  0  0  0  0  0  0  0  0  0
   -6.9508   17.4893  -30.2669 H   0  0  0  0  0  0  0  0  0  0  0  0
   -5.8358   16.5326  -31.3005 H   0  0  0  0  0  0  0  0  0  0  0  0
   -5.7436   18.3266  -31.3005 H   0  0  0  0  0  0  0  0  0  0  0  0
   -6.9900   17.0557  -33.2670 H   0  0  0  0  0  0  0  0  0  0  0  0
   -8.3355   16.9641  -32.0677 H   0  0  0  0  0  0  0  0  0  0  0  0
   -5.0342   18.8467  -33.1665 H   0  0  0  0  0  0  0  0  0  0  0  0
   -5.6875   19.6509  -34.6062 H   0  0  0  0  0  0  0  0  0  0  0  0
   -3.7517   20.7117  -32.6617 H   0  0  0  0  0  0  0  0  0  0  0  0
   -4.3195   21.5254  -34.1073 H   0  0  0  0  0  0  0  0  0  0  0  0
   -4.2791   23.5391  -31.9215 H   0  0  0  0  0  0  0  0  0  0  0  0
   -5.4020   24.6970  -27.6110 H   0  0  0  0  0  0  0  0  0  0  0  0
   -5.0151   21.9272  -27.8677 H   0  0  0  0  0  0  0  0  0  0  0  0
   -0.5521   23.4561  -29.5098 H   0  0  0  0  0  0  0  0  0  0  0  0
   -0.5881   20.1587  -29.2702 H   0  0  0  0  0  0  0  0  0  0  0  0
    0.4285   21.4803  -28.5627 H   0  0  0  0  0  0  0  0  0  0  0  0
    0.0910   19.2346  -27.2355 H   0  0  0  0  0  0  0  0  0  0  0  0
   -0.0135   20.8654  -26.3914 H   0  0  0  0  0  0  0  0  0  0  0  0
   -1.8650   18.7466  -26.2474 H   0  0  0  0  0  0  0  0  0  0  0  0
   -2.0332   20.4732  -25.6621 H   0  0  0  0  0  0  0  0  0  0  0  0
   -2.9999   19.3008  -28.3009 H   0  0  0  0  0  0  0  0  0  0  0  0
   -3.9855   19.9695  -26.9540 H   0  0  0  0  0  0  0  0  0  0  0  0
   -8.2506   23.5334  -30.1515 H   0  0  0  0  0  0  0  0  0  0  0  0
   -8.7417   21.3378  -31.2685 H   0  0  0  0  0  0  0  0  0  0  0  0
  1  2  1  0
  2  3  1  0
  3  4  2  0
  3  5  1  0
  5  6  1  0
  6  7  1  0
  7  8  1  0
  8  9  2  0
  9 10  1  0
 10 11  1  0
 11 12  2  0
 11 13  2  0
 11 14  1  0
 14 15  1  0
 15 16  2  0
 16 17  1  0
 17 18  2  0
 18 19  1  0
 19 20  2  0
 20 21  1  0
 18 22  1  0
 22 23  1  0
 23 24  1  0
 24 25  1  0
 10 26  2  0
 26 27  1  0
 27 28  2  0
 28  5  1  0
 28  8  1  0
 20 15  1  0
 25 17  1  0
  1 29  1  0
  1 30  1  0
  1 31  1  0
  2 32  1  0
  2 33  1  0
  6 34  1  0
  6 35  1  0
  7 36  1  0
  7 37  1  0
  9 38  1  0
 14 39  1  0
 16 40  1  0
 19 41  1  0
 22 42  1  0
 22 43  1  0
 23 44  1  0
 23 45  1  0
 24 46  1  0
 24 47  1  0
 25 48  1  0
 25 49  1  0
 26 50  1  0
 27 51  1  0
M  CHG  1  21  -1
M  END
>  <UniqueID>  (37) 
37

>  <SMILES>  (37) 
CCC(=O)N1CCc2cc(S(=O)(=O)Nc3cc4c(cc3[O-])CCCC4)ccc21

>  <Energy>  (37) 
72.71855937447467

>  <Genealogy>  (37) 
CCC(=O)N1CCc2cc(S(=O)(=O)Nc3cc4c(cc3[O-])CCCC4)ccc21 (protonated)
CCC(=O)N1CCc2cc(S(=O)(=O)Nc3cc4c(cc3[O-])CCCC4)ccc21 (3D coordinates assigned)
CCC(=O)N1CCc2cc(S(=O)(=O)Nc3cc4c(cc3[O-])CCCC4)ccc21 (nonaromatic ring conformer: 72.71855937447467 kcal/mol)

>  <smiles>  (37) 
CCC(=O)N1CCc2cc(S(=O)(=O)Nc3cc4c(cc3O)CCCC4)ccc21

>  <score_type>  (37) 
oracle

>  <origin>  (37) 
adgpu

>  <m_score__min__energy>  (37) 
-14.18

>  <m_primary>  (37) 
energy

$$$$
37:0
     RDKit          3D

 54 57  0  0  0  0  0  0  0  0999 V2000
   -0.4580   18.9720  -29.1840 C   0  0  0  0  0  0  0  0  0  0  0  0
   -0.2110   19.6200  -27.8820 N   0  0  0  0  0  0  0  0  0  0  0  0
   -1.2630   19.3250  -26.8890 C   0  0  0  0  0  0  0  0  0  0  0  0
   -2.6260   19.9100  -27.2870 C   0  0  0  0  0  0  0  0  0  0  0  0
   -2.5110   21.3290  -27.7900 C   0  0  0  0  0  0  0  0  0  0  0  0
   -3.6760   22.0970  -27.9420 C   0  0  0  0  0  0  0  0  0  0  0  0
   -3.6220   23.3900  -28.4830 C   0  0  0  0  0  0  0  0  0  0  0  0
   -4.8100   24.1700  -28.6960 N   0  0  0  0  0  0  0  0  0  0  0  0
   -5.4200   24.6920  -30.2370 S   0  0  0  0  0  0  0  0  0  0  0  0
   -4.2390   25.0590  -31.0900 O   0  0  0  0  0  0  0  0  0  0  0  0
   -6.2900   25.9110  -30.0900 O   0  0  0  0  0  0  0  0  0  0  0  0
   -6.3150   23.3880  -31.0230 C   0  0  0  0  0  0  0  0  0  0  0  0
   -7.6990   23.5090  -31.2440 C   0  0  0  0  0  0  0  0  0  0  0  0
   -8.4090   22.4740  -31.8620 C   0  0  0  0  0  0  0  0  0  0  0  0
   -7.7480   21.3060  -32.2510 C   0  0  0  0  0  0  0  0  0  0  0  0
   -6.3630   21.1730  -32.0310 C   0  0  0  0  0  0  0  0  0  0  0  0
   -5.5210   19.6890  -32.4930 S   0  0  0  0  0  0  0  0  0  0  0  0
   -4.3580   19.4760  -31.5670 O   0  0  0  0  0  0  0  0  0  0  0  0
   -4.9810   19.8360  -33.8860 O   0  0  0  0  0  0  0  0  0  0  0  0
   -6.5810   18.2970  -32.4350 N   0  0  0  0  0  0  0  0  0  0  0  0
   -6.1080   17.3230  -31.4490 C   0  0  0  0  0  0  0  0  0  0  0  0
   -5.3000   16.2630  -32.1820 C   0  0  0  0  0  0  0  0  0  0  0  0
   -5.7210   16.3630  -33.6340 C   0  0  0  0  0  0  0  0  0  0  0  0
   -6.6100   17.5980  -33.7270 C   0  0  0  0  0  0  0  0  0  0  0  0
   -5.6510   22.2190  -31.4250 C   0  0  0  0  0  0  0  0  0  0  0  0
   -2.3720   23.9340  -28.8310 C   0  0  0  0  0  0  0  0  0  0  0  0
   -2.2620   25.2310  -29.3290 O   0  0  0  0  0  0  0  0  0  0  0  0
   -1.2120   23.1660  -28.6960 C   0  0  0  0  0  0  0  0  0  0  0  0
   -1.2730   21.8540  -28.2080 C   0  0  0  0  0  0  0  0  0  0  0  0
    0.0110   21.0740  -28.0210 C   0  0  0  0  0  0  0  0  0  0  0  0
   -0.8454   17.9556  -29.0201 H   0  0  0  0  0  0  0  0  0  0  0  0
   -1.1956   19.5585  -29.7514 H   0  0  0  0  0  0  0  0  0  0  0  0
    0.4829   18.9187  -29.7514 H   0  0  0  0  0  0  0  0  0  0  0  0
   -1.3617   18.2337  -26.7929 H   0  0  0  0  0  0  0  0  0  0  0  0
   -0.9646   19.7887  -25.9372 H   0  0  0  0  0  0  0  0  0  0  0  0
   -3.0611   19.2863  -28.0818 H   0  0  0  0  0  0  0  0  0  0  0  0
   -3.2648   19.9192  -26.3915 H   0  0  0  0  0  0  0  0  0  0  0  0
   -4.6452   21.6789  -27.6324 H   0  0  0  0  0  0  0  0  0  0  0  0
   -8.2256   24.4220  -30.9293 H   0  0  0  0  0  0  0  0  0  0  0  0
   -9.4890   22.5798  -32.0419 H   0  0  0  0  0  0  0  0  0  0  0  0
   -8.3095   20.4899  -32.7293 H   0  0  0  0  0  0  0  0  0  0  0  0
   -5.4744   17.8252  -30.7031 H   0  0  0  0  0  0  0  0  0  0  0  0
   -6.9609   16.8610  -30.9302 H   0  0  0  0  0  0  0  0  0  0  0  0
   -4.2230   16.4620  -32.0797 H   0  0  0  0  0  0  0  0  0  0  0  0
   -5.4811   15.2578  -31.7736 H   0  0  0  0  0  0  0  0  0  0  0  0
   -4.8389   16.4769  -34.2812 H   0  0  0  0  0  0  0  0  0  0  0  0
   -6.2515   15.4577  -33.9640 H   0  0  0  0  0  0  0  0  0  0  0  0
   -6.2355   18.2651  -34.5174 H   0  0  0  0  0  0  0  0  0  0  0  0
   -7.6409   17.3006  -33.9694 H   0  0  0  0  0  0  0  0  0  0  0  0
   -4.5671   22.1223  -31.2642 H   0  0  0  0  0  0  0  0  0  0  0  0
   -3.0500   25.7320  -29.7200 H   0  0  0  0  0  0  0  0  0  0  0  0
   -0.2394   23.5968  -28.9763 H   0  0  0  0  0  0  0  0  0  0  0  0
    0.6570   21.2479  -28.8942 H   0  0  0  0  0  0  0  0  0  0  0  0
    0.4766   21.4260  -27.0887 H   0  0  0  0  0  0  0  0  0  0  0  0
  1  2  1  0
  2  3  1  0
  3  4  1  0
  4  5  1  0
  5  6  2  0
  6  7  1  0
  7  8  1  0
  8  9  1  0
  9 10  2  0
  9 11  2  0
  9 12  1  0
 12 13  2  0
 13 14  1  0
 14 15  2  0
 15 16  1  0
 16 17  1  0
 17 18  2  0
 17 19  2  0
 17 20  1  0
 20 21  1  0
 21 22  1  0
 22 23  1  0
 23 24  1  0
 16 25  2  0
  7 26  2  0
 26 27  1  0
 26 28  1  0
 28 29  2  0
 29 30  1  0
 30  2  1  0
 29  5  1  0
 25 12  1  0
 24 20  1  0
  1 31  1  0
  1 32  1  0
  1 33  1  0
  3 34  1  0
  3 35  1  0
  4 36  1  0
  4 37  1  0
  6 38  1  0
 13 39  1  0
 14 40  1  0
 15 41  1  0
 21 42  1  0
 21 43  1  0
 22 44  1  0
 22 45  1  0
 23 46  1  0
 23 47  1  0
 24 48  1  0
 24 49  1  0
 25 50  1  0
 27 51  1  0
 28 52  1  0
 30 53  1  0
 30 54  1  0
M  CHG  1   8  -1
M  END
>  <UniqueID>  (38) 
38

>  <SMILES>  (38) 
CN1CCc2cc([N-]S(=O)(=O)c3cccc(S(=O)(=O)N4CCCC4)c3)c(O)cc2C1

>  <Energy>  (38) 
65.0758374120666

>  <Genealogy>  (38) 
CN1CCc2cc([N-]S(=O)(=O)c3cccc(S(=O)(=O)N4CCCC4)c3)c(O)cc2C1 (protonated)
CN1CCc2cc([N-]S(=O)(=O)c3cccc(S(=O)(=O)N4CCCC4)c3)c(O)cc2C1 (3D coordinates assigned)
CN1CCc2cc([N-]S(=O)(=O)c3cccc(S(=O)(=O)N4CCCC4)c3)c(O)cc2C1 (nonaromatic ring conformer: 65.0758374120666 kcal/mol)

>  <smiles>  (38) 
CN1CCc2cc(NS(=O)(=O)c3cccc(S(=O)(=O)N4CCCC4)c3)c(O)cc2C1

>  <score_type>  (38) 
oracle

>  <origin>  (38) 
adgpu

>  <m_score__min__energy>  (38) 
-13.35

>  <m_primary>  (38) 
energy

$$$$
38:0
     RDKit          3D

 48 51  0  0  0  0  0  0  0  0999 V2000
   -4.9600   15.4590  -31.9310 C   0  0  0  0  0  0  0  0  0  0  0  0
   -5.8350   15.6520  -33.1010 N   0  0  0  0  0  0  0  0  0  0  0  0
   -5.0670   15.6660  -34.3650 C   0  0  0  0  0  0  0  0  0  0  0  0
   -4.1720   16.9110  -34.4760 C   0  0  0  0  0  0  0  0  0  0  0  0
   -4.8560   18.0940  -33.9440 N   0  0  0  0  0  0  0  0  0  0  0  0
   -4.1080   19.3070  -33.7400 C   0  0  0  0  0  0  0  0  0  0  0  0
   -4.6280   20.3610  -32.9760 C   0  0  0  0  0  0  0  0  0  0  0  0
   -3.8510   21.5150  -32.7920 C   0  0  0  0  0  0  0  0  0  0  0  0
   -4.3410   22.6700  -31.9960 C   0  0  0  0  0  0  0  0  0  0  0  0
   -5.7130   22.9830  -31.9870 C   0  0  0  0  0  0  0  0  0  0  0  0
   -6.1900   24.0630  -31.2380 C   0  0  0  0  0  0  0  0  0  0  0  0
   -5.3070   24.8370  -30.4830 C   0  0  0  0  0  0  0  0  0  0  0  0
   -3.9440   24.5310  -30.4710 C   0  0  0  0  0  0  0  0  0  0  0  0
   -3.0690   25.2960  -29.7100 O   0  0  0  0  0  0  0  0  0  0  0  0
   -3.4610   23.4530  -31.2200 C   0  0  0  0  0  0  0  0  0  0  0  0
   -2.6050   21.5630  -33.3360 N   0  0  0  0  0  0  0  0  0  0  0  0
   -2.0960   20.5300  -34.0600 C   0  0  0  0  0  0  0  0  0  0  0  0
   -0.7300   20.6160  -34.6310 C   0  0  0  0  0  0  0  0  0  0  0  0
   -0.1130   21.8660  -34.8310 C   0  0  0  0  0  0  0  0  0  0  0  0
    1.1750   21.9450  -35.3680 C   0  0  0  0  0  0  0  0  0  0  0  0
    1.8670   20.7780  -35.7150 C   0  0  0  0  0  0  0  0  0  0  0  0
    3.1500   20.8450  -36.2520 O   0  0  0  0  0  0  0  0  0  0  0  0
    1.2630   19.5320  -35.5210 C   0  0  0  0  0  0  0  0  0  0  0  0
   -0.0240   19.4490  -34.9830 C   0  0  0  0  0  0  0  0  0  0  0  0
   -2.8510   19.4160  -34.2500 N   0  0  0  0  0  0  0  0  0  0  0  0
   -6.3130   18.0490  -33.7870 C   0  0  0  0  0  0  0  0  0  0  0  0
   -6.7240   16.8320  -32.9360 C   0  0  0  0  0  0  0  0  0  0  0  0
   -5.5463   15.5883  -31.0093 H   0  0  0  0  0  0  0  0  0  0  0  0
   -4.5337   14.4452  -31.9552 H   0  0  0  0  0  0  0  0  0  0  0  0
   -4.1468   16.1994  -31.9552 H   0  0  0  0  0  0  0  0  0  0  0  0
   -4.4338   14.7675  -34.4068 H   0  0  0  0  0  0  0  0  0  0  0  0
   -5.7831   15.6844  -35.1998 H   0  0  0  0  0  0  0  0  0  0  0  0
   -3.2471   16.7421  -33.9050 H   0  0  0  0  0  0  0  0  0  0  0  0
   -3.9409   17.0852  -35.5372 H   0  0  0  0  0  0  0  0  0  0  0  0
   -5.6296   20.2847  -32.5277 H   0  0  0  0  0  0  0  0  0  0  0  0
   -6.4157   22.3732  -32.5738 H   0  0  0  0  0  0  0  0  0  0  0  0
   -7.2634   24.3033  -31.2437 H   0  0  0  0  0  0  0  0  0  0  0  0
   -5.6846   25.6881  -29.8973 H   0  0  0  0  0  0  0  0  0  0  0  0
   -2.3874   23.2141  -31.2038 H   0  0  0  0  0  0  0  0  0  0  0  0
   -0.6493   22.7881  -34.5623 H   0  0  0  0  0  0  0  0  0  0  0  0
    1.6467   22.9272  -35.5186 H   0  0  0  0  0  0  0  0  0  0  0  0
    3.9170   20.3130  -35.8590 H   0  0  0  0  0  0  0  0  0  0  0  0
    1.8032   18.6132  -35.7930 H   0  0  0  0  0  0  0  0  0  0  0  0
   -0.4898   18.4638  -34.8331 H   0  0  0  0  0  0  0  0  0  0  0  0
   -6.6527   18.9699  -33.2904 H   0  0  0  0  0  0  0  0  0  0  0  0
   -6.7766   17.9625  -34.7808 H   0  0  0  0  0  0  0  0  0  0  0  0
   -6.7109   17.1298  -31.8772 H   0  0  0  0  0  0  0  0  0  0  0  0
   -7.7243   16.5276  -33.2775 H   0  0  0  0  0  0  0  0  0  0  0  0
  1  2  1  0
  2  3  1  0
  3  4  1  0
  4  5  1  0
  5  6  1  0
  6  7  2  0
  7  8  1  0
  8  9  1  0
  9 10  2  0
 10 11  1  0
 11 12  2  0
 12 13  1  0
 13 14  1  0
 13 15  2  0
  8 16  2  0
 16 17  1  0
 17 18  1  0
 18 19  2  0
 19 20  1  0
 20 21  2  0
 21 22  1  0
 21 23  1  0
 23 24  2  0
 17 25  2  0
  5 26  1  0
 26 27  1  0
 27  2  1  0
 25  6  1  0
 15  9  1  0
 24 18  1  0
  1 28  1  0
  1 29  1  0
  1 30  1  0
  3 31  1  0
  3 32  1  0
  4 33  1  0
  4 34  1  0
  7 35  1  0
 10 36  1  0
 11 37  1  0
 12 38  1  0
 15 39  1  0
 19 40  1  0
 20 41  1  0
 22 42  1  0
 23 43  1  0
 24 44  1  0
 26 45  1  0
 26 46  1  0
 27 47  1  0
 27 48  1  0
M  CHG  1  14  -1
M  END
>  <UniqueID>  (39) 
39

>  <SMILES>  (39) 
CN1CCN(c2cc(-c3cccc([O-])c3)nc(-c3ccc(O)cc3)n2)CC1

>  <Energy>  (39) 
67.26387227160544

>  <Genealogy>  (39) 
CN1CCN(c2cc(-c3cccc([O-])c3)nc(-c3ccc(O)cc3)n2)CC1 (protonated)
CN1CCN(c2cc(-c3cccc([O-])c3)nc(-c3ccc(O)cc3)n2)CC1 (3D coordinates assigned)
CN1CCN(c2cc(-c3cccc([O-])c3)nc(-c3ccc(O)cc3)n2)CC1 (nonaromatic ring conformer: 67.26387227160544 kcal/mol)

>  <smiles>  (39) 
CN1CCN(c2cc(-c3cccc(O)c3)nc(-c3ccc(O)cc3)n2)CC1

>  <score_type>  (39) 
oracle

>  <origin>  (39) 
adgpu

>  <m_score__min__energy>  (39) 
-10.48

>  <m_primary>  (39) 
energy

$$$$
39:0
     RDKit          3D

 50 52  0  0  0  0  0  0  0  0999 V2000
   -5.7620   16.7700  -32.0340 C   0  0  0  0  0  0  0  0  0  0  0  0
   -5.9030   16.8270  -33.4810 N   0  0  0  0  0  0  0  0  0  0  0  0
   -5.6090   18.0030  -34.2440 C   0  0  0  0  0  0  0  0  0  0  0  0
   -5.3810   17.8960  -35.4790 O   0  0  0  0  0  0  0  0  0  0  0  0
   -5.5870   19.3370  -33.5820 C   0  0  0  0  0  0  0  0  0  0  0  0
   -6.7960   19.9160  -33.1520 C   0  0  0  0  0  0  0  0  0  0  0  0
   -6.8140   21.1710  -32.5450 C   0  0  0  0  0  0  0  0  0  0  0  0
   -5.6260   21.8890  -32.3670 C   0  0  0  0  0  0  0  0  0  0  0  0
   -5.6440   23.2700  -31.7670 C   0  0  0  0  0  0  0  0  0  0  0  0
   -4.8160   23.3200  -30.5640 N   0  0  0  0  0  0  0  0  0  0  0  0
   -3.7250   24.2220  -30.3320 C   0  0  0  0  0  0  0  0  0  0  0  0
   -3.8640   25.4320  -30.6510 O   0  0  0  0  0  0  0  0  0  0  0  0
   -2.4650   23.7910  -29.7030 C   0  0  0  0  0  0  0  0  0  0  0  0
   -2.0360   22.4900  -29.4780 C   0  0  0  0  0  0  0  0  0  0  0  0
   -0.8070   22.5020  -28.9160 N   0  0  0  0  0  0  0  0  0  0  0  0
   -0.0090   21.3310  -28.5750 C   0  0  0  0  0  0  0  0  0  0  0  0
   -0.4350   23.7950  -28.8090 C   0  0  0  0  0  0  0  0  0  0  0  0
    0.7850   24.2360  -28.3020 O   0  0  0  0  0  0  0  0  0  0  0  0
   -1.4330   24.6110  -29.2880 C   0  0  0  0  0  0  0  0  0  0  0  0
   -1.4040   25.9990  -29.3410 O   0  0  0  0  0  0  0  0  0  0  0  0
   -4.4150   21.3220  -32.7800 C   0  0  0  0  0  0  0  0  0  0  0  0
   -4.3780   20.0430  -33.3690 C   0  0  0  0  0  0  0  0  0  0  0  0
   -3.1570   19.4890  -33.7870 O   0  0  0  0  0  0  0  0  0  0  0  0
   -1.8910   20.0450  -33.5480 C   0  0  0  0  0  0  0  0  0  0  0  0
   -1.2180   20.6530  -34.6140 C   0  0  0  0  0  0  0  0  0  0  0  0
    0.0490   21.2370  -34.4280 C   0  0  0  0  0  0  0  0  0  0  0  0
    0.7500   21.8970  -35.5560 C   0  0  0  0  0  0  0  0  0  0  0  0
    1.4940   21.1250  -36.4990 N   0  0  0  0  0  0  0  0  0  0  0  0
    0.6930   23.1480  -35.6950 O   0  0  0  0  0  0  0  0  0  0  0  0
    0.6410   21.1850  -33.1540 C   0  0  0  0  0  0  0  0  0  0  0  0
   -0.0130   20.5520  -32.0940 C   0  0  0  0  0  0  0  0  0  0  0  0
   -1.2700   19.9720  -32.2860 C   0  0  0  0  0  0  0  0  0  0  0  0
   -1.8790   19.3070  -31.2280 O   0  0  0  0  0  0  0  0  0  0  0  0
   -6.6827   17.1422  -31.5609 H   0  0  0  0  0  0  0  0  0  0  0  0
   -5.5850   15.7297  -31.7235 H   0  0  0  0  0  0  0  0  0  0  0  0
   -4.9117   17.3950  -31.7235 H   0  0  0  0  0  0  0  0  0  0  0  0
   -7.7401   19.3704  -33.2970 H   0  0  0  0  0  0  0  0  0  0  0  0
   -7.7679   21.5995  -32.2039 H   0  0  0  0  0  0  0  0  0  0  0  0
   -5.2553   23.9889  -32.5033 H   0  0  0  0  0  0  0  0  0  0  0  0
   -6.6791   23.5247  -31.4954 H   0  0  0  0  0  0  0  0  0  0  0  0
   -2.6109   21.5842  -29.7210 H   0  0  0  0  0  0  0  0  0  0  0  0
    0.0551   21.2369  -27.4809 H   0  0  0  0  0  0  0  0  0  0  0  0
   -0.4821   20.4304  -28.9934 H   0  0  0  0  0  0  0  0  0  0  0  0
    1.0023   21.4419  -28.9934 H   0  0  0  0  0  0  0  0  0  0  0  0
    1.0170   25.2210  -28.2640 H   0  0  0  0  0  0  0  0  0  0  0  0
   -3.4788   21.8830  -32.6427 H   0  0  0  0  0  0  0  0  0  0  0  0
   -1.6852   20.6747  -35.6096 H   0  0  0  0  0  0  0  0  0  0  0  0
    2.0840   21.5890  -37.2240 H   0  0  0  0  0  0  0  0  0  0  0  0
    1.6263   21.6460  -32.9905 H   0  0  0  0  0  0  0  0  0  0  0  0
    0.4637   20.5099  -31.1036 H   0  0  0  0  0  0  0  0  0  0  0  0
  1  2  1  0
  2  3  1  0
  3  4  2  0
  3  5  1  0
  5  6  2  0
  6  7  1  0
  7  8  2  0
  8  9  1  0
  9 10  1  0
 10 11  1  0
 11 12  2  0
 11 13  1  0
 13 14  2  0
 14 15  1  0
 15 16  1  0
 15 17  1  0
 17 18  1  0
 17 19  2  0
 19 20  1  0
  8 21  1  0
 21 22  2  0
 22 23  1  0
 23 24  1  0
 24 25  2  0
 25 26  1  0
 26 27  1  0
 27 28  1  0
 27 29  2  0
 26 30  2  0
 30 31  1  0
 31 32  2  0
 32 33  1  0
 22  5  1  0
 32 24  1  0
 19 13  1  0
  1 34  1  0
  1 35  1  0
  1 36  1  0
  6 37  1  0
  7 38  1  0
  9 39  1  0
  9 40  1  0
 14 41  1  0
 16 42  1  0
 16 43  1  0
 16 44  1  0
 18 45  1  0
 21 46  1  0
 25 47  1  0
 28 48  1  0
 30 49  1  0
 31 50  1  0
M  CHG  5   2  -1  10  -1  20  -1  28  -1  33  -1
M  END
>  <UniqueID>  (40) 
40

>  <SMILES>  (40) 
C[N-]C(=O)c1ccc(C[N-]C(=O)c2cn(C)c(O)c2[O-])cc1Oc1cc(C([NH-])=O)ccc1[O-]

>  <Energy>  (40) 
89.24237275475421

>  <Genealogy>  (40) 
C[N-]C(=O)c1ccc(C[N-]C(=O)c2cn(C)c(O)c2[O-])cc1Oc1cc(C([NH-])=O)ccc1[O-] (protonated)
C[N-]C(=O)c1ccc(C[N-]C(=O)c2cn(C)c(O)c2[O-])cc1Oc1cc(C([NH-])=O)ccc1[O-] (3D coordinates assigned)
C[N-]C(=O)c1ccc(C[N-]C(=O)c2cn(C)c(O)c2[O-])cc1Oc1cc(C([NH-])=O)ccc1[O-] (optimized conformer: 89.24237275475421 kcal/mol)

>  <smiles>  (40) 
CNC(=O)c1ccc(CNC(=O)c2cn(C)c(O)c2O)cc1Oc1cc(C(N)=O)ccc1O

>  <score_type>  (40) 
oracle

>  <origin>  (40) 
adgpu

>  <m_score__min__energy>  (40) 
-13.94

>  <m_primary>  (40) 
energy

$$$$
40:0
     RDKit          3D

 68 72  0  0  0  0  0  0  0  0999 V2000
   -6.4800   19.4230  -34.2490 C   0  0  0  0  0  0  0  0  0  0  0  0
   -5.7560   18.1060  -34.2870 C   0  0  0  0  0  0  0  0  0  0  0  0
   -6.4820   16.9050  -34.2580 C   0  0  0  0  0  0  0  0  0  0  0  0
   -5.8150   15.6760  -34.2490 C   0  0  0  0  0  0  0  0  0  0  0  0
   -6.5670   14.4500  -34.2070 C   0  0  0  0  0  0  0  0  0  0  0  0
   -7.1710   13.4620  -34.1710 N   0  0  0  0  0  0  0  0  0  0  0  0
   -4.4180   15.6380  -34.2770 C   0  0  0  0  0  0  0  0  0  0  0  0
   -3.6740   16.8270  -34.3130 C   0  0  0  0  0  0  0  0  0  0  0  0
   -2.1720   16.7520  -34.3510 C   0  0  0  0  0  0  0  0  0  0  0  0
   -4.3480   18.0700  -34.2800 C   0  0  0  0  0  0  0  0  0  0  0  0
   -3.6360   19.2770  -34.2530 O   0  0  0  0  0  0  0  0  0  0  0  0
   -3.4650   20.0330  -33.0910 C   0  0  0  0  0  0  0  0  0  0  0  0
   -2.2430   20.1510  -32.5080 N   0  0  0  0  0  0  0  0  0  0  0  0
   -2.0880   20.8800  -31.3750 C   0  0  0  0  0  0  0  0  0  0  0  0
   -0.9010   20.9980  -30.8550 N   0  0  0  0  0  0  0  0  0  0  0  0
   -0.5480   21.6790  -29.6380 C   0  0  0  0  0  0  0  0  0  0  0  0
    0.2320   21.0010  -28.6940 C   0  0  0  0  0  0  0  0  0  0  0  0
    0.5620   21.6110  -27.4810 C   0  0  0  0  0  0  0  0  0  0  0  0
    0.0980   22.8960  -27.1930 C   0  0  0  0  0  0  0  0  0  0  0  0
   -0.7150   23.5740  -28.1120 C   0  0  0  0  0  0  0  0  0  0  0  0
   -1.3510   25.1760  -27.7250 S   0  0  0  0  0  0  0  0  0  0  0  0
   -1.2470   26.0570  -28.9390 O   0  0  0  0  0  0  0  0  0  0  0  0
   -2.8040   25.0570  -27.3610 O   0  0  0  0  0  0  0  0  0  0  0  0
   -0.4770   25.9100  -26.4000 N   0  0  0  0  0  0  0  0  0  0  0  0
    0.2220   27.1500  -26.8230 C   0  0  0  0  0  0  0  0  0  0  0  0
   -0.4890   28.4280  -26.3570 C   0  0  0  0  0  0  0  0  0  0  0  0
   -0.6230   28.4590  -24.8240 C   0  0  0  0  0  0  0  0  0  0  0  0
   -0.7790   27.0540  -24.2110 C   0  0  0  0  0  0  0  0  0  0  0  0
   -1.3650   26.0680  -25.2260 C   0  0  0  0  0  0  0  0  0  0  0  0
   -1.0400   22.9630  -29.3310 C   0  0  0  0  0  0  0  0  0  0  0  0
   -3.1660   21.5050  -30.8310 N   0  0  0  0  0  0  0  0  0  0  0  0
   -4.3940   21.3780  -31.3930 C   0  0  0  0  0  0  0  0  0  0  0  0
   -5.4080   21.9840  -30.8500 N   0  0  0  0  0  0  0  0  0  0  0  0
   -6.7710   21.8980  -31.2940 C   0  0  0  0  0  0  0  0  0  0  0  0
   -7.5040   23.0820  -31.4540 C   0  0  0  0  0  0  0  0  0  0  0  0
   -8.8380   23.0370  -31.8670 C   0  0  0  0  0  0  0  0  0  0  0  0
   -9.4580   21.8080  -32.1040 C   0  0  0  0  0  0  0  0  0  0  0  0
   -8.7480   20.6190  -31.9130 C   0  0  0  0  0  0  0  0  0  0  0  0
   -7.4090   20.6550  -31.4920 C   0  0  0  0  0  0  0  0  0  0  0  0
   -6.7260   19.4640  -31.2460 O   0  0  0  0  0  0  0  0  0  0  0  0
   -4.5370   20.6450  -32.5300 N   0  0  0  0  0  0  0  0  0  0  0  0
   -6.6440   19.7212  -33.2030 H   0  0  0  0  0  0  0  0  0  0  0  0
   -5.8758   20.1884  -34.7581 H   0  0  0  0  0  0  0  0  0  0  0  0
   -7.4500   19.3230  -34.7581 H   0  0  0  0  0  0  0  0  0  0  0  0
   -7.5816   16.9307  -34.2423 H   0  0  0  0  0  0  0  0  0  0  0  0
   -3.8980   14.6687  -34.2708 H   0  0  0  0  0  0  0  0  0  0  0  0
   -1.7797   16.7324  -33.3235 H   0  0  0  0  0  0  0  0  0  0  0  0
   -1.8638   15.8373  -34.8786 H   0  0  0  0  0  0  0  0  0  0  0  0
   -1.7742   17.6314  -34.8786 H   0  0  0  0  0  0  0  0  0  0  0  0
    0.5872   19.9822  -28.9083 H   0  0  0  0  0  0  0  0  0  0  0  0
    1.1888   21.0776  -26.7512 H   0  0  0  0  0  0  0  0  0  0  0  0
    0.3711   23.3776  -26.2425 H   0  0  0  0  0  0  0  0  0  0  0  0
    1.2381   27.1407  -26.4017 H   0  0  0  0  0  0  0  0  0  0  0  0
    0.2336   27.1623  -27.9229 H   0  0  0  0  0  0  0  0  0  0  0  0
    0.0922   29.3025  -26.6847 H   0  0  0  0  0  0  0  0  0  0  0  0
   -1.4971   28.4475  -26.7966 H   0  0  0  0  0  0  0  0  0  0  0  0
    0.2774   28.9290  -24.4017 H   0  0  0  0  0  0  0  0  0  0  0  0
   -1.5319   29.0293  -24.5819 H   0  0  0  0  0  0  0  0  0  0  0  0
    0.2082   26.6920  -23.8880 H   0  0  0  0  0  0  0  0  0  0  0  0
   -1.4666   27.1221  -23.3551 H   0  0  0  0  0  0  0  0  0  0  0  0
   -1.4943   25.0893  -24.7407 H   0  0  0  0  0  0  0  0  0  0  0  0
   -2.3315   26.4621  -25.5734 H   0  0  0  0  0  0  0  0  0  0  0  0
   -1.6829   23.4891  -30.0521 H   0  0  0  0  0  0  0  0  0  0  0  0
   -7.0262   24.0523  -31.2532 H   0  0  0  0  0  0  0  0  0  0  0  0
   -9.4013   23.9716  -32.0058 H   0  0  0  0  0  0  0  0  0  0  0  0
  -10.5047   21.7757  -32.4408 H   0  0  0  0  0  0  0  0  0  0  0  0
   -9.2401   19.6518  -32.0932 H   0  0  0  0  0  0  0  0  0  0  0  0
   -5.7160   19.4340  -31.1830 H   0  0  0  0  0  0  0  0  0  0  0  0
  1  2  1  0
  2  3  2  0
  3  4  1  0
  4  5  1  0
  5  6  3  0
  4  7  2  0
  7  8  1  0
  8  9  1  0
  8 10  2  0
 10 11  1  0
 11 12  1  0
 12 13  2  0
 13 14  1  0
 14 15  2  3
 15 16  1  0
 16 17  2  0
 17 18  1  0
 18 19  2  0
 19 20  1  0
 20 21  1  0
 21 22  2  0
 21 23  2  0
 21 24  1  0
 24 25  1  0
 25 26  1  0
 26 27  1  0
 27 28  1  0
 28 29  1  0
 20 30  2  0
 14 31  1  0
 31 32  1  0
 32 33  2  3
 33 34  1  0
 34 35  2  0
 35 36  1  0
 36 37  2  0
 37 38  1  0
 38 39  2  0
 39 40  1  0
 32 41  1  0
 10  2  1  0
 41 12  1  0
 30 16  1  0
 39 34  1  0
 29 24  1  0
  1 42  1  0
  1 43  1  0
  1 44  1  0
  3 45  1  0
  7 46  1  0
  9 47  1  0
  9 48  1  0
  9 49  1  0
 17 50  1  0
 18 51  1  0
 19 52  1  0
 25 53  1  0
 25 54  1  0
 26 55  1  0
 26 56  1  0
 27 57  1  0
 27 58  1  0
 28 59  1  0
 28 60  1  0
 29 61  1  0
 29 62  1  0
 30 63  1  0
 35 64  1  0
 36 65  1  0
 37 66  1  0
 38 67  1  0
 40 68  1  0
M  CHG  2  31  -1  41  -1
M  END
>  <UniqueID>  (41) 
41

>  <SMILES>  (41) 
Cc1cc(C#N)cc(C)c1Oc1nc(=Nc2cccc(S(=O)(=O)N3CCCCC3)c2)[n-]c(=Nc2ccccc2O)[n-]1

>  <Energy>  (41) 
97.4028241872151

>  <Genealogy>  (41) 
Cc1cc(C#N)cc(C)c1Oc1nc(=Nc2cccc(S(=O)(=O)N3CCCCC3)c2)[n-]c(=Nc2ccccc2O)[n-]1 (protonated)
Cc1cc(C#N)cc(C)c1Oc1nc(=Nc2cccc(S(=O)(=O)N3CCCCC3)c2)[n-]c(=Nc2ccccc2O)[n-]1 (3D coordinates assigned)
Cc1cc(C#N)cc(C)c1Oc1nc(=Nc2cccc(S(=O)(=O)N3CCCCC3)c2)[n-]c(=Nc2ccccc2O)[n-]1 (nonaromatic ring conformer: 97.4028241872151 kcal/mol)

>  <smiles>  (41) 
Cc1cc(C#N)cc(C)c1Oc1nc(=Nc2cccc(S(=O)(=O)N3CCCCC3)c2)[nH]c(=Nc2ccccc2O)[nH]1

>  <score_type>  (41) 
oracle

>  <origin>  (41) 
adgpu

>  <m_score__min__energy>  (41) 
-11.890000000000001

>  <m_primary>  (41) 
energy

$$$$
41:0
     RDKit          3D

 68 72  0  0  0  0  0  0  0  0999 V2000
   -7.8870   19.6840  -31.2250 C   0  0  0  0  0  0  0  0  0  0  0  0
   -8.0330   20.5390  -32.4180 N   0  0  0  0  0  0  0  0  0  0  0  0
   -6.8980   20.4070  -33.3550 C   0  0  0  0  0  0  0  0  0  0  0  0
   -5.5760   20.9030  -32.7490 C   0  0  0  0  0  0  0  0  0  0  0  0
   -5.7370   22.2000  -32.0050 C   0  0  0  0  0  0  0  0  0  0  0  0
   -4.5910   22.8990  -31.6040 C   0  0  0  0  0  0  0  0  0  0  0  0
   -4.6970   24.0270  -30.7800 C   0  0  0  0  0  0  0  0  0  0  0  0
   -3.5200   24.6620  -30.2740 N   0  0  0  0  0  0  0  0  0  0  0  0
   -3.0680   24.5500  -28.6030 S   0  0  0  0  0  0  0  0  0  0  0  0
   -4.2510   24.8910  -27.7430 O   0  0  0  0  0  0  0  0  0  0  0  0
   -1.9800   25.5500  -28.3340 O   0  0  0  0  0  0  0  0  0  0  0  0
   -2.4860   22.9340  -28.2030 C   0  0  0  0  0  0  0  0  0  0  0  0
   -3.4050   21.9230  -27.8440 C   0  0  0  0  0  0  0  0  0  0  0  0
   -2.9650   20.6080  -27.6250 C   0  0  0  0  0  0  0  0  0  0  0  0
   -1.6010   20.3360  -27.7410 C   0  0  0  0  0  0  0  0  0  0  0  0
   -0.7040   21.3190  -28.0340 C   0  0  0  0  0  0  0  0  0  0  0  0
   -1.1130   22.6300  -28.2840 C   0  0  0  0  0  0  0  0  0  0  0  0
    0.6740   20.7840  -28.0110 C   0  0  0  0  0  0  0  0  0  0  0  0
    0.5260   19.3220  -27.7990 N   0  0  0  0  0  0  0  0  0  0  0  0
    1.1230   18.4910  -28.8680 C   0  0  0  0  0  0  0  0  0  0  0  0
    0.7370   18.9130  -30.2660 C   0  0  0  0  0  0  0  0  0  0  0  0
    1.6880   19.1980  -31.1910 N   0  0  0  0  0  0  0  0  0  0  0  0
    1.3550   19.5830  -32.4490 C   0  0  0  0  0  0  0  0  0  0  0  0
   -0.0010   19.6850  -32.8340 C   0  0  0  0  0  0  0  0  0  0  0  0
   -0.4550   20.1190  -34.2420 C   0  0  0  0  0  0  0  0  0  0  0  0
   -1.9790   20.3700  -34.2290 C   0  0  0  0  0  0  0  0  0  0  0  0
    0.2360   21.4150  -34.7300 C   0  0  0  0  0  0  0  0  0  0  0  0
   -0.1250   19.0020  -35.2580 C   0  0  0  0  0  0  0  0  0  0  0  0
   -0.9590   19.3930  -31.8440 C   0  0  0  0  0  0  0  0  0  0  0  0
   -0.5750   19.0200  -30.5980 N   0  0  0  0  0  0  0  0  0  0  0  0
   -0.9120   19.0410  -27.5580 C   0  0  0  0  0  0  0  0  0  0  0  0
   -5.9610   24.5110  -30.4210 C   0  0  0  0  0  0  0  0  0  0  0  0
   -6.0680   25.6520  -29.6260 O   0  0  0  0  0  0  0  0  0  0  0  0
   -7.1120   23.8330  -30.8430 C   0  0  0  0  0  0  0  0  0  0  0  0
   -7.0090   22.6580  -31.6040 C   0  0  0  0  0  0  0  0  0  0  0  0
   -8.2650   21.9520  -32.0580 C   0  0  0  0  0  0  0  0  0  0  0  0
   -7.9919   20.2983  -30.3186 H   0  0  0  0  0  0  0  0  0  0  0  0
   -8.6654   18.9068  -31.2334 H   0  0  0  0  0  0  0  0  0  0  0  0
   -6.8948   19.2092  -31.2334 H   0  0  0  0  0  0  0  0  0  0  0  0
   -6.7860   19.3470  -33.6268 H   0  0  0  0  0  0  0  0  0  0  0  0
   -7.1168   21.0286  -34.2357 H   0  0  0  0  0  0  0  0  0  0  0  0
   -5.1989   20.1403  -32.0518 H   0  0  0  0  0  0  0  0  0  0  0  0
   -4.8721   21.0762  -33.5763 H   0  0  0  0  0  0  0  0  0  0  0  0
   -3.5998   22.5593  -31.9389 H   0  0  0  0  0  0  0  0  0  0  0  0
   -4.4719   22.1676  -27.7354 H   0  0  0  0  0  0  0  0  0  0  0  0
   -3.6783   19.8110  -27.3681 H   0  0  0  0  0  0  0  0  0  0  0  0
   -0.3791   23.4088  -28.5387 H   0  0  0  0  0  0  0  0  0  0  0  0
    1.1808   20.9850  -28.9664 H   0  0  0  0  0  0  0  0  0  0  0  0
    1.2814   21.2522  -27.2225 H   0  0  0  0  0  0  0  0  0  0  0  0
    2.2179   18.5490  -28.7797 H   0  0  0  0  0  0  0  0  0  0  0  0
    0.7387   17.4699  -28.7276 H   0  0  0  0  0  0  0  0  0  0  0  0
    2.1472   19.8177  -33.1752 H   0  0  0  0  0  0  0  0  0  0  0  0
   -2.3322   20.4282  -33.1889 H   0  0  0  0  0  0  0  0  0  0  0  0
   -2.1991   21.3165  -34.7444 H   0  0  0  0  0  0  0  0  0  0  0  0
   -2.4910   19.5441  -34.7444 H   0  0  0  0  0  0  0  0  0  0  0  0
    0.5536   22.0106  -33.8614 H   0  0  0  0  0  0  0  0  0  0  0  0
    1.1153   21.1552  -35.3377 H   0  0  0  0  0  0  0  0  0  0  0  0
   -0.4697   22.0003  -35.3377 H   0  0  0  0  0  0  0  0  0  0  0  0
    0.1464   18.0832  -34.7175 H   0  0  0  0  0  0  0  0  0  0  0  0
   -1.0046   18.8094  -35.8898 H   0  0  0  0  0  0  0  0  0  0  0  0
    0.7181   19.3184  -35.8898 H   0  0  0  0  0  0  0  0  0  0  0  0
   -2.0299   19.4682  -32.0838 H   0  0  0  0  0  0  0  0  0  0  0  0
   -1.2858   18.3007  -28.2806 H   0  0  0  0  0  0  0  0  0  0  0  0
   -1.0848   18.6238  -26.5550 H   0  0  0  0  0  0  0  0  0  0  0  0
   -5.3030   25.9640  -29.0390 H   0  0  0  0  0  0  0  0  0  0  0  0
   -8.1046   24.2246  -30.5758 H   0  0  0  0  0  0  0  0  0  0  0  0
   -9.0027   21.9897  -31.2429 H   0  0  0  0  0  0  0  0  0  0  0  0
   -8.6248   22.4673  -32.9608 H   0  0  0  0  0  0  0  0  0  0  0  0
  1  2  1  0
  2  3  1  0
  3  4  1  0
  4  5  1  0
  5  6  2  0
  6  7  1  0
  7  8  1  0
  8  9  1  0
  9 10  2  0
  9 11  2  0
  9 12  1  0
 12 13  2  0
 13 14  1  0
 14 15  2  0
 15 16  1  0
 16 17  2  0
 16 18  1  0
 18 19  1  0
 19 20  1  0
 20 21  1  0
 21 22  2  0
 22 23  1  0
 23 24  2  0
 24 25  1  0
 25 26  1  0
 25 27  1  0
 25 28  1  0
 24 29  1  0
 29 30  2  0
 19 31  1  0
  7 32  2  0
 32 33  1  0
 32 34  1  0
 34 35  2  0
 35 36  1  0
 36  2  1  0
 35  5  1  0
 17 12  1  0
 30 21  1  0
 31 15  1  0
  1 37  1  0
  1 38  1  0
  1 39  1  0
  3 40  1  0
  3 41  1  0
  4 42  1  0
  4 43  1  0
  6 44  1  0
 13 45  1  0
 14 46  1  0
 17 47  1  0
 18 48  1  0
 18 49  1  0
 20 50  1  0
 20 51  1  0
 23 52  1  0
 26 53  1  0
 26 54  1  0
 26 55  1  0
 27 56  1  0
 27 57  1  0
 27 58  1  0
 28 59  1  0
 28 60  1  0
 28 61  1  0
 29 62  1  0
 31 63  1  0
 31 64  1  0
 33 65  1  0
 34 66  1  0
 36 67  1  0
 36 68  1  0
M  CHG  1   8  -1
M  END
>  <UniqueID>  (42) 
42

>  <SMILES>  (42) 
CN1CCc2cc([N-]S(=O)(=O)c3ccc4c(c3)CN(Cc3ncc(C(C)(C)C)cn3)C4)c(O)cc2C1

>  <Energy>  (42) 
99.72613249269085

>  <Genealogy>  (42) 
CN1CCc2cc([N-]S(=O)(=O)c3ccc4c(c3)CN(Cc3ncc(C(C)(C)C)cn3)C4)c(O)cc2C1 (protonated)
CN1CCc2cc([N-]S(=O)(=O)c3ccc4c(c3)CN(Cc3ncc(C(C)(C)C)cn3)C4)c(O)cc2C1 (3D coordinates assigned)
CN1CCc2cc([N-]S(=O)(=O)c3ccc4c(c3)CN(Cc3ncc(C(C)(C)C)cn3)C4)c(O)cc2C1 (nonaromatic ring conformer: 99.72613249269085 kcal/mol)

>  <smiles>  (42) 
CN1CCc2cc(NS(=O)(=O)c3ccc4c(c3)CN(Cc3ncc(C(C)(C)C)cn3)C4)c(O)cc2C1

>  <score_type>  (42) 
oracle

>  <origin>  (42) 
adgpu

>  <m_score__min__energy>  (42) 
-13.210000000000001

>  <m_primary>  (42) 
energy

$$$$
42:0
     RDKit          3D

 48 51  0  0  0  0  0  0  0  0999 V2000
   -6.6790   16.3340  -34.1970 C   0  0  0  0  0  0  0  0  0  0  0  0
   -5.7330   17.4550  -33.9280 C   0  0  0  0  0  0  0  0  0  0  0  0
   -6.0670   18.5610  -33.2300 N   0  0  0  0  0  0  0  0  0  0  0  0
   -5.0500   19.4680  -33.1780 C   0  0  0  0  0  0  0  0  0  0  0  0
   -5.1960   20.7520  -32.4440 C   0  0  0  0  0  0  0  0  0  0  0  0
   -6.4350   21.1610  -31.9130 C   0  0  0  0  0  0  0  0  0  0  0  0
   -6.5500   22.3750  -31.2300 C   0  0  0  0  0  0  0  0  0  0  0  0
   -5.4320   23.2000  -31.0650 C   0  0  0  0  0  0  0  0  0  0  0  0
   -5.5750   24.7560  -30.2530 S   0  0  0  0  0  0  0  0  0  0  0  0
   -5.0920   25.8700  -31.1410 O   0  0  0  0  0  0  0  0  0  0  0  0
   -7.0200   24.9930  -29.9130 O   0  0  0  0  0  0  0  0  0  0  0  0
   -4.6340   24.7470  -28.7940 N   0  0  0  0  0  0  0  0  0  0  0  0
   -3.5010   23.8830  -28.5900 C   0  0  0  0  0  0  0  0  0  0  0  0
   -3.6620   22.5680  -28.1160 C   0  0  0  0  0  0  0  0  0  0  0  0
   -2.5520   21.7430  -27.8870 C   0  0  0  0  0  0  0  0  0  0  0  0
   -1.2600   22.2170  -28.1850 C   0  0  0  0  0  0  0  0  0  0  0  0
   -1.0960   23.5240  -28.6630 C   0  0  0  0  0  0  0  0  0  0  0  0
   -2.2040   24.3490  -28.8700 C   0  0  0  0  0  0  0  0  0  0  0  0
   -2.0070   25.6430  -29.3420 O   0  0  0  0  0  0  0  0  0  0  0  0
   -0.0360   21.3750  -27.8980 C   0  0  0  0  0  0  0  0  0  0  0  0
   -0.3350   19.9320  -27.8160 N   0  0  0  0  0  0  0  0  0  0  0  0
   -0.5080   19.3280  -29.1490 C   0  0  0  0  0  0  0  0  0  0  0  0
   -1.4780   19.6690  -26.9210 C   0  0  0  0  0  0  0  0  0  0  0  0
   -2.7740   20.3320  -27.4110 C   0  0  0  0  0  0  0  0  0  0  0  0
   -4.1940   22.7960  -31.5760 C   0  0  0  0  0  0  0  0  0  0  0  0
   -4.0760   21.5830  -32.2580 C   0  0  0  0  0  0  0  0  0  0  0  0
   -3.8930   19.0740  -33.8590 C   0  0  0  0  0  0  0  0  0  0  0  0
   -4.1730   17.5600  -34.5350 S   0  0  0  0  0  0  0  0  0  0  0  0
   -7.0322   15.9154  -33.2431 H   0  0  0  0  0  0  0  0  0  0  0  0
   -7.5377   16.7091  -34.7732 H   0  0  0  0  0  0  0  0  0  0  0  0
   -6.1649   15.5506  -34.7732 H   0  0  0  0  0  0  0  0  0  0  0  0
   -7.3198   20.5193  -32.0370 H   0  0  0  0  0  0  0  0  0  0  0  0
   -7.5234   22.6831  -30.8205 H   0  0  0  0  0  0  0  0  0  0  0  0
   -5.0020   25.3110  -27.9950 H   0  0  0  0  0  0  0  0  0  0  0  0
   -4.6736   22.1817  -27.9223 H   0  0  0  0  0  0  0  0  0  0  0  0
   -0.0860   23.9036  -28.8771 H   0  0  0  0  0  0  0  0  0  0  0  0
    0.6967   21.5360  -28.7025 H   0  0  0  0  0  0  0  0  0  0  0  0
    0.3551   21.6862  -26.9181 H   0  0  0  0  0  0  0  0  0  0  0  0
   -0.8094   18.2759  -29.0385 H   0  0  0  0  0  0  0  0  0  0  0  0
   -1.2853   19.8759  -29.7018 H   0  0  0  0  0  0  0  0  0  0  0  0
    0.4415   19.3813  -29.7018 H   0  0  0  0  0  0  0  0  0  0  0  0
   -1.6379   18.5822  -26.8631 H   0  0  0  0  0  0  0  0  0  0  0  0
   -1.2362   20.0954  -25.9363 H   0  0  0  0  0  0  0  0  0  0  0  0
   -3.1819   19.7386  -28.2426 H   0  0  0  0  0  0  0  0  0  0  0  0
   -3.4730   20.3702  -26.5625 H   0  0  0  0  0  0  0  0  0  0  0  0
   -3.3099   23.4363  -31.4401 H   0  0  0  0  0  0  0  0  0  0  0  0
   -3.0973   21.2741  -32.6538 H   0  0  0  0  0  0  0  0  0  0  0  0
   -2.9617   19.6540  -33.9384 H   0  0  0  0  0  0  0  0  0  0  0  0
  1  2  1  0
  2  3  2  0
  3  4  1  0
  4  5  1  0
  5  6  2  0
  6  7  1  0
  7  8  2  0
  8  9  1  0
  9 10  2  0
  9 11  2  0
  9 12  1  0
 12 13  1  0
 13 14  2  0
 14 15  1  0
 15 16  2  0
 16 17  1  0
 17 18  2  0
 18 19  1  0
 16 20  1  0
 20 21  1  0
 21 22  1  0
 21 23  1  0
 23 24  1  0
  8 25  1  0
 25 26  2  0
  4 27  2  0
 27 28  1  0
 28  2  1  0
 26  5  1  0
 18 13  1  0
 24 15  1  0
  1 29  1  0
  1 30  1  0
  1 31  1  0
  6 32  1  0
  7 33  1  0
 12 34  1  0
 14 35  1  0
 17 36  1  0
 20 37  1  0
 20 38  1  0
 22 39  1  0
 22 40  1  0
 22 41  1  0
 23 42  1  0
 23 43  1  0
 24 44  1  0
 24 45  1  0
 25 46  1  0
 26 47  1  0
 27 48  1  0
M  CHG  1  19  -1
M  END
>  <UniqueID>  (43) 
43

>  <SMILES>  (43) 
Cc1nc(-c2ccc(S(=O)(=O)Nc3cc4c(cc3[O-])CN(C)CC4)cc2)cs1

>  <Energy>  (43) 
89.80017851153295

>  <Genealogy>  (43) 
Cc1nc(-c2ccc(S(=O)(=O)Nc3cc4c(cc3[O-])CN(C)CC4)cc2)cs1 (protonated)
Cc1nc(-c2ccc(S(=O)(=O)Nc3cc4c(cc3[O-])CN(C)CC4)cc2)cs1 (3D coordinates assigned)
Cc1nc(-c2ccc(S(=O)(=O)Nc3cc4c(cc3[O-])CN(C)CC4)cc2)cs1 (nonaromatic ring conformer: 89.80017851153295 kcal/mol)

>  <smiles>  (43) 
Cc1nc(-c2ccc(S(=O)(=O)Nc3cc4c(cc3O)CN(C)CC4)cc2)cs1

>  <score_type>  (43) 
oracle

>  <origin>  (43) 
adgpu

>  <m_score__min__energy>  (43) 
-13.699999999999999

>  <m_primary>  (43) 
energy

$$$$
43:0
     RDKit          3D

 45 47  0  0  0  0  0  0  0  0999 V2000
   -5.7360   26.1720  -31.2080 O   0  0  0  0  0  0  0  0  0  0  0  0
   -5.2490   25.0250  -30.3670 S   0  0  0  0  0  0  0  0  0  0  0  0
   -5.6440   25.2770  -28.9390 O   0  0  0  0  0  0  0  0  0  0  0  0
   -3.5150   24.9170  -30.4670 N   0  0  0  0  0  0  0  0  0  0  0  0
   -2.9780   23.9900  -29.4670 C   0  0  0  0  0  0  0  0  0  0  0  0
   -2.3970   24.7310  -28.3020 C   0  0  0  0  0  0  0  0  0  0  0  0
   -2.7590   24.5790  -26.9690 C   0  0  0  0  0  0  0  0  0  0  0  0
   -2.0600   25.4320  -26.1080 C   0  0  0  0  0  0  0  0  0  0  0  0
   -1.1630   26.2690  -26.7590 C   0  0  0  0  0  0  0  0  0  0  0  0
   -1.2440   25.9490  -28.4080 S   0  0  0  0  0  0  0  0  0  0  0  0
   -5.9860   23.5160  -30.9000 C   0  0  0  0  0  0  0  0  0  0  0  0
   -7.2670   23.5060  -31.4700 C   0  0  0  0  0  0  0  0  0  0  0  0
   -7.8070   22.3140  -31.9630 C   0  0  0  0  0  0  0  0  0  0  0  0
   -7.0700   21.1230  -31.8910 C   0  0  0  0  0  0  0  0  0  0  0  0
   -7.7260   19.6180  -32.5320 S   0  0  0  0  0  0  0  0  0  0  0  0
   -9.1240   19.8780  -33.0250 O   0  0  0  0  0  0  0  0  0  0  0  0
   -7.7890   18.5800  -31.4440 O   0  0  0  0  0  0  0  0  0  0  0  0
   -6.7280   19.0470  -33.8480 N   0  0  0  0  0  0  0  0  0  0  0  0
   -6.6300   17.5680  -33.7880 C   0  0  0  0  0  0  0  0  0  0  0  0
   -5.4350   17.0490  -34.5940 C   0  0  0  0  0  0  0  0  0  0  0  0
   -4.1100   17.5780  -34.0180 C   0  0  0  0  0  0  0  0  0  0  0  0
   -4.2790   18.9060  -33.2600 C   0  0  0  0  0  0  0  0  0  0  0  0
   -5.4130   19.7480  -33.8630 C   0  0  0  0  0  0  0  0  0  0  0  0
   -5.7990   21.1310  -31.3020 C   0  0  0  0  0  0  0  0  0  0  0  0
   -5.2610   22.3220  -30.8060 C   0  0  0  0  0  0  0  0  0  0  0  0
   -3.7885   23.3377  -29.1099 H   0  0  0  0  0  0  0  0  0  0  0  0
   -2.1805   23.3944  -29.9352 H   0  0  0  0  0  0  0  0  0  0  0  0
   -3.5182   23.8608  -26.6256 H   0  0  0  0  0  0  0  0  0  0  0  0
   -2.2071   25.4391  -25.0179 H   0  0  0  0  0  0  0  0  0  0  0  0
   -0.5113   27.0135  -26.2784 H   0  0  0  0  0  0  0  0  0  0  0  0
   -7.8485   24.4378  -31.5295 H   0  0  0  0  0  0  0  0  0  0  0  0
   -8.8127   22.3105  -32.4085 H   0  0  0  0  0  0  0  0  0  0  0  0
   -7.2320   19.2970  -34.7300 H   0  0  0  0  0  0  0  0  0  0  0  0
   -6.5134   17.2602  -32.7384 H   0  0  0  0  0  0  0  0  0  0  0  0
   -7.5478   17.1444  -34.2219 H   0  0  0  0  0  0  0  0  0  0  0  0
   -5.4285   15.9495  -34.5601 H   0  0  0  0  0  0  0  0  0  0  0  0
   -5.5320   17.4020  -35.6313 H   0  0  0  0  0  0  0  0  0  0  0  0
   -3.7029   16.8269  -33.3251 H   0  0  0  0  0  0  0  0  0  0  0  0
   -3.4310   17.7627  -34.8635 H   0  0  0  0  0  0  0  0  0  0  0  0
   -4.5125   18.6910  -32.2068 H   0  0  0  0  0  0  0  0  0  0  0  0
   -3.3412   19.4753  -33.3404 H   0  0  0  0  0  0  0  0  0  0  0  0
   -5.5050   20.6787  -33.2839 H   0  0  0  0  0  0  0  0  0  0  0  0
   -5.1554   19.9433  -34.9144 H   0  0  0  0  0  0  0  0  0  0  0  0
   -5.2225   20.1970  -31.2296 H   0  0  0  0  0  0  0  0  0  0  0  0
   -4.2645   22.3211  -30.3402 H   0  0  0  0  0  0  0  0  0  0  0  0
  1  2  2  0
  2  3  2  0
  2  4  1  0
  4  5  1  0
  5  6  1  0
  6  7  2  0
  7  8  1  0
  8  9  2  0
  9 10  1  0
  2 11  1  0
 11 12  2  0
 12 13  1  0
 13 14  2  0
 14 15  1  0
 15 16  2  0
 15 17  2  0
 15 18  1  0
 18 19  1  0
 19 20  1  0
 20 21  1  0
 21 22  1  0
 22 23  1  0
 14 24  1  0
 24 25  2  0
 10  6  1  0
 25 11  1  0
 23 18  1  0
  5 26  1  0
  5 27  1  0
  7 28  1  0
  8 29  1  0
  9 30  1  0
 12 31  1  0
 13 32  1  0
 18 33  1  0
 19 34  1  0
 19 35  1  0
 20 36  1  0
 20 37  1  0
 21 38  1  0
 21 39  1  0
 22 40  1  0
 22 41  1  0
 23 42  1  0
 23 43  1  0
 24 44  1  0
 25 45  1  0
M  CHG  2   4  -1  18   1
M  END
>  <UniqueID>  (44) 
44

>  <SMILES>  (44) 
O=S(=O)([N-]Cc1cccs1)c1ccc(S(=O)(=O)[NH+]2CCCCC2)cc1

>  <Energy>  (44) 
72.04236278136811

>  <Genealogy>  (44) 
O=S(=O)([N-]Cc1cccs1)c1ccc(S(=O)(=O)[NH+]2CCCCC2)cc1 (protonated)
O=S(=O)([N-]Cc1cccs1)c1ccc(S(=O)(=O)[NH+]2CCCCC2)cc1 (3D coordinates assigned)
O=S(=O)([N-]Cc1cccs1)c1ccc(S(=O)(=O)[NH+]2CCCCC2)cc1 (nonaromatic ring conformer: 72.04236278136811 kcal/mol)

>  <smiles>  (44) 
O=S(=O)(NCc1cccs1)c1ccc(S(=O)(=O)N2CCCCC2)cc1

>  <score_type>  (44) 
oracle

>  <origin>  (44) 
adgpu

>  <m_score__min__energy>  (44) 
-10.91

>  <m_primary>  (44) 
energy

$$$$
44:0
     RDKit          3D

 51 54  0  0  0  0  0  0  0  0999 V2000
    0.0280   18.4230  -31.3230 C   0  0  0  0  0  0  0  0  0  0  0  0
   -1.1810   19.1980  -31.5770 N   0  0  0  0  0  0  0  0  0  0  0  0
   -1.9440   19.1750  -32.7860 C   0  0  0  0  0  0  0  0  0  0  0  0
   -1.8560   18.2770  -33.6660 O   0  0  0  0  0  0  0  0  0  0  0  0
   -2.8010   20.3490  -32.8590 C   0  0  0  0  0  0  0  0  0  0  0  0
   -3.6100   20.6450  -33.7770 O   0  0  0  0  0  0  0  0  0  0  0  0
   -2.5080   21.1180  -31.6620 C   0  0  0  0  0  0  0  0  0  0  0  0
   -3.0020   22.3500  -31.2410 C   0  0  0  0  0  0  0  0  0  0  0  0
   -2.5000   22.8930  -30.0410 C   0  0  0  0  0  0  0  0  0  0  0  0
   -3.0660   24.4600  -29.4690 S   0  0  0  0  0  0  0  0  0  0  0  0
   -1.8820   25.2860  -29.0510 O   0  0  0  0  0  0  0  0  0  0  0  0
   -3.9670   24.2830  -28.2780 O   0  0  0  0  0  0  0  0  0  0  0  0
   -3.9200   25.2870  -30.7350 N   0  0  0  0  0  0  0  0  0  0  0  0
   -5.3480   25.3190  -30.4310 C   0  0  0  0  0  0  0  0  0  0  0  0
   -5.9620   24.0030  -30.8090 C   0  0  0  0  0  0  0  0  0  0  0  0
   -6.8020   23.3270  -29.9100 C   0  0  0  0  0  0  0  0  0  0  0  0
   -7.4020   22.1200  -30.2770 C   0  0  0  0  0  0  0  0  0  0  0  0
   -7.1760   21.5780  -31.5500 C   0  0  0  0  0  0  0  0  0  0  0  0
   -7.9540   20.0710  -32.0270 S   0  0  0  0  0  0  0  0  0  0  0  0
   -8.9180   20.3330  -33.1530 O   0  0  0  0  0  0  0  0  0  0  0  0
   -8.7240   19.5230  -30.8580 O   0  0  0  0  0  0  0  0  0  0  0  0
   -6.7360   18.9210  -32.5140 N   0  0  0  0  0  0  0  0  0  0  0  0
   -6.2220   19.2230  -33.8490 C   0  0  0  0  0  0  0  0  0  0  0  0
   -5.7620   17.9020  -34.4490 C   0  0  0  0  0  0  0  0  0  0  0  0
   -6.4350   16.8230  -33.6170 C   0  0  0  0  0  0  0  0  0  0  0  0
   -7.2890   17.5700  -32.6060 C   0  0  0  0  0  0  0  0  0  0  0  0
   -6.3580   22.2620  -32.4590 C   0  0  0  0  0  0  0  0  0  0  0  0
   -5.7560   23.4690  -32.0910 C   0  0  0  0  0  0  0  0  0  0  0  0
   -1.5110   22.1970  -29.3100 C   0  0  0  0  0  0  0  0  0  0  0  0
   -1.0260   20.9570  -29.7600 C   0  0  0  0  0  0  0  0  0  0  0  0
   -1.5450   20.4300  -30.9440 C   0  0  0  0  0  0  0  0  0  0  0  0
    0.1799   18.3256  -30.2379 H   0  0  0  0  0  0  0  0  0  0  0  0
   -0.0767   17.4233  -31.7698 H   0  0  0  0  0  0  0  0  0  0  0  0
    0.8927   18.9355  -31.7698 H   0  0  0  0  0  0  0  0  0  0  0  0
   -3.7629   22.8846  -31.8286 H   0  0  0  0  0  0  0  0  0  0  0  0
   -5.4913   25.4964  -29.3549 H   0  0  0  0  0  0  0  0  0  0  0  0
   -5.8291   26.1284  -30.9996 H   0  0  0  0  0  0  0  0  0  0  0  0
   -6.9886   23.7498  -28.9118 H   0  0  0  0  0  0  0  0  0  0  0  0
   -8.0540   21.5931  -29.5647 H   0  0  0  0  0  0  0  0  0  0  0  0
   -7.0151   19.6656  -34.4695 H   0  0  0  0  0  0  0  0  0  0  0  0
   -5.3939   19.9455  -33.8004 H   0  0  0  0  0  0  0  0  0  0  0  0
   -6.0749   17.8277  -35.5009 H   0  0  0  0  0  0  0  0  0  0  0  0
   -4.6663   17.8059  -34.4335 H   0  0  0  0  0  0  0  0  0  0  0  0
   -7.0631   16.1818  -34.2529 H   0  0  0  0  0  0  0  0  0  0  0  0
   -5.7015   16.1654  -33.1277 H   0  0  0  0  0  0  0  0  0  0  0  0
   -8.3342   17.6094  -32.9466 H   0  0  0  0  0  0  0  0  0  0  0  0
   -7.2781   17.0679  -31.6274 H   0  0  0  0  0  0  0  0  0  0  0  0
   -6.1891   21.8485  -33.4642 H   0  0  0  0  0  0  0  0  0  0  0  0
   -5.1174   24.0032  -32.8099 H   0  0  0  0  0  0  0  0  0  0  0  0
   -1.1166   22.6303  -28.3790 H   0  0  0  0  0  0  0  0  0  0  0  0
   -0.2555   20.4144  -29.1926 H   0  0  0  0  0  0  0  0  0  0  0  0
  1  2  1  0
  2  3  1  0
  3  4  2  0
  3  5  1  0
  5  6  2  0
  5  7  1  0
  7  8  2  0
  8  9  1  0
  9 10  1  0
 10 11  2  0
 10 12  2  0
 10 13  1  0
 13 14  1  0
 14 15  1  0
 15 16  2  0
 16 17  1  0
 17 18  2  0
 18 19  1  0
 19 20  2  0
 19 21  2  0
 19 22  1  0
 22 23  1  0
 23 24  1  0
 24 25  1  0
 25 26  1  0
 18 27  1  0
 27 28  2  0
  9 29  2  0
 29 30  1  0
 30 31  2  0
 31  2  1  0
 31  7  1  0
 28 15  1  0
 26 22  1  0
  1 32  1  0
  1 33  1  0
  1 34  1  0
  8 35  1  0
 14 36  1  0
 14 37  1  0
 16 38  1  0
 17 39  1  0
 23 40  1  0
 23 41  1  0
 24 42  1  0
 24 43  1  0
 25 44  1  0
 25 45  1  0
 26 46  1  0
 26 47  1  0
 27 48  1  0
 28 49  1  0
 29 50  1  0
 30 51  1  0
M  CHG  1  13  -1
M  END
>  <UniqueID>  (45) 
45

>  <SMILES>  (45) 
CN1C(=O)C(=O)c2cc(S(=O)(=O)[N-]Cc3ccc(S(=O)(=O)N4CCCC4)cc3)ccc21

>  <Energy>  (45) 
83.1531006993563

>  <Genealogy>  (45) 
CN1C(=O)C(=O)c2cc(S(=O)(=O)[N-]Cc3ccc(S(=O)(=O)N4CCCC4)cc3)ccc21 (protonated)
CN1C(=O)C(=O)c2cc(S(=O)(=O)[N-]Cc3ccc(S(=O)(=O)N4CCCC4)cc3)ccc21 (3D coordinates assigned)
CN1C(=O)C(=O)c2cc(S(=O)(=O)[N-]Cc3ccc(S(=O)(=O)N4CCCC4)cc3)ccc21 (nonaromatic ring conformer: 83.1531006993563 kcal/mol)

>  <smiles>  (45) 
CN1C(=O)C(=O)c2cc(S(=O)(=O)NCc3ccc(S(=O)(=O)N4CCCC4)cc3)ccc21

>  <score_type>  (45) 
oracle

>  <origin>  (45) 
adgpu

>  <m_score__min__energy>  (45) 
-12.109999999999999

>  <m_primary>  (45) 
energy

$$$$
45:0
     RDKit          3D

 49 51  0  0  0  0  0  0  0  0999 V2000
   -7.9940   19.0990  -32.5420 C   0  0  0  0  0  0  0  0  0  0  0  0
   -7.8210   20.5190  -32.0880 C   0  0  0  0  0  0  0  0  0  0  0  0
   -8.9180   21.3920  -32.0730 C   0  0  0  0  0  0  0  0  0  0  0  0
   -8.7700   22.6980  -31.5980 C   0  0  0  0  0  0  0  0  0  0  0  0
   -7.5290   23.1380  -31.1320 C   0  0  0  0  0  0  0  0  0  0  0  0
   -6.4190   22.2800  -31.1450 C   0  0  0  0  0  0  0  0  0  0  0  0
   -5.1600   22.7490  -30.6320 N   0  0  0  0  0  0  0  0  0  0  0  0
   -4.6610   24.0800  -30.8230 C   0  0  0  0  0  0  0  0  0  0  0  0
   -5.4250   24.9980  -31.2260 O   0  0  0  0  0  0  0  0  0  0  0  0
   -3.3050   24.3750  -30.4690 N   0  0  0  0  0  0  0  0  0  0  0  0
   -2.6630   23.9510  -29.2580 C   0  0  0  0  0  0  0  0  0  0  0  0
   -2.7940   22.6200  -28.8660 C   0  0  0  0  0  0  0  0  0  0  0  0
   -2.1970   22.1680  -27.6940 C   0  0  0  0  0  0  0  0  0  0  0  0
   -1.4510   23.0370  -26.8820 C   0  0  0  0  0  0  0  0  0  0  0  0
   -0.8200   22.4670  -25.6390 C   0  0  0  0  0  0  0  0  0  0  0  0
   -1.2710   24.3900  -27.2880 C   0  0  0  0  0  0  0  0  0  0  0  0
   -0.3230   25.5660  -26.3290 S   0  0  0  0  0  0  0  0  0  0  0  0
   -0.2890   26.9090  -27.0020 O   0  0  0  0  0  0  0  0  0  0  0  0
   -0.9920   25.7630  -24.9980 O   0  0  0  0  0  0  0  0  0  0  0  0
    1.3200   25.0260  -26.0640 N   0  0  0  0  0  0  0  0  0  0  0  0
    2.2330   25.6090  -27.0570 C   0  0  0  0  0  0  0  0  0  0  0  0
    3.6650   25.0790  -26.8260 C   0  0  0  0  0  0  0  0  0  0  0  0
    3.7690   24.3160  -25.6360 O   0  0  0  0  0  0  0  0  0  0  0  0
    3.2750   25.0630  -24.5410 C   0  0  0  0  0  0  0  0  0  0  0  0
    1.7710   25.3640  -24.7060 C   0  0  0  0  0  0  0  0  0  0  0  0
   -1.8630   24.8240  -28.4970 C   0  0  0  0  0  0  0  0  0  0  0  0
   -1.6350   26.1160  -28.9610 O   0  0  0  0  0  0  0  0  0  0  0  0
   -6.5790   20.9590  -31.6020 C   0  0  0  0  0  0  0  0  0  0  0  0
   -8.0742   18.4407  -31.6644 H   0  0  0  0  0  0  0  0  0  0  0  0
   -8.9088   19.0164  -33.1472 H   0  0  0  0  0  0  0  0  0  0  0  0
   -7.1257   18.7992  -33.1472 H   0  0  0  0  0  0  0  0  0  0  0  0
   -9.8977   21.0481  -32.4361 H   0  0  0  0  0  0  0  0  0  0  0  0
   -9.6325   23.3807  -31.5911 H   0  0  0  0  0  0  0  0  0  0  0  0
   -7.4211   24.1646  -30.7521 H   0  0  0  0  0  0  0  0  0  0  0  0
   -4.6020   22.1070  -30.0260 H   0  0  0  0  0  0  0  0  0  0  0  0
   -3.3737   21.9220  -29.4880 H   0  0  0  0  0  0  0  0  0  0  0  0
   -2.3110   21.1144  -27.3990 H   0  0  0  0  0  0  0  0  0  0  0  0
   -1.3016   22.9020  -24.7508 H   0  0  0  0  0  0  0  0  0  0  0  0
   -0.9508   21.3749  -25.6292 H   0  0  0  0  0  0  0  0  0  0  0  0
    0.2533   22.7078  -25.6292 H   0  0  0  0  0  0  0  0  0  0  0  0
    1.8993   25.3308  -28.0676 H   0  0  0  0  0  0  0  0  0  0  0  0
    2.2301   26.7042  -26.9540 H   0  0  0  0  0  0  0  0  0  0  0  0
    3.9499   24.4454  -27.6789 H   0  0  0  0  0  0  0  0  0  0  0  0
    4.3343   25.9466  -26.7299 H   0  0  0  0  0  0  0  0  0  0  0  0
    3.4266   24.4873  -23.6160 H   0  0  0  0  0  0  0  0  0  0  0  0
    3.8191   26.0180  -24.4962 H   0  0  0  0  0  0  0  0  0  0  0  0
    1.2014   24.7684  -23.9775 H   0  0  0  0  0  0  0  0  0  0  0  0
    1.6040   26.4376  -24.5345 H   0  0  0  0  0  0  0  0  0  0  0  0
   -5.7252   20.2659  -31.5785 H   0  0  0  0  0  0  0  0  0  0  0  0
  1  2  1  0
  2  3  2  0
  3  4  1  0
  4  5  2  0
  5  6  1  0
  6  7  1  0
  7  8  1  0
  8  9  2  0
  8 10  1  0
 10 11  1  0
 11 12  2  0
 12 13  1  0
 13 14  2  0
 14 15  1  0
 14 16  1  0
 16 17  1  0
 17 18  2  0
 17 19  2  0
 17 20  1  0
 20 21  1  0
 21 22  1  0
 22 23  1  0
 23 24  1  0
 24 25  1  0
 16 26  2  0
 26 27  1  0
  6 28  2  0
 28  2  1  0
 26 11  1  0
 25 20  1  0
  1 29  1  0
  1 30  1  0
  1 31  1  0
  3 32  1  0
  4 33  1  0
  5 34  1  0
  7 35  1  0
 12 36  1  0
 13 37  1  0
 15 38  1  0
 15 39  1  0
 15 40  1  0
 21 41  1  0
 21 42  1  0
 22 43  1  0
 22 44  1  0
 24 45  1  0
 24 46  1  0
 25 47  1  0
 25 48  1  0
 28 49  1  0
M  CHG  2  10  -1  27  -1
M  END
>  <UniqueID>  (46) 
46

>  <SMILES>  (46) 
Cc1cccc(NC(=O)[N-]c2ccc(C)c(S(=O)(=O)N3CCOCC3)c2[O-])c1

>  <Energy>  (46) 
69.57799532034696

>  <Genealogy>  (46) 
Cc1cccc(NC(=O)[N-]c2ccc(C)c(S(=O)(=O)N3CCOCC3)c2[O-])c1 (protonated)
Cc1cccc(NC(=O)[N-]c2ccc(C)c(S(=O)(=O)N3CCOCC3)c2[O-])c1 (3D coordinates assigned)
Cc1cccc(NC(=O)[N-]c2ccc(C)c(S(=O)(=O)N3CCOCC3)c2[O-])c1 (nonaromatic ring conformer: 69.57799532034696 kcal/mol)

>  <smiles>  (46) 
Cc1cccc(NC(=O)Nc2ccc(C)c(S(=O)(=O)N3CCOCC3)c2O)c1

>  <score_type>  (46) 
oracle

>  <origin>  (46) 
adgpu

>  <m_score__min__energy>  (46) 
-13.380000000000001

>  <m_primary>  (46) 
energy

$$$$
46:0
     RDKit          3D

 51 54  0  0  0  0  0  0  0  0999 V2000
   -4.2640   25.1340  -31.1370 O   0  0  0  0  0  0  0  0  0  0  0  0
   -5.4470   24.8050  -30.2700 S   0  0  0  0  0  0  0  0  0  0  0  0
   -6.2930   26.0330  -30.0810 O   0  0  0  0  0  0  0  0  0  0  0  0
   -4.9120   24.2330  -28.7210 N   0  0  0  0  0  0  0  0  0  0  0  0
   -3.7170   23.4520  -28.5220 C   0  0  0  0  0  0  0  0  0  0  0  0
   -3.7730   22.1460  -27.9960 C   0  0  0  0  0  0  0  0  0  0  0  0
   -2.6010   21.4000  -27.8060 C   0  0  0  0  0  0  0  0  0  0  0  0
   -1.3560   21.9460  -28.1690 C   0  0  0  0  0  0  0  0  0  0  0  0
   -1.2970   23.2460  -28.6860 C   0  0  0  0  0  0  0  0  0  0  0  0
   -2.4650   23.9930  -28.8680 C   0  0  0  0  0  0  0  0  0  0  0  0
   -2.3710   25.2810  -29.3850 O   0  0  0  0  0  0  0  0  0  0  0  0
   -0.0840   21.1680  -27.9350 C   0  0  0  0  0  0  0  0  0  0  0  0
   -0.3400   19.6560  -27.9200 C   0  0  0  0  0  0  0  0  0  0  0  0
   -1.4670   19.3130  -26.9430 C   0  0  0  0  0  0  0  0  0  0  0  0
   -2.6740   20.0680  -27.2740 N   0  0  0  0  0  0  0  0  0  0  0  0
   -6.3820   23.5360  -31.0530 C   0  0  0  0  0  0  0  0  0  0  0  0
   -7.7450   23.7140  -31.3310 C   0  0  0  0  0  0  0  0  0  0  0  0
   -8.4760   22.6890  -31.9380 C   0  0  0  0  0  0  0  0  0  0  0  0
   -7.8520   21.4830  -32.2690 C   0  0  0  0  0  0  0  0  0  0  0  0
   -6.4880   21.3020  -32.0060 C   0  0  0  0  0  0  0  0  0  0  0  0
   -5.7040   19.7730  -32.3930 S   0  0  0  0  0  0  0  0  0  0  0  0
   -6.1960   19.2770  -33.7270 O   0  0  0  0  0  0  0  0  0  0  0  0
   -6.0560   18.7530  -31.3460 O   0  0  0  0  0  0  0  0  0  0  0  0
   -3.9730   20.0020  -32.4200 N   0  0  0  0  0  0  0  0  0  0  0  0
   -3.4670   20.4220  -31.1130 C   0  0  0  0  0  0  0  0  0  0  0  0
   -2.2000   21.2240  -31.3740 C   0  0  0  0  0  0  0  0  0  0  0  0
   -2.2690   21.6220  -32.8410 C   0  0  0  0  0  0  0  0  0  0  0  0
   -3.5940   21.0710  -33.3430 C   0  0  0  0  0  0  0  0  0  0  0  0
   -5.7580   22.3310  -31.3970 C   0  0  0  0  0  0  0  0  0  0  0  0
   -5.5380   24.4290  -27.9080 H   0  0  0  0  0  0  0  0  0  0  0  0
   -4.7464   21.7071  -27.7316 H   0  0  0  0  0  0  0  0  0  0  0  0
   -0.3232   23.6835  -28.9513 H   0  0  0  0  0  0  0  0  0  0  0  0
    0.6297   21.4010  -28.7390 H   0  0  0  0  0  0  0  0  0  0  0  0
    0.3202   21.4576  -26.9538 H   0  0  0  0  0  0  0  0  0  0  0  0
   -0.6242   19.3269  -28.9304 H   0  0  0  0  0  0  0  0  0  0  0  0
    0.5782   19.1428  -27.5983 H   0  0  0  0  0  0  0  0  0  0  0  0
   -1.6845   18.2364  -27.0038 H   0  0  0  0  0  0  0  0  0  0  0  0
   -1.1488   19.5767  -25.9236 H   0  0  0  0  0  0  0  0  0  0  0  0
   -3.6040   19.6430  -27.0580 H   0  0  0  0  0  0  0  0  0  0  0  0
   -8.2394   24.6616  -31.0710 H   0  0  0  0  0  0  0  0  0  0  0  0
   -9.5448   22.8318  -32.1557 H   0  0  0  0  0  0  0  0  0  0  0  0
   -8.4330   20.6745  -32.7368 H   0  0  0  0  0  0  0  0  0  0  0  0
   -4.2129   21.0471  -30.6003 H   0  0  0  0  0  0  0  0  0  0  0  0
   -3.2612   19.5537  -30.4698 H   0  0  0  0  0  0  0  0  0  0  0  0
   -2.1715   22.1179  -30.7336 H   0  0  0  0  0  0  0  0  0  0  0  0
   -1.2939   20.6419  -31.1502 H   0  0  0  0  0  0  0  0  0  0  0  0
   -2.2425   22.7167  -32.9451 H   0  0  0  0  0  0  0  0  0  0  0  0
   -1.4168   21.2276  -33.4139 H   0  0  0  0  0  0  0  0  0  0  0  0
   -4.3588   21.8616  -33.3441 H   0  0  0  0  0  0  0  0  0  0  0  0
   -3.5051   20.6955  -34.3731 H   0  0  0  0  0  0  0  0  0  0  0  0
   -4.6872   22.1912  -31.1877 H   0  0  0  0  0  0  0  0  0  0  0  0
  1  2  2  0
  2  3  2  0
  2  4  1  0
  4  5  1  0
  5  6  2  0
  6  7  1  0
  7  8  2  0
  8  9  1  0
  9 10  2  0
 10 11  1  0
  8 12  1  0
 12 13  1  0
 13 14  1  0
 14 15  1  0
  2 16  1  0
 16 17  2  0
 17 18  1  0
 18 19  2  0
 19 20  1  0
 20 21  1  0
 21 22  2  0
 21 23  2  0
 21 24  1  0
 24 25  1  0
 25 26  1  0
 26 27  1  0
 27 28  1  0
 20 29  2  0
 10  5  1  0
 29 16  1  0
 15  7  1  0
 28 24  1  0
  4 30  1  0
  6 31  1  0
  9 32  1  0
 12 33  1  0
 12 34  1  0
 13 35  1  0
 13 36  1  0
 14 37  1  0
 14 38  1  0
 15 39  1  0
 17 40  1  0
 18 41  1  0
 19 42  1  0
 25 43  1  0
 25 44  1  0
 26 45  1  0
 26 46  1  0
 27 47  1  0
 27 48  1  0
 28 49  1  0
 28 50  1  0
 29 51  1  0
M  CHG  1  11  -1
M  END
>  <UniqueID>  (47) 
47

>  <SMILES>  (47) 
O=S(=O)(Nc1cc2c(cc1[O-])CCCN2)c1cccc(S(=O)(=O)N2CCCC2)c1

>  <Energy>  (47) 
56.41027476099037

>  <Genealogy>  (47) 
O=S(=O)(Nc1cc2c(cc1[O-])CCCN2)c1cccc(S(=O)(=O)N2CCCC2)c1 (protonated)
O=S(=O)(Nc1cc2c(cc1[O-])CCCN2)c1cccc(S(=O)(=O)N2CCCC2)c1 (3D coordinates assigned)
O=S(=O)(Nc1cc2c(cc1[O-])CCCN2)c1cccc(S(=O)(=O)N2CCCC2)c1 (nonaromatic ring conformer: 56.41027476099037 kcal/mol)

>  <smiles>  (47) 
O=S(=O)(Nc1cc2c(cc1O)CCCN2)c1cccc(S(=O)(=O)N2CCCC2)c1

>  <score_type>  (47) 
oracle

>  <origin>  (47) 
adgpu

>  <m_score__min__energy>  (47) 
-14.24

>  <m_primary>  (47) 
energy

$$$$
47:0
     RDKit          3D

 65 68  0  0  0  0  0  0  0  0999 V2000
   -0.7810   22.7520  -25.6920 C   0  0  0  0  0  0  0  0  0  0  0  0
   -1.4680   23.3660  -26.8830 C   0  0  0  0  0  0  0  0  0  0  0  0
   -2.4180   22.5930  -27.5700 C   0  0  0  0  0  0  0  0  0  0  0  0
   -3.0790   23.0990  -28.6870 C   0  0  0  0  0  0  0  0  0  0  0  0
   -2.8200   24.4010  -29.1340 C   0  0  0  0  0  0  0  0  0  0  0  0
   -3.4590   24.9370  -30.3040 N   0  0  0  0  0  0  0  0  0  0  0  0
   -4.7150   24.5180  -30.8490 C   0  0  0  0  0  0  0  0  0  0  0  0
   -5.5160   25.3930  -31.2690 O   0  0  0  0  0  0  0  0  0  0  0  0
   -5.0960   23.1360  -30.8240 N   0  0  0  0  0  0  0  0  0  0  0  0
   -6.3480   22.5820  -31.2510 C   0  0  0  0  0  0  0  0  0  0  0  0
   -7.4330   23.4480  -31.4430 C   0  0  0  0  0  0  0  0  0  0  0  0
   -8.6770   22.9480  -31.8300 C   0  0  0  0  0  0  0  0  0  0  0  0
   -8.8530   21.5750  -32.0160 C   0  0  0  0  0  0  0  0  0  0  0  0
   -7.7870   20.6930  -31.8020 C   0  0  0  0  0  0  0  0  0  0  0  0
   -8.0140   18.9600  -32.0270 S   0  0  0  0  0  0  0  0  0  0  0  0
   -7.4250   18.2260  -30.8540 O   0  0  0  0  0  0  0  0  0  0  0  0
   -9.4850   18.6490  -32.0950 O   0  0  0  0  0  0  0  0  0  0  0  0
   -7.2090   18.4530  -33.4920 N   0  0  0  0  0  0  0  0  0  0  0  0
   -6.7170   17.0770  -33.3870 C   0  0  0  0  0  0  0  0  0  0  0  0
   -5.4770   16.9810  -34.2680 C   0  0  0  0  0  0  0  0  0  0  0  0
   -5.0900   18.4170  -34.5860 C   0  0  0  0  0  0  0  0  0  0  0  0
   -6.0280   19.2720  -33.7520 C   0  0  0  0  0  0  0  0  0  0  0  0
   -6.5360   21.1970  -31.4170 C   0  0  0  0  0  0  0  0  0  0  0  0
   -1.8630   25.1790  -28.4700 C   0  0  0  0  0  0  0  0  0  0  0  0
   -1.5800   26.4520  -28.9560 O   0  0  0  0  0  0  0  0  0  0  0  0
   -1.1920   24.6870  -27.3300 C   0  0  0  0  0  0  0  0  0  0  0  0
    0.0160   25.7430  -26.5530 S   0  0  0  0  0  0  0  0  0  0  0  0
    0.1280   25.4940  -25.0760 O   0  0  0  0  0  0  0  0  0  0  0  0
   -0.3980   27.1750  -26.7430 O   0  0  0  0  0  0  0  0  0  0  0  0
    1.6130   25.4820  -27.3280 C   0  0  0  0  0  0  0  0  0  0  0  0
    2.5290   26.7120  -27.1380 C   0  0  0  0  0  0  0  0  0  0  0  0
    4.0180   26.3390  -26.9910 C   0  0  0  0  0  0  0  0  0  0  0  0
    4.4000   25.1710  -27.8110 N   0  0  0  0  0  0  0  0  0  0  0  0
    4.4250   25.4890  -29.2490 C   0  0  0  0  0  0  0  0  0  0  0  0
    3.6150   23.9450  -27.5120 C   0  0  0  0  0  0  0  0  0  0  0  0
    2.2770   24.2090  -26.7950 C   0  0  0  0  0  0  0  0  0  0  0  0
   -1.2253   23.1491  -24.7674 H   0  0  0  0  0  0  0  0  0  0  0  0
   -0.9064   21.6595  -25.7193 H   0  0  0  0  0  0  0  0  0  0  0  0
    0.2906   22.9988  -25.7193 H   0  0  0  0  0  0  0  0  0  0  0  0
   -2.6432   21.5743  -27.2215 H   0  0  0  0  0  0  0  0  0  0  0  0
   -3.8085   22.4725  -29.2211 H   0  0  0  0  0  0  0  0  0  0  0  0
   -7.3031   24.5292  -31.2876 H   0  0  0  0  0  0  0  0  0  0  0  0
   -9.5203   23.6363  -31.9888 H   0  0  0  0  0  0  0  0  0  0  0  0
   -9.8321   21.1855  -32.3316 H   0  0  0  0  0  0  0  0  0  0  0  0
   -6.4579   16.8467  -32.3431 H   0  0  0  0  0  0  0  0  0  0  0  0
   -7.4853   16.3588  -33.7094 H   0  0  0  0  0  0  0  0  0  0  0  0
   -4.6623   16.4737  -33.7305 H   0  0  0  0  0  0  0  0  0  0  0  0
   -5.6704   16.3994  -35.1815 H   0  0  0  0  0  0  0  0  0  0  0  0
   -4.0431   18.6061  -34.3061 H   0  0  0  0  0  0  0  0  0  0  0  0
   -5.1744   18.6390  -35.6601 H   0  0  0  0  0  0  0  0  0  0  0  0
   -5.5448   19.5546  -32.8051 H   0  0  0  0  0  0  0  0  0  0  0  0
   -6.2942   20.2013  -34.2770 H   0  0  0  0  0  0  0  0  0  0  0  0
   -5.6975   20.5063  -31.2439 H   0  0  0  0  0  0  0  0  0  0  0  0
    1.4501   25.3502  -28.4079 H   0  0  0  0  0  0  0  0  0  0  0  0
    2.4174   27.3702  -28.0122 H   0  0  0  0  0  0  0  0  0  0  0  0
    2.2216   27.2098  -26.2065 H   0  0  0  0  0  0  0  0  0  0  0  0
    4.6282   27.2003  -27.3006 H   0  0  0  0  0  0  0  0  0  0  0  0
    4.1903   26.0741  -25.9374 H   0  0  0  0  0  0  0  0  0  0  0  0
    4.5106   26.5775  -29.3824 H   0  0  0  0  0  0  0  0  0  0  0  0
    5.2869   24.9931  -29.7193 H   0  0  0  0  0  0  0  0  0  0  0  0
    3.4962   25.1339  -29.7193 H   0  0  0  0  0  0  0  0  0  0  0  0
    3.4019   23.4321  -28.4615 H   0  0  0  0  0  0  0  0  0  0  0  0
    4.2257   23.3388  -26.8268 H   0  0  0  0  0  0  0  0  0  0  0  0
    1.6043   23.3549  -26.9621 H   0  0  0  0  0  0  0  0  0  0  0  0
    2.4738   24.3388  -25.7205 H   0  0  0  0  0  0  0  0  0  0  0  0
  1  2  1  0
  2  3  2  0
  3  4  1  0
  4  5  2  0
  5  6  1  0
  6  7  1  0
  7  8  2  0
  7  9  1  0
  9 10  1  0
 10 11  2  0
 11 12  1  0
 12 13  2  0
 13 14  1  0
 14 15  1  0
 15 16  2  0
 15 17  2  0
 15 18  1  0
 18 19  1  0
 19 20  1  0
 20 21  1  0
 21 22  1  0
 14 23  2  0
  5 24  1  0
 24 25  1  0
 24 26  2  0
 26 27  1  0
 27 28  2  0
 27 29  2  0
 27 30  1  0
 30 31  1  0
 31 32  1  0
 32 33  1  0
 33 34  1  0
 33 35  1  0
 35 36  1  0
 26  2  1  0
 36 30  1  0
 23 10  1  0
 22 18  1  0
  1 37  1  0
  1 38  1  0
  1 39  1  0
  3 40  1  0
  4 41  1  0
 11 42  1  0
 12 43  1  0
 13 44  1  0
 19 45  1  0
 19 46  1  0
 20 47  1  0
 20 48  1  0
 21 49  1  0
 21 50  1  0
 22 51  1  0
 22 52  1  0
 23 53  1  0
 30 54  1  0
 31 55  1  0
 31 56  1  0
 32 57  1  0
 32 58  1  0
 34 59  1  0
 34 60  1  0
 34 61  1  0
 35 62  1  0
 35 63  1  0
 36 64  1  0
 36 65  1  0
M  CHG  3   6  -1   9  -1  25  -1
M  END
>  <UniqueID>  (48) 
48

>  <SMILES>  (48) 
Cc1ccc([N-]C(=O)[N-]c2cccc(S(=O)(=O)N3CCCC3)c2)c([O-])c1S(=O)(=O)C1CCN(C)CC1

>  <Energy>  (48) 
83.67525024368496

>  <Genealogy>  (48) 
Cc1ccc([N-]C(=O)[N-]c2cccc(S(=O)(=O)N3CCCC3)c2)c([O-])c1S(=O)(=O)C1CCN(C)CC1 (protonated)
Cc1ccc([N-]C(=O)[N-]c2cccc(S(=O)(=O)N3CCCC3)c2)c([O-])c1S(=O)(=O)C1CCN(C)CC1 (3D coordinates assigned)
Cc1ccc([N-]C(=O)[N-]c2cccc(S(=O)(=O)N3CCCC3)c2)c([O-])c1S(=O)(=O)C1CCN(C)CC1 (nonaromatic ring conformer: 83.67525024368496 kcal/mol)

>  <smiles>  (48) 
Cc1ccc(NC(=O)Nc2cccc(S(=O)(=O)N3CCCC3)c2)c(O)c1S(=O)(=O)C1CCN(C)CC1

>  <score_type>  (48) 
oracle

>  <origin>  (48) 
adgpu

>  <m_score__min__energy>  (48) 
-17.41

>  <m_primary>  (48) 
energy

$$$$
48:0
     RDKit          3D

 29 31  0  0  0  0  0  0  0  0999 V2000
    1.7980   23.6870  -26.7600 O   0  0  0  0  0  0  0  0  0  0  0  0
    0.6200   23.7380  -27.4960 C   0  0  0  0  0  0  0  0  0  0  0  0
   -0.0400   22.5580  -27.8400 C   0  0  0  0  0  0  0  0  0  0  0  0
   -1.2220   22.6070  -28.5820 C   0  0  0  0  0  0  0  0  0  0  0  0
   -1.7580   23.8400  -28.9980 C   0  0  0  0  0  0  0  0  0  0  0  0
   -3.0110   23.8480  -29.7940 C   0  0  0  0  0  0  0  0  0  0  0  0
   -3.9170   22.8120  -29.9380 C   0  0  0  0  0  0  0  0  0  0  0  0
   -4.9150   23.3420  -30.7360 C   0  0  0  0  0  0  0  0  0  0  0  0
   -6.1480   22.6600  -31.1990 C   0  0  0  0  0  0  0  0  0  0  0  0
   -7.3760   22.9250  -30.5650 C   0  0  0  0  0  0  0  0  0  0  0  0
   -8.5470   22.2910  -30.9910 C   0  0  0  0  0  0  0  0  0  0  0  0
   -8.5080   21.3870  -32.0540 C   0  0  0  0  0  0  0  0  0  0  0  0
   -7.2990   21.1120  -32.6970 C   0  0  0  0  0  0  0  0  0  0  0  0
   -7.2760   20.2100  -33.7570 O   0  0  0  0  0  0  0  0  0  0  0  0
   -6.1220   21.7470  -32.2720 C   0  0  0  0  0  0  0  0  0  0  0  0
   -4.6120   24.6210  -31.0350 N   0  0  0  0  0  0  0  0  0  0  0  0
   -3.4600   24.9290  -30.4590 N   0  0  0  0  0  0  0  0  0  0  0  0
   -1.0930   25.0310  -28.6280 C   0  0  0  0  0  0  0  0  0  0  0  0
   -1.6080   26.2790  -28.9600 O   0  0  0  0  0  0  0  0  0  0  0  0
    0.0950   24.9710  -27.8880 C   0  0  0  0  0  0  0  0  0  0  0  0
    0.3714   21.5873  -27.5262 H   0  0  0  0  0  0  0  0  0  0  0  0
   -1.7394   21.6723  -28.8440 H   0  0  0  0  0  0  0  0  0  0  0  0
   -3.8573   21.7985  -29.5146 H   0  0  0  0  0  0  0  0  0  0  0  0
   -7.4149   23.6369  -29.7273 H   0  0  0  0  0  0  0  0  0  0  0  0
   -9.5012   22.5050  -30.4874 H   0  0  0  0  0  0  0  0  0  0  0  0
   -9.4315   20.8901  -32.3860 H   0  0  0  0  0  0  0  0  0  0  0  0
   -8.1270   19.8010  -34.1240 H   0  0  0  0  0  0  0  0  0  0  0  0
   -5.1711   21.5302  -32.7807 H   0  0  0  0  0  0  0  0  0  0  0  0
    0.6168   25.8999  -27.6144 H   0  0  0  0  0  0  0  0  0  0  0  0
  1  2  1  0
  2  3  2  0
  3  4  1  0
  4  5  2  0
  5  6  1  0
  6  7  2  0
  7  8  1  0
  8  9  1  0
  9 10  2  0
 10 11  1  0
 11 12  2  0
 12 13  1  0
 13 14  1  0
 13 15  2  0
  8 16  2  0
 16 17  1  0
  5 18  1  0
 18 19  1  0
 18 20  2  0
 20  2  1  0
 17  6  1  0
 15  9  1  0
  3 21  1  0
  4 22  1  0
  7 23  1  0
 10 24  1  0
 11 25  1  0
 12 26  1  0
 14 27  1  0
 15 28  1  0
 20 29  1  0
M  CHG  3   1  -1  17  -1  19  -1
M  END
>  <UniqueID>  (49) 
49

>  <SMILES>  (49) 
[O-]c1ccc(-c2cc(-c3cccc(O)c3)n[n-]2)c([O-])c1

>  <Energy>  (49) 
66.70787471078427

>  <Genealogy>  (49) 
[O-]c1ccc(-c2cc(-c3cccc(O)c3)n[n-]2)c([O-])c1 (protonated)
[O-]c1ccc(-c2cc(-c3cccc(O)c3)n[n-]2)c([O-])c1 (3D coordinates assigned)
[O-]c1ccc(-c2cc(-c3cccc(O)c3)n[n-]2)c([O-])c1 (optimized conformer: 66.70787471078427 kcal/mol)

>  <smiles>  (49) 
Oc1cccc(-c2cc(-c3ccc(O)cc3O)[nH]n2)c1

>  <score_type>  (49) 
oracle

>  <origin>  (49) 
adgpu

>  <m_score__min__energy>  (49) 
-12.699999999999999

>  <m_primary>  (49) 
energy

$$$$
49:0
     RDKit          3D

 50 52  0  0  0  0  0  0  0  0999 V2000
    1.5280   15.9690  -30.1990 C   0  0  0  0  0  0  0  0  0  0  0  0
    1.1970   16.4090  -28.8020 C   0  0  0  0  0  0  0  0  0  0  0  0
    1.7270   15.7930  -27.8380 O   0  0  0  0  0  0  0  0  0  0  0  0
    0.3180   17.5260  -28.5430 N   0  0  0  0  0  0  0  0  0  0  0  0
   -0.1320   18.4050  -29.6360 C   0  0  0  0  0  0  0  0  0  0  0  0
   -0.4200   19.8170  -29.1150 C   0  0  0  0  0  0  0  0  0  0  0  0
   -1.3500   19.7810  -27.9760 N   0  0  0  0  0  0  0  0  0  0  0  0
   -2.3320   20.8230  -27.7840 C   0  0  0  0  0  0  0  0  0  0  0  0
   -3.4400   20.5330  -27.2490 O   0  0  0  0  0  0  0  0  0  0  0  0
   -2.0840   22.2320  -28.1730 C   0  0  0  0  0  0  0  0  0  0  0  0
   -0.9210   22.8800  -27.7260 C   0  0  0  0  0  0  0  0  0  0  0  0
   -0.6430   24.1880  -28.1230 C   0  0  0  0  0  0  0  0  0  0  0  0
   -1.5260   24.8700  -28.9640 C   0  0  0  0  0  0  0  0  0  0  0  0
   -1.2360   26.1750  -29.3450 O   0  0  0  0  0  0  0  0  0  0  0  0
   -2.6980   24.2480  -29.4170 C   0  0  0  0  0  0  0  0  0  0  0  0
   -3.5850   24.9960  -30.2650 N   0  0  0  0  0  0  0  0  0  0  0  0
   -5.2610   24.6710  -30.5960 S   0  0  0  0  0  0  0  0  0  0  0  0
   -5.8760   25.7700  -31.4160 O   0  0  0  0  0  0  0  0  0  0  0  0
   -5.9760   24.6190  -29.2740 O   0  0  0  0  0  0  0  0  0  0  0  0
   -5.4480   23.1160  -31.4150 C   0  0  0  0  0  0  0  0  0  0  0  0
   -4.3450   22.4850  -32.0030 C   0  0  0  0  0  0  0  0  0  0  0  0
   -4.5010   21.2680  -32.6780 C   0  0  0  0  0  0  0  0  0  0  0  0
   -5.7600   20.6450  -32.7440 C   0  0  0  0  0  0  0  0  0  0  0  0
   -5.9420   19.3480  -33.4870 C   0  0  0  0  0  0  0  0  0  0  0  0
   -6.7740   18.5020  -32.7760 F   0  0  0  0  0  0  0  0  0  0  0  0
   -6.5080   19.6030  -34.7200 F   0  0  0  0  0  0  0  0  0  0  0  0
   -4.7290   18.7070  -33.6740 F   0  0  0  0  0  0  0  0  0  0  0  0
   -6.8670   21.2890  -32.1670 C   0  0  0  0  0  0  0  0  0  0  0  0
   -6.7140   22.5120  -31.5080 C   0  0  0  0  0  0  0  0  0  0  0  0
   -2.9580   22.9160  -29.0380 C   0  0  0  0  0  0  0  0  0  0  0  0
   -1.4180   18.5880  -27.1210 C   0  0  0  0  0  0  0  0  0  0  0  0
   -0.1110   17.7910  -27.1610 C   0  0  0  0  0  0  0  0  0  0  0  0
    2.1889   15.0905  -30.1598 H   0  0  0  0  0  0  0  0  0  0  0  0
    0.6011   15.7071  -30.7303 H   0  0  0  0  0  0  0  0  0  0  0  0
    2.0365   16.7870  -30.7303 H   0  0  0  0  0  0  0  0  0  0  0  0
    0.6541   18.4572  -30.4037 H   0  0  0  0  0  0  0  0  0  0  0  0
   -1.0574   17.9911  -30.0631 H   0  0  0  0  0  0  0  0  0  0  0  0
    0.5241   20.2810  -28.7935 H   0  0  0  0  0  0  0  0  0  0  0  0
   -0.8814   20.4012  -29.9248 H   0  0  0  0  0  0  0  0  0  0  0  0
   -0.2243   22.3523  -27.0580 H   0  0  0  0  0  0  0  0  0  0  0  0
    0.2742   24.6841  -27.7729 H   0  0  0  0  0  0  0  0  0  0  0  0
   -3.3496   22.9482  -31.9343 H   0  0  0  0  0  0  0  0  0  0  0  0
   -3.6323   20.7959  -33.1602 H   0  0  0  0  0  0  0  0  0  0  0  0
   -7.8629   20.8268  -32.2344 H   0  0  0  0  0  0  0  0  0  0  0  0
   -7.5892   23.0048  -31.0595 H   0  0  0  0  0  0  0  0  0  0  0  0
   -3.8534   22.4056  -29.4223 H   0  0  0  0  0  0  0  0  0  0  0  0
   -1.6132   18.9019  -26.0850 H   0  0  0  0  0  0  0  0  0  0  0  0
   -2.2264   17.9424  -27.4946 H   0  0  0  0  0  0  0  0  0  0  0  0
    0.6737   18.3657  -26.6473 H   0  0  0  0  0  0  0  0  0  0  0  0
   -0.2805   16.8257  -26.6616 H   0  0  0  0  0  0  0  0  0  0  0  0
  1  2  1  0
  2  3  2  0
  2  4  1  0
  4  5  1  0
  5  6  1  0
  6  7  1  0
  7  8  1  0
  8  9  2  0
  8 10  1  0
 10 11  2  0
 11 12  1  0
 12 13  2  0
 13 14  1  0
 13 15  1  0
 15 16  1  0
 16 17  1  0
 17 18  2  0
 17 19  2  0
 17 20  1  0
 20 21  2  0
 21 22  1  0
 22 23  2  0
 23 24  1  0
 24 25  1  0
 24 26  1  0
 24 27  1  0
 23 28  1  0
 28 29  2  0
 15 30  2  0
  7 31  1  0
 31 32  1  0
 32  4  1  0
 30 10  1  0
 29 20  1  0
  1 33  1  0
  1 34  1  0
  1 35  1  0
  5 36  1  0
  5 37  1  0
  6 38  1  0
  6 39  1  0
 11 40  1  0
 12 41  1  0
 21 42  1  0
 22 43  1  0
 28 44  1  0
 29 45  1  0
 30 46  1  0
 31 47  1  0
 31 48  1  0
 32 49  1  0
 32 50  1  0
M  CHG  2  14  -1  16  -1
M  END
>  <UniqueID>  (50) 
50

>  <SMILES>  (50) 
CC(=O)N1CCN(C(=O)c2ccc([O-])c([N-]S(=O)(=O)c3ccc(C(F)(F)F)cc3)c2)CC1

>  <Energy>  (50) 
60.68041462863871

>  <Genealogy>  (50) 
CC(=O)N1CCN(C(=O)c2ccc([O-])c([N-]S(=O)(=O)c3ccc(C(F)(F)F)cc3)c2)CC1 (protonated)
CC(=O)N1CCN(C(=O)c2ccc([O-])c([N-]S(=O)(=O)c3ccc(C(F)(F)F)cc3)c2)CC1 (3D coordinates assigned)
CC(=O)N1CCN(C(=O)c2ccc([O-])c([N-]S(=O)(=O)c3ccc(C(F)(F)F)cc3)c2)CC1 (nonaromatic ring conformer: 60.68041462863871 kcal/mol)

>  <smiles>  (50) 
CC(=O)N1CCN(C(=O)c2ccc(O)c(NS(=O)(=O)c3ccc(C(F)(F)F)cc3)c2)CC1

>  <score_type>  (50) 
oracle

>  <origin>  (50) 
adgpu

>  <m_score__min__energy>  (50) 
-13.779999999999999

>  <m_primary>  (50) 
energy

$$$$
