0:0
     RDKit          3D

 49 51  0  0  0  0  0  0  0  0999 V2000
   -3.7180   15.1460  -33.2000 C   0  0  0  0  0  0  0  0  0  0  0  0
   -5.0030   15.8630  -33.2000 N   0  0  0  0  0  0  0  0  0  0  0  0
   -5.3700   16.2650  -31.8190 C   0  0  0  0  0  0  0  0  0  0  0  0
   -6.3720   17.4230  -31.8170 C   0  0  0  0  0  0  0  0  0  0  0  0
   -5.7380   18.6840  -32.4370 C   0  0  0  0  0  0  0  0  0  0  0  0
   -7.0100   19.7970  -33.0460 S   0  0  0  0  0  0  0  0  0  0  0  0
   -6.8000   20.0310  -34.5170 O   0  0  0  0  0  0  0  0  0  0  0  0
   -8.3630   19.1680  -32.8730 O   0  0  0  0  0  0  0  0  0  0  0  0
   -6.8920   21.3540  -32.1910 C   0  0  0  0  0  0  0  0  0  0  0  0
   -8.0220   21.9910  -31.6210 C   0  0  0  0  0  0  0  0  0  0  0  0
   -9.6440   21.3110  -31.6780 Cl  0  0  0  0  0  0  0  0  0  0  0  0
   -7.8690   23.2020  -30.9450 C   0  0  0  0  0  0  0  0  0  0  0  0
   -6.6160   23.7970  -30.8230 C   0  0  0  0  0  0  0  0  0  0  0  0
   -5.4850   23.1880  -31.3830 C   0  0  0  0  0  0  0  0  0  0  0  0
   -4.1800   23.7680  -31.2320 N   0  0  0  0  0  0  0  0  0  0  0  0
   -3.8590   24.9270  -30.4550 C   0  0  0  0  0  0  0  0  0  0  0  0
   -4.6200   25.9290  -30.5150 O   0  0  0  0  0  0  0  0  0  0  0  0
   -2.7550   24.9060  -29.5410 N   0  0  0  0  0  0  0  0  0  0  0  0
   -2.0460   23.7450  -29.0840 C   0  0  0  0  0  0  0  0  0  0  0  0
   -1.7570   23.5320  -27.7230 C   0  0  0  0  0  0  0  0  0  0  0  0
   -1.0420   22.3990  -27.3240 C   0  0  0  0  0  0  0  0  0  0  0  0
   -0.5970   21.4760  -28.2780 C   0  0  0  0  0  0  0  0  0  0  0  0
    0.1410   20.3100  -27.8660 C   0  0  0  0  0  0  0  0  0  0  0  0
    0.7340   19.3730  -27.5340 N   0  0  0  0  0  0  0  0  0  0  0  0
   -0.8610   21.6950  -29.6350 C   0  0  0  0  0  0  0  0  0  0  0  0
   -1.5750   22.8280  -30.0350 C   0  0  0  0  0  0  0  0  0  0  0  0
   -5.6200   21.9500  -32.0430 C   0  0  0  0  0  0  0  0  0  0  0  0
   -4.4940   21.3000  -32.5550 O   0  0  0  0  0  0  0  0  0  0  0  0
   -4.7110   18.3400  -33.5440 C   0  0  0  0  0  0  0  0  0  0  0  0
   -5.0030   16.9750  -34.1860 C   0  0  0  0  0  0  0  0  0  0  0  0
   -3.3978   14.9673  -32.1629 H   0  0  0  0  0  0  0  0  0  0  0  0
   -3.8354   14.1830  -33.7185 H   0  0  0  0  0  0  0  0  0  0  0  0
   -2.9602   15.7517  -33.7185 H   0  0  0  0  0  0  0  0  0  0  0  0
   -5.8192   15.4032  -31.3037 H   0  0  0  0  0  0  0  0  0  0  0  0
   -4.4573   16.5986  -31.3035 H   0  0  0  0  0  0  0  0  0  0  0  0
   -7.2576   17.1369  -32.4035 H   0  0  0  0  0  0  0  0  0  0  0  0
   -6.6608   17.6428  -30.7786 H   0  0  0  0  0  0  0  0  0  0  0  0
   -5.1803   19.1982  -31.6404 H   0  0  0  0  0  0  0  0  0  0  0  0
   -8.7488   23.6926  -30.5031 H   0  0  0  0  0  0  0  0  0  0  0  0
   -6.5134   24.7504  -30.2840 H   0  0  0  0  0  0  0  0  0  0  0  0
   -2.0950   24.2598  -26.9706 H   0  0  0  0  0  0  0  0  0  0  0  0
   -0.8285   22.2322  -26.2579 H   0  0  0  0  0  0  0  0  0  0  0  0
   -0.5063   20.9749  -30.3871 H   0  0  0  0  0  0  0  0  0  0  0  0
   -1.7690   23.0018  -31.1037 H   0  0  0  0  0  0  0  0  0  0  0  0
   -3.5610   21.6900  -32.4940 H   0  0  0  0  0  0  0  0  0  0  0  0
   -4.7525   19.1162  -34.3224 H   0  0  0  0  0  0  0  0  0  0  0  0
   -3.7128   18.2959  -33.0839 H   0  0  0  0  0  0  0  0  0  0  0  0
   -5.9909   17.0174  -34.6679 H   0  0  0  0  0  0  0  0  0  0  0  0
   -4.2026   16.7730  -34.9130 H   0  0  0  0  0  0  0  0  0  0  0  0
  1  2  1  0
  2  3  1  0
  3  4  1  0
  4  5  1  0
  5  6  1  0
  6  7  2  0
  6  8  2  0
  6  9  1  0
  9 10  2  0
 10 11  1  0
 10 12  1  0
 12 13  2  0
 13 14  1  0
 14 15  1  0
 15 16  1  0
 16 17  2  0
 16 18  1  0
 18 19  1  0
 19 20  2  0
 20 21  1  0
 21 22  2  0
 22 23  1  0
 23 24  3  0
 22 25  1  0
 25 26  2  0
 14 27  2  0
 27 28  1  0
  5 29  1  0
 29 30  1  0
 30  2  1  0
 27  9  1  0
 26 19  1  0
  1 31  1  0
  1 32  1  0
  1 33  1  0
  3 34  1  0
  3 35  1  0
  4 36  1  0
  4 37  1  0
  5 38  1  0
 12 39  1  0
 13 40  1  0
 20 41  1  0
 21 42  1  0
 25 43  1  0
 26 44  1  0
 28 45  1  0
 29 46  1  0
 29 47  1  0
 30 48  1  0
 30 49  1  0
M  CHG  2  15  -1  18  -1
M  END
>  <UniqueID>  (1) 
1

>  <SMILES>  (1) 
CN1CCC(S(=O)(=O)c2c(Cl)ccc([N-]C(=O)[N-]c3ccc(C#N)cc3)c2O)CC1

>  <Energy>  (1) 
65.4902424481632

>  <Genealogy>  (1) 
CN1CCC(S(=O)(=O)c2c(Cl)ccc([N-]C(=O)[N-]c3ccc(C#N)cc3)c2O)CC1 (protonated)
CN1CCC(S(=O)(=O)c2c(Cl)ccc([N-]C(=O)[N-]c3ccc(C#N)cc3)c2O)CC1 (3D coordinates assigned)
CN1CCC(S(=O)(=O)c2c(Cl)ccc([N-]C(=O)[N-]c3ccc(C#N)cc3)c2O)CC1 (nonaromatic ring conformer: 65.4902424481632 kcal/mol)

>  <smiles>  (1) 
CN1CCC(S(=O)(=O)c2c(Cl)ccc(NC(=O)Nc3ccc(C#N)cc3)c2O)CC1

>  <score_type>  (1) 
oracle

>  <origin>  (1) 
adgpu

>  <m_score__min__energy>  (1) 
-13.15

>  <m_primary>  (1) 
energy

$$$$
1:0
     RDKit          3D

 47 49  0  0  0  0  0  0  0  0999 V2000
   -2.7420   20.4270  -27.3870 C   0  0  0  0  0  0  0  0  0  0  0  0
   -2.4400   21.7960  -27.9270 C   0  0  0  0  0  0  0  0  0  0  0  0
   -1.3810   22.5470  -27.3980 C   0  0  0  0  0  0  0  0  0  0  0  0
   -1.1200   23.8320  -27.8820 C   0  0  0  0  0  0  0  0  0  0  0  0
   -1.9260   24.3900  -28.8810 C   0  0  0  0  0  0  0  0  0  0  0  0
   -1.6420   25.6710  -29.3430 O   0  0  0  0  0  0  0  0  0  0  0  0
   -3.0150   23.6600  -29.3970 C   0  0  0  0  0  0  0  0  0  0  0  0
   -3.8730   24.2240  -30.4650 C   0  0  0  0  0  0  0  0  0  0  0  0
   -3.9650   25.4750  -30.5900 O   0  0  0  0  0  0  0  0  0  0  0  0
   -4.5730   23.3860  -31.3920 N   0  0  0  0  0  0  0  0  0  0  0  0
   -5.5330   22.3520  -31.0080 C   0  0  0  0  0  0  0  0  0  0  0  0
   -5.0990   20.9850  -31.5710 C   0  0  2  0  0  0  0  0  0  0  0  0
   -3.5960   20.8940  -31.8780 C   0  0  0  0  0  0  0  0  0  0  0  0
   -2.7270   20.1290  -31.0690 C   0  0  0  0  0  0  0  0  0  0  0  0
   -1.3580   20.0700  -31.3430 C   0  0  0  0  0  0  0  0  0  0  0  0
   -0.8340   20.7470  -32.4420 C   0  0  0  0  0  0  0  0  0  0  0  0
   -1.6780   21.4790  -33.2770 C   0  0  0  0  0  0  0  0  0  0  0  0
   -3.0530   21.5560  -33.0070 C   0  0  0  0  0  0  0  0  0  0  0  0
   -3.8700   22.3000  -33.8570 O   0  0  0  0  0  0  0  0  0  0  0  0
   -5.9880   20.5880  -32.7020 N   0  0  0  0  0  0  0  0  0  0  0  0
   -5.9550   19.1660  -33.0740 C   0  0  0  0  0  0  0  0  0  0  0  0
   -7.1750   18.4880  -32.4590 C   0  0  0  0  0  0  0  0  0  0  0  0
   -8.1030   19.6170  -32.0380 C   0  0  0  0  0  0  0  0  0  0  0  0
   -7.4070   20.8990  -32.4730 C   0  0  0  0  0  0  0  0  0  0  0  0
   -3.2550   22.3570  -28.9230 C   0  0  0  0  0  0  0  0  0  0  0  0
   -2.7354   20.4569  -26.2874 H   0  0  0  0  0  0  0  0  0  0  0  0
   -3.7329   20.1043  -27.7391 H   0  0  0  0  0  0  0  0  0  0  0  0
   -1.9788   19.7174  -27.7391 H   0  0  0  0  0  0  0  0  0  0  0  0
   -0.7536   22.1238  -26.5997 H   0  0  0  0  0  0  0  0  0  0  0  0
   -0.2759   24.4083  -27.4753 H   0  0  0  0  0  0  0  0  0  0  0  0
   -5.5837   22.2932  -29.9107 H   0  0  0  0  0  0  0  0  0  0  0  0
   -6.5208   22.6106  -31.4171 H   0  0  0  0  0  0  0  0  0  0  0  0
   -5.2336   20.2335  -30.7791 H   0  0  0  0  0  0  0  0  0  0  0  0
   -3.1333   19.5722  -30.2118 H   0  0  0  0  0  0  0  0  0  0  0  0
   -0.6923   19.4874  -30.6892 H   0  0  0  0  0  0  0  0  0  0  0  0
    0.2451   20.7043  -32.6512 H   0  0  0  0  0  0  0  0  0  0  0  0
   -1.2632   21.9993  -34.1529 H   0  0  0  0  0  0  0  0  0  0  0  0
   -4.7150   22.7460  -33.5260 H   0  0  0  0  0  0  0  0  0  0  0  0
   -5.9851   19.0661  -34.1690 H   0  0  0  0  0  0  0  0  0  0  0  0
   -5.0311   18.6965  -32.7052 H   0  0  0  0  0  0  0  0  0  0  0  0
   -7.6686   17.8414  -33.1994 H   0  0  0  0  0  0  0  0  0  0  0  0
   -6.8989   17.8495  -31.6069 H   0  0  0  0  0  0  0  0  0  0  0  0
   -9.0779   19.5201  -32.5382 H   0  0  0  0  0  0  0  0  0  0  0  0
   -8.2958   19.6045  -30.9551 H   0  0  0  0  0  0  0  0  0  0  0  0
   -7.8618   21.2746  -33.4015 H   0  0  0  0  0  0  0  0  0  0  0  0
   -7.5093   21.6725  -31.6976 H   0  0  0  0  0  0  0  0  0  0  0  0
   -4.0896   21.7721  -29.3370 H   0  0  0  0  0  0  0  0  0  0  0  0
  1  2  1  0
  2  3  2  0
  3  4  1  0
  4  5  2  0
  5  6  1  0
  5  7  1  0
  7  8  1  0
  8  9  2  0
  8 10  1  0
 10 11  1  0
 11 12  1  0
 12 13  1  0
 13 14  2  0
 14 15  1  0
 15 16  2  0
 16 17  1  0
 17 18  2  0
 18 19  1  0
 12 20  1  0
 20 21  1  0
 21 22  1  0
 22 23  1  0
 23 24  1  0
  7 25  2  0
 25  2  1  0
 18 13  1  0
 24 20  1  0
  1 26  1  0
  1 27  1  0
  1 28  1  0
  3 29  1  0
  4 30  1  0
 11 31  1  0
 11 32  1  0
 12 33  1  1
 14 34  1  0
 15 35  1  0
 16 36  1  0
 17 37  1  0
 19 38  1  0
 21 39  1  0
 21 40  1  0
 22 41  1  0
 22 42  1  0
 23 43  1  0
 23 44  1  0
 24 45  1  0
 24 46  1  0
 25 47  1  0
M  CHG  2   6  -1  10  -1
M  END
>  <UniqueID>  (2) 
2

>  <SMILES>  (2) 
Cc1ccc([O-])c(C(=O)[N-]C[C@H](c2ccccc2O)N2CCCC2)c1

>  <Energy>  (2) 
62.88043099308716

>  <Genealogy>  (2) 
Cc1ccc([O-])c(C(=O)[N-]CC(c2ccccc2O)N2CCCC2)c1 (protonated)
Cc1ccc([O-])c(C(=O)[N-]C[C@H](c2ccccc2O)N2CCCC2)c1 (chirality)
Cc1ccc([O-])c(C(=O)[N-]C[C@H](c2ccccc2O)N2CCCC2)c1 (3D coordinates assigned)
Cc1ccc([O-])c(C(=O)[N-]C[C@H](c2ccccc2O)N2CCCC2)c1 (nonaromatic ring conformer: 62.88043099308716 kcal/mol)

>  <smiles>  (2) 
Cc1ccc(O)c(C(=O)NCC(c2ccccc2O)N2CCCC2)c1

>  <score_type>  (2) 
oracle

>  <origin>  (2) 
adgpu

>  <m_score__min__energy>  (2) 
-12.15

>  <m_primary>  (2) 
energy

$$$$
2:0
     RDKit          3D

 38 39  0  0  0  0  0  0  0  0999 V2000
   -4.5190   15.8840  -34.2620 H   0  0  0  0  0  0  0  0  0  0  0  0
   -5.0310   16.0420  -33.4020 O   0  0  0  0  0  0  0  0  0  0  0  0
   -5.7140   17.2320  -33.1560 C   0  0  0  0  0  0  0  0  0  0  0  0
   -6.3590   17.4070  -31.9270 C   0  0  0  0  0  0  0  0  0  0  0  0
   -6.3212   16.6091  -31.1708 H   0  0  0  0  0  0  0  0  0  0  0  0
   -7.0510   18.5900  -31.6550 C   0  0  0  0  0  0  0  0  0  0  0  0
   -7.5494   18.7217  -30.6833 H   0  0  0  0  0  0  0  0  0  0  0  0
   -7.1130   19.6110  -32.6160 C   0  0  0  0  0  0  0  0  0  0  0  0
   -7.8250   20.9000  -32.3110 C   0  0  0  0  0  0  0  0  0  0  0  0
   -8.5957   20.7164  -31.5479 H   0  0  0  0  0  0  0  0  0  0  0  0
   -8.2889   21.2780  -33.2339 H   0  0  0  0  0  0  0  0  0  0  0  0
   -6.8590   21.9220  -31.8000 C   0  0  0  0  0  0  0  0  0  0  0  0
   -7.1110   22.9915  -31.8524 H   0  0  0  0  0  0  0  0  0  0  0  0
   -5.7240   21.5470  -31.2950 N   0  0  0  0  0  0  0  0  0  0  0  0
   -4.7220   22.4290  -30.7650 C   0  0  0  0  0  0  0  0  0  0  0  0
   -4.9370   23.8100  -30.8640 C   0  0  0  0  0  0  0  0  0  0  0  0
   -5.8577   24.1850  -31.3347 H   0  0  0  0  0  0  0  0  0  0  0  0
   -3.9940   24.7160  -30.3710 C   0  0  0  0  0  0  0  0  0  0  0  0
   -4.2450   26.0810  -30.4560 O   0  0  0  0  0  0  0  0  0  0  0  0
   -2.8000   24.2530  -29.8030 C   0  0  0  0  0  0  0  0  0  0  0  0
   -1.8650   25.2000  -29.2700 N   0  0  0  0  0  0  0  0  0  0  0  0
   -1.0810   25.0580  -28.0760 C   0  0  0  0  0  0  0  0  0  0  0  0
    0.1730   25.1300  -28.1660 O   0  0  0  0  0  0  0  0  0  0  0  0
   -1.6980   24.6900  -26.7530 C   0  0  0  0  0  0  0  0  0  0  0  0
   -1.2205   25.2820  -25.9584 H   0  0  0  0  0  0  0  0  0  0  0  0
   -1.5419   23.6141  -26.5855 H   0  0  0  0  0  0  0  0  0  0  0  0
   -3.2000   24.9650  -26.7430 C   0  0  0  0  0  0  0  0  0  0  0  0
   -3.5540   25.0298  -25.7035 H   0  0  0  0  0  0  0  0  0  0  0  0
   -3.4023   25.9151  -27.2591 H   0  0  0  0  0  0  0  0  0  0  0  0
   -3.7258   24.1482  -27.2591 H   0  0  0  0  0  0  0  0  0  0  0  0
   -2.5770   22.8700  -29.7020 C   0  0  0  0  0  0  0  0  0  0  0  0
   -1.6562   22.4993  -29.2281 H   0  0  0  0  0  0  0  0  0  0  0  0
   -3.5160   21.9600  -30.1990 C   0  0  0  0  0  0  0  0  0  0  0  0
   -3.2250   20.6010  -30.1500 O   0  0  0  0  0  0  0  0  0  0  0  0
   -6.4550   19.4400  -33.8450 C   0  0  0  0  0  0  0  0  0  0  0  0
   -6.4848   20.2419  -34.5973 H   0  0  0  0  0  0  0  0  0  0  0  0
   -5.7620   18.2560  -34.1180 C   0  0  0  0  0  0  0  0  0  0  0  0
   -5.1220   18.1030  -35.3420 O   0  0  0  0  0  0  0  0  0  0  0  0
  1  2  1  0
  2  3  1  0
  3  4  2  0
  4  5  1  0
  4  6  1  0
  6  7  1  0
  6  8  2  0
  8  9  1  0
  9 10  1  0
  9 11  1  0
  9 12  1  0
 12 13  1  0
 12 14  2  0
 14 15  1  0
 15 16  2  0
 16 17  1  0
 16 18  1  0
 18 19  1  0
 18 20  2  0
 20 21  1  0
 21 22  1  0
 22 23  2  0
 22 24  1  0
 24 25  1  0
 24 26  1  0
 24 27  1  0
 27 28  1  0
 27 29  1  0
 27 30  1  0
 20 31  1  0
 31 32  1  0
 31 33  2  0
 33 34  1  0
  8 35  1  0
 35 36  1  0
 35 37  2  0
 37 38  1  0
 37  3  1  0
 33 15  1  0
M  CHG  4  19  -1  21  -1  34  -1  38  -1
M  END
>  <UniqueID>  (3) 
3

>  <SMILES>  (3) 
CCC(=O)[N-]c1cc([O-])c(/N=C/Cc2ccc(O)c([O-])c2)cc1[O-]

>  <Energy>  (3) 
43.66646129589195

>  <Genealogy>  (3) 
CCC(=O)[N-]c1cc([O-])c(N=CCc2ccc(O)c([O-])c2)cc1[O-] (protonated)
CCC(=O)[N-]c1cc([O-])c(/N=C/Cc2ccc(O)c([O-])c2)cc1[O-] (cis-trans isomerization)
CCC(=O)[N-]c1cc([O-])c(/N=C/Cc2ccc(O)c([O-])c2)cc1[O-] (3D coordinates assigned)
CCC(=O)[N-]c1cc([O-])c(/N=C/Cc2ccc(O)c([O-])c2)cc1[O-] (optimized conformer: 43.66646129589195 kcal/mol)

>  <smiles>  (3) 
CCC(=O)Nc1cc(O)c(N=CCc2ccc(O)c(O)c2)cc1O

>  <score_type>  (3) 
oracle

>  <origin>  (3) 
adgpu

>  <m_score__min__energy>  (3) 
-11.41

>  <m_primary>  (3) 
energy

$$$$
3:0
     RDKit          3D

 27 28  0  0  0  0  0  0  0  0999 V2000
   -2.0690   22.6280  -27.3860 C   0  0  0  0  0  0  0  0  0  0  0  0
   -2.7880   22.8530  -28.6870 C   0  0  0  0  0  0  0  0  0  0  0  0
   -2.9750   24.1580  -29.1680 C   0  0  0  0  0  0  0  0  0  0  0  0
   -3.6720   24.3790  -30.3580 C   0  0  0  0  0  0  0  0  0  0  0  0
   -3.8590   25.6750  -30.8230 O   0  0  0  0  0  0  0  0  0  0  0  0
   -4.1810   23.2990  -31.0810 C   0  0  0  0  0  0  0  0  0  0  0  0
   -3.9900   21.9890  -30.6270 C   0  0  0  0  0  0  0  0  0  0  0  0
   -4.5280   20.9070  -31.3980 N   0  0  0  0  0  0  0  0  0  0  0  0
   -5.7870   20.7380  -31.6930 C   0  0  0  0  0  0  0  0  0  0  0  0
   -6.1700   19.5870  -32.5360 C   0  0  0  0  0  0  0  0  0  0  0  0
   -7.4490   19.3770  -32.8630 C   0  0  0  0  0  0  0  0  0  0  0  0
   -8.4980   20.2900  -32.3770 C   0  0  0  0  0  0  0  0  0  0  0  0
   -9.7020   20.0950  -32.6890 O   0  0  0  0  0  0  0  0  0  0  0  0
   -8.1320   21.4320  -31.5180 C   0  0  0  0  0  0  0  0  0  0  0  0
   -6.8540   21.6450  -31.1900 C   0  0  0  0  0  0  0  0  0  0  0  0
   -3.3180   21.7630  -29.4040 C   0  0  0  0  0  0  0  0  0  0  0  0
   -3.1830   20.4740  -28.8820 O   0  0  0  0  0  0  0  0  0  0  0  0
   -2.7502   22.8412  -26.5490 H   0  0  0  0  0  0  0  0  0  0  0  0
   -1.7336   21.5820  -27.3285 H   0  0  0  0  0  0  0  0  0  0  0  0
   -1.1971   23.2963  -27.3285 H   0  0  0  0  0  0  0  0  0  0  0  0
   -2.5703   25.0117  -28.6046 H   0  0  0  0  0  0  0  0  0  0  0  0
   -4.7359   23.4787  -32.0137 H   0  0  0  0  0  0  0  0  0  0  0  0
   -5.3949   18.8957  -32.8983 H   0  0  0  0  0  0  0  0  0  0  0  0
   -7.7191   18.5197  -33.4971 H   0  0  0  0  0  0  0  0  0  0  0  0
   -8.9137   22.1107  -31.1461 H   0  0  0  0  0  0  0  0  0  0  0  0
   -6.5894   22.4956  -30.5446 H   0  0  0  0  0  0  0  0  0  0  0  0
   -3.6550   19.6700  -29.2770 H   0  0  0  0  0  0  0  0  0  0  0  0
  1  2  1  0
  2  3  2  0
  3  4  1  0
  4  5  1  0
  4  6  2  0
  6  7  1  0
  7  8  1  0
  8  9  2  3
  9 10  1  0
 10 11  2  0
 11 12  1  0
 12 13  2  0
 12 14  1  0
 14 15  2  0
  7 16  2  0
 16 17  1  0
 16  2  1  0
 15  9  1  0
  1 18  1  0
  1 19  1  0
  1 20  1  0
  3 21  1  0
  6 22  1  0
 10 23  1  0
 11 24  1  0
 14 25  1  0
 15 26  1  0
 17 27  1  0
M  CHG  1   5  -1
M  END
>  <UniqueID>  (4) 
4

>  <SMILES>  (4) 
Cc1cc([O-])cc(N=C2C=CC(=O)C=C2)c1O

>  <Energy>  (4) 
34.4694133192537

>  <Genealogy>  (4) 
Cc1cc([O-])cc(N=C2C=CC(=O)C=C2)c1O (protonated)
Cc1cc([O-])cc(N=C2C=CC(=O)C=C2)c1O (3D coordinates assigned)
Cc1cc([O-])cc(N=C2C=CC(=O)C=C2)c1O (nonaromatic ring conformer: 34.4694133192537 kcal/mol)

>  <smiles>  (4) 
Cc1cc(O)cc(N=C2C=CC(=O)C=C2)c1O

>  <score_type>  (4) 
oracle

>  <origin>  (4) 
adgpu

>  <m_score__min__energy>  (4) 
-9

>  <m_primary>  (4) 
energy

$$$$
4:0
     RDKit          3D

 41 43  0  0  0  0  0  0  0  0999 V2000
   -5.5650   26.0580  -30.4280 O   0  0  0  0  0  0  0  0  0  0  0  0
   -4.9240   24.9850  -30.5940 C   0  0  0  0  0  0  0  0  0  0  0  0
   -3.5030   24.9990  -30.4000 N   0  0  0  0  0  0  0  0  0  0  0  0
   -2.7750   24.2520  -29.4140 C   0  0  0  0  0  0  0  0  0  0  0  0
   -1.5200   23.6840  -29.7040 C   0  0  0  0  0  0  0  0  0  0  0  0
   -0.8250   22.9740  -28.7220 C   0  0  0  0  0  0  0  0  0  0  0  0
   -1.3640   22.8390  -27.4410 C   0  0  0  0  0  0  0  0  0  0  0  0
   -2.5980   23.4190  -27.1380 C   0  0  0  0  0  0  0  0  0  0  0  0
   -3.3030   24.1320  -28.1190 C   0  0  0  0  0  0  0  0  0  0  0  0
   -4.5320   24.7160  -27.8150 O   0  0  0  0  0  0  0  0  0  0  0  0
   -5.6600   23.7440  -30.9280 C   0  0  0  0  0  0  0  0  0  0  0  0
   -5.2960   22.9890  -32.0560 C   0  0  0  0  0  0  0  0  0  0  0  0
   -5.9890   21.8190  -32.3780 C   0  0  0  0  0  0  0  0  0  0  0  0
   -7.0640   21.3930  -31.5880 C   0  0  0  0  0  0  0  0  0  0  0  0
   -7.9490   19.9250  -32.0080 S   0  0  0  0  0  0  0  0  0  0  0  0
   -9.1090   19.7610  -31.0640 O   0  0  0  0  0  0  0  0  0  0  0  0
   -8.5010   20.0630  -33.3990 O   0  0  0  0  0  0  0  0  0  0  0  0
   -6.9350   18.4990  -31.9260 N   0  0  0  0  0  0  0  0  0  0  0  0
   -7.1820   17.6070  -33.0640 C   0  0  0  0  0  0  0  0  0  0  0  0
   -6.1090   17.8560  -34.1130 C   0  0  0  0  0  0  0  0  0  0  0  0
   -5.0310   18.6640  -33.4180 C   0  0  0  0  0  0  0  0  0  0  0  0
   -5.5130   18.8550  -31.9870 C   0  0  0  0  0  0  0  0  0  0  0  0
   -7.4360   22.1450  -30.4680 C   0  0  0  0  0  0  0  0  0  0  0  0
   -6.7460   23.3160  -30.1430 C   0  0  0  0  0  0  0  0  0  0  0  0
   -1.0850   23.7997  -30.7077 H   0  0  0  0  0  0  0  0  0  0  0  0
    0.1488   22.5204  -28.9584 H   0  0  0  0  0  0  0  0  0  0  0  0
   -0.8169   22.2759  -26.6705 H   0  0  0  0  0  0  0  0  0  0  0  0
   -3.0184   23.3163  -26.1267 H   0  0  0  0  0  0  0  0  0  0  0  0
   -4.9480   25.4170  -28.4150 H   0  0  0  0  0  0  0  0  0  0  0  0
   -4.4603   23.3211  -32.6895 H   0  0  0  0  0  0  0  0  0  0  0  0
   -5.6885   21.2295  -33.2567 H   0  0  0  0  0  0  0  0  0  0  0  0
   -7.1394   16.5596  -32.7307 H   0  0  0  0  0  0  0  0  0  0  0  0
   -8.1775   17.8038  -33.4885 H   0  0  0  0  0  0  0  0  0  0  0  0
   -5.6988   16.9018  -34.4752 H   0  0  0  0  0  0  0  0  0  0  0  0
   -6.5132   18.3877  -34.9870 H   0  0  0  0  0  0  0  0  0  0  0  0
   -4.0756   18.1189  -33.4308 H   0  0  0  0  0  0  0  0  0  0  0  0
   -4.8609   19.6280  -33.9198 H   0  0  0  0  0  0  0  0  0  0  0  0
   -4.9379   18.2048  -31.3114 H   0  0  0  0  0  0  0  0  0  0  0  0
   -5.3715   19.9009  -31.6769 H   0  0  0  0  0  0  0  0  0  0  0  0
   -8.2759   21.8127  -29.8402 H   0  0  0  0  0  0  0  0  0  0  0  0
   -7.0541   23.9068  -29.2678 H   0  0  0  0  0  0  0  0  0  0  0  0
  1  2  2  0
  2  3  1  0
  3  4  1  0
  4  5  2  0
  5  6  1  0
  6  7  2  0
  7  8  1  0
  8  9  2  0
  9 10  1  0
  2 11  1  0
 11 12  2  0
 12 13  1  0
 13 14  2  0
 14 15  1  0
 15 16  2  0
 15 17  2  0
 15 18  1  0
 18 19  1  0
 19 20  1  0
 20 21  1  0
 21 22  1  0
 14 23  1  0
 23 24  2  0
  9  4  1  0
 24 11  1  0
 22 18  1  0
  5 25  1  0
  6 26  1  0
  7 27  1  0
  8 28  1  0
 10 29  1  0
 12 30  1  0
 13 31  1  0
 19 32  1  0
 19 33  1  0
 20 34  1  0
 20 35  1  0
 21 36  1  0
 21 37  1  0
 22 38  1  0
 22 39  1  0
 23 40  1  0
 24 41  1  0
M  CHG  1   3  -1
M  END
>  <UniqueID>  (5) 
5

>  <SMILES>  (5) 
O=C([N-]c1ccccc1O)c1ccc(S(=O)(=O)N2CCCC2)cc1

>  <Energy>  (5) 
49.12193301281348

>  <Genealogy>  (5) 
O=C([N-]c1ccccc1O)c1ccc(S(=O)(=O)N2CCCC2)cc1 (protonated)
O=C([N-]c1ccccc1O)c1ccc(S(=O)(=O)N2CCCC2)cc1 (3D coordinates assigned)
O=C([N-]c1ccccc1O)c1ccc(S(=O)(=O)N2CCCC2)cc1 (nonaromatic ring conformer: 49.12193301281348 kcal/mol)

>  <smiles>  (5) 
O=C(Nc1ccccc1O)c1ccc(S(=O)(=O)N2CCCC2)cc1

>  <score_type>  (5) 
oracle

>  <origin>  (5) 
adgpu

>  <m_score__min__energy>  (5) 
-12.369999999999999

>  <m_primary>  (5) 
energy

$$$$
5:0
     RDKit          3D

 53 55  0  0  0  0  0  0  0  0999 V2000
   -8.5560   19.7650  -31.6120 C   0  0  0  0  0  0  0  0  0  0  0  0
   -7.7640   21.0360  -31.7060 C   0  0  0  0  0  0  0  0  0  0  0  0
   -8.3080   22.2400  -31.2350 C   0  0  0  0  0  0  0  0  0  0  0  0
   -7.5630   23.4220  -31.2960 C   0  0  0  0  0  0  0  0  0  0  0  0
   -6.2620   23.4140  -31.8340 C   0  0  0  0  0  0  0  0  0  0  0  0
   -5.4530   24.5970  -31.8880 N   0  0  0  0  0  0  0  0  0  0  0  0
   -4.9220   25.3240  -30.7700 C   0  0  0  0  0  0  0  0  0  0  0  0
   -5.6800   26.0000  -30.0240 O   0  0  0  0  0  0  0  0  0  0  0  0
   -3.5200   25.2890  -30.4850 N   0  0  0  0  0  0  0  0  0  0  0  0
   -2.9090   24.4720  -29.4760 C   0  0  0  0  0  0  0  0  0  0  0  0
   -3.5850   23.3320  -29.0490 C   0  0  0  0  0  0  0  0  0  0  0  0
   -3.0020   22.4690  -28.1290 C   0  0  0  0  0  0  0  0  0  0  0  0
   -1.7400   22.7470  -27.5810 C   0  0  0  0  0  0  0  0  0  0  0  0
   -1.1490   21.7310  -26.6360 C   0  0  0  0  0  0  0  0  0  0  0  0
   -1.0860   23.9670  -27.9110 C   0  0  0  0  0  0  0  0  0  0  0  0
    0.4310   24.4650  -27.1000 S   0  0  0  0  0  0  0  0  0  0  0  0
    1.4560   24.8870  -28.1170 O   0  0  0  0  0  0  0  0  0  0  0  0
    1.0090   23.2730  -26.3900 O   0  0  0  0  0  0  0  0  0  0  0  0
    0.1690   25.7400  -25.9180 N   0  0  0  0  0  0  0  0  0  0  0  0
   -1.2510   25.8020  -25.5310 C   0  0  0  0  0  0  0  0  0  0  0  0
   -1.4990   26.7900  -24.3680 C   0  0  0  0  0  0  0  0  0  0  0  0
   -0.3160   27.6140  -24.0460 N   0  0  0  0  0  0  0  0  0  0  0  0
   -0.0760   28.6740  -25.0450 C   0  0  0  0  0  0  0  0  0  0  0  0
    0.8880   26.7910  -23.7880 C   0  0  0  0  0  0  0  0  0  0  0  0
    1.0200   25.5750  -24.7320 C   0  0  0  0  0  0  0  0  0  0  0  0
   -1.6650   24.8080  -28.9030 C   0  0  0  0  0  0  0  0  0  0  0  0
   -1.0310   25.9760  -29.3410 O   0  0  0  0  0  0  0  0  0  0  0  0
   -5.7070   22.2030  -32.2640 C   0  0  0  0  0  0  0  0  0  0  0  0
   -6.4530   21.0210  -32.2090 C   0  0  0  0  0  0  0  0  0  0  0  0
   -8.7152   19.5096  -30.5540 H   0  0  0  0  0  0  0  0  0  0  0  0
   -9.5290   19.9018  -32.1066 H   0  0  0  0  0  0  0  0  0  0  0  0
   -8.0044   18.9519  -32.1066 H   0  0  0  0  0  0  0  0  0  0  0  0
   -9.3249   22.2546  -30.8159 H   0  0  0  0  0  0  0  0  0  0  0  0
   -7.9953   24.3618  -30.9221 H   0  0  0  0  0  0  0  0  0  0  0  0
   -4.5884   23.1128  -29.4430 H   0  0  0  0  0  0  0  0  0  0  0  0
   -3.5363   21.5564  -27.8263 H   0  0  0  0  0  0  0  0  0  0  0  0
   -1.3321   22.0457  -25.5980 H   0  0  0  0  0  0  0  0  0  0  0  0
   -1.6183   20.7515  -26.8104 H   0  0  0  0  0  0  0  0  0  0  0  0
   -0.0656   21.6547  -26.8104 H   0  0  0  0  0  0  0  0  0  0  0  0
   -1.8412   26.1247  -26.4014 H   0  0  0  0  0  0  0  0  0  0  0  0
   -1.5515   24.7998  -25.1914 H   0  0  0  0  0  0  0  0  0  0  0  0
   -2.3263   27.4591  -24.6473 H   0  0  0  0  0  0  0  0  0  0  0  0
   -1.7360   26.1930  -23.4750 H   0  0  0  0  0  0  0  0  0  0  0  0
    0.1386   29.6218  -24.5296 H   0  0  0  0  0  0  0  0  0  0  0  0
    0.7821   28.3967  -25.6749 H   0  0  0  0  0  0  0  0  0  0  0  0
   -0.9699   28.7934  -25.6749 H   0  0  0  0  0  0  0  0  0  0  0  0
    1.7770   27.4266  -23.9132 H   0  0  0  0  0  0  0  0  0  0  0  0
    0.7962   26.3968  -22.7652 H   0  0  0  0  0  0  0  0  0  0  0  0
    2.0683   25.4783  -25.0510 H   0  0  0  0  0  0  0  0  0  0  0  0
    0.6994   24.6725  -24.1910 H   0  0  0  0  0  0  0  0  0  0  0  0
   -1.2370   26.4310  -30.2200 H   0  0  0  0  0  0  0  0  0  0  0  0
   -4.6765   22.1807  -32.6480 H   0  0  0  0  0  0  0  0  0  0  0  0
   -6.0114   20.0770  -32.5608 H   0  0  0  0  0  0  0  0  0  0  0  0
  1  2  1  0
  2  3  2  0
  3  4  1  0
  4  5  2  0
  5  6  1  0
  6  7  1  0
  7  8  2  0
  7  9  1  0
  9 10  1  0
 10 11  2  0
 11 12  1  0
 12 13  2  0
 13 14  1  0
 13 15  1  0
 15 16  1  0
 16 17  2  0
 16 18  2  0
 16 19  1  0
 19 20  1  0
 20 21  1  0
 21 22  1  0
 22 23  1  0
 22 24  1  0
 24 25  1  0
 15 26  2  0
 26 27  1  0
  5 28  1  0
 28 29  2  0
 29  2  1  0
 26 10  1  0
 25 19  1  0
  1 30  1  0
  1 31  1  0
  1 32  1  0
  3 33  1  0
  4 34  1  0
 11 35  1  0
 12 36  1  0
 14 37  1  0
 14 38  1  0
 14 39  1  0
 20 40  1  0
 20 41  1  0
 21 42  1  0
 21 43  1  0
 23 44  1  0
 23 45  1  0
 23 46  1  0
 24 47  1  0
 24 48  1  0
 25 49  1  0
 25 50  1  0
 27 51  1  0
 28 52  1  0
 29 53  1  0
M  CHG  2   6  -1   9  -1
M  END
>  <UniqueID>  (6) 
6

>  <SMILES>  (6) 
Cc1ccc([N-]C(=O)[N-]c2ccc(C)c(S(=O)(=O)N3CCN(C)CC3)c2O)cc1

>  <Energy>  (6) 
79.56939121380744

>  <Genealogy>  (6) 
Cc1ccc([N-]C(=O)[N-]c2ccc(C)c(S(=O)(=O)N3CCN(C)CC3)c2O)cc1 (protonated)
Cc1ccc([N-]C(=O)[N-]c2ccc(C)c(S(=O)(=O)N3CCN(C)CC3)c2O)cc1 (3D coordinates assigned)
Cc1ccc([N-]C(=O)[N-]c2ccc(C)c(S(=O)(=O)N3CCN(C)CC3)c2O)cc1 (nonaromatic ring conformer: 79.56939121380744 kcal/mol)

>  <smiles>  (6) 
Cc1ccc(NC(=O)Nc2ccc(C)c(S(=O)(=O)N3CCN(C)CC3)c2O)cc1

>  <score_type>  (6) 
oracle

>  <origin>  (6) 
adgpu

>  <m_score__min__energy>  (6) 
-13.52

>  <m_primary>  (6) 
energy

$$$$
6:0
     RDKit          3D

 57 60  0  0  0  0  0  0  0  0999 V2000
   -8.1418   22.9312  -29.3244 H   0  0  0  0  0  0  0  0  0  0  0  0
   -7.2280   22.7490  -29.9090 C   0  0  0  0  0  0  0  0  0  0  0  0
   -7.3220   22.2120  -31.2010 C   0  0  0  0  0  0  0  0  0  0  0  0
   -8.9040   21.8170  -31.8720 S   0  0  0  0  0  0  0  0  0  0  0  0
   -9.8370   21.5050  -30.7350 O   0  0  0  0  0  0  0  0  0  0  0  0
   -9.4510   23.0040  -32.6150 O   0  0  0  0  0  0  0  0  0  0  0  0
   -8.8010   20.4250  -32.9280 N   0  0  0  0  0  0  0  0  0  0  0  0
   -9.3570   19.2060  -32.3060 C   0  0  0  0  0  0  0  0  0  0  0  0
  -10.3248   19.4568  -31.8473 H   0  0  0  0  0  0  0  0  0  0  0  0
   -9.4616   18.4506  -33.0988 H   0  0  0  0  0  0  0  0  0  0  0  0
   -8.4390   18.6110  -31.2210 C   0  0  0  0  0  0  0  0  0  0  0  0
   -8.6022   19.1628  -30.2835 H   0  0  0  0  0  0  0  0  0  0  0  0
   -8.6958   17.5459  -31.1229 H   0  0  0  0  0  0  0  0  0  0  0  0
   -6.9370   18.6910  -31.5840 C   0  0  0  0  0  0  0  0  0  0  0  0
   -6.5101   19.5412  -31.0318 H   0  0  0  0  0  0  0  0  0  0  0  0
   -6.1950   17.4210  -31.1530 C   0  0  0  0  0  0  0  0  0  0  0  0
   -6.1646   17.3690  -30.0547 H   0  0  0  0  0  0  0  0  0  0  0  0
   -6.7194   16.5382  -31.5475 H   0  0  0  0  0  0  0  0  0  0  0  0
   -5.1684   17.4444  -31.5475 H   0  0  0  0  0  0  0  0  0  0  0  0
   -6.7370   18.9530  -33.0820 C   0  0  0  0  0  0  0  0  0  0  0  0
   -5.6610   19.0375  -33.2944 H   0  0  0  0  0  0  0  0  0  0  0  0
   -7.1709   18.1174  -33.6507 H   0  0  0  0  0  0  0  0  0  0  0  0
   -7.4400   20.2580  -33.4990 C   0  0  0  0  0  0  0  0  0  0  0  0
   -6.8206   21.1046  -33.1680 H   0  0  0  0  0  0  0  0  0  0  0  0
   -7.5581   20.2184  -34.5919 H   0  0  0  0  0  0  0  0  0  0  0  0
   -6.1560   21.9660  -31.9400 C   0  0  0  0  0  0  0  0  0  0  0  0
   -6.2266   21.5380  -32.9509 H   0  0  0  0  0  0  0  0  0  0  0  0
   -4.8990   22.2650  -31.3920 C   0  0  0  0  0  0  0  0  0  0  0  0
   -3.7180   22.0240  -32.1040 C   0  0  0  0  0  0  0  0  0  0  0  0
   -3.7618   21.5916  -33.1145 H   0  0  0  0  0  0  0  0  0  0  0  0
   -2.4840   22.3340  -31.5280 C   0  0  0  0  0  0  0  0  0  0  0  0
   -1.5528   22.1453  -32.0823 H   0  0  0  0  0  0  0  0  0  0  0  0
   -2.4370   22.8860  -30.2420 C   0  0  0  0  0  0  0  0  0  0  0  0
   -1.2800   23.1750  -29.7170 N   0  0  0  0  0  0  0  0  0  0  0  0
   -1.0500   23.7510  -28.4230 C   0  0  0  0  0  0  0  0  0  0  0  0
   -1.9510   24.4870  -27.7380 N   0  0  0  0  0  0  0  0  0  0  0  0
   -1.4630   24.9160  -26.5420 C   0  0  0  0  0  0  0  0  0  0  0  0
   -2.3340   25.6970  -25.6100 C   0  0  0  0  0  0  0  0  0  0  0  0
   -2.0664   25.4570  -24.5704 H   0  0  0  0  0  0  0  0  0  0  0  0
   -2.1885   26.7729  -25.7871 H   0  0  0  0  0  0  0  0  0  0  0  0
   -3.3877   25.4355  -25.7871 H   0  0  0  0  0  0  0  0  0  0  0  0
   -0.1400   24.5170  -26.2740 C   0  0  0  0  0  0  0  0  0  0  0  0
    0.7030   24.7960  -25.0920 C   0  0  0  0  0  0  0  0  0  0  0  0
    1.6260   23.9890  -24.8040 O   0  0  0  0  0  0  0  0  0  0  0  0
    0.5520   26.0400  -24.2580 C   0  0  0  0  0  0  0  0  0  0  0  0
    1.4100   26.1216  -23.5745 H   0  0  0  0  0  0  0  0  0  0  0  0
   -0.3871   25.9699  -23.6896 H   0  0  0  0  0  0  0  0  0  0  0  0
    0.5000   27.1940  -25.0760 O   0  0  0  0  0  0  0  0  0  0  0  0
   -0.2960   28.1880  -24.4670 C   0  0  0  0  0  0  0  0  0  0  0  0
   -0.2231   28.0969  -23.3732 H   0  0  0  0  0  0  0  0  0  0  0  0
    0.0584   29.1822  -24.7766 H   0  0  0  0  0  0  0  0  0  0  0  0
   -1.3437   28.0594  -24.7766 H   0  0  0  0  0  0  0  0  0  0  0  0
    0.3880   23.5910  -27.5800 S   0  0  0  0  0  0  0  0  0  0  0  0
   -3.5980   23.1090  -29.5630 N   0  0  0  0  0  0  0  0  0  0  0  0
   -4.8140   22.8150  -30.0960 C   0  0  0  0  0  0  0  0  0  0  0  0
   -5.9790   23.0540  -29.3600 C   0  0  0  0  0  0  0  0  0  0  0  0
   -5.9125   23.4821  -28.3489 H   0  0  0  0  0  0  0  0  0  0  0  0
  1  2  1  0
  2  3  2  0
  3  4  1  0
  4  5  2  0
  4  6  2  0
  4  7  1  0
  7  8  1  0
  8  9  1  0
  8 10  1  0
  8 11  1  0
 11 12  1  0
 11 13  1  0
 11 14  1  0
 14 15  1  0
 14 16  1  0
 16 17  1  0
 16 18  1  0
 16 19  1  0
 14 20  1  0
 20 21  1  0
 20 22  1  0
 20 23  1  0
 23 24  1  0
 23 25  1  0
  3 26  1  0
 26 27  1  0
 26 28  2  0
 28 29  1  0
 29 30  1  0
 29 31  2  0
 31 32  1  0
 31 33  1  0
 33 34  2  0
 34 35  1  0
 35 36  2  0
 36 37  1  0
 37 38  1  0
 38 39  1  0
 38 40  1  0
 38 41  1  0
 37 42  2  0
 42 43  1  0
 43 44  2  0
 43 45  1  0
 45 46  1  0
 45 47  1  0
 45 48  1  0
 48 49  1  0
 49 50  1  0
 49 51  1  0
 49 52  1  0
 42 53  1  0
 33 54  1  0
 54 55  1  0
 55 56  2  0
 56 57  1  0
 56  2  1  0
 23  7  1  0
 55 28  1  0
 53 35  1  0
M  CHG  1  54  -1
M  END
>  <UniqueID>  (7) 
7

>  <SMILES>  (7) 
COCC(=O)c1sc(/N=c2/ccc3cc(S(=O)(=O)N4CCC(C)CC4)ccc3[n-]2)nc1C

>  <Energy>  (7) 
104.19249596689345

>  <Genealogy>  (7) 
COCC(=O)c1sc(N=c2ccc3cc(S(=O)(=O)N4CCC(C)CC4)ccc3[n-]2)nc1C (protonated)
COCC(=O)c1sc(/N=c2/ccc3cc(S(=O)(=O)N4CCC(C)CC4)ccc3[n-]2)nc1C (cis-trans isomerization)
COCC(=O)c1sc(/N=c2/ccc3cc(S(=O)(=O)N4CCC(C)CC4)ccc3[n-]2)nc1C (3D coordinates assigned)
COCC(=O)c1sc(/N=c2/ccc3cc(S(=O)(=O)N4CCC(C)CC4)ccc3[n-]2)nc1C (nonaromatic ring conformer: 104.19249596689345 kcal/mol)

>  <smiles>  (7) 
COCC(=O)c1sc(N=c2ccc3cc(S(=O)(=O)N4CCC(C)CC4)ccc3[nH]2)nc1C

>  <score_type>  (7) 
oracle

>  <origin>  (7) 
adgpu

>  <m_score__min__energy>  (7) 
-10.94

>  <m_primary>  (7) 
energy

$$$$
7:0
     RDKit          3D

 49 51  0  0  1  0  0  0  0  0999 V2000
   -6.9020   25.3690  -29.6510 C   0  0  0  0  0  0  0  0  0  0  0  0
   -7.1900   24.0000  -29.5280 O   0  0  0  0  0  0  0  0  0  0  0  0
   -7.1090   23.0860  -30.5420 C   0  0  0  0  0  0  0  0  0  0  0  0
   -8.0560   22.1040  -30.7670 C   0  0  0  0  0  0  0  0  0  0  0  0
   -7.9420   21.1870  -31.8080 C   0  0  0  0  0  0  0  0  0  0  0  0
   -8.9810   20.1490  -32.0230 C   0  0  0  0  0  0  0  0  0  0  0  0
   -6.8600   21.2350  -32.6590 C   0  0  0  0  0  0  0  0  0  0  0  0
   -6.6680   20.3300  -33.7390 N   0  0  0  0  0  0  0  0  0  0  0  0
   -5.3850   19.1870  -33.7470 S   0  0  0  0  0  0  0  0  0  0  0  0
   -5.5880   18.1130  -32.3510 C   0  0  0  0  0  0  0  0  0  0  0  0
   -5.4400   18.4090  -35.0350 O   0  0  0  0  0  0  0  0  0  0  0  0
   -4.0840   19.9370  -33.6290 O   0  0  0  0  0  0  0  0  0  0  0  0
   -5.9180   22.2170  -32.4290 C   0  0  0  0  0  0  0  0  0  0  0  0
   -6.0350   23.1250  -31.3930 C   0  0  0  0  0  0  0  0  0  0  0  0
   -4.9790   24.0980  -31.2700 N   0  0  0  0  0  0  0  0  0  0  0  0
   -4.1450   24.0080  -30.2800 C   0  0  0  0  0  0  0  0  0  0  0  0
   -4.3630   22.9670  -29.4290 N   0  0  0  0  0  0  0  0  0  0  0  0
   -3.5340   22.7990  -28.3640 C   0  0  0  0  0  0  0  0  0  0  0  0
   -3.8230   21.6970  -27.5140 N   0  0  0  0  0  0  0  0  0  0  0  0
   -3.0620   20.6690  -27.3620 C   0  0  0  0  0  0  0  0  0  0  0  0
   -1.8420   20.5090  -28.0290 C   0  0  0  0  0  0  0  0  0  0  0  0
   -1.3810   19.2780  -27.5610 C   0  0  0  0  0  0  0  0  0  0  0  0
   -0.1210   18.6370  -27.9550 C   0  0  0  0  0  0  0  0  0  0  0  0
   -2.2790   18.7920  -26.7030 N   0  0  0  0  0  0  0  0  0  0  0  0
   -3.3110   19.6350  -26.5740 N   0  0  0  0  0  0  0  0  0  0  0  0
   -2.4730   23.6650  -28.1300 C   0  0  0  0  0  0  0  0  0  0  0  0
   -2.2990   24.7010  -29.0240 C   0  0  0  0  0  0  0  0  0  0  0  0
   -3.1300   24.8740  -30.0950 N   0  0  0  0  0  0  0  0  0  0  0  0
   -6.8081   25.8153  -28.6500 H   0  0  0  0  0  0  0  0  0  0  0  0
   -5.9572   25.4971  -30.1997 H   0  0  0  0  0  0  0  0  0  0  0  0
   -7.7151   25.8669  -30.1997 H   0  0  0  0  0  0  0  0  0  0  0  0
   -8.9292   22.0454  -30.1007 H   0  0  0  0  0  0  0  0  0  0  0  0
   -9.3439   19.7864  -31.0500 H   0  0  0  0  0  0  0  0  0  0  0  0
   -9.8193   20.5811  -32.5892 H   0  0  0  0  0  0  0  0  0  0  0  0
   -8.5497   19.3103  -32.5892 H   0  0  0  0  0  0  0  0  0  0  0  0
   -7.3600   20.3980  -34.5380 H   0  0  0  0  0  0  0  0  0  0  0  0
   -5.4783   18.6933  -31.4230 H   0  0  0  0  0  0  0  0  0  0  0  0
   -6.5883   17.6565  -32.3820 H   0  0  0  0  0  0  0  0  0  0  0  0
   -4.8233   17.3229  -32.3820 H   0  0  0  0  0  0  0  0  0  0  0  0
   -5.0434   22.2795  -33.0932 H   0  0  0  0  0  0  0  0  0  0  0  0
   -1.3625   21.1893  -28.7483 H   0  0  0  0  0  0  0  0  0  0  0  0
    0.4420   18.3506  -27.0544 H   0  0  0  0  0  0  0  0  0  0  0  0
   -0.3375   17.7395  -28.5529 H   0  0  0  0  0  0  0  0  0  0  0  0
    0.4770   19.3405  -28.5529 H   0  0  0  0  0  0  0  0  0  0  0  0
   -2.1740   17.8740  -26.2030 H   0  0  0  0  0  0  0  0  0  0  0  0
   -4.1390   19.4530  -25.9470 H   0  0  0  0  0  0  0  0  0  0  0  0
   -1.8011   23.5304  -27.2695 H   0  0  0  0  0  0  0  0  0  0  0  0
   -1.4692   25.4067  -28.8707 H   0  0  0  0  0  0  0  0  0  0  0  0
   -2.9880   25.6690  -30.7710 H   0  0  0  0  0  0  0  0  0  0  0  0
  1  2  1  0
  2  3  1  0
  3  4  2  0
  4  5  1  0
  5  6  1  0
  5  7  2  0
  7  8  1  0
  8  9  1  0
  9 10  1  0
  9 11  2  0
  9 12  2  0
  7 13  1  0
 13 14  2  0
 14 15  1  0
 15 16  2  0
 16 17  1  0
 17 18  2  0
 18 19  1  0
 19 20  2  0
 20 21  1  0
 21 22  2  0
 22 23  1  0
 22 24  1  0
 24 25  1  0
 18 26  1  0
 26 27  2  0
 27 28  1  0
 14  3  1  0
 28 16  1  0
 25 20  1  0
  1 29  1  0
  1 30  1  0
  1 31  1  0
  4 32  1  0
  6 33  1  0
  6 34  1  0
  6 35  1  0
  8 36  1  0
 10 37  1  0
 10 38  1  0
 10 39  1  0
 13 40  1  0
 21 41  1  0
 23 42  1  0
 23 43  1  0
 23 44  1  0
 24 45  1  0
 25 46  1  0
 26 47  1  0
 27 48  1  0
 28 49  1  0
M  END
>  <smiles>  (8) 
COc1cc(C)c(NS(C)(=O)=O)cc1N=c1nc(N=c2cc(C)[nH][nH]2)cc[nH]1

>  <score_type>  (8) 
oracle

>  <origin>  (8) 
adgpu

>  <m_score__min__energy>  (8) 
-9.5299999999999994

>  <m_primary>  (8) 
energy

$$$$
8:0
     RDKit          3D

 60 63  0  0  0  0  0  0  0  0999 V2000
    0.5820   24.1620  -25.0240 C   0  0  0  0  0  0  0  0  0  0  0  0
   -0.2510   24.2450  -26.2770 C   0  0  0  0  0  0  0  0  0  0  0  0
   -0.9790   23.1100  -26.6660 C   0  0  0  0  0  0  0  0  0  0  0  0
   -1.7640   23.1260  -27.8160 C   0  0  0  0  0  0  0  0  0  0  0  0
   -1.8300   24.2700  -28.6120 C   0  0  0  0  0  0  0  0  0  0  0  0
   -2.6570   24.2580  -29.7850 N   0  0  0  0  0  0  0  0  0  0  0  0
   -4.0600   24.5550  -29.7560 C   0  0  0  0  0  0  0  0  0  0  0  0
   -4.6150   24.8990  -28.6770 O   0  0  0  0  0  0  0  0  0  0  0  0
   -4.8250   24.4300  -30.9610 N   0  0  0  0  0  0  0  0  0  0  0  0
   -5.4000   23.2220  -31.4810 C   0  0  0  0  0  0  0  0  0  0  0  0
   -6.7530   23.2220  -31.8370 C   0  0  0  0  0  0  0  0  0  0  0  0
   -7.3600   22.0580  -32.3190 C   0  0  0  0  0  0  0  0  0  0  0  0
   -6.6180   20.8750  -32.4380 C   0  0  0  0  0  0  0  0  0  0  0  0
   -7.4000   19.3900  -32.9670 S   0  0  0  0  0  0  0  0  0  0  0  0
   -7.4560   18.4170  -31.8210 O   0  0  0  0  0  0  0  0  0  0  0  0
   -8.8050   19.6740  -33.4220 O   0  0  0  0  0  0  0  0  0  0  0  0
   -6.4940   18.6930  -34.2640 N   0  0  0  0  0  0  0  0  0  0  0  0
   -5.4820   17.7240  -33.9990 C   0  0  0  0  0  0  0  0  0  0  0  0
   -5.6300   16.3510  -33.9960 C   0  0  0  0  0  0  0  0  0  0  0  0
   -6.8930   15.5870  -34.2170 C   0  0  0  0  0  0  0  0  0  0  0  0
   -4.4130   15.7760  -33.8940 N   0  0  0  0  0  0  0  0  0  0  0  0
   -3.5140   16.7480  -33.8130 N   0  0  0  0  0  0  0  0  0  0  0  0
   -2.0750   16.5130  -33.7600 C   0  0  0  0  0  0  0  0  0  0  0  0
   -4.1280   17.9510  -33.8810 C   0  0  0  0  0  0  0  0  0  0  0  0
   -3.4310   19.2760  -33.9260 C   0  0  0  0  0  0  0  0  0  0  0  0
   -5.2700   20.8630  -32.0580 C   0  0  0  0  0  0  0  0  0  0  0  0
   -4.6640   22.0270  -31.5770 C   0  0  0  0  0  0  0  0  0  0  0  0
   -1.1290   25.4270  -28.2260 C   0  0  0  0  0  0  0  0  0  0  0  0
   -1.2840   26.5940  -28.9680 O   0  0  0  0  0  0  0  0  0  0  0  0
   -0.3020   25.4170  -27.0790 C   0  0  0  0  0  0  0  0  0  0  0  0
    0.5970   26.8880  -26.6330 S   0  0  0  0  0  0  0  0  0  0  0  0
    0.1810   28.0390  -27.5090 O   0  0  0  0  0  0  0  0  0  0  0  0
    2.0720   26.6790  -26.8290 O   0  0  0  0  0  0  0  0  0  0  0  0
    0.2780   27.2510  -24.9070 C   0  0  0  0  0  0  0  0  0  0  0  0
   -0.7430   28.3460  -24.6520 C   0  0  0  0  0  0  0  0  0  0  0  0
   -1.1200   26.8890  -24.4350 C   0  0  0  0  0  0  0  0  0  0  0  0
   -0.0734   24.2273  -24.1430 H   0  0  0  0  0  0  0  0  0  0  0  0
    1.1247   23.2053  -25.0072 H   0  0  0  0  0  0  0  0  0  0  0  0
    1.3028   24.9928  -25.0072 H   0  0  0  0  0  0  0  0  0  0  0  0
   -0.9289   22.1967  -26.0550 H   0  0  0  0  0  0  0  0  0  0  0  0
   -2.3363   22.2302  -28.0990 H   0  0  0  0  0  0  0  0  0  0  0  0
   -2.1920   24.2050  -30.7200 H   0  0  0  0  0  0  0  0  0  0  0  0
   -7.3438   24.1445  -31.7370 H   0  0  0  0  0  0  0  0  0  0  0  0
   -8.4220   22.0709  -32.6053 H   0  0  0  0  0  0  0  0  0  0  0  0
   -7.3347   15.3198  -33.2456 H   0  0  0  0  0  0  0  0  0  0  0  0
   -7.6024   16.2075  -34.7841 H   0  0  0  0  0  0  0  0  0  0  0  0
   -6.6727   14.6706  -34.7841 H   0  0  0  0  0  0  0  0  0  0  0  0
   -1.7506   16.4600  -32.7103 H   0  0  0  0  0  0  0  0  0  0  0  0
   -1.8395   15.5645  -34.2649 H   0  0  0  0  0  0  0  0  0  0  0  0
   -1.5500   17.3373  -34.2649 H   0  0  0  0  0  0  0  0  0  0  0  0
   -3.2459   19.6279  -32.9004 H   0  0  0  0  0  0  0  0  0  0  0  0
   -2.4727   19.1684  -34.4553 H   0  0  0  0  0  0  0  0  0  0  0  0
   -4.0625   20.0047  -34.4553 H   0  0  0  0  0  0  0  0  0  0  0  0
   -4.6862   19.9342  -32.1384 H   0  0  0  0  0  0  0  0  0  0  0  0
   -3.6072   22.0086  -31.2723 H   0  0  0  0  0  0  0  0  0  0  0  0
    1.3009   27.0484  -24.5567 H   0  0  0  0  0  0  0  0  0  0  0  0
   -0.6250   29.0180  -23.7892 H   0  0  0  0  0  0  0  0  0  0  0  0
   -1.1565   29.1769  -25.2425 H   0  0  0  0  0  0  0  0  0  0  0  0
   -1.2746   26.5067  -23.4152 H   0  0  0  0  0  0  0  0  0  0  0  0
   -1.9191   26.2288  -24.8034 H   0  0  0  0  0  0  0  0  0  0  0  0
  1  2  1  0
  2  3  2  0
  3  4  1  0
  4  5  2  0
  5  6  1  0
  6  7  1  0
  7  8  2  0
  7  9  1  0
  9 10  1  0
 10 11  2  0
 11 12  1  0
 12 13  2  0
 13 14  1  0
 14 15  2  0
 14 16  2  0
 14 17  1  0
 17 18  1  0
 18 19  1  0
 19 20  1  0
 19 21  2  0
 21 22  1  0
 22 23  1  0
 22 24  1  0
 24 25  1  0
 13 26  1  0
 26 27  2  0
  5 28  1  0
 28 29  1  0
 28 30  2  0
 30 31  1  0
 31 32  2  0
 31 33  2  0
 31 34  1  0
 34 35  1  0
 35 36  1  0
 30  2  1  0
 36 34  1  0
 27 10  1  0
 24 18  2  0
  1 37  1  0
  1 38  1  0
  1 39  1  0
  3 40  1  0
  4 41  1  0
  6 42  1  0
 11 43  1  0
 12 44  1  0
 20 45  1  0
 20 46  1  0
 20 47  1  0
 23 48  1  0
 23 49  1  0
 23 50  1  0
 25 51  1  0
 25 52  1  0
 25 53  1  0
 26 54  1  0
 27 55  1  0
 34 56  1  0
 35 57  1  0
 35 58  1  0
 36 59  1  0
 36 60  1  0
M  CHG  3   9  -1  17  -1  29  -1
M  END
>  <UniqueID>  (9) 
8

>  <SMILES>  (9) 
Cc1ccc(NC(=O)[N-]c2ccc(S(=O)(=O)[N-]c3c(C)nn(C)c3C)cc2)c([O-])c1S(=O)(=O)C1CC1

>  <Energy>  (9) 
374.01104102039653

>  <Genealogy>  (9) 
Cc1ccc(NC(=O)[N-]c2ccc(S(=O)(=O)[N-]c3c(C)nn(C)c3C)cc2)c([O-])c1S(=O)(=O)C1CC1 (protonated)
Cc1ccc(NC(=O)[N-]c2ccc(S(=O)(=O)[N-]c3c(C)nn(C)c3C)cc2)c([O-])c1S(=O)(=O)C1CC1 (3D coordinates assigned)
Cc1ccc(NC(=O)[N-]c2ccc(S(=O)(=O)[N-]c3c(C)nn(C)c3C)cc2)c([O-])c1S(=O)(=O)C1CC1 (nonaromatic ring conformer: 374.01104102039653 kcal/mol)

>  <smiles>  (9) 
Cc1ccc(NC(=O)Nc2ccc(S(=O)(=O)Nc3c(C)nn(C)c3C)cc2)c(O)c1S(=O)(=O)C1CC1

>  <score_type>  (9) 
oracle

>  <origin>  (9) 
adgpu

>  <m_score__min__energy>  (9) 
-13.470000000000001

>  <m_primary>  (9) 
energy

$$$$
9:0
     RDKit          3D

 43 45  0  0  0  0  0  0  0  0999 V2000
   -3.8640   25.6670  -30.4820 O   0  0  0  0  0  0  0  0  0  0  0  0
   -3.9540   24.4100  -30.4930 C   0  0  0  0  0  0  0  0  0  0  0  0
   -2.8020   23.6510  -30.3200 O   0  0  0  0  0  0  0  0  0  0  0  0
   -5.2640   23.7510  -30.6890 C   0  0  0  0  0  0  0  0  0  0  0  0
   -5.9780   23.2510  -29.5860 C   0  0  0  0  0  0  0  0  0  0  0  0
   -7.2070   22.6130  -29.7700 C   0  0  0  0  0  0  0  0  0  0  0  0
   -7.7370   22.4540  -31.0570 C   0  0  0  0  0  0  0  0  0  0  0  0
   -9.2340   21.5500  -31.2810 S   0  0  0  0  0  0  0  0  0  0  0  0
  -10.0940   21.7200  -30.0620 O   0  0  0  0  0  0  0  0  0  0  0  0
   -9.9790   22.0460  -32.4890 O   0  0  0  0  0  0  0  0  0  0  0  0
   -8.8610   19.8700  -31.4940 N   0  0  0  0  0  0  0  0  0  0  0  0
   -7.6360   19.3990  -32.0710 C   0  0  0  0  0  0  0  0  0  0  0  0
   -7.1500   20.0170  -33.2280 C   0  0  0  0  0  0  0  0  0  0  0  0
   -6.0330   19.4980  -33.8890 C   0  0  0  0  0  0  0  0  0  0  0  0
   -5.3830   18.3600  -33.3900 C   0  0  0  0  0  0  0  0  0  0  0  0
   -4.0430   17.6330  -34.2830 S   0  0  0  0  0  0  0  0  0  0  0  0
   -3.7130   16.2990  -33.6750 O   0  0  0  0  0  0  0  0  0  0  0  0
   -4.4700   17.4040  -35.7070 O   0  0  0  0  0  0  0  0  0  0  0  0
   -2.6100   18.6350  -34.2700 N   0  0  0  0  0  0  0  0  0  0  0  0
   -2.8800   19.9780  -33.7610 C   0  0  0  0  0  0  0  0  0  0  0  0
   -1.5650   20.5030  -33.2080 C   0  0  0  0  0  0  0  0  0  0  0  0
   -0.7110   19.2680  -32.9610 C   0  0  0  0  0  0  0  0  0  0  0  0
   -1.5660   18.0890  -33.4030 C   0  0  0  0  0  0  0  0  0  0  0  0
   -5.8230   17.7870  -32.1890 C   0  0  0  0  0  0  0  0  0  0  0  0
   -6.9450   18.2990  -31.5350 C   0  0  0  0  0  0  0  0  0  0  0  0
   -7.0380   22.9630  -32.1590 C   0  0  0  0  0  0  0  0  0  0  0  0
   -5.8100   23.6070  -31.9770 C   0  0  0  0  0  0  0  0  0  0  0  0
   -5.5664   23.3628  -28.5720 H   0  0  0  0  0  0  0  0  0  0  0  0
   -7.7618   22.2333  -28.8994 H   0  0  0  0  0  0  0  0  0  0  0  0
   -7.6492   20.9156  -33.6195 H   0  0  0  0  0  0  0  0  0  0  0  0
   -5.6626   19.9839  -34.8037 H   0  0  0  0  0  0  0  0  0  0  0  0
   -3.2368   20.6277  -34.5738 H   0  0  0  0  0  0  0  0  0  0  0  0
   -3.6589   19.9597  -32.9844 H   0  0  0  0  0  0  0  0  0  0  0  0
   -1.0788   21.1681  -33.9368 H   0  0  0  0  0  0  0  0  0  0  0  0
   -1.7119   21.0902  -32.2895 H   0  0  0  0  0  0  0  0  0  0  0  0
    0.2145   19.3155  -33.5536 H   0  0  0  0  0  0  0  0  0  0  0  0
   -0.4114   19.1827  -31.9060 H   0  0  0  0  0  0  0  0  0  0  0  0
   -0.9538   17.3621  -33.9569 H   0  0  0  0  0  0  0  0  0  0  0  0
   -2.0003   17.5662  -32.5381 H   0  0  0  0  0  0  0  0  0  0  0  0
   -5.2821   16.9305  -31.7601 H   0  0  0  0  0  0  0  0  0  0  0  0
   -7.2895   17.8397  -30.5967 H   0  0  0  0  0  0  0  0  0  0  0  0
   -7.4563   22.8558  -33.1707 H   0  0  0  0  0  0  0  0  0  0  0  0
   -5.2672   24.0038  -32.8476 H   0  0  0  0  0  0  0  0  0  0  0  0
  1  2  2  0
  2  3  1  0
  2  4  1  0
  4  5  2  0
  5  6  1  0
  6  7  2  0
  7  8  1  0
  8  9  2  0
  8 10  2  0
  8 11  1  0
 11 12  1  0
 12 13  2  0
 13 14  1  0
 14 15  2  0
 15 16  1  0
 16 17  2  0
 16 18  2  0
 16 19  1  0
 19 20  1  0
 20 21  1  0
 21 22  1  0
 22 23  1  0
 15 24  1  0
 24 25  2  0
  7 26  1  0
 26 27  2  0
 27  4  1  0
 25 12  1  0
 23 19  1  0
  5 28  1  0
  6 29  1  0
 13 30  1  0
 14 31  1  0
 20 32  1  0
 20 33  1  0
 21 34  1  0
 21 35  1  0
 22 36  1  0
 22 37  1  0
 23 38  1  0
 23 39  1  0
 24 40  1  0
 25 41  1  0
 26 42  1  0
 27 43  1  0
M  CHG  2   3  -1  11  -1
M  END
>  <UniqueID>  (10) 
9

>  <SMILES>  (10) 
O=C([O-])c1ccc(S(=O)(=O)[N-]c2ccc(S(=O)(=O)N3CCCC3)cc2)cc1

>  <Energy>  (10) 
49.100882893556715

>  <Genealogy>  (10) 
O=C([O-])c1ccc(S(=O)(=O)[N-]c2ccc(S(=O)(=O)N3CCCC3)cc2)cc1 (protonated)
O=C([O-])c1ccc(S(=O)(=O)[N-]c2ccc(S(=O)(=O)N3CCCC3)cc2)cc1 (3D coordinates assigned)
O=C([O-])c1ccc(S(=O)(=O)[N-]c2ccc(S(=O)(=O)N3CCCC3)cc2)cc1 (nonaromatic ring conformer: 49.100882893556715 kcal/mol)

>  <smiles>  (10) 
O=C(O)c1ccc(S(=O)(=O)Nc2ccc(S(=O)(=O)N3CCCC3)cc2)cc1

>  <score_type>  (10) 
oracle

>  <origin>  (10) 
adgpu

>  <m_score__min__energy>  (10) 
-10.99

>  <m_primary>  (10) 
energy

$$$$
10:0
     RDKit          3D

 47 50  0  0  0  0  0  0  0  0999 V2000
   -4.3090   25.6310  -30.8550 O   0  0  0  0  0  0  0  0  0  0  0  0
   -3.8950   24.9290  -29.8950 C   0  0  0  0  0  0  0  0  0  0  0  0
   -4.8460   24.0570  -29.1430 C   0  0  0  0  0  0  0  0  0  0  0  0
   -5.5370   23.1560  -30.1150 C   0  0  0  0  0  0  0  0  0  0  0  0
   -4.8680   22.4060  -31.0340 N   0  0  0  0  0  0  0  0  0  0  0  0
   -5.7230   21.6050  -31.7240 C   0  0  0  0  0  0  0  0  0  0  0  0
   -5.3390   20.7340  -32.7500 C   0  0  0  0  0  0  0  0  0  0  0  0
   -6.3290   19.9710  -33.3940 C   0  0  0  0  0  0  0  0  0  0  0  0
   -7.6800   20.0760  -33.0020 C   0  0  0  0  0  0  0  0  0  0  0  0
   -8.0500   20.9420  -31.9580 C   0  0  0  0  0  0  0  0  0  0  0  0
   -7.0530   21.6960  -31.3430 C   0  0  0  0  0  0  0  0  0  0  0  0
   -7.1960   22.8190  -30.0960 S   0  0  0  0  0  0  0  0  0  0  0  0
   -2.5020   24.9050  -29.5630 N   0  0  0  0  0  0  0  0  0  0  0  0
   -1.9380   24.1070  -28.5140 C   0  0  0  0  0  0  0  0  0  0  0  0
   -1.5970   22.7760  -28.7780 C   0  0  0  0  0  0  0  0  0  0  0  0
   -0.9910   21.9940  -27.7890 C   0  0  0  0  0  0  0  0  0  0  0  0
   -0.7050   22.5480  -26.5350 C   0  0  0  0  0  0  0  0  0  0  0  0
   -1.0250   23.8870  -26.2660 C   0  0  0  0  0  0  0  0  0  0  0  0
   -0.6220   24.6020  -24.7060 S   0  0  0  0  0  0  0  0  0  0  0  0
   -0.8640   23.5760  -23.6320 O   0  0  0  0  0  0  0  0  0  0  0  0
   -1.5280   25.7770  -24.4540 O   0  0  0  0  0  0  0  0  0  0  0  0
    1.0580   25.1020  -24.6990 N   0  0  0  0  0  0  0  0  0  0  0  0
    1.1940   26.5280  -25.0450 C   0  0  0  0  0  0  0  0  0  0  0  0
    0.9270   26.7870  -26.5470 C   0  0  0  0  0  0  0  0  0  0  0  0
    1.0590   25.6290  -27.3620 O   0  0  0  0  0  0  0  0  0  0  0  0
    2.1700   24.8640  -26.9500 C   0  0  0  0  0  0  0  0  0  0  0  0
    1.9000   24.2360  -25.5670 C   0  0  0  0  0  0  0  0  0  0  0  0
   -1.6410   24.6620  -27.2560 C   0  0  0  0  0  0  0  0  0  0  0  0
   -4.2935   23.4543  -28.4072 H   0  0  0  0  0  0  0  0  0  0  0  0
   -5.5851   24.6761  -28.6134 H   0  0  0  0  0  0  0  0  0  0  0  0
   -4.2833   20.6480  -33.0468 H   0  0  0  0  0  0  0  0  0  0  0  0
   -6.0481   19.2876  -34.2089 H   0  0  0  0  0  0  0  0  0  0  0  0
   -8.4473   19.4778  -33.5153 H   0  0  0  0  0  0  0  0  0  0  0  0
   -9.0986   21.0220  -31.6355 H   0  0  0  0  0  0  0  0  0  0  0  0
   -1.8063   22.3427  -29.7672 H   0  0  0  0  0  0  0  0  0  0  0  0
   -0.7390   20.9435  -27.9964 H   0  0  0  0  0  0  0  0  0  0  0  0
   -0.2281   21.9314  -25.7588 H   0  0  0  0  0  0  0  0  0  0  0  0
    1.3870   24.9860  -23.7120 H   0  0  0  0  0  0  0  0  0  0  0  0
    0.4728   27.1082  -24.4507 H   0  0  0  0  0  0  0  0  0  0  0  0
    2.2274   26.8343  -24.8254 H   0  0  0  0  0  0  0  0  0  0  0  0
   -0.0975   27.1724  -26.6556 H   0  0  0  0  0  0  0  0  0  0  0  0
    1.6861   27.5065  -26.8877 H   0  0  0  0  0  0  0  0  0  0  0  0
    2.3526   24.0643  -27.6829 H   0  0  0  0  0  0  0  0  0  0  0  0
    3.0514   25.5186  -26.8815 H   0  0  0  0  0  0  0  0  0  0  0  0
    1.3848   23.2749  -25.7112 H   0  0  0  0  0  0  0  0  0  0  0  0
    2.8704   24.1055  -25.0657 H   0  0  0  0  0  0  0  0  0  0  0  0
   -1.8945   25.7121  -27.0487 H   0  0  0  0  0  0  0  0  0  0  0  0
  1  2  2  0
  2  3  1  0
  3  4  1  0
  4  5  2  0
  5  6  1  0
  6  7  2  0
  7  8  1  0
  8  9  2  0
  9 10  1  0
 10 11  2  0
 11 12  1  0
  2 13  1  0
 13 14  1  0
 14 15  2  0
 15 16  1  0
 16 17  2  0
 17 18  1  0
 18 19  1  0
 19 20  2  0
 19 21  2  0
 19 22  1  0
 22 23  1  0
 23 24  1  0
 24 25  1  0
 25 26  1  0
 26 27  1  0
 18 28  2  0
 12  4  1  0
 28 14  1  0
 11  6  1  0
 27 22  1  0
  3 29  1  0
  3 30  1  0
  7 31  1  0
  8 32  1  0
  9 33  1  0
 10 34  1  0
 15 35  1  0
 16 36  1  0
 17 37  1  0
 22 38  1  0
 23 39  1  0
 23 40  1  0
 24 41  1  0
 24 42  1  0
 26 43  1  0
 26 44  1  0
 27 45  1  0
 27 46  1  0
 28 47  1  0
M  CHG  2  13  -1  22   1
M  END
>  <UniqueID>  (11) 
10

>  <SMILES>  (11) 
O=C(Cc1nc2ccccc2s1)[N-]c1cccc(S(=O)(=O)[NH+]2CCOCC2)c1

>  <Energy>  (11) 
94.60874665373642

>  <Genealogy>  (11) 
O=C(Cc1nc2ccccc2s1)[N-]c1cccc(S(=O)(=O)[NH+]2CCOCC2)c1 (protonated)
O=C(Cc1nc2ccccc2s1)[N-]c1cccc(S(=O)(=O)[NH+]2CCOCC2)c1 (3D coordinates assigned)
O=C(Cc1nc2ccccc2s1)[N-]c1cccc(S(=O)(=O)[NH+]2CCOCC2)c1 (nonaromatic ring conformer: 94.60874665373642 kcal/mol)

>  <smiles>  (11) 
O=C(Cc1nc2ccccc2s1)Nc1cccc(S(=O)(=O)N2CCOCC2)c1

>  <score_type>  (11) 
oracle

>  <origin>  (11) 
adgpu

>  <m_score__min__energy>  (11) 
-11.32

>  <m_primary>  (11) 
energy

$$$$
11:0
     RDKit          3D

 46 49  0  0  0  0  0  0  0  0999 V2000
   -5.9430   26.6830  -28.6420 H   0  0  0  0  0  0  0  0  0  0  0  0
   -6.4970   26.0510  -29.2640 N   0  0  0  0  0  0  0  0  0  0  0  0
   -5.9330   25.0900  -29.9240 C   0  0  0  0  0  0  0  0  0  0  0  0
   -4.5950   24.8840  -29.8170 N   0  0  0  0  0  0  0  0  0  0  0  0
   -3.9820   23.8820  -30.4970 C   0  0  0  0  0  0  0  0  0  0  0  0
   -2.8970   23.7327  -30.3941 H   0  0  0  0  0  0  0  0  0  0  0  0
   -4.7290   23.0360  -31.3310 C   0  0  0  0  0  0  0  0  0  0  0  0
   -4.1050   21.9060  -32.0660 C   0  0  0  0  0  0  0  0  0  0  0  0
   -4.8680   20.8330  -32.4040 N   0  0  0  0  0  0  0  0  0  0  0  0
   -4.3520   19.7650  -33.0680 C   0  0  0  0  0  0  0  0  0  0  0  0
   -5.1930   18.6460  -33.4190 N   0  0  0  0  0  0  0  0  0  0  0  0
   -4.7250   17.6750  -34.4190 C   0  0  0  0  0  0  0  0  0  0  0  0
   -4.8923   18.0845  -35.4261 H   0  0  0  0  0  0  0  0  0  0  0  0
   -3.6532   17.4882  -34.2567 H   0  0  0  0  0  0  0  0  0  0  0  0
   -5.4830   16.3500  -34.2820 C   0  0  0  0  0  0  0  0  0  0  0  0
   -5.2375   15.7037  -35.1376 H   0  0  0  0  0  0  0  0  0  0  0  0
   -5.1832   15.8674  -33.3400 H   0  0  0  0  0  0  0  0  0  0  0  0
   -6.8780   16.5720  -34.2540 O   0  0  0  0  0  0  0  0  0  0  0  0
   -7.2170   17.2740  -33.0760 C   0  0  0  0  0  0  0  0  0  0  0  0
   -8.3122   17.3424  -32.9998 H   0  0  0  0  0  0  0  0  0  0  0  0
   -6.8055   16.7314  -32.2122 H   0  0  0  0  0  0  0  0  0  0  0  0
   -6.6260   18.6870  -33.0940 C   0  0  0  0  0  0  0  0  0  0  0  0
   -7.1509   19.2885  -33.8507 H   0  0  0  0  0  0  0  0  0  0  0  0
   -6.7502   19.1353  -32.0972 H   0  0  0  0  0  0  0  0  0  0  0  0
   -3.0340   19.7660  -33.4010 N   0  0  0  0  0  0  0  0  0  0  0  0
   -2.2110   20.8070  -33.1030 C   0  0  0  0  0  0  0  0  0  0  0  0
   -0.8190   20.7540  -33.5010 N   0  0  0  0  0  0  0  0  0  0  0  0
   -0.3800   21.5590  -34.6530 C   0  0  0  0  0  0  0  0  0  0  0  0
   -1.1661   21.5442  -35.4223 H   0  0  0  0  0  0  0  0  0  0  0  0
   -0.1943   22.5877  -34.3105 H   0  0  0  0  0  0  0  0  0  0  0  0
    0.9140   21.0040  -35.2500 C   0  0  0  0  0  0  0  0  0  0  0  0
    0.7021   20.0425  -35.7404 H   0  0  0  0  0  0  0  0  0  0  0  0
    1.3050   21.7272  -35.9808 H   0  0  0  0  0  0  0  0  0  0  0  0
    1.8830   20.8070  -34.2440 O   0  0  0  0  0  0  0  0  0  0  0  0
    1.4550   19.7720  -33.3850 C   0  0  0  0  0  0  0  0  0  0  0  0
    1.2247   18.8789  -33.9845 H   0  0  0  0  0  0  0  0  0  0  0  0
    2.2600   19.5566  -32.6670 H   0  0  0  0  0  0  0  0  0  0  0  0
    0.2030   20.1890  -32.6050 C   0  0  0  0  0  0  0  0  0  0  0  0
   -0.2135   19.3068  -32.0969 H   0  0  0  0  0  0  0  0  0  0  0  0
    0.4889   20.9591  -31.8734 H   0  0  0  0  0  0  0  0  0  0  0  0
   -2.7490   21.9190  -32.4290 C   0  0  0  0  0  0  0  0  0  0  0  0
   -2.1159   22.7862  -32.1900 H   0  0  0  0  0  0  0  0  0  0  0  0
   -6.1100   23.2640  -31.4160 C   0  0  0  0  0  0  0  0  0  0  0  0
   -6.7332   22.6159  -32.0497 H   0  0  0  0  0  0  0  0  0  0  0  0
   -6.6830   24.2810  -30.7200 N   0  0  0  0  0  0  0  0  0  0  0  0
   -7.7140   24.4340  -30.8010 H   0  0  0  0  0  0  0  0  0  0  0  0
  1  2  1  0
  2  3  2  0
  3  4  1  0
  4  5  2  0
  5  6  1  0
  5  7  1  0
  7  8  1  0
  8  9  2  0
  9 10  1  0
 10 11  1  0
 11 12  1  0
 12 13  1  0
 12 14  1  0
 12 15  1  0
 15 16  1  0
 15 17  1  0
 15 18  1  0
 18 19  1  0
 19 20  1  0
 19 21  1  0
 19 22  1  0
 22 23  1  0
 22 24  1  0
 10 25  2  0
 25 26  1  0
 26 27  1  0
 27 28  1  0
 28 29  1  0
 28 30  1  0
 28 31  1  0
 31 32  1  0
 31 33  1  0
 31 34  1  0
 34 35  1  0
 35 36  1  0
 35 37  1  0
 35 38  1  0
 38 39  1  0
 38 40  1  0
 26 41  2  0
 41 42  1  0
  7 43  2  0
 43 44  1  0
 43 45  1  0
 45 46  1  0
 45  3  1  0
 41  8  1  0
 22 11  1  0
 38 27  1  0
M  END
>  <UniqueID>  (12) 
11

>  <SMILES>  (12) 
[H]/N=c1\ncc(-c2cc(N3CCOCC3)nc(N3CCOCC3)n2)c[nH]1

>  <Energy>  (12) 
58.6922752862252

>  <Genealogy>  (12) 
[H]/N=c1\ncc(-c2cc(N3CCOCC3)nc(N3CCOCC3)n2)c[nH]1 (cis-trans isomerization)
[H]/N=c1\ncc(-c2cc(N3CCOCC3)nc(N3CCOCC3)n2)c[nH]1 (3D coordinates assigned)
[H]/N=c1\ncc(-c2cc(N3CCOCC3)nc(N3CCOCC3)n2)c[nH]1 (nonaromatic ring conformer: 58.6922752862252 kcal/mol)

>  <smiles>  (12) 
N=c1ncc(-c2cc(N3CCOCC3)nc(N3CCOCC3)n2)c[nH]1

>  <score_type>  (12) 
oracle

>  <origin>  (12) 
adgpu

>  <m_score__min__energy>  (12) 
-7.0199999999999996

>  <m_primary>  (12) 
energy

$$$$
12:0
     RDKit          3D

 44 46  0  0  0  0  0  0  0  0999 V2000
   -6.8250   20.6190  -33.7930 N   0  0  0  0  0  0  0  0  0  0  0  0
   -7.1090   21.3170  -32.5740 C   0  0  0  0  0  0  0  0  0  0  0  0
   -6.2780   22.3760  -32.1790 C   0  0  0  0  0  0  0  0  0  0  0  0
   -6.5190   23.0680  -30.9860 C   0  0  0  0  0  0  0  0  0  0  0  0
   -5.4290   24.3560  -30.4820 S   0  0  0  0  0  0  0  0  0  0  0  0
   -5.9860   25.6730  -30.9420 O   0  0  0  0  0  0  0  0  0  0  0  0
   -5.2800   24.3760  -28.9860 O   0  0  0  0  0  0  0  0  0  0  0  0
   -3.8720   24.1100  -31.2050 N   0  0  0  0  0  0  0  0  0  0  0  0
   -3.1300   22.8870  -31.1160 C   0  0  0  0  0  0  0  0  0  0  0  0
   -2.2960   22.6040  -30.0200 C   0  0  0  0  0  0  0  0  0  0  0  0
   -1.6280   21.3790  -29.9450 C   0  0  0  0  0  0  0  0  0  0  0  0
   -1.7990   20.4240  -30.9490 C   0  0  0  0  0  0  0  0  0  0  0  0
   -2.6350   20.6930  -32.0420 C   0  0  0  0  0  0  0  0  0  0  0  0
   -2.9300   19.4530  -33.2630 S   0  0  0  0  0  0  0  0  0  0  0  0
   -2.3770   19.9130  -34.5830 O   0  0  0  0  0  0  0  0  0  0  0  0
   -2.2110   18.1910  -32.8710 O   0  0  0  0  0  0  0  0  0  0  0  0
   -4.6380   19.1140  -33.4270 N   0  0  0  0  0  0  0  0  0  0  0  0
   -4.9160   18.2620  -34.6060 C   0  0  0  0  0  0  0  0  0  0  0  0
   -5.2310   16.8090  -34.2050 C   0  0  0  0  0  0  0  0  0  0  0  0
   -6.3490   16.6990  -33.3360 O   0  0  0  0  0  0  0  0  0  0  0  0
   -6.4870   17.7930  -32.4350 C   0  0  0  0  0  0  0  0  0  0  0  0
   -5.1780   18.5570  -32.1720 C   0  0  0  0  0  0  0  0  0  0  0  0
   -3.2740   21.9380  -32.1340 C   0  0  0  0  0  0  0  0  0  0  0  0
   -7.6120   22.7110  -30.1890 C   0  0  0  0  0  0  0  0  0  0  0  0
   -8.4500   21.6620  -30.5760 C   0  0  0  0  0  0  0  0  0  0  0  0
   -8.2050   20.9600  -31.7610 C   0  0  0  0  0  0  0  0  0  0  0  0
   -9.2890   19.6430  -32.1940 Cl  0  0  0  0  0  0  0  0  0  0  0  0
   -7.5470   20.0500  -34.2850 H   0  0  0  0  0  0  0  0  0  0  0  0
   -5.8730   20.6670  -34.2200 H   0  0  0  0  0  0  0  0  0  0  0  0
   -5.4276   22.6659  -32.8137 H   0  0  0  0  0  0  0  0  0  0  0  0
   -2.1691   23.3483  -29.2201 H   0  0  0  0  0  0  0  0  0  0  0  0
   -0.9657   21.1665  -29.0928 H   0  0  0  0  0  0  0  0  0  0  0  0
   -1.2766   19.4582  -30.8824 H   0  0  0  0  0  0  0  0  0  0  0  0
   -5.7790   18.6761  -35.1481 H   0  0  0  0  0  0  0  0  0  0  0  0
   -4.0163   18.2529  -35.2389 H   0  0  0  0  0  0  0  0  0  0  0  0
   -5.4394   16.2316  -35.1178 H   0  0  0  0  0  0  0  0  0  0  0  0
   -4.3557   16.4221  -33.6626 H   0  0  0  0  0  0  0  0  0  0  0  0
   -7.2198   18.4972  -32.8559 H   0  0  0  0  0  0  0  0  0  0  0  0
   -6.8086   17.3722  -31.4709 H   0  0  0  0  0  0  0  0  0  0  0  0
   -5.3747   19.3786  -31.4675 H   0  0  0  0  0  0  0  0  0  0  0  0
   -4.4404   17.8594  -31.7485 H   0  0  0  0  0  0  0  0  0  0  0  0
   -3.8931   22.1702  -33.0131 H   0  0  0  0  0  0  0  0  0  0  0  0
   -7.8121   23.2574  -29.2555 H   0  0  0  0  0  0  0  0  0  0  0  0
   -9.3078   21.3864  -29.9449 H   0  0  0  0  0  0  0  0  0  0  0  0
  1  2  1  0
  2  3  2  0
  3  4  1  0
  4  5  1  0
  5  6  2  0
  5  7  2  0
  5  8  1  0
  8  9  1  0
  9 10  2  0
 10 11  1  0
 11 12  2  0
 12 13  1  0
 13 14  1  0
 14 15  2  0
 14 16  2  0
 14 17  1  0
 17 18  1  0
 18 19  1  0
 19 20  1  0
 20 21  1  0
 21 22  1  0
 13 23  2  0
  4 24  2  0
 24 25  1  0
 25 26  2  0
 26 27  1  0
 26  2  1  0
 23  9  1  0
 22 17  1  0
  1 28  1  0
  1 29  1  0
  3 30  1  0
 10 31  1  0
 11 32  1  0
 12 33  1  0
 18 34  1  0
 18 35  1  0
 19 36  1  0
 19 37  1  0
 21 38  1  0
 21 39  1  0
 22 40  1  0
 22 41  1  0
 23 42  1  0
 24 43  1  0
 25 44  1  0
M  CHG  1   8  -1
M  END
>  <UniqueID>  (13) 
12

>  <SMILES>  (13) 
Nc1cc(S(=O)(=O)[N-]c2cccc(S(=O)(=O)N3CCOCC3)c2)ccc1Cl

>  <Energy>  (13) 
59.56937442271514

>  <Genealogy>  (13) 
Nc1cc(S(=O)(=O)[N-]c2cccc(S(=O)(=O)N3CCOCC3)c2)ccc1Cl (protonated)
Nc1cc(S(=O)(=O)[N-]c2cccc(S(=O)(=O)N3CCOCC3)c2)ccc1Cl (3D coordinates assigned)
Nc1cc(S(=O)(=O)[N-]c2cccc(S(=O)(=O)N3CCOCC3)c2)ccc1Cl (nonaromatic ring conformer: 59.56937442271514 kcal/mol)

>  <smiles>  (13) 
Nc1cc(S(=O)(=O)Nc2cccc(S(=O)(=O)N3CCOCC3)c2)ccc1Cl

>  <score_type>  (13) 
oracle

>  <origin>  (13) 
adgpu

>  <m_score__min__energy>  (13) 
-10.76

>  <m_primary>  (13) 
energy

$$$$
13:0
     RDKit          3D

 50 52  0  0  0  0  0  0  0  0999 V2000
   -7.8280   20.4300  -33.0690 C   0  0  0  0  0  0  0  0  0  0  0  0
   -7.2760   21.6320  -32.3580 C   0  0  0  0  0  0  0  0  0  0  0  0
   -5.9420   21.8390  -32.0320 C   0  0  0  0  0  0  0  0  0  0  0  0
   -4.6040   20.7460  -32.4060 S   0  0  0  0  0  0  0  0  0  0  0  0
   -3.6970   20.5620  -31.2240 O   0  0  0  0  0  0  0  0  0  0  0  0
   -3.7980   21.3290  -33.5330 O   0  0  0  0  0  0  0  0  0  0  0  0
   -5.2440   19.1700  -32.8580 C   0  0  0  0  0  0  0  0  0  0  0  0
   -5.2280   18.7740  -34.2000 C   0  0  0  0  0  0  0  0  0  0  0  0
   -5.7240   17.5200  -34.5700 C   0  0  0  0  0  0  0  0  0  0  0  0
   -6.2350   16.6550  -33.6000 C   0  0  0  0  0  0  0  0  0  0  0  0
   -6.2530   17.0460  -32.2590 C   0  0  0  0  0  0  0  0  0  0  0  0
   -5.7620   18.3000  -31.8870 C   0  0  0  0  0  0  0  0  0  0  0  0
   -5.8980   23.0400  -31.3360 C   0  0  0  0  0  0  0  0  0  0  0  0
   -4.4980   23.8370  -30.6280 S   0  0  0  0  0  0  0  0  0  0  0  0
   -3.2620   23.3520  -31.3330 O   0  0  0  0  0  0  0  0  0  0  0  0
   -4.6130   25.3200  -30.8410 O   0  0  0  0  0  0  0  0  0  0  0  0
   -4.3830   23.4800  -28.9180 N   0  0  0  0  0  0  0  0  0  0  0  0
   -3.6900   24.5490  -28.1720 C   0  0  0  0  0  0  0  0  0  0  0  0
   -2.1650   24.5470  -28.3890 C   0  0  0  0  0  0  0  0  0  0  0  0
   -1.5610   23.1240  -28.4580 C   0  0  0  0  0  0  0  0  0  0  0  0
   -0.2130   23.0590  -27.7290 C   0  0  0  0  0  0  0  0  0  0  0  0
   -2.5310   22.0770  -27.8960 C   0  0  0  0  0  0  0  0  0  0  0  0
   -3.8620   22.1110  -28.6680 C   0  0  0  0  0  0  0  0  0  0  0  0
   -7.1940   23.5020  -31.2470 C   0  0  0  0  0  0  0  0  0  0  0  0
   -8.0280   22.6400  -31.8600 N   0  0  0  0  0  0  0  0  0  0  0  0
   -9.4760   22.7900  -31.9620 C   0  0  0  0  0  0  0  0  0  0  0  0
   -8.1677   19.6903  -32.3291 H   0  0  0  0  0  0  0  0  0  0  0  0
   -8.6765   20.7344  -33.6993 H   0  0  0  0  0  0  0  0  0  0  0  0
   -7.0441   19.9848  -33.6993 H   0  0  0  0  0  0  0  0  0  0  0  0
   -4.8238   19.4515  -34.9666 H   0  0  0  0  0  0  0  0  0  0  0  0
   -5.7116   17.2145  -35.6266 H   0  0  0  0  0  0  0  0  0  0  0  0
   -6.6226   15.6676  -33.8913 H   0  0  0  0  0  0  0  0  0  0  0  0
   -6.6547   16.3650  -31.4942 H   0  0  0  0  0  0  0  0  0  0  0  0
   -5.7816   18.6058  -30.8305 H   0  0  0  0  0  0  0  0  0  0  0  0
   -4.0890   25.5201  -28.5003 H   0  0  0  0  0  0  0  0  0  0  0  0
   -3.8690   24.3706  -27.1014 H   0  0  0  0  0  0  0  0  0  0  0  0
   -1.9456   25.0661  -29.3337 H   0  0  0  0  0  0  0  0  0  0  0  0
   -1.7111   25.0532  -27.5243 H   0  0  0  0  0  0  0  0  0  0  0  0
   -1.3887   22.8909  -29.5191 H   0  0  0  0  0  0  0  0  0  0  0  0
   -0.3831   23.0672  -26.6423 H   0  0  0  0  0  0  0  0  0  0  0  0
    0.3121   22.1345  -28.0110 H   0  0  0  0  0  0  0  0  0  0  0  0
    0.3987   23.9287  -28.0110 H   0  0  0  0  0  0  0  0  0  0  0  0
   -2.0815   21.0777  -27.9922 H   0  0  0  0  0  0  0  0  0  0  0  0
   -2.7263   22.3029  -26.8373 H   0  0  0  0  0  0  0  0  0  0  0  0
   -3.7112   21.6161  -29.6387 H   0  0  0  0  0  0  0  0  0  0  0  0
   -4.6059   21.5979  -28.0408 H   0  0  0  0  0  0  0  0  0  0  0  0
   -7.5007   24.4342  -30.7502 H   0  0  0  0  0  0  0  0  0  0  0  0
   -9.9119   22.8352  -30.9531 H   0  0  0  0  0  0  0  0  0  0  0  0
   -9.7112   23.7173  -32.5049 H   0  0  0  0  0  0  0  0  0  0  0  0
   -9.8963   21.9306  -32.5049 H   0  0  0  0  0  0  0  0  0  0  0  0
  1  2  1  0
  2  3  2  0
  3  4  1  0
  4  5  2  0
  4  6  2  0
  4  7  1  0
  7  8  2  0
  8  9  1  0
  9 10  2  0
 10 11  1  0
 11 12  2  0
  3 13  1  0
 13 14  1  0
 14 15  2  0
 14 16  2  0
 14 17  1  0
 17 18  1  0
 18 19  1  0
 19 20  1  0
 20 21  1  0
 20 22  1  0
 22 23  1  0
 13 24  2  0
 24 25  1  0
 25 26  1  0
 25  2  1  0
 12  7  1  0
 23 17  1  0
  1 27  1  0
  1 28  1  0
  1 29  1  0
  8 30  1  0
  9 31  1  0
 10 32  1  0
 11 33  1  0
 12 34  1  0
 18 35  1  0
 18 36  1  0
 19 37  1  0
 19 38  1  0
 20 39  1  0
 21 40  1  0
 21 41  1  0
 21 42  1  0
 22 43  1  0
 22 44  1  0
 23 45  1  0
 23 46  1  0
 24 47  1  0
 26 48  1  0
 26 49  1  0
 26 50  1  0
M  END
>  <UniqueID>  (14) 
13

>  <SMILES>  (14) 
Cc1c(S(=O)(=O)c2ccccc2)c(S(=O)(=O)N2CCC(C)CC2)cn1C

>  <Energy>  (14) 
82.79233147707075

>  <Genealogy>  (14) 
Cc1c(S(=O)(=O)c2ccccc2)c(S(=O)(=O)N2CCC(C)CC2)cn1C (3D coordinates assigned)
Cc1c(S(=O)(=O)c2ccccc2)c(S(=O)(=O)N2CCC(C)CC2)cn1C (nonaromatic ring conformer: 82.79233147707075 kcal/mol)

>  <smiles>  (14) 
Cc1c(S(=O)(=O)c2ccccc2)c(S(=O)(=O)N2CCC(C)CC2)cn1C

>  <score_type>  (14) 
oracle

>  <origin>  (14) 
adgpu

>  <m_score__min__energy>  (14) 
-10.31

>  <m_primary>  (14) 
energy

$$$$
14:0
     RDKit          3D

 53 56  0  0  0  0  0  0  0  0999 V2000
   -1.6340   21.5960  -31.3680 C   0  0  0  0  0  0  0  0  0  0  0  0
   -1.8050   22.2100  -30.0960 O   0  0  0  0  0  0  0  0  0  0  0  0
   -1.7930   21.5240  -28.8710 C   0  0  0  0  0  0  0  0  0  0  0  0
   -2.3260   20.2250  -28.7410 C   0  0  0  0  0  0  0  0  0  0  0  0
   -2.3200   19.5780  -27.5030 C   0  0  0  0  0  0  0  0  0  0  0  0
   -1.7790   20.2110  -26.3840 C   0  0  0  0  0  0  0  0  0  0  0  0
   -1.2420   21.4940  -26.4980 C   0  0  0  0  0  0  0  0  0  0  0  0
   -1.2460   22.1600  -27.7360 C   0  0  0  0  0  0  0  0  0  0  0  0
   -0.6850   23.5300  -27.8310 C   0  0  0  0  0  0  0  0  0  0  0  0
    0.6710   23.7320  -27.5440 C   0  0  0  0  0  0  0  0  0  0  0  0
    1.1830   24.9890  -27.5400 N   0  0  0  0  0  0  0  0  0  0  0  0
    0.4230   26.0510  -27.8030 N   0  0  0  0  0  0  0  0  0  0  0  0
   -0.8970   25.9260  -28.0910 C   0  0  0  0  0  0  0  0  0  0  0  0
   -1.4860   24.6570  -28.1320 C   0  0  0  0  0  0  0  0  0  0  0  0
   -2.9150   24.5380  -28.4970 C   0  0  0  0  0  0  0  0  0  0  0  0
   -3.7870   24.6330  -27.5910 O   0  0  0  0  0  0  0  0  0  0  0  0
   -3.3010   24.3180  -29.8640 N   0  0  0  0  0  0  0  0  0  0  0  0
   -4.5850   23.8130  -30.2620 C   0  0  0  0  0  0  0  0  0  0  0  0
   -4.8640   22.4480  -30.0980 C   0  0  0  0  0  0  0  0  0  0  0  0
   -6.1020   21.9270  -30.4800 C   0  0  0  0  0  0  0  0  0  0  0  0
   -7.0740   22.7640  -31.0450 C   0  0  0  0  0  0  0  0  0  0  0  0
   -8.6430   22.1230  -31.5250 S   0  0  0  0  0  0  0  0  0  0  0  0
   -9.3230   21.5680  -30.3060 O   0  0  0  0  0  0  0  0  0  0  0  0
   -9.4900   23.2230  -32.1040 O   0  0  0  0  0  0  0  0  0  0  0  0
   -8.4230   20.8540  -32.7120 N   0  0  0  0  0  0  0  0  0  0  0  0
   -9.4240   19.7980  -32.5310 C   0  0  0  0  0  0  0  0  0  0  0  0
   -8.8200   18.7160  -31.6470 C   0  0  0  0  0  0  0  0  0  0  0  0
   -7.3280   18.9860  -31.6330 C   0  0  0  0  0  0  0  0  0  0  0  0
   -7.1230   20.1990  -32.5280 C   0  0  0  0  0  0  0  0  0  0  0  0
   -6.7880   24.1210  -31.2410 C   0  0  0  0  0  0  0  0  0  0  0  0
   -5.5500   24.6430  -30.8580 C   0  0  0  0  0  0  0  0  0  0  0  0
   -1.3412   20.5446  -31.2312 H   0  0  0  0  0  0  0  0  0  0  0  0
   -2.5795   21.6434  -31.9281 H   0  0  0  0  0  0  0  0  0  0  0  0
   -0.8491   22.1253  -31.9281 H   0  0  0  0  0  0  0  0  0  0  0  0
   -2.7494   19.7177  -29.6204 H   0  0  0  0  0  0  0  0  0  0  0  0
   -2.7430   18.5668  -27.4104 H   0  0  0  0  0  0  0  0  0  0  0  0
   -1.7756   19.6984  -25.4107 H   0  0  0  0  0  0  0  0  0  0  0  0
   -0.8128   21.9873  -25.6135 H   0  0  0  0  0  0  0  0  0  0  0  0
    1.3205   22.8725  -27.3220 H   0  0  0  0  0  0  0  0  0  0  0  0
   -1.5037   26.8212  -28.2921 H   0  0  0  0  0  0  0  0  0  0  0  0
   -2.5540   24.3560  -30.5950 H   0  0  0  0  0  0  0  0  0  0  0  0
   -4.1019   21.7832  -29.6653 H   0  0  0  0  0  0  0  0  0  0  0  0
   -6.3149   20.8573  -30.3372 H   0  0  0  0  0  0  0  0  0  0  0  0
  -10.3213   20.2141  -32.0496 H   0  0  0  0  0  0  0  0  0  0  0  0
   -9.7112   19.3759  -33.5053 H   0  0  0  0  0  0  0  0  0  0  0  0
   -9.2310   18.7785  -30.6286 H   0  0  0  0  0  0  0  0  0  0  0  0
   -9.0475   17.7082  -32.0246 H   0  0  0  0  0  0  0  0  0  0  0  0
   -6.9865   19.2017  -30.6099 H   0  0  0  0  0  0  0  0  0  0  0  0
   -6.7539   18.1172  -31.9874 H   0  0  0  0  0  0  0  0  0  0  0  0
   -6.4174   20.8972  -32.0540 H   0  0  0  0  0  0  0  0  0  0  0  0
   -6.7106   19.8904  -33.4999 H   0  0  0  0  0  0  0  0  0  0  0  0
   -7.5416   24.7788  -31.6986 H   0  0  0  0  0  0  0  0  0  0  0  0
   -5.3296   25.7079  -31.0236 H   0  0  0  0  0  0  0  0  0  0  0  0
  1  2  1  0
  2  3  1  0
  3  4  2  0
  4  5  1  0
  5  6  2  0
  6  7  1  0
  7  8  2  0
  8  9  1  0
  9 10  2  0
 10 11  1  0
 11 12  2  0
 12 13  1  0
 13 14  2  0
 14 15  1  0
 15 16  2  0
 15 17  1  0
 17 18  1  0
 18 19  2  0
 19 20  1  0
 20 21  2  0
 21 22  1  0
 22 23  2  0
 22 24  2  0
 22 25  1  0
 25 26  1  0
 26 27  1  0
 27 28  1  0
 28 29  1  0
 21 30  1  0
 30 31  2  0
  8  3  1  0
 14  9  1  0
 31 18  1  0
 29 25  1  0
  1 32  1  0
  1 33  1  0
  1 34  1  0
  4 35  1  0
  5 36  1  0
  6 37  1  0
  7 38  1  0
 10 39  1  0
 13 40  1  0
 17 41  1  0
 19 42  1  0
 20 43  1  0
 26 44  1  0
 26 45  1  0
 27 46  1  0
 27 47  1  0
 28 48  1  0
 28 49  1  0
 29 50  1  0
 29 51  1  0
 30 52  1  0
 31 53  1  0
M  END
>  <UniqueID>  (15) 
14

>  <SMILES>  (15) 
COc1ccccc1-c1cnncc1C(=O)Nc1ccc(S(=O)(=O)N2CCCC2)cc1

>  <Energy>  (15) 
72.94040957898287

>  <Genealogy>  (15) 
COc1ccccc1-c1cnncc1C(=O)Nc1ccc(S(=O)(=O)N2CCCC2)cc1 (3D coordinates assigned)
COc1ccccc1-c1cnncc1C(=O)Nc1ccc(S(=O)(=O)N2CCCC2)cc1 (nonaromatic ring conformer: 72.94040957898287 kcal/mol)

>  <smiles>  (15) 
COc1ccccc1-c1cnncc1C(=O)Nc1ccc(S(=O)(=O)N2CCCC2)cc1

>  <score_type>  (15) 
oracle

>  <origin>  (15) 
adgpu

>  <m_score__min__energy>  (15) 
-9.6799999999999997

>  <m_primary>  (15) 
energy

$$$$
15:0
     RDKit          3D

 56 59  0  0  0  0  0  0  0  0999 V2000
   -9.0860   18.2430  -31.6120 C   0  0  0  0  0  0  0  0  0  0  0  0
   -8.1210   19.3750  -31.7840 C   0  0  0  0  0  0  0  0  0  0  0  0
   -8.5000   20.6760  -31.6660 N   0  0  0  0  0  0  0  0  0  0  0  0
   -7.3400   21.3430  -31.8150 C   0  0  0  0  0  0  0  0  0  0  0  0
   -7.1480   22.7220  -31.7750 C   0  0  0  0  0  0  0  0  0  0  0  0
   -5.8300   23.2120  -31.9350 C   0  0  0  0  0  0  0  0  0  0  0  0
   -5.5480   24.6170  -31.9030 N   0  0  0  0  0  0  0  0  0  0  0  0
   -4.9990   25.3210  -30.7840 C   0  0  0  0  0  0  0  0  0  0  0  0
   -5.7420   26.1100  -30.1380 O   0  0  0  0  0  0  0  0  0  0  0  0
   -3.6000   25.2330  -30.4920 N   0  0  0  0  0  0  0  0  0  0  0  0
   -2.9620   24.3890  -29.5190 C   0  0  0  0  0  0  0  0  0  0  0  0
   -3.4890   23.1380  -29.1630 C   0  0  0  0  0  0  0  0  0  0  0  0
   -2.8350   22.3420  -28.2230 C   0  0  0  0  0  0  0  0  0  0  0  0
   -1.6390   22.7680  -27.6380 C   0  0  0  0  0  0  0  0  0  0  0  0
   -0.8950   21.7130  -26.4410 Cl  0  0  0  0  0  0  0  0  0  0  0  0
   -1.0740   24.0110  -28.0080 C   0  0  0  0  0  0  0  0  0  0  0  0
    0.4370   24.5710  -27.2560 S   0  0  0  0  0  0  0  0  0  0  0  0
    1.5320   23.5920  -27.5830 O   0  0  0  0  0  0  0  0  0  0  0  0
    0.8400   25.9080  -27.8150 O   0  0  0  0  0  0  0  0  0  0  0  0
    0.2730   24.6840  -25.4600 C   0  0  0  0  0  0  0  0  0  0  0  0
    1.2920   25.6820  -24.8560 C   0  0  0  0  0  0  0  0  0  0  0  0
    0.6910   27.0810  -24.6050 C   0  0  0  0  0  0  0  0  0  0  0  0
   -0.3800   27.3660  -25.5810 N   0  0  0  0  0  0  0  0  0  0  0  0
   -0.7800   28.7820  -25.5100 C   0  0  0  0  0  0  0  0  0  0  0  0
   -1.5540   26.4920  -25.3620 C   0  0  0  0  0  0  0  0  0  0  0  0
   -1.1620   25.0340  -25.0260 C   0  0  0  0  0  0  0  0  0  0  0  0
   -1.7500   24.8140  -28.9560 C   0  0  0  0  0  0  0  0  0  0  0  0
   -1.2350   26.0500  -29.3400 O   0  0  0  0  0  0  0  0  0  0  0  0
   -4.7670   22.3050  -32.1630 C   0  0  0  0  0  0  0  0  0  0  0  0
   -4.9970   20.9170  -32.1880 C   0  0  0  0  0  0  0  0  0  0  0  0
   -6.3060   20.4730  -32.0100 C   0  0  0  0  0  0  0  0  0  0  0  0
   -6.7870   19.2180  -32.0000 N   0  0  0  0  0  0  0  0  0  0  0  0
   -6.0290   17.9680  -32.0500 C   0  0  0  0  0  0  0  0  0  0  0  0
   -9.2450   18.0565  -30.5397 H   0  0  0  0  0  0  0  0  0  0  0  0
  -10.0444   18.5031  -32.0850 H   0  0  0  0  0  0  0  0  0  0  0  0
   -8.6774   17.3378  -32.0850 H   0  0  0  0  0  0  0  0  0  0  0  0
   -7.9941   23.4085  -31.6238 H   0  0  0  0  0  0  0  0  0  0  0  0
   -4.4214   22.7840  -29.6271 H   0  0  0  0  0  0  0  0  0  0  0  0
   -3.2643   21.3698  -27.9392 H   0  0  0  0  0  0  0  0  0  0  0  0
    0.4998   23.6839  -25.0619 H   0  0  0  0  0  0  0  0  0  0  0  0
    1.6521   25.2784  -23.8982 H   0  0  0  0  0  0  0  0  0  0  0  0
    2.1074   25.8005  -25.5848 H   0  0  0  0  0  0  0  0  0  0  0  0
    0.2735   27.1186  -23.5880 H   0  0  0  0  0  0  0  0  0  0  0  0
    1.4844   27.8346  -24.7170 H   0  0  0  0  0  0  0  0  0  0  0  0
   -0.8660   29.0863  -24.4564 H   0  0  0  0  0  0  0  0  0  0  0  0
   -0.0220   29.4027  -26.0103 H   0  0  0  0  0  0  0  0  0  0  0  0
   -1.7507   28.9143  -26.0103 H   0  0  0  0  0  0  0  0  0  0  0  0
   -2.1439   26.8985  -24.5273 H   0  0  0  0  0  0  0  0  0  0  0  0
   -2.1311   26.4722  -26.2982 H   0  0  0  0  0  0  0  0  0  0  0  0
   -1.2447   24.8901  -23.9386 H   0  0  0  0  0  0  0  0  0  0  0  0
   -1.8448   24.3728  -25.5797 H   0  0  0  0  0  0  0  0  0  0  0  0
   -3.7490   22.6900  -32.3225 H   0  0  0  0  0  0  0  0  0  0  0  0
   -4.1716   20.2065  -32.3428 H   0  0  0  0  0  0  0  0  0  0  0  0
   -5.8206   17.6243  -31.0260 H   0  0  0  0  0  0  0  0  0  0  0  0
   -6.6162   17.2041  -32.5808 H   0  0  0  0  0  0  0  0  0  0  0  0
   -5.0802   18.1355  -32.5808 H   0  0  0  0  0  0  0  0  0  0  0  0
  1  2  1  0
  2  3  2  0
  3  4  1  0
  4  5  2  0
  5  6  1  0
  6  7  1  0
  7  8  1  0
  8  9  2  0
  8 10  1  0
 10 11  1  0
 11 12  2  0
 12 13  1  0
 13 14  2  0
 14 15  1  0
 14 16  1  0
 16 17  1  0
 17 18  2  0
 17 19  2  0
 17 20  1  0
 20 21  1  0
 21 22  1  0
 22 23  1  0
 23 24  1  0
 23 25  1  0
 25 26  1  0
 16 27  2  0
 27 28  1  0
  6 29  2  0
 29 30  1  0
 30 31  2  0
 31 32  1  0
 32 33  1  0
 32  2  1  0
 31  4  1  0
 27 11  1  0
 26 20  1  0
  1 34  1  0
  1 35  1  0
  1 36  1  0
  5 37  1  0
 12 38  1  0
 13 39  1  0
 20 40  1  0
 21 41  1  0
 21 42  1  0
 22 43  1  0
 22 44  1  0
 24 45  1  0
 24 46  1  0
 24 47  1  0
 25 48  1  0
 25 49  1  0
 26 50  1  0
 26 51  1  0
 29 52  1  0
 30 53  1  0
 33 54  1  0
 33 55  1  0
 33 56  1  0
M  CHG  3   7  -1  10  -1  28  -1
M  END
>  <UniqueID>  (16) 
15

>  <SMILES>  (16) 
Cc1nc2cc([N-]C(=O)[N-]c3ccc(Cl)c(S(=O)(=O)C4CCN(C)CC4)c3[O-])ccc2n1C

>  <Energy>  (16) 
109.25542300208747

>  <Genealogy>  (16) 
Cc1nc2cc([N-]C(=O)[N-]c3ccc(Cl)c(S(=O)(=O)C4CCN(C)CC4)c3[O-])ccc2n1C (protonated)
Cc1nc2cc([N-]C(=O)[N-]c3ccc(Cl)c(S(=O)(=O)C4CCN(C)CC4)c3[O-])ccc2n1C (3D coordinates assigned)
Cc1nc2cc([N-]C(=O)[N-]c3ccc(Cl)c(S(=O)(=O)C4CCN(C)CC4)c3[O-])ccc2n1C (nonaromatic ring conformer: 109.25542300208747 kcal/mol)

>  <smiles>  (16) 
Cc1nc2cc(NC(=O)Nc3ccc(Cl)c(S(=O)(=O)C4CCN(C)CC4)c3O)ccc2n1C

>  <score_type>  (16) 
oracle

>  <origin>  (16) 
adgpu

>  <m_score__min__energy>  (16) 
-16.59

>  <m_primary>  (16) 
energy

$$$$
16:0
     RDKit          3D

 41 43  0  0  0  0  0  0  0  0999 V2000
   -2.5590   24.8440  -27.1150 C   0  0  0  0  0  0  0  0  0  0  0  0
   -2.1100   24.9310  -28.4650 O   0  0  0  0  0  0  0  0  0  0  0  0
   -2.2420   23.9040  -29.4140 C   0  0  0  0  0  0  0  0  0  0  0  0
   -1.4610   22.7350  -29.3620 C   0  0  0  0  0  0  0  0  0  0  0  0
   -1.6190   21.7360  -30.3240 C   0  0  0  0  0  0  0  0  0  0  0  0
   -2.5590   21.8820  -31.3540 C   0  0  0  0  0  0  0  0  0  0  0  0
   -2.7240   20.8200  -32.3720 C   0  0  0  0  0  0  0  0  0  0  0  0
   -2.3900   20.9660  -33.6700 N   0  0  0  0  0  0  0  0  0  0  0  0
   -2.6760   19.8270  -34.2210 O   0  0  0  0  0  0  0  0  0  0  0  0
   -3.1650   19.0140  -33.3180 C   0  0  0  0  0  0  0  0  0  0  0  0
   -3.5740   17.6040  -33.5920 C   0  0  0  0  0  0  0  0  0  0  0  0
   -5.0250   17.5610  -34.6990 S   0  0  0  0  0  0  0  0  0  0  0  0
   -6.0010   18.6920  -33.7080 C   0  0  0  0  0  0  0  0  0  0  0  0
   -7.1200   18.2430  -33.0830 N   0  0  0  0  0  0  0  0  0  0  0  0
   -7.8750   19.0720  -32.3120 C   0  0  0  0  0  0  0  0  0  0  0  0
   -9.1130   18.5540  -31.6530 C   0  0  0  0  0  0  0  0  0  0  0  0
   -7.5030   20.4120  -32.1710 C   0  0  0  0  0  0  0  0  0  0  0  0
   -6.3520   20.8580  -32.8230 C   0  0  0  0  0  0  0  0  0  0  0  0
   -5.9910   22.0590  -32.7090 O   0  0  0  0  0  0  0  0  0  0  0  0
   -5.6230   19.9940  -33.5800 N   0  0  0  0  0  0  0  0  0  0  0  0
   -3.2200   19.5930  -32.1040 N   0  0  0  0  0  0  0  0  0  0  0  0
   -3.3390   23.0480  -31.4070 C   0  0  0  0  0  0  0  0  0  0  0  0
   -3.1850   24.0620  -30.4400 C   0  0  0  0  0  0  0  0  0  0  0  0
   -3.9510   25.2390  -30.4650 O   0  0  0  0  0  0  0  0  0  0  0  0
   -5.3680   25.2840  -30.3450 C   0  0  0  0  0  0  0  0  0  0  0  0
   -1.7102   25.0085  -26.4350 H   0  0  0  0  0  0  0  0  0  0  0  0
   -3.3275   25.6099  -26.9341 H   0  0  0  0  0  0  0  0  0  0  0  0
   -2.9858   23.8464  -26.9341 H   0  0  0  0  0  0  0  0  0  0  0  0
   -0.7211   22.6074  -28.5581 H   0  0  0  0  0  0  0  0  0  0  0  0
   -1.0013   20.8272  -30.2736 H   0  0  0  0  0  0  0  0  0  0  0  0
   -2.7386   17.0714  -34.0698 H   0  0  0  0  0  0  0  0  0  0  0  0
   -3.8387   17.1197  -32.6405 H   0  0  0  0  0  0  0  0  0  0  0  0
   -8.9949   18.6034  -30.5605 H   0  0  0  0  0  0  0  0  0  0  0  0
   -9.9741   19.1673  -31.9568 H   0  0  0  0  0  0  0  0  0  0  0  0
   -9.2808   17.5102  -31.9568 H   0  0  0  0  0  0  0  0  0  0  0  0
   -8.1045   21.1005  -31.5593 H   0  0  0  0  0  0  0  0  0  0  0  0
   -4.7610   20.3320  -34.0660 H   0  0  0  0  0  0  0  0  0  0  0  0
   -4.0784   23.1717  -32.2119 H   0  0  0  0  0  0  0  0  0  0  0  0
   -5.6457   25.2928  -29.2807 H   0  0  0  0  0  0  0  0  0  0  0  0
   -5.7484   26.1947  -30.8308 H   0  0  0  0  0  0  0  0  0  0  0  0
   -5.8054   24.3993  -30.8308 H   0  0  0  0  0  0  0  0  0  0  0  0
  1  2  1  0
  2  3  1  0
  3  4  2  0
  4  5  1  0
  5  6  2  0
  6  7  1  0
  7  8  2  0
  8  9  1  0
  9 10  1  0
 10 11  1  0
 11 12  1  0
 12 13  1  0
 13 14  2  0
 14 15  1  0
 15 16  1  0
 15 17  2  0
 17 18  1  0
 18 19  2  0
 18 20  1  0
 10 21  2  0
  6 22  1  0
 22 23  2  0
 23 24  1  0
 24 25  1  0
 23  3  1  0
 21  7  1  0
 20 13  1  0
  1 26  1  0
  1 27  1  0
  1 28  1  0
  4 29  1  0
  5 30  1  0
 11 31  1  0
 11 32  1  0
 16 33  1  0
 16 34  1  0
 16 35  1  0
 17 36  1  0
 20 37  1  0
 22 38  1  0
 25 39  1  0
 25 40  1  0
 25 41  1  0
M  END
>  <UniqueID>  (17) 
16

>  <SMILES>  (17) 
COc1ccc(-c2noc(CSc3nc(C)cc(=O)[nH]3)n2)cc1OC

>  <Energy>  (17) 
69.52155229468993

>  <Genealogy>  (17) 
COc1ccc(-c2noc(CSc3nc(C)cc(=O)[nH]3)n2)cc1OC (3D coordinates assigned)
COc1ccc(-c2noc(CSc3nc(C)cc(=O)[nH]3)n2)cc1OC (optimized conformer: 69.52155229468993 kcal/mol)

>  <smiles>  (17) 
COc1ccc(-c2noc(CSc3nc(C)cc(=O)[nH]3)n2)cc1OC

>  <score_type>  (17) 
oracle

>  <origin>  (17) 
adgpu

>  <m_score__min__energy>  (17) 
-8.4399999999999995

>  <m_primary>  (17) 
energy

$$$$
17:0
     RDKit          3D

 50 53  0  0  0  0  0  0  0  0999 V2000
   -8.2880   20.5680  -32.1120 C   0  0  0  0  0  0  0  0  0  0  0  0
   -7.3950   21.7230  -31.7460 C   0  0  0  0  0  0  0  0  0  0  0  0
   -7.9210   22.7710  -30.9720 C   0  0  0  0  0  0  0  0  0  0  0  0
   -7.1230   23.8530  -30.6010 C   0  0  0  0  0  0  0  0  0  0  0  0
   -5.7810   23.9130  -30.9990 C   0  0  0  0  0  0  0  0  0  0  0  0
   -4.9200   25.0410  -30.5780 C   0  0  0  0  0  0  0  0  0  0  0  0
   -5.4510   26.1410  -30.2650 O   0  0  0  0  0  0  0  0  0  0  0  0
   -3.4960   24.9090  -30.4770 N   0  0  0  0  0  0  0  0  0  0  0  0
   -2.7740   24.4920  -29.3070 C   0  0  0  0  0  0  0  0  0  0  0  0
   -3.4660   23.8330  -28.2820 C   0  0  0  0  0  0  0  0  0  0  0  0
   -2.7970   23.4250  -27.1230 C   0  0  0  0  0  0  0  0  0  0  0  0
   -1.4330   23.6910  -26.9770 C   0  0  0  0  0  0  0  0  0  0  0  0
   -0.7320   24.3460  -27.9990 C   0  0  0  0  0  0  0  0  0  0  0  0
   -1.4020   24.7680  -29.1500 C   0  0  0  0  0  0  0  0  0  0  0  0
    0.6390   24.5710  -27.8470 O   0  0  0  0  0  0  0  0  0  0  0  0
    1.3860   23.9100  -26.8220 C   0  0  0  0  0  0  0  0  0  0  0  0
    0.5570   23.8240  -25.5330 C   0  0  0  0  0  0  0  0  0  0  0  0
   -0.7490   23.3160  -25.8160 O   0  0  0  0  0  0  0  0  0  0  0  0
   -5.2570   22.8890  -31.8010 C   0  0  0  0  0  0  0  0  0  0  0  0
   -6.0470   21.7920  -32.1780 C   0  0  0  0  0  0  0  0  0  0  0  0
   -5.3020   20.4870  -33.1200 S   0  0  0  0  0  0  0  0  0  0  0  0
   -4.0520   20.9920  -33.7870 O   0  0  0  0  0  0  0  0  0  0  0  0
   -6.2600   20.0570  -34.1950 O   0  0  0  0  0  0  0  0  0  0  0  0
   -4.9280   19.1160  -32.0940 N   0  0  0  0  0  0  0  0  0  0  0  0
   -4.0490   18.1430  -32.7690 C   0  0  0  0  0  0  0  0  0  0  0  0
   -4.7980   17.3380  -33.8580 C   0  0  0  0  0  0  0  0  0  0  0  0
   -6.2080   17.3640  -33.7150 O   0  0  0  0  0  0  0  0  0  0  0  0
   -6.5670   17.2260  -32.3580 C   0  0  0  0  0  0  0  0  0  0  0  0
   -6.1540   18.4810  -31.5630 C   0  0  0  0  0  0  0  0  0  0  0  0
   -8.6598   20.0871  -31.1952 H   0  0  0  0  0  0  0  0  0  0  0  0
   -9.1390   20.9357  -32.7041 H   0  0  0  0  0  0  0  0  0  0  0  0
   -7.7179   19.8370  -32.7041 H   0  0  0  0  0  0  0  0  0  0  0  0
   -8.9738   22.7377  -30.6551 H   0  0  0  0  0  0  0  0  0  0  0  0
   -7.5497   24.6639  -29.9924 H   0  0  0  0  0  0  0  0  0  0  0  0
   -4.5427   23.6351  -28.3894 H   0  0  0  0  0  0  0  0  0  0  0  0
   -3.3436   22.8960  -26.3284 H   0  0  0  0  0  0  0  0  0  0  0  0
   -0.8579   25.3158  -29.9335 H   0  0  0  0  0  0  0  0  0  0  0  0
    1.6427   22.8943  -27.1572 H   0  0  0  0  0  0  0  0  0  0  0  0
    2.3035   24.4825  -26.6209 H   0  0  0  0  0  0  0  0  0  0  0  0
    1.0609   23.1533  -24.8215 H   0  0  0  0  0  0  0  0  0  0  0  0
    0.4632   24.8308  -25.1000 H   0  0  0  0  0  0  0  0  0  0  0  0
   -4.2119   22.9464  -32.1394 H   0  0  0  0  0  0  0  0  0  0  0  0
   -3.2153   18.6850  -33.2393 H   0  0  0  0  0  0  0  0  0  0  0  0
   -3.6868   17.4321  -32.0118 H   0  0  0  0  0  0  0  0  0  0  0  0
   -4.5405   17.7597  -34.8408 H   0  0  0  0  0  0  0  0  0  0  0  0
   -4.4832   16.2889  -33.7569 H   0  0  0  0  0  0  0  0  0  0  0  0
   -7.6562   17.0915  -32.2830 H   0  0  0  0  0  0  0  0  0  0  0  0
   -6.0486   16.3511  -31.9387 H   0  0  0  0  0  0  0  0  0  0  0  0
   -6.9755   19.2112  -31.6066 H   0  0  0  0  0  0  0  0  0  0  0  0
   -5.9440   18.1656  -30.5303 H   0  0  0  0  0  0  0  0  0  0  0  0
  1  2  1  0
  2  3  2  0
  3  4  1  0
  4  5  2  0
  5  6  1  0
  6  7  2  0
  6  8  1  0
  8  9  1  0
  9 10  2  0
 10 11  1  0
 11 12  2  0
 12 13  1  0
 13 14  2  0
 13 15  1  0
 15 16  1  0
 16 17  1  0
 17 18  1  0
  5 19  1  0
 19 20  2  0
 20 21  1  0
 21 22  2  0
 21 23  2  0
 21 24  1  0
 24 25  1  0
 25 26  1  0
 26 27  1  0
 27 28  1  0
 28 29  1  0
 20  2  1  0
 29 24  1  0
 14  9  1  0
 18 12  1  0
  1 30  1  0
  1 31  1  0
  1 32  1  0
  3 33  1  0
  4 34  1  0
 10 35  1  0
 11 36  1  0
 14 37  1  0
 16 38  1  0
 16 39  1  0
 17 40  1  0
 17 41  1  0
 19 42  1  0
 25 43  1  0
 25 44  1  0
 26 45  1  0
 26 46  1  0
 28 47  1  0
 28 48  1  0
 29 49  1  0
 29 50  1  0
M  CHG  1   8  -1
M  END
>  <UniqueID>  (18) 
17

>  <SMILES>  (18) 
Cc1ccc(C(=O)[N-]c2ccc3c(c2)OCCO3)cc1S(=O)(=O)N1CCOCC1

>  <Energy>  (18) 
71.63106566911875

>  <Genealogy>  (18) 
Cc1ccc(C(=O)[N-]c2ccc3c(c2)OCCO3)cc1S(=O)(=O)N1CCOCC1 (protonated)
Cc1ccc(C(=O)[N-]c2ccc3c(c2)OCCO3)cc1S(=O)(=O)N1CCOCC1 (3D coordinates assigned)
Cc1ccc(C(=O)[N-]c2ccc3c(c2)OCCO3)cc1S(=O)(=O)N1CCOCC1 (nonaromatic ring conformer: 71.63106566911875 kcal/mol)

>  <smiles>  (18) 
Cc1ccc(C(=O)Nc2ccc3c(c2)OCCO3)cc1S(=O)(=O)N1CCOCC1

>  <score_type>  (18) 
oracle

>  <origin>  (18) 
adgpu

>  <m_score__min__energy>  (18) 
-11.15

>  <m_primary>  (18) 
energy

$$$$
18:0
     RDKit          3D

 48 50  0  0  0  0  0  0  0  0999 V2000
   -9.4170   20.2390  -32.3550 C   0  0  0  0  0  0  0  0  0  0  0  0
   -8.2280   21.1240  -32.1220 C   0  0  0  0  0  0  0  0  0  0  0  0
   -8.3530   22.2850  -31.3450 C   0  0  0  0  0  0  0  0  0  0  0  0
   -7.2370   23.0910  -31.0960 C   0  0  0  0  0  0  0  0  0  0  0  0
   -5.9800   22.7430  -31.6240 C   0  0  0  0  0  0  0  0  0  0  0  0
   -4.8060   23.5290  -31.3730 N   0  0  0  0  0  0  0  0  0  0  0  0
   -4.7700   24.8750  -30.8840 C   0  0  0  0  0  0  0  0  0  0  0  0
   -5.6620   25.6990  -31.2180 O   0  0  0  0  0  0  0  0  0  0  0  0
   -3.6490   25.2940  -30.0990 N   0  0  0  0  0  0  0  0  0  0  0  0
   -2.9810   24.5270  -29.0840 C   0  0  0  0  0  0  0  0  0  0  0  0
   -3.5090   23.3200  -28.6100 C   0  0  0  0  0  0  0  0  0  0  0  0
   -2.8280   22.5870  -27.6400 C   0  0  0  0  0  0  0  0  0  0  0  0
   -1.5990   23.0340  -27.1280 C   0  0  0  0  0  0  0  0  0  0  0  0
   -0.9200   22.1910  -26.0810 C   0  0  0  0  0  0  0  0  0  0  0  0
   -1.0410   24.2450  -27.6190 C   0  0  0  0  0  0  0  0  0  0  0  0
    0.5090   24.9190  -27.0530 S   0  0  0  0  0  0  0  0  0  0  0  0
    1.4680   24.8860  -28.2100 O   0  0  0  0  0  0  0  0  0  0  0  0
    1.1150   24.1300  -25.9270 O   0  0  0  0  0  0  0  0  0  0  0  0
    0.2740   26.5810  -26.5510 N   0  0  0  0  0  0  0  0  0  0  0  0
   -1.1470   26.8850  -26.3050 C   0  0  0  0  0  0  0  0  0  0  0  0
   -1.6570   26.2940  -24.9670 C   0  0  0  0  0  0  0  0  0  0  0  0
   -0.6170   25.9210  -24.0810 O   0  0  0  0  0  0  0  0  0  0  0  0
    0.3830   26.9130  -24.0600 C   0  0  0  0  0  0  0  0  0  0  0  0
    1.1360   26.9400  -25.4030 C   0  0  0  0  0  0  0  0  0  0  0  0
   -1.7430   24.9730  -28.6030 C   0  0  0  0  0  0  0  0  0  0  0  0
   -1.2140   26.1590  -29.1040 O   0  0  0  0  0  0  0  0  0  0  0  0
   -5.8520   21.5610  -32.3620 C   0  0  0  0  0  0  0  0  0  0  0  0
   -6.9670   20.7560  -32.6130 C   0  0  0  0  0  0  0  0  0  0  0  0
   -9.8368   19.9266  -31.3874 H   0  0  0  0  0  0  0  0  0  0  0  0
  -10.1792   20.7913  -32.9242 H   0  0  0  0  0  0  0  0  0  0  0  0
   -9.1067   19.3503  -32.9242 H   0  0  0  0  0  0  0  0  0  0  0  0
   -9.3329   22.5630  -30.9296 H   0  0  0  0  0  0  0  0  0  0  0  0
   -7.3425   23.9999  -30.4854 H   0  0  0  0  0  0  0  0  0  0  0  0
   -4.4660   22.9485  -29.0052 H   0  0  0  0  0  0  0  0  0  0  0  0
   -3.2591   21.6450  -27.2701 H   0  0  0  0  0  0  0  0  0  0  0  0
   -1.2070   22.5473  -25.0806 H   0  0  0  0  0  0  0  0  0  0  0  0
   -1.2280   21.1416  -26.1988 H   0  0  0  0  0  0  0  0  0  0  0  0
    0.1709   22.2684  -26.1988 H   0  0  0  0  0  0  0  0  0  0  0  0
   -1.2748   27.9773  -26.2797 H   0  0  0  0  0  0  0  0  0  0  0  0
   -1.7320   26.4281  -27.1168 H   0  0  0  0  0  0  0  0  0  0  0  0
   -2.2841   27.0486  -24.4697 H   0  0  0  0  0  0  0  0  0  0  0  0
   -2.2181   25.3797  -25.2103 H   0  0  0  0  0  0  0  0  0  0  0  0
   -0.0825   27.8941  -23.8850 H   0  0  0  0  0  0  0  0  0  0  0  0
    1.0962   26.6857  -23.2540 H   0  0  0  0  0  0  0  0  0  0  0  0
    1.5314   27.9538  -25.5639 H   0  0  0  0  0  0  0  0  0  0  0  0
    1.9408   26.1923  -25.3466 H   0  0  0  0  0  0  0  0  0  0  0  0
   -4.8660   21.2628  -32.7478 H   0  0  0  0  0  0  0  0  0  0  0  0
   -6.8549   19.8309  -33.1975 H   0  0  0  0  0  0  0  0  0  0  0  0
  1  2  1  0
  2  3  2  0
  3  4  1  0
  4  5  2  0
  5  6  1  0
  6  7  1  0
  7  8  2  0
  7  9  1  0
  9 10  1  0
 10 11  2  0
 11 12  1  0
 12 13  2  0
 13 14  1  0
 13 15  1  0
 15 16  1  0
 16 17  2  0
 16 18  2  0
 16 19  1  0
 19 20  1  0
 20 21  1  0
 21 22  1  0
 22 23  1  0
 23 24  1  0
 15 25  2  0
 25 26  1  0
  5 27  1  0
 27 28  2  0
 28  2  1  0
 25 10  1  0
 24 19  1  0
  1 29  1  0
  1 30  1  0
  1 31  1  0
  3 32  1  0
  4 33  1  0
 11 34  1  0
 12 35  1  0
 14 36  1  0
 14 37  1  0
 14 38  1  0
 20 39  1  0
 20 40  1  0
 21 41  1  0
 21 42  1  0
 23 43  1  0
 23 44  1  0
 24 45  1  0
 24 46  1  0
 27 47  1  0
 28 48  1  0
M  CHG  3   6  -1   9  -1  26  -1
M  END
>  <UniqueID>  (19) 
18

>  <SMILES>  (19) 
Cc1ccc([N-]C(=O)[N-]c2ccc(C)c(S(=O)(=O)N3CCOCC3)c2[O-])cc1

>  <Energy>  (19) 
70.79812335887563

>  <Genealogy>  (19) 
Cc1ccc([N-]C(=O)[N-]c2ccc(C)c(S(=O)(=O)N3CCOCC3)c2[O-])cc1 (protonated)
Cc1ccc([N-]C(=O)[N-]c2ccc(C)c(S(=O)(=O)N3CCOCC3)c2[O-])cc1 (3D coordinates assigned)
Cc1ccc([N-]C(=O)[N-]c2ccc(C)c(S(=O)(=O)N3CCOCC3)c2[O-])cc1 (nonaromatic ring conformer: 70.79812335887563 kcal/mol)

>  <smiles>  (19) 
Cc1ccc(NC(=O)Nc2ccc(C)c(S(=O)(=O)N3CCOCC3)c2O)cc1

>  <score_type>  (19) 
oracle

>  <origin>  (19) 
adgpu

>  <m_score__min__energy>  (19) 
-15.029999999999999

>  <m_primary>  (19) 
energy

$$$$
19:0
     RDKit          3D

 39 41  0  0  0  0  0  0  0  0999 V2000
   -1.6770   25.5690  -26.2170 C   0  0  0  0  0  0  0  0  0  0  0  0
   -0.7890   25.9420  -27.7120 S   0  0  0  0  0  0  0  0  0  0  0  0
    0.6400   25.5040  -27.5660 O   0  0  0  0  0  0  0  0  0  0  0  0
   -0.8180   27.4240  -27.9640 O   0  0  0  0  0  0  0  0  0  0  0  0
   -1.5060   25.0980  -29.0470 N   0  0  0  0  0  0  0  0  0  0  0  0
   -1.4700   23.6690  -29.1730 C   0  0  0  0  0  0  0  0  0  0  0  0
   -0.4160   22.9470  -28.5850 C   0  0  0  0  0  0  0  0  0  0  0  0
   -0.3040   21.5690  -28.7720 C   0  0  0  0  0  0  0  0  0  0  0  0
   -1.2370   20.8930  -29.5560 C   0  0  0  0  0  0  0  0  0  0  0  0
   -2.2930   21.5910  -30.1450 C   0  0  0  0  0  0  0  0  0  0  0  0
   -2.4340   22.9760  -29.9530 C   0  0  0  0  0  0  0  0  0  0  0  0
   -3.6180   23.6470  -30.5410 C   0  0  0  0  0  0  0  0  0  0  0  0
   -3.8500   24.9750  -30.5120 N   0  0  0  0  0  0  0  0  0  0  0  0
   -5.0130   25.1680  -31.1130 N   0  0  0  0  0  0  0  0  0  0  0  0
   -5.4480   23.9500  -31.4800 C   0  0  0  0  0  0  0  0  0  0  0  0
   -6.9890   23.6530  -32.3390 S   0  0  0  0  0  0  0  0  0  0  0  0
   -7.6160   22.5260  -31.0530 C   0  0  0  0  0  0  0  0  0  0  0  0
   -7.7040   21.1330  -31.6070 C   0  0  0  0  0  0  0  0  0  0  0  0
   -8.7680   20.2920  -31.2400 C   0  0  0  0  0  0  0  0  0  0  0  0
   -8.8670   19.0070  -31.7820 C   0  0  0  0  0  0  0  0  0  0  0  0
   -7.9150   18.5580  -32.7010 C   0  0  0  0  0  0  0  0  0  0  0  0
   -6.8620   19.3950  -33.0830 C   0  0  0  0  0  0  0  0  0  0  0  0
   -5.6730   18.8340  -34.2450 Cl  0  0  0  0  0  0  0  0  0  0  0  0
   -6.7590   20.6810  -32.5410 C   0  0  0  0  0  0  0  0  0  0  0  0
   -4.6030   23.0120  -31.1310 O   0  0  0  0  0  0  0  0  0  0  0  0
   -1.0563   25.8297  -25.3471 H   0  0  0  0  0  0  0  0  0  0  0  0
   -2.6098   26.1513  -26.1896 H   0  0  0  0  0  0  0  0  0  0  0  0
   -1.9142   24.4952  -26.1896 H   0  0  0  0  0  0  0  0  0  0  0  0
   -2.0040   25.6700  -29.7660 H   0  0  0  0  0  0  0  0  0  0  0  0
    0.3284   23.4747  -27.9707 H   0  0  0  0  0  0  0  0  0  0  0  0
    0.5214   21.0157  -28.3002 H   0  0  0  0  0  0  0  0  0  0  0  0
   -1.1413   19.8082  -29.7110 H   0  0  0  0  0  0  0  0  0  0  0  0
   -3.0227   21.0509  -30.7662 H   0  0  0  0  0  0  0  0  0  0  0  0
   -6.9316   22.5355  -30.1919 H   0  0  0  0  0  0  0  0  0  0  0  0
   -8.6148   22.8563  -30.7316 H   0  0  0  0  0  0  0  0  0  0  0  0
   -9.5250   20.6454  -30.5245 H   0  0  0  0  0  0  0  0  0  0  0  0
   -9.6960   18.3481  -31.4843 H   0  0  0  0  0  0  0  0  0  0  0  0
   -7.9939   17.5457  -33.1241 H   0  0  0  0  0  0  0  0  0  0  0  0
   -5.9339   21.3404  -32.8483 H   0  0  0  0  0  0  0  0  0  0  0  0
  1  2  1  0
  2  3  2  0
  2  4  2  0
  2  5  1  0
  5  6  1  0
  6  7  2  0
  7  8  1  0
  8  9  2  0
  9 10  1  0
 10 11  2  0
 11 12  1  0
 12 13  2  0
 13 14  1  0
 14 15  2  0
 15 16  1  0
 16 17  1  0
 17 18  1  0
 18 19  2  0
 19 20  1  0
 20 21  2  0
 21 22  1  0
 22 23  1  0
 22 24  2  0
 15 25  1  0
 11  6  1  0
 25 12  1  0
 24 18  1  0
  1 26  1  0
  1 27  1  0
  1 28  1  0
  5 29  1  0
  7 30  1  0
  8 31  1  0
  9 32  1  0
 10 33  1  0
 17 34  1  0
 17 35  1  0
 19 36  1  0
 20 37  1  0
 21 38  1  0
 24 39  1  0
M  END
>  <UniqueID>  (20) 
19

>  <SMILES>  (20) 
CS(=O)(=O)Nc1ccccc1-c1nnc(SCc2cccc(Cl)c2)o1

>  <Energy>  (20) 
75.56127172658614

>  <Genealogy>  (20) 
CS(=O)(=O)Nc1ccccc1-c1nnc(SCc2cccc(Cl)c2)o1 (3D coordinates assigned)
CS(=O)(=O)Nc1ccccc1-c1nnc(SCc2cccc(Cl)c2)o1 (optimized conformer: 75.56127172658614 kcal/mol)

>  <smiles>  (20) 
CS(=O)(=O)Nc1ccccc1-c1nnc(SCc2cccc(Cl)c2)o1

>  <score_type>  (20) 
oracle

>  <origin>  (20) 
adgpu

>  <m_score__min__energy>  (20) 
-10.5

>  <m_primary>  (20) 
energy

$$$$
20:0
     RDKit          3D

 50 53  0  0  0  0  0  0  0  0999 V2000
   -1.7780   22.4080  -31.4190 O   0  0  0  0  0  0  0  0  0  0  0  0
   -0.7190   21.8580  -30.9850 C   0  0  0  0  0  0  0  0  0  0  0  0
   -0.4420   21.8900  -29.5650 N   0  0  0  0  0  0  0  0  0  0  0  0
   -0.4720   22.9350  -28.7750 C   0  0  0  0  0  0  0  0  0  0  0  0
   -0.4310   22.7180  -27.3810 C   0  0  0  0  0  0  0  0  0  0  0  0
   -0.6820   23.7920  -26.5180 C   0  0  0  0  0  0  0  0  0  0  0  0
   -0.9400   25.0630  -27.0470 C   0  0  0  0  0  0  0  0  0  0  0  0
   -1.3090   26.4110  -25.9730 Cl  0  0  0  0  0  0  0  0  0  0  0  0
   -0.8980   25.2570  -28.4300 C   0  0  0  0  0  0  0  0  0  0  0  0
   -0.7070   24.1800  -29.2590 N   0  0  0  0  0  0  0  0  0  0  0  0
    0.1020   21.1180  -31.9050 N   0  0  0  0  0  0  0  0  0  0  0  0
   -0.4750   20.7480  -33.4970 S   0  0  0  0  0  0  0  0  0  0  0  0
   -0.3800   21.9680  -34.3770 O   0  0  0  0  0  0  0  0  0  0  0  0
    0.3910   19.6620  -34.0840 O   0  0  0  0  0  0  0  0  0  0  0  0
   -2.1360   20.2020  -33.4150 C   0  0  0  0  0  0  0  0  0  0  0  0
   -2.4360   18.8270  -33.4680 C   0  0  0  0  0  0  0  0  0  0  0  0
   -3.7640   18.3920  -33.4700 C   0  0  0  0  0  0  0  0  0  0  0  0
   -4.8170   19.3280  -33.3980 C   0  0  0  0  0  0  0  0  0  0  0  0
   -6.2460   18.8680  -33.4820 C   0  0  0  0  0  0  0  0  0  0  0  0
   -7.1550   19.4620  -32.3910 C   0  0  0  0  0  0  0  0  0  0  0  0
   -7.6070   20.7900  -32.7820 N   0  0  0  0  0  0  0  0  0  0  0  0
   -7.6780   21.9450  -31.9450 C   0  0  0  0  0  0  0  0  0  0  0  0
   -8.8310   22.3550  -31.5960 O   0  0  0  0  0  0  0  0  0  0  0  0
   -6.4910   22.7550  -31.6930 N   0  0  2  0  0  0  0  0  0  0  0  0
   -5.6700   22.3430  -30.5110 C   0  0  0  0  0  0  0  0  0  0  0  0
   -5.0570   23.6090  -30.0410 C   0  0  0  0  0  0  0  0  0  0  0  0
   -3.7420   24.0200  -30.0700 C   0  0  0  0  0  0  0  0  0  0  0  0
   -3.6890   25.2920  -30.5190 N   0  0  0  0  0  0  0  0  0  0  0  0
   -4.9170   25.6840  -30.8340 N   0  0  0  0  0  0  0  0  0  0  0  0
   -5.7630   24.6800  -30.5270 C   0  0  0  0  0  0  0  0  0  0  0  0
   -6.8730   24.1530  -31.3900 C   0  0  0  0  0  0  0  0  0  0  0  0
   -4.5070   20.7050  -33.3210 C   0  0  0  0  0  0  0  0  0  0  0  0
   -3.1810   21.1410  -33.3530 C   0  0  0  0  0  0  0  0  0  0  0  0
   -0.2051   21.7196  -26.9782 H   0  0  0  0  0  0  0  0  0  0  0  0
   -0.6766   23.6380  -25.4288 H   0  0  0  0  0  0  0  0  0  0  0  0
   -1.0172   26.2660  -28.8515 H   0  0  0  0  0  0  0  0  0  0  0  0
   -1.6197   18.0907  -33.5081 H   0  0  0  0  0  0  0  0  0  0  0  0
   -3.9889   17.3168  -33.5279 H   0  0  0  0  0  0  0  0  0  0  0  0
   -6.6470   19.1593  -34.4640 H   0  0  0  0  0  0  0  0  0  0  0  0
   -6.2407   17.7777  -33.3360 H   0  0  0  0  0  0  0  0  0  0  0  0
   -8.0280   18.8079  -32.2495 H   0  0  0  0  0  0  0  0  0  0  0  0
   -6.5869   19.5379  -31.4521 H   0  0  0  0  0  0  0  0  0  0  0  0
   -5.8600   22.7750  -32.5490 H   0  0  0  0  0  0  0  0  0  0  0  0
   -6.3050   21.9020  -29.7285 H   0  0  0  0  0  0  0  0  0  0  0  0
   -4.9209   21.5776  -30.7620 H   0  0  0  0  0  0  0  0  0  0  0  0
   -2.8754   23.4101  -29.7749 H   0  0  0  0  0  0  0  0  0  0  0  0
   -7.8308   24.1838  -30.8499 H   0  0  0  0  0  0  0  0  0  0  0  0
   -7.0071   24.7521  -32.3027 H   0  0  0  0  0  0  0  0  0  0  0  0
   -5.3196   21.4414  -33.2349 H   0  0  0  0  0  0  0  0  0  0  0  0
   -2.9541   22.2171  -33.3298 H   0  0  0  0  0  0  0  0  0  0  0  0
  1  2  2  0
  2  3  1  0
  3  4  2  3
  4  5  1  0
  5  6  2  0
  6  7  1  0
  7  8  1  0
  7  9  2  0
  9 10  1  0
  2 11  1  0
 11 12  1  0
 12 13  2  0
 12 14  2  0
 12 15  1  0
 15 16  2  0
 16 17  1  0
 17 18  2  0
 18 19  1  0
 19 20  1  0
 20 21  1  0
 21 22  1  0
 22 23  2  0
 22 24  1  0
 24 25  1  0
 25 26  1  0
 26 27  2  0
 27 28  1  0
 28 29  1  0
 29 30  2  0
 30 31  1  0
 18 32  1  0
 32 33  2  0
 10  4  1  0
 33 15  1  0
 31 24  1  0
 30 26  1  0
  5 34  1  0
  6 35  1  0
  9 36  1  0
 16 37  1  0
 17 38  1  0
 19 39  1  0
 19 40  1  0
 20 41  1  0
 20 42  1  0
 24 43  1  6
 25 44  1  0
 25 45  1  0
 27 46  1  0
 31 47  1  0
 31 48  1  0
 32 49  1  0
 33 50  1  0
M  CHG  5  10  -1  11  -1  21  -1  24   1  28  -1
M  END
>  <UniqueID>  (21) 
20

>  <SMILES>  (21) 
O=C(N=c1ccc(Cl)c[n-]1)[N-]S(=O)(=O)c1ccc(CC[N-]C(=O)[N@@H+]2Cc3c[n-]nc3C2)cc1

>  <Energy>  (21) 
141.2139962110759

>  <Genealogy>  (21) 
O=C(N=c1ccc(Cl)c[n-]1)[N-]S(=O)(=O)c1ccc(CC[N-]C(=O)[NH+]2Cc3c[n-]nc3C2)cc1 (protonated)
O=C(N=c1ccc(Cl)c[n-]1)[N-]S(=O)(=O)c1ccc(CC[N-]C(=O)[N@@H+]2Cc3c[n-]nc3C2)cc1 (chirality)
O=C(N=c1ccc(Cl)c[n-]1)[N-]S(=O)(=O)c1ccc(CC[N-]C(=O)[N@@H+]2Cc3c[n-]nc3C2)cc1 (3D coordinates assigned)
O=C(N=c1ccc(Cl)c[n-]1)[N-]S(=O)(=O)c1ccc(CC[N-]C(=O)[N@@H+]2Cc3c[n-]nc3C2)cc1 (nonaromatic ring conformer: 141.2139962110759 kcal/mol)

>  <smiles>  (21) 
O=C(N=c1ccc(Cl)c[nH]1)NS(=O)(=O)c1ccc(CCNC(=O)N2Cc3c[nH]nc3C2)cc1

>  <score_type>  (21) 
oracle

>  <origin>  (21) 
adgpu

>  <m_score__min__energy>  (21) 
-12.32

>  <m_primary>  (21) 
energy

$$$$
21:0
     RDKit          3D

 41 42  0  0  0  0  0  0  0  0999 V2000
   -0.8770   21.1990  -30.9370 H   0  0  0  0  0  0  0  0  0  0  0  0
   -1.6770   21.5460  -31.4490 O   0  0  0  0  0  0  0  0  0  0  0  0
   -2.5990   20.7180  -32.0610 N   0  0  0  0  0  0  0  0  0  0  0  0
   -3.3090   20.2700  -31.4410 H   0  0  0  0  0  0  0  0  0  0  0  0
   -2.6270   20.4860  -33.3470 C   0  0  0  0  0  0  0  0  0  0  0  0
   -1.5680   20.9220  -34.2090 N   0  0  0  0  0  0  0  0  0  0  0  0
   -0.6410   21.2360  -33.8500 H   0  0  0  0  0  0  0  0  0  0  0  0
   -1.6650   20.8040  -35.2410 H   0  0  0  0  0  0  0  0  0  0  0  0
   -3.6790   19.6860  -33.9140 N   0  0  0  0  0  0  0  0  0  0  0  0
   -3.4390   19.0890  -34.7390 H   0  0  0  0  0  0  0  0  0  0  0  0
   -5.0390   19.6780  -33.4480 C   0  0  0  0  0  0  0  0  0  0  0  0
   -5.8490   18.5400  -33.5790 C   0  0  0  0  0  0  0  0  0  0  0  0
   -5.4524   17.6399  -34.0714 H   0  0  0  0  0  0  0  0  0  0  0  0
   -7.1550   18.5440  -33.0880 C   0  0  0  0  0  0  0  0  0  0  0  0
   -7.7844   17.6504  -33.2115 H   0  0  0  0  0  0  0  0  0  0  0  0
   -7.6760   19.6750  -32.4380 C   0  0  0  0  0  0  0  0  0  0  0  0
   -9.0980   19.6310  -31.9450 C   0  0  0  0  0  0  0  0  0  0  0  0
   -9.1049   19.6308  -30.8450 H   0  0  0  0  0  0  0  0  0  0  0  0
   -9.6418   20.5128  -32.3149 H   0  0  0  0  0  0  0  0  0  0  0  0
   -9.5862   18.7173  -32.3149 H   0  0  0  0  0  0  0  0  0  0  0  0
   -6.8640   20.8310  -32.3030 C   0  0  0  0  0  0  0  0  0  0  0  0
   -7.4290   22.3050  -31.4940 S   0  0  0  0  0  0  0  0  0  0  0  0
   -8.5370   22.9250  -32.3020 O   0  0  0  0  0  0  0  0  0  0  0  0
   -7.9830   21.9660  -30.1380 O   0  0  0  0  0  0  0  0  0  0  0  0
   -6.1120   23.4420  -31.3310 N   0  0  0  0  0  0  0  0  0  0  0  0
   -5.7670   23.6720  -32.2920 H   0  0  0  0  0  0  0  0  0  0  0  0
   -5.0110   22.8340  -30.5580 C   0  0  0  0  0  0  0  0  0  0  0  0
   -5.4254   22.3631  -29.6544 H   0  0  0  0  0  0  0  0  0  0  0  0
   -4.5127   22.0870  -31.1934 H   0  0  0  0  0  0  0  0  0  0  0  0
   -3.9670   23.8910  -30.1400 C   0  0  0  0  0  0  0  0  0  0  0  0
   -4.0555   24.0742  -29.0590 H   0  0  0  0  0  0  0  0  0  0  0  0
   -2.9662   23.5082  -30.3889 H   0  0  0  0  0  0  0  0  0  0  0  0
   -4.1640   25.1080  -30.8310 O   0  0  0  0  0  0  0  0  0  0  0  0
   -5.4130   25.6660  -30.4650 C   0  0  0  0  0  0  0  0  0  0  0  0
   -5.3789   25.9418  -29.4007 H   0  0  0  0  0  0  0  0  0  0  0  0
   -5.5885   26.5451  -31.1025 H   0  0  0  0  0  0  0  0  0  0  0  0
   -6.5840   24.6800  -30.6860 C   0  0  0  0  0  0  0  0  0  0  0  0
   -7.0339   24.4309  -29.7136 H   0  0  0  0  0  0  0  0  0  0  0  0
   -7.3275   25.1573  -31.3414 H   0  0  0  0  0  0  0  0  0  0  0  0
   -5.5490   20.8070  -32.7960 C   0  0  0  0  0  0  0  0  0  0  0  0
   -4.9080   21.6917  -32.6674 H   0  0  0  0  0  0  0  0  0  0  0  0
  1  2  1  0
  2  3  1  0
  3  4  1  0
  3  5  2  0
  5  6  1  0
  6  7  1  0
  6  8  1  0
  5  9  1  0
  9 10  1  0
  9 11  1  0
 11 12  2  0
 12 13  1  0
 12 14  1  0
 14 15  1  0
 14 16  2  0
 16 17  1  0
 17 18  1  0
 17 19  1  0
 17 20  1  0
 16 21  1  0
 21 22  1  0
 22 23  2  0
 22 24  2  0
 22 25  1  0
 25 26  1  0
 25 27  1  0
 27 28  1  0
 27 29  1  0
 27 30  1  0
 30 31  1  0
 30 32  1  0
 30 33  1  0
 33 34  1  0
 34 35  1  0
 34 36  1  0
 34 37  1  0
 37 38  1  0
 37 39  1  0
 21 40  2  0
 40 41  1  0
 40 11  1  0
 37 25  1  0
M  CHG  2   3   1  25   1
M  END
>  <UniqueID>  (22) 
21

>  <SMILES>  (22) 
Cc1ccc(N/C(N)=[NH+]/O)cc1S(=O)(=O)[NH+]1CCOCC1

>  <Energy>  (22) 
55.39110503853041

>  <Genealogy>  (22) 
Cc1ccc(NC(N)=[NH+]O)cc1S(=O)(=O)[NH+]1CCOCC1 (protonated)
Cc1ccc(N/C(N)=[NH+]/O)cc1S(=O)(=O)[NH+]1CCOCC1 (cis-trans isomerization)
Cc1ccc(N/C(N)=[NH+]/O)cc1S(=O)(=O)[NH+]1CCOCC1 (3D coordinates assigned)
Cc1ccc(N/C(N)=[NH+]/O)cc1S(=O)(=O)[NH+]1CCOCC1 (nonaromatic ring conformer: 55.39110503853041 kcal/mol)

>  <smiles>  (22) 
Cc1ccc(NC(N)=NO)cc1S(=O)(=O)N1CCOCC1

>  <score_type>  (22) 
oracle

>  <origin>  (22) 
adgpu

>  <m_score__min__energy>  (22) 
-6.9199999999999999

>  <m_primary>  (22) 
energy

$$$$
22:0
     RDKit          3D

 47 49  0  0  0  0  0  0  0  0999 V2000
   -2.3930   22.9500  -31.4660 O   0  0  0  0  0  0  0  0  0  0  0  0
   -3.2060   22.8750  -30.5070 C   0  0  0  0  0  0  0  0  0  0  0  0
   -2.7500   22.3480  -29.2540 N   0  0  0  0  0  0  0  0  0  0  0  0
   -3.0420   22.9350  -27.9520 C   0  0  0  0  0  0  0  0  0  0  0  0
   -1.8100   23.6170  -27.4190 C   0  0  0  0  0  0  0  0  0  0  0  0
   -1.2660   23.1930  -26.1930 C   0  0  0  0  0  0  0  0  0  0  0  0
   -0.1260   23.8090  -25.6710 C   0  0  0  0  0  0  0  0  0  0  0  0
    0.4820   24.8570  -26.3620 C   0  0  0  0  0  0  0  0  0  0  0  0
   -0.0540   25.2970  -27.5750 C   0  0  0  0  0  0  0  0  0  0  0  0
   -1.1980   24.6920  -28.1090 C   0  0  0  0  0  0  0  0  0  0  0  0
   -1.7000   25.1830  -29.3160 O   0  0  0  0  0  0  0  0  0  0  0  0
   -4.5890   23.3570  -30.6960 C   0  0  0  0  0  0  0  0  0  0  0  0
   -5.6270   22.4420  -30.9300 C   0  0  0  0  0  0  0  0  0  0  0  0
   -6.9460   22.8850  -31.0830 C   0  0  0  0  0  0  0  0  0  0  0  0
   -8.2490   21.7140  -31.3080 S   0  0  0  0  0  0  0  0  0  0  0  0
   -9.0040   21.5510  -30.0170 O   0  0  0  0  0  0  0  0  0  0  0  0
   -9.2050   22.2360  -32.3440 O   0  0  0  0  0  0  0  0  0  0  0  0
   -7.6300   20.1640  -31.8220 N   0  0  0  0  0  0  0  0  0  0  0  0
   -8.7380   19.2180  -32.0430 C   0  0  0  0  0  0  0  0  0  0  0  0
   -8.1910   17.7940  -32.2450 C   0  0  0  0  0  0  0  0  0  0  0  0
   -6.7460   17.7880  -32.7730 C   0  0  0  0  0  0  0  0  0  0  0  0
   -6.5000   18.9650  -33.7210 C   0  0  0  0  0  0  0  0  0  0  0  0
   -6.8170   20.3190  -33.0460 C   0  0  0  0  0  0  0  0  0  0  0  0
   -7.2260   24.2570  -31.0360 C   0  0  0  0  0  0  0  0  0  0  0  0
   -6.1940   25.1770  -30.8370 C   0  0  0  0  0  0  0  0  0  0  0  0
   -4.8780   24.7340  -30.6670 C   0  0  0  0  0  0  0  0  0  0  0  0
   -3.8680   25.6670  -30.4530 O   0  0  0  0  0  0  0  0  0  0  0  0
   -3.8525   23.6714  -28.0557 H   0  0  0  0  0  0  0  0  0  0  0  0
   -3.3521   22.1427  -27.2548 H   0  0  0  0  0  0  0  0  0  0  0  0
   -1.7422   22.3695  -25.6407 H   0  0  0  0  0  0  0  0  0  0  0  0
    0.2930   23.4669  -24.7132 H   0  0  0  0  0  0  0  0  0  0  0  0
    1.3830   25.3369  -25.9522 H   0  0  0  0  0  0  0  0  0  0  0  0
    0.4270   26.1259  -28.1150 H   0  0  0  0  0  0  0  0  0  0  0  0
   -2.1040   24.5930  -30.0320 H   0  0  0  0  0  0  0  0  0  0  0  0
   -5.4021   21.3671  -30.9938 H   0  0  0  0  0  0  0  0  0  0  0  0
   -9.4054   19.2299  -31.1687 H   0  0  0  0  0  0  0  0  0  0  0  0
   -9.2924   19.5199  -32.9438 H   0  0  0  0  0  0  0  0  0  0  0  0
   -8.2164   17.2661  -31.2803 H   0  0  0  0  0  0  0  0  0  0  0  0
   -8.8232   17.2961  -32.9949 H   0  0  0  0  0  0  0  0  0  0  0  0
   -6.0525   17.8610  -31.9223 H   0  0  0  0  0  0  0  0  0  0  0  0
   -6.5808   16.8525  -33.3277 H   0  0  0  0  0  0  0  0  0  0  0  0
   -5.4443   18.9592  -34.0299 H   0  0  0  0  0  0  0  0  0  0  0  0
   -7.1656   18.8507  -34.5893 H   0  0  0  0  0  0  0  0  0  0  0  0
   -5.8698   20.8112  -32.7804 H   0  0  0  0  0  0  0  0  0  0  0  0
   -7.3988   20.9205  -33.7600 H   0  0  0  0  0  0  0  0  0  0  0  0
   -8.2607   24.6104  -31.1561 H   0  0  0  0  0  0  0  0  0  0  0  0
   -6.4169   26.2539  -30.8139 H   0  0  0  0  0  0  0  0  0  0  0  0
  1  2  2  0
  2  3  1  0
  3  4  1  0
  4  5  1  0
  5  6  2  0
  6  7  1  0
  7  8  2  0
  8  9  1  0
  9 10  2  0
 10 11  1  0
  2 12  1  0
 12 13  2  0
 13 14  1  0
 14 15  1  0
 15 16  2  0
 15 17  2  0
 15 18  1  0
 18 19  1  0
 19 20  1  0
 20 21  1  0
 21 22  1  0
 22 23  1  0
 14 24  2  0
 24 25  1  0
 25 26  2  0
 26 27  1  0
 10  5  1  0
 26 12  1  0
 23 18  1  0
  4 28  1  0
  4 29  1  0
  6 30  1  0
  7 31  1  0
  8 32  1  0
  9 33  1  0
 11 34  1  0
 13 35  1  0
 19 36  1  0
 19 37  1  0
 20 38  1  0
 20 39  1  0
 21 40  1  0
 21 41  1  0
 22 42  1  0
 22 43  1  0
 23 44  1  0
 23 45  1  0
 24 46  1  0
 25 47  1  0
M  CHG  2   3  -1  27  -1
M  END
>  <UniqueID>  (23) 
22

>  <SMILES>  (23) 
O=C([N-]Cc1ccccc1O)c1cc(S(=O)(=O)N2CCCCC2)ccc1[O-]

>  <Energy>  (23) 
54.718809696623474

>  <Genealogy>  (23) 
O=C([N-]Cc1ccccc1O)c1cc(S(=O)(=O)N2CCCCC2)ccc1[O-] (protonated)
O=C([N-]Cc1ccccc1O)c1cc(S(=O)(=O)N2CCCCC2)ccc1[O-] (3D coordinates assigned)
O=C([N-]Cc1ccccc1O)c1cc(S(=O)(=O)N2CCCCC2)ccc1[O-] (nonaromatic ring conformer: 54.718809696623474 kcal/mol)

>  <smiles>  (23) 
O=C(NCc1ccccc1O)c1cc(S(=O)(=O)N2CCCCC2)ccc1O

>  <score_type>  (23) 
oracle

>  <origin>  (23) 
adgpu

>  <m_score__min__energy>  (23) 
-13.859999999999999

>  <m_primary>  (23) 
energy

$$$$
23:0
     RDKit          3D

 56 59  0  0  0  0  0  0  0  0999 V2000
   -2.6750   23.6140  -30.0230 O   0  0  0  0  0  0  0  0  0  0  0  0
   -3.3630   24.0070  -29.0410 C   0  0  0  0  0  0  0  0  0  0  0  0
   -4.7650   23.6820  -28.9710 N   0  0  0  0  0  0  0  0  0  0  0  0
   -5.4370   22.8290  -29.9130 C   0  0  0  0  0  0  0  0  0  0  0  0
   -6.8370   22.8570  -29.9890 C   0  0  0  0  0  0  0  0  0  0  0  0
   -7.5170   22.0210  -30.8790 C   0  0  0  0  0  0  0  0  0  0  0  0
   -6.8040   21.1360  -31.6980 C   0  0  0  0  0  0  0  0  0  0  0  0
   -7.6610   20.0690  -32.8060 S   0  0  0  0  0  0  0  0  0  0  0  0
   -7.2320   20.3640  -34.2160 O   0  0  0  0  0  0  0  0  0  0  0  0
   -9.1420   20.3010  -32.6810 O   0  0  0  0  0  0  0  0  0  0  0  0
   -7.2850   18.4250  -32.4060 N   0  0  0  0  0  0  0  0  0  0  0  0
   -6.3580   17.7330  -32.9950 C   0  0  0  0  0  0  0  0  0  0  0  0
   -6.1390   16.4480  -32.6080 N   0  0  0  0  0  0  0  0  0  0  0  0
   -5.1780   15.6920  -33.2010 C   0  0  0  0  0  0  0  0  0  0  0  0
   -4.4000   16.2330  -34.2240 C   0  0  0  0  0  0  0  0  0  0  0  0
   -4.6360   17.5520  -34.6090 C   0  0  0  0  0  0  0  0  0  0  0  0
   -5.6050   18.2750  -33.9920 N   0  0  0  0  0  0  0  0  0  0  0  0
   -5.4080   21.0790  -31.6030 C   0  0  0  0  0  0  0  0  0  0  0  0
   -4.7270   21.9170  -30.7130 C   0  0  0  0  0  0  0  0  0  0  0  0
   -2.7050   24.8080  -27.9800 C   0  0  0  0  0  0  0  0  0  0  0  0
   -3.2960   24.8960  -26.7070 C   0  0  0  0  0  0  0  0  0  0  0  0
   -2.6900   25.6410  -25.6920 C   0  0  0  0  0  0  0  0  0  0  0  0
   -1.4790   26.3010  -25.9280 C   0  0  0  0  0  0  0  0  0  0  0  0
   -0.7090   27.2300  -24.6390 S   0  0  0  0  0  0  0  0  0  0  0  0
   -1.3750   26.9010  -23.3310 O   0  0  0  0  0  0  0  0  0  0  0  0
   -0.9010   28.6990  -24.9010 O   0  0  0  0  0  0  0  0  0  0  0  0
    0.9980   26.8780  -24.5230 N   0  0  0  0  0  0  0  0  0  0  0  0
    1.5720   27.5110  -23.3260 C   0  0  0  0  0  0  0  0  0  0  0  0
    3.1090   27.4150  -23.3530 C   0  0  0  0  0  0  0  0  0  0  0  0
    3.6080   26.2460  -24.2190 C   0  0  0  0  0  0  0  0  0  0  0  0
    2.6660   25.0420  -24.1180 C   0  0  0  0  0  0  0  0  0  0  0  0
    1.2170   25.4160  -24.5040 C   0  0  0  0  0  0  0  0  0  0  0  0
   -0.8770   26.2080  -27.1900 C   0  0  0  0  0  0  0  0  0  0  0  0
   -1.4820   25.4650  -28.2070 C   0  0  0  0  0  0  0  0  0  0  0  0
   -5.3540   24.1200  -28.2290 H   0  0  0  0  0  0  0  0  0  0  0  0
   -7.4047   23.5426  -29.3428 H   0  0  0  0  0  0  0  0  0  0  0  0
   -8.6149   22.0581  -30.9365 H   0  0  0  0  0  0  0  0  0  0  0  0
   -5.0140   14.6545  -32.8744 H   0  0  0  0  0  0  0  0  0  0  0  0
   -3.6192   15.6337  -34.7152 H   0  0  0  0  0  0  0  0  0  0  0  0
   -4.0374   18.0064  -35.4122 H   0  0  0  0  0  0  0  0  0  0  0  0
   -4.8446   20.3727  -32.2305 H   0  0  0  0  0  0  0  0  0  0  0  0
   -3.6309   21.8618  -30.6391 H   0  0  0  0  0  0  0  0  0  0  0  0
   -4.2436   24.3738  -26.5085 H   0  0  0  0  0  0  0  0  0  0  0  0
   -3.1670   25.7089  -24.7032 H   0  0  0  0  0  0  0  0  0  0  0  0
    1.2754   28.5699  -23.2983 H   0  0  0  0  0  0  0  0  0  0  0  0
    1.1975   26.9902  -22.4324 H   0  0  0  0  0  0  0  0  0  0  0  0
    3.5146   28.3536  -23.7588 H   0  0  0  0  0  0  0  0  0  0  0  0
    3.4524   27.2398  -22.3228 H   0  0  0  0  0  0  0  0  0  0  0  0
    3.6612   26.5733  -25.2678 H   0  0  0  0  0  0  0  0  0  0  0  0
    4.6016   25.9430  -23.8571 H   0  0  0  0  0  0  0  0  0  0  0  0
    3.0229   24.2523  -24.7955 H   0  0  0  0  0  0  0  0  0  0  0  0
    2.6641   24.6947  -23.0743 H   0  0  0  0  0  0  0  0  0  0  0  0
    1.0032   25.0138  -25.5053 H   0  0  0  0  0  0  0  0  0  0  0  0
    0.5464   24.9864  -23.7452 H   0  0  0  0  0  0  0  0  0  0  0  0
    0.0764   26.7224  -27.3809 H   0  0  0  0  0  0  0  0  0  0  0  0
   -0.9984   25.3933  -29.1924 H   0  0  0  0  0  0  0  0  0  0  0  0
  1  2  2  0
  2  3  1  0
  3  4  1  0
  4  5  2  0
  5  6  1  0
  6  7  2  0
  7  8  1  0
  8  9  2  0
  8 10  2  0
  8 11  1  0
 11 12  2  3
 12 13  1  0
 13 14  2  0
 14 15  1  0
 15 16  2  0
 16 17  1  0
  7 18  1  0
 18 19  2  0
  2 20  1  0
 20 21  2  0
 21 22  1  0
 22 23  2  0
 23 24  1  0
 24 25  2  0
 24 26  2  0
 24 27  1  0
 27 28  1  0
 28 29  1  0
 29 30  1  0
 30 31  1  0
 31 32  1  0
 23 33  1  0
 33 34  2  0
 19  4  1  0
 34 20  1  0
 17 12  1  0
 32 27  1  0
  3 35  1  0
  5 36  1  0
  6 37  1  0
 14 38  1  0
 15 39  1  0
 16 40  1  0
 18 41  1  0
 19 42  1  0
 21 43  1  0
 22 44  1  0
 28 45  1  0
 28 46  1  0
 29 47  1  0
 29 48  1  0
 30 49  1  0
 30 50  1  0
 31 51  1  0
 31 52  1  0
 32 53  1  0
 32 54  1  0
 33 55  1  0
 34 56  1  0
M  CHG  1  17  -1
M  END
>  <UniqueID>  (24) 
23

>  <SMILES>  (24) 
O=C(Nc1ccc(S(=O)(=O)N=c2nccc[n-]2)cc1)c1ccc(S(=O)(=O)N2CCCCC2)cc1

>  <Energy>  (24) 
73.78561550992376

>  <Genealogy>  (24) 
O=C(Nc1ccc(S(=O)(=O)N=c2nccc[n-]2)cc1)c1ccc(S(=O)(=O)N2CCCCC2)cc1 (protonated)
O=C(Nc1ccc(S(=O)(=O)N=c2nccc[n-]2)cc1)c1ccc(S(=O)(=O)N2CCCCC2)cc1 (3D coordinates assigned)
O=C(Nc1ccc(S(=O)(=O)N=c2nccc[n-]2)cc1)c1ccc(S(=O)(=O)N2CCCCC2)cc1 (nonaromatic ring conformer: 73.78561550992376 kcal/mol)

>  <smiles>  (24) 
O=C(Nc1ccc(S(=O)(=O)N=c2nccc[nH]2)cc1)c1ccc(S(=O)(=O)N2CCCCC2)cc1

>  <score_type>  (24) 
oracle

>  <origin>  (24) 
adgpu

>  <m_score__min__energy>  (24) 
-10.23

>  <m_primary>  (24) 
energy

$$$$
24:0
     RDKit          3D

 39 41  0  0  0  0  0  0  0  0999 V2000
   -5.7190   26.5460  -30.2910 O   0  0  0  0  0  0  0  0  0  0  0  0
   -5.2010   25.4160  -30.4960 C   0  0  0  0  0  0  0  0  0  0  0  0
   -3.7720   25.2910  -30.4480 N   0  0  0  0  0  0  0  0  0  0  0  0
   -3.0310   24.1910  -29.8380 C   0  0  0  0  0  0  0  0  0  0  0  0
   -3.2860   22.9070  -30.5650 C   0  0  0  0  0  0  0  0  0  0  0  0
   -3.4450   21.6660  -29.9840 C   0  0  0  0  0  0  0  0  0  0  0  0
   -3.6210   20.7880  -31.0320 C   0  0  0  0  0  0  0  0  0  0  0  0
   -3.5590   21.5470  -32.1840 C   0  0  0  0  0  0  0  0  0  0  0  0
   -3.3590   22.8070  -31.8720 O   0  0  0  0  0  0  0  0  0  0  0  0
   -6.0770   24.2780  -30.8300 C   0  0  0  0  0  0  0  0  0  0  0  0
   -6.1870   23.8190  -32.1500 C   0  0  0  0  0  0  0  0  0  0  0  0
   -7.0510   22.7640  -32.4580 C   0  0  0  0  0  0  0  0  0  0  0  0
   -7.8070   22.1530  -31.4500 C   0  0  0  0  0  0  0  0  0  0  0  0
   -8.9000   20.8360  -31.8590 S   0  0  0  0  0  0  0  0  0  0  0  0
   -9.0670   19.9250  -30.6730 O   0  0  0  0  0  0  0  0  0  0  0  0
  -10.2370   21.4080  -32.2410 O   0  0  0  0  0  0  0  0  0  0  0  0
   -8.2320   19.9460  -33.1880 N   0  0  0  0  0  0  0  0  0  0  0  0
   -7.1200   19.0460  -33.1030 C   0  0  0  0  0  0  0  0  0  0  0  0
   -7.0830   18.1210  -32.0500 C   0  0  0  0  0  0  0  0  0  0  0  0
   -6.0210   17.2180  -31.9390 C   0  0  0  0  0  0  0  0  0  0  0  0
   -4.9860   17.2360  -32.8760 C   0  0  0  0  0  0  0  0  0  0  0  0
   -5.0110   18.1560  -33.9270 C   0  0  0  0  0  0  0  0  0  0  0  0
   -6.0720   19.0610  -34.0430 C   0  0  0  0  0  0  0  0  0  0  0  0
   -7.6780   22.5920  -30.1250 C   0  0  0  0  0  0  0  0  0  0  0  0
   -6.8130   23.6450  -29.8160 C   0  0  0  0  0  0  0  0  0  0  0  0
   -1.9552   24.4177  -29.8740 H   0  0  0  0  0  0  0  0  0  0  0  0
   -3.3650   24.0773  -28.7961 H   0  0  0  0  0  0  0  0  0  0  0  0
   -3.4337   21.4273  -28.9103 H   0  0  0  0  0  0  0  0  0  0  0  0
   -3.7790   19.7015  -30.9643 H   0  0  0  0  0  0  0  0  0  0  0  0
   -3.6615   21.1559  -33.2070 H   0  0  0  0  0  0  0  0  0  0  0  0
   -5.5917   24.2904  -32.9459 H   0  0  0  0  0  0  0  0  0  0  0  0
   -7.1373   22.4123  -33.4967 H   0  0  0  0  0  0  0  0  0  0  0  0
   -7.8940   18.1055  -31.3070 H   0  0  0  0  0  0  0  0  0  0  0  0
   -6.0010   16.4925  -31.1124 H   0  0  0  0  0  0  0  0  0  0  0  0
   -4.1508   16.5257  -32.7866 H   0  0  0  0  0  0  0  0  0  0  0  0
   -4.1952   18.1690  -34.6647 H   0  0  0  0  0  0  0  0  0  0  0  0
   -6.0872   19.7857  -34.8704 H   0  0  0  0  0  0  0  0  0  0  0  0
   -8.2589   22.1066  -29.3269 H   0  0  0  0  0  0  0  0  0  0  0  0
   -6.7083   23.9795  -28.7733 H   0  0  0  0  0  0  0  0  0  0  0  0
  1  2  2  0
  2  3  1  0
  3  4  1  0
  4  5  1  0
  5  6  2  0
  6  7  1  0
  7  8  2  0
  8  9  1  0
  2 10  1  0
 10 11  2  0
 11 12  1  0
 12 13  2  0
 13 14  1  0
 14 15  2  0
 14 16  2  0
 14 17  1  0
 17 18  1  0
 18 19  2  0
 19 20  1  0
 20 21  2  0
 21 22  1  0
 22 23  2  0
 13 24  1  0
 24 25  2  0
  9  5  1  0
 25 10  1  0
 23 18  1  0
  4 26  1  0
  4 27  1  0
  6 28  1  0
  7 29  1  0
  8 30  1  0
 11 31  1  0
 12 32  1  0
 19 33  1  0
 20 34  1  0
 21 35  1  0
 22 36  1  0
 23 37  1  0
 24 38  1  0
 25 39  1  0
M  CHG  2   3  -1  17  -1
M  END
>  <UniqueID>  (25) 
24

>  <SMILES>  (25) 
O=C([N-]Cc1ccco1)c1ccc(S(=O)(=O)[N-]c2ccccc2)cc1

>  <Energy>  (25) 
73.48467799463758

>  <Genealogy>  (25) 
O=C([N-]Cc1ccco1)c1ccc(S(=O)(=O)[N-]c2ccccc2)cc1 (protonated)
O=C([N-]Cc1ccco1)c1ccc(S(=O)(=O)[N-]c2ccccc2)cc1 (3D coordinates assigned)
O=C([N-]Cc1ccco1)c1ccc(S(=O)(=O)[N-]c2ccccc2)cc1 (optimized conformer: 73.48467799463758 kcal/mol)

>  <smiles>  (25) 
O=C(NCc1ccco1)c1ccc(S(=O)(=O)Nc2ccccc2)cc1

>  <score_type>  (25) 
oracle

>  <origin>  (25) 
adgpu

>  <m_score__min__energy>  (25) 
-11.52

>  <m_primary>  (25) 
energy

$$$$
25:0
     RDKit          3D

 33 36  0  0  0  0  0  0  0  0999 V2000
   -3.9140   23.5820  -26.8940 S   0  0  0  0  0  0  0  0  0  0  0  0
   -3.5820   22.4050  -27.9840 C   0  0  0  0  0  0  0  0  0  0  0  0
   -3.2190   21.1590  -27.6300 N   0  0  0  0  0  0  0  0  0  0  0  0
   -3.1000   20.4610  -28.7510 N   0  0  0  0  0  0  0  0  0  0  0  0
   -3.3930   21.2920  -29.7710 C   0  0  0  0  0  0  0  0  0  0  0  0
   -3.3440   20.8710  -31.1870 C   0  0  0  0  0  0  0  0  0  0  0  0
   -2.5730   21.5940  -32.1080 C   0  0  0  0  0  0  0  0  0  0  0  0
   -2.4960   21.1750  -33.4370 C   0  0  0  0  0  0  0  0  0  0  0  0
   -3.2090   20.0450  -33.8400 C   0  0  0  0  0  0  0  0  0  0  0  0
   -3.9750   19.3690  -32.9440 N   0  0  0  0  0  0  0  0  0  0  0  0
   -4.0620   19.7540  -31.6420 C   0  0  0  0  0  0  0  0  0  0  0  0
   -3.7150   22.5280  -29.3210 N   0  0  0  0  0  0  0  0  0  0  0  0
   -4.1840   23.6720  -30.0550 C   0  0  0  0  0  0  0  0  0  0  0  0
   -3.5880   24.9100  -30.0940 C   0  0  0  0  0  0  0  0  0  0  0  0
   -4.2350   25.6720  -30.9980 N   0  0  0  0  0  0  0  0  0  0  0  0
   -5.2200   24.9610  -31.5310 N   0  0  0  0  0  0  0  0  0  0  0  0
   -5.2200   23.7340  -30.9720 C   0  0  0  0  0  0  0  0  0  0  0  0
   -6.1910   22.6780  -31.3180 C   0  0  0  0  0  0  0  0  0  0  0  0
   -6.0390   21.9540  -32.5110 C   0  0  0  0  0  0  0  0  0  0  0  0
   -6.9240   20.9170  -32.8240 C   0  0  0  0  0  0  0  0  0  0  0  0
   -7.9750   20.6060  -31.9570 C   0  0  0  0  0  0  0  0  0  0  0  0
   -9.0770   19.2980  -32.3460 Cl  0  0  0  0  0  0  0  0  0  0  0  0
   -8.1490   21.3410  -30.7800 C   0  0  0  0  0  0  0  0  0  0  0  0
   -7.2650   22.3760  -30.4630 C   0  0  0  0  0  0  0  0  0  0  0  0
   -2.0281   22.4925  -31.7828 H   0  0  0  0  0  0  0  0  0  0  0  0
   -1.8795   21.7298  -34.1596 H   0  0  0  0  0  0  0  0  0  0  0  0
   -3.1509   19.7014  -34.8833 H   0  0  0  0  0  0  0  0  0  0  0  0
   -4.6967   19.1884  -30.9440 H   0  0  0  0  0  0  0  0  0  0  0  0
   -2.7261   25.2263  -29.4880 H   0  0  0  0  0  0  0  0  0  0  0  0
   -5.2206   22.2032  -33.2025 H   0  0  0  0  0  0  0  0  0  0  0  0
   -6.7924   20.3452  -33.7544 H   0  0  0  0  0  0  0  0  0  0  0  0
   -8.9828   21.1041  -30.1028 H   0  0  0  0  0  0  0  0  0  0  0  0
   -7.4104   22.9569  -29.5403 H   0  0  0  0  0  0  0  0  0  0  0  0
  1  2  2  0
  2  3  1  0
  3  4  1  0
  4  5  2  0
  5  6  1  0
  6  7  2  0
  7  8  1  0
  8  9  2  0
  9 10  1  0
 10 11  2  0
  5 12  1  0
 12 13  1  0
 13 14  2  0
 14 15  1  0
 15 16  1  0
 16 17  2  0
 17 18  1  0
 18 19  2  0
 19 20  1  0
 20 21  2  0
 21 22  1  0
 21 23  1  0
 23 24  2  0
 12  2  1  0
 17 13  1  0
 24 18  1  0
 11  6  1  0
  7 25  1  0
  8 26  1  0
  9 27  1  0
 11 28  1  0
 14 29  1  0
 19 30  1  0
 20 31  1  0
 23 32  1  0
 24 33  1  0
M  CHG  2   3  -1  15  -1
M  END
>  <UniqueID>  (26) 
25

>  <SMILES>  (26) 
S=c1[n-]nc(-c2cccnc2)n1-c1c[n-]nc1-c1ccc(Cl)cc1

>  <Energy>  (26) 
115.26380553041285

>  <Genealogy>  (26) 
S=c1[n-]nc(-c2cccnc2)n1-c1c[n-]nc1-c1ccc(Cl)cc1 (protonated)
S=c1[n-]nc(-c2cccnc2)n1-c1c[n-]nc1-c1ccc(Cl)cc1 (3D coordinates assigned)
S=c1[n-]nc(-c2cccnc2)n1-c1c[n-]nc1-c1ccc(Cl)cc1 (optimized conformer: 115.26380553041285 kcal/mol)

>  <smiles>  (26) 
S=c1[nH]nc(-c2cccnc2)n1-c1c[nH]nc1-c1ccc(Cl)cc1

>  <score_type>  (26) 
oracle

>  <origin>  (26) 
adgpu

>  <m_score__min__energy>  (26) 
-8.8699999999999992

>  <m_primary>  (26) 
energy

$$$$
26:0
     RDKit          3D

 46 49  0  0  0  0  0  0  0  0999 V2000
    0.2240   23.0150  -27.6420 C   0  0  0  0  0  0  0  0  0  0  0  0
   -0.9180   23.7060  -28.3130 C   0  0  0  0  0  0  0  0  0  0  0  0
   -0.8570   24.9630  -28.7920 N   0  0  0  0  0  0  0  0  0  0  0  0
   -2.0100   25.2190  -29.3390 O   0  0  0  0  0  0  0  0  0  0  0  0
   -2.8290   24.1940  -29.2420 C   0  0  0  0  0  0  0  0  0  0  0  0
   -4.2080   24.1990  -29.7750 C   0  0  0  0  0  0  0  0  0  0  0  0
   -4.6820   25.3300  -30.4570 C   0  0  0  0  0  0  0  0  0  0  0  0
   -5.9820   25.3520  -30.9670 C   0  0  0  0  0  0  0  0  0  0  0  0
   -6.8210   24.2480  -30.7980 C   0  0  0  0  0  0  0  0  0  0  0  0
   -6.3690   23.1150  -30.1160 C   0  0  0  0  0  0  0  0  0  0  0  0
   -7.2470   22.0340  -29.9450 O   0  0  0  0  0  0  0  0  0  0  0  0
   -7.6950   21.1800  -30.9640 C   0  0  0  0  0  0  0  0  0  0  0  0
   -9.0560   21.1810  -31.2900 C   0  0  0  0  0  0  0  0  0  0  0  0
   -9.5390   20.3500  -32.3050 C   0  0  0  0  0  0  0  0  0  0  0  0
   -8.6640   19.5220  -33.0110 C   0  0  0  0  0  0  0  0  0  0  0  0
   -7.2950   19.5280  -32.7120 C   0  0  0  0  0  0  0  0  0  0  0  0
   -6.2080   18.4750  -33.6170 S   0  0  0  0  0  0  0  0  0  0  0  0
   -6.7650   17.0790  -33.5950 O   0  0  0  0  0  0  0  0  0  0  0  0
   -6.1110   18.9420  -35.0420 O   0  0  0  0  0  0  0  0  0  0  0  0
   -4.6180   18.4490  -32.9210 N   0  0  0  0  0  0  0  0  0  0  0  0
   -3.7980   19.6160  -32.7720 C   0  0  0  0  0  0  0  0  0  0  0  0
   -3.6870   20.3440  -31.5870 C   0  0  0  0  0  0  0  0  0  0  0  0
   -2.5990   21.5960  -31.8680 S   0  0  0  0  0  0  0  0  0  0  0  0
   -2.3210   21.1670  -33.4680 C   0  0  0  0  0  0  0  0  0  0  0  0
   -3.0410   20.0750  -33.8060 N   0  0  0  0  0  0  0  0  0  0  0  0
   -6.8130   20.3590  -31.6910 C   0  0  0  0  0  0  0  0  0  0  0  0
   -5.0690   23.1060  -29.5790 C   0  0  0  0  0  0  0  0  0  0  0  0
   -2.1580   23.1670  -28.5950 C   0  0  0  0  0  0  0  0  0  0  0  0
   -2.6320   21.7750  -28.2990 C   0  0  0  0  0  0  0  0  0  0  0  0
    0.1058   23.0865  -26.5507 H   0  0  0  0  0  0  0  0  0  0  0  0
    0.2386   21.9564  -27.9406 H   0  0  0  0  0  0  0  0  0  0  0  0
    1.1685   23.4933  -27.9406 H   0  0  0  0  0  0  0  0  0  0  0  0
   -4.0267   26.2033  -30.5906 H   0  0  0  0  0  0  0  0  0  0  0  0
   -6.3461   26.2409  -31.5031 H   0  0  0  0  0  0  0  0  0  0  0  0
   -7.8431   24.2705  -31.2040 H   0  0  0  0  0  0  0  0  0  0  0  0
   -9.7490   21.8388  -30.7449 H   0  0  0  0  0  0  0  0  0  0  0  0
  -10.6118   20.3484  -32.5483 H   0  0  0  0  0  0  0  0  0  0  0  0
   -9.0500   18.8638  -33.8033 H   0  0  0  0  0  0  0  0  0  0  0  0
   -4.2410   17.5300  -32.5990 H   0  0  0  0  0  0  0  0  0  0  0  0
   -4.2135   20.1375  -30.6435 H   0  0  0  0  0  0  0  0  0  0  0  0
   -1.6437   21.7031  -34.1491 H   0  0  0  0  0  0  0  0  0  0  0  0
   -5.7383   20.3694  -31.4566 H   0  0  0  0  0  0  0  0  0  0  0  0
   -4.7236   22.2362  -29.0009 H   0  0  0  0  0  0  0  0  0  0  0  0
   -2.6819   21.6285  -27.2099 H   0  0  0  0  0  0  0  0  0  0  0  0
   -3.6311   21.6274  -28.7350 H   0  0  0  0  0  0  0  0  0  0  0  0
   -1.9306   21.0484  -28.7350 H   0  0  0  0  0  0  0  0  0  0  0  0
  1  2  1  0
  2  3  2  0
  3  4  1  0
  4  5  1  0
  5  6  1  0
  6  7  2  0
  7  8  1  0
  8  9  2  0
  9 10  1  0
 10 11  1  0
 11 12  1  0
 12 13  2  0
 13 14  1  0
 14 15  2  0
 15 16  1  0
 16 17  1  0
 17 18  2  0
 17 19  2  0
 17 20  1  0
 20 21  1  0
 21 22  2  0
 22 23  1  0
 23 24  1  0
 24 25  2  0
 16 26  2  0
 10 27  2  0
  5 28  2  0
 28 29  1  0
 28  2  1  0
 27  6  1  0
 26 12  1  0
 25 21  1  0
  1 30  1  0
  1 31  1  0
  1 32  1  0
  7 33  1  0
  8 34  1  0
  9 35  1  0
 13 36  1  0
 14 37  1  0
 15 38  1  0
 20 39  1  0
 22 40  1  0
 24 41  1  0
 26 42  1  0
 27 43  1  0
 29 44  1  0
 29 45  1  0
 29 46  1  0
M  END
>  <UniqueID>  (27) 
26

>  <SMILES>  (27) 
Cc1noc(-c2cccc(Oc3cccc(S(=O)(=O)Nc4cscn4)c3)c2)c1C

>  <Energy>  (27) 
117.54496412391045

>  <Genealogy>  (27) 
Cc1noc(-c2cccc(Oc3cccc(S(=O)(=O)Nc4cscn4)c3)c2)c1C (3D coordinates assigned)
Cc1noc(-c2cccc(Oc3cccc(S(=O)(=O)Nc4cscn4)c3)c2)c1C (optimized conformer: 117.54496412391045 kcal/mol)

>  <smiles>  (27) 
Cc1noc(-c2cccc(Oc3cccc(S(=O)(=O)Nc4cscn4)c3)c2)c1C

>  <score_type>  (27) 
oracle

>  <origin>  (27) 
adgpu

>  <m_score__min__energy>  (27) 
-10.220000000000001

>  <m_primary>  (27) 
energy

$$$$
27:0
     RDKit          3D

 65 68  0  0  0  0  0  0  0  0999 V2000
   -5.2210   25.7210  -30.7490 C   0  0  0  0  0  0  0  0  0  0  0  0
   -3.9150   25.1290  -30.4850 N   0  0  0  0  0  0  0  0  0  0  0  0
   -3.6510   24.1330  -29.4890 C   0  0  0  0  0  0  0  0  0  0  0  0
   -4.4200   24.0520  -28.4950 O   0  0  0  0  0  0  0  0  0  0  0  0
   -2.4860   23.2320  -29.5600 C   0  0  0  0  0  0  0  0  0  0  0  0
   -2.1090   22.6200  -30.7650 C   0  0  0  0  0  0  0  0  0  0  0  0
   -1.0170   21.7470  -30.7890 C   0  0  0  0  0  0  0  0  0  0  0  0
   -0.6390   21.1700  -32.0100 O   0  0  0  0  0  0  0  0  0  0  0  0
   -1.0130   19.8910  -32.4540 C   0  0  0  0  0  0  0  0  0  0  0  0
   -0.0280   19.0380  -32.9570 C   0  0  0  0  0  0  0  0  0  0  0  0
   -0.3540   17.7440  -33.3790 C   0  0  0  0  0  0  0  0  0  0  0  0
   -1.6920   17.3050  -33.3530 C   0  0  0  0  0  0  0  0  0  0  0  0
   -2.0750   15.9620  -33.6850 N   0  0  0  0  0  0  0  0  0  0  0  0
   -2.7320   15.4800  -34.8620 C   0  0  0  0  0  0  0  0  0  0  0  0
   -2.3620   14.3800  -35.3530 O   0  0  0  0  0  0  0  0  0  0  0  0
   -3.8660   16.1620  -35.4110 N   0  0  0  0  0  0  0  0  0  0  0  0
   -4.8590   16.8620  -34.6470 C   0  0  0  0  0  0  0  0  0  0  0  0
   -5.4420   16.2940  -33.5010 C   0  0  0  0  0  0  0  0  0  0  0  0
   -6.4190   16.9930  -32.7890 C   0  0  0  0  0  0  0  0  0  0  0  0
   -6.8400   18.2590  -33.2180 C   0  0  0  0  0  0  0  0  0  0  0  0
   -8.0510   19.1510  -32.2960 S   0  0  0  0  0  0  0  0  0  0  0  0
   -8.3240   18.4340  -31.0020 O   0  0  0  0  0  0  0  0  0  0  0  0
   -9.3340   19.1990  -33.0780 O   0  0  0  0  0  0  0  0  0  0  0  0
   -7.5130   20.7790  -31.9540 N   0  0  0  0  0  0  0  0  0  0  0  0
   -6.0620   20.9040  -32.1920 C   0  0  0  0  0  0  0  0  0  0  0  0
   -5.5570   22.3330  -31.8850 C   0  0  0  0  0  0  0  0  0  0  0  0
   -6.5280   23.4470  -32.3210 C   0  0  0  0  0  0  0  0  0  0  0  0
   -7.7590   23.5320  -31.4960 N   0  0  0  0  0  0  0  0  0  0  0  0
   -8.9640   23.3860  -32.3270 C   0  0  0  0  0  0  0  0  0  0  0  0
   -7.8120   22.6690  -30.2920 C   0  0  0  0  0  0  0  0  0  0  0  0
   -7.9010   21.1530  -30.5790 C   0  0  0  0  0  0  0  0  0  0  0  0
   -6.2830   18.8130  -34.3790 C   0  0  0  0  0  0  0  0  0  0  0  0
   -5.3020   18.1140  -35.0920 C   0  0  0  0  0  0  0  0  0  0  0  0
   -2.6810   18.1770  -32.8850 C   0  0  0  0  0  0  0  0  0  0  0  0
   -2.3500   19.4610  -32.4440 C   0  0  0  0  0  0  0  0  0  0  0  0
   -0.3040   21.5110  -29.6020 C   0  0  0  0  0  0  0  0  0  0  0  0
   -0.7290   22.1110  -28.4160 C   0  0  0  0  0  0  0  0  0  0  0  0
   -1.8080   22.9390  -28.4180 N   0  0  0  0  0  0  0  0  0  0  0  0
   -5.7205   25.9474  -29.7954 H   0  0  0  0  0  0  0  0  0  0  0  0
   -5.0931   26.6491  -31.3254 H   0  0  0  0  0  0  0  0  0  0  0  0
   -5.8347   25.0131  -31.3254 H   0  0  0  0  0  0  0  0  0  0  0  0
   -2.6708   22.8263  -31.6880 H   0  0  0  0  0  0  0  0  0  0  0  0
    1.0133   19.3864  -33.0221 H   0  0  0  0  0  0  0  0  0  0  0  0
    0.4379   17.0672  -33.7324 H   0  0  0  0  0  0  0  0  0  0  0  0
   -5.1275   15.2953  -33.1638 H   0  0  0  0  0  0  0  0  0  0  0  0
   -6.8609   16.5471  -31.8857 H   0  0  0  0  0  0  0  0  0  0  0  0
   -5.5311   20.1907  -31.5444 H   0  0  0  0  0  0  0  0  0  0  0  0
   -5.8673   20.6903  -33.2533 H   0  0  0  0  0  0  0  0  0  0  0  0
   -5.3975   22.4180  -30.7999 H   0  0  0  0  0  0  0  0  0  0  0  0
   -4.6307   22.4742  -32.4611 H   0  0  0  0  0  0  0  0  0  0  0  0
   -6.0009   24.4103  -32.2560 H   0  0  0  0  0  0  0  0  0  0  0  0
   -6.8477   23.2073  -33.3459 H   0  0  0  0  0  0  0  0  0  0  0  0
   -9.8460   23.2791  -31.6784 H   0  0  0  0  0  0  0  0  0  0  0  0
   -9.0816   24.2765  -32.9620 H   0  0  0  0  0  0  0  0  0  0  0  0
   -8.8655   22.4932  -32.9620 H   0  0  0  0  0  0  0  0  0  0  0  0
   -6.9025   22.8517  -29.7008 H   0  0  0  0  0  0  0  0  0  0  0  0
   -8.7381   22.9367  -29.7622 H   0  0  0  0  0  0  0  0  0  0  0  0
   -7.2362   20.6283  -29.8770 H   0  0  0  0  0  0  0  0  0  0  0  0
   -8.9561   20.8670  -30.4567 H   0  0  0  0  0  0  0  0  0  0  0  0
   -6.6178   19.8000  -34.7308 H   0  0  0  0  0  0  0  0  0  0  0  0
   -4.8763   18.5507  -36.0075 H   0  0  0  0  0  0  0  0  0  0  0  0
   -3.7305   17.8483  -32.8640 H   0  0  0  0  0  0  0  0  0  0  0  0
   -3.1402   20.1381  -32.0874 H   0  0  0  0  0  0  0  0  0  0  0  0
    0.5818   20.8588  -29.6073 H   0  0  0  0  0  0  0  0  0  0  0  0
   -0.1902   21.9139  -27.4775 H   0  0  0  0  0  0  0  0  0  0  0  0
  1  2  1  0
  2  3  1  0
  3  4  2  0
  3  5  1  0
  5  6  2  0
  6  7  1  0
  7  8  1  0
  8  9  1  0
  9 10  2  0
 10 11  1  0
 11 12  2  0
 12 13  1  0
 13 14  1  0
 14 15  2  0
 14 16  1  0
 16 17  1  0
 17 18  2  0
 18 19  1  0
 19 20  2  0
 20 21  1  0
 21 22  2  0
 21 23  2  0
 21 24  1  0
 24 25  1  0
 25 26  1  0
 26 27  1  0
 27 28  1  0
 28 29  1  0
 28 30  1  0
 30 31  1  0
 20 32  1  0
 32 33  2  0
 12 34  1  0
 34 35  2  0
  7 36  2  0
 36 37  1  0
 37 38  2  0
 38  5  1  0
 35  9  1  0
 33 17  1  0
 31 24  1  0
  1 39  1  0
  1 40  1  0
  1 41  1  0
  6 42  1  0
 10 43  1  0
 11 44  1  0
 18 45  1  0
 19 46  1  0
 25 47  1  0
 25 48  1  0
 26 49  1  0
 26 50  1  0
 27 51  1  0
 27 52  1  0
 29 53  1  0
 29 54  1  0
 29 55  1  0
 30 56  1  0
 30 57  1  0
 31 58  1  0
 31 59  1  0
 32 60  1  0
 33 61  1  0
 34 62  1  0
 35 63  1  0
 36 64  1  0
 37 65  1  0
M  CHG  3   2  -1  13  -1  16  -1
M  END
>  <UniqueID>  (28) 
27

>  <SMILES>  (28) 
C[N-]C(=O)c1cc(Oc2ccc([N-]C(=O)[N-]c3ccc(S(=O)(=O)N4CCCN(C)CC4)cc3)cc2)ccn1

>  <Energy>  (28) 
100.27352678346364

>  <Genealogy>  (28) 
C[N-]C(=O)c1cc(Oc2ccc([N-]C(=O)[N-]c3ccc(S(=O)(=O)N4CCCN(C)CC4)cc3)cc2)ccn1 (protonated)
C[N-]C(=O)c1cc(Oc2ccc([N-]C(=O)[N-]c3ccc(S(=O)(=O)N4CCCN(C)CC4)cc3)cc2)ccn1 (3D coordinates assigned)
C[N-]C(=O)c1cc(Oc2ccc([N-]C(=O)[N-]c3ccc(S(=O)(=O)N4CCCN(C)CC4)cc3)cc2)ccn1 (nonaromatic ring conformer: 100.27352678346364 kcal/mol)

>  <smiles>  (28) 
CNC(=O)c1cc(Oc2ccc(NC(=O)Nc3ccc(S(=O)(=O)N4CCCN(C)CC4)cc3)cc2)ccn1

>  <score_type>  (28) 
oracle

>  <origin>  (28) 
adgpu

>  <m_score__min__energy>  (28) 
-9.1500000000000004

>  <m_primary>  (28) 
energy

$$$$
28:0
     RDKit          3D

 27 29  0  0  0  0  0  0  0  0999 V2000
   -6.4710   23.3390  -31.4880 C   0  0  0  0  0  0  0  0  0  0  0  0
   -5.4820   23.7590  -30.6870 C   0  0  0  0  0  0  0  0  0  0  0  0
   -5.0290   25.1940  -30.7340 C   0  0  0  0  0  0  0  0  0  0  0  0
   -3.6480   25.3000  -30.4070 O   0  0  0  0  0  0  0  0  0  0  0  0
   -3.0500   24.5190  -29.4140 C   0  0  0  0  0  0  0  0  0  0  0  0
   -3.6630   23.3320  -28.9770 C   0  0  0  0  0  0  0  0  0  0  0  0
   -3.0530   22.5670  -27.9650 C   0  0  0  0  0  0  0  0  0  0  0  0
   -3.6620   21.3900  -27.5330 O   0  0  0  0  0  0  0  0  0  0  0  0
   -1.8340   22.9820  -27.3970 C   0  0  0  0  0  0  0  0  0  0  0  0
   -1.2150   22.2290  -26.3830 C   0  0  0  0  0  0  0  0  0  0  0  0
   -0.0010   22.6460  -25.8320 C   0  0  0  0  0  0  0  0  0  0  0  0
    0.6090   23.8170  -26.2860 C   0  0  0  0  0  0  0  0  0  0  0  0
    0.0100   24.5770  -27.2920 C   0  0  0  0  0  0  0  0  0  0  0  0
   -1.2130   24.1720  -27.8570 C   0  0  0  0  0  0  0  0  0  0  0  0
   -1.8280   24.9300  -28.8690 C   0  0  0  0  0  0  0  0  0  0  0  0
   -1.2380   26.1020  -29.3360 O   0  0  0  0  0  0  0  0  0  0  0  0
   -4.9350   22.8320  -29.6260 C   0  0  0  0  0  0  0  0  0  0  0  0
   -6.8002   22.2900  -31.4518 H   0  0  0  0  0  0  0  0  0  0  0  0
   -6.9536   24.0432  -32.1817 H   0  0  0  0  0  0  0  0  0  0  0  0
   -5.1909   25.5901  -31.7474 H   0  0  0  0  0  0  0  0  0  0  0  0
   -5.6101   25.7709  -29.9995 H   0  0  0  0  0  0  0  0  0  0  0  0
   -1.6902   21.3052  -26.0213 H   0  0  0  0  0  0  0  0  0  0  0  0
    0.4753   22.0507  -25.0390 H   0  0  0  0  0  0  0  0  0  0  0  0
    1.5650   24.1418  -25.8494 H   0  0  0  0  0  0  0  0  0  0  0  0
    0.4971   25.4979  -27.6450 H   0  0  0  0  0  0  0  0  0  0  0  0
   -4.7274   21.8568  -30.0907 H   0  0  0  0  0  0  0  0  0  0  0  0
   -5.6954   22.7668  -28.8338 H   0  0  0  0  0  0  0  0  0  0  0  0
  1  2  2  0
  2  3  1  0
  3  4  1  0
  4  5  1  0
  5  6  2  0
  6  7  1  0
  7  8  1  0
  7  9  2  0
  9 10  1  0
 10 11  2  0
 11 12  1  0
 12 13  2  0
 13 14  1  0
 14 15  2  0
 15 16  1  0
  6 17  1  0
 17  2  1  0
 15  5  1  0
 14  9  1  0
  1 18  1  0
  1 19  1  0
  3 20  1  0
  3 21  1  0
 10 22  1  0
 11 23  1  0
 12 24  1  0
 13 25  1  0
 17 26  1  0
 17 27  1  0
M  CHG  2   8  -1  16  -1
M  END
>  <UniqueID>  (29) 
28

>  <SMILES>  (29) 
C=C1COc2c(c([O-])c3ccccc3c2[O-])C1

>  <Energy>  (29) 
36.505072339739556

>  <Genealogy>  (29) 
C=C1COc2c(c([O-])c3ccccc3c2[O-])C1 (protonated)
C=C1COc2c(c([O-])c3ccccc3c2[O-])C1 (3D coordinates assigned)
C=C1COc2c(c([O-])c3ccccc3c2[O-])C1 (nonaromatic ring conformer: 36.505072339739556 kcal/mol)

>  <smiles>  (29) 
C=C1COc2c(c(O)c3ccccc3c2O)C1

>  <score_type>  (29) 
oracle

>  <origin>  (29) 
adgpu

>  <m_score__min__energy>  (29) 
-10.19

>  <m_primary>  (29) 
energy

$$$$
29:0
     RDKit          3D

 37 39  0  0  0  0  0  0  0  0999 V2000
   -1.5970   25.7600  -28.9690 N   0  0  0  0  0  0  0  0  0  0  0  0
   -2.5990   24.4850  -28.3730 S   0  0  0  0  0  0  0  0  0  0  0  0
   -3.3370   24.9550  -27.1510 O   0  0  0  0  0  0  0  0  0  0  0  0
   -1.7450   23.3070  -27.9970 O   0  0  0  0  0  0  0  0  0  0  0  0
   -3.7480   24.0140  -29.6210 C   0  0  0  0  0  0  0  0  0  0  0  0
   -4.6860   24.9380  -30.0990 C   0  0  0  0  0  0  0  0  0  0  0  0
   -5.5800   24.5700  -31.1090 C   0  0  0  0  0  0  0  0  0  0  0  0
   -5.5480   23.2780  -31.6400 C   0  0  0  0  0  0  0  0  0  0  0  0
   -4.6250   22.3350  -31.1500 C   0  0  0  0  0  0  0  0  0  0  0  0
   -4.5300   21.0070  -31.6960 N   0  0  0  0  0  0  0  0  0  0  0  0
   -5.5060   20.2750  -32.1460 C   0  0  0  0  0  0  0  0  0  0  0  0
   -5.2280   19.0560  -32.6770 N   0  0  0  0  0  0  0  0  0  0  0  0
   -6.2130   18.2410  -33.1450 C   0  0  0  0  0  0  0  0  0  0  0  0
   -5.8670   16.9130  -33.7010 C   0  0  0  0  0  0  0  0  0  0  0  0
   -6.8640   15.9230  -33.7710 C   0  0  0  0  0  0  0  0  0  0  0  0
   -6.5620   14.6400  -34.2300 C   0  0  0  0  0  0  0  0  0  0  0  0
   -5.2620   14.3260  -34.6220 C   0  0  0  0  0  0  0  0  0  0  0  0
   -4.2610   15.2970  -34.5680 C   0  0  0  0  0  0  0  0  0  0  0  0
   -4.5500   16.5960  -34.1200 C   0  0  0  0  0  0  0  0  0  0  0  0
   -3.5090   17.5830  -34.1460 N   0  0  0  0  0  0  0  0  0  0  0  0
   -7.5460   18.6590  -33.0570 C   0  0  0  0  0  0  0  0  0  0  0  0
   -7.8180   19.9070  -32.5010 C   0  0  0  0  0  0  0  0  0  0  0  0
   -6.8010   20.6860  -32.0540 N   0  0  0  0  0  0  0  0  0  0  0  0
   -3.7110   22.7210  -30.1600 C   0  0  0  0  0  0  0  0  0  0  0  0
   -1.5830   25.6770  -30.0090 H   0  0  0  0  0  0  0  0  0  0  0  0
   -4.7193   25.9542  -29.6793 H   0  0  0  0  0  0  0  0  0  0  0  0
   -6.3110   25.3000  -31.4868 H   0  0  0  0  0  0  0  0  0  0  0  0
   -6.2457   22.9972  -32.4427 H   0  0  0  0  0  0  0  0  0  0  0  0
   -7.8919   16.1625  -33.4609 H   0  0  0  0  0  0  0  0  0  0  0  0
   -7.3512   13.8755  -34.2824 H   0  0  0  0  0  0  0  0  0  0  0  0
   -5.0246   13.3114  -34.9745 H   0  0  0  0  0  0  0  0  0  0  0  0
   -3.2370   15.0426  -34.8790 H   0  0  0  0  0  0  0  0  0  0  0  0
   -3.5490   18.4470  -33.5630 H   0  0  0  0  0  0  0  0  0  0  0  0
   -2.7210   17.5030  -34.8280 H   0  0  0  0  0  0  0  0  0  0  0  0
   -8.3614   18.0157  -33.4192 H   0  0  0  0  0  0  0  0  0  0  0  0
   -8.8568   20.2607  -32.4244 H   0  0  0  0  0  0  0  0  0  0  0  0
   -2.9582   22.0028  -29.8031 H   0  0  0  0  0  0  0  0  0  0  0  0
  1  2  1  0
  2  3  2  0
  2  4  2  0
  2  5  1  0
  5  6  2  0
  6  7  1  0
  7  8  2  0
  8  9  1  0
  9 10  1  0
 10 11  2  3
 11 12  1  0
 12 13  2  0
 13 14  1  0
 14 15  2  0
 15 16  1  0
 16 17  2  0
 17 18  1  0
 18 19  2  0
 19 20  1  0
 13 21  1  0
 21 22  2  0
 22 23  1  0
  9 24  2  0
 24  5  1  0
 23 11  1  0
 19 14  1  0
  1 25  1  0
  6 26  1  0
  7 27  1  0
  8 28  1  0
 15 29  1  0
 16 30  1  0
 17 31  1  0
 18 32  1  0
 20 33  1  0
 20 34  1  0
 21 35  1  0
 22 36  1  0
 24 37  1  0
M  CHG  2   1  -1  23  -1
M  END
>  <UniqueID>  (30) 
29

>  <SMILES>  (30) 
[NH-]S(=O)(=O)c1cccc(N=c2nc(-c3ccccc3N)cc[n-]2)c1

>  <Energy>  (30) 
53.57213202710253

>  <Genealogy>  (30) 
[NH-]S(=O)(=O)c1cccc(N=c2nc(-c3ccccc3N)cc[n-]2)c1 (protonated)
[NH-]S(=O)(=O)c1cccc(N=c2nc(-c3ccccc3N)cc[n-]2)c1 (3D coordinates assigned)
[NH-]S(=O)(=O)c1cccc(N=c2nc(-c3ccccc3N)cc[n-]2)c1 (optimized conformer: 53.57213202710253 kcal/mol)

>  <smiles>  (30) 
Nc1ccccc1-c1cc[nH]c(=Nc2cccc(S(N)(=O)=O)c2)n1

>  <score_type>  (30) 
oracle

>  <origin>  (30) 
adgpu

>  <m_score__min__energy>  (30) 
-9.7100000000000009

>  <m_primary>  (30) 
energy

$$$$
30:0
     RDKit          3D

 38 42  0  0  0  0  0  0  0  0999 V2000
   -6.9920   24.2210  -30.1730 O   0  0  0  0  0  0  0  0  0  0  0  0
   -6.7310   23.0770  -30.6290 C   0  0  0  0  0  0  0  0  0  0  0  0
   -7.6490   22.1460  -31.3130 C   0  0  0  0  0  0  0  0  0  0  0  0
   -9.0000   22.2840  -31.6220 C   0  0  0  0  0  0  0  0  0  0  0  0
   -9.6390   21.2230  -32.2900 C   0  0  0  0  0  0  0  0  0  0  0  0
   -8.9250   20.0540  -32.6350 C   0  0  0  0  0  0  0  0  0  0  0  0
   -7.5610   19.9290  -32.3170 C   0  0  0  0  0  0  0  0  0  0  0  0
   -6.9490   20.9890  -31.6560 C   0  0  0  0  0  0  0  0  0  0  0  0
   -5.5850   21.1770  -31.1940 C   0  0  0  0  0  0  0  0  0  0  0  0
   -4.4640   20.4870  -31.2090 O   0  0  0  0  0  0  0  0  0  0  0  0
   -3.5800   21.2700  -30.6040 C   0  0  0  0  0  0  0  0  0  0  0  0
   -2.2360   21.0020  -30.3670 C   0  0  0  0  0  0  0  0  0  0  0  0
   -1.4740   21.9860  -29.7080 C   0  0  0  0  0  0  0  0  0  0  0  0
   -2.0640   23.2080  -29.2940 C   0  0  0  0  0  0  0  0  0  0  0  0
   -1.0860   24.4330  -28.4970 S   0  0  0  0  0  0  0  0  0  0  0  0
    0.2520   24.5380  -29.1740 O   0  0  0  0  0  0  0  0  0  0  0  0
   -1.7620   25.7720  -28.5890 O   0  0  0  0  0  0  0  0  0  0  0  0
   -0.8710   23.9840  -26.8090 C   0  0  0  0  0  0  0  0  0  0  0  0
   -0.6490   22.6440  -26.4580 C   0  0  0  0  0  0  0  0  0  0  0  0
   -0.4580   22.2920  -25.1180 C   0  0  0  0  0  0  0  0  0  0  0  0
   -0.4820   23.2760  -24.1260 C   0  0  0  0  0  0  0  0  0  0  0  0
   -0.6930   24.6140  -24.4720 C   0  0  0  0  0  0  0  0  0  0  0  0
   -0.8840   24.9680  -25.8120 C   0  0  0  0  0  0  0  0  0  0  0  0
   -3.4270   23.4600  -29.5510 C   0  0  0  0  0  0  0  0  0  0  0  0
   -4.1510   22.4690  -30.2030 C   0  0  0  0  0  0  0  0  0  0  0  0
   -5.4550   22.3820  -30.6010 C   0  0  0  0  0  0  0  0  0  0  0  0
   -9.5518   23.1964  -31.3516 H   0  0  0  0  0  0  0  0  0  0  0  0
  -10.7056   21.3048  -32.5462 H   0  0  0  0  0  0  0  0  0  0  0  0
   -9.4405   19.2344  -33.1569 H   0  0  0  0  0  0  0  0  0  0  0  0
   -6.9965   19.0229  -32.5822 H   0  0  0  0  0  0  0  0  0  0  0  0
   -1.7825   20.0514  -30.6843 H   0  0  0  0  0  0  0  0  0  0  0  0
   -0.4070   21.8047  -29.5116 H   0  0  0  0  0  0  0  0  0  0  0  0
   -0.6251   21.8688  -27.2381 H   0  0  0  0  0  0  0  0  0  0  0  0
   -0.2888   21.2400  -24.8448 H   0  0  0  0  0  0  0  0  0  0  0  0
   -0.3348   22.9976  -23.0721 H   0  0  0  0  0  0  0  0  0  0  0  0
   -0.7088   25.3883  -23.6908 H   0  0  0  0  0  0  0  0  0  0  0  0
   -1.0448   26.0218  -26.0834 H   0  0  0  0  0  0  0  0  0  0  0  0
   -3.8997   24.4055  -29.2469 H   0  0  0  0  0  0  0  0  0  0  0  0
  1  2  2  0
  2  3  1  0
  3  4  2  0
  4  5  1  0
  5  6  2  0
  6  7  1  0
  7  8  2  0
  8  9  1  0
  9 10  1  0
 10 11  1  0
 11 12  2  0
 12 13  1  0
 13 14  2  0
 14 15  1  0
 15 16  2  0
 15 17  2  0
 15 18  1  0
 18 19  2  0
 19 20  1  0
 20 21  2  0
 21 22  1  0
 22 23  2  0
 14 24  1  0
 24 25  2  0
 25 26  1  0
 26  2  1  0
  8  3  1  0
 26  9  2  0
 25 11  1  0
 23 18  1  0
  4 27  1  0
  5 28  1  0
  6 29  1  0
  7 30  1  0
 12 31  1  0
 13 32  1  0
 19 33  1  0
 20 34  1  0
 21 35  1  0
 22 36  1  0
 23 37  1  0
 24 38  1  0
M  END
>  <UniqueID>  (31) 
30

>  <SMILES>  (31) 
O=C1c2ccccc2-c2oc3ccc(S(=O)(=O)c4ccccc4)cc3c21

>  <Energy>  (31) 
135.8132346161595

>  <Genealogy>  (31) 
O=C1c2ccccc2-c2oc3ccc(S(=O)(=O)c4ccccc4)cc3c21 (3D coordinates assigned)
O=C1c2ccccc2-c2oc3ccc(S(=O)(=O)c4ccccc4)cc3c21 (nonaromatic ring conformer: 135.8132346161595 kcal/mol)

>  <smiles>  (31) 
O=C1c2ccccc2-c2oc3ccc(S(=O)(=O)c4ccccc4)cc3c21

>  <score_type>  (31) 
oracle

>  <origin>  (31) 
adgpu

>  <m_score__min__energy>  (31) 
-10.279999999999999

>  <m_primary>  (31) 
energy

$$$$
31:0
     RDKit          3D

 39 40  0  0  0  0  0  0  0  0999 V2000
   -1.5220   26.3530  -26.4880 C   0  0  0  0  0  0  0  0  0  0  0  0
   -0.8530   26.6320  -27.8290 C   0  0  0  0  0  0  0  0  0  0  0  0
   -1.5820   26.0210  -28.8930 O   0  0  0  0  0  0  0  0  0  0  0  0
   -1.9530   24.6680  -28.9710 C   0  0  0  0  0  0  0  0  0  0  0  0
   -1.2550   23.6640  -28.2660 C   0  0  0  0  0  0  0  0  0  0  0  0
   -1.6900   22.3370  -28.3050 C   0  0  0  0  0  0  0  0  0  0  0  0
   -2.8260   21.9940  -29.0350 C   0  0  0  0  0  0  0  0  0  0  0  0
   -3.5250   22.9750  -29.7400 C   0  0  0  0  0  0  0  0  0  0  0  0
   -3.0830   24.3040  -29.7400 C   0  0  0  0  0  0  0  0  0  0  0  0
   -3.8620   25.2710  -30.4600 N   0  0  0  0  0  0  0  0  0  0  0  0
   -5.2910   25.3250  -30.5360 C   0  0  0  0  0  0  0  0  0  0  0  0
   -5.9460   26.0490  -29.7370 O   0  0  0  0  0  0  0  0  0  0  0  0
   -6.0270   24.5670  -31.6010 C   0  0  0  0  0  0  0  0  0  0  0  0
   -5.9720   23.1230  -31.3590 N   0  0  0  0  0  0  0  0  0  0  0  0
   -7.5660   22.4470  -31.1880 S   0  0  0  0  0  0  0  0  0  0  0  0
   -8.5340   23.2710  -31.9880 O   0  0  0  0  0  0  0  0  0  0  0  0
   -7.9850   22.4940  -29.7450 O   0  0  0  0  0  0  0  0  0  0  0  0
   -7.6130   20.7860  -31.7760 C   0  0  0  0  0  0  0  0  0  0  0  0
   -6.5580   20.2710  -32.5440 C   0  0  0  0  0  0  0  0  0  0  0  0
   -6.6020   18.9480  -32.9990 C   0  0  0  0  0  0  0  0  0  0  0  0
   -7.7030   18.1410  -32.7030 C   0  0  0  0  0  0  0  0  0  0  0  0
   -8.7610   18.6520  -31.9450 C   0  0  0  0  0  0  0  0  0  0  0  0
   -8.7140   19.9690  -31.4770 C   0  0  0  0  0  0  0  0  0  0  0  0
   -0.8409   26.6371  -25.6723 H   0  0  0  0  0  0  0  0  0  0  0  0
   -2.4496   26.9393  -26.4120 H   0  0  0  0  0  0  0  0  0  0  0  0
   -1.7582   25.2814  -26.4120 H   0  0  0  0  0  0  0  0  0  0  0  0
   -0.8153   27.7188  -27.9946 H   0  0  0  0  0  0  0  0  0  0  0  0
    0.1640   26.2133  -27.8109 H   0  0  0  0  0  0  0  0  0  0  0  0
   -0.3616   23.9285  -27.6813 H   0  0  0  0  0  0  0  0  0  0  0  0
   -1.1343   21.5611  -27.7580 H   0  0  0  0  0  0  0  0  0  0  0  0
   -3.1720   20.9500  -29.0557 H   0  0  0  0  0  0  0  0  0  0  0  0
   -4.4312   22.7019  -30.3006 H   0  0  0  0  0  0  0  0  0  0  0  0
   -7.0786   24.8895  -31.6089 H   0  0  0  0  0  0  0  0  0  0  0  0
   -5.5494   24.7758  -32.5697 H   0  0  0  0  0  0  0  0  0  0  0  0
   -5.6951   20.9077  -32.7889 H   0  0  0  0  0  0  0  0  0  0  0  0
   -5.7679   18.5430  -33.5908 H   0  0  0  0  0  0  0  0  0  0  0  0
   -7.7377   17.1033  -33.0663 H   0  0  0  0  0  0  0  0  0  0  0  0
   -9.6304   18.0180  -31.7168 H   0  0  0  0  0  0  0  0  0  0  0  0
   -9.5429   20.3658  -30.8725 H   0  0  0  0  0  0  0  0  0  0  0  0
  1  2  1  0
  2  3  1  0
  3  4  1  0
  4  5  2  0
  5  6  1  0
  6  7  2  0
  7  8  1  0
  8  9  2  0
  9 10  1  0
 10 11  1  0
 11 12  2  0
 11 13  1  0
 13 14  1  0
 14 15  1  0
 15 16  2  0
 15 17  2  0
 15 18  1  0
 18 19  2  0
 19 20  1  0
 20 21  2  0
 21 22  1  0
 22 23  2  0
  9  4  1  0
 23 18  1  0
  1 24  1  0
  1 25  1  0
  1 26  1  0
  2 27  1  0
  2 28  1  0
  5 29  1  0
  6 30  1  0
  7 31  1  0
  8 32  1  0
 13 33  1  0
 13 34  1  0
 19 35  1  0
 20 36  1  0
 21 37  1  0
 22 38  1  0
 23 39  1  0
M  CHG  2  10  -1  14  -1
M  END
>  <UniqueID>  (32) 
31

>  <SMILES>  (32) 
CCOc1ccccc1[N-]C(=O)C[N-]S(=O)(=O)c1ccccc1

>  <Energy>  (32) 
37.47849390332305

>  <Genealogy>  (32) 
CCOc1ccccc1[N-]C(=O)C[N-]S(=O)(=O)c1ccccc1 (protonated)
CCOc1ccccc1[N-]C(=O)C[N-]S(=O)(=O)c1ccccc1 (3D coordinates assigned)
CCOc1ccccc1[N-]C(=O)C[N-]S(=O)(=O)c1ccccc1 (optimized conformer: 37.47849390332305 kcal/mol)

>  <smiles>  (32) 
CCOc1ccccc1NC(=O)CNS(=O)(=O)c1ccccc1

>  <score_type>  (32) 
oracle

>  <origin>  (32) 
adgpu

>  <m_score__min__energy>  (32) 
-10.630000000000001

>  <m_primary>  (32) 
energy

$$$$
32:0
     RDKit          3D

 55 59  0  0  0  0  0  0  0  0999 V2000
    0.2620   21.5610  -33.7770 O   0  0  0  0  0  0  0  0  0  0  0  0
    0.0100   20.0790  -33.8180 S   0  0  0  0  0  0  0  0  0  0  0  0
    0.3730   19.5710  -35.1870 O   0  0  0  0  0  0  0  0  0  0  0  0
   -1.7000   19.7920  -33.5040 C   0  0  0  0  0  0  0  0  0  0  0  0
   -2.4720   19.1050  -34.4490 C   0  0  0  0  0  0  0  0  0  0  0  0
   -3.8300   18.8760  -34.2140 C   0  0  0  0  0  0  0  0  0  0  0  0
   -4.4220   19.3280  -33.0310 C   0  0  0  0  0  0  0  0  0  0  0  0
   -3.6650   20.0500  -32.0890 C   0  0  0  0  0  0  0  0  0  0  0  0
   -2.3010   20.2780  -32.3330 C   0  0  0  0  0  0  0  0  0  0  0  0
   -4.3370   20.6560  -30.9610 N   0  0  0  0  0  0  0  0  0  0  0  0
   -3.6710   20.8090  -29.6570 C   0  0  0  0  0  0  0  0  0  0  0  0
   -3.1240   22.2060  -29.4950 C   0  0  0  0  0  0  0  0  0  0  0  0
   -3.9180   23.2060  -28.9110 C   0  0  0  0  0  0  0  0  0  0  0  0
   -3.4090   24.4960  -28.7340 C   0  0  0  0  0  0  0  0  0  0  0  0
   -2.1070   24.7970  -29.1420 C   0  0  0  0  0  0  0  0  0  0  0  0
   -1.6020   26.0790  -28.9670 O   0  0  0  0  0  0  0  0  0  0  0  0
   -1.3110   23.8060  -29.7280 C   0  0  0  0  0  0  0  0  0  0  0  0
   -1.8170   22.5160  -29.9070 C   0  0  0  0  0  0  0  0  0  0  0  0
   -5.6460   21.2170  -31.1950 C   0  0  0  0  0  0  0  0  0  0  0  0
   -6.0020   22.4760  -30.6800 C   0  0  0  0  0  0  0  0  0  0  0  0
   -7.2100   23.0740  -31.0520 C   0  0  0  0  0  0  0  0  0  0  0  0
   -8.0630   22.4310  -31.9540 C   0  0  0  0  0  0  0  0  0  0  0  0
   -7.7180   21.1810  -32.4750 C   0  0  0  0  0  0  0  0  0  0  0  0
   -6.5230   20.5690  -32.0860 C   0  0  0  0  0  0  0  0  0  0  0  0
   -6.1280   18.9130  -32.6590 S   0  0  0  0  0  0  0  0  0  0  0  0
    0.9810   19.2770  -32.6060 N   0  0  0  0  0  0  0  0  0  0  0  0
    0.9940   20.0530  -31.3350 C   0  0  0  0  0  0  0  0  0  0  0  0
    0.0170   19.5000  -30.2880 C   0  0  0  0  0  0  0  0  0  0  0  0
    0.3470   18.0380  -29.9390 C   0  0  0  0  0  0  0  0  0  0  0  0
    0.9720   17.2730  -31.1200 C   0  0  0  0  0  0  0  0  0  0  0  0
    0.5280   17.8710  -32.4580 C   0  0  0  0  0  0  0  0  0  0  0  0
   -2.0079   18.7447  -35.3789 H   0  0  0  0  0  0  0  0  0  0  0  0
   -4.4340   18.3395  -34.9606 H   0  0  0  0  0  0  0  0  0  0  0  0
   -1.7008   20.8403  -31.6025 H   0  0  0  0  0  0  0  0  0  0  0  0
   -4.3979   20.6112  -28.8554 H   0  0  0  0  0  0  0  0  0  0  0  0
   -2.8361   20.0950  -29.6017 H   0  0  0  0  0  0  0  0  0  0  0  0
   -4.9446   22.9735  -28.5915 H   0  0  0  0  0  0  0  0  0  0  0  0
   -4.0342   25.2749  -28.2730 H   0  0  0  0  0  0  0  0  0  0  0  0
   -0.2856   24.0431  -30.0481 H   0  0  0  0  0  0  0  0  0  0  0  0
   -1.1902   21.7408  -30.3719 H   0  0  0  0  0  0  0  0  0  0  0  0
   -5.3274   22.9927  -29.9815 H   0  0  0  0  0  0  0  0  0  0  0  0
   -7.4897   24.0523  -30.6341 H   0  0  0  0  0  0  0  0  0  0  0  0
   -9.0069   22.9096  -32.2540 H   0  0  0  0  0  0  0  0  0  0  0  0
   -8.3861   20.6792  -33.1904 H   0  0  0  0  0  0  0  0  0  0  0  0
    1.9600   19.2590  -32.9780 H   0  0  0  0  0  0  0  0  0  0  0  0
    2.0108   20.0239  -30.9163 H   0  0  0  0  0  0  0  0  0  0  0  0
    0.6782   21.0798  -31.5716 H   0  0  0  0  0  0  0  0  0  0  0  0
    0.0844   20.1110  -29.3758 H   0  0  0  0  0  0  0  0  0  0  0  0
   -1.0001   19.5383  -30.7051 H   0  0  0  0  0  0  0  0  0  0  0  0
    1.0562   18.0281  -29.0982 H   0  0  0  0  0  0  0  0  0  0  0  0
   -0.5971   17.5365  -29.6799 H   0  0  0  0  0  0  0  0  0  0  0  0
    2.0680   17.3307  -31.0463 H   0  0  0  0  0  0  0  0  0  0  0  0
    0.6373   16.2261  -31.0758 H   0  0  0  0  0  0  0  0  0  0  0  0
    0.9536   17.2710  -33.2758 H   0  0  0  0  0  0  0  0  0  0  0  0
   -0.5714   17.8586  -32.4922 H   0  0  0  0  0  0  0  0  0  0  0  0
  1  2  2  0
  2  3  2  0
  2  4  1  0
  4  5  2  0
  5  6  1  0
  6  7  2  0
  7  8  1  0
  8  9  2  0
  8 10  1  0
 10 11  1  0
 11 12  1  0
 12 13  2  0
 13 14  1  0
 14 15  2  0
 15 16  1  0
 15 17  1  0
 17 18  2  0
 10 19  1  0
 19 20  2  0
 20 21  1  0
 21 22  2  0
 22 23  1  0
 23 24  2  0
 24 25  1  0
  2 26  1  0
 26 27  1  0
 27 28  1  0
 28 29  1  0
 29 30  1  0
 30 31  1  0
  9  4  1  0
 18 12  1  0
 24 19  1  0
 31 26  1  0
 25  7  1  0
  5 32  1  0
  6 33  1  0
  9 34  1  0
 11 35  1  0
 11 36  1  0
 13 37  1  0
 14 38  1  0
 17 39  1  0
 18 40  1  0
 20 41  1  0
 21 42  1  0
 22 43  1  0
 23 44  1  0
 26 45  1  0
 27 46  1  0
 27 47  1  0
 28 48  1  0
 28 49  1  0
 29 50  1  0
 29 51  1  0
 30 52  1  0
 30 53  1  0
 31 54  1  0
 31 55  1  0
M  CHG  2  16  -1  26   1
M  END
>  <UniqueID>  (33) 
32

>  <SMILES>  (33) 
O=S(=O)(c1ccc2c(c1)N(Cc1ccc([O-])cc1)c1ccccc1S2)[NH+]1CCCCC1

>  <Energy>  (33) 
80.94255629762328

>  <Genealogy>  (33) 
O=S(=O)(c1ccc2c(c1)N(Cc1ccc([O-])cc1)c1ccccc1S2)[NH+]1CCCCC1 (protonated)
O=S(=O)(c1ccc2c(c1)N(Cc1ccc([O-])cc1)c1ccccc1S2)[NH+]1CCCCC1 (3D coordinates assigned)
O=S(=O)(c1ccc2c(c1)N(Cc1ccc([O-])cc1)c1ccccc1S2)[NH+]1CCCCC1 (nonaromatic ring conformer: 80.94255629762328 kcal/mol)

>  <smiles>  (33) 
O=S(=O)(c1ccc2c(c1)N(Cc1ccc(O)cc1)c1ccccc1S2)N1CCCCC1

>  <score_type>  (33) 
oracle

>  <origin>  (33) 
adgpu

>  <m_score__min__energy>  (33) 
-11.869999999999999

>  <m_primary>  (33) 
energy

$$$$
33:0
     RDKit          3D

 44 46  0  0  0  0  0  0  0  0999 V2000
   -4.2340   26.4650  -30.3730 H   0  0  0  0  0  0  0  0  0  0  0  0
   -4.1950   25.5270  -30.8340 N   0  0  0  0  0  0  0  0  0  0  0  0
   -3.3520   24.4710  -29.7570 S   0  0  0  0  0  0  0  0  0  0  0  0
   -4.1990   24.2100  -28.5440 O   0  0  0  0  0  0  0  0  0  0  0  0
   -2.0690   25.1230  -29.3200 O   0  0  0  0  0  0  0  0  0  0  0  0
   -3.0120   22.9500  -30.5760 C   0  0  0  0  0  0  0  0  0  0  0  0
   -2.1390   22.0130  -30.0050 C   0  0  0  0  0  0  0  0  0  0  0  0
   -1.6655   22.2241  -29.0348 H   0  0  0  0  0  0  0  0  0  0  0  0
   -1.8690   20.8110  -30.6660 C   0  0  0  0  0  0  0  0  0  0  0  0
   -1.1723   20.0860  -30.2198 H   0  0  0  0  0  0  0  0  0  0  0  0
   -2.4800   20.5250  -31.8920 C   0  0  0  0  0  0  0  0  0  0  0  0
   -2.1690   19.2940  -32.5600 N   0  0  0  0  0  0  0  0  0  0  0  0
   -3.0280   18.4950  -33.1230 C   0  0  0  0  0  0  0  0  0  0  0  0
   -2.5790   17.3950  -33.7720 N   0  0  0  0  0  0  0  0  0  0  0  0
   -3.4470   16.5200  -34.3430 C   0  0  0  0  0  0  0  0  0  0  0  0
   -2.9380   15.3570  -35.0310 N   0  0  0  0  0  0  0  0  0  0  0  0
   -1.9840   14.4750  -34.3470 C   0  0  0  0  0  0  0  0  0  0  0  0
   -0.9648   14.8640  -34.4879 H   0  0  0  0  0  0  0  0  0  0  0  0
   -2.2306   14.4436  -33.2755 H   0  0  0  0  0  0  0  0  0  0  0  0
   -2.0670   13.0570  -34.9190 C   0  0  0  0  0  0  0  0  0  0  0  0
   -1.2488   12.4514  -34.5020 H   0  0  0  0  0  0  0  0  0  0  0  0
   -3.0409   12.6237  -34.6474 H   0  0  0  0  0  0  0  0  0  0  0  0
   -1.9570   13.0770  -36.3290 O   0  0  0  0  0  0  0  0  0  0  0  0
   -3.0790   13.7360  -36.8800 C   0  0  0  0  0  0  0  0  0  0  0  0
   -3.0414   13.6558  -37.9764 H   0  0  0  0  0  0  0  0  0  0  0  0
   -3.9919   13.2609  -36.4915 H   0  0  0  0  0  0  0  0  0  0  0  0
   -3.0910   15.2170  -36.4850 C   0  0  0  0  0  0  0  0  0  0  0  0
   -2.2609   15.7339  -36.9888 H   0  0  0  0  0  0  0  0  0  0  0  0
   -4.0505   15.6610  -36.7887 H   0  0  0  0  0  0  0  0  0  0  0  0
   -4.7880   16.7550  -34.2490 N   0  0  0  0  0  0  0  0  0  0  0  0
   -5.4740   16.1070  -34.6980 H   0  0  0  0  0  0  0  0  0  0  0  0
   -5.2520   17.8480  -33.5840 C   0  0  0  0  0  0  0  0  0  0  0  0
   -6.5400   18.0250  -33.4790 N   0  0  0  0  0  0  0  0  0  0  0  0
   -7.2720   19.0800  -32.8280 C   0  0  0  0  0  0  0  0  0  0  0  0
   -8.3150   18.7780  -32.1930 O   0  0  0  0  0  0  0  0  0  0  0  0
   -6.8660   20.5220  -32.8900 C   0  0  0  0  0  0  0  0  0  0  0  0
   -6.7551   20.9159  -31.8690 H   0  0  0  0  0  0  0  0  0  0  0  0
   -5.9080   20.6106  -33.4233 H   0  0  0  0  0  0  0  0  0  0  0  0
   -7.6371   21.0974  -33.4233 H   0  0  0  0  0  0  0  0  0  0  0  0
   -4.3670   18.7150  -33.0270 N   0  0  0  0  0  0  0  0  0  0  0  0
   -3.3190   21.4840  -32.4840 C   0  0  0  0  0  0  0  0  0  0  0  0
   -3.7635   21.2885  -33.4710 H   0  0  0  0  0  0  0  0  0  0  0  0
   -3.5910   22.6850  -31.8240 C   0  0  0  0  0  0  0  0  0  0  0  0
   -4.2617   23.4247  -32.2855 H   0  0  0  0  0  0  0  0  0  0  0  0
  1  2  1  0
  2  3  1  0
  3  4  2  0
  3  5  2  0
  3  6  1  0
  6  7  2  0
  7  8  1  0
  7  9  1  0
  9 10  1  0
  9 11  2  0
 11 12  1  0
 12 13  2  0
 13 14  1  0
 14 15  2  0
 15 16  1  0
 16 17  1  0
 17 18  1  0
 17 19  1  0
 17 20  1  0
 20 21  1  0
 20 22  1  0
 20 23  1  0
 23 24  1  0
 24 25  1  0
 24 26  1  0
 24 27  1  0
 27 28  1  0
 27 29  1  0
 15 30  1  0
 30 31  1  0
 30 32  1  0
 32 33  2  0
 33 34  1  0
 34 35  2  0
 34 36  1  0
 36 37  1  0
 36 38  1  0
 36 39  1  0
 32 40  1  0
 11 41  1  0
 41 42  1  0
 41 43  2  0
 43 44  1  0
 43  6  1  0
 40 13  1  0
 27 16  1  0
M  CHG  2   2  -1  40  -1
M  END
>  <UniqueID>  (34) 
33

>  <SMILES>  (34) 
CC(=O)/N=c1\[n-]/c(=N\c2ccc(S([NH-])(=O)=O)cc2)nc(N2CCOCC2)[nH]1

>  <Energy>  (34) 
57.4252447135882

>  <Genealogy>  (34) 
CC(=O)N=c1[n-]c(=Nc2ccc(S([NH-])(=O)=O)cc2)nc(N2CCOCC2)[nH]1 (protonated)
CC(=O)/N=c1\[n-]/c(=N\c2ccc(S([NH-])(=O)=O)cc2)nc(N2CCOCC2)[nH]1 (cis-trans isomerization)
CC(=O)/N=c1\[n-]/c(=N\c2ccc(S([NH-])(=O)=O)cc2)nc(N2CCOCC2)[nH]1 (3D coordinates assigned)
CC(=O)/N=c1\[n-]/c(=N\c2ccc(S([NH-])(=O)=O)cc2)nc(N2CCOCC2)[nH]1 (nonaromatic ring conformer: 57.4252447135882 kcal/mol)

>  <smiles>  (34) 
CC(=O)N=c1[nH]c(N2CCOCC2)nc(=Nc2ccc(S(N)(=O)=O)cc2)[nH]1

>  <score_type>  (34) 
oracle

>  <origin>  (34) 
adgpu

>  <m_score__min__energy>  (34) 
-9.6500000000000004

>  <m_primary>  (34) 
energy

$$$$
34:0
     RDKit          3D

 49 52  0  0  0  0  0  0  0  0999 V2000
   -1.1430   24.4410  -29.4180 O   0  0  0  0  0  0  0  0  0  0  0  0
   -1.9960   23.5140  -29.3840 C   0  0  0  0  0  0  0  0  0  0  0  0
   -3.3010   23.7990  -28.8530 N   0  0  0  0  0  0  0  0  0  0  0  0
   -4.5420   23.7430  -29.5690 C   0  0  0  0  0  0  0  0  0  0  0  0
   -5.5050   22.7490  -29.3030 C   0  0  0  0  0  0  0  0  0  0  0  0
   -6.7320   22.7580  -29.9740 C   0  0  0  0  0  0  0  0  0  0  0  0
   -6.9910   23.7340  -30.9380 C   0  0  0  0  0  0  0  0  0  0  0  0
   -6.0220   24.6970  -31.2410 C   0  0  0  0  0  0  0  0  0  0  0  0
   -4.7970   24.7010  -30.5640 C   0  0  0  0  0  0  0  0  0  0  0  0
   -3.8470   25.6740  -30.8650 O   0  0  0  0  0  0  0  0  0  0  0  0
   -1.6220   22.1780  -29.8920 C   0  0  0  0  0  0  0  0  0  0  0  0
   -1.3630   22.0260  -31.2650 C   0  0  0  0  0  0  0  0  0  0  0  0
   -1.0400   20.7740  -31.7950 C   0  0  0  0  0  0  0  0  0  0  0  0
   -0.6030   20.6390  -33.4970 S   0  0  0  0  0  0  0  0  0  0  0  0
   -0.4700   22.0000  -34.1260 O   0  0  0  0  0  0  0  0  0  0  0  0
    0.7120   19.9140  -33.6100 O   0  0  0  0  0  0  0  0  0  0  0  0
   -1.8310   19.7430  -34.3370 N   0  0  0  0  0  0  0  0  0  0  0  0
   -3.1000   19.3680  -33.7680 C   0  0  0  0  0  0  0  0  0  0  0  0
   -4.1240   20.3090  -33.5400 C   0  0  0  0  0  0  0  0  0  0  0  0
   -5.3270   19.9280  -32.9290 C   0  0  0  0  0  0  0  0  0  0  0  0
   -5.5090   18.5880  -32.5390 C   0  0  0  0  0  0  0  0  0  0  0  0
   -4.5060   17.6420  -32.7950 C   0  0  0  0  0  0  0  0  0  0  0  0
   -3.3120   18.0280  -33.4100 C   0  0  0  0  0  0  0  0  0  0  0  0
   -2.3230   17.0790  -33.6450 O   0  0  0  0  0  0  0  0  0  0  0  0
   -6.7620   18.1900  -31.8170 C   0  0  0  0  0  0  0  0  0  0  0  0
   -7.9520   18.9250  -32.4250 C   0  0  0  0  0  0  0  0  0  0  0  0
   -7.7900   20.4470  -32.3050 C   0  0  0  0  0  0  0  0  0  0  0  0
   -6.3610   20.9840  -32.5950 C   0  0  0  0  0  0  0  0  0  0  0  0
   -0.9880   19.6590  -30.9530 C   0  0  0  0  0  0  0  0  0  0  0  0
   -1.2060   19.8040  -29.5820 C   0  0  0  0  0  0  0  0  0  0  0  0
   -1.5030   21.0580  -29.0400 C   0  0  0  0  0  0  0  0  0  0  0  0
   -1.6060   21.1910  -27.1260 Br  0  0  0  0  0  0  0  0  0  0  0  0
   -5.2906   21.9626  -28.5643 H   0  0  0  0  0  0  0  0  0  0  0  0
   -7.4919   21.9971  -29.7425 H   0  0  0  0  0  0  0  0  0  0  0  0
   -7.9589   23.7461  -31.4605 H   0  0  0  0  0  0  0  0  0  0  0  0
   -6.2237   25.4534  -32.0138 H   0  0  0  0  0  0  0  0  0  0  0  0
   -1.4151   22.9014  -31.9291 H   0  0  0  0  0  0  0  0  0  0  0  0
   -3.9776   21.3556  -33.8453 H   0  0  0  0  0  0  0  0  0  0  0  0
   -4.6599   16.5907  -32.5102 H   0  0  0  0  0  0  0  0  0  0  0  0
   -6.9125   17.1047  -31.9139 H   0  0  0  0  0  0  0  0  0  0  0  0
   -6.6722   18.4532  -30.7527 H   0  0  0  0  0  0  0  0  0  0  0  0
   -8.0334   18.6563  -33.4886 H   0  0  0  0  0  0  0  0  0  0  0  0
   -8.8589   18.6287  -31.8775 H   0  0  0  0  0  0  0  0  0  0  0  0
   -8.4825   20.9203  -33.0166 H   0  0  0  0  0  0  0  0  0  0  0  0
   -8.0026   20.6952  -31.2547 H   0  0  0  0  0  0  0  0  0  0  0  0
   -6.4251   21.6778  -33.4462 H   0  0  0  0  0  0  0  0  0  0  0  0
   -6.0201   21.4591  -31.6633 H   0  0  0  0  0  0  0  0  0  0  0  0
   -0.7747   18.6647  -31.3722 H   0  0  0  0  0  0  0  0  0  0  0  0
   -1.1437   18.9253  -28.9232 H   0  0  0  0  0  0  0  0  0  0  0  0
  1  2  2  0
  2  3  1  0
  3  4  1  0
  4  5  2  0
  5  6  1  0
  6  7  2  0
  7  8  1  0
  8  9  2  0
  9 10  1  0
  2 11  1  0
 11 12  2  0
 12 13  1  0
 13 14  1  0
 14 15  2  0
 14 16  2  0
 14 17  1  0
 17 18  1  0
 18 19  2  0
 19 20  1  0
 20 21  2  0
 21 22  1  0
 22 23  2  0
 23 24  1  0
 21 25  1  0
 25 26  1  0
 26 27  1  0
 27 28  1  0
 13 29  2  0
 29 30  1  0
 30 31  2  0
 31 32  1  0
  9  4  1  0
 31 11  1  0
 23 18  1  0
 28 20  1  0
  5 33  1  0
  6 34  1  0
  7 35  1  0
  8 36  1  0
 12 37  1  0
 19 38  1  0
 22 39  1  0
 25 40  1  0
 25 41  1  0
 26 42  1  0
 26 43  1  0
 27 44  1  0
 27 45  1  0
 28 46  1  0
 28 47  1  0
 29 48  1  0
 30 49  1  0
M  CHG  4   3  -1  10  -1  17  -1  24  -1
M  END
>  <UniqueID>  (35) 
34

>  <SMILES>  (35) 
O=C([N-]c1ccccc1[O-])c1cc(S(=O)(=O)[N-]c2cc3c(cc2[O-])CCCC3)ccc1Br

>  <Energy>  (35) 
70.32304346523905

>  <Genealogy>  (35) 
O=C([N-]c1ccccc1[O-])c1cc(S(=O)(=O)[N-]c2cc3c(cc2[O-])CCCC3)ccc1Br (protonated)
O=C([N-]c1ccccc1[O-])c1cc(S(=O)(=O)[N-]c2cc3c(cc2[O-])CCCC3)ccc1Br (3D coordinates assigned)
O=C([N-]c1ccccc1[O-])c1cc(S(=O)(=O)[N-]c2cc3c(cc2[O-])CCCC3)ccc1Br (nonaromatic ring conformer: 70.32304346523905 kcal/mol)

>  <smiles>  (35) 
O=C(Nc1ccccc1O)c1cc(S(=O)(=O)Nc2cc3c(cc2O)CCCC3)ccc1Br

>  <score_type>  (35) 
oracle

>  <origin>  (35) 
adgpu

>  <m_score__min__energy>  (35) 
-15.289999999999999

>  <m_primary>  (35) 
energy

$$$$
35:0
     RDKit          3D

 52 54  0  0  0  0  0  0  0  0999 V2000
    0.6090   20.1070  -33.8680 C   0  0  0  0  0  0  0  0  0  0  0  0
   -0.6400   20.8760  -33.5770 C   0  0  0  0  0  0  0  0  0  0  0  0
   -0.8700   21.9490  -34.1990 O   0  0  0  0  0  0  0  0  0  0  0  0
   -1.5610   20.3930  -32.5870 N   0  0  0  0  0  0  0  0  0  0  0  0
   -2.9140   20.8710  -32.4540 C   0  0  0  0  0  0  0  0  0  0  0  0
   -3.1840   22.0220  -31.6930 C   0  0  0  0  0  0  0  0  0  0  0  0
   -4.4850   22.5330  -31.6010 C   0  0  0  0  0  0  0  0  0  0  0  0
   -4.7970   24.0270  -30.7190 S   0  0  0  0  0  0  0  0  0  0  0  0
   -5.5970   24.9420  -31.6020 O   0  0  0  0  0  0  0  0  0  0  0  0
   -5.5960   23.7460  -29.4760 O   0  0  0  0  0  0  0  0  0  0  0  0
   -3.3240   24.8250  -30.2640 N   0  0  0  0  0  0  0  0  0  0  0  0
   -2.3650   24.2850  -29.3440 C   0  0  0  0  0  0  0  0  0  0  0  0
   -2.4350   22.9510  -28.9130 C   0  0  0  0  0  0  0  0  0  0  0  0
   -1.5140   22.4510  -27.9860 C   0  0  0  0  0  0  0  0  0  0  0  0
   -1.6500   20.7780  -27.4450 S   0  0  0  0  0  0  0  0  0  0  0  0
   -2.7520   20.0780  -28.1990 O   0  0  0  0  0  0  0  0  0  0  0  0
   -1.9880   20.7900  -25.9760 O   0  0  0  0  0  0  0  0  0  0  0  0
   -0.1270   19.9420  -27.6890 N   0  0  0  0  0  0  0  0  0  0  0  0
    0.7170   20.6230  -28.6900 C   0  0  0  0  0  0  0  0  0  0  0  0
    0.2390   20.3660  -30.1400 C   0  0  0  0  0  0  0  0  0  0  0  0
   -0.5920   19.2250  -30.2760 O   0  0  0  0  0  0  0  0  0  0  0  0
   -0.1060   18.1720  -29.4750 C   0  0  0  0  0  0  0  0  0  0  0  0
   -0.3240   18.5050  -27.9890 C   0  0  0  0  0  0  0  0  0  0  0  0
   -0.4870   23.2800  -27.5120 C   0  0  0  0  0  0  0  0  0  0  0  0
   -0.3960   24.6020  -27.9570 C   0  0  0  0  0  0  0  0  0  0  0  0
   -1.3310   25.1050  -28.8700 C   0  0  0  0  0  0  0  0  0  0  0  0
   -1.2370   26.4280  -29.2890 O   0  0  0  0  0  0  0  0  0  0  0  0
   -5.5270   21.8960  -32.2790 C   0  0  0  0  0  0  0  0  0  0  0  0
   -5.2730   20.7570  -33.0460 C   0  0  0  0  0  0  0  0  0  0  0  0
   -3.9730   20.2330  -33.1400 C   0  0  0  0  0  0  0  0  0  0  0  0
   -3.7290   19.0200  -33.9960 C   0  0  0  0  0  0  0  0  0  0  0  0
    1.0871   19.8126  -32.9221 H   0  0  0  0  0  0  0  0  0  0  0  0
    0.3584   19.2065  -34.4480 H   0  0  0  0  0  0  0  0  0  0  0  0
    1.3002   20.7362  -34.4480 H   0  0  0  0  0  0  0  0  0  0  0  0
   -1.2070   19.6870  -31.9040 H   0  0  0  0  0  0  0  0  0  0  0  0
   -2.3632   22.5276  -31.1632 H   0  0  0  0  0  0  0  0  0  0  0  0
   -3.2221   22.2919  -29.3081 H   0  0  0  0  0  0  0  0  0  0  0  0
    0.6907   21.7055  -28.4962 H   0  0  0  0  0  0  0  0  0  0  0  0
    1.7367   20.2210  -28.5974 H   0  0  0  0  0  0  0  0  0  0  0  0
   -0.3240   21.2474  -30.4807 H   0  0  0  0  0  0  0  0  0  0  0  0
    1.1386   20.1805  -30.7453 H   0  0  0  0  0  0  0  0  0  0  0  0
   -0.6436   17.2453  -29.7243 H   0  0  0  0  0  0  0  0  0  0  0  0
    0.9695   18.0385  -29.6635 H   0  0  0  0  0  0  0  0  0  0  0  0
   -1.3516   18.2258  -27.7131 H   0  0  0  0  0  0  0  0  0  0  0  0
    0.4212   17.9401  -27.4097 H   0  0  0  0  0  0  0  0  0  0  0  0
    0.2463   22.8903  -26.7906 H   0  0  0  0  0  0  0  0  0  0  0  0
    0.4132   25.2497  -27.5886 H   0  0  0  0  0  0  0  0  0  0  0  0
   -6.5506   22.2927  -32.2085 H   0  0  0  0  0  0  0  0  0  0  0  0
   -6.0986   20.2655  -33.5816 H   0  0  0  0  0  0  0  0  0  0  0  0
   -3.5532   18.1459  -33.3517 H   0  0  0  0  0  0  0  0  0  0  0  0
   -4.6082   18.8365  -34.6311 H   0  0  0  0  0  0  0  0  0  0  0  0
   -2.8472   19.1907  -34.6311 H   0  0  0  0  0  0  0  0  0  0  0  0
  1  2  1  0
  2  3  2  0
  2  4  1  0
  4  5  1  0
  5  6  2  0
  6  7  1  0
  7  8  1  0
  8  9  2  0
  8 10  2  0
  8 11  1  0
 11 12  1  0
 12 13  2  0
 13 14  1  0
 14 15  1  0
 15 16  2  0
 15 17  2  0
 15 18  1  0
 18 19  1  0
 19 20  1  0
 20 21  1  0
 21 22  1  0
 22 23  1  0
 14 24  2  0
 24 25  1  0
 25 26  2  0
 26 27  1  0
  7 28  2  0
 28 29  1  0
 29 30  2  0
 30 31  1  0
 30  5  1  0
 26 12  1  0
 23 18  1  0
  1 32  1  0
  1 33  1  0
  1 34  1  0
  4 35  1  0
  6 36  1  0
 13 37  1  0
 19 38  1  0
 19 39  1  0
 20 40  1  0
 20 41  1  0
 22 42  1  0
 22 43  1  0
 23 44  1  0
 23 45  1  0
 24 46  1  0
 25 47  1  0
 28 48  1  0
 29 49  1  0
 31 50  1  0
 31 51  1  0
 31 52  1  0
M  CHG  2  11  -1  27  -1
M  END
>  <UniqueID>  (36) 
35

>  <SMILES>  (36) 
CC(=O)Nc1cc(S(=O)(=O)[N-]c2cc(S(=O)(=O)N3CCOCC3)ccc2[O-])ccc1C

>  <Energy>  (36) 
68.82863435751473

>  <Genealogy>  (36) 
CC(=O)Nc1cc(S(=O)(=O)[N-]c2cc(S(=O)(=O)N3CCOCC3)ccc2[O-])ccc1C (protonated)
CC(=O)Nc1cc(S(=O)(=O)[N-]c2cc(S(=O)(=O)N3CCOCC3)ccc2[O-])ccc1C (3D coordinates assigned)
CC(=O)Nc1cc(S(=O)(=O)[N-]c2cc(S(=O)(=O)N3CCOCC3)ccc2[O-])ccc1C (nonaromatic ring conformer: 68.82863435751473 kcal/mol)

>  <smiles>  (36) 
CC(=O)Nc1cc(S(=O)(=O)Nc2cc(S(=O)(=O)N3CCOCC3)ccc2O)ccc1C

>  <score_type>  (36) 
oracle

>  <origin>  (36) 
adgpu

>  <m_score__min__energy>  (36) 
-14.26

>  <m_primary>  (36) 
energy

$$$$
36:0
     RDKit          3D

 69 73  0  0  0  0  0  0  0  0999 V2000
   -9.4350   21.9020  -30.5410 H   0  0  0  0  0  0  0  0  0  0  0  0
   -9.4440   21.0860  -31.1460 O   0  0  0  0  0  0  0  0  0  0  0  0
   -8.2680   20.5030  -31.6150 C   0  0  0  0  0  0  0  0  0  0  0  0
   -7.0290   21.0350  -31.2340 C   0  0  0  0  0  0  0  0  0  0  0  0
   -6.9860   22.1570  -30.3460 N   0  0  0  0  0  0  0  0  0  0  0  0
   -6.0670   23.5960  -30.6560 S   0  0  0  0  0  0  0  0  0  0  0  0
   -5.7930   23.6890  -32.1340 O   0  0  0  0  0  0  0  0  0  0  0  0
   -6.8880   24.7910  -30.2630 O   0  0  0  0  0  0  0  0  0  0  0  0
   -4.5590   23.6250  -29.7340 C   0  0  0  0  0  0  0  0  0  0  0  0
   -4.3040   22.6320  -28.7750 C   0  0  0  0  0  0  0  0  0  0  0  0
   -5.0236   21.8123  -28.6325 H   0  0  0  0  0  0  0  0  0  0  0  0
   -3.1430   22.6780  -28.0010 C   0  0  0  0  0  0  0  0  0  0  0  0
   -2.9550   21.9008  -27.2456 H   0  0  0  0  0  0  0  0  0  0  0  0
   -2.2200   23.7100  -28.1850 C   0  0  0  0  0  0  0  0  0  0  0  0
   -1.3034   23.7434  -27.5777 H   0  0  0  0  0  0  0  0  0  0  0  0
   -2.4620   24.7010  -29.1420 C   0  0  0  0  0  0  0  0  0  0  0  0
   -1.5350   25.7230  -29.3270 O   0  0  0  0  0  0  0  0  0  0  0  0
   -3.6320   24.6660  -29.9110 C   0  0  0  0  0  0  0  0  0  0  0  0
   -3.8690   25.6700  -30.8460 O   0  0  0  0  0  0  0  0  0  0  0  0
   -5.8490   20.4210  -31.6720 C   0  0  0  0  0  0  0  0  0  0  0  0
   -4.8781   20.8104  -31.3318 H   0  0  0  0  0  0  0  0  0  0  0  0
   -5.8850   19.3130  -32.5410 C   0  0  0  0  0  0  0  0  0  0  0  0
   -4.7010   18.6910  -33.0070 C   0  0  0  0  0  0  0  0  0  0  0  0
   -3.5560   19.1880  -32.6140 N   0  0  0  0  0  0  0  0  0  0  0  0
   -2.2250   18.8190  -32.9930 C   0  0  0  0  0  0  0  0  0  0  0  0
   -1.6710   17.6550  -32.4610 C   0  0  0  0  0  0  0  0  0  0  0  0
   -2.2525   17.0461  -31.7532 H   0  0  0  0  0  0  0  0  0  0  0  0
   -0.3830   17.2590  -32.8220 C   0  0  0  0  0  0  0  0  0  0  0  0
    0.0475   16.3426  -32.3920 H   0  0  0  0  0  0  0  0  0  0  0  0
    0.3670   18.0220  -33.7300 C   0  0  0  0  0  0  0  0  0  0  0  0
    1.7170   17.5740  -34.1670 C   0  0  0  0  0  0  0  0  0  0  0  0
    2.0420   16.3620  -34.0340 O   0  0  0  0  0  0  0  0  0  0  0  0
    2.6550   18.4870  -34.7620 N   0  0  0  0  0  0  0  0  0  0  0  0
    3.4040   18.0480  -35.9500 C   0  0  0  0  0  0  0  0  0  0  0  0
    4.1236   17.2719  -35.6503 H   0  0  0  0  0  0  0  0  0  0  0  0
    2.6829   17.6575  -36.6832 H   0  0  0  0  0  0  0  0  0  0  0  0
    4.1690   19.2090  -36.6050 C   0  0  0  0  0  0  0  0  0  0  0  0
    5.1582   19.3011  -36.1327 H   0  0  0  0  0  0  0  0  0  0  0  0
    4.2758   18.9992  -37.6795 H   0  0  0  0  0  0  0  0  0  0  0  0
    3.4050   20.5300  -36.4350 C   0  0  0  0  0  0  0  0  0  0  0  0
    3.9511   21.3357  -36.9474 H   0  0  0  0  0  0  0  0  0  0  0  0
    2.1230   20.4010  -37.0030 O   0  0  0  0  0  0  0  0  0  0  0  0
    1.4610   20.4420  -36.2620 H   0  0  0  0  0  0  0  0  0  0  0  0
    3.2940   20.8960  -34.9380 C   0  0  0  0  0  0  0  0  0  0  0  0
    4.2153   21.4166  -34.6377 H   0  0  0  0  0  0  0  0  0  0  0  0
    2.4012   21.5286  -34.8252 H   0  0  0  0  0  0  0  0  0  0  0  0
    3.1020   19.6710  -34.0160 C   0  0  0  0  0  0  0  0  0  0  0  0
    4.0597   19.4416  -33.5258 H   0  0  0  0  0  0  0  0  0  0  0  0
    2.3268   19.9199  -33.2763 H   0  0  0  0  0  0  0  0  0  0  0  0
   -0.1670   19.2350  -34.2080 C   0  0  0  0  0  0  0  0  0  0  0  0
    0.4296   19.8634  -34.8856 H   0  0  0  0  0  0  0  0  0  0  0  0
   -1.4590   19.6510  -33.8260 C   0  0  0  0  0  0  0  0  0  0  0  0
   -2.0150   20.8710  -34.2390 O   0  0  0  0  0  0  0  0  0  0  0  0
   -2.8770   21.7010  -33.4640 C   0  0  0  0  0  0  0  0  0  0  0  0
   -3.8643   21.2230  -33.3820 H   0  0  0  0  0  0  0  0  0  0  0  0
   -2.9727   22.6790  -33.9583 H   0  0  0  0  0  0  0  0  0  0  0  0
   -2.2990   21.9040  -32.0690 C   0  0  0  0  0  0  0  0  0  0  0  0
   -3.0558   21.6382  -31.3163 H   0  0  0  0  0  0  0  0  0  0  0  0
   -1.4143   21.2628  -31.9418 H   0  0  0  0  0  0  0  0  0  0  0  0
   -2.0096   22.9576  -31.9418 H   0  0  0  0  0  0  0  0  0  0  0  0
   -4.8240   17.5510  -33.8560 C   0  0  0  0  0  0  0  0  0  0  0  0
   -3.7150   16.7390  -34.2980 C   0  0  0  0  0  0  0  0  0  0  0  0
   -2.8340   16.0780  -34.6560 N   0  0  0  0  0  0  0  0  0  0  0  0
   -6.1000   17.1220  -34.2400 C   0  0  0  0  0  0  0  0  0  0  0  0
   -6.2023   16.2676  -34.9252 H   0  0  0  0  0  0  0  0  0  0  0  0
   -7.2090   17.7450  -33.7790 N   0  0  0  0  0  0  0  0  0  0  0  0
   -7.1410   18.8100  -32.9460 C   0  0  0  0  0  0  0  0  0  0  0  0
   -8.3210   19.4020  -32.4790 C   0  0  0  0  0  0  0  0  0  0  0  0
   -9.2956   18.9998  -32.7927 H   0  0  0  0  0  0  0  0  0  0  0  0
  1  2  1  0
  2  3  1  0
  3  4  2  0
  4  5  1  0
  5  6  1  0
  6  7  2  0
  6  8  2  0
  6  9  1  0
  9 10  2  0
 10 11  1  0
 10 12  1  0
 12 13  1  0
 12 14  2  0
 14 15  1  0
 14 16  1  0
 16 17  1  0
 16 18  2  0
 18 19  1  0
  4 20  1  0
 20 21  1  0
 20 22  2  0
 22 23  1  0
 23 24  2  0
 24 25  1  0
 25 26  2  0
 26 27  1  0
 26 28  1  0
 28 29  1  0
 28 30  2  0
 30 31  1  0
 31 32  2  0
 31 33  1  0
 33 34  1  0
 34 35  1  0
 34 36  1  0
 34 37  1  0
 37 38  1  0
 37 39  1  0
 37 40  1  0
 40 41  1  0
 40 42  1  0
 42 43  1  0
 40 44  1  0
 44 45  1  0
 44 46  1  0
 44 47  1  0
 47 48  1  0
 47 49  1  0
 30 50  1  0
 50 51  1  0
 50 52  2  0
 52 53  1  0
 53 54  1  0
 54 55  1  0
 54 56  1  0
 54 57  1  0
 57 58  1  0
 57 59  1  0
 57 60  1  0
 23 61  1  0
 61 62  1  0
 62 63  3  0
 61 64  2  0
 64 65  1  0
 64 66  1  0
 66 67  1  0
 67 68  2  0
 68 69  1  0
 68  3  1  0
 18  9  1  0
 67 22  1  0
 52 25  1  0
 47 33  1  0
M  CHG  4   5  -1  17  -1  19  -1  66  -1
M  END
>  <UniqueID>  (37) 
36

>  <SMILES>  (37) 
CCOc1cc(C(=O)N2CCC(O)CC2)ccc1/N=c1/c(C#N)c[n-]c2cc(O)c([N-]S(=O)(=O)c3cccc([O-])c3[O-])cc12

>  <Energy>  (37) 
106.27628436392823

>  <Genealogy>  (37) 
CCOc1cc(C(=O)N2CCC(O)CC2)ccc1N=c1c(C#N)c[n-]c2cc(O)c([N-]S(=O)(=O)c3cccc([O-])c3[O-])cc12 (protonated)
CCOc1cc(C(=O)N2CCC(O)CC2)ccc1/N=c1/c(C#N)c[n-]c2cc(O)c([N-]S(=O)(=O)c3cccc([O-])c3[O-])cc12 (cis-trans isomerization)
CCOc1cc(C(=O)N2CCC(O)CC2)ccc1/N=c1/c(C#N)c[n-]c2cc(O)c([N-]S(=O)(=O)c3cccc([O-])c3[O-])cc12 (3D coordinates assigned)
CCOc1cc(C(=O)N2CCC(O)CC2)ccc1/N=c1/c(C#N)c[n-]c2cc(O)c([N-]S(=O)(=O)c3cccc([O-])c3[O-])cc12 (nonaromatic ring conformer: 106.27628436392823 kcal/mol)

>  <smiles>  (37) 
CCOc1cc(C(=O)N2CCC(O)CC2)ccc1N=c1c(C#N)c[nH]c2cc(O)c(NS(=O)(=O)c3cccc(O)c3O)cc12

>  <score_type>  (37) 
oracle

>  <origin>  (37) 
adgpu

>  <m_score__min__energy>  (37) 
-15

>  <m_primary>  (37) 
energy

$$$$
37:0
     RDKit          3D

 50 53  0  0  0  0  0  0  0  0999 V2000
   -9.6790   21.9460  -31.7580 C   0  0  0  0  0  0  0  0  0  0  0  0
   -8.3020   22.4150  -31.3900 C   0  0  0  0  0  0  0  0  0  0  0  0
   -7.8290   22.2580  -30.0800 C   0  0  0  0  0  0  0  0  0  0  0  0
   -6.5590   22.7260  -29.7280 C   0  0  0  0  0  0  0  0  0  0  0  0
   -5.7530   23.3610  -30.6810 C   0  0  0  0  0  0  0  0  0  0  0  0
   -4.1470   23.9280  -30.2350 S   0  0  0  0  0  0  0  0  0  0  0  0
   -4.0540   23.9970  -28.7370 O   0  0  0  0  0  0  0  0  0  0  0  0
   -3.8910   25.3000  -30.7940 O   0  0  0  0  0  0  0  0  0  0  0  0
   -2.9130   22.8310  -30.8400 C   0  0  0  0  0  0  0  0  0  0  0  0
   -3.0750   22.0870  -31.9500 N   0  0  0  0  0  0  0  0  0  0  0  0
   -1.9660   21.3160  -31.9710 C   0  0  0  0  0  0  0  0  0  0  0  0
   -1.6470   20.1260  -33.2130 S   0  0  0  0  0  0  0  0  0  0  0  0
   -0.6560   19.1190  -32.7000 O   0  0  0  0  0  0  0  0  0  0  0  0
   -1.0540   20.8030  -34.4170 O   0  0  0  0  0  0  0  0  0  0  0  0
   -3.1510   19.3240  -33.6470 C   0  0  0  0  0  0  0  0  0  0  0  0
   -3.1280   18.0630  -34.2620 C   0  0  0  0  0  0  0  0  0  0  0  0
   -4.3260   17.4370  -34.6230 C   0  0  0  0  0  0  0  0  0  0  0  0
   -5.5490   18.0680  -34.3760 C   0  0  0  0  0  0  0  0  0  0  0  0
   -5.5750   19.3270  -33.7700 C   0  0  0  0  0  0  0  0  0  0  0  0
   -4.3800   19.9570  -33.4080 C   0  0  0  0  0  0  0  0  0  0  0  0
   -1.1640   21.5340  -30.9540 O   0  0  0  0  0  0  0  0  0  0  0  0
   -1.7210   22.4760  -30.2360 C   0  0  0  0  0  0  0  0  0  0  0  0
   -1.1510   22.9940  -29.0250 N   0  0  0  0  0  0  0  0  0  0  0  0
   -0.7120   22.1050  -27.9470 C   0  0  0  0  0  0  0  0  0  0  0  0
   -1.0100   22.7530  -26.5900 C   0  0  0  0  0  0  0  0  0  0  0  0
   -0.4950   24.0690  -26.5370 O   0  0  0  0  0  0  0  0  0  0  0  0
   -1.1760   24.8870  -27.4700 C   0  0  0  0  0  0  0  0  0  0  0  0
   -0.8920   24.4280  -28.9040 C   0  0  0  0  0  0  0  0  0  0  0  0
   -6.2350   23.5430  -31.9840 C   0  0  0  0  0  0  0  0  0  0  0  0
   -7.5040   23.0760  -32.3370 C   0  0  0  0  0  0  0  0  0  0  0  0
  -10.2562   21.7494  -30.8425 H   0  0  0  0  0  0  0  0  0  0  0  0
  -10.1847   22.7226  -32.3506 H   0  0  0  0  0  0  0  0  0  0  0  0
   -9.6055   21.0222  -32.3506 H   0  0  0  0  0  0  0  0  0  0  0  0
   -8.4594   21.7646  -29.3256 H   0  0  0  0  0  0  0  0  0  0  0  0
   -6.1920   22.5949  -28.6993 H   0  0  0  0  0  0  0  0  0  0  0  0
   -2.1669   17.5661  -34.4605 H   0  0  0  0  0  0  0  0  0  0  0  0
   -4.3057   16.4469  -35.1019 H   0  0  0  0  0  0  0  0  0  0  0  0
   -6.4902   17.5737  -34.6585 H   0  0  0  0  0  0  0  0  0  0  0  0
   -6.5374   19.8236  -33.5773 H   0  0  0  0  0  0  0  0  0  0  0  0
   -4.4037   20.9500  -32.9353 H   0  0  0  0  0  0  0  0  0  0  0  0
   -1.2488   21.1477  -28.0209 H   0  0  0  0  0  0  0  0  0  0  0  0
    0.3701   21.9294  -28.0373 H   0  0  0  0  0  0  0  0  0  0  0  0
   -2.0989   22.7856  -26.4375 H   0  0  0  0  0  0  0  0  0  0  0  0
   -0.5302   22.1550  -25.8012 H   0  0  0  0  0  0  0  0  0  0  0  0
   -2.2578   24.8276  -27.2798 H   0  0  0  0  0  0  0  0  0  0  0  0
   -0.8236   25.9226  -27.3546 H   0  0  0  0  0  0  0  0  0  0  0  0
   -1.5442   24.9769  -29.5992 H   0  0  0  0  0  0  0  0  0  0  0  0
    0.1616   24.6288  -29.1479 H   0  0  0  0  0  0  0  0  0  0  0  0
   -5.6122   24.0554  -32.7320 H   0  0  0  0  0  0  0  0  0  0  0  0
   -7.8787   23.2269  -33.3602 H   0  0  0  0  0  0  0  0  0  0  0  0
  1  2  1  0
  2  3  2  0
  3  4  1  0
  4  5  2  0
  5  6  1  0
  6  7  2  0
  6  8  2  0
  6  9  1  0
  9 10  1  0
 10 11  2  0
 11 12  1  0
 12 13  2  0
 12 14  2  0
 12 15  1  0
 15 16  2  0
 16 17  1  0
 17 18  2  0
 18 19  1  0
 19 20  2  0
 11 21  1  0
 21 22  1  0
 22 23  1  0
 23 24  1  0
 24 25  1  0
 25 26  1  0
 26 27  1  0
 27 28  1  0
  5 29  1  0
 29 30  2  0
 30  2  1  0
 22  9  2  0
 28 23  1  0
 20 15  1  0
  1 31  1  0
  1 32  1  0
  1 33  1  0
  3 34  1  0
  4 35  1  0
 16 36  1  0
 17 37  1  0
 18 38  1  0
 19 39  1  0
 20 40  1  0
 24 41  1  0
 24 42  1  0
 25 43  1  0
 25 44  1  0
 27 45  1  0
 27 46  1  0
 28 47  1  0
 28 48  1  0
 29 49  1  0
 30 50  1  0
M  END
>  <UniqueID>  (38) 
37

>  <SMILES>  (38) 
Cc1ccc(S(=O)(=O)c2nc(S(=O)(=O)c3ccccc3)oc2N2CCOCC2)cc1

>  <Energy>  (38) 
91.07067082383118

>  <Genealogy>  (38) 
Cc1ccc(S(=O)(=O)c2nc(S(=O)(=O)c3ccccc3)oc2N2CCOCC2)cc1 (3D coordinates assigned)
Cc1ccc(S(=O)(=O)c2nc(S(=O)(=O)c3ccccc3)oc2N2CCOCC2)cc1 (nonaromatic ring conformer: 91.07067082383118 kcal/mol)

>  <smiles>  (38) 
Cc1ccc(S(=O)(=O)c2nc(S(=O)(=O)c3ccccc3)oc2N2CCOCC2)cc1

>  <score_type>  (38) 
oracle

>  <origin>  (38) 
adgpu

>  <m_score__min__energy>  (38) 
-9.5299999999999994

>  <m_primary>  (38) 
energy

$$$$
38:0
     RDKit          3D

 60 63  0  0  0  0  0  0  0  0999 V2000
    0.6640   19.7660  -35.2680 O   0  0  0  0  0  0  0  0  0  0  0  0
   -0.4540   19.3600  -34.8540 C   0  0  0  0  0  0  0  0  0  0  0  0
   -1.5390   20.3810  -34.5880 C   0  0  0  0  0  0  0  0  0  0  0  0
   -1.6200   20.7790  -33.1620 N   0  0  0  0  0  0  0  0  0  0  0  0
   -0.4900   21.1620  -32.4850 C   0  0  0  0  0  0  0  0  0  0  0  0
    0.6390   21.1610  -33.0470 O   0  0  0  0  0  0  0  0  0  0  0  0
   -0.5680   21.5610  -31.1560 C   0  0  0  0  0  0  0  0  0  0  0  0
   -1.8000   21.5450  -30.5220 C   0  0  0  0  0  0  0  0  0  0  0  0
   -2.9160   21.1250  -31.1840 N   0  0  0  0  0  0  0  0  0  0  0  0
   -4.2160   21.1460  -30.4870 C   0  0  0  0  0  0  0  0  0  0  0  0
   -4.8350   22.5280  -30.5430 C   0  0  0  0  0  0  0  0  0  0  0  0
   -5.5190   22.9290  -31.7090 C   0  0  0  0  0  0  0  0  0  0  0  0
   -5.5980   22.1070  -32.7860 F   0  0  0  0  0  0  0  0  0  0  0  0
   -6.1210   24.1880  -31.7830 C   0  0  0  0  0  0  0  0  0  0  0  0
   -6.0510   25.0630  -30.7010 C   0  0  0  0  0  0  0  0  0  0  0  0
   -5.3680   24.6890  -29.5440 C   0  0  0  0  0  0  0  0  0  0  0  0
   -4.7540   23.4330  -29.4550 C   0  0  0  0  0  0  0  0  0  0  0  0
   -3.8700   23.0660  -27.9780 Cl  0  0  0  0  0  0  0  0  0  0  0  0
   -2.8200   20.7120  -32.4900 C   0  0  0  0  0  0  0  0  0  0  0  0
   -3.8440   20.2630  -33.0790 O   0  0  0  0  0  0  0  0  0  0  0  0
   -0.6300   17.9570  -34.6190 N   0  0  0  0  0  0  0  0  0  0  0  0
   -1.8100   17.3250  -34.1120 C   0  0  0  0  0  0  0  0  0  0  0  0
   -1.6850   16.1440  -33.3730 C   0  0  0  0  0  0  0  0  0  0  0  0
   -2.8180   15.5200  -32.8480 C   0  0  0  0  0  0  0  0  0  0  0  0
   -4.0860   16.0570  -33.0830 C   0  0  0  0  0  0  0  0  0  0  0  0
   -4.2280   17.2150  -33.8620 C   0  0  0  0  0  0  0  0  0  0  0  0
   -5.8330   17.8680  -34.1980 S   0  0  0  0  0  0  0  0  0  0  0  0
   -6.8190   16.7370  -34.2900 O   0  0  0  0  0  0  0  0  0  0  0  0
   -5.8080   18.5710  -35.5270 O   0  0  0  0  0  0  0  0  0  0  0  0
   -6.3480   18.9900  -32.9580 N   0  0  0  0  0  0  0  0  0  0  0  0
   -6.9120   18.2730  -31.7810 C   0  0  0  0  0  0  0  0  0  0  0  0
   -8.4480   18.3000  -31.7420 C   0  0  0  0  0  0  0  0  0  0  0  0
   -8.9750   19.7450  -31.7060 C   0  0  0  0  0  0  0  0  0  0  0  0
   -8.0610   20.7310  -32.4570 C   0  0  0  0  0  0  0  0  0  0  0  0
   -7.2500   20.0120  -33.5410 C   0  0  0  0  0  0  0  0  0  0  0  0
   -3.0850   17.8460  -34.3760 C   0  0  0  0  0  0  0  0  0  0  0  0
   -1.3329   21.2774  -35.1914 H   0  0  0  0  0  0  0  0  0  0  0  0
   -2.5003   19.9186  -34.8567 H   0  0  0  0  0  0  0  0  0  0  0  0
    0.3341   21.8844  -30.6159 H   0  0  0  0  0  0  0  0  0  0  0  0
   -1.8786   21.8740  -29.4753 H   0  0  0  0  0  0  0  0  0  0  0  0
   -4.8950   20.4270  -30.9687 H   0  0  0  0  0  0  0  0  0  0  0  0
   -4.0552   20.8744  -29.4333 H   0  0  0  0  0  0  0  0  0  0  0  0
   -6.6517   24.4891  -32.6983 H   0  0  0  0  0  0  0  0  0  0  0  0
   -6.5347   26.0492  -30.7594 H   0  0  0  0  0  0  0  0  0  0  0  0
   -5.3110   25.3857  -28.6947 H   0  0  0  0  0  0  0  0  0  0  0  0
   -0.6903   15.7054  -33.2049 H   0  0  0  0  0  0  0  0  0  0  0  0
   -2.7121   14.6040  -32.2483 H   0  0  0  0  0  0  0  0  0  0  0  0
   -4.9755   15.5706  -32.6561 H   0  0  0  0  0  0  0  0  0  0  0  0
   -5.4800   19.4830  -32.6390 H   0  0  0  0  0  0  0  0  0  0  0  0
   -6.5805   17.2248  -31.8170 H   0  0  0  0  0  0  0  0  0  0  0  0
   -6.5505   18.7868  -30.8780 H   0  0  0  0  0  0  0  0  0  0  0  0
   -8.8392   17.7970  -32.6386 H   0  0  0  0  0  0  0  0  0  0  0  0
   -8.7839   17.7824  -30.8313 H   0  0  0  0  0  0  0  0  0  0  0  0
   -9.9724   19.7673  -32.1694 H   0  0  0  0  0  0  0  0  0  0  0  0
   -9.0082   20.0599  -30.6526 H   0  0  0  0  0  0  0  0  0  0  0  0
   -8.6806   21.5086  -32.9277 H   0  0  0  0  0  0  0  0  0  0  0  0
   -7.3618   21.1793  -31.7358 H   0  0  0  0  0  0  0  0  0  0  0  0
   -7.9436   19.5200  -34.2388 H   0  0  0  0  0  0  0  0  0  0  0  0
   -6.6333   20.7589  -34.0624 H   0  0  0  0  0  0  0  0  0  0  0  0
   -3.1895   18.7535  -34.9888 H   0  0  0  0  0  0  0  0  0  0  0  0
  1  2  2  0
  2  3  1  0
  3  4  1  0
  4  5  1  0
  5  6  2  0
  5  7  1  0
  7  8  2  0
  8  9  1  0
  9 10  1  0
 10 11  1  0
 11 12  2  0
 12 13  1  0
 12 14  1  0
 14 15  2  0
 15 16  1  0
 16 17  2  0
 17 18  1  0
  9 19  1  0
 19 20  2  0
  2 21  1  0
 21 22  1  0
 22 23  2  0
 23 24  1  0
 24 25  2  0
 25 26  1  0
 26 27  1  0
 27 28  2  0
 27 29  2  0
 27 30  1  0
 30 31  1  0
 31 32  1  0
 32 33  1  0
 33 34  1  0
 34 35  1  0
 26 36  2  0
 19  4  1  0
 36 22  1  0
 17 11  1  0
 35 30  1  0
  3 37  1  0
  3 38  1  0
  7 39  1  0
  8 40  1  0
 10 41  1  0
 10 42  1  0
 14 43  1  0
 15 44  1  0
 16 45  1  0
 23 46  1  0
 24 47  1  0
 25 48  1  0
 30 49  1  0
 31 50  1  0
 31 51  1  0
 32 52  1  0
 32 53  1  0
 33 54  1  0
 33 55  1  0
 34 56  1  0
 34 57  1  0
 35 58  1  0
 35 59  1  0
 36 60  1  0
M  CHG  2  21  -1  30   1
M  END
>  <UniqueID>  (39) 
38

>  <SMILES>  (39) 
O=C(Cn1c(=O)ccn(Cc2c(F)cccc2Cl)c1=O)[N-]c1cccc(S(=O)(=O)[NH+]2CCCCC2)c1

>  <Energy>  (39) 
76.87911097984194

>  <Genealogy>  (39) 
O=C(Cn1c(=O)ccn(Cc2c(F)cccc2Cl)c1=O)[N-]c1cccc(S(=O)(=O)[NH+]2CCCCC2)c1 (protonated)
O=C(Cn1c(=O)ccn(Cc2c(F)cccc2Cl)c1=O)[N-]c1cccc(S(=O)(=O)[NH+]2CCCCC2)c1 (3D coordinates assigned)
O=C(Cn1c(=O)ccn(Cc2c(F)cccc2Cl)c1=O)[N-]c1cccc(S(=O)(=O)[NH+]2CCCCC2)c1 (nonaromatic ring conformer: 76.87911097984194 kcal/mol)

>  <smiles>  (39) 
O=C(Cn1c(=O)ccn(Cc2c(F)cccc2Cl)c1=O)Nc1cccc(S(=O)(=O)N2CCCCC2)c1

>  <score_type>  (39) 
oracle

>  <origin>  (39) 
adgpu

>  <m_score__min__energy>  (39) 
-12.640000000000001

>  <m_primary>  (39) 
energy

$$$$
39:0
     RDKit          3D

 35 37  0  0  0  0  0  0  0  0999 V2000
   -5.3860   24.8860  -28.7450 O   0  0  0  0  0  0  0  0  0  0  0  0
   -4.8640   24.9290  -30.1520 S   0  0  0  0  0  0  0  0  0  0  0  0
   -5.3160   26.2060  -30.8000 O   0  0  0  0  0  0  0  0  0  0  0  0
   -3.1320   24.8970  -30.1170 N   0  0  0  0  0  0  0  0  0  0  0  0
   -2.3280   24.7130  -28.9420 C   0  0  0  0  0  0  0  0  0  0  0  0
   -1.3550   25.6540  -28.5570 C   0  0  0  0  0  0  0  0  0  0  0  0
   -0.5940   25.4500  -27.4020 C   0  0  0  0  0  0  0  0  0  0  0  0
   -0.7950   24.3120  -26.6210 C   0  0  0  0  0  0  0  0  0  0  0  0
   -1.7550   23.3720  -26.9940 C   0  0  0  0  0  0  0  0  0  0  0  0
   -2.5220   23.5650  -28.1500 C   0  0  0  0  0  0  0  0  0  0  0  0
   -3.7390   22.3250  -28.6080 S   0  0  0  0  0  0  0  0  0  0  0  0
   -2.6930   20.9760  -28.0810 C   0  0  0  0  0  0  0  0  0  0  0  0
   -1.4830   20.7840  -28.6690 N   0  0  0  0  0  0  0  0  0  0  0  0
   -0.6750   19.7620  -28.2840 C   0  0  0  0  0  0  0  0  0  0  0  0
   -1.0860   18.8930  -27.2720 C   0  0  0  0  0  0  0  0  0  0  0  0
   -2.3330   19.1030  -26.6840 C   0  0  0  0  0  0  0  0  0  0  0  0
   -3.1120   20.1370  -27.0970 N   0  0  0  0  0  0  0  0  0  0  0  0
   -5.4700   23.5260  -31.0260 C   0  0  0  0  0  0  0  0  0  0  0  0
   -4.5860   22.7470  -31.7850 C   0  0  0  0  0  0  0  0  0  0  0  0
   -5.0600   21.6360  -32.4910 C   0  0  0  0  0  0  0  0  0  0  0  0
   -6.4140   21.2960  -32.4370 C   0  0  0  0  0  0  0  0  0  0  0  0
   -7.2990   22.0670  -31.6760 C   0  0  0  0  0  0  0  0  0  0  0  0
   -9.1470   21.6020  -31.5980 Br  0  0  0  0  0  0  0  0  0  0  0  0
   -6.8280   23.1810  -30.9710 C   0  0  0  0  0  0  0  0  0  0  0  0
   -1.1924   26.5543  -29.1677 H   0  0  0  0  0  0  0  0  0  0  0  0
    0.1657   26.1893  -27.1083 H   0  0  0  0  0  0  0  0  0  0  0  0
   -0.1965   24.1561  -25.7113 H   0  0  0  0  0  0  0  0  0  0  0  0
   -1.9107   22.4745  -26.3774 H   0  0  0  0  0  0  0  0  0  0  0  0
    0.3019   19.6195  -28.7692 H   0  0  0  0  0  0  0  0  0  0  0  0
   -0.4421   18.0628  -26.9462 H   0  0  0  0  0  0  0  0  0  0  0  0
   -2.6857   18.4323  -25.8867 H   0  0  0  0  0  0  0  0  0  0  0  0
   -3.5185   23.0094  -31.8257 H   0  0  0  0  0  0  0  0  0  0  0  0
   -4.3651   21.0289  -33.0899 H   0  0  0  0  0  0  0  0  0  0  0  0
   -6.7842   20.4220  -32.9929 H   0  0  0  0  0  0  0  0  0  0  0  0
   -7.5245   23.7868  -30.3728 H   0  0  0  0  0  0  0  0  0  0  0  0
  1  2  2  0
  2  3  2  0
  2  4  1  0
  4  5  1  0
  5  6  2  0
  6  7  1  0
  7  8  2  0
  8  9  1  0
  9 10  2  0
 10 11  1  0
 11 12  1  0
 12 13  2  0
 13 14  1  0
 14 15  2  0
 15 16  1  0
 16 17  2  0
  2 18  1  0
 18 19  2  0
 19 20  1  0
 20 21  2  0
 21 22  1  0
 22 23  1  0
 22 24  2  0
 10  5  1  0
 17 12  1  0
 24 18  1  0
  6 25  1  0
  7 26  1  0
  8 27  1  0
  9 28  1  0
 14 29  1  0
 15 30  1  0
 16 31  1  0
 19 32  1  0
 20 33  1  0
 21 34  1  0
 24 35  1  0
M  CHG  1   4  -1
M  END
>  <UniqueID>  (40) 
39

>  <SMILES>  (40) 
O=S(=O)([N-]c1ccccc1Sc1ncccn1)c1cccc(Br)c1

>  <Energy>  (40) 
37.95434551106923

>  <Genealogy>  (40) 
O=S(=O)([N-]c1ccccc1Sc1ncccn1)c1cccc(Br)c1 (protonated)
O=S(=O)([N-]c1ccccc1Sc1ncccn1)c1cccc(Br)c1 (3D coordinates assigned)
O=S(=O)([N-]c1ccccc1Sc1ncccn1)c1cccc(Br)c1 (optimized conformer: 37.95434551106923 kcal/mol)

>  <smiles>  (40) 
O=S(=O)(Nc1ccccc1Sc1ncccn1)c1cccc(Br)c1

>  <score_type>  (40) 
oracle

>  <origin>  (40) 
adgpu

>  <m_score__min__energy>  (40) 
-10.09

>  <m_primary>  (40) 
energy

$$$$
40:0
     RDKit          3D

 49 51  0  0  0  0  0  0  0  0999 V2000
   -0.7380   19.4360  -29.4670 C   0  0  0  0  0  0  0  0  0  0  0  0
   -1.2630   20.5980  -28.7550 N   0  0  0  0  0  0  0  0  0  0  0  0
   -1.0580   21.8790  -29.1220 C   0  0  0  0  0  0  0  0  0  0  0  0
   -1.7400   22.7160  -28.2660 C   0  0  0  0  0  0  0  0  0  0  0  0
   -1.8120   24.4640  -28.3780 S   0  0  0  0  0  0  0  0  0  0  0  0
   -0.4210   24.9980  -28.5670 O   0  0  0  0  0  0  0  0  0  0  0  0
   -2.3950   25.0470  -27.1210 O   0  0  0  0  0  0  0  0  0  0  0  0
   -2.7890   24.9260  -29.7340 N   0  0  0  0  0  0  0  0  0  0  0  0
   -4.0430   24.3290  -30.0900 C   0  0  0  0  0  0  0  0  0  0  0  0
   -5.2760   24.9340  -29.7820 C   0  0  0  0  0  0  0  0  0  0  0  0
   -6.4740   24.3140  -30.1480 C   0  0  0  0  0  0  0  0  0  0  0  0
   -6.4540   23.0920  -30.8250 C   0  0  0  0  0  0  0  0  0  0  0  0
   -5.2330   22.4830  -31.1410 C   0  0  0  0  0  0  0  0  0  0  0  0
   -5.2040   20.9420  -32.0030 S   0  0  0  0  0  0  0  0  0  0  0  0
   -4.0840   20.0930  -31.4680 O   0  0  0  0  0  0  0  0  0  0  0  0
   -4.9360   21.2000  -33.4610 O   0  0  0  0  0  0  0  0  0  0  0  0
   -6.7160   20.0850  -31.8400 N   0  0  0  0  0  0  0  0  0  0  0  0
   -7.8060   20.8460  -32.4850 C   0  0  0  0  0  0  0  0  0  0  0  0
   -9.1070   20.0190  -32.6110 C   0  0  0  0  0  0  0  0  0  0  0  0
   -9.0710   18.7680  -31.7300 C   0  0  0  0  0  0  0  0  0  0  0  0
   -7.8470   17.8960  -32.0570 C   0  0  0  0  0  0  0  0  0  0  0  0
   -6.6060   18.7360  -32.4150 C   0  0  0  0  0  0  0  0  0  0  0  0
   -4.0330   23.1050  -30.7700 C   0  0  0  0  0  0  0  0  0  0  0  0
   -2.3850   21.9270  -27.3360 C   0  0  0  0  0  0  0  0  0  0  0  0
   -2.0540   20.6210  -27.6540 C   0  0  0  0  0  0  0  0  0  0  0  0
   -2.5460   19.4420  -26.9110 C   0  0  0  0  0  0  0  0  0  0  0  0
   -3.8530   19.4160  -26.3380 N   0  0  0  0  0  0  0  0  0  0  0  0
   -1.8140   18.4220  -26.8180 O   0  0  0  0  0  0  0  0  0  0  0  0
   -0.3980   18.6835  -28.7403 H   0  0  0  0  0  0  0  0  0  0  0  0
   -1.5288   19.0048  -30.0985 H   0  0  0  0  0  0  0  0  0  0  0  0
    0.1082   19.7444  -30.0985 H   0  0  0  0  0  0  0  0  0  0  0  0
   -0.4419   22.2053  -29.9728 H   0  0  0  0  0  0  0  0  0  0  0  0
   -5.2968   25.8975  -29.2517 H   0  0  0  0  0  0  0  0  0  0  0  0
   -7.4351   24.7894  -29.9024 H   0  0  0  0  0  0  0  0  0  0  0  0
   -7.3992   22.6072  -31.1104 H   0  0  0  0  0  0  0  0  0  0  0  0
   -8.0144   21.7433  -31.8838 H   0  0  0  0  0  0  0  0  0  0  0  0
   -7.4760   21.1096  -33.5007 H   0  0  0  0  0  0  0  0  0  0  0  0
   -9.9583   20.6453  -32.3060 H   0  0  0  0  0  0  0  0  0  0  0  0
   -9.2087   19.6978  -33.6581 H   0  0  0  0  0  0  0  0  0  0  0  0
   -9.0230   19.0732  -30.6743 H   0  0  0  0  0  0  0  0  0  0  0  0
   -9.9805   18.1796  -31.9212 H   0  0  0  0  0  0  0  0  0  0  0  0
   -7.6119   17.2743  -31.1805 H   0  0  0  0  0  0  0  0  0  0  0  0
   -8.0987   17.2796  -32.9326 H   0  0  0  0  0  0  0  0  0  0  0  0
   -5.7075   18.2437  -32.0147 H   0  0  0  0  0  0  0  0  0  0  0  0
   -6.5357   18.8196  -33.5096 H   0  0  0  0  0  0  0  0  0  0  0  0
   -3.0734   22.6266  -31.0156 H   0  0  0  0  0  0  0  0  0  0  0  0
   -3.0296   22.2659  -26.5116 H   0  0  0  0  0  0  0  0  0  0  0  0
   -4.1570   18.5990  -25.7650 H   0  0  0  0  0  0  0  0  0  0  0  0
   -4.5600   20.1470  -26.5710 H   0  0  0  0  0  0  0  0  0  0  0  0
  1  2  1  0
  2  3  1  0
  3  4  2  0
  4  5  1  0
  5  6  2  0
  5  7  2  0
  5  8  1  0
  8  9  1  0
  9 10  2  0
 10 11  1  0
 11 12  2  0
 12 13  1  0
 13 14  1  0
 14 15  2  0
 14 16  2  0
 14 17  1  0
 17 18  1  0
 18 19  1  0
 19 20  1  0
 20 21  1  0
 21 22  1  0
 13 23  2  0
  4 24  1  0
 24 25  2  0
 25 26  1  0
 26 27  1  0
 26 28  2  0
 25  2  1  0
 23  9  1  0
 22 17  1  0
  1 29  1  0
  1 30  1  0
  1 31  1  0
  3 32  1  0
 10 33  1  0
 11 34  1  0
 12 35  1  0
 18 36  1  0
 18 37  1  0
 19 38  1  0
 19 39  1  0
 20 40  1  0
 20 41  1  0
 21 42  1  0
 21 43  1  0
 22 44  1  0
 22 45  1  0
 23 46  1  0
 24 47  1  0
 27 48  1  0
 27 49  1  0
M  CHG  1   8  -1
M  END
>  <UniqueID>  (41) 
40

>  <SMILES>  (41) 
Cn1cc(S(=O)(=O)[N-]c2cccc(S(=O)(=O)N3CCCCC3)c2)cc1C(N)=O

>  <Energy>  (41) 
82.89575224895708

>  <Genealogy>  (41) 
Cn1cc(S(=O)(=O)[N-]c2cccc(S(=O)(=O)N3CCCCC3)c2)cc1C(N)=O (protonated)
Cn1cc(S(=O)(=O)[N-]c2cccc(S(=O)(=O)N3CCCCC3)c2)cc1C(N)=O (3D coordinates assigned)
Cn1cc(S(=O)(=O)[N-]c2cccc(S(=O)(=O)N3CCCCC3)c2)cc1C(N)=O (nonaromatic ring conformer: 82.89575224895708 kcal/mol)

>  <smiles>  (41) 
Cn1cc(S(=O)(=O)Nc2cccc(S(=O)(=O)N3CCCCC3)c2)cc1C(N)=O

>  <score_type>  (41) 
oracle

>  <origin>  (41) 
adgpu

>  <m_score__min__energy>  (41) 
-11.210000000000001

>  <m_primary>  (41) 
energy

$$$$
41:0
     RDKit          3D

 38 40  0  0  0  0  0  0  0  0999 V2000
   -6.8810   17.0480  -33.3370 C   0  0  0  0  0  0  0  0  0  0  0  0
   -6.8470   18.4150  -33.7370 O   0  0  0  0  0  0  0  0  0  0  0  0
   -5.7640   19.2810  -33.5210 C   0  0  0  0  0  0  0  0  0  0  0  0
   -5.9100   20.5160  -32.8590 C   0  0  0  0  0  0  0  0  0  0  0  0
   -4.8010   21.3620  -32.6600 C   0  0  0  0  0  0  0  0  0  0  0  0
   -4.9350   22.6670  -31.9630 C   0  0  0  0  0  0  0  0  0  0  0  0
   -5.9440   23.6040  -32.2200 C   0  0  0  0  0  0  0  0  0  0  0  0
   -5.7030   24.9320  -31.2150 S   0  0  0  0  0  0  0  0  0  0  0  0
   -4.3330   24.2740  -30.5100 C   0  0  0  0  0  0  0  0  0  0  0  0
   -3.6580   24.8560  -29.5650 N   0  0  0  0  0  0  0  0  0  0  0  0
   -2.4640   24.3340  -28.9630 C   0  0  0  0  0  0  0  0  0  0  0  0
   -2.5020   23.0570  -28.3880 C   0  0  0  0  0  0  0  0  0  0  0  0
   -1.3600   22.5120  -27.7840 C   0  0  0  0  0  0  0  0  0  0  0  0
   -1.4180   20.9030  -27.0730 S   0  0  0  0  0  0  0  0  0  0  0  0
   -0.0970   19.9610  -27.6680 N   0  0  0  0  0  0  0  0  0  0  0  0
   -2.7140   20.2320  -27.4330 O   0  0  0  0  0  0  0  0  0  0  0  0
   -1.3260   21.0020  -25.5770 O   0  0  0  0  0  0  0  0  0  0  0  0
   -0.1810   23.2650  -27.7250 C   0  0  0  0  0  0  0  0  0  0  0  0
   -0.1440   24.5530  -28.2650 C   0  0  0  0  0  0  0  0  0  0  0  0
   -1.2810   25.0980  -28.8700 C   0  0  0  0  0  0  0  0  0  0  0  0
   -1.2360   26.4030  -29.3450 O   0  0  0  0  0  0  0  0  0  0  0  0
   -4.0460   23.0510  -31.0050 N   0  0  0  0  0  0  0  0  0  0  0  0
   -3.5410   20.9480  -33.1270 C   0  0  0  0  0  0  0  0  0  0  0  0
   -3.3870   19.7250  -33.7850 C   0  0  0  0  0  0  0  0  0  0  0  0
   -2.1210   19.3540  -34.2360 O   0  0  0  0  0  0  0  0  0  0  0  0
   -4.5000   18.8940  -33.9830 C   0  0  0  0  0  0  0  0  0  0  0  0
   -4.3530   17.6750  -34.6390 O   0  0  0  0  0  0  0  0  0  0  0  0
   -6.8825   16.9873  -32.2387 H   0  0  0  0  0  0  0  0  0  0  0  0
   -7.7912   16.5730  -33.7317 H   0  0  0  0  0  0  0  0  0  0  0  0
   -5.9955   16.5283  -33.7317 H   0  0  0  0  0  0  0  0  0  0  0  0
   -6.9009   20.8232  -32.4934 H   0  0  0  0  0  0  0  0  0  0  0  0
   -6.7557   23.4910  -32.9538 H   0  0  0  0  0  0  0  0  0  0  0  0
   -3.4362   22.4767  -28.4106 H   0  0  0  0  0  0  0  0  0  0  0  0
    0.7790   20.4750  -27.4220 H   0  0  0  0  0  0  0  0  0  0  0  0
    0.7177   22.8417  -27.2526 H   0  0  0  0  0  0  0  0  0  0  0  0
    0.7840   25.1413  -28.2140 H   0  0  0  0  0  0  0  0  0  0  0  0
   -2.6652   21.5953  -32.9723 H   0  0  0  0  0  0  0  0  0  0  0  0
   -1.9500   18.4640  -34.6880 H   0  0  0  0  0  0  0  0  0  0  0  0
  1  2  1  0
  2  3  1  0
  3  4  2  0
  4  5  1  0
  5  6  1  0
  6  7  2  0
  7  8  1  0
  8  9  1  0
  9 10  2  3
 10 11  1  0
 11 12  2  0
 12 13  1  0
 13 14  1  0
 14 15  1  0
 14 16  2  0
 14 17  2  0
 13 18  2  0
 18 19  1  0
 19 20  2  0
 20 21  1  0
  9 22  1  0
  5 23  2  0
 23 24  1  0
 24 25  1  0
 24 26  2  0
 26 27  1  0
 26  3  1  0
 22  6  1  0
 20 11  1  0
  1 28  1  0
  1 29  1  0
  1 30  1  0
  4 31  1  0
  7 32  1  0
 12 33  1  0
 15 34  1  0
 18 35  1  0
 19 36  1  0
 23 37  1  0
 25 38  1  0
M  CHG  4  15  -1  21  -1  22  -1  27  -1
M  END
>  <UniqueID>  (42) 
41

>  <SMILES>  (42) 
COc1cc(-c2csc(=Nc3cc(S([NH-])(=O)=O)ccc3[O-])[n-]2)cc(O)c1[O-]

>  <Energy>  (42) 
79.93593302173267

>  <Genealogy>  (42) 
COc1cc(-c2csc(=Nc3cc(S([NH-])(=O)=O)ccc3[O-])[n-]2)cc(O)c1[O-] (protonated)
COc1cc(-c2csc(=Nc3cc(S([NH-])(=O)=O)ccc3[O-])[n-]2)cc(O)c1[O-] (3D coordinates assigned)
COc1cc(-c2csc(=Nc3cc(S([NH-])(=O)=O)ccc3[O-])[n-]2)cc(O)c1[O-] (optimized conformer: 79.93593302173267 kcal/mol)

>  <smiles>  (42) 
COc1cc(-c2csc(=Nc3cc(S(N)(=O)=O)ccc3O)[nH]2)cc(O)c1O

>  <score_type>  (42) 
oracle

>  <origin>  (42) 
adgpu

>  <m_score__min__energy>  (42) 
-11.449999999999999

>  <m_primary>  (42) 
energy

$$$$
42:0
     RDKit          3D

 57 59  0  0  0  0  0  0  0  0999 V2000
    0.5620   22.4700  -27.4420 C   0  0  0  0  0  0  0  0  0  0  0  0
   -0.5120   23.1560  -28.2430 C   0  0  0  0  0  0  0  0  0  0  0  0
   -0.7890   24.5050  -27.9490 C   0  0  0  0  0  0  0  0  0  0  0  0
   -1.7810   25.1980  -28.6340 C   0  0  0  0  0  0  0  0  0  0  0  0
   -2.5320   24.5550  -29.6250 C   0  0  0  0  0  0  0  0  0  0  0  0
   -3.5880   25.2420  -30.3090 N   0  0  0  0  0  0  0  0  0  0  0  0
   -4.9850   24.9650  -30.1420 C   0  0  0  0  0  0  0  0  0  0  0  0
   -5.4470   24.8170  -28.9790 O   0  0  0  0  0  0  0  0  0  0  0  0
   -5.8160   24.7360  -31.2890 N   0  0  0  0  0  0  0  0  0  0  0  0
   -6.4740   23.5150  -31.6610 C   0  0  0  0  0  0  0  0  0  0  0  0
   -7.8570   23.4170  -31.4610 C   0  0  0  0  0  0  0  0  0  0  0  0
   -8.5490   22.2640  -31.8380 C   0  0  0  0  0  0  0  0  0  0  0  0
   -7.8610   21.1920  -32.4080 C   0  0  0  0  0  0  0  0  0  0  0  0
   -6.4710   21.2580  -32.5810 C   0  0  0  0  0  0  0  0  0  0  0  0
   -5.7580   20.1520  -33.1520 N   0  0  0  0  0  0  0  0  0  0  0  0
   -6.5010   19.0190  -33.7100 C   0  0  0  0  0  0  0  0  0  0  0  0
   -4.0940   19.9260  -32.7050 S   0  0  0  0  0  0  0  0  0  0  0  0
   -3.5270   18.3580  -33.3300 C   0  0  0  0  0  0  0  0  0  0  0  0
   -3.9610   19.9590  -31.2070 O   0  0  0  0  0  0  0  0  0  0  0  0
   -3.2480   21.0240  -33.2920 O   0  0  0  0  0  0  0  0  0  0  0  0
   -5.7770   22.4140  -32.1930 C   0  0  0  0  0  0  0  0  0  0  0  0
   -2.3000   23.2000  -29.9150 C   0  0  0  0  0  0  0  0  0  0  0  0
   -3.1400   22.5850  -30.8530 O   0  0  0  0  0  0  0  0  0  0  0  0
   -1.2470   22.4980  -29.2700 C   0  0  0  0  0  0  0  0  0  0  0  0
   -0.8890   20.8210  -29.7750 S   0  0  0  0  0  0  0  0  0  0  0  0
   -1.4560   20.6090  -31.1520 O   0  0  0  0  0  0  0  0  0  0  0  0
    0.5850   20.5410  -29.8510 O   0  0  0  0  0  0  0  0  0  0  0  0
   -1.6420   19.7160  -28.6500 N   0  0  0  0  0  0  0  0  0  0  0  0
   -2.5570   20.4490  -27.7640 C   0  0  0  0  0  0  0  0  0  0  0  0
   -3.1800   19.4910  -26.7240 C   0  0  0  0  0  0  0  0  0  0  0  0
   -2.6610   18.1760  -26.8330 O   0  0  0  0  0  0  0  0  0  0  0  0
   -1.2500   18.2080  -26.7180 C   0  0  0  0  0  0  0  0  0  0  0  0
   -0.6090   19.0250  -27.8600 C   0  0  0  0  0  0  0  0  0  0  0  0
    0.3585   22.6000  -26.3688 H   0  0  0  0  0  0  0  0  0  0  0  0
    0.5727   21.3974  -27.6859 H   0  0  0  0  0  0  0  0  0  0  0  0
    1.5396   22.9113  -27.6859 H   0  0  0  0  0  0  0  0  0  0  0  0
   -0.2120   25.0183  -27.1657 H   0  0  0  0  0  0  0  0  0  0  0  0
   -1.9761   26.2542  -28.3965 H   0  0  0  0  0  0  0  0  0  0  0  0
   -8.4026   24.2553  -31.0031 H   0  0  0  0  0  0  0  0  0  0  0  0
   -9.6366   22.2008  -31.6856 H   0  0  0  0  0  0  0  0  0  0  0  0
   -8.4107   20.2926  -32.7225 H   0  0  0  0  0  0  0  0  0  0  0  0
   -6.9035   18.4052  -32.8907 H   0  0  0  0  0  0  0  0  0  0  0  0
   -7.3297   19.3931  -34.3291 H   0  0  0  0  0  0  0  0  0  0  0  0
   -5.8276   18.4081  -34.3291 H   0  0  0  0  0  0  0  0  0  0  0  0
   -3.2865   17.6928  -32.4876 H   0  0  0  0  0  0  0  0  0  0  0  0
   -4.3168   17.9009  -33.9443 H   0  0  0  0  0  0  0  0  0  0  0  0
   -2.6275   18.5117  -33.9443 H   0  0  0  0  0  0  0  0  0  0  0  0
   -4.6837   22.4600  -32.3050 H   0  0  0  0  0  0  0  0  0  0  0  0
   -2.9640   21.6910  -31.2700 H   0  0  0  0  0  0  0  0  0  0  0  0
   -1.9994   21.2396  -27.2406 H   0  0  0  0  0  0  0  0  0  0  0  0
   -3.3618   20.8922  -28.3689 H   0  0  0  0  0  0  0  0  0  0  0  0
   -2.9660   19.8744  -25.7154 H   0  0  0  0  0  0  0  0  0  0  0  0
   -4.2629   19.4447  -26.9116 H   0  0  0  0  0  0  0  0  0  0  0  0
   -0.9799   18.6662  -25.7552 H   0  0  0  0  0  0  0  0  0  0  0  0
   -0.8748   17.1758  -26.7786 H   0  0  0  0  0  0  0  0  0  0  0  0
    0.0756   19.7709  -27.4300 H   0  0  0  0  0  0  0  0  0  0  0  0
   -0.0596   18.3381  -28.5206 H   0  0  0  0  0  0  0  0  0  0  0  0
  1  2  1  0
  2  3  2  0
  3  4  1  0
  4  5  2  0
  5  6  1  0
  6  7  1  0
  7  8  2  0
  7  9  1  0
  9 10  1  0
 10 11  2  0
 11 12  1  0
 12 13  2  0
 13 14  1  0
 14 15  1  0
 15 16  1  0
 15 17  1  0
 17 18  1  0
 17 19  2  0
 17 20  2  0
 14 21  2  0
  5 22  1  0
 22 23  1  0
 22 24  2  0
 24 25  1  0
 25 26  2  0
 25 27  2  0
 25 28  1  0
 28 29  1  0
 29 30  1  0
 30 31  1  0
 31 32  1  0
 32 33  1  0
 24  2  1  0
 33 28  1  0
 21 10  1  0
  1 34  1  0
  1 35  1  0
  1 36  1  0
  3 37  1  0
  4 38  1  0
 11 39  1  0
 12 40  1  0
 13 41  1  0
 16 42  1  0
 16 43  1  0
 16 44  1  0
 18 45  1  0
 18 46  1  0
 18 47  1  0
 21 48  1  0
 23 49  1  0
 29 50  1  0
 29 51  1  0
 30 52  1  0
 30 53  1  0
 32 54  1  0
 32 55  1  0
 33 56  1  0
 33 57  1  0
M  CHG  2   6  -1   9  -1
M  END
>  <UniqueID>  (43) 
42

>  <SMILES>  (43) 
Cc1ccc([N-]C(=O)[N-]c2cccc(N(C)S(C)(=O)=O)c2)c(O)c1S(=O)(=O)N1CCOCC1

>  <Energy>  (43) 
80.1876801250898

>  <Genealogy>  (43) 
Cc1ccc([N-]C(=O)[N-]c2cccc(N(C)S(C)(=O)=O)c2)c(O)c1S(=O)(=O)N1CCOCC1 (protonated)
Cc1ccc([N-]C(=O)[N-]c2cccc(N(C)S(C)(=O)=O)c2)c(O)c1S(=O)(=O)N1CCOCC1 (3D coordinates assigned)
Cc1ccc([N-]C(=O)[N-]c2cccc(N(C)S(C)(=O)=O)c2)c(O)c1S(=O)(=O)N1CCOCC1 (nonaromatic ring conformer: 80.1876801250898 kcal/mol)

>  <smiles>  (43) 
Cc1ccc(NC(=O)Nc2cccc(N(C)S(C)(=O)=O)c2)c(O)c1S(=O)(=O)N1CCOCC1

>  <score_type>  (43) 
oracle

>  <origin>  (43) 
adgpu

>  <m_score__min__energy>  (43) 
-13.77

>  <m_primary>  (43) 
energy

$$$$
43:0
     RDKit          3D

 41 43  0  0  0  0  0  0  0  0999 V2000
   -6.5010   19.0950  -33.5130 C   0  0  0  0  0  0  0  0  0  0  0  0
   -7.3890   20.1160  -33.0680 O   0  0  0  0  0  0  0  0  0  0  0  0
   -6.9940   21.2470  -32.3380 C   0  0  0  0  0  0  0  0  0  0  0  0
   -7.8800   21.9580  -31.5080 C   0  0  0  0  0  0  0  0  0  0  0  0
   -7.4390   23.0790  -30.8020 C   0  0  0  0  0  0  0  0  0  0  0  0
   -6.1080   23.5080  -30.9110 C   0  0  0  0  0  0  0  0  0  0  0  0
   -5.5550   24.9270  -30.0180 S   0  0  0  0  0  0  0  0  0  0  0  0
   -4.7290   25.7850  -30.9350 O   0  0  0  0  0  0  0  0  0  0  0  0
   -6.7570   25.6860  -29.5310 O   0  0  0  0  0  0  0  0  0  0  0  0
   -4.5910   24.4340  -28.6620 N   0  0  0  0  0  0  0  0  0  0  0  0
   -3.3490   23.7110  -28.6720 C   0  0  0  0  0  0  0  0  0  0  0  0
   -3.3990   22.3460  -28.3580 C   0  0  0  0  0  0  0  0  0  0  0  0
   -2.2320   21.5720  -28.3330 C   0  0  0  0  0  0  0  0  0  0  0  0
   -0.9970   22.1590  -28.6380 C   0  0  0  0  0  0  0  0  0  0  0  0
   -0.9380   23.5160  -28.9760 C   0  0  0  0  0  0  0  0  0  0  0  0
   -2.1000   24.2960  -28.9920 C   0  0  0  0  0  0  0  0  0  0  0  0
   -1.9860   25.6350  -29.3410 O   0  0  0  0  0  0  0  0  0  0  0  0
    0.2300   21.2880  -28.6730 C   0  0  0  0  0  0  0  0  0  0  0  0
    0.2620   20.3000  -27.4890 C   0  0  0  0  0  0  0  0  0  0  0  0
   -1.1210   19.7420  -27.0610 C   0  0  0  0  0  0  0  0  0  0  0  0
   -2.2690   20.1030  -28.0160 C   0  0  0  0  0  0  0  0  0  0  0  0
   -5.2190   22.8020  -31.7400 C   0  0  0  0  0  0  0  0  0  0  0  0
   -3.8940   23.2190  -31.8600 O   0  0  0  0  0  0  0  0  0  0  0  0
   -5.6670   21.6780  -32.4470 C   0  0  0  0  0  0  0  0  0  0  0  0
   -6.0598   18.5877  -32.6424 H   0  0  0  0  0  0  0  0  0  0  0  0
   -7.0564   18.3650  -34.1201 H   0  0  0  0  0  0  0  0  0  0  0  0
   -5.7010   19.5438  -34.1201 H   0  0  0  0  0  0  0  0  0  0  0  0
   -8.9255   21.6291  -31.4148 H   0  0  0  0  0  0  0  0  0  0  0  0
   -8.1396   23.6290  -30.1565 H   0  0  0  0  0  0  0  0  0  0  0  0
   -4.3670   21.8767  -28.1283 H   0  0  0  0  0  0  0  0  0  0  0  0
    0.0295   23.9731  -29.2311 H   0  0  0  0  0  0  0  0  0  0  0  0
    0.2356   20.7176  -29.6135 H   0  0  0  0  0  0  0  0  0  0  0  0
    1.1143   21.9382  -28.6011 H   0  0  0  0  0  0  0  0  0  0  0  0
    0.9001   19.4497  -27.7716 H   0  0  0  0  0  0  0  0  0  0  0  0
    0.6443   20.8665  -26.6271 H   0  0  0  0  0  0  0  0  0  0  0  0
   -1.0490   18.6457  -27.0072 H   0  0  0  0  0  0  0  0  0  0  0  0
   -1.3607   20.2017  -26.0908 H   0  0  0  0  0  0  0  0  0  0  0  0
   -2.1631   19.5267  -28.9470 H   0  0  0  0  0  0  0  0  0  0  0  0
   -3.2282   19.8617  -27.5347 H   0  0  0  0  0  0  0  0  0  0  0  0
   -3.6040   24.1520  -31.5930 H   0  0  0  0  0  0  0  0  0  0  0  0
   -4.9680   21.1285  -33.0947 H   0  0  0  0  0  0  0  0  0  0  0  0
  1  2  1  0
  2  3  1  0
  3  4  2  0
  4  5  1  0
  5  6  2  0
  6  7  1  0
  7  8  2  0
  7  9  2  0
  7 10  1  0
 10 11  1  0
 11 12  2  0
 12 13  1  0
 13 14  2  0
 14 15  1  0
 15 16  2  0
 16 17  1  0
 14 18  1  0
 18 19  1  0
 19 20  1  0
 20 21  1  0
  6 22  1  0
 22 23  1  0
 22 24  2  0
 24  3  1  0
 16 11  1  0
 21 13  1  0
  1 25  1  0
  1 26  1  0
  1 27  1  0
  4 28  1  0
  5 29  1  0
 12 30  1  0
 15 31  1  0
 18 32  1  0
 18 33  1  0
 19 34  1  0
 19 35  1  0
 20 36  1  0
 20 37  1  0
 21 38  1  0
 21 39  1  0
 23 40  1  0
 24 41  1  0
M  CHG  2  10  -1  17  -1
M  END
>  <UniqueID>  (44) 
43

>  <SMILES>  (44) 
COc1ccc(S(=O)(=O)[N-]c2cc3c(cc2[O-])CCCC3)c(O)c1

>  <Energy>  (44) 
54.34255228210859

>  <Genealogy>  (44) 
COc1ccc(S(=O)(=O)[N-]c2cc3c(cc2[O-])CCCC3)c(O)c1 (protonated)
COc1ccc(S(=O)(=O)[N-]c2cc3c(cc2[O-])CCCC3)c(O)c1 (3D coordinates assigned)
COc1ccc(S(=O)(=O)[N-]c2cc3c(cc2[O-])CCCC3)c(O)c1 (nonaromatic ring conformer: 54.34255228210859 kcal/mol)

>  <smiles>  (44) 
COc1ccc(S(=O)(=O)Nc2cc3c(cc2O)CCCC3)c(O)c1

>  <score_type>  (44) 
oracle

>  <origin>  (44) 
adgpu

>  <m_score__min__energy>  (44) 
-12.289999999999999

>  <m_primary>  (44) 
energy

$$$$
44:0
     RDKit          3D

 50 52  0  0  0  0  0  0  0  0999 V2000
    1.8290   24.3370  -36.0180 C   0  0  0  0  0  0  0  0  0  0  0  0
    1.3230   23.1390  -35.3440 N   0  0  0  0  0  0  0  0  0  0  0  0
    2.1960   21.9820  -35.5850 C   0  0  0  0  0  0  0  0  0  0  0  0
    1.4490   20.6950  -35.3550 C   0  0  0  0  0  0  0  0  0  0  0  0
    2.0720   19.4600  -35.5880 C   0  0  0  0  0  0  0  0  0  0  0  0
    1.3820   18.2690  -35.3490 C   0  0  0  0  0  0  0  0  0  0  0  0
    0.0700   18.3010  -34.8720 C   0  0  0  0  0  0  0  0  0  0  0  0
   -0.5700   19.5290  -34.6260 C   0  0  0  0  0  0  0  0  0  0  0  0
   -1.9640   19.5640  -34.1140 C   0  0  0  0  0  0  0  0  0  0  0  0
   -2.5850   20.7900  -33.8140 C   0  0  0  0  0  0  0  0  0  0  0  0
   -3.8960   20.8210  -33.3300 C   0  0  0  0  0  0  0  0  0  0  0  0
   -4.6070   19.6300  -33.1420 C   0  0  0  0  0  0  0  0  0  0  0  0
   -6.2450   19.6690  -32.5010 S   0  0  0  0  0  0  0  0  0  0  0  0
   -7.2350   19.4930  -33.6200 O   0  0  0  0  0  0  0  0  0  0  0  0
   -6.4420   18.5440  -31.5240 O   0  0  0  0  0  0  0  0  0  0  0  0
   -6.5060   21.2100  -31.6950 C   0  0  0  0  0  0  0  0  0  0  0  0
   -7.7950   21.7380  -31.5780 C   0  0  0  0  0  0  0  0  0  0  0  0
   -7.9950   22.9700  -30.9550 C   0  0  0  0  0  0  0  0  0  0  0  0
   -6.9090   23.6980  -30.4410 C   0  0  0  0  0  0  0  0  0  0  0  0
   -7.1700   25.0310  -29.7890 C   0  0  0  0  0  0  0  0  0  0  0  0
   -5.5980   23.1790  -30.5820 C   0  0  0  0  0  0  0  0  0  0  0  0
   -4.1790   24.0570  -29.9860 S   0  0  0  0  0  0  0  0  0  0  0  0
   -4.2410   25.7160  -30.4730 N   0  0  0  0  0  0  0  0  0  0  0  0
   -2.9310   23.4340  -30.5460 O   0  0  0  0  0  0  0  0  0  0  0  0
   -4.1410   24.0040  -28.4850 O   0  0  0  0  0  0  0  0  0  0  0  0
   -5.4140   21.9340  -31.2050 C   0  0  0  0  0  0  0  0  0  0  0  0
   -3.9930   18.4050  -33.4290 C   0  0  0  0  0  0  0  0  0  0  0  0
   -2.6820   18.3710  -33.9150 C   0  0  0  0  0  0  0  0  0  0  0  0
    0.1320   20.7240  -34.8690 C   0  0  0  0  0  0  0  0  0  0  0  0
    2.1413   25.0765  -35.2659 H   0  0  0  0  0  0  0  0  0  0  0  0
    2.6902   24.0676  -36.6471 H   0  0  0  0  0  0  0  0  0  0  0  0
    1.0355   24.7665  -36.6471 H   0  0  0  0  0  0  0  0  0  0  0  0
    0.3870   22.9220  -35.7600 H   0  0  0  0  0  0  0  0  0  0  0  0
    2.5547   22.0106  -36.6245 H   0  0  0  0  0  0  0  0  0  0  0  0
    3.0450   22.0279  -34.8870 H   0  0  0  0  0  0  0  0  0  0  0  0
    3.1067   19.4292  -35.9599 H   0  0  0  0  0  0  0  0  0  0  0  0
    1.8737   17.3032  -35.5371 H   0  0  0  0  0  0  0  0  0  0  0  0
   -0.4669   17.3589  -34.6873 H   0  0  0  0  0  0  0  0  0  0  0  0
   -2.0350   21.7311  -33.9613 H   0  0  0  0  0  0  0  0  0  0  0  0
   -4.3708   21.7852  -33.0959 H   0  0  0  0  0  0  0  0  0  0  0  0
   -8.6544   21.1802  -31.9785 H   0  0  0  0  0  0  0  0  0  0  0  0
   -9.0135   23.3756  -30.8653 H   0  0  0  0  0  0  0  0  0  0  0  0
   -7.1473   24.9150  -28.6954 H   0  0  0  0  0  0  0  0  0  0  0  0
   -6.3952   25.7482  -30.0978 H   0  0  0  0  0  0  0  0  0  0  0  0
   -8.1580   25.4030  -30.0978 H   0  0  0  0  0  0  0  0  0  0  0  0
   -3.4960   25.8510  -31.1920 H   0  0  0  0  0  0  0  0  0  0  0  0
   -4.3989   21.5231  -31.3089 H   0  0  0  0  0  0  0  0  0  0  0  0
   -4.5437   17.4658  -33.2717 H   0  0  0  0  0  0  0  0  0  0  0  0
   -2.2091   17.4044  -34.1432 H   0  0  0  0  0  0  0  0  0  0  0  0
   -0.3560   21.6908  -34.6763 H   0  0  0  0  0  0  0  0  0  0  0  0
  1  2  1  0
  2  3  1  0
  3  4  1  0
  4  5  2  0
  5  6  1  0
  6  7  2  0
  7  8  1  0
  8  9  1  0
  9 10  2  0
 10 11  1  0
 11 12  2  0
 12 13  1  0
 13 14  2  0
 13 15  2  0
 13 16  1  0
 16 17  2  0
 17 18  1  0
 18 19  2  0
 19 20  1  0
 19 21  1  0
 21 22  1  0
 22 23  1  0
 22 24  2  0
 22 25  2  0
 21 26  2  0
 12 27  1  0
 27 28  2  0
  8 29  2  0
 29  4  1  0
 28  9  1  0
 26 16  1  0
  1 30  1  0
  1 31  1  0
  1 32  1  0
  2 33  1  0
  3 34  1  0
  3 35  1  0
  5 36  1  0
  6 37  1  0
  7 38  1  0
 10 39  1  0
 11 40  1  0
 17 41  1  0
 18 42  1  0
 20 43  1  0
 20 44  1  0
 20 45  1  0
 23 46  1  0
 26 47  1  0
 27 48  1  0
 28 49  1  0
 29 50  1  0
M  CHG  1  23  -1
M  END
>  <UniqueID>  (45) 
44

>  <SMILES>  (45) 
CNCc1cccc(-c2ccc(S(=O)(=O)c3ccc(C)c(S([NH-])(=O)=O)c3)cc2)c1

>  <Energy>  (45) 
58.80056058743682

>  <Genealogy>  (45) 
CNCc1cccc(-c2ccc(S(=O)(=O)c3ccc(C)c(S([NH-])(=O)=O)c3)cc2)c1 (protonated)
CNCc1cccc(-c2ccc(S(=O)(=O)c3ccc(C)c(S([NH-])(=O)=O)c3)cc2)c1 (3D coordinates assigned)
CNCc1cccc(-c2ccc(S(=O)(=O)c3ccc(C)c(S([NH-])(=O)=O)c3)cc2)c1 (optimized conformer: 58.80056058743682 kcal/mol)

>  <smiles>  (45) 
CNCc1cccc(-c2ccc(S(=O)(=O)c3ccc(C)c(S(N)(=O)=O)c3)cc2)c1

>  <score_type>  (45) 
oracle

>  <origin>  (45) 
adgpu

>  <m_score__min__energy>  (45) 
-11.1

>  <m_primary>  (45) 
energy

$$$$
45:0
     RDKit          3D

 41 44  0  0  0  0  0  0  0  0999 V2000
   -9.4860   20.6380  -32.2500 C   0  0  0  0  0  0  0  0  0  0  0  0
   -8.3410   21.5590  -31.9650 C   0  0  0  0  0  0  0  0  0  0  0  0
   -8.5030   22.8150  -31.4920 N   0  0  0  0  0  0  0  0  0  0  0  0
   -7.2640   23.3100  -31.3570 C   0  0  0  0  0  0  0  0  0  0  0  0
   -6.9550   24.5430  -30.8900 N   0  0  0  0  0  0  0  0  0  0  0  0
   -5.6410   24.9020  -30.8160 C   0  0  0  0  0  0  0  0  0  0  0  0
   -4.6630   24.0400  -31.2310 N   0  0  0  0  0  0  0  0  0  0  0  0
   -4.9590   22.7970  -31.7140 C   0  0  0  0  0  0  0  0  0  0  0  0
   -3.6260   21.7710  -32.3420 S   0  0  0  0  0  0  0  0  0  0  0  0
   -3.1640   21.0880  -30.7130 C   0  0  0  0  0  0  0  0  0  0  0  0
   -2.9760   22.1830  -29.7010 C   0  0  0  0  0  0  0  0  0  0  0  0
   -3.8730   22.3140  -28.6280 C   0  0  0  0  0  0  0  0  0  0  0  0
   -3.7070   23.3410  -27.6940 C   0  0  0  0  0  0  0  0  0  0  0  0
   -2.6370   24.2330  -27.8140 C   0  0  0  0  0  0  0  0  0  0  0  0
   -1.7300   24.0960  -28.8680 C   0  0  0  0  0  0  0  0  0  0  0  0
   -1.8970   23.0770  -29.8100 C   0  0  0  0  0  0  0  0  0  0  0  0
   -6.3050   22.4130  -31.7460 C   0  0  0  0  0  0  0  0  0  0  0  0
   -6.9840   21.2650  -32.1410 C   0  0  0  0  0  0  0  0  0  0  0  0
   -6.4250   19.9610  -32.5500 C   0  0  0  0  0  0  0  0  0  0  0  0
   -5.9180   19.7860  -33.8460 C   0  0  0  0  0  0  0  0  0  0  0  0
   -5.4030   18.5470  -34.2410 C   0  0  0  0  0  0  0  0  0  0  0  0
   -5.4090   17.4720  -33.3490 C   0  0  0  0  0  0  0  0  0  0  0  0
   -5.9400   17.6310  -32.0660 C   0  0  0  0  0  0  0  0  0  0  0  0
   -6.4550   18.8680  -31.6700 C   0  0  0  0  0  0  0  0  0  0  0  0
   -9.9203   20.2886  -31.3017 H   0  0  0  0  0  0  0  0  0  0  0  0
  -10.2525   21.1741  -32.8289 H   0  0  0  0  0  0  0  0  0  0  0  0
   -9.1266   19.7744  -32.8289 H   0  0  0  0  0  0  0  0  0  0  0  0
   -9.4010   23.2970  -31.2660 H   0  0  0  0  0  0  0  0  0  0  0  0
   -5.3661   25.8908  -30.4202 H   0  0  0  0  0  0  0  0  0  0  0  0
   -3.9605   20.4125  -30.3676 H   0  0  0  0  0  0  0  0  0  0  0  0
   -2.2142   20.5433  -30.8191 H   0  0  0  0  0  0  0  0  0  0  0  0
   -4.7086   21.6064  -28.5223 H   0  0  0  0  0  0  0  0  0  0  0  0
   -4.4197   23.4475  -26.8629 H   0  0  0  0  0  0  0  0  0  0  0  0
   -2.5094   25.0418  -27.0794 H   0  0  0  0  0  0  0  0  0  0  0  0
   -0.8826   24.7917  -28.9566 H   0  0  0  0  0  0  0  0  0  0  0  0
   -1.1817   22.9744  -30.6393 H   0  0  0  0  0  0  0  0  0  0  0  0
   -5.9254   20.6270  -34.5550 H   0  0  0  0  0  0  0  0  0  0  0  0
   -4.9933   18.4191  -35.2538 H   0  0  0  0  0  0  0  0  0  0  0  0
   -4.9957   16.5001  -33.6565 H   0  0  0  0  0  0  0  0  0  0  0  0
   -5.9525   16.7815  -31.3673 H   0  0  0  0  0  0  0  0  0  0  0  0
   -6.8856   18.9857  -30.6647 H   0  0  0  0  0  0  0  0  0  0  0  0
  1  2  1  0
  2  3  1  0
  3  4  1  0
  4  5  2  0
  5  6  1  0
  6  7  2  0
  7  8  1  0
  8  9  1  0
  9 10  1  0
 10 11  1  0
 11 12  2  0
 12 13  1  0
 13 14  2  0
 14 15  1  0
 15 16  2  0
  8 17  2  0
 17 18  1  0
 18 19  1  0
 19 20  2  0
 20 21  1  0
 21 22  2  0
 22 23  1  0
 23 24  2  0
 18  2  2  0
 24 19  1  0
 17  4  1  0
 16 11  1  0
  1 25  1  0
  1 26  1  0
  1 27  1  0
  3 28  1  0
  6 29  1  0
 10 30  1  0
 10 31  1  0
 12 32  1  0
 13 33  1  0
 14 34  1  0
 15 35  1  0
 16 36  1  0
 20 37  1  0
 21 38  1  0
 22 39  1  0
 23 40  1  0
 24 41  1  0
M  END
>  <UniqueID>  (46) 
45

>  <SMILES>  (46) 
Cc1[nH]c2ncnc(SCc3ccccc3)c2c1-c1ccccc1

>  <Energy>  (46) 
79.33621325334649

>  <Genealogy>  (46) 
Cc1[nH]c2ncnc(SCc3ccccc3)c2c1-c1ccccc1 (3D coordinates assigned)
Cc1[nH]c2ncnc(SCc3ccccc3)c2c1-c1ccccc1 (optimized conformer: 79.33621325334649 kcal/mol)

>  <smiles>  (46) 
Cc1[nH]c2ncnc(SCc3ccccc3)c2c1-c1ccccc1

>  <score_type>  (46) 
oracle

>  <origin>  (46) 
adgpu

>  <m_score__min__energy>  (46) 
-8.8900000000000006

>  <m_primary>  (46) 
energy

$$$$
46:0
     RDKit          3D

 69 72  0  0  0  0  0  0  0  0999 V2000
   -8.4580   21.1250  -31.4400 C   0  0  0  0  0  0  0  0  0  0  0  0
   -8.8180   22.5050  -31.9720 C   0  0  0  0  0  0  0  0  0  0  0  0
   -7.8780   23.4880  -31.4470 N   0  0  0  0  0  0  0  0  0  0  0  0
   -6.4560   23.4460  -31.6310 C   0  0  0  0  0  0  0  0  0  0  0  0
   -5.9770   23.8790  -32.7120 O   0  0  0  0  0  0  0  0  0  0  0  0
   -5.5330   22.9780  -30.5780 C   0  0  0  0  0  0  0  0  0  0  0  0
   -5.3990   23.7060  -29.3880 C   0  0  0  0  0  0  0  0  0  0  0  0
   -4.5070   23.2810  -28.4030 C   0  0  0  0  0  0  0  0  0  0  0  0
   -3.7450   22.1290  -28.6140 C   0  0  0  0  0  0  0  0  0  0  0  0
   -2.8350   21.7270  -27.6270 O   0  0  0  0  0  0  0  0  0  0  0  0
   -1.9830   20.6120  -27.6910 C   0  0  0  0  0  0  0  0  0  0  0  0
   -2.3440   19.3650  -27.1510 C   0  0  0  0  0  0  0  0  0  0  0  0
   -1.4560   18.2900  -27.1970 C   0  0  0  0  0  0  0  0  0  0  0  0
   -0.1700   18.4520  -27.7340 C   0  0  0  0  0  0  0  0  0  0  0  0
    0.7860   17.2850  -27.8020 C   0  0  0  0  0  0  0  0  0  0  0  0
    0.9980   16.9480  -29.1240 F   0  0  0  0  0  0  0  0  0  0  0  0
    0.2720   16.1880  -27.1330 F   0  0  0  0  0  0  0  0  0  0  0  0
    1.9980   17.6130  -27.2200 F   0  0  0  0  0  0  0  0  0  0  0  0
    0.1920   19.6970  -28.2770 C   0  0  0  0  0  0  0  0  0  0  0  0
   -0.7140   20.7730  -28.2710 C   0  0  0  0  0  0  0  0  0  0  0  0
   -0.3590   22.0640  -28.7940 N   0  0  0  0  0  0  0  0  0  0  0  0
   -1.1510   22.9090  -29.6360 C   0  0  0  0  0  0  0  0  0  0  0  0
   -1.3490   22.5620  -30.8310 O   0  0  0  0  0  0  0  0  0  0  0  0
   -1.7150   24.1280  -29.1380 N   0  0  0  0  0  0  0  0  0  0  0  0
   -1.4220   24.7200  -27.8640 C   0  0  0  0  0  0  0  0  0  0  0  0
   -1.4530   23.9600  -26.6860 C   0  0  0  0  0  0  0  0  0  0  0  0
   -1.1830   24.5580  -25.4570 C   0  0  0  0  0  0  0  0  0  0  0  0
   -0.8890   25.9240  -25.3790 C   0  0  0  0  0  0  0  0  0  0  0  0
   -0.5390   26.5910  -23.7870 Cl  0  0  0  0  0  0  0  0  0  0  0  0
   -0.8790   26.7130  -26.5520 C   0  0  0  0  0  0  0  0  0  0  0  0
   -0.4820   28.4450  -26.4680 S   0  0  0  0  0  0  0  0  0  0  0  0
   -1.2550   29.0760  -25.3410 O   0  0  0  0  0  0  0  0  0  0  0  0
   -0.8600   29.1490  -27.7410 O   0  0  0  0  0  0  0  0  0  0  0  0
    1.2810   28.6400  -26.1810 C   0  0  0  0  0  0  0  0  0  0  0  0
    1.9800   27.2650  -26.1930 C   0  0  0  0  0  0  0  0  0  0  0  0
    3.3460   27.3430  -25.4940 C   0  0  0  0  0  0  0  0  0  0  0  0
    3.2510   27.7890  -24.0780 N   0  0  0  0  0  0  0  0  0  0  0  0
    3.4740   26.6720  -23.1460 C   0  0  0  0  0  0  0  0  0  0  0  0
    1.9920   28.4950  -23.7400 C   0  0  0  0  0  0  0  0  0  0  0  0
    1.5560   29.4270  -24.8770 C   0  0  0  0  0  0  0  0  0  0  0  0
   -1.1500   26.0960  -27.7950 C   0  0  0  0  0  0  0  0  0  0  0  0
   -1.1320   26.8350  -28.9750 O   0  0  0  0  0  0  0  0  0  0  0  0
   -3.8660   21.4470  -29.7890 N   0  0  0  0  0  0  0  0  0  0  0  0
   -4.7300   21.8400  -30.7620 C   0  0  0  0  0  0  0  0  0  0  0  0
   -8.4628   21.1433  -30.3402 H   0  0  0  0  0  0  0  0  0  0  0  0
   -9.1946   20.3905  -31.7977 H   0  0  0  0  0  0  0  0  0  0  0  0
   -7.4565   20.8439  -31.7977 H   0  0  0  0  0  0  0  0  0  0  0  0
   -8.7671   22.4992  -33.0708 H   0  0  0  0  0  0  0  0  0  0  0  0
   -9.8380   22.7663  -31.6538 H   0  0  0  0  0  0  0  0  0  0  0  0
   -5.9985   24.6147  -29.2302 H   0  0  0  0  0  0  0  0  0  0  0  0
   -4.4043   23.8490  -27.4666 H   0  0  0  0  0  0  0  0  0  0  0  0
   -3.3339   19.2361  -26.6889 H   0  0  0  0  0  0  0  0  0  0  0  0
   -1.7663   17.3084  -26.8095 H   0  0  0  0  0  0  0  0  0  0  0  0
    1.1938   19.8312  -28.7110 H   0  0  0  0  0  0  0  0  0  0  0  0
   -1.6915   22.8872  -26.7325 H   0  0  0  0  0  0  0  0  0  0  0  0
   -1.2011   23.9511  -24.5398 H   0  0  0  0  0  0  0  0  0  0  0  0
    1.7066   29.2370  -27.0010 H   0  0  0  0  0  0  0  0  0  0  0  0
    1.3473   26.5339  -25.6684 H   0  0  0  0  0  0  0  0  0  0  0  0
    2.1348   26.9565  -27.2375 H   0  0  0  0  0  0  0  0  0  0  0  0
    3.8086   26.3453  -25.5167 H   0  0  0  0  0  0  0  0  0  0  0  0
    3.9490   28.0883  -26.0334 H   0  0  0  0  0  0  0  0  0  0  0  0
    3.4010   27.0378  -22.1112 H   0  0  0  0  0  0  0  0  0  0  0  0
    2.7131   25.8959  -23.3151 H   0  0  0  0  0  0  0  0  0  0  0  0
    4.4746   26.2475  -23.3151 H   0  0  0  0  0  0  0  0  0  0  0  0
    1.2007   27.7519  -23.5618 H   0  0  0  0  0  0  0  0  0  0  0  0
    2.1643   29.1020  -22.8390 H   0  0  0  0  0  0  0  0  0  0  0  0
    0.6377   29.9526  -24.5762 H   0  0  0  0  0  0  0  0  0  0  0  0
    2.3703   30.1410  -25.0698 H   0  0  0  0  0  0  0  0  0  0  0  0
   -4.8007   21.2648  -31.6970 H   0  0  0  0  0  0  0  0  0  0  0  0
  1  2  1  0
  2  3  1  0
  3  4  1  0
  4  5  2  0
  4  6  1  0
  6  7  2  0
  7  8  1  0
  8  9  2  0
  9 10  1  0
 10 11  1  0
 11 12  2  0
 12 13  1  0
 13 14  2  0
 14 15  1  0
 15 16  1  0
 15 17  1  0
 15 18  1  0
 14 19  1  0
 19 20  2  0
 20 21  1  0
 21 22  1  0
 22 23  2  0
 22 24  1  0
 24 25  1  0
 25 26  2  0
 26 27  1  0
 27 28  2  0
 28 29  1  0
 28 30  1  0
 30 31  1  0
 31 32  2  0
 31 33  2  0
 31 34  1  0
 34 35  1  0
 35 36  1  0
 36 37  1  0
 37 38  1  0
 37 39  1  0
 39 40  1  0
 30 41  2  0
 41 42  1  0
  9 43  1  0
 43 44  2  0
 44  6  1  0
 20 11  1  0
 41 25  1  0
 40 34  1  0
  1 45  1  0
  1 46  1  0
  1 47  1  0
  2 48  1  0
  2 49  1  0
  7 50  1  0
  8 51  1  0
 12 52  1  0
 13 53  1  0
 19 54  1  0
 26 55  1  0
 27 56  1  0
 34 57  1  0
 35 58  1  0
 35 59  1  0
 36 60  1  0
 36 61  1  0
 38 62  1  0
 38 63  1  0
 38 64  1  0
 39 65  1  0
 39 66  1  0
 40 67  1  0
 40 68  1  0
 44 69  1  0
M  CHG  4   3  -1  21  -1  24  -1  42  -1
M  END
>  <UniqueID>  (47) 
46

>  <SMILES>  (47) 
CC[N-]C(=O)c1ccc(Oc2ccc(C(F)(F)F)cc2[N-]C(=O)[N-]c2ccc(Cl)c(S(=O)(=O)C3CCN(C)CC3)c2[O-])nc1

>  <Energy>  (47) 
95.05494492011903

>  <Genealogy>  (47) 
CC[N-]C(=O)c1ccc(Oc2ccc(C(F)(F)F)cc2[N-]C(=O)[N-]c2ccc(Cl)c(S(=O)(=O)C3CCN(C)CC3)c2[O-])nc1 (protonated)
CC[N-]C(=O)c1ccc(Oc2ccc(C(F)(F)F)cc2[N-]C(=O)[N-]c2ccc(Cl)c(S(=O)(=O)C3CCN(C)CC3)c2[O-])nc1 (3D coordinates assigned)
CC[N-]C(=O)c1ccc(Oc2ccc(C(F)(F)F)cc2[N-]C(=O)[N-]c2ccc(Cl)c(S(=O)(=O)C3CCN(C)CC3)c2[O-])nc1 (nonaromatic ring conformer: 95.05494492011903 kcal/mol)

>  <smiles>  (47) 
CCNC(=O)c1ccc(Oc2ccc(C(F)(F)F)cc2NC(=O)Nc2ccc(Cl)c(S(=O)(=O)C3CCN(C)CC3)c2O)nc1

>  <score_type>  (47) 
oracle

>  <origin>  (47) 
adgpu

>  <m_score__min__energy>  (47) 
-15.94

>  <m_primary>  (47) 
energy

$$$$
47:0
     RDKit          3D

 37 39  0  0  0  0  0  0  0  0999 V2000
   -8.5170   20.2070  -33.0680 N   0  0  0  0  0  0  0  0  0  0  0  0
   -6.9690   19.4390  -33.0340 S   0  0  0  0  0  0  0  0  0  0  0  0
   -7.0810   18.1200  -32.3230 O   0  0  0  0  0  0  0  0  0  0  0  0
   -6.5000   19.1910  -34.4390 O   0  0  0  0  0  0  0  0  0  0  0  0
   -5.8190   20.4740  -32.1940 C   0  0  0  0  0  0  0  0  0  0  0  0
   -6.2540   21.6560  -31.5810 C   0  0  0  0  0  0  0  0  0  0  0  0
   -5.3450   22.4740  -30.9030 C   0  0  0  0  0  0  0  0  0  0  0  0
   -3.9870   22.1200  -30.8270 C   0  0  0  0  0  0  0  0  0  0  0  0
   -3.0490   22.9520  -30.1200 N   0  0  0  0  0  0  0  0  0  0  0  0
   -2.0180   22.5180  -29.3580 C   0  0  0  0  0  0  0  0  0  0  0  0
   -1.3290   23.5990  -28.8240 C   0  0  0  0  0  0  0  0  0  0  0  0
   -0.1330   23.5540  -27.9590 C   0  0  0  0  0  0  0  0  0  0  0  0
    0.6810   24.5130  -27.9840 O   0  0  0  0  0  0  0  0  0  0  0  0
    0.1620   22.4200  -27.1340 N   0  0  0  0  0  0  0  0  0  0  0  0
   -0.5290   21.1620  -27.1490 C   0  0  0  0  0  0  0  0  0  0  0  0
   -1.8260   21.0310  -26.6250 C   0  0  0  0  0  0  0  0  0  0  0  0
   -2.4630   19.7890  -26.6400 C   0  0  0  0  0  0  0  0  0  0  0  0
   -1.7920   18.6830  -27.1630 C   0  0  0  0  0  0  0  0  0  0  0  0
   -0.5290   18.8190  -27.6450 N   0  0  0  0  0  0  0  0  0  0  0  0
    0.1150   20.0170  -27.6440 C   0  0  0  0  0  0  0  0  0  0  0  0
    1.7460   20.1060  -28.2870 Cl  0  0  0  0  0  0  0  0  0  0  0  0
   -1.9610   24.7280  -29.3080 C   0  0  0  0  0  0  0  0  0  0  0  0
   -1.6070   26.0480  -29.0550 O   0  0  0  0  0  0  0  0  0  0  0  0
   -3.0070   24.3030  -30.0940 C   0  0  0  0  0  0  0  0  0  0  0  0
   -3.8800   25.1310  -30.7940 O   0  0  0  0  0  0  0  0  0  0  0  0
   -3.5600   20.9240  -31.4310 C   0  0  0  0  0  0  0  0  0  0  0  0
   -4.4700   20.1080  -32.1100 C   0  0  0  0  0  0  0  0  0  0  0  0
   -8.9420   19.9940  -33.9980 H   0  0  0  0  0  0  0  0  0  0  0  0
   -7.3149   21.9418  -31.6332 H   0  0  0  0  0  0  0  0  0  0  0  0
   -5.6952   23.4011  -30.4257 H   0  0  0  0  0  0  0  0  0  0  0  0
   -1.7628   21.4618  -29.1865 H   0  0  0  0  0  0  0  0  0  0  0  0
   -2.3396   21.9073  -26.2028 H   0  0  0  0  0  0  0  0  0  0  0  0
   -3.4836   19.6832  -26.2435 H   0  0  0  0  0  0  0  0  0  0  0  0
   -2.2859   17.7004  -27.1851 H   0  0  0  0  0  0  0  0  0  0  0  0
   -3.5620   25.6750  -31.5870 H   0  0  0  0  0  0  0  0  0  0  0  0
   -2.5023   20.6283  -31.3688 H   0  0  0  0  0  0  0  0  0  0  0  0
   -4.1250   19.1752  -32.5799 H   0  0  0  0  0  0  0  0  0  0  0  0
  1  2  1  0
  2  3  2  0
  2  4  2  0
  2  5  1  0
  5  6  2  0
  6  7  1  0
  7  8  2  0
  8  9  1  0
  9 10  1  0
 10 11  2  0
 11 12  1  0
 12 13  2  0
 12 14  1  0
 14 15  1  0
 15 16  2  0
 16 17  1  0
 17 18  2  0
 18 19  1  0
 19 20  2  0
 20 21  1  0
 11 22  1  0
 22 23  1  0
 22 24  2  0
 24 25  1  0
  8 26  1  0
 26 27  2  0
 27  5  1  0
 24  9  1  0
 20 15  1  0
  1 28  1  0
  6 29  1  0
  7 30  1  0
 10 31  1  0
 16 32  1  0
 17 33  1  0
 18 34  1  0
 25 35  1  0
 26 36  1  0
 27 37  1  0
M  CHG  3   1  -1  14  -1  23  -1
M  END
>  <UniqueID>  (48) 
47

>  <SMILES>  (48) 
[NH-]S(=O)(=O)c1ccc(-n2cc(C(=O)[N-]c3cccnc3Cl)c([O-])c2O)cc1

>  <Energy>  (48) 
79.08074424071026

>  <Genealogy>  (48) 
[NH-]S(=O)(=O)c1ccc(-n2cc(C(=O)[N-]c3cccnc3Cl)c([O-])c2O)cc1 (protonated)
[NH-]S(=O)(=O)c1ccc(-n2cc(C(=O)[N-]c3cccnc3Cl)c([O-])c2O)cc1 (3D coordinates assigned)
[NH-]S(=O)(=O)c1ccc(-n2cc(C(=O)[N-]c3cccnc3Cl)c([O-])c2O)cc1 (optimized conformer: 79.08074424071026 kcal/mol)

>  <smiles>  (48) 
NS(=O)(=O)c1ccc(-n2cc(C(=O)Nc3cccnc3Cl)c(O)c2O)cc1

>  <score_type>  (48) 
oracle

>  <origin>  (48) 
adgpu

>  <m_score__min__energy>  (48) 
-12.06

>  <m_primary>  (48) 
energy

$$$$
