0:0
     RDKit          3D

 46 48  0  0  0  0  0  0  0  0999 V2000
   -7.8590   21.0324  -33.0926 H   0  0  0  0  0  0  0  0  0  0  0  0
   -7.2890   21.6010  -32.3430 C   0  0  0  0  0  0  0  0  0  0  0  0
   -7.9620   22.3690  -31.3930 C   0  0  0  0  0  0  0  0  0  0  0  0
   -9.0613   22.4073  -31.3956 H   0  0  0  0  0  0  0  0  0  0  0  0
   -7.2410   23.0890  -30.4390 C   0  0  0  0  0  0  0  0  0  0  0  0
   -7.7760   23.6993  -29.6965 H   0  0  0  0  0  0  0  0  0  0  0  0
   -5.8370   23.0400  -30.4200 C   0  0  0  0  0  0  0  0  0  0  0  0
   -5.0840   23.8580  -29.3990 C   0  0  0  0  0  0  0  0  0  0  0  0
   -5.8027   24.4199  -28.7844 H   0  0  0  0  0  0  0  0  0  0  0  0
   -4.4922   23.1795  -28.7670 H   0  0  0  0  0  0  0  0  0  0  0  0
   -4.1520   24.8250  -30.0790 C   0  0  0  0  0  0  0  0  0  0  0  0
   -4.6060   25.6100  -30.9530 O   0  0  0  0  0  0  0  0  0  0  0  0
   -2.7660   24.9160  -29.7220 N   0  0  0  0  0  0  0  0  0  0  0  0
   -2.1330   24.2720  -28.6080 C   0  0  0  0  0  0  0  0  0  0  0  0
   -1.4990   25.0110  -27.5940 C   0  0  0  0  0  0  0  0  0  0  0  0
   -1.4595   26.1084  -27.6583 H   0  0  0  0  0  0  0  0  0  0  0  0
   -0.9190   24.3560  -26.5050 C   0  0  0  0  0  0  0  0  0  0  0  0
   -0.4125   24.9377  -25.7207 H   0  0  0  0  0  0  0  0  0  0  0  0
   -0.9810   22.9630  -26.4100 C   0  0  0  0  0  0  0  0  0  0  0  0
   -0.5146   22.4498  -25.5562 H   0  0  0  0  0  0  0  0  0  0  0  0
   -1.6360   22.2190  -27.4000 C   0  0  0  0  0  0  0  0  0  0  0  0
   -1.7260   20.4660  -27.2590 S   0  0  0  0  0  0  0  0  0  0  0  0
   -1.4730   20.0340  -25.8420 O   0  0  0  0  0  0  0  0  0  0  0  0
   -3.0970   20.0120  -27.6730 O   0  0  0  0  0  0  0  0  0  0  0  0
   -0.5430   19.7320  -28.2910 N   0  0  0  0  0  0  0  0  0  0  0  0
   -0.0800   18.5420  -28.0750 C   0  0  0  0  0  0  0  0  0  0  0  0
   -0.4430   17.7660  -27.0800 O   0  0  0  0  0  0  0  0  0  0  0  0
    0.2030   16.6390  -27.1430 N   0  0  0  0  0  0  0  0  0  0  0  0
    0.0850   15.8450  -26.4770 H   0  0  0  0  0  0  0  0  0  0  0  0
    1.0210   16.6880  -28.2130 C   0  0  0  0  0  0  0  0  0  0  0  0
    1.8810   15.5590  -28.6740 C   0  0  0  0  0  0  0  0  0  0  0  0
    2.2865   15.0267  -27.8009 H   0  0  0  0  0  0  0  0  0  0  0  0
    1.2808   14.8648  -29.2805 H   0  0  0  0  0  0  0  0  0  0  0  0
    2.7097   15.9533  -29.2805 H   0  0  0  0  0  0  0  0  0  0  0  0
    0.8620   17.9040  -28.8550 C   0  0  0  0  0  0  0  0  0  0  0  0
    1.3631   18.2709  -29.7629 H   0  0  0  0  0  0  0  0  0  0  0  0
   -2.2150   22.8780  -28.4930 C   0  0  0  0  0  0  0  0  0  0  0  0
   -2.7378   22.2964  -29.2665 H   0  0  0  0  0  0  0  0  0  0  0  0
   -5.1520   22.2780  -31.3910 C   0  0  0  0  0  0  0  0  0  0  0  0
   -3.7470   22.2650  -31.3830 O   0  0  0  0  0  0  0  0  0  0  0  0
   -2.9480   21.0940  -31.5070 C   0  0  0  0  0  0  0  0  0  0  0  0
   -2.6912   20.7176  -30.5058 H   0  0  0  0  0  0  0  0  0  0  0  0
   -3.5095   20.3234  -32.0555 H   0  0  0  0  0  0  0  0  0  0  0  0
   -2.0257   21.3358  -32.0555 H   0  0  0  0  0  0  0  0  0  0  0  0
   -5.8930   21.5520  -32.3450 C   0  0  0  0  0  0  0  0  0  0  0  0
   -5.3687   20.9429  -33.0960 H   0  0  0  0  0  0  0  0  0  0  0  0
  1  2  1  0
  2  3  2  0
  3  4  1  0
  3  5  1  0
  5  6  1  0
  5  7  2  0
  7  8  1  0
  8  9  1  0
  8 10  1  0
  8 11  1  0
 11 12  2  0
 11 13  1  0
 13 14  1  0
 14 15  2  0
 15 16  1  0
 15 17  1  0
 17 18  1  0
 17 19  2  0
 19 20  1  0
 19 21  1  0
 21 22  1  0
 22 23  2  0
 22 24  2  0
 22 25  1  0
 25 26  2  0
 26 27  1  0
 27 28  1  0
 28 29  1  0
 28 30  1  0
 30 31  1  0
 31 32  1  0
 31 33  1  0
 31 34  1  0
 30 35  2  0
 35 36  1  0
 21 37  2  0
 37 38  1  0
  7 39  1  0
 39 40  1  0
 40 41  1  0
 41 42  1  0
 41 43  1  0
 41 44  1  0
 39 45  2  0
 45 46  1  0
 45  2  1  0
 37 14  1  0
 35 26  1  0
M  CHG  1  13  -1
M  END
>  <UniqueID>  (1) 
1

>  <SMILES>  (1) 
COc1ccccc1CC(=O)[N-]c1cccc(S(=O)(=O)/N=c2/cc(C)[nH]o2)c1

>  <Energy>  (1) 
84.81538322189233

>  <Genealogy>  (1) 
COc1ccccc1CC(=O)[N-]c1cccc(S(=O)(=O)N=c2cc(C)[nH]o2)c1 (protonated)
COc1ccccc1CC(=O)[N-]c1cccc(S(=O)(=O)/N=c2/cc(C)[nH]o2)c1 (cis-trans isomerization)
COc1ccccc1CC(=O)[N-]c1cccc(S(=O)(=O)/N=c2/cc(C)[nH]o2)c1 (3D coordinates assigned)
COc1ccccc1CC(=O)[N-]c1cccc(S(=O)(=O)/N=c2/cc(C)[nH]o2)c1 (optimized conformer: 84.81538322189233 kcal/mol)

>  <smiles>  (1) 
COc1ccccc1CC(=O)Nc1cccc(S(=O)(=O)N=c2cc(C)[nH]o2)c1

>  <score_type>  (1) 
oracle

>  <origin>  (1) 
adgpu

>  <m_score__min__energy>  (1) 
-10.75

>  <m_primary>  (1) 
energy

$$$$
1:0
     RDKit          3D

 41 43  0  0  0  0  0  0  0  0999 V2000
   -4.2210   25.6440  -30.5370 O   0  0  0  0  0  0  0  0  0  0  0  0
   -4.0180   24.4000  -30.4980 C   0  0  0  0  0  0  0  0  0  0  0  0
   -4.4960   23.5680  -31.5650 N   0  0  0  0  0  0  0  0  0  0  0  0
   -4.0050   22.2690  -31.9240 C   0  0  0  0  0  0  0  0  0  0  0  0
   -2.6730   22.0580  -32.3220 C   0  0  0  0  0  0  0  0  0  0  0  0
   -2.2430   20.7790  -32.6850 C   0  0  0  0  0  0  0  0  0  0  0  0
   -3.1360   19.7050  -32.6640 C   0  0  0  0  0  0  0  0  0  0  0  0
   -4.4700   19.9060  -32.2850 C   0  0  0  0  0  0  0  0  0  0  0  0
   -5.5990   18.5480  -32.2510 S   0  0  0  0  0  0  0  0  0  0  0  0
   -4.9950   17.3830  -32.9850 O   0  0  0  0  0  0  0  0  0  0  0  0
   -5.8290   18.1300  -30.8250 O   0  0  0  0  0  0  0  0  0  0  0  0
   -7.1300   18.9630  -32.9890 N   0  0  0  0  0  0  0  0  0  0  0  0
   -8.2500   18.4950  -32.1490 C   0  0  0  0  0  0  0  0  0  0  0  0
   -9.5380   19.2650  -32.4850 C   0  0  0  0  0  0  0  0  0  0  0  0
   -9.4420   20.6700  -32.2800 O   0  0  0  0  0  0  0  0  0  0  0  0
   -8.1120   21.1690  -32.3250 C   0  0  0  0  0  0  0  0  0  0  0  0
   -7.2100   20.4050  -33.3110 C   0  0  0  0  0  0  0  0  0  0  0  0
   -4.9010   21.1930  -31.9320 C   0  0  0  0  0  0  0  0  0  0  0  0
   -3.2330   23.8170  -29.3750 C   0  0  0  0  0  0  0  0  0  0  0  0
   -3.6300   22.5830  -28.8210 C   0  0  0  0  0  0  0  0  0  0  0  0
   -2.9160   22.0110  -27.7660 C   0  0  0  0  0  0  0  0  0  0  0  0
   -1.7960   22.6580  -27.2450 C   0  0  0  0  0  0  0  0  0  0  0  0
   -1.3850   23.8790  -27.7810 C   0  0  0  0  0  0  0  0  0  0  0  0
   -2.0910   24.4620  -28.8400 C   0  0  0  0  0  0  0  0  0  0  0  0
   -1.6380   25.6750  -29.3480 O   0  0  0  0  0  0  0  0  0  0  0  0
   -1.9678   22.9018  -32.3477 H   0  0  0  0  0  0  0  0  0  0  0  0
   -1.1981   20.6174  -32.9882 H   0  0  0  0  0  0  0  0  0  0  0  0
   -2.7912   18.6991  -32.9456 H   0  0  0  0  0  0  0  0  0  0  0  0
   -8.4130   17.4221  -32.3290 H   0  0  0  0  0  0  0  0  0  0  0  0
   -7.9979   18.6700  -31.0927 H   0  0  0  0  0  0  0  0  0  0  0  0
   -9.7826   19.0855  -33.5423 H   0  0  0  0  0  0  0  0  0  0  0  0
  -10.3171   18.8959  -31.8018 H   0  0  0  0  0  0  0  0  0  0  0  0
   -8.1453   22.2257  -32.6287 H   0  0  0  0  0  0  0  0  0  0  0  0
   -7.6809   21.0406  -31.3212 H   0  0  0  0  0  0  0  0  0  0  0  0
   -7.6174   20.5197  -34.3263 H   0  0  0  0  0  0  0  0  0  0  0  0
   -6.1961   20.8253  -33.2381 H   0  0  0  0  0  0  0  0  0  0  0  0
   -5.9535   21.3589  -31.6587 H   0  0  0  0  0  0  0  0  0  0  0  0
   -4.5124   22.0647  -29.2244 H   0  0  0  0  0  0  0  0  0  0  0  0
   -3.2380   21.0472  -27.3447 H   0  0  0  0  0  0  0  0  0  0  0  0
   -1.2370   22.2063  -26.4123 H   0  0  0  0  0  0  0  0  0  0  0  0
   -0.5005   24.3867  -27.3688 H   0  0  0  0  0  0  0  0  0  0  0  0
  1  2  2  0
  2  3  1  0
  3  4  1  0
  4  5  2  0
  5  6  1  0
  6  7  2  0
  7  8  1  0
  8  9  1  0
  9 10  2  0
  9 11  2  0
  9 12  1  0
 12 13  1  0
 13 14  1  0
 14 15  1  0
 15 16  1  0
 16 17  1  0
  8 18  2  0
  2 19  1  0
 19 20  2  0
 20 21  1  0
 21 22  2  0
 22 23  1  0
 23 24  2  0
 24 25  1  0
 18  4  1  0
 24 19  1  0
 17 12  1  0
  5 26  1  0
  6 27  1  0
  7 28  1  0
 13 29  1  0
 13 30  1  0
 14 31  1  0
 14 32  1  0
 16 33  1  0
 16 34  1  0
 17 35  1  0
 17 36  1  0
 18 37  1  0
 20 38  1  0
 21 39  1  0
 22 40  1  0
 23 41  1  0
M  CHG  2   3  -1  25  -1
M  END
>  <UniqueID>  (2) 
2

>  <SMILES>  (2) 
O=C([N-]c1cccc(S(=O)(=O)N2CCOCC2)c1)c1ccccc1[O-]

>  <Energy>  (2) 
60.77481503809841

>  <Genealogy>  (2) 
O=C([N-]c1cccc(S(=O)(=O)N2CCOCC2)c1)c1ccccc1[O-] (protonated)
O=C([N-]c1cccc(S(=O)(=O)N2CCOCC2)c1)c1ccccc1[O-] (3D coordinates assigned)
O=C([N-]c1cccc(S(=O)(=O)N2CCOCC2)c1)c1ccccc1[O-] (nonaromatic ring conformer: 60.77481503809841 kcal/mol)

>  <smiles>  (2) 
O=C(Nc1cccc(S(=O)(=O)N2CCOCC2)c1)c1ccccc1O

>  <score_type>  (2) 
oracle

>  <origin>  (2) 
adgpu

>  <m_score__min__energy>  (2) 
-13.26

>  <m_primary>  (2) 
energy

$$$$
2:0
     RDKit          3D

 38 40  0  0  0  0  0  0  0  0999 V2000
   -3.2277   14.6644  -34.8567 H   0  0  0  0  0  0  0  0  0  0  0  0
   -4.2560   14.9430  -34.5830 C   0  0  0  0  0  0  0  0  0  0  0  0
   -4.5430   16.2270  -34.2370 N   0  0  0  0  0  0  0  0  0  0  0  0
   -5.8020   16.6210  -33.8930 C   0  0  0  0  0  0  0  0  0  0  0  0
   -6.0530   18.0290  -33.5210 C   0  0  0  0  0  0  0  0  0  0  0  0
   -7.2330   18.4170  -33.3030 O   0  0  0  0  0  0  0  0  0  0  0  0
   -4.9640   18.9650  -33.4450 N   0  0  0  0  0  0  0  0  0  0  0  0
   -4.0750   18.7310  -33.9430 H   0  0  0  0  0  0  0  0  0  0  0  0
   -5.0610   20.2610  -32.8290 C   0  0  0  0  0  0  0  0  0  0  0  0
   -4.0100   20.7180  -32.0180 C   0  0  0  0  0  0  0  0  0  0  0  0
   -3.1171   20.0913  -31.8768 H   0  0  0  0  0  0  0  0  0  0  0  0
   -4.0900   21.9630  -31.3890 C   0  0  0  0  0  0  0  0  0  0  0  0
   -3.2550   22.3176  -30.7669 H   0  0  0  0  0  0  0  0  0  0  0  0
   -5.2300   22.7610  -31.5480 C   0  0  0  0  0  0  0  0  0  0  0  0
   -5.3430   24.3260  -30.7480 S   0  0  0  0  0  0  0  0  0  0  0  0
   -6.0620   24.1490  -29.4400 O   0  0  0  0  0  0  0  0  0  0  0  0
   -6.1080   25.3030  -31.5970 O   0  0  0  0  0  0  0  0  0  0  0  0
   -3.7550   24.9610  -30.4380 N   0  0  0  0  0  0  0  0  0  0  0  0
   -3.0020   24.7000  -29.4090 C   0  0  0  0  0  0  0  0  0  0  0  0
   -1.7830   25.3000  -29.3290 N   0  0  0  0  0  0  0  0  0  0  0  0
   -0.9350   25.0890  -28.2880 C   0  0  0  0  0  0  0  0  0  0  0  0
    0.0416   25.5947  -28.2635 H   0  0  0  0  0  0  0  0  0  0  0  0
   -1.3020   24.2320  -27.2510 C   0  0  0  0  0  0  0  0  0  0  0  0
   -0.6207   24.0585  -26.4050 H   0  0  0  0  0  0  0  0  0  0  0  0
   -2.5420   23.5980  -27.2990 C   0  0  0  0  0  0  0  0  0  0  0  0
   -2.8440   22.9187  -26.4882 H   0  0  0  0  0  0  0  0  0  0  0  0
   -3.4020   23.8250  -28.3770 C   0  0  0  0  0  0  0  0  0  0  0  0
   -4.3814   23.3262  -28.4205 H   0  0  0  0  0  0  0  0  0  0  0  0
   -6.2890   22.3040  -32.3430 C   0  0  0  0  0  0  0  0  0  0  0  0
   -7.1858   22.9278  -32.4719 H   0  0  0  0  0  0  0  0  0  0  0  0
   -6.2110   21.0590  -32.9730 C   0  0  0  0  0  0  0  0  0  0  0  0
   -7.0526   20.7012  -33.5843 H   0  0  0  0  0  0  0  0  0  0  0  0
   -6.8400   15.6720  -33.8900 C   0  0  0  0  0  0  0  0  0  0  0  0
   -7.8620   15.9699  -33.6131 H   0  0  0  0  0  0  0  0  0  0  0  0
   -6.5640   14.3490  -34.2410 C   0  0  0  0  0  0  0  0  0  0  0  0
   -7.3693   13.5997  -34.2416 H   0  0  0  0  0  0  0  0  0  0  0  0
   -5.2650   13.9790  -34.5910 C   0  0  0  0  0  0  0  0  0  0  0  0
   -5.0388   12.9393  -34.8700 H   0  0  0  0  0  0  0  0  0  0  0  0
  1  2  1  0
  2  3  2  0
  3  4  1  0
  4  5  1  0
  5  6  2  0
  5  7  1  0
  7  8  1  0
  7  9  1  0
  9 10  2  0
 10 11  1  0
 10 12  1  0
 12 13  1  0
 12 14  2  0
 14 15  1  0
 15 16  2  0
 15 17  2  0
 15 18  1  0
 18 19  2  0
 19 20  1  0
 20 21  1  0
 21 22  1  0
 21 23  2  0
 23 24  1  0
 23 25  1  0
 25 26  1  0
 25 27  2  0
 27 28  1  0
 14 29  1  0
 29 30  1  0
 29 31  2  0
 31 32  1  0
  4 33  2  0
 33 34  1  0
 33 35  1  0
 35 36  1  0
 35 37  2  0
 37 38  1  0
 37  2  1  0
 31  9  1  0
 27 19  1  0
M  CHG  1  20  -1
M  END
>  <UniqueID>  (3) 
3

>  <SMILES>  (3) 
O=C(Nc1ccc(S(=O)(=O)/N=c2\cccc[n-]2)cc1)c1ccccn1

>  <Energy>  (3) 
51.471505404459805

>  <Genealogy>  (3) 
O=C(Nc1ccc(S(=O)(=O)N=c2cccc[n-]2)cc1)c1ccccn1 (protonated)
O=C(Nc1ccc(S(=O)(=O)/N=c2\cccc[n-]2)cc1)c1ccccn1 (cis-trans isomerization)
O=C(Nc1ccc(S(=O)(=O)/N=c2\cccc[n-]2)cc1)c1ccccn1 (3D coordinates assigned)
O=C(Nc1ccc(S(=O)(=O)/N=c2\cccc[n-]2)cc1)c1ccccn1 (optimized conformer: 51.471505404459805 kcal/mol)

>  <smiles>  (3) 
O=C(Nc1ccc(S(=O)(=O)N=c2cccc[nH]2)cc1)c1ccccn1

>  <score_type>  (3) 
oracle

>  <origin>  (3) 
adgpu

>  <m_score__min__energy>  (3) 
-9.6400000000000006

>  <m_primary>  (3) 
energy

$$$$
3:0
     RDKit          3D

 39 41  0  0  0  0  0  0  0  0999 V2000
    1.0620   19.1760  -27.5390 O   0  0  0  0  0  0  0  0  0  0  0  0
    0.5810   18.4730  -28.4690 C   0  0  0  0  0  0  0  0  0  0  0  0
   -0.2760   19.0730  -29.4570 N   0  0  0  0  0  0  0  0  0  0  0  0
   -0.8450   20.3880  -29.3340 C   0  0  0  0  0  0  0  0  0  0  0  0
   -1.6470   20.7380  -28.2310 C   0  0  0  0  0  0  0  0  0  0  0  0
   -2.2110   22.0160  -28.1470 C   0  0  0  0  0  0  0  0  0  0  0  0
   -1.9880   22.9520  -29.1640 C   0  0  0  0  0  0  0  0  0  0  0  0
   -2.7050   24.5560  -29.0520 S   0  0  0  0  0  0  0  0  0  0  0  0
   -1.6380   25.6080  -28.9570 O   0  0  0  0  0  0  0  0  0  0  0  0
   -3.5600   24.6270  -27.8210 O   0  0  0  0  0  0  0  0  0  0  0  0
   -3.6830   24.8710  -30.4490 N   0  0  0  0  0  0  0  0  0  0  0  0
   -4.7620   24.0380  -30.9020 C   0  0  0  0  0  0  0  0  0  0  0  0
   -4.5370   22.9460  -31.7590 C   0  0  0  0  0  0  0  0  0  0  0  0
   -5.6120   22.1770  -32.2160 C   0  0  0  0  0  0  0  0  0  0  0  0
   -6.9160   22.4920  -31.8330 C   0  0  0  0  0  0  0  0  0  0  0  0
   -7.1510   23.5670  -30.9760 C   0  0  0  0  0  0  0  0  0  0  0  0
   -6.0780   24.3360  -30.5060 C   0  0  0  0  0  0  0  0  0  0  0  0
   -6.4110   25.6960  -29.4440 Cl  0  0  0  0  0  0  0  0  0  0  0  0
   -1.2060   22.5980  -30.2710 C   0  0  0  0  0  0  0  0  0  0  0  0
   -0.6460   21.3220  -30.3600 C   0  0  0  0  0  0  0  0  0  0  0  0
    0.9780   17.0530  -28.5860 C   0  0  0  0  0  0  0  0  0  0  0  0
    1.3660   16.5120  -29.8230 C   0  0  0  0  0  0  0  0  0  0  0  0
    1.7540   15.2110  -29.9090 N   0  0  0  0  0  0  0  0  0  0  0  0
    1.7850   14.3970  -28.8200 C   0  0  0  0  0  0  0  0  0  0  0  0
    1.4010   14.8870  -27.5710 C   0  0  0  0  0  0  0  0  0  0  0  0
    1.4140   13.7430  -26.0370 Br  0  0  0  0  0  0  0  0  0  0  0  0
    0.9920   16.2180  -27.4560 C   0  0  0  0  0  0  0  0  0  0  0  0
   -0.3590   18.5960  -30.3830 H   0  0  0  0  0  0  0  0  0  0  0  0
   -1.8309   20.0043  -27.4324 H   0  0  0  0  0  0  0  0  0  0  0  0
   -2.8312   22.2859  -27.2795 H   0  0  0  0  0  0  0  0  0  0  0  0
   -3.5122   22.6959  -32.0709 H   0  0  0  0  0  0  0  0  0  0  0  0
   -5.4285   21.3198  -32.8805 H   0  0  0  0  0  0  0  0  0  0  0  0
   -7.7590   21.8924  -32.2070 H   0  0  0  0  0  0  0  0  0  0  0  0
   -8.1787   23.8112  -30.6690 H   0  0  0  0  0  0  0  0  0  0  0  0
   -1.0322   23.3290  -31.0743 H   0  0  0  0  0  0  0  0  0  0  0  0
   -0.0455   21.0483  -31.2400 H   0  0  0  0  0  0  0  0  0  0  0  0
    1.3560   17.1421  -30.7246 H   0  0  0  0  0  0  0  0  0  0  0  0
    2.1128   13.3521  -28.9237 H   0  0  0  0  0  0  0  0  0  0  0  0
    0.6801   16.6133  -26.4780 H   0  0  0  0  0  0  0  0  0  0  0  0
  1  2  2  0
  2  3  1  0
  3  4  1  0
  4  5  2  0
  5  6  1  0
  6  7  2  0
  7  8  1  0
  8  9  2  0
  8 10  2  0
  8 11  1  0
 11 12  1  0
 12 13  2  0
 13 14  1  0
 14 15  2  0
 15 16  1  0
 16 17  2  0
 17 18  1  0
  7 19  1  0
 19 20  2  0
  2 21  1  0
 21 22  2  0
 22 23  1  0
 23 24  2  0
 24 25  1  0
 25 26  1  0
 25 27  2  0
 20  4  1  0
 27 21  1  0
 17 12  1  0
  3 28  1  0
  5 29  1  0
  6 30  1  0
 13 31  1  0
 14 32  1  0
 15 33  1  0
 16 34  1  0
 19 35  1  0
 20 36  1  0
 22 37  1  0
 24 38  1  0
 27 39  1  0
M  CHG  1  11  -1
M  END
>  <UniqueID>  (4) 
4

>  <SMILES>  (4) 
O=C(Nc1ccc(S(=O)(=O)[N-]c2ccccc2Cl)cc1)c1cncc(Br)c1

>  <Energy>  (4) 
52.627488275375256

>  <Genealogy>  (4) 
O=C(Nc1ccc(S(=O)(=O)[N-]c2ccccc2Cl)cc1)c1cncc(Br)c1 (protonated)
O=C(Nc1ccc(S(=O)(=O)[N-]c2ccccc2Cl)cc1)c1cncc(Br)c1 (3D coordinates assigned)
O=C(Nc1ccc(S(=O)(=O)[N-]c2ccccc2Cl)cc1)c1cncc(Br)c1 (optimized conformer: 52.627488275375256 kcal/mol)

>  <smiles>  (4) 
O=C(Nc1ccc(S(=O)(=O)Nc2ccccc2Cl)cc1)c1cncc(Br)c1

>  <score_type>  (4) 
oracle

>  <origin>  (4) 
adgpu

>  <m_score__min__energy>  (4) 
-9.8200000000000003

>  <m_primary>  (4) 
energy

$$$$
4:0
     RDKit          3D

 64 68  0  0  0  0  0  0  0  0999 V2000
    1.3638   20.2232  -27.2107 H   0  0  0  0  0  0  0  0  0  0  0  0
    1.0400   19.7910  -28.1690 C   0  0  0  0  0  0  0  0  0  0  0  0
   -0.3190   19.6730  -28.4750 C   0  0  0  0  0  0  0  0  0  0  0  0
   -1.5630   20.1730  -27.2860 S   0  0  0  0  0  0  0  0  0  0  0  0
   -2.0690   21.6300  -28.2040 C   0  0  0  0  0  0  0  0  0  0  0  0
   -3.1220   22.4170  -27.7230 C   0  0  0  0  0  0  0  0  0  0  0  0
   -3.6059   22.1613  -26.7688 H   0  0  0  0  0  0  0  0  0  0  0  0
   -3.5600   23.5250  -28.4500 C   0  0  0  0  0  0  0  0  0  0  0  0
   -4.3554   24.1668  -28.0432 H   0  0  0  0  0  0  0  0  0  0  0  0
   -2.9920   23.8240  -29.6950 C   0  0  0  0  0  0  0  0  0  0  0  0
   -3.4970   24.9410  -30.4380 N   0  0  0  0  0  0  0  0  0  0  0  0
   -4.8810   25.1730  -30.7250 C   0  0  0  0  0  0  0  0  0  0  0  0
   -5.3560   26.3260  -30.5310 O   0  0  0  0  0  0  0  0  0  0  0  0
   -5.7790   24.0340  -31.1550 C   0  0  0  0  0  0  0  0  0  0  0  0
   -5.1933   23.7878  -32.0529 H   0  0  0  0  0  0  0  0  0  0  0  0
   -7.2490   24.2150  -30.8350 C   0  0  0  0  0  0  0  0  0  0  0  0
   -7.5964   25.1432  -30.3578 H   0  0  0  0  0  0  0  0  0  0  0  0
   -8.1810   24.1632  -31.4171 H   0  0  0  0  0  0  0  0  0  0  0  0
   -6.4260   23.2140  -30.0380 C   0  0  0  0  0  0  0  0  0  0  0  0
   -6.1749   23.4196  -28.9870 H   0  0  0  0  0  0  0  0  0  0  0  0
   -6.5117   22.1421  -29.8061 H   0  0  0  0  0  0  0  0  0  0  0  0
   -1.9360   23.0350  -30.1830 C   0  0  0  0  0  0  0  0  0  0  0  0
   -1.4769   23.2702  -31.1545 H   0  0  0  0  0  0  0  0  0  0  0  0
   -1.4680   21.9480  -29.4310 C   0  0  0  0  0  0  0  0  0  0  0  0
   -0.6280   21.3435  -29.8039 H   0  0  0  0  0  0  0  0  0  0  0  0
   -0.6980   19.0950  -29.6460 N   0  0  0  0  0  0  0  0  0  0  0  0
    0.2280   18.6430  -30.5390 C   0  0  0  0  0  0  0  0  0  0  0  0
   -0.1900   17.9390  -31.7170 N   0  0  0  0  0  0  0  0  0  0  0  0
   -1.2800   18.1950  -32.3730 C   0  0  0  0  0  0  0  0  0  0  0  0
   -2.0400   19.2830  -32.0640 N   0  0  0  0  0  0  0  0  0  0  0  0
   -3.1520   19.6000  -32.7780 C   0  0  0  0  0  0  0  0  0  0  0  0
   -3.8770   20.8060  -32.4610 N   0  0  0  0  0  0  0  0  0  0  0  0
   -3.8630   21.9070  -33.4370 C   0  0  0  0  0  0  0  0  0  0  0  0
   -3.8508   22.8692  -32.9041 H   0  0  0  0  0  0  0  0  0  0  0  0
   -2.9658   21.8260  -34.0683 H   0  0  0  0  0  0  0  0  0  0  0  0
   -4.7620   21.8489  -34.0683 H   0  0  0  0  0  0  0  0  0  0  0  0
   -4.8460   20.7990  -31.3460 C   0  0  0  0  0  0  0  0  0  0  0  0
   -4.4069   20.2537  -30.4976 H   0  0  0  0  0  0  0  0  0  0  0  0
   -5.0632   21.8437  -31.0788 H   0  0  0  0  0  0  0  0  0  0  0  0
   -6.1440   20.1380  -31.7290 C   0  0  0  0  0  0  0  0  0  0  0  0
   -6.2770   18.7430  -31.6470 C   0  0  0  0  0  0  0  0  0  0  0  0
   -5.4436   18.1331  -31.2682 H   0  0  0  0  0  0  0  0  0  0  0  0
   -7.4670   18.1280  -32.0460 C   0  0  0  0  0  0  0  0  0  0  0  0
   -7.5726   17.0358  -31.9689 H   0  0  0  0  0  0  0  0  0  0  0  0
   -8.5260   18.8990  -32.5440 C   0  0  0  0  0  0  0  0  0  0  0  0
   -9.4643   18.4124  -32.8485 H   0  0  0  0  0  0  0  0  0  0  0  0
   -8.3910   20.2850  -32.6540 C   0  0  0  0  0  0  0  0  0  0  0  0
   -9.2161   20.8883  -33.0606 H   0  0  0  0  0  0  0  0  0  0  0  0
   -7.2040   20.9050  -32.2460 C   0  0  0  0  0  0  0  0  0  0  0  0
   -7.0997   21.9968  -32.3300 H   0  0  0  0  0  0  0  0  0  0  0  0
   -3.5340   18.7780  -33.8480 C   0  0  0  0  0  0  0  0  0  0  0  0
   -4.4372   19.0038  -34.4338 H   0  0  0  0  0  0  0  0  0  0  0  0
   -2.7440   17.6650  -34.1560 C   0  0  0  0  0  0  0  0  0  0  0  0
   -3.1030   16.7720  -35.3030 C   0  0  0  0  0  0  0  0  0  0  0  0
   -3.4872   15.8162  -34.9172 H   0  0  0  0  0  0  0  0  0  0  0  0
   -3.8761   17.2569  -35.9172 H   0  0  0  0  0  0  0  0  0  0  0  0
   -2.2094   16.5869  -35.9172 H   0  0  0  0  0  0  0  0  0  0  0  0
   -1.6290   17.4080  -33.4240 N   0  0  0  0  0  0  0  0  0  0  0  0
    1.5540   18.7510  -30.2530 N   0  0  0  0  0  0  0  0  0  0  0  0
    1.9810   19.3480  -29.1070 C   0  0  0  0  0  0  0  0  0  0  0  0
    3.4470   19.4690  -28.8270 C   0  0  0  0  0  0  0  0  0  0  0  0
    3.6127   19.4827  -27.7396 H   0  0  0  0  0  0  0  0  0  0  0  0
    3.9765   18.6115  -29.2678 H   0  0  0  0  0  0  0  0  0  0  0  0
    3.8287   20.4017  -29.2678 H   0  0  0  0  0  0  0  0  0  0  0  0
  1  2  1  0
  2  3  2  0
  3  4  1  0
  4  5  1  0
  5  6  2  0
  6  7  1  0
  6  8  1  0
  8  9  1  0
  8 10  2  0
 10 11  1  0
 11 12  1  0
 12 13  2  0
 12 14  1  0
 14 15  1  0
 14 16  1  0
 16 17  1  0
 16 18  1  0
 16 19  1  0
 19 20  1  0
 19 21  1  0
 10 22  1  0
 22 23  1  0
 22 24  2  0
 24 25  1  0
  3 26  1  0
 26 27  2  0
 27 28  1  0
 28 29  2  0
 29 30  1  0
 30 31  2  0
 31 32  1  0
 32 33  1  0
 33 34  1  0
 33 35  1  0
 33 36  1  0
 32 37  1  0
 37 38  1  0
 37 39  1  0
 37 40  1  0
 40 41  2  0
 41 42  1  0
 41 43  1  0
 43 44  1  0
 43 45  2  0
 45 46  1  0
 45 47  1  0
 47 48  1  0
 47 49  2  0
 49 50  1  0
 31 51  1  0
 51 52  1  0
 51 53  2  0
 53 54  1  0
 54 55  1  0
 54 56  1  0
 54 57  1  0
 53 58  1  0
 27 59  1  0
 59 60  2  0
 60 61  1  0
 61 62  1  0
 61 63  1  0
 61 64  1  0
 60  2  1  0
 24  5  1  0
 58 29  1  0
 19 14  1  0
 49 40  1  0
M  CHG  2  11  -1  58  -1
M  END
>  <UniqueID>  (5) 
5

>  <SMILES>  (5) 
Cc1cc(Sc2ccc([N-]C(=O)C3CC3)cc2)nc(/N=c2\nc(N(C)Cc3ccccc3)cc(C)[n-]2)n1

>  <Energy>  (5) 
339.44836518836405

>  <Genealogy>  (5) 
Cc1cc(Sc2ccc([N-]C(=O)C3CC3)cc2)nc(N=c2nc(N(C)Cc3ccccc3)cc(C)[n-]2)n1 (protonated)
Cc1cc(Sc2ccc([N-]C(=O)C3CC3)cc2)nc(/N=c2\nc(N(C)Cc3ccccc3)cc(C)[n-]2)n1 (cis-trans isomerization)
Cc1cc(Sc2ccc([N-]C(=O)C3CC3)cc2)nc(/N=c2\nc(N(C)Cc3ccccc3)cc(C)[n-]2)n1 (3D coordinates assigned)
Cc1cc(Sc2ccc([N-]C(=O)C3CC3)cc2)nc(/N=c2\nc(N(C)Cc3ccccc3)cc(C)[n-]2)n1 (nonaromatic ring conformer: 339.44836518836405 kcal/mol)

>  <smiles>  (5) 
Cc1cc(Sc2ccc(NC(=O)C3CC3)cc2)nc(N=c2nc(N(C)Cc3ccccc3)cc(C)[nH]2)n1

>  <score_type>  (5) 
oracle

>  <origin>  (5) 
adgpu

>  <m_score__min__energy>  (5) 
-12.44

>  <m_primary>  (5) 
energy

$$$$
5:0
     RDKit          3D

 62 65  0  0  0  0  0  0  0  0999 V2000
   -1.1950   26.1400  -28.1950 C   0  0  0  0  0  0  0  0  0  0  0  0
   -1.3710   24.6500  -28.2250 C   0  0  0  0  0  0  0  0  0  0  0  0
   -0.4950   23.8200  -27.5140 C   0  0  0  0  0  0  0  0  0  0  0  0
   -0.6740   22.4350  -27.5230 C   0  0  0  0  0  0  0  0  0  0  0  0
   -1.7380   21.8560  -28.2320 C   0  0  0  0  0  0  0  0  0  0  0  0
   -1.8670   20.3570  -28.2570 C   0  0  0  0  0  0  0  0  0  0  0  0
   -2.6640   22.6950  -28.8950 C   0  0  0  0  0  0  0  0  0  0  0  0
   -3.7960   22.1620  -29.5980 N   0  0  0  0  0  0  0  0  0  0  0  0
   -4.5420   22.9340  -30.5520 C   0  0  0  0  0  0  0  0  0  0  0  0
   -4.0580   24.0130  -30.9920 O   0  0  0  0  0  0  0  0  0  0  0  0
   -5.8590   22.4680  -31.0480 C   0  0  0  0  0  0  0  0  0  0  0  0
   -6.8750   23.3860  -31.3730 C   0  0  0  0  0  0  0  0  0  0  0  0
   -8.1130   22.9340  -31.8390 C   0  0  0  0  0  0  0  0  0  0  0  0
   -8.3500   21.5680  -31.9940 C   0  0  0  0  0  0  0  0  0  0  0  0
   -7.3450   20.6420  -31.6940 C   0  0  0  0  0  0  0  0  0  0  0  0
   -7.6560   18.9170  -31.8810 S   0  0  0  0  0  0  0  0  0  0  0  0
   -6.8320   18.1750  -30.8660 O   0  0  0  0  0  0  0  0  0  0  0  0
   -9.1070   18.6400  -31.6020 O   0  0  0  0  0  0  0  0  0  0  0  0
   -7.2060   18.3970  -33.4920 N   0  0  0  0  0  0  0  0  0  0  0  0
   -6.6390   17.0350  -33.5240 C   0  0  0  0  0  0  0  0  0  0  0  0
   -5.1690   16.9980  -33.0930 C   0  0  0  0  0  0  0  0  0  0  0  0
   -4.3860   17.9350  -33.9150 N   0  0  0  0  0  0  0  0  0  0  0  0
   -2.9270   17.8250  -33.6860 C   0  0  0  0  0  0  0  0  0  0  0  0
   -2.2640   19.1310  -33.3000 C   0  0  0  0  0  0  0  0  0  0  0  0
   -2.3600   19.6160  -31.9840 C   0  0  0  0  0  0  0  0  0  0  0  0
   -1.7390   20.8170  -31.6270 C   0  0  0  0  0  0  0  0  0  0  0  0
   -1.0240   21.5470  -32.5810 C   0  0  0  0  0  0  0  0  0  0  0  0
   -0.9330   21.0780  -33.8940 C   0  0  0  0  0  0  0  0  0  0  0  0
   -1.5520   19.8780  -34.2550 C   0  0  0  0  0  0  0  0  0  0  0  0
   -4.8860   19.3130  -33.7660 C   0  0  0  0  0  0  0  0  0  0  0  0
   -6.3600   19.3840  -34.1920 C   0  0  0  0  0  0  0  0  0  0  0  0
   -6.1040   21.0930  -31.2210 C   0  0  0  0  0  0  0  0  0  0  0  0
   -2.4580   24.0830  -28.9030 C   0  0  0  0  0  0  0  0  0  0  0  0
   -1.1544   26.4835  -27.1508 H   0  0  0  0  0  0  0  0  0  0  0  0
   -0.2588   26.4090  -28.7061 H   0  0  0  0  0  0  0  0  0  0  0  0
   -2.0427   26.6197  -28.7061 H   0  0  0  0  0  0  0  0  0  0  0  0
    0.3375   24.2609  -26.9461 H   0  0  0  0  0  0  0  0  0  0  0  0
    0.0256   21.7917  -26.9691 H   0  0  0  0  0  0  0  0  0  0  0  0
   -1.8999   19.9746  -27.2261 H   0  0  0  0  0  0  0  0  0  0  0  0
   -2.7925   20.0773  -28.7816 H   0  0  0  0  0  0  0  0  0  0  0  0
   -1.0029   19.9233  -28.7816 H   0  0  0  0  0  0  0  0  0  0  0  0
   -3.9320   21.1250  -29.5850 H   0  0  0  0  0  0  0  0  0  0  0  0
   -6.6940   24.4651  -31.2597 H   0  0  0  0  0  0  0  0  0  0  0  0
   -8.9036   23.6584  -32.0845 H   0  0  0  0  0  0  0  0  0  0  0  0
   -9.3292   21.2182  -32.3529 H   0  0  0  0  0  0  0  0  0  0  0  0
   -7.2214   16.3950  -32.8449 H   0  0  0  0  0  0  0  0  0  0  0  0
   -6.6905   16.6772  -34.5629 H   0  0  0  0  0  0  0  0  0  0  0  0
   -5.0911   17.2874  -32.0346 H   0  0  0  0  0  0  0  0  0  0  0  0
   -4.7759   15.9796  -33.2280 H   0  0  0  0  0  0  0  0  0  0  0  0
   -2.7575   17.0988  -32.8774 H   0  0  0  0  0  0  0  0  0  0  0  0
   -2.4780   17.5096  -34.6394 H   0  0  0  0  0  0  0  0  0  0  0  0
   -2.9264   19.0479  -31.2314 H   0  0  0  0  0  0  0  0  0  0  0  0
   -1.8132   21.1878  -30.5941 H   0  0  0  0  0  0  0  0  0  0  0  0
   -0.5334   22.4900  -32.2982 H   0  0  0  0  0  0  0  0  0  0  0  0
   -0.3730   21.6544  -34.6451 H   0  0  0  0  0  0  0  0  0  0  0  0
   -1.4818   19.5162  -35.2914 H   0  0  0  0  0  0  0  0  0  0  0  0
   -4.7952   19.6221  -32.7142 H   0  0  0  0  0  0  0  0  0  0  0  0
   -4.2923   19.9843  -34.4038 H   0  0  0  0  0  0  0  0  0  0  0  0
   -6.7411   20.3922  -33.9724 H   0  0  0  0  0  0  0  0  0  0  0  0
   -6.4054   19.1559  -35.2671 H   0  0  0  0  0  0  0  0  0  0  0  0
   -5.3146   20.3649  -30.9830 H   0  0  0  0  0  0  0  0  0  0  0  0
   -3.1581   24.7334  -29.4479 H   0  0  0  0  0  0  0  0  0  0  0  0
  1  2  1  0
  2  3  2  0
  3  4  1  0
  4  5  2  0
  5  6  1  0
  5  7  1  0
  7  8  1  0
  8  9  1  0
  9 10  2  0
  9 11  1  0
 11 12  2  0
 12 13  1  0
 13 14  2  0
 14 15  1  0
 15 16  1  0
 16 17  2  0
 16 18  2  0
 16 19  1  0
 19 20  1  0
 20 21  1  0
 21 22  1  0
 22 23  1  0
 23 24  1  0
 24 25  2  0
 25 26  1  0
 26 27  2  0
 27 28  1  0
 28 29  2  0
 22 30  1  0
 30 31  1  0
 15 32  2  0
  7 33  2  0
 33  2  1  0
 32 11  1  0
 31 19  1  0
 29 24  1  0
  1 34  1  0
  1 35  1  0
  1 36  1  0
  3 37  1  0
  4 38  1  0
  6 39  1  0
  6 40  1  0
  6 41  1  0
  8 42  1  0
 12 43  1  0
 13 44  1  0
 14 45  1  0
 20 46  1  0
 20 47  1  0
 21 48  1  0
 21 49  1  0
 23 50  1  0
 23 51  1  0
 25 52  1  0
 26 53  1  0
 27 54  1  0
 28 55  1  0
 29 56  1  0
 30 57  1  0
 30 58  1  0
 31 59  1  0
 31 60  1  0
 32 61  1  0
 33 62  1  0
M  END
>  <UniqueID>  (6) 
6

>  <SMILES>  (6) 
Cc1ccc(C)c(NC(=O)c2cccc(S(=O)(=O)N3CCN(Cc4ccccc4)CC3)c2)c1

>  <Energy>  (6) 
77.28438900231745

>  <Genealogy>  (6) 
Cc1ccc(C)c(NC(=O)c2cccc(S(=O)(=O)N3CCN(Cc4ccccc4)CC3)c2)c1 (3D coordinates assigned)
Cc1ccc(C)c(NC(=O)c2cccc(S(=O)(=O)N3CCN(Cc4ccccc4)CC3)c2)c1 (nonaromatic ring conformer: 77.28438900231745 kcal/mol)

>  <smiles>  (6) 
Cc1ccc(C)c(NC(=O)c2cccc(S(=O)(=O)N3CCN(Cc4ccccc4)CC3)c2)c1

>  <score_type>  (6) 
oracle

>  <origin>  (6) 
adgpu

>  <m_score__min__energy>  (6) 
-10.59

>  <m_primary>  (6) 
energy

$$$$
6:0
     RDKit          3D

 47 49  0  0  0  0  0  0  0  0999 V2000
   -8.3867   21.9517  -31.7391 H   0  0  0  0  0  0  0  0  0  0  0  0
   -7.2970   22.1010  -31.7250 C   0  0  0  0  0  0  0  0  0  0  0  0
   -6.7720   23.3340  -31.3370 C   0  0  0  0  0  0  0  0  0  0  0  0
   -7.6320   24.3160  -30.9590 F   0  0  0  0  0  0  0  0  0  0  0  0
   -5.3790   23.5410  -31.2930 C   0  0  0  0  0  0  0  0  0  0  0  0
   -4.8640   24.8610  -30.8500 C   0  0  0  0  0  0  0  0  0  0  0  0
   -5.6470   25.8460  -30.7770 O   0  0  0  0  0  0  0  0  0  0  0  0
   -3.4930   25.0140  -30.4700 N   0  0  0  0  0  0  0  0  0  0  0  0
   -2.9690   24.5360  -29.1990 C   0  0  0  0  0  0  0  0  0  0  0  0
   -3.5061   25.0259  -28.3734 H   0  0  0  0  0  0  0  0  0  0  0  0
   -3.1078   23.4469  -29.1315 H   0  0  0  0  0  0  0  0  0  0  0  0
   -1.8972   24.7740  -29.1315 H   0  0  0  0  0  0  0  0  0  0  0  0
   -4.5140   22.4790  -31.6670 C   0  0  0  0  0  0  0  0  0  0  0  0
   -3.0150   22.6330  -31.6830 C   0  0  0  0  0  0  0  0  0  0  0  0
   -2.6393   22.6716  -30.6499 H   0  0  0  0  0  0  0  0  0  0  0  0
   -2.5640   21.7765  -32.2054 H   0  0  0  0  0  0  0  0  0  0  0  0
   -2.7475   23.5633  -32.2054 H   0  0  0  0  0  0  0  0  0  0  0  0
   -5.0630   21.2390  -32.0380 C   0  0  0  0  0  0  0  0  0  0  0  0
   -4.3924   20.4030  -32.2859 H   0  0  0  0  0  0  0  0  0  0  0  0
   -6.4460   21.0510  -32.0970 C   0  0  0  0  0  0  0  0  0  0  0  0
   -6.9500   19.7540  -32.4620 N   0  0  0  0  0  0  0  0  0  0  0  0
   -6.2790   18.7800  -33.0070 C   0  0  0  0  0  0  0  0  0  0  0  0
   -4.9390   18.8760  -33.2150 N   0  0  0  0  0  0  0  0  0  0  0  0
   -4.2340   17.8540  -33.7620 C   0  0  0  0  0  0  0  0  0  0  0  0
   -2.8600   17.9930  -33.9680 C   0  0  0  0  0  0  0  0  0  0  0  0
   -2.3581   18.9302  -33.6855 H   0  0  0  0  0  0  0  0  0  0  0  0
   -2.1120   16.9440  -34.5340 C   0  0  0  0  0  0  0  0  0  0  0  0
   -0.7300   17.0500  -34.7560 O   0  0  0  0  0  0  0  0  0  0  0  0
   -0.1180   17.0620  -36.0430 C   0  0  0  0  0  0  0  0  0  0  0  0
    0.9758   17.0834  -35.9287 H   0  0  0  0  0  0  0  0  0  0  0  0
   -0.4111   16.1579  -36.5968 H   0  0  0  0  0  0  0  0  0  0  0  0
   -0.4463   17.9539  -36.5968 H   0  0  0  0  0  0  0  0  0  0  0  0
   -2.7540   15.7490  -34.8930 C   0  0  0  0  0  0  0  0  0  0  0  0
   -1.9770   14.7230  -35.4560 O   0  0  0  0  0  0  0  0  0  0  0  0
   -1.1130   13.8640  -34.7190 C   0  0  0  0  0  0  0  0  0  0  0  0
   -1.2712   14.0213  -33.6419 H   0  0  0  0  0  0  0  0  0  0  0  0
   -1.3334   12.8166  -34.9729 H   0  0  0  0  0  0  0  0  0  0  0  0
   -0.0669   14.0905  -34.9729 H   0  0  0  0  0  0  0  0  0  0  0  0
   -4.1400   15.6080  -34.6860 C   0  0  0  0  0  0  0  0  0  0  0  0
   -4.6417   14.6711  -34.9696 H   0  0  0  0  0  0  0  0  0  0  0  0
   -4.8880   16.6570  -34.1190 C   0  0  0  0  0  0  0  0  0  0  0  0
   -6.2790   16.5720  -33.8850 C   0  0  0  0  0  0  0  0  0  0  0  0
   -7.0770   15.3450  -34.2190 C   0  0  0  0  0  0  0  0  0  0  0  0
   -7.3977   14.8519  -33.2895 H   0  0  0  0  0  0  0  0  0  0  0  0
   -7.9619   15.6317  -34.8061 H   0  0  0  0  0  0  0  0  0  0  0  0
   -6.4561   14.6524  -34.8061 H   0  0  0  0  0  0  0  0  0  0  0  0
   -6.9270   17.6340  -33.3340 N   0  0  0  0  0  0  0  0  0  0  0  0
  1  2  1  0
  2  3  2  0
  3  4  1  0
  3  5  1  0
  5  6  1  0
  6  7  2  0
  6  8  1  0
  8  9  1  0
  9 10  1  0
  9 11  1  0
  9 12  1  0
  5 13  2  0
 13 14  1  0
 14 15  1  0
 14 16  1  0
 14 17  1  0
 13 18  1  0
 18 19  1  0
 18 20  2  0
 20 21  1  0
 21 22  2  0
 22 23  1  0
 23 24  2  0
 24 25  1  0
 25 26  1  0
 25 27  2  0
 27 28  1  0
 28 29  1  0
 29 30  1  0
 29 31  1  0
 29 32  1  0
 27 33  1  0
 33 34  1  0
 34 35  1  0
 35 36  1  0
 35 37  1  0
 35 38  1  0
 33 39  2  0
 39 40  1  0
 39 41  1  0
 41 42  2  0
 42 43  1  0
 43 44  1  0
 43 45  1  0
 43 46  1  0
 42 47  1  0
 20  2  1  0
 47 22  1  0
 41 24  1  0
M  CHG  2   8  -1  47  -1
M  END
>  <UniqueID>  (7) 
7

>  <SMILES>  (7) 
C[N-]C(=O)c1c(C)cc(/N=c2\nc3cc(OC)c(OC)cc3c(C)[n-]2)cc1F

>  <Energy>  (7) 
61.51346406049093

>  <Genealogy>  (7) 
C[N-]C(=O)c1c(C)cc(N=c2nc3cc(OC)c(OC)cc3c(C)[n-]2)cc1F (protonated)
C[N-]C(=O)c1c(C)cc(/N=c2\nc3cc(OC)c(OC)cc3c(C)[n-]2)cc1F (cis-trans isomerization)
C[N-]C(=O)c1c(C)cc(/N=c2\nc3cc(OC)c(OC)cc3c(C)[n-]2)cc1F (3D coordinates assigned)
C[N-]C(=O)c1c(C)cc(/N=c2\nc3cc(OC)c(OC)cc3c(C)[n-]2)cc1F (optimized conformer: 61.51346406049093 kcal/mol)

>  <smiles>  (7) 
CNC(=O)c1c(C)cc(N=c2nc3cc(OC)c(OC)cc3c(C)[nH]2)cc1F

>  <score_type>  (7) 
oracle

>  <origin>  (7) 
adgpu

>  <m_score__min__energy>  (7) 
-9

>  <m_primary>  (7) 
energy

$$$$
7:0
     RDKit          3D

 51 54  0  0  0  0  0  0  0  0999 V2000
   -3.5760   12.7580  -32.2360 C   0  0  0  0  0  0  0  0  0  0  0  0
   -4.6120   13.1550  -33.1290 O   0  0  0  0  0  0  0  0  0  0  0  0
   -5.2340   14.4110  -33.1090 C   0  0  0  0  0  0  0  0  0  0  0  0
   -6.1930   14.7950  -34.0660 C   0  0  0  0  0  0  0  0  0  0  0  0
   -6.7780   16.0630  -34.0100 C   0  0  0  0  0  0  0  0  0  0  0  0
   -6.4110   16.9700  -33.0020 C   0  0  0  0  0  0  0  0  0  0  0  0
   -6.9750   18.3640  -32.9880 C   0  0  0  0  0  0  0  0  0  0  0  0
   -6.1910   19.4070  -34.2710 S   0  0  0  0  0  0  0  0  0  0  0  0
   -4.5960   18.5660  -34.2150 C   0  0  0  0  0  0  0  0  0  0  0  0
   -4.4400   17.4540  -34.9770 N   0  0  0  0  0  0  0  0  0  0  0  0
   -3.2630   16.7870  -35.0270 C   0  0  0  0  0  0  0  0  0  0  0  0
   -3.1300   15.6610  -35.8470 C   0  0  0  0  0  0  0  0  0  0  0  0
   -1.9140   14.9770  -35.9040 C   0  0  0  0  0  0  0  0  0  0  0  0
   -0.8260   15.4140  -35.1410 C   0  0  0  0  0  0  0  0  0  0  0  0
   -0.9510   16.5380  -34.3190 C   0  0  0  0  0  0  0  0  0  0  0  0
   -2.1720   17.2360  -34.2580 C   0  0  0  0  0  0  0  0  0  0  0  0
   -2.3500   18.3760  -33.4560 C   0  0  0  0  0  0  0  0  0  0  0  0
   -1.3990   18.7960  -32.7380 O   0  0  0  0  0  0  0  0  0  0  0  0
   -3.5560   19.0320  -33.4510 N   0  0  0  0  0  0  0  0  0  0  0  0
   -3.7300   20.1960  -32.6210 C   0  0  0  0  0  0  0  0  0  0  0  0
   -4.7670   20.2160  -31.6760 C   0  0  0  0  0  0  0  0  0  0  0  0
   -4.9570   21.3290  -30.8550 C   0  0  0  0  0  0  0  0  0  0  0  0
   -4.1070   22.4360  -30.9630 C   0  0  0  0  0  0  0  0  0  0  0  0
   -4.3550   23.8490  -29.9430 S   0  0  0  0  0  0  0  0  0  0  0  0
   -3.7930   25.2600  -30.7650 N   0  0  0  0  0  0  0  0  0  0  0  0
   -3.6030   23.6840  -28.6520 O   0  0  0  0  0  0  0  0  0  0  0  0
   -5.8180   24.0020  -29.6310 O   0  0  0  0  0  0  0  0  0  0  0  0
   -3.0710   22.4250  -31.9060 C   0  0  0  0  0  0  0  0  0  0  0  0
   -2.8710   21.3110  -32.7360 C   0  0  0  0  0  0  0  0  0  0  0  0
   -1.8090   21.3320  -33.6970 N   0  0  0  0  0  0  0  0  0  0  0  0
   -5.4610   16.5840  -32.0450 C   0  0  0  0  0  0  0  0  0  0  0  0
   -4.8810   15.3140  -32.0980 C   0  0  0  0  0  0  0  0  0  0  0  0
   -3.9165   12.8885  -31.1982 H   0  0  0  0  0  0  0  0  0  0  0  0
   -3.3271   11.7008  -32.4100 H   0  0  0  0  0  0  0  0  0  0  0  0
   -2.6843   13.3781  -32.4100 H   0  0  0  0  0  0  0  0  0  0  0  0
   -6.4832   14.0932  -34.8618 H   0  0  0  0  0  0  0  0  0  0  0  0
   -7.5297   16.3523  -34.7591 H   0  0  0  0  0  0  0  0  0  0  0  0
   -8.0575   18.3152  -33.1772 H   0  0  0  0  0  0  0  0  0  0  0  0
   -6.7735   18.8117  -32.0036 H   0  0  0  0  0  0  0  0  0  0  0  0
   -3.9841   15.3144  -36.4472 H   0  0  0  0  0  0  0  0  0  0  0  0
   -1.8114   14.0927  -36.5502 H   0  0  0  0  0  0  0  0  0  0  0  0
    0.1301   14.8720  -35.1879 H   0  0  0  0  0  0  0  0  0  0  0  0
   -0.0939   16.8775  -33.7189 H   0  0  0  0  0  0  0  0  0  0  0  0
   -5.4356   19.3477  -31.5813 H   0  0  0  0  0  0  0  0  0  0  0  0
   -5.7766   21.3361  -30.1214 H   0  0  0  0  0  0  0  0  0  0  0  0
   -3.8810   26.0580  -30.0960 H   0  0  0  0  0  0  0  0  0  0  0  0
   -2.4079   23.2979  -31.9968 H   0  0  0  0  0  0  0  0  0  0  0  0
   -1.8570   21.9600  -34.5290 H   0  0  0  0  0  0  0  0  0  0  0  0
   -0.9710   20.7160  -33.6020 H   0  0  0  0  0  0  0  0  0  0  0  0
   -5.1710   17.2850  -31.2484 H   0  0  0  0  0  0  0  0  0  0  0  0
   -4.1407   15.0207  -31.3391 H   0  0  0  0  0  0  0  0  0  0  0  0
  1  2  1  0
  2  3  1  0
  3  4  2  0
  4  5  1  0
  5  6  2  0
  6  7  1  0
  7  8  1  0
  8  9  1  0
  9 10  2  0
 10 11  1  0
 11 12  2  0
 12 13  1  0
 13 14  2  0
 14 15  1  0
 15 16  2  0
 16 17  1  0
 17 18  2  0
 17 19  1  0
 19 20  1  0
 20 21  2  0
 21 22  1  0
 22 23  2  0
 23 24  1  0
 24 25  1  0
 24 26  2  0
 24 27  2  0
 23 28  1  0
 28 29  2  0
 29 30  1  0
  6 31  1  0
 31 32  2  0
 32  3  1  0
 19  9  1  0
 29 20  1  0
 16 11  1  0
  1 33  1  0
  1 34  1  0
  1 35  1  0
  4 36  1  0
  5 37  1  0
  7 38  1  0
  7 39  1  0
 12 40  1  0
 13 41  1  0
 14 42  1  0
 15 43  1  0
 21 44  1  0
 22 45  1  0
 25 46  1  0
 28 47  1  0
 30 48  1  0
 30 49  1  0
 31 50  1  0
 32 51  1  0
M  CHG  1  25  -1
M  END
>  <UniqueID>  (8) 
8

>  <SMILES>  (8) 
COc1ccc(CSc2nc3ccccc3c(=O)n2-c2ccc(S([NH-])(=O)=O)cc2N)cc1

>  <Energy>  (8) 
61.923080370749666

>  <Genealogy>  (8) 
COc1ccc(CSc2nc3ccccc3c(=O)n2-c2ccc(S([NH-])(=O)=O)cc2N)cc1 (protonated)
COc1ccc(CSc2nc3ccccc3c(=O)n2-c2ccc(S([NH-])(=O)=O)cc2N)cc1 (3D coordinates assigned)
COc1ccc(CSc2nc3ccccc3c(=O)n2-c2ccc(S([NH-])(=O)=O)cc2N)cc1 (optimized conformer: 61.923080370749666 kcal/mol)

>  <smiles>  (8) 
COc1ccc(CSc2nc3ccccc3c(=O)n2-c2ccc(S(N)(=O)=O)cc2N)cc1

>  <score_type>  (8) 
oracle

>  <origin>  (8) 
adgpu

>  <m_score__min__energy>  (8) 
-10.66

>  <m_primary>  (8) 
energy

$$$$
8:0
     RDKit          3D

 38 40  0  0  0  0  0  0  0  0999 V2000
   -3.5570   20.9740  -31.4100 N   0  0  0  0  0  0  0  0  0  0  0  0
   -3.5280   22.3320  -30.9320 C   0  0  0  0  0  0  0  0  0  0  0  0
   -4.5660   23.2100  -31.3020 C   0  0  0  0  0  0  0  0  0  0  0  0
   -5.6030   22.7870  -32.2020 N   0  0  0  0  0  0  0  0  0  0  0  0
   -6.9080   22.3590  -31.7010 C   0  0  0  0  0  0  0  0  0  0  0  0
   -7.1880   20.9510  -32.1330 C   0  0  0  0  0  0  0  0  0  0  0  0
   -8.3400   20.2390  -31.8730 C   0  0  0  0  0  0  0  0  0  0  0  0
   -8.1200   18.9790  -32.3880 C   0  0  0  0  0  0  0  0  0  0  0  0
   -6.8510   19.0030  -32.9300 C   0  0  0  0  0  0  0  0  0  0  0  0
   -6.3190   20.1920  -32.7600 O   0  0  0  0  0  0  0  0  0  0  0  0
   -4.5380   24.5210  -30.8260 C   0  0  0  0  0  0  0  0  0  0  0  0
   -5.4590   25.3310  -31.1150 O   0  0  0  0  0  0  0  0  0  0  0  0
   -3.5180   24.9270  -30.0390 N   0  0  0  0  0  0  0  0  0  0  0  0
   -2.4990   24.0970  -29.7080 C   0  0  0  0  0  0  0  0  0  0  0  0
   -1.5660   24.5470  -28.9900 O   0  0  0  0  0  0  0  0  0  0  0  0
   -2.4820   22.7970  -30.1600 N   0  0  0  0  0  0  0  0  0  0  0  0
   -1.3030   21.9420  -29.8910 C   0  0  0  0  0  0  0  0  0  0  0  0
   -1.6060   20.9330  -28.8080 C   0  0  0  0  0  0  0  0  0  0  0  0
   -2.8110   21.0010  -28.0880 C   0  0  0  0  0  0  0  0  0  0  0  0
   -3.0940   20.0560  -27.0960 C   0  0  0  0  0  0  0  0  0  0  0  0
   -2.1740   19.0460  -26.8070 C   0  0  0  0  0  0  0  0  0  0  0  0
   -0.9630   18.9830  -27.5020 C   0  0  0  0  0  0  0  0  0  0  0  0
   -0.6760   19.9260  -28.4950 C   0  0  0  0  0  0  0  0  0  0  0  0
   -2.7360   20.3400  -31.3090 H   0  0  0  0  0  0  0  0  0  0  0  0
   -4.3730   20.5720  -31.9180 H   0  0  0  0  0  0  0  0  0  0  0  0
   -5.4970   22.9810  -33.2220 H   0  0  0  0  0  0  0  0  0  0  0  0
   -6.9107   22.4100  -30.6022 H   0  0  0  0  0  0  0  0  0  0  0  0
   -7.6855   23.0223  -32.1078 H   0  0  0  0  0  0  0  0  0  0  0  0
   -9.2446   20.6004  -31.3620 H   0  0  0  0  0  0  0  0  0  0  0  0
   -8.8154   18.1269  -32.3704 H   0  0  0  0  0  0  0  0  0  0  0  0
   -6.3594   18.1548  -33.4289 H   0  0  0  0  0  0  0  0  0  0  0  0
   -1.0264   21.4092  -30.8127 H   0  0  0  0  0  0  0  0  0  0  0  0
   -0.4739   22.5816  -29.5541 H   0  0  0  0  0  0  0  0  0  0  0  0
   -3.5346   21.8005  -28.3053 H   0  0  0  0  0  0  0  0  0  0  0  0
   -4.0432   20.1087  -26.5425 H   0  0  0  0  0  0  0  0  0  0  0  0
   -2.4025   18.2996  -26.0320 H   0  0  0  0  0  0  0  0  0  0  0  0
   -0.2354   18.1918  -27.2682 H   0  0  0  0  0  0  0  0  0  0  0  0
    0.2820   19.8793  -29.0335 H   0  0  0  0  0  0  0  0  0  0  0  0
  1  2  1  0
  2  3  2  0
  3  4  1  0
  4  5  1  0
  5  6  1  0
  6  7  2  0
  7  8  1  0
  8  9  2  0
  9 10  1  0
  3 11  1  0
 11 12  2  0
 11 13  1  0
 13 14  1  0
 14 15  2  0
 14 16  1  0
 16 17  1  0
 17 18  1  0
 18 19  2  0
 19 20  1  0
 20 21  2  0
 21 22  1  0
 22 23  2  0
 16  2  1  0
 23 18  1  0
 10  6  1  0
  1 24  1  0
  1 25  1  0
  4 26  1  0
  5 27  1  0
  5 28  1  0
  7 29  1  0
  8 30  1  0
  9 31  1  0
 17 32  1  0
 17 33  1  0
 19 34  1  0
 20 35  1  0
 21 36  1  0
 22 37  1  0
 23 38  1  0
M  CHG  1  13  -1
M  END
>  <UniqueID>  (9) 
9

>  <SMILES>  (9) 
Nc1c(NCc2ccco2)c(=O)[n-]c(=O)n1Cc1ccccc1

>  <Energy>  (9) 
74.4731650057999

>  <Genealogy>  (9) 
Nc1c(NCc2ccco2)c(=O)[n-]c(=O)n1Cc1ccccc1 (protonated)
Nc1c(NCc2ccco2)c(=O)[n-]c(=O)n1Cc1ccccc1 (3D coordinates assigned)
Nc1c(NCc2ccco2)c(=O)[n-]c(=O)n1Cc1ccccc1 (optimized conformer: 74.4731650057999 kcal/mol)

>  <smiles>  (9) 
Nc1c(NCc2ccco2)c(=O)[nH]c(=O)n1Cc1ccccc1

>  <score_type>  (9) 
oracle

>  <origin>  (9) 
adgpu

>  <m_score__min__energy>  (9) 
-7.5899999999999999

>  <m_primary>  (9) 
energy

$$$$
9:0
     RDKit          3D

 32 33  0  0  0  0  0  0  0  0999 V2000
   -3.1810   19.3690  -26.7560 C   0  0  0  0  0  0  0  0  0  0  0  0
   -2.1170   20.0170  -27.5910 C   0  0  0  0  0  0  0  0  0  0  0  0
   -1.0700   19.3610  -27.8420 O   0  0  0  0  0  0  0  0  0  0  0  0
   -2.2670   21.3990  -28.1200 C   0  0  0  0  0  0  0  0  0  0  0  0
   -1.1420   22.0990  -28.5890 C   0  0  0  0  0  0  0  0  0  0  0  0
   -1.2710   23.3910  -29.1010 C   0  0  0  0  0  0  0  0  0  0  0  0
   -2.5250   24.0040  -29.1620 C   0  0  0  0  0  0  0  0  0  0  0  0
   -2.6260   25.2860  -29.6890 O   0  0  0  0  0  0  0  0  0  0  0  0
   -3.6680   23.3260  -28.7030 C   0  0  0  0  0  0  0  0  0  0  0  0
   -4.9580   23.9620  -28.7860 N   0  0  0  0  0  0  0  0  0  0  0  0
   -5.7010   24.4380  -30.2820 S   0  0  0  0  0  0  0  0  0  0  0  0
   -6.7160   25.5130  -30.0050 O   0  0  0  0  0  0  0  0  0  0  0  0
   -4.6510   24.9830  -31.2080 O   0  0  0  0  0  0  0  0  0  0  0  0
   -6.4590   23.0430  -31.0450 C   0  0  0  0  0  0  0  0  0  0  0  0
   -5.7600   22.3210  -32.0220 C   0  0  0  0  0  0  0  0  0  0  0  0
   -6.3390   21.1910  -32.6100 C   0  0  0  0  0  0  0  0  0  0  0  0
   -7.6190   20.7810  -32.2240 C   0  0  0  0  0  0  0  0  0  0  0  0
   -8.3200   21.5000  -31.2520 C   0  0  0  0  0  0  0  0  0  0  0  0
   -7.7450   22.6300  -30.6640 C   0  0  0  0  0  0  0  0  0  0  0  0
   -3.5250   22.0300  -28.1680 C   0  0  0  0  0  0  0  0  0  0  0  0
   -2.9480   19.5109  -25.6904 H   0  0  0  0  0  0  0  0  0  0  0  0
   -4.1549   19.8275  -26.9826 H   0  0  0  0  0  0  0  0  0  0  0  0
   -3.2205   18.2933  -26.9826 H   0  0  0  0  0  0  0  0  0  0  0  0
   -0.1505   21.6241  -28.5522 H   0  0  0  0  0  0  0  0  0  0  0  0
   -0.3808   23.9294  -29.4583 H   0  0  0  0  0  0  0  0  0  0  0  0
   -5.4460   24.2530  -27.9100 H   0  0  0  0  0  0  0  0  0  0  0  0
   -4.7536   22.6435  -32.3273 H   0  0  0  0  0  0  0  0  0  0  0  0
   -5.7876   20.6254  -33.3755 H   0  0  0  0  0  0  0  0  0  0  0  0
   -8.0742   19.8923  -32.6855 H   0  0  0  0  0  0  0  0  0  0  0  0
   -9.3265   21.1758  -30.9491 H   0  0  0  0  0  0  0  0  0  0  0  0
   -8.3008   23.1961  -29.9020 H   0  0  0  0  0  0  0  0  0  0  0  0
   -4.4100   21.5031  -27.7818 H   0  0  0  0  0  0  0  0  0  0  0  0
  1  2  1  0
  2  3  2  0
  2  4  1  0
  4  5  2  0
  5  6  1  0
  6  7  2  0
  7  8  1  0
  7  9  1  0
  9 10  1  0
 10 11  1  0
 11 12  2  0
 11 13  2  0
 11 14  1  0
 14 15  2  0
 15 16  1  0
 16 17  2  0
 17 18  1  0
 18 19  2  0
  9 20  2  0
 20  4  1  0
 19 14  1  0
  1 21  1  0
  1 22  1  0
  1 23  1  0
  5 24  1  0
  6 25  1  0
 10 26  1  0
 15 27  1  0
 16 28  1  0
 17 29  1  0
 18 30  1  0
 19 31  1  0
 20 32  1  0
M  CHG  1   8  -1
M  END
>  <UniqueID>  (10) 
10

>  <SMILES>  (10) 
CC(=O)c1ccc([O-])c(NS(=O)(=O)c2ccccc2)c1

>  <Energy>  (10) 
35.65213955054145

>  <Genealogy>  (10) 
CC(=O)c1ccc([O-])c(NS(=O)(=O)c2ccccc2)c1 (protonated)
CC(=O)c1ccc([O-])c(NS(=O)(=O)c2ccccc2)c1 (3D coordinates assigned)
CC(=O)c1ccc([O-])c(NS(=O)(=O)c2ccccc2)c1 (optimized conformer: 35.65213955054145 kcal/mol)

>  <smiles>  (10) 
CC(=O)c1ccc(O)c(NS(=O)(=O)c2ccccc2)c1

>  <score_type>  (10) 
oracle

>  <origin>  (10) 
adgpu

>  <m_score__min__energy>  (10) 
-11.56

>  <m_primary>  (10) 
energy

$$$$
10:0
     RDKit          3D

 41 43  0  0  0  0  0  0  0  0999 V2000
   -9.1190   18.1810  -31.5890 C   0  0  0  0  0  0  0  0  0  0  0  0
   -9.3850   19.5480  -32.7610 S   0  0  0  0  0  0  0  0  0  0  0  0
   -7.6370   19.9690  -32.8620 C   0  0  0  0  0  0  0  0  0  0  0  0
   -6.7440   19.0100  -33.3530 C   0  0  0  0  0  0  0  0  0  0  0  0
   -5.3810   19.2970  -33.4510 C   0  0  0  0  0  0  0  0  0  0  0  0
   -4.8890   20.5400  -33.0440 C   0  0  0  0  0  0  0  0  0  0  0  0
   -3.5160   20.7950  -33.1740 O   0  0  0  0  0  0  0  0  0  0  0  0
   -2.6790   21.2750  -32.1550 C   0  0  0  0  0  0  0  0  0  0  0  0
   -1.4680   20.6410  -31.8270 C   0  0  0  0  0  0  0  0  0  0  0  0
   -0.6580   21.1540  -30.8100 C   0  0  0  0  0  0  0  0  0  0  0  0
   -1.0410   22.3100  -30.1250 C   0  0  0  0  0  0  0  0  0  0  0  0
   -2.2330   22.9650  -30.4630 C   0  0  0  0  0  0  0  0  0  0  0  0
   -2.7140   24.4140  -29.5830 S   0  0  0  0  0  0  0  0  0  0  0  0
   -1.5140   25.2850  -29.3220 O   0  0  0  0  0  0  0  0  0  0  0  0
   -3.3100   24.0140  -28.2640 O   0  0  0  0  0  0  0  0  0  0  0  0
   -3.8930   25.3010  -30.4960 N   0  0  0  0  0  0  0  0  0  0  0  0
   -5.2020   25.1100  -29.8820 C   0  0  0  0  0  0  0  0  0  0  0  0
   -6.2750   24.7810  -30.9050 C   0  0  0  0  0  0  0  0  0  0  0  0
   -5.7370   23.6930  -29.9890 C   0  0  0  0  0  0  0  0  0  0  0  0
   -3.0460   22.4450  -31.4800 C   0  0  0  0  0  0  0  0  0  0  0  0
   -5.7830   21.5120  -32.5610 C   0  0  0  0  0  0  0  0  0  0  0  0
   -7.1550   21.2320  -32.4510 C   0  0  0  0  0  0  0  0  0  0  0  0
   -8.0900   22.2840  -31.9190 C   0  0  0  0  0  0  0  0  0  0  0  0
   -9.1930   18.5611  -30.5594 H   0  0  0  0  0  0  0  0  0  0  0  0
   -9.8833   17.4063  -31.7497 H   0  0  0  0  0  0  0  0  0  0  0  0
   -8.1200   17.7494  -31.7497 H   0  0  0  0  0  0  0  0  0  0  0  0
   -7.1183   18.0234  -33.6638 H   0  0  0  0  0  0  0  0  0  0  0  0
   -4.6903   18.5400  -33.8510 H   0  0  0  0  0  0  0  0  0  0  0  0
   -1.1568   19.7380  -32.3726 H   0  0  0  0  0  0  0  0  0  0  0  0
    0.2824   20.6469  -30.5485 H   0  0  0  0  0  0  0  0  0  0  0  0
   -0.4059   22.7066  -29.3192 H   0  0  0  0  0  0  0  0  0  0  0  0
   -5.0879   25.8302  -29.0584 H   0  0  0  0  0  0  0  0  0  0  0  0
   -7.2993   25.1582  -30.7686 H   0  0  0  0  0  0  0  0  0  0  0  0
   -6.3755   24.9023  -31.9937 H   0  0  0  0  0  0  0  0  0  0  0  0
   -6.3720   23.2829  -29.1899 H   0  0  0  0  0  0  0  0  0  0  0  0
   -5.2869   22.7008  -30.1403 H   0  0  0  0  0  0  0  0  0  0  0  0
   -3.9796   22.9605  -31.7496 H   0  0  0  0  0  0  0  0  0  0  0  0
   -5.4040   22.5017  -32.2663 H   0  0  0  0  0  0  0  0  0  0  0  0
   -8.0743   22.2663  -30.8193 H   0  0  0  0  0  0  0  0  0  0  0  0
   -7.7683   23.2741  -32.2744 H   0  0  0  0  0  0  0  0  0  0  0  0
   -9.1110   22.0807  -32.2744 H   0  0  0  0  0  0  0  0  0  0  0  0
  1  2  1  0
  2  3  1  0
  3  4  2  0
  4  5  1  0
  5  6  2  0
  6  7  1  0
  7  8  1  0
  8  9  2  0
  9 10  1  0
 10 11  2  0
 11 12  1  0
 12 13  1  0
 13 14  2  0
 13 15  2  0
 13 16  1  0
 16 17  1  0
 17 18  1  0
 18 19  1  0
 12 20  2  0
  6 21  1  0
 21 22  2  0
 22 23  1  0
 22  3  1  0
 20  8  1  0
 19 17  1  0
  1 24  1  0
  1 25  1  0
  1 26  1  0
  4 27  1  0
  5 28  1  0
  9 29  1  0
 10 30  1  0
 11 31  1  0
 17 32  1  0
 18 33  1  0
 18 34  1  0
 19 35  1  0
 19 36  1  0
 20 37  1  0
 21 38  1  0
 23 39  1  0
 23 40  1  0
 23 41  1  0
M  CHG  1  16  -1
M  END
>  <UniqueID>  (11) 
11

>  <SMILES>  (11) 
CSc1ccc(Oc2cccc(S(=O)(=O)[N-]C3CC3)c2)cc1C

>  <Energy>  (11) 
306.94736863937135

>  <Genealogy>  (11) 
CSc1ccc(Oc2cccc(S(=O)(=O)[N-]C3CC3)c2)cc1C (protonated)
CSc1ccc(Oc2cccc(S(=O)(=O)[N-]C3CC3)c2)cc1C (3D coordinates assigned)
CSc1ccc(Oc2cccc(S(=O)(=O)[N-]C3CC3)c2)cc1C (nonaromatic ring conformer: 306.94736863937135 kcal/mol)

>  <smiles>  (11) 
CSc1ccc(Oc2cccc(S(=O)(=O)NC3CC3)c2)cc1C

>  <score_type>  (11) 
oracle

>  <origin>  (11) 
adgpu

>  <m_score__min__energy>  (11) 
-10.140000000000001

>  <m_primary>  (11) 
energy

$$$$
11:0
     RDKit          3D

 56 59  0  0  0  0  0  0  0  0999 V2000
   -0.1530   22.9930  -24.4570 C   0  0  0  0  0  0  0  0  0  0  0  0
   -0.0270   23.9160  -25.6730 C   0  0  0  0  0  0  0  0  0  0  0  0
   -0.3130   23.2000  -26.9540 N   0  0  1  0  0  0  0  0  0  0  0  0
   -1.5710   22.4170  -26.8600 C   0  0  0  0  0  0  0  0  0  0  0  0
   -1.3310   20.9330  -27.0470 C   0  0  0  0  0  0  0  0  0  0  0  0
   -0.1790   20.4820  -27.7150 C   0  0  0  0  0  0  0  0  0  0  0  0
    0.0550   19.1130  -27.8730 C   0  0  0  0  0  0  0  0  0  0  0  0
   -0.8600   18.1830  -27.3720 C   0  0  0  0  0  0  0  0  0  0  0  0
   -2.0140   18.6220  -26.7150 C   0  0  0  0  0  0  0  0  0  0  0  0
   -2.2510   19.9910  -26.5540 C   0  0  0  0  0  0  0  0  0  0  0  0
   -0.4130   24.1460  -28.0950 C   0  0  0  0  0  0  0  0  0  0  0  0
   -1.5010   23.7570  -29.0550 C   0  0  0  0  0  0  0  0  0  0  0  0
   -1.4650   22.6480  -29.9030 C   0  0  0  0  0  0  0  0  0  0  0  0
   -2.5950   22.5760  -30.7250 C   0  0  0  0  0  0  0  0  0  0  0  0
   -2.8930   21.6170  -31.6910 C   0  0  0  0  0  0  0  0  0  0  0  0
   -2.0940   20.6610  -31.8960 O   0  0  0  0  0  0  0  0  0  0  0  0
   -4.0610   21.7350  -32.4110 N   0  0  0  0  0  0  0  0  0  0  0  0
   -4.4340   20.7340  -33.4250 C   0  0  0  0  0  0  0  0  0  0  0  0
   -5.6220   19.9360  -32.9570 C   0  0  0  0  0  0  0  0  0  0  0  0
   -5.5410   18.5390  -32.8600 C   0  0  0  0  0  0  0  0  0  0  0  0
   -6.6310   17.8020  -32.3930 C   0  0  0  0  0  0  0  0  0  0  0  0
   -7.8080   18.4530  -32.0160 C   0  0  0  0  0  0  0  0  0  0  0  0
   -7.9080   19.8470  -32.0970 C   0  0  0  0  0  0  0  0  0  0  0  0
   -9.1160   20.4490  -31.7070 O   0  0  0  0  0  0  0  0  0  0  0  0
   -9.2570   21.7920  -31.2450 C   0  0  0  0  0  0  0  0  0  0  0  0
   -8.1160   22.1860  -30.5670 F   0  0  0  0  0  0  0  0  0  0  0  0
   -9.4370   22.6240  -32.3350 F   0  0  0  0  0  0  0  0  0  0  0  0
  -10.3600   21.8960  -30.4170 F   0  0  0  0  0  0  0  0  0  0  0  0
   -6.8030   20.5880  -32.5650 C   0  0  0  0  0  0  0  0  0  0  0  0
   -4.9230   22.7780  -32.1620 C   0  0  0  0  0  0  0  0  0  0  0  0
   -4.6340   23.7160  -31.2180 N   0  0  0  0  0  0  0  0  0  0  0  0
   -3.4830   23.6060  -30.5180 C   0  0  0  0  0  0  0  0  0  0  0  0
   -2.9210   24.6420  -29.3250 S   0  0  0  0  0  0  0  0  0  0  0  0
   -0.0718   23.5878  -23.5352 H   0  0  0  0  0  0  0  0  0  0  0  0
   -1.1287   22.4857  -24.4813 H   0  0  0  0  0  0  0  0  0  0  0  0
    0.6511   22.2427  -24.4813 H   0  0  0  0  0  0  0  0  0  0  0  0
   -0.7403   24.7462  -25.5637 H   0  0  0  0  0  0  0  0  0  0  0  0
    1.0091   24.2831  -25.7139 H   0  0  0  0  0  0  0  0  0  0  0  0
    0.4590   22.5260  -27.1770 H   0  0  0  0  0  0  0  0  0  0  0  0
   -2.0189   22.5822  -25.8690 H   0  0  0  0  0  0  0  0  0  0  0  0
   -2.2431   22.7562  -27.6620 H   0  0  0  0  0  0  0  0  0  0  0  0
    0.5418   21.2101  -28.1153 H   0  0  0  0  0  0  0  0  0  0  0  0
    0.9608   18.7671  -28.3925 H   0  0  0  0  0  0  0  0  0  0  0  0
   -0.6726   17.1060  -27.4944 H   0  0  0  0  0  0  0  0  0  0  0  0
   -2.7360   17.8898  -26.3245 H   0  0  0  0  0  0  0  0  0  0  0  0
   -3.1613   20.3322  -26.0393 H   0  0  0  0  0  0  0  0  0  0  0  0
   -0.6268   25.1519  -27.7046 H   0  0  0  0  0  0  0  0  0  0  0  0
    0.5431   24.1250  -28.6385 H   0  0  0  0  0  0  0  0  0  0  0  0
   -0.6439   21.9163  -29.9225 H   0  0  0  0  0  0  0  0  0  0  0  0
   -4.6880   21.2462  -34.3647 H   0  0  0  0  0  0  0  0  0  0  0  0
   -3.5853   20.0528  -33.5855 H   0  0  0  0  0  0  0  0  0  0  0  0
   -4.6152   18.0222  -33.1530 H   0  0  0  0  0  0  0  0  0  0  0  0
   -6.5628   16.7064  -32.3218 H   0  0  0  0  0  0  0  0  0  0  0  0
   -8.6637   17.8652  -31.6523 H   0  0  0  0  0  0  0  0  0  0  0  0
   -6.8664   21.6846  -32.6235 H   0  0  0  0  0  0  0  0  0  0  0  0
   -5.8595   22.8554  -32.7339 H   0  0  0  0  0  0  0  0  0  0  0  0
  1  2  1  0
  2  3  1  0
  3  4  1  0
  4  5  1  0
  5  6  2  0
  6  7  1  0
  7  8  2  0
  8  9  1  0
  9 10  2  0
  3 11  1  0
 11 12  1  0
 12 13  2  0
 13 14  1  0
 14 15  1  0
 15 16  2  0
 15 17  1  0
 17 18  1  0
 18 19  1  0
 19 20  2  0
 20 21  1  0
 21 22  2  0
 22 23  1  0
 23 24  1  0
 24 25  1  0
 25 26  1  0
 25 27  1  0
 25 28  1  0
 23 29  2  0
 17 30  1  0
 30 31  2  0
 31 32  1  0
 32 33  1  0
 10  5  1  0
 33 12  1  0
 32 14  2  0
 29 19  1  0
  1 34  1  0
  1 35  1  0
  1 36  1  0
  2 37  1  0
  2 38  1  0
  3 39  1  6
  4 40  1  0
  4 41  1  0
  6 42  1  0
  7 43  1  0
  8 44  1  0
  9 45  1  0
 10 46  1  0
 11 47  1  0
 11 48  1  0
 13 49  1  0
 18 50  1  0
 18 51  1  0
 20 52  1  0
 21 53  1  0
 22 54  1  0
 29 55  1  0
 30 56  1  0
M  CHG  1   3   1
M  END
>  <UniqueID>  (12) 
12

>  <SMILES>  (12) 
CC[N@@H+](Cc1ccccc1)Cc1cc2c(=O)n(Cc3cccc(OC(F)(F)F)c3)cnc2s1

>  <Energy>  (12) 
97.3570579134051

>  <Genealogy>  (12) 
CC[NH+](Cc1ccccc1)Cc1cc2c(=O)n(Cc3cccc(OC(F)(F)F)c3)cnc2s1 (protonated)
CC[N@@H+](Cc1ccccc1)Cc1cc2c(=O)n(Cc3cccc(OC(F)(F)F)c3)cnc2s1 (chirality)
CC[N@@H+](Cc1ccccc1)Cc1cc2c(=O)n(Cc3cccc(OC(F)(F)F)c3)cnc2s1 (3D coordinates assigned)
CC[N@@H+](Cc1ccccc1)Cc1cc2c(=O)n(Cc3cccc(OC(F)(F)F)c3)cnc2s1 (optimized conformer: 97.3570579134051 kcal/mol)

>  <smiles>  (12) 
CCN(Cc1ccccc1)Cc1cc2c(=O)n(Cc3cccc(OC(F)(F)F)c3)cnc2s1

>  <score_type>  (12) 
oracle

>  <origin>  (12) 
adgpu

>  <m_score__min__energy>  (12) 
-8.4000000000000004

>  <m_primary>  (12) 
energy

$$$$
12:0
     RDKit          3D

 50 52  0  0  0  0  0  0  0  0999 V2000
   -2.5370   14.4150  -36.0060 C   0  0  0  0  0  0  0  0  0  0  0  0
   -2.6590   15.6900  -35.3890 O   0  0  0  0  0  0  0  0  0  0  0  0
   -3.8230   16.1630  -34.7680 C   0  0  0  0  0  0  0  0  0  0  0  0
   -4.5600   17.2530  -35.2690 C   0  0  0  0  0  0  0  0  0  0  0  0
   -5.7100   17.6920  -34.6050 C   0  0  0  0  0  0  0  0  0  0  0  0
   -6.1470   17.0430  -33.4420 C   0  0  0  0  0  0  0  0  0  0  0  0
   -7.3520   17.5390  -32.6900 C   0  0  0  0  0  0  0  0  0  0  0  0
   -7.0430   18.8160  -32.0530 N   0  0  0  0  0  0  0  0  0  0  0  0
   -6.9700   20.0460  -32.7980 C   0  0  0  0  0  0  0  0  0  0  0  0
   -7.2460   20.0440  -34.0260 O   0  0  0  0  0  0  0  0  0  0  0  0
   -6.5500   21.3180  -32.1550 C   0  0  0  0  0  0  0  0  0  0  0  0
   -5.1900   21.5470  -31.8760 C   0  0  0  0  0  0  0  0  0  0  0  0
   -4.7780   22.7320  -31.2590 C   0  0  0  0  0  0  0  0  0  0  0  0
   -5.7170   23.7080  -30.9060 C   0  0  0  0  0  0  0  0  0  0  0  0
   -5.2190   25.1990  -30.1100 S   0  0  0  0  0  0  0  0  0  0  0  0
   -5.8160   25.2320  -28.7330 O   0  0  0  0  0  0  0  0  0  0  0  0
   -5.6990   26.4070  -30.8680 O   0  0  0  0  0  0  0  0  0  0  0  0
   -3.4900   25.2510  -29.9780 N   0  0  0  0  0  0  0  0  0  0  0  0
   -2.6940   24.4260  -29.1170 C   0  0  0  0  0  0  0  0  0  0  0  0
   -2.7140   24.5680  -27.7170 C   0  0  0  0  0  0  0  0  0  0  0  0
   -1.9310   23.7380  -26.9110 C   0  0  0  0  0  0  0  0  0  0  0  0
   -1.1180   22.7540  -27.4910 C   0  0  0  0  0  0  0  0  0  0  0  0
   -0.2990   21.8370  -26.6320 C   0  0  0  0  0  0  0  0  0  0  0  0
   -1.1050   22.6040  -28.8870 C   0  0  0  0  0  0  0  0  0  0  0  0
   -1.8840   23.4370  -29.6930 C   0  0  0  0  0  0  0  0  0  0  0  0
   -7.0700   23.4980  -31.1900 C   0  0  0  0  0  0  0  0  0  0  0  0
   -7.4840   22.3180  -31.8200 C   0  0  0  0  0  0  0  0  0  0  0  0
   -5.4090   15.9600  -32.9420 C   0  0  0  0  0  0  0  0  0  0  0  0
   -4.2580   15.5250  -33.6030 C   0  0  0  0  0  0  0  0  0  0  0  0
   -2.4627   13.6381  -35.2308 H   0  0  0  0  0  0  0  0  0  0  0  0
   -3.4210   14.2246  -36.6323 H   0  0  0  0  0  0  0  0  0  0  0  0
   -1.6329   14.3957  -36.6323 H   0  0  0  0  0  0  0  0  0  0  0  0
   -4.2299   17.7616  -36.1868 H   0  0  0  0  0  0  0  0  0  0  0  0
   -6.2743   18.5508  -34.9974 H   0  0  0  0  0  0  0  0  0  0  0  0
   -8.1902   17.6727  -33.3897 H   0  0  0  0  0  0  0  0  0  0  0  0
   -7.6281   16.8046  -31.9190 H   0  0  0  0  0  0  0  0  0  0  0  0
   -6.6660   18.7710  -31.0730 H   0  0  0  0  0  0  0  0  0  0  0  0
   -4.4433   20.7858  -32.1461 H   0  0  0  0  0  0  0  0  0  0  0  0
   -3.7109   22.8980  -31.0500 H   0  0  0  0  0  0  0  0  0  0  0  0
   -3.3500   25.3372  -27.2546 H   0  0  0  0  0  0  0  0  0  0  0  0
   -1.9524   23.8569  -25.8177 H   0  0  0  0  0  0  0  0  0  0  0  0
   -0.4944   22.0558  -25.5719 H   0  0  0  0  0  0  0  0  0  0  0  0
   -0.5708   20.7930  -26.8471 H   0  0  0  0  0  0  0  0  0  0  0  0
    0.7689   21.9896  -26.8471 H   0  0  0  0  0  0  0  0  0  0  0  0
   -0.4781   21.8265  -29.3481 H   0  0  0  0  0  0  0  0  0  0  0  0
   -1.8620   23.3165  -30.7862 H   0  0  0  0  0  0  0  0  0  0  0  0
   -7.8121   24.2629  -30.9174 H   0  0  0  0  0  0  0  0  0  0  0  0
   -8.5483   22.1705  -32.0555 H   0  0  0  0  0  0  0  0  0  0  0  0
   -5.7385   15.4506  -32.0244 H   0  0  0  0  0  0  0  0  0  0  0  0
   -3.6889   14.6728  -33.2032 H   0  0  0  0  0  0  0  0  0  0  0  0
  1  2  1  0
  2  3  1  0
  3  4  2  0
  4  5  1  0
  5  6  2  0
  6  7  1  0
  7  8  1  0
  8  9  1  0
  9 10  2  0
  9 11  1  0
 11 12  2  0
 12 13  1  0
 13 14  2  0
 14 15  1  0
 15 16  2  0
 15 17  2  0
 15 18  1  0
 18 19  1  0
 19 20  2  0
 20 21  1  0
 21 22  2  0
 22 23  1  0
 22 24  1  0
 24 25  2  0
 14 26  1  0
 26 27  2  0
  6 28  1  0
 28 29  2  0
 29  3  1  0
 27 11  1  0
 25 19  1  0
  1 30  1  0
  1 31  1  0
  1 32  1  0
  4 33  1  0
  5 34  1  0
  7 35  1  0
  7 36  1  0
  8 37  1  0
 12 38  1  0
 13 39  1  0
 20 40  1  0
 21 41  1  0
 23 42  1  0
 23 43  1  0
 23 44  1  0
 24 45  1  0
 25 46  1  0
 26 47  1  0
 27 48  1  0
 28 49  1  0
 29 50  1  0
M  CHG  1  18  -1
M  END
>  <UniqueID>  (13) 
13

>  <SMILES>  (13) 
COc1ccc(CNC(=O)c2ccc(S(=O)(=O)[N-]c3ccc(C)cc3)cc2)cc1

>  <Energy>  (13) 
54.889731915662836

>  <Genealogy>  (13) 
COc1ccc(CNC(=O)c2ccc(S(=O)(=O)[N-]c3ccc(C)cc3)cc2)cc1 (protonated)
COc1ccc(CNC(=O)c2ccc(S(=O)(=O)[N-]c3ccc(C)cc3)cc2)cc1 (3D coordinates assigned)
COc1ccc(CNC(=O)c2ccc(S(=O)(=O)[N-]c3ccc(C)cc3)cc2)cc1 (optimized conformer: 54.889731915662836 kcal/mol)

>  <smiles>  (13) 
COc1ccc(CNC(=O)c2ccc(S(=O)(=O)Nc3ccc(C)cc3)cc2)cc1

>  <score_type>  (13) 
oracle

>  <origin>  (13) 
adgpu

>  <m_score__min__energy>  (13) 
-9.8499999999999996

>  <m_primary>  (13) 
energy

$$$$
13:0
     RDKit          3D

 49 51  0  0  0  0  0  0  0  0999 V2000
    2.9770   20.1370  -34.5540 C   0  0  0  0  0  0  0  0  0  0  0  0
    1.5360   20.8630  -35.3030 S   0  0  0  0  0  0  0  0  0  0  0  0
    1.6120   20.7080  -36.7960 O   0  0  0  0  0  0  0  0  0  0  0  0
    1.4830   22.3290  -34.9730 O   0  0  0  0  0  0  0  0  0  0  0  0
    0.0930   20.0600  -34.6940 C   0  0  0  0  0  0  0  0  0  0  0  0
   -0.1240   18.7010  -34.9580 C   0  0  0  0  0  0  0  0  0  0  0  0
   -1.2810   18.0730  -34.4960 C   0  0  0  0  0  0  0  0  0  0  0  0
   -2.2280   18.7940  -33.7630 C   0  0  0  0  0  0  0  0  0  0  0  0
   -2.0150   20.1550  -33.4760 C   0  0  0  0  0  0  0  0  0  0  0  0
   -2.9860   20.9300  -32.7530 N   0  0  0  0  0  0  0  0  0  0  0  0
   -4.4060   20.8640  -32.9910 C   0  0  0  0  0  0  0  0  0  0  0  0
   -4.8670   20.0360  -33.8230 O   0  0  0  0  0  0  0  0  0  0  0  0
   -5.3460   21.7530  -32.2690 C   0  0  0  0  0  0  0  0  0  0  0  0
   -6.7160   21.4370  -32.2370 C   0  0  0  0  0  0  0  0  0  0  0  0
   -7.6190   22.2700  -31.5690 C   0  0  0  0  0  0  0  0  0  0  0  0
   -7.1650   23.4180  -30.9180 C   0  0  0  0  0  0  0  0  0  0  0  0
   -5.8010   23.7340  -30.9190 C   0  0  0  0  0  0  0  0  0  0  0  0
   -5.2360   25.1890  -30.1010 S   0  0  0  0  0  0  0  0  0  0  0  0
   -5.7380   26.3970  -30.8400 O   0  0  0  0  0  0  0  0  0  0  0  0
   -5.7750   25.2350  -28.6970 O   0  0  0  0  0  0  0  0  0  0  0  0
   -3.5000   25.2250  -30.0680 N   0  0  0  0  0  0  0  0  0  0  0  0
   -3.0100   24.5500  -28.8690 C   0  0  0  0  0  0  0  0  0  0  0  0
   -2.5170   23.1820  -29.2420 C   0  0  0  0  0  0  0  0  0  0  0  0
   -1.3600   23.0350  -30.0250 C   0  0  0  0  0  0  0  0  0  0  0  0
   -0.8820   21.7610  -30.3420 C   0  0  0  0  0  0  0  0  0  0  0  0
   -1.5470   20.6260  -29.8720 C   0  0  0  0  0  0  0  0  0  0  0  0
   -2.6900   20.7630  -29.0800 C   0  0  0  0  0  0  0  0  0  0  0  0
   -3.1720   22.0360  -28.7590 C   0  0  0  0  0  0  0  0  0  0  0  0
   -4.8950   22.9030  -31.5930 C   0  0  0  0  0  0  0  0  0  0  0  0
   -0.8610   20.7850  -33.9650 C   0  0  0  0  0  0  0  0  0  0  0  0
    2.8840   20.1838  -33.4589 H   0  0  0  0  0  0  0  0  0  0  0  0
    3.0649   19.0870  -34.8700 H   0  0  0  0  0  0  0  0  0  0  0  0
    3.8731   20.6912  -34.8700 H   0  0  0  0  0  0  0  0  0  0  0  0
    0.6198   18.1279  -35.5310 H   0  0  0  0  0  0  0  0  0  0  0  0
   -1.4486   17.0070  -34.7093 H   0  0  0  0  0  0  0  0  0  0  0  0
   -3.1427   18.2958  -33.4094 H   0  0  0  0  0  0  0  0  0  0  0  0
   -2.6270   21.5340  -31.9810 H   0  0  0  0  0  0  0  0  0  0  0  0
   -7.0795   20.5291  -32.7405 H   0  0  0  0  0  0  0  0  0  0  0  0
   -8.6901   22.0197  -31.5566 H   0  0  0  0  0  0  0  0  0  0  0  0
   -7.8804   24.0760  -30.4030 H   0  0  0  0  0  0  0  0  0  0  0  0
   -2.1859   25.1314  -28.4298 H   0  0  0  0  0  0  0  0  0  0  0  0
   -3.8238   24.4629  -28.1341 H   0  0  0  0  0  0  0  0  0  0  0  0
   -0.8284   23.9262  -30.3899 H   0  0  0  0  0  0  0  0  0  0  0  0
    0.0195   21.6515  -30.9627 H   0  0  0  0  0  0  0  0  0  0  0  0
   -1.1707   19.6239  -30.1255 H   0  0  0  0  0  0  0  0  0  0  0  0
   -3.2113   19.8685  -28.7085 H   0  0  0  0  0  0  0  0  0  0  0  0
   -4.0661   22.1407  -28.1268 H   0  0  0  0  0  0  0  0  0  0  0  0
   -3.8234   23.1513  -31.5937 H   0  0  0  0  0  0  0  0  0  0  0  0
   -0.7029   21.8569  -33.7751 H   0  0  0  0  0  0  0  0  0  0  0  0
  1  2  1  0
  2  3  2  0
  2  4  2  0
  2  5  1  0
  5  6  2  0
  6  7  1  0
  7  8  2  0
  8  9  1  0
  9 10  1  0
 10 11  1  0
 11 12  2  0
 11 13  1  0
 13 14  2  0
 14 15  1  0
 15 16  2  0
 16 17  1  0
 17 18  1  0
 18 19  2  0
 18 20  2  0
 18 21  1  0
 21 22  1  0
 22 23  1  0
 23 24  2  0
 24 25  1  0
 25 26  2  0
 26 27  1  0
 27 28  2  0
 17 29  2  0
  9 30  2  0
 30  5  1  0
 29 13  1  0
 28 23  1  0
  1 31  1  0
  1 32  1  0
  1 33  1  0
  6 34  1  0
  7 35  1  0
  8 36  1  0
 10 37  1  0
 14 38  1  0
 15 39  1  0
 16 40  1  0
 22 41  1  0
 22 42  1  0
 24 43  1  0
 25 44  1  0
 26 45  1  0
 27 46  1  0
 28 47  1  0
 29 48  1  0
 30 49  1  0
M  CHG  1  21  -1
M  END
>  <UniqueID>  (14) 
14

>  <SMILES>  (14) 
CS(=O)(=O)c1cccc(NC(=O)c2cccc(S(=O)(=O)[N-]Cc3ccccc3)c2)c1

>  <Energy>  (14) 
53.156396458654896

>  <Genealogy>  (14) 
CS(=O)(=O)c1cccc(NC(=O)c2cccc(S(=O)(=O)[N-]Cc3ccccc3)c2)c1 (protonated)
CS(=O)(=O)c1cccc(NC(=O)c2cccc(S(=O)(=O)[N-]Cc3ccccc3)c2)c1 (3D coordinates assigned)
CS(=O)(=O)c1cccc(NC(=O)c2cccc(S(=O)(=O)[N-]Cc3ccccc3)c2)c1 (optimized conformer: 53.156396458654896 kcal/mol)

>  <smiles>  (14) 
CS(=O)(=O)c1cccc(NC(=O)c2cccc(S(=O)(=O)NCc3ccccc3)c2)c1

>  <score_type>  (14) 
oracle

>  <origin>  (14) 
adgpu

>  <m_score__min__energy>  (14) 
-11.199999999999999

>  <m_primary>  (14) 
energy

$$$$
14:0
     RDKit          3D

 43 45  0  0  0  0  0  0  0  0999 V2000
   -3.0830   20.7710  -33.0810 C   0  0  0  0  0  0  0  0  0  0  0  0
   -2.4960   21.2500  -31.7870 C   0  0  0  0  0  0  0  0  0  0  0  0
   -1.5120   20.4880  -31.1390 C   0  0  0  0  0  0  0  0  0  0  0  0
   -0.9370   20.9490  -29.9520 C   0  0  0  0  0  0  0  0  0  0  0  0
   -1.3310   22.1730  -29.4080 C   0  0  0  0  0  0  0  0  0  0  0  0
   -2.3040   22.9480  -30.0530 C   0  0  0  0  0  0  0  0  0  0  0  0
   -2.7540   24.5130  -29.3780 S   0  0  0  0  0  0  0  0  0  0  0  0
   -3.3960   24.3410  -28.0280 O   0  0  0  0  0  0  0  0  0  0  0  0
   -1.5200   25.3560  -29.2240 O   0  0  0  0  0  0  0  0  0  0  0  0
   -3.8610   25.2980  -30.4610 N   0  0  0  0  0  0  0  0  0  0  0  0
   -5.2310   24.8510  -30.2020 C   0  0  0  0  0  0  0  0  0  0  0  0
   -5.9610   24.6260  -31.5250 C   0  0  0  0  0  0  0  0  0  0  0  0
   -6.5780   23.2570  -31.5660 C   0  0  0  0  0  0  0  0  0  0  0  0
   -7.5720   22.8060  -30.7190 C   0  0  0  0  0  0  0  0  0  0  0  0
   -7.7500   21.4690  -31.0110 C   0  0  0  0  0  0  0  0  0  0  0  0
   -6.8490   21.1570  -32.0200 C   0  0  0  0  0  0  0  0  0  0  0  0
   -6.6480   19.8120  -32.6220 C   0  0  0  0  0  0  0  0  0  0  0  0
   -7.0670   18.6500  -31.9480 C   0  0  0  0  0  0  0  0  0  0  0  0
   -6.8930   17.3900  -32.5290 C   0  0  0  0  0  0  0  0  0  0  0  0
   -6.3020   17.2750  -33.7890 C   0  0  0  0  0  0  0  0  0  0  0  0
   -5.8800   18.4190  -34.4670 C   0  0  0  0  0  0  0  0  0  0  0  0
   -6.0480   19.6800  -33.8910 C   0  0  0  0  0  0  0  0  0  0  0  0
   -6.1320   22.2540  -32.3450 N   0  0  0  0  0  0  0  0  0  0  0  0
   -2.8760   22.4900  -31.2500 C   0  0  0  0  0  0  0  0  0  0  0  0
   -3.9199   20.0880  -32.8734 H   0  0  0  0  0  0  0  0  0  0  0  0
   -3.4477   21.6326  -33.6594 H   0  0  0  0  0  0  0  0  0  0  0  0
   -2.3120   20.2409  -33.6594 H   0  0  0  0  0  0  0  0  0  0  0  0
   -1.1927   19.5260  -31.5663 H   0  0  0  0  0  0  0  0  0  0  0  0
   -0.1707   20.3451  -29.4440 H   0  0  0  0  0  0  0  0  0  0  0  0
   -0.8769   22.5295  -28.4717 H   0  0  0  0  0  0  0  0  0  0  0  0
   -5.2066   23.9095  -29.6337 H   0  0  0  0  0  0  0  0  0  0  0  0
   -5.7605   25.6208  -29.6215 H   0  0  0  0  0  0  0  0  0  0  0  0
   -6.7526   25.3820  -31.6335 H   0  0  0  0  0  0  0  0  0  0  0  0
   -5.2357   24.7113  -32.3476 H   0  0  0  0  0  0  0  0  0  0  0  0
   -8.1130   23.3946  -29.9634 H   0  0  0  0  0  0  0  0  0  0  0  0
   -8.4671   20.7832  -30.5361 H   0  0  0  0  0  0  0  0  0  0  0  0
   -7.5352   18.7335  -30.9561 H   0  0  0  0  0  0  0  0  0  0  0  0
   -7.2222   16.4879  -31.9926 H   0  0  0  0  0  0  0  0  0  0  0  0
   -6.1693   16.2835  -34.2465 H   0  0  0  0  0  0  0  0  0  0  0  0
   -5.4133   18.3273  -35.4588 H   0  0  0  0  0  0  0  0  0  0  0  0
   -5.7098   20.5766  -34.4311 H   0  0  0  0  0  0  0  0  0  0  0  0
   -5.3490   22.3230  -33.0330 H   0  0  0  0  0  0  0  0  0  0  0  0
   -3.6253   23.1054  -31.7695 H   0  0  0  0  0  0  0  0  0  0  0  0
  1  2  1  0
  2  3  2  0
  3  4  1  0
  4  5  2  0
  5  6  1  0
  6  7  1  0
  7  8  2  0
  7  9  2  0
  7 10  1  0
 10 11  1  0
 11 12  1  0
 12 13  1  0
 13 14  2  0
 14 15  1  0
 15 16  2  0
 16 17  1  0
 17 18  2  0
 18 19  1  0
 19 20  2  0
 20 21  1  0
 21 22  2  0
 16 23  1  0
  6 24  2  0
 24  2  1  0
 23 13  1  0
 22 17  1  0
  1 25  1  0
  1 26  1  0
  1 27  1  0
  3 28  1  0
  4 29  1  0
  5 30  1  0
 11 31  1  0
 11 32  1  0
 12 33  1  0
 12 34  1  0
 14 35  1  0
 15 36  1  0
 18 37  1  0
 19 38  1  0
 20 39  1  0
 21 40  1  0
 22 41  1  0
 23 42  1  0
 24 43  1  0
M  CHG  1  10  -1
M  END
>  <UniqueID>  (15) 
15

>  <SMILES>  (15) 
Cc1cccc(S(=O)(=O)[N-]CCc2ccc(-c3ccccc3)[nH]2)c1

>  <Energy>  (15) 
63.865123302448566

>  <Genealogy>  (15) 
Cc1cccc(S(=O)(=O)[N-]CCc2ccc(-c3ccccc3)[nH]2)c1 (protonated)
Cc1cccc(S(=O)(=O)[N-]CCc2ccc(-c3ccccc3)[nH]2)c1 (3D coordinates assigned)
Cc1cccc(S(=O)(=O)[N-]CCc2ccc(-c3ccccc3)[nH]2)c1 (optimized conformer: 63.865123302448566 kcal/mol)

>  <smiles>  (15) 
Cc1cccc(S(=O)(=O)NCCc2ccc(-c3ccccc3)[nH]2)c1

>  <score_type>  (15) 
oracle

>  <origin>  (15) 
adgpu

>  <m_score__min__energy>  (15) 
-10.800000000000001

>  <m_primary>  (15) 
energy

$$$$
15:0
     RDKit          3D

 57 61  0  0  1  0  0  0  0  0999 V2000
   -3.1080   21.3750  -27.7930 C   0  0  0  0  0  0  0  0  0  0  0  0
   -2.4250   20.1140  -27.4250 C   0  0  0  0  0  0  0  0  0  0  0  0
   -1.2630   19.6290  -28.0060 C   0  0  0  0  0  0  0  0  0  0  0  0
   -0.9640   18.4360  -27.3780 C   0  0  0  0  0  0  0  0  0  0  0  0
    0.0660   17.7280  -27.6890 N   0  0  0  0  0  0  0  0  0  0  0  0
    0.9720   18.1380  -28.7160 C   0  0  0  0  0  0  0  0  0  0  0  0
    0.5740   18.3460  -29.9910 N   0  0  0  0  0  0  0  0  0  0  0  0
    1.4540   18.7350  -30.9510 C   0  0  0  0  0  0  0  0  0  0  0  0
    0.9480   19.0160  -32.6400 S   0  0  0  0  0  0  0  0  0  0  0  0
   -0.6290   19.8560  -32.6480 C   0  0  0  0  0  0  0  0  0  0  0  0
   -1.6820   19.4220  -33.4280 C   0  0  0  0  0  0  0  0  0  0  0  0
   -2.8780   20.1040  -33.3990 C   0  0  0  0  0  0  0  0  0  0  0  0
   -2.9910   21.2160  -32.5810 C   0  0  0  0  0  0  0  0  0  0  0  0
   -4.2690   21.8790  -32.6030 N   0  0  0  0  0  0  0  0  0  0  0  0
   -5.3760   21.1600  -32.1520 C   0  0  0  0  0  0  0  0  0  0  0  0
   -5.1530   19.9660  -31.7580 O   0  0  0  0  0  0  0  0  0  0  0  0
   -6.7450   21.6150  -32.0820 C   0  0  0  0  0  0  0  0  0  0  0  0
   -7.7750   20.6650  -32.0020 C   0  0  0  0  0  0  0  0  0  0  0  0
   -9.0950   21.0560  -31.9330 C   0  0  0  0  0  0  0  0  0  0  0  0
   -9.4590   22.3970  -31.9410 C   0  0  0  0  0  0  0  0  0  0  0  0
   -8.4670   23.2860  -32.0170 N   0  0  0  0  0  0  0  0  0  0  0  0
   -7.1590   22.9220  -32.0860 C   0  0  0  0  0  0  0  0  0  0  0  0
   -6.2430   23.9490  -32.1600 O   0  0  0  0  0  0  0  0  0  0  0  0
   -5.2740   24.4550  -30.8890 S   0  0  0  0  0  0  0  0  0  0  0  0
   -5.8440   23.7020  -29.3890 C   0  0  0  0  0  0  0  0  0  0  0  0
   -5.2950   25.9470  -30.8140 O   0  0  0  0  0  0  0  0  0  0  0  0
   -3.8550   24.0610  -31.1970 O   0  0  0  0  0  0  0  0  0  0  0  0
   -1.9540   21.6730  -31.7920 C   0  0  0  0  0  0  0  0  0  0  0  0
   -0.7620   20.9760  -31.8330 C   0  0  0  0  0  0  0  0  0  0  0  0
    2.7440   18.9160  -30.6170 N   0  0  0  0  0  0  0  0  0  0  0  0
    3.1460   18.7160  -29.3680 N   0  0  0  0  0  0  0  0  0  0  0  0
    4.3800   18.8360  -28.8160 C   0  0  0  0  0  0  0  0  0  0  0  0
    4.2970   18.5150  -27.4620 C   0  0  0  0  0  0  0  0  0  0  0  0
    2.9690   18.1940  -27.2030 C   0  0  0  0  0  0  0  0  0  0  0  0
    2.2970   18.3270  -28.3870 C   0  0  0  0  0  0  0  0  0  0  0  0
   -1.9200   18.2340  -26.4640 N   0  0  0  0  0  0  0  0  0  0  0  0
   -2.7970   19.2290  -26.4830 N   0  0  0  0  0  0  0  0  0  0  0  0
   -3.3999   21.9140  -26.8796 H   0  0  0  0  0  0  0  0  0  0  0  0
   -2.4260   22.0017  -28.3864 H   0  0  0  0  0  0  0  0  0  0  0  0
   -4.0055   21.1462  -28.3864 H   0  0  0  0  0  0  0  0  0  0  0  0
   -0.6881   20.1046  -28.8143 H   0  0  0  0  0  0  0  0  0  0  0  0
   -1.5663   18.5359  -34.0695 H   0  0  0  0  0  0  0  0  0  0  0  0
   -3.7275   19.7719  -34.0138 H   0  0  0  0  0  0  0  0  0  0  0  0
   -4.3540   22.8480  -32.9380 H   0  0  0  0  0  0  0  0  0  0  0  0
   -7.5255   19.5937  -31.9943 H   0  0  0  0  0  0  0  0  0  0  0  0
   -9.8795   20.2875  -31.8701 H   0  0  0  0  0  0  0  0  0  0  0  0
  -10.5122   22.7099  -31.8874 H   0  0  0  0  0  0  0  0  0  0  0  0
   -5.4322   24.2460  -28.5262 H   0  0  0  0  0  0  0  0  0  0  0  0
   -6.9429   23.7384  -29.3550 H   0  0  0  0  0  0  0  0  0  0  0  0
   -5.5106   22.6543  -29.3550 H   0  0  0  0  0  0  0  0  0  0  0  0
   -2.0729   22.5607  -31.1534 H   0  0  0  0  0  0  0  0  0  0  0  0
    0.0871   21.3083  -31.2177 H   0  0  0  0  0  0  0  0  0  0  0  0
    5.2942   19.1367  -29.3487 H   0  0  0  0  0  0  0  0  0  0  0  0
    5.1241   18.5155  -26.7368 H   0  0  0  0  0  0  0  0  0  0  0  0
    2.5423   17.8921  -26.2351 H   0  0  0  0  0  0  0  0  0  0  0  0
   -1.9750   17.4160  -25.8240 H   0  0  0  0  0  0  0  0  0  0  0  0
   -3.6480   19.3390  -25.8810 H   0  0  0  0  0  0  0  0  0  0  0  0
  1  2  1  0
  2  3  2  0
  3  4  1  0
  4  5  2  0
  5  6  1  0
  6  7  2  0
  7  8  1  0
  8  9  1  0
  9 10  1  0
 10 11  2  0
 11 12  1  0
 12 13  2  0
 13 14  1  0
 14 15  1  0
 15 16  2  0
 15 17  1  0
 17 18  2  0
 18 19  1  0
 19 20  2  0
 20 21  1  0
 21 22  2  0
 22 23  1  0
 23 24  1  0
 24 25  1  0
 24 26  2  0
 24 27  2  0
 13 28  1  0
 28 29  2  0
  8 30  2  0
 30 31  1  0
 31 32  1  0
 32 33  2  0
 33 34  1  0
 34 35  2  0
  4 36  1  0
 36 37  1  0
 37  2  1  0
 35  6  1  0
 29 10  1  0
 35 31  1  0
 22 17  1  0
  1 38  1  0
  1 39  1  0
  1 40  1  0
  3 41  1  0
 11 42  1  0
 12 43  1  0
 14 44  1  0
 18 45  1  0
 19 46  1  0
 20 47  1  0
 25 48  1  0
 25 49  1  0
 25 50  1  0
 28 51  1  0
 29 52  1  0
 32 53  1  0
 33 54  1  0
 34 55  1  0
 36 56  1  0
 37 57  1  0
M  END
>  <smiles>  (16) 
Cc1cc(=Nc2nc(Sc3ccc(NC(=O)c4cccnc4OS(C)(=O)=O)cc3)nn3cccc23)[nH][nH]1

>  <score_type>  (16) 
oracle

>  <origin>  (16) 
adgpu

>  <m_score__min__energy>  (16) 
-10.85

>  <m_primary>  (16) 
energy

$$$$
16:0
     RDKit          3D

 56 59  0  0  0  0  0  0  0  0999 V2000
    1.7051   23.6658  -25.6435 H   0  0  0  0  0  0  0  0  0  0  0  0
    1.0210   23.5170  -26.4920 C   0  0  0  0  0  0  0  0  0  0  0  0
    1.0990   24.4810  -27.6040 C   0  0  0  0  0  0  0  0  0  0  0  0
    2.1700   24.5680  -28.2610 O   0  0  0  0  0  0  0  0  0  0  0  0
    0.0240   25.3980  -27.8470 N   0  0  0  0  0  0  0  0  0  0  0  0
   -1.3760   25.1290  -27.6900 C   0  0  0  0  0  0  0  0  0  0  0  0
   -2.1800   24.7220  -28.7700 C   0  0  0  0  0  0  0  0  0  0  0  0
   -1.7367   24.6262  -29.7721 H   0  0  0  0  0  0  0  0  0  0  0  0
   -3.5450   24.4360  -28.5830 C   0  0  0  0  0  0  0  0  0  0  0  0
   -4.4000   24.0180  -29.7210 C   0  0  0  0  0  0  0  0  0  0  0  0
   -4.1570   24.4620  -30.8760 O   0  0  0  0  0  0  0  0  0  0  0  0
   -5.5290   23.1520  -29.5150 N   0  0  0  0  0  0  0  0  0  0  0  0
   -6.0170   23.1970  -28.5920 H   0  0  0  0  0  0  0  0  0  0  0  0
   -6.1050   22.3290  -30.5440 C   0  0  0  0  0  0  0  0  0  0  0  0
   -5.3130   21.4710  -31.3250 C   0  0  0  0  0  0  0  0  0  0  0  0
   -4.2274   21.4268  -31.1529 H   0  0  0  0  0  0  0  0  0  0  0  0
   -5.8910   20.6680  -32.3240 C   0  0  0  0  0  0  0  0  0  0  0  0
   -5.0700   19.8100  -33.1440 N   0  0  0  0  0  0  0  0  0  0  0  0
   -3.7580   19.9570  -33.4330 C   0  0  0  0  0  0  0  0  0  0  0  0
   -3.1382   20.7792  -33.0459 H   0  0  0  0  0  0  0  0  0  0  0  0
   -3.2890   18.9880  -34.2470 N   0  0  0  0  0  0  0  0  0  0  0  0
   -4.3590   18.1980  -34.4620 C   0  0  0  0  0  0  0  0  0  0  0  0
   -4.3540   17.0190  -35.3760 C   0  0  0  0  0  0  0  0  0  0  0  0
   -4.3501   16.0938  -34.7810 H   0  0  0  0  0  0  0  0  0  0  0  0
   -5.2523   17.0431  -36.0105 H   0  0  0  0  0  0  0  0  0  0  0  0
   -3.4560   17.0507  -36.0105 H   0  0  0  0  0  0  0  0  0  0  0  0
   -5.4570   18.7000  -33.8020 C   0  0  0  0  0  0  0  0  0  0  0  0
   -6.4700   18.2714  -33.8102 H   0  0  0  0  0  0  0  0  0  0  0  0
   -7.2840   20.7170  -32.5150 C   0  0  0  0  0  0  0  0  0  0  0  0
   -7.7444   20.1095  -33.3080 H   0  0  0  0  0  0  0  0  0  0  0  0
   -8.0950   21.5310  -31.7070 C   0  0  0  0  0  0  0  0  0  0  0  0
   -9.5830   21.5970  -31.9480 C   0  0  0  0  0  0  0  0  0  0  0  0
  -10.0150   20.4780  -32.6390 F   0  0  0  0  0  0  0  0  0  0  0  0
  -10.2730   21.6590  -30.7500 F   0  0  0  0  0  0  0  0  0  0  0  0
   -9.8730   22.7260  -32.6920 F   0  0  0  0  0  0  0  0  0  0  0  0
   -7.4930   22.3460  -30.7360 C   0  0  0  0  0  0  0  0  0  0  0  0
   -8.1186   23.0066  -30.1178 H   0  0  0  0  0  0  0  0  0  0  0  0
   -4.0970   24.5680  -27.2970 C   0  0  0  0  0  0  0  0  0  0  0  0
   -5.1679   24.3725  -27.1392 H   0  0  0  0  0  0  0  0  0  0  0  0
   -3.2940   24.9460  -26.2180 C   0  0  0  0  0  0  0  0  0  0  0  0
   -3.7326   25.0335  -25.2130 H   0  0  0  0  0  0  0  0  0  0  0  0
   -1.9380   25.2130  -26.4100 C   0  0  0  0  0  0  0  0  0  0  0  0
   -1.1700   25.5700  -25.3500 F   0  0  0  0  0  0  0  0  0  0  0  0
    0.1820   22.4730  -26.4330 C   0  0  0  0  0  0  0  0  0  0  0  0
    0.0999   21.9470  -25.4704 H   0  0  0  0  0  0  0  0  0  0  0  0
   -0.6400   21.9700  -27.5490 C   0  0  0  0  0  0  0  0  0  0  0  0
   -0.2980   22.1090  -28.8100 O   0  0  0  0  0  0  0  0  0  0  0  0
   -1.2480   21.5960  -29.5550 C   0  0  0  0  0  0  0  0  0  0  0  0
   -1.2270   21.5860  -31.0470 C   0  0  0  0  0  0  0  0  0  0  0  0
   -0.2856   21.1377  -31.3975 H   0  0  0  0  0  0  0  0  0  0  0  0
   -2.0761   20.9956  -31.4217 H   0  0  0  0  0  0  0  0  0  0  0  0
   -1.3038   22.6174  -31.4217 H   0  0  0  0  0  0  0  0  0  0  0  0
   -2.2720   21.1170  -28.7620 C   0  0  0  0  0  0  0  0  0  0  0  0
   -3.2043   20.6389  -29.0970 H   0  0  0  0  0  0  0  0  0  0  0  0
   -1.8820   21.3630  -27.4630 C   0  0  0  0  0  0  0  0  0  0  0  0
   -2.4421   21.1260  -26.5464 H   0  0  0  0  0  0  0  0  0  0  0  0
  1  2  1  0
  2  3  1  0
  3  4  2  0
  3  5  1  0
  5  6  1  0
  6  7  2  0
  7  8  1  0
  7  9  1  0
  9 10  1  0
 10 11  2  0
 10 12  1  0
 12 13  1  0
 12 14  1  0
 14 15  2  0
 15 16  1  0
 15 17  1  0
 17 18  1  0
 18 19  1  0
 19 20  1  0
 19 21  2  0
 21 22  1  0
 22 23  1  0
 23 24  1  0
 23 25  1  0
 23 26  1  0
 22 27  2  0
 27 28  1  0
 17 29  2  0
 29 30  1  0
 29 31  1  0
 31 32  1  0
 32 33  1  0
 32 34  1  0
 32 35  1  0
 31 36  2  0
 36 37  1  0
  9 38  2  0
 38 39  1  0
 38 40  1  0
 40 41  1  0
 40 42  2  0
 42 43  1  0
  2 44  2  0
 44 45  1  0
 44 46  1  0
 46 47  1  0
 47 48  1  0
 48 49  1  0
 49 50  1  0
 49 51  1  0
 49 52  1  0
 48 53  2  0
 53 54  1  0
 53 55  1  0
 55 56  1  0
 42  6  1  0
 55 46  2  0
 36 14  1  0
 27 18  1  0
M  CHG  1   5  -1
M  END
>  <UniqueID>  (17) 
16

>  <SMILES>  (17) 
Cc1cn(-c2cc(NC(=O)c3ccc(F)c([N-]C(=O)/C=C\c4ccc(C)o4)c3)cc(C(F)(F)F)c2)cn1

>  <Energy>  (17) 
131.53904406365808

>  <Genealogy>  (17) 
Cc1cn(-c2cc(NC(=O)c3ccc(F)c([N-]C(=O)C=Cc4ccc(C)o4)c3)cc(C(F)(F)F)c2)cn1 (protonated)
Cc1cn(-c2cc(NC(=O)c3ccc(F)c([N-]C(=O)/C=C\c4ccc(C)o4)c3)cc(C(F)(F)F)c2)cn1 (cis-trans isomerization)
Cc1cn(-c2cc(NC(=O)c3ccc(F)c([N-]C(=O)/C=C\c4ccc(C)o4)c3)cc(C(F)(F)F)c2)cn1 (3D coordinates assigned)
Cc1cn(-c2cc(NC(=O)c3ccc(F)c([N-]C(=O)/C=C\c4ccc(C)o4)c3)cc(C(F)(F)F)c2)cn1 (optimized conformer: 131.53904406365808 kcal/mol)

>  <smiles>  (17) 
Cc1cn(-c2cc(NC(=O)c3ccc(F)c(NC(=O)C=Cc4ccc(C)o4)c3)cc(C(F)(F)F)c2)cn1

>  <score_type>  (17) 
oracle

>  <origin>  (17) 
adgpu

>  <m_score__min__energy>  (17) 
-10.59

>  <m_primary>  (17) 
energy

$$$$
17:0
     RDKit          3D

 32 34  0  0  0  0  0  0  0  0999 V2000
   -6.8894   15.9484  -34.2594 H   0  0  0  0  0  0  0  0  0  0  0  0
   -6.6980   16.9600  -33.8720 C   0  0  0  0  0  0  0  0  0  0  0  0
   -5.8950   17.8440  -34.5960 C   0  0  0  0  0  0  0  0  0  0  0  0
   -5.4541   17.5281  -35.5530 H   0  0  0  0  0  0  0  0  0  0  0  0
   -5.6510   19.1310  -34.1050 C   0  0  0  0  0  0  0  0  0  0  0  0
   -5.0185   19.8238  -34.6795 H   0  0  0  0  0  0  0  0  0  0  0  0
   -6.2090   19.5460  -32.8810 C   0  0  0  0  0  0  0  0  0  0  0  0
   -5.9520   20.9110  -32.3570 C   0  0  0  0  0  0  0  0  0  0  0  0
   -4.6420   21.4160  -32.2890 C   0  0  0  0  0  0  0  0  0  0  0  0
   -3.8004   20.7940  -32.6278 H   0  0  0  0  0  0  0  0  0  0  0  0
   -4.3980   22.7010  -31.7950 C   0  0  0  0  0  0  0  0  0  0  0  0
   -3.3666   23.0806  -31.7479 H   0  0  0  0  0  0  0  0  0  0  0  0
   -5.4600   23.5120  -31.3580 C   0  0  0  0  0  0  0  0  0  0  0  0
   -5.2050   24.8760  -30.8340 C   0  0  0  0  0  0  0  0  0  0  0  0
   -6.1640   25.6820  -30.7060 O   0  0  0  0  0  0  0  0  0  0  0  0
   -3.8650   25.2620  -30.4780 N   0  0  0  0  0  0  0  0  0  0  0  0
   -3.1350   24.8420  -29.4840 C   0  0  0  0  0  0  0  0  0  0  0  0
   -1.8860   25.2970  -29.2730 N   0  0  0  0  0  0  0  0  0  0  0  0
   -1.4190   24.6820  -28.2000 N   0  0  0  0  0  0  0  0  0  0  0  0
   -0.4680   24.8390  -27.8000 H   0  0  0  0  0  0  0  0  0  0  0  0
   -2.3480   23.8370  -27.7180 C   0  0  0  0  0  0  0  0  0  0  0  0
   -2.2303   23.1952  -26.8325 H   0  0  0  0  0  0  0  0  0  0  0  0
   -3.4730   23.9060  -28.5150 C   0  0  0  0  0  0  0  0  0  0  0  0
   -4.4161   23.3500  -28.4078 H   0  0  0  0  0  0  0  0  0  0  0  0
   -6.7710   23.0070  -31.4260 C   0  0  0  0  0  0  0  0  0  0  0  0
   -7.6128   23.6289  -31.0874 H   0  0  0  0  0  0  0  0  0  0  0  0
   -7.0140   21.7220  -31.9200 C   0  0  0  0  0  0  0  0  0  0  0  0
   -8.0452   21.3421  -31.9672 H   0  0  0  0  0  0  0  0  0  0  0  0
   -7.0160   18.6430  -32.1610 C   0  0  0  0  0  0  0  0  0  0  0  0
   -7.4585   18.9506  -31.2021 H   0  0  0  0  0  0  0  0  0  0  0  0
   -7.2580   17.3590  -32.6570 C   0  0  0  0  0  0  0  0  0  0  0  0
   -7.8910   16.6614  -32.0889 H   0  0  0  0  0  0  0  0  0  0  0  0
  1  2  1  0
  2  3  2  0
  3  4  1  0
  3  5  1  0
  5  6  1  0
  5  7  2  0
  7  8  1  0
  8  9  2  0
  9 10  1  0
  9 11  1  0
 11 12  1  0
 11 13  2  0
 13 14  1  0
 14 15  2  0
 14 16  1  0
 16 17  2  0
 17 18  1  0
 18 19  1  0
 19 20  1  0
 19 21  1  0
 21 22  1  0
 21 23  2  0
 23 24  1  0
 13 25  1  0
 25 26  1  0
 25 27  2  0
 27 28  1  0
  7 29  1  0
 29 30  1  0
 29 31  2  0
 31 32  1  0
 31  2  1  0
 27  8  1  0
 23 17  1  0
M  CHG  1  18  -1
M  END
>  <UniqueID>  (18) 
17

>  <SMILES>  (18) 
O=C(/N=c1\cc[nH][n-]1)c1ccc(-c2ccccc2)cc1

>  <Energy>  (18) 
75.40528541773911

>  <Genealogy>  (18) 
O=C(N=c1cc[nH][n-]1)c1ccc(-c2ccccc2)cc1 (protonated)
O=C(/N=c1\cc[nH][n-]1)c1ccc(-c2ccccc2)cc1 (cis-trans isomerization)
O=C(/N=c1\cc[nH][n-]1)c1ccc(-c2ccccc2)cc1 (3D coordinates assigned)
O=C(/N=c1\cc[nH][n-]1)c1ccc(-c2ccccc2)cc1 (optimized conformer: 75.40528541773911 kcal/mol)

>  <smiles>  (18) 
O=C(N=c1cc[nH][nH]1)c1ccc(-c2ccccc2)cc1

>  <score_type>  (18) 
oracle

>  <origin>  (18) 
adgpu

>  <m_score__min__energy>  (18) 
-9.9299999999999997

>  <m_primary>  (18) 
energy

$$$$
18:0
     RDKit          3D

 42 43  0  0  0  0  0  0  0  0999 V2000
   -5.1200   13.3570  -34.8370 C   0  0  0  0  0  0  0  0  0  0  0  0
   -5.7280   14.3680  -33.8670 C   0  0  0  0  0  0  0  0  0  0  0  0
   -4.7670   14.7870  -32.8290 N   0  0  0  0  0  0  0  0  0  0  0  0
   -4.0470   13.7810  -32.0300 C   0  0  0  0  0  0  0  0  0  0  0  0
   -4.9130   13.2500  -30.8910 C   0  0  0  0  0  0  0  0  0  0  0  0
   -4.2690   16.1410  -32.8420 C   0  0  0  0  0  0  0  0  0  0  0  0
   -3.0260   16.3450  -32.7920 O   0  0  0  0  0  0  0  0  0  0  0  0
   -5.1910   17.3000  -32.9010 C   0  0  0  0  0  0  0  0  0  0  0  0
   -5.1280   18.2110  -33.9690 C   0  0  0  0  0  0  0  0  0  0  0  0
   -6.0000   19.3020  -34.0200 C   0  0  0  0  0  0  0  0  0  0  0  0
   -6.9460   19.5040  -33.0100 C   0  0  0  0  0  0  0  0  0  0  0  0
   -7.7990   20.6540  -33.0870 N   0  0  0  0  0  0  0  0  0  0  0  0
   -8.2630   21.6440  -31.7420 S   0  0  0  0  0  0  0  0  0  0  0  0
   -9.5340   22.3710  -32.0810 O   0  0  0  0  0  0  0  0  0  0  0  0
   -8.5130   20.7690  -30.5480 O   0  0  0  0  0  0  0  0  0  0  0  0
   -6.9700   22.7760  -31.3600 C   0  0  0  0  0  0  0  0  0  0  0  0
   -7.1770   23.8330  -30.4660 C   0  0  0  0  0  0  0  0  0  0  0  0
   -6.1310   24.7100  -30.1700 C   0  0  0  0  0  0  0  0  0  0  0  0
   -4.8790   24.5180  -30.7780 C   0  0  0  0  0  0  0  0  0  0  0  0
   -3.8850   25.3070  -30.5190 N   0  0  0  0  0  0  0  0  0  0  0  0
   -4.7030   23.4860  -31.6450 N   0  0  0  0  0  0  0  0  0  0  0  0
   -5.7090   22.6210  -31.9460 C   0  0  0  0  0  0  0  0  0  0  0  0
   -7.0220   18.5850  -31.9480 C   0  0  0  0  0  0  0  0  0  0  0  0
   -6.1580   17.4860  -31.9040 C   0  0  0  0  0  0  0  0  0  0  0  0
   -4.6346   12.5498  -34.2688 H   0  0  0  0  0  0  0  0  0  0  0  0
   -5.9134   12.9336  -35.4704 H   0  0  0  0  0  0  0  0  0  0  0  0
   -4.3741   13.8594  -35.4704 H   0  0  0  0  0  0  0  0  0  0  0  0
   -6.0479   15.2551  -34.4333 H   0  0  0  0  0  0  0  0  0  0  0  0
   -6.5804   13.8865  -33.3655 H   0  0  0  0  0  0  0  0  0  0  0  0
   -3.7614   12.9431  -32.6829 H   0  0  0  0  0  0  0  0  0  0  0  0
   -3.1566   14.2578  -31.5943 H   0  0  0  0  0  0  0  0  0  0  0  0
   -4.4612   13.5270  -29.9271 H   0  0  0  0  0  0  0  0  0  0  0  0
   -5.9205   13.6858  -30.9625 H   0  0  0  0  0  0  0  0  0  0  0  0
   -4.9815   12.1545  -30.9625 H   0  0  0  0  0  0  0  0  0  0  0  0
   -4.3880   18.0646  -34.7696 H   0  0  0  0  0  0  0  0  0  0  0  0
   -5.9418   20.0078  -34.8617 H   0  0  0  0  0  0  0  0  0  0  0  0
   -8.1622   23.9728  -29.9972 H   0  0  0  0  0  0  0  0  0  0  0  0
   -6.2859   25.5426  -29.4680 H   0  0  0  0  0  0  0  0  0  0  0  0
   -3.9690   26.1080  -29.8550 H   0  0  0  0  0  0  0  0  0  0  0  0
   -5.5304   21.7970  -32.6525 H   0  0  0  0  0  0  0  0  0  0  0  0
   -7.7638   18.7311  -31.1490 H   0  0  0  0  0  0  0  0  0  0  0  0
   -6.2382   16.7617  -31.0800 H   0  0  0  0  0  0  0  0  0  0  0  0
  1  2  1  0
  2  3  1  0
  3  4  1  0
  4  5  1  0
  3  6  1  0
  6  7  2  0
  6  8  1  0
  8  9  2  0
  9 10  1  0
 10 11  2  0
 11 12  1  0
 12 13  1  0
 13 14  2  0
 13 15  2  0
 13 16  1  0
 16 17  1  0
 17 18  2  0
 18 19  1  0
 19 20  2  3
 19 21  1  0
 21 22  1  0
 11 23  1  0
 23 24  2  0
 24  8  1  0
 22 16  2  0
  1 25  1  0
  1 26  1  0
  1 27  1  0
  2 28  1  0
  2 29  1  0
  4 30  1  0
  4 31  1  0
  5 32  1  0
  5 33  1  0
  5 34  1  0
  9 35  1  0
 10 36  1  0
 17 37  1  0
 18 38  1  0
 20 39  1  0
 22 40  1  0
 23 41  1  0
 24 42  1  0
M  CHG  2  12  -1  21  -1
M  END
>  <UniqueID>  (19) 
18

>  <SMILES>  (19) 
CCN(CC)C(=O)c1ccc([N-]S(=O)(=O)c2ccc(=N)[n-]c2)cc1

>  <Energy>  (19) 
46.94177519089132

>  <Genealogy>  (19) 
CCN(CC)C(=O)c1ccc([N-]S(=O)(=O)c2ccc(=N)[n-]c2)cc1 (protonated)
CCN(CC)C(=O)c1ccc([N-]S(=O)(=O)c2ccc(=N)[n-]c2)cc1 (3D coordinates assigned)
CCN(CC)C(=O)c1ccc([N-]S(=O)(=O)c2ccc(=N)[n-]c2)cc1 (optimized conformer: 46.94177519089132 kcal/mol)

>  <smiles>  (19) 
CCN(CC)C(=O)c1ccc(NS(=O)(=O)c2ccc(=N)[nH]c2)cc1

>  <score_type>  (19) 
oracle

>  <origin>  (19) 
adgpu

>  <m_score__min__energy>  (19) 
-9.5399999999999991

>  <m_primary>  (19) 
energy

$$$$
19:0
     RDKit          3D

 47 49  0  0  0  0  0  0  0  0999 V2000
   -3.5435   24.1145  -26.7046 H   0  0  0  0  0  0  0  0  0  0  0  0
   -2.7290   24.7000  -27.1560 C   0  0  0  0  0  0  0  0  0  0  0  0
   -2.6960   24.8620  -28.4430 N   0  0  0  0  0  0  0  0  0  0  0  0
   -3.6320   24.3000  -29.3750 C   0  0  0  0  0  0  0  0  0  0  0  0
   -3.5720   24.6660  -30.5790 O   0  0  0  0  0  0  0  0  0  0  0  0
   -4.6650   23.2730  -28.9780 C   0  0  0  0  0  0  0  0  0  0  0  0
   -5.5140   23.7877  -28.5044 H   0  0  0  0  0  0  0  0  0  0  0  0
   -4.1911   22.5652  -28.2820 H   0  0  0  0  0  0  0  0  0  0  0  0
   -5.1620   22.5040  -30.1480 N   0  0  0  0  0  0  0  0  0  0  0  0
   -6.3530   22.8460  -30.7660 C   0  0  0  0  0  0  0  0  0  0  0  0
   -7.2250   23.9790  -30.2740 C   0  0  0  0  0  0  0  0  0  0  0  0
   -7.2306   23.9863  -29.1740 H   0  0  0  0  0  0  0  0  0  0  0  0
   -6.8276   24.9353  -30.6450 H   0  0  0  0  0  0  0  0  0  0  0  0
   -8.2511   23.8397  -30.6450 H   0  0  0  0  0  0  0  0  0  0  0  0
   -6.7730   22.1650  -31.9170 C   0  0  0  0  0  0  0  0  0  0  0  0
   -7.6956   22.4743  -32.4300 H   0  0  0  0  0  0  0  0  0  0  0  0
   -6.0280   21.0990  -32.4140 C   0  0  0  0  0  0  0  0  0  0  0  0
   -6.4480   20.4120  -33.5650 C   0  0  0  0  0  0  0  0  0  0  0  0
   -7.3653   20.7235  -34.0862 H   0  0  0  0  0  0  0  0  0  0  0  0
   -5.7030   19.3340  -34.0490 C   0  0  0  0  0  0  0  0  0  0  0  0
   -6.0342   18.7986  -34.9510 H   0  0  0  0  0  0  0  0  0  0  0  0
   -4.5390   18.9350  -33.3900 C   0  0  0  0  0  0  0  0  0  0  0  0
   -3.9549   18.0856  -33.7738 H   0  0  0  0  0  0  0  0  0  0  0  0
   -4.1140   19.6120  -32.2440 C   0  0  0  0  0  0  0  0  0  0  0  0
   -3.1967   19.2918  -31.7283 H   0  0  0  0  0  0  0  0  0  0  0  0
   -4.8540   20.7030  -31.7450 C   0  0  0  0  0  0  0  0  0  0  0  0
   -4.4450   21.4130  -30.5980 C   0  0  0  0  0  0  0  0  0  0  0  0
   -3.4100   21.0320  -29.9830 O   0  0  0  0  0  0  0  0  0  0  0  0
   -1.6910   25.2890  -26.2890 C   0  0  0  0  0  0  0  0  0  0  0  0
   -2.0200   26.1690  -25.2420 C   0  0  0  0  0  0  0  0  0  0  0  0
   -3.0730   26.4260  -25.0546 H   0  0  0  0  0  0  0  0  0  0  0  0
   -1.0170   26.7190  -24.4380 C   0  0  0  0  0  0  0  0  0  0  0  0
   -1.2867   27.4000  -23.6173 H   0  0  0  0  0  0  0  0  0  0  0  0
    0.3320   26.4080  -24.6710 C   0  0  0  0  0  0  0  0  0  0  0  0
    1.4140   26.9860  -23.7800 C   0  0  2  0  0  0  0  0  0  0  0  0
    1.9167   27.8027  -24.3188 H   0  0  0  0  0  0  0  0  0  0  0  0
    2.4040   25.9580  -23.4540 N   0  0  0  0  0  0  0  0  0  0  0  0
    2.8130   26.1810  -22.5170 H   0  0  0  0  0  0  0  0  0  0  0  0
    1.9050   25.0450  -23.3440 H   0  0  0  0  0  0  0  0  0  0  0  0
    0.8210   27.5230  -22.5500 N   0  0  0  0  0  0  0  0  0  0  0  0
    0.2070   26.8070  -22.0960 H   0  0  0  0  0  0  0  0  0  0  0  0
    1.5800   27.7910  -21.8820 H   0  0  0  0  0  0  0  0  0  0  0  0
    0.2590   28.3770  -22.7680 H   0  0  0  0  0  0  0  0  0  0  0  0
    0.6590   25.5210  -25.7110 C   0  0  0  0  0  0  0  0  0  0  0  0
    1.7113   25.2579  -25.8942 H   0  0  0  0  0  0  0  0  0  0  0  0
   -0.3440   24.9710  -26.5140 C   0  0  0  0  0  0  0  0  0  0  0  0
   -0.0746   24.2832  -27.3290 H   0  0  0  0  0  0  0  0  0  0  0  0
  1  2  1  0
  2  3  2  0
  3  4  1  0
  4  5  2  0
  4  6  1  0
  6  7  1  0
  6  8  1  0
  6  9  1  0
  9 10  1  0
 10 11  1  0
 11 12  1  0
 11 13  1  0
 11 14  1  0
 10 15  2  0
 15 16  1  0
 15 17  1  0
 17 18  2  0
 18 19  1  0
 18 20  1  0
 20 21  1  0
 20 22  2  0
 22 23  1  0
 22 24  1  0
 24 25  1  0
 24 26  2  0
 26 27  1  0
 27 28  2  0
  2 29  1  0
 29 30  2  0
 30 31  1  0
 30 32  1  0
 32 33  1  0
 32 34  2  0
 34 35  1  0
 35 36  1  6
 35 37  1  0
 37 38  1  0
 37 39  1  0
 35 40  1  0
 40 41  1  0
 40 42  1  0
 40 43  1  0
 34 44  1  0
 44 45  1  0
 44 46  2  0
 46 47  1  0
 27  9  1  0
 46 29  1  0
 26 17  1  0
M  CHG  1  40   1
M  END
>  <UniqueID>  (20) 
19

>  <SMILES>  (20) 
Cc1cc2ccccc2c(=O)n1CC(=O)/N=C/c1ccc([C@H](N)[NH3+])cc1

>  <Energy>  (20) 
59.54665667463357

>  <Genealogy>  (20) 
Cc1cc2ccccc2c(=O)n1CC(=O)N=Cc1ccc(C(N)[NH3+])cc1 (protonated)
Cc1cc2ccccc2c(=O)n1CC(=O)N=Cc1ccc([C@H](N)[NH3+])cc1 (chirality)
Cc1cc2ccccc2c(=O)n1CC(=O)/N=C/c1ccc([C@H](N)[NH3+])cc1 (cis-trans isomerization)
Cc1cc2ccccc2c(=O)n1CC(=O)/N=C/c1ccc([C@H](N)[NH3+])cc1 (3D coordinates assigned)
Cc1cc2ccccc2c(=O)n1CC(=O)/N=C/c1ccc([C@H](N)[NH3+])cc1 (optimized conformer: 59.54665667463357 kcal/mol)

>  <smiles>  (20) 
Cc1cc2ccccc2c(=O)n1CC(=O)N=Cc1ccc(C(N)N)cc1

>  <score_type>  (20) 
oracle

>  <origin>  (20) 
adgpu

>  <m_score__min__energy>  (20) 
-10.4

>  <m_primary>  (20) 
energy

$$$$
20:0
     RDKit          3D

 39 42  0  0  0  0  0  0  0  0999 V2000
   -9.1130   18.5930  -31.7680 C   0  0  0  0  0  0  0  0  0  0  0  0
   -9.1690   20.0110  -32.3320 C   0  0  0  0  0  0  0  0  0  0  0  0
   -7.9290   20.7880  -31.9660 C   0  0  0  0  0  0  0  0  0  0  0  0
   -8.0730   21.8340  -31.1110 N   0  0  0  0  0  0  0  0  0  0  0  0
   -7.0390   22.5690  -30.7050 N   0  0  0  0  0  0  0  0  0  0  0  0
   -5.7710   22.3190  -31.1170 C   0  0  0  0  0  0  0  0  0  0  0  0
   -4.7040   23.1230  -30.5880 N   0  0  0  0  0  0  0  0  0  0  0  0
   -3.7190   22.6820  -29.8290 N   0  0  0  0  0  0  0  0  0  0  0  0
   -3.0110   23.7620  -29.4350 C   0  0  0  0  0  0  0  0  0  0  0  0
   -1.8280   23.7200  -28.5450 C   0  0  0  0  0  0  0  0  0  0  0  0
   -1.5550   22.5480  -27.8150 C   0  0  0  0  0  0  0  0  0  0  0  0
   -0.4430   22.4800  -26.9720 C   0  0  0  0  0  0  0  0  0  0  0  0
    0.4030   23.5830  -26.8370 C   0  0  0  0  0  0  0  0  0  0  0  0
    1.4800   23.5160  -26.0160 F   0  0  0  0  0  0  0  0  0  0  0  0
    0.1330   24.7580  -27.5420 C   0  0  0  0  0  0  0  0  0  0  0  0
   -0.9770   24.8340  -28.3900 C   0  0  0  0  0  0  0  0  0  0  0  0
   -1.2370   26.0100  -29.0150 F   0  0  0  0  0  0  0  0  0  0  0  0
   -3.5450   24.9150  -29.9090 N   0  0  0  0  0  0  0  0  0  0  0  0
   -4.6020   24.4630  -30.6140 C   0  0  0  0  0  0  0  0  0  0  0  0
   -5.4030   25.2210  -31.2250 O   0  0  0  0  0  0  0  0  0  0  0  0
   -5.5380   21.2660  -32.0260 C   0  0  0  0  0  0  0  0  0  0  0  0
   -4.2570   21.0100  -32.5560 C   0  0  0  0  0  0  0  0  0  0  0  0
   -4.0530   19.9510  -33.4400 C   0  0  0  0  0  0  0  0  0  0  0  0
   -5.1210   19.1430  -33.8220 C   0  0  0  0  0  0  0  0  0  0  0  0
   -6.4050   19.3980  -33.3370 C   0  0  0  0  0  0  0  0  0  0  0  0
   -6.6360   20.4700  -32.4460 C   0  0  0  0  0  0  0  0  0  0  0  0
   -9.1147   18.6353  -30.6688 H   0  0  0  0  0  0  0  0  0  0  0  0
   -9.9894   18.0257  -32.1145 H   0  0  0  0  0  0  0  0  0  0  0  0
   -8.1946   18.0966  -32.1145 H   0  0  0  0  0  0  0  0  0  0  0  0
   -9.2507   19.9593  -33.4277 H   0  0  0  0  0  0  0  0  0  0  0  0
  -10.0429   20.5240  -31.9041 H   0  0  0  0  0  0  0  0  0  0  0  0
   -3.5890   21.6870  -29.5340 H   0  0  0  0  0  0  0  0  0  0  0  0
   -2.2225   21.6787  -27.9090 H   0  0  0  0  0  0  0  0  0  0  0  0
   -0.2334   21.5558  -26.4134 H   0  0  0  0  0  0  0  0  0  0  0  0
    0.7966   25.6281  -27.4299 H   0  0  0  0  0  0  0  0  0  0  0  0
   -3.4106   21.6515  -32.2696 H   0  0  0  0  0  0  0  0  0  0  0  0
   -3.0462   19.7534  -33.8365 H   0  0  0  0  0  0  0  0  0  0  0  0
   -4.9522   18.3004  -34.5087 H   0  0  0  0  0  0  0  0  0  0  0  0
   -7.2436   18.7592  -33.6510 H   0  0  0  0  0  0  0  0  0  0  0  0
  1  2  1  0
  2  3  1  0
  3  4  2  0
  4  5  1  0
  5  6  2  0
  6  7  1  0
  7  8  1  0
  8  9  1  0
  9 10  1  0
 10 11  2  0
 11 12  1  0
 12 13  2  0
 13 14  1  0
 13 15  1  0
 15 16  2  0
 16 17  1  0
  9 18  2  0
 18 19  1  0
 19 20  2  0
  6 21  1  0
 21 22  2  0
 22 23  1  0
 23 24  2  0
 24 25  1  0
 25 26  2  0
 26  3  1  0
 19  7  1  0
 26 21  1  0
 16 10  1  0
  1 27  1  0
  1 28  1  0
  1 29  1  0
  2 30  1  0
  2 31  1  0
  8 32  1  0
 11 33  1  0
 12 34  1  0
 15 35  1  0
 22 36  1  0
 23 37  1  0
 24 38  1  0
 25 39  1  0
M  END
>  <UniqueID>  (21) 
20

>  <SMILES>  (21) 
CCc1nnc(-n2[nH]c(-c3ccc(F)cc3F)nc2=O)c2ccccc12

>  <Energy>  (21) 
92.9834380279809

>  <Genealogy>  (21) 
CCc1nnc(-n2[nH]c(-c3ccc(F)cc3F)nc2=O)c2ccccc12 (3D coordinates assigned)
CCc1nnc(-n2[nH]c(-c3ccc(F)cc3F)nc2=O)c2ccccc12 (optimized conformer: 92.9834380279809 kcal/mol)

>  <smiles>  (21) 
CCc1nnc(-n2[nH]c(-c3ccc(F)cc3F)nc2=O)c2ccccc12

>  <score_type>  (21) 
oracle

>  <origin>  (21) 
adgpu

>  <m_score__min__energy>  (21) 
-8.9299999999999997

>  <m_primary>  (21) 
energy

$$$$
21:0
     RDKit          3D

 46 48  0  0  0  0  0  0  0  0999 V2000
    1.0730   24.7550  -27.4360 C   0  0  0  0  0  0  0  0  0  0  0  0
    0.1800   24.5340  -28.5230 O   0  0  0  0  0  0  0  0  0  0  0  0
   -0.8010   23.5320  -28.5530 C   0  0  0  0  0  0  0  0  0  0  0  0
   -1.7260   23.4140  -29.6080 C   0  0  0  0  0  0  0  0  0  0  0  0
   -2.7000   22.4070  -29.5930 C   0  0  0  0  0  0  0  0  0  0  0  0
   -3.6180   22.3000  -30.6940 N   0  0  0  0  0  0  0  0  0  0  0  0
   -4.3980   23.3980  -31.1980 C   0  0  0  0  0  0  0  0  0  0  0  0
   -4.2080   24.5680  -30.7670 O   0  0  0  0  0  0  0  0  0  0  0  0
   -5.4390   23.1650  -32.2570 C   0  0  0  0  0  0  0  0  0  0  0  0
   -5.5560   21.7230  -32.5830 N   0  0  0  0  0  0  0  0  0  0  0  0
   -4.4710   21.0800  -33.1300 C   0  0  0  0  0  0  0  0  0  0  0  0
   -3.3940   21.7010  -33.3530 O   0  0  0  0  0  0  0  0  0  0  0  0
   -4.5250   19.7300  -33.4600 C   0  0  0  0  0  0  0  0  0  0  0  0
   -5.6880   18.9860  -33.2520 C   0  0  0  0  0  0  0  0  0  0  0  0
   -5.7050   17.5110  -33.6260 C   0  0  0  0  0  0  0  0  0  0  0  0
   -6.4970   17.3210  -34.7450 F   0  0  0  0  0  0  0  0  0  0  0  0
   -6.2140   16.7220  -32.6090 F   0  0  0  0  0  0  0  0  0  0  0  0
   -4.4170   17.0820  -33.8930 F   0  0  0  0  0  0  0  0  0  0  0  0
   -6.8190   19.6380  -32.7010 C   0  0  0  0  0  0  0  0  0  0  0  0
   -8.0320   18.9470  -32.4730 C   0  0  0  0  0  0  0  0  0  0  0  0
   -9.1380   19.5990  -31.9370 C   0  0  0  0  0  0  0  0  0  0  0  0
   -9.0650   20.9470  -31.6150 C   0  0  0  0  0  0  0  0  0  0  0  0
   -7.8830   21.6560  -31.8270 C   0  0  0  0  0  0  0  0  0  0  0  0
   -6.7350   21.0260  -32.3700 C   0  0  0  0  0  0  0  0  0  0  0  0
   -2.7230   21.4850  -28.5310 C   0  0  0  0  0  0  0  0  0  0  0  0
   -1.8030   21.5950  -27.4720 C   0  0  0  0  0  0  0  0  0  0  0  0
   -1.7940   20.7050  -26.3880 O   0  0  0  0  0  0  0  0  0  0  0  0
   -2.3940   19.4140  -26.4020 C   0  0  0  0  0  0  0  0  0  0  0  0
   -0.8540   22.6230  -27.4930 C   0  0  0  0  0  0  0  0  0  0  0  0
    0.5345   24.6217  -26.4861 H   0  0  0  0  0  0  0  0  0  0  0  0
    1.9029   24.0351  -27.4911 H   0  0  0  0  0  0  0  0  0  0  0  0
    1.4714   25.7788  -27.4911 H   0  0  0  0  0  0  0  0  0  0  0  0
   -1.6835   24.1187  -30.4515 H   0  0  0  0  0  0  0  0  0  0  0  0
   -3.6400   21.4000  -31.2220 H   0  0  0  0  0  0  0  0  0  0  0  0
   -6.4103   23.5308  -31.8926 H   0  0  0  0  0  0  0  0  0  0  0  0
   -5.1387   23.7055  -33.1668 H   0  0  0  0  0  0  0  0  0  0  0  0
   -3.6387   19.2414  -33.8911 H   0  0  0  0  0  0  0  0  0  0  0  0
   -8.1019   17.8781  -32.7232 H   0  0  0  0  0  0  0  0  0  0  0  0
  -10.0729   19.0446  -31.7680 H   0  0  0  0  0  0  0  0  0  0  0  0
   -9.9422   21.4578  -31.1912 H   0  0  0  0  0  0  0  0  0  0  0  0
   -7.8406   22.7242  -31.5680 H   0  0  0  0  0  0  0  0  0  0  0  0
   -3.4649   20.6728  -28.5283 H   0  0  0  0  0  0  0  0  0  0  0  0
   -2.5528   19.0723  -25.3686 H   0  0  0  0  0  0  0  0  0  0  0  0
   -3.3609   19.4647  -26.9241 H   0  0  0  0  0  0  0  0  0  0  0  0
   -1.7319   18.7076  -26.9241 H   0  0  0  0  0  0  0  0  0  0  0  0
   -0.1388   22.7170  -26.6625 H   0  0  0  0  0  0  0  0  0  0  0  0
  1  2  1  0
  2  3  1  0
  3  4  2  0
  4  5  1  0
  5  6  1  0
  6  7  1  0
  7  8  2  0
  7  9  1  0
  9 10  1  0
 10 11  1  0
 11 12  2  0
 11 13  1  0
 13 14  2  0
 14 15  1  0
 15 16  1  0
 15 17  1  0
 15 18  1  0
 14 19  1  0
 19 20  2  0
 20 21  1  0
 21 22  2  0
 22 23  1  0
 23 24  2  0
  5 25  2  0
 25 26  1  0
 26 27  1  0
 27 28  1  0
 26 29  2  0
 29  3  1  0
 24 10  1  0
 24 19  1  0
  1 30  1  0
  1 31  1  0
  1 32  1  0
  4 33  1  0
  6 34  1  0
  9 35  1  0
  9 36  1  0
 13 37  1  0
 20 38  1  0
 21 39  1  0
 22 40  1  0
 23 41  1  0
 25 42  1  0
 28 43  1  0
 28 44  1  0
 28 45  1  0
 29 46  1  0
M  END
>  <UniqueID>  (22) 
21

>  <SMILES>  (22) 
COc1cc(NC(=O)Cn2c(=O)cc(C(F)(F)F)c3ccccc32)cc(OC)c1

>  <Energy>  (22) 
64.59846904531167

>  <Genealogy>  (22) 
COc1cc(NC(=O)Cn2c(=O)cc(C(F)(F)F)c3ccccc32)cc(OC)c1 (3D coordinates assigned)
COc1cc(NC(=O)Cn2c(=O)cc(C(F)(F)F)c3ccccc32)cc(OC)c1 (optimized conformer: 64.59846904531167 kcal/mol)

>  <smiles>  (22) 
COc1cc(NC(=O)Cn2c(=O)cc(C(F)(F)F)c3ccccc32)cc(OC)c1

>  <score_type>  (22) 
oracle

>  <origin>  (22) 
adgpu

>  <m_score__min__energy>  (22) 
-8.9700000000000006

>  <m_primary>  (22) 
energy

$$$$
22:0
     RDKit          3D

 37 39  0  0  0  0  0  0  0  0999 V2000
   -5.5930   25.9630  -31.2980 O   0  0  0  0  0  0  0  0  0  0  0  0
   -5.1080   24.9080  -30.3440 S   0  0  0  0  0  0  0  0  0  0  0  0
   -5.8300   25.0620  -29.0340 O   0  0  0  0  0  0  0  0  0  0  0  0
   -3.4080   25.1200  -30.0810 N   0  0  0  0  0  0  0  0  0  0  0  0
   -2.6430   24.4810  -29.0470 C   0  0  0  0  0  0  0  0  0  0  0  0
   -3.0680   23.2860  -28.4370 C   0  0  0  0  0  0  0  0  0  0  0  0
   -2.2920   22.6890  -27.4390 C   0  0  0  0  0  0  0  0  0  0  0  0
   -1.0910   23.2760  -27.0400 C   0  0  0  0  0  0  0  0  0  0  0  0
   -0.6620   24.4640  -27.6360 C   0  0  0  0  0  0  0  0  0  0  0  0
   -1.4340   25.0690  -28.6400 C   0  0  0  0  0  0  0  0  0  0  0  0
   -1.0030   26.2530  -29.2360 O   0  0  0  0  0  0  0  0  0  0  0  0
   -5.4190   23.3230  -31.0430 C   0  0  0  0  0  0  0  0  0  0  0  0
   -6.6740   22.7240  -30.8910 C   0  0  0  0  0  0  0  0  0  0  0  0
   -6.9300   21.4710  -31.4560 C   0  0  0  0  0  0  0  0  0  0  0  0
   -5.9290   20.7950  -32.1780 C   0  0  0  0  0  0  0  0  0  0  0  0
   -6.2020   19.4650  -32.7810 C   0  0  0  0  0  0  0  0  0  0  0  0
   -7.0740   18.5580  -32.1470 C   0  0  0  0  0  0  0  0  0  0  0  0
   -7.3280   17.3060  -32.7160 C   0  0  0  0  0  0  0  0  0  0  0  0
   -6.7180   16.9450  -33.9200 C   0  0  0  0  0  0  0  0  0  0  0  0
   -6.9740   15.7010  -34.4830 O   0  0  0  0  0  0  0  0  0  0  0  0
   -5.8530   17.8370  -34.5570 C   0  0  0  0  0  0  0  0  0  0  0  0
   -5.5950   19.0900  -33.9940 C   0  0  0  0  0  0  0  0  0  0  0  0
   -4.6680   21.4000  -32.3190 C   0  0  0  0  0  0  0  0  0  0  0  0
   -4.4150   22.6550  -31.7560 C   0  0  0  0  0  0  0  0  0  0  0  0
   -4.0149   22.8197  -28.7468 H   0  0  0  0  0  0  0  0  0  0  0  0
   -2.6292   21.7542  -26.9673 H   0  0  0  0  0  0  0  0  0  0  0  0
   -0.4817   22.8030  -26.2557 H   0  0  0  0  0  0  0  0  0  0  0  0
    0.2837   24.9269  -27.3176 H   0  0  0  0  0  0  0  0  0  0  0  0
   -1.2330   26.4770  -30.1980 H   0  0  0  0  0  0  0  0  0  0  0  0
   -7.4627   23.2409  -30.3246 H   0  0  0  0  0  0  0  0  0  0  0  0
   -7.9214   21.0101  -31.3352 H   0  0  0  0  0  0  0  0  0  0  0  0
   -7.5578   18.8362  -31.1991 H   0  0  0  0  0  0  0  0  0  0  0  0
   -8.0099   16.6036  -32.2143 H   0  0  0  0  0  0  0  0  0  0  0  0
   -5.3730   17.5527  -35.5050 H   0  0  0  0  0  0  0  0  0  0  0  0
   -4.9131   19.7875  -34.5023 H   0  0  0  0  0  0  0  0  0  0  0  0
   -3.8738   20.8821  -32.8767 H   0  0  0  0  0  0  0  0  0  0  0  0
   -3.4246   23.1190  -31.8734 H   0  0  0  0  0  0  0  0  0  0  0  0
  1  2  2  0
  2  3  2  0
  2  4  1  0
  4  5  1  0
  5  6  2  0
  6  7  1  0
  7  8  2  0
  8  9  1  0
  9 10  2  0
 10 11  1  0
  2 12  1  0
 12 13  2  0
 13 14  1  0
 14 15  2  0
 15 16  1  0
 16 17  2  0
 17 18  1  0
 18 19  2  0
 19 20  1  0
 19 21  1  0
 21 22  2  0
 15 23  1  0
 23 24  2  0
 10  5  1  0
 24 12  1  0
 22 16  1  0
  6 25  1  0
  7 26  1  0
  8 27  1  0
  9 28  1  0
 11 29  1  0
 13 30  1  0
 14 31  1  0
 17 32  1  0
 18 33  1  0
 21 34  1  0
 22 35  1  0
 23 36  1  0
 24 37  1  0
M  CHG  2   4  -1  20  -1
M  END
>  <UniqueID>  (23) 
22

>  <SMILES>  (23) 
O=S(=O)([N-]c1ccccc1O)c1ccc(-c2ccc([O-])cc2)cc1

>  <Energy>  (23) 
48.21988796251334

>  <Genealogy>  (23) 
O=S(=O)([N-]c1ccccc1O)c1ccc(-c2ccc([O-])cc2)cc1 (protonated)
O=S(=O)([N-]c1ccccc1O)c1ccc(-c2ccc([O-])cc2)cc1 (3D coordinates assigned)
O=S(=O)([N-]c1ccccc1O)c1ccc(-c2ccc([O-])cc2)cc1 (optimized conformer: 48.21988796251334 kcal/mol)

>  <smiles>  (23) 
O=S(=O)(Nc1ccccc1O)c1ccc(-c2ccc(O)cc2)cc1

>  <score_type>  (23) 
oracle

>  <origin>  (23) 
adgpu

>  <m_score__min__energy>  (23) 
-11.369999999999999

>  <m_primary>  (23) 
energy

$$$$
23:0
     RDKit          3D

 61 64  0  0  0  0  0  0  0  0999 V2000
   -1.0150   21.6020  -27.7590 C   0  0  0  0  0  0  0  0  0  0  0  0
   -1.9850   22.1720  -28.7600 C   0  0  0  0  0  0  0  0  0  0  0  0
   -2.8950   21.2910  -29.3750 C   0  0  0  0  0  0  0  0  0  0  0  0
   -3.8400   21.7580  -30.2890 C   0  0  0  0  0  0  0  0  0  0  0  0
   -3.8930   23.1200  -30.6160 C   0  0  0  0  0  0  0  0  0  0  0  0
   -4.8740   23.6530  -31.5180 N   0  0  0  0  0  0  0  0  0  0  0  0
   -6.2700   23.8480  -31.2630 C   0  0  0  0  0  0  0  0  0  0  0  0
   -6.6740   24.9260  -30.7450 O   0  0  0  0  0  0  0  0  0  0  0  0
   -7.2280   22.7560  -31.5450 C   0  0  0  0  0  0  0  0  0  0  0  0
   -8.6060   23.0140  -31.6140 C   0  0  0  0  0  0  0  0  0  0  0  0
   -9.5050   21.9820  -31.8980 C   0  0  0  0  0  0  0  0  0  0  0  0
   -9.0400   20.6800  -32.0960 C   0  0  0  0  0  0  0  0  0  0  0  0
   -7.6730   20.3970  -31.9880 C   0  0  0  0  0  0  0  0  0  0  0  0
   -7.0830   18.7340  -32.1150 S   0  0  0  0  0  0  0  0  0  0  0  0
   -8.2500   17.8040  -31.9320 O   0  0  0  0  0  0  0  0  0  0  0  0
   -6.1090   18.4730  -31.0010 O   0  0  0  0  0  0  0  0  0  0  0  0
   -6.3430   18.3890  -33.6750 N   0  0  0  0  0  0  0  0  0  0  0  0
   -5.5230   17.1640  -33.6860 C   0  0  0  0  0  0  0  0  0  0  0  0
   -4.2530   17.2960  -32.8360 C   0  0  0  0  0  0  0  0  0  0  0  0
   -3.5850   18.6370  -32.9990 C   0  0  0  0  0  0  0  0  0  0  0  0
   -2.3240   18.8380  -32.4220 C   0  0  0  0  0  0  0  0  0  0  0  0
   -1.7120   20.0920  -32.4860 C   0  0  0  0  0  0  0  0  0  0  0  0
   -2.3490   21.1510  -33.1340 C   0  0  0  0  0  0  0  0  0  0  0  0
   -3.6080   20.9660  -33.7090 C   0  0  0  0  0  0  0  0  0  0  0  0
   -4.2470   19.7180  -33.6220 C   0  0  0  0  0  0  0  0  0  0  0  0
   -5.6140   19.5390  -34.2360 C   0  0  0  0  0  0  0  0  0  0  0  0
   -6.7720   21.4400  -31.7370 C   0  0  0  0  0  0  0  0  0  0  0  0
   -3.0260   24.0080  -29.9730 C   0  0  0  0  0  0  0  0  0  0  0  0
   -2.0660   23.5600  -29.0490 C   0  0  0  0  0  0  0  0  0  0  0  0
   -1.0340   24.7920  -28.2820 S   0  0  0  0  0  0  0  0  0  0  0  0
    0.4010   24.4030  -28.4960 O   0  0  0  0  0  0  0  0  0  0  0  0
   -1.2280   26.1400  -28.9180 O   0  0  0  0  0  0  0  0  0  0  0  0
   -1.3280   24.9150  -26.5610 N   0  0  0  0  0  0  0  0  0  0  0  0
   -0.4100   25.8880  -25.9600 C   0  0  0  0  0  0  0  0  0  0  0  0
   -2.7200   25.3090  -26.3120 C   0  0  0  0  0  0  0  0  0  0  0  0
   -1.3732   21.8125  -26.7405 H   0  0  0  0  0  0  0  0  0  0  0  0
   -0.9367   20.5142  -27.9027 H   0  0  0  0  0  0  0  0  0  0  0  0
   -0.0266   22.0629  -27.9027 H   0  0  0  0  0  0  0  0  0  0  0  0
   -2.8604   20.2189  -29.1313 H   0  0  0  0  0  0  0  0  0  0  0  0
   -4.5461   21.0548  -30.7547 H   0  0  0  0  0  0  0  0  0  0  0  0
   -8.9806   24.0341  -31.4436 H   0  0  0  0  0  0  0  0  0  0  0  0
  -10.5819   22.1960  -31.9657 H   0  0  0  0  0  0  0  0  0  0  0  0
   -9.7495   19.8748  -32.3374 H   0  0  0  0  0  0  0  0  0  0  0  0
   -6.1261   16.3329  -33.2915 H   0  0  0  0  0  0  0  0  0  0  0  0
   -5.2108   16.9817  -34.7249 H   0  0  0  0  0  0  0  0  0  0  0  0
   -4.5216   17.1622  -31.7777 H   0  0  0  0  0  0  0  0  0  0  0  0
   -3.5435   16.5264  -33.1742 H   0  0  0  0  0  0  0  0  0  0  0  0
   -1.8139   18.0048  -31.9165 H   0  0  0  0  0  0  0  0  0  0  0  0
   -0.7254   20.2451  -32.0244 H   0  0  0  0  0  0  0  0  0  0  0  0
   -1.8583   22.1338  -33.1920 H   0  0  0  0  0  0  0  0  0  0  0  0
   -4.1005   21.7994  -34.2313 H   0  0  0  0  0  0  0  0  0  0  0  0
   -6.2027   20.4506  -34.0560 H   0  0  0  0  0  0  0  0  0  0  0  0
   -5.4734   19.3510  -35.3107 H   0  0  0  0  0  0  0  0  0  0  0  0
   -5.6939   21.2266  -31.6895 H   0  0  0  0  0  0  0  0  0  0  0  0
   -3.0966   25.0830  -30.1953 H   0  0  0  0  0  0  0  0  0  0  0  0
   -0.4721   25.8221  -24.8637 H   0  0  0  0  0  0  0  0  0  0  0  0
    0.6186   25.6695  -26.2827 H   0  0  0  0  0  0  0  0  0  0  0  0
   -0.6879   26.9022  -26.2827 H   0  0  0  0  0  0  0  0  0  0  0  0
   -2.8984   25.3595  -25.2277 H   0  0  0  0  0  0  0  0  0  0  0  0
   -2.9077   26.2956  -26.7608 H   0  0  0  0  0  0  0  0  0  0  0  0
   -3.3969   24.5672  -26.7608 H   0  0  0  0  0  0  0  0  0  0  0  0
  1  2  1  0
  2  3  2  0
  3  4  1  0
  4  5  2  0
  5  6  1  0
  6  7  1  0
  7  8  2  0
  7  9  1  0
  9 10  2  0
 10 11  1  0
 11 12  2  0
 12 13  1  0
 13 14  1  0
 14 15  2  0
 14 16  2  0
 14 17  1  0
 17 18  1  0
 18 19  1  0
 19 20  1  0
 20 21  2  0
 21 22  1  0
 22 23  2  0
 23 24  1  0
 24 25  2  0
 25 26  1  0
 13 27  2  0
  5 28  1  0
 28 29  2  0
 29 30  1  0
 30 31  2  0
 30 32  2  0
 30 33  1  0
 33 34  1  0
 33 35  1  0
 29  2  1  0
 27  9  1  0
 26 17  1  0
 25 20  1  0
  1 36  1  0
  1 37  1  0
  1 38  1  0
  3 39  1  0
  4 40  1  0
 10 41  1  0
 11 42  1  0
 12 43  1  0
 18 44  1  0
 18 45  1  0
 19 46  1  0
 19 47  1  0
 21 48  1  0
 22 49  1  0
 23 50  1  0
 24 51  1  0
 26 52  1  0
 26 53  1  0
 27 54  1  0
 28 55  1  0
 34 56  1  0
 34 57  1  0
 34 58  1  0
 35 59  1  0
 35 60  1  0
 35 61  1  0
M  CHG  1   6  -1
M  END
>  <UniqueID>  (24) 
23

>  <SMILES>  (24) 
Cc1ccc([N-]C(=O)c2cccc(S(=O)(=O)N3CCc4ccccc4C3)c2)cc1S(=O)(=O)N(C)C

>  <Energy>  (24) 
73.42299745390753

>  <Genealogy>  (24) 
Cc1ccc([N-]C(=O)c2cccc(S(=O)(=O)N3CCc4ccccc4C3)c2)cc1S(=O)(=O)N(C)C (protonated)
Cc1ccc([N-]C(=O)c2cccc(S(=O)(=O)N3CCc4ccccc4C3)c2)cc1S(=O)(=O)N(C)C (3D coordinates assigned)
Cc1ccc([N-]C(=O)c2cccc(S(=O)(=O)N3CCc4ccccc4C3)c2)cc1S(=O)(=O)N(C)C (nonaromatic ring conformer: 73.42299745390753 kcal/mol)

>  <smiles>  (24) 
Cc1ccc(NC(=O)c2cccc(S(=O)(=O)N3CCc4ccccc4C3)c2)cc1S(=O)(=O)N(C)C

>  <score_type>  (24) 
oracle

>  <origin>  (24) 
adgpu

>  <m_score__min__energy>  (24) 
-13.52

>  <m_primary>  (24) 
energy

$$$$
24:0
     RDKit          3D

 28 29  0  0  0  0  0  0  0  0999 V2000
   -4.2290   19.9150  -30.6560 O   0  0  0  0  0  0  0  0  0  0  0  0
   -4.0530   20.9320  -31.3780 C   0  0  0  0  0  0  0  0  0  0  0  0
   -4.4240   20.8720  -32.7620 N   0  0  0  0  0  0  0  0  0  0  0  0
   -5.6940   20.3600  -33.2780 C   0  0  0  0  0  0  0  0  0  0  0  0
   -6.8700   20.9840  -32.5570 C   0  0  0  0  0  0  0  0  0  0  0  0
   -6.8920   22.3790  -32.3690 C   0  0  0  0  0  0  0  0  0  0  0  0
   -7.9690   22.9940  -31.7270 C   0  0  0  0  0  0  0  0  0  0  0  0
   -9.0290   22.2250  -31.2470 C   0  0  0  0  0  0  0  0  0  0  0  0
   -9.0080   20.8370  -31.3960 C   0  0  0  0  0  0  0  0  0  0  0  0
   -7.9330   20.2070  -32.0370 C   0  0  0  0  0  0  0  0  0  0  0  0
   -7.9730   18.2900  -32.1410 Br  0  0  0  0  0  0  0  0  0  0  0  0
   -3.5210   22.1620  -30.7650 C   0  0  0  0  0  0  0  0  0  0  0  0
   -2.4260   22.0890  -29.8900 C   0  0  0  0  0  0  0  0  0  0  0  0
   -1.9290   23.2480  -29.2880 C   0  0  0  0  0  0  0  0  0  0  0  0
   -2.5120   24.4890  -29.5670 C   0  0  0  0  0  0  0  0  0  0  0  0
   -2.0140   25.6380  -28.9630 O   0  0  0  0  0  0  0  0  0  0  0  0
   -3.5910   24.5710  -30.4540 C   0  0  0  0  0  0  0  0  0  0  0  0
   -4.1680   25.8020  -30.7420 O   0  0  0  0  0  0  0  0  0  0  0  0
   -4.0930   23.4100  -31.0540 C   0  0  0  0  0  0  0  0  0  0  0  0
   -5.7658   20.5937  -34.3505 H   0  0  0  0  0  0  0  0  0  0  0  0
   -5.7229   19.2725  -33.1149 H   0  0  0  0  0  0  0  0  0  0  0  0
   -6.0526   22.9906  -32.7314 H   0  0  0  0  0  0  0  0  0  0  0  0
   -7.9813   24.0865  -31.5997 H   0  0  0  0  0  0  0  0  0  0  0  0
   -9.8815   22.7121  -30.7511 H   0  0  0  0  0  0  0  0  0  0  0  0
   -9.8415   20.2335  -31.0073 H   0  0  0  0  0  0  0  0  0  0  0  0
   -1.9577   21.1166  -29.6775 H   0  0  0  0  0  0  0  0  0  0  0  0
   -1.0781   23.1846  -28.5937 H   0  0  0  0  0  0  0  0  0  0  0  0
   -4.9387   23.4765  -31.7543 H   0  0  0  0  0  0  0  0  0  0  0  0
  1  2  2  0
  2  3  1  0
  3  4  1  0
  4  5  1  0
  5  6  2  0
  6  7  1  0
  7  8  2  0
  8  9  1  0
  9 10  2  0
 10 11  1  0
  2 12  1  0
 12 13  2  0
 13 14  1  0
 14 15  2  0
 15 16  1  0
 15 17  1  0
 17 18  1  0
 17 19  2  0
 10  5  1  0
 19 12  1  0
  4 20  1  0
  4 21  1  0
  6 22  1  0
  7 23  1  0
  8 24  1  0
  9 25  1  0
 13 26  1  0
 14 27  1  0
 19 28  1  0
M  CHG  3   3  -1  16  -1  18  -1
M  END
>  <UniqueID>  (25) 
24

>  <SMILES>  (25) 
O=C([N-]Cc1ccccc1Br)c1ccc([O-])c([O-])c1

>  <Energy>  (25) 
33.48428977698158

>  <Genealogy>  (25) 
O=C([N-]Cc1ccccc1Br)c1ccc([O-])c([O-])c1 (protonated)
O=C([N-]Cc1ccccc1Br)c1ccc([O-])c([O-])c1 (3D coordinates assigned)
O=C([N-]Cc1ccccc1Br)c1ccc([O-])c([O-])c1 (optimized conformer: 33.48428977698158 kcal/mol)

>  <smiles>  (25) 
O=C(NCc1ccccc1Br)c1ccc(O)c(O)c1

>  <score_type>  (25) 
oracle

>  <origin>  (25) 
adgpu

>  <m_score__min__energy>  (25) 
-12.98

>  <m_primary>  (25) 
energy

$$$$
25:0
     RDKit          3D

 33 34  0  0  0  0  0  0  0  0999 V2000
   -3.4970   25.2830  -30.4150 N   0  0  0  0  0  0  0  0  0  0  0  0
   -4.7260   24.1130  -30.7390 S   0  0  0  0  0  0  0  0  0  0  0  0
   -5.7620   24.7120  -31.6480 O   0  0  0  0  0  0  0  0  0  0  0  0
   -5.3880   23.7150  -29.4500 O   0  0  0  0  0  0  0  0  0  0  0  0
   -4.0070   22.7010  -31.5040 C   0  0  0  0  0  0  0  0  0  0  0  0
   -4.4110   22.3090  -32.7870 C   0  0  0  0  0  0  0  0  0  0  0  0
   -3.8490   21.1790  -33.3880 C   0  0  0  0  0  0  0  0  0  0  0  0
   -2.8740   20.4280  -32.7130 C   0  0  0  0  0  0  0  0  0  0  0  0
   -2.2930   19.1920  -33.3470 C   0  0  0  0  0  0  0  0  0  0  0  0
   -3.3760   18.3500  -34.0330 C   0  0  0  0  0  0  0  0  0  0  0  0
   -4.4350   17.9820  -33.0890 N   0  0  0  0  0  0  0  0  0  0  0  0
   -6.0030   18.0480  -33.8380 S   0  0  0  0  0  0  0  0  0  0  0  0
   -6.5930   16.6670  -33.8740 O   0  0  0  0  0  0  0  0  0  0  0  0
   -5.8830   18.5570  -35.2480 O   0  0  0  0  0  0  0  0  0  0  0  0
   -7.0660   19.0960  -32.9170 C   0  0  0  0  0  0  0  0  0  0  0  0
   -7.0530   20.4830  -32.9290 C   0  0  0  0  0  0  0  0  0  0  0  0
   -8.0060   21.0430  -32.0700 C   0  0  0  0  0  0  0  0  0  0  0  0
   -8.7610   20.0990  -31.3830 C   0  0  0  0  0  0  0  0  0  0  0  0
   -8.2430   18.5660  -31.8440 S   0  0  0  0  0  0  0  0  0  0  0  0
   -2.4840   20.8130  -31.4200 C   0  0  0  0  0  0  0  0  0  0  0  0
   -3.0460   21.9430  -30.8200 C   0  0  0  0  0  0  0  0  0  0  0  0
   -3.5200   25.9750  -31.1970 H   0  0  0  0  0  0  0  0  0  0  0  0
   -5.1735   22.8928  -33.3235 H   0  0  0  0  0  0  0  0  0  0  0  0
   -4.1725   20.8768  -34.3950 H   0  0  0  0  0  0  0  0  0  0  0  0
   -1.5456   19.4922  -34.0962 H   0  0  0  0  0  0  0  0  0  0  0  0
   -1.8316   18.5827  -32.5559 H   0  0  0  0  0  0  0  0  0  0  0  0
   -3.8153   18.9317  -34.8568 H   0  0  0  0  0  0  0  0  0  0  0  0
   -2.9125   17.4284  -34.4148 H   0  0  0  0  0  0  0  0  0  0  0  0
   -6.3666   21.0796  -33.5479 H   0  0  0  0  0  0  0  0  0  0  0  0
   -8.1445   22.1276  -31.9499 H   0  0  0  0  0  0  0  0  0  0  0  0
   -9.5613   20.3174  -30.6606 H   0  0  0  0  0  0  0  0  0  0  0  0
   -1.7321   20.2219  -30.8766 H   0  0  0  0  0  0  0  0  0  0  0  0
   -2.7334   22.2388  -29.8077 H   0  0  0  0  0  0  0  0  0  0  0  0
  1  2  1  0
  2  3  2  0
  2  4  2  0
  2  5  1  0
  5  6  2  0
  6  7  1  0
  7  8  2  0
  8  9  1  0
  9 10  1  0
 10 11  1  0
 11 12  1  0
 12 13  2  0
 12 14  2  0
 12 15  1  0
 15 16  2  0
 16 17  1  0
 17 18  2  0
 18 19  1  0
  8 20  1  0
 20 21  2  0
 21  5  1  0
 19 15  1  0
  1 22  1  0
  6 23  1  0
  7 24  1  0
  9 25  1  0
  9 26  1  0
 10 27  1  0
 10 28  1  0
 16 29  1  0
 17 30  1  0
 18 31  1  0
 20 32  1  0
 21 33  1  0
M  CHG  2   1  -1  11  -1
M  END
>  <UniqueID>  (26) 
25

>  <SMILES>  (26) 
[NH-]S(=O)(=O)c1ccc(CC[N-]S(=O)(=O)c2cccs2)cc1

>  <Energy>  (26) 
56.297608581804056

>  <Genealogy>  (26) 
[NH-]S(=O)(=O)c1ccc(CC[N-]S(=O)(=O)c2cccs2)cc1 (protonated)
[NH-]S(=O)(=O)c1ccc(CC[N-]S(=O)(=O)c2cccs2)cc1 (3D coordinates assigned)
[NH-]S(=O)(=O)c1ccc(CC[N-]S(=O)(=O)c2cccs2)cc1 (optimized conformer: 56.297608581804056 kcal/mol)

>  <smiles>  (26) 
NS(=O)(=O)c1ccc(CCNS(=O)(=O)c2cccs2)cc1

>  <score_type>  (26) 
oracle

>  <origin>  (26) 
adgpu

>  <m_score__min__energy>  (26) 
-10.31

>  <m_primary>  (26) 
energy

$$$$
26:0
     RDKit          3D

 32 34  0  0  0  0  0  0  0  0999 V2000
   -3.7930   22.0290  -31.9710 O   0  0  0  0  0  0  0  0  0  0  0  0
   -3.5210   22.9340  -31.1360 C   0  0  0  0  0  0  0  0  0  0  0  0
   -2.2330   22.9830  -30.5130 N   0  0  0  0  0  0  0  0  0  0  0  0
   -1.8630   22.2140  -29.3630 C   0  0  0  0  0  0  0  0  0  0  0  0
   -0.9190   21.1910  -29.5190 C   0  0  0  0  0  0  0  0  0  0  0  0
   -0.5450   20.3990  -28.4310 C   0  0  0  0  0  0  0  0  0  0  0  0
   -1.1030   20.6330  -27.1720 C   0  0  0  0  0  0  0  0  0  0  0  0
   -2.0210   21.6710  -26.9960 C   0  0  0  0  0  0  0  0  0  0  0  0
   -2.3910   22.4820  -28.0790 C   0  0  0  0  0  0  0  0  0  0  0  0
   -3.4810   23.8810  -27.7660 S   0  0  0  0  0  0  0  0  0  0  0  0
   -2.1590   24.9100  -27.1150 C   0  0  0  0  0  0  0  0  0  0  0  0
   -1.9190   24.9340  -25.7340 C   0  0  0  0  0  0  0  0  0  0  0  0
   -0.8910   25.7250  -25.2120 C   0  0  0  0  0  0  0  0  0  0  0  0
   -0.1030   26.5000  -26.0670 C   0  0  0  0  0  0  0  0  0  0  0  0
   -0.3460   26.4910  -27.4430 C   0  0  0  0  0  0  0  0  0  0  0  0
   -1.3760   25.7030  -27.9700 C   0  0  0  0  0  0  0  0  0  0  0  0
   -1.6180   25.7190  -29.3380 O   0  0  0  0  0  0  0  0  0  0  0  0
   -4.5190   23.9620  -30.8240 C   0  0  0  0  0  0  0  0  0  0  0  0
   -5.7970   23.6730  -30.4980 N   0  0  0  0  0  0  0  0  0  0  0  0
   -6.3580   24.8770  -30.3000 C   0  0  0  0  0  0  0  0  0  0  0  0
   -5.4170   25.8560  -30.5120 C   0  0  0  0  0  0  0  0  0  0  0  0
   -4.2470   25.2840  -30.8450 N   0  0  0  0  0  0  0  0  0  0  0  0
   -0.4687   21.0099  -30.5061 H   0  0  0  0  0  0  0  0  0  0  0  0
    0.1891   19.5909  -28.5656 H   0  0  0  0  0  0  0  0  0  0  0  0
   -0.8193   19.9995  -26.3187 H   0  0  0  0  0  0  0  0  0  0  0  0
   -2.4563   21.8535  -26.0024 H   0  0  0  0  0  0  0  0  0  0  0  0
   -2.5415   24.3285  -25.0588 H   0  0  0  0  0  0  0  0  0  0  0  0
   -0.7026   25.7372  -24.1283 H   0  0  0  0  0  0  0  0  0  0  0  0
    0.7093   27.1177  -25.6565 H   0  0  0  0  0  0  0  0  0  0  0  0
    0.2735   27.1045  -28.1137 H   0  0  0  0  0  0  0  0  0  0  0  0
   -7.4055   25.0520  -30.0133 H   0  0  0  0  0  0  0  0  0  0  0  0
   -5.5936   26.9381  -30.4231 H   0  0  0  0  0  0  0  0  0  0  0  0
  1  2  2  0
  2  3  1  0
  3  4  1  0
  4  5  2  0
  5  6  1  0
  6  7  2  0
  7  8  1  0
  8  9  2  0
  9 10  1  0
 10 11  1  0
 11 12  2  0
 12 13  1  0
 13 14  2  0
 14 15  1  0
 15 16  2  0
 16 17  1  0
  2 18  1  0
 18 19  2  0
 19 20  1  0
 20 21  2  0
 21 22  1  0
  9  4  1  0
 16 11  1  0
 22 18  1  0
  5 23  1  0
  6 24  1  0
  7 25  1  0
  8 26  1  0
 12 27  1  0
 13 28  1  0
 14 29  1  0
 15 30  1  0
 20 31  1  0
 21 32  1  0
M  CHG  3   3  -1  17  -1  22  -1
M  END
>  <UniqueID>  (27) 
26

>  <SMILES>  (27) 
O=C([N-]c1ccccc1Sc1ccccc1[O-])c1ncc[n-]1

>  <Energy>  (27) 
63.373409624274096

>  <Genealogy>  (27) 
O=C([N-]c1ccccc1Sc1ccccc1[O-])c1ncc[n-]1 (protonated)
O=C([N-]c1ccccc1Sc1ccccc1[O-])c1ncc[n-]1 (3D coordinates assigned)
O=C([N-]c1ccccc1Sc1ccccc1[O-])c1ncc[n-]1 (optimized conformer: 63.373409624274096 kcal/mol)

>  <smiles>  (27) 
O=C(Nc1ccccc1Sc1ccccc1O)c1ncc[nH]1

>  <score_type>  (27) 
oracle

>  <origin>  (27) 
adgpu

>  <m_score__min__energy>  (27) 
-11.68

>  <m_primary>  (27) 
energy

$$$$
27:0
     RDKit          3D

 48 50  0  0  0  0  0  0  0  0999 V2000
    1.2560   24.8700  -36.1350 C   0  0  0  0  0  0  0  0  0  0  0  0
    1.7600   23.6220  -36.5990 O   0  0  0  0  0  0  0  0  0  0  0  0
    1.3620   22.3730  -36.1010 C   0  0  0  0  0  0  0  0  0  0  0  0
    2.1050   21.1990  -36.3240 C   0  0  0  0  0  0  0  0  0  0  0  0
    1.6600   19.9750  -35.8160 C   0  0  0  0  0  0  0  0  0  0  0  0
    0.4620   19.9030  -35.0860 C   0  0  0  0  0  0  0  0  0  0  0  0
   -0.0440   18.5740  -34.5950 C   0  0  0  0  0  0  0  0  0  0  0  0
   -0.9730   18.7680  -33.4790 N   0  0  0  0  0  0  0  0  0  0  0  0
   -2.2770   18.1750  -33.5290 C   0  0  0  0  0  0  0  0  0  0  0  0
   -3.3480   18.9470  -33.8570 N   0  0  0  0  0  0  0  0  0  0  0  0
   -4.6080   18.4460  -33.9220 C   0  0  0  0  0  0  0  0  0  0  0  0
   -4.8450   17.0890  -33.6560 C   0  0  0  0  0  0  0  0  0  0  0  0
   -6.2490   16.5380  -33.6750 C   0  0  0  0  0  0  0  0  0  0  0  0
   -6.2320   15.1660  -33.4970 F   0  0  0  0  0  0  0  0  0  0  0  0
   -6.8360   16.8290  -34.8920 F   0  0  0  0  0  0  0  0  0  0  0  0
   -7.0100   17.0970  -32.6620 F   0  0  0  0  0  0  0  0  0  0  0  0
   -3.7590   16.2840  -33.2780 C   0  0  0  0  0  0  0  0  0  0  0  0
   -2.4700   16.8180  -33.2190 C   0  0  0  0  0  0  0  0  0  0  0  0
   -1.1410   15.7920  -32.7030 Cl  0  0  0  0  0  0  0  0  0  0  0  0
   -0.3820   19.3790  -31.9630 S   0  0  0  0  0  0  0  0  0  0  0  0
    1.0690   19.7390  -32.1070 O   0  0  0  0  0  0  0  0  0  0  0  0
   -0.5120   18.3290  -30.8950 O   0  0  0  0  0  0  0  0  0  0  0  0
   -1.3160   20.7930  -31.4820 C   0  0  0  0  0  0  0  0  0  0  0  0
   -2.4600   21.1540  -32.2050 C   0  0  0  0  0  0  0  0  0  0  0  0
   -3.1730   22.3080  -31.8700 C   0  0  0  0  0  0  0  0  0  0  0  0
   -2.7530   23.1170  -30.7980 C   0  0  0  0  0  0  0  0  0  0  0  0
   -3.4950   24.3480  -30.4490 C   0  0  0  0  0  0  0  0  0  0  0  0
   -4.6470   24.5570  -30.9150 O   0  0  0  0  0  0  0  0  0  0  0  0
   -2.9310   25.2940  -29.6000 O   0  0  0  0  0  0  0  0  0  0  0  0
   -1.6110   22.7440  -30.0680 C   0  0  0  0  0  0  0  0  0  0  0  0
   -0.8970   21.5910  -30.4100 C   0  0  0  0  0  0  0  0  0  0  0  0
   -0.2670   21.0780  -34.8490 C   0  0  0  0  0  0  0  0  0  0  0  0
    0.1770   22.3010  -35.3580 C   0  0  0  0  0  0  0  0  0  0  0  0
    1.2528   24.8780  -35.0350 H   0  0  0  0  0  0  0  0  0  0  0  0
    1.8957   25.6845  -36.5057 H   0  0  0  0  0  0  0  0  0  0  0  0
    0.2301   25.0118  -36.5057 H   0  0  0  0  0  0  0  0  0  0  0  0
    3.0405   21.2446  -36.9008 H   0  0  0  0  0  0  0  0  0  0  0  0
    2.2510   19.0635  -35.9888 H   0  0  0  0  0  0  0  0  0  0  0  0
   -0.5640   18.0575  -35.4152 H   0  0  0  0  0  0  0  0  0  0  0  0
    0.8086   17.9696  -34.2517 H   0  0  0  0  0  0  0  0  0  0  0  0
   -5.4471   19.1071  -34.1845 H   0  0  0  0  0  0  0  0  0  0  0  0
   -3.9243   15.2259  -33.0267 H   0  0  0  0  0  0  0  0  0  0  0  0
   -2.7991   20.5253  -33.0415 H   0  0  0  0  0  0  0  0  0  0  0  0
   -4.0673   22.5855  -32.4473 H   0  0  0  0  0  0  0  0  0  0  0  0
   -1.2768   23.3630  -29.2223 H   0  0  0  0  0  0  0  0  0  0  0  0
   -0.0027   21.3098  -29.8346 H   0  0  0  0  0  0  0  0  0  0  0  0
   -1.1942   21.0361  -34.2586 H   0  0  0  0  0  0  0  0  0  0  0  0
   -0.4084   23.2139  -35.1739 H   0  0  0  0  0  0  0  0  0  0  0  0
  1  2  1  0
  2  3  1  0
  3  4  2  0
  4  5  1  0
  5  6  2  0
  6  7  1  0
  7  8  1  0
  8  9  1  0
  9 10  2  0
 10 11  1  0
 11 12  2  0
 12 13  1  0
 13 14  1  0
 13 15  1  0
 13 16  1  0
 12 17  1  0
 17 18  2  0
 18 19  1  0
  8 20  1  0
 20 21  2  0
 20 22  2  0
 20 23  1  0
 23 24  2  0
 24 25  1  0
 25 26  2  0
 26 27  1  0
 27 28  2  0
 27 29  1  0
 26 30  1  0
 30 31  2  0
  6 32  1  0
 32 33  2  0
 33  3  1  0
 18  9  1  0
 31 23  1  0
  1 34  1  0
  1 35  1  0
  1 36  1  0
  4 37  1  0
  5 38  1  0
  7 39  1  0
  7 40  1  0
 11 41  1  0
 17 42  1  0
 24 43  1  0
 25 44  1  0
 30 45  1  0
 31 46  1  0
 32 47  1  0
 33 48  1  0
M  CHG  1  29  -1
M  END
>  <UniqueID>  (28) 
27

>  <SMILES>  (28) 
COc1ccc(CN(c2ncc(C(F)(F)F)cc2Cl)S(=O)(=O)c2ccc(C(=O)[O-])cc2)cc1

>  <Energy>  (28) 
54.94339625239202

>  <Genealogy>  (28) 
COc1ccc(CN(c2ncc(C(F)(F)F)cc2Cl)S(=O)(=O)c2ccc(C(=O)[O-])cc2)cc1 (protonated)
COc1ccc(CN(c2ncc(C(F)(F)F)cc2Cl)S(=O)(=O)c2ccc(C(=O)[O-])cc2)cc1 (3D coordinates assigned)
COc1ccc(CN(c2ncc(C(F)(F)F)cc2Cl)S(=O)(=O)c2ccc(C(=O)[O-])cc2)cc1 (optimized conformer: 54.94339625239202 kcal/mol)

>  <smiles>  (28) 
COc1ccc(CN(c2ncc(C(F)(F)F)cc2Cl)S(=O)(=O)c2ccc(C(=O)O)cc2)cc1

>  <score_type>  (28) 
oracle

>  <origin>  (28) 
adgpu

>  <m_score__min__energy>  (28) 
-9.5899999999999999

>  <m_primary>  (28) 
energy

$$$$
28:0
     RDKit          3D

 59 62  0  0  0  0  0  0  0  0999 V2000
   -1.3210   18.5290  -34.9670 O   0  0  0  0  0  0  0  0  0  0  0  0
   -2.0760   18.6820  -33.9720 C   0  0  0  0  0  0  0  0  0  0  0  0
   -3.1470   17.7550  -33.7530 N   0  0  0  0  0  0  0  0  0  0  0  0
   -4.4840   18.1340  -33.4030 C   0  0  0  0  0  0  0  0  0  0  0  0
   -5.1240   17.4910  -32.3380 C   0  0  0  0  0  0  0  0  0  0  0  0
   -6.4230   17.8550  -31.9750 C   0  0  0  0  0  0  0  0  0  0  0  0
   -7.1060   18.8520  -32.6900 C   0  0  0  0  0  0  0  0  0  0  0  0
   -8.7520   19.2760  -32.2170 S   0  0  0  0  0  0  0  0  0  0  0  0
   -9.4120   18.0640  -31.6250 O   0  0  0  0  0  0  0  0  0  0  0  0
   -9.5010   19.6890  -33.4550 O   0  0  0  0  0  0  0  0  0  0  0  0
   -8.7880   20.5860  -31.0550 N   0  0  0  0  0  0  0  0  0  0  0  0
   -9.8610   21.5480  -31.3620 C   0  0  0  0  0  0  0  0  0  0  0  0
   -9.2310   22.7700  -32.0230 C   0  0  0  0  0  0  0  0  0  0  0  0
   -7.7370   22.5190  -32.0330 C   0  0  0  0  0  0  0  0  0  0  0  0
   -7.5340   21.3530  -31.0840 C   0  0  0  0  0  0  0  0  0  0  0  0
   -6.4790   19.4650  -33.7820 C   0  0  0  0  0  0  0  0  0  0  0  0
   -5.1800   19.1060  -34.1390 C   0  0  0  0  0  0  0  0  0  0  0  0
   -1.8350   19.7970  -33.0390 C   0  0  0  0  0  0  0  0  0  0  0  0
   -0.6410   19.8580  -32.3100 C   0  0  0  0  0  0  0  0  0  0  0  0
   -0.4390   20.8790  -31.3790 C   0  0  0  0  0  0  0  0  0  0  0  0
   -1.4420   21.8220  -31.1410 C   0  0  0  0  0  0  0  0  0  0  0  0
   -1.2450   22.7790  -30.1970 F   0  0  0  0  0  0  0  0  0  0  0  0
   -2.6580   21.7450  -31.8390 C   0  0  0  0  0  0  0  0  0  0  0  0
   -3.9980   22.8020  -31.3910 S   0  0  0  0  0  0  0  0  0  0  0  0
   -5.0280   22.8140  -32.4880 O   0  0  0  0  0  0  0  0  0  0  0  0
   -3.4700   24.1990  -31.2140 O   0  0  0  0  0  0  0  0  0  0  0  0
   -4.7260   22.2560  -29.8920 N   0  0  0  0  0  0  0  0  0  0  0  0
   -5.6960   23.2270  -29.3490 C   0  0  0  0  0  0  0  0  0  0  0  0
   -5.0230   24.4730  -28.7460 C   0  0  0  0  0  0  0  0  0  0  0  0
   -3.7320   24.1470  -27.9760 C   0  0  0  0  0  0  0  0  0  0  0  0
   -3.6310   22.6600  -27.6370 C   0  0  0  0  0  0  0  0  0  0  0  0
   -3.7080   21.7990  -28.9120 C   0  0  0  0  0  0  0  0  0  0  0  0
   -2.8350   20.7530  -32.8130 C   0  0  0  0  0  0  0  0  0  0  0  0
   -4.6026   16.6961  -31.7846 H   0  0  0  0  0  0  0  0  0  0  0  0
   -6.9132   17.3581  -31.1248 H   0  0  0  0  0  0  0  0  0  0  0  0
   -8.9210   20.1790  -30.0990 H   0  0  0  0  0  0  0  0  0  0  0  0
  -10.5888   21.0880  -32.0467 H   0  0  0  0  0  0  0  0  0  0  0  0
  -10.3831   21.8419  -30.4395 H   0  0  0  0  0  0  0  0  0  0  0  0
   -9.6059   22.8838  -33.0509 H   0  0  0  0  0  0  0  0  0  0  0  0
   -9.4796   23.6936  -31.4798 H   0  0  0  0  0  0  0  0  0  0  0  0
   -7.3945   22.2589  -33.0454 H   0  0  0  0  0  0  0  0  0  0  0  0
   -7.1645   23.4074  -31.7280 H   0  0  0  0  0  0  0  0  0  0  0  0
   -6.7118   20.7158  -31.4418 H   0  0  0  0  0  0  0  0  0  0  0  0
   -7.2752   21.7124  -30.0771 H   0  0  0  0  0  0  0  0  0  0  0  0
   -7.0136   20.2329  -34.3604 H   0  0  0  0  0  0  0  0  0  0  0  0
   -4.6976   19.5872  -35.0025 H   0  0  0  0  0  0  0  0  0  0  0  0
    0.1396   19.0999  -32.4711 H   0  0  0  0  0  0  0  0  0  0  0  0
    0.5129   20.9410  -30.8312 H   0  0  0  0  0  0  0  0  0  0  0  0
   -6.3640   23.5477  -30.1620 H   0  0  0  0  0  0  0  0  0  0  0  0
   -6.2472   22.7255  -28.5399 H   0  0  0  0  0  0  0  0  0  0  0  0
   -4.7779   25.1684  -29.5623 H   0  0  0  0  0  0  0  0  0  0  0  0
   -5.7308   24.9140  -28.0287 H   0  0  0  0  0  0  0  0  0  0  0  0
   -2.8677   24.4303  -28.5947 H   0  0  0  0  0  0  0  0  0  0  0  0
   -3.7460   24.7118  -27.0322 H   0  0  0  0  0  0  0  0  0  0  0  0
   -2.6726   22.4701  -27.1316 H   0  0  0  0  0  0  0  0  0  0  0  0
   -4.4716   22.3914  -26.9803 H   0  0  0  0  0  0  0  0  0  0  0  0
   -2.7234   21.8188  -29.4021 H   0  0  0  0  0  0  0  0  0  0  0  0
   -4.0046   20.7884  -28.5947 H   0  0  0  0  0  0  0  0  0  0  0  0
   -3.7630   20.7244  -33.4029 H   0  0  0  0  0  0  0  0  0  0  0  0
  1  2  2  0
  2  3  1  0
  3  4  1  0
  4  5  2  0
  5  6  1  0
  6  7  2  0
  7  8  1  0
  8  9  2  0
  8 10  2  0
  8 11  1  0
 11 12  1  0
 12 13  1  0
 13 14  1  0
 14 15  1  0
  7 16  1  0
 16 17  2  0
  2 18  1  0
 18 19  2  0
 19 20  1  0
 20 21  2  0
 21 22  1  0
 21 23  1  0
 23 24  1  0
 24 25  2  0
 24 26  2  0
 24 27  1  0
 27 28  1  0
 28 29  1  0
 29 30  1  0
 30 31  1  0
 31 32  1  0
 23 33  2  0
 17  4  1  0
 33 18  1  0
 15 11  1  0
 32 27  1  0
  5 34  1  0
  6 35  1  0
 11 36  1  0
 12 37  1  0
 12 38  1  0
 13 39  1  0
 13 40  1  0
 14 41  1  0
 14 42  1  0
 15 43  1  0
 15 44  1  0
 16 45  1  0
 17 46  1  0
 19 47  1  0
 20 48  1  0
 28 49  1  0
 28 50  1  0
 29 51  1  0
 29 52  1  0
 30 53  1  0
 30 54  1  0
 31 55  1  0
 31 56  1  0
 32 57  1  0
 32 58  1  0
 33 59  1  0
M  CHG  2   3  -1  11   1
M  END
>  <UniqueID>  (29) 
28

>  <SMILES>  (29) 
O=C([N-]c1ccc(S(=O)(=O)[NH+]2CCCC2)cc1)c1ccc(F)c(S(=O)(=O)N2CCCCC2)c1

>  <Energy>  (29) 
77.69082987813331

>  <Genealogy>  (29) 
O=C([N-]c1ccc(S(=O)(=O)[NH+]2CCCC2)cc1)c1ccc(F)c(S(=O)(=O)N2CCCCC2)c1 (protonated)
O=C([N-]c1ccc(S(=O)(=O)[NH+]2CCCC2)cc1)c1ccc(F)c(S(=O)(=O)N2CCCCC2)c1 (3D coordinates assigned)
O=C([N-]c1ccc(S(=O)(=O)[NH+]2CCCC2)cc1)c1ccc(F)c(S(=O)(=O)N2CCCCC2)c1 (nonaromatic ring conformer: 77.69082987813331 kcal/mol)

>  <smiles>  (29) 
O=C(Nc1ccc(S(=O)(=O)N2CCCC2)cc1)c1ccc(F)c(S(=O)(=O)N2CCCCC2)c1

>  <score_type>  (29) 
oracle

>  <origin>  (29) 
adgpu

>  <m_score__min__energy>  (29) 
-12.52

>  <m_primary>  (29) 
energy

$$$$
29:0
     RDKit          3D

 47 51  0  0  0  0  0  0  0  0999 V2000
   -1.4800   21.6110  -32.3040 C   0  0  0  0  0  0  0  0  0  0  0  0
   -2.8390   20.9710  -32.3480 C   0  0  0  0  0  0  0  0  0  0  0  0
   -4.0210   21.5420  -31.9050 C   0  0  0  0  0  0  0  0  0  0  0  0
   -4.1850   22.9210  -31.4210 C   0  0  0  0  0  0  0  0  0  0  0  0
   -5.0470   23.7970  -31.9680 N   0  0  0  0  0  0  0  0  0  0  0  0
   -4.9580   24.8840  -31.2150 N   0  0  0  0  0  0  0  0  0  0  0  0
   -4.0830   24.6900  -30.2400 N   0  0  0  0  0  0  0  0  0  0  0  0
   -3.5770   23.4740  -30.3500 N   0  0  0  0  0  0  0  0  0  0  0  0
   -2.6500   22.8980  -29.4100 C   0  0  0  0  0  0  0  0  0  0  0  0
   -3.0100   21.8080  -28.5970 C   0  0  0  0  0  0  0  0  0  0  0  0
   -2.0950   21.2710  -27.6880 C   0  0  0  0  0  0  0  0  0  0  0  0
   -0.8090   21.8080  -27.5860 C   0  0  0  0  0  0  0  0  0  0  0  0
   -0.4350   22.8800  -28.4000 C   0  0  0  0  0  0  0  0  0  0  0  0
   -1.3480   23.4200  -29.3120 C   0  0  0  0  0  0  0  0  0  0  0  0
   -5.0140   20.6480  -32.2930 C   0  0  0  0  0  0  0  0  0  0  0  0
   -6.4820   20.8140  -32.1950 C   0  0  0  0  0  0  0  0  0  0  0  0
   -7.0590   21.8370  -31.4200 C   0  0  0  0  0  0  0  0  0  0  0  0
   -8.4490   21.9670  -31.3380 C   0  0  0  0  0  0  0  0  0  0  0  0
   -9.2780   21.0750  -32.0200 C   0  0  0  0  0  0  0  0  0  0  0  0
  -10.6260   21.2020  -31.9390 F   0  0  0  0  0  0  0  0  0  0  0  0
   -8.7180   20.0440  -32.7790 C   0  0  0  0  0  0  0  0  0  0  0  0
   -7.3290   19.9110  -32.8630 C   0  0  0  0  0  0  0  0  0  0  0  0
   -4.4390   19.5890  -32.9010 N   0  0  0  0  0  0  0  0  0  0  0  0
   -3.1280   19.7740  -32.9100 N   0  0  0  0  0  0  0  0  0  0  0  0
   -2.2150   18.8350  -33.5020 C   0  0  0  0  0  0  0  0  0  0  0  0
   -1.2280   19.2610  -34.4090 C   0  0  0  0  0  0  0  0  0  0  0  0
   -0.3340   18.3390  -34.9620 C   0  0  0  0  0  0  0  0  0  0  0  0
   -0.4080   16.9900  -34.6050 C   0  0  0  0  0  0  0  0  0  0  0  0
   -1.3730   16.5620  -33.6890 C   0  0  0  0  0  0  0  0  0  0  0  0
   -2.2680   17.4810  -33.1340 C   0  0  0  0  0  0  0  0  0  0  0  0
   -1.1759   21.7542  -31.2566 H   0  0  0  0  0  0  0  0  0  0  0  0
   -0.7520   20.9611  -32.8116 H   0  0  0  0  0  0  0  0  0  0  0  0
   -1.5173   22.5862  -32.8116 H   0  0  0  0  0  0  0  0  0  0  0  0
   -4.0183   21.3757  -28.6774 H   0  0  0  0  0  0  0  0  0  0  0  0
   -2.3877   20.4233  -27.0510 H   0  0  0  0  0  0  0  0  0  0  0  0
   -0.0920   21.3872  -26.8657 H   0  0  0  0  0  0  0  0  0  0  0  0
    0.5788   23.3000  -28.3237 H   0  0  0  0  0  0  0  0  0  0  0  0
   -1.0454   24.2584  -29.9566 H   0  0  0  0  0  0  0  0  0  0  0  0
   -6.4119   22.5397  -30.8746 H   0  0  0  0  0  0  0  0  0  0  0  0
   -8.8900   22.7741  -30.7346 H   0  0  0  0  0  0  0  0  0  0  0  0
   -9.3709   19.3363  -33.3109 H   0  0  0  0  0  0  0  0  0  0  0  0
   -6.8945   19.0932  -33.4566 H   0  0  0  0  0  0  0  0  0  0  0  0
   -1.1591   20.3237  -34.6844 H   0  0  0  0  0  0  0  0  0  0  0  0
    0.4288   18.6761  -35.6793 H   0  0  0  0  0  0  0  0  0  0  0  0
    0.2930   16.2652  -35.0447 H   0  0  0  0  0  0  0  0  0  0  0  0
   -1.4282   15.5008  -33.4046 H   0  0  0  0  0  0  0  0  0  0  0  0
   -3.0182   17.1415  -32.4047 H   0  0  0  0  0  0  0  0  0  0  0  0
  1  2  1  0
  2  3  2  0
  3  4  1  0
  4  5  2  0
  5  6  1  0
  6  7  2  0
  7  8  1  0
  8  9  1  0
  9 10  2  0
 10 11  1  0
 11 12  2  0
 12 13  1  0
 13 14  2  0
  3 15  1  0
 15 16  1  0
 16 17  2  0
 17 18  1  0
 18 19  2  0
 19 20  1  0
 19 21  1  0
 21 22  2  0
 15 23  2  0
 23 24  1  0
 24 25  1  0
 25 26  2  0
 26 27  1  0
 27 28  2  0
 28 29  1  0
 29 30  2  0
 24  2  1  0
 30 25  1  0
  8  4  1  0
 14  9  1  0
 22 16  1  0
  1 31  1  0
  1 32  1  0
  1 33  1  0
 10 34  1  0
 11 35  1  0
 12 36  1  0
 13 37  1  0
 14 38  1  0
 17 39  1  0
 18 40  1  0
 21 41  1  0
 22 42  1  0
 26 43  1  0
 27 44  1  0
 28 45  1  0
 29 46  1  0
 30 47  1  0
M  END
>  <UniqueID>  (30) 
29

>  <SMILES>  (30) 
Cc1c(-c2nnnn2-c2ccccc2)c(-c2ccc(F)cc2)nn1-c1ccccc1

>  <Energy>  (30) 
144.29799521818558

>  <Genealogy>  (30) 
Cc1c(-c2nnnn2-c2ccccc2)c(-c2ccc(F)cc2)nn1-c1ccccc1 (3D coordinates assigned)
Cc1c(-c2nnnn2-c2ccccc2)c(-c2ccc(F)cc2)nn1-c1ccccc1 (optimized conformer: 144.29799521818558 kcal/mol)

>  <smiles>  (30) 
Cc1c(-c2nnnn2-c2ccccc2)c(-c2ccc(F)cc2)nn1-c1ccccc1

>  <score_type>  (30) 
oracle

>  <origin>  (30) 
adgpu

>  <m_score__min__energy>  (30) 
-9.3800000000000008

>  <m_primary>  (30) 
energy

$$$$
30:0
     RDKit          3D

 48 51  0  0  0  0  0  0  0  0999 V2000
   -1.1879   22.8930  -28.2478 H   0  0  0  0  0  0  0  0  0  0  0  0
   -1.9130   23.1500  -29.0340 C   0  0  0  0  0  0  0  0  0  0  0  0
   -3.1730   24.2580  -28.8890 S   0  0  0  0  0  0  0  0  0  0  0  0
   -3.7190   24.0010  -30.4640 C   0  0  0  0  0  0  0  0  0  0  0  0
   -4.7240   24.5910  -31.0440 N   0  0  0  0  0  0  0  0  0  0  0  0
   -5.6360   25.5350  -30.4630 C   0  0  0  0  0  0  0  0  0  0  0  0
   -5.3620   26.7690  -30.4310 O   0  0  0  0  0  0  0  0  0  0  0  0
   -6.8870   25.0160  -29.7970 C   0  0  0  0  0  0  0  0  0  0  0  0
   -6.7236   25.0113  -28.7092 H   0  0  0  0  0  0  0  0  0  0  0  0
   -7.7086   25.6825  -30.0982 H   0  0  0  0  0  0  0  0  0  0  0  0
   -7.2680   23.6480  -30.2170 N   0  0  0  0  0  0  0  0  0  0  0  0
   -7.6700   23.5560  -31.6380 C   0  0  0  0  0  0  0  0  0  0  0  0
   -8.5712   24.1663  -31.7974 H   0  0  0  0  0  0  0  0  0  0  0  0
   -6.8416   23.9231  -32.2617 H   0  0  0  0  0  0  0  0  0  0  0  0
   -7.9710   22.1060  -32.0290 C   0  0  0  0  0  0  0  0  0  0  0  0
   -8.8421   21.7512  -31.4587 H   0  0  0  0  0  0  0  0  0  0  0  0
   -8.1806   22.0660  -33.1081 H   0  0  0  0  0  0  0  0  0  0  0  0
   -6.8190   21.2420  -31.7380 N   0  0  0  0  0  0  0  0  0  0  0  0
   -6.6370   20.0090  -32.4720 C   0  0  0  0  0  0  0  0  0  0  0  0
   -5.6590   19.9190  -33.4820 C   0  0  0  0  0  0  0  0  0  0  0  0
   -5.0166   20.7856  -33.6971 H   0  0  0  0  0  0  0  0  0  0  0  0
   -5.4970   18.7360  -34.2150 C   0  0  0  0  0  0  0  0  0  0  0  0
   -4.7411   18.6822  -35.0124 H   0  0  0  0  0  0  0  0  0  0  0  0
   -6.2960   17.6240  -33.9330 C   0  0  0  0  0  0  0  0  0  0  0  0
   -6.1668   16.6945  -34.5068 H   0  0  0  0  0  0  0  0  0  0  0  0
   -7.2610   17.6930  -32.9200 C   0  0  0  0  0  0  0  0  0  0  0  0
   -7.8852   16.8154  -32.6960 H   0  0  0  0  0  0  0  0  0  0  0  0
   -7.4330   18.8780  -32.1910 C   0  0  0  0  0  0  0  0  0  0  0  0
   -8.3490   18.9030  -31.1860 F   0  0  0  0  0  0  0  0  0  0  0  0
   -5.7540   21.7360  -30.8500 C   0  0  0  0  0  0  0  0  0  0  0  0
   -5.2135   20.8810  -30.4178 H   0  0  0  0  0  0  0  0  0  0  0  0
   -5.0586   22.3602  -31.4303 H   0  0  0  0  0  0  0  0  0  0  0  0
   -6.3650   22.5760  -29.7200 C   0  0  0  0  0  0  0  0  0  0  0  0
   -6.9408   21.9104  -29.0602 H   0  0  0  0  0  0  0  0  0  0  0  0
   -5.5358   23.0645  -29.1873 H   0  0  0  0  0  0  0  0  0  0  0  0
   -2.9550   23.0950  -31.1080 N   0  0  0  0  0  0  0  0  0  0  0  0
   -1.9460   22.6110  -30.3280 C   0  0  0  0  0  0  0  0  0  0  0  0
   -1.0020   21.5780  -30.8370 C   0  0  0  0  0  0  0  0  0  0  0  0
   -0.8150   21.3590  -32.2190 C   0  0  0  0  0  0  0  0  0  0  0  0
   -1.3673   21.9699  -32.9483 H   0  0  0  0  0  0  0  0  0  0  0  0
    0.0700   20.3680  -32.6690 C   0  0  0  0  0  0  0  0  0  0  0  0
    0.2077   20.2068  -33.7484 H   0  0  0  0  0  0  0  0  0  0  0  0
    0.7780   19.5840  -31.7530 C   0  0  0  0  0  0  0  0  0  0  0  0
    1.4705   18.8076  -32.1103 H   0  0  0  0  0  0  0  0  0  0  0  0
    0.6030   19.7900  -30.3830 C   0  0  0  0  0  0  0  0  0  0  0  0
    1.1588   19.1745  -29.6604 H   0  0  0  0  0  0  0  0  0  0  0  0
   -0.2790   20.7790  -29.9260 C   0  0  0  0  0  0  0  0  0  0  0  0
   -0.4090   20.9340  -28.8448 H   0  0  0  0  0  0  0  0  0  0  0  0
  1  2  1  0
  2  3  1  0
  3  4  1  0
  4  5  2  0
  5  6  1  0
  6  7  2  0
  6  8  1  0
  8  9  1  0
  8 10  1  0
  8 11  1  0
 11 12  1  0
 12 13  1  0
 12 14  1  0
 12 15  1  0
 15 16  1  0
 15 17  1  0
 15 18  1  0
 18 19  1  0
 19 20  2  0
 20 21  1  0
 20 22  1  0
 22 23  1  0
 22 24  2  0
 24 25  1  0
 24 26  1  0
 26 27  1  0
 26 28  2  0
 28 29  1  0
 18 30  1  0
 30 31  1  0
 30 32  1  0
 30 33  1  0
 33 34  1  0
 33 35  1  0
  4 36  1  0
 36 37  1  0
 37 38  1  0
 38 39  2  0
 39 40  1  0
 39 41  1  0
 41 42  1  0
 41 43  2  0
 43 44  1  0
 43 45  1  0
 45 46  1  0
 45 47  2  0
 47 48  1  0
 37  2  2  0
 47 38  1  0
 33 11  1  0
 28 19  1  0
M  CHG  1  36  -1
M  END
>  <UniqueID>  (31) 
30

>  <SMILES>  (31) 
O=C(CN1CCN(c2ccccc2F)CC1)/N=c1/[n-]c(-c2ccccc2)cs1

>  <Energy>  (31) 
101.7417568927315

>  <Genealogy>  (31) 
O=C(CN1CCN(c2ccccc2F)CC1)N=c1[n-]c(-c2ccccc2)cs1 (protonated)
O=C(CN1CCN(c2ccccc2F)CC1)/N=c1/[n-]c(-c2ccccc2)cs1 (cis-trans isomerization)
O=C(CN1CCN(c2ccccc2F)CC1)/N=c1/[n-]c(-c2ccccc2)cs1 (3D coordinates assigned)
O=C(CN1CCN(c2ccccc2F)CC1)/N=c1/[n-]c(-c2ccccc2)cs1 (nonaromatic ring conformer: 101.7417568927315 kcal/mol)

>  <smiles>  (31) 
O=C(CN1CCN(c2ccccc2F)CC1)N=c1[nH]c(-c2ccccc2)cs1

>  <score_type>  (31) 
oracle

>  <origin>  (31) 
adgpu

>  <m_score__min__energy>  (31) 
-9.9499999999999993

>  <m_primary>  (31) 
energy

$$$$
31:0
     RDKit          3D

 42 45  0  0  0  0  0  0  0  0999 V2000
   -8.2210   19.8620  -32.4250 C   0  0  0  0  0  0  0  0  0  0  0  0
   -7.5230   21.1210  -31.9940 C   0  0  0  0  0  0  0  0  0  0  0  0
   -6.1350   21.1240  -31.7790 C   0  0  0  0  0  0  0  0  0  0  0  0
   -5.4740   22.2910  -31.3530 C   0  0  0  0  0  0  0  0  0  0  0  0
   -4.0020   22.2720  -31.1470 C   0  0  0  0  0  0  0  0  0  0  0  0
   -3.1260   21.7600  -32.1160 C   0  0  0  0  0  0  0  0  0  0  0  0
   -1.7470   21.7770  -31.8590 C   0  0  0  0  0  0  0  0  0  0  0  0
   -0.7620   21.2540  -32.8310 C   0  0  0  0  0  0  0  0  0  0  0  0
    0.3740   20.5090  -32.5470 C   0  0  0  0  0  0  0  0  0  0  0  0
    0.9840   20.2520  -33.7590 C   0  0  0  0  0  0  0  0  0  0  0  0
    0.2020   20.8450  -34.7290 C   0  0  0  0  0  0  0  0  0  0  0  0
   -0.8550   21.4530  -34.1620 N   0  0  0  0  0  0  0  0  0  0  0  0
   -1.3000   22.2970  -30.6850 N   0  0  0  0  0  0  0  0  0  0  0  0
   -2.1490   22.8020  -29.7510 C   0  0  0  0  0  0  0  0  0  0  0  0
   -1.6320   23.3750  -28.4770 C   0  0  0  0  0  0  0  0  0  0  0  0
   -1.3490   22.5170  -27.3950 C   0  0  0  0  0  0  0  0  0  0  0  0
   -0.8660   23.0250  -26.1860 C   0  0  0  0  0  0  0  0  0  0  0  0
   -0.6550   24.3950  -26.0330 C   0  0  0  0  0  0  0  0  0  0  0  0
   -0.1740   24.8850  -24.8210 O   0  0  0  0  0  0  0  0  0  0  0  0
   -0.9280   25.2620  -27.0960 C   0  0  0  0  0  0  0  0  0  0  0  0
   -1.4110   24.7650  -28.3120 C   0  0  0  0  0  0  0  0  0  0  0  0
   -1.6590   25.6660  -29.3420 O   0  0  0  0  0  0  0  0  0  0  0  0
   -3.4860   22.7840  -29.9980 N   0  0  0  0  0  0  0  0  0  0  0  0
   -6.2260   23.4640  -31.1580 C   0  0  0  0  0  0  0  0  0  0  0  0
   -7.6070   23.4630  -31.3620 C   0  0  0  0  0  0  0  0  0  0  0  0
   -8.2590   22.2980  -31.7740 C   0  0  0  0  0  0  0  0  0  0  0  0
   -9.6360   22.3170  -31.9640 O   0  0  0  0  0  0  0  0  0  0  0  0
   -8.5355   19.2946  -31.5366 H   0  0  0  0  0  0  0  0  0  0  0  0
   -9.1047   20.1204  -33.0269 H   0  0  0  0  0  0  0  0  0  0  0  0
   -7.5337   19.2494  -33.0269 H   0  0  0  0  0  0  0  0  0  0  0  0
   -5.5575   20.2027  -31.9457 H   0  0  0  0  0  0  0  0  0  0  0  0
   -3.5139   21.3522  -33.0611 H   0  0  0  0  0  0  0  0  0  0  0  0
    0.7199   20.1871  -31.5536 H   0  0  0  0  0  0  0  0  0  0  0  0
    1.9127   19.6849  -33.9199 H   0  0  0  0  0  0  0  0  0  0  0  0
    0.4125   20.8235  -35.8085 H   0  0  0  0  0  0  0  0  0  0  0  0
   -1.6020   21.9770  -34.6680 H   0  0  0  0  0  0  0  0  0  0  0  0
   -1.5103   21.4343  -27.5036 H   0  0  0  0  0  0  0  0  0  0  0  0
   -0.6513   22.3413  -25.3515 H   0  0  0  0  0  0  0  0  0  0  0  0
   -0.0570   24.2820  -24.0150 H   0  0  0  0  0  0  0  0  0  0  0  0
   -0.7618   26.3427  -26.9754 H   0  0  0  0  0  0  0  0  0  0  0  0
   -5.7218   24.3892  -30.8423 H   0  0  0  0  0  0  0  0  0  0  0  0
   -8.1850   24.3844  -31.1975 H   0  0  0  0  0  0  0  0  0  0  0  0
  1  2  1  0
  2  3  2  0
  3  4  1  0
  4  5  1  0
  5  6  2  0
  6  7  1  0
  7  8  1  0
  8  9  2  0
  9 10  1  0
 10 11  2  0
 11 12  1  0
  7 13  2  0
 13 14  1  0
 14 15  1  0
 15 16  2  0
 16 17  1  0
 17 18  2  0
 18 19  1  0
 18 20  1  0
 20 21  2  0
 21 22  1  0
 14 23  2  0
  4 24  2  0
 24 25  1  0
 25 26  2  0
 26 27  1  0
 26  2  1  0
 23  5  1  0
 12  8  1  0
 21 15  1  0
  1 28  1  0
  1 29  1  0
  1 30  1  0
  3 31  1  0
  6 32  1  0
  9 33  1  0
 10 34  1  0
 11 35  1  0
 12 36  1  0
 16 37  1  0
 17 38  1  0
 19 39  1  0
 20 40  1  0
 24 41  1  0
 25 42  1  0
M  CHG  2  22  -1  27  -1
M  END
>  <UniqueID>  (32) 
31

>  <SMILES>  (32) 
Cc1cc(-c2cc(-c3ccc[nH]3)nc(-c3ccc(O)cc3[O-])n2)ccc1[O-]

>  <Energy>  (32) 
80.02259350279103

>  <Genealogy>  (32) 
Cc1cc(-c2cc(-c3ccc[nH]3)nc(-c3ccc(O)cc3[O-])n2)ccc1[O-] (protonated)
Cc1cc(-c2cc(-c3ccc[nH]3)nc(-c3ccc(O)cc3[O-])n2)ccc1[O-] (3D coordinates assigned)
Cc1cc(-c2cc(-c3ccc[nH]3)nc(-c3ccc(O)cc3[O-])n2)ccc1[O-] (optimized conformer: 80.02259350279103 kcal/mol)

>  <smiles>  (32) 
Cc1cc(-c2cc(-c3ccc[nH]3)nc(-c3ccc(O)cc3O)n2)ccc1O

>  <score_type>  (32) 
oracle

>  <origin>  (32) 
adgpu

>  <m_score__min__energy>  (32) 
-10.859999999999999

>  <m_primary>  (32) 
energy

$$$$
32:0
     RDKit          3D

 65 67  0  0  0  0  0  0  0  0999 V2000
   -4.5780   14.1200  -31.9630 C   0  0  0  0  0  0  0  0  0  0  0  0
   -4.8660   14.0920  -33.4620 C   0  0  0  0  0  0  0  0  0  0  0  0
   -4.9830   15.4560  -33.9930 N   0  0  0  0  0  0  0  0  0  0  0  0
   -3.8410   16.0550  -34.6950 C   0  0  0  0  0  0  0  0  0  0  0  0
   -6.2740   16.1020  -34.0350 C   0  0  0  0  0  0  0  0  0  0  0  0
   -7.2510   15.5060  -34.5660 O   0  0  0  0  0  0  0  0  0  0  0  0
   -6.4830   17.4560  -33.4810 C   0  0  0  0  0  0  0  0  0  0  0  0
   -7.0370   17.6150  -32.2040 C   0  0  0  0  0  0  0  0  0  0  0  0
   -7.2340   18.8920  -31.6700 C   0  0  0  0  0  0  0  0  0  0  0  0
   -6.8640   20.0320  -32.4040 C   0  0  0  0  0  0  0  0  0  0  0  0
   -7.0800   21.3540  -31.8700 N   0  0  0  0  0  0  0  0  0  0  0  0
   -8.2360   22.1430  -32.3250 C   0  0  0  0  0  0  0  0  0  0  0  0
   -9.5220   21.6440  -31.6720 C   0  0  0  0  0  0  0  0  0  0  0  0
   -6.1310   21.9120  -30.9370 C   0  0  0  0  0  0  0  0  0  0  0  0
   -6.4750   23.0000  -30.1170 C   0  0  0  0  0  0  0  0  0  0  0  0
   -5.5470   23.5320  -29.2170 C   0  0  0  0  0  0  0  0  0  0  0  0
   -4.2640   22.9760  -29.1060 C   0  0  0  0  0  0  0  0  0  0  0  0
   -3.3240   23.5440  -28.1790 N   0  0  0  0  0  0  0  0  0  0  0  0
   -2.4620   24.6490  -28.5010 C   0  0  0  0  0  0  0  0  0  0  0  0
   -2.2270   24.9310  -29.7080 O   0  0  0  0  0  0  0  0  0  0  0  0
   -1.8010   25.4330  -27.4290 C   0  0  0  0  0  0  0  0  0  0  0  0
   -2.2600   25.3730  -26.1050 C   0  0  0  0  0  0  0  0  0  0  0  0
   -1.6360   26.1180  -25.1010 C   0  0  0  0  0  0  0  0  0  0  0  0
   -0.5310   26.9460  -25.3920 C   0  0  0  0  0  0  0  0  0  0  0  0
    0.1230   27.7160  -24.3470 N   0  0  0  0  0  0  0  0  0  0  0  0
    0.2550   27.1720  -22.9900 C   0  0  0  0  0  0  0  0  0  0  0  0
    0.6650   29.0520  -24.6310 C   0  0  0  0  0  0  0  0  0  0  0  0
   -0.0820   27.0070  -26.7280 C   0  0  0  0  0  0  0  0  0  0  0  0
   -0.7120   26.2660  -27.7320 C   0  0  0  0  0  0  0  0  0  0  0  0
   -3.9080   21.9040  -29.9410 C   0  0  0  0  0  0  0  0  0  0  0  0
   -4.8330   21.3770  -30.8460 C   0  0  0  0  0  0  0  0  0  0  0  0
   -6.2770   19.8710  -33.6680 C   0  0  0  0  0  0  0  0  0  0  0  0
   -6.0870   18.5920  -34.2030 C   0  0  0  0  0  0  0  0  0  0  0  0
   -5.5223   14.0282  -31.4064 H   0  0  0  0  0  0  0  0  0  0  0  0
   -3.9152   13.2821  -31.7013 H   0  0  0  0  0  0  0  0  0  0  0  0
   -4.0890   15.0699  -31.7013 H   0  0  0  0  0  0  0  0  0  0  0  0
   -4.0449   13.5727  -33.9779 H   0  0  0  0  0  0  0  0  0  0  0  0
   -5.8163   13.5641  -33.6300 H   0  0  0  0  0  0  0  0  0  0  0  0
   -3.1167   16.4349  -33.9594 H   0  0  0  0  0  0  0  0  0  0  0  0
   -3.3582   15.2941  -35.3257 H   0  0  0  0  0  0  0  0  0  0  0  0
   -4.1926   16.8848  -35.3257 H   0  0  0  0  0  0  0  0  0  0  0  0
   -7.3191   16.7284  -31.6171 H   0  0  0  0  0  0  0  0  0  0  0  0
   -7.6805   19.0050  -30.6711 H   0  0  0  0  0  0  0  0  0  0  0  0
   -8.0808   23.1983  -32.0564 H   0  0  0  0  0  0  0  0  0  0  0  0
   -8.3293   22.0359  -33.4158 H   0  0  0  0  0  0  0  0  0  0  0  0
   -9.4173   21.6846  -30.5778 H   0  0  0  0  0  0  0  0  0  0  0  0
  -10.3627   22.2812  -31.9838 H   0  0  0  0  0  0  0  0  0  0  0  0
   -9.7129   20.6065  -31.9838 H   0  0  0  0  0  0  0  0  0  0  0  0
   -7.4825   23.4365  -30.1838 H   0  0  0  0  0  0  0  0  0  0  0  0
   -5.8249   24.3929  -28.5913 H   0  0  0  0  0  0  0  0  0  0  0  0
   -3.1740   23.0500  -27.2710 H   0  0  0  0  0  0  0  0  0  0  0  0
   -3.1193   24.7335  -25.8547 H   0  0  0  0  0  0  0  0  0  0  0  0
   -2.0116   26.0582  -24.0688 H   0  0  0  0  0  0  0  0  0  0  0  0
    0.0619   27.9678  -22.2556 H   0  0  0  0  0  0  0  0  0  0  0  0
   -0.4718   26.3585  -22.8488 H   0  0  0  0  0  0  0  0  0  0  0  0
    1.2738   26.7821  -22.8488 H   0  0  0  0  0  0  0  0  0  0  0  0
    0.8756   29.5711  -23.6843 H   0  0  0  0  0  0  0  0  0  0  0  0
    1.5948   28.9549  -25.2106 H   0  0  0  0  0  0  0  0  0  0  0  0
   -0.0697   29.6301  -25.2106 H   0  0  0  0  0  0  0  0  0  0  0  0
    0.7758   27.6466  -26.9832 H   0  0  0  0  0  0  0  0  0  0  0  0
   -0.3514   26.3361  -28.7688 H   0  0  0  0  0  0  0  0  0  0  0  0
   -2.8959   21.4772  -29.8821 H   0  0  0  0  0  0  0  0  0  0  0  0
   -4.5436   20.5360  -31.4933 H   0  0  0  0  0  0  0  0  0  0  0  0
   -5.9642   20.7556  -34.2421 H   0  0  0  0  0  0  0  0  0  0  0  0
   -5.6249   18.4766  -35.1945 H   0  0  0  0  0  0  0  0  0  0  0  0
  1  2  1  0
  2  3  1  0
  3  4  1  0
  3  5  1  0
  5  6  2  0
  5  7  1  0
  7  8  2  0
  8  9  1  0
  9 10  2  0
 10 11  1  0
 11 12  1  0
 12 13  1  0
 11 14  1  0
 14 15  2  0
 15 16  1  0
 16 17  2  0
 17 18  1  0
 18 19  1  0
 19 20  2  0
 19 21  1  0
 21 22  2  0
 22 23  1  0
 23 24  2  0
 24 25  1  0
 25 26  1  0
 25 27  1  0
 24 28  1  0
 28 29  2  0
 17 30  1  0
 30 31  2  0
 10 32  1  0
 32 33  2  0
 33  7  1  0
 31 14  1  0
 29 21  1  0
  1 34  1  0
  1 35  1  0
  1 36  1  0
  2 37  1  0
  2 38  1  0
  4 39  1  0
  4 40  1  0
  4 41  1  0
  8 42  1  0
  9 43  1  0
 12 44  1  0
 12 45  1  0
 13 46  1  0
 13 47  1  0
 13 48  1  0
 15 49  1  0
 16 50  1  0
 18 51  1  0
 22 52  1  0
 23 53  1  0
 26 54  1  0
 26 55  1  0
 26 56  1  0
 27 57  1  0
 27 58  1  0
 27 59  1  0
 28 60  1  0
 29 61  1  0
 30 62  1  0
 31 63  1  0
 32 64  1  0
 33 65  1  0
M  END
>  <UniqueID>  (33) 
32

>  <SMILES>  (33) 
CCN(C)C(=O)c1ccc(N(CC)c2ccc(NC(=O)c3ccc(N(C)C)cc3)cc2)cc1

>  <Energy>  (33) 
80.7016800641748

>  <Genealogy>  (33) 
CCN(C)C(=O)c1ccc(N(CC)c2ccc(NC(=O)c3ccc(N(C)C)cc3)cc2)cc1 (3D coordinates assigned)
CCN(C)C(=O)c1ccc(N(CC)c2ccc(NC(=O)c3ccc(N(C)C)cc3)cc2)cc1 (optimized conformer: 80.7016800641748 kcal/mol)

>  <smiles>  (33) 
CCN(C)C(=O)c1ccc(N(CC)c2ccc(NC(=O)c3ccc(N(C)C)cc3)cc2)cc1

>  <score_type>  (33) 
oracle

>  <origin>  (33) 
adgpu

>  <m_score__min__energy>  (33) 
-8.8900000000000006

>  <m_primary>  (33) 
energy

$$$$
33:0
     RDKit          3D

 38 40  0  0  0  0  0  0  0  0999 V2000
   -6.1160   17.1360  -30.8360 C   0  0  0  0  0  0  0  0  0  0  0  0
   -7.1390   18.0380  -31.5140 C   0  0  0  0  0  0  0  0  0  0  0  0
   -6.6430   18.4870  -32.8570 C   0  0  0  0  0  0  0  0  0  0  0  0
   -6.0420   17.6730  -33.7450 N   0  0  0  0  0  0  0  0  0  0  0  0
   -5.8110   18.4330  -34.8080 N   0  0  0  0  0  0  0  0  0  0  0  0
   -6.2570   19.6620  -34.5940 N   0  0  0  0  0  0  0  0  0  0  0  0
   -6.7920   19.7150  -33.3870 N   0  0  0  0  0  0  0  0  0  0  0  0
   -7.3520   20.9210  -32.7810 C   0  0  0  0  0  0  0  0  0  0  0  0
   -6.2610   21.7380  -32.1410 C   0  0  0  0  0  0  0  0  0  0  0  0
   -6.5560   22.9960  -31.5920 C   0  0  0  0  0  0  0  0  0  0  0  0
   -5.5450   23.7660  -31.0080 C   0  0  0  0  0  0  0  0  0  0  0  0
   -4.2320   23.2870  -30.9520 C   0  0  0  0  0  0  0  0  0  0  0  0
   -3.2440   24.0970  -30.3720 O   0  0  0  0  0  0  0  0  0  0  0  0
   -2.5570   23.8160  -29.1820 C   0  0  0  0  0  0  0  0  0  0  0  0
   -2.7600   22.6150  -28.4750 C   0  0  0  0  0  0  0  0  0  0  0  0
   -2.0720   22.3740  -27.2810 C   0  0  0  0  0  0  0  0  0  0  0  0
   -1.1850   23.3320  -26.7770 C   0  0  0  0  0  0  0  0  0  0  0  0
   -0.4780   23.0830  -25.5480 C   0  0  0  0  0  0  0  0  0  0  0  0
    0.0910   22.8830  -24.5600 N   0  0  0  0  0  0  0  0  0  0  0  0
   -0.9930   24.5360  -27.4660 C   0  0  0  0  0  0  0  0  0  0  0  0
   -1.6800   24.7790  -28.6610 C   0  0  0  0  0  0  0  0  0  0  0  0
   -1.4870   25.9800  -29.3330 O   0  0  0  0  0  0  0  0  0  0  0  0
   -3.9310   22.0360  -31.5180 C   0  0  0  0  0  0  0  0  0  0  0  0
   -4.9410   21.2650  -32.1020 C   0  0  0  0  0  0  0  0  0  0  0  0
   -6.2160   17.2242  -29.7441 H   0  0  0  0  0  0  0  0  0  0  0  0
   -6.2906   16.0925  -31.1371 H   0  0  0  0  0  0  0  0  0  0  0  0
   -5.1026   17.4399  -31.1371 H   0  0  0  0  0  0  0  0  0  0  0  0
   -8.0799   17.4831  -31.6436 H   0  0  0  0  0  0  0  0  0  0  0  0
   -7.3022   18.9241  -30.8830 H   0  0  0  0  0  0  0  0  0  0  0  0
   -7.8469   21.5217  -33.5583 H   0  0  0  0  0  0  0  0  0  0  0  0
   -8.0804   20.6294  -32.0100 H   0  0  0  0  0  0  0  0  0  0  0  0
   -7.5872   23.3779  -31.6213 H   0  0  0  0  0  0  0  0  0  0  0  0
   -5.7840   24.7550  -30.5899 H   0  0  0  0  0  0  0  0  0  0  0  0
   -3.4627   21.8631  -28.8634 H   0  0  0  0  0  0  0  0  0  0  0  0
   -2.2284   21.4304  -26.7377 H   0  0  0  0  0  0  0  0  0  0  0  0
   -0.3009   25.2923  -27.0672 H   0  0  0  0  0  0  0  0  0  0  0  0
   -2.8967   21.6620  -31.5015 H   0  0  0  0  0  0  0  0  0  0  0  0
   -4.6990   20.2823  -32.5331 H   0  0  0  0  0  0  0  0  0  0  0  0
  1  2  1  0
  2  3  1  0
  3  4  2  0
  4  5  1  0
  5  6  2  0
  6  7  1  0
  7  8  1  0
  8  9  1  0
  9 10  2  0
 10 11  1  0
 11 12  2  0
 12 13  1  0
 13 14  1  0
 14 15  2  0
 15 16  1  0
 16 17  2  0
 17 18  1  0
 18 19  3  0
 17 20  1  0
 20 21  2  0
 21 22  1  0
 12 23  1  0
 23 24  2  0
  7  3  1  0
 24  9  1  0
 21 14  1  0
  1 25  1  0
  1 26  1  0
  1 27  1  0
  2 28  1  0
  2 29  1  0
  8 30  1  0
  8 31  1  0
 10 32  1  0
 11 33  1  0
 15 34  1  0
 16 35  1  0
 20 36  1  0
 23 37  1  0
 24 38  1  0
M  CHG  1  22  -1
M  END
>  <UniqueID>  (34) 
33

>  <SMILES>  (34) 
CCc1nnnn1Cc1ccc(Oc2ccc(C#N)cc2[O-])cc1

>  <Energy>  (34) 
81.14736118943802

>  <Genealogy>  (34) 
CCc1nnnn1Cc1ccc(Oc2ccc(C#N)cc2[O-])cc1 (protonated)
CCc1nnnn1Cc1ccc(Oc2ccc(C#N)cc2[O-])cc1 (3D coordinates assigned)
CCc1nnnn1Cc1ccc(Oc2ccc(C#N)cc2[O-])cc1 (optimized conformer: 81.14736118943802 kcal/mol)

>  <smiles>  (34) 
CCc1nnnn1Cc1ccc(Oc2ccc(C#N)cc2O)cc1

>  <score_type>  (34) 
oracle

>  <origin>  (34) 
adgpu

>  <m_score__min__energy>  (34) 
-12.43

>  <m_primary>  (34) 
energy

$$$$
34:0
     RDKit          3D

 24 25  0  0  0  0  0  0  0  0999 V2000
   -3.2210   23.4560  -31.2270 O   0  0  0  0  0  0  0  0  0  0  0  0
   -4.2810   24.1800  -30.4430 S   0  0  0  0  0  0  0  0  0  0  0  0
   -4.2650   25.6340  -30.8240 O   0  0  0  0  0  0  0  0  0  0  0  0
   -3.9330   24.0280  -28.7500 N   0  0  0  0  0  0  0  0  0  0  0  0
   -2.9030   24.5650  -28.1750 C   0  0  0  0  0  0  0  0  0  0  0  0
   -2.0070   25.3040  -28.8870 N   0  0  0  0  0  0  0  0  0  0  0  0
   -0.9250   25.8630  -28.2880 C   0  0  0  0  0  0  0  0  0  0  0  0
   -0.7180   25.6840  -26.9210 C   0  0  0  0  0  0  0  0  0  0  0  0
   -1.6440   24.9270  -26.2040 C   0  0  0  0  0  0  0  0  0  0  0  0
   -2.7140   24.3840  -26.8400 N   0  0  0  0  0  0  0  0  0  0  0  0
   -5.8730   23.5150  -30.7950 C   0  0  0  0  0  0  0  0  0  0  0  0
   -6.5690   22.8080  -29.8040 C   0  0  0  0  0  0  0  0  0  0  0  0
   -7.8310   22.2720  -30.0790 C   0  0  0  0  0  0  0  0  0  0  0  0
   -8.4040   22.4420  -31.3430 C   0  0  0  0  0  0  0  0  0  0  0  0
   -7.7160   23.1490  -32.3330 C   0  0  0  0  0  0  0  0  0  0  0  0
   -6.4530   23.6860  -32.0610 C   0  0  0  0  0  0  0  0  0  0  0  0
   -0.2126   26.4563  -28.8801 H   0  0  0  0  0  0  0  0  0  0  0  0
    0.1545   26.1290  -26.4202 H   0  0  0  0  0  0  0  0  0  0  0  0
   -1.5078   24.7698  -25.1238 H   0  0  0  0  0  0  0  0  0  0  0  0
   -6.1213   22.6747  -28.8081 H   0  0  0  0  0  0  0  0  0  0  0  0
   -8.3734   21.7161  -29.3001 H   0  0  0  0  0  0  0  0  0  0  0  0
   -9.3964   22.0192  -31.5583 H   0  0  0  0  0  0  0  0  0  0  0  0
   -8.1679   23.2834  -33.3269 H   0  0  0  0  0  0  0  0  0  0  0  0
   -5.9138   24.2433  -32.8412 H   0  0  0  0  0  0  0  0  0  0  0  0
  1  2  2  0
  2  3  2  0
  2  4  1  0
  4  5  2  3
  5  6  1  0
  6  7  2  0
  7  8  1  0
  8  9  2  0
  9 10  1  0
  2 11  1  0
 11 12  2  0
 12 13  1  0
 13 14  2  0
 14 15  1  0
 15 16  2  0
 10  5  1  0
 16 11  1  0
  7 17  1  0
  8 18  1  0
  9 19  1  0
 12 20  1  0
 13 21  1  0
 14 22  1  0
 15 23  1  0
 16 24  1  0
M  CHG  1  10  -1
M  END
>  <UniqueID>  (35) 
34

>  <SMILES>  (35) 
O=S(=O)(N=c1nccc[n-]1)c1ccccc1

>  <Energy>  (35) 
28.816351133727363

>  <Genealogy>  (35) 
O=S(=O)(N=c1nccc[n-]1)c1ccccc1 (protonated)
O=S(=O)(N=c1nccc[n-]1)c1ccccc1 (3D coordinates assigned)
O=S(=O)(N=c1nccc[n-]1)c1ccccc1 (optimized conformer: 28.816351133727363 kcal/mol)

>  <smiles>  (35) 
O=S(=O)(N=c1nccc[nH]1)c1ccccc1

>  <score_type>  (35) 
oracle

>  <origin>  (35) 
adgpu

>  <m_score__min__energy>  (35) 
-7.6699999999999999

>  <m_primary>  (35) 
energy

$$$$
35:0
     RDKit          3D

 69 71  0  0  0  0  0  0  0  0999 V2000
   -3.7090   16.6950  -35.4860 C   0  0  0  0  0  0  0  0  0  0  0  0
   -2.7370   17.0220  -34.4370 N   0  0  0  0  0  0  0  0  0  0  0  0
   -3.3520   16.9880  -33.1010 C   0  0  0  0  0  0  0  0  0  0  0  0
   -1.4840   16.2370  -34.5380 C   0  0  0  0  0  0  0  0  0  0  0  0
   -0.2970   16.9590  -35.2200 C   0  0  0  0  0  0  0  0  0  0  0  0
    0.3570   17.9450  -34.3380 N   0  0  0  0  0  0  0  0  0  0  0  0
    0.5600   17.6230  -32.9220 C   0  0  0  0  0  0  0  0  0  0  0  0
    0.5040   19.3220  -34.7560 C   0  0  0  0  0  0  0  0  0  0  0  0
    1.6710   19.7300  -35.4240 C   0  0  0  0  0  0  0  0  0  0  0  0
    1.8250   21.0490  -35.8570 C   0  0  0  0  0  0  0  0  0  0  0  0
    0.8180   22.0000  -35.6240 C   0  0  0  0  0  0  0  0  0  0  0  0
    0.9480   23.4060  -36.0950 C   0  0  0  0  0  0  0  0  0  0  0  0
    2.0780   23.8300  -36.4680 O   0  0  0  0  0  0  0  0  0  0  0  0
   -0.1910   24.2820  -36.1670 N   0  0  0  0  0  0  0  0  0  0  0  0
   -0.0880   25.7190  -36.1460 C   0  0  0  0  0  0  0  0  0  0  0  0
    0.8660   26.3750  -35.3500 C   0  0  0  0  0  0  0  0  0  0  0  0
    0.9500   27.7700  -35.3490 C   0  0  0  0  0  0  0  0  0  0  0  0
    0.0720   28.5460  -36.1310 C   0  0  0  0  0  0  0  0  0  0  0  0
    0.1610   29.9920  -36.1300 N   0  0  0  0  0  0  0  0  0  0  0  0
   -0.4890   30.7770  -37.1860 C   0  0  0  0  0  0  0  0  0  0  0  0
    0.8990   30.6930  -35.0740 C   0  0  0  0  0  0  0  0  0  0  0  0
   -0.9000   27.8830  -36.9050 C   0  0  0  0  0  0  0  0  0  0  0  0
   -0.9820   26.4860  -36.9050 C   0  0  0  0  0  0  0  0  0  0  0  0
   -0.3540   21.5900  -34.9640 C   0  0  0  0  0  0  0  0  0  0  0  0
   -0.5150   20.2680  -34.5170 C   0  0  0  0  0  0  0  0  0  0  0  0
   -1.7360   19.8640  -33.8800 N   0  0  0  0  0  0  0  0  0  0  0  0
   -2.3460   20.4890  -32.7440 C   0  0  0  0  0  0  0  0  0  0  0  0
   -1.9380   20.1670  -31.5960 O   0  0  0  0  0  0  0  0  0  0  0  0
   -3.4070   21.5130  -32.9240 C   0  0  0  0  0  0  0  0  0  0  0  0
   -4.7190   21.2770  -33.0850 C   0  0  0  0  0  0  0  0  0  0  0  0
   -5.3700   19.9580  -33.0060 C   0  0  0  0  0  0  0  0  0  0  0  0
   -5.7190   19.3910  -31.7700 C   0  0  0  0  0  0  0  0  0  0  0  0
   -6.3770   18.1610  -31.7290 C   0  0  0  0  0  0  0  0  0  0  0  0
   -6.6980   17.5160  -32.9240 C   0  0  0  0  0  0  0  0  0  0  0  0
   -6.3760   18.0920  -34.1150 N   0  0  0  0  0  0  0  0  0  0  0  0
   -5.7330   19.2880  -34.1800 C   0  0  0  0  0  0  0  0  0  0  0  0
   -4.6548   16.3768  -35.0232 H   0  0  0  0  0  0  0  0  0  0  0  0
   -3.8869   17.5828  -36.1107 H   0  0  0  0  0  0  0  0  0  0  0  0
   -3.3141   15.8802  -36.1107 H   0  0  0  0  0  0  0  0  0  0  0  0
   -2.5649   17.0315  -32.3338 H   0  0  0  0  0  0  0  0  0  0  0  0
   -4.0250   17.8503  -32.9851 H   0  0  0  0  0  0  0  0  0  0  0  0
   -3.9259   16.0568  -32.9851 H   0  0  0  0  0  0  0  0  0  0  0  0
   -1.1732   15.9626  -33.5191 H   0  0  0  0  0  0  0  0  0  0  0  0
   -1.7198   15.3740  -35.1780 H   0  0  0  0  0  0  0  0  0  0  0  0
    0.4475   16.2062  -35.5182 H   0  0  0  0  0  0  0  0  0  0  0  0
   -0.6963   17.5049  -36.0875 H   0  0  0  0  0  0  0  0  0  0  0  0
    0.0766   18.3897  -32.2987 H   0  0  0  0  0  0  0  0  0  0  0  0
    0.1181   16.6399  -32.7025 H   0  0  0  0  0  0  0  0  0  0  0  0
    1.6376   17.5978  -32.7025 H   0  0  0  0  0  0  0  0  0  0  0  0
    2.4739   19.0010  -35.6083 H   0  0  0  0  0  0  0  0  0  0  0  0
    2.7432   21.3456  -36.3852 H   0  0  0  0  0  0  0  0  0  0  0  0
   -1.1240   23.8680  -36.3900 H   0  0  0  0  0  0  0  0  0  0  0  0
    1.5518   25.7863  -34.7230 H   0  0  0  0  0  0  0  0  0  0  0  0
    1.7109   28.2681  -34.7301 H   0  0  0  0  0  0  0  0  0  0  0  0
   -1.1273   31.5479  -36.7296 H   0  0  0  0  0  0  0  0  0  0  0  0
    0.2783   31.2586  -37.8099 H   0  0  0  0  0  0  0  0  0  0  0  0
   -1.1052   30.1129  -37.8099 H   0  0  0  0  0  0  0  0  0  0  0  0
    0.5421   30.3540  -34.0903 H   0  0  0  0  0  0  0  0  0  0  0  0
    1.9727   30.4742  -35.1699 H   0  0  0  0  0  0  0  0  0  0  0  0
    0.7356   31.7766  -35.1699 H   0  0  0  0  0  0  0  0  0  0  0  0
   -1.6021   28.4694  -37.5159 H   0  0  0  0  0  0  0  0  0  0  0  0
   -1.7553   25.9854  -37.5063 H   0  0  0  0  0  0  0  0  0  0  0  0
   -1.1604   22.3186  -34.7944 H   0  0  0  0  0  0  0  0  0  0  0  0
   -3.0872   22.5655  -32.9255 H   0  0  0  0  0  0  0  0  0  0  0  0
   -5.3634   22.1436  -33.2940 H   0  0  0  0  0  0  0  0  0  0  0  0
   -5.4740   19.9158  -30.8348 H   0  0  0  0  0  0  0  0  0  0  0  0
   -6.6402   17.7042  -30.7636 H   0  0  0  0  0  0  0  0  0  0  0  0
   -7.2108   16.5430  -32.9039 H   0  0  0  0  0  0  0  0  0  0  0  0
   -5.4971   19.7308  -35.1589 H   0  0  0  0  0  0  0  0  0  0  0  0
  1  2  1  0
  2  3  1  0
  2  4  1  0
  4  5  1  0
  5  6  1  0
  6  7  1  0
  6  8  1  0
  8  9  2  0
  9 10  1  0
 10 11  2  0
 11 12  1  0
 12 13  2  0
 12 14  1  0
 14 15  1  0
 15 16  2  0
 16 17  1  0
 17 18  2  0
 18 19  1  0
 19 20  1  0
 19 21  1  0
 18 22  1  0
 22 23  2  0
 11 24  1  0
 24 25  2  0
 25 26  1  0
 26 27  1  0
 27 28  2  0
 27 29  1  0
 29 30  2  3
 30 31  1  0
 31 32  2  0
 32 33  1  0
 33 34  2  0
 34 35  1  0
 35 36  2  0
 25  8  1  0
 36 31  1  0
 23 15  1  0
  1 37  1  0
  1 38  1  0
  1 39  1  0
  3 40  1  0
  3 41  1  0
  3 42  1  0
  4 43  1  0
  4 44  1  0
  5 45  1  0
  5 46  1  0
  7 47  1  0
  7 48  1  0
  7 49  1  0
  9 50  1  0
 10 51  1  0
 14 52  1  0
 16 53  1  0
 17 54  1  0
 20 55  1  0
 20 56  1  0
 20 57  1  0
 21 58  1  0
 21 59  1  0
 21 60  1  0
 22 61  1  0
 23 62  1  0
 24 63  1  0
 29 64  1  0
 30 65  1  0
 32 66  1  0
 33 67  1  0
 34 68  1  0
 36 69  1  0
M  CHG  1  26  -1
M  END
>  <UniqueID>  (36) 
35

>  <SMILES>  (36) 
CN(C)CCN(C)c1ccc(C(=O)Nc2ccc(N(C)C)cc2)cc1[N-]C(=O)C=Cc1cccnc1

>  <Energy>  (36) 
98.87877953472544

>  <Genealogy>  (36) 
CN(C)CCN(C)c1ccc(C(=O)Nc2ccc(N(C)C)cc2)cc1[N-]C(=O)C=Cc1cccnc1 (protonated)
CN(C)CCN(C)c1ccc(C(=O)Nc2ccc(N(C)C)cc2)cc1[N-]C(=O)C=Cc1cccnc1 (3D coordinates assigned)
CN(C)CCN(C)c1ccc(C(=O)Nc2ccc(N(C)C)cc2)cc1[N-]C(=O)C=Cc1cccnc1 (optimized conformer: 98.87877953472544 kcal/mol)

>  <smiles>  (36) 
CN(C)CCN(C)c1ccc(C(=O)Nc2ccc(N(C)C)cc2)cc1NC(=O)C=Cc1cccnc1

>  <score_type>  (36) 
oracle

>  <origin>  (36) 
adgpu

>  <m_score__min__energy>  (36) 
-9.7799999999999994

>  <m_primary>  (36) 
energy

$$$$
36:0
     RDKit          3D

 53 55  0  0  0  0  0  0  0  0999 V2000
   -3.6840   16.8570  -35.0650 C   0  0  0  0  0  0  0  0  0  0  0  0
   -5.0720   17.1740  -35.0540 O   0  0  0  0  0  0  0  0  0  0  0  0
   -5.7020   17.9380  -34.0610 C   0  0  0  0  0  0  0  0  0  0  0  0
   -6.2470   17.2750  -32.9570 C   0  0  0  0  0  0  0  0  0  0  0  0
   -6.8760   17.9930  -31.9370 C   0  0  0  0  0  0  0  0  0  0  0  0
   -6.9630   19.3880  -32.0000 C   0  0  0  0  0  0  0  0  0  0  0  0
   -7.5870   20.0840  -30.9150 N   0  0  0  0  0  0  0  0  0  0  0  0
   -8.2660   21.6800  -30.9910 S   0  0  0  0  0  0  0  0  0  0  0  0
   -8.8770   21.8990  -32.3470 O   0  0  0  0  0  0  0  0  0  0  0  0
   -9.3060   21.8390  -29.9200 O   0  0  0  0  0  0  0  0  0  0  0  0
   -6.9880   22.8690  -30.7590 C   0  0  0  0  0  0  0  0  0  0  0  0
   -7.1740   24.1890  -31.1850 C   0  0  0  0  0  0  0  0  0  0  0  0
   -6.1370   25.1170  -31.0670 C   0  0  0  0  0  0  0  0  0  0  0  0
   -4.8960   24.7240  -30.5550 C   0  0  0  0  0  0  0  0  0  0  0  0
   -3.8640   25.6510  -30.4680 O   0  0  0  0  0  0  0  0  0  0  0  0
   -4.6910   23.3980  -30.1440 C   0  0  0  0  0  0  0  0  0  0  0  0
   -3.3930   23.0030  -29.6700 N   0  0  0  0  0  0  0  0  0  0  0  0
   -2.7430   21.7420  -29.8990 C   0  0  0  0  0  0  0  0  0  0  0  0
   -2.6000   20.9530  -28.9270 O   0  0  0  0  0  0  0  0  0  0  0  0
   -2.2140   21.3540  -31.2270 C   0  0  0  0  0  0  0  0  0  0  0  0
   -3.0670   21.2350  -32.3360 C   0  0  0  0  0  0  0  0  0  0  0  0
   -2.5770   20.7690  -33.5600 C   0  0  0  0  0  0  0  0  0  0  0  0
   -1.2180   20.4310  -33.6990 C   0  0  0  0  0  0  0  0  0  0  0  0
   -0.6770   19.9210  -34.8910 O   0  0  0  0  0  0  0  0  0  0  0  0
    0.4910   20.4090  -35.5550 C   0  0  0  0  0  0  0  0  0  0  0  0
    0.6680   19.6390  -36.8620 C   0  0  0  0  0  0  0  0  0  0  0  0
    0.3570   21.9100  -35.8400 C   0  0  0  0  0  0  0  0  0  0  0  0
   -0.3590   20.6100  -32.6090 C   0  0  0  0  0  0  0  0  0  0  0  0
   -0.8480   21.0670  -31.3830 C   0  0  0  0  0  0  0  0  0  0  0  0
   -5.7630   22.4900  -30.1970 C   0  0  0  0  0  0  0  0  0  0  0  0
   -6.4320   20.0590  -33.1160 C   0  0  0  0  0  0  0  0  0  0  0  0
   -5.8030   19.3410  -34.1370 C   0  0  0  0  0  0  0  0  0  0  0  0
   -3.3187   16.7736  -34.0308 H   0  0  0  0  0  0  0  0  0  0  0  0
   -3.5304   15.9007  -35.5864 H   0  0  0  0  0  0  0  0  0  0  0  0
   -3.1305   17.6519  -35.5864 H   0  0  0  0  0  0  0  0  0  0  0  0
   -6.1799   16.1790  -32.8912 H   0  0  0  0  0  0  0  0  0  0  0  0
   -7.3061   17.4575  -31.0778 H   0  0  0  0  0  0  0  0  0  0  0  0
   -8.1392   24.4963  -31.6138 H   0  0  0  0  0  0  0  0  0  0  0  0
   -6.2966   26.1601  -31.3776 H   0  0  0  0  0  0  0  0  0  0  0  0
   -4.1278   21.5102  -32.2413 H   0  0  0  0  0  0  0  0  0  0  0  0
   -3.2571   20.6661  -34.4184 H   0  0  0  0  0  0  0  0  0  0  0  0
    1.3706   20.2605  -34.9113 H   0  0  0  0  0  0  0  0  0  0  0  0
    0.9093   18.5892  -36.6393 H   0  0  0  0  0  0  0  0  0  0  0  0
   -0.2642   19.6854  -37.4440 H   0  0  0  0  0  0  0  0  0  0  0  0
    1.4864   20.0878  -37.4440 H   0  0  0  0  0  0  0  0  0  0  0  0
    0.3078   22.4608  -34.8891 H   0  0  0  0  0  0  0  0  0  0  0  0
    1.2281   22.2527  -36.4177 H   0  0  0  0  0  0  0  0  0  0  0  0
   -0.5611   22.0930  -36.4177 H   0  0  0  0  0  0  0  0  0  0  0  0
    0.7128   20.3884  -32.7188 H   0  0  0  0  0  0  0  0  0  0  0  0
   -0.1599   21.2028  -30.5356 H   0  0  0  0  0  0  0  0  0  0  0  0
   -5.6384   21.4741  -29.7939 H   0  0  0  0  0  0  0  0  0  0  0  0
   -6.5120   21.1539  -33.1857 H   0  0  0  0  0  0  0  0  0  0  0  0
   -5.3850   19.8739  -35.0038 H   0  0  0  0  0  0  0  0  0  0  0  0
  1  2  1  0
  2  3  1  0
  3  4  2  0
  4  5  1  0
  5  6  2  0
  6  7  1  0
  7  8  1  0
  8  9  2  0
  8 10  2  0
  8 11  1  0
 11 12  2  0
 12 13  1  0
 13 14  2  0
 14 15  1  0
 14 16  1  0
 16 17  1  0
 17 18  1  0
 18 19  2  0
 18 20  1  0
 20 21  2  0
 21 22  1  0
 22 23  2  0
 23 24  1  0
 24 25  1  0
 25 26  1  0
 25 27  1  0
 23 28  1  0
 28 29  2  0
 16 30  2  0
  6 31  1  0
 31 32  2  0
 32  3  1  0
 30 11  1  0
 29 20  1  0
  1 33  1  0
  1 34  1  0
  1 35  1  0
  4 36  1  0
  5 37  1  0
 12 38  1  0
 13 39  1  0
 21 40  1  0
 22 41  1  0
 25 42  1  0
 26 43  1  0
 26 44  1  0
 26 45  1  0
 27 46  1  0
 27 47  1  0
 27 48  1  0
 28 49  1  0
 29 50  1  0
 30 51  1  0
 31 52  1  0
 32 53  1  0
M  CHG  3   7  -1  15  -1  17  -1
M  END
>  <UniqueID>  (37) 
36

>  <SMILES>  (37) 
COc1ccc([N-]S(=O)(=O)c2ccc([O-])c([N-]C(=O)c3ccc(OC(C)C)cc3)c2)cc1

>  <Energy>  (37) 
57.61197886492139

>  <Genealogy>  (37) 
COc1ccc([N-]S(=O)(=O)c2ccc([O-])c([N-]C(=O)c3ccc(OC(C)C)cc3)c2)cc1 (protonated)
COc1ccc([N-]S(=O)(=O)c2ccc([O-])c([N-]C(=O)c3ccc(OC(C)C)cc3)c2)cc1 (3D coordinates assigned)
COc1ccc([N-]S(=O)(=O)c2ccc([O-])c([N-]C(=O)c3ccc(OC(C)C)cc3)c2)cc1 (optimized conformer: 57.61197886492139 kcal/mol)

>  <smiles>  (37) 
COc1ccc(NS(=O)(=O)c2ccc(O)c(NC(=O)c3ccc(OC(C)C)cc3)c2)cc1

>  <score_type>  (37) 
oracle

>  <origin>  (37) 
adgpu

>  <m_score__min__energy>  (37) 
-13.869999999999999

>  <m_primary>  (37) 
energy

$$$$
37:0
     RDKit          3D

 33 34  0  0  0  0  0  0  0  0999 V2000
   -3.3000   23.1860  -29.8620 O   0  0  0  0  0  0  0  0  0  0  0  0
   -3.1140   24.4280  -29.7660 C   0  0  0  0  0  0  0  0  0  0  0  0
   -3.8650   25.2950  -30.6270 N   0  0  0  0  0  0  0  0  0  0  0  0
   -5.2790   25.6270  -30.5010 C   0  0  0  0  0  0  0  0  0  0  0  0
   -6.1340   24.3580  -30.5810 C   0  0  0  0  0  0  0  0  0  0  0  0
   -6.2870   23.7990  -32.0100 C   0  0  0  0  0  0  0  0  0  0  0  0
   -5.8210   22.3420  -32.1760 C   0  0  0  0  0  0  0  0  0  0  0  0
   -6.9750   21.3740  -32.2220 C   0  0  0  0  0  0  0  0  0  0  0  0
   -8.2730   21.7850  -31.8830 C   0  0  0  0  0  0  0  0  0  0  0  0
   -9.3330   20.8790  -31.9540 C   0  0  0  0  0  0  0  0  0  0  0  0
   -9.0860   19.5680  -32.3660 C   0  0  0  0  0  0  0  0  0  0  0  0
   -7.8250   19.1830  -32.6940 N   0  0  0  0  0  0  0  0  0  0  0  0
   -6.7760   20.0460  -32.6340 C   0  0  0  0  0  0  0  0  0  0  0  0
   -2.1710   24.9120  -28.7390 C   0  0  0  0  0  0  0  0  0  0  0  0
   -1.9460   24.3890  -27.4760 C   0  0  0  0  0  0  0  0  0  0  0  0
   -1.0030   25.2070  -26.8940 C   0  0  0  0  0  0  0  0  0  0  0  0
   -0.7130   26.1820  -27.8240 C   0  0  0  0  0  0  0  0  0  0  0  0
   -1.4280   25.9830  -28.9080 O   0  0  0  0  0  0  0  0  0  0  0  0
   -5.4509   26.1196  -29.5326 H   0  0  0  0  0  0  0  0  0  0  0  0
   -5.5623   26.3009  -31.3230 H   0  0  0  0  0  0  0  0  0  0  0  0
   -5.6659   23.5845  -29.9544 H   0  0  0  0  0  0  0  0  0  0  0  0
   -7.1420   24.6287  -30.2335 H   0  0  0  0  0  0  0  0  0  0  0  0
   -7.3496   23.8542  -32.2891 H   0  0  0  0  0  0  0  0  0  0  0  0
   -5.6412   24.4107  -32.6571 H   0  0  0  0  0  0  0  0  0  0  0  0
   -5.2509   22.2575  -33.1130 H   0  0  0  0  0  0  0  0  0  0  0  0
   -5.2013   22.0856  -31.3041 H   0  0  0  0  0  0  0  0  0  0  0  0
   -8.4555   22.8210  -31.5613 H   0  0  0  0  0  0  0  0  0  0  0  0
  -10.3525   21.1949  -31.6880 H   0  0  0  0  0  0  0  0  0  0  0  0
   -9.9136   18.8458  -32.4251 H   0  0  0  0  0  0  0  0  0  0  0  0
   -5.7677   19.7029  -32.9091 H   0  0  0  0  0  0  0  0  0  0  0  0
   -2.4222   23.5033  -27.0301 H   0  0  0  0  0  0  0  0  0  0  0  0
   -0.5686   25.1030  -25.8888 H   0  0  0  0  0  0  0  0  0  0  0  0
    0.0069   27.0013  -27.6806 H   0  0  0  0  0  0  0  0  0  0  0  0
  1  2  2  0
  2  3  1  0
  3  4  1  0
  4  5  1  0
  5  6  1  0
  6  7  1  0
  7  8  1  0
  8  9  2  0
  9 10  1  0
 10 11  2  0
 11 12  1  0
 12 13  2  0
  2 14  1  0
 14 15  2  0
 15 16  1  0
 16 17  2  0
 17 18  1  0
 13  8  1  0
 18 14  1  0
  4 19  1  0
  4 20  1  0
  5 21  1  0
  5 22  1  0
  6 23  1  0
  6 24  1  0
  7 25  1  0
  7 26  1  0
  9 27  1  0
 10 28  1  0
 11 29  1  0
 13 30  1  0
 15 31  1  0
 16 32  1  0
 17 33  1  0
M  CHG  1   3  -1
M  END
>  <UniqueID>  (38) 
37

>  <SMILES>  (38) 
O=C([N-]CCCCc1cccnc1)c1ccco1

>  <Energy>  (38) 
56.35398735527394

>  <Genealogy>  (38) 
O=C([N-]CCCCc1cccnc1)c1ccco1 (protonated)
O=C([N-]CCCCc1cccnc1)c1ccco1 (3D coordinates assigned)
O=C([N-]CCCCc1cccnc1)c1ccco1 (optimized conformer: 56.35398735527394 kcal/mol)

>  <smiles>  (38) 
O=C(NCCCCc1cccnc1)c1ccco1

>  <score_type>  (38) 
oracle

>  <origin>  (38) 
adgpu

>  <m_score__min__energy>  (38) 
-8.8800000000000008

>  <m_primary>  (38) 
energy

$$$$
38:0
     RDKit          3D

 46 48  0  0  0  0  0  0  0  0999 V2000
   -5.6800   18.1480  -34.9400 C   0  0  0  0  0  0  0  0  0  0  0  0
   -5.4290   17.8030  -33.1690 S   0  0  0  0  0  0  0  0  0  0  0  0
   -6.8410   18.7870  -32.6460 C   0  0  0  0  0  0  0  0  0  0  0  0
   -7.9590   18.1410  -32.1030 C   0  0  0  0  0  0  0  0  0  0  0  0
   -9.0640   18.8830  -31.6790 C   0  0  0  0  0  0  0  0  0  0  0  0
   -9.0520   20.2740  -31.7870 C   0  0  0  0  0  0  0  0  0  0  0  0
   -7.9420   20.9280  -32.3270 C   0  0  0  0  0  0  0  0  0  0  0  0
   -6.8260   20.1890  -32.7700 C   0  0  0  0  0  0  0  0  0  0  0  0
   -5.6780   20.8300  -33.3490 N   0  0  0  0  0  0  0  0  0  0  0  0
   -4.2450   21.2890  -32.4870 S   0  0  0  0  0  0  0  0  0  0  0  0
   -3.7980   20.1380  -31.6290 O   0  0  0  0  0  0  0  0  0  0  0  0
   -3.1610   21.6180  -33.4720 O   0  0  0  0  0  0  0  0  0  0  0  0
   -4.5650   22.7090  -31.4950 C   0  0  0  0  0  0  0  0  0  0  0  0
   -5.8810   23.1570  -31.3130 C   0  0  0  0  0  0  0  0  0  0  0  0
   -6.1400   24.2580  -30.4950 C   0  0  0  0  0  0  0  0  0  0  0  0
   -5.0890   24.9170  -29.8520 C   0  0  0  0  0  0  0  0  0  0  0  0
   -3.7680   24.4730  -30.0240 C   0  0  0  0  0  0  0  0  0  0  0  0
   -2.6690   25.1170  -29.3630 N   0  0  0  0  0  0  0  0  0  0  0  0
   -1.4510   24.4790  -28.9520 C   0  0  0  0  0  0  0  0  0  0  0  0
   -0.4890   25.2010  -28.5770 O   0  0  0  0  0  0  0  0  0  0  0  0
   -1.2770   23.0070  -29.0060 C   0  0  0  0  0  0  0  0  0  0  0  0
   -0.6750   22.4100  -30.1260 C   0  0  0  0  0  0  0  0  0  0  0  0
   -0.4950   21.0270  -30.1770 C   0  0  0  0  0  0  0  0  0  0  0  0
   -0.9260   20.2220  -29.1220 C   0  0  0  0  0  0  0  0  0  0  0  0
   -1.5690   20.7910  -28.0090 C   0  0  0  0  0  0  0  0  0  0  0  0
   -1.9890   19.9310  -26.8440 C   0  0  0  0  0  0  0  0  0  0  0  0
   -1.4130   18.6760  -26.9260 F   0  0  0  0  0  0  0  0  0  0  0  0
   -1.5840   20.5360  -25.6690 F   0  0  0  0  0  0  0  0  0  0  0  0
   -3.3630   19.7750  -26.8220 F   0  0  0  0  0  0  0  0  0  0  0  0
   -1.7320   22.1850  -27.9560 C   0  0  0  0  0  0  0  0  0  0  0  0
   -3.5100   23.3830  -30.8650 C   0  0  0  0  0  0  0  0  0  0  0  0
   -6.3237   19.0327  -35.0536 H   0  0  0  0  0  0  0  0  0  0  0  0
   -4.7077   18.3382  -35.4179 H   0  0  0  0  0  0  0  0  0  0  0  0
   -6.1602   17.2814  -35.4179 H   0  0  0  0  0  0  0  0  0  0  0  0
   -7.9669   17.0450  -32.0101 H   0  0  0  0  0  0  0  0  0  0  0  0
   -9.9429   18.3710  -31.2603 H   0  0  0  0  0  0  0  0  0  0  0  0
   -9.9196   20.8577  -31.4457 H   0  0  0  0  0  0  0  0  0  0  0  0
   -7.9386   22.0251  -32.4070 H   0  0  0  0  0  0  0  0  0  0  0  0
   -6.7113   22.6397  -31.8160 H   0  0  0  0  0  0  0  0  0  0  0  0
   -7.1737   24.6076  -30.3563 H   0  0  0  0  0  0  0  0  0  0  0  0
   -5.2969   25.7855  -29.2097 H   0  0  0  0  0  0  0  0  0  0  0  0
   -0.3436   23.0361  -30.9676 H   0  0  0  0  0  0  0  0  0  0  0  0
   -0.0113   20.5696  -31.0527 H   0  0  0  0  0  0  0  0  0  0  0  0
   -0.7616   19.1351  -29.1615 H   0  0  0  0  0  0  0  0  0  0  0  0
   -2.2215   22.6412  -27.0829 H   0  0  0  0  0  0  0  0  0  0  0  0
   -2.4736   23.0542  -31.0319 H   0  0  0  0  0  0  0  0  0  0  0  0
  1  2  1  0
  2  3  1  0
  3  4  2  0
  4  5  1  0
  5  6  2  0
  6  7  1  0
  7  8  2  0
  8  9  1  0
  9 10  1  0
 10 11  2  0
 10 12  2  0
 10 13  1  0
 13 14  2  0
 14 15  1  0
 15 16  2  0
 16 17  1  0
 17 18  1  0
 18 19  1  0
 19 20  2  0
 19 21  1  0
 21 22  2  0
 22 23  1  0
 23 24  2  0
 24 25  1  0
 25 26  1  0
 26 27  1  0
 26 28  1  0
 26 29  1  0
 25 30  2  0
 17 31  2  0
  8  3  1  0
 31 13  1  0
 30 21  1  0
  1 32  1  0
  1 33  1  0
  1 34  1  0
  4 35  1  0
  5 36  1  0
  6 37  1  0
  7 38  1  0
 14 39  1  0
 15 40  1  0
 16 41  1  0
 22 42  1  0
 23 43  1  0
 24 44  1  0
 30 45  1  0
 31 46  1  0
M  CHG  2   9  -1  18  -1
M  END
>  <UniqueID>  (39) 
38

>  <SMILES>  (39) 
CSc1ccccc1[N-]S(=O)(=O)c1cccc([N-]C(=O)c2cccc(C(F)(F)F)c2)c1

>  <Energy>  (39) 
53.68388363243218

>  <Genealogy>  (39) 
CSc1ccccc1[N-]S(=O)(=O)c1cccc([N-]C(=O)c2cccc(C(F)(F)F)c2)c1 (protonated)
CSc1ccccc1[N-]S(=O)(=O)c1cccc([N-]C(=O)c2cccc(C(F)(F)F)c2)c1 (3D coordinates assigned)
CSc1ccccc1[N-]S(=O)(=O)c1cccc([N-]C(=O)c2cccc(C(F)(F)F)c2)c1 (optimized conformer: 53.68388363243218 kcal/mol)

>  <smiles>  (39) 
CSc1ccccc1NS(=O)(=O)c1cccc(NC(=O)c2cccc(C(F)(F)F)c2)c1

>  <score_type>  (39) 
oracle

>  <origin>  (39) 
adgpu

>  <m_score__min__energy>  (39) 
-11.289999999999999

>  <m_primary>  (39) 
energy

$$$$
39:0
     RDKit          3D

 41 43  0  0  0  0  0  0  0  0999 V2000
   -8.7470   18.9200  -32.1570 C   0  0  0  0  0  0  0  0  0  0  0  0
   -8.6680   20.2680  -32.6060 O   0  0  0  0  0  0  0  0  0  0  0  0
   -7.8820   21.2590  -32.0020 C   0  0  0  0  0  0  0  0  0  0  0  0
   -8.2660   21.9070  -30.8110 C   0  0  0  0  0  0  0  0  0  0  0  0
   -7.4440   22.8870  -30.2470 C   0  0  0  0  0  0  0  0  0  0  0  0
   -6.2320   23.2320  -30.8610 C   0  0  0  0  0  0  0  0  0  0  0  0
   -5.1660   24.4280  -30.1370 S   0  0  0  0  0  0  0  0  0  0  0  0
   -5.8980   25.2370  -29.1030 O   0  0  0  0  0  0  0  0  0  0  0  0
   -4.6700   25.3580  -31.2080 O   0  0  0  0  0  0  0  0  0  0  0  0
   -3.8120   23.6100  -29.3710 C   0  0  0  0  0  0  0  0  0  0  0  0
   -3.4240   23.6510  -28.0360 C   0  0  0  0  0  0  0  0  0  0  0  0
   -4.2380   24.5640  -26.7260 S   0  0  0  0  0  0  0  0  0  0  0  0
   -2.6890   25.3000  -26.1150 C   0  0  0  0  0  0  0  0  0  0  0  0
   -2.3210   22.8880  -27.8420 N   0  0  0  0  0  0  0  0  0  0  0  0
   -2.0140   22.3650  -29.0190 N   0  0  0  0  0  0  0  0  0  0  0  0
   -0.9870   21.5230  -29.3060 C   0  0  0  0  0  0  0  0  0  0  0  0
   -0.0500   21.0500  -28.2340 C   0  0  0  0  0  0  0  0  0  0  0  0
   -0.8700   21.0670  -30.6310 C   0  0  0  0  0  0  0  0  0  0  0  0
   -1.7970   21.5170  -31.5960 C   0  0  0  0  0  0  0  0  0  0  0  0
   -1.7000   21.0410  -33.0100 C   0  0  0  0  0  0  0  0  0  0  0  0
   -2.8030   22.3690  -31.2370 N   0  0  0  0  0  0  0  0  0  0  0  0
   -2.8860   22.7760  -29.9470 C   0  0  0  0  0  0  0  0  0  0  0  0
   -5.8490   22.5900  -32.0440 C   0  0  0  0  0  0  0  0  0  0  0  0
   -6.6710   21.6110  -32.6100 C   0  0  0  0  0  0  0  0  0  0  0  0
   -8.7482   18.8993  -31.0572 H   0  0  0  0  0  0  0  0  0  0  0  0
   -9.6735   18.4619  -32.5334 H   0  0  0  0  0  0  0  0  0  0  0  0
   -7.8803   18.3568  -32.5334 H   0  0  0  0  0  0  0  0  0  0  0  0
   -9.2155   21.6408  -30.3236 H   0  0  0  0  0  0  0  0  0  0  0  0
   -7.7496   23.3895  -29.3174 H   0  0  0  0  0  0  0  0  0  0  0  0
   -2.6914   25.2989  -25.0150 H   0  0  0  0  0  0  0  0  0  0  0  0
   -1.8344   24.7117  -26.4804 H   0  0  0  0  0  0  0  0  0  0  0  0
   -2.6053   26.3341  -26.4804 H   0  0  0  0  0  0  0  0  0  0  0  0
   -0.4825   21.2683  -27.2465 H   0  0  0  0  0  0  0  0  0  0  0  0
    0.1050   19.9657  -28.3348 H   0  0  0  0  0  0  0  0  0  0  0  0
    0.9145   21.5692  -28.3348 H   0  0  0  0  0  0  0  0  0  0  0  0
   -0.0673   20.3693  -30.9117 H   0  0  0  0  0  0  0  0  0  0  0  0
   -1.4804   19.9632  -33.0198 H   0  0  0  0  0  0  0  0  0  0  0  0
   -2.6542   21.2255  -33.5253 H   0  0  0  0  0  0  0  0  0  0  0  0
   -0.8941   21.5841  -33.5253 H   0  0  0  0  0  0  0  0  0  0  0  0
   -4.8987   22.8563  -32.5298 H   0  0  0  0  0  0  0  0  0  0  0  0
   -6.3636   21.1128  -33.5413 H   0  0  0  0  0  0  0  0  0  0  0  0
  1  2  1  0
  2  3  1  0
  3  4  2  0
  4  5  1  0
  5  6  2  0
  6  7  1  0
  7  8  2  0
  7  9  2  0
  7 10  1  0
 10 11  1  0
 11 12  1  0
 12 13  1  0
 11 14  2  0
 14 15  1  0
 15 16  1  0
 16 17  1  0
 16 18  2  0
 18 19  1  0
 19 20  1  0
 19 21  2  0
 21 22  1  0
  6 23  1  0
 23 24  2  0
 24  3  1  0
 22 10  2  0
 22 15  1  0
  1 25  1  0
  1 26  1  0
  1 27  1  0
  4 28  1  0
  5 29  1  0
 13 30  1  0
 13 31  1  0
 13 32  1  0
 17 33  1  0
 17 34  1  0
 17 35  1  0
 18 36  1  0
 20 37  1  0
 20 38  1  0
 20 39  1  0
 23 40  1  0
 24 41  1  0
M  END
>  <UniqueID>  (40) 
39

>  <SMILES>  (40) 
COc1ccc(S(=O)(=O)c2c(SC)nn3c(C)cc(C)nc23)cc1

>  <Energy>  (40) 
74.66990895818729

>  <Genealogy>  (40) 
COc1ccc(S(=O)(=O)c2c(SC)nn3c(C)cc(C)nc23)cc1 (3D coordinates assigned)
COc1ccc(S(=O)(=O)c2c(SC)nn3c(C)cc(C)nc23)cc1 (optimized conformer: 74.66990895818729 kcal/mol)

>  <smiles>  (40) 
COc1ccc(S(=O)(=O)c2c(SC)nn3c(C)cc(C)nc23)cc1

>  <score_type>  (40) 
oracle

>  <origin>  (40) 
adgpu

>  <m_score__min__energy>  (40) 
-9.1799999999999997

>  <m_primary>  (40) 
energy

$$$$
40:0
     RDKit          3D

 24 25  0  0  0  0  0  0  0  0999 V2000
   -5.9883   23.7381  -28.8109 H   0  0  0  0  0  0  0  0  0  0  0  0
   -5.1950   23.3490  -29.4660 C   0  0  0  0  0  0  0  0  0  0  0  0
   -5.5500   22.6460  -30.5040 N   0  0  0  0  0  0  0  0  0  0  0  0
   -4.6940   21.9160  -31.3980 C   0  0  0  0  0  0  0  0  0  0  0  0
   -3.3490   22.2830  -31.5970 C   0  0  0  0  0  0  0  0  0  0  0  0
   -2.9379   23.1629  -31.0805 H   0  0  0  0  0  0  0  0  0  0  0  0
   -2.5350   21.5310  -32.4500 C   0  0  0  0  0  0  0  0  0  0  0  0
   -1.4896   21.8303  -32.6157 H   0  0  0  0  0  0  0  0  0  0  0  0
   -3.0460   20.4010  -33.0920 C   0  0  0  0  0  0  0  0  0  0  0  0
   -2.4064   19.8175  -33.7705 H   0  0  0  0  0  0  0  0  0  0  0  0
   -4.3720   20.0110  -32.8720 C   0  0  0  0  0  0  0  0  0  0  0  0
   -5.0650   18.4540  -33.7330 Br  0  0  0  0  0  0  0  0  0  0  0  0
   -5.1880   20.7610  -32.0190 C   0  0  0  0  0  0  0  0  0  0  0  0
   -6.2244   20.4421  -31.8343 H   0  0  0  0  0  0  0  0  0  0  0  0
   -3.7890   23.6570  -29.1130 C   0  0  0  0  0  0  0  0  0  0  0  0
   -3.1720   24.8040  -29.6330 C   0  0  0  0  0  0  0  0  0  0  0  0
   -3.8800   25.6710  -30.4590 O   0  0  0  0  0  0  0  0  0  0  0  0
   -1.8770   25.0820  -29.3220 N   0  0  0  0  0  0  0  0  0  0  0  0
   -1.4320   25.9460  -29.7050 H   0  0  0  0  0  0  0  0  0  0  0  0
   -1.1590   24.2530  -28.5180 C   0  0  0  0  0  0  0  0  0  0  0  0
    0.0370   24.5270  -28.2330 O   0  0  0  0  0  0  0  0  0  0  0  0
   -1.7260   23.1230  -28.0270 N   0  0  0  0  0  0  0  0  0  0  0  0
   -3.0140   22.8010  -28.3100 C   0  0  0  0  0  0  0  0  0  0  0  0
   -3.4920   21.7230  -27.8660 O   0  0  0  0  0  0  0  0  0  0  0  0
  1  2  1  0
  2  3  2  0
  3  4  1  0
  4  5  2  0
  5  6  1  0
  5  7  1  0
  7  8  1  0
  7  9  2  0
  9 10  1  0
  9 11  1  0
 11 12  1  0
 11 13  2  0
 13 14  1  0
  2 15  1  0
 15 16  2  0
 16 17  1  0
 16 18  1  0
 18 19  1  0
 18 20  1  0
 20 21  2  0
 20 22  1  0
 22 23  1  0
 23 24  2  0
 13  4  1  0
 23 15  1  0
M  CHG  2  17  -1  22  -1
M  END
>  <UniqueID>  (41) 
40

>  <SMILES>  (41) 
O=c1[n-]c(=O)c(/C=N\c2cccc(Br)c2)c([O-])[nH]1

>  <Energy>  (41) 
38.958094366521586

>  <Genealogy>  (41) 
O=c1[n-]c(=O)c(C=Nc2cccc(Br)c2)c([O-])[nH]1 (protonated)
O=c1[n-]c(=O)c(/C=N\c2cccc(Br)c2)c([O-])[nH]1 (cis-trans isomerization)
O=c1[n-]c(=O)c(/C=N\c2cccc(Br)c2)c([O-])[nH]1 (3D coordinates assigned)
O=c1[n-]c(=O)c(/C=N\c2cccc(Br)c2)c([O-])[nH]1 (optimized conformer: 38.958094366521586 kcal/mol)

>  <smiles>  (41) 
O=c1[nH]c(O)c(C=Nc2cccc(Br)c2)c(=O)[nH]1

>  <score_type>  (41) 
oracle

>  <origin>  (41) 
adgpu

>  <m_score__min__energy>  (41) 
-11.130000000000001

>  <m_primary>  (41) 
energy

$$$$
41:0
     RDKit          3D

 43 45  0  0  0  0  0  0  0  0999 V2000
   -1.1560   26.4250  -29.3420 O   0  0  0  0  0  0  0  0  0  0  0  0
   -1.2230   26.4420  -27.9530 C   0  0  0  0  0  0  0  0  0  0  0  0
   -0.4860   27.4030  -27.2510 C   0  0  0  0  0  0  0  0  0  0  0  0
   -0.5200   27.4360  -25.8550 C   0  0  0  0  0  0  0  0  0  0  0  0
   -1.2860   26.5040  -25.1510 C   0  0  0  0  0  0  0  0  0  0  0  0
   -1.3040   26.5430  -23.7580 O   0  0  0  0  0  0  0  0  0  0  0  0
   -2.0260   25.5400  -25.8470 C   0  0  0  0  0  0  0  0  0  0  0  0
   -2.0150   25.5090  -27.2540 C   0  0  0  0  0  0  0  0  0  0  0  0
   -2.8110   24.4520  -27.9810 C   0  0  0  0  0  0  0  0  0  0  0  0
   -3.2550   24.9400  -29.2890 N   0  0  0  0  0  0  0  0  0  0  0  0
   -4.4270   24.4670  -29.9800 C   0  0  0  0  0  0  0  0  0  0  0  0
   -4.2980   23.4280  -30.9150 C   0  0  0  0  0  0  0  0  0  0  0  0
   -5.4170   22.9450  -31.6000 C   0  0  0  0  0  0  0  0  0  0  0  0
   -6.6780   23.5130  -31.3800 C   0  0  0  0  0  0  0  0  0  0  0  0
   -8.1210   22.8570  -32.2300 S   0  0  0  0  0  0  0  0  0  0  0  0
   -7.8280   21.0560  -31.9770 C   0  0  0  0  0  0  0  0  0  0  0  0
   -9.1290   20.2630  -31.7630 C   0  0  0  0  0  0  0  0  0  0  0  0
   -8.8890   18.7510  -31.9430 C   0  0  0  0  0  0  0  0  0  0  0  0
   -7.5350   18.4180  -31.7010 O   0  0  0  0  0  0  0  0  0  0  0  0
   -6.7090   18.9220  -32.7410 C   0  0  0  0  0  0  0  0  0  0  0  0
   -6.9780   20.4080  -33.0770 C   0  0  0  0  0  0  0  0  0  0  0  0
   -6.8190   24.5300  -30.4300 C   0  0  0  0  0  0  0  0  0  0  0  0
   -5.7030   25.0150  -29.7440 C   0  0  0  0  0  0  0  0  0  0  0  0
    0.1227   28.1356  -27.8013 H   0  0  0  0  0  0  0  0  0  0  0  0
    0.0572   28.1970  -25.3093 H   0  0  0  0  0  0  0  0  0  0  0  0
   -1.9220   27.1680  -23.2530 H   0  0  0  0  0  0  0  0  0  0  0  0
   -2.6205   24.8012  -25.2896 H   0  0  0  0  0  0  0  0  0  0  0  0
   -2.1814   23.5613  -28.1235 H   0  0  0  0  0  0  0  0  0  0  0  0
   -3.6974   24.2032  -27.3790 H   0  0  0  0  0  0  0  0  0  0  0  0
   -2.6560   25.6580  -29.7570 H   0  0  0  0  0  0  0  0  0  0  0  0
   -3.3080   22.9901  -31.1104 H   0  0  0  0  0  0  0  0  0  0  0  0
   -5.3065   22.1158  -32.3143 H   0  0  0  0  0  0  0  0  0  0  0  0
   -7.2426   21.0043  -31.0472 H   0  0  0  0  0  0  0  0  0  0  0  0
   -9.5009   20.4497  -30.7448 H   0  0  0  0  0  0  0  0  0  0  0  0
   -9.8674   20.5923  -32.5088 H   0  0  0  0  0  0  0  0  0  0  0  0
   -9.5265   18.1994  -31.2364 H   0  0  0  0  0  0  0  0  0  0  0  0
   -9.1359   18.4789  -32.9798 H   0  0  0  0  0  0  0  0  0  0  0  0
   -5.6583   18.8196  -32.4318 H   0  0  0  0  0  0  0  0  0  0  0  0
   -6.9361   18.3393  -33.6459 H   0  0  0  0  0  0  0  0  0  0  0  0
   -6.0193   20.9415  -33.1567 H   0  0  0  0  0  0  0  0  0  0  0  0
   -7.5219   20.4667  -34.0313 H   0  0  0  0  0  0  0  0  0  0  0  0
   -7.8141   24.9501  -30.2220 H   0  0  0  0  0  0  0  0  0  0  0  0
   -5.8214   25.8301  -29.0148 H   0  0  0  0  0  0  0  0  0  0  0  0
  1  2  1  0
  2  3  2  0
  3  4  1  0
  4  5  2  0
  5  6  1  0
  5  7  1  0
  7  8  2  0
  8  9  1  0
  9 10  1  0
 10 11  1  0
 11 12  2  0
 12 13  1  0
 13 14  2  0
 14 15  1  0
 15 16  1  0
 16 17  1  0
 17 18  1  0
 18 19  1  0
 19 20  1  0
 20 21  1  0
 14 22  1  0
 22 23  2  0
  8  2  1  0
 23 11  1  0
 21 16  1  0
  3 24  1  0
  4 25  1  0
  6 26  1  0
  7 27  1  0
  9 28  1  0
  9 29  1  0
 10 30  1  0
 12 31  1  0
 13 32  1  0
 16 33  1  0
 17 34  1  0
 17 35  1  0
 18 36  1  0
 18 37  1  0
 20 38  1  0
 20 39  1  0
 21 40  1  0
 21 41  1  0
 22 42  1  0
 23 43  1  0
M  CHG  1   1  -1
M  END
>  <UniqueID>  (42) 
41

>  <SMILES>  (42) 
[O-]c1ccc(O)cc1CNc1ccc(SC2CCOCC2)cc1

>  <Energy>  (42) 
49.48926055763282

>  <Genealogy>  (42) 
[O-]c1ccc(O)cc1CNc1ccc(SC2CCOCC2)cc1 (protonated)
[O-]c1ccc(O)cc1CNc1ccc(SC2CCOCC2)cc1 (3D coordinates assigned)
[O-]c1ccc(O)cc1CNc1ccc(SC2CCOCC2)cc1 (nonaromatic ring conformer: 49.48926055763282 kcal/mol)

>  <smiles>  (42) 
Oc1ccc(O)c(CNc2ccc(SC3CCOCC3)cc2)c1

>  <score_type>  (42) 
oracle

>  <origin>  (42) 
adgpu

>  <m_score__min__energy>  (42) 
-12.140000000000001

>  <m_primary>  (42) 
energy

$$$$
42:0
     RDKit          3D

 39 41  0  0  0  0  0  0  0  0999 V2000
   -3.0590   24.1600  -29.6050 C   0  0  0  0  0  0  0  0  0  0  0  0
   -3.7580   24.1500  -30.8450 O   0  0  0  0  0  0  0  0  0  0  0  0
   -4.8520   23.3200  -31.1370 C   0  0  0  0  0  0  0  0  0  0  0  0
   -6.1280   23.8410  -31.4290 C   0  0  0  0  0  0  0  0  0  0  0  0
   -7.1930   22.9840  -31.7150 C   0  0  0  0  0  0  0  0  0  0  0  0
   -8.4240   23.4970  -31.9760 N   0  0  0  0  0  0  0  0  0  0  0  0
   -9.4780   22.6860  -32.2450 C   0  0  0  0  0  0  0  0  0  0  0  0
   -9.3140   21.3380  -32.2650 N   0  0  0  0  0  0  0  0  0  0  0  0
   -8.1040   20.7680  -32.0210 C   0  0  0  0  0  0  0  0  0  0  0  0
   -7.9870   19.3370  -32.0610 N   0  0  0  0  0  0  0  0  0  0  0  0
   -8.8880   18.5460  -31.2170 C   0  0  0  0  0  0  0  0  0  0  0  0
   -6.8620   18.7280  -32.7350 C   0  0  0  0  0  0  0  0  0  0  0  0
   -6.2040   17.6230  -32.1610 C   0  0  0  0  0  0  0  0  0  0  0  0
   -5.1120   17.0320  -32.8040 C   0  0  0  0  0  0  0  0  0  0  0  0
   -4.6620   17.5360  -34.0260 C   0  0  0  0  0  0  0  0  0  0  0  0
   -5.3030   18.6310  -34.6070 C   0  0  0  0  0  0  0  0  0  0  0  0
   -6.3940   19.2270  -33.9680 C   0  0  0  0  0  0  0  0  0  0  0  0
   -6.9960   21.5890  -31.7240 C   0  0  0  0  0  0  0  0  0  0  0  0
   -5.7290   21.0670  -31.4190 C   0  0  0  0  0  0  0  0  0  0  0  0
   -4.6530   21.9300  -31.1280 C   0  0  0  0  0  0  0  0  0  0  0  0
   -3.3710   21.4440  -30.8250 O   0  0  0  0  0  0  0  0  0  0  0  0
   -2.6040   20.6010  -31.6790 C   0  0  0  0  0  0  0  0  0  0  0  0
   -3.7823   24.1497  -28.7763 H   0  0  0  0  0  0  0  0  0  0  0  0
   -2.4144   23.2710  -29.5403 H   0  0  0  0  0  0  0  0  0  0  0  0
   -2.4401   25.0671  -29.5403 H   0  0  0  0  0  0  0  0  0  0  0  0
   -6.2864   24.9295  -31.4317 H   0  0  0  0  0  0  0  0  0  0  0  0
  -10.4677   23.1214  -32.4474 H   0  0  0  0  0  0  0  0  0  0  0  0
   -8.6647   18.7420  -30.1579 H   0  0  0  0  0  0  0  0  0  0  0  0
   -9.9302   18.8262  -31.4300 H   0  0  0  0  0  0  0  0  0  0  0  0
   -8.7451   17.4763  -31.4300 H   0  0  0  0  0  0  0  0  0  0  0  0
   -6.5523   17.2212  -31.1981 H   0  0  0  0  0  0  0  0  0  0  0  0
   -4.6067   16.1687  -32.3465 H   0  0  0  0  0  0  0  0  0  0  0  0
   -3.8026   17.0701  -34.5305 H   0  0  0  0  0  0  0  0  0  0  0  0
   -4.9487   19.0262  -35.5705 H   0  0  0  0  0  0  0  0  0  0  0  0
   -6.8914   20.0922  -34.4307 H   0  0  0  0  0  0  0  0  0  0  0  0
   -5.5749   19.9779  -31.4070 H   0  0  0  0  0  0  0  0  0  0  0  0
   -1.9880   19.9240  -31.0689 H   0  0  0  0  0  0  0  0  0  0  0  0
   -3.2801   20.0095  -32.3138 H   0  0  0  0  0  0  0  0  0  0  0  0
   -1.9515   21.2184  -32.3138 H   0  0  0  0  0  0  0  0  0  0  0  0
  1  2  1  0
  2  3  1  0
  3  4  2  0
  4  5  1  0
  5  6  2  0
  6  7  1  0
  7  8  2  0
  8  9  1  0
  9 10  1  0
 10 11  1  0
 10 12  1  0
 12 13  2  0
 13 14  1  0
 14 15  2  0
 15 16  1  0
 16 17  2  0
  9 18  2  0
 18 19  1  0
 19 20  2  0
 20 21  1  0
 21 22  1  0
 20  3  1  0
 18  5  1  0
 17 12  1  0
  1 23  1  0
  1 24  1  0
  1 25  1  0
  4 26  1  0
  7 27  1  0
 11 28  1  0
 11 29  1  0
 11 30  1  0
 13 31  1  0
 14 32  1  0
 15 33  1  0
 16 34  1  0
 17 35  1  0
 19 36  1  0
 22 37  1  0
 22 38  1  0
 22 39  1  0
M  END
>  <UniqueID>  (43) 
42

>  <SMILES>  (43) 
COc1cc2ncnc(N(C)c3ccccc3)c2cc1OC

>  <Energy>  (43) 
53.85055199078599

>  <Genealogy>  (43) 
COc1cc2ncnc(N(C)c3ccccc3)c2cc1OC (3D coordinates assigned)
COc1cc2ncnc(N(C)c3ccccc3)c2cc1OC (optimized conformer: 53.85055199078599 kcal/mol)

>  <smiles>  (43) 
COc1cc2ncnc(N(C)c3ccccc3)c2cc1OC

>  <score_type>  (43) 
oracle

>  <origin>  (43) 
adgpu

>  <m_score__min__energy>  (43) 
-7.0099999999999998

>  <m_primary>  (43) 
energy

$$$$
43:0
     RDKit          3D

 46 48  0  0  0  0  0  0  0  0999 V2000
   -2.9600   20.3370  -27.8550 C   0  0  0  0  0  0  0  0  0  0  0  0
   -2.6380   21.7560  -28.2180 C   0  0  0  0  0  0  0  0  0  0  0  0
   -1.4930   22.3760  -27.7000 C   0  0  0  0  0  0  0  0  0  0  0  0
   -1.1750   23.6840  -28.0680 C   0  0  0  0  0  0  0  0  0  0  0  0
   -1.9810   24.3800  -28.9740 C   0  0  0  0  0  0  0  0  0  0  0  0
   -1.6270   25.6750  -29.3380 O   0  0  0  0  0  0  0  0  0  0  0  0
   -3.1220   23.7620  -29.5240 C   0  0  0  0  0  0  0  0  0  0  0  0
   -3.9790   24.4750  -30.5040 C   0  0  0  0  0  0  0  0  0  0  0  0
   -4.2200   25.7000  -30.3390 O   0  0  0  0  0  0  0  0  0  0  0  0
   -4.5940   23.7980  -31.6100 N   0  0  0  0  0  0  0  0  0  0  0  0
   -5.6880   22.8720  -31.5390 C   0  0  0  0  0  0  0  0  0  0  0  0
   -6.9510   23.3440  -31.1610 C   0  0  0  0  0  0  0  0  0  0  0  0
   -8.0370   22.4680  -31.0830 C   0  0  0  0  0  0  0  0  0  0  0  0
   -7.8700   21.1160  -31.3890 C   0  0  0  0  0  0  0  0  0  0  0  0
   -6.6180   20.6340  -31.7860 C   0  0  0  0  0  0  0  0  0  0  0  0
   -6.4270   18.9300  -32.1900 S   0  0  0  0  0  0  0  0  0  0  0  0
   -7.7810   18.3750  -32.5330 O   0  0  0  0  0  0  0  0  0  0  0  0
   -5.8710   18.1690  -31.0190 O   0  0  0  0  0  0  0  0  0  0  0  0
   -5.3490   18.7670  -33.5480 N   0  0  0  0  0  0  0  0  0  0  0  0
   -5.9010   18.4180  -34.8570 C   0  0  0  0  0  0  0  0  0  0  0  0
   -3.9370   19.0070  -33.3950 C   0  0  0  0  0  0  0  0  0  0  0  0
   -3.4100   20.3010  -33.5630 C   0  0  0  0  0  0  0  0  0  0  0  0
   -2.0380   20.5300  -33.4220 C   0  0  0  0  0  0  0  0  0  0  0  0
   -1.1780   19.4730  -33.1170 C   0  0  0  0  0  0  0  0  0  0  0  0
   -1.6890   18.1840  -32.9540 C   0  0  0  0  0  0  0  0  0  0  0  0
   -3.0590   17.9480  -33.0940 C   0  0  0  0  0  0  0  0  0  0  0  0
   -5.5330   21.5160  -31.8810 C   0  0  0  0  0  0  0  0  0  0  0  0
   -3.4450   22.4500  -29.1320 C   0  0  0  0  0  0  0  0  0  0  0  0
   -2.9832   20.2349  -26.7600 H   0  0  0  0  0  0  0  0  0  0  0  0
   -3.9424   20.0664  -28.2694 H   0  0  0  0  0  0  0  0  0  0  0  0
   -2.1906   19.6689  -28.2694 H   0  0  0  0  0  0  0  0  0  0  0  0
   -0.8427   21.8298  -27.0009 H   0  0  0  0  0  0  0  0  0  0  0  0
   -0.2848   24.1704  -27.6427 H   0  0  0  0  0  0  0  0  0  0  0  0
   -7.0890   24.4093  -30.9243 H   0  0  0  0  0  0  0  0  0  0  0  0
   -9.0252   22.8443  -30.7800 H   0  0  0  0  0  0  0  0  0  0  0  0
   -8.7252   20.4279  -31.3177 H   0  0  0  0  0  0  0  0  0  0  0  0
   -6.8237   17.8346  -34.7221 H   0  0  0  0  0  0  0  0  0  0  0  0
   -6.1271   19.3376  -35.4166 H   0  0  0  0  0  0  0  0  0  0  0  0
   -5.1672   17.8193  -35.4166 H   0  0  0  0  0  0  0  0  0  0  0  0
   -4.0816   21.1374  -33.8067 H   0  0  0  0  0  0  0  0  0  0  0  0
   -1.6350   21.5453  -33.5516 H   0  0  0  0  0  0  0  0  0  0  0  0
   -0.0991   19.6557  -33.0053 H   0  0  0  0  0  0  0  0  0  0  0  0
   -1.0109   17.3516  -32.7146 H   0  0  0  0  0  0  0  0  0  0  0  0
   -3.4540   16.9291  -32.9684 H   0  0  0  0  0  0  0  0  0  0  0  0
   -4.5556   21.1464  -32.2246 H   0  0  0  0  0  0  0  0  0  0  0  0
   -4.3400   21.9631  -29.5466 H   0  0  0  0  0  0  0  0  0  0  0  0
  1  2  1  0
  2  3  2  0
  3  4  1  0
  4  5  2  0
  5  6  1  0
  5  7  1  0
  7  8  1  0
  8  9  2  0
  8 10  1  0
 10 11  1  0
 11 12  2  0
 12 13  1  0
 13 14  2  0
 14 15  1  0
 15 16  1  0
 16 17  2  0
 16 18  2  0
 16 19  1  0
 19 20  1  0
 19 21  1  0
 21 22  2  0
 22 23  1  0
 23 24  2  0
 24 25  1  0
 25 26  2  0
 15 27  2  0
  7 28  2  0
 28  2  1  0
 27 11  1  0
 26 21  1  0
  1 29  1  0
  1 30  1  0
  1 31  1  0
  3 32  1  0
  4 33  1  0
 12 34  1  0
 13 35  1  0
 14 36  1  0
 20 37  1  0
 20 38  1  0
 20 39  1  0
 22 40  1  0
 23 41  1  0
 24 42  1  0
 25 43  1  0
 26 44  1  0
 27 45  1  0
 28 46  1  0
M  CHG  2   6  -1  10  -1
M  END
>  <UniqueID>  (44) 
43

>  <SMILES>  (44) 
Cc1ccc([O-])c(C(=O)[N-]c2cccc(S(=O)(=O)N(C)c3ccccc3)c2)c1

>  <Energy>  (44) 
59.583407728327444

>  <Genealogy>  (44) 
Cc1ccc([O-])c(C(=O)[N-]c2cccc(S(=O)(=O)N(C)c3ccccc3)c2)c1 (protonated)
Cc1ccc([O-])c(C(=O)[N-]c2cccc(S(=O)(=O)N(C)c3ccccc3)c2)c1 (3D coordinates assigned)
Cc1ccc([O-])c(C(=O)[N-]c2cccc(S(=O)(=O)N(C)c3ccccc3)c2)c1 (optimized conformer: 59.583407728327444 kcal/mol)

>  <smiles>  (44) 
Cc1ccc(O)c(C(=O)Nc2cccc(S(=O)(=O)N(C)c3ccccc3)c2)c1

>  <score_type>  (44) 
oracle

>  <origin>  (44) 
adgpu

>  <m_score__min__energy>  (44) 
-13.800000000000001

>  <m_primary>  (44) 
energy

$$$$
44:0
     RDKit          3D

 48 51  0  0  0  0  0  0  0  0999 V2000
   -2.6240   19.5620  -26.9200 C   0  0  0  0  0  0  0  0  0  0  0  0
   -1.5350   20.5830  -27.2310 C   0  0  0  0  0  0  0  0  0  0  0  0
   -2.0760   21.6960  -28.0870 C   0  0  0  0  0  0  0  0  0  0  0  0
   -2.8180   22.7380  -27.5090 C   0  0  0  0  0  0  0  0  0  0  0  0
   -3.2950   23.7880  -28.3000 C   0  0  0  0  0  0  0  0  0  0  0  0
   -3.0410   23.8090  -29.6770 C   0  0  0  0  0  0  0  0  0  0  0  0
   -3.5340   24.9090  -30.4560 N   0  0  0  0  0  0  0  0  0  0  0  0
   -4.8980   25.1270  -30.8420 C   0  0  0  0  0  0  0  0  0  0  0  0
   -5.3490   26.3020  -30.8210 O   0  0  0  0  0  0  0  0  0  0  0  0
   -5.7980   24.0080  -31.2090 C   0  0  0  0  0  0  0  0  0  0  0  0
   -7.1870   24.1100  -31.0210 C   0  0  0  0  0  0  0  0  0  0  0  0
   -8.0280   23.0530  -31.3760 C   0  0  0  0  0  0  0  0  0  0  0  0
   -7.4940   21.8870  -31.9270 C   0  0  0  0  0  0  0  0  0  0  0  0
   -6.1110   21.7680  -32.1260 C   0  0  0  0  0  0  0  0  0  0  0  0
   -5.5630   20.5720  -32.7030 N   0  0  0  0  0  0  0  0  0  0  0  0
   -6.1810   19.3720  -32.7970 C   0  0  0  0  0  0  0  0  0  0  0  0
   -7.4640   19.1110  -32.3300 O   0  0  0  0  0  0  0  0  0  0  0  0
   -5.3660   18.4580  -33.4360 C   0  0  0  0  0  0  0  0  0  0  0  0
   -4.2060   19.1200  -33.7470 C   0  0  0  0  0  0  0  0  0  0  0  0
   -4.3470   20.4110  -33.2800 C   0  0  0  0  0  0  0  0  0  0  0  0
   -3.3590   21.3930  -33.3540 O   0  0  0  0  0  0  0  0  0  0  0  0
   -3.0340   18.4840  -34.4220 C   0  0  0  0  0  0  0  0  0  0  0  0
   -3.3140   17.0410  -34.7920 C   0  0  0  0  0  0  0  0  0  0  0  0
   -4.4620   16.3920  -34.4930 C   0  0  0  0  0  0  0  0  0  0  0  0
   -5.6250   17.0210  -33.7520 C   0  0  0  0  0  0  0  0  0  0  0  0
   -5.2690   22.8370  -31.7790 C   0  0  0  0  0  0  0  0  0  0  0  0
   -2.2650   22.7860  -30.2510 C   0  0  0  0  0  0  0  0  0  0  0  0
   -1.7890   21.7360  -29.4610 C   0  0  0  0  0  0  0  0  0  0  0  0
   -2.7316   19.4612  -25.8299 H   0  0  0  0  0  0  0  0  0  0  0  0
   -3.5773   19.8994  -27.3529 H   0  0  0  0  0  0  0  0  0  0  0  0
   -2.3487   18.5889  -27.3529 H   0  0  0  0  0  0  0  0  0  0  0  0
   -1.1558   21.0045  -26.2884 H   0  0  0  0  0  0  0  0  0  0  0  0
   -0.7245   20.0791  -27.7780 H   0  0  0  0  0  0  0  0  0  0  0  0
   -3.0252   22.7286  -26.4287 H   0  0  0  0  0  0  0  0  0  0  0  0
   -3.8729   24.6020  -27.8380 H   0  0  0  0  0  0  0  0  0  0  0  0
   -7.6145   25.0281  -30.5916 H   0  0  0  0  0  0  0  0  0  0  0  0
   -9.1136   23.1396  -31.2210 H   0  0  0  0  0  0  0  0  0  0  0  0
   -8.1608   21.0580  -32.2063 H   0  0  0  0  0  0  0  0  0  0  0  0
   -2.9960   21.7190  -34.2400 H   0  0  0  0  0  0  0  0  0  0  0  0
   -2.8009   19.0477  -35.3373 H   0  0  0  0  0  0  0  0  0  0  0  0
   -2.1856   18.4996  -33.7220 H   0  0  0  0  0  0  0  0  0  0  0  0
   -2.5353   16.4876  -35.3374 H   0  0  0  0  0  0  0  0  0  0  0  0
   -4.5578   15.3422  -34.8071 H   0  0  0  0  0  0  0  0  0  0  0  0
   -6.5267   16.9505  -34.3780 H   0  0  0  0  0  0  0  0  0  0  0  0
   -5.7605   16.4802  -32.8038 H   0  0  0  0  0  0  0  0  0  0  0  0
   -4.1861   22.7573  -31.9548 H   0  0  0  0  0  0  0  0  0  0  0  0
   -2.0319   22.8125  -31.3257 H   0  0  0  0  0  0  0  0  0  0  0  0
   -1.1866   20.9370  -29.9178 H   0  0  0  0  0  0  0  0  0  0  0  0
  1  2  1  0
  2  3  1  0
  3  4  2  0
  4  5  1  0
  5  6  2  0
  6  7  1  0
  7  8  1  0
  8  9  2  0
  8 10  1  0
 10 11  2  0
 11 12  1  0
 12 13  2  0
 13 14  1  0
 14 15  1  0
 15 16  1  0
 16 17  1  0
 16 18  2  0
 18 19  1  0
 19 20  2  0
 20 21  1  0
 19 22  1  0
 22 23  1  0
 23 24  2  0
 24 25  1  0
 14 26  2  0
  6 27  1  0
 27 28  2  0
 28  3  1  0
 26 10  1  0
 20 15  1  0
 25 18  1  0
  1 29  1  0
  1 30  1  0
  1 31  1  0
  2 32  1  0
  2 33  1  0
  4 34  1  0
  5 35  1  0
 11 36  1  0
 12 37  1  0
 13 38  1  0
 21 39  1  0
 22 40  1  0
 22 41  1  0
 23 42  1  0
 24 43  1  0
 25 44  1  0
 25 45  1  0
 26 46  1  0
 27 47  1  0
 28 48  1  0
M  CHG  2   7  -1  17  -1
M  END
>  <UniqueID>  (45) 
44

>  <SMILES>  (45) 
CCc1ccc([N-]C(=O)c2cccc(-n3c([O-])c4c(c3O)CC=CC4)c2)cc1

>  <Energy>  (45) 
93.22352616956843

>  <Genealogy>  (45) 
CCc1ccc([N-]C(=O)c2cccc(-n3c([O-])c4c(c3O)CC=CC4)c2)cc1 (protonated)
CCc1ccc([N-]C(=O)c2cccc(-n3c([O-])c4c(c3O)CC=CC4)c2)cc1 (3D coordinates assigned)
CCc1ccc([N-]C(=O)c2cccc(-n3c([O-])c4c(c3O)CC=CC4)c2)cc1 (nonaromatic ring conformer: 93.22352616956843 kcal/mol)

>  <smiles>  (45) 
CCc1ccc(NC(=O)c2cccc(-n3c(O)c4c(c3O)CC=CC4)c2)cc1

>  <score_type>  (45) 
oracle

>  <origin>  (45) 
adgpu

>  <m_score__min__energy>  (45) 
-11.57

>  <m_primary>  (45) 
energy

$$$$
45:0
     RDKit          3D

 55 58  0  0  0  0  0  0  0  0999 V2000
   -7.6640   23.2430  -32.3280 C   0  0  0  0  0  0  0  0  0  0  0  0
   -6.9740   22.3000  -31.3220 C   0  0  1  0  0  0  0  0  0  0  0  0
   -7.4370   20.8160  -31.3650 C   0  0  0  0  0  0  0  0  0  0  0  0
   -8.2310   20.2710  -32.5510 C   0  0  0  0  0  0  0  0  0  0  0  0
   -8.9480   20.6370  -31.2640 C   0  0  0  0  0  0  0  0  0  0  0  0
   -5.4970   22.3680  -31.4760 N   0  0  0  0  0  0  0  0  0  0  0  0
   -4.8610   23.4290  -30.8870 C   0  0  0  0  0  0  0  0  0  0  0  0
   -3.4890   23.5600  -30.6510 C   0  0  0  0  0  0  0  0  0  0  0  0
   -3.0440   24.8140  -30.0990 N   0  0  0  0  0  0  0  0  0  0  0  0
   -2.4930   24.9500  -28.7770 C   0  0  0  0  0  0  0  0  0  0  0  0
   -1.2160   25.5080  -28.5710 C   0  0  0  0  0  0  0  0  0  0  0  0
   -0.7020   25.6330  -27.2770 C   0  0  0  0  0  0  0  0  0  0  0  0
   -1.4590   25.2170  -26.1770 C   0  0  0  0  0  0  0  0  0  0  0  0
   -0.8120   25.3760  -24.5540 Cl  0  0  0  0  0  0  0  0  0  0  0  0
   -2.7350   24.6800  -26.3730 C   0  0  0  0  0  0  0  0  0  0  0  0
   -3.2520   24.5520  -27.6660 C   0  0  0  0  0  0  0  0  0  0  0  0
   -2.6130   22.4660  -30.6130 C   0  0  0  0  0  0  0  0  0  0  0  0
   -1.6030   22.5570  -29.8570 O   0  0  0  0  0  0  0  0  0  0  0  0
   -2.7870   21.3230  -31.3380 N   0  0  0  0  0  0  0  0  0  0  0  0
   -2.0230   20.1260  -30.9390 C   0  0  0  0  0  0  0  0  0  0  0  0
   -3.5450   21.2810  -32.4780 C   0  0  0  0  0  0  0  0  0  0  0  0
   -3.0800   20.7430  -33.5780 N   0  0  0  0  0  0  0  0  0  0  0  0
   -1.7150   20.4410  -33.9070 C   0  0  0  0  0  0  0  0  0  0  0  0
   -1.2360   19.1220  -33.8890 C   0  0  0  0  0  0  0  0  0  0  0  0
    0.1070   18.8560  -34.1660 C   0  0  0  0  0  0  0  0  0  0  0  0
    0.9920   19.9060  -34.4410 C   0  0  0  0  0  0  0  0  0  0  0  0
    2.3730   19.6020  -34.7230 C   0  0  0  0  0  0  0  0  0  0  0  0
    3.4810   19.3560  -34.9510 N   0  0  0  0  0  0  0  0  0  0  0  0
    0.5240   21.2370  -34.4250 C   0  0  0  0  0  0  0  0  0  0  0  0
    1.3700   22.3180  -34.6790 O   0  0  0  0  0  0  0  0  0  0  0  0
   -0.8240   21.4920  -34.1470 C   0  0  0  0  0  0  0  0  0  0  0  0
   -4.9080   21.6130  -32.4570 C   0  0  0  0  0  0  0  0  0  0  0  0
   -5.6250   21.1810  -33.4060 O   0  0  0  0  0  0  0  0  0  0  0  0
   -8.2277   24.0133  -31.7813 H   0  0  0  0  0  0  0  0  0  0  0  0
   -6.9035   23.7246  -32.9602 H   0  0  0  0  0  0  0  0  0  0  0  0
   -8.3531   22.6638  -32.9602 H   0  0  0  0  0  0  0  0  0  0  0  0
   -7.2865   22.6737  -30.3357 H   0  0  0  0  0  0  0  0  0  0  0  0
   -6.5307   20.4572  -30.8551 H   0  0  0  0  0  0  0  0  0  0  0  0
   -8.3678   20.8882  -33.4512 H   0  0  0  0  0  0  0  0  0  0  0  0
   -8.1711   19.3692  -33.1780 H   0  0  0  0  0  0  0  0  0  0  0  0
   -9.6047   21.5189  -31.2328 H   0  0  0  0  0  0  0  0  0  0  0  0
   -9.6227   20.1089  -30.5741 H   0  0  0  0  0  0  0  0  0  0  0  0
   -5.4973   24.2668  -30.5656 H   0  0  0  0  0  0  0  0  0  0  0  0
   -3.0900   25.6680  -30.7030 H   0  0  0  0  0  0  0  0  0  0  0  0
   -0.6209   25.8467  -29.4319 H   0  0  0  0  0  0  0  0  0  0  0  0
    0.3002   26.0596  -27.1236 H   0  0  0  0  0  0  0  0  0  0  0  0
   -3.3335   24.3575  -25.5082 H   0  0  0  0  0  0  0  0  0  0  0  0
   -4.2599   24.1367  -27.8130 H   0  0  0  0  0  0  0  0  0  0  0  0
   -1.9840   20.0649  -29.8414 H   0  0  0  0  0  0  0  0  0  0  0  0
   -2.5147   19.2270  -31.3390 H   0  0  0  0  0  0  0  0  0  0  0  0
   -1.0005   20.1934  -31.3390 H   0  0  0  0  0  0  0  0  0  0  0  0
   -1.9213   18.2938  -33.6557 H   0  0  0  0  0  0  0  0  0  0  0  0
    0.4709   17.8179  -34.1681 H   0  0  0  0  0  0  0  0  0  0  0  0
    2.3750   22.2180  -34.7640 H   0  0  0  0  0  0  0  0  0  0  0  0
   -1.1864   22.5301  -34.1170 H   0  0  0  0  0  0  0  0  0  0  0  0
  1  2  1  0
  2  3  1  0
  3  4  1  0
  4  5  1  0
  2  6  1  0
  6  7  1  0
  7  8  2  0
  8  9  1  0
  9 10  1  0
 10 11  2  0
 11 12  1  0
 12 13  2  0
 13 14  1  0
 13 15  1  0
 15 16  2  0
  8 17  1  0
 17 18  2  0
 17 19  1  0
 19 20  1  0
 19 21  1  0
 21 22  2  3
 22 23  1  0
 23 24  2  0
 24 25  1  0
 25 26  2  0
 26 27  1  0
 27 28  3  0
 26 29  1  0
 29 30  1  0
 29 31  2  0
 21 32  1  0
 32 33  2  0
  5  3  1  0
 32  6  1  0
 16 10  1  0
 31 23  1  0
  1 34  1  0
  1 35  1  0
  1 36  1  0
  2 37  1  1
  3 38  1  0
  4 39  1  0
  4 40  1  0
  5 41  1  0
  5 42  1  0
  7 43  1  0
  9 44  1  0
 11 45  1  0
 12 46  1  0
 15 47  1  0
 16 48  1  0
 20 49  1  0
 20 50  1  0
 20 51  1  0
 24 52  1  0
 25 53  1  0
 30 54  1  0
 31 55  1  0
M  END
>  <UniqueID>  (46) 
45

>  <SMILES>  (46) 
C[C@@H](C1CC1)n1cc(Nc2ccc(Cl)cc2)c(=O)n(C)c(=Nc2ccc(C#N)c(O)c2)c1=O

>  <Energy>  (46) 
389.83543262359984

>  <Genealogy>  (46) 
C[C@@H](C1CC1)n1cc(Nc2ccc(Cl)cc2)c(=O)n(C)c(=Nc2ccc(C#N)c(O)c2)c1=O (chirality)
C[C@@H](C1CC1)n1cc(Nc2ccc(Cl)cc2)c(=O)n(C)c(=Nc2ccc(C#N)c(O)c2)c1=O (3D coordinates assigned)
C[C@@H](C1CC1)n1cc(Nc2ccc(Cl)cc2)c(=O)n(C)c(=Nc2ccc(C#N)c(O)c2)c1=O (nonaromatic ring conformer: 389.83543262359984 kcal/mol)

>  <smiles>  (46) 
CC(C1CC1)n1cc(Nc2ccc(Cl)cc2)c(=O)n(C)c(=Nc2ccc(C#N)c(O)c2)c1=O

>  <score_type>  (46) 
oracle

>  <origin>  (46) 
adgpu

>  <m_score__min__energy>  (46) 
-9.0700000000000003

>  <m_primary>  (46) 
energy

$$$$
46:0
     RDKit          3D

 38 40  0  0  0  0  0  0  0  0999 V2000
   -0.7640   28.4070  -26.1070 C   0  0  0  0  0  0  0  0  0  0  0  0
   -0.2540   27.8410  -27.3480 N   0  0  0  0  0  0  0  0  0  0  0  0
   -0.6490   26.5560  -27.8360 C   0  0  0  0  0  0  0  0  0  0  0  0
   -1.2420   26.4730  -28.9470 O   0  0  0  0  0  0  0  0  0  0  0  0
   -0.3540   25.3200  -27.0610 C   0  0  0  0  0  0  0  0  0  0  0  0
   -0.7100   25.2610  -25.7000 C   0  0  0  0  0  0  0  0  0  0  0  0
   -0.4420   24.1210  -24.9430 C   0  0  0  0  0  0  0  0  0  0  0  0
    0.1710   23.0160  -25.5300 C   0  0  0  0  0  0  0  0  0  0  0  0
    0.5150   23.0370  -26.8860 C   0  0  0  0  0  0  0  0  0  0  0  0
    1.1490   21.8870  -27.4620 N   0  0  0  0  0  0  0  0  0  0  0  0
    0.5140   20.6060  -27.5180 C   0  0  0  0  0  0  0  0  0  0  0  0
   -0.7980   20.1780  -27.4550 C   0  0  0  0  0  0  0  0  0  0  0  0
   -2.0560   20.8480  -27.3140 N   0  0  0  0  0  0  0  0  0  0  0  0
   -2.4480   21.9750  -28.1120 C   0  0  0  0  0  0  0  0  0  0  0  0
   -2.0870   22.0200  -29.4670 C   0  0  0  0  0  0  0  0  0  0  0  0
   -2.4390   23.1190  -30.2560 C   0  0  0  0  0  0  0  0  0  0  0  0
   -3.1410   24.1900  -29.6940 C   0  0  0  0  0  0  0  0  0  0  0  0
   -3.4900   25.2810  -30.4790 O   0  0  0  0  0  0  0  0  0  0  0  0
   -3.4830   24.1640  -28.3390 C   0  0  0  0  0  0  0  0  0  0  0  0
   -3.1310   23.0660  -27.5470 C   0  0  0  0  0  0  0  0  0  0  0  0
   -0.3780   18.8700  -27.6310 C   0  0  0  0  0  0  0  0  0  0  0  0
   -0.9470   17.7520  -27.7240 O   0  0  0  0  0  0  0  0  0  0  0  0
    0.9320   19.2980  -27.6880 C   0  0  0  0  0  0  0  0  0  0  0  0
    2.0440   18.7290  -27.8490 O   0  0  0  0  0  0  0  0  0  0  0  0
    0.2850   24.2010  -27.6470 C   0  0  0  0  0  0  0  0  0  0  0  0
    0.7290   24.2480  -28.9650 O   0  0  0  0  0  0  0  0  0  0  0  0
   -0.3008   27.8929  -25.2519 H   0  0  0  0  0  0  0  0  0  0  0  0
   -0.5210   29.4790  -26.0658 H   0  0  0  0  0  0  0  0  0  0  0  0
   -1.8555   28.2766  -26.0658 H   0  0  0  0  0  0  0  0  0  0  0  0
   -1.2047   26.1232  -25.2290 H   0  0  0  0  0  0  0  0  0  0  0  0
   -0.7157   24.0940  -23.8779 H   0  0  0  0  0  0  0  0  0  0  0  0
    0.3855   22.1230  -24.9245 H   0  0  0  0  0  0  0  0  0  0  0  0
    2.1660   21.9370  -27.6950 H   0  0  0  0  0  0  0  0  0  0  0  0
   -2.6750   20.5490  -26.5280 H   0  0  0  0  0  0  0  0  0  0  0  0
   -1.5239   21.1859  -29.9110 H   0  0  0  0  0  0  0  0  0  0  0  0
   -2.1633   23.1414  -31.3207 H   0  0  0  0  0  0  0  0  0  0  0  0
   -4.0300   25.0086  -27.8946 H   0  0  0  0  0  0  0  0  0  0  0  0
   -3.3897   23.0563  -26.4779 H   0  0  0  0  0  0  0  0  0  0  0  0
  1  2  1  0
  2  3  1  0
  3  4  2  0
  3  5  1  0
  5  6  2  0
  6  7  1  0
  7  8  2  0
  8  9  1  0
  9 10  1  0
 10 11  1  0
 11 12  2  0
 12 13  1  0
 13 14  1  0
 14 15  2  0
 15 16  1  0
 16 17  2  0
 17 18  1  0
 17 19  1  0
 19 20  2  0
 12 21  1  0
 21 22  2  0
 21 23  1  0
 23 24  2  0
  9 25  2  0
 25 26  1  0
 25  5  1  0
 23 11  1  0
 20 14  1  0
  1 27  1  0
  1 28  1  0
  1 29  1  0
  6 30  1  0
  7 31  1  0
  8 32  1  0
 10 33  1  0
 13 34  1  0
 15 35  1  0
 16 36  1  0
 19 37  1  0
 20 38  1  0
M  CHG  3   2  -1  18  -1  26  -1
M  END
>  <UniqueID>  (47) 
46

>  <SMILES>  (47) 
C[N-]C(=O)c1cccc(Nc2c(Nc3ccc([O-])cc3)c(=O)c2=O)c1[O-]

>  <Energy>  (47) 
39.538631249990274

>  <Genealogy>  (47) 
C[N-]C(=O)c1cccc(Nc2c(Nc3ccc([O-])cc3)c(=O)c2=O)c1[O-] (protonated)
C[N-]C(=O)c1cccc(Nc2c(Nc3ccc([O-])cc3)c(=O)c2=O)c1[O-] (3D coordinates assigned)
C[N-]C(=O)c1cccc(Nc2c(Nc3ccc([O-])cc3)c(=O)c2=O)c1[O-] (optimized conformer: 39.538631249990274 kcal/mol)

>  <smiles>  (47) 
CNC(=O)c1cccc(Nc2c(Nc3ccc(O)cc3)c(=O)c2=O)c1O

>  <score_type>  (47) 
oracle

>  <origin>  (47) 
adgpu

>  <m_score__min__energy>  (47) 
-12.58

>  <m_primary>  (47) 
energy

$$$$
47:0
     RDKit          3D

 39 41  0  0  0  0  0  0  0  0999 V2000
   -3.0178   20.8370  -32.0174 H   0  0  0  0  0  0  0  0  0  0  0  0
   -3.6170   21.7050  -31.7050 C   0  0  0  0  0  0  0  0  0  0  0  0
   -4.9490   21.7420  -31.9740 N   0  0  0  0  0  0  0  0  0  0  0  0
   -5.7320   22.7930  -31.6020 C   0  0  0  0  0  0  0  0  0  0  0  0
   -7.1700   22.7720  -31.9240 C   0  0  0  0  0  0  0  0  0  0  0  0
   -7.6910   23.7790  -32.4770 O   0  0  0  0  0  0  0  0  0  0  0  0
   -7.9470   21.5900  -31.6670 N   0  0  0  0  0  0  0  0  0  0  0  0
   -7.7350   20.3820  -32.1010 C   0  0  0  0  0  0  0  0  0  0  0  0
   -8.6930   19.0750  -31.6620 S   0  0  0  0  0  0  0  0  0  0  0  0
   -7.8410   17.9830  -32.6210 C   0  0  0  0  0  0  0  0  0  0  0  0
   -8.0456   16.9064  -32.7163 H   0  0  0  0  0  0  0  0  0  0  0  0
   -6.8320   18.6870  -33.2710 C   0  0  0  0  0  0  0  0  0  0  0  0
   -5.9280   18.0630  -34.1990 C   0  0  0  0  0  0  0  0  0  0  0  0
   -5.2020   17.5600  -34.9480 N   0  0  0  0  0  0  0  0  0  0  0  0
   -6.7740   20.0170  -32.9850 N   0  0  0  0  0  0  0  0  0  0  0  0
   -6.0880   20.6560  -33.4400 H   0  0  0  0  0  0  0  0  0  0  0  0
   -5.1520   23.8770  -30.9210 C   0  0  0  0  0  0  0  0  0  0  0  0
   -5.7740   24.7263  -30.6018 H   0  0  0  0  0  0  0  0  0  0  0  0
   -3.7730   23.8700  -30.6500 C   0  0  0  0  0  0  0  0  0  0  0  0
   -3.1430   24.9180  -29.9610 O   0  0  0  0  0  0  0  0  0  0  0  0
   -2.4030   24.7870  -28.7770 C   0  0  0  0  0  0  0  0  0  0  0  0
   -0.9990   24.7150  -28.7780 C   0  0  0  0  0  0  0  0  0  0  0  0
   -0.4484   24.7659  -29.7289 H   0  0  0  0  0  0  0  0  0  0  0  0
   -0.3000   24.5790  -27.5750 C   0  0  0  0  0  0  0  0  0  0  0  0
    0.7992   24.5378  -27.5824 H   0  0  0  0  0  0  0  0  0  0  0  0
   -0.9920   24.4950  -26.3610 C   0  0  0  0  0  0  0  0  0  0  0  0
   -0.0950   24.3250  -24.8550 S   0  0  0  0  0  0  0  0  0  0  0  0
    1.3790   24.3240  -25.1510 O   0  0  0  0  0  0  0  0  0  0  0  0
   -0.4580   23.0350  -24.1740 O   0  0  0  0  0  0  0  0  0  0  0  0
   -0.4900   25.6780  -23.7700 C   0  0  0  0  0  0  0  0  0  0  0  0
   -0.3941   25.3496  -22.7245 H   0  0  0  0  0  0  0  0  0  0  0  0
    0.2021   26.5122  -23.9572 H   0  0  0  0  0  0  0  0  0  0  0  0
   -1.5222   26.0088  -23.9572 H   0  0  0  0  0  0  0  0  0  0  0  0
   -2.3930   24.5400  -26.3610 C   0  0  0  0  0  0  0  0  0  0  0  0
   -2.9439   24.4657  -25.4118 H   0  0  0  0  0  0  0  0  0  0  0  0
   -3.0920   24.6790  -27.5630 C   0  0  0  0  0  0  0  0  0  0  0  0
   -4.1917   24.7037  -27.5553 H   0  0  0  0  0  0  0  0  0  0  0  0
   -3.0090   22.7650  -31.0340 C   0  0  0  0  0  0  0  0  0  0  0  0
   -1.9330   22.7316  -30.8080 H   0  0  0  0  0  0  0  0  0  0  0  0
  1  2  1  0
  2  3  2  0
  3  4  1  0
  4  5  1  0
  5  6  2  0
  5  7  1  0
  7  8  2  0
  8  9  1  0
  9 10  1  0
 10 11  1  0
 10 12  2  0
 12 13  1  0
 13 14  3  0
 12 15  1  0
 15 16  1  0
  4 17  2  0
 17 18  1  0
 17 19  1  0
 19 20  1  0
 20 21  1  0
 21 22  2  0
 22 23  1  0
 22 24  1  0
 24 25  1  0
 24 26  2  0
 26 27  1  0
 27 28  2  0
 27 29  2  0
 27 30  1  0
 30 31  1  0
 30 32  1  0
 30 33  1  0
 26 34  1  0
 34 35  1  0
 34 36  2  0
 36 37  1  0
 19 38  2  0
 38 39  1  0
 38  2  1  0
 15  8  1  0
 36 21  1  0
M  END
>  <UniqueID>  (48) 
47

>  <SMILES>  (48) 
CS(=O)(=O)c1ccc(Oc2ccnc(C(=O)/N=c3\[nH]c(C#N)cs3)c2)cc1

>  <Energy>  (48) 
79.74957596190463

>  <Genealogy>  (48) 
CS(=O)(=O)c1ccc(Oc2ccnc(C(=O)/N=c3\[nH]c(C#N)cs3)c2)cc1 (cis-trans isomerization)
CS(=O)(=O)c1ccc(Oc2ccnc(C(=O)/N=c3\[nH]c(C#N)cs3)c2)cc1 (3D coordinates assigned)
CS(=O)(=O)c1ccc(Oc2ccnc(C(=O)/N=c3\[nH]c(C#N)cs3)c2)cc1 (optimized conformer: 79.74957596190463 kcal/mol)

>  <smiles>  (48) 
CS(=O)(=O)c1ccc(Oc2ccnc(C(=O)N=c3[nH]c(C#N)cs3)c2)cc1

>  <score_type>  (48) 
oracle

>  <origin>  (48) 
adgpu

>  <m_score__min__energy>  (48) 
-8.9499999999999993

>  <m_primary>  (48) 
energy

$$$$
48:0
     RDKit          3D

 45 48  0  0  0  0  0  0  0  0999 V2000
   -2.7622   20.3578  -34.7888 H   0  0  0  0  0  0  0  0  0  0  0  0
   -2.8540   20.4300  -33.6950 C   0  0  0  0  0  0  0  0  0  0  0  0
   -3.5970   19.6050  -32.8630 C   0  0  0  0  0  0  0  0  0  0  0  0
   -4.4370   18.4530  -33.2610 C   0  0  0  0  0  0  0  0  0  0  0  0
   -4.7340   18.1890  -34.6110 C   0  0  0  0  0  0  0  0  0  0  0  0
   -4.3129   18.8306  -35.3990 H   0  0  0  0  0  0  0  0  0  0  0  0
   -5.5620   17.1150  -34.9570 C   0  0  0  0  0  0  0  0  0  0  0  0
   -5.7913   16.9168  -36.0144 H   0  0  0  0  0  0  0  0  0  0  0  0
   -6.0980   16.2940  -33.9610 C   0  0  0  0  0  0  0  0  0  0  0  0
   -7.1440   14.9550  -34.3970 Cl  0  0  0  0  0  0  0  0  0  0  0  0
   -5.8040   16.5430  -32.6180 C   0  0  0  0  0  0  0  0  0  0  0  0
   -6.2222   15.8940  -31.8345 H   0  0  0  0  0  0  0  0  0  0  0  0
   -4.9790   17.6160  -32.2690 C   0  0  0  0  0  0  0  0  0  0  0  0
   -4.7518   17.8074  -31.2099 H   0  0  0  0  0  0  0  0  0  0  0  0
   -3.4610   20.0020  -31.6170 O   0  0  0  0  0  0  0  0  0  0  0  0
   -2.6710   21.0480  -31.5920 C   0  0  0  0  0  0  0  0  0  0  0  0
   -2.2930   21.7730  -30.3380 C   0  0  0  0  0  0  0  0  0  0  0  0
   -2.8297   21.3240  -29.4892 H   0  0  0  0  0  0  0  0  0  0  0  0
   -1.2050   21.6855  -30.2017 H   0  0  0  0  0  0  0  0  0  0  0  0
   -2.6350   23.1950  -30.4200 N   0  0  0  0  0  0  0  0  0  0  0  0
   -3.8290   23.7250  -30.4310 C   0  0  0  0  0  0  0  0  0  0  0  0
   -5.0000   22.9410  -30.3840 C   0  0  0  0  0  0  0  0  0  0  0  0
   -4.9282   21.8453  -30.3193 H   0  0  0  0  0  0  0  0  0  0  0  0
   -6.2550   23.5620  -30.4200 C   0  0  0  0  0  0  0  0  0  0  0  0
   -7.4610   22.7840  -30.4050 N   0  0  0  0  0  0  0  0  0  0  0  0
   -8.2630   23.1320  -29.8310 H   0  0  0  0  0  0  0  0  0  0  0  0
   -7.6520   21.5980  -31.1950 C   0  0  0  0  0  0  0  0  0  0  0  0
   -6.8690   21.3490  -32.3390 C   0  0  0  0  0  0  0  0  0  0  0  0
   -6.0620   22.0447  -32.6124 H   0  0  0  0  0  0  0  0  0  0  0  0
   -7.1130   20.2220  -33.1280 C   0  0  0  0  0  0  0  0  0  0  0  0
   -6.5030   20.0373  -34.0245 H   0  0  0  0  0  0  0  0  0  0  0  0
   -8.1300   19.3290  -32.7810 C   0  0  0  0  0  0  0  0  0  0  0  0
   -8.3141   18.4376  -33.3986 H   0  0  0  0  0  0  0  0  0  0  0  0
   -8.9130   19.5690  -31.6490 C   0  0  0  0  0  0  0  0  0  0  0  0
   -9.7113   18.8640  -31.3737 H   0  0  0  0  0  0  0  0  0  0  0  0
   -8.6830   20.7050  -30.8650 C   0  0  0  0  0  0  0  0  0  0  0  0
   -9.3139   20.8991  -29.9851 H   0  0  0  0  0  0  0  0  0  0  0  0
   -6.3280   24.9570  -30.4400 C   0  0  0  0  0  0  0  0  0  0  0  0
   -7.3055   25.4613  -30.4235 H   0  0  0  0  0  0  0  0  0  0  0  0
   -5.1520   25.7050  -30.4810 C   0  0  0  0  0  0  0  0  0  0  0  0
   -5.2032   26.8034  -30.5095 H   0  0  0  0  0  0  0  0  0  0  0  0
   -3.9420   25.0840  -30.4860 N   0  0  0  0  0  0  0  0  0  0  0  0
   -3.0800   25.6740  -30.5220 H   0  0  0  0  0  0  0  0  0  0  0  0
   -2.2540   21.3590  -32.8710 C   0  0  0  0  0  0  0  0  0  0  0  0
   -1.5828   22.1775  -33.1704 H   0  0  0  0  0  0  0  0  0  0  0  0
  1  2  1  0
  2  3  2  0
  3  4  1  0
  4  5  2  0
  5  6  1  0
  5  7  1  0
  7  8  1  0
  7  9  2  0
  9 10  1  0
  9 11  1  0
 11 12  1  0
 11 13  2  0
 13 14  1  0
  3 15  1  0
 15 16  1  0
 16 17  1  0
 17 18  1  0
 17 19  1  0
 17 20  1  0
 20 21  2  0
 21 22  1  0
 22 23  1  0
 22 24  2  0
 24 25  1  0
 25 26  1  0
 25 27  1  0
 27 28  2  0
 28 29  1  0
 28 30  1  0
 30 31  1  0
 30 32  2  0
 32 33  1  0
 32 34  1  0
 34 35  1  0
 34 36  2  0
 36 37  1  0
 24 38  1  0
 38 39  1  0
 38 40  2  0
 40 41  1  0
 40 42  1  0
 42 43  1  0
 16 44  2  0
 44 45  1  0
 44  2  1  0
 13  4  1  0
 42 21  1  0
 36 27  1  0
M  END
>  <UniqueID>  (49) 
48

>  <SMILES>  (49) 
Clc1ccc(-c2ccc(C/N=c3\cc(Nc4ccccc4)cc[nH]3)o2)cc1

>  <Energy>  (49) 
78.61382931766619

>  <Genealogy>  (49) 
Clc1ccc(-c2ccc(C/N=c3\cc(Nc4ccccc4)cc[nH]3)o2)cc1 (cis-trans isomerization)
Clc1ccc(-c2ccc(C/N=c3\cc(Nc4ccccc4)cc[nH]3)o2)cc1 (3D coordinates assigned)
Clc1ccc(-c2ccc(C/N=c3\cc(Nc4ccccc4)cc[nH]3)o2)cc1 (optimized conformer: 78.61382931766619 kcal/mol)

>  <smiles>  (49) 
Clc1ccc(-c2ccc(CN=c3cc(Nc4ccccc4)cc[nH]3)o2)cc1

>  <score_type>  (49) 
oracle

>  <origin>  (49) 
adgpu

>  <m_score__min__energy>  (49) 
-9.1099999999999994

>  <m_primary>  (49) 
energy

$$$$
49:0
     RDKit          3D

 50 53  0  0  0  0  0  0  0  0999 V2000
   -3.8200   17.0540  -35.2180 C   0  0  0  0  0  0  0  0  0  0  0  0
   -5.0010   17.7900  -35.3500 C   0  0  0  0  0  0  0  0  0  0  0  0
   -5.9130   17.8460  -34.2910 C   0  0  0  0  0  0  0  0  0  0  0  0
   -5.6530   17.1530  -33.0960 C   0  0  0  0  0  0  0  0  0  0  0  0
   -6.6090   17.2600  -31.9370 C   0  0  0  0  0  0  0  0  0  0  0  0
   -6.7040   18.7140  -31.4650 C   0  0  0  0  0  0  0  0  0  0  0  0
   -7.9410   19.3590  -31.9670 N   0  0  0  0  0  0  0  0  0  0  0  0
   -8.6960   20.0770  -30.9060 C   0  0  0  0  0  0  0  0  0  0  0  0
   -8.4340   21.5990  -30.8500 C   0  0  0  0  0  0  0  0  0  0  0  0
   -7.1620   21.9470  -31.4810 N   0  0  0  0  0  0  0  0  0  0  0  0
   -6.4470   23.1000  -31.0210 C   0  0  0  0  0  0  0  0  0  0  0  0
   -7.1380   24.1480  -30.4950 N   0  0  0  0  0  0  0  0  0  0  0  0
   -6.5130   25.2970  -30.1280 C   0  0  0  0  0  0  0  0  0  0  0  0
   -5.1360   25.4170  -30.3130 C   0  0  0  0  0  0  0  0  0  0  0  0
   -4.4390   24.3740  -30.8350 N   0  0  0  0  0  0  0  0  0  0  0  0
   -5.0520   23.2110  -31.1860 C   0  0  0  0  0  0  0  0  0  0  0  0
   -4.2360   22.0980  -31.7000 C   0  0  0  0  0  0  0  0  0  0  0  0
   -3.8720   22.0590  -33.0550 C   0  0  0  0  0  0  0  0  0  0  0  0
   -3.0780   21.0150  -33.5400 C   0  0  0  0  0  0  0  0  0  0  0  0
   -2.6270   20.0170  -32.6710 C   0  0  0  0  0  0  0  0  0  0  0  0
   -2.9690   20.0600  -31.3180 C   0  0  0  0  0  0  0  0  0  0  0  0
   -3.7720   21.0970  -30.8310 C   0  0  0  0  0  0  0  0  0  0  0  0
   -6.8670   21.4490  -32.8260 C   0  0  0  0  0  0  0  0  0  0  0  0
   -7.7150   20.2110  -33.1550 C   0  0  0  0  0  0  0  0  0  0  0  0
   -4.4580   16.4270  -32.9680 C   0  0  0  0  0  0  0  0  0  0  0  0
   -3.5480   16.3750  -34.0280 C   0  0  0  0  0  0  0  0  0  0  0  0
   -3.1042   17.0095  -36.0520 H   0  0  0  0  0  0  0  0  0  0  0  0
   -5.2132   18.3254  -36.2872 H   0  0  0  0  0  0  0  0  0  0  0  0
   -6.8368   18.4343  -34.3936 H   0  0  0  0  0  0  0  0  0  0  0  0
   -7.6043   16.9145  -32.2533 H   0  0  0  0  0  0  0  0  0  0  0  0
   -6.2417   16.6361  -31.1088 H   0  0  0  0  0  0  0  0  0  0  0  0
   -6.7089   18.7350  -30.3652 H   0  0  0  0  0  0  0  0  0  0  0  0
   -5.8379   19.2662  -31.8587 H   0  0  0  0  0  0  0  0  0  0  0  0
   -9.7703   19.9198  -31.0828 H   0  0  0  0  0  0  0  0  0  0  0  0
   -8.3528   19.6654  -29.9454 H   0  0  0  0  0  0  0  0  0  0  0  0
   -9.2478   22.1214  -31.3742 H   0  0  0  0  0  0  0  0  0  0  0  0
   -8.3900   21.9031  -29.7938 H   0  0  0  0  0  0  0  0  0  0  0  0
   -7.0881   26.1255  -29.6887 H   0  0  0  0  0  0  0  0  0  0  0  0
   -4.6185   26.3481  -30.0387 H   0  0  0  0  0  0  0  0  0  0  0  0
   -4.2122   22.8519  -33.7373 H   0  0  0  0  0  0  0  0  0  0  0  0
   -2.8082   20.9790  -34.6058 H   0  0  0  0  0  0  0  0  0  0  0  0
   -2.0019   19.1968  -33.0537 H   0  0  0  0  0  0  0  0  0  0  0  0
   -2.6068   19.2780  -30.6344 H   0  0  0  0  0  0  0  0  0  0  0  0
   -4.0406   21.1284  -29.7648 H   0  0  0  0  0  0  0  0  0  0  0  0
   -7.0866   22.2399  -33.5583 H   0  0  0  0  0  0  0  0  0  0  0  0
   -5.8047   21.1667  -32.8691 H   0  0  0  0  0  0  0  0  0  0  0  0
   -8.6891   20.5417  -33.5447 H   0  0  0  0  0  0  0  0  0  0  0  0
   -7.1684   19.6146  -33.9003 H   0  0  0  0  0  0  0  0  0  0  0  0
   -4.2369   15.8970  -32.0298 H   0  0  0  0  0  0  0  0  0  0  0  0
   -2.6167   15.7987  -33.9248 H   0  0  0  0  0  0  0  0  0  0  0  0
  1  2  2  0
  2  3  1  0
  3  4  2  0
  4  5  1  0
  5  6  1  0
  6  7  1  0
  7  8  1  0
  8  9  1  0
  9 10  1  0
 10 11  1  0
 11 12  2  0
 12 13  1  0
 13 14  2  0
 14 15  1  0
 15 16  2  0
 16 17  1  0
 17 18  2  0
 18 19  1  0
 19 20  2  0
 20 21  1  0
 21 22  2  0
 10 23  1  0
 23 24  1  0
  4 25  1  0
 25 26  2  0
 26  1  1  0
 24  7  1  0
 16 11  1  0
 22 17  1  0
  1 27  1  0
  2 28  1  0
  3 29  1  0
  5 30  1  0
  5 31  1  0
  6 32  1  0
  6 33  1  0
  8 34  1  0
  8 35  1  0
  9 36  1  0
  9 37  1  0
 13 38  1  0
 14 39  1  0
 18 40  1  0
 19 41  1  0
 20 42  1  0
 21 43  1  0
 22 44  1  0
 23 45  1  0
 23 46  1  0
 24 47  1  0
 24 48  1  0
 25 49  1  0
 26 50  1  0
M  END
>  <UniqueID>  (50) 
49

>  <SMILES>  (50) 
c1ccc(CCN2CCN(c3nccnc3-c3ccccc3)CC2)cc1

>  <Energy>  (50) 
69.76380756036276

>  <Genealogy>  (50) 
c1ccc(CCN2CCN(c3nccnc3-c3ccccc3)CC2)cc1 (3D coordinates assigned)
c1ccc(CCN2CCN(c3nccnc3-c3ccccc3)CC2)cc1 (nonaromatic ring conformer: 69.76380756036276 kcal/mol)

>  <smiles>  (50) 
c1ccc(CCN2CCN(c3nccnc3-c3ccccc3)CC2)cc1

>  <score_type>  (50) 
oracle

>  <origin>  (50) 
adgpu

>  <m_score__min__energy>  (50) 
-8.1699999999999999

>  <m_primary>  (50) 
energy

$$$$
