0:0
     RDKit          3D

 53 56  0  0  0  0  0  0  0  0999 V2000
    0.6340   20.1750  -34.2390 C   0  0  0  0  0  0  0  0  0  0  0  0
    0.6390   19.6050  -32.8130 C   0  0  1  0  0  0  0  0  0  0  0  0
    0.4700   20.6900  -31.7390 C   0  0  0  0  0  0  0  0  0  0  0  0
   -0.9840   21.1590  -31.6300 C   0  0  2  0  0  0  0  0  0  0  0  0
   -1.1300   22.1920  -30.5060 C   0  0  0  0  0  0  0  0  0  0  0  0
   -1.9170   19.9570  -31.3750 C   0  0  0  0  0  0  0  0  0  0  0  0
   -1.7730   18.8750  -32.3750 N   0  0  0  0  0  0  0  0  0  0  0  0
   -2.6940   19.1730  -33.8410 S   0  0  0  0  0  0  0  0  0  0  0  0
   -2.1470   20.3350  -34.6210 O   0  0  0  0  0  0  0  0  0  0  0  0
   -2.7030   17.9600  -34.7310 O   0  0  0  0  0  0  0  0  0  0  0  0
   -4.3510   19.5430  -33.3720 C   0  0  0  0  0  0  0  0  0  0  0  0
   -4.8110   20.8670  -33.3830 C   0  0  0  0  0  0  0  0  0  0  0  0
   -6.0820   21.1730  -32.8900 C   0  0  0  0  0  0  0  0  0  0  0  0
   -6.9010   20.1590  -32.3740 C   0  0  0  0  0  0  0  0  0  0  0  0
   -8.4270   20.5460  -31.5870 S   0  0  0  0  0  0  0  0  0  0  0  0
   -8.9250   19.3320  -30.8570 O   0  0  0  0  0  0  0  0  0  0  0  0
   -9.4590   20.9740  -32.5930 O   0  0  0  0  0  0  0  0  0  0  0  0
   -8.1630   21.8340  -30.4590 N   0  0  0  0  0  0  0  0  0  0  0  0
   -7.1000   22.7920  -30.5610 C   0  0  0  0  0  0  0  0  0  0  0  0
   -7.1450   23.8610  -31.5000 C   0  0  0  0  0  0  0  0  0  0  0  0
   -6.0780   24.7710  -31.6040 C   0  0  0  0  0  0  0  0  0  0  0  0
   -4.9920   24.5930  -30.7550 C   0  0  0  0  0  0  0  0  0  0  0  0
   -3.8720   25.3300  -30.6820 N   0  0  0  0  0  0  0  0  0  0  0  0
   -3.1060   24.7910  -29.7380 N   0  0  0  0  0  0  0  0  0  0  0  0
   -3.7400   23.7160  -29.2110 C   0  0  0  0  0  0  0  0  0  0  0  0
   -4.9480   23.5780  -29.8490 C   0  0  0  0  0  0  0  0  0  0  0  0
   -5.9820   22.6570  -29.7120 C   0  0  0  0  0  0  0  0  0  0  0  0
   -6.4500   18.8340  -32.3880 C   0  0  0  0  0  0  0  0  0  0  0  0
   -5.1790   18.5270  -32.8830 C   0  0  0  0  0  0  0  0  0  0  0  0
   -0.3710   18.4520  -32.6100 C   0  0  0  0  0  0  0  0  0  0  0  0
    0.6244   21.2741  -34.1945 H   0  0  0  0  0  0  0  0  0  0  0  0
    1.5351   19.8375  -34.7719 H   0  0  0  0  0  0  0  0  0  0  0  0
   -0.2611   19.8217  -34.7719 H   0  0  0  0  0  0  0  0  0  0  0  0
    1.6416   19.1709  -32.6848 H   0  0  0  0  0  0  0  0  0  0  0  0
    0.7866   20.2822  -30.7677 H   0  0  0  0  0  0  0  0  0  0  0  0
    1.0880   21.5539  -32.0248 H   0  0  0  0  0  0  0  0  0  0  0  0
   -1.2706   21.6323  -32.5807 H   0  0  0  0  0  0  0  0  0  0  0  0
   -1.0585   21.6863  -29.5317 H   0  0  0  0  0  0  0  0  0  0  0  0
   -0.3288   22.9410  -30.5900 H   0  0  0  0  0  0  0  0  0  0  0  0
   -2.1074   22.6896  -30.5900 H   0  0  0  0  0  0  0  0  0  0  0  0
   -1.6898   19.5447  -30.3808 H   0  0  0  0  0  0  0  0  0  0  0  0
   -2.9499   20.3283  -31.4466 H   0  0  0  0  0  0  0  0  0  0  0  0
   -2.2420   18.0400  -31.9510 H   0  0  0  0  0  0  0  0  0  0  0  0
   -4.1696   21.6672  -33.7808 H   0  0  0  0  0  0  0  0  0  0  0  0
   -6.4411   22.2126  -32.9068 H   0  0  0  0  0  0  0  0  0  0  0  0
   -8.0239   23.9764  -32.1513 H   0  0  0  0  0  0  0  0  0  0  0  0
   -6.1020   25.5952  -32.3321 H   0  0  0  0  0  0  0  0  0  0  0  0
   -3.3542   23.0667  -28.4112 H   0  0  0  0  0  0  0  0  0  0  0  0
   -5.9291   21.8502  -28.9661 H   0  0  0  0  0  0  0  0  0  0  0  0
   -7.0984   18.0308  -32.0079 H   0  0  0  0  0  0  0  0  0  0  0  0
   -4.8293   17.4841  -32.8880 H   0  0  0  0  0  0  0  0  0  0  0  0
   -0.0435   17.8616  -31.7416 H   0  0  0  0  0  0  0  0  0  0  0  0
   -0.3775   17.8825  -33.5511 H   0  0  0  0  0  0  0  0  0  0  0  0
  1  2  1  0
  2  3  1  0
  3  4  1  0
  4  5  1  0
  4  6  1  0
  6  7  1  0
  7  8  1  0
  8  9  2  0
  8 10  2  0
  8 11  1  0
 11 12  2  0
 12 13  1  0
 13 14  2  0
 14 15  1  0
 15 16  2  0
 15 17  2  0
 15 18  1  0
 18 19  1  0
 19 20  2  0
 20 21  1  0
 21 22  2  0
 22 23  1  0
 23 24  1  0
 24 25  2  0
 25 26  1  0
 26 27  2  0
 14 28  1  0
 28 29  2  0
  7 30  1  0
 30  2  1  0
 29 11  1  0
 27 19  1  0
 26 22  1  0
  1 31  1  0
  1 32  1  0
  1 33  1  0
  2 34  1  1
  3 35  1  0
  3 36  1  0
  4 37  1  6
  5 38  1  0
  5 39  1  0
  5 40  1  0
  6 41  1  0
  6 42  1  0
  7 43  1  0
 12 44  1  0
 13 45  1  0
 20 46  1  0
 21 47  1  0
 25 48  1  0
 27 49  1  0
 28 50  1  0
 29 51  1  0
 30 52  1  0
 30 53  1  0
M  CHG  3   7   1  18  -1  23  -1
M  END
>  <UniqueID>  (1) 
1

>  <SMILES>  (1) 
C[C@H]1C[C@H](C)C[NH+](S(=O)(=O)c2ccc(S(=O)(=O)[N-]c3ccc4[n-]ncc4c3)cc2)C1

>  <Energy>  (1) 
99.44980531586357

>  <Genealogy>  (1) 
CC1CC(C)C[NH+](S(=O)(=O)c2ccc(S(=O)(=O)[N-]c3ccc4[n-]ncc4c3)cc2)C1 (protonated)
C[C@H]1C[C@H](C)C[NH+](S(=O)(=O)c2ccc(S(=O)(=O)[N-]c3ccc4[n-]ncc4c3)cc2)C1 (chirality)
C[C@H]1C[C@H](C)C[NH+](S(=O)(=O)c2ccc(S(=O)(=O)[N-]c3ccc4[n-]ncc4c3)cc2)C1 (3D coordinates assigned)
C[C@H]1C[C@H](C)C[NH+](S(=O)(=O)c2ccc(S(=O)(=O)[N-]c3ccc4[n-]ncc4c3)cc2)C1 (nonaromatic ring conformer: 99.44980531586357 kcal/mol)

>  <smiles>  (1) 
CC1CC(C)CN(S(=O)(=O)c2ccc(S(=O)(=O)Nc3ccc4[nH]ncc4c3)cc2)C1

>  <score_type>  (1) 
oracle

>  <origin>  (1) 
adgpu

>  <m_score__min__energy>  (1) 
-11.710000000000001

>  <m_primary>  (1) 
energy

$$$$
1:0
     RDKit          3D

 56 59  0  0  0  0  0  0  0  0999 V2000
   -3.1850   24.8970  -27.0510 O   0  0  0  0  0  0  0  0  0  0  0  0
   -2.3290   24.9210  -27.9690 C   0  0  0  0  0  0  0  0  0  0  0  0
   -2.7920   24.9790  -29.3270 N   0  0  0  0  0  0  0  0  0  0  0  0
   -3.9900   24.4160  -29.8890 C   0  0  0  0  0  0  0  0  0  0  0  0
   -4.2890   23.0770  -29.6110 C   0  0  0  0  0  0  0  0  0  0  0  0
   -5.4380   22.4830  -30.1380 C   0  0  0  0  0  0  0  0  0  0  0  0
   -6.2880   23.2140  -30.9790 C   0  0  0  0  0  0  0  0  0  0  0  0
   -7.7410   22.4640  -31.6410 S   0  0  0  0  0  0  0  0  0  0  0  0
   -8.4300   23.4430  -32.5490 O   0  0  0  0  0  0  0  0  0  0  0  0
   -8.6790   22.1350  -30.5130 O   0  0  0  0  0  0  0  0  0  0  0  0
   -7.3760   21.0130  -32.5410 N   0  0  0  0  0  0  0  0  0  0  0  0
   -7.9090   19.8270  -31.8520 C   0  0  0  0  0  0  0  0  0  0  0  0
   -7.4770   18.5410  -32.5880 C   0  0  0  0  0  0  0  0  0  0  0  0
   -6.7970   18.8390  -33.7940 O   0  0  0  0  0  0  0  0  0  0  0  0
   -5.6210   19.5760  -33.5120 C   0  0  0  0  0  0  0  0  0  0  0  0
   -5.9260   20.8720  -32.7290 C   0  0  0  0  0  0  0  0  0  0  0  0
   -5.9780   24.5460  -31.2810 C   0  0  0  0  0  0  0  0  0  0  0  0
   -4.8420   25.1480  -30.7340 C   0  0  0  0  0  0  0  0  0  0  0  0
   -0.9060   25.0910  -27.6160 C   0  0  0  0  0  0  0  0  0  0  0  0
   -0.4290   26.4080  -27.4800 C   0  0  0  0  0  0  0  0  0  0  0  0
    0.8860   26.6580  -27.0910 C   0  0  0  0  0  0  0  0  0  0  0  0
    1.7470   25.5960  -26.8320 C   0  0  0  0  0  0  0  0  0  0  0  0
    1.2980   24.2820  -26.9690 C   0  0  0  0  0  0  0  0  0  0  0  0
   -0.0230   24.0020  -27.3660 C   0  0  0  0  0  0  0  0  0  0  0  0
   -0.4570   22.2850  -27.5960 S   0  0  0  0  0  0  0  0  0  0  0  0
    0.8130   21.5150  -27.8360 O   0  0  0  0  0  0  0  0  0  0  0  0
   -1.0890   21.7150  -26.3590 O   0  0  0  0  0  0  0  0  0  0  0  0
   -1.5140   22.0050  -28.9650 N   0  0  0  0  0  0  0  0  0  0  0  0
   -0.9240   22.4530  -30.2270 C   0  0  0  0  0  0  0  0  0  0  0  0
   -1.4860   21.5620  -31.3270 C   0  0  0  0  0  0  0  0  0  0  0  0
   -2.2110   20.4320  -30.6110 C   0  0  0  0  0  0  0  0  0  0  0  0
   -1.8530   20.5960  -29.1460 C   0  0  0  0  0  0  0  0  0  0  0  0
   -3.6139   22.4882  -28.9726 H   0  0  0  0  0  0  0  0  0  0  0  0
   -5.6766   21.4377  -29.8921 H   0  0  0  0  0  0  0  0  0  0  0  0
   -7.5242   19.8022  -30.8218 H   0  0  0  0  0  0  0  0  0  0  0  0
   -9.0076   19.8821  -31.8425 H   0  0  0  0  0  0  0  0  0  0  0  0
   -6.8085   17.9618  -31.9340 H   0  0  0  0  0  0  0  0  0  0  0  0
   -8.3801   17.9630  -32.8337 H   0  0  0  0  0  0  0  0  0  0  0  0
   -4.9441   18.9495  -32.9125 H   0  0  0  0  0  0  0  0  0  0  0  0
   -5.1580   19.8576  -34.4692 H   0  0  0  0  0  0  0  0  0  0  0  0
   -5.4333   20.8290  -31.7465 H   0  0  0  0  0  0  0  0  0  0  0  0
   -5.5488   21.7354  -33.2967 H   0  0  0  0  0  0  0  0  0  0  0  0
   -6.6324   25.1213  -31.9524 H   0  0  0  0  0  0  0  0  0  0  0  0
   -4.6135   26.1988  -30.9655 H   0  0  0  0  0  0  0  0  0  0  0  0
   -1.1038   27.2525  -27.6837 H   0  0  0  0  0  0  0  0  0  0  0  0
    1.2426   27.6936  -26.9889 H   0  0  0  0  0  0  0  0  0  0  0  0
    2.7830   25.7926  -26.5188 H   0  0  0  0  0  0  0  0  0  0  0  0
    1.9883   23.4507  -26.7632 H   0  0  0  0  0  0  0  0  0  0  0  0
   -1.1931   23.5024  -30.4175 H   0  0  0  0  0  0  0  0  0  0  0  0
    0.1733   22.3851  -30.1914 H   0  0  0  0  0  0  0  0  0  0  0  0
   -2.1867   22.1279  -31.9585 H   0  0  0  0  0  0  0  0  0  0  0  0
   -0.6922   21.1816  -31.9867 H   0  0  0  0  0  0  0  0  0  0  0  0
   -3.2981   20.5189  -30.7546 H   0  0  0  0  0  0  0  0  0  0  0  0
   -1.9182   19.4449  -30.9981 H   0  0  0  0  0  0  0  0  0  0  0  0
   -2.7098   20.3253  -28.5114 H   0  0  0  0  0  0  0  0  0  0  0  0
   -1.0150   19.9423  -28.8624 H   0  0  0  0  0  0  0  0  0  0  0  0
  1  2  2  0
  2  3  1  0
  3  4  1  0
  4  5  2  0
  5  6  1  0
  6  7  2  0
  7  8  1  0
  8  9  2  0
  8 10  2  0
  8 11  1  0
 11 12  1  0
 12 13  1  0
 13 14  1  0
 14 15  1  0
 15 16  1  0
  7 17  1  0
 17 18  2  0
  2 19  1  0
 19 20  2  0
 20 21  1  0
 21 22  2  0
 22 23  1  0
 23 24  2  0
 24 25  1  0
 25 26  2  0
 25 27  2  0
 25 28  1  0
 28 29  1  0
 29 30  1  0
 30 31  1  0
 31 32  1  0
 18  4  1  0
 24 19  1  0
 32 28  1  0
 16 11  1  0
  5 33  1  0
  6 34  1  0
 12 35  1  0
 12 36  1  0
 13 37  1  0
 13 38  1  0
 15 39  1  0
 15 40  1  0
 16 41  1  0
 16 42  1  0
 17 43  1  0
 18 44  1  0
 20 45  1  0
 21 46  1  0
 22 47  1  0
 23 48  1  0
 29 49  1  0
 29 50  1  0
 30 51  1  0
 30 52  1  0
 31 53  1  0
 31 54  1  0
 32 55  1  0
 32 56  1  0
M  CHG  1   3  -1
M  END
>  <UniqueID>  (2) 
2

>  <SMILES>  (2) 
O=C([N-]c1ccc(S(=O)(=O)N2CCOCC2)cc1)c1ccccc1S(=O)(=O)N1CCCC1

>  <Energy>  (2) 
78.78405031734273

>  <Genealogy>  (2) 
O=C([N-]c1ccc(S(=O)(=O)N2CCOCC2)cc1)c1ccccc1S(=O)(=O)N1CCCC1 (protonated)
O=C([N-]c1ccc(S(=O)(=O)N2CCOCC2)cc1)c1ccccc1S(=O)(=O)N1CCCC1 (3D coordinates assigned)
O=C([N-]c1ccc(S(=O)(=O)N2CCOCC2)cc1)c1ccccc1S(=O)(=O)N1CCCC1 (nonaromatic ring conformer: 78.78405031734273 kcal/mol)

>  <smiles>  (2) 
O=C(Nc1ccc(S(=O)(=O)N2CCOCC2)cc1)c1ccccc1S(=O)(=O)N1CCCC1

>  <score_type>  (2) 
oracle

>  <origin>  (2) 
adgpu

>  <m_score__min__energy>  (2) 
-12.41

>  <m_primary>  (2) 
energy

$$$$
2:0
     RDKit          3D

 42 44  0  0  0  0  0  0  0  0999 V2000
   -3.7270   25.3020  -30.5140 O   0  0  0  0  0  0  0  0  0  0  0  0
   -3.5670   24.0510  -30.5390 C   0  0  0  0  0  0  0  0  0  0  0  0
   -2.3010   23.4870  -30.1700 N   0  0  0  0  0  0  0  0  0  0  0  0
   -1.7320   23.5680  -28.8590 C   0  0  0  0  0  0  0  0  0  0  0  0
   -1.5450   22.3800  -28.1390 C   0  0  0  0  0  0  0  0  0  0  0  0
   -1.0290   22.4130  -26.8410 C   0  0  0  0  0  0  0  0  0  0  0  0
   -0.6860   23.6330  -26.2550 C   0  0  0  0  0  0  0  0  0  0  0  0
   -0.8370   24.8210  -26.9740 C   0  0  0  0  0  0  0  0  0  0  0  0
   -1.3340   24.8000  -28.2830 C   0  0  0  0  0  0  0  0  0  0  0  0
   -1.3810   26.0000  -28.9930 O   0  0  0  0  0  0  0  0  0  0  0  0
   -4.6920   23.1670  -30.9260 C   0  0  0  0  0  0  0  0  0  0  0  0
   -4.5330   21.7680  -30.9310 C   0  0  0  0  0  0  0  0  0  0  0  0
   -5.5960   20.9350  -31.2910 C   0  0  0  0  0  0  0  0  0  0  0  0
   -6.8320   21.4840  -31.6530 C   0  0  0  0  0  0  0  0  0  0  0  0
   -8.1610   20.4200  -32.1020 S   0  0  0  0  0  0  0  0  0  0  0  0
   -8.6860   19.7530  -30.8610 O   0  0  0  0  0  0  0  0  0  0  0  0
   -9.2680   21.2180  -32.7400 O   0  0  0  0  0  0  0  0  0  0  0  0
   -7.5880   19.2140  -33.2310 N   0  0  0  0  0  0  0  0  0  0  0  0
   -7.3490   17.9190  -32.5540 C   0  0  0  0  0  0  0  0  0  0  0  0
   -5.8490   17.6370  -32.3560 C   0  0  0  0  0  0  0  0  0  0  0  0
   -5.1180   17.6220  -33.5740 O   0  0  0  0  0  0  0  0  0  0  0  0
   -5.5890   18.5570  -34.5370 C   0  0  0  0  0  0  0  0  0  0  0  0
   -6.4010   19.7210  -33.9450 C   0  0  0  0  0  0  0  0  0  0  0  0
   -7.0000   22.8740  -31.6470 C   0  0  0  0  0  0  0  0  0  0  0  0
   -5.9380   23.7110  -31.2890 C   0  0  0  0  0  0  0  0  0  0  0  0
   -1.8062   21.4155  -28.5988 H   0  0  0  0  0  0  0  0  0  0  0  0
   -0.8928   21.4766  -26.2801 H   0  0  0  0  0  0  0  0  0  0  0  0
   -0.2966   23.6586  -25.2265 H   0  0  0  0  0  0  0  0  0  0  0  0
   -0.5636   25.7796  -26.5088 H   0  0  0  0  0  0  0  0  0  0  0  0
   -1.6220   26.0480  -29.9740 H   0  0  0  0  0  0  0  0  0  0  0  0
   -3.5652   21.3275  -30.6495 H   0  0  0  0  0  0  0  0  0  0  0  0
   -5.4609   19.8433  -31.2899 H   0  0  0  0  0  0  0  0  0  0  0  0
   -7.8393   17.9377  -31.5695 H   0  0  0  0  0  0  0  0  0  0  0  0
   -7.7621   17.1228  -33.1907 H   0  0  0  0  0  0  0  0  0  0  0  0
   -5.4290   18.4184  -31.7055 H   0  0  0  0  0  0  0  0  0  0  0  0
   -5.7603   16.6360  -31.9086 H   0  0  0  0  0  0  0  0  0  0  0  0
   -4.7192   18.9766  -35.0637 H   0  0  0  0  0  0  0  0  0  0  0  0
   -6.2685   18.0065  -35.2043 H   0  0  0  0  0  0  0  0  0  0  0  0
   -5.7684   20.2826  -33.2419 H   0  0  0  0  0  0  0  0  0  0  0  0
   -6.7322   20.3759  -34.7644 H   0  0  0  0  0  0  0  0  0  0  0  0
   -7.9711   23.3096  -31.9249 H   0  0  0  0  0  0  0  0  0  0  0  0
   -6.0778   24.8021  -31.2912 H   0  0  0  0  0  0  0  0  0  0  0  0
  1  2  2  0
  2  3  1  0
  3  4  1  0
  4  5  2  0
  5  6  1  0
  6  7  2  0
  7  8  1  0
  8  9  2  0
  9 10  1  0
  2 11  1  0
 11 12  2  0
 12 13  1  0
 13 14  2  0
 14 15  1  0
 15 16  2  0
 15 17  2  0
 15 18  1  0
 18 19  1  0
 19 20  1  0
 20 21  1  0
 21 22  1  0
 22 23  1  0
 14 24  1  0
 24 25  2  0
  9  4  1  0
 25 11  1  0
 23 18  1  0
  5 26  1  0
  6 27  1  0
  7 28  1  0
  8 29  1  0
 10 30  1  0
 12 31  1  0
 13 32  1  0
 19 33  1  0
 19 34  1  0
 20 35  1  0
 20 36  1  0
 22 37  1  0
 22 38  1  0
 23 39  1  0
 23 40  1  0
 24 41  1  0
 25 42  1  0
M  CHG  1   3  -1
M  END
>  <UniqueID>  (3) 
3

>  <SMILES>  (3) 
O=C([N-]c1ccccc1O)c1ccc(S(=O)(=O)N2CCOCC2)cc1

>  <Energy>  (3) 
63.60058058439606

>  <Genealogy>  (3) 
O=C([N-]c1ccccc1O)c1ccc(S(=O)(=O)N2CCOCC2)cc1 (protonated)
O=C([N-]c1ccccc1O)c1ccc(S(=O)(=O)N2CCOCC2)cc1 (3D coordinates assigned)
O=C([N-]c1ccccc1O)c1ccc(S(=O)(=O)N2CCOCC2)cc1 (nonaromatic ring conformer: 63.60058058439606 kcal/mol)

>  <smiles>  (3) 
O=C(Nc1ccccc1O)c1ccc(S(=O)(=O)N2CCOCC2)cc1

>  <score_type>  (3) 
oracle

>  <origin>  (3) 
adgpu

>  <m_score__min__energy>  (3) 
-12.390000000000001

>  <m_primary>  (3) 
energy

$$$$
3:0
     RDKit          3D

 60 62  0  0  0  0  0  0  0  0999 V2000
    0.0490   27.8390  -26.1600 C   0  0  0  0  0  0  0  0  0  0  0  0
    0.5510   26.8910  -27.0950 O   0  0  0  0  0  0  0  0  0  0  0  0
   -0.1770   25.7910  -27.5750 C   0  0  0  0  0  0  0  0  0  0  0  0
    0.1560   24.4700  -27.2510 C   0  0  0  0  0  0  0  0  0  0  0  0
   -0.6020   23.4110  -27.7490 C   0  0  0  0  0  0  0  0  0  0  0  0
   -1.7440   23.6290  -28.5610 C   0  0  0  0  0  0  0  0  0  0  0  0
   -2.5120   22.3980  -29.1270 C   0  0  1  0  0  0  0  0  0  0  0  0
   -3.9660   22.3080  -28.5890 C   0  0  0  0  0  0  0  0  0  0  0  0
   -2.5880   22.5780  -30.6880 C   0  0  0  0  0  0  0  0  0  0  0  0
   -3.8480   22.0880  -31.2830 N   0  0  0  0  0  0  0  0  0  0  0  0
   -3.9610   20.7670  -31.6300 C   0  0  0  0  0  0  0  0  0  0  0  0
   -5.1520   20.2680  -32.1600 C   0  0  0  0  0  0  0  0  0  0  0  0
   -6.2270   21.1290  -32.3600 C   0  0  0  0  0  0  0  0  0  0  0  0
   -6.0950   22.4880  -32.0570 C   0  0  0  0  0  0  0  0  0  0  0  0
   -7.2500   23.4270  -32.2470 C   0  0  0  0  0  0  0  0  0  0  0  0
   -4.8890   22.9470  -31.5120 C   0  0  0  0  0  0  0  0  0  0  0  0
   -1.8610   21.0650  -28.6670 C   0  0  0  0  0  0  0  0  0  0  0  0
   -2.3550   20.3280  -27.5750 C   0  0  0  0  0  0  0  0  0  0  0  0
   -1.7290   19.1450  -27.1440 C   0  0  0  0  0  0  0  0  0  0  0  0
   -2.2580   18.3630  -26.1050 O   0  0  0  0  0  0  0  0  0  0  0  0
   -3.5610   18.5200  -25.5510 C   0  0  0  0  0  0  0  0  0  0  0  0
   -0.5400   18.7180  -27.7510 C   0  0  0  0  0  0  0  0  0  0  0  0
    0.0120   17.5100  -27.2800 O   0  0  0  0  0  0  0  0  0  0  0  0
    0.6700   16.5180  -28.0590 C   0  0  0  0  0  0  0  0  0  0  0  0
    0.0450   19.5060  -28.7700 C   0  0  0  0  0  0  0  0  0  0  0  0
    1.2650   19.1150  -29.3470 O   0  0  0  0  0  0  0  0  0  0  0  0
    2.5350   19.1960  -28.7090 C   0  0  0  0  0  0  0  0  0  0  0  0
   -0.6050   20.6820  -29.1870 C   0  0  0  0  0  0  0  0  0  0  0  0
   -2.0250   24.9750  -28.9320 C   0  0  0  0  0  0  0  0  0  0  0  0
   -3.0380   25.2970  -29.8250 O   0  0  0  0  0  0  0  0  0  0  0  0
   -1.2610   26.0290  -28.4190 C   0  0  0  0  0  0  0  0  0  0  0  0
    0.2385   27.4811  -25.1373 H   0  0  0  0  0  0  0  0  0  0  0  0
    0.5539   28.8047  -26.3100 H   0  0  0  0  0  0  0  0  0  0  0  0
   -1.0335   27.9641  -26.3100 H   0  0  0  0  0  0  0  0  0  0  0  0
    1.0196   24.2669  -26.6006 H   0  0  0  0  0  0  0  0  0  0  0  0
   -0.3065   22.3797  -27.5057 H   0  0  0  0  0  0  0  0  0  0  0  0
   -3.9507   22.3089  -27.4891 H   0  0  0  0  0  0  0  0  0  0  0  0
   -4.5441   23.1721  -28.9484 H   0  0  0  0  0  0  0  0  0  0  0  0
   -4.4331   21.3792  -28.9484 H   0  0  0  0  0  0  0  0  0  0  0  0
   -2.4886   23.6489  -30.9191 H   0  0  0  0  0  0  0  0  0  0  0  0
   -1.7742   21.9772  -31.1202 H   0  0  0  0  0  0  0  0  0  0  0  0
   -3.1036   20.0924  -31.4893 H   0  0  0  0  0  0  0  0  0  0  0  0
   -5.2403   19.2022  -32.4177 H   0  0  0  0  0  0  0  0  0  0  0  0
   -7.1777   20.7418  -32.7552 H   0  0  0  0  0  0  0  0  0  0  0  0
   -7.6341   23.7393  -31.2647 H   0  0  0  0  0  0  0  0  0  0  0  0
   -6.9147   24.3119  -32.8078 H   0  0  0  0  0  0  0  0  0  0  0  0
   -8.0478   22.9181  -32.8078 H   0  0  0  0  0  0  0  0  0  0  0  0
   -4.7768   24.0129  -31.2645 H   0  0  0  0  0  0  0  0  0  0  0  0
   -3.2511   20.6853  -27.0465 H   0  0  0  0  0  0  0  0  0  0  0  0
   -3.4960   18.5122  -24.4530 H   0  0  0  0  0  0  0  0  0  0  0  0
   -3.9891   19.4762  -25.8861 H   0  0  0  0  0  0  0  0  0  0  0  0
   -4.2040   17.6928  -25.8861 H   0  0  0  0  0  0  0  0  0  0  0  0
    1.1535   15.7891  -27.3920 H   0  0  0  0  0  0  0  0  0  0  0  0
   -0.0658   16.0025  -28.6937 H   0  0  0  0  0  0  0  0  0  0  0  0
    1.4311   16.9954  -28.6937 H   0  0  0  0  0  0  0  0  0  0  0  0
    2.3983   19.1873  -27.6176 H   0  0  0  0  0  0  0  0  0  0  0  0
    3.1512   18.3353  -29.0082 H   0  0  0  0  0  0  0  0  0  0  0  0
    3.0369   20.1280  -29.0082 H   0  0  0  0  0  0  0  0  0  0  0  0
   -0.1210   21.3216  -29.9398 H   0  0  0  0  0  0  0  0  0  0  0  0
   -1.5203   27.0640  -28.6864 H   0  0  0  0  0  0  0  0  0  0  0  0
  1  2  1  0
  2  3  1  0
  3  4  2  0
  4  5  1  0
  5  6  2  0
  6  7  1  0
  7  8  1  1
  7  9  1  0
  9 10  1  0
 10 11  2  0
 11 12  1  0
 12 13  2  0
 13 14  1  0
 14 15  1  0
 14 16  2  0
  7 17  1  0
 17 18  2  0
 18 19  1  0
 19 20  1  0
 20 21  1  0
 19 22  2  0
 22 23  1  0
 23 24  1  0
 22 25  1  0
 25 26  1  0
 26 27  1  0
 25 28  2  0
  6 29  1  0
 29 30  1  0
 29 31  2  0
 31  3  1  0
 16 10  1  0
 28 17  1  0
  1 32  1  0
  1 33  1  0
  1 34  1  0
  4 35  1  0
  5 36  1  0
  8 37  1  0
  8 38  1  0
  8 39  1  0
  9 40  1  0
  9 41  1  0
 11 42  1  0
 12 43  1  0
 13 44  1  0
 15 45  1  0
 15 46  1  0
 15 47  1  0
 16 48  1  0
 18 49  1  0
 21 50  1  0
 21 51  1  0
 21 52  1  0
 24 53  1  0
 24 54  1  0
 24 55  1  0
 27 56  1  0
 27 57  1  0
 27 58  1  0
 28 59  1  0
 31 60  1  0
M  CHG  2  10   1  30  -1
M  END
>  <UniqueID>  (4) 
4

>  <SMILES>  (4) 
COc1ccc([C@@](C)(C[n+]2cccc(C)c2)c2cc(OC)c(OC)c(OC)c2)c([O-])c1

>  <Energy>  (4) 
78.22905344993207

>  <Genealogy>  (4) 
COc1ccc(C(C)(C[n+]2cccc(C)c2)c2cc(OC)c(OC)c(OC)c2)c([O-])c1 (protonated)
COc1ccc([C@@](C)(C[n+]2cccc(C)c2)c2cc(OC)c(OC)c(OC)c2)c([O-])c1 (chirality)
COc1ccc([C@@](C)(C[n+]2cccc(C)c2)c2cc(OC)c(OC)c(OC)c2)c([O-])c1 (3D coordinates assigned)
COc1ccc([C@@](C)(C[n+]2cccc(C)c2)c2cc(OC)c(OC)c(OC)c2)c([O-])c1 (optimized conformer: 78.22905344993207 kcal/mol)

>  <smiles>  (4) 
COc1ccc(C(C)(C[n+]2cccc(C)c2)c2cc(OC)c(OC)c(OC)c2)c(O)c1

>  <score_type>  (4) 
oracle

>  <origin>  (4) 
adgpu

>  <m_score__min__energy>  (4) 
-9.4299999999999997

>  <m_primary>  (4) 
energy

$$$$
4:0
     RDKit          3D

 66 70  0  0  0  0  0  0  0  0999 V2000
   -9.4770   23.6560  -32.3370 C   0  0  0  0  0  0  0  0  0  0  0  0
   -8.6130   22.5190  -31.9880 N   0  0  0  0  0  0  0  0  0  0  0  0
   -9.0750   21.1500  -32.1020 C   0  0  0  0  0  0  0  0  0  0  0  0
  -10.3060   20.8910  -31.9930 O   0  0  0  0  0  0  0  0  0  0  0  0
   -8.1500   20.0320  -32.3890 C   0  0  0  0  0  0  0  0  0  0  0  0
   -8.0840   18.9040  -31.5520 C   0  0  0  0  0  0  0  0  0  0  0  0
   -7.1650   17.8800  -31.8180 C   0  0  0  0  0  0  0  0  0  0  0  0
   -6.2990   17.9770  -32.9170 C   0  0  0  0  0  0  0  0  0  0  0  0
   -5.0240   16.7800  -33.1730 S   0  0  0  0  0  0  0  0  0  0  0  0
   -5.0050   16.3870  -34.6260 O   0  0  0  0  0  0  0  0  0  0  0  0
   -5.3570   15.5570  -32.3610 O   0  0  0  0  0  0  0  0  0  0  0  0
   -3.4410   17.3760  -32.7270 N   0  0  0  0  0  0  0  0  0  0  0  0
   -2.4340   16.8190  -33.6440 C   0  0  0  0  0  0  0  0  0  0  0  0
   -1.0430   17.2700  -33.2090 C   0  0  0  0  0  0  0  0  0  0  0  0
   -0.9750   18.7690  -33.2650 C   0  0  0  0  0  0  0  0  0  0  0  0
    0.2370   19.4170  -33.5570 C   0  0  0  0  0  0  0  0  0  0  0  0
    0.2790   20.8120  -33.6740 C   0  0  0  0  0  0  0  0  0  0  0  0
   -0.8760   21.5690  -33.4760 C   0  0  0  0  0  0  0  0  0  0  0  0
   -2.0810   20.9330  -33.1590 C   0  0  0  0  0  0  0  0  0  0  0  0
   -2.1400   19.5300  -33.0450 C   0  0  0  0  0  0  0  0  0  0  0  0
   -3.4660   18.8660  -32.7170 C   0  0  0  0  0  0  0  0  0  0  0  0
   -6.3890   19.0870  -33.7670 C   0  0  0  0  0  0  0  0  0  0  0  0
   -7.3160   20.0990  -33.5110 C   0  0  0  0  0  0  0  0  0  0  0  0
   -7.3020   22.8060  -31.4670 C   0  0  0  0  0  0  0  0  0  0  0  0
   -7.1380   23.2080  -30.1330 C   0  0  0  0  0  0  0  0  0  0  0  0
   -5.8620   23.5080  -29.6390 C   0  0  0  0  0  0  0  0  0  0  0  0
   -4.7340   23.4090  -30.4720 C   0  0  0  0  0  0  0  0  0  0  0  0
   -3.3870   23.7290  -29.9460 C   0  0  0  0  0  0  0  0  0  0  0  0
   -3.0140   24.9310  -29.8820 O   0  0  0  0  0  0  0  0  0  0  0  0
   -2.4800   22.6900  -29.5360 N   0  0  0  0  0  0  0  0  0  0  0  0
   -1.0790   22.7650  -29.9620 C   0  0  0  0  0  0  0  0  0  0  0  0
   -0.3230   21.5160  -29.5250 C   0  0  0  0  0  0  0  0  0  0  0  0
   -1.1340   20.3850  -29.7510 O   0  0  0  0  0  0  0  0  0  0  0  0
   -2.1570   20.3240  -28.7730 C   0  0  0  0  0  0  0  0  0  0  0  0
   -2.9300   21.6520  -28.5970 C   0  0  0  0  0  0  0  0  0  0  0  0
   -4.9060   23.0350  -31.8160 C   0  0  0  0  0  0  0  0  0  0  0  0
   -6.1810   22.7360  -32.3110 C   0  0  0  0  0  0  0  0  0  0  0  0
   -9.8415   24.1356  -31.4166 H   0  0  0  0  0  0  0  0  0  0  0  0
   -8.9029   24.3850  -32.9278 H   0  0  0  0  0  0  0  0  0  0  0  0
  -10.3331   23.2982  -32.9278 H   0  0  0  0  0  0  0  0  0  0  0  0
   -8.7564   18.8251  -30.6850 H   0  0  0  0  0  0  0  0  0  0  0  0
   -7.1227   16.9974  -31.1628 H   0  0  0  0  0  0  0  0  0  0  0  0
   -2.4865   15.7205  -33.6223 H   0  0  0  0  0  0  0  0  0  0  0  0
   -2.6318   17.1762  -34.6654 H   0  0  0  0  0  0  0  0  0  0  0  0
   -0.8500   16.9303  -32.1807 H   0  0  0  0  0  0  0  0  0  0  0  0
   -0.2858   16.8384  -33.8801 H   0  0  0  0  0  0  0  0  0  0  0  0
    1.1553   18.8271  -33.6941 H   0  0  0  0  0  0  0  0  0  0  0  0
    1.2263   21.3127  -33.9230 H   0  0  0  0  0  0  0  0  0  0  0  0
   -0.8392   22.6644  -33.5690 H   0  0  0  0  0  0  0  0  0  0  0  0
   -2.9890   21.5326  -32.9976 H   0  0  0  0  0  0  0  0  0  0  0  0
   -3.7745   19.1959  -31.7140 H   0  0  0  0  0  0  0  0  0  0  0  0
   -4.1667   19.1681  -33.5093 H   0  0  0  0  0  0  0  0  0  0  0  0
   -5.7254   19.1616  -34.6411 H   0  0  0  0  0  0  0  0  0  0  0  0
   -7.3915   20.9559  -34.1966 H   0  0  0  0  0  0  0  0  0  0  0  0
   -8.0142   23.2879  -29.4728 H   0  0  0  0  0  0  0  0  0  0  0  0
   -5.7418   23.8232  -28.5920 H   0  0  0  0  0  0  0  0  0  0  0  0
   -1.0375   22.8488  -31.0580 H   0  0  0  0  0  0  0  0  0  0  0  0
   -0.6116   23.6457  -29.4974 H   0  0  0  0  0  0  0  0  0  0  0  0
    0.6064   21.4253  -30.1064 H   0  0  0  0  0  0  0  0  0  0  0  0
   -0.0749   21.5873  -28.4557 H   0  0  0  0  0  0  0  0  0  0  0  0
   -2.8726   19.5422  -29.0675 H   0  0  0  0  0  0  0  0  0  0  0  0
   -1.6693   20.1065  -27.8113 H   0  0  0  0  0  0  0  0  0  0  0  0
   -4.0004   21.4629  -28.7656 H   0  0  0  0  0  0  0  0  0  0  0  0
   -2.7416   22.0176  -27.5768 H   0  0  0  0  0  0  0  0  0  0  0  0
   -4.0333   22.9769  -32.4831 H   0  0  0  0  0  0  0  0  0  0  0  0
   -6.3055   22.4452  -33.3645 H   0  0  0  0  0  0  0  0  0  0  0  0
  1  2  1  0
  2  3  1  0
  3  4  2  0
  3  5  1  0
  5  6  2  0
  6  7  1  0
  7  8  2  0
  8  9  1  0
  9 10  2  0
  9 11  2  0
  9 12  1  0
 12 13  1  0
 13 14  1  0
 14 15  1  0
 15 16  2  0
 16 17  1  0
 17 18  2  0
 18 19  1  0
 19 20  2  0
 20 21  1  0
  8 22  1  0
 22 23  2  0
  2 24  1  0
 24 25  2  0
 25 26  1  0
 26 27  2  0
 27 28  1  0
 28 29  2  0
 28 30  1  0
 30 31  1  0
 31 32  1  0
 32 33  1  0
 33 34  1  0
 34 35  1  0
 27 36  1  0
 36 37  2  0
 23  5  1  0
 37 24  1  0
 21 12  1  0
 35 30  1  0
 20 15  1  0
  1 38  1  0
  1 39  1  0
  1 40  1  0
  6 41  1  0
  7 42  1  0
 13 43  1  0
 13 44  1  0
 14 45  1  0
 14 46  1  0
 16 47  1  0
 17 48  1  0
 18 49  1  0
 19 50  1  0
 21 51  1  0
 21 52  1  0
 22 53  1  0
 23 54  1  0
 25 55  1  0
 26 56  1  0
 31 57  1  0
 31 58  1  0
 32 59  1  0
 32 60  1  0
 34 61  1  0
 34 62  1  0
 35 63  1  0
 35 64  1  0
 36 65  1  0
 37 66  1  0
M  END
>  <UniqueID>  (5) 
5

>  <SMILES>  (5) 
CN(C(=O)c1ccc(S(=O)(=O)N2CCc3ccccc3C2)cc1)c1ccc(C(=O)N2CCOCC2)cc1

>  <Energy>  (5) 
100.10048994827545

>  <Genealogy>  (5) 
CN(C(=O)c1ccc(S(=O)(=O)N2CCc3ccccc3C2)cc1)c1ccc(C(=O)N2CCOCC2)cc1 (3D coordinates assigned)
CN(C(=O)c1ccc(S(=O)(=O)N2CCc3ccccc3C2)cc1)c1ccc(C(=O)N2CCOCC2)cc1 (nonaromatic ring conformer: 100.10048994827545 kcal/mol)

>  <smiles>  (5) 
CN(C(=O)c1ccc(S(=O)(=O)N2CCc3ccccc3C2)cc1)c1ccc(C(=O)N2CCOCC2)cc1

>  <score_type>  (5) 
oracle

>  <origin>  (5) 
adgpu

>  <m_score__min__energy>  (5) 
-11.529999999999999

>  <m_primary>  (5) 
energy

$$$$
5:0
     RDKit          3D

 54 57  0  0  0  0  0  0  0  0999 V2000
    0.0730   19.8930  -28.4130 C   0  0  0  0  0  0  0  0  0  0  0  0
   -0.4670   20.3850  -27.1310 N   0  0  0  0  0  0  0  0  0  0  0  0
   -1.8910   20.0370  -26.9460 C   0  0  0  0  0  0  0  0  0  0  0  0
   -2.8070   20.7290  -27.9680 C   0  0  0  0  0  0  0  0  0  0  0  0
   -2.4030   22.1520  -28.2530 C   0  0  0  0  0  0  0  0  0  0  0  0
   -3.2240   22.9370  -29.0740 C   0  0  0  0  0  0  0  0  0  0  0  0
   -2.8220   24.2190  -29.4740 C   0  0  0  0  0  0  0  0  0  0  0  0
   -3.5750   24.9630  -30.4440 N   0  0  0  0  0  0  0  0  0  0  0  0
   -5.3030   25.0960  -30.3830 S   0  0  0  0  0  0  0  0  0  0  0  0
   -5.7430   25.2970  -28.9600 O   0  0  0  0  0  0  0  0  0  0  0  0
   -5.7440   26.2750  -31.2040 O   0  0  0  0  0  0  0  0  0  0  0  0
   -6.0140   23.6310  -31.0630 C   0  0  0  0  0  0  0  0  0  0  0  0
   -7.4050   23.5290  -31.1690 C   0  0  0  0  0  0  0  0  0  0  0  0
   -7.9810   22.4460  -31.8320 C   0  0  0  0  0  0  0  0  0  0  0  0
   -7.1790   21.4520  -32.4030 C   0  0  0  0  0  0  0  0  0  0  0  0
   -7.8100   20.4310  -33.1180 O   0  0  0  0  0  0  0  0  0  0  0  0
   -5.7720   21.5210  -32.2620 C   0  0  0  0  0  0  0  0  0  0  0  0
   -4.7120   20.2780  -32.9440 S   0  0  0  0  0  0  0  0  0  0  0  0
   -5.3800   19.6930  -34.1590 O   0  0  0  0  0  0  0  0  0  0  0  0
   -4.4860   19.1930  -31.9280 O   0  0  0  0  0  0  0  0  0  0  0  0
   -3.1660   20.9540  -33.4120 N   0  0  0  0  0  0  0  0  0  0  0  0
   -2.4440   21.5170  -32.2580 C   0  0  0  0  0  0  0  0  0  0  0  0
   -1.0320   20.9440  -32.2560 C   0  0  0  0  0  0  0  0  0  0  0  0
   -0.8840   20.2590  -33.5940 C   0  0  0  0  0  0  0  0  0  0  0  0
   -2.3040   19.9190  -33.9920 C   0  0  0  0  0  0  0  0  0  0  0  0
   -5.2030   22.6230  -31.6010 C   0  0  0  0  0  0  0  0  0  0  0  0
   -1.6300   24.7520  -28.9690 C   0  0  0  0  0  0  0  0  0  0  0  0
   -1.2370   26.0360  -29.3210 O   0  0  0  0  0  0  0  0  0  0  0  0
   -0.8110   23.9820  -28.1370 C   0  0  0  0  0  0  0  0  0  0  0  0
   -1.1680   22.6670  -27.8130 C   0  0  0  0  0  0  0  0  0  0  0  0
   -0.2470   21.8340  -26.9550 C   0  0  0  0  0  0  0  0  0  0  0  0
    0.8733   19.1639  -28.2181 H   0  0  0  0  0  0  0  0  0  0  0  0
   -0.7307   19.4103  -28.9883 H   0  0  0  0  0  0  0  0  0  0  0  0
    0.4790   20.7381  -28.9883 H   0  0  0  0  0  0  0  0  0  0  0  0
   -2.0041   18.9480  -27.0524 H   0  0  0  0  0  0  0  0  0  0  0  0
   -2.1902   20.3805  -25.9447 H   0  0  0  0  0  0  0  0  0  0  0  0
   -2.7745   20.1604  -28.9091 H   0  0  0  0  0  0  0  0  0  0  0  0
   -3.8191   20.7545  -27.5379 H   0  0  0  0  0  0  0  0  0  0  0  0
   -4.1949   22.5426  -29.4083 H   0  0  0  0  0  0  0  0  0  0  0  0
   -8.0467   24.3059  -30.7278 H   0  0  0  0  0  0  0  0  0  0  0  0
   -9.0760   22.3725  -31.9068 H   0  0  0  0  0  0  0  0  0  0  0  0
   -7.4990   20.1030  -34.0190 H   0  0  0  0  0  0  0  0  0  0  0  0
   -2.4013   22.6128  -32.3437 H   0  0  0  0  0  0  0  0  0  0  0  0
   -2.9611   21.2580  -31.3223 H   0  0  0  0  0  0  0  0  0  0  0  0
   -0.2890   21.7481  -32.1494 H   0  0  0  0  0  0  0  0  0  0  0  0
   -0.8695   20.2507  -31.4176 H   0  0  0  0  0  0  0  0  0  0  0  0
   -0.4230   20.9343  -34.3298 H   0  0  0  0  0  0  0  0  0  0  0  0
   -0.2347   19.3724  -33.5455 H   0  0  0  0  0  0  0  0  0  0  0  0
   -2.3999   19.9167  -35.0878 H   0  0  0  0  0  0  0  0  0  0  0  0
   -2.5873   18.9202  -33.6286 H   0  0  0  0  0  0  0  0  0  0  0  0
   -4.1096   22.6949  -31.5050 H   0  0  0  0  0  0  0  0  0  0  0  0
    0.1185   24.4114  -27.7349 H   0  0  0  0  0  0  0  0  0  0  0  0
    0.7936   22.0681  -27.2242 H   0  0  0  0  0  0  0  0  0  0  0  0
   -0.4576   22.0787  -25.9034 H   0  0  0  0  0  0  0  0  0  0  0  0
  1  2  1  0
  2  3  1  0
  3  4  1  0
  4  5  1  0
  5  6  2  0
  6  7  1  0
  7  8  1  0
  8  9  1  0
  9 10  2  0
  9 11  2  0
  9 12  1  0
 12 13  2  0
 13 14  1  0
 14 15  2  0
 15 16  1  0
 15 17  1  0
 17 18  1  0
 18 19  2  0
 18 20  2  0
 18 21  1  0
 21 22  1  0
 22 23  1  0
 23 24  1  0
 24 25  1  0
 17 26  2  0
  7 27  2  0
 27 28  1  0
 27 29  1  0
 29 30  2  0
 30 31  1  0
 31  2  1  0
 30  5  1  0
 26 12  1  0
 25 21  1  0
  1 32  1  0
  1 33  1  0
  1 34  1  0
  3 35  1  0
  3 36  1  0
  4 37  1  0
  4 38  1  0
  6 39  1  0
 13 40  1  0
 14 41  1  0
 16 42  1  0
 22 43  1  0
 22 44  1  0
 23 45  1  0
 23 46  1  0
 24 47  1  0
 24 48  1  0
 25 49  1  0
 25 50  1  0
 26 51  1  0
 29 52  1  0
 31 53  1  0
 31 54  1  0
M  CHG  2   8  -1  28  -1
M  END
>  <UniqueID>  (6) 
6

>  <SMILES>  (6) 
CN1CCc2cc([N-]S(=O)(=O)c3ccc(O)c(S(=O)(=O)N4CCCC4)c3)c([O-])cc2C1

>  <Energy>  (6) 
68.32144083056924

>  <Genealogy>  (6) 
CN1CCc2cc([N-]S(=O)(=O)c3ccc(O)c(S(=O)(=O)N4CCCC4)c3)c([O-])cc2C1 (protonated)
CN1CCc2cc([N-]S(=O)(=O)c3ccc(O)c(S(=O)(=O)N4CCCC4)c3)c([O-])cc2C1 (3D coordinates assigned)
CN1CCc2cc([N-]S(=O)(=O)c3ccc(O)c(S(=O)(=O)N4CCCC4)c3)c([O-])cc2C1 (nonaromatic ring conformer: 68.32144083056924 kcal/mol)

>  <smiles>  (6) 
CN1CCc2cc(NS(=O)(=O)c3ccc(O)c(S(=O)(=O)N4CCCC4)c3)c(O)cc2C1

>  <score_type>  (6) 
oracle

>  <origin>  (6) 
adgpu

>  <m_score__min__energy>  (6) 
-15.029999999999999

>  <m_primary>  (6) 
energy

$$$$
6:0
     RDKit          3D

 35 37  0  0  0  0  0  0  0  0999 V2000
   -5.4560   24.5860  -30.8260 C   0  0  0  0  0  0  0  0  0  0  0  0
   -4.3110   23.6250  -30.9970 C   0  0  0  0  0  0  0  0  0  0  0  0
   -4.4480   22.5070  -31.8360 C   0  0  0  0  0  0  0  0  0  0  0  0
   -3.3840   21.6090  -32.0100 C   0  0  0  0  0  0  0  0  0  0  0  0
   -3.5570   20.2230  -33.0830 S   0  0  0  0  0  0  0  0  0  0  0  0
   -2.5920   20.3700  -34.2250 O   0  0  0  0  0  0  0  0  0  0  0  0
   -3.2600   18.9440  -32.3500 O   0  0  0  0  0  0  0  0  0  0  0  0
   -5.1730   20.1530  -33.7090 N   0  0  0  0  0  0  0  0  0  0  0  0
   -6.3300   19.7320  -32.9710 C   0  0  0  0  0  0  0  0  0  0  0  0
   -7.2820   20.6520  -32.4910 C   0  0  0  0  0  0  0  0  0  0  0  0
   -8.4070   20.2040  -31.7880 C   0  0  0  0  0  0  0  0  0  0  0  0
   -9.3790   21.1490  -31.3060 C   0  0  0  0  0  0  0  0  0  0  0  0
  -10.1620   21.9090  -30.9190 N   0  0  0  0  0  0  0  0  0  0  0  0
   -8.5840   18.8350  -31.5530 C   0  0  0  0  0  0  0  0  0  0  0  0
   -7.6400   17.9180  -32.0200 C   0  0  0  0  0  0  0  0  0  0  0  0
   -6.5140   18.3610  -32.7280 C   0  0  0  0  0  0  0  0  0  0  0  0
   -5.5750   17.4430  -33.1970 O   0  0  0  0  0  0  0  0  0  0  0  0
   -2.1750   21.8220  -31.3370 C   0  0  0  0  0  0  0  0  0  0  0  0
   -2.0240   22.9320  -30.5030 C   0  0  0  0  0  0  0  0  0  0  0  0
   -0.8500   23.1500  -29.8530 N   0  0  0  0  0  0  0  0  0  0  0  0
   -0.6820   24.2250  -29.0410 C   0  0  0  0  0  0  0  0  0  0  0  0
    0.4190   24.4010  -28.4530 O   0  0  0  0  0  0  0  0  0  0  0  0
   -1.7380   25.1300  -28.8680 C   0  0  0  0  0  0  0  0  0  0  0  0
   -1.6090   26.1350  -28.1190 O   0  0  0  0  0  0  0  0  0  0  0  0
   -2.9140   24.9150  -29.5150 N   0  0  0  0  0  0  0  0  0  0  0  0
   -3.0900   23.8390  -30.3300 C   0  0  0  0  0  0  0  0  0  0  0  0
   -5.6447   24.7444  -29.7540 H   0  0  0  0  0  0  0  0  0  0  0  0
   -5.2028   25.5460  -31.2995 H   0  0  0  0  0  0  0  0  0  0  0  0
   -6.3576   24.1701  -31.2995 H   0  0  0  0  0  0  0  0  0  0  0  0
   -5.3986   22.3337  -32.3617 H   0  0  0  0  0  0  0  0  0  0  0  0
   -7.1411   21.7283  -32.6693 H   0  0  0  0  0  0  0  0  0  0  0  0
   -9.4670   18.4817  -31.0003 H   0  0  0  0  0  0  0  0  0  0  0  0
   -7.7805   16.8434  -31.8315 H   0  0  0  0  0  0  0  0  0  0  0  0
   -4.6540   17.7350  -33.4980 H   0  0  0  0  0  0  0  0  0  0  0  0
   -1.3429   21.1141  -31.4653 H   0  0  0  0  0  0  0  0  0  0  0  0
  1  2  1  0
  2  3  2  0
  3  4  1  0
  4  5  1  0
  5  6  2  0
  5  7  2  0
  5  8  1  0
  8  9  1  0
  9 10  2  0
 10 11  1  0
 11 12  1  0
 12 13  3  0
 11 14  2  0
 14 15  1  0
 15 16  2  0
 16 17  1  0
  4 18  2  0
 18 19  1  0
 19 20  1  0
 20 21  1  0
 21 22  2  0
 21 23  1  0
 23 24  2  0
 23 25  1  0
 25 26  1  0
 26  2  1  0
 16  9  1  0
 26 19  2  0
  1 27  1  0
  1 28  1  0
  1 29  1  0
  3 30  1  0
 10 31  1  0
 14 32  1  0
 15 33  1  0
 17 34  1  0
 18 35  1  0
M  CHG  3   8  -1  20  -1  25  -1
M  END
>  <UniqueID>  (7) 
7

>  <SMILES>  (7) 
Cc1cc(S(=O)(=O)[N-]c2cc(C#N)ccc2O)cc2[n-]c(=O)c(=O)[n-]c12

>  <Energy>  (7) 
44.34999655209123

>  <Genealogy>  (7) 
Cc1cc(S(=O)(=O)[N-]c2cc(C#N)ccc2O)cc2[n-]c(=O)c(=O)[n-]c12 (protonated)
Cc1cc(S(=O)(=O)[N-]c2cc(C#N)ccc2O)cc2[n-]c(=O)c(=O)[n-]c12 (3D coordinates assigned)
Cc1cc(S(=O)(=O)[N-]c2cc(C#N)ccc2O)cc2[n-]c(=O)c(=O)[n-]c12 (optimized conformer: 44.34999655209123 kcal/mol)

>  <smiles>  (7) 
Cc1cc(S(=O)(=O)Nc2cc(C#N)ccc2O)cc2[nH]c(=O)c(=O)[nH]c12

>  <score_type>  (7) 
oracle

>  <origin>  (7) 
adgpu

>  <m_score__min__energy>  (7) 
-11.619999999999999

>  <m_primary>  (7) 
energy

$$$$
7:0
     RDKit          3D

 55 58  0  0  0  0  0  0  0  0999 V2000
   -0.2380   19.1060  -29.2270 C   0  0  0  0  0  0  0  0  0  0  0  0
   -0.0230   19.6650  -27.8780 N   0  0  0  0  0  0  0  0  0  0  0  0
   -1.1130   19.3270  -26.9410 C   0  0  0  0  0  0  0  0  0  0  0  0
   -2.4540   19.9630  -27.3410 C   0  0  0  0  0  0  0  0  0  0  0  0
   -2.3020   21.3950  -27.7830 C   0  0  0  0  0  0  0  0  0  0  0  0
   -3.4530   22.1790  -27.9490 C   0  0  0  0  0  0  0  0  0  0  0  0
   -3.3620   23.4950  -28.4380 C   0  0  0  0  0  0  0  0  0  0  0  0
   -4.5230   24.3240  -28.5800 N   0  0  0  0  0  0  0  0  0  0  0  0
   -5.1930   24.8270  -30.1000 S   0  0  0  0  0  0  0  0  0  0  0  0
   -6.4280   25.6450  -29.8480 O   0  0  0  0  0  0  0  0  0  0  0  0
   -4.1990   25.6770  -30.8450 O   0  0  0  0  0  0  0  0  0  0  0  0
   -5.6350   23.4000  -31.0320 C   0  0  0  0  0  0  0  0  0  0  0  0
   -4.6510   22.5510  -31.5680 C   0  0  0  0  0  0  0  0  0  0  0  0
   -5.0190   21.3800  -32.2390 C   0  0  0  0  0  0  0  0  0  0  0  0
   -6.3750   21.0490  -32.3840 C   0  0  0  0  0  0  0  0  0  0  0  0
   -6.8230   19.5460  -33.1880 S   0  0  0  0  0  0  0  0  0  0  0  0
   -6.4810   19.6320  -34.6520 O   0  0  0  0  0  0  0  0  0  0  0  0
   -8.3090   19.3610  -33.0480 O   0  0  0  0  0  0  0  0  0  0  0  0
   -5.9740   18.2040  -32.4430 N   0  0  0  0  0  0  0  0  0  0  0  0
   -4.5430   18.1770  -32.8260 C   0  0  0  0  0  0  0  0  0  0  0  0
   -4.2410   17.1410  -33.9230 C   0  0  0  0  0  0  0  0  0  0  0  0
   -5.3300   17.0430  -34.8150 O   0  0  0  0  0  0  0  0  0  0  0  0
   -6.4420   16.4440  -34.1710 C   0  0  0  0  0  0  0  0  0  0  0  0
   -6.6500   16.9210  -32.7130 C   0  0  0  0  0  0  0  0  0  0  0  0
   -7.3590   21.9060  -31.8620 C   0  0  0  0  0  0  0  0  0  0  0  0
   -6.9890   23.0730  -31.1860 C   0  0  0  0  0  0  0  0  0  0  0  0
   -2.1070   24.0160  -28.7800 C   0  0  0  0  0  0  0  0  0  0  0  0
   -2.0060   25.3200  -29.2640 O   0  0  0  0  0  0  0  0  0  0  0  0
   -0.9540   23.2340  -28.6220 C   0  0  0  0  0  0  0  0  0  0  0  0
   -1.0440   21.9210  -28.1380 C   0  0  0  0  0  0  0  0  0  0  0  0
    0.2210   21.1220  -27.9170 C   0  0  0  0  0  0  0  0  0  0  0  0
   -0.6317   18.0824  -29.1413 H   0  0  0  0  0  0  0  0  0  0  0  0
   -0.9596   19.7319  -29.7725 H   0  0  0  0  0  0  0  0  0  0  0  0
    0.7170   19.0871  -29.7725 H   0  0  0  0  0  0  0  0  0  0  0  0
   -1.2337   18.2338  -26.9203 H   0  0  0  0  0  0  0  0  0  0  0  0
   -0.8378   19.7232  -25.9524 H   0  0  0  0  0  0  0  0  0  0  0  0
   -2.8874   19.3821  -28.1685 H   0  0  0  0  0  0  0  0  0  0  0  0
   -3.1069   19.9531  -26.4558 H   0  0  0  0  0  0  0  0  0  0  0  0
   -4.4377   21.7603  -27.6940 H   0  0  0  0  0  0  0  0  0  0  0  0
   -3.5871   22.8086  -31.4593 H   0  0  0  0  0  0  0  0  0  0  0  0
   -4.2445   20.7179  -32.6535 H   0  0  0  0  0  0  0  0  0  0  0  0
   -4.2587   19.1734  -33.1952 H   0  0  0  0  0  0  0  0  0  0  0  0
   -3.9656   17.8937  -31.9336 H   0  0  0  0  0  0  0  0  0  0  0  0
   -3.3435   17.4511  -34.4783 H   0  0  0  0  0  0  0  0  0  0  0  0
   -4.0726   16.1605  -33.4536 H   0  0  0  0  0  0  0  0  0  0  0  0
   -7.3476   16.6844  -34.7473 H   0  0  0  0  0  0  0  0  0  0  0  0
   -6.2445   15.3627  -34.1297 H   0  0  0  0  0  0  0  0  0  0  0  0
   -7.7279   17.0437  -32.5311 H   0  0  0  0  0  0  0  0  0  0  0  0
   -6.2142   16.1634  -32.0452 H   0  0  0  0  0  0  0  0  0  0  0  0
   -8.4235   21.6581  -31.9855 H   0  0  0  0  0  0  0  0  0  0  0  0
   -7.7634   23.7365  -30.7737 H   0  0  0  0  0  0  0  0  0  0  0  0
   -2.6220   25.6680  -29.9930 H   0  0  0  0  0  0  0  0  0  0  0  0
    0.0294   23.6540  -28.8799 H   0  0  0  0  0  0  0  0  0  0  0  0
    0.9220   21.3394  -28.7364 H   0  0  0  0  0  0  0  0  0  0  0  0
    0.6326   21.4158  -26.9401 H   0  0  0  0  0  0  0  0  0  0  0  0
  1  2  1  0
  2  3  1  0
  3  4  1  0
  4  5  1  0
  5  6  2  0
  6  7  1  0
  7  8  1  0
  8  9  1  0
  9 10  2  0
  9 11  2  0
  9 12  1  0
 12 13  2  0
 13 14  1  0
 14 15  2  0
 15 16  1  0
 16 17  2  0
 16 18  2  0
 16 19  1  0
 19 20  1  0
 20 21  1  0
 21 22  1  0
 22 23  1  0
 23 24  1  0
 15 25  1  0
 25 26  2  0
  7 27  2  0
 27 28  1  0
 27 29  1  0
 29 30  2  0
 30 31  1  0
 31  2  1  0
 30  5  1  0
 26 12  1  0
 24 19  1  0
  1 32  1  0
  1 33  1  0
  1 34  1  0
  3 35  1  0
  3 36  1  0
  4 37  1  0
  4 38  1  0
  6 39  1  0
 13 40  1  0
 14 41  1  0
 20 42  1  0
 20 43  1  0
 21 44  1  0
 21 45  1  0
 23 46  1  0
 23 47  1  0
 24 48  1  0
 24 49  1  0
 25 50  1  0
 26 51  1  0
 28 52  1  0
 29 53  1  0
 31 54  1  0
 31 55  1  0
M  CHG  1   8  -1
M  END
>  <UniqueID>  (8) 
8

>  <SMILES>  (8) 
CN1CCc2cc([N-]S(=O)(=O)c3ccc(S(=O)(=O)N4CCOCC4)cc3)c(O)cc2C1

>  <Energy>  (8) 
76.99165555143226

>  <Genealogy>  (8) 
CN1CCc2cc([N-]S(=O)(=O)c3ccc(S(=O)(=O)N4CCOCC4)cc3)c(O)cc2C1 (protonated)
CN1CCc2cc([N-]S(=O)(=O)c3ccc(S(=O)(=O)N4CCOCC4)cc3)c(O)cc2C1 (3D coordinates assigned)
CN1CCc2cc([N-]S(=O)(=O)c3ccc(S(=O)(=O)N4CCOCC4)cc3)c(O)cc2C1 (nonaromatic ring conformer: 76.99165555143226 kcal/mol)

>  <smiles>  (8) 
CN1CCc2cc(NS(=O)(=O)c3ccc(S(=O)(=O)N4CCOCC4)cc3)c(O)cc2C1

>  <score_type>  (8) 
oracle

>  <origin>  (8) 
adgpu

>  <m_score__min__energy>  (8) 
-13.119999999999999

>  <m_primary>  (8) 
energy

$$$$
8:0
     RDKit          3D

 49 51  0  0  0  0  0  0  0  0999 V2000
    1.8760   24.8960  -27.5850 C   0  0  0  0  0  0  0  0  0  0  0  0
    0.7660   24.2720  -28.2210 O   0  0  0  0  0  0  0  0  0  0  0  0
   -0.0140   23.2520  -27.6490 C   0  0  0  0  0  0  0  0  0  0  0  0
   -0.0100   23.0130  -26.2600 C   0  0  0  0  0  0  0  0  0  0  0  0
   -0.7790   21.9850  -25.7170 C   0  0  0  0  0  0  0  0  0  0  0  0
   -1.5530   21.1760  -26.5470 C   0  0  0  0  0  0  0  0  0  0  0  0
   -1.5690   21.3990  -27.9230 C   0  0  0  0  0  0  0  0  0  0  0  0
   -0.8200   22.4520  -28.4900 C   0  0  0  0  0  0  0  0  0  0  0  0
   -0.8000   22.6750  -29.9920 C   0  0  0  0  0  0  0  0  0  0  0  0
   -2.0950   22.2810  -30.6950 C   0  0  0  0  0  0  0  0  0  0  0  0
   -3.2470   23.1200  -30.5850 C   0  0  0  0  0  0  0  0  0  0  0  0
   -3.3480   24.5710  -29.5500 S   0  0  0  0  0  0  0  0  0  0  0  0
   -4.0870   24.1600  -27.9820 C   0  0  0  0  0  0  0  0  0  0  0  0
   -4.2260   25.5900  -30.2220 O   0  0  0  0  0  0  0  0  0  0  0  0
   -2.0080   25.2120  -29.3270 O   0  0  0  0  0  0  0  0  0  0  0  0
   -4.4070   22.7880  -31.2890 C   0  0  0  0  0  0  0  0  0  0  0  0
   -4.4390   21.6980  -32.1400 C   0  0  0  0  0  0  0  0  0  0  0  0
   -3.3320   20.8670  -32.2830 C   0  0  0  0  0  0  0  0  0  0  0  0
   -3.4870   19.5710  -33.5320 S   0  0  0  0  0  0  0  0  0  0  0  0
   -5.1820   19.1890  -33.0850 C   0  0  0  0  0  0  0  0  0  0  0  0
   -5.4550   18.1430  -32.1950 C   0  0  0  0  0  0  0  0  0  0  0  0
   -6.7760   17.8480  -31.8440 C   0  0  0  0  0  0  0  0  0  0  0  0
   -7.8280   18.5930  -32.3870 C   0  0  0  0  0  0  0  0  0  0  0  0
   -9.4850   18.2220  -31.9470 Cl  0  0  0  0  0  0  0  0  0  0  0  0
   -7.5570   19.6300  -33.2870 C   0  0  0  0  0  0  0  0  0  0  0  0
   -6.2370   19.9250  -33.6390 C   0  0  0  0  0  0  0  0  0  0  0  0
   -2.1670   21.0840  -31.4920 C   0  0  0  0  0  0  0  0  0  0  0  0
   -0.9960   20.0960  -31.5270 C   0  0  0  0  0  0  0  0  0  0  0  0
   -0.0020   20.5880  -32.3510 F   0  0  0  0  0  0  0  0  0  0  0  0
   -1.3570   18.8410  -31.9760 F   0  0  0  0  0  0  0  0  0  0  0  0
   -0.4810   19.9020  -30.2580 F   0  0  0  0  0  0  0  0  0  0  0  0
    1.7580   24.8297  -26.4934 H   0  0  0  0  0  0  0  0  0  0  0  0
    2.8040   24.3874  -27.8851 H   0  0  0  0  0  0  0  0  0  0  0  0
    1.9238   25.9532  -27.8851 H   0  0  0  0  0  0  0  0  0  0  0  0
    0.6045   23.6424  -25.5995 H   0  0  0  0  0  0  0  0  0  0  0  0
   -0.7750   21.8118  -24.6307 H   0  0  0  0  0  0  0  0  0  0  0  0
   -2.1521   20.3604  -26.1157 H   0  0  0  0  0  0  0  0  0  0  0  0
   -2.1715   20.7477  -28.5732 H   0  0  0  0  0  0  0  0  0  0  0  0
   -0.6150   23.7428  -30.1807 H   0  0  0  0  0  0  0  0  0  0  0  0
   -0.0078   22.0295  -30.3990 H   0  0  0  0  0  0  0  0  0  0  0  0
   -3.4414   24.5191  -27.1670 H   0  0  0  0  0  0  0  0  0  0  0  0
   -5.0745   24.6385  -27.9054 H   0  0  0  0  0  0  0  0  0  0  0  0
   -4.2014   23.0687  -27.9054 H   0  0  0  0  0  0  0  0  0  0  0  0
   -5.3100   23.4037  -31.1645 H   0  0  0  0  0  0  0  0  0  0  0  0
   -5.3537   21.4848  -32.7126 H   0  0  0  0  0  0  0  0  0  0  0  0
   -4.6292   17.5526  -31.7714 H   0  0  0  0  0  0  0  0  0  0  0  0
   -6.9880   17.0295  -31.1404 H   0  0  0  0  0  0  0  0  0  0  0  0
   -8.3839   20.2136  -33.7178 H   0  0  0  0  0  0  0  0  0  0  0  0
   -6.0265   20.7359  -34.3518 H   0  0  0  0  0  0  0  0  0  0  0  0
  1  2  1  0
  2  3  1  0
  3  4  2  0
  4  5  1  0
  5  6  2  0
  6  7  1  0
  7  8  2  0
  8  9  1  0
  9 10  1  0
 10 11  2  0
 11 12  1  0
 12 13  1  0
 12 14  2  0
 12 15  2  0
 11 16  1  0
 16 17  2  0
 17 18  1  0
 18 19  1  0
 19 20  1  0
 20 21  2  0
 21 22  1  0
 22 23  2  0
 23 24  1  0
 23 25  1  0
 25 26  2  0
 18 27  2  0
 27 28  1  0
 28 29  1  0
 28 30  1  0
 28 31  1  0
  8  3  1  0
 27 10  1  0
 26 20  1  0
  1 32  1  0
  1 33  1  0
  1 34  1  0
  4 35  1  0
  5 36  1  0
  6 37  1  0
  7 38  1  0
  9 39  1  0
  9 40  1  0
 13 41  1  0
 13 42  1  0
 13 43  1  0
 16 44  1  0
 17 45  1  0
 21 46  1  0
 22 47  1  0
 25 48  1  0
 26 49  1  0
M  END
>  <UniqueID>  (9) 
9

>  <SMILES>  (9) 
COc1ccccc1Cc1c(S(C)(=O)=O)ccc(Sc2ccc(Cl)cc2)c1C(F)(F)F

>  <Energy>  (9) 
60.44527089732654

>  <Genealogy>  (9) 
COc1ccccc1Cc1c(S(C)(=O)=O)ccc(Sc2ccc(Cl)cc2)c1C(F)(F)F (3D coordinates assigned)
COc1ccccc1Cc1c(S(C)(=O)=O)ccc(Sc2ccc(Cl)cc2)c1C(F)(F)F (optimized conformer: 60.44527089732654 kcal/mol)

>  <smiles>  (9) 
COc1ccccc1Cc1c(S(C)(=O)=O)ccc(Sc2ccc(Cl)cc2)c1C(F)(F)F

>  <score_type>  (9) 
oracle

>  <origin>  (9) 
adgpu

>  <m_score__min__energy>  (9) 
-9.1400000000000006

>  <m_primary>  (9) 
energy

$$$$
9:0
     RDKit          3D

 61 64  0  0  0  0  0  0  0  0999 V2000
   -4.9730   15.0220  -32.5280 C   0  0  0  0  0  0  0  0  0  0  0  0
   -5.7360   15.9690  -33.4070 C   0  0  0  0  0  0  0  0  0  0  0  0
   -6.2170   15.5340  -34.4880 O   0  0  0  0  0  0  0  0  0  0  0  0
   -5.9010   17.3600  -33.0520 N   0  0  0  0  0  0  0  0  0  0  0  0
   -5.0500   17.9600  -32.0090 C   0  0  0  0  0  0  0  0  0  0  0  0
   -5.1300   19.4900  -32.0250 C   0  0  0  0  0  0  0  0  0  0  0  0
   -6.5330   19.9270  -32.0490 N   0  0  0  0  0  0  0  0  0  0  0  0
   -6.9810   21.0170  -31.2220 C   0  0  0  0  0  0  0  0  0  0  0  0
   -8.0970   20.9290  -30.6400 O   0  0  0  0  0  0  0  0  0  0  0  0
   -6.1750   22.2490  -31.0550 C   0  0  0  0  0  0  0  0  0  0  0  0
   -6.5090   23.4110  -31.7670 C   0  0  0  0  0  0  0  0  0  0  0  0
   -5.7340   24.5640  -31.6390 C   0  0  0  0  0  0  0  0  0  0  0  0
   -4.6150   24.5730  -30.8010 C   0  0  0  0  0  0  0  0  0  0  0  0
   -3.8630   25.7380  -30.6900 O   0  0  0  0  0  0  0  0  0  0  0  0
   -4.2580   23.4180  -30.0790 C   0  0  0  0  0  0  0  0  0  0  0  0
   -3.1030   23.4410  -29.2180 N   0  0  0  0  0  0  0  0  0  0  0  0
   -3.1860   23.3280  -27.4860 S   0  0  0  0  0  0  0  0  0  0  0  0
   -4.6050   23.5920  -27.0640 O   0  0  0  0  0  0  0  0  0  0  0  0
   -2.7870   21.9560  -27.0160 O   0  0  0  0  0  0  0  0  0  0  0  0
   -2.1060   24.5290  -26.7510 C   0  0  0  0  0  0  0  0  0  0  0  0
   -2.6020   25.2710  -25.6630 C   0  0  0  0  0  0  0  0  0  0  0  0
   -1.8240   26.2530  -25.0520 C   0  0  0  0  0  0  0  0  0  0  0  0
   -0.5400   26.5170  -25.5180 C   0  0  0  0  0  0  0  0  0  0  0  0
   -0.0240   25.7910  -26.5900 C   0  0  0  0  0  0  0  0  0  0  0  0
   -0.7810   24.7800  -27.2110 C   0  0  0  0  0  0  0  0  0  0  0  0
   -0.0050   23.9190  -28.5630 S   0  0  0  0  0  0  0  0  0  0  0  0
   -0.5280   24.3470  -29.9040 O   0  0  0  0  0  0  0  0  0  0  0  0
    1.4760   24.1710  -28.5140 O   0  0  0  0  0  0  0  0  0  0  0  0
   -0.3300   22.1930  -28.4170 C   0  0  0  0  0  0  0  0  0  0  0  0
   -0.0470   21.5390  -27.2100 C   0  0  0  0  0  0  0  0  0  0  0  0
   -0.2830   20.1670  -27.0820 C   0  0  0  0  0  0  0  0  0  0  0  0
   -0.8030   19.4440  -28.1590 C   0  0  0  0  0  0  0  0  0  0  0  0
   -1.0850   20.0900  -29.3660 C   0  0  0  0  0  0  0  0  0  0  0  0
   -0.8480   21.4620  -29.4980 C   0  0  0  0  0  0  0  0  0  0  0  0
   -5.0380   22.2570  -30.2270 C   0  0  0  0  0  0  0  0  0  0  0  0
   -7.5160   19.2150  -32.8760 C   0  0  0  0  0  0  0  0  0  0  0  0
   -6.8420   18.2020  -33.8060 C   0  0  0  0  0  0  0  0  0  0  0  0
   -5.1677   15.2637  -31.4727 H   0  0  0  0  0  0  0  0  0  0  0  0
   -5.2954   13.9906  -32.7335 H   0  0  0  0  0  0  0  0  0  0  0  0
   -3.8966   15.1176  -32.7335 H   0  0  0  0  0  0  0  0  0  0  0  0
   -5.3811   17.5957  -31.0253 H   0  0  0  0  0  0  0  0  0  0  0  0
   -4.0078   17.6685  -32.2063 H   0  0  0  0  0  0  0  0  0  0  0  0
   -4.6412   19.8884  -31.1237 H   0  0  0  0  0  0  0  0  0  0  0  0
   -4.6227   19.8655  -32.9259 H   0  0  0  0  0  0  0  0  0  0  0  0
   -7.3869   23.4129  -32.4299 H   0  0  0  0  0  0  0  0  0  0  0  0
   -6.0047   25.4705  -32.2002 H   0  0  0  0  0  0  0  0  0  0  0  0
   -2.1720   23.6880  -29.6210 H   0  0  0  0  0  0  0  0  0  0  0  0
   -3.6176   25.0733  -25.2896 H   0  0  0  0  0  0  0  0  0  0  0  0
   -2.2261   26.8203  -24.1997 H   0  0  0  0  0  0  0  0  0  0  0  0
    0.0683   27.2991  -25.0402 H   0  0  0  0  0  0  0  0  0  0  0  0
    0.9896   26.0114  -26.9560 H   0  0  0  0  0  0  0  0  0  0  0  0
    0.3619   22.1068  -26.3612 H   0  0  0  0  0  0  0  0  0  0  0  0
   -0.0594   19.6566  -26.1336 H   0  0  0  0  0  0  0  0  0  0  0  0
   -0.9906   18.3650  -28.0567 H   0  0  0  0  0  0  0  0  0  0  0  0
   -1.4936   19.5189  -30.2127 H   0  0  0  0  0  0  0  0  0  0  0  0
   -1.0676   21.9687  -30.4493 H   0  0  0  0  0  0  0  0  0  0  0  0
   -4.7546   21.3415  -29.6871 H   0  0  0  0  0  0  0  0  0  0  0  0
   -8.2181   18.6828  -32.2173 H   0  0  0  0  0  0  0  0  0  0  0  0
   -8.0433   19.9543  -33.4968 H   0  0  0  0  0  0  0  0  0  0  0  0
   -7.6114   17.5639  -34.2652 H   0  0  0  0  0  0  0  0  0  0  0  0
   -6.2880   18.7465  -34.5848 H   0  0  0  0  0  0  0  0  0  0  0  0
  1  2  1  0
  2  3  2  0
  2  4  1  0
  4  5  1  0
  5  6  1  0
  6  7  1  0
  7  8  1  0
  8  9  2  0
  8 10  1  0
 10 11  2  0
 11 12  1  0
 12 13  2  0
 13 14  1  0
 13 15  1  0
 15 16  1  0
 16 17  1  0
 17 18  2  0
 17 19  2  0
 17 20  1  0
 20 21  2  0
 21 22  1  0
 22 23  2  0
 23 24  1  0
 24 25  2  0
 25 26  1  0
 26 27  2  0
 26 28  2  0
 26 29  1  0
 29 30  2  0
 30 31  1  0
 31 32  2  0
 32 33  1  0
 33 34  2  0
 15 35  2  0
  7 36  1  0
 36 37  1  0
 37  4  1  0
 35 10  1  0
 25 20  1  0
 34 29  1  0
  1 38  1  0
  1 39  1  0
  1 40  1  0
  5 41  1  0
  5 42  1  0
  6 43  1  0
  6 44  1  0
 11 45  1  0
 12 46  1  0
 16 47  1  0
 21 48  1  0
 22 49  1  0
 23 50  1  0
 24 51  1  0
 30 52  1  0
 31 53  1  0
 32 54  1  0
 33 55  1  0
 34 56  1  0
 35 57  1  0
 36 58  1  0
 36 59  1  0
 37 60  1  0
 37 61  1  0
M  CHG  1  14  -1
M  END
>  <UniqueID>  (10) 
10

>  <SMILES>  (10) 
CC(=O)N1CCN(C(=O)c2ccc([O-])c(NS(=O)(=O)c3ccccc3S(=O)(=O)c3ccccc3)c2)CC1

>  <Energy>  (10) 
79.58616613109018

>  <Genealogy>  (10) 
CC(=O)N1CCN(C(=O)c2ccc([O-])c(NS(=O)(=O)c3ccccc3S(=O)(=O)c3ccccc3)c2)CC1 (protonated)
CC(=O)N1CCN(C(=O)c2ccc([O-])c(NS(=O)(=O)c3ccccc3S(=O)(=O)c3ccccc3)c2)CC1 (3D coordinates assigned)
CC(=O)N1CCN(C(=O)c2ccc([O-])c(NS(=O)(=O)c3ccccc3S(=O)(=O)c3ccccc3)c2)CC1 (nonaromatic ring conformer: 79.58616613109018 kcal/mol)

>  <smiles>  (10) 
CC(=O)N1CCN(C(=O)c2ccc(O)c(NS(=O)(=O)c3ccccc3S(=O)(=O)c3ccccc3)c2)CC1

>  <score_type>  (10) 
oracle

>  <origin>  (10) 
adgpu

>  <m_score__min__energy>  (10) 
-14.640000000000001

>  <m_primary>  (10) 
energy

$$$$
10:0
     RDKit          3D

 61 64  0  0  0  0  0  0  0  0999 V2000
   -1.3470   22.6280  -30.8350 C   0  0  0  0  0  0  0  0  0  0  0  0
   -2.6710   23.0840  -31.0990 O   0  0  0  0  0  0  0  0  0  0  0  0
   -3.7530   22.2480  -31.4230 C   0  0  0  0  0  0  0  0  0  0  0  0
   -3.5600   20.9740  -31.9930 C   0  0  0  0  0  0  0  0  0  0  0  0
   -4.6550   20.1690  -32.3140 C   0  0  0  0  0  0  0  0  0  0  0  0
   -5.9570   20.6230  -32.0800 C   0  0  0  0  0  0  0  0  0  0  0  0
   -7.3400   19.6030  -32.4810 S   0  0  0  0  0  0  0  0  0  0  0  0
   -8.2230   20.3280  -33.4590 O   0  0  0  0  0  0  0  0  0  0  0  0
   -8.1410   19.3450  -31.2350 O   0  0  0  0  0  0  0  0  0  0  0  0
   -6.8380   18.0770  -33.1670 N   0  0  0  0  0  0  0  0  0  0  0  0
   -6.0080   17.3350  -32.2060 C   0  0  0  0  0  0  0  0  0  0  0  0
   -5.7730   15.8950  -32.7030 C   0  0  0  0  0  0  0  0  0  0  0  0
   -5.9220   15.7670  -34.2280 C   0  0  0  0  0  0  0  0  0  0  0  0
   -5.4040   17.0200  -34.9400 C   0  0  0  0  0  0  0  0  0  0  0  0
   -6.1070   18.3000  -34.4310 C   0  0  0  0  0  0  0  0  0  0  0  0
   -6.1560   21.8900  -31.5220 C   0  0  0  0  0  0  0  0  0  0  0  0
   -5.0640   22.6980  -31.1750 C   0  0  0  0  0  0  0  0  0  0  0  0
   -5.3590   24.2760  -30.4330 S   0  0  0  0  0  0  0  0  0  0  0  0
   -6.8390   24.5410  -30.4410 O   0  0  0  0  0  0  0  0  0  0  0  0
   -4.6590   25.3660  -31.1960 O   0  0  0  0  0  0  0  0  0  0  0  0
   -4.7870   24.2900  -28.7930 N   0  0  0  0  0  0  0  0  0  0  0  0
   -3.5570   23.6690  -28.3720 C   0  0  0  0  0  0  0  0  0  0  0  0
   -3.5410   22.3600  -27.8490 C   0  0  0  0  0  0  0  0  0  0  0  0
   -2.3380   21.7780  -27.4280 C   0  0  0  0  0  0  0  0  0  0  0  0
   -1.1490   22.5050  -27.5040 C   0  0  0  0  0  0  0  0  0  0  0  0
   -1.1490   23.8060  -28.0210 C   0  0  0  0  0  0  0  0  0  0  0  0
   -2.3460   24.3850  -28.4580 C   0  0  0  0  0  0  0  0  0  0  0  0
   -2.3240   25.6800  -28.9640 O   0  0  0  0  0  0  0  0  0  0  0  0
    0.1100   21.8350  -27.0310 C   0  0  0  0  0  0  0  0  0  0  0  0
    0.1630   20.4380  -27.5150 N   0  0  0  0  0  0  0  0  0  0  0  0
    0.4210   20.3860  -28.9690 C   0  0  0  0  0  0  0  0  0  0  0  0
   -1.0230   19.6180  -27.1360 C   0  0  0  0  0  0  0  0  0  0  0  0
   -2.3070   20.4200  -26.7840 C   0  0  0  0  0  0  0  0  0  0  0  0
   -1.1880   22.5732  -29.7479 H   0  0  0  0  0  0  0  0  0  0  0  0
   -1.2080   21.6302  -31.2766 H   0  0  0  0  0  0  0  0  0  0  0  0
   -0.6230   23.3286  -31.2766 H   0  0  0  0  0  0  0  0  0  0  0  0
   -2.5398   20.6110  -32.1865 H   0  0  0  0  0  0  0  0  0  0  0  0
   -4.4928   19.1734  -32.7528 H   0  0  0  0  0  0  0  0  0  0  0  0
   -5.0389   17.8434  -32.0950 H   0  0  0  0  0  0  0  0  0  0  0  0
   -6.5275   17.2991  -31.2371 H   0  0  0  0  0  0  0  0  0  0  0  0
   -4.7557   15.5859  -32.4207 H   0  0  0  0  0  0  0  0  0  0  0  0
   -6.5347   15.2522  -32.2375 H   0  0  0  0  0  0  0  0  0  0  0  0
   -5.3478   14.8945  -34.5730 H   0  0  0  0  0  0  0  0  0  0  0  0
   -6.9892   15.6463  -34.4657 H   0  0  0  0  0  0  0  0  0  0  0  0
   -4.3228   17.1113  -34.7591 H   0  0  0  0  0  0  0  0  0  0  0  0
   -5.6170   16.9163  -36.0142 H   0  0  0  0  0  0  0  0  0  0  0  0
   -5.3475   19.0786  -34.2670 H   0  0  0  0  0  0  0  0  0  0  0  0
   -6.8398   18.6052  -35.1925 H   0  0  0  0  0  0  0  0  0  0  0  0
   -7.1795   22.2562  -31.3537 H   0  0  0  0  0  0  0  0  0  0  0  0
   -5.4360   24.6840  -28.0750 H   0  0  0  0  0  0  0  0  0  0  0  0
   -4.4795   21.7915  -27.7709 H   0  0  0  0  0  0  0  0  0  0  0  0
   -0.2085   24.3730  -28.0838 H   0  0  0  0  0  0  0  0  0  0  0  0
    0.9807   22.3856  -27.4167 H   0  0  0  0  0  0  0  0  0  0  0  0
    0.1217   21.8326  -25.9311 H   0  0  0  0  0  0  0  0  0  0  0  0
    1.4854   20.1715  -29.1451 H   0  0  0  0  0  0  0  0  0  0  0  0
   -0.1926   19.5935  -29.4222 H   0  0  0  0  0  0  0  0  0  0  0  0
    0.1623   21.3544  -29.4222 H   0  0  0  0  0  0  0  0  0  0  0  0
   -1.2593   18.9537  -27.9803 H   0  0  0  0  0  0  0  0  0  0  0  0
   -0.7394   19.0841  -26.2170 H   0  0  0  0  0  0  0  0  0  0  0  0
   -3.1831   19.8488  -27.1249 H   0  0  0  0  0  0  0  0  0  0  0  0
   -2.3172   20.5690  -25.6942 H   0  0  0  0  0  0  0  0  0  0  0  0
  1  2  1  0
  2  3  1  0
  3  4  2  0
  4  5  1  0
  5  6  2  0
  6  7  1  0
  7  8  2  0
  7  9  2  0
  7 10  1  0
 10 11  1  0
 11 12  1  0
 12 13  1  0
 13 14  1  0
 14 15  1  0
  6 16  1  0
 16 17  2  0
 17 18  1  0
 18 19  2  0
 18 20  2  0
 18 21  1  0
 21 22  1  0
 22 23  2  0
 23 24  1  0
 24 25  2  0
 25 26  1  0
 26 27  2  0
 27 28  1  0
 25 29  1  0
 29 30  1  0
 30 31  1  0
 30 32  1  0
 32 33  1  0
 17  3  1  0
 27 22  1  0
 15 10  1  0
 33 24  1  0
  1 34  1  0
  1 35  1  0
  1 36  1  0
  4 37  1  0
  5 38  1  0
 11 39  1  0
 11 40  1  0
 12 41  1  0
 12 42  1  0
 13 43  1  0
 13 44  1  0
 14 45  1  0
 14 46  1  0
 15 47  1  0
 15 48  1  0
 16 49  1  0
 21 50  1  0
 23 51  1  0
 26 52  1  0
 29 53  1  0
 29 54  1  0
 31 55  1  0
 31 56  1  0
 31 57  1  0
 32 58  1  0
 32 59  1  0
 33 60  1  0
 33 61  1  0
M  CHG  1  28  -1
M  END
>  <UniqueID>  (11) 
11

>  <SMILES>  (11) 
COc1ccc(S(=O)(=O)N2CCCCC2)cc1S(=O)(=O)Nc1cc2c(cc1[O-])CN(C)CC2

>  <Energy>  (11) 
78.79606257298721

>  <Genealogy>  (11) 
COc1ccc(S(=O)(=O)N2CCCCC2)cc1S(=O)(=O)Nc1cc2c(cc1[O-])CN(C)CC2 (protonated)
COc1ccc(S(=O)(=O)N2CCCCC2)cc1S(=O)(=O)Nc1cc2c(cc1[O-])CN(C)CC2 (3D coordinates assigned)
COc1ccc(S(=O)(=O)N2CCCCC2)cc1S(=O)(=O)Nc1cc2c(cc1[O-])CN(C)CC2 (nonaromatic ring conformer: 78.79606257298721 kcal/mol)

>  <smiles>  (11) 
COc1ccc(S(=O)(=O)N2CCCCC2)cc1S(=O)(=O)Nc1cc2c(cc1O)CN(C)CC2

>  <score_type>  (11) 
oracle

>  <origin>  (11) 
adgpu

>  <m_score__min__energy>  (11) 
-13.449999999999999

>  <m_primary>  (11) 
energy

$$$$
11:0
     RDKit          3D

 57 61  0  0  1  0  0  0  0  0999 V2000
    1.8010   21.7750  -34.4450 O   0  0  0  0  0  0  0  0  0  0  0  0
    1.2180   20.4200  -34.3010 S   0  0  0  0  0  0  0  0  0  0  0  0
    1.3420   19.7020  -35.6260 O   0  0  0  0  0  0  0  0  0  0  0  0
   -0.4860   20.4360  -33.9100 C   0  0  0  0  0  0  0  0  0  0  0  0
   -0.9630   21.5270  -33.2180 C   0  0  0  0  0  0  0  0  0  0  0  0
   -2.3000   21.5850  -32.8880 C   0  0  0  0  0  0  0  0  0  0  0  0
   -3.1980   20.5940  -33.2210 C   0  0  0  0  0  0  0  0  0  0  0  0
   -4.6120   20.6470  -32.8750 C   0  0  0  0  0  0  0  0  0  0  0  0
   -5.1430   21.8030  -32.4440 N   0  0  0  0  0  0  0  0  0  0  0  0
   -6.4430   21.9300  -32.1030 C   0  0  0  0  0  0  0  0  0  0  0  0
   -6.9530   23.0390  -31.6890 N   0  0  0  0  0  0  0  0  0  0  0  0
   -6.1320   24.2280  -31.5670 C   0  0  0  0  0  0  0  0  0  0  0  0
   -5.1420   24.0700  -30.4670 C   0  0  0  0  0  0  0  0  0  0  0  0
   -5.4810   23.2190  -29.4300 C   0  0  0  0  0  0  0  0  0  0  0  0
   -4.5830   23.0520  -28.3940 C   0  0  0  0  0  0  0  0  0  0  0  0
   -3.3680   23.7020  -28.3620 C   0  0  0  0  0  0  0  0  0  0  0  0
   -3.0390   24.5500  -29.4060 C   0  0  0  0  0  0  0  0  0  0  0  0
   -1.8260   25.1880  -29.3580 O   0  0  0  0  0  0  0  0  0  0  0  0
   -3.9290   24.7220  -30.4440 C   0  0  0  0  0  0  0  0  0  0  0  0
   -7.2940   20.8460  -32.1890 C   0  0  0  0  0  0  0  0  0  0  0  0
   -8.6210   20.9800  -31.8400 C   0  0  0  0  0  0  0  0  0  0  0  0
   -9.4470   19.8690  -31.9400 C   0  0  0  0  0  0  0  0  0  0  0  0
   -8.9350   18.6480  -32.3840 C   0  0  0  0  0  0  0  0  0  0  0  0
   -7.5920   18.5750  -32.7200 C   0  0  0  0  0  0  0  0  0  0  0  0
   -6.7430   19.6600  -32.6330 C   0  0  0  0  0  0  0  0  0  0  0  0
   -5.4380   19.5920  -32.9590 N   0  0  0  0  0  0  0  0  0  0  0  0
   -2.6990   19.5110  -33.9140 C   0  0  0  0  0  0  0  0  0  0  0  0
   -1.3460   19.4190  -34.2650 C   0  0  0  0  0  0  0  0  0  0  0  0
    2.0180   19.4600  -33.1320 N   0  0  0  0  0  0  0  0  0  0  0  0
    1.4950   19.6170  -31.8140 C   0  0  0  0  0  0  0  0  0  0  0  0
    1.3630   18.2160  -31.2310 C   0  0  0  0  0  0  0  0  0  0  0  0
    1.1390   17.4190  -32.4990 C   0  0  0  0  0  0  0  0  0  0  0  0
    2.1140   18.0720  -33.4510 C   0  0  0  0  0  0  0  0  0  0  0  0
   -0.2840   22.3437  -32.9316 H   0  0  0  0  0  0  0  0  0  0  0  0
   -2.6667   22.4617  -32.3340 H   0  0  0  0  0  0  0  0  0  0  0  0
   -5.5972   24.3968  -32.5133 H   0  0  0  0  0  0  0  0  0  0  0  0
   -6.7817   25.0859  -31.3391 H   0  0  0  0  0  0  0  0  0  0  0  0
   -6.4440   22.6874  -29.4307 H   0  0  0  0  0  0  0  0  0  0  0  0
   -4.8465   22.3772  -27.5662 H   0  0  0  0  0  0  0  0  0  0  0  0
   -2.6729   23.5500  -27.5231 H   0  0  0  0  0  0  0  0  0  0  0  0
   -1.6130   26.0520  -29.8040 H   0  0  0  0  0  0  0  0  0  0  0  0
   -3.6647   25.3952  -31.2728 H   0  0  0  0  0  0  0  0  0  0  0  0
   -9.0161   21.9452  -31.4903 H   0  0  0  0  0  0  0  0  0  0  0  0
  -10.5098   19.9507  -31.6683 H   0  0  0  0  0  0  0  0  0  0  0  0
   -9.5834   17.7632  -32.4654 H   0  0  0  0  0  0  0  0  0  0  0  0
   -7.1867   17.6141  -33.0699 H   0  0  0  0  0  0  0  0  0  0  0  0
   -5.0860   18.6790  -33.2840 H   0  0  0  0  0  0  0  0  0  0  0  0
   -3.3821   18.6972  -34.1989 H   0  0  0  0  0  0  0  0  0  0  0  0
   -0.9737   18.5442  -34.8182 H   0  0  0  0  0  0  0  0  0  0  0  0
    2.1819   20.2200  -31.2020 H   0  0  0  0  0  0  0  0  0  0  0  0
    0.5242   20.1340  -31.8304 H   0  0  0  0  0  0  0  0  0  0  0  0
    2.2799   17.9034  -30.7098 H   0  0  0  0  0  0  0  0  0  0  0  0
    0.5760   18.1046  -30.4705 H   0  0  0  0  0  0  0  0  0  0  0  0
    1.3759   16.3551  -32.3505 H   0  0  0  0  0  0  0  0  0  0  0  0
    0.0974   17.4280  -32.8526 H   0  0  0  0  0  0  0  0  0  0  0  0
    3.1355   17.7003  -33.2828 H   0  0  0  0  0  0  0  0  0  0  0  0
    1.8873   17.8598  -34.5063 H   0  0  0  0  0  0  0  0  0  0  0  0
  1  2  2  0
  2  3  2  0
  2  4  1  0
  4  5  2  0
  5  6  1  0
  6  7  2  0
  7  8  1  0
  8  9  2  0
  9 10  1  0
 10 11  2  0
 11 12  1  0
 12 13  1  0
 13 14  2  0
 14 15  1  0
 15 16  2  0
 16 17  1  0
 17 18  1  0
 17 19  2  0
 10 20  1  0
 20 21  2  0
 21 22  1  0
 22 23  2  0
 23 24  1  0
 24 25  2  0
 25 26  1  0
  7 27  1  0
 27 28  2  0
  2 29  1  0
 29 30  1  0
 30 31  1  0
 31 32  1  0
 32 33  1  0
 28  4  1  0
 33 29  1  0
 26  8  1  0
 19 13  1  0
 25 20  1  0
  5 34  1  0
  6 35  1  0
 12 36  1  0
 12 37  1  0
 14 38  1  0
 15 39  1  0
 16 40  1  0
 18 41  1  0
 19 42  1  0
 21 43  1  0
 22 44  1  0
 23 45  1  0
 24 46  1  0
 26 47  1  0
 27 48  1  0
 28 49  1  0
 30 50  1  0
 30 51  1  0
 31 52  1  0
 31 53  1  0
 32 54  1  0
 32 55  1  0
 33 56  1  0
 33 57  1  0
M  END
>  <smiles>  (12) 
O=S(=O)(c1ccc(-c2nc(=NCc3cccc(O)c3)c3ccccc3[nH]2)cc1)N1CCCC1

>  <score_type>  (12) 
oracle

>  <origin>  (12) 
adgpu

>  <m_score__min__energy>  (12) 
-10.42

>  <m_primary>  (12) 
energy

$$$$
12:0
     RDKit          3D

 50 53  0  0  0  0  0  0  0  0999 V2000
   -2.1000   21.6010  -31.1270 O   0  0  0  0  0  0  0  0  0  0  0  0
   -2.5650   22.6230  -30.5570 C   0  0  0  0  0  0  0  0  0  0  0  0
   -3.4150   23.5050  -31.3080 N   0  0  0  0  0  0  0  0  0  0  0  0
   -4.8250   23.7010  -31.1150 C   0  0  0  0  0  0  0  0  0  0  0  0
   -5.7440   22.6690  -31.3710 C   0  0  0  0  0  0  0  0  0  0  0  0
   -7.1130   22.8610  -31.1480 C   0  0  0  0  0  0  0  0  0  0  0  0
   -8.2510   21.5400  -31.4270 S   0  0  0  0  0  0  0  0  0  0  0  0
   -8.9860   21.2420  -30.1490 O   0  0  0  0  0  0  0  0  0  0  0  0
   -9.2600   21.9700  -32.4550 O   0  0  0  0  0  0  0  0  0  0  0  0
   -7.4390   20.0990  -31.9850 N   0  0  0  0  0  0  0  0  0  0  0  0
   -6.7210   20.3730  -33.2480 C   0  0  0  0  0  0  0  0  0  0  0  0
   -6.2160   19.0800  -33.9300 C   0  0  0  0  0  0  0  0  0  0  0  0
   -6.2530   17.8830  -32.9770 C   0  0  0  0  0  0  0  0  0  0  0  0
   -7.6670   17.6720  -32.4080 C   0  0  0  0  0  0  0  0  0  0  0  0
   -8.4050   19.0010  -32.1570 C   0  0  0  0  0  0  0  0  0  0  0  0
   -7.5730   24.1060  -30.7020 C   0  0  0  0  0  0  0  0  0  0  0  0
   -6.6700   25.1500  -30.4850 C   0  0  0  0  0  0  0  0  0  0  0  0
   -5.3010   24.9560  -30.6890 C   0  0  0  0  0  0  0  0  0  0  0  0
   -4.4290   26.0190  -30.4500 O   0  0  0  0  0  0  0  0  0  0  0  0
   -2.2040   22.8880  -29.1430 C   0  0  0  0  0  0  0  0  0  0  0  0
   -1.9840   24.2220  -28.7420 C   0  0  0  0  0  0  0  0  0  0  0  0
   -2.1690   25.2690  -29.6390 O   0  0  0  0  0  0  0  0  0  0  0  0
   -1.5480   24.5110  -27.4490 C   0  0  0  0  0  0  0  0  0  0  0  0
   -1.3180   23.4860  -26.5350 C   0  0  0  0  0  0  0  0  0  0  0  0
   -1.5500   22.1520  -26.8950 C   0  0  0  0  0  0  0  0  0  0  0  0
   -1.3310   21.1270  -25.9620 C   0  0  0  0  0  0  0  0  0  0  0  0
   -1.5870   19.7990  -26.3030 C   0  0  0  0  0  0  0  0  0  0  0  0
   -2.0750   19.4830  -27.5700 C   0  0  0  0  0  0  0  0  0  0  0  0
   -2.2980   20.4910  -28.5110 C   0  0  0  0  0  0  0  0  0  0  0  0
   -2.0160   21.8400  -28.2010 C   0  0  0  0  0  0  0  0  0  0  0  0
   -5.3844   21.7011  -31.7502 H   0  0  0  0  0  0  0  0  0  0  0  0
   -7.4032   20.8927  -33.9369 H   0  0  0  0  0  0  0  0  0  0  0  0
   -5.8433   20.9912  -33.0082 H   0  0  0  0  0  0  0  0  0  0  0  0
   -6.8545   18.8631  -34.7990 H   0  0  0  0  0  0  0  0  0  0  0  0
   -5.1719   19.2406  -34.2368 H   0  0  0  0  0  0  0  0  0  0  0  0
   -5.9470   16.9788  -33.5237 H   0  0  0  0  0  0  0  0  0  0  0  0
   -5.5657   18.0803  -32.1411 H   0  0  0  0  0  0  0  0  0  0  0  0
   -8.2501   17.0742  -33.1240 H   0  0  0  0  0  0  0  0  0  0  0  0
   -7.5654   17.1577  -31.4410 H   0  0  0  0  0  0  0  0  0  0  0  0
   -9.0561   19.2220  -33.0156 H   0  0  0  0  0  0  0  0  0  0  0  0
   -9.0068   18.9079  -31.2410 H   0  0  0  0  0  0  0  0  0  0  0  0
   -8.6469   24.2624  -30.5222 H   0  0  0  0  0  0  0  0  0  0  0  0
   -7.0390   26.1311  -30.1514 H   0  0  0  0  0  0  0  0  0  0  0  0
   -3.4890   26.0450  -30.8270 H   0  0  0  0  0  0  0  0  0  0  0  0
   -1.3846   25.5566  -27.1490 H   0  0  0  0  0  0  0  0  0  0  0  0
   -0.9524   23.7248  -25.5254 H   0  0  0  0  0  0  0  0  0  0  0  0
   -0.9558   21.3719  -24.9574 H   0  0  0  0  0  0  0  0  0  0  0  0
   -1.4034   18.9992  -25.5705 H   0  0  0  0  0  0  0  0  0  0  0  0
   -2.2854   18.4351  -27.8300 H   0  0  0  0  0  0  0  0  0  0  0  0
   -2.6970   20.2318  -29.5028 H   0  0  0  0  0  0  0  0  0  0  0  0
  1  2  2  0
  2  3  1  0
  3  4  1  0
  4  5  2  0
  5  6  1  0
  6  7  1  0
  7  8  2  0
  7  9  2  0
  7 10  1  0
 10 11  1  0
 11 12  1  0
 12 13  1  0
 13 14  1  0
 14 15  1  0
  6 16  2  0
 16 17  1  0
 17 18  2  0
 18 19  1  0
  2 20  1  0
 20 21  2  0
 21 22  1  0
 21 23  1  0
 23 24  2  0
 24 25  1  0
 25 26  2  0
 26 27  1  0
 27 28  2  0
 28 29  1  0
 29 30  2  0
 18  4  1  0
 30 20  1  0
 15 10  1  0
 30 25  1  0
  5 31  1  0
 11 32  1  0
 11 33  1  0
 12 34  1  0
 12 35  1  0
 13 36  1  0
 13 37  1  0
 14 38  1  0
 14 39  1  0
 15 40  1  0
 15 41  1  0
 16 42  1  0
 17 43  1  0
 19 44  1  0
 23 45  1  0
 24 46  1  0
 26 47  1  0
 27 48  1  0
 28 49  1  0
 29 50  1  0
M  CHG  2   3  -1  22  -1
M  END
>  <UniqueID>  (13) 
12

>  <SMILES>  (13) 
O=C([N-]c1cc(S(=O)(=O)N2CCCCC2)ccc1O)c1c([O-])ccc2ccccc12

>  <Energy>  (13) 
69.42564836554276

>  <Genealogy>  (13) 
O=C([N-]c1cc(S(=O)(=O)N2CCCCC2)ccc1O)c1c([O-])ccc2ccccc12 (protonated)
O=C([N-]c1cc(S(=O)(=O)N2CCCCC2)ccc1O)c1c([O-])ccc2ccccc12 (3D coordinates assigned)
O=C([N-]c1cc(S(=O)(=O)N2CCCCC2)ccc1O)c1c([O-])ccc2ccccc12 (nonaromatic ring conformer: 69.42564836554276 kcal/mol)

>  <smiles>  (13) 
O=C(Nc1cc(S(=O)(=O)N2CCCCC2)ccc1O)c1c(O)ccc2ccccc12

>  <score_type>  (13) 
oracle

>  <origin>  (13) 
adgpu

>  <m_score__min__energy>  (13) 
-14.5

>  <m_primary>  (13) 
energy

$$$$
13:0
     RDKit          3D

 57 60  0  0  0  0  0  0  0  0999 V2000
   -3.9100   25.4380  -30.3560 O   0  0  0  0  0  0  0  0  0  0  0  0
   -3.4320   24.2920  -30.1520 C   0  0  0  0  0  0  0  0  0  0  0  0
   -3.3330   23.3700  -31.2420 N   0  0  0  0  0  0  0  0  0  0  0  0
   -4.3060   22.3700  -31.5750 C   0  0  0  0  0  0  0  0  0  0  0  0
   -4.0220   21.0290  -31.2970 C   0  0  0  0  0  0  0  0  0  0  0  0
   -4.9550   20.0300  -31.5850 C   0  0  0  0  0  0  0  0  0  0  0  0
   -6.1950   20.3630  -32.1500 C   0  0  0  0  0  0  0  0  0  0  0  0
   -7.3840   19.1050  -32.4980 S   0  0  0  0  0  0  0  0  0  0  0  0
   -8.7090   19.7500  -32.8050 O   0  0  0  0  0  0  0  0  0  0  0  0
   -7.5620   18.2570  -31.2720 O   0  0  0  0  0  0  0  0  0  0  0  0
   -6.9130   18.0840  -33.8380 N   0  0  0  0  0  0  0  0  0  0  0  0
   -6.7230   16.6650  -33.4480 C   0  0  0  0  0  0  0  0  0  0  0  0
   -5.3630   16.0840  -33.8620 C   0  0  0  0  0  0  0  0  0  0  0  0
   -4.2460   17.0510  -33.4780 C   0  0  0  0  0  0  0  0  0  0  0  0
   -4.4220   18.4190  -34.1540 C   0  0  0  0  0  0  0  0  0  0  0  0
   -5.8510   18.6770  -34.6760 C   0  0  0  0  0  0  0  0  0  0  0  0
   -6.5020   21.7090  -32.3890 C   0  0  0  0  0  0  0  0  0  0  0  0
   -5.5650   22.7070  -32.1060 C   0  0  0  0  0  0  0  0  0  0  0  0
   -3.0700   23.8890  -28.8270 N   0  0  0  0  0  0  0  0  0  0  0  0
   -1.7590   24.0000  -28.2530 C   0  0  0  0  0  0  0  0  0  0  0  0
   -1.0140   25.1920  -28.3120 C   0  0  0  0  0  0  0  0  0  0  0  0
   -1.5390   26.3380  -28.9030 O   0  0  0  0  0  0  0  0  0  0  0  0
    0.2540   25.2160  -27.8290 N   0  0  0  0  0  0  0  0  0  0  0  0
    0.8270   24.1030  -27.3030 C   0  0  0  0  0  0  0  0  0  0  0  0
    2.5430   24.1540  -26.7930 S   0  0  0  0  0  0  0  0  0  0  0  0
    2.1760   24.6320  -25.0600 C   0  0  0  0  0  0  0  0  0  0  0  0
    1.0770   25.6620  -24.9770 C   0  0  0  0  0  0  0  0  0  0  0  0
   -0.1750   25.3230  -24.4300 C   0  0  0  0  0  0  0  0  0  0  0  0
   -1.1740   26.2920  -24.3060 C   0  0  0  0  0  0  0  0  0  0  0  0
   -0.9340   27.6030  -24.7290 C   0  0  0  0  0  0  0  0  0  0  0  0
    0.3070   27.9480  -25.2730 C   0  0  0  0  0  0  0  0  0  0  0  0
    1.3110   26.9830  -25.3960 C   0  0  0  0  0  0  0  0  0  0  0  0
    0.1330   22.9390  -27.2480 N   0  0  0  0  0  0  0  0  0  0  0  0
   -1.1400   22.8640  -27.7150 C   0  0  0  0  0  0  0  0  0  0  0  0
   -1.7550   21.7650  -27.6640 O   0  0  0  0  0  0  0  0  0  0  0  0
   -3.0552   20.7585  -30.8475 H   0  0  0  0  0  0  0  0  0  0  0  0
   -4.7164   18.9784  -31.3679 H   0  0  0  0  0  0  0  0  0  0  0  0
   -6.8130   16.5912  -32.3542 H   0  0  0  0  0  0  0  0  0  0  0  0
   -7.4933   16.0826  -33.9747 H   0  0  0  0  0  0  0  0  0  0  0  0
   -5.2057   15.1233  -33.3499 H   0  0  0  0  0  0  0  0  0  0  0  0
   -5.3510   15.9312  -34.9513 H   0  0  0  0  0  0  0  0  0  0  0  0
   -4.2533   17.1890  -32.3867 H   0  0  0  0  0  0  0  0  0  0  0  0
   -3.2905   16.6224  -33.8146 H   0  0  0  0  0  0  0  0  0  0  0  0
   -4.1736   19.2019  -33.4223 H   0  0  0  0  0  0  0  0  0  0  0  0
   -3.7545   18.4324  -35.0282 H   0  0  0  0  0  0  0  0  0  0  0  0
   -6.0120   19.7643  -34.7203 H   0  0  0  0  0  0  0  0  0  0  0  0
   -5.9203   18.1979  -35.6637 H   0  0  0  0  0  0  0  0  0  0  0  0
   -7.4847   21.9816  -32.8012 H   0  0  0  0  0  0  0  0  0  0  0  0
   -5.8130   23.7611  -32.2993 H   0  0  0  0  0  0  0  0  0  0  0  0
   -2.5390   26.4810  -28.9680 H   0  0  0  0  0  0  0  0  0  0  0  0
    1.8653   23.7358  -24.5029 H   0  0  0  0  0  0  0  0  0  0  0  0
    3.0872   25.0729  -24.6296 H   0  0  0  0  0  0  0  0  0  0  0  0
   -0.3675   24.2918  -24.0991 H   0  0  0  0  0  0  0  0  0  0  0  0
   -2.1499   26.0234  -23.8753 H   0  0  0  0  0  0  0  0  0  0  0  0
   -1.7226   28.3639  -24.6337 H   0  0  0  0  0  0  0  0  0  0  0  0
    0.4936   28.9801  -25.6046 H   0  0  0  0  0  0  0  0  0  0  0  0
    2.2871   27.2584  -25.8220 H   0  0  0  0  0  0  0  0  0  0  0  0
  1  2  2  0
  2  3  1  0
  3  4  1  0
  4  5  2  0
  5  6  1  0
  6  7  2  0
  7  8  1  0
  8  9  2  0
  8 10  2  0
  8 11  1  0
 11 12  1  0
 12 13  1  0
 13 14  1  0
 14 15  1  0
 15 16  1  0
  7 17  1  0
 17 18  2  0
  2 19  1  0
 19 20  1  0
 20 21  2  0
 21 22  1  0
 21 23  1  0
 23 24  1  0
 24 25  1  0
 25 26  1  0
 26 27  1  0
 27 28  2  0
 28 29  1  0
 29 30  2  0
 30 31  1  0
 31 32  2  0
 24 33  2  0
 33 34  1  0
 34 35  2  0
 18  4  1  0
 34 20  1  0
 16 11  1  0
 32 27  1  0
  5 36  1  0
  6 37  1  0
 12 38  1  0
 12 39  1  0
 13 40  1  0
 13 41  1  0
 14 42  1  0
 14 43  1  0
 15 44  1  0
 15 45  1  0
 16 46  1  0
 16 47  1  0
 17 48  1  0
 18 49  1  0
 22 50  1  0
 26 51  1  0
 26 52  1  0
 28 53  1  0
 29 54  1  0
 30 55  1  0
 31 56  1  0
 32 57  1  0
M  CHG  3   3  -1  19  -1  23  -1
M  END
>  <UniqueID>  (14) 
13

>  <SMILES>  (14) 
O=C([N-]c1ccc(S(=O)(=O)N2CCCCC2)cc1)[N-]c1c(O)[n-]c(SCc2ccccc2)nc1=O

>  <Energy>  (14) 
72.36815681769517

>  <Genealogy>  (14) 
O=C([N-]c1ccc(S(=O)(=O)N2CCCCC2)cc1)[N-]c1c(O)[n-]c(SCc2ccccc2)nc1=O (protonated)
O=C([N-]c1ccc(S(=O)(=O)N2CCCCC2)cc1)[N-]c1c(O)[n-]c(SCc2ccccc2)nc1=O (3D coordinates assigned)
O=C([N-]c1ccc(S(=O)(=O)N2CCCCC2)cc1)[N-]c1c(O)[n-]c(SCc2ccccc2)nc1=O (nonaromatic ring conformer: 72.36815681769517 kcal/mol)

>  <smiles>  (14) 
O=C(Nc1ccc(S(=O)(=O)N2CCCCC2)cc1)Nc1c(O)[nH]c(SCc2ccccc2)nc1=O

>  <score_type>  (14) 
oracle

>  <origin>  (14) 
adgpu

>  <m_score__min__energy>  (14) 
-13.84

>  <m_primary>  (14) 
energy

$$$$
14:0
     RDKit          3D

 63 67  0  0  0  0  0  0  0  0999 V2000
   -7.0320   16.7660  -33.5770 O   0  0  0  0  0  0  0  0  0  0  0  0
   -6.2220   17.6210  -33.1200 C   0  0  0  0  0  0  0  0  0  0  0  0
   -6.7450   18.9390  -32.6900 C   0  0  0  0  0  0  0  0  0  0  0  0
   -8.1280   19.1660  -32.7240 C   0  0  0  0  0  0  0  0  0  0  0  0
   -8.6360   20.3780  -32.3850 N   0  0  0  0  0  0  0  0  0  0  0  0
   -7.8410   21.4030  -31.9820 C   0  0  0  0  0  0  0  0  0  0  0  0
   -8.4110   22.6370  -31.6560 C   0  0  0  0  0  0  0  0  0  0  0  0
   -7.6030   23.6890  -31.2190 C   0  0  0  0  0  0  0  0  0  0  0  0
   -6.2190   23.5130  -31.0900 C   0  0  0  0  0  0  0  0  0  0  0  0
   -5.2190   24.7960  -30.4100 S   0  0  0  0  0  0  0  0  0  0  0  0
   -5.6010   25.0770  -28.9840 O   0  0  0  0  0  0  0  0  0  0  0  0
   -5.4160   26.0510  -31.2130 O   0  0  0  0  0  0  0  0  0  0  0  0
   -3.5540   24.3190  -30.5030 N   0  0  0  0  0  0  0  0  0  0  0  0
   -2.9830   23.3110  -29.6610 C   0  0  0  0  0  0  0  0  0  0  0  0
   -2.6630   22.0650  -30.2100 C   0  0  0  0  0  0  0  0  0  0  0  0
   -2.2150   21.0270  -29.3890 C   0  0  0  0  0  0  0  0  0  0  0  0
   -2.0610   21.2320  -28.0110 C   0  0  0  0  0  0  0  0  0  0  0  0
   -1.6380   19.8890  -26.9490 S   0  0  0  0  0  0  0  0  0  0  0  0
   -2.6860   18.8180  -27.0630 O   0  0  0  0  0  0  0  0  0  0  0  0
   -1.6100   20.3660  -25.5230 O   0  0  0  0  0  0  0  0  0  0  0  0
   -0.0710   19.2260  -27.3560 N   0  0  0  0  0  0  0  0  0  0  0  0
    0.7800   20.2550  -27.9830 C   0  0  0  0  0  0  0  0  0  0  0  0
    1.9480   19.6000  -28.7410 C   0  0  0  0  0  0  0  0  0  0  0  0
    1.5500   18.7020  -29.7730 O   0  0  0  0  0  0  0  0  0  0  0  0
    0.2220   18.2200  -29.6330 C   0  0  0  0  0  0  0  0  0  0  0  0
   -0.1820   17.9920  -28.1660 C   0  0  0  0  0  0  0  0  0  0  0  0
   -2.3040   22.5030  -27.4750 C   0  0  0  0  0  0  0  0  0  0  0  0
   -2.7640   23.5360  -28.2930 C   0  0  0  0  0  0  0  0  0  0  0  0
   -5.6400   22.2820  -31.4300 C   0  0  0  0  0  0  0  0  0  0  0  0
   -6.4430   21.2200  -31.8900 C   0  0  0  0  0  0  0  0  0  0  0  0
   -5.8940   19.9730  -32.2530 C   0  0  0  0  0  0  0  0  0  0  0  0
   -4.6500   19.7790  -32.1710 O   0  0  0  0  0  0  0  0  0  0  0  0
   -4.8010   17.3450  -33.1250 N   0  0  0  0  0  0  0  0  0  0  0  0
   -4.5490   15.9150  -32.8260 C   0  0  0  0  0  0  0  0  0  0  0  0
   -3.1690   15.4830  -33.3560 C   0  0  0  0  0  0  0  0  0  0  0  0
   -3.0120   15.6350  -34.7610 O   0  0  0  0  0  0  0  0  0  0  0  0
   -3.8940   16.5870  -35.3370 C   0  0  0  0  0  0  0  0  0  0  0  0
   -4.1900   17.7780  -34.4090 C   0  0  0  0  0  0  0  0  0  0  0  0
   -8.8067   18.3554  -33.0278 H   0  0  0  0  0  0  0  0  0  0  0  0
   -9.4982   22.7798  -31.7438 H   0  0  0  0  0  0  0  0  0  0  0  0
   -8.0558   24.6613  -30.9747 H   0  0  0  0  0  0  0  0  0  0  0  0
   -2.7645   21.9015  -31.2930 H   0  0  0  0  0  0  0  0  0  0  0  0
   -1.9822   20.0447  -29.8259 H   0  0  0  0  0  0  0  0  0  0  0  0
    0.1755   20.8439  -28.6885 H   0  0  0  0  0  0  0  0  0  0  0  0
    1.1875   20.9071  -27.1965 H   0  0  0  0  0  0  0  0  0  0  0  0
    2.5546   20.3979  -29.1943 H   0  0  0  0  0  0  0  0  0  0  0  0
    2.5056   19.0037  -28.0038 H   0  0  0  0  0  0  0  0  0  0  0  0
   -0.4663   18.9547  -30.0763 H   0  0  0  0  0  0  0  0  0  0  0  0
    0.1687   17.2476  -30.1444 H   0  0  0  0  0  0  0  0  0  0  0  0
   -1.2242   17.6415  -28.1362 H   0  0  0  0  0  0  0  0  0  0  0  0
    0.5043   17.2457  -27.7393 H   0  0  0  0  0  0  0  0  0  0  0  0
   -2.1315   22.6879  -26.4045 H   0  0  0  0  0  0  0  0  0  0  0  0
   -2.9557   24.5305  -27.8639 H   0  0  0  0  0  0  0  0  0  0  0  0
   -4.5526   22.1448  -31.3370 H   0  0  0  0  0  0  0  0  0  0  0  0
   -4.3460   17.9080  -32.3670 H   0  0  0  0  0  0  0  0  0  0  0  0
   -4.5815   15.7626  -31.7371 H   0  0  0  0  0  0  0  0  0  0  0  0
   -5.3230   15.3088  -33.3195 H   0  0  0  0  0  0  0  0  0  0  0  0
   -2.4011   16.0907  -32.8551 H   0  0  0  0  0  0  0  0  0  0  0  0
   -3.0690   14.4090  -33.1405 H   0  0  0  0  0  0  0  0  0  0  0  0
   -3.4393   16.9696  -36.2627 H   0  0  0  0  0  0  0  0  0  0  0  0
   -4.8490   16.0751  -35.5267 H   0  0  0  0  0  0  0  0  0  0  0  0
   -3.2479   18.3038  -34.1945 H   0  0  0  0  0  0  0  0  0  0  0  0
   -4.9062   18.4377  -34.9207 H   0  0  0  0  0  0  0  0  0  0  0  0
  1  2  2  0
  2  3  1  0
  3  4  2  0
  4  5  1  0
  5  6  1  0
  6  7  2  0
  7  8  1  0
  8  9  2  0
  9 10  1  0
 10 11  2  0
 10 12  2  0
 10 13  1  0
 13 14  1  0
 14 15  2  0
 15 16  1  0
 16 17  2  0
 17 18  1  0
 18 19  2  0
 18 20  2  0
 18 21  1  0
 21 22  1  0
 22 23  1  0
 23 24  1  0
 24 25  1  0
 25 26  1  0
 17 27  1  0
 27 28  2  0
  9 29  1  0
 29 30  2  0
 30 31  1  0
 31 32  2  0
  2 33  1  0
 33 34  1  0
 34 35  1  0
 35 36  1  0
 36 37  1  0
 37 38  1  0
 31  3  1  0
 38 33  1  0
 30  6  1  0
 28 14  1  0
 26 21  1  0
  4 39  1  0
  7 40  1  0
  8 41  1  0
 15 42  1  0
 16 43  1  0
 22 44  1  0
 22 45  1  0
 23 46  1  0
 23 47  1  0
 25 48  1  0
 25 49  1  0
 26 50  1  0
 26 51  1  0
 27 52  1  0
 28 53  1  0
 29 54  1  0
 33 55  1  0
 34 56  1  0
 34 57  1  0
 35 58  1  0
 35 59  1  0
 37 60  1  0
 37 61  1  0
 38 62  1  0
 38 63  1  0
M  CHG  3   5  -1  13  -1  33   1
M  END
>  <UniqueID>  (15) 
14

>  <SMILES>  (15) 
O=C(c1c[n-]c2ccc(S(=O)(=O)[N-]c3ccc(S(=O)(=O)N4CCOCC4)cc3)cc2c1=O)[NH+]1CCOCC1

>  <Energy>  (15) 
109.53750644448378

>  <Genealogy>  (15) 
O=C(c1c[n-]c2ccc(S(=O)(=O)[N-]c3ccc(S(=O)(=O)N4CCOCC4)cc3)cc2c1=O)[NH+]1CCOCC1 (protonated)
O=C(c1c[n-]c2ccc(S(=O)(=O)[N-]c3ccc(S(=O)(=O)N4CCOCC4)cc3)cc2c1=O)[NH+]1CCOCC1 (3D coordinates assigned)
O=C(c1c[n-]c2ccc(S(=O)(=O)[N-]c3ccc(S(=O)(=O)N4CCOCC4)cc3)cc2c1=O)[NH+]1CCOCC1 (nonaromatic ring conformer: 109.53750644448378 kcal/mol)

>  <smiles>  (15) 
O=C(c1c[nH]c2ccc(S(=O)(=O)Nc3ccc(S(=O)(=O)N4CCOCC4)cc3)cc2c1=O)N1CCOCC1

>  <score_type>  (15) 
oracle

>  <origin>  (15) 
adgpu

>  <m_score__min__energy>  (15) 
-12.18

>  <m_primary>  (15) 
energy

$$$$
15:0
     RDKit          3D

 54 55  0  0  0  0  0  0  0  0999 V2000
   -9.0920   22.0390  -31.9420 C   0  0  0  0  0  0  0  0  0  0  0  0
   -7.9960   21.0520  -32.1720 C   0  0  0  0  0  0  0  0  0  0  0  0
   -8.2060   19.7420  -32.4170 N   0  0  0  0  0  0  0  0  0  0  0  0
   -7.0260   19.1820  -32.6630 N   0  0  0  0  0  0  0  0  0  0  0  0
   -6.8720   17.7970  -33.0910 C   0  0  0  0  0  0  0  0  0  0  0  0
   -6.0520   20.1150  -32.6030 C   0  0  0  0  0  0  0  0  0  0  0  0
   -4.6260   19.8940  -33.0090 C   0  0  0  0  0  0  0  0  0  0  0  0
   -6.6450   21.3230  -32.2910 C   0  0  0  0  0  0  0  0  0  0  0  0
   -6.0190   22.6070  -32.2900 N   0  0  0  0  0  0  0  0  0  0  0  0
   -6.0830   23.5820  -30.8610 S   0  0  0  0  0  0  0  0  0  0  0  0
   -6.3440   25.0170  -31.2240 O   0  0  0  0  0  0  0  0  0  0  0  0
   -7.2040   23.1050  -29.9800 O   0  0  0  0  0  0  0  0  0  0  0  0
   -4.5520   23.4000  -30.0060 C   0  0  0  0  0  0  0  0  0  0  0  0
   -4.2230   22.1470  -29.4720 C   0  0  0  0  0  0  0  0  0  0  0  0
   -2.9610   21.9220  -28.9230 C   0  0  0  0  0  0  0  0  0  0  0  0
   -2.0070   22.9500  -28.8900 C   0  0  0  0  0  0  0  0  0  0  0  0
   -0.6140   22.6720  -28.3940 C   0  0  0  0  0  0  0  0  0  0  0  0
   -0.0070   23.9290  -27.7430 C   0  0  0  0  0  0  0  0  0  0  0  0
   -0.5060   24.1410  -26.2860 C   0  0  0  0  0  0  0  0  0  0  0  0
   -1.2060   25.4390  -26.0280 N   0  0  0  0  0  0  0  0  0  0  0  0
   -2.6730   25.3150  -26.1980 C   0  0  0  0  0  0  0  0  0  0  0  0
   -0.7110   26.4330  -27.0130 C   0  0  0  0  0  0  0  0  0  0  0  0
   -0.8990   25.9510  -24.6670 C   0  0  0  0  0  0  0  0  0  0  0  0
   -2.3370   24.2070  -29.4130 C   0  0  0  0  0  0  0  0  0  0  0  0
   -3.5970   24.4320  -29.9800 C   0  0  0  0  0  0  0  0  0  0  0  0
   -3.8760   25.6750  -30.5360 O   0  0  0  0  0  0  0  0  0  0  0  0
   -9.2425   22.1745  -30.8608 H   0  0  0  0  0  0  0  0  0  0  0  0
   -8.8196   23.0023  -32.3979 H   0  0  0  0  0  0  0  0  0  0  0  0
  -10.0216   21.6675  -32.3979 H   0  0  0  0  0  0  0  0  0  0  0  0
   -6.7996   17.1460  -32.2073 H   0  0  0  0  0  0  0  0  0  0  0  0
   -7.7427   17.5007  -33.6943 H   0  0  0  0  0  0  0  0  0  0  0  0
   -5.9574   17.6992  -33.6943 H   0  0  0  0  0  0  0  0  0  0  0  0
   -3.9996   19.7969  -32.1100 H   0  0  0  0  0  0  0  0  0  0  0  0
   -4.5535   18.9739  -33.6075 H   0  0  0  0  0  0  0  0  0  0  0  0
   -4.2784   20.7490  -33.6075 H   0  0  0  0  0  0  0  0  0  0  0  0
   -5.9340   23.1080  -33.2010 H   0  0  0  0  0  0  0  0  0  0  0  0
   -4.9653   21.3353  -29.4859 H   0  0  0  0  0  0  0  0  0  0  0  0
   -2.7120   20.9320  -28.5132 H   0  0  0  0  0  0  0  0  0  0  0  0
   -0.6503   21.8621  -27.6506 H   0  0  0  0  0  0  0  0  0  0  0  0
    0.0135   22.3780  -29.2483 H   0  0  0  0  0  0  0  0  0  0  0  0
    1.0881   23.8264  -27.7300 H   0  0  0  0  0  0  0  0  0  0  0  0
   -0.3230   24.7999  -28.3360 H   0  0  0  0  0  0  0  0  0  0  0  0
   -1.2037   23.3256  -26.0445 H   0  0  0  0  0  0  0  0  0  0  0  0
    0.3958   24.1533  -25.6562 H   0  0  0  0  0  0  0  0  0  0  0  0
   -3.1545   25.2743  -25.2098 H   0  0  0  0  0  0  0  0  0  0  0  0
   -3.0523   26.1843  -26.7552 H   0  0  0  0  0  0  0  0  0  0  0  0
   -2.9010   24.3944  -26.7552 H   0  0  0  0  0  0  0  0  0  0  0  0
   -0.2819   27.2946  -26.4805 H   0  0  0  0  0  0  0  0  0  0  0  0
    0.0619   25.9702  -27.6442 H   0  0  0  0  0  0  0  0  0  0  0  0
   -1.5461   26.7709  -27.6442 H   0  0  0  0  0  0  0  0  0  0  0  0
   -1.3117   25.2628  -23.9146 H   0  0  0  0  0  0  0  0  0  0  0  0
    0.1912   26.0227  -24.5395 H   0  0  0  0  0  0  0  0  0  0  0  0
   -1.3493   26.9465  -24.5395 H   0  0  0  0  0  0  0  0  0  0  0  0
   -1.6005   25.0233  -29.3779 H   0  0  0  0  0  0  0  0  0  0  0  0
  1  2  1  0
  2  3  2  0
  3  4  1  0
  4  5  1  0
  4  6  1  0
  6  7  1  0
  6  8  2  0
  8  9  1  0
  9 10  1  0
 10 11  2  0
 10 12  2  0
 10 13  1  0
 13 14  2  0
 14 15  1  0
 15 16  2  0
 16 17  1  0
 17 18  1  0
 18 19  1  0
 19 20  1  0
 20 21  1  0
 20 22  1  0
 20 23  1  0
 16 24  1  0
 24 25  2  0
 25 26  1  0
  8  2  1  0
 25 13  1  0
  1 27  1  0
  1 28  1  0
  1 29  1  0
  5 30  1  0
  5 31  1  0
  5 32  1  0
  7 33  1  0
  7 34  1  0
  7 35  1  0
  9 36  1  0
 14 37  1  0
 15 38  1  0
 17 39  1  0
 17 40  1  0
 18 41  1  0
 18 42  1  0
 19 43  1  0
 19 44  1  0
 21 45  1  0
 21 46  1  0
 21 47  1  0
 22 48  1  0
 22 49  1  0
 22 50  1  0
 23 51  1  0
 23 52  1  0
 23 53  1  0
 24 54  1  0
M  CHG  2  20   1  26  -1
M  END
>  <UniqueID>  (16) 
15

>  <SMILES>  (16) 
Cc1nn(C)c(C)c1NS(=O)(=O)c1ccc(CCC[N+](C)(C)C)cc1[O-]

>  <Energy>  (16) 
94.02825948837781

>  <Genealogy>  (16) 
Cc1nn(C)c(C)c1NS(=O)(=O)c1ccc(CCC[N+](C)(C)C)cc1[O-] (protonated)
Cc1nn(C)c(C)c1NS(=O)(=O)c1ccc(CCC[N+](C)(C)C)cc1[O-] (3D coordinates assigned)
Cc1nn(C)c(C)c1NS(=O)(=O)c1ccc(CCC[N+](C)(C)C)cc1[O-] (optimized conformer: 94.02825948837781 kcal/mol)

>  <smiles>  (16) 
Cc1nn(C)c(C)c1NS(=O)(=O)c1ccc(CCC[N+](C)(C)C)cc1O

>  <score_type>  (16) 
oracle

>  <origin>  (16) 
adgpu

>  <m_score__min__energy>  (16) 
-10.890000000000001

>  <m_primary>  (16) 
energy

$$$$
16:0
     RDKit          3D

 55 58  0  0  0  0  0  0  0  0999 V2000
   -4.2590   20.3500  -30.5910 O   0  0  0  0  0  0  0  0  0  0  0  0
   -3.0580   20.7260  -30.5440 C   0  0  0  0  0  0  0  0  0  0  0  0
   -2.0420   19.8370  -31.0160 N   0  0  0  0  0  0  0  0  0  0  0  0
   -1.3820   19.9390  -32.2860 C   0  0  0  0  0  0  0  0  0  0  0  0
    0.0190   19.8300  -32.3730 C   0  0  0  0  0  0  0  0  0  0  0  0
    0.6630   19.9190  -33.6150 C   0  0  0  0  0  0  0  0  0  0  0  0
    2.4050   19.6640  -33.7380 S   0  0  0  0  0  0  0  0  0  0  0  0
    2.6610   18.4160  -34.5360 O   0  0  0  0  0  0  0  0  0  0  0  0
    2.9610   19.4420  -32.3580 O   0  0  0  0  0  0  0  0  0  0  0  0
    3.2410   21.0020  -34.4970 N   0  0  0  0  0  0  0  0  0  0  0  0
    2.3240   22.0630  -34.9650 C   0  0  0  0  0  0  0  0  0  0  0  0
    2.1460   22.0650  -36.4880 C   0  0  0  0  0  0  0  0  0  0  0  0
    2.2210   20.7500  -36.9850 O   0  0  0  0  0  0  0  0  0  0  0  0
    3.5520   20.2810  -36.8940 C   0  0  0  0  0  0  0  0  0  0  0  0
    4.2060   20.5530  -35.5170 C   0  0  0  0  0  0  0  0  0  0  0  0
   -0.0930   20.1600  -34.7690 C   0  0  0  0  0  0  0  0  0  0  0  0
   -1.4810   20.2790  -34.6890 C   0  0  0  0  0  0  0  0  0  0  0  0
   -2.1380   20.1260  -33.4640 C   0  0  0  0  0  0  0  0  0  0  0  0
   -3.5670   20.2490  -33.4370 N   0  0  0  0  0  0  0  0  0  0  0  0
   -4.4930   19.2110  -33.7830 C   0  0  0  0  0  0  0  0  0  0  0  0
   -4.1770   18.3600  -34.6580 O   0  0  0  0  0  0  0  0  0  0  0  0
   -5.8390   19.1850  -33.1600 C   0  0  0  0  0  0  0  0  0  0  0  0
   -6.6200   20.3580  -33.1760 C   0  0  0  0  0  0  0  0  0  0  0  0
   -7.8960   20.3730  -32.6120 C   0  0  0  0  0  0  0  0  0  0  0  0
   -8.4130   19.2220  -32.0180 C   0  0  0  0  0  0  0  0  0  0  0  0
   -7.6510   18.0540  -31.9810 C   0  0  0  0  0  0  0  0  0  0  0  0
   -6.3680   18.0240  -32.5430 C   0  0  0  0  0  0  0  0  0  0  0  0
   -5.4510   16.5270  -32.3860 Cl  0  0  0  0  0  0  0  0  0  0  0  0
   -2.7320   22.0990  -30.0860 C   0  0  0  0  0  0  0  0  0  0  0  0
   -1.5540   22.3540  -29.3600 C   0  0  0  0  0  0  0  0  0  0  0  0
   -1.2200   23.6590  -28.9910 C   0  0  0  0  0  0  0  0  0  0  0  0
   -2.0520   24.7260  -29.3420 C   0  0  0  0  0  0  0  0  0  0  0  0
   -1.7110   26.0200  -28.9690 O   0  0  0  0  0  0  0  0  0  0  0  0
   -3.2270   24.4880  -30.0650 C   0  0  0  0  0  0  0  0  0  0  0  0
   -4.0540   25.5550  -30.4080 O   0  0  0  0  0  0  0  0  0  0  0  0
   -3.5650   23.1780  -30.4360 C   0  0  0  0  0  0  0  0  0  0  0  0
    0.6124   19.6739  -31.4600 H   0  0  0  0  0  0  0  0  0  0  0  0
    1.3407   21.9096  -34.4964 H   0  0  0  0  0  0  0  0  0  0  0  0
    2.7645   23.0303  -34.6817 H   0  0  0  0  0  0  0  0  0  0  0  0
    1.1645   22.4935  -36.7391 H   0  0  0  0  0  0  0  0  0  0  0  0
    2.9451   22.6684  -36.9433 H   0  0  0  0  0  0  0  0  0  0  0  0
    3.5523   19.1955  -37.0721 H   0  0  0  0  0  0  0  0  0  0  0  0
    4.1408   20.8255  -37.6469 H   0  0  0  0  0  0  0  0  0  0  0  0
    4.6806   19.6250  -35.1654 H   0  0  0  0  0  0  0  0  0  0  0  0
    4.9374   21.3628  -35.6555 H   0  0  0  0  0  0  0  0  0  0  0  0
    0.4096   20.2559  -35.7428 H   0  0  0  0  0  0  0  0  0  0  0  0
   -2.0632   20.4949  -35.5970 H   0  0  0  0  0  0  0  0  0  0  0  0
   -6.2190   21.2720  -33.6384 H   0  0  0  0  0  0  0  0  0  0  0  0
   -8.4957   21.2949  -32.6359 H   0  0  0  0  0  0  0  0  0  0  0  0
   -9.4214   19.2351  -31.5787 H   0  0  0  0  0  0  0  0  0  0  0  0
   -8.0606   17.1498  -31.5070 H   0  0  0  0  0  0  0  0  0  0  0  0
   -0.8922   21.5207  -29.0814 H   0  0  0  0  0  0  0  0  0  0  0  0
   -0.2980   23.8480  -28.4216 H   0  0  0  0  0  0  0  0  0  0  0  0
   -3.8650   26.4970  -30.0850 H   0  0  0  0  0  0  0  0  0  0  0  0
   -4.4881   22.9928  -31.0048 H   0  0  0  0  0  0  0  0  0  0  0  0
  1  2  2  0
  2  3  1  0
  3  4  1  0
  4  5  2  0
  5  6  1  0
  6  7  1  0
  7  8  2  0
  7  9  2  0
  7 10  1  0
 10 11  1  0
 11 12  1  0
 12 13  1  0
 13 14  1  0
 14 15  1  0
  6 16  2  0
 16 17  1  0
 17 18  2  0
 18 19  1  0
 19 20  1  0
 20 21  2  0
 20 22  1  0
 22 23  2  0
 23 24  1  0
 24 25  2  0
 25 26  1  0
 26 27  2  0
 27 28  1  0
  2 29  1  0
 29 30  2  0
 30 31  1  0
 31 32  2  0
 32 33  1  0
 32 34  1  0
 34 35  1  0
 34 36  2  0
 18  4  1  0
 27 22  1  0
 36 29  1  0
 15 10  1  0
  5 37  1  0
 11 38  1  0
 11 39  1  0
 12 40  1  0
 12 41  1  0
 14 42  1  0
 14 43  1  0
 15 44  1  0
 15 45  1  0
 16 46  1  0
 17 47  1  0
 23 48  1  0
 24 49  1  0
 25 50  1  0
 26 51  1  0
 30 52  1  0
 31 53  1  0
 35 54  1  0
 36 55  1  0
M  CHG  3   3  -1  19  -1  33  -1
M  END
>  <UniqueID>  (17) 
16

>  <SMILES>  (17) 
O=C([N-]c1cc(S(=O)(=O)N2CCOCC2)ccc1[N-]C(=O)c1ccccc1Cl)c1ccc([O-])c(O)c1

>  <Energy>  (17) 
85.01293080161142

>  <Genealogy>  (17) 
O=C([N-]c1cc(S(=O)(=O)N2CCOCC2)ccc1[N-]C(=O)c1ccccc1Cl)c1ccc([O-])c(O)c1 (protonated)
O=C([N-]c1cc(S(=O)(=O)N2CCOCC2)ccc1[N-]C(=O)c1ccccc1Cl)c1ccc([O-])c(O)c1 (3D coordinates assigned)
O=C([N-]c1cc(S(=O)(=O)N2CCOCC2)ccc1[N-]C(=O)c1ccccc1Cl)c1ccc([O-])c(O)c1 (nonaromatic ring conformer: 85.01293080161142 kcal/mol)

>  <smiles>  (17) 
O=C(Nc1cc(S(=O)(=O)N2CCOCC2)ccc1NC(=O)c1ccccc1Cl)c1ccc(O)c(O)c1

>  <score_type>  (17) 
oracle

>  <origin>  (17) 
adgpu

>  <m_score__min__energy>  (17) 
-12.869999999999999

>  <m_primary>  (17) 
energy

$$$$
17:0
     RDKit          3D

 43 46  0  0  0  0  0  0  0  0999 V2000
   -2.7430   21.9340  -28.9830 O   0  0  0  0  0  0  0  0  0  0  0  0
   -2.6660   22.9210  -30.1130 S   0  0  0  0  0  0  0  0  0  0  0  0
   -2.0030   24.1890  -29.6510 O   0  0  0  0  0  0  0  0  0  0  0  0
   -1.7420   22.2370  -31.4130 N   0  0  0  0  0  0  0  0  0  0  0  0
   -2.1430   21.1210  -32.2200 C   0  0  0  0  0  0  0  0  0  0  0  0
   -3.2350   20.3070  -31.8740 C   0  0  0  0  0  0  0  0  0  0  0  0
   -3.6000   19.2160  -32.6800 C   0  0  0  0  0  0  0  0  0  0  0  0
   -2.8860   18.9620  -33.8740 C   0  0  0  0  0  0  0  0  0  0  0  0
   -1.7920   19.7720  -34.2080 C   0  0  0  0  0  0  0  0  0  0  0  0
   -1.4240   20.8430  -33.3900 C   0  0  0  0  0  0  0  0  0  0  0  0
   -0.3370   21.6340  -33.7450 O   0  0  0  0  0  0  0  0  0  0  0  0
   -3.2080   17.7730  -34.7510 C   0  0  0  0  0  0  0  0  0  0  0  0
   -4.6170   17.2260  -34.5120 C   0  0  0  0  0  0  0  0  0  0  0  0
   -4.8770   17.0550  -33.0150 C   0  0  0  0  0  0  0  0  0  0  0  0
   -4.8210   18.4090  -32.3040 C   0  0  0  0  0  0  0  0  0  0  0  0
   -4.3020   23.2940  -30.6620 C   0  0  0  0  0  0  0  0  0  0  0  0
   -5.1960   22.2580  -30.9770 C   0  0  0  0  0  0  0  0  0  0  0  0
   -6.5030   22.5400  -31.4160 C   0  0  0  0  0  0  0  0  0  0  0  0
   -7.4380   21.4300  -31.7470 C   0  0  0  0  0  0  0  0  0  0  0  0
   -7.1970   20.3480  -32.5970 C   0  0  0  0  0  0  0  0  0  0  0  0
   -8.2790   19.4650  -32.7080 C   0  0  0  0  0  0  0  0  0  0  0  0
   -9.3830   19.8320  -31.9530 C   0  0  0  0  0  0  0  0  0  0  0  0
   -9.0070   21.2570  -31.1480 S   0  0  0  0  0  0  0  0  0  0  0  0
   -6.9020   23.8850  -31.5280 C   0  0  0  0  0  0  0  0  0  0  0  0
   -6.0160   24.9170  -31.2110 C   0  0  0  0  0  0  0  0  0  0  0  0
   -4.7210   24.6280  -30.7790 C   0  0  0  0  0  0  0  0  0  0  0  0
   -3.8580   25.6710  -30.4660 O   0  0  0  0  0  0  0  0  0  0  0  0
   -3.8100   20.5265  -30.9623 H   0  0  0  0  0  0  0  0  0  0  0  0
   -1.2179   19.5625  -35.1226 H   0  0  0  0  0  0  0  0  0  0  0  0
   -3.1236   18.0796  -35.8040 H   0  0  0  0  0  0  0  0  0  0  0  0
   -2.4949   16.9736  -34.5011 H   0  0  0  0  0  0  0  0  0  0  0  0
   -5.3537   17.9279  -34.9297 H   0  0  0  0  0  0  0  0  0  0  0  0
   -4.7068   16.2460  -35.0034 H   0  0  0  0  0  0  0  0  0  0  0  0
   -5.8723   16.6101  -32.8688 H   0  0  0  0  0  0  0  0  0  0  0  0
   -4.1026   16.3983  -32.5918 H   0  0  0  0  0  0  0  0  0  0  0  0
   -5.7193   18.9845  -32.5721 H   0  0  0  0  0  0  0  0  0  0  0  0
   -4.7699   18.2141  -31.2226 H   0  0  0  0  0  0  0  0  0  0  0  0
   -4.8703   21.2119  -30.8793 H   0  0  0  0  0  0  0  0  0  0  0  0
   -6.2457   20.2027  -33.1299 H   0  0  0  0  0  0  0  0  0  0  0  0
   -8.2551   18.5627  -33.3368 H   0  0  0  0  0  0  0  0  0  0  0  0
  -10.3361   19.2863  -31.8922 H   0  0  0  0  0  0  0  0  0  0  0  0
   -7.9201   24.1254  -31.8680 H   0  0  0  0  0  0  0  0  0  0  0  0
   -6.3410   25.9639  -31.3024 H   0  0  0  0  0  0  0  0  0  0  0  0
  1  2  2  0
  2  3  2  0
  2  4  1  0
  4  5  1  0
  5  6  2  0
  6  7  1  0
  7  8  2  0
  8  9  1  0
  9 10  2  0
 10 11  1  0
  8 12  1  0
 12 13  1  0
 13 14  1  0
 14 15  1  0
  2 16  1  0
 16 17  2  0
 17 18  1  0
 18 19  1  0
 19 20  2  0
 20 21  1  0
 21 22  2  0
 22 23  1  0
 18 24  2  0
 24 25  1  0
 25 26  2  0
 26 27  1  0
 10  5  1  0
 26 16  1  0
 15  7  1  0
 23 19  1  0
  6 28  1  0
  9 29  1  0
 12 30  1  0
 12 31  1  0
 13 32  1  0
 13 33  1  0
 14 34  1  0
 14 35  1  0
 15 36  1  0
 15 37  1  0
 17 38  1  0
 20 39  1  0
 21 40  1  0
 22 41  1  0
 24 42  1  0
 25 43  1  0
M  CHG  3   4  -1  11  -1  27  -1
M  END
>  <UniqueID>  (18) 
17

>  <SMILES>  (18) 
O=S(=O)([N-]c1cc2c(cc1[O-])CCCC2)c1cc(-c2cccs2)ccc1[O-]

>  <Energy>  (18) 
79.3502321364942

>  <Genealogy>  (18) 
O=S(=O)([N-]c1cc2c(cc1[O-])CCCC2)c1cc(-c2cccs2)ccc1[O-] (protonated)
O=S(=O)([N-]c1cc2c(cc1[O-])CCCC2)c1cc(-c2cccs2)ccc1[O-] (3D coordinates assigned)
O=S(=O)([N-]c1cc2c(cc1[O-])CCCC2)c1cc(-c2cccs2)ccc1[O-] (nonaromatic ring conformer: 79.3502321364942 kcal/mol)

>  <smiles>  (18) 
O=S(=O)(Nc1cc2c(cc1O)CCCC2)c1cc(-c2cccs2)ccc1O

>  <score_type>  (18) 
oracle

>  <origin>  (18) 
adgpu

>  <m_score__min__energy>  (18) 
-15.75

>  <m_primary>  (18) 
energy

$$$$
18:0
     RDKit          3D

 72 76  0  0  0  0  0  0  0  0999 V2000
   -6.4710   16.9410  -33.5090 C   0  0  0  0  0  0  0  0  0  0  0  0
   -5.7800   17.7520  -34.4520 O   0  0  0  0  0  0  0  0  0  0  0  0
   -4.8440   18.7420  -34.1130 C   0  0  0  0  0  0  0  0  0  0  0  0
   -3.4610   18.5520  -34.2850 C   0  0  0  0  0  0  0  0  0  0  0  0
   -2.5550   19.5670  -33.9460 C   0  0  0  0  0  0  0  0  0  0  0  0
   -1.0740   19.3760  -34.1640 C   0  0  0  0  0  0  0  0  0  0  0  0
   -0.3690   19.2250  -32.8740 N   0  0  0  0  0  0  0  0  0  0  0  0
    0.5180   20.3830  -32.6010 C   0  0  0  0  0  0  0  0  0  0  0  0
   -0.2260   21.5440  -31.9270 C   0  0  0  0  0  0  0  0  0  0  0  0
   -0.9530   21.0720  -30.7450 N   0  0  0  0  0  0  0  0  0  0  0  0
   -1.4000   22.0160  -29.7610 C   0  0  0  0  0  0  0  0  0  0  0  0
   -2.0130   23.2030  -30.1840 C   0  0  0  0  0  0  0  0  0  0  0  0
   -2.4610   24.1420  -29.2550 C   0  0  0  0  0  0  0  0  0  0  0  0
   -3.0920   25.2960  -29.7060 O   0  0  0  0  0  0  0  0  0  0  0  0
   -2.2900   23.9080  -27.8800 C   0  0  0  0  0  0  0  0  0  0  0  0
   -2.7350   24.9020  -26.8820 C   0  0  0  0  0  0  0  0  0  0  0  0
   -3.9700   25.0590  -26.6800 O   0  0  0  0  0  0  0  0  0  0  0  0
   -1.7820   25.6640  -26.1170 N   0  0  0  0  0  0  0  0  0  0  0  0
   -1.2400   25.0790  -24.8820 C   0  0  0  0  0  0  0  0  0  0  0  0
   -0.7500   26.1690  -23.9290 C   0  0  0  0  0  0  0  0  0  0  0  0
    0.2220   27.0660  -24.6340 C   0  0  0  0  0  0  0  0  0  0  0  0
    1.3240   27.6070  -23.9510 C   0  0  0  0  0  0  0  0  0  0  0  0
    2.2070   28.4660  -24.6120 C   0  0  0  0  0  0  0  0  0  0  0  0
    1.9880   28.8010  -25.9510 C   0  0  0  0  0  0  0  0  0  0  0  0
    0.8860   28.2800  -26.6320 C   0  0  0  0  0  0  0  0  0  0  0  0
    0.0010   27.4030  -25.9820 C   0  0  0  0  0  0  0  0  0  0  0  0
   -1.2160   26.8890  -26.7150 C   0  0  0  0  0  0  0  0  0  0  0  0
   -1.6910   22.7150  -27.4520 C   0  0  0  0  0  0  0  0  0  0  0  0
   -1.2160   21.7760  -28.3820 C   0  0  0  0  0  0  0  0  0  0  0  0
   -0.5450   20.5240  -27.8870 C   0  0  0  0  0  0  0  0  0  0  0  0
   -1.0190   19.6390  -30.4600 C   0  0  0  0  0  0  0  0  0  0  0  0
   -1.3050   18.8840  -31.7630 C   0  0  0  0  0  0  0  0  0  0  0  0
   -3.0350   20.7800  -33.4340 C   0  0  0  0  0  0  0  0  0  0  0  0
   -4.4150   20.9830  -33.2500 C   0  0  0  0  0  0  0  0  0  0  0  0
   -4.9240   22.1860  -32.7360 O   0  0  0  0  0  0  0  0  0  0  0  0
   -5.2120   22.4210  -31.3610 C   0  0  0  0  0  0  0  0  0  0  0  0
   -5.3140   19.9560  -33.5920 C   0  0  0  0  0  0  0  0  0  0  0  0
   -6.6880   20.1260  -33.4200 O   0  0  0  0  0  0  0  0  0  0  0  0
   -6.2033   17.2552  -32.4894 H   0  0  0  0  0  0  0  0  0  0  0  0
   -7.5556   17.0529  -33.6543 H   0  0  0  0  0  0  0  0  0  0  0  0
   -6.1883   15.8879  -33.6543 H   0  0  0  0  0  0  0  0  0  0  0  0
   -3.0872   17.5995  -34.6887 H   0  0  0  0  0  0  0  0  0  0  0  0
   -0.9123   18.4731  -34.7712 H   0  0  0  0  0  0  0  0  0  0  0  0
   -0.6766   20.2616  -34.6815 H   0  0  0  0  0  0  0  0  0  0  0  0
    1.3337   20.0550  -31.9399 H   0  0  0  0  0  0  0  0  0  0  0  0
    0.9021   20.7459  -33.5657 H   0  0  0  0  0  0  0  0  0  0  0  0
    0.5010   22.3112  -31.6221 H   0  0  0  0  0  0  0  0  0  0  0  0
   -0.9470   21.9668  -32.6421 H   0  0  0  0  0  0  0  0  0  0  0  0
   -2.1421   23.3961  -31.2592 H   0  0  0  0  0  0  0  0  0  0  0  0
   -2.0280   24.4942  -24.3850 H   0  0  0  0  0  0  0  0  0  0  0  0
   -0.3886   24.4337  -25.1440 H   0  0  0  0  0  0  0  0  0  0  0  0
   -1.6085   26.7629  -23.5823 H   0  0  0  0  0  0  0  0  0  0  0  0
   -0.2502   25.6993  -23.0690 H   0  0  0  0  0  0  0  0  0  0  0  0
    1.4925   27.3542  -22.8938 H   0  0  0  0  0  0  0  0  0  0  0  0
    3.0753   28.8787  -24.0775 H   0  0  0  0  0  0  0  0  0  0  0  0
    2.6849   29.4762  -26.4692 H   0  0  0  0  0  0  0  0  0  0  0  0
    0.7098   28.5572  -27.6818 H   0  0  0  0  0  0  0  0  0  0  0  0
   -1.9879   27.6725  -26.7029 H   0  0  0  0  0  0  0  0  0  0  0  0
   -0.8987   26.6365  -27.7375 H   0  0  0  0  0  0  0  0  0  0  0  0
   -1.5919   22.5121  -26.3754 H   0  0  0  0  0  0  0  0  0  0  0  0
   -0.5427   20.5196  -26.7870 H   0  0  0  0  0  0  0  0  0  0  0  0
   -1.0925   19.6442  -28.2560 H   0  0  0  0  0  0  0  0  0  0  0  0
    0.4908   20.4927  -28.2560 H   0  0  0  0  0  0  0  0  0  0  0  0
   -0.0594   19.3016  -30.0412 H   0  0  0  0  0  0  0  0  0  0  0  0
   -1.8198   19.4412  -29.7323 H   0  0  0  0  0  0  0  0  0  0  0  0
   -1.2275   17.8051  -31.5630 H   0  0  0  0  0  0  0  0  0  0  0  0
   -2.3126   19.1800  -32.0905 H   0  0  0  0  0  0  0  0  0  0  0  0
   -2.3267   21.5803  -33.1737 H   0  0  0  0  0  0  0  0  0  0  0  0
   -4.5104   21.8486  -30.7364 H   0  0  0  0  0  0  0  0  0  0  0  0
   -5.1062   23.4938  -31.1424 H   0  0  0  0  0  0  0  0  0  0  0  0
   -6.2418   22.1021  -31.1424 H   0  0  0  0  0  0  0  0  0  0  0  0
   -7.3710   19.5500  -33.8980 H   0  0  0  0  0  0  0  0  0  0  0  0
  1  2  1  0
  2  3  1  0
  3  4  2  0
  4  5  1  0
  5  6  1  0
  6  7  1  0
  7  8  1  0
  8  9  1  0
  9 10  1  0
 10 11  1  0
 11 12  2  0
 12 13  1  0
 13 14  1  0
 13 15  2  0
 15 16  1  0
 16 17  2  0
 16 18  1  0
 18 19  1  0
 19 20  1  0
 20 21  1  0
 21 22  2  0
 22 23  1  0
 23 24  2  0
 24 25  1  0
 25 26  2  0
 26 27  1  0
 15 28  1  0
 28 29  2  0
 29 30  1  0
 10 31  1  0
 31 32  1  0
  5 33  2  0
 33 34  1  0
 34 35  1  0
 35 36  1  0
 34 37  2  0
 37 38  1  0
 37  3  1  0
 32  7  1  0
 29 11  1  0
 27 18  1  0
 26 21  1  0
  1 39  1  0
  1 40  1  0
  1 41  1  0
  4 42  1  0
  6 43  1  0
  6 44  1  0
  8 45  1  0
  8 46  1  0
  9 47  1  0
  9 48  1  0
 12 49  1  0
 19 50  1  0
 19 51  1  0
 20 52  1  0
 20 53  1  0
 22 54  1  0
 23 55  1  0
 24 56  1  0
 25 57  1  0
 27 58  1  0
 27 59  1  0
 28 60  1  0
 30 61  1  0
 30 62  1  0
 30 63  1  0
 31 64  1  0
 31 65  1  0
 32 66  1  0
 32 67  1  0
 33 68  1  0
 36 69  1  0
 36 70  1  0
 36 71  1  0
 38 72  1  0
M  CHG  1  14  -1
M  END
>  <UniqueID>  (19) 
18

>  <SMILES>  (19) 
COc1cc(CN2CCN(c3cc([O-])c(C(=O)N4CCc5ccccc5C4)cc3C)CC2)cc(OC)c1O

>  <Energy>  (19) 
96.41034610708785

>  <Genealogy>  (19) 
COc1cc(CN2CCN(c3cc([O-])c(C(=O)N4CCc5ccccc5C4)cc3C)CC2)cc(OC)c1O (protonated)
COc1cc(CN2CCN(c3cc([O-])c(C(=O)N4CCc5ccccc5C4)cc3C)CC2)cc(OC)c1O (3D coordinates assigned)
COc1cc(CN2CCN(c3cc([O-])c(C(=O)N4CCc5ccccc5C4)cc3C)CC2)cc(OC)c1O (nonaromatic ring conformer: 96.41034610708785 kcal/mol)

>  <smiles>  (19) 
COc1cc(CN2CCN(c3cc(O)c(C(=O)N4CCc5ccccc5C4)cc3C)CC2)cc(OC)c1O

>  <score_type>  (19) 
oracle

>  <origin>  (19) 
adgpu

>  <m_score__min__energy>  (19) 
-11.460000000000001

>  <m_primary>  (19) 
energy

$$$$
19:0
     RDKit          3D

 60 63  0  0  0  0  0  0  0  0999 V2000
   -5.7170   16.4110  -32.3140 C   0  0  0  0  0  0  0  0  0  0  0  0
   -5.6780   16.0370  -33.7350 N   0  0  0  0  0  0  0  0  0  0  0  0
   -5.9230   17.2060  -34.5940 C   0  0  0  0  0  0  0  0  0  0  0  0
   -5.1950   18.4140  -34.0660 C   0  0  0  0  0  0  0  0  0  0  0  0
   -3.7960   18.4660  -34.0860 C   0  0  0  0  0  0  0  0  0  0  0  0
   -3.1240   19.5770  -33.5690 C   0  0  0  0  0  0  0  0  0  0  0  0
   -3.8430   20.6530  -33.0150 C   0  0  0  0  0  0  0  0  0  0  0  0
   -3.1950   21.7930  -32.5120 O   0  0  0  0  0  0  0  0  0  0  0  0
   -1.8630   21.8120  -32.0150 C   0  0  0  0  0  0  0  0  0  0  0  0
   -5.2510   20.5930  -32.9740 C   0  0  0  0  0  0  0  0  0  0  0  0
   -6.0360   21.6840  -32.3610 C   0  0  0  0  0  0  0  0  0  0  0  0
   -7.4360   21.6150  -32.3190 C   0  0  0  0  0  0  0  0  0  0  0  0
   -8.1710   22.6390  -31.7270 C   0  0  0  0  0  0  0  0  0  0  0  0
   -7.5140   23.7320  -31.1580 C   0  0  0  0  0  0  0  0  0  0  0  0
   -6.1170   23.8060  -31.1790 C   0  0  0  0  0  0  0  0  0  0  0  0
   -5.2900   25.1150  -30.3370 S   0  0  0  0  0  0  0  0  0  0  0  0
   -5.7170   26.4280  -30.9240 O   0  0  0  0  0  0  0  0  0  0  0  0
   -5.6780   25.0860  -28.8870 O   0  0  0  0  0  0  0  0  0  0  0  0
   -3.5650   24.9710  -30.4720 N   0  0  0  0  0  0  0  0  0  0  0  0
   -2.7630   24.1850  -29.5910 C   0  0  0  0  0  0  0  0  0  0  0  0
   -3.1060   22.8600  -29.2930 C   0  0  0  0  0  0  0  0  0  0  0  0
   -2.3520   22.1200  -28.3770 C   0  0  0  0  0  0  0  0  0  0  0  0
   -1.1850   22.6790  -27.8210 C   0  0  0  0  0  0  0  0  0  0  0  0
   -0.8250   23.9920  -28.1540 C   0  0  0  0  0  0  0  0  0  0  0  0
   -1.6070   24.7400  -29.0360 C   0  0  0  0  0  0  0  0  0  0  0  0
   -1.2410   26.0430  -29.3440 O   0  0  0  0  0  0  0  0  0  0  0  0
   -0.3760   21.9260  -26.7920 C   0  0  0  0  0  0  0  0  0  0  0  0
   -0.6150   20.4740  -26.8160 N   0  0  0  0  0  0  0  0  0  0  0  0
    0.1040   19.8170  -27.9200 C   0  0  0  0  0  0  0  0  0  0  0  0
   -2.0540   20.1640  -26.8170 C   0  0  0  0  0  0  0  0  0  0  0  0
   -2.7700   20.7130  -28.0590 C   0  0  0  0  0  0  0  0  0  0  0  0
   -5.3820   22.7860  -31.7890 C   0  0  0  0  0  0  0  0  0  0  0  0
   -5.9170   19.4770  -33.5060 C   0  0  0  0  0  0  0  0  0  0  0  0
   -5.6227   15.5071  -31.6942 H   0  0  0  0  0  0  0  0  0  0  0  0
   -4.8854   17.0960  -32.0922 H   0  0  0  0  0  0  0  0  0  0  0  0
   -6.6720   16.9097  -32.0922 H   0  0  0  0  0  0  0  0  0  0  0  0
   -4.7100   15.6900  -33.9340 H   0  0  0  0  0  0  0  0  0  0  0  0
   -5.5689   16.9870  -35.6121 H   0  0  0  0  0  0  0  0  0  0  0  0
   -7.0022   17.4187  -34.6039 H   0  0  0  0  0  0  0  0  0  0  0  0
   -3.2231   17.6285  -34.5106 H   0  0  0  0  0  0  0  0  0  0  0  0
   -2.0248   19.6109  -33.5952 H   0  0  0  0  0  0  0  0  0  0  0  0
   -1.8820   21.8117  -30.9152 H   0  0  0  0  0  0  0  0  0  0  0  0
   -1.3254   20.9214  -32.3727 H   0  0  0  0  0  0  0  0  0  0  0  0
   -1.3511   22.7175  -32.3727 H   0  0  0  0  0  0  0  0  0  0  0  0
   -7.9554   20.7490  -32.7552 H   0  0  0  0  0  0  0  0  0  0  0  0
   -9.2696   22.5869  -31.7076 H   0  0  0  0  0  0  0  0  0  0  0  0
   -8.0978   24.5389  -30.6909 H   0  0  0  0  0  0  0  0  0  0  0  0
   -3.9754   22.3979  -29.7835 H   0  0  0  0  0  0  0  0  0  0  0  0
    0.0811   24.4367  -27.7168 H   0  0  0  0  0  0  0  0  0  0  0  0
    0.6915   22.1079  -26.9851 H   0  0  0  0  0  0  0  0  0  0  0  0
   -0.6849   22.2919  -25.8017 H   0  0  0  0  0  0  0  0  0  0  0  0
    0.8572   19.1288  -27.5089 H   0  0  0  0  0  0  0  0  0  0  0  0
   -0.6098   19.2526  -28.5380 H   0  0  0  0  0  0  0  0  0  0  0  0
    0.6019   20.5787  -28.5380 H   0  0  0  0  0  0  0  0  0  0  0  0
   -2.1800   19.0716  -26.7906 H   0  0  0  0  0  0  0  0  0  0  0  0
   -2.5009   20.6428  -25.9332 H   0  0  0  0  0  0  0  0  0  0  0  0
   -2.5321   20.0695  -28.9188 H   0  0  0  0  0  0  0  0  0  0  0  0
   -3.8503   20.7195  -27.8517 H   0  0  0  0  0  0  0  0  0  0  0  0
   -4.2842   22.8473  -31.8210 H   0  0  0  0  0  0  0  0  0  0  0  0
   -7.0160   19.4366  -33.4830 H   0  0  0  0  0  0  0  0  0  0  0  0
  1  2  1  0
  2  3  1  0
  3  4  1  0
  4  5  2  0
  5  6  1  0
  6  7  2  0
  7  8  1  0
  8  9  1  0
  7 10  1  0
 10 11  1  0
 11 12  2  0
 12 13  1  0
 13 14  2  0
 14 15  1  0
 15 16  1  0
 16 17  2  0
 16 18  2  0
 16 19  1  0
 19 20  1  0
 20 21  2  0
 21 22  1  0
 22 23  2  0
 23 24  1  0
 24 25  2  0
 25 26  1  0
 23 27  1  0
 27 28  1  0
 28 29  1  0
 28 30  1  0
 30 31  1  0
 15 32  2  0
 10 33  2  0
 33  4  1  0
 32 11  1  0
 25 20  1  0
 31 22  1  0
  1 34  1  0
  1 35  1  0
  1 36  1  0
  2 37  1  0
  3 38  1  0
  3 39  1  0
  5 40  1  0
  6 41  1  0
  9 42  1  0
  9 43  1  0
  9 44  1  0
 12 45  1  0
 13 46  1  0
 14 47  1  0
 21 48  1  0
 24 49  1  0
 27 50  1  0
 27 51  1  0
 29 52  1  0
 29 53  1  0
 29 54  1  0
 30 55  1  0
 30 56  1  0
 31 57  1  0
 31 58  1  0
 32 59  1  0
 33 60  1  0
M  CHG  2  19  -1  26  -1
M  END
>  <UniqueID>  (20) 
19

>  <SMILES>  (20) 
CNCc1ccc(OC)c(-c2cccc(S(=O)(=O)[N-]c3cc4c(cc3[O-])CN(C)CC4)c2)c1

>  <Energy>  (20) 
79.94964444228069

>  <Genealogy>  (20) 
CNCc1ccc(OC)c(-c2cccc(S(=O)(=O)[N-]c3cc4c(cc3[O-])CN(C)CC4)c2)c1 (protonated)
CNCc1ccc(OC)c(-c2cccc(S(=O)(=O)[N-]c3cc4c(cc3[O-])CN(C)CC4)c2)c1 (3D coordinates assigned)
CNCc1ccc(OC)c(-c2cccc(S(=O)(=O)[N-]c3cc4c(cc3[O-])CN(C)CC4)c2)c1 (nonaromatic ring conformer: 79.94964444228069 kcal/mol)

>  <smiles>  (20) 
CNCc1ccc(OC)c(-c2cccc(S(=O)(=O)Nc3cc4c(cc3O)CN(C)CC4)c2)c1

>  <score_type>  (20) 
oracle

>  <origin>  (20) 
adgpu

>  <m_score__min__energy>  (20) 
-15.77

>  <m_primary>  (20) 
energy

$$$$
20:0
     RDKit          3D

 43 45  0  0  0  0  0  0  0  0999 V2000
   -4.8970   20.9900  -33.5010 O   0  0  0  0  0  0  0  0  0  0  0  0
   -4.8180   20.8130  -32.0100 S   0  0  0  0  0  0  0  0  0  0  0  0
   -5.7700   19.7260  -31.5980 O   0  0  0  0  0  0  0  0  0  0  0  0
   -3.2040   20.3490  -31.5770 N   0  0  0  0  0  0  0  0  0  0  0  0
   -2.3860   21.0160  -30.6050 C   0  0  0  0  0  0  0  0  0  0  0  0
   -2.4530   20.7130  -29.2330 C   0  0  0  0  0  0  0  0  0  0  0  0
   -1.6390   21.3920  -28.3220 C   0  0  0  0  0  0  0  0  0  0  0  0
   -0.7520   22.3790  -28.7660 C   0  0  0  0  0  0  0  0  0  0  0  0
    0.2710   23.2270  -27.6100 S   0  0  0  0  0  0  0  0  0  0  0  0
    1.0660   22.2070  -26.8410 O   0  0  0  0  0  0  0  0  0  0  0  0
    1.2150   24.1380  -28.3460 O   0  0  0  0  0  0  0  0  0  0  0  0
   -0.7370   24.1580  -26.5190 N   0  0  0  0  0  0  0  0  0  0  0  0
   -2.1750   23.8570  -26.7070 C   0  0  0  0  0  0  0  0  0  0  0  0
   -2.9020   24.9240  -27.5450 C   0  0  0  0  0  0  0  0  0  0  0  0
   -2.0310   25.4550  -28.5190 O   0  0  0  0  0  0  0  0  0  0  0  0
   -1.0190   26.2320  -27.9020 C   0  0  0  0  0  0  0  0  0  0  0  0
   -0.4500   25.6000  -26.6090 C   0  0  0  0  0  0  0  0  0  0  0  0
   -0.6790   22.6790  -30.1320 C   0  0  0  0  0  0  0  0  0  0  0  0
   -1.4940   22.0020  -31.0450 C   0  0  0  0  0  0  0  0  0  0  0  0
   -5.2560   22.3000  -31.1760 C   0  0  0  0  0  0  0  0  0  0  0  0
   -6.4720   22.3990  -30.4830 C   0  0  0  0  0  0  0  0  0  0  0  0
   -6.8150   23.5880  -29.8360 C   0  0  0  0  0  0  0  0  0  0  0  0
   -5.9520   24.6890  -29.8750 C   0  0  0  0  0  0  0  0  0  0  0  0
   -6.3190   25.8650  -29.2230 O   0  0  0  0  0  0  0  0  0  0  0  0
   -4.7320   24.5910  -30.5670 C   0  0  0  0  0  0  0  0  0  0  0  0
   -3.8610   25.6730  -30.6180 O   0  0  0  0  0  0  0  0  0  0  0  0
   -4.3890   23.4000  -31.2130 C   0  0  0  0  0  0  0  0  0  0  0  0
   -3.1483   19.9391  -28.8759 H   0  0  0  0  0  0  0  0  0  0  0  0
   -1.6959   21.1493  -27.2506 H   0  0  0  0  0  0  0  0  0  0  0  0
   -2.2675   22.8865  -27.2165 H   0  0  0  0  0  0  0  0  0  0  0  0
   -2.6434   23.8410  -25.7118 H   0  0  0  0  0  0  0  0  0  0  0  0
   -3.7688   24.4659  -28.0437 H   0  0  0  0  0  0  0  0  0  0  0  0
   -3.2360   25.7353  -26.8815 H   0  0  0  0  0  0  0  0  0  0  0  0
   -0.1940   26.3594  -28.6183 H   0  0  0  0  0  0  0  0  0  0  0  0
   -1.4787   27.1896  -27.6161 H   0  0  0  0  0  0  0  0  0  0  0  0
    0.6403   25.7454  -26.5942 H   0  0  0  0  0  0  0  0  0  0  0  0
   -0.9325   26.0935  -25.7524 H   0  0  0  0  0  0  0  0  0  0  0  0
    0.0212   23.4491  -30.4878 H   0  0  0  0  0  0  0  0  0  0  0  0
   -1.4340   22.2456  -32.1160 H   0  0  0  0  0  0  0  0  0  0  0  0
   -7.1563   21.5385  -30.4493 H   0  0  0  0  0  0  0  0  0  0  0  0
   -7.7688   23.6596  -29.2927 H   0  0  0  0  0  0  0  0  0  0  0  0
   -5.6470   26.5900  -29.0040 H   0  0  0  0  0  0  0  0  0  0  0  0
   -3.4336   23.3259  -31.7532 H   0  0  0  0  0  0  0  0  0  0  0  0
  1  2  2  0
  2  3  2  0
  2  4  1  0
  4  5  1  0
  5  6  2  0
  6  7  1  0
  7  8  2  0
  8  9  1  0
  9 10  2  0
  9 11  2  0
  9 12  1  0
 12 13  1  0
 13 14  1  0
 14 15  1  0
 15 16  1  0
 16 17  1  0
  8 18  1  0
 18 19  2  0
  2 20  1  0
 20 21  2  0
 21 22  1  0
 22 23  2  0
 23 24  1  0
 23 25  1  0
 25 26  1  0
 25 27  2  0
 19  5  1  0
 27 20  1  0
 17 12  1  0
  6 28  1  0
  7 29  1  0
 13 30  1  0
 13 31  1  0
 14 32  1  0
 14 33  1  0
 16 34  1  0
 16 35  1  0
 17 36  1  0
 17 37  1  0
 18 38  1  0
 19 39  1  0
 21 40  1  0
 22 41  1  0
 24 42  1  0
 27 43  1  0
M  CHG  2   4  -1  26  -1
M  END
>  <UniqueID>  (21) 
20

>  <SMILES>  (21) 
O=S(=O)([N-]c1ccc(S(=O)(=O)N2CCOCC2)cc1)c1ccc(O)c([O-])c1

>  <Energy>  (21) 
58.644959378930295

>  <Genealogy>  (21) 
O=S(=O)([N-]c1ccc(S(=O)(=O)N2CCOCC2)cc1)c1ccc(O)c([O-])c1 (protonated)
O=S(=O)([N-]c1ccc(S(=O)(=O)N2CCOCC2)cc1)c1ccc(O)c([O-])c1 (3D coordinates assigned)
O=S(=O)([N-]c1ccc(S(=O)(=O)N2CCOCC2)cc1)c1ccc(O)c([O-])c1 (nonaromatic ring conformer: 58.644959378930295 kcal/mol)

>  <smiles>  (21) 
O=S(=O)(Nc1ccc(S(=O)(=O)N2CCOCC2)cc1)c1ccc(O)c(O)c1

>  <score_type>  (21) 
oracle

>  <origin>  (21) 
adgpu

>  <m_score__min__energy>  (21) 
-10.76

>  <m_primary>  (21) 
energy

$$$$
21:0
     RDKit          3D

 45 46  0  0  0  0  0  0  0  0999 V2000
   -7.5040   19.5350  -32.1980 C   0  0  0  0  0  0  0  0  0  0  0  0
   -6.6150   20.6300  -32.7020 C   0  0  0  0  0  0  0  0  0  0  0  0
   -5.9300   20.4220  -33.7390 O   0  0  0  0  0  0  0  0  0  0  0  0
   -6.5080   21.9330  -32.0080 C   0  0  0  0  0  0  0  0  0  0  0  0
   -7.5680   22.6630  -31.4840 C   0  0  0  0  0  0  0  0  0  0  0  0
   -9.0110   22.2630  -31.4940 C   0  0  0  0  0  0  0  0  0  0  0  0
   -7.1240   23.8180  -30.9560 N   0  0  0  0  0  0  0  0  0  0  0  0
   -5.7890   23.8550  -31.1350 C   0  0  0  0  0  0  0  0  0  0  0  0
   -4.9610   25.0070  -30.7270 C   0  0  0  0  0  0  0  0  0  0  0  0
   -5.5110   26.1180  -30.4980 O   0  0  0  0  0  0  0  0  0  0  0  0
   -3.5410   24.8800  -30.6200 N   0  0  0  0  0  0  0  0  0  0  0  0
   -2.8900   23.9390  -29.7200 C   0  0  0  0  0  0  0  0  0  0  0  0
   -2.9670   24.4680  -28.3170 C   0  0  0  0  0  0  0  0  0  0  0  0
   -4.1620   24.3780  -27.5900 C   0  0  0  0  0  0  0  0  0  0  0  0
   -4.2370   24.9030  -26.3010 C   0  0  0  0  0  0  0  0  0  0  0  0
   -3.1310   25.5360  -25.7310 C   0  0  0  0  0  0  0  0  0  0  0  0
   -1.9220   25.6580  -26.4470 C   0  0  0  0  0  0  0  0  0  0  0  0
   -0.7740   26.3310  -25.8640 N   0  0  0  0  0  0  0  0  0  0  0  0
    0.2940   26.8610  -26.7200 C   0  0  0  0  0  0  0  0  0  0  0  0
   -0.6590   26.4860  -24.4080 C   0  0  0  0  0  0  0  0  0  0  0  0
   -1.8590   25.1160  -27.7500 C   0  0  0  0  0  0  0  0  0  0  0  0
   -5.3620   22.6870  -31.7640 C   0  0  0  0  0  0  0  0  0  0  0  0
   -3.9430   22.2940  -32.0560 C   0  0  0  0  0  0  0  0  0  0  0  0
   -7.5017   19.5379  -31.0980 H   0  0  0  0  0  0  0  0  0  0  0  0
   -8.5289   19.6976  -32.5629 H   0  0  0  0  0  0  0  0  0  0  0  0
   -7.1343   18.5654  -32.5629 H   0  0  0  0  0  0  0  0  0  0  0  0
   -9.3710   22.1632  -30.4594 H   0  0  0  0  0  0  0  0  0  0  0  0
   -9.6009   23.0315  -32.0150 H   0  0  0  0  0  0  0  0  0  0  0  0
   -9.1211   21.3005  -32.0150 H   0  0  0  0  0  0  0  0  0  0  0  0
   -7.7120   24.5570  -30.5100 H   0  0  0  0  0  0  0  0  0  0  0  0
   -3.3982   22.9650  -29.7749 H   0  0  0  0  0  0  0  0  0  0  0  0
   -1.8368   23.8148  -30.0121 H   0  0  0  0  0  0  0  0  0  0  0  0
   -5.0418   23.8924  -28.0373 H   0  0  0  0  0  0  0  0  0  0  0  0
   -5.1731   24.8181  -25.7296 H   0  0  0  0  0  0  0  0  0  0  0  0
   -3.2032   25.9442  -24.7121 H   0  0  0  0  0  0  0  0  0  0  0  0
    1.1026   27.2623  -26.0914 H   0  0  0  0  0  0  0  0  0  0  0  0
    0.6892   26.0544  -27.3551 H   0  0  0  0  0  0  0  0  0  0  0  0
   -0.1093   27.6635  -27.3551 H   0  0  0  0  0  0  0  0  0  0  0  0
   -1.2429   25.6990  -23.9082 H   0  0  0  0  0  0  0  0  0  0  0  0
    0.3973   26.4024  -24.1127 H   0  0  0  0  0  0  0  0  0  0  0  0
   -1.0453   27.4727  -24.1127 H   0  0  0  0  0  0  0  0  0  0  0  0
   -0.9276   25.2032  -28.3287 H   0  0  0  0  0  0  0  0  0  0  0  0
   -3.4020   22.1442  -31.1100 H   0  0  0  0  0  0  0  0  0  0  0  0
   -3.9333   21.3594  -32.6360 H   0  0  0  0  0  0  0  0  0  0  0  0
   -3.4539   23.0905  -32.6360 H   0  0  0  0  0  0  0  0  0  0  0  0
  1  2  1  0
  2  3  2  0
  2  4  1  0
  4  5  2  0
  5  6  1  0
  5  7  1  0
  7  8  1  0
  8  9  1  0
  9 10  2  0
  9 11  1  0
 11 12  1  0
 12 13  1  0
 13 14  2  0
 14 15  1  0
 15 16  2  0
 16 17  1  0
 17 18  1  0
 18 19  1  0
 18 20  1  0
 17 21  2  0
  8 22  2  0
 22 23  1  0
 22  4  1  0
 21 13  1  0
  1 24  1  0
  1 25  1  0
  1 26  1  0
  6 27  1  0
  6 28  1  0
  6 29  1  0
  7 30  1  0
 12 31  1  0
 12 32  1  0
 14 33  1  0
 15 34  1  0
 16 35  1  0
 19 36  1  0
 19 37  1  0
 19 38  1  0
 20 39  1  0
 20 40  1  0
 20 41  1  0
 21 42  1  0
 23 43  1  0
 23 44  1  0
 23 45  1  0
M  CHG  1  11  -1
M  END
>  <UniqueID>  (22) 
21

>  <SMILES>  (22) 
CC(=O)c1c(C)[nH]c(C(=O)[N-]Cc2cccc(N(C)C)c2)c1C

>  <Energy>  (22) 
70.34991049929957

>  <Genealogy>  (22) 
CC(=O)c1c(C)[nH]c(C(=O)[N-]Cc2cccc(N(C)C)c2)c1C (protonated)
CC(=O)c1c(C)[nH]c(C(=O)[N-]Cc2cccc(N(C)C)c2)c1C (3D coordinates assigned)
CC(=O)c1c(C)[nH]c(C(=O)[N-]Cc2cccc(N(C)C)c2)c1C (optimized conformer: 70.34991049929957 kcal/mol)

>  <smiles>  (22) 
CC(=O)c1c(C)[nH]c(C(=O)NCc2cccc(N(C)C)c2)c1C

>  <score_type>  (22) 
oracle

>  <origin>  (22) 
adgpu

>  <m_score__min__energy>  (22) 
-9.6500000000000004

>  <m_primary>  (22) 
energy

$$$$
22:0
     RDKit          3D

 57 60  0  0  0  0  0  0  0  0999 V2000
    1.9620   19.3900  -29.0860 C   0  0  0  0  0  0  0  0  0  0  0  0
    0.7440   19.1920  -28.3020 N   0  0  0  0  0  0  0  0  0  0  0  0
   -0.1260   20.1390  -27.9030 C   0  0  0  0  0  0  0  0  0  0  0  0
    0.0300   21.9020  -28.2100 S   0  0  0  0  0  0  0  0  0  0  0  0
   -0.5460   21.8120  -29.9410 C   0  0  0  0  0  0  0  0  0  0  0  0
   -2.0380   21.9100  -30.0130 C   0  0  0  0  0  0  0  0  0  0  0  0
   -2.7430   20.9680  -29.5580 O   0  0  0  0  0  0  0  0  0  0  0  0
   -2.6530   23.1100  -30.5050 N   0  0  0  0  0  0  0  0  0  0  0  0
   -4.0680   23.2560  -30.7180 C   0  0  0  0  0  0  0  0  0  0  0  0
   -4.8810   22.1360  -30.9680 C   0  0  0  0  0  0  0  0  0  0  0  0
   -6.2530   22.2880  -31.2160 C   0  0  0  0  0  0  0  0  0  0  0  0
   -7.2590   20.8770  -31.5600 S   0  0  0  0  0  0  0  0  0  0  0  0
   -8.3340   20.7700  -30.5150 O   0  0  0  0  0  0  0  0  0  0  0  0
   -7.9240   21.0600  -32.8950 O   0  0  0  0  0  0  0  0  0  0  0  0
   -6.3140   19.4040  -31.5880 N   0  0  0  0  0  0  0  0  0  0  0  0
   -5.3010   19.4600  -32.6640 C   0  0  0  0  0  0  0  0  0  0  0  0
   -4.7760   18.0650  -33.0150 C   0  0  0  0  0  0  0  0  0  0  0  0
   -5.9060   17.1700  -33.5500 C   0  0  0  0  0  0  0  0  0  0  0  0
   -7.2890   17.5700  -33.0080 C   0  0  0  0  0  0  0  0  0  0  0  0
   -7.1810   18.2000  -31.6120 C   0  0  0  0  0  0  0  0  0  0  0  0
   -6.8150   23.5710  -31.2080 C   0  0  0  0  0  0  0  0  0  0  0  0
   -6.0140   24.6890  -30.9710 C   0  0  0  0  0  0  0  0  0  0  0  0
   -4.6440   24.5380  -30.7330 C   0  0  0  0  0  0  0  0  0  0  0  0
   -3.8640   25.6650  -30.4990 O   0  0  0  0  0  0  0  0  0  0  0  0
   -1.1380   19.5430  -27.1890 C   0  0  0  0  0  0  0  0  0  0  0  0
   -0.9150   18.2160  -27.1280 N   0  0  0  0  0  0  0  0  0  0  0  0
    0.2280   18.0300  -27.8270 C   0  0  0  0  0  0  0  0  0  0  0  0
    0.8340   16.6900  -27.9940 C   0  0  0  0  0  0  0  0  0  0  0  0
    0.9400   16.1320  -29.2760 C   0  0  0  0  0  0  0  0  0  0  0  0
    1.5340   14.8770  -29.4370 C   0  0  0  0  0  0  0  0  0  0  0  0
    2.0200   14.2080  -28.3590 N   0  0  0  0  0  0  0  0  0  0  0  0
    1.9440   14.7310  -27.1080 C   0  0  0  0  0  0  0  0  0  0  0  0
    1.3620   15.9840  -26.9020 C   0  0  0  0  0  0  0  0  0  0  0  0
    2.8164   19.5289  -28.4073 H   0  0  0  0  0  0  0  0  0  0  0  0
    2.1371   18.5085  -29.7203 H   0  0  0  0  0  0  0  0  0  0  0  0
    1.8489   20.2815  -29.7203 H   0  0  0  0  0  0  0  0  0  0  0  0
   -0.1026   22.6413  -30.5117 H   0  0  0  0  0  0  0  0  0  0  0  0
   -0.2363   20.8453  -30.3648 H   0  0  0  0  0  0  0  0  0  0  0  0
   -2.0450   23.9510  -30.6210 H   0  0  0  0  0  0  0  0  0  0  0  0
   -4.4361   21.1300  -30.9690 H   0  0  0  0  0  0  0  0  0  0  0  0
   -5.7563   19.9064  -33.5604 H   0  0  0  0  0  0  0  0  0  0  0  0
   -4.4552   20.0676  -32.3099 H   0  0  0  0  0  0  0  0  0  0  0  0
   -3.9953   18.1574  -33.7844 H   0  0  0  0  0  0  0  0  0  0  0  0
   -4.3661   17.6051  -32.1037 H   0  0  0  0  0  0  0  0  0  0  0  0
   -5.9235   17.2439  -34.6474 H   0  0  0  0  0  0  0  0  0  0  0  0
   -5.7026   16.1425  -33.2140 H   0  0  0  0  0  0  0  0  0  0  0  0
   -7.7462   18.2974  -33.6949 H   0  0  0  0  0  0  0  0  0  0  0  0
   -7.9075   16.6635  -32.9326 H   0  0  0  0  0  0  0  0  0  0  0  0
   -8.1889   18.4864  -31.2771 H   0  0  0  0  0  0  0  0  0  0  0  0
   -6.7259   17.4519  -30.9462 H   0  0  0  0  0  0  0  0  0  0  0  0
   -7.8925   23.6979  -31.3893 H   0  0  0  0  0  0  0  0  0  0  0  0
   -6.4622   25.6936  -30.9714 H   0  0  0  0  0  0  0  0  0  0  0  0
   -1.9942   20.0666  -26.7388 H   0  0  0  0  0  0  0  0  0  0  0  0
    0.5577   16.6790  -30.1504 H   0  0  0  0  0  0  0  0  0  0  0  0
    1.6082   14.4298  -30.4392 H   0  0  0  0  0  0  0  0  0  0  0  0
    2.3426   14.1653  -26.2530 H   0  0  0  0  0  0  0  0  0  0  0  0
    1.3178   16.4145  -25.8907 H   0  0  0  0  0  0  0  0  0  0  0  0
  1  2  1  0
  2  3  1  0
  3  4  1  0
  4  5  1  0
  5  6  1  0
  6  7  2  0
  6  8  1  0
  8  9  1  0
  9 10  2  0
 10 11  1  0
 11 12  1  0
 12 13  2  0
 12 14  2  0
 12 15  1  0
 15 16  1  0
 16 17  1  0
 17 18  1  0
 18 19  1  0
 19 20  1  0
 11 21  2  0
 21 22  1  0
 22 23  2  0
 23 24  1  0
  3 25  2  0
 25 26  1  0
 26 27  2  0
 27 28  1  0
 28 29  2  0
 29 30  1  0
 30 31  2  0
 31 32  1  0
 32 33  2  0
 27  2  1  0
 33 28  1  0
 23  9  1  0
 20 15  1  0
  1 34  1  0
  1 35  1  0
  1 36  1  0
  5 37  1  0
  5 38  1  0
  8 39  1  0
 10 40  1  0
 16 41  1  0
 16 42  1  0
 17 43  1  0
 17 44  1  0
 18 45  1  0
 18 46  1  0
 19 47  1  0
 19 48  1  0
 20 49  1  0
 20 50  1  0
 21 51  1  0
 22 52  1  0
 25 53  1  0
 29 54  1  0
 30 55  1  0
 32 56  1  0
 33 57  1  0
M  CHG  1  24  -1
M  END
>  <UniqueID>  (23) 
22

>  <SMILES>  (23) 
Cn1c(SCC(=O)Nc2cc(S(=O)(=O)N3CCCCC3)ccc2[O-])cnc1-c1ccncc1

>  <Energy>  (23) 
97.84483486850091

>  <Genealogy>  (23) 
Cn1c(SCC(=O)Nc2cc(S(=O)(=O)N3CCCCC3)ccc2[O-])cnc1-c1ccncc1 (protonated)
Cn1c(SCC(=O)Nc2cc(S(=O)(=O)N3CCCCC3)ccc2[O-])cnc1-c1ccncc1 (3D coordinates assigned)
Cn1c(SCC(=O)Nc2cc(S(=O)(=O)N3CCCCC3)ccc2[O-])cnc1-c1ccncc1 (nonaromatic ring conformer: 97.84483486850091 kcal/mol)

>  <smiles>  (23) 
Cn1c(SCC(=O)Nc2cc(S(=O)(=O)N3CCCCC3)ccc2O)cnc1-c1ccncc1

>  <score_type>  (23) 
oracle

>  <origin>  (23) 
adgpu

>  <m_score__min__energy>  (23) 
-12.890000000000001

>  <m_primary>  (23) 
energy

$$$$
23:0
     RDKit          3D

 55 58  0  0  0  0  0  0  0  0999 V2000
   -1.8600   20.1120  -28.6890 C   0  0  0  0  0  0  0  0  0  0  0  0
   -1.0830   20.9730  -29.7130 C   0  0  2  0  0  0  0  0  0  0  0  0
   -1.3290   22.4670  -29.3750 C   0  0  0  0  0  0  0  0  0  0  0  0
   -2.2740   23.2470  -30.0850 C   0  0  0  0  0  0  0  0  0  0  0  0
   -2.6130   24.5470  -29.6730 C   0  0  0  0  0  0  0  0  0  0  0  0
   -3.6690   25.2830  -30.3140 N   0  0  0  0  0  0  0  0  0  0  0  0
   -5.0030   24.8010  -30.5320 C   0  0  0  0  0  0  0  0  0  0  0  0
   -5.9780   25.5390  -30.2310 O   0  0  0  0  0  0  0  0  0  0  0  0
   -5.2460   23.4290  -31.0240 C   0  0  0  0  0  0  0  0  0  0  0  0
   -4.4060   22.9290  -31.9710 N   0  0  0  0  0  0  0  0  0  0  0  0
   -4.6080   21.7260  -32.5640 C   0  0  0  0  0  0  0  0  0  0  0  0
   -5.7260   20.9510  -32.2260 C   0  0  0  0  0  0  0  0  0  0  0  0
   -5.9970   19.6700  -32.9230 C   0  0  0  0  0  0  0  0  0  0  0  0
   -6.9850   18.7900  -32.4440 C   0  0  0  0  0  0  0  0  0  0  0  0
   -7.2270   17.5770  -33.0960 C   0  0  0  0  0  0  0  0  0  0  0  0
   -6.4850   17.2290  -34.2270 C   0  0  0  0  0  0  0  0  0  0  0  0
   -5.4990   18.0920  -34.7090 C   0  0  0  0  0  0  0  0  0  0  0  0
   -5.2550   19.3070  -34.0620 C   0  0  0  0  0  0  0  0  0  0  0  0
   -6.5990   21.4350  -31.2390 C   0  0  0  0  0  0  0  0  0  0  0  0
   -6.3770   22.6760  -30.6370 C   0  0  0  0  0  0  0  0  0  0  0  0
   -7.3090   23.1410  -29.7080 O   0  0  0  0  0  0  0  0  0  0  0  0
   -1.9230   25.1330  -28.6140 C   0  0  0  0  0  0  0  0  0  0  0  0
   -0.9640   24.4020  -27.9160 C   0  0  0  0  0  0  0  0  0  0  0  0
   -0.6850   23.0770  -28.2670 C   0  0  0  0  0  0  0  0  0  0  0  0
    0.2000   22.3960  -27.4960 F   0  0  0  0  0  0  0  0  0  0  0  0
   -1.5580   20.6010  -31.1540 C   0  0  0  0  0  0  0  0  0  0  0  0
   -1.1820   19.1560  -31.5520 C   0  0  1  0  0  0  0  0  0  0  0  0
   -1.4950   18.8800  -33.0280 C   0  0  0  0  0  0  0  0  0  0  0  0
   -2.6100   18.0670  -33.1400 F   0  0  0  0  0  0  0  0  0  0  0  0
   -1.7480   20.0750  -33.6760 F   0  0  0  0  0  0  0  0  0  0  0  0
   -0.4210   18.2620  -33.6420 F   0  0  0  0  0  0  0  0  0  0  0  0
    0.2010   18.9010  -31.3140 O   0  0  0  0  0  0  0  0  0  0  0  0
    0.9360   19.5620  -30.3270 C   0  0  0  0  0  0  0  0  0  0  0  0
    2.1570   19.2020  -30.0910 N   0  0  0  0  0  0  0  0  0  0  0  0
    0.3530   20.6630  -29.6140 N   0  0  0  0  0  0  0  0  0  0  0  0
   -1.5843   20.4175  -27.6689 H   0  0  0  0  0  0  0  0  0  0  0  0
   -2.9409   20.2549  -28.8350 H   0  0  0  0  0  0  0  0  0  0  0  0
   -1.6073   19.0514  -28.8350 H   0  0  0  0  0  0  0  0  0  0  0  0
   -2.7541   22.8252  -30.9803 H   0  0  0  0  0  0  0  0  0  0  0  0
   -3.8918   21.3572  -33.3130 H   0  0  0  0  0  0  0  0  0  0  0  0
   -7.5701   19.0578  -31.5518 H   0  0  0  0  0  0  0  0  0  0  0  0
   -8.0031   16.8956  -32.7175 H   0  0  0  0  0  0  0  0  0  0  0  0
   -6.6776   16.2743  -34.7383 H   0  0  0  0  0  0  0  0  0  0  0  0
   -4.9137   17.8157  -35.5985 H   0  0  0  0  0  0  0  0  0  0  0  0
   -4.4776   19.9839  -34.4460 H   0  0  0  0  0  0  0  0  0  0  0  0
   -7.4670   20.8308  -30.9364 H   0  0  0  0  0  0  0  0  0  0  0  0
   -7.1930   24.0040  -29.1920 H   0  0  0  0  0  0  0  0  0  0  0  0
   -2.1356   26.1739  -28.3286 H   0  0  0  0  0  0  0  0  0  0  0  0
   -0.4216   24.8709  -27.0817 H   0  0  0  0  0  0  0  0  0  0  0  0
   -2.6520   20.7057  -31.2018 H   0  0  0  0  0  0  0  0  0  0  0  0
   -1.0529   21.2808  -31.8559 H   0  0  0  0  0  0  0  0  0  0  0  0
   -1.7895   18.4855  -30.9264 H   0  0  0  0  0  0  0  0  0  0  0  0
    2.5860   18.4110  -30.6220 H   0  0  0  0  0  0  0  0  0  0  0  0
    2.7340   19.6880  -29.3680 H   0  0  0  0  0  0  0  0  0  0  0  0
    0.9900   21.2520  -29.0320 H   0  0  0  0  0  0  0  0  0  0  0  0
  2  1  1  1
  2  3  1  0
  3  4  2  0
  4  5  1  0
  5  6  1  0
  6  7  1  0
  7  8  2  0
  7  9  1  0
  9 10  2  0
 10 11  1  0
 11 12  2  0
 12 13  1  0
 13 14  2  0
 14 15  1  0
 15 16  2  0
 16 17  1  0
 17 18  2  0
 12 19  1  0
 19 20  2  0
 20 21  1  0
  5 22  2  0
 22 23  1  0
 23 24  2  0
 24 25  1  0
  2 26  1  0
 26 27  1  0
 27 28  1  0
 28 29  1  0
 28 30  1  0
 28 31  1  0
 27 32  1  0
 32 33  1  0
 33 34  2  0
 33 35  1  0
 35  2  1  0
 24  3  1  0
 20  9  1  0
 18 13  1  0
  1 36  1  0
  1 37  1  0
  1 38  1  0
  4 39  1  0
 11 40  1  0
 14 41  1  0
 15 42  1  0
 16 43  1  0
 17 44  1  0
 18 45  1  0
 19 46  1  0
 21 47  1  0
 22 48  1  0
 23 49  1  0
 26 50  1  0
 26 51  1  0
 27 52  1  1
 34 53  1  0
 34 54  1  0
 35 55  1  0
M  CHG  2   6  -1  34   1
M  END
>  <UniqueID>  (24) 
23

>  <SMILES>  (24) 
C[C@]1(c2cc([N-]C(=O)c3ncc(-c4ccccc4)cc3O)ccc2F)C[C@@H](C(F)(F)F)OC(=[NH2+])N1

>  <Energy>  (24) 
75.46586111672535

>  <Genealogy>  (24) 
CC1(c2cc([N-]C(=O)c3ncc(-c4ccccc4)cc3O)ccc2F)CC(C(F)(F)F)OC(=[NH2+])N1 (protonated)
C[C@]1(c2cc([N-]C(=O)c3ncc(-c4ccccc4)cc3O)ccc2F)C[C@@H](C(F)(F)F)OC(=[NH2+])N1 (chirality)
C[C@]1(c2cc([N-]C(=O)c3ncc(-c4ccccc4)cc3O)ccc2F)C[C@@H](C(F)(F)F)OC(=[NH2+])N1 (3D coordinates assigned)
C[C@]1(c2cc([N-]C(=O)c3ncc(-c4ccccc4)cc3O)ccc2F)C[C@@H](C(F)(F)F)OC(=[NH2+])N1 (nonaromatic ring conformer: 75.46586111672535 kcal/mol)

>  <smiles>  (24) 
CC1(c2cc(NC(=O)c3ncc(-c4ccccc4)cc3O)ccc2F)CC(C(F)(F)F)OC(=N)N1

>  <score_type>  (24) 
oracle

>  <origin>  (24) 
adgpu

>  <m_score__min__energy>  (24) 
-11.51

>  <m_primary>  (24) 
energy

$$$$
24:0
     RDKit          3D

 47 49  0  0  0  0  0  0  0  0999 V2000
   -3.9760   24.2890  -26.8200 O   0  0  0  0  0  0  0  0  0  0  0  0
   -3.0930   24.6450  -27.6460 C   0  0  0  0  0  0  0  0  0  0  0  0
   -3.3050   24.4690  -29.0590 N   0  0  0  0  0  0  0  0  0  0  0  0
   -4.5010   23.9090  -29.6280 C   0  0  0  0  0  0  0  0  0  0  0  0
   -5.7600   24.4980  -29.4150 C   0  0  0  0  0  0  0  0  0  0  0  0
   -6.9040   23.9450  -29.9970 C   0  0  0  0  0  0  0  0  0  0  0  0
   -6.8090   22.8000  -30.8000 C   0  0  0  0  0  0  0  0  0  0  0  0
   -8.2540   22.0850  -31.5240 S   0  0  0  0  0  0  0  0  0  0  0  0
   -8.6940   22.9650  -32.6590 O   0  0  0  0  0  0  0  0  0  0  0  0
   -9.3570   22.0720  -30.5000 O   0  0  0  0  0  0  0  0  0  0  0  0
   -7.9940   20.4660  -32.1460 N   0  0  0  0  0  0  0  0  0  0  0  0
   -9.0990   19.5170  -31.9130 C   0  0  0  0  0  0  0  0  0  0  0  0
   -8.7110   18.0300  -32.0510 C   0  0  0  0  0  0  0  0  0  0  0  0
   -7.2130   17.7920  -31.8130 C   0  0  0  0  0  0  0  0  0  0  0  0
   -6.3560   18.0110  -33.0710 C   0  0  0  0  0  0  0  0  0  0  0  0
   -6.0540   19.4800  -33.4100 C   0  0  0  0  0  0  0  0  0  0  0  0
   -7.3000   20.3810  -33.4440 C   0  0  0  0  0  0  0  0  0  0  0  0
   -5.5480   22.2420  -31.0510 C   0  0  0  0  0  0  0  0  0  0  0  0
   -4.4030   22.7940  -30.4710 C   0  0  0  0  0  0  0  0  0  0  0  0
   -1.8420   25.2490  -27.1390 C   0  0  0  0  0  0  0  0  0  0  0  0
   -1.4940   25.0720  -25.7880 C   0  0  0  0  0  0  0  0  0  0  0  0
   -0.3220   25.6380  -25.2770 C   0  0  0  0  0  0  0  0  0  0  0  0
    0.5190   26.3760  -26.1120 C   0  0  0  0  0  0  0  0  0  0  0  0
    0.1950   26.5420  -27.4610 C   0  0  0  0  0  0  0  0  0  0  0  0
   -0.9730   25.9740  -27.9820 C   0  0  0  0  0  0  0  0  0  0  0  0
   -1.2400   26.1100  -29.3400 O   0  0  0  0  0  0  0  0  0  0  0  0
   -2.5300   24.7090  -29.7160 H   0  0  0  0  0  0  0  0  0  0  0  0
   -5.8448   25.3977  -28.7878 H   0  0  0  0  0  0  0  0  0  0  0  0
   -7.8851   24.4112  -29.8238 H   0  0  0  0  0  0  0  0  0  0  0  0
   -9.4804   19.6786  -30.8940 H   0  0  0  0  0  0  0  0  0  0  0  0
   -9.8494   19.7161  -32.6923 H   0  0  0  0  0  0  0  0  0  0  0  0
   -9.2829   17.4458  -31.3150 H   0  0  0  0  0  0  0  0  0  0  0  0
   -8.9412   17.7172  -33.0802 H   0  0  0  0  0  0  0  0  0  0  0  0
   -6.8691   18.4850  -31.0310 H   0  0  0  0  0  0  0  0  0  0  0  0
   -7.0930   16.7398  -31.5156 H   0  0  0  0  0  0  0  0  0  0  0  0
   -5.3975   17.4916  -32.9244 H   0  0  0  0  0  0  0  0  0  0  0  0
   -6.9444   17.6182  -33.9133 H   0  0  0  0  0  0  0  0  0  0  0  0
   -5.3616   19.8750  -32.6520 H   0  0  0  0  0  0  0  0  0  0  0  0
   -5.6238   19.4920  -34.4223 H   0  0  0  0  0  0  0  0  0  0  0  0
   -6.9904   21.3938  -33.7413 H   0  0  0  0  0  0  0  0  0  0  0  0
   -8.0047   19.9354  -34.1616 H   0  0  0  0  0  0  0  0  0  0  0  0
   -5.4593   21.3645  -31.7084 H   0  0  0  0  0  0  0  0  0  0  0  0
   -3.4179   22.3503  -30.6775 H   0  0  0  0  0  0  0  0  0  0  0  0
   -2.1488   24.4838  -25.1282 H   0  0  0  0  0  0  0  0  0  0  0  0
   -0.0625   25.5018  -24.2168 H   0  0  0  0  0  0  0  0  0  0  0  0
    1.4372   26.8270  -25.7077 H   0  0  0  0  0  0  0  0  0  0  0  0
    0.8612   27.1219  -28.1166 H   0  0  0  0  0  0  0  0  0  0  0  0
  1  2  2  0
  2  3  1  0
  3  4  1  0
  4  5  2  0
  5  6  1  0
  6  7  2  0
  7  8  1  0
  8  9  2  0
  8 10  2  0
  8 11  1  0
 11 12  1  0
 12 13  1  0
 13 14  1  0
 14 15  1  0
 15 16  1  0
 16 17  1  0
  7 18  1  0
 18 19  2  0
  2 20  1  0
 20 21  2  0
 21 22  1  0
 22 23  2  0
 23 24  1  0
 24 25  2  0
 25 26  1  0
 19  4  1  0
 25 20  1  0
 17 11  1  0
  3 27  1  0
  5 28  1  0
  6 29  1  0
 12 30  1  0
 12 31  1  0
 13 32  1  0
 13 33  1  0
 14 34  1  0
 14 35  1  0
 15 36  1  0
 15 37  1  0
 16 38  1  0
 16 39  1  0
 17 40  1  0
 17 41  1  0
 18 42  1  0
 19 43  1  0
 21 44  1  0
 22 45  1  0
 23 46  1  0
 24 47  1  0
M  CHG  1  26  -1
M  END
>  <UniqueID>  (25) 
24

>  <SMILES>  (25) 
O=C(Nc1ccc(S(=O)(=O)N2CCCCCC2)cc1)c1ccccc1[O-]

>  <Energy>  (25) 
67.66934200662652

>  <Genealogy>  (25) 
O=C(Nc1ccc(S(=O)(=O)N2CCCCCC2)cc1)c1ccccc1[O-] (protonated)
O=C(Nc1ccc(S(=O)(=O)N2CCCCCC2)cc1)c1ccccc1[O-] (3D coordinates assigned)
O=C(Nc1ccc(S(=O)(=O)N2CCCCCC2)cc1)c1ccccc1[O-] (nonaromatic ring conformer: 67.66934200662652 kcal/mol)

>  <smiles>  (25) 
O=C(Nc1ccc(S(=O)(=O)N2CCCCCC2)cc1)c1ccccc1O

>  <score_type>  (25) 
oracle

>  <origin>  (25) 
adgpu

>  <m_score__min__energy>  (25) 
-10.34

>  <m_primary>  (25) 
energy

$$$$
25:0
     RDKit          3D

 41 43  0  0  0  0  0  0  0  0999 V2000
   -0.8306   25.9521  -29.1984 H   0  0  0  0  0  0  0  0  0  0  0  0
   -1.5970   25.4320  -28.6050 C   0  0  0  0  0  0  0  0  0  0  0  0
   -2.6850   24.8950  -29.2200 N   0  0  0  0  0  0  0  0  0  0  0  0
   -3.6590   24.2410  -28.5230 C   0  0  0  0  0  0  0  0  0  0  0  0
   -4.6940   23.7460  -29.1290 N   0  0  0  0  0  0  0  0  0  0  0  0
   -4.9540   23.8540  -30.8410 S   0  0  0  0  0  0  0  0  0  0  0  0
   -4.9950   25.3040  -31.2390 O   0  0  0  0  0  0  0  0  0  0  0  0
   -3.8190   23.1800  -31.5570 O   0  0  0  0  0  0  0  0  0  0  0  0
   -6.4610   23.0500  -31.2750 C   0  0  0  0  0  0  0  0  0  0  0  0
   -7.5860   23.7990  -31.6390 C   0  0  0  0  0  0  0  0  0  0  0  0
   -7.5291   24.8972  -31.6653 H   0  0  0  0  0  0  0  0  0  0  0  0
   -8.7810   23.1550  -31.9690 C   0  0  0  0  0  0  0  0  0  0  0  0
   -9.6645   23.7472  -32.2498 H   0  0  0  0  0  0  0  0  0  0  0  0
   -8.8560   21.7590  -31.9430 C   0  0  0  0  0  0  0  0  0  0  0  0
   -9.8017   21.2562  -32.1938 H   0  0  0  0  0  0  0  0  0  0  0  0
   -7.7290   20.9970  -31.5980 C   0  0  0  0  0  0  0  0  0  0  0  0
   -7.7950   19.4920  -31.5830 C   0  0  0  0  0  0  0  0  0  0  0  0
   -8.7307   19.1760  -31.0986 H   0  0  0  0  0  0  0  0  0  0  0  0
   -6.9287   19.1046  -31.0267 H   0  0  0  0  0  0  0  0  0  0  0  0
   -7.7560   18.9610  -32.9460 N   0  0  0  0  0  0  0  0  0  0  0  0
   -8.6130   19.0890  -33.5310 H   0  0  0  0  0  0  0  0  0  0  0  0
   -6.6570   18.2090  -33.4970 C   0  0  0  0  0  0  0  0  0  0  0  0
   -6.6480   16.7990  -33.5000 C   0  0  0  0  0  0  0  0  0  0  0  0
   -7.4946   16.2458  -33.0672 H   0  0  0  0  0  0  0  0  0  0  0  0
   -5.5690   16.1000  -34.0500 C   0  0  0  0  0  0  0  0  0  0  0  0
   -5.5712   15.0000  -34.0497 H   0  0  0  0  0  0  0  0  0  0  0  0
   -4.4860   16.7950  -34.6010 C   0  0  0  0  0  0  0  0  0  0  0  0
   -3.3790   16.0700  -35.1690 C   0  0  0  0  0  0  0  0  0  0  0  0
   -2.4900   15.4840  -35.6250 N   0  0  0  0  0  0  0  0  0  0  0  0
   -4.4830   18.1940  -34.5930 C   0  0  0  0  0  0  0  0  0  0  0  0
   -3.6315   18.7433  -35.0211 H   0  0  0  0  0  0  0  0  0  0  0  0
   -5.5600   18.8960  -34.0420 C   0  0  0  0  0  0  0  0  0  0  0  0
   -5.5477   19.9959  -34.0355 H   0  0  0  0  0  0  0  0  0  0  0  0
   -6.5340   21.6510  -31.2560 C   0  0  0  0  0  0  0  0  0  0  0  0
   -5.6501   21.0613  -30.9715 H   0  0  0  0  0  0  0  0  0  0  0  0
   -3.5430   24.1100  -27.1330 C   0  0  0  0  0  0  0  0  0  0  0  0
   -4.3179   23.5804  -26.5593 H   0  0  0  0  0  0  0  0  0  0  0  0
   -2.4360   24.6570  -26.4820 C   0  0  0  0  0  0  0  0  0  0  0  0
   -2.3373   24.5642  -25.3904 H   0  0  0  0  0  0  0  0  0  0  0  0
   -1.4530   25.3230  -27.2200 C   0  0  0  0  0  0  0  0  0  0  0  0
   -0.5765   25.7561  -26.7159 H   0  0  0  0  0  0  0  0  0  0  0  0
  1  2  1  0
  2  3  1  0
  3  4  1  0
  4  5  2  0
  5  6  1  0
  6  7  2  0
  6  8  2  0
  6  9  1  0
  9 10  2  0
 10 11  1  0
 10 12  1  0
 12 13  1  0
 12 14  2  0
 14 15  1  0
 14 16  1  0
 16 17  1  0
 17 18  1  0
 17 19  1  0
 17 20  1  0
 20 21  1  0
 20 22  1  0
 22 23  2  0
 23 24  1  0
 23 25  1  0
 25 26  1  0
 25 27  2  0
 27 28  1  0
 28 29  3  0
 27 30  1  0
 30 31  1  0
 30 32  2  0
 32 33  1  0
 16 34  2  0
 34 35  1  0
  4 36  1  0
 36 37  1  0
 36 38  2  0
 38 39  1  0
 38 40  1  0
 40 41  1  0
 40  2  2  0
 34  9  1  0
 32 22  1  0
M  CHG  1   3  -1
M  END
>  <UniqueID>  (26) 
25

>  <SMILES>  (26) 
N#Cc1ccc(NCc2cccc(S(=O)(=O)/N=c3/cccc[n-]3)c2)cc1

>  <Energy>  (26) 
45.502314073833034

>  <Genealogy>  (26) 
N#Cc1ccc(NCc2cccc(S(=O)(=O)N=c3cccc[n-]3)c2)cc1 (protonated)
N#Cc1ccc(NCc2cccc(S(=O)(=O)/N=c3/cccc[n-]3)c2)cc1 (cis-trans isomerization)
N#Cc1ccc(NCc2cccc(S(=O)(=O)/N=c3/cccc[n-]3)c2)cc1 (3D coordinates assigned)
N#Cc1ccc(NCc2cccc(S(=O)(=O)/N=c3/cccc[n-]3)c2)cc1 (optimized conformer: 45.502314073833034 kcal/mol)

>  <smiles>  (26) 
N#Cc1ccc(NCc2cccc(S(=O)(=O)N=c3cccc[nH]3)c2)cc1

>  <score_type>  (26) 
oracle

>  <origin>  (26) 
adgpu

>  <m_score__min__energy>  (26) 
-11.029999999999999

>  <m_primary>  (26) 
energy

$$$$
26:0
     RDKit          3D

 47 49  0  0  0  0  0  0  0  0999 V2000
   -6.1380   18.4690  -33.8510 C   0  0  0  0  0  0  0  0  0  0  0  0
   -5.3520   19.6430  -34.0340 O   0  0  0  0  0  0  0  0  0  0  0  0
   -5.2670   20.7020  -33.1160 C   0  0  0  0  0  0  0  0  0  0  0  0
   -6.4180   21.2220  -32.4900 C   0  0  0  0  0  0  0  0  0  0  0  0
   -6.3200   22.2750  -31.5800 C   0  0  0  0  0  0  0  0  0  0  0  0
   -5.0730   22.8320  -31.2810 C   0  0  0  0  0  0  0  0  0  0  0  0
   -4.9340   24.1490  -30.1170 S   0  0  0  0  0  0  0  0  0  0  0  0
   -6.1400   25.0430  -30.2210 O   0  0  0  0  0  0  0  0  0  0  0  0
   -3.7090   24.9560  -30.4520 O   0  0  0  0  0  0  0  0  0  0  0  0
   -4.8040   23.4810  -28.5020 N   0  0  0  0  0  0  0  0  0  0  0  0
   -3.8180   22.3840  -28.4450 C   0  0  0  0  0  0  0  0  0  0  0  0
   -2.3860   22.8900  -28.6650 C   0  0  0  0  0  0  0  0  0  0  0  0
   -2.1400   24.1390  -27.9340 N   0  0  0  0  0  0  0  0  0  0  0  0
   -0.8550   24.7850  -28.0830 C   0  0  0  0  0  0  0  0  0  0  0  0
   -0.4210   25.9090  -27.1900 C   0  0  0  0  0  0  0  0  0  0  0  0
   -0.0670   24.4070  -28.9930 O   0  0  0  0  0  0  0  0  0  0  0  0
   -3.1210   24.5780  -26.9310 C   0  0  0  0  0  0  0  0  0  0  0  0
   -4.5570   24.5490  -27.4960 C   0  0  0  0  0  0  0  0  0  0  0  0
   -3.9220   22.3220  -31.8910 C   0  0  0  0  0  0  0  0  0  0  0  0
   -4.0030   21.2610  -32.8100 C   0  0  0  0  0  0  0  0  0  0  0  0
   -2.7520   20.7580  -33.4290 C   0  0  0  0  0  0  0  0  0  0  0  0
   -2.5040   19.4660  -33.7250 N   0  0  0  0  0  0  0  0  0  0  0  0
   -1.2690   19.5450  -34.2620 C   0  0  0  0  0  0  0  0  0  0  0  0
   -0.4880   18.3590  -34.7130 C   0  0  0  0  0  0  0  0  0  0  0  0
   -0.7890   20.8030  -34.2730 N   0  0  0  0  0  0  0  0  0  0  0  0
   -1.7380   21.5230  -33.7560 O   0  0  0  0  0  0  0  0  0  0  0  0
   -6.2662   18.2775  -32.7754 H   0  0  0  0  0  0  0  0  0  0  0  0
   -7.1237   18.6112  -34.3182 H   0  0  0  0  0  0  0  0  0  0  0  0
   -5.6310   17.6118  -34.3182 H   0  0  0  0  0  0  0  0  0  0  0  0
   -7.4041   20.7929  -32.7215 H   0  0  0  0  0  0  0  0  0  0  0  0
   -7.2264   22.6681  -31.0964 H   0  0  0  0  0  0  0  0  0  0  0  0
   -5.7390   23.0570  -28.2940 H   0  0  0  0  0  0  0  0  0  0  0  0
   -3.8775   21.9032  -27.4574 H   0  0  0  0  0  0  0  0  0  0  0  0
   -4.0548   21.6706  -29.2481 H   0  0  0  0  0  0  0  0  0  0  0  0
   -1.6783   22.1246  -28.3138 H   0  0  0  0  0  0  0  0  0  0  0  0
   -2.2494   23.0852  -29.7389 H   0  0  0  0  0  0  0  0  0  0  0  0
   -0.5373   25.6077  -26.1385 H   0  0  0  0  0  0  0  0  0  0  0  0
    0.6342   26.1483  -27.3883 H   0  0  0  0  0  0  0  0  0  0  0  0
   -1.0415   26.7954  -27.3883 H   0  0  0  0  0  0  0  0  0  0  0  0
   -3.0658   23.9087  -26.0598 H   0  0  0  0  0  0  0  0  0  0  0  0
   -2.8830   25.6130  -26.6444 H   0  0  0  0  0  0  0  0  0  0  0  0
   -5.2529   24.3984  -26.6575 H   0  0  0  0  0  0  0  0  0  0  0  0
   -4.7081   25.5073  -28.0144 H   0  0  0  0  0  0  0  0  0  0  0  0
   -2.9410   22.7566  -31.6486 H   0  0  0  0  0  0  0  0  0  0  0  0
   -0.1232   17.8050  -33.8355 H   0  0  0  0  0  0  0  0  0  0  0  0
   -1.1322   17.7043  -35.3182 H   0  0  0  0  0  0  0  0  0  0  0  0
    0.3680   18.6922  -35.3182 H   0  0  0  0  0  0  0  0  0  0  0  0
  1  2  1  0
  2  3  1  0
  3  4  2  0
  4  5  1  0
  5  6  2  0
  6  7  1  0
  7  8  2  0
  7  9  2  0
  7 10  1  0
 10 11  1  0
 11 12  1  0
 12 13  1  0
 13 14  1  0
 14 15  1  0
 14 16  2  0
 13 17  1  0
 17 18  1  0
  6 19  1  0
 19 20  2  0
 20 21  1  0
 21 22  2  0
 22 23  1  0
 23 24  1  0
 23 25  2  0
 25 26  1  0
 20  3  1  0
 26 21  1  0
 18 10  1  0
  1 27  1  0
  1 28  1  0
  1 29  1  0
  4 30  1  0
  5 31  1  0
 10 32  1  0
 11 33  1  0
 11 34  1  0
 12 35  1  0
 12 36  1  0
 15 37  1  0
 15 38  1  0
 15 39  1  0
 17 40  1  0
 17 41  1  0
 18 42  1  0
 18 43  1  0
 19 44  1  0
 24 45  1  0
 24 46  1  0
 24 47  1  0
M  CHG  1  10   1
M  END
>  <UniqueID>  (27) 
26

>  <SMILES>  (27) 
COc1ccc(S(=O)(=O)[NH+]2CCN(C(C)=O)CC2)cc1-c1nc(C)no1

>  <Energy>  (27) 
86.4425293774063

>  <Genealogy>  (27) 
COc1ccc(S(=O)(=O)[NH+]2CCN(C(C)=O)CC2)cc1-c1nc(C)no1 (protonated)
COc1ccc(S(=O)(=O)[NH+]2CCN(C(C)=O)CC2)cc1-c1nc(C)no1 (3D coordinates assigned)
COc1ccc(S(=O)(=O)[NH+]2CCN(C(C)=O)CC2)cc1-c1nc(C)no1 (nonaromatic ring conformer: 86.4425293774063 kcal/mol)

>  <smiles>  (27) 
COc1ccc(S(=O)(=O)N2CCN(C(C)=O)CC2)cc1-c1nc(C)no1

>  <score_type>  (27) 
oracle

>  <origin>  (27) 
adgpu

>  <m_score__min__energy>  (27) 
-8.5399999999999991

>  <m_primary>  (27) 
energy

$$$$
27:0
     RDKit          3D

 30 31  0  0  0  0  0  0  0  0999 V2000
   -0.6160   24.3080  -28.5130 C   0  0  0  0  0  0  0  0  0  0  0  0
   -1.8980   23.9470  -29.1940 C   0  0  0  0  0  0  0  0  0  0  0  0
   -2.2790   22.6090  -29.3200 C   0  0  0  0  0  0  0  0  0  0  0  0
   -3.4730   22.2790  -29.9780 C   0  0  0  0  0  0  0  0  0  0  0  0
   -3.8540   20.8260  -30.0930 C   0  0  0  0  0  0  0  0  0  0  0  0
   -4.2970   23.3160  -30.4850 C   0  0  0  0  0  0  0  0  0  0  0  0
   -5.8320   22.9560  -31.3130 S   0  0  0  0  0  0  0  0  0  0  0  0
   -6.2060   24.0520  -32.2720 O   0  0  0  0  0  0  0  0  0  0  0  0
   -6.9280   22.8430  -30.2910 O   0  0  0  0  0  0  0  0  0  0  0  0
   -5.6730   21.4530  -32.2150 C   0  0  0  0  0  0  0  0  0  0  0  0
   -4.5300   21.2250  -32.9940 C   0  0  0  0  0  0  0  0  0  0  0  0
   -4.3910   20.0310  -33.7090 C   0  0  0  0  0  0  0  0  0  0  0  0
   -5.3960   19.0600  -33.6520 C   0  0  0  0  0  0  0  0  0  0  0  0
   -5.2060   17.4290  -34.6280 Br  0  0  0  0  0  0  0  0  0  0  0  0
   -6.5410   19.2840  -32.8790 C   0  0  0  0  0  0  0  0  0  0  0  0
   -6.6800   20.4770  -32.1640 C   0  0  0  0  0  0  0  0  0  0  0  0
   -3.8530   24.6500  -30.3510 C   0  0  0  0  0  0  0  0  0  0  0  0
   -4.5250   25.6060  -30.8190 O   0  0  0  0  0  0  0  0  0  0  0  0
   -2.6830   24.9220  -29.7170 N   0  0  0  0  0  0  0  0  0  0  0  0
   -0.7562   24.2685  -27.4227 H   0  0  0  0  0  0  0  0  0  0  0  0
    0.1689   23.5960  -28.8078 H   0  0  0  0  0  0  0  0  0  0  0  0
   -0.3180   25.3250  -28.8078 H   0  0  0  0  0  0  0  0  0  0  0  0
   -1.6428   21.8143  -28.9033 H   0  0  0  0  0  0  0  0  0  0  0  0
   -3.9668   20.3958  -29.0869 H   0  0  0  0  0  0  0  0  0  0  0  0
   -4.8055   20.7385  -30.6380 H   0  0  0  0  0  0  0  0  0  0  0  0
   -3.0679   20.2828  -30.6380 H   0  0  0  0  0  0  0  0  0  0  0  0
   -3.7393   21.9882  -33.0431 H   0  0  0  0  0  0  0  0  0  0  0  0
   -3.4909   19.8556  -34.3164 H   0  0  0  0  0  0  0  0  0  0  0  0
   -7.3319   18.5208  -32.8341 H   0  0  0  0  0  0  0  0  0  0  0  0
   -7.5821   20.6514  -31.5591 H   0  0  0  0  0  0  0  0  0  0  0  0
  1  2  1  0
  2  3  2  0
  3  4  1  0
  4  5  1  0
  4  6  2  0
  6  7  1  0
  7  8  2  0
  7  9  2  0
  7 10  1  0
 10 11  2  0
 11 12  1  0
 12 13  2  0
 13 14  1  0
 13 15  1  0
 15 16  2  0
  6 17  1  0
 17 18  2  0
 17 19  1  0
 19  2  1  0
 16 10  1  0
  1 20  1  0
  1 21  1  0
  1 22  1  0
  3 23  1  0
  5 24  1  0
  5 25  1  0
  5 26  1  0
 11 27  1  0
 12 28  1  0
 15 29  1  0
 16 30  1  0
M  CHG  1  19  -1
M  END
>  <UniqueID>  (28) 
27

>  <SMILES>  (28) 
Cc1cc(C)c(S(=O)(=O)c2ccc(Br)cc2)c(=O)[n-]1

>  <Energy>  (28) 
34.8614438487851

>  <Genealogy>  (28) 
Cc1cc(C)c(S(=O)(=O)c2ccc(Br)cc2)c(=O)[n-]1 (protonated)
Cc1cc(C)c(S(=O)(=O)c2ccc(Br)cc2)c(=O)[n-]1 (3D coordinates assigned)
Cc1cc(C)c(S(=O)(=O)c2ccc(Br)cc2)c(=O)[n-]1 (optimized conformer: 34.8614438487851 kcal/mol)

>  <smiles>  (28) 
Cc1cc(C)c(S(=O)(=O)c2ccc(Br)cc2)c(=O)[nH]1

>  <score_type>  (28) 
oracle

>  <origin>  (28) 
adgpu

>  <m_score__min__energy>  (28) 
-9.4299999999999997

>  <m_primary>  (28) 
energy

$$$$
28:0
     RDKit          3D

 40 42  0  0  0  0  0  0  0  0999 V2000
   -1.4750   20.9890  -31.1610 C   0  0  0  0  0  0  0  0  0  0  0  0
   -2.9090   20.4830  -31.0630 C   0  0  0  0  0  0  0  0  0  0  0  0
   -3.6870   20.9150  -32.2290 N   0  0  0  0  0  0  0  0  0  0  0  0
   -3.0000   21.2560  -33.4750 C   0  0  0  0  0  0  0  0  0  0  0  0
   -5.1220   20.9720  -32.1610 C   0  0  0  0  0  0  0  0  0  0  0  0
   -5.8710   19.7760  -32.2320 C   0  0  0  0  0  0  0  0  0  0  0  0
   -7.2560   19.8750  -32.1920 C   0  0  0  0  0  0  0  0  0  0  0  0
   -8.1650   18.8900  -32.2610 N   0  0  0  0  0  0  0  0  0  0  0  0
   -9.3760   19.4330  -32.2010 N   0  0  0  0  0  0  0  0  0  0  0  0
   -9.2370   20.7780  -32.0910 C   0  0  0  0  0  0  0  0  0  0  0  0
   -7.8920   21.0720  -32.0860 C   0  0  0  0  0  0  0  0  0  0  0  0
   -7.2010   22.2750  -32.0000 C   0  0  0  0  0  0  0  0  0  0  0  0
   -5.7850   22.2280  -32.0360 C   0  0  0  0  0  0  0  0  0  0  0  0
   -4.9940   23.4200  -31.9280 N   0  0  0  0  0  0  0  0  0  0  0  0
   -4.7670   24.3410  -30.4780 S   0  0  0  0  0  0  0  0  0  0  0  0
   -4.1980   25.6850  -30.8310 O   0  0  0  0  0  0  0  0  0  0  0  0
   -6.0950   24.5360  -29.8030 O   0  0  0  0  0  0  0  0  0  0  0  0
   -3.6960   23.4700  -29.3860 C   0  0  0  0  0  0  0  0  0  0  0  0
   -2.3500   23.8480  -29.2830 C   0  0  0  0  0  0  0  0  0  0  0  0
   -1.4940   23.1710  -28.4100 C   0  0  0  0  0  0  0  0  0  0  0  0
   -1.9800   22.1110  -27.6330 C   0  0  0  0  0  0  0  0  0  0  0  0
   -0.9060   21.2630  -26.5370 Cl  0  0  0  0  0  0  0  0  0  0  0  0
   -3.3230   21.7320  -27.7330 C   0  0  0  0  0  0  0  0  0  0  0  0
   -4.1790   22.4070  -28.6080 C   0  0  0  0  0  0  0  0  0  0  0  0
   -1.0671   21.1329  -30.1496 H   0  0  0  0  0  0  0  0  0  0  0  0
   -0.8625   20.2527  -31.7021 H   0  0  0  0  0  0  0  0  0  0  0  0
   -1.4602   21.9466  -31.7021 H   0  0  0  0  0  0  0  0  0  0  0  0
   -2.9028   19.3839  -31.0190 H   0  0  0  0  0  0  0  0  0  0  0  0
   -3.3708   20.8963  -30.1542 H   0  0  0  0  0  0  0  0  0  0  0  0
   -2.0367   21.7341  -33.2436 H   0  0  0  0  0  0  0  0  0  0  0  0
   -2.8241   20.3406  -34.0591 H   0  0  0  0  0  0  0  0  0  0  0  0
   -3.6227   21.9496  -34.0591 H   0  0  0  0  0  0  0  0  0  0  0  0
   -5.3736   18.7985  -32.3162 H   0  0  0  0  0  0  0  0  0  0  0  0
   -7.9780   17.8670  -32.3520 H   0  0  0  0  0  0  0  0  0  0  0  0
  -10.0571   21.5075  -32.0184 H   0  0  0  0  0  0  0  0  0  0  0  0
   -7.7355   23.2319  -31.9071 H   0  0  0  0  0  0  0  0  0  0  0  0
   -1.9663   24.6803  -29.8914 H   0  0  0  0  0  0  0  0  0  0  0  0
   -0.4383   23.4704  -28.3328 H   0  0  0  0  0  0  0  0  0  0  0  0
   -3.7060   20.9014  -27.1220 H   0  0  0  0  0  0  0  0  0  0  0  0
   -5.2335   22.1041  -28.6868 H   0  0  0  0  0  0  0  0  0  0  0  0
  1  2  1  0
  2  3  1  0
  3  4  1  0
  3  5  1  0
  5  6  2  0
  6  7  1  0
  7  8  1  0
  8  9  1  0
  9 10  2  0
 10 11  1  0
 11 12  1  0
 12 13  2  0
 13 14  1  0
 14 15  1  0
 15 16  2  0
 15 17  2  0
 15 18  1  0
 18 19  2  0
 19 20  1  0
 20 21  2  0
 21 22  1  0
 21 23  1  0
 23 24  2  0
 13  5  1  0
 24 18  1  0
 11  7  2  0
  1 25  1  0
  1 26  1  0
  1 27  1  0
  2 28  1  0
  2 29  1  0
  4 30  1  0
  4 31  1  0
  4 32  1  0
  6 33  1  0
  8 34  1  0
 10 35  1  0
 12 36  1  0
 19 37  1  0
 20 38  1  0
 23 39  1  0
 24 40  1  0
M  CHG  1  14  -1
M  END
>  <UniqueID>  (29) 
28

>  <SMILES>  (29) 
CCN(C)c1cc2[nH]ncc2cc1[N-]S(=O)(=O)c1ccc(Cl)cc1

>  <Energy>  (29) 
83.52151363770737

>  <Genealogy>  (29) 
CCN(C)c1cc2[nH]ncc2cc1[N-]S(=O)(=O)c1ccc(Cl)cc1 (protonated)
CCN(C)c1cc2[nH]ncc2cc1[N-]S(=O)(=O)c1ccc(Cl)cc1 (3D coordinates assigned)
CCN(C)c1cc2[nH]ncc2cc1[N-]S(=O)(=O)c1ccc(Cl)cc1 (optimized conformer: 83.52151363770737 kcal/mol)

>  <smiles>  (29) 
CCN(C)c1cc2[nH]ncc2cc1NS(=O)(=O)c1ccc(Cl)cc1

>  <score_type>  (29) 
oracle

>  <origin>  (29) 
adgpu

>  <m_score__min__energy>  (29) 
-8.9800000000000004

>  <m_primary>  (29) 
energy

$$$$
29:0
     RDKit          3D

 40 42  0  0  0  0  0  0  0  0999 V2000
   -2.4000   23.0720  -29.9640 O   0  0  0  0  0  0  0  0  0  0  0  0
   -2.9960   24.1760  -29.8440 C   0  0  0  0  0  0  0  0  0  0  0  0
   -2.2560   25.2970  -29.3390 N   0  0  0  0  0  0  0  0  0  0  0  0
   -0.9440   25.2610  -28.7010 C   0  0  0  0  0  0  0  0  0  0  0  0
   -0.9820   25.9050  -27.3390 C   0  0  0  0  0  0  0  0  0  0  0  0
   -0.4530   27.1900  -27.1440 C   0  0  0  0  0  0  0  0  0  0  0  0
   -0.5640   27.8100  -25.8990 C   0  0  0  0  0  0  0  0  0  0  0  0
   -1.2240   27.1480  -24.8620 C   0  0  0  0  0  0  0  0  0  0  0  0
   -1.7410   25.9070  -25.0650 N   0  0  0  0  0  0  0  0  0  0  0  0
   -1.6390   25.2800  -26.2680 C   0  0  0  0  0  0  0  0  0  0  0  0
   -4.4240   24.2570  -30.2050 C   0  0  0  0  0  0  0  0  0  0  0  0
   -5.4050   24.8740  -29.4500 C   0  0  0  0  0  0  0  0  0  0  0  0
   -6.5810   24.7120  -30.1490 C   0  0  0  0  0  0  0  0  0  0  0  0
   -6.2450   23.9950  -31.2810 C   0  0  0  0  0  0  0  0  0  0  0  0
   -7.1950   23.5280  -32.3360 C   0  0  0  0  0  0  0  0  0  0  0  0
   -8.2680   22.2520  -31.6980 S   0  0  0  0  0  0  0  0  0  0  0  0
   -9.6640   22.5060  -32.1930 O   0  0  0  0  0  0  0  0  0  0  0  0
   -8.2810   22.2950  -30.1950 O   0  0  0  0  0  0  0  0  0  0  0  0
   -7.7270   20.6590  -32.2280 C   0  0  0  0  0  0  0  0  0  0  0  0
   -8.4260   19.5130  -31.8250 C   0  0  0  0  0  0  0  0  0  0  0  0
   -8.0070   18.2480  -32.2450 C   0  0  0  0  0  0  0  0  0  0  0  0
   -6.8960   18.1220  -33.0850 C   0  0  0  0  0  0  0  0  0  0  0  0
   -6.3680   16.5340  -33.6110 Cl  0  0  0  0  0  0  0  0  0  0  0  0
   -6.2000   19.2630  -33.4980 C   0  0  0  0  0  0  0  0  0  0  0  0
   -6.6080   20.5280  -33.0640 C   0  0  0  0  0  0  0  0  0  0  0  0
   -4.9580   23.7410  -31.2880 O   0  0  0  0  0  0  0  0  0  0  0  0
   -0.6259   24.2135  -28.5938 H   0  0  0  0  0  0  0  0  0  0  0  0
   -0.2354   25.8193  -29.3304 H   0  0  0  0  0  0  0  0  0  0  0  0
    0.0497   27.7090  -27.9734 H   0  0  0  0  0  0  0  0  0  0  0  0
   -0.1359   28.8101  -25.7362 H   0  0  0  0  0  0  0  0  0  0  0  0
   -1.3259   27.6312  -23.8791 H   0  0  0  0  0  0  0  0  0  0  0  0
   -2.0736   24.2784  -26.4018 H   0  0  0  0  0  0  0  0  0  0  0  0
   -5.2730   25.3893  -28.4872 H   0  0  0  0  0  0  0  0  0  0  0  0
   -7.5790   25.0772  -29.8651 H   0  0  0  0  0  0  0  0  0  0  0  0
   -7.8059   24.3781  -32.6738 H   0  0  0  0  0  0  0  0  0  0  0  0
   -6.6164   23.1164  -33.1761 H   0  0  0  0  0  0  0  0  0  0  0  0
   -9.3083   19.6099  -31.1752 H   0  0  0  0  0  0  0  0  0  0  0  0
   -8.5512   17.3509  -31.9148 H   0  0  0  0  0  0  0  0  0  0  0  0
   -5.3308   19.1649  -34.1649 H   0  0  0  0  0  0  0  0  0  0  0  0
   -6.0504   21.4224  -33.3787 H   0  0  0  0  0  0  0  0  0  0  0  0
  1  2  2  0
  2  3  1  0
  3  4  1  0
  4  5  1  0
  5  6  2  0
  6  7  1  0
  7  8  2  0
  8  9  1  0
  9 10  2  0
  2 11  1  0
 11 12  2  0
 12 13  1  0
 13 14  2  0
 14 15  1  0
 15 16  1  0
 16 17  2  0
 16 18  2  0
 16 19  1  0
 19 20  2  0
 20 21  1  0
 21 22  2  0
 22 23  1  0
 22 24  1  0
 24 25  2  0
 14 26  1  0
 10  5  1  0
 26 11  1  0
 25 19  1  0
  4 27  1  0
  4 28  1  0
  6 29  1  0
  7 30  1  0
  8 31  1  0
 10 32  1  0
 12 33  1  0
 13 34  1  0
 15 35  1  0
 15 36  1  0
 20 37  1  0
 21 38  1  0
 24 39  1  0
 25 40  1  0
M  CHG  1   3  -1
M  END
>  <UniqueID>  (30) 
29

>  <SMILES>  (30) 
O=C([N-]Cc1cccnc1)c1ccc(CS(=O)(=O)c2ccc(Cl)cc2)o1

>  <Energy>  (30) 
59.4157346787983

>  <Genealogy>  (30) 
O=C([N-]Cc1cccnc1)c1ccc(CS(=O)(=O)c2ccc(Cl)cc2)o1 (protonated)
O=C([N-]Cc1cccnc1)c1ccc(CS(=O)(=O)c2ccc(Cl)cc2)o1 (3D coordinates assigned)
O=C([N-]Cc1cccnc1)c1ccc(CS(=O)(=O)c2ccc(Cl)cc2)o1 (optimized conformer: 59.4157346787983 kcal/mol)

>  <smiles>  (30) 
O=C(NCc1cccnc1)c1ccc(CS(=O)(=O)c2ccc(Cl)cc2)o1

>  <score_type>  (30) 
oracle

>  <origin>  (30) 
adgpu

>  <m_score__min__energy>  (30) 
-11.06

>  <m_primary>  (30) 
energy

$$$$
30:0
     RDKit          3D

 44 46  0  0  0  0  0  0  0  0999 V2000
   -3.1110   15.5590  -35.8710 C   0  0  0  0  0  0  0  0  0  0  0  0
   -3.0930   16.0590  -34.4600 C   0  0  0  0  0  0  0  0  0  0  0  0
   -2.8750   15.2400  -33.5260 O   0  0  0  0  0  0  0  0  0  0  0  0
   -3.2480   17.4640  -34.1690 N   0  0  0  0  0  0  0  0  0  0  0  0
   -2.0250   18.2890  -34.1420 C   0  0  0  0  0  0  0  0  0  0  0  0
   -2.3220   19.7720  -33.8950 C   0  0  0  0  0  0  0  0  0  0  0  0
   -3.2460   19.9370  -32.6910 C   0  0  0  0  0  0  0  0  0  0  0  0
   -4.5250   19.1880  -32.9260 C   0  0  0  0  0  0  0  0  0  0  0  0
   -5.7300   19.6730  -32.3980 C   0  0  0  0  0  0  0  0  0  0  0  0
   -6.9290   18.9870  -32.6230 C   0  0  0  0  0  0  0  0  0  0  0  0
   -8.4360   19.6050  -31.9520 S   0  0  0  0  0  0  0  0  0  0  0  0
   -9.3200   20.0620  -33.0790 O   0  0  0  0  0  0  0  0  0  0  0  0
   -9.1390   18.5220  -31.1800 O   0  0  0  0  0  0  0  0  0  0  0  0
   -8.1100   20.9480  -30.8980 N   0  0  0  0  0  0  0  0  0  0  0  0
   -8.1840   22.2020  -31.6510 C   0  0  0  0  0  0  0  0  0  0  0  0
   -6.9640   23.0290  -31.3640 C   0  0  0  0  0  0  0  0  0  0  0  0
   -7.0690   24.1930  -30.5840 C   0  0  0  0  0  0  0  0  0  0  0  0
   -5.9290   24.9480  -30.2890 C   0  0  0  0  0  0  0  0  0  0  0  0
   -4.6770   24.5420  -30.7610 C   0  0  0  0  0  0  0  0  0  0  0  0
   -3.5460   25.2940  -30.4710 O   0  0  0  0  0  0  0  0  0  0  0  0
   -4.5640   23.3750  -31.5240 C   0  0  0  0  0  0  0  0  0  0  0  0
   -5.7010   22.6170  -31.8200 C   0  0  0  0  0  0  0  0  0  0  0  0
   -6.9250   17.8210  -33.3960 C   0  0  0  0  0  0  0  0  0  0  0  0
   -5.7260   17.3240  -33.9120 C   0  0  0  0  0  0  0  0  0  0  0  0
   -4.5050   17.9780  -33.6530 C   0  0  0  0  0  0  0  0  0  0  0  0
   -3.1506   14.4597  -35.8700 H   0  0  0  0  0  0  0  0  0  0  0  0
   -3.9954   15.9573  -36.3899 H   0  0  0  0  0  0  0  0  0  0  0  0
   -2.2003   15.8926  -36.3899 H   0  0  0  0  0  0  0  0  0  0  0  0
   -1.3697   17.9220  -33.3383 H   0  0  0  0  0  0  0  0  0  0  0  0
   -1.5434   18.2045  -35.1273 H   0  0  0  0  0  0  0  0  0  0  0  0
   -1.3782   20.3034  -33.7030 H   0  0  0  0  0  0  0  0  0  0  0  0
   -2.8170   20.1894  -34.7842 H   0  0  0  0  0  0  0  0  0  0  0  0
   -2.7501   19.5402  -31.7929 H   0  0  0  0  0  0  0  0  0  0  0  0
   -3.4708   21.0044  -32.5490 H   0  0  0  0  0  0  0  0  0  0  0  0
   -5.7330   20.5984  -31.8033 H   0  0  0  0  0  0  0  0  0  0  0  0
   -7.1300   20.8350  -30.5500 H   0  0  0  0  0  0  0  0  0  0  0  0
   -8.2328   21.9813  -32.7275 H   0  0  0  0  0  0  0  0  0  0  0  0
   -9.0840   22.7584  -31.3504 H   0  0  0  0  0  0  0  0  0  0  0  0
   -8.0509   24.5116  -30.2041 H   0  0  0  0  0  0  0  0  0  0  0  0
   -6.0176   25.8628  -29.6846 H   0  0  0  0  0  0  0  0  0  0  0  0
   -3.5786   23.0530  -31.8919 H   0  0  0  0  0  0  0  0  0  0  0  0
   -5.6061   21.6948  -32.4120 H   0  0  0  0  0  0  0  0  0  0  0  0
   -7.8691   17.2939  -33.5981 H   0  0  0  0  0  0  0  0  0  0  0  0
   -5.7350   16.4122  -34.5272 H   0  0  0  0  0  0  0  0  0  0  0  0
  1  2  1  0
  2  3  2  0
  2  4  1  0
  4  5  1  0
  5  6  1  0
  6  7  1  0
  7  8  1  0
  8  9  2  0
  9 10  1  0
 10 11  1  0
 11 12  2  0
 11 13  2  0
 11 14  1  0
 14 15  1  0
 15 16  1  0
 16 17  2  0
 17 18  1  0
 18 19  2  0
 19 20  1  0
 19 21  1  0
 21 22  2  0
 10 23  2  0
 23 24  1  0
 24 25  2  0
 25  4  1  0
 25  8  1  0
 22 16  1  0
  1 26  1  0
  1 27  1  0
  1 28  1  0
  5 29  1  0
  5 30  1  0
  6 31  1  0
  6 32  1  0
  7 33  1  0
  7 34  1  0
  9 35  1  0
 14 36  1  0
 15 37  1  0
 15 38  1  0
 17 39  1  0
 18 40  1  0
 21 41  1  0
 22 42  1  0
 23 43  1  0
 24 44  1  0
M  CHG  1  20  -1
M  END
>  <UniqueID>  (31) 
30

>  <SMILES>  (31) 
CC(=O)N1CCCc2cc(S(=O)(=O)NCc3ccc([O-])cc3)ccc21

>  <Energy>  (31) 
47.05637226804034

>  <Genealogy>  (31) 
CC(=O)N1CCCc2cc(S(=O)(=O)NCc3ccc([O-])cc3)ccc21 (protonated)
CC(=O)N1CCCc2cc(S(=O)(=O)NCc3ccc([O-])cc3)ccc21 (3D coordinates assigned)
CC(=O)N1CCCc2cc(S(=O)(=O)NCc3ccc([O-])cc3)ccc21 (nonaromatic ring conformer: 47.05637226804034 kcal/mol)

>  <smiles>  (31) 
CC(=O)N1CCCc2cc(S(=O)(=O)NCc3ccc(O)cc3)ccc21

>  <score_type>  (31) 
oracle

>  <origin>  (31) 
adgpu

>  <m_score__min__energy>  (31) 
-11.710000000000001

>  <m_primary>  (31) 
energy

$$$$
31:0
     RDKit          3D

 39 41  0  0  0  0  0  0  0  0999 V2000
   -1.4940   21.0790  -33.0840 C   0  0  0  0  0  0  0  0  0  0  0  0
   -2.7090   20.2080  -33.1260 C   0  0  0  0  0  0  0  0  0  0  0  0
   -3.0040   19.4180  -34.1760 N   0  0  0  0  0  0  0  0  0  0  0  0
   -4.1590   18.7930  -33.8650 C   0  0  0  0  0  0  0  0  0  0  0  0
   -4.8320   17.8850  -34.8110 C   0  0  0  0  0  0  0  0  0  0  0  0
   -6.0860   17.7830  -34.7910 O   0  0  0  0  0  0  0  0  0  0  0  0
   -4.1040   17.1120  -35.7060 O   0  0  0  0  0  0  0  0  0  0  0  0
   -4.6100   19.1900  -32.6090 C   0  0  0  0  0  0  0  0  0  0  0  0
   -5.8350   18.7290  -31.9180 C   0  0  0  0  0  0  0  0  0  0  0  0
   -5.7590   17.7260  -31.1580 O   0  0  0  0  0  0  0  0  0  0  0  0
   -7.1290   19.4390  -32.0580 C   0  0  0  0  0  0  0  0  0  0  0  0
   -8.2590   18.7560  -32.5430 C   0  0  0  0  0  0  0  0  0  0  0  0
   -9.4920   19.4060  -32.6390 C   0  0  0  0  0  0  0  0  0  0  0  0
   -9.6080   20.7470  -32.2640 C   0  0  0  0  0  0  0  0  0  0  0  0
   -8.4900   21.4400  -31.7970 C   0  0  0  0  0  0  0  0  0  0  0  0
   -7.2540   20.7940  -31.6970 C   0  0  0  0  0  0  0  0  0  0  0  0
   -3.6700   20.0980  -32.1320 C   0  0  0  0  0  0  0  0  0  0  0  0
   -3.6720   20.8200  -30.8380 C   0  0  0  0  0  0  0  0  0  0  0  0
   -3.4780   20.1680  -29.7770 O   0  0  0  0  0  0  0  0  0  0  0  0
   -3.8850   22.2830  -30.7520 C   0  0  0  0  0  0  0  0  0  0  0  0
   -5.0570   22.8530  -31.2750 C   0  0  0  0  0  0  0  0  0  0  0  0
   -5.2840   24.2280  -31.1650 C   0  0  0  0  0  0  0  0  0  0  0  0
   -4.3400   25.0520  -30.5450 C   0  0  0  0  0  0  0  0  0  0  0  0
   -4.5940   26.4190  -30.4420 O   0  0  0  0  0  0  0  0  0  0  0  0
   -3.1550   24.4930  -30.0390 C   0  0  0  0  0  0  0  0  0  0  0  0
   -2.2000   25.2970  -29.4260 O   0  0  0  0  0  0  0  0  0  0  0  0
   -2.9280   23.1170  -30.1490 C   0  0  0  0  0  0  0  0  0  0  0  0
   -1.2198   21.2756  -32.0370 H   0  0  0  0  0  0  0  0  0  0  0  0
   -0.6610   20.5711  -33.5920 H   0  0  0  0  0  0  0  0  0  0  0  0
   -1.7076   22.0310  -33.5920 H   0  0  0  0  0  0  0  0  0  0  0  0
   -8.1713   17.7030  -32.8488 H   0  0  0  0  0  0  0  0  0  0  0  0
  -10.3726   18.8613  -33.0103 H   0  0  0  0  0  0  0  0  0  0  0  0
  -10.5802   21.2565  -32.3368 H   0  0  0  0  0  0  0  0  0  0  0  0
   -8.5815   22.4971  -31.5069 H   0  0  0  0  0  0  0  0  0  0  0  0
   -6.3750   21.3472  -31.3345 H   0  0  0  0  0  0  0  0  0  0  0  0
   -5.8005   22.2141  -31.7740 H   0  0  0  0  0  0  0  0  0  0  0  0
   -6.2100   24.6638  -31.5683 H   0  0  0  0  0  0  0  0  0  0  0  0
   -3.8720   27.0820  -30.1870 H   0  0  0  0  0  0  0  0  0  0  0  0
   -1.9939   22.6848  -29.7608 H   0  0  0  0  0  0  0  0  0  0  0  0
  1  2  1  0
  2  3  1  0
  3  4  1  0
  4  5  1  0
  5  6  2  0
  5  7  1  0
  4  8  2  0
  8  9  1  0
  9 10  2  0
  9 11  1  0
 11 12  2  0
 12 13  1  0
 13 14  2  0
 14 15  1  0
 15 16  2  0
  8 17  1  0
 17 18  1  0
 18 19  2  0
 18 20  1  0
 20 21  2  0
 21 22  1  0
 22 23  2  0
 23 24  1  0
 23 25  1  0
 25 26  1  0
 25 27  2  0
 17  2  2  0
 27 20  1  0
 16 11  1  0
  1 28  1  0
  1 29  1  0
  1 30  1  0
 12 31  1  0
 13 32  1  0
 14 33  1  0
 15 34  1  0
 16 35  1  0
 21 36  1  0
 22 37  1  0
 24 38  1  0
 27 39  1  0
M  CHG  3   3  -1   7  -1  26  -1
M  END
>  <UniqueID>  (32) 
31

>  <SMILES>  (32) 
Cc1[n-]c(C(=O)[O-])c(C(=O)c2ccccc2)c1C(=O)c1ccc(O)c([O-])c1

>  <Energy>  (32) 
76.43579887384752

>  <Genealogy>  (32) 
Cc1[n-]c(C(=O)[O-])c(C(=O)c2ccccc2)c1C(=O)c1ccc(O)c([O-])c1 (protonated)
Cc1[n-]c(C(=O)[O-])c(C(=O)c2ccccc2)c1C(=O)c1ccc(O)c([O-])c1 (3D coordinates assigned)
Cc1[n-]c(C(=O)[O-])c(C(=O)c2ccccc2)c1C(=O)c1ccc(O)c([O-])c1 (optimized conformer: 76.43579887384752 kcal/mol)

>  <smiles>  (32) 
Cc1[nH]c(C(=O)O)c(C(=O)c2ccccc2)c1C(=O)c1ccc(O)c(O)c1

>  <score_type>  (32) 
oracle

>  <origin>  (32) 
adgpu

>  <m_score__min__energy>  (32) 
-11.289999999999999

>  <m_primary>  (32) 
energy

$$$$
32:0
     RDKit          3D

 32 34  0  0  0  0  0  0  0  0999 V2000
   -5.7110   26.4710  -30.4570 O   0  0  0  0  0  0  0  0  0  0  0  0
   -5.1510   25.3610  -30.6520 C   0  0  0  0  0  0  0  0  0  0  0  0
   -3.7270   25.2700  -30.5060 N   0  0  0  0  0  0  0  0  0  0  0  0
   -3.0230   24.4970  -29.5230 C   0  0  0  0  0  0  0  0  0  0  0  0
   -3.6020   23.3080  -29.0640 C   0  0  0  0  0  0  0  0  0  0  0  0
   -2.9480   22.5250  -28.1080 C   0  0  0  0  0  0  0  0  0  0  0  0
   -1.7170   22.9350  -27.5920 C   0  0  0  0  0  0  0  0  0  0  0  0
   -1.1450   24.1360  -28.0190 C   0  0  0  0  0  0  0  0  0  0  0  0
   -1.7970   24.9270  -28.9710 C   0  0  0  0  0  0  0  0  0  0  0  0
   -1.2330   26.1430  -29.3410 O   0  0  0  0  0  0  0  0  0  0  0  0
   -5.9850   24.1860  -30.9690 C   0  0  0  0  0  0  0  0  0  0  0  0
   -5.6080   23.0740  -31.6960 C   0  0  0  0  0  0  0  0  0  0  0  0
   -6.7310   22.2690  -31.6810 C   0  0  0  0  0  0  0  0  0  0  0  0
   -6.8420   20.9190  -32.2770 C   0  0  0  0  0  0  0  0  0  0  0  0
   -5.7710   20.4270  -33.0480 C   0  0  0  0  0  0  0  0  0  0  0  0
   -5.8070   19.1330  -33.5720 C   0  0  0  0  0  0  0  0  0  0  0  0
   -6.9080   18.3120  -33.3330 C   0  0  0  0  0  0  0  0  0  0  0  0
   -7.9850   18.7880  -32.5830 C   0  0  0  0  0  0  0  0  0  0  0  0
   -7.9730   20.0900  -32.0670 C   0  0  0  0  0  0  0  0  0  0  0  0
   -9.1100   20.5310  -31.3870 O   0  0  0  0  0  0  0  0  0  0  0  0
   -7.7010   22.8640  -30.9590 N   0  0  0  0  0  0  0  0  0  0  0  0
   -7.2470   24.0310  -30.5280 N   0  0  0  0  0  0  0  0  0  0  0  0
   -4.5778   22.9877  -29.4580 H   0  0  0  0  0  0  0  0  0  0  0  0
   -3.4035   21.5854  -27.7621 H   0  0  0  0  0  0  0  0  0  0  0  0
   -1.1974   22.3121  -26.8490 H   0  0  0  0  0  0  0  0  0  0  0  0
   -0.1789   24.4607  -27.6053 H   0  0  0  0  0  0  0  0  0  0  0  0
   -4.6384   22.8752  -32.1758 H   0  0  0  0  0  0  0  0  0  0  0  0
   -4.8978   21.0681  -33.2393 H   0  0  0  0  0  0  0  0  0  0  0  0
   -4.9651   18.7609  -34.1744 H   0  0  0  0  0  0  0  0  0  0  0  0
   -6.9282   17.2885  -33.7356 H   0  0  0  0  0  0  0  0  0  0  0  0
   -8.8502   18.1350  -32.3958 H   0  0  0  0  0  0  0  0  0  0  0  0
   -9.1800   21.4400  -30.9490 H   0  0  0  0  0  0  0  0  0  0  0  0
  1  2  2  0
  2  3  1  0
  3  4  1  0
  4  5  2  0
  5  6  1  0
  6  7  2  0
  7  8  1  0
  8  9  2  0
  9 10  1  0
  2 11  1  0
 11 12  1  0
 12 13  2  0
 13 14  1  0
 14 15  2  0
 15 16  1  0
 16 17  2  0
 17 18  1  0
 18 19  2  0
 19 20  1  0
 13 21  1  0
 21 22  1  0
  9  4  1  0
 22 11  2  0
 19 14  1  0
  5 23  1  0
  6 24  1  0
  7 25  1  0
  8 26  1  0
 12 27  1  0
 15 28  1  0
 16 29  1  0
 17 30  1  0
 18 31  1  0
 20 32  1  0
M  CHG  3   3  -1  10  -1  21  -1
M  END
>  <UniqueID>  (33) 
32

>  <SMILES>  (33) 
O=C([N-]c1ccccc1[O-])c1cc(-c2ccccc2O)[n-]n1

>  <Energy>  (33) 
76.67052693796894

>  <Genealogy>  (33) 
O=C([N-]c1ccccc1[O-])c1cc(-c2ccccc2O)[n-]n1 (protonated)
O=C([N-]c1ccccc1[O-])c1cc(-c2ccccc2O)[n-]n1 (3D coordinates assigned)
O=C([N-]c1ccccc1[O-])c1cc(-c2ccccc2O)[n-]n1 (optimized conformer: 76.67052693796894 kcal/mol)

>  <smiles>  (33) 
O=C(Nc1ccccc1O)c1cc(-c2ccccc2O)[nH]n1

>  <score_type>  (33) 
oracle

>  <origin>  (33) 
adgpu

>  <m_score__min__energy>  (33) 
-12.710000000000001

>  <m_primary>  (33) 
energy

$$$$
33:0
     RDKit          3D

 69 74  0  0  0  0  0  0  0  0999 V2000
   -5.0810   23.9460  -32.0070 O   0  0  0  0  0  0  0  0  0  0  0  0
   -5.4520   22.7440  -32.0810 C   0  0  0  0  0  0  0  0  0  0  0  0
   -6.8260   22.2760  -31.9470 C   0  0  0  0  0  0  0  0  0  0  0  0
   -8.0140   22.9850  -31.7690 C   0  0  0  0  0  0  0  0  0  0  0  0
   -9.2060   22.2510  -31.6390 C   0  0  0  0  0  0  0  0  0  0  0  0
   -9.1850   20.8390  -31.6760 C   0  0  0  0  0  0  0  0  0  0  0  0
   -7.9700   20.1480  -31.8450 C   0  0  0  0  0  0  0  0  0  0  0  0
   -6.8030   20.8990  -31.9830 C   0  0  0  0  0  0  0  0  0  0  0  0
   -5.4130   20.4840  -32.1420 C   0  0  0  0  0  0  0  0  0  0  0  0
   -5.0060   19.2920  -32.2010 O   0  0  0  0  0  0  0  0  0  0  0  0
   -4.5620   21.6310  -32.2350 N   0  0  0  0  0  0  0  0  0  0  0  0
   -3.1340   21.6650  -32.0660 C   0  0  0  0  0  0  0  0  0  0  0  0
   -2.2970   21.3960  -33.1630 C   0  0  0  0  0  0  0  0  0  0  0  0
   -0.9070   21.3270  -33.0010 C   0  0  0  0  0  0  0  0  0  0  0  0
    0.1280   20.9140  -34.3690 S   0  0  0  0  0  0  0  0  0  0  0  0
   -0.7150   20.7930  -35.6100 O   0  0  0  0  0  0  0  0  0  0  0  0
    1.1190   22.0270  -34.5770 O   0  0  0  0  0  0  0  0  0  0  0  0
    0.9830   19.4180  -34.0720 N   0  0  0  0  0  0  0  0  0  0  0  0
    0.0270   18.3280  -33.7310 C   0  0  0  0  0  0  0  0  0  0  0  0
   -0.1070   18.1090  -32.2170 C   0  0  0  0  0  0  0  0  0  0  0  0
    1.2440   17.7340  -31.5860 C   0  0  0  0  0  0  0  0  0  0  0  0
    2.4400   18.3300  -32.3520 C   0  0  0  0  0  0  0  0  0  0  0  0
    2.0450   19.6350  -33.0560 C   0  0  0  0  0  0  0  0  0  0  0  0
   -0.3460   21.5520  -31.7380 C   0  0  0  0  0  0  0  0  0  0  0  0
   -1.1660   21.8480  -30.6470 C   0  0  0  0  0  0  0  0  0  0  0  0
   -2.5630   21.9090  -30.7960 C   0  0  0  0  0  0  0  0  0  0  0  0
   -3.3930   22.2520  -29.6680 N   0  0  0  0  0  0  0  0  0  0  0  0
   -3.4120   21.4510  -28.4540 C   0  0  0  0  0  0  0  0  0  0  0  0
   -2.6590   22.1610  -27.3180 C   0  0  0  0  0  0  0  0  0  0  0  0
   -2.6230   23.6450  -27.4030 N   0  0  0  0  0  0  0  0  0  0  0  0
   -1.9150   24.3880  -26.3600 C   0  0  0  0  0  0  0  0  0  0  0  0
   -0.7830   23.8440  -25.7050 C   0  0  0  0  0  0  0  0  0  0  0  0
   -0.1040   24.5650  -24.7190 C   0  0  0  0  0  0  0  0  0  0  0  0
   -0.5290   25.8420  -24.3630 C   0  0  0  0  0  0  0  0  0  0  0  0
   -1.6420   26.4010  -24.9840 C   0  0  0  0  0  0  0  0  0  0  0  0
   -2.3290   25.6900  -25.9730 C   0  0  0  0  0  0  0  0  0  0  0  0
   -3.1520   24.4000  -28.5690 C   0  0  0  0  0  0  0  0  0  0  0  0
   -3.9840   23.5740  -29.5410 C   0  0  0  0  0  0  0  0  0  0  0  0
   -8.0181   24.0844  -31.7315 H   0  0  0  0  0  0  0  0  0  0  0  0
  -10.1615   22.7798  -31.5076 H   0  0  0  0  0  0  0  0  0  0  0  0
  -10.1241   20.2757  -31.5721 H   0  0  0  0  0  0  0  0  0  0  0  0
   -7.9420   19.0486  -31.8675 H   0  0  0  0  0  0  0  0  0  0  0  0
   -2.7377   21.2381  -34.1584 H   0  0  0  0  0  0  0  0  0  0  0  0
    1.4490   19.1570  -34.9730 H   0  0  0  0  0  0  0  0  0  0  0  0
   -0.9616   18.5870  -34.1379 H   0  0  0  0  0  0  0  0  0  0  0  0
    0.4157   17.3965  -34.1682 H   0  0  0  0  0  0  0  0  0  0  0  0
   -0.4750   19.0354  -31.7520 H   0  0  0  0  0  0  0  0  0  0  0  0
   -0.8118   17.2819  -32.0465 H   0  0  0  0  0  0  0  0  0  0  0  0
    1.2660   18.1081  -30.5518 H   0  0  0  0  0  0  0  0  0  0  0  0
    1.3368   16.6385  -31.6226 H   0  0  0  0  0  0  0  0  0  0  0  0
    3.2552   18.5360  -31.6428 H   0  0  0  0  0  0  0  0  0  0  0  0
    2.7660   17.6054  -33.1127 H   0  0  0  0  0  0  0  0  0  0  0  0
    1.6765   20.3475  -32.3033 H   0  0  0  0  0  0  0  0  0  0  0  0
    2.9344   20.0265  -33.5714 H   0  0  0  0  0  0  0  0  0  0  0  0
    0.7444   21.4954  -31.6047 H   0  0  0  0  0  0  0  0  0  0  0  0
   -0.7147   22.0353  -29.6615 H   0  0  0  0  0  0  0  0  0  0  0  0
   -4.4554   21.2866  -28.1471 H   0  0  0  0  0  0  0  0  0  0  0  0
   -2.9163   20.4905  -28.6583 H   0  0  0  0  0  0  0  0  0  0  0  0
   -3.1423   21.8876  -26.3684 H   0  0  0  0  0  0  0  0  0  0  0  0
   -1.6132   21.8288  -27.3952 H   0  0  0  0  0  0  0  0  0  0  0  0
   -0.4326   22.8374  -25.9769 H   0  0  0  0  0  0  0  0  0  0  0  0
    0.7709   24.1211  -24.2215 H   0  0  0  0  0  0  0  0  0  0  0  0
    0.0141   26.4083  -23.5921 H   0  0  0  0  0  0  0  0  0  0  0  0
   -1.9828   27.4064  -24.6957 H   0  0  0  0  0  0  0  0  0  0  0  0
   -3.2039   26.1466  -26.4588 H   0  0  0  0  0  0  0  0  0  0  0  0
   -3.7815   25.2184  -28.1896 H   0  0  0  0  0  0  0  0  0  0  0  0
   -2.2757   24.7519  -29.1332 H   0  0  0  0  0  0  0  0  0  0  0  0
   -5.0122   23.4829  -29.1608 H   0  0  0  0  0  0  0  0  0  0  0  0
   -4.0039   24.0672  -30.5240 H   0  0  0  0  0  0  0  0  0  0  0  0
  1  2  2  0
  2  3  1  0
  3  4  2  0
  4  5  1  0
  5  6  2  0
  6  7  1  0
  7  8  2  0
  8  9  1  0
  9 10  2  0
  9 11  1  0
 11 12  1  0
 12 13  2  0
 13 14  1  0
 14 15  1  0
 15 16  2  0
 15 17  2  0
 15 18  1  0
 18 19  1  0
 19 20  1  0
 20 21  1  0
 21 22  1  0
 22 23  1  0
 14 24  2  0
 24 25  1  0
 25 26  2  0
 26 27  1  0
 27 28  1  0
 28 29  1  0
 29 30  1  0
 30 31  1  0
 31 32  2  0
 32 33  1  0
 33 34  2  0
 34 35  1  0
 35 36  2  0
 30 37  1  0
 37 38  1  0
 11  2  1  0
 26 12  1  0
 38 27  1  0
  8  3  1  0
 23 18  1  0
 36 31  1  0
  4 39  1  0
  5 40  1  0
  6 41  1  0
  7 42  1  0
 13 43  1  0
 18 44  1  0
 19 45  1  0
 19 46  1  0
 20 47  1  0
 20 48  1  0
 21 49  1  0
 21 50  1  0
 22 51  1  0
 22 52  1  0
 23 53  1  0
 23 54  1  0
 24 55  1  0
 25 56  1  0
 28 57  1  0
 28 58  1  0
 29 59  1  0
 29 60  1  0
 32 61  1  0
 33 62  1  0
 34 63  1  0
 35 64  1  0
 36 65  1  0
 37 66  1  0
 37 67  1  0
 38 68  1  0
 38 69  1  0
M  CHG  1  18   1
M  END
>  <UniqueID>  (34) 
33

>  <SMILES>  (34) 
O=C1c2ccccc2C(=O)N1c1cc(S(=O)(=O)[NH+]2CCCCC2)ccc1N1CCN(c2ccccc2)CC1

>  <Energy>  (34) 
131.4117994720764

>  <Genealogy>  (34) 
O=C1c2ccccc2C(=O)N1c1cc(S(=O)(=O)[NH+]2CCCCC2)ccc1N1CCN(c2ccccc2)CC1 (protonated)
O=C1c2ccccc2C(=O)N1c1cc(S(=O)(=O)[NH+]2CCCCC2)ccc1N1CCN(c2ccccc2)CC1 (3D coordinates assigned)
O=C1c2ccccc2C(=O)N1c1cc(S(=O)(=O)[NH+]2CCCCC2)ccc1N1CCN(c2ccccc2)CC1 (nonaromatic ring conformer: 131.4117994720764 kcal/mol)

>  <smiles>  (34) 
O=C1c2ccccc2C(=O)N1c1cc(S(=O)(=O)N2CCCCC2)ccc1N1CCN(c2ccccc2)CC1

>  <score_type>  (34) 
oracle

>  <origin>  (34) 
adgpu

>  <m_score__min__energy>  (34) 
-10.41

>  <m_primary>  (34) 
energy

$$$$
34:0
     RDKit          3D

 59 62  0  0  0  0  0  0  0  0999 V2000
   -1.8430   22.9900  -31.0160 O   0  0  0  0  0  0  0  0  0  0  0  0
   -2.8820   22.3150  -30.1650 S   0  0  0  0  0  0  0  0  0  0  0  0
   -2.5090   22.4770  -28.7150 O   0  0  0  0  0  0  0  0  0  0  0  0
   -2.9820   20.6150  -30.5110 N   0  0  0  0  0  0  0  0  0  0  0  0
   -2.7030   20.0140  -31.7840 C   0  0  0  0  0  0  0  0  0  0  0  0
   -3.6850   19.3000  -32.4930 C   0  0  0  0  0  0  0  0  0  0  0  0
   -3.3700   18.6720  -33.7100 C   0  0  0  0  0  0  0  0  0  0  0  0
   -4.5800   17.6870  -34.5370 S   0  0  0  0  0  0  0  0  0  0  0  0
   -3.9370   16.9930  -35.7070 O   0  0  0  0  0  0  0  0  0  0  0  0
   -5.6750   18.5770  -35.0640 O   0  0  0  0  0  0  0  0  0  0  0  0
   -5.2590   16.4830  -33.4630 N   0  0  0  0  0  0  0  0  0  0  0  0
   -6.2000   15.5820  -34.1770 C   0  0  0  0  0  0  0  0  0  0  0  0
   -5.5870   14.2130  -34.5070 C   0  0  0  0  0  0  0  0  0  0  0  0
   -5.1170   13.4930  -33.2310 C   0  0  0  0  0  0  0  0  0  0  0  0
   -4.6780   14.4690  -32.1200 C   0  0  0  0  0  0  0  0  0  0  0  0
   -4.1860   15.7890  -32.7170 C   0  0  0  0  0  0  0  0  0  0  0  0
   -2.0820   18.8080  -34.2470 C   0  0  0  0  0  0  0  0  0  0  0  0
   -1.1160   19.5570  -33.5700 C   0  0  0  0  0  0  0  0  0  0  0  0
   -1.4220   20.1600  -32.3420 C   0  0  0  0  0  0  0  0  0  0  0  0
   -0.4450   20.8880  -31.6710 O   0  0  0  0  0  0  0  0  0  0  0  0
   -4.4510   23.0640  -30.4860 C   0  0  0  0  0  0  0  0  0  0  0  0
   -5.5750   22.2430  -30.6940 C   0  0  0  0  0  0  0  0  0  0  0  0
   -6.8350   22.8080  -30.9390 C   0  0  0  0  0  0  0  0  0  0  0  0
   -8.2460   21.7660  -31.1580 S   0  0  0  0  0  0  0  0  0  0  0  0
   -9.1260   21.8650  -29.9380 O   0  0  0  0  0  0  0  0  0  0  0  0
   -9.0360   22.2580  -32.3430 O   0  0  0  0  0  0  0  0  0  0  0  0
   -7.8180   20.0910  -31.4140 N   0  0  0  0  0  0  0  0  0  0  0  0
   -7.3790   19.8290  -32.7840 C   0  0  0  0  0  0  0  0  0  0  0  0
   -7.5960   18.3410  -33.0090 C   0  0  0  0  0  0  0  0  0  0  0  0
   -8.6930   17.9470  -32.0330 C   0  0  0  0  0  0  0  0  0  0  0  0
   -8.9490   19.1920  -31.1880 C   0  0  0  0  0  0  0  0  0  0  0  0
   -6.9700   24.2030  -30.9740 C   0  0  0  0  0  0  0  0  0  0  0  0
   -5.8520   25.0250  -30.7930 C   0  0  0  0  0  0  0  0  0  0  0  0
   -4.5930   24.4620  -30.5530 C   0  0  0  0  0  0  0  0  0  0  0  0
   -3.4940   25.3040  -30.3870 O   0  0  0  0  0  0  0  0  0  0  0  0
   -4.7072   19.2325  -32.0922 H   0  0  0  0  0  0  0  0  0  0  0  0
   -7.0851   15.4259  -33.5427 H   0  0  0  0  0  0  0  0  0  0  0  0
   -6.4581   16.0653  -35.1309 H   0  0  0  0  0  0  0  0  0  0  0  0
   -6.3431   13.5932  -35.0112 H   0  0  0  0  0  0  0  0  0  0  0  0
   -4.7159   14.3692  -35.1604 H   0  0  0  0  0  0  0  0  0  0  0  0
   -5.9448   12.8767  -32.8503 H   0  0  0  0  0  0  0  0  0  0  0  0
   -4.2425   12.8820  -33.4990 H   0  0  0  0  0  0  0  0  0  0  0  0
   -5.5333   14.6696  -31.4580 H   0  0  0  0  0  0  0  0  0  0  0  0
   -3.8539   14.0101  -31.5540 H   0  0  0  0  0  0  0  0  0  0  0  0
   -3.8380   16.4414  -31.9026 H   0  0  0  0  0  0  0  0  0  0  0  0
   -3.3684   15.5658  -33.4182 H   0  0  0  0  0  0  0  0  0  0  0  0
   -1.8316   18.3243  -35.2027 H   0  0  0  0  0  0  0  0  0  0  0  0
   -0.1113   19.6740  -34.0024 H   0  0  0  0  0  0  0  0  0  0  0  0
   -5.4643   21.1490  -30.6642 H   0  0  0  0  0  0  0  0  0  0  0  0
   -7.9768   20.4157  -33.4970 H   0  0  0  0  0  0  0  0  0  0  0  0
   -6.3269   20.1128  -32.9341 H   0  0  0  0  0  0  0  0  0  0  0  0
   -7.9138   18.1496  -34.0446 H   0  0  0  0  0  0  0  0  0  0  0  0
   -6.6747   17.7619  -32.8482 H   0  0  0  0  0  0  0  0  0  0  0  0
   -9.6046   17.6558  -32.5755 H   0  0  0  0  0  0  0  0  0  0  0  0
   -8.4007   17.0855  -31.4146 H   0  0  0  0  0  0  0  0  0  0  0  0
   -9.8864   19.6759  -31.4996 H   0  0  0  0  0  0  0  0  0  0  0  0
   -9.0446   18.9352  -30.1227 H   0  0  0  0  0  0  0  0  0  0  0  0
   -7.9590   24.6534  -31.1445 H   0  0  0  0  0  0  0  0  0  0  0  0
   -5.9630   26.1184  -30.8395 H   0  0  0  0  0  0  0  0  0  0  0  0
  1  2  2  0
  2  3  2  0
  2  4  1  0
  4  5  1  0
  5  6  2  0
  6  7  1  0
  7  8  1  0
  8  9  2  0
  8 10  2  0
  8 11  1  0
 11 12  1  0
 12 13  1  0
 13 14  1  0
 14 15  1  0
 15 16  1  0
  7 17  2  0
 17 18  1  0
 18 19  2  0
 19 20  1  0
  2 21  1  0
 21 22  2  0
 22 23  1  0
 23 24  1  0
 24 25  2  0
 24 26  2  0
 24 27  1  0
 27 28  1  0
 28 29  1  0
 29 30  1  0
 30 31  1  0
 23 32  2  0
 32 33  1  0
 33 34  2  0
 34 35  1  0
 19  5  1  0
 34 21  1  0
 16 11  1  0
 31 27  1  0
  6 36  1  0
 12 37  1  0
 12 38  1  0
 13 39  1  0
 13 40  1  0
 14 41  1  0
 14 42  1  0
 15 43  1  0
 15 44  1  0
 16 45  1  0
 16 46  1  0
 17 47  1  0
 18 48  1  0
 22 49  1  0
 28 50  1  0
 28 51  1  0
 29 52  1  0
 29 53  1  0
 30 54  1  0
 30 55  1  0
 31 56  1  0
 31 57  1  0
 32 58  1  0
 33 59  1  0
M  CHG  3   4  -1  20  -1  35  -1
M  END
>  <UniqueID>  (35) 
34

>  <SMILES>  (35) 
O=S(=O)([N-]c1cc(S(=O)(=O)N2CCCCC2)ccc1[O-])c1cc(S(=O)(=O)N2CCCC2)ccc1[O-]

>  <Energy>  (35) 
72.00166116128725

>  <Genealogy>  (35) 
O=S(=O)([N-]c1cc(S(=O)(=O)N2CCCCC2)ccc1[O-])c1cc(S(=O)(=O)N2CCCC2)ccc1[O-] (protonated)
O=S(=O)([N-]c1cc(S(=O)(=O)N2CCCCC2)ccc1[O-])c1cc(S(=O)(=O)N2CCCC2)ccc1[O-] (3D coordinates assigned)
O=S(=O)([N-]c1cc(S(=O)(=O)N2CCCCC2)ccc1[O-])c1cc(S(=O)(=O)N2CCCC2)ccc1[O-] (nonaromatic ring conformer: 72.00166116128725 kcal/mol)

>  <smiles>  (35) 
O=S(=O)(Nc1cc(S(=O)(=O)N2CCCCC2)ccc1O)c1cc(S(=O)(=O)N2CCCC2)ccc1O

>  <score_type>  (35) 
oracle

>  <origin>  (35) 
adgpu

>  <m_score__min__energy>  (35) 
-14.800000000000001

>  <m_primary>  (35) 
energy

$$$$
35:0
     RDKit          3D

 55 57  0  0  0  0  0  0  0  0999 V2000
   -0.5310   23.5280  -29.8170 H   0  0  0  0  0  0  0  0  0  0  0  0
   -0.9840   22.8920  -30.4630 O   0  0  0  0  0  0  0  0  0  0  0  0
   -2.3580   22.9460  -30.6960 C   0  0  0  0  0  0  0  0  0  0  0  0
   -2.9840   21.9540  -31.4630 C   0  0  0  0  0  0  0  0  0  0  0  0
   -2.3880   21.1335  -31.8891 H   0  0  0  0  0  0  0  0  0  0  0  0
   -4.3640   22.0030  -31.6890 C   0  0  0  0  0  0  0  0  0  0  0  0
   -4.8519   21.2160  -32.2828 H   0  0  0  0  0  0  0  0  0  0  0  0
   -5.1260   23.0550  -31.1590 C   0  0  0  0  0  0  0  0  0  0  0  0
   -6.8810   23.0710  -31.3450 S   0  0  0  0  0  0  0  0  0  0  0  0
   -7.2310   23.5560  -32.7240 O   0  0  0  0  0  0  0  0  0  0  0  0
   -7.4780   24.0270  -30.3500 O   0  0  0  0  0  0  0  0  0  0  0  0
   -7.5540   21.4760  -31.0900 N   0  0  0  0  0  0  0  0  0  0  0  0
   -9.0250   21.5300  -30.8890 C   0  0  0  0  0  0  0  0  0  0  0  0
   -9.2836   20.9009  -30.0245 H   0  0  0  0  0  0  0  0  0  0  0  0
   -9.2957   22.5838  -30.7269 H   0  0  0  0  0  0  0  0  0  0  0  0
   -9.8170   21.0360  -32.1070 C   0  0  0  0  0  0  0  0  0  0  0  0
  -10.8921   21.0784  -31.8780 H   0  0  0  0  0  0  0  0  0  0  0  0
   -9.5792   21.6824  -32.9647 H   0  0  0  0  0  0  0  0  0  0  0  0
   -9.4360   19.5900  -32.4640 C   0  0  0  0  0  0  0  0  0  0  0  0
  -10.0596   18.9055  -31.8703 H   0  0  0  0  0  0  0  0  0  0  0  0
   -9.6021   19.4607  -33.5437 H   0  0  0  0  0  0  0  0  0  0  0  0
   -7.9550   19.2760  -32.1820 C   0  0  0  0  0  0  0  0  0  0  0  0
   -7.8749   18.7742  -31.2064 H   0  0  0  0  0  0  0  0  0  0  0  0
   -7.5793   18.6268  -32.9866 H   0  0  0  0  0  0  0  0  0  0  0  0
   -7.1080   20.5530  -32.1570 C   0  0  0  0  0  0  0  0  0  0  0  0
   -6.0569   20.2818  -31.9793 H   0  0  0  0  0  0  0  0  0  0  0  0
   -7.2214   21.0626  -33.1252 H   0  0  0  0  0  0  0  0  0  0  0  0
   -4.4930   24.0660  -30.4280 C   0  0  0  0  0  0  0  0  0  0  0  0
   -5.0791   24.9197  -30.0571 H   0  0  0  0  0  0  0  0  0  0  0  0
   -3.1210   24.0000  -30.1650 C   0  0  0  0  0  0  0  0  0  0  0  0
   -2.5200   25.0040  -29.3410 N   0  0  0  0  0  0  0  0  0  0  0  0
   -1.4890   24.7480  -28.3780 C   0  0  0  0  0  0  0  0  0  0  0  0
   -0.3550   25.2720  -28.5430 O   0  0  0  0  0  0  0  0  0  0  0  0
   -1.7570   23.9740  -27.1170 C   0  0  0  0  0  0  0  0  0  0  0  0
   -1.8099   24.6686  -26.2657 H   0  0  0  0  0  0  0  0  0  0  0  0
   -2.7119   23.4369  -27.2147 H   0  0  0  0  0  0  0  0  0  0  0  0
   -0.7100   23.0380  -26.8990 O   0  0  0  0  0  0  0  0  0  0  0  0
   -0.0060   22.5280  -27.9680 N   0  0  0  0  0  0  0  0  0  0  0  0
   -0.1740   21.3220  -28.4150 C   0  0  0  0  0  0  0  0  0  0  0  0
    0.3686   21.0187  -29.3226 H   0  0  0  0  0  0  0  0  0  0  0  0
   -1.0600   20.3370  -27.7620 C   0  0  0  0  0  0  0  0  0  0  0  0
   -2.3910   20.7100  -27.5140 C   0  0  0  0  0  0  0  0  0  0  0  0
   -2.7407   21.7101  -27.8098 H   0  0  0  0  0  0  0  0  0  0  0  0
   -3.2740   19.8240  -26.8960 C   0  0  0  0  0  0  0  0  0  0  0  0
   -4.3160   20.1241  -26.7108 H   0  0  0  0  0  0  0  0  0  0  0  0
   -2.8330   18.5560  -26.5130 C   0  0  0  0  0  0  0  0  0  0  0  0
   -3.5332   17.8507  -26.0416 H   0  0  0  0  0  0  0  0  0  0  0  0
   -1.5050   18.1810  -26.7270 C   0  0  0  0  0  0  0  0  0  0  0  0
   -1.1652   17.1802  -26.4222 H   0  0  0  0  0  0  0  0  0  0  0  0
   -0.5950   19.0750  -27.3310 C   0  0  0  0  0  0  0  0  0  0  0  0
    0.7670   18.7550  -27.4810 O   0  0  0  0  0  0  0  0  0  0  0  0
    1.2550   17.5360  -28.0380 C   0  0  0  0  0  0  0  0  0  0  0  0
    2.2727   17.6951  -28.4241 H   0  0  0  0  0  0  0  0  0  0  0  0
    0.4200   17.1370  -29.0610 F   0  0  0  0  0  0  0  0  0  0  0  0
    1.2810   16.5530  -27.0650 F   0  0  0  0  0  0  0  0  0  0  0  0
  1  2  1  0
  2  3  1  0
  3  4  2  0
  4  5  1  0
  4  6  1  0
  6  7  1  0
  6  8  2  0
  8  9  1  0
  9 10  2  0
  9 11  2  0
  9 12  1  0
 12 13  1  0
 13 14  1  0
 13 15  1  0
 13 16  1  0
 16 17  1  0
 16 18  1  0
 16 19  1  0
 19 20  1  0
 19 21  1  0
 19 22  1  0
 22 23  1  0
 22 24  1  0
 22 25  1  0
 25 26  1  0
 25 27  1  0
  8 28  1  0
 28 29  1  0
 28 30  2  0
 30 31  1  0
 31 32  1  0
 32 33  2  0
 32 34  1  0
 34 35  1  0
 34 36  1  0
 34 37  1  0
 37 38  1  0
 38 39  2  0
 39 40  1  0
 39 41  1  0
 41 42  2  0
 42 43  1  0
 42 44  1  0
 44 45  1  0
 44 46  2  0
 46 47  1  0
 46 48  1  0
 48 49  1  0
 48 50  2  0
 50 51  1  0
 51 52  1  0
 52 53  1  0
 52 54  1  0
 52 55  1  0
 30  3  1  0
 50 41  1  0
 25 12  1  0
M  CHG  1  31  -1
M  END
>  <UniqueID>  (36) 
35

>  <SMILES>  (36) 
O=C(CO/N=C\c1ccccc1OC(F)F)[N-]c1cc(S(=O)(=O)N2CCCCC2)ccc1O

>  <Energy>  (36) 
66.52244413390981

>  <Genealogy>  (36) 
O=C(CON=Cc1ccccc1OC(F)F)[N-]c1cc(S(=O)(=O)N2CCCCC2)ccc1O (protonated)
O=C(CO/N=C\c1ccccc1OC(F)F)[N-]c1cc(S(=O)(=O)N2CCCCC2)ccc1O (cis-trans isomerization)
O=C(CO/N=C\c1ccccc1OC(F)F)[N-]c1cc(S(=O)(=O)N2CCCCC2)ccc1O (3D coordinates assigned)
O=C(CO/N=C\c1ccccc1OC(F)F)[N-]c1cc(S(=O)(=O)N2CCCCC2)ccc1O (nonaromatic ring conformer: 66.52244413390981 kcal/mol)

>  <smiles>  (36) 
O=C(CON=Cc1ccccc1OC(F)F)Nc1cc(S(=O)(=O)N2CCCCC2)ccc1O

>  <score_type>  (36) 
oracle

>  <origin>  (36) 
adgpu

>  <m_score__min__energy>  (36) 
-10.449999999999999

>  <m_primary>  (36) 
energy

$$$$
36:0
     RDKit          3D

 54 56  0  0  0  0  0  0  0  0999 V2000
   -2.6710   20.6450  -33.0600 C   0  0  0  0  0  0  0  0  0  0  0  0
   -4.0850   20.7340  -33.1970 O   0  0  0  0  0  0  0  0  0  0  0  0
   -4.9430   21.3320  -32.2600 C   0  0  0  0  0  0  0  0  0  0  0  0
   -4.5320   22.4270  -31.4780 C   0  0  0  0  0  0  0  0  0  0  0  0
   -5.4130   23.0280  -30.5700 C   0  0  0  0  0  0  0  0  0  0  0  0
   -4.9210   24.4620  -29.6700 S   0  0  0  0  0  0  0  0  0  0  0  0
   -3.8530   25.1760  -30.4520 O   0  0  0  0  0  0  0  0  0  0  0  0
   -6.0950   25.3930  -29.5490 O   0  0  0  0  0  0  0  0  0  0  0  0
   -4.3070   24.0850  -28.0710 N   0  0  0  0  0  0  0  0  0  0  0  0
   -4.2400   22.6280  -27.8260 C   0  0  0  0  0  0  0  0  0  0  0  0
   -2.9810   21.9620  -28.4340 C   0  0  0  0  0  0  0  0  0  0  0  0
   -2.0430   22.8920  -28.9350 O   0  0  0  0  0  0  0  0  0  0  0  0
   -1.7950   23.8830  -27.9660 C   0  0  0  0  0  0  0  0  0  0  0  0
   -3.0300   24.7810  -27.7780 C   0  0  0  0  0  0  0  0  0  0  0  0
   -6.6990   22.5040  -30.4060 C   0  0  0  0  0  0  0  0  0  0  0  0
   -7.1150   21.4140  -31.1690 C   0  0  0  0  0  0  0  0  0  0  0  0
   -6.2520   20.8310  -32.1090 C   0  0  0  0  0  0  0  0  0  0  0  0
   -6.8520   19.5080  -33.1240 S   0  0  0  0  0  0  0  0  0  0  0  0
   -7.2310   20.0530  -34.4730 O   0  0  0  0  0  0  0  0  0  0  0  0
   -8.0880   18.9150  -32.5060 O   0  0  0  0  0  0  0  0  0  0  0  0
   -5.6460   18.2600  -33.3280 N   0  0  0  0  0  0  0  0  0  0  0  0
   -5.7300   17.6740  -34.6740 C   0  0  0  0  0  0  0  0  0  0  0  0
   -4.5040   16.7830  -34.9460 C   0  0  0  0  0  0  0  0  0  0  0  0
   -3.9170   16.1460  -33.6620 C   0  0  0  0  0  0  0  0  0  0  0  0
   -2.7500   16.9720  -33.0970 C   0  0  0  0  0  0  0  0  0  0  0  0
   -5.0150   15.9320  -32.6040 C   0  0  0  0  0  0  0  0  0  0  0  0
   -5.7980   17.2250  -32.2830 C   0  0  0  0  0  0  0  0  0  0  0  0
   -2.4064   20.6283  -31.9924 H   0  0  0  0  0  0  0  0  0  0  0  0
   -2.3134   19.7226  -33.5408 H   0  0  0  0  0  0  0  0  0  0  0  0
   -2.2005   21.5153  -33.5408 H   0  0  0  0  0  0  0  0  0  0  0  0
   -3.5079   22.8152  -31.5808 H   0  0  0  0  0  0  0  0  0  0  0  0
   -5.0260   24.4670  -27.4110 H   0  0  0  0  0  0  0  0  0  0  0  0
   -4.2355   22.4565  -26.7395 H   0  0  0  0  0  0  0  0  0  0  0  0
   -5.1159   22.1750  -28.3135 H   0  0  0  0  0  0  0  0  0  0  0  0
   -2.4930   21.3602  -27.6532 H   0  0  0  0  0  0  0  0  0  0  0  0
   -3.3155   21.3476  -29.2829 H   0  0  0  0  0  0  0  0  0  0  0  0
   -1.5514   23.3990  -27.0087 H   0  0  0  0  0  0  0  0  0  0  0  0
   -0.9534   24.5054  -28.3041 H   0  0  0  0  0  0  0  0  0  0  0  0
   -3.0532   25.1303  -26.7352 H   0  0  0  0  0  0  0  0  0  0  0  0
   -2.9404   25.6145  -28.4902 H   0  0  0  0  0  0  0  0  0  0  0  0
   -7.3846   22.9534  -29.6725 H   0  0  0  0  0  0  0  0  0  0  0  0
   -8.1281   21.0077  -31.0329 H   0  0  0  0  0  0  0  0  0  0  0  0
   -6.6440   17.0665  -34.7490 H   0  0  0  0  0  0  0  0  0  0  0  0
   -5.7549   18.4851  -35.4166 H   0  0  0  0  0  0  0  0  0  0  0  0
   -4.8030   15.9763  -35.6314 H   0  0  0  0  0  0  0  0  0  0  0  0
   -3.7228   17.4246  -35.3796 H   0  0  0  0  0  0  0  0  0  0  0  0
   -3.5118   15.1609  -33.9366 H   0  0  0  0  0  0  0  0  0  0  0  0
   -2.7828   16.9488  -31.9977 H   0  0  0  0  0  0  0  0  0  0  0  0
   -1.7972   16.5460  -33.4445 H   0  0  0  0  0  0  0  0  0  0  0  0
   -2.8350   18.0122  -33.4445 H   0  0  0  0  0  0  0  0  0  0  0  0
   -5.7218   15.1771  -32.9789 H   0  0  0  0  0  0  0  0  0  0  0  0
   -4.5219   15.6048  -31.6767 H   0  0  0  0  0  0  0  0  0  0  0  0
   -6.8651   16.9755  -32.1878 H   0  0  0  0  0  0  0  0  0  0  0  0
   -5.3906   17.6359  -31.3475 H   0  0  0  0  0  0  0  0  0  0  0  0
  1  2  1  0
  2  3  1  0
  3  4  2  0
  4  5  1  0
  5  6  1  0
  6  7  2  0
  6  8  2  0
  6  9  1  0
  9 10  1  0
 10 11  1  0
 11 12  1  0
 12 13  1  0
 13 14  1  0
  5 15  2  0
 15 16  1  0
 16 17  2  0
 17 18  1  0
 18 19  2  0
 18 20  2  0
 18 21  1  0
 21 22  1  0
 22 23  1  0
 23 24  1  0
 24 25  1  0
 24 26  1  0
 26 27  1  0
 17  3  1  0
 27 21  1  0
 14  9  1  0
  1 28  1  0
  1 29  1  0
  1 30  1  0
  4 31  1  0
  9 32  1  0
 10 33  1  0
 10 34  1  0
 11 35  1  0
 11 36  1  0
 13 37  1  0
 13 38  1  0
 14 39  1  0
 14 40  1  0
 15 41  1  0
 16 42  1  0
 22 43  1  0
 22 44  1  0
 23 45  1  0
 23 46  1  0
 24 47  1  0
 25 48  1  0
 25 49  1  0
 25 50  1  0
 26 51  1  0
 26 52  1  0
 27 53  1  0
 27 54  1  0
M  CHG  1   9   1
M  END
>  <UniqueID>  (37) 
36

>  <SMILES>  (37) 
COc1cc(S(=O)(=O)[NH+]2CCOCC2)ccc1S(=O)(=O)N1CCC(C)CC1

>  <Energy>  (37) 
65.70779868567253

>  <Genealogy>  (37) 
COc1cc(S(=O)(=O)[NH+]2CCOCC2)ccc1S(=O)(=O)N1CCC(C)CC1 (protonated)
COc1cc(S(=O)(=O)[NH+]2CCOCC2)ccc1S(=O)(=O)N1CCC(C)CC1 (3D coordinates assigned)
COc1cc(S(=O)(=O)[NH+]2CCOCC2)ccc1S(=O)(=O)N1CCC(C)CC1 (nonaromatic ring conformer: 65.70779868567253 kcal/mol)

>  <smiles>  (37) 
COc1cc(S(=O)(=O)N2CCOCC2)ccc1S(=O)(=O)N1CCC(C)CC1

>  <score_type>  (37) 
oracle

>  <origin>  (37) 
adgpu

>  <m_score__min__energy>  (37) 
-9.0600000000000005

>  <m_primary>  (37) 
energy

$$$$
37:0
     RDKit          3D

 47 50  0  0  0  0  0  0  0  0999 V2000
   -6.1850   17.4560  -33.1670 C   0  0  0  0  0  0  0  0  0  0  0  0
   -6.3980   18.8660  -33.6190 C   0  0  0  0  0  0  0  0  0  0  0  0
   -6.0080   19.1980  -34.7710 O   0  0  0  0  0  0  0  0  0  0  0  0
   -6.9960   19.8570  -32.7640 N   0  0  0  0  0  0  0  0  0  0  0  0
   -8.3930   19.7950  -32.3310 C   0  0  0  0  0  0  0  0  0  0  0  0
   -8.6800   21.1330  -31.6110 C   0  0  0  0  0  0  0  0  0  0  0  0
   -7.3670   21.8340  -31.6480 C   0  0  0  0  0  0  0  0  0  0  0  0
   -7.0370   23.0530  -31.0600 C   0  0  0  0  0  0  0  0  0  0  0  0
   -5.7050   23.5000  -31.1310 C   0  0  0  0  0  0  0  0  0  0  0  0
   -5.2630   25.0340  -30.3870 S   0  0  0  0  0  0  0  0  0  0  0  0
   -5.9360   25.1990  -29.0530 O   0  0  0  0  0  0  0  0  0  0  0  0
   -5.7020   26.1530  -31.2890 O   0  0  0  0  0  0  0  0  0  0  0  0
   -3.5440   25.1140  -30.1750 N   0  0  0  0  0  0  0  0  0  0  0  0
   -2.7770   24.3170  -29.2600 C   0  0  0  0  0  0  0  0  0  0  0  0
   -3.2170   23.0500  -28.8360 C   0  0  0  0  0  0  0  0  0  0  0  0
   -2.4490   22.2870  -27.9450 C   0  0  0  0  0  0  0  0  0  0  0  0
   -1.2430   22.8100  -27.4370 C   0  0  0  0  0  0  0  0  0  0  0  0
   -0.7980   24.0650  -27.8720 C   0  0  0  0  0  0  0  0  0  0  0  0
   -1.5530   24.8180  -28.7750 C   0  0  0  0  0  0  0  0  0  0  0  0
   -1.0690   26.0650  -29.1780 O   0  0  0  0  0  0  0  0  0  0  0  0
   -0.3860   21.9910  -26.5040 C   0  0  0  0  0  0  0  0  0  0  0  0
   -1.1750   20.9680  -25.8040 N   0  0  0  0  0  0  0  0  0  0  0  0
   -1.8880   20.1290  -26.7720 C   0  0  0  0  0  0  0  0  0  0  0  0
   -2.9730   20.9510  -27.4740 C   0  0  0  0  0  0  0  0  0  0  0  0
   -4.7330   22.7040  -31.7710 C   0  0  0  0  0  0  0  0  0  0  0  0
   -5.0910   21.4790  -32.3510 C   0  0  0  0  0  0  0  0  0  0  0  0
   -6.4310   21.0770  -32.3020 C   0  0  0  0  0  0  0  0  0  0  0  0
   -6.1796   17.4202  -32.0676 H   0  0  0  0  0  0  0  0  0  0  0  0
   -6.9975   16.8213  -33.5505 H   0  0  0  0  0  0  0  0  0  0  0  0
   -5.2213   17.0896  -33.5505 H   0  0  0  0  0  0  0  0  0  0  0  0
   -9.0571   19.6794  -33.2003 H   0  0  0  0  0  0  0  0  0  0  0  0
   -8.5696   18.9360  -31.6670 H   0  0  0  0  0  0  0  0  0  0  0  0
   -9.4494   21.7101  -32.1449 H   0  0  0  0  0  0  0  0  0  0  0  0
   -9.0652   20.9968  -30.5897 H   0  0  0  0  0  0  0  0  0  0  0  0
   -7.8035   23.6547  -30.5498 H   0  0  0  0  0  0  0  0  0  0  0  0
   -4.1736   22.6537  -29.2073 H   0  0  0  0  0  0  0  0  0  0  0  0
    0.1572   24.4624  -27.4983 H   0  0  0  0  0  0  0  0  0  0  0  0
   -1.2350   26.4380  -30.1040 H   0  0  0  0  0  0  0  0  0  0  0  0
    0.4041   21.4955  -27.0873 H   0  0  0  0  0  0  0  0  0  0  0  0
    0.0469   22.6667  -25.7516 H   0  0  0  0  0  0  0  0  0  0  0  0
   -0.5090   20.3540  -25.2820 H   0  0  0  0  0  0  0  0  0  0  0  0
   -1.1763   19.7498  -27.5201 H   0  0  0  0  0  0  0  0  0  0  0  0
   -2.3570   19.2855  -26.2442 H   0  0  0  0  0  0  0  0  0  0  0  0
   -3.3407   20.3863  -28.3435 H   0  0  0  0  0  0  0  0  0  0  0  0
   -3.7817   21.1366  -26.7519 H   0  0  0  0  0  0  0  0  0  0  0  0
   -3.6884   23.0460  -31.8154 H   0  0  0  0  0  0  0  0  0  0  0  0
   -4.3333   20.8456  -32.8355 H   0  0  0  0  0  0  0  0  0  0  0  0
  1  2  1  0
  2  3  2  0
  2  4  1  0
  4  5  1  0
  5  6  1  0
  6  7  1  0
  7  8  2  0
  8  9  1  0
  9 10  1  0
 10 11  2  0
 10 12  2  0
 10 13  1  0
 13 14  1  0
 14 15  2  0
 15 16  1  0
 16 17  2  0
 17 18  1  0
 18 19  2  0
 19 20  1  0
 17 21  1  0
 21 22  1  0
 22 23  1  0
 23 24  1  0
  9 25  2  0
 25 26  1  0
 26 27  2  0
 27  4  1  0
 27  7  1  0
 19 14  1  0
 24 16  1  0
  1 28  1  0
  1 29  1  0
  1 30  1  0
  5 31  1  0
  5 32  1  0
  6 33  1  0
  6 34  1  0
  8 35  1  0
 15 36  1  0
 18 37  1  0
 20 38  1  0
 21 39  1  0
 21 40  1  0
 22 41  1  0
 23 42  1  0
 23 43  1  0
 24 44  1  0
 24 45  1  0
 25 46  1  0
 26 47  1  0
M  CHG  1  13  -1
M  END
>  <UniqueID>  (38) 
37

>  <SMILES>  (38) 
CC(=O)N1CCc2cc(S(=O)(=O)[N-]c3cc4c(cc3O)CNCC4)ccc21

>  <Energy>  (38) 
70.95297693721945

>  <Genealogy>  (38) 
CC(=O)N1CCc2cc(S(=O)(=O)[N-]c3cc4c(cc3O)CNCC4)ccc21 (protonated)
CC(=O)N1CCc2cc(S(=O)(=O)[N-]c3cc4c(cc3O)CNCC4)ccc21 (3D coordinates assigned)
CC(=O)N1CCc2cc(S(=O)(=O)[N-]c3cc4c(cc3O)CNCC4)ccc21 (nonaromatic ring conformer: 70.95297693721945 kcal/mol)

>  <smiles>  (38) 
CC(=O)N1CCc2cc(S(=O)(=O)Nc3cc4c(cc3O)CNCC4)ccc21

>  <score_type>  (38) 
oracle

>  <origin>  (38) 
adgpu

>  <m_score__min__energy>  (38) 
-12.550000000000001

>  <m_primary>  (38) 
energy

$$$$
38:0
     RDKit          3D

 75 80  0  0  0  0  0  0  0  0999 V2000
    0.8300   19.7560  -33.0730 C   0  0  0  0  0  0  0  0  0  0  0  0
    0.6040   19.4100  -31.6360 C   0  0  0  0  0  0  0  0  0  0  0  0
   -0.0260   20.3210  -30.7820 C   0  0  0  0  0  0  0  0  0  0  0  0
   -0.2390   19.9850  -29.4400 C   0  0  0  0  0  0  0  0  0  0  0  0
   -0.8560   20.9420  -28.5650 N   0  0  0  0  0  0  0  0  0  0  0  0
   -2.1160   20.6130  -27.8960 C   0  0  0  0  0  0  0  0  0  0  0  0
   -3.0740   21.8230  -27.9020 C   0  0  0  0  0  0  0  0  0  0  0  0
   -2.4020   23.0810  -28.3190 N   0  0  0  0  0  0  0  0  0  0  0  0
   -3.2690   24.2580  -28.0920 C   0  0  0  0  0  0  0  0  0  0  0  0
   -4.1500   24.4690  -29.2850 C   0  0  0  0  0  0  0  0  0  0  0  0
   -5.3150   23.7910  -29.5730 C   0  0  0  0  0  0  0  0  0  0  0  0
   -5.6650   24.2710  -30.8180 C   0  0  0  0  0  0  0  0  0  0  0  0
   -6.7430   23.7520  -31.6650 C   0  0  0  0  0  0  0  0  0  0  0  0
   -6.8500   24.1430  -32.8580 O   0  0  0  0  0  0  0  0  0  0  0  0
   -7.6480   22.7770  -31.1340 N   0  0  0  0  0  0  0  0  0  0  0  0
   -7.7960   21.4250  -31.5890 C   0  0  0  0  0  0  0  0  0  0  0  0
   -6.6420   20.7220  -31.9550 C   0  0  0  0  0  0  0  0  0  0  0  0
   -6.7310   19.4380  -32.5060 C   0  0  0  0  0  0  0  0  0  0  0  0
   -5.2800   18.6210  -33.0980 S   0  0  0  0  0  0  0  0  0  0  0  0
   -5.3500   18.5250  -34.5980 O   0  0  0  0  0  0  0  0  0  0  0  0
   -5.2290   17.2230  -32.5410 O   0  0  0  0  0  0  0  0  0  0  0  0
   -3.8320   19.4970  -32.6510 N   0  0  0  0  0  0  0  0  0  0  0  0
   -3.9580   20.0470  -31.2820 C   0  0  0  0  0  0  0  0  0  0  0  0
   -2.9580   21.1810  -31.0380 C   0  0  0  0  0  0  0  0  0  0  0  0
   -3.2210   22.3620  -31.9900 C   0  0  0  0  0  0  0  0  0  0  0  0
   -3.8620   21.9240  -33.3190 C   0  0  0  0  0  0  0  0  0  0  0  0
   -3.4550   20.4910  -33.6890 C   0  0  0  0  0  0  0  0  0  0  0  0
   -7.9880   18.8360  -32.6520 C   0  0  0  0  0  0  0  0  0  0  0  0
   -9.1440   19.5300  -32.2970 C   0  0  0  0  0  0  0  0  0  0  0  0
   -9.0630   20.8360  -31.7960 C   0  0  0  0  0  0  0  0  0  0  0  0
  -10.2330   21.5510  -31.5470 O   0  0  0  0  0  0  0  0  0  0  0  0
   -4.7690   25.1970  -31.2190 N   0  0  0  0  0  0  0  0  0  0  0  0
   -3.8760   25.2880  -30.2750 O   0  0  0  0  0  0  0  0  0  0  0  0
   -1.1030   23.2170  -27.6370 C   0  0  0  0  0  0  0  0  0  0  0  0
   -0.1340   22.1630  -28.1910 C   0  0  0  0  0  0  0  0  0  0  0  0
    0.1720   18.7190  -28.9670 C   0  0  0  0  0  0  0  0  0  0  0  0
   -0.0430   18.3070  -27.6380 C   0  0  0  0  0  0  0  0  0  0  0  0
    0.3880   17.0470  -27.2130 C   0  0  0  0  0  0  0  0  0  0  0  0
    1.0230   16.1820  -28.1070 C   0  0  0  0  0  0  0  0  0  0  0  0
    1.2280   16.5700  -29.4330 C   0  0  0  0  0  0  0  0  0  0  0  0
    0.8040   17.8310  -29.8690 C   0  0  0  0  0  0  0  0  0  0  0  0
    0.9980   18.1970  -31.1630 N   0  0  0  0  0  0  0  0  0  0  0  0
    1.4305   20.6753  -33.1387 H   0  0  0  0  0  0  0  0  0  0  0  0
    1.3648   18.9325  -33.5687 H   0  0  0  0  0  0  0  0  0  0  0  0
   -0.1391   19.9148  -33.5687 H   0  0  0  0  0  0  0  0  0  0  0  0
   -0.3533   21.2992  -31.1641 H   0  0  0  0  0  0  0  0  0  0  0  0
   -2.5938   19.7725  -28.4207 H   0  0  0  0  0  0  0  0  0  0  0  0
   -1.8996   20.3407  -26.8524 H   0  0  0  0  0  0  0  0  0  0  0  0
   -3.8988   21.6160  -28.5997 H   0  0  0  0  0  0  0  0  0  0  0  0
   -3.4387   21.9647  -26.8739 H   0  0  0  0  0  0  0  0  0  0  0  0
   -3.8923   24.0876  -27.2018 H   0  0  0  0  0  0  0  0  0  0  0  0
   -2.6430   25.1492  -27.9372 H   0  0  0  0  0  0  0  0  0  0  0  0
   -5.8399   23.0456  -28.9575 H   0  0  0  0  0  0  0  0  0  0  0  0
   -5.6544   21.1836  -31.8080 H   0  0  0  0  0  0  0  0  0  0  0  0
   -4.9783   20.4347  -31.1451 H   0  0  0  0  0  0  0  0  0  0  0  0
   -3.7460   19.2400  -30.5652 H   0  0  0  0  0  0  0  0  0  0  0  0
   -3.0543   21.5283  -29.9987 H   0  0  0  0  0  0  0  0  0  0  0  0
   -1.9431   20.7998  -31.2241 H   0  0  0  0  0  0  0  0  0  0  0  0
   -3.8966   23.0723  -31.4909 H   0  0  0  0  0  0  0  0  0  0  0  0
   -2.2494   22.8208  -32.2257 H   0  0  0  0  0  0  0  0  0  0  0  0
   -4.9566   21.9718  -33.2217 H   0  0  0  0  0  0  0  0  0  0  0  0
   -3.5119   22.6003  -34.1128 H   0  0  0  0  0  0  0  0  0  0  0  0
   -3.9500   20.2180  -34.6327 H   0  0  0  0  0  0  0  0  0  0  0  0
   -2.3591   20.4724  -33.7815 H   0  0  0  0  0  0  0  0  0  0  0  0
   -8.0629   17.8125  -33.0480 H   0  0  0  0  0  0  0  0  0  0  0  0
  -10.1266   19.0488  -32.4111 H   0  0  0  0  0  0  0  0  0  0  0  0
  -10.2140   22.5020  -31.2030 H   0  0  0  0  0  0  0  0  0  0  0  0
   -0.6957   24.2229  -27.8168 H   0  0  0  0  0  0  0  0  0  0  0  0
   -1.2343   23.0684  -26.5550 H   0  0  0  0  0  0  0  0  0  0  0  0
    0.3728   22.5693  -29.0787 H   0  0  0  0  0  0  0  0  0  0  0  0
    0.6021   21.9146  -27.4122 H   0  0  0  0  0  0  0  0  0  0  0  0
   -0.5520   18.9791  -26.9315 H   0  0  0  0  0  0  0  0  0  0  0  0
    0.2264   16.7355  -26.1705 H   0  0  0  0  0  0  0  0  0  0  0  0
    1.3625   15.1928  -27.7660 H   0  0  0  0  0  0  0  0  0  0  0  0
    1.7233   15.8838  -30.1357 H   0  0  0  0  0  0  0  0  0  0  0  0
  1  2  1  0
  2  3  2  0
  3  4  1  0
  4  5  1  0
  5  6  1  0
  6  7  1  0
  7  8  1  0
  8  9  1  0
  9 10  1  0
 10 11  2  0
 11 12  1  0
 12 13  1  0
 13 14  2  0
 13 15  1  0
 15 16  1  0
 16 17  2  0
 17 18  1  0
 18 19  1  0
 19 20  2  0
 19 21  2  0
 19 22  1  0
 22 23  1  0
 23 24  1  0
 24 25  1  0
 25 26  1  0
 26 27  1  0
 18 28  2  0
 28 29  1  0
 29 30  2  0
 30 31  1  0
 12 32  2  0
 32 33  1  0
  8 34  1  0
 34 35  1  0
  4 36  2  0
 36 37  1  0
 37 38  2  0
 38 39  1  0
 39 40  2  0
 40 41  1  0
 41 42  2  0
 42  2  1  0
 35  5  1  0
 41 36  1  0
 33 10  1  0
 30 16  1  0
 27 22  1  0
  1 43  1  0
  1 44  1  0
  1 45  1  0
  3 46  1  0
  6 47  1  0
  6 48  1  0
  7 49  1  0
  7 50  1  0
  9 51  1  0
  9 52  1  0
 11 53  1  0
 17 54  1  0
 23 55  1  0
 23 56  1  0
 24 57  1  0
 24 58  1  0
 25 59  1  0
 25 60  1  0
 26 61  1  0
 26 62  1  0
 27 63  1  0
 27 64  1  0
 28 65  1  0
 29 66  1  0
 31 67  1  0
 34 68  1  0
 34 69  1  0
 35 70  1  0
 35 71  1  0
 37 72  1  0
 38 73  1  0
 39 74  1  0
 40 75  1  0
M  CHG  1  15  -1
M  END
>  <UniqueID>  (39) 
38

>  <SMILES>  (39) 
Cc1cc(N2CCN(Cc3cc(C(=O)[N-]c4cc(S(=O)(=O)N5CCCCC5)ccc4O)no3)CC2)c2ccccc2n1

>  <Energy>  (39) 
134.4436758826498

>  <Genealogy>  (39) 
Cc1cc(N2CCN(Cc3cc(C(=O)[N-]c4cc(S(=O)(=O)N5CCCCC5)ccc4O)no3)CC2)c2ccccc2n1 (protonated)
Cc1cc(N2CCN(Cc3cc(C(=O)[N-]c4cc(S(=O)(=O)N5CCCCC5)ccc4O)no3)CC2)c2ccccc2n1 (3D coordinates assigned)
Cc1cc(N2CCN(Cc3cc(C(=O)[N-]c4cc(S(=O)(=O)N5CCCCC5)ccc4O)no3)CC2)c2ccccc2n1 (nonaromatic ring conformer: 134.4436758826498 kcal/mol)

>  <smiles>  (39) 
Cc1cc(N2CCN(Cc3cc(C(=O)Nc4cc(S(=O)(=O)N5CCCCC5)ccc4O)no3)CC2)c2ccccc2n1

>  <score_type>  (39) 
oracle

>  <origin>  (39) 
adgpu

>  <m_score__min__energy>  (39) 
-13.43

>  <m_primary>  (39) 
energy

$$$$
39:0
     RDKit          3D

 49 51  0  0  0  0  0  0  0  0999 V2000
   -9.0150   18.5490  -30.7970 O   0  0  0  0  0  0  0  0  0  0  0  0
   -7.8070   18.9490  -31.5980 S   0  0  0  0  0  0  0  0  0  0  0  0
   -6.5840   18.3900  -30.9250 O   0  0  0  0  0  0  0  0  0  0  0  0
   -7.9360   18.2850  -33.2020 N   0  0  0  0  0  0  0  0  0  0  0  0
   -6.6170   17.9130  -33.7500 C   0  0  0  0  0  0  0  0  0  0  0  0
   -5.6510   19.1110  -33.5970 C   0  0  0  0  0  0  0  0  0  0  0  0
   -4.1620   18.7040  -33.5640 C   0  0  0  0  0  0  0  0  0  0  0  0
   -3.9080   17.3900  -34.3100 C   0  0  0  0  0  0  0  0  0  0  0  0
   -4.7070   16.2210  -33.6980 C   0  0  0  0  0  0  0  0  0  0  0  0
   -6.0360   16.6620  -33.0540 C   0  0  0  0  0  0  0  0  0  0  0  0
   -7.7150   20.7070  -31.6520 C   0  0  0  0  0  0  0  0  0  0  0  0
   -8.8460   21.4720  -31.9750 C   0  0  0  0  0  0  0  0  0  0  0  0
   -8.7750   22.8670  -31.9610 C   0  0  0  0  0  0  0  0  0  0  0  0
   -7.5800   23.5060  -31.6180 C   0  0  0  0  0  0  0  0  0  0  0  0
   -6.4460   22.7500  -31.2930 C   0  0  0  0  0  0  0  0  0  0  0  0
   -4.9680   23.5650  -30.7910 S   0  0  0  0  0  0  0  0  0  0  0  0
   -5.0100   25.0080  -31.2140 O   0  0  0  0  0  0  0  0  0  0  0  0
   -4.8670   23.5070  -29.2910 O   0  0  0  0  0  0  0  0  0  0  0  0
   -3.5860   22.7690  -31.5020 N   0  0  0  0  0  0  0  0  0  0  0  0
   -3.0870   21.7160  -30.5980 C   0  0  0  0  0  0  0  0  0  0  0  0
   -2.1200   20.7660  -31.3330 C   0  0  0  0  0  0  0  0  0  0  0  0
   -1.6520   21.3550  -32.5280 O   0  0  0  0  0  0  0  0  0  0  0  0
   -2.7250   21.5100  -33.4420 C   0  0  0  0  0  0  0  0  0  0  0  0
   -3.9520   22.1970  -32.8050 C   0  0  0  0  0  0  0  0  0  0  0  0
   -6.5170   21.3500  -31.3130 C   0  0  0  0  0  0  0  0  0  0  0  0
   -8.4090   18.9950  -33.8090 H   0  0  0  0  0  0  0  0  0  0  0  0
   -6.7407   17.6623  -34.8139 H   0  0  0  0  0  0  0  0  0  0  0  0
   -5.8062   19.7935  -34.4456 H   0  0  0  0  0  0  0  0  0  0  0  0
   -5.8770   19.5863  -32.6311 H   0  0  0  0  0  0  0  0  0  0  0  0
   -3.5660   19.5000  -34.0343 H   0  0  0  0  0  0  0  0  0  0  0  0
   -3.8734   18.5583  -32.5126 H   0  0  0  0  0  0  0  0  0  0  0  0
   -4.2068   17.5138  -35.3614 H   0  0  0  0  0  0  0  0  0  0  0  0
   -2.8371   17.1520  -34.2291 H   0  0  0  0  0  0  0  0  0  0  0  0
   -4.9288   15.4951  -34.4942 H   0  0  0  0  0  0  0  0  0  0  0  0
   -4.0874   15.7851  -32.9005 H   0  0  0  0  0  0  0  0  0  0  0  0
   -6.7619   15.8394  -33.1340 H   0  0  0  0  0  0  0  0  0  0  0  0
   -5.8417   16.9130  -32.0008 H   0  0  0  0  0  0  0  0  0  0  0  0
   -9.7897   20.9726  -32.2396 H   0  0  0  0  0  0  0  0  0  0  0  0
   -9.6616   23.4641  -32.2205 H   0  0  0  0  0  0  0  0  0  0  0  0
   -7.5298   24.6048  -31.6032 H   0  0  0  0  0  0  0  0  0  0  0  0
   -2.5579   22.1863  -29.7560 H   0  0  0  0  0  0  0  0  0  0  0  0
   -3.9450   21.1302  -30.2366 H   0  0  0  0  0  0  0  0  0  0  0  0
   -1.2631   20.5466  -30.6791 H   0  0  0  0  0  0  0  0  0  0  0  0
   -2.6573   19.8392  -31.5829 H   0  0  0  0  0  0  0  0  0  0  0  0
   -2.3803   22.1200  -34.2900 H   0  0  0  0  0  0  0  0  0  0  0  0
   -3.0356   20.5054  -33.7651 H   0  0  0  0  0  0  0  0  0  0  0  0
   -4.3060   22.9995  -33.4689 H   0  0  0  0  0  0  0  0  0  0  0  0
   -4.7494   21.4529  -32.6621 H   0  0  0  0  0  0  0  0  0  0  0  0
   -5.6278   20.7533  -31.0613 H   0  0  0  0  0  0  0  0  0  0  0  0
  1  2  2  0
  2  3  2  0
  2  4  1  0
  4  5  1  0
  5  6  1  0
  6  7  1  0
  7  8  1  0
  8  9  1  0
  9 10  1  0
  2 11  1  0
 11 12  2  0
 12 13  1  0
 13 14  2  0
 14 15  1  0
 15 16  1  0
 16 17  2  0
 16 18  2  0
 16 19  1  0
 19 20  1  0
 20 21  1  0
 21 22  1  0
 22 23  1  0
 23 24  1  0
 15 25  2  0
 10  5  1  0
 25 11  1  0
 24 19  1  0
  4 26  1  0
  5 27  1  0
  6 28  1  0
  6 29  1  0
  7 30  1  0
  7 31  1  0
  8 32  1  0
  8 33  1  0
  9 34  1  0
  9 35  1  0
 10 36  1  0
 10 37  1  0
 12 38  1  0
 13 39  1  0
 14 40  1  0
 20 41  1  0
 20 42  1  0
 21 43  1  0
 21 44  1  0
 23 45  1  0
 23 46  1  0
 24 47  1  0
 24 48  1  0
 25 49  1  0
M  END
>  <UniqueID>  (40) 
39

>  <SMILES>  (40) 
O=S(=O)(NC1CCCCC1)c1cccc(S(=O)(=O)N2CCOCC2)c1

>  <Energy>  (40) 
55.87780421844115

>  <Genealogy>  (40) 
O=S(=O)(NC1CCCCC1)c1cccc(S(=O)(=O)N2CCOCC2)c1 (3D coordinates assigned)
O=S(=O)(NC1CCCCC1)c1cccc(S(=O)(=O)N2CCOCC2)c1 (nonaromatic ring conformer: 55.87780421844115 kcal/mol)

>  <smiles>  (40) 
O=S(=O)(NC1CCCCC1)c1cccc(S(=O)(=O)N2CCOCC2)c1

>  <score_type>  (40) 
oracle

>  <origin>  (40) 
adgpu

>  <m_score__min__energy>  (40) 
-9.7599999999999998

>  <m_primary>  (40) 
energy

$$$$
40:0
     RDKit          3D

 41 43  0  0  0  0  0  0  0  0999 V2000
   -5.5540   25.1780  -28.9330 O   0  0  0  0  0  0  0  0  0  0  0  0
   -5.2410   24.8910  -30.3750 S   0  0  0  0  0  0  0  0  0  0  0  0
   -5.7210   26.0510  -31.2010 O   0  0  0  0  0  0  0  0  0  0  0  0
   -3.5190   24.7260  -30.5790 N   0  0  0  0  0  0  0  0  0  0  0  0
   -2.9140   23.9860  -29.4700 C   0  0  0  0  0  0  0  0  0  0  0  0
   -2.1500   24.9000  -28.5650 C   0  0  0  0  0  0  0  0  0  0  0  0
   -2.0620   24.7890  -27.1920 C   0  0  0  0  0  0  0  0  0  0  0  0
   -1.2480   25.8270  -26.7900 C   0  0  0  0  0  0  0  0  0  0  0  0
   -0.8930   26.5040  -27.9390 C   0  0  0  0  0  0  0  0  0  0  0  0
   -1.4450   25.9260  -28.9810 O   0  0  0  0  0  0  0  0  0  0  0  0
   -6.0860   23.4350  -30.8990 C   0  0  0  0  0  0  0  0  0  0  0  0
   -7.4780   23.4400  -31.0690 C   0  0  0  0  0  0  0  0  0  0  0  0
   -8.1410   22.2750  -31.4650 C   0  0  0  0  0  0  0  0  0  0  0  0
   -7.4210   21.0940  -31.6880 C   0  0  0  0  0  0  0  0  0  0  0  0
   -8.2580   19.6370  -32.2110 S   0  0  0  0  0  0  0  0  0  0  0  0
   -9.4080   20.0220  -33.1000 O   0  0  0  0  0  0  0  0  0  0  0  0
   -8.8030   18.9070  -31.0140 O   0  0  0  0  0  0  0  0  0  0  0  0
   -7.1510   18.6220  -33.0990 N   0  0  0  0  0  0  0  0  0  0  0  0
   -6.3340   19.4070  -34.0240 C   0  0  0  0  0  0  0  0  0  0  0  0
   -5.0350   18.6400  -34.2140 C   0  0  0  0  0  0  0  0  0  0  0  0
   -4.9460   17.6980  -33.0220 C   0  0  0  0  0  0  0  0  0  0  0  0
   -6.2010   17.9620  -32.2040 C   0  0  0  0  0  0  0  0  0  0  0  0
   -6.0290   21.0910  -31.5220 C   0  0  0  0  0  0  0  0  0  0  0  0
   -5.3650   22.2560  -31.1250 C   0  0  0  0  0  0  0  0  0  0  0  0
   -3.7087   23.4909  -28.8927 H   0  0  0  0  0  0  0  0  0  0  0  0
   -2.2171   23.2431  -29.8851 H   0  0  0  0  0  0  0  0  0  0  0  0
   -2.5404   24.0321  -26.5531 H   0  0  0  0  0  0  0  0  0  0  0  0
   -0.9430   26.0670  -25.7607 H   0  0  0  0  0  0  0  0  0  0  0  0
   -0.2459   27.3928  -27.9763 H   0  0  0  0  0  0  0  0  0  0  0  0
   -8.0494   24.3628  -30.8903 H   0  0  0  0  0  0  0  0  0  0  0  0
   -9.2324   22.2854  -31.6021 H   0  0  0  0  0  0  0  0  0  0  0  0
   -6.8530   19.5192  -34.9874 H   0  0  0  0  0  0  0  0  0  0  0  0
   -6.1449   20.4158  -33.6283 H   0  0  0  0  0  0  0  0  0  0  0  0
   -5.0583   18.0700  -35.1545 H   0  0  0  0  0  0  0  0  0  0  0  0
   -4.1664   19.3126  -34.2706 H   0  0  0  0  0  0  0  0  0  0  0  0
   -4.9198   16.6514  -33.3596 H   0  0  0  0  0  0  0  0  0  0  0  0
   -4.0316   17.8670  -32.4344 H   0  0  0  0  0  0  0  0  0  0  0  0
   -6.6211   17.0141  -31.8366 H   0  0  0  0  0  0  0  0  0  0  0  0
   -5.9793   18.5892  -31.3280 H   0  0  0  0  0  0  0  0  0  0  0  0
   -5.4571   20.1692  -31.7046 H   0  0  0  0  0  0  0  0  0  0  0  0
   -4.2734   22.2462  -30.9899 H   0  0  0  0  0  0  0  0  0  0  0  0
  1  2  2  0
  2  3  2  0
  2  4  1  0
  4  5  1  0
  5  6  1  0
  6  7  2  0
  7  8  1  0
  8  9  2  0
  9 10  1  0
  2 11  1  0
 11 12  2  0
 12 13  1  0
 13 14  2  0
 14 15  1  0
 15 16  2  0
 15 17  2  0
 15 18  1  0
 18 19  1  0
 19 20  1  0
 20 21  1  0
 21 22  1  0
 14 23  1  0
 23 24  2  0
 10  6  1  0
 24 11  1  0
 22 18  1  0
  5 25  1  0
  5 26  1  0
  7 27  1  0
  8 28  1  0
  9 29  1  0
 12 30  1  0
 13 31  1  0
 19 32  1  0
 19 33  1  0
 20 34  1  0
 20 35  1  0
 21 36  1  0
 21 37  1  0
 22 38  1  0
 22 39  1  0
 23 40  1  0
 24 41  1  0
M  CHG  1   4  -1
M  END
>  <UniqueID>  (41) 
40

>  <SMILES>  (41) 
O=S(=O)([N-]Cc1ccco1)c1ccc(S(=O)(=O)N2CCCC2)cc1

>  <Energy>  (41) 
66.36870491814337

>  <Genealogy>  (41) 
O=S(=O)([N-]Cc1ccco1)c1ccc(S(=O)(=O)N2CCCC2)cc1 (protonated)
O=S(=O)([N-]Cc1ccco1)c1ccc(S(=O)(=O)N2CCCC2)cc1 (3D coordinates assigned)
O=S(=O)([N-]Cc1ccco1)c1ccc(S(=O)(=O)N2CCCC2)cc1 (nonaromatic ring conformer: 66.36870491814337 kcal/mol)

>  <smiles>  (41) 
O=S(=O)(NCc1ccco1)c1ccc(S(=O)(=O)N2CCCC2)cc1

>  <score_type>  (41) 
oracle

>  <origin>  (41) 
adgpu

>  <m_score__min__energy>  (41) 
-11.49

>  <m_primary>  (41) 
energy

$$$$
41:0
     RDKit          3D

 39 41  0  0  0  0  0  0  0  0999 V2000
   -1.2280   18.9620  -27.7830 C   0  0  0  0  0  0  0  0  0  0  0  0
   -0.1430   19.9380  -27.5800 N   0  0  0  0  0  0  0  0  0  0  0  0
    0.5440   20.2910  -28.8370 C   0  0  0  0  0  0  0  0  0  0  0  0
   -0.3720   21.0300  -29.8230 C   0  0  0  0  0  0  0  0  0  0  0  0
   -1.2170   22.0790  -29.1480 C   0  0  0  0  0  0  0  0  0  0  0  0
   -1.9210   22.9970  -29.9390 C   0  0  0  0  0  0  0  0  0  0  0  0
   -2.7700   23.9520  -29.3510 C   0  0  0  0  0  0  0  0  0  0  0  0
   -3.4900   24.9080  -30.1430 N   0  0  0  0  0  0  0  0  0  0  0  0
   -5.2160   24.9970  -30.2870 S   0  0  0  0  0  0  0  0  0  0  0  0
   -5.8110   25.2680  -28.9330 O   0  0  0  0  0  0  0  0  0  0  0  0
   -5.5760   26.1220  -31.2140 O   0  0  0  0  0  0  0  0  0  0  0  0
   -5.8380   23.4910  -30.9520 C   0  0  0  0  0  0  0  0  0  0  0  0
   -7.1640   23.1110  -30.6960 C   0  0  0  0  0  0  0  0  0  0  0  0
   -7.6740   21.9270  -31.2380 C   0  0  0  0  0  0  0  0  0  0  0  0
   -6.8620   21.1170  -32.0390 C   0  0  0  0  0  0  0  0  0  0  0  0
   -7.5040   19.6340  -32.7220 Cl  0  0  0  0  0  0  0  0  0  0  0  0
   -5.5370   21.4910  -32.2930 C   0  0  0  0  0  0  0  0  0  0  0  0
   -5.0250   22.6740  -31.7510 C   0  0  0  0  0  0  0  0  0  0  0  0
   -2.9200   23.9680  -27.9520 C   0  0  0  0  0  0  0  0  0  0  0  0
   -3.7530   24.8960  -27.3230 O   0  0  0  0  0  0  0  0  0  0  0  0
   -2.2290   23.0440  -27.1630 C   0  0  0  0  0  0  0  0  0  0  0  0
   -1.3900   22.0870  -27.7500 C   0  0  0  0  0  0  0  0  0  0  0  0
   -0.6100   21.1410  -26.8650 C   0  0  0  0  0  0  0  0  0  0  0  0
   -1.6042   18.6236  -26.8063 H   0  0  0  0  0  0  0  0  0  0  0  0
   -2.0455   19.4346  -28.3471 H   0  0  0  0  0  0  0  0  0  0  0  0
   -0.8442   18.0992  -28.3471 H   0  0  0  0  0  0  0  0  0  0  0  0
    1.4015   20.9379  -28.6002 H   0  0  0  0  0  0  0  0  0  0  0  0
    0.8630   19.3540  -29.3168 H   0  0  0  0  0  0  0  0  0  0  0  0
    0.2517   21.5170  -30.5871 H   0  0  0  0  0  0  0  0  0  0  0  0
   -1.0514   20.2887  -30.2689 H   0  0  0  0  0  0  0  0  0  0  0  0
   -1.8083   22.9704  -31.0329 H   0  0  0  0  0  0  0  0  0  0  0  0
   -7.8046   23.7464  -30.0669 H   0  0  0  0  0  0  0  0  0  0  0  0
   -8.7141   21.6325  -31.0344 H   0  0  0  0  0  0  0  0  0  0  0  0
   -4.8973   20.8529  -32.9203 H   0  0  0  0  0  0  0  0  0  0  0  0
   -3.9831   22.9642  -31.9516 H   0  0  0  0  0  0  0  0  0  0  0  0
   -4.3550   25.5260  -27.8400 H   0  0  0  0  0  0  0  0  0  0  0  0
   -2.3450   23.0682  -26.0694 H   0  0  0  0  0  0  0  0  0  0  0  0
    0.2657   21.6746  -26.4670 H   0  0  0  0  0  0  0  0  0  0  0  0
   -1.2854   20.8068  -26.0636 H   0  0  0  0  0  0  0  0  0  0  0  0
  1  2  1  0
  2  3  1  0
  3  4  1  0
  4  5  1  0
  5  6  2  0
  6  7  1  0
  7  8  1  0
  8  9  1  0
  9 10  2  0
  9 11  2  0
  9 12  1  0
 12 13  2  0
 13 14  1  0
 14 15  2  0
 15 16  1  0
 15 17  1  0
 17 18  2  0
  7 19  2  0
 19 20  1  0
 19 21  1  0
 21 22  2  0
 22 23  1  0
 23  2  1  0
 22  5  1  0
 18 12  1  0
  1 24  1  0
  1 25  1  0
  1 26  1  0
  3 27  1  0
  3 28  1  0
  4 29  1  0
  4 30  1  0
  6 31  1  0
 13 32  1  0
 14 33  1  0
 17 34  1  0
 18 35  1  0
 20 36  1  0
 21 37  1  0
 23 38  1  0
 23 39  1  0
M  CHG  1   8  -1
M  END
>  <UniqueID>  (42) 
41

>  <SMILES>  (42) 
CN1CCc2cc([N-]S(=O)(=O)c3ccc(Cl)cc3)c(O)cc2C1

>  <Energy>  (42) 
48.8427226171718

>  <Genealogy>  (42) 
CN1CCc2cc([N-]S(=O)(=O)c3ccc(Cl)cc3)c(O)cc2C1 (protonated)
CN1CCc2cc([N-]S(=O)(=O)c3ccc(Cl)cc3)c(O)cc2C1 (3D coordinates assigned)
CN1CCc2cc([N-]S(=O)(=O)c3ccc(Cl)cc3)c(O)cc2C1 (nonaromatic ring conformer: 48.8427226171718 kcal/mol)

>  <smiles>  (42) 
CN1CCc2cc(NS(=O)(=O)c3ccc(Cl)cc3)c(O)cc2C1

>  <score_type>  (42) 
oracle

>  <origin>  (42) 
adgpu

>  <m_score__min__energy>  (42) 
-11.140000000000001

>  <m_primary>  (42) 
energy

$$$$
42:0
     RDKit          3D

 69 73  0  0  0  0  0  0  0  0999 V2000
   -5.7920   23.6940  -29.5680 O   0  0  0  0  0  0  0  0  0  0  0  0
   -4.9890   23.9980  -30.8020 S   0  0  0  0  0  0  0  0  0  0  0  0
   -5.7870   24.9190  -31.6810 O   0  0  0  0  0  0  0  0  0  0  0  0
   -3.5130   24.7710  -30.3350 N   0  0  0  0  0  0  0  0  0  0  0  0
   -2.5440   24.0700  -29.5560 C   0  0  0  0  0  0  0  0  0  0  0  0
   -2.7100   22.7030  -29.3050 C   0  0  0  0  0  0  0  0  0  0  0  0
   -1.7320   21.9870  -28.5990 C   0  0  0  0  0  0  0  0  0  0  0  0
   -0.5680   22.6500  -28.1550 C   0  0  0  0  0  0  0  0  0  0  0  0
   -0.4260   24.0270  -28.3800 C   0  0  0  0  0  0  0  0  0  0  0  0
   -1.4040   24.7330  -29.0860 C   0  0  0  0  0  0  0  0  0  0  0  0
   -1.2350   26.0930  -29.3260 O   0  0  0  0  0  0  0  0  0  0  0  0
    0.4760   21.9130  -27.3520 C   0  0  0  0  0  0  0  0  0  0  0  0
    0.4190   20.4620  -27.5900 N   0  0  0  0  0  0  0  0  0  0  0  0
   -0.9360   19.9590  -27.3470 C   0  0  0  0  0  0  0  0  0  0  0  0
   -1.8890   20.4990  -28.4170 C   0  0  0  0  0  0  0  0  0  0  0  0
   -4.6400   22.5030  -31.6680 C   0  0  0  0  0  0  0  0  0  0  0  0
   -3.4430   22.3520  -32.3780 C   0  0  0  0  0  0  0  0  0  0  0  0
   -3.1880   21.1720  -33.0830 C   0  0  0  0  0  0  0  0  0  0  0  0
   -4.1320   20.1300  -33.0980 C   0  0  0  0  0  0  0  0  0  0  0  0
   -3.8640   18.8820  -33.8540 C   0  0  0  0  0  0  0  0  0  0  0  0
   -4.8730   18.2870  -34.6290 C   0  0  0  0  0  0  0  0  0  0  0  0
   -4.6200   17.1090  -35.3380 C   0  0  0  0  0  0  0  0  0  0  0  0
   -3.3530   16.5110  -35.2830 C   0  0  0  0  0  0  0  0  0  0  0  0
   -3.0270   15.0070  -36.1410 S   0  0  0  0  0  0  0  0  0  0  0  0
   -1.6300   14.5550  -35.8190 O   0  0  0  0  0  0  0  0  0  0  0  0
   -3.1350   15.2150  -37.6270 O   0  0  0  0  0  0  0  0  0  0  0  0
   -4.1570   13.7830  -35.6420 N   0  0  0  0  0  0  0  0  0  0  0  0
   -3.4340   12.5760  -35.2410 C   0  0  0  0  0  0  0  0  0  0  0  0
   -3.6510   12.3070  -33.7510 C   0  0  0  0  0  0  0  0  0  0  0  0
   -4.8370   13.0560  -33.2760 N   0  0  0  0  0  0  0  0  0  0  0  0
   -4.5180   14.0090  -32.1940 C   0  0  0  0  0  0  0  0  0  0  0  0
   -4.3440   13.2870  -30.8510 C   0  0  0  0  0  0  0  0  0  0  0  0
   -5.5190   12.5750  -30.5210 O   0  0  0  0  0  0  0  0  0  0  0  0
   -5.7500   11.5660  -31.4830 C   0  0  0  0  0  0  0  0  0  0  0  0
   -5.9560   12.1720  -32.8830 C   0  0  0  0  0  0  0  0  0  0  0  0
   -2.3460   17.0970  -34.5100 C   0  0  0  0  0  0  0  0  0  0  0  0
   -2.5960   18.2770  -33.8040 C   0  0  0  0  0  0  0  0  0  0  0  0
   -5.3340   20.2910  -32.3890 C   0  0  0  0  0  0  0  0  0  0  0  0
   -5.5800   21.4650  -31.6720 C   0  0  0  0  0  0  0  0  0  0  0  0
   -3.6129   22.1871  -29.6636 H   0  0  0  0  0  0  0  0  0  0  0  0
    0.4606   24.5546  -27.9985 H   0  0  0  0  0  0  0  0  0  0  0  0
    1.4721   22.2825  -27.6372 H   0  0  0  0  0  0  0  0  0  0  0  0
    0.2800   22.0942  -26.2849 H   0  0  0  0  0  0  0  0  0  0  0  0
    1.0600   20.0030  -26.8980 H   0  0  0  0  0  0  0  0  0  0  0  0
   -0.9297   18.8597  -27.3847 H   0  0  0  0  0  0  0  0  0  0  0  0
   -1.2755   20.2938  -26.3557 H   0  0  0  0  0  0  0  0  0  0  0  0
   -1.6742   19.9978  -29.3723 H   0  0  0  0  0  0  0  0  0  0  0  0
   -2.9206   20.2988  -28.0920 H   0  0  0  0  0  0  0  0  0  0  0  0
   -2.7010   23.1641  -32.3812 H   0  0  0  0  0  0  0  0  0  0  0  0
   -2.2409   21.0577  -33.6306 H   0  0  0  0  0  0  0  0  0  0  0  0
   -5.8691   18.7511  -34.6784 H   0  0  0  0  0  0  0  0  0  0  0  0
   -5.4173   16.6499  -35.9408 H   0  0  0  0  0  0  0  0  0  0  0  0
   -4.6510   14.1600  -34.8030 H   0  0  0  0  0  0  0  0  0  0  0  0
   -3.8039   11.7193  -35.8235 H   0  0  0  0  0  0  0  0  0  0  0  0
   -2.3598   12.7192  -35.4294 H   0  0  0  0  0  0  0  0  0  0  0  0
   -3.8114   11.2302  -33.5934 H   0  0  0  0  0  0  0  0  0  0  0  0
   -2.7641   12.6346  -33.1888 H   0  0  0  0  0  0  0  0  0  0  0  0
   -3.5840   14.5343  -32.4425 H   0  0  0  0  0  0  0  0  0  0  0  0
   -5.3510   14.7213  -32.1008 H   0  0  0  0  0  0  0  0  0  0  0  0
   -3.5017   12.5833  -30.9238 H   0  0  0  0  0  0  0  0  0  0  0  0
   -4.1455   14.0327  -30.0671 H   0  0  0  0  0  0  0  0  0  0  0  0
   -4.8835   10.8888  -31.5086 H   0  0  0  0  0  0  0  0  0  0  0  0
   -6.6612   11.0174  -31.2022 H   0  0  0  0  0  0  0  0  0  0  0  0
   -6.0366   11.3549  -33.6150 H   0  0  0  0  0  0  0  0  0  0  0  0
   -6.8740   12.7775  -32.8586 H   0  0  0  0  0  0  0  0  0  0  0  0
   -1.3527   16.6273  -34.4573 H   0  0  0  0  0  0  0  0  0  0  0  0
   -1.7952   18.7354  -33.2052 H   0  0  0  0  0  0  0  0  0  0  0  0
   -6.0860   19.4882  -32.3983 H   0  0  0  0  0  0  0  0  0  0  0  0
   -6.5177   21.5744  -31.1074 H   0  0  0  0  0  0  0  0  0  0  0  0
  1  2  2  0
  2  3  2  0
  2  4  1  0
  4  5  1  0
  5  6  2  0
  6  7  1  0
  7  8  2  0
  8  9  1  0
  9 10  2  0
 10 11  1  0
  8 12  1  0
 12 13  1  0
 13 14  1  0
 14 15  1  0
  2 16  1  0
 16 17  2  0
 17 18  1  0
 18 19  2  0
 19 20  1  0
 20 21  2  0
 21 22  1  0
 22 23  2  0
 23 24  1  0
 24 25  2  0
 24 26  2  0
 24 27  1  0
 27 28  1  0
 28 29  1  0
 29 30  1  0
 30 31  1  0
 31 32  1  0
 32 33  1  0
 33 34  1  0
 34 35  1  0
 23 36  1  0
 36 37  2  0
 19 38  1  0
 38 39  2  0
 10  5  1  0
 39 16  1  0
 15  7  1  0
 37 20  1  0
 35 30  1  0
  6 40  1  0
  9 41  1  0
 12 42  1  0
 12 43  1  0
 13 44  1  0
 14 45  1  0
 14 46  1  0
 15 47  1  0
 15 48  1  0
 17 49  1  0
 18 50  1  0
 21 51  1  0
 22 52  1  0
 27 53  1  0
 28 54  1  0
 28 55  1  0
 29 56  1  0
 29 57  1  0
 31 58  1  0
 31 59  1  0
 32 60  1  0
 32 61  1  0
 34 62  1  0
 34 63  1  0
 35 64  1  0
 35 65  1  0
 36 66  1  0
 37 67  1  0
 38 68  1  0
 39 69  1  0
M  CHG  2   4  -1  11  -1
M  END
>  <UniqueID>  (43) 
42

>  <SMILES>  (43) 
O=S(=O)([N-]c1cc2c(cc1[O-])CNCC2)c1ccc(-c2ccc(S(=O)(=O)NCCN3CCOCC3)cc2)cc1

>  <Energy>  (43) 
90.42387944090478

>  <Genealogy>  (43) 
O=S(=O)([N-]c1cc2c(cc1[O-])CNCC2)c1ccc(-c2ccc(S(=O)(=O)NCCN3CCOCC3)cc2)cc1 (protonated)
O=S(=O)([N-]c1cc2c(cc1[O-])CNCC2)c1ccc(-c2ccc(S(=O)(=O)NCCN3CCOCC3)cc2)cc1 (3D coordinates assigned)
O=S(=O)([N-]c1cc2c(cc1[O-])CNCC2)c1ccc(-c2ccc(S(=O)(=O)NCCN3CCOCC3)cc2)cc1 (nonaromatic ring conformer: 90.42387944090478 kcal/mol)

>  <smiles>  (43) 
O=S(=O)(NCCN1CCOCC1)c1ccc(-c2ccc(S(=O)(=O)Nc3cc4c(cc3O)CNCC4)cc2)cc1

>  <score_type>  (43) 
oracle

>  <origin>  (43) 
adgpu

>  <m_score__min__energy>  (43) 
-14.050000000000001

>  <m_primary>  (43) 
energy

$$$$
43:0
     RDKit          3D

 60 63  0  0  0  0  0  0  0  0999 V2000
   -2.6860   17.6330  -34.3860 C   0  0  0  0  0  0  0  0  0  0  0  0
   -3.6850   16.7030  -34.9360 N   0  0  0  0  0  0  0  0  0  0  0  0
   -3.9400   15.5920  -34.0030 C   0  0  0  0  0  0  0  0  0  0  0  0
   -4.9280   17.3870  -35.3640 C   0  0  0  0  0  0  0  0  0  0  0  0
   -5.7810   17.8880  -34.2150 C   0  0  0  0  0  0  0  0  0  0  0  0
   -6.8630   17.1260  -33.7490 C   0  0  0  0  0  0  0  0  0  0  0  0
   -7.6530   17.5950  -32.6980 C   0  0  0  0  0  0  0  0  0  0  0  0
   -7.3690   18.8220  -32.0970 C   0  0  0  0  0  0  0  0  0  0  0  0
   -6.2830   19.5970  -32.5410 C   0  0  0  0  0  0  0  0  0  0  0  0
   -5.9840   20.9070  -31.9090 C   0  0  0  0  0  0  0  0  0  0  0  0
   -6.9420   21.5430  -31.0980 C   0  0  0  0  0  0  0  0  0  0  0  0
   -6.6750   22.7930  -30.5310 C   0  0  0  0  0  0  0  0  0  0  0  0
   -5.4440   23.4210  -30.7560 C   0  0  0  0  0  0  0  0  0  0  0  0
   -5.1540   25.0510  -30.1560 S   0  0  0  0  0  0  0  0  0  0  0  0
   -5.5010   26.0570  -31.2180 O   0  0  0  0  0  0  0  0  0  0  0  0
   -5.9940   25.3210  -28.9390 O   0  0  0  0  0  0  0  0  0  0  0  0
   -3.4750   25.1890  -29.7640 N   0  0  0  0  0  0  0  0  0  0  0  0
   -2.8290   24.1450  -29.0380 C   0  0  0  0  0  0  0  0  0  0  0  0
   -1.9680   23.2580  -29.7000 C   0  0  0  0  0  0  0  0  0  0  0  0
   -1.2640   22.2820  -28.9820 C   0  0  0  0  0  0  0  0  0  0  0  0
   -1.4380   22.1850  -27.5840 C   0  0  0  0  0  0  0  0  0  0  0  0
   -2.2950   23.0820  -26.9250 C   0  0  0  0  0  0  0  0  0  0  0  0
   -2.9950   24.0570  -27.6470 C   0  0  0  0  0  0  0  0  0  0  0  0
   -3.8360   24.9570  -26.9870 O   0  0  0  0  0  0  0  0  0  0  0  0
   -0.6250   21.2040  -26.7720 C   0  0  0  0  0  0  0  0  0  0  0  0
   -0.1470   20.0580  -27.5670 N   0  0  0  0  0  0  0  0  0  0  0  0
   -1.2170   19.0770  -27.8240 C   0  0  0  0  0  0  0  0  0  0  0  0
    0.5240   20.5040  -28.8050 C   0  0  0  0  0  0  0  0  0  0  0  0
   -0.4090   21.2960  -29.7310 C   0  0  0  0  0  0  0  0  0  0  0  0
   -4.4820   22.7910  -31.5550 C   0  0  0  0  0  0  0  0  0  0  0  0
   -4.7470   21.5430  -32.1270 C   0  0  0  0  0  0  0  0  0  0  0  0
   -5.4920   19.1190  -33.6030 C   0  0  0  0  0  0  0  0  0  0  0  0
   -2.7208   17.6006  -33.2870 H   0  0  0  0  0  0  0  0  0  0  0  0
   -1.6832   17.3394  -34.7299 H   0  0  0  0  0  0  0  0  0  0  0  0
   -2.9072   18.6542  -34.7299 H   0  0  0  0  0  0  0  0  0  0  0  0
   -3.8565   15.9557  -32.9682 H   0  0  0  0  0  0  0  0  0  0  0  0
   -4.9523   15.1963  -34.1720 H   0  0  0  0  0  0  0  0  0  0  0  0
   -3.2016   14.7944  -34.1720 H   0  0  0  0  0  0  0  0  0  0  0  0
   -4.6514   18.2476  -35.9908 H   0  0  0  0  0  0  0  0  0  0  0  0
   -5.5299   16.6441  -35.9079 H   0  0  0  0  0  0  0  0  0  0  0  0
   -7.0897   16.1551  -34.2137 H   0  0  0  0  0  0  0  0  0  0  0  0
   -8.5032   16.9947  -32.3420 H   0  0  0  0  0  0  0  0  0  0  0  0
   -7.9984   19.1850  -31.2711 H   0  0  0  0  0  0  0  0  0  0  0  0
   -7.9085   21.0530  -30.9086 H   0  0  0  0  0  0  0  0  0  0  0  0
   -7.4349   23.2848  -29.9059 H   0  0  0  0  0  0  0  0  0  0  0  0
   -1.8443   23.3288  -30.7907 H   0  0  0  0  0  0  0  0  0  0  0  0
   -2.4173   23.0182  -25.8337 H   0  0  0  0  0  0  0  0  0  0  0  0
   -4.4180   25.6170  -27.4960 H   0  0  0  0  0  0  0  0  0  0  0  0
    0.2466   21.7304  -26.3559 H   0  0  0  0  0  0  0  0  0  0  0  0
   -1.2795   20.8074  -25.9819 H   0  0  0  0  0  0  0  0  0  0  0  0
   -1.6164   18.7108  -26.8667 H   0  0  0  0  0  0  0  0  0  0  0  0
   -2.0235   19.5561  -28.3985 H   0  0  0  0  0  0  0  0  0  0  0  0
   -0.8095   18.2321  -28.3985 H   0  0  0  0  0  0  0  0  0  0  0  0
    1.3761   21.1441  -28.5326 H   0  0  0  0  0  0  0  0  0  0  0  0
    0.8487   19.6052  -29.3497 H   0  0  0  0  0  0  0  0  0  0  0  0
    0.2025   21.8440  -30.4629 H   0  0  0  0  0  0  0  0  0  0  0  0
   -1.0809   20.5770  -30.2225 H   0  0  0  0  0  0  0  0  0  0  0  0
   -3.5131   23.2803  -31.7335 H   0  0  0  0  0  0  0  0  0  0  0  0
   -3.9841   21.0549  -32.7513 H   0  0  0  0  0  0  0  0  0  0  0  0
   -4.6386   19.7158  -33.9573 H   0  0  0  0  0  0  0  0  0  0  0  0
  1  2  1  0
  2  3  1  0
  2  4  1  0
  4  5  1  0
  5  6  2  0
  6  7  1  0
  7  8  2  0
  8  9  1  0
  9 10  1  0
 10 11  2  0
 11 12  1  0
 12 13  2  0
 13 14  1  0
 14 15  2  0
 14 16  2  0
 14 17  1  0
 17 18  1  0
 18 19  2  0
 19 20  1  0
 20 21  2  0
 21 22  1  0
 22 23  2  0
 23 24  1  0
 21 25  1  0
 25 26  1  0
 26 27  1  0
 26 28  1  0
 28 29  1  0
 13 30  1  0
 30 31  2  0
  9 32  2  0
 32  5  1  0
 31 10  1  0
 23 18  1  0
 29 20  1  0
  1 33  1  0
  1 34  1  0
  1 35  1  0
  3 36  1  0
  3 37  1  0
  3 38  1  0
  4 39  1  0
  4 40  1  0
  6 41  1  0
  7 42  1  0
  8 43  1  0
 11 44  1  0
 12 45  1  0
 19 46  1  0
 22 47  1  0
 24 48  1  0
 25 49  1  0
 25 50  1  0
 27 51  1  0
 27 52  1  0
 27 53  1  0
 28 54  1  0
 28 55  1  0
 29 56  1  0
 29 57  1  0
 30 58  1  0
 31 59  1  0
 32 60  1  0
M  CHG  1  17  -1
M  END
>  <UniqueID>  (44) 
43

>  <SMILES>  (44) 
CN(C)Cc1cccc(-c2ccc(S(=O)(=O)[N-]c3cc4c(cc3O)CN(C)CC4)cc2)c1

>  <Energy>  (44) 
83.24380721263057

>  <Genealogy>  (44) 
CN(C)Cc1cccc(-c2ccc(S(=O)(=O)[N-]c3cc4c(cc3O)CN(C)CC4)cc2)c1 (protonated)
CN(C)Cc1cccc(-c2ccc(S(=O)(=O)[N-]c3cc4c(cc3O)CN(C)CC4)cc2)c1 (3D coordinates assigned)
CN(C)Cc1cccc(-c2ccc(S(=O)(=O)[N-]c3cc4c(cc3O)CN(C)CC4)cc2)c1 (nonaromatic ring conformer: 83.24380721263057 kcal/mol)

>  <smiles>  (44) 
CN(C)Cc1cccc(-c2ccc(S(=O)(=O)Nc3cc4c(cc3O)CN(C)CC4)cc2)c1

>  <score_type>  (44) 
oracle

>  <origin>  (44) 
adgpu

>  <m_score__min__energy>  (44) 
-12.85

>  <m_primary>  (44) 
energy

$$$$
44:0
     RDKit          3D

 63 67  0  0  0  0  0  0  0  0999 V2000
   -0.3780   19.1610  -31.3000 O   0  0  0  0  0  0  0  0  0  0  0  0
   -1.0090   20.4810  -30.9470 S   0  0  0  0  0  0  0  0  0  0  0  0
   -0.0130   21.5610  -31.2540 O   0  0  0  0  0  0  0  0  0  0  0  0
   -2.4460   20.6440  -31.9470 C   0  0  0  0  0  0  0  0  0  0  0  0
   -2.6680   21.8050  -32.6980 C   0  0  0  0  0  0  0  0  0  0  0  0
   -3.8370   21.9370  -33.4530 C   0  0  0  0  0  0  0  0  0  0  0  0
   -4.7890   20.9130  -33.4590 C   0  0  0  0  0  0  0  0  0  0  0  0
   -4.5660   19.7430  -32.7190 C   0  0  0  0  0  0  0  0  0  0  0  0
   -5.7870   18.4750  -32.6360 S   0  0  0  0  0  0  0  0  0  0  0  0
   -6.2180   18.2620  -31.2100 O   0  0  0  0  0  0  0  0  0  0  0  0
   -6.9800   18.9000  -33.4460 O   0  0  0  0  0  0  0  0  0  0  0  0
   -5.1200   16.9970  -33.2840 N   0  0  0  0  0  0  0  0  0  0  0  0
   -6.2010   16.1400  -33.8070 C   0  0  0  0  0  0  0  0  0  0  0  0
   -5.6670   14.7430  -34.1840 C   0  0  0  0  0  0  0  0  0  0  0  0
   -4.1780   14.7660  -34.5710 C   0  0  0  0  0  0  0  0  0  0  0  0
   -3.7980   16.0910  -35.2360 C   0  0  0  0  0  0  0  0  0  0  0  0
   -4.1180   17.3050  -34.3320 C   0  0  0  0  0  0  0  0  0  0  0  0
   -3.3850   19.6050  -31.9810 C   0  0  0  0  0  0  0  0  0  0  0  0
   -1.4170   20.5150  -29.2150 C   0  0  0  0  0  0  0  0  0  0  0  0
   -1.2390   19.3210  -28.4910 C   0  0  0  0  0  0  0  0  0  0  0  0
   -1.5590   19.2450  -27.1370 C   0  0  0  0  0  0  0  0  0  0  0  0
   -2.0650   20.3590  -26.4780 C   0  0  0  0  0  0  0  0  0  0  0  0
   -2.2490   21.5550  -27.1690 C   0  0  0  0  0  0  0  0  0  0  0  0
   -1.9270   21.6620  -28.5350 C   0  0  0  0  0  0  0  0  0  0  0  0
   -2.1910   23.2460  -29.3050 S   0  0  0  0  0  0  0  0  0  0  0  0
   -1.2410   23.4200  -30.4570 O   0  0  0  0  0  0  0  0  0  0  0  0
   -1.9120   24.3380  -28.3150 O   0  0  0  0  0  0  0  0  0  0  0  0
   -3.8170   23.3950  -29.9590 C   0  0  0  0  0  0  0  0  0  0  0  0
   -4.3220   24.6610  -30.2830 C   0  0  0  0  0  0  0  0  0  0  0  0
   -5.6060   24.7930  -30.8160 C   0  0  0  0  0  0  0  0  0  0  0  0
   -6.4040   23.6580  -31.0270 C   0  0  0  0  0  0  0  0  0  0  0  0
   -7.6930   23.7790  -31.5680 C   0  0  0  0  0  0  0  0  0  0  0  0
   -8.4760   22.6400  -31.7730 C   0  0  0  0  0  0  0  0  0  0  0  0
   -7.9810   21.3750  -31.4400 C   0  0  0  0  0  0  0  0  0  0  0  0
   -6.6990   21.2420  -30.8990 C   0  0  0  0  0  0  0  0  0  0  0  0
   -5.9020   22.3780  -30.6880 C   0  0  0  0  0  0  0  0  0  0  0  0
   -4.6140   22.2550  -30.1480 C   0  0  0  0  0  0  0  0  0  0  0  0
   -1.9221   22.6135  -32.6938 H   0  0  0  0  0  0  0  0  0  0  0  0
   -4.0084   22.8488  -34.0439 H   0  0  0  0  0  0  0  0  0  0  0  0
   -5.7134   21.0253  -34.0445 H   0  0  0  0  0  0  0  0  0  0  0  0
   -4.6450   16.5030  -32.4920 H   0  0  0  0  0  0  0  0  0  0  0  0
   -6.9786   16.0318  -33.0365 H   0  0  0  0  0  0  0  0  0  0  0  0
   -6.6156   16.6116  -34.7102 H   0  0  0  0  0  0  0  0  0  0  0  0
   -5.7973   14.0713  -33.3227 H   0  0  0  0  0  0  0  0  0  0  0  0
   -6.2344   14.3933  -35.0591 H   0  0  0  0  0  0  0  0  0  0  0  0
   -3.5698   14.6325  -33.6642 H   0  0  0  0  0  0  0  0  0  0  0  0
   -3.9922   13.9518  -35.2869 H   0  0  0  0  0  0  0  0  0  0  0  0
   -2.7195   16.0835  -35.4522 H   0  0  0  0  0  0  0  0  0  0  0  0
   -4.3878   16.1896  -36.1592 H   0  0  0  0  0  0  0  0  0  0  0  0
   -3.1887   17.6330  -33.8432 H   0  0  0  0  0  0  0  0  0  0  0  0
   -4.5431   18.0908  -34.9737 H   0  0  0  0  0  0  0  0  0  0  0  0
   -3.1930   18.6757  -31.4246 H   0  0  0  0  0  0  0  0  0  0  0  0
   -0.8404   18.4327  -29.0029 H   0  0  0  0  0  0  0  0  0  0  0  0
   -1.4110   18.3026  -26.5893 H   0  0  0  0  0  0  0  0  0  0  0  0
   -2.3205   20.2966  -25.4099 H   0  0  0  0  0  0  0  0  0  0  0  0
   -2.6525   22.4299  -26.6382 H   0  0  0  0  0  0  0  0  0  0  0  0
   -3.7039   25.5556  -30.1167 H   0  0  0  0  0  0  0  0  0  0  0  0
   -5.9934   25.7903  -31.0714 H   0  0  0  0  0  0  0  0  0  0  0  0
   -8.0875   24.7716  -31.8310 H   0  0  0  0  0  0  0  0  0  0  0  0
   -9.4858   22.7386  -32.1980 H   0  0  0  0  0  0  0  0  0  0  0  0
   -8.6023   20.4822  -31.6043 H   0  0  0  0  0  0  0  0  0  0  0  0
   -6.3140   20.2452  -30.6381 H   0  0  0  0  0  0  0  0  0  0  0  0
   -4.2271   21.2630  -29.8718 H   0  0  0  0  0  0  0  0  0  0  0  0
  1  2  2  0
  2  3  2  0
  2  4  1  0
  4  5  2  0
  5  6  1  0
  6  7  2  0
  7  8  1  0
  8  9  1  0
  9 10  2  0
  9 11  2  0
  9 12  1  0
 12 13  1  0
 13 14  1  0
 14 15  1  0
 15 16  1  0
 16 17  1  0
  8 18  2  0
  2 19  1  0
 19 20  2  0
 20 21  1  0
 21 22  2  0
 22 23  1  0
 23 24  2  0
 24 25  1  0
 25 26  2  0
 25 27  2  0
 25 28  1  0
 28 29  2  0
 29 30  1  0
 30 31  2  0
 31 32  1  0
 32 33  2  0
 33 34  1  0
 34 35  2  0
 35 36  1  0
 36 37  2  0
 18  4  1  0
 24 19  1  0
 37 28  1  0
 17 12  1  0
 36 31  1  0
  5 38  1  0
  6 39  1  0
  7 40  1  0
 12 41  1  0
 13 42  1  0
 13 43  1  0
 14 44  1  0
 14 45  1  0
 15 46  1  0
 15 47  1  0
 16 48  1  0
 16 49  1  0
 17 50  1  0
 17 51  1  0
 18 52  1  0
 20 53  1  0
 21 54  1  0
 22 55  1  0
 23 56  1  0
 29 57  1  0
 30 58  1  0
 32 59  1  0
 33 60  1  0
 34 61  1  0
 35 62  1  0
 37 63  1  0
M  CHG  1  12   1
M  END
>  <UniqueID>  (45) 
44

>  <SMILES>  (45) 
O=S(=O)(c1cccc(S(=O)(=O)[NH+]2CCCCC2)c1)c1ccccc1S(=O)(=O)c1ccc2ccccc2c1

>  <Energy>  (45) 
79.00374245600035

>  <Genealogy>  (45) 
O=S(=O)(c1cccc(S(=O)(=O)[NH+]2CCCCC2)c1)c1ccccc1S(=O)(=O)c1ccc2ccccc2c1 (protonated)
O=S(=O)(c1cccc(S(=O)(=O)[NH+]2CCCCC2)c1)c1ccccc1S(=O)(=O)c1ccc2ccccc2c1 (3D coordinates assigned)
O=S(=O)(c1cccc(S(=O)(=O)[NH+]2CCCCC2)c1)c1ccccc1S(=O)(=O)c1ccc2ccccc2c1 (nonaromatic ring conformer: 79.00374245600035 kcal/mol)

>  <smiles>  (45) 
O=S(=O)(c1cccc(S(=O)(=O)N2CCCCC2)c1)c1ccccc1S(=O)(=O)c1ccc2ccccc2c1

>  <score_type>  (45) 
oracle

>  <origin>  (45) 
adgpu

>  <m_score__min__energy>  (45) 
-12.279999999999999

>  <m_primary>  (45) 
energy

$$$$
45:0
     RDKit          3D

 45 47  0  0  0  0  0  0  0  0999 V2000
   -5.2600   16.4970  -34.0540 C   0  0  0  0  0  0  0  0  0  0  0  0
   -6.6190   16.8000  -33.7520 O   0  0  0  0  0  0  0  0  0  0  0  0
   -7.0530   18.0030  -33.1760 C   0  0  0  0  0  0  0  0  0  0  0  0
   -7.9970   18.0430  -32.1310 C   0  0  0  0  0  0  0  0  0  0  0  0
   -8.3980   19.2690  -31.5910 C   0  0  0  0  0  0  0  0  0  0  0  0
   -7.8690   20.4670  -32.0890 C   0  0  0  0  0  0  0  0  0  0  0  0
   -8.3530   22.0060  -31.3880 S   0  0  0  0  0  0  0  0  0  0  0  0
   -9.2770   22.7260  -32.3320 O   0  0  0  0  0  0  0  0  0  0  0  0
   -9.0900   21.7770  -30.0970 O   0  0  0  0  0  0  0  0  0  0  0  0
   -6.9160   22.9740  -31.0860 C   0  0  0  0  0  0  0  0  0  0  0  0
   -7.0190   24.3530  -30.8750 C   0  0  0  0  0  0  0  0  0  0  0  0
   -5.8700   25.1160  -30.6590 C   0  0  0  0  0  0  0  0  0  0  0  0
   -4.6100   24.5090  -30.6510 C   0  0  0  0  0  0  0  0  0  0  0  0
   -3.4850   25.2990  -30.4440 O   0  0  0  0  0  0  0  0  0  0  0  0
   -4.4950   23.1190  -30.8550 C   0  0  0  0  0  0  0  0  0  0  0  0
   -2.9220   22.3030  -30.8360 S   0  0  0  0  0  0  0  0  0  0  0  0
   -2.9380   21.1860  -29.8290 O   0  0  0  0  0  0  0  0  0  0  0  0
   -1.8680   23.2880  -30.4080 O   0  0  0  0  0  0  0  0  0  0  0  0
   -2.5020   21.6560  -32.4060 N   0  0  0  0  0  0  0  0  0  0  0  0
   -1.1040   21.1750  -32.4480 C   0  0  0  0  0  0  0  0  0  0  0  0
   -1.0220   19.6390  -32.3910 C   0  0  0  0  0  0  0  0  0  0  0  0
   -1.7210   18.9970  -33.4510 O   0  0  0  0  0  0  0  0  0  0  0  0
   -2.8720   19.7070  -33.8920 C   0  0  0  0  0  0  0  0  0  0  0  0
   -3.4790   20.6340  -32.8270 C   0  0  0  0  0  0  0  0  0  0  0  0
   -5.6550   22.3640  -31.0870 C   0  0  0  0  0  0  0  0  0  0  0  0
   -6.9250   20.4290  -33.1230 C   0  0  0  0  0  0  0  0  0  0  0  0
   -6.5230   19.2040  -33.6630 C   0  0  0  0  0  0  0  0  0  0  0  0
   -4.6957   16.3712  -33.1182 H   0  0  0  0  0  0  0  0  0  0  0  0
   -5.2130   15.5663  -34.6385 H   0  0  0  0  0  0  0  0  0  0  0  0
   -4.8221   17.3196  -34.6385 H   0  0  0  0  0  0  0  0  0  0  0  0
   -8.4201   17.1066  -31.7385 H   0  0  0  0  0  0  0  0  0  0  0  0
   -9.1318   19.2929  -30.7719 H   0  0  0  0  0  0  0  0  0  0  0  0
   -8.0068   24.8369  -30.8793 H   0  0  0  0  0  0  0  0  0  0  0  0
   -5.9561   26.2002  -30.4943 H   0  0  0  0  0  0  0  0  0  0  0  0
   -0.6369   21.5214  -33.3817 H   0  0  0  0  0  0  0  0  0  0  0  0
   -0.5794   21.5766  -31.5685 H   0  0  0  0  0  0  0  0  0  0  0  0
    0.0365   19.3440  -32.4421 H   0  0  0  0  0  0  0  0  0  0  0  0
   -1.4963   19.3228  -31.4502 H   0  0  0  0  0  0  0  0  0  0  0  0
   -2.5896   20.3177  -34.7622 H   0  0  0  0  0  0  0  0  0  0  0  0
   -3.6374   18.9549  -34.1337 H   0  0  0  0  0  0  0  0  0  0  0  0
   -4.3655   21.1329  -33.2457 H   0  0  0  0  0  0  0  0  0  0  0  0
   -3.7584   20.0303  -31.9509 H   0  0  0  0  0  0  0  0  0  0  0  0
   -5.5732   21.2827  -31.2714 H   0  0  0  0  0  0  0  0  0  0  0  0
   -6.4988   21.3658  -33.5112 H   0  0  0  0  0  0  0  0  0  0  0  0
   -5.7840   19.1833  -34.4775 H   0  0  0  0  0  0  0  0  0  0  0  0
  1  2  1  0
  2  3  1  0
  3  4  2  0
  4  5  1  0
  5  6  2  0
  6  7  1  0
  7  8  2  0
  7  9  2  0
  7 10  1  0
 10 11  2  0
 11 12  1  0
 12 13  2  0
 13 14  1  0
 13 15  1  0
 15 16  1  0
 16 17  2  0
 16 18  2  0
 16 19  1  0
 19 20  1  0
 20 21  1  0
 21 22  1  0
 22 23  1  0
 23 24  1  0
 15 25  2  0
  6 26  1  0
 26 27  2  0
 27  3  1  0
 25 10  1  0
 24 19  1  0
  1 28  1  0
  1 29  1  0
  1 30  1  0
  4 31  1  0
  5 32  1  0
 11 33  1  0
 12 34  1  0
 20 35  1  0
 20 36  1  0
 21 37  1  0
 21 38  1  0
 23 39  1  0
 23 40  1  0
 24 41  1  0
 24 42  1  0
 25 43  1  0
 26 44  1  0
 27 45  1  0
M  CHG  1  14  -1
M  END
>  <UniqueID>  (46) 
45

>  <SMILES>  (46) 
COc1ccc(S(=O)(=O)c2ccc([O-])c(S(=O)(=O)N3CCOCC3)c2)cc1

>  <Energy>  (46) 
60.619300282774844

>  <Genealogy>  (46) 
COc1ccc(S(=O)(=O)c2ccc([O-])c(S(=O)(=O)N3CCOCC3)c2)cc1 (protonated)
COc1ccc(S(=O)(=O)c2ccc([O-])c(S(=O)(=O)N3CCOCC3)c2)cc1 (3D coordinates assigned)
COc1ccc(S(=O)(=O)c2ccc([O-])c(S(=O)(=O)N3CCOCC3)c2)cc1 (nonaromatic ring conformer: 60.619300282774844 kcal/mol)

>  <smiles>  (46) 
COc1ccc(S(=O)(=O)c2ccc(O)c(S(=O)(=O)N3CCOCC3)c2)cc1

>  <score_type>  (46) 
oracle

>  <origin>  (46) 
adgpu

>  <m_score__min__energy>  (46) 
-12.359999999999999

>  <m_primary>  (46) 
energy

$$$$
46:0
     RDKit          3D

 46 49  0  0  0  0  0  0  0  0999 V2000
   -3.4430   21.5110  -28.4210 C   0  0  0  0  0  0  0  0  0  0  0  0
   -3.3500   23.0060  -28.1190 C   0  0  1  0  0  0  0  0  0  0  0  0
   -1.9920   23.4010  -28.1440 O   0  0  0  0  0  0  0  0  0  0  0  0
   -1.7500   24.4210  -27.1980 C   0  0  0  0  0  0  0  0  0  0  0  0
   -1.3530   25.6660  -27.9250 C   0  0  0  0  0  0  0  0  0  0  0  0
   -1.2600   25.6690  -29.3490 N   0  0  0  0  0  0  0  0  0  0  0  0
   -1.1350   26.7270  -27.2820 O   0  0  0  0  0  0  0  0  0  0  0  0
   -4.1770   23.8010  -29.1070 C   0  0  0  0  0  0  0  0  0  0  0  0
   -5.0000   24.7930  -28.7080 N   0  0  0  0  0  0  0  0  0  0  0  0
   -5.7450   25.1330  -29.7500 N   0  0  0  0  0  0  0  0  0  0  0  0
   -5.3600   24.3500  -30.7740 C   0  0  0  0  0  0  0  0  0  0  0  0
   -4.3790   23.5070  -30.4140 N   0  0  0  0  0  0  0  0  0  0  0  0
   -3.8170   22.4790  -31.2490 C   0  0  0  0  0  0  0  0  0  0  0  0
   -2.4240   22.3820  -31.3870 C   0  0  0  0  0  0  0  0  0  0  0  0
   -1.8550   21.4110  -32.2090 C   0  0  0  0  0  0  0  0  0  0  0  0
   -2.6710   20.5450  -32.9350 C   0  0  0  0  0  0  0  0  0  0  0  0
   -1.9520   19.3310  -33.9780 Cl  0  0  0  0  0  0  0  0  0  0  0  0
   -4.0600   20.6650  -32.8570 C   0  0  0  0  0  0  0  0  0  0  0  0
   -4.6540   21.6350  -32.0270 C   0  0  0  0  0  0  0  0  0  0  0  0
   -6.1490   21.7390  -32.0040 C   0  0  0  0  0  0  0  0  0  0  0  0
   -6.9810   20.5090  -31.9610 C   0  0  0  0  0  0  0  0  0  0  0  0
   -6.4020   19.2680  -31.6360 C   0  0  0  0  0  0  0  0  0  0  0  0
   -7.1830   18.1080  -31.6090 C   0  0  0  0  0  0  0  0  0  0  0  0
   -8.5450   18.1720  -31.9130 C   0  0  0  0  0  0  0  0  0  0  0  0
   -9.1280   19.3960  -32.2490 C   0  0  0  0  0  0  0  0  0  0  0  0
   -8.3520   20.5580  -32.2780 C   0  0  0  0  0  0  0  0  0  0  0  0
   -6.7620   22.8930  -32.0450 N   0  0  0  0  0  0  0  0  0  0  0  0
   -6.1180   24.2030  -32.0480 C   0  0  0  0  0  0  0  0  0  0  0  0
   -3.4780   20.9477  -27.4768 H   0  0  0  0  0  0  0  0  0  0  0  0
   -4.3554   21.3103  -29.0018 H   0  0  0  0  0  0  0  0  0  0  0  0
   -2.5625   21.1988  -29.0018 H   0  0  0  0  0  0  0  0  0  0  0  0
   -3.7574   23.2069  -27.1172 H   0  0  0  0  0  0  0  0  0  0  0  0
   -2.6633   24.6086  -26.6144 H   0  0  0  0  0  0  0  0  0  0  0  0
   -0.9451   24.1140  -26.5140 H   0  0  0  0  0  0  0  0  0  0  0  0
   -0.9980   26.5420  -29.8580 H   0  0  0  0  0  0  0  0  0  0  0  0
   -1.4590   24.8030  -29.8970 H   0  0  0  0  0  0  0  0  0  0  0  0
   -1.7736   23.0804  -30.8401 H   0  0  0  0  0  0  0  0  0  0  0  0
   -0.7608   21.3279  -32.2849 H   0  0  0  0  0  0  0  0  0  0  0  0
   -4.6977   19.9938  -33.4510 H   0  0  0  0  0  0  0  0  0  0  0  0
   -5.3288   19.2100  -31.4018 H   0  0  0  0  0  0  0  0  0  0  0  0
   -6.7238   17.1432  -31.3478 H   0  0  0  0  0  0  0  0  0  0  0  0
   -9.1580   17.2590  -31.8878 H   0  0  0  0  0  0  0  0  0  0  0  0
  -10.1999   19.4455  -32.4912 H   0  0  0  0  0  0  0  0  0  0  0  0
   -8.8156   21.5176  -32.5504 H   0  0  0  0  0  0  0  0  0  0  0  0
   -5.4291   24.2777  -32.9023 H   0  0  0  0  0  0  0  0  0  0  0  0
   -6.8730   24.9982  -32.1357 H   0  0  0  0  0  0  0  0  0  0  0  0
  1  2  1  0
  2  3  1  0
  3  4  1  0
  4  5  1  0
  5  6  1  0
  5  7  2  0
  2  8  1  0
  8  9  2  0
  9 10  1  0
 10 11  2  0
 11 12  1  0
 12 13  1  0
 13 14  2  0
 14 15  1  0
 15 16  2  0
 16 17  1  0
 16 18  1  0
 18 19  2  0
 19 20  1  0
 20 21  1  0
 21 22  2  0
 22 23  1  0
 23 24  2  0
 24 25  1  0
 25 26  2  0
 20 27  2  0
 27 28  1  0
 12  8  1  0
 19 13  1  0
 26 21  1  0
 28 11  1  0
  1 29  1  0
  1 30  1  0
  1 31  1  0
  2 32  1  1
  4 33  1  0
  4 34  1  0
  6 35  1  0
  6 36  1  0
 14 37  1  0
 15 38  1  0
 18 39  1  0
 22 40  1  0
 23 41  1  0
 24 42  1  0
 25 43  1  0
 26 44  1  0
 28 45  1  0
 28 46  1  0
M  END
>  <UniqueID>  (47) 
46

>  <SMILES>  (47) 
C[C@@H](OCC(N)=O)c1nnc2n1-c1ccc(Cl)cc1C(c1ccccc1)=NC2

>  <Energy>  (47) 
99.86414045808391

>  <Genealogy>  (47) 
C[C@@H](OCC(N)=O)c1nnc2n1-c1ccc(Cl)cc1C(c1ccccc1)=NC2 (chirality)
C[C@@H](OCC(N)=O)c1nnc2n1-c1ccc(Cl)cc1C(c1ccccc1)=NC2 (3D coordinates assigned)
C[C@@H](OCC(N)=O)c1nnc2n1-c1ccc(Cl)cc1C(c1ccccc1)=NC2 (nonaromatic ring conformer: 99.86414045808391 kcal/mol)

>  <smiles>  (47) 
CC(OCC(N)=O)c1nnc2n1-c1ccc(Cl)cc1C(c1ccccc1)=NC2

>  <score_type>  (47) 
oracle

>  <origin>  (47) 
adgpu

>  <m_score__min__energy>  (47) 
-9.7799999999999994

>  <m_primary>  (47) 
energy

$$$$
47:0
     RDKit          3D

 46 47  0  0  0  0  0  0  0  0999 V2000
   -6.4900   17.4300  -33.6970 C   0  0  0  0  0  0  0  0  0  0  0  0
   -6.6110   18.5360  -32.7340 N   0  0  0  0  0  0  0  0  0  0  0  0
   -7.4550   18.1110  -31.6030 C   0  0  0  0  0  0  0  0  0  0  0  0
   -7.1830   19.7230  -33.3990 C   0  0  0  0  0  0  0  0  0  0  0  0
   -7.6130   20.7350  -32.3850 C   0  0  0  0  0  0  0  0  0  0  0  0
   -8.8940   20.9490  -32.0260 N   0  0  0  0  0  0  0  0  0  0  0  0
   -8.8690   21.9220  -31.1300 N   0  0  0  0  0  0  0  0  0  0  0  0
   -7.5760   22.2620  -30.9810 C   0  0  0  0  0  0  0  0  0  0  0  0
   -6.9930   23.5480  -29.8790 S   0  0  0  0  0  0  0  0  0  0  0  0
   -6.1940   24.5400  -31.1890 C   0  0  0  0  0  0  0  0  0  0  0  0
   -5.2500   25.5520  -30.6020 C   0  0  0  0  0  0  0  0  0  0  0  0
   -5.7160   26.6220  -30.1330 O   0  0  0  0  0  0  0  0  0  0  0  0
   -3.8450   25.2940  -30.4600 N   0  0  0  0  0  0  0  0  0  0  0  0
   -3.2370   24.2660  -29.6680 C   0  0  0  0  0  0  0  0  0  0  0  0
   -3.7270   22.9510  -29.6680 C   0  0  0  0  0  0  0  0  0  0  0  0
   -3.0960   21.9650  -28.9050 C   0  0  0  0  0  0  0  0  0  0  0  0
   -1.9600   22.2790  -28.1540 C   0  0  0  0  0  0  0  0  0  0  0  0
   -1.4410   23.5800  -28.1760 C   0  0  0  0  0  0  0  0  0  0  0  0
   -0.0120   23.9950  -27.2320 S   0  0  0  0  0  0  0  0  0  0  0  0
    0.7620   22.7480  -26.8980 O   0  0  0  0  0  0  0  0  0  0  0  0
    0.8640   24.8950  -28.0590 O   0  0  0  0  0  0  0  0  0  0  0  0
   -0.4890   24.8160  -25.7680 N   0  0  0  0  0  0  0  0  0  0  0  0
   -1.8610   25.3180  -25.9110 C   0  0  0  0  0  0  0  0  0  0  0  0
   -0.4120   23.8790  -24.6390 C   0  0  0  0  0  0  0  0  0  0  0  0
   -2.0790   24.5680  -28.9390 C   0  0  0  0  0  0  0  0  0  0  0  0
   -6.7970   21.5420  -31.7500 O   0  0  0  0  0  0  0  0  0  0  0  0
   -6.3860   16.4797  -33.1528 H   0  0  0  0  0  0  0  0  0  0  0  0
   -7.3896   17.3941  -34.3290 H   0  0  0  0  0  0  0  0  0  0  0  0
   -5.6039   17.5894  -34.3290 H   0  0  0  0  0  0  0  0  0  0  0  0
   -6.9541   18.3632  -30.6567 H   0  0  0  0  0  0  0  0  0  0  0  0
   -8.4243   18.6285  -31.6541 H   0  0  0  0  0  0  0  0  0  0  0  0
   -7.6165   17.0241  -31.6541 H   0  0  0  0  0  0  0  0  0  0  0  0
   -6.4237   20.1702  -34.0574 H   0  0  0  0  0  0  0  0  0  0  0  0
   -8.0597   19.4136  -33.9869 H   0  0  0  0  0  0  0  0  0  0  0  0
   -5.6323   23.8690  -31.8555 H   0  0  0  0  0  0  0  0  0  0  0  0
   -6.9759   25.0748  -31.7481 H   0  0  0  0  0  0  0  0  0  0  0  0
   -4.6110   22.6955  -30.2708 H   0  0  0  0  0  0  0  0  0  0  0  0
   -3.4942   20.9396  -28.8955 H   0  0  0  0  0  0  0  0  0  0  0  0
   -1.4727   21.5035  -27.5448 H   0  0  0  0  0  0  0  0  0  0  0  0
   -2.2986   25.4781  -24.9146 H   0  0  0  0  0  0  0  0  0  0  0  0
   -1.8477   26.2695  -26.4628 H   0  0  0  0  0  0  0  0  0  0  0  0
   -2.4649   24.5826  -26.4628 H   0  0  0  0  0  0  0  0  0  0  0  0
   -0.4581   24.4394  -23.6936 H   0  0  0  0  0  0  0  0  0  0  0  0
   -1.2553   23.1745  -24.6891 H   0  0  0  0  0  0  0  0  0  0  0  0
    0.5350   23.3216  -24.6891 H   0  0  0  0  0  0  0  0  0  0  0  0
   -1.6676   25.5878  -28.9656 H   0  0  0  0  0  0  0  0  0  0  0  0
  1  2  1  0
  2  3  1  0
  2  4  1  0
  4  5  1  0
  5  6  2  0
  6  7  1  0
  7  8  2  0
  8  9  1  0
  9 10  1  0
 10 11  1  0
 11 12  2  0
 11 13  1  0
 13 14  1  0
 14 15  2  0
 15 16  1  0
 16 17  2  0
 17 18  1  0
 18 19  1  0
 19 20  2  0
 19 21  2  0
 19 22  1  0
 22 23  1  0
 22 24  1  0
 18 25  2  0
  8 26  1  0
 26  5  1  0
 25 14  1  0
  1 27  1  0
  1 28  1  0
  1 29  1  0
  3 30  1  0
  3 31  1  0
  3 32  1  0
  4 33  1  0
  4 34  1  0
 10 35  1  0
 10 36  1  0
 15 37  1  0
 16 38  1  0
 17 39  1  0
 23 40  1  0
 23 41  1  0
 23 42  1  0
 24 43  1  0
 24 44  1  0
 24 45  1  0
 25 46  1  0
M  CHG  1  13  -1
M  END
>  <UniqueID>  (48) 
47

>  <SMILES>  (48) 
CN(C)Cc1nnc(SCC(=O)[N-]c2cccc(S(=O)(=O)N(C)C)c2)o1

>  <Energy>  (48) 
78.40050903823416

>  <Genealogy>  (48) 
CN(C)Cc1nnc(SCC(=O)[N-]c2cccc(S(=O)(=O)N(C)C)c2)o1 (protonated)
CN(C)Cc1nnc(SCC(=O)[N-]c2cccc(S(=O)(=O)N(C)C)c2)o1 (3D coordinates assigned)
CN(C)Cc1nnc(SCC(=O)[N-]c2cccc(S(=O)(=O)N(C)C)c2)o1 (optimized conformer: 78.40050903823416 kcal/mol)

>  <smiles>  (48) 
CN(C)Cc1nnc(SCC(=O)Nc2cccc(S(=O)(=O)N(C)C)c2)o1

>  <score_type>  (48) 
oracle

>  <origin>  (48) 
adgpu

>  <m_score__min__energy>  (48) 
-9.7799999999999994

>  <m_primary>  (48) 
energy

$$$$
48:0
     RDKit          3D

 50 54  0  0  0  0  0  0  0  0999 V2000
   -0.5270   19.2140  -29.5790 C   0  0  0  0  0  0  0  0  0  0  0  0
   -0.0900   19.7330  -28.2560 N   0  0  0  0  0  0  0  0  0  0  0  0
   -1.0510   19.4070  -27.1740 C   0  0  0  0  0  0  0  0  0  0  0  0
   -2.4160   20.0850  -27.3690 C   0  0  0  0  0  0  0  0  0  0  0  0
   -2.2810   21.5230  -27.8200 C   0  0  0  0  0  0  0  0  0  0  0  0
   -3.4350   22.3160  -27.8760 C   0  0  0  0  0  0  0  0  0  0  0  0
   -3.3740   23.6140  -28.3900 C   0  0  0  0  0  0  0  0  0  0  0  0
   -4.5720   24.3730  -28.5770 N   0  0  0  0  0  0  0  0  0  0  0  0
   -5.0700   24.8740  -30.1590 S   0  0  0  0  0  0  0  0  0  0  0  0
   -3.8730   25.3610  -30.9260 O   0  0  0  0  0  0  0  0  0  0  0  0
   -6.0690   25.9880  -30.0630 O   0  0  0  0  0  0  0  0  0  0  0  0
   -5.7710   23.4860  -30.9810 C   0  0  0  0  0  0  0  0  0  0  0  0
   -4.9520   22.4330  -31.3980 C   0  0  0  0  0  0  0  0  0  0  0  0
   -5.5080   21.2760  -31.9460 C   0  0  0  0  0  0  0  0  0  0  0  0
   -6.9070   21.1470  -32.0830 C   0  0  0  0  0  0  0  0  0  0  0  0
   -7.5350   19.9820  -32.6020 C   0  0  0  0  0  0  0  0  0  0  0  0
   -6.8030   18.8450  -33.1990 C   0  0  0  0  0  0  0  0  0  0  0  0
   -6.0770   18.9220  -34.3390 N   0  0  0  0  0  0  0  0  0  0  0  0
   -5.6430   17.6610  -34.5150 C   0  0  0  0  0  0  0  0  0  0  0  0
   -6.1260   16.8670  -33.4950 C   0  0  0  0  0  0  0  0  0  0  0  0
   -6.8390   17.6240  -32.7040 O   0  0  0  0  0  0  0  0  0  0  0  0
   -8.9360   19.9010  -32.5700 C   0  0  0  0  0  0  0  0  0  0  0  0
   -9.6910   20.9670  -32.0890 C   0  0  0  0  0  0  0  0  0  0  0  0
   -9.0810   22.0870  -31.6400 N   0  0  0  0  0  0  0  0  0  0  0  0
   -7.7280   22.2070  -31.6220 C   0  0  0  0  0  0  0  0  0  0  0  0
   -7.1600   23.3700  -31.1000 C   0  0  0  0  0  0  0  0  0  0  0  0
   -2.1350   24.1530  -28.7910 C   0  0  0  0  0  0  0  0  0  0  0  0
   -2.0620   25.4680  -29.2660 O   0  0  0  0  0  0  0  0  0  0  0  0
   -0.9810   23.3590  -28.7470 C   0  0  0  0  0  0  0  0  0  0  0  0
   -1.0540   22.0350  -28.3050 C   0  0  0  0  0  0  0  0  0  0  0  0
    0.1980   21.1840  -28.3020 C   0  0  0  0  0  0  0  0  0  0  0  0
   -1.2291   18.3801  -29.4320 H   0  0  0  0  0  0  0  0  0  0  0  0
   -1.0246   20.0175  -30.1419 H   0  0  0  0  0  0  0  0  0  0  0  0
    0.3495   18.8605  -30.1419 H   0  0  0  0  0  0  0  0  0  0  0  0
   -1.1993   18.3173  -27.1516 H   0  0  0  0  0  0  0  0  0  0  0  0
   -0.6270   19.7793  -26.2298 H   0  0  0  0  0  0  0  0  0  0  0  0
   -2.9832   19.5273  -28.1288 H   0  0  0  0  0  0  0  0  0  0  0  0
   -2.9357   20.0826  -26.3995 H   0  0  0  0  0  0  0  0  0  0  0  0
   -4.3931   21.9150  -27.5138 H   0  0  0  0  0  0  0  0  0  0  0  0
   -3.8602   22.5168  -31.2934 H   0  0  0  0  0  0  0  0  0  0  0  0
   -4.8503   20.4576  -32.2740 H   0  0  0  0  0  0  0  0  0  0  0  0
   -5.0039   17.3170  -35.3416 H   0  0  0  0  0  0  0  0  0  0  0  0
   -5.9434   15.7895  -33.3702 H   0  0  0  0  0  0  0  0  0  0  0  0
   -9.4398   18.9906  -32.9268 H   0  0  0  0  0  0  0  0  0  0  0  0
  -10.7887   20.8979  -32.0741 H   0  0  0  0  0  0  0  0  0  0  0  0
   -7.8078   24.1996  -30.7805 H   0  0  0  0  0  0  0  0  0  0  0  0
   -2.8860   26.0480  -29.3430 H   0  0  0  0  0  0  0  0  0  0  0  0
   -0.0143   23.7793  -29.0614 H   0  0  0  0  0  0  0  0  0  0  0  0
    0.7704   21.3991  -29.2164 H   0  0  0  0  0  0  0  0  0  0  0  0
    0.7654   21.4361  -27.3940 H   0  0  0  0  0  0  0  0  0  0  0  0
  1  2  1  0
  2  3  1  0
  3  4  1  0
  4  5  1  0
  5  6  2  0
  6  7  1  0
  7  8  1  0
  8  9  1  0
  9 10  2  0
  9 11  2  0
  9 12  1  0
 12 13  2  0
 13 14  1  0
 14 15  2  0
 15 16  1  0
 16 17  1  0
 17 18  2  0
 18 19  1  0
 19 20  2  0
 20 21  1  0
 16 22  2  0
 22 23  1  0
 23 24  2  0
 24 25  1  0
 25 26  2  0
  7 27  2  0
 27 28  1  0
 27 29  1  0
 29 30  2  0
 30 31  1  0
 31  2  1  0
 30  5  1  0
 26 12  1  0
 25 15  1  0
 21 17  1  0
  1 32  1  0
  1 33  1  0
  1 34  1  0
  3 35  1  0
  3 36  1  0
  4 37  1  0
  4 38  1  0
  6 39  1  0
 13 40  1  0
 14 41  1  0
 19 42  1  0
 20 43  1  0
 22 44  1  0
 23 45  1  0
 26 46  1  0
 28 47  1  0
 29 48  1  0
 31 49  1  0
 31 50  1  0
M  CHG  1   8  -1
M  END
>  <UniqueID>  (49) 
48

>  <SMILES>  (49) 
CN1CCc2cc([N-]S(=O)(=O)c3ccc4c(-c5ncco5)ccnc4c3)c(O)cc2C1

>  <Energy>  (49) 
106.4876663269103

>  <Genealogy>  (49) 
CN1CCc2cc([N-]S(=O)(=O)c3ccc4c(-c5ncco5)ccnc4c3)c(O)cc2C1 (protonated)
CN1CCc2cc([N-]S(=O)(=O)c3ccc4c(-c5ncco5)ccnc4c3)c(O)cc2C1 (3D coordinates assigned)
CN1CCc2cc([N-]S(=O)(=O)c3ccc4c(-c5ncco5)ccnc4c3)c(O)cc2C1 (nonaromatic ring conformer: 106.4876663269103 kcal/mol)

>  <smiles>  (49) 
CN1CCc2cc(NS(=O)(=O)c3ccc4c(-c5ncco5)ccnc4c3)c(O)cc2C1

>  <score_type>  (49) 
oracle

>  <origin>  (49) 
adgpu

>  <m_score__min__energy>  (49) 
-14.01

>  <m_primary>  (49) 
energy

$$$$
