0:0
     RDKit          3D

 63 67  0  0  0  0  0  0  0  0999 V2000
    0.0650   17.7300  -27.5120 C   0  0  0  0  0  0  0  0  0  0  0  0
   -0.3650   18.8260  -28.4400 C   0  0  0  0  0  0  0  0  0  0  0  0
   -0.0430   18.7520  -29.8020 C   0  0  0  0  0  0  0  0  0  0  0  0
   -0.4420   19.7640  -30.6770 C   0  0  0  0  0  0  0  0  0  0  0  0
   -1.1770   20.8660  -30.2090 C   0  0  0  0  0  0  0  0  0  0  0  0
   -1.5950   21.9360  -31.1780 C   0  0  0  0  0  0  0  0  0  0  0  0
   -1.4690   20.9640  -28.8310 C   0  0  0  0  0  0  0  0  0  0  0  0
   -2.1780   22.0950  -28.3030 N   0  0  0  0  0  0  0  0  0  0  0  0
   -3.6220   21.9920  -28.0820 C   0  0  0  0  0  0  0  0  0  0  0  0
   -4.2290   23.3520  -27.6910 C   0  0  0  0  0  0  0  0  0  0  0  0
   -3.7840   24.4720  -28.5560 N   0  0  0  0  0  0  0  0  0  0  0  0
   -4.9050   24.7710  -29.8660 S   0  0  0  0  0  0  0  0  0  0  0  0
   -6.0910   25.5270  -29.3350 O   0  0  0  0  0  0  0  0  0  0  0  0
   -4.2460   25.6170  -30.9200 O   0  0  0  0  0  0  0  0  0  0  0  0
   -5.4550   23.2610  -30.5940 C   0  0  0  0  0  0  0  0  0  0  0  0
   -4.6160   22.5560  -31.4830 C   0  0  0  0  0  0  0  0  0  0  0  0
   -5.0780   21.4010  -32.1320 C   0  0  0  0  0  0  0  0  0  0  0  0
   -6.3920   20.9790  -31.8950 C   0  0  0  0  0  0  0  0  0  0  0  0
   -7.1900   21.6370  -30.9970 C   0  0  0  0  0  0  0  0  0  0  0  0
   -6.7510   22.7810  -30.3310 C   0  0  0  0  0  0  0  0  0  0  0  0
   -8.4970   20.9470  -30.8440 C   0  0  0  0  0  0  0  0  0  0  0  0
   -8.3830   19.7370  -31.8160 C   0  0  1  0  0  0  0  0  0  0  0  0
   -9.4820   19.7720  -32.8820 C   0  0  0  0  0  0  0  0  0  0  0  0
   -7.0570   19.8420  -32.4350 N   0  0  0  0  0  0  0  0  0  0  0  0
   -6.5390   18.8960  -33.3860 C   0  0  0  0  0  0  0  0  0  0  0  0
   -6.0740   19.3190  -34.4790 O   0  0  0  0  0  0  0  0  0  0  0  0
   -6.4800   17.4280  -33.0490 C   0  0  0  0  0  0  0  0  0  0  0  0
   -6.0770   17.0580  -31.6260 C   0  0  0  0  0  0  0  0  0  0  0  0
   -5.0800   16.9030  -32.7630 C   0  0  0  0  0  0  0  0  0  0  0  0
   -2.3860   24.3970  -29.0470 C   0  0  0  0  0  0  0  0  0  0  0  0
   -1.5340   23.4070  -28.2540 C   0  0  0  0  0  0  0  0  0  0  0  0
   -1.0630   19.9430  -27.9580 C   0  0  0  0  0  0  0  0  0  0  0  0
   -0.0643   18.0596  -26.4705 H   0  0  0  0  0  0  0  0  0  0  0  0
   -0.5487   16.8351  -27.6923 H   0  0  0  0  0  0  0  0  0  0  0  0
    1.1235   17.4911  -27.6923 H   0  0  0  0  0  0  0  0  0  0  0  0
    0.5271   17.8921  -30.1835 H   0  0  0  0  0  0  0  0  0  0  0  0
   -0.1784   19.6979  -31.7429 H   0  0  0  0  0  0  0  0  0  0  0  0
   -1.9403   22.8199  -30.6217 H   0  0  0  0  0  0  0  0  0  0  0  0
   -0.7387   22.2124  -31.8108 H   0  0  0  0  0  0  0  0  0  0  0  0
   -2.4119   21.5588  -31.8108 H   0  0  0  0  0  0  0  0  0  0  0  0
   -4.1013   21.6388  -29.0069 H   0  0  0  0  0  0  0  0  0  0  0  0
   -3.7964   21.2852  -27.2574 H   0  0  0  0  0  0  0  0  0  0  0  0
   -5.3244   23.2757  -27.7570 H   0  0  0  0  0  0  0  0  0  0  0  0
   -3.8858   23.5768  -26.6704 H   0  0  0  0  0  0  0  0  0  0  0  0
   -3.5927   22.9144  -31.6685 H   0  0  0  0  0  0  0  0  0  0  0  0
   -4.4218   20.8388  -32.8127 H   0  0  0  0  0  0  0  0  0  0  0  0
   -7.4055   23.2981  -29.6139 H   0  0  0  0  0  0  0  0  0  0  0  0
   -8.6436   20.6071  -29.8081 H   0  0  0  0  0  0  0  0  0  0  0  0
   -9.3548   21.5981  -31.0681 H   0  0  0  0  0  0  0  0  0  0  0  0
   -8.5062   18.7857  -31.2777 H   0  0  0  0  0  0  0  0  0  0  0  0
  -10.4666   19.8034  -32.3926 H   0  0  0  0  0  0  0  0  0  0  0  0
   -9.3558   20.6666  -33.5095 H   0  0  0  0  0  0  0  0  0  0  0  0
   -9.4130   18.8712  -33.5095 H   0  0  0  0  0  0  0  0  0  0  0  0
   -7.3166   17.1457  -33.7050 H   0  0  0  0  0  0  0  0  0  0  0  0
   -5.9336   17.8463  -30.8724 H   0  0  0  0  0  0  0  0  0  0  0  0
   -6.4829   16.3911  -30.8511 H   0  0  0  0  0  0  0  0  0  0  0  0
   -4.2149   17.5790  -32.8314 H   0  0  0  0  0  0  0  0  0  0  0  0
   -4.4658   16.0768  -33.1506 H   0  0  0  0  0  0  0  0  0  0  0  0
   -2.3998   24.0836  -30.1013 H   0  0  0  0  0  0  0  0  0  0  0  0
   -1.9372   25.3938  -28.9244 H   0  0  0  0  0  0  0  0  0  0  0  0
   -0.5295   23.3438  -28.6978 H   0  0  0  0  0  0  0  0  0  0  0  0
   -1.4414   23.7419  -27.2103 H   0  0  0  0  0  0  0  0  0  0  0  0
   -1.2944   20.0195  -26.8853 H   0  0  0  0  0  0  0  0  0  0  0  0
  1  2  1  0
  2  3  2  0
  3  4  1  0
  4  5  2  0
  5  6  1  0
  5  7  1  0
  7  8  1  0
  8  9  1  0
  9 10  1  0
 10 11  1  0
 11 12  1  0
 12 13  2  0
 12 14  2  0
 12 15  1  0
 15 16  2  0
 16 17  1  0
 17 18  2  0
 18 19  1  0
 19 20  2  0
 19 21  1  0
 21 22  1  0
 22 23  1  0
 22 24  1  0
 24 25  1  0
 25 26  2  0
 25 27  1  0
 27 28  1  0
 28 29  1  0
 11 30  1  0
 30 31  1  0
  7 32  2  0
 32  2  1  0
 31  8  1  0
 20 15  1  0
 29 27  1  0
 24 18  1  0
  1 33  1  0
  1 34  1  0
  1 35  1  0
  3 36  1  0
  4 37  1  0
  6 38  1  0
  6 39  1  0
  6 40  1  0
  9 41  1  0
  9 42  1  0
 10 43  1  0
 10 44  1  0
 16 45  1  0
 17 46  1  0
 20 47  1  0
 21 48  1  0
 21 49  1  0
 22 50  1  1
 23 51  1  0
 23 52  1  0
 23 53  1  0
 27 54  1  0
 28 55  1  0
 28 56  1  0
 29 57  1  0
 29 58  1  0
 30 59  1  0
 30 60  1  0
 31 61  1  0
 31 62  1  0
 32 63  1  0
M  END
>  <UniqueID>  (1) 
1

>  <SMILES>  (1) 
Cc1ccc(C)c(N2CCN(S(=O)(=O)c3ccc4c(c3)C[C@@H](C)N4C(=O)C3CC3)CC2)c1

>  <Energy>  (1) 
353.8832413171513

>  <Genealogy>  (1) 
Cc1ccc(C)c(N2CCN(S(=O)(=O)c3ccc4c(c3)C[C@@H](C)N4C(=O)C3CC3)CC2)c1 (chirality)
Cc1ccc(C)c(N2CCN(S(=O)(=O)c3ccc4c(c3)C[C@@H](C)N4C(=O)C3CC3)CC2)c1 (3D coordinates assigned)
Cc1ccc(C)c(N2CCN(S(=O)(=O)c3ccc4c(c3)C[C@@H](C)N4C(=O)C3CC3)CC2)c1 (nonaromatic ring conformer: 353.8832413171513 kcal/mol)

>  <smiles>  (1) 
Cc1ccc(C)c(N2CCN(S(=O)(=O)c3ccc4c(c3)CC(C)N4C(=O)C3CC3)CC2)c1

>  <score_type>  (1) 
oracle

>  <origin>  (1) 
adgpu

>  <m_score__min__energy>  (1) 
-11.039999999999999

>  <m_primary>  (1) 
energy

$$$$
1:0
     RDKit          3D

 66 70  0  0  1  0  0  0  0  0999 V2000
   -4.0150   22.2220  -32.6680 O   0  0  0  0  0  0  0  0  0  0  0  0
   -4.4920   21.3430  -31.8880 C   0  0  0  0  0  0  0  0  0  0  0  0
   -4.0570   21.1640  -30.5680 N   0  0  0  0  0  0  0  0  0  0  0  0
   -3.0620   21.8780  -29.8790 C   0  0  0  0  0  0  0  0  0  0  0  0
   -2.5210   21.2590  -28.7460 C   0  0  0  0  0  0  0  0  0  0  0  0
   -1.5850   21.8830  -27.9630 C   0  0  0  0  0  0  0  0  0  0  0  0
   -1.1740   23.1670  -28.3260 C   0  0  0  0  0  0  0  0  0  0  0  0
    0.0450   23.8710  -27.2300 S   0  0  0  0  0  0  0  0  0  0  0  0
    0.8800   22.8030  -26.6150 O   0  0  0  0  0  0  0  0  0  0  0  0
    0.9010   24.7360  -28.1400 O   0  0  0  0  0  0  0  0  0  0  0  0
   -0.7900   24.7710  -26.0520 N   0  0  0  0  0  0  0  0  0  0  0  0
   -0.2670   25.4250  -25.1260 C   0  0  0  0  0  0  0  0  0  0  0  0
    1.0890   25.5060  -24.9350 C   0  0  0  0  0  0  0  0  0  0  0  0
    1.5370   26.2500  -23.8770 C   0  0  0  0  0  0  0  0  0  0  0  0
    0.6870   26.8890  -23.0400 N   0  0  0  0  0  0  0  0  0  0  0  0
   -0.6280   26.7840  -23.2600 C   0  0  0  0  0  0  0  0  0  0  0  0
   -1.1160   26.0780  -24.2680 N   0  0  0  0  0  0  0  0  0  0  0  0
   -1.6630   23.8100  -29.4120 C   0  0  0  0  0  0  0  0  0  0  0  0
   -2.6150   23.1380  -30.1820 C   0  0  0  0  0  0  0  0  0  0  0  0
   -5.5630   20.4320  -32.3530 C   0  0  0  0  0  0  0  0  0  0  0  0
   -5.3070   19.2120  -32.9270 C   0  0  0  0  0  0  0  0  0  0  0  0
   -6.3470   18.3440  -33.3170 C   0  0  0  0  0  0  0  0  0  0  0  0
   -5.9130   16.8570  -34.0400 S   0  0  0  0  0  0  0  0  0  0  0  0
   -7.2000   16.1600  -34.5140 O   0  0  0  0  0  0  0  0  0  0  0  0
   -5.1610   17.1830  -35.3200 O   0  0  0  0  0  0  0  0  0  0  0  0
   -5.0430   15.7250  -33.1930 N   0  0  0  0  0  0  0  0  0  0  0  0
   -5.3490   14.3300  -33.4240 C   0  0  0  0  0  0  0  0  0  0  0  0
   -4.6090   13.7560  -32.1830 C   0  0  0  0  0  0  0  0  0  0  0  0
   -3.2530   14.4520  -32.4480 C   0  0  0  0  0  0  0  0  0  0  0  0
   -3.6220   15.7170  -33.2470 C   0  0  0  0  0  0  0  0  0  0  0  0
   -7.6130   18.8150  -33.0780 C   0  0  0  0  0  0  0  0  0  0  0  0
   -7.8940   20.0340  -32.5080 C   0  0  0  0  0  0  0  0  0  0  0  0
   -6.8460   20.8640  -32.1350 C   0  0  0  0  0  0  0  0  0  0  0  0
   -7.1830   22.1150  -31.5660 N   0  0  0  0  0  0  0  0  0  0  0  0
   -7.5190   22.4610  -30.1880 C   0  0  0  0  0  0  0  0  0  0  0  0
   -6.7670   23.7910  -30.0070 C   0  0  0  0  0  0  0  0  0  0  0  0
   -6.3030   24.2000  -31.3960 C   0  0  0  0  0  0  0  0  0  0  0  0
   -7.2690   23.4010  -32.2730 C   0  0  0  0  0  0  0  0  0  0  0  0
   -4.5330   20.3890  -29.9940 H   0  0  0  0  0  0  0  0  0  0  0  0
   -2.8555   20.2461  -28.4773 H   0  0  0  0  0  0  0  0  0  0  0  0
   -1.1694   21.3863  -27.0739 H   0  0  0  0  0  0  0  0  0  0  0  0
    1.7910   24.9916  -25.6078 H   0  0  0  0  0  0  0  0  0  0  0  0
    2.6200   26.3309  -23.7019 H   0  0  0  0  0  0  0  0  0  0  0  0
    1.0070   27.4630  -22.2280 H   0  0  0  0  0  0  0  0  0  0  0  0
   -1.3250   27.2997  -22.5831 H   0  0  0  0  0  0  0  0  0  0  0  0
   -1.3239   24.8221  -29.6778 H   0  0  0  0  0  0  0  0  0  0  0  0
   -3.0239   23.6418  -31.0703 H   0  0  0  0  0  0  0  0  0  0  0  0
   -4.2633   18.9035  -33.0869 H   0  0  0  0  0  0  0  0  0  0  0  0
   -6.4300   14.1279  -33.3983 H   0  0  0  0  0  0  0  0  0  0  0  0
   -5.0549   13.9202  -34.4015 H   0  0  0  0  0  0  0  0  0  0  0  0
   -5.0676   14.0714  -31.2342 H   0  0  0  0  0  0  0  0  0  0  0  0
   -4.5928   12.6612  -32.0771 H   0  0  0  0  0  0  0  0  0  0  0  0
   -2.7609   14.7192  -31.5012 H   0  0  0  0  0  0  0  0  0  0  0  0
   -2.5478   13.8045  -32.9897 H   0  0  0  0  0  0  0  0  0  0  0  0
   -3.2032   16.6185  -32.7760 H   0  0  0  0  0  0  0  0  0  0  0  0
   -3.2268   15.7125  -34.2735 H   0  0  0  0  0  0  0  0  0  0  0  0
   -8.4607   18.1739  -33.3616 H   0  0  0  0  0  0  0  0  0  0  0  0
   -8.9364   20.3477  -32.3495 H   0  0  0  0  0  0  0  0  0  0  0  0
   -8.6036   22.5933  -30.0610 H   0  0  0  0  0  0  0  0  0  0  0  0
   -7.2433   21.6892  -29.4543 H   0  0  0  0  0  0  0  0  0  0  0  0
   -7.4373   24.5554  -29.5870 H   0  0  0  0  0  0  0  0  0  0  0  0
   -5.9199   23.6847  -29.3133 H   0  0  0  0  0  0  0  0  0  0  0  0
   -6.4131   25.2827  -31.5563 H   0  0  0  0  0  0  0  0  0  0  0  0
   -5.2395   24.0020  -31.5956 H   0  0  0  0  0  0  0  0  0  0  0  0
   -8.2870   23.8173  -32.2557 H   0  0  0  0  0  0  0  0  0  0  0  0
   -7.0325   23.3750  -33.3470 H   0  0  0  0  0  0  0  0  0  0  0  0
  1  2  2  0
  2  3  1  0
  3  4  1  0
  4  5  2  0
  5  6  1  0
  6  7  2  0
  7  8  1  0
  8  9  2  0
  8 10  2  0
  8 11  1  0
 11 12  2  0
 12 13  1  0
 13 14  2  0
 14 15  1  0
 15 16  1  0
 16 17  2  0
  7 18  1  0
 18 19  2  0
  2 20  1  0
 20 21  2  0
 21 22  1  0
 22 23  1  0
 23 24  2  0
 23 25  2  0
 23 26  1  0
 26 27  1  0
 27 28  1  0
 28 29  1  0
 29 30  1  0
 22 31  2  0
 31 32  1  0
 32 33  2  0
 33 34  1  0
 34 35  1  0
 35 36  1  0
 36 37  1  0
 37 38  1  0
 19  4  1  0
 33 20  1  0
 38 34  1  0
 17 12  1  0
 30 26  1  0
  3 39  1  0
  5 40  1  0
  6 41  1  0
 13 42  1  0
 14 43  1  0
 15 44  1  0
 16 45  1  0
 18 46  1  0
 19 47  1  0
 21 48  1  0
 27 49  1  0
 27 50  1  0
 28 51  1  0
 28 52  1  0
 29 53  1  0
 29 54  1  0
 30 55  1  0
 30 56  1  0
 31 57  1  0
 32 58  1  0
 35 59  1  0
 35 60  1  0
 36 61  1  0
 36 62  1  0
 37 63  1  0
 37 64  1  0
 38 65  1  0
 38 66  1  0
M  END
>  <smiles>  (2) 
O=C(Nc1ccc(S(=O)(=O)N=c2cc[nH]cn2)cc1)c1cc(S(=O)(=O)N2CCCC2)ccc1N1CCCC1

>  <score_type>  (2) 
oracle

>  <origin>  (2) 
adgpu

>  <m_score__min__energy>  (2) 
-11.52

>  <m_primary>  (2) 
energy

$$$$
2:0
     RDKit          3D

 52 54  0  0  0  0  0  0  0  0999 V2000
   -3.3170   18.9230  -26.2900 C   0  0  0  0  0  0  0  0  0  0  0  0
   -1.9870   18.7610  -27.0180 C   0  0  0  0  0  0  0  0  0  0  0  0
   -1.8200   19.7990  -27.9830 O   0  0  0  0  0  0  0  0  0  0  0  0
   -0.9860   20.9090  -27.7940 C   0  0  0  0  0  0  0  0  0  0  0  0
    0.2590   20.7540  -27.6670 O   0  0  0  0  0  0  0  0  0  0  0  0
   -1.5610   22.2240  -27.7460 N   0  0  0  0  0  0  0  0  0  0  0  0
   -0.7110   23.4250  -27.6970 C   0  0  0  0  0  0  0  0  0  0  0  0
   -1.2480   24.5470  -28.6090 C   0  0  0  0  0  0  0  0  0  0  0  0
   -2.7940   24.5880  -28.7170 C   0  0  0  0  0  0  0  0  0  0  0  0
   -3.2950   24.1660  -30.0320 N   0  0  0  0  0  0  0  0  0  0  0  0
   -4.5250   24.5400  -30.6680 C   0  0  0  0  0  0  0  0  0  0  0  0
   -4.6700   25.6790  -31.1840 O   0  0  0  0  0  0  0  0  0  0  0  0
   -5.6250   23.5750  -30.7180 C   0  0  0  0  0  0  0  0  0  0  0  0
   -6.5870   23.3820  -29.7430 C   0  0  0  0  0  0  0  0  0  0  0  0
   -7.4340   22.4140  -30.2420 C   0  0  0  0  0  0  0  0  0  0  0  0
   -6.9350   22.0870  -31.4880 C   0  0  0  0  0  0  0  0  0  0  0  0
   -7.5640   21.1540  -32.4700 C   0  0  0  0  0  0  0  0  0  0  0  0
   -6.4050   19.8690  -32.9150 S   0  0  0  0  0  0  0  0  0  0  0  0
   -6.7740   18.5970  -32.2040 O   0  0  0  0  0  0  0  0  0  0  0  0
   -6.4770   19.6250  -34.3980 O   0  0  0  0  0  0  0  0  0  0  0  0
   -4.7660   20.3420  -32.4650 C   0  0  0  0  0  0  0  0  0  0  0  0
   -4.3250   20.2040  -31.1400 C   0  0  0  0  0  0  0  0  0  0  0  0
   -3.0180   20.5640  -30.7940 C   0  0  0  0  0  0  0  0  0  0  0  0
   -2.1460   21.0620  -31.7670 C   0  0  0  0  0  0  0  0  0  0  0  0
   -0.5220   21.5550  -31.3250 Cl  0  0  0  0  0  0  0  0  0  0  0  0
   -2.5750   21.1810  -33.0930 C   0  0  0  0  0  0  0  0  0  0  0  0
   -3.8810   20.8190  -33.4430 C   0  0  0  0  0  0  0  0  0  0  0  0
   -5.8550   22.7890  -31.7430 O   0  0  0  0  0  0  0  0  0  0  0  0
   -3.4850   23.7930  -27.5970 C   0  0  0  0  0  0  0  0  0  0  0  0
   -3.0160   22.3380  -27.5690 C   0  0  0  0  0  0  0  0  0  0  0  0
   -3.1453   18.9021  -25.2037 H   0  0  0  0  0  0  0  0  0  0  0  0
   -3.7740   19.8834  -26.5706 H   0  0  0  0  0  0  0  0  0  0  0  0
   -3.9912   18.1003  -26.5706 H   0  0  0  0  0  0  0  0  0  0  0  0
   -1.1657   18.8090  -26.2879 H   0  0  0  0  0  0  0  0  0  0  0  0
   -1.9776   17.7891  -27.5332 H   0  0  0  0  0  0  0  0  0  0  0  0
   -0.6765   23.7943  -26.6614 H   0  0  0  0  0  0  0  0  0  0  0  0
    0.2923   23.1474  -28.0525 H   0  0  0  0  0  0  0  0  0  0  0  0
   -0.9038   25.5121  -28.2089 H   0  0  0  0  0  0  0  0  0  0  0  0
   -0.8642   24.3456  -29.6200 H   0  0  0  0  0  0  0  0  0  0  0  0
   -3.0580   25.6487  -28.5932 H   0  0  0  0  0  0  0  0  0  0  0  0
   -6.6612   23.8937  -28.7721 H   0  0  0  0  0  0  0  0  0  0  0  0
   -8.3221   21.9906  -29.7500 H   0  0  0  0  0  0  0  0  0  0  0  0
   -8.4583   20.6987  -32.0195 H   0  0  0  0  0  0  0  0  0  0  0  0
   -7.8474   21.7150  -33.3727 H   0  0  0  0  0  0  0  0  0  0  0  0
   -5.0081   19.8121  -30.3720 H   0  0  0  0  0  0  0  0  0  0  0  0
   -2.6757   20.4550  -29.7543 H   0  0  0  0  0  0  0  0  0  0  0  0
   -1.8852   21.5595  -33.8617 H   0  0  0  0  0  0  0  0  0  0  0  0
   -4.2141   20.9088  -34.4875 H   0  0  0  0  0  0  0  0  0  0  0  0
   -3.2517   24.2621  -26.6298 H   0  0  0  0  0  0  0  0  0  0  0  0
   -4.5686   23.8020  -27.7863 H   0  0  0  0  0  0  0  0  0  0  0  0
   -3.2916   21.8948  -26.6007 H   0  0  0  0  0  0  0  0  0  0  0  0
   -3.5017   21.8087  -28.4020 H   0  0  0  0  0  0  0  0  0  0  0  0
  1  2  1  0
  2  3  1  0
  3  4  1  0
  4  5  2  0
  4  6  1  0
  6  7  1  0
  7  8  1  0
  8  9  1  0
  9 10  1  0
 10 11  1  0
 11 12  2  0
 11 13  1  0
 13 14  2  0
 14 15  1  0
 15 16  2  0
 16 17  1  0
 17 18  1  0
 18 19  2  0
 18 20  2  0
 18 21  1  0
 21 22  2  0
 22 23  1  0
 23 24  2  0
 24 25  1  0
 24 26  1  0
 26 27  2  0
 16 28  1  0
  9 29  1  0
 29 30  1  0
 30  6  1  0
 28 13  1  0
 27 21  1  0
  1 31  1  0
  1 32  1  0
  1 33  1  0
  2 34  1  0
  2 35  1  0
  7 36  1  0
  7 37  1  0
  8 38  1  0
  8 39  1  0
  9 40  1  0
 14 41  1  0
 15 42  1  0
 17 43  1  0
 17 44  1  0
 22 45  1  0
 23 46  1  0
 26 47  1  0
 27 48  1  0
 29 49  1  0
 29 50  1  0
 30 51  1  0
 30 52  1  0
M  CHG  1  10  -1
M  END
>  <UniqueID>  (3) 
2

>  <SMILES>  (3) 
CCOC(=O)N1CCC([N-]C(=O)c2ccc(CS(=O)(=O)c3ccc(Cl)cc3)o2)CC1

>  <Energy>  (3) 
70.96976064788124

>  <Genealogy>  (3) 
CCOC(=O)N1CCC([N-]C(=O)c2ccc(CS(=O)(=O)c3ccc(Cl)cc3)o2)CC1 (protonated)
CCOC(=O)N1CCC([N-]C(=O)c2ccc(CS(=O)(=O)c3ccc(Cl)cc3)o2)CC1 (3D coordinates assigned)
CCOC(=O)N1CCC([N-]C(=O)c2ccc(CS(=O)(=O)c3ccc(Cl)cc3)o2)CC1 (nonaromatic ring conformer: 70.96976064788124 kcal/mol)

>  <smiles>  (3) 
CCOC(=O)N1CCC(NC(=O)c2ccc(CS(=O)(=O)c3ccc(Cl)cc3)o2)CC1

>  <score_type>  (3) 
oracle

>  <origin>  (3) 
adgpu

>  <m_score__min__energy>  (3) 
-11.050000000000001

>  <m_primary>  (3) 
energy

$$$$
3:0
     RDKit          3D

 45 47  0  0  0  0  0  0  0  0999 V2000
   -0.8450   26.1250  -26.4920 C   0  0  0  0  0  0  0  0  0  0  0  0
    0.3470   25.5390  -27.2420 C   0  0  0  0  0  0  0  0  0  0  0  0
   -0.0850   24.5980  -28.2250 O   0  0  0  0  0  0  0  0  0  0  0  0
   -1.3460   23.9740  -28.2690 C   0  0  0  0  0  0  0  0  0  0  0  0
   -2.4320   24.5290  -28.9750 C   0  0  0  0  0  0  0  0  0  0  0  0
   -3.6720   23.8780  -29.0010 C   0  0  0  0  0  0  0  0  0  0  0  0
   -5.0060   24.5900  -29.9040 S   0  0  0  0  0  0  0  0  0  0  0  0
   -5.9530   25.3000  -28.9770 O   0  0  0  0  0  0  0  0  0  0  0  0
   -4.4660   25.5920  -30.8870 O   0  0  0  0  0  0  0  0  0  0  0  0
   -5.8680   23.3130  -30.7510 C   0  0  0  0  0  0  0  0  0  0  0  0
   -7.2570   23.1340  -30.5350 C   0  0  0  0  0  0  0  0  0  0  0  0
   -7.9560   22.0940  -31.1760 C   0  0  0  0  0  0  0  0  0  0  0  0
   -7.2340   21.2560  -32.0260 C   0  0  0  0  0  0  0  0  0  0  0  0
   -5.8890   21.4220  -32.2330 C   0  0  0  0  0  0  0  0  0  0  0  0
   -5.1680   22.4380  -31.6070 C   0  0  0  0  0  0  0  0  0  0  0  0
   -5.4400   20.4490  -33.0520 N   0  0  0  0  0  0  0  0  0  0  0  0
   -4.0600   20.1780  -33.4460 C   0  0  0  0  0  0  0  0  0  0  0  0
   -6.5400   19.6950  -33.3040 C   0  0  0  0  0  0  0  0  0  0  0  0
   -6.5170   18.6420  -33.9990 O   0  0  0  0  0  0  0  0  0  0  0  0
   -7.6610   20.1770  -32.7130 N   0  0  0  0  0  0  0  0  0  0  0  0
   -8.9920   19.5730  -32.6930 C   0  0  0  0  0  0  0  0  0  0  0  0
   -3.8330   22.6640  -28.3260 C   0  0  0  0  0  0  0  0  0  0  0  0
   -2.7630   22.1050  -27.6250 C   0  0  0  0  0  0  0  0  0  0  0  0
   -1.5170   22.7510  -27.5930 C   0  0  0  0  0  0  0  0  0  0  0  0
   -0.3730   22.1410  -26.8350 C   0  0  0  0  0  0  0  0  0  0  0  0
   -0.6739   26.0409  -25.4086 H   0  0  0  0  0  0  0  0  0  0  0  0
   -0.9641   27.1844  -26.7633 H   0  0  0  0  0  0  0  0  0  0  0  0
   -1.7566   25.5723  -26.7633 H   0  0  0  0  0  0  0  0  0  0  0  0
    0.8961   26.3527  -27.7385 H   0  0  0  0  0  0  0  0  0  0  0  0
    0.9975   25.0221  -26.5211 H   0  0  0  0  0  0  0  0  0  0  0  0
   -2.3049   25.4816  -29.5102 H   0  0  0  0  0  0  0  0  0  0  0  0
   -7.7947   23.8152  -29.8591 H   0  0  0  0  0  0  0  0  0  0  0  0
   -9.0338   21.9472  -31.0124 H   0  0  0  0  0  0  0  0  0  0  0  0
   -4.0871   22.5534  -31.7756 H   0  0  0  0  0  0  0  0  0  0  0  0
   -3.4390   20.0561  -32.5463 H   0  0  0  0  0  0  0  0  0  0  0  0
   -4.0239   19.2556  -34.0442 H   0  0  0  0  0  0  0  0  0  0  0  0
   -3.6777   21.0182  -34.0442 H   0  0  0  0  0  0  0  0  0  0  0  0
   -9.3129   19.4274  -31.6510 H   0  0  0  0  0  0  0  0  0  0  0  0
   -9.7035   20.2364  -33.2065 H   0  0  0  0  0  0  0  0  0  0  0  0
   -8.9612   18.6007  -33.2065 H   0  0  0  0  0  0  0  0  0  0  0  0
   -4.8045   22.1486  -28.3474 H   0  0  0  0  0  0  0  0  0  0  0  0
   -2.8972   21.1512  -27.0937 H   0  0  0  0  0  0  0  0  0  0  0  0
   -0.5556   22.2384  -25.7546 H   0  0  0  0  0  0  0  0  0  0  0  0
   -0.2853   21.0764  -27.0976 H   0  0  0  0  0  0  0  0  0  0  0  0
    0.5598   22.6614  -27.0976 H   0  0  0  0  0  0  0  0  0  0  0  0
  1  2  1  0
  2  3  1  0
  3  4  1  0
  4  5  2  0
  5  6  1  0
  6  7  1  0
  7  8  2  0
  7  9  2  0
  7 10  1  0
 10 11  2  0
 11 12  1  0
 12 13  2  0
 13 14  1  0
 14 15  2  0
 14 16  1  0
 16 17  1  0
 16 18  1  0
 18 19  2  0
 18 20  1  0
 20 21  1  0
  6 22  2  0
 22 23  1  0
 23 24  2  0
 24 25  1  0
 24  4  1  0
 15 10  1  0
 20 13  1  0
  1 26  1  0
  1 27  1  0
  1 28  1  0
  2 29  1  0
  2 30  1  0
  5 31  1  0
 11 32  1  0
 12 33  1  0
 15 34  1  0
 17 35  1  0
 17 36  1  0
 17 37  1  0
 21 38  1  0
 21 39  1  0
 21 40  1  0
 22 41  1  0
 23 42  1  0
 25 43  1  0
 25 44  1  0
 25 45  1  0
M  END
>  <UniqueID>  (4) 
3

>  <SMILES>  (4) 
CCOc1cc(S(=O)(=O)c2ccc3c(c2)n(C)c(=O)n3C)ccc1C

>  <Energy>  (4) 
86.40566458364957

>  <Genealogy>  (4) 
CCOc1cc(S(=O)(=O)c2ccc3c(c2)n(C)c(=O)n3C)ccc1C (3D coordinates assigned)
CCOc1cc(S(=O)(=O)c2ccc3c(c2)n(C)c(=O)n3C)ccc1C (optimized conformer: 86.40566458364957 kcal/mol)

>  <smiles>  (4) 
CCOc1cc(S(=O)(=O)c2ccc3c(c2)n(C)c(=O)n3C)ccc1C

>  <score_type>  (4) 
oracle

>  <origin>  (4) 
adgpu

>  <m_score__min__energy>  (4) 
-9.1799999999999997

>  <m_primary>  (4) 
energy

$$$$
4:0
     RDKit          3D

 53 56  0  0  0  0  0  0  0  0999 V2000
   -9.1050   23.5160  -32.0400 C   0  0  0  0  0  0  0  0  0  0  0  0
   -8.4270   22.1750  -32.0850 C   0  0  0  0  0  0  0  0  0  0  0  0
   -9.1900   20.9980  -32.0160 C   0  0  0  0  0  0  0  0  0  0  0  0
   -8.5690   19.7480  -32.0510 C   0  0  0  0  0  0  0  0  0  0  0  0
   -7.1760   19.6540  -32.1500 C   0  0  0  0  0  0  0  0  0  0  0  0
   -6.3820   18.0740  -32.1460 S   0  0  0  0  0  0  0  0  0  0  0  0
   -7.4140   17.0050  -32.3800 O   0  0  0  0  0  0  0  0  0  0  0  0
   -5.7690   17.8400  -30.7930 O   0  0  0  0  0  0  0  0  0  0  0  0
   -5.1400   17.9430  -33.3680 N   0  0  0  0  0  0  0  0  0  0  0  0
   -4.4860   16.6310  -33.3660 C   0  0  0  0  0  0  0  0  0  0  0  0
   -4.0030   16.3750  -34.7900 C   0  0  0  0  0  0  0  0  0  0  0  0
   -4.6960   17.4210  -35.6530 C   0  0  0  0  0  0  0  0  0  0  0  0
   -5.6670   18.1240  -34.7210 C   0  0  0  0  0  0  0  0  0  0  0  0
   -6.4100   20.8230  -32.2170 C   0  0  0  0  0  0  0  0  0  0  0  0
   -7.0260   22.0860  -32.2080 C   0  0  0  0  0  0  0  0  0  0  0  0
   -6.2340   23.2830  -32.2530 N   0  0  0  0  0  0  0  0  0  0  0  0
   -5.6970   23.9360  -31.1000 C   0  0  0  0  0  0  0  0  0  0  0  0
   -4.8440   24.8580  -31.2290 O   0  0  0  0  0  0  0  0  0  0  0  0
   -6.1670   23.5450  -29.7340 C   0  0  0  0  0  0  0  0  0  0  0  0
   -5.1450   22.8280  -29.0420 O   0  0  0  0  0  0  0  0  0  0  0  0
   -3.8870   22.4960  -29.5750 C   0  0  0  0  0  0  0  0  0  0  0  0
   -2.6840   23.0070  -29.0520 C   0  0  0  0  0  0  0  0  0  0  0  0
   -1.4600   22.6190  -29.5990 C   0  0  0  0  0  0  0  0  0  0  0  0
   -1.4200   21.7240  -30.6700 C   0  0  0  0  0  0  0  0  0  0  0  0
   -2.6120   21.2080  -31.2120 C   0  0  0  0  0  0  0  0  0  0  0  0
   -2.5890   20.2740  -32.3100 N   0  0  0  0  0  0  0  0  0  0  0  0
   -1.9870   19.0730  -32.3890 C   0  0  0  0  0  0  0  0  0  0  0  0
   -2.2410   18.5130  -33.5860 N   0  0  0  0  0  0  0  0  0  0  0  0
   -3.0010   19.3900  -34.2280 N   0  0  0  0  0  0  0  0  0  0  0  0
   -3.2150   20.4490  -33.4620 N   0  0  0  0  0  0  0  0  0  0  0  0
   -3.8400   21.6120  -30.6590 C   0  0  0  0  0  0  0  0  0  0  0  0
   -9.2564   23.8154  -30.9924 H   0  0  0  0  0  0  0  0  0  0  0  0
   -8.4758   24.2622  -32.5473 H   0  0  0  0  0  0  0  0  0  0  0  0
  -10.0789   23.4517  -32.5473 H   0  0  0  0  0  0  0  0  0  0  0  0
  -10.2851   21.0614  -31.9338 H   0  0  0  0  0  0  0  0  0  0  0  0
   -9.1773   18.8329  -32.0005 H   0  0  0  0  0  0  0  0  0  0  0  0
   -4.4210   18.6820  -33.1830 H   0  0  0  0  0  0  0  0  0  0  0  0
   -3.6326   16.6347  -32.6719 H   0  0  0  0  0  0  0  0  0  0  0  0
   -5.1819   15.8445  -33.0387 H   0  0  0  0  0  0  0  0  0  0  0  0
   -2.9107   16.4895  -34.8512 H   0  0  0  0  0  0  0  0  0  0  0  0
   -4.2389   15.3531  -35.1218 H   0  0  0  0  0  0  0  0  0  0  0  0
   -3.9633   18.1350  -36.0571 H   0  0  0  0  0  0  0  0  0  0  0  0
   -5.2073   16.9697  -36.5161 H   0  0  0  0  0  0  0  0  0  0  0  0
   -5.7245   19.1945  -34.9675 H   0  0  0  0  0  0  0  0  0  0  0  0
   -6.6819   17.7100  -34.8139 H   0  0  0  0  0  0  0  0  0  0  0  0
   -5.3139   20.7526  -32.2774 H   0  0  0  0  0  0  0  0  0  0  0  0
   -6.4222   24.4514  -29.1654 H   0  0  0  0  0  0  0  0  0  0  0  0
   -7.0517   22.8988  -29.8326 H   0  0  0  0  0  0  0  0  0  0  0  0
   -2.7088   23.7141  -28.2098 H   0  0  0  0  0  0  0  0  0  0  0  0
   -0.5231   23.0199  -29.1848 H   0  0  0  0  0  0  0  0  0  0  0  0
   -0.4509   21.4203  -31.0927 H   0  0  0  0  0  0  0  0  0  0  0  0
   -1.3784   18.6173  -31.5941 H   0  0  0  0  0  0  0  0  0  0  0  0
   -4.7784   21.2273  -31.0850 H   0  0  0  0  0  0  0  0  0  0  0  0
  1  2  1  0
  2  3  2  0
  3  4  1  0
  4  5  2  0
  5  6  1  0
  6  7  2  0
  6  8  2  0
  6  9  1  0
  9 10  1  0
 10 11  1  0
 11 12  1  0
 12 13  1  0
  5 14  1  0
 14 15  2  0
 15 16  1  0
 16 17  1  0
 17 18  2  0
 17 19  1  0
 19 20  1  0
 20 21  1  0
 21 22  2  0
 22 23  1  0
 23 24  2  0
 24 25  1  0
 25 26  1  0
 26 27  1  0
 27 28  2  0
 28 29  1  0
 29 30  2  0
 25 31  2  0
 15  2  1  0
 31 21  1  0
 13  9  1  0
 30 26  1  0
  1 32  1  0
  1 33  1  0
  1 34  1  0
  3 35  1  0
  4 36  1  0
  9 37  1  0
 10 38  1  0
 10 39  1  0
 11 40  1  0
 11 41  1  0
 12 42  1  0
 12 43  1  0
 13 44  1  0
 13 45  1  0
 14 46  1  0
 19 47  1  0
 19 48  1  0
 22 49  1  0
 23 50  1  0
 24 51  1  0
 27 52  1  0
 31 53  1  0
M  CHG  2   9   1  16  -1
M  END
>  <UniqueID>  (5) 
4

>  <SMILES>  (5) 
Cc1ccc(S(=O)(=O)[NH+]2CCCC2)cc1[N-]C(=O)COc1cccc(-n2cnnn2)c1

>  <Energy>  (5) 
100.76619443228029

>  <Genealogy>  (5) 
Cc1ccc(S(=O)(=O)[NH+]2CCCC2)cc1[N-]C(=O)COc1cccc(-n2cnnn2)c1 (protonated)
Cc1ccc(S(=O)(=O)[NH+]2CCCC2)cc1[N-]C(=O)COc1cccc(-n2cnnn2)c1 (3D coordinates assigned)
Cc1ccc(S(=O)(=O)[NH+]2CCCC2)cc1[N-]C(=O)COc1cccc(-n2cnnn2)c1 (nonaromatic ring conformer: 100.76619443228029 kcal/mol)

>  <smiles>  (5) 
Cc1ccc(S(=O)(=O)N2CCCC2)cc1NC(=O)COc1cccc(-n2cnnn2)c1

>  <score_type>  (5) 
oracle

>  <origin>  (5) 
adgpu

>  <m_score__min__energy>  (5) 
-11.369999999999999

>  <m_primary>  (5) 
energy

$$$$
5:0
     RDKit          3D

 31 33  0  0  0  0  0  0  0  0999 V2000
   -5.8940   25.9390  -30.7860 O   0  0  0  0  0  0  0  0  0  0  0  0
   -5.0010   25.0530  -30.8610 C   0  0  0  0  0  0  0  0  0  0  0  0
   -3.6850   25.2930  -30.3460 N   0  0  0  0  0  0  0  0  0  0  0  0
   -3.0180   24.5450  -29.3170 C   0  0  0  0  0  0  0  0  0  0  0  0
   -3.5870   23.3880  -28.7520 C   0  0  0  0  0  0  0  0  0  0  0  0
   -2.9180   22.6990  -27.7340 C   0  0  0  0  0  0  0  0  0  0  0  0
   -1.6890   23.1650  -27.2640 C   0  0  0  0  0  0  0  0  0  0  0  0
   -1.1290   24.3260  -27.8030 C   0  0  0  0  0  0  0  0  0  0  0  0
   -1.7930   25.0200  -28.8200 C   0  0  0  0  0  0  0  0  0  0  0  0
   -1.2280   26.1780  -29.3420 O   0  0  0  0  0  0  0  0  0  0  0  0
   -5.3310   23.7420  -31.4330 C   0  0  0  0  0  0  0  0  0  0  0  0
   -6.4860   23.0220  -31.2070 C   0  0  0  0  0  0  0  0  0  0  0  0
   -6.3080   21.8760  -31.9620 C   0  0  0  0  0  0  0  0  0  0  0  0
   -7.2390   20.7330  -32.1020 C   0  0  0  0  0  0  0  0  0  0  0  0
   -8.6260   20.9540  -32.0350 C   0  0  0  0  0  0  0  0  0  0  0  0
   -9.5190   19.8870  -32.1660 C   0  0  0  0  0  0  0  0  0  0  0  0
   -9.0400   18.5900  -32.3630 C   0  0  0  0  0  0  0  0  0  0  0  0
   -7.6640   18.3580  -32.4310 C   0  0  0  0  0  0  0  0  0  0  0  0
   -7.1880   17.0660  -32.6270 O   0  0  0  0  0  0  0  0  0  0  0  0
   -6.7650   19.4220  -32.3020 C   0  0  0  0  0  0  0  0  0  0  0  0
   -5.1410   21.9530  -32.5640 O   0  0  0  0  0  0  0  0  0  0  0  0
   -4.5260   23.0610  -32.2700 N   0  0  0  0  0  0  0  0  0  0  0  0
   -4.5607   23.0242  -29.1119 H   0  0  0  0  0  0  0  0  0  0  0  0
   -3.3613   21.7889  -27.3036 H   0  0  0  0  0  0  0  0  0  0  0  0
   -1.1612   22.6179  -26.4689 H   0  0  0  0  0  0  0  0  0  0  0  0
   -0.1636   24.6953  -27.4267 H   0  0  0  0  0  0  0  0  0  0  0  0
   -7.3449   23.2944  -30.5761 H   0  0  0  0  0  0  0  0  0  0  0  0
   -9.0104   21.9727  -31.8786 H   0  0  0  0  0  0  0  0  0  0  0  0
  -10.6025   20.0693  -32.1138 H   0  0  0  0  0  0  0  0  0  0  0  0
   -9.7453   17.7520  -32.4645 H   0  0  0  0  0  0  0  0  0  0  0  0
   -5.6826   19.2338  -32.3570 H   0  0  0  0  0  0  0  0  0  0  0  0
  1  2  2  0
  2  3  1  0
  3  4  1  0
  4  5  2  0
  5  6  1  0
  6  7  2  0
  7  8  1  0
  8  9  2  0
  9 10  1  0
  2 11  1  0
 11 12  1  0
 12 13  2  0
 13 14  1  0
 14 15  2  0
 15 16  1  0
 16 17  2  0
 17 18  1  0
 18 19  1  0
 18 20  2  0
 13 21  1  0
 21 22  1  0
  9  4  1  0
 22 11  2  0
 20 14  1  0
  5 23  1  0
  6 24  1  0
  7 25  1  0
  8 26  1  0
 12 27  1  0
 15 28  1  0
 16 29  1  0
 17 30  1  0
 20 31  1  0
M  CHG  3   3  -1  10  -1  19  -1
M  END
>  <UniqueID>  (6) 
5

>  <SMILES>  (6) 
O=C([N-]c1ccccc1[O-])c1cc(-c2cccc([O-])c2)on1

>  <Energy>  (6) 
68.18903171046902

>  <Genealogy>  (6) 
O=C([N-]c1ccccc1[O-])c1cc(-c2cccc([O-])c2)on1 (protonated)
O=C([N-]c1ccccc1[O-])c1cc(-c2cccc([O-])c2)on1 (3D coordinates assigned)
O=C([N-]c1ccccc1[O-])c1cc(-c2cccc([O-])c2)on1 (optimized conformer: 68.18903171046902 kcal/mol)

>  <smiles>  (6) 
O=C(Nc1ccccc1O)c1cc(-c2cccc(O)c2)on1

>  <score_type>  (6) 
oracle

>  <origin>  (6) 
adgpu

>  <m_score__min__energy>  (6) 
-13.109999999999999

>  <m_primary>  (6) 
energy

$$$$
6:0
     RDKit          3D

 46 49  0  0  0  0  0  0  0  0999 V2000
   -2.1460   14.3490  -37.0800 C   0  0  0  0  0  0  0  0  0  0  0  0
   -1.7840   14.3420  -35.6520 N   0  0  0  0  0  0  0  0  0  0  0  0
   -1.0530   15.5580  -35.2450 C   0  0  0  0  0  0  0  0  0  0  0  0
   -1.9130   16.8250  -35.3550 C   0  0  0  0  0  0  0  0  0  0  0  0
   -3.3050   16.6210  -34.8150 C   0  0  0  0  0  0  0  0  0  0  0  0
   -4.1220   17.7410  -34.5970 C   0  0  0  0  0  0  0  0  0  0  0  0
   -5.4500   17.5860  -34.1610 C   0  0  0  0  0  0  0  0  0  0  0  0
   -6.3110   18.7130  -33.9370 N   0  0  0  0  0  0  0  0  0  0  0  0
   -7.2040   19.0210  -32.4820 S   0  0  0  0  0  0  0  0  0  0  0  0
   -6.8840   17.9580  -31.4680 O   0  0  0  0  0  0  0  0  0  0  0  0
   -8.6740   18.9720  -32.7850 O   0  0  0  0  0  0  0  0  0  0  0  0
   -6.8040   20.6220  -31.8670 C   0  0  0  0  0  0  0  0  0  0  0  0
   -7.8340   21.4480  -31.3590 C   0  0  0  0  0  0  0  0  0  0  0  0
   -7.5480   22.7380  -30.8790 C   0  0  0  0  0  0  0  0  0  0  0  0
   -6.2220   23.1740  -30.9270 C   0  0  0  0  0  0  0  0  0  0  0  0
   -5.2210   22.3710  -31.4170 C   0  0  0  0  0  0  0  0  0  0  0  0
   -5.4730   21.0880  -31.8950 C   0  0  0  0  0  0  0  0  0  0  0  0
   -4.0330   23.0650  -31.3160 C   0  0  0  0  0  0  0  0  0  0  0  0
   -4.3880   24.2830  -30.7510 C   0  0  0  0  0  0  0  0  0  0  0  0
   -3.4890   25.2990  -30.4430 O   0  0  0  0  0  0  0  0  0  0  0  0
   -5.7210   24.3590  -30.5250 N   0  0  0  0  0  0  0  0  0  0  0  0
   -6.4430   25.4570  -29.8880 C   0  0  0  0  0  0  0  0  0  0  0  0
   -5.9560   16.2970  -33.9420 C   0  0  0  0  0  0  0  0  0  0  0  0
   -7.2690   16.1360  -33.4990 O   0  0  0  0  0  0  0  0  0  0  0  0
   -5.1450   15.1770  -34.1650 C   0  0  0  0  0  0  0  0  0  0  0  0
   -3.8260   15.3280  -34.6190 C   0  0  0  0  0  0  0  0  0  0  0  0
   -2.9560   14.1040  -34.7870 C   0  0  0  0  0  0  0  0  0  0  0  0
   -3.2412   14.3702  -37.1805 H   0  0  0  0  0  0  0  0  0  0  0  0
   -1.7162   15.2390  -37.5629 H   0  0  0  0  0  0  0  0  0  0  0  0
   -1.7509   13.4430  -37.5629 H   0  0  0  0  0  0  0  0  0  0  0  0
   -0.7284   15.4415  -34.2005 H   0  0  0  0  0  0  0  0  0  0  0  0
   -0.1957   15.6758  -35.9240 H   0  0  0  0  0  0  0  0  0  0  0  0
   -1.4279   17.6321  -34.7864 H   0  0  0  0  0  0  0  0  0  0  0  0
   -2.0002   17.0806  -36.4213 H   0  0  0  0  0  0  0  0  0  0  0  0
   -3.7196   18.7502  -34.7689 H   0  0  0  0  0  0  0  0  0  0  0  0
   -8.8694   21.0771  -31.3394 H   0  0  0  0  0  0  0  0  0  0  0  0
   -8.3434   23.3836  -30.4783 H   0  0  0  0  0  0  0  0  0  0  0  0
   -4.6594   20.4572  -32.2825 H   0  0  0  0  0  0  0  0  0  0  0  0
   -3.0294   22.7289  -31.6158 H   0  0  0  0  0  0  0  0  0  0  0  0
   -6.3757   25.3547  -28.7948 H   0  0  0  0  0  0  0  0  0  0  0  0
   -5.9981   26.4151  -30.1947 H   0  0  0  0  0  0  0  0  0  0  0  0
   -7.4990   25.4282  -30.1947 H   0  0  0  0  0  0  0  0  0  0  0  0
   -7.8070   16.9160  -33.1390 H   0  0  0  0  0  0  0  0  0  0  0  0
   -5.5461   14.1691  -33.9824 H   0  0  0  0  0  0  0  0  0  0  0  0
   -2.6008   13.7879  -33.7951 H   0  0  0  0  0  0  0  0  0  0  0  0
   -3.5691   13.3292  -35.2706 H   0  0  0  0  0  0  0  0  0  0  0  0
  1  2  1  0
  2  3  1  0
  3  4  1  0
  4  5  1  0
  5  6  2  0
  6  7  1  0
  7  8  1  0
  8  9  1  0
  9 10  2  0
  9 11  2  0
  9 12  1  0
 12 13  2  0
 13 14  1  0
 14 15  2  0
 15 16  1  0
 16 17  2  0
 16 18  1  0
 18 19  2  0
 19 20  1  0
 19 21  1  0
 21 22  1  0
  7 23  2  0
 23 24  1  0
 23 25  1  0
 25 26  2  0
 26 27  1  0
 27  2  1  0
 26  5  1  0
 17 12  1  0
 21 15  1  0
  1 28  1  0
  1 29  1  0
  1 30  1  0
  3 31  1  0
  3 32  1  0
  4 33  1  0
  4 34  1  0
  6 35  1  0
 13 36  1  0
 14 37  1  0
 17 38  1  0
 18 39  1  0
 22 40  1  0
 22 41  1  0
 22 42  1  0
 24 43  1  0
 25 44  1  0
 27 45  1  0
 27 46  1  0
M  CHG  2   8  -1  20  -1
M  END
>  <UniqueID>  (7) 
6

>  <SMILES>  (7) 
CN1CCc2cc([N-]S(=O)(=O)c3ccc4c(c3)cc([O-])n4C)c(O)cc2C1

>  <Energy>  (7) 
91.15004633035605

>  <Genealogy>  (7) 
CN1CCc2cc([N-]S(=O)(=O)c3ccc4c(c3)cc([O-])n4C)c(O)cc2C1 (protonated)
CN1CCc2cc([N-]S(=O)(=O)c3ccc4c(c3)cc([O-])n4C)c(O)cc2C1 (3D coordinates assigned)
CN1CCc2cc([N-]S(=O)(=O)c3ccc4c(c3)cc([O-])n4C)c(O)cc2C1 (nonaromatic ring conformer: 91.15004633035605 kcal/mol)

>  <smiles>  (7) 
CN1CCc2cc(NS(=O)(=O)c3ccc4c(c3)cc(O)n4C)c(O)cc2C1

>  <score_type>  (7) 
oracle

>  <origin>  (7) 
adgpu

>  <m_score__min__energy>  (7) 
-11.5

>  <m_primary>  (7) 
energy

$$$$
7:0
     RDKit          3D

 73 78  0  0  0  0  0  0  0  0999 V2000
    1.5520   22.8540  -34.9430 O   0  0  0  0  0  0  0  0  0  0  0  0
    0.3290   22.5460  -34.9390 C   0  0  0  0  0  0  0  0  0  0  0  0
   -0.6160   23.3370  -35.6860 N   0  0  0  0  0  0  0  0  0  0  0  0
   -0.2420   24.4860  -36.4670 C   0  0  0  0  0  0  0  0  0  0  0  0
    1.1070   24.7580  -36.7520 C   0  0  0  0  0  0  0  0  0  0  0  0
    1.4630   25.8820  -37.5110 C   0  0  0  0  0  0  0  0  0  0  0  0
    3.1640   26.2280  -37.8450 S   0  0  0  0  0  0  0  0  0  0  0  0
    3.9020   24.9300  -38.0200 O   0  0  0  0  0  0  0  0  0  0  0  0
    3.2660   26.9980  -39.1320 O   0  0  0  0  0  0  0  0  0  0  0  0
    3.9300   27.1500  -36.5730 N   0  0  0  0  0  0  0  0  0  0  0  0
    4.8400   26.3330  -35.7750 C   0  0  0  0  0  0  0  0  0  0  0  0
    4.9440   27.0120  -34.4180 C   0  0  0  0  0  0  0  0  0  0  0  0
    3.6980   27.8780  -34.3070 C   0  0  0  0  0  0  0  0  0  0  0  0
    2.9590   27.6920  -35.6240 C   0  0  0  0  0  0  0  0  0  0  0  0
    0.4590   26.7150  -38.0240 C   0  0  0  0  0  0  0  0  0  0  0  0
   -0.8850   26.4320  -37.7730 C   0  0  0  0  0  0  0  0  0  0  0  0
   -1.2380   25.3220  -37.0010 C   0  0  0  0  0  0  0  0  0  0  0  0
   -2.5820   25.0600  -36.7560 O   0  0  0  0  0  0  0  0  0  0  0  0
   -0.1110   21.3750  -34.1440 C   0  0  0  0  0  0  0  0  0  0  0  0
    0.3500   21.2210  -32.8090 C   0  0  0  0  0  0  0  0  0  0  0  0
   -0.0750   20.1390  -32.0190 C   0  0  0  0  0  0  0  0  0  0  0  0
   -0.9620   19.2260  -32.5800 C   0  0  0  0  0  0  0  0  0  0  0  0
   -1.4180   19.3660  -33.8710 C   0  0  0  0  0  0  0  0  0  0  0  0
   -1.0190   20.4300  -34.6760 C   0  0  0  0  0  0  0  0  0  0  0  0
   -2.3550   18.2780  -34.1300 C   0  0  0  0  0  0  0  0  0  0  0  0
   -3.0110   18.1190  -35.1930 O   0  0  0  0  0  0  0  0  0  0  0  0
   -2.4730   17.4430  -32.9710 N   0  0  0  0  0  0  0  0  0  0  0  0
   -3.3510   16.3200  -32.7870 C   0  0  0  0  0  0  0  0  0  0  0  0
   -4.6470   16.3300  -33.3300 C   0  0  0  0  0  0  0  0  0  0  0  0
   -5.4900   15.2270  -33.1660 C   0  0  0  0  0  0  0  0  0  0  0  0
   -5.0540   14.1030  -32.4540 C   0  0  0  0  0  0  0  0  0  0  0  0
   -6.1140   12.7080  -32.2840 S   0  0  0  0  0  0  0  0  0  0  0  0
   -5.3280   11.4710  -32.6200 O   0  0  0  0  0  0  0  0  0  0  0  0
   -6.6010   12.6130  -30.8640 O   0  0  0  0  0  0  0  0  0  0  0  0
   -7.4760   12.8780  -33.3730 N   0  0  0  0  0  0  0  0  0  0  0  0
   -7.5270   11.7830  -34.3750 C   0  0  0  0  0  0  0  0  0  0  0  0
   -7.3610   12.2540  -35.8310 C   0  0  0  0  0  0  0  0  0  0  0  0
   -6.2430   13.2890  -35.9390 C   0  0  0  0  0  0  0  0  0  0  0  0
   -6.4840   14.4980  -35.0170 C   0  0  0  0  0  0  0  0  0  0  0  0
   -7.5570   14.2360  -33.9440 C   0  0  0  0  0  0  0  0  0  0  0  0
   -3.7650   14.0890  -31.9070 C   0  0  0  0  0  0  0  0  0  0  0  0
   -2.9190   15.1910  -32.0700 C   0  0  0  0  0  0  0  0  0  0  0  0
   -1.5980   18.0440  -32.0080 C   0  0  0  0  0  0  0  0  0  0  0  0
   -1.3860   17.5880  -30.8530 O   0  0  0  0  0  0  0  0  0  0  0  0
   -1.6330   23.1140  -35.6210 H   0  0  0  0  0  0  0  0  0  0  0  0
    1.8904   24.0833  -36.3764 H   0  0  0  0  0  0  0  0  0  0  0  0
    4.4384   25.3152  -35.6619 H   0  0  0  0  0  0  0  0  0  0  0  0
    5.8257   26.2466  -36.2556 H   0  0  0  0  0  0  0  0  0  0  0  0
    4.9658   26.2629  -33.6128 H   0  0  0  0  0  0  0  0  0  0  0  0
    5.8657   27.6051  -34.3253 H   0  0  0  0  0  0  0  0  0  0  0  0
    3.0728   27.5469  -33.4646 H   0  0  0  0  0  0  0  0  0  0  0  0
    3.9480   28.9334  -34.1233 H   0  0  0  0  0  0  0  0  0  0  0  0
    2.1222   26.9899  -35.4941 H   0  0  0  0  0  0  0  0  0  0  0  0
    2.5412   28.6441  -35.9831 H   0  0  0  0  0  0  0  0  0  0  0  0
    0.7309   27.5944  -38.6262 H   0  0  0  0  0  0  0  0  0  0  0  0
   -1.6687   27.0851  -38.1844 H   0  0  0  0  0  0  0  0  0  0  0  0
    1.0490   21.9586  -32.3879 H   0  0  0  0  0  0  0  0  0  0  0  0
    0.2837   20.0176  -30.9862 H   0  0  0  0  0  0  0  0  0  0  0  0
   -1.4013   20.5332  -35.7023 H   0  0  0  0  0  0  0  0  0  0  0  0
   -5.0000   17.2104  -33.8870 H   0  0  0  0  0  0  0  0  0  0  0  0
   -6.5012   15.2422  -33.5986 H   0  0  0  0  0  0  0  0  0  0  0  0
   -6.7205   11.0700  -34.1487 H   0  0  0  0  0  0  0  0  0  0  0  0
   -8.5273   11.3315  -34.3002 H   0  0  0  0  0  0  0  0  0  0  0  0
   -7.1149   11.3891  -36.4646 H   0  0  0  0  0  0  0  0  0  0  0  0
   -8.3030   12.7146  -36.1635 H   0  0  0  0  0  0  0  0  0  0  0  0
   -5.2911   12.8137  -35.6596 H   0  0  0  0  0  0  0  0  0  0  0  0
   -6.2170   13.6534  -36.9766 H   0  0  0  0  0  0  0  0  0  0  0  0
   -5.5387   14.7476  -34.5129 H   0  0  0  0  0  0  0  0  0  0  0  0
   -6.8457   15.3238  -35.6473 H   0  0  0  0  0  0  0  0  0  0  0  0
   -7.4277   14.9668  -33.1321 H   0  0  0  0  0  0  0  0  0  0  0  0
   -8.5399   14.3332  -34.4283 H   0  0  0  0  0  0  0  0  0  0  0  0
   -3.4166   13.2085  -31.3473 H   0  0  0  0  0  0  0  0  0  0  0  0
   -1.9091   15.1739  -31.6342 H   0  0  0  0  0  0  0  0  0  0  0  0
  1  2  2  0
  2  3  1  0
  3  4  1  0
  4  5  2  0
  5  6  1  0
  6  7  1  0
  7  8  2  0
  7  9  2  0
  7 10  1  0
 10 11  1  0
 11 12  1  0
 12 13  1  0
 13 14  1  0
  6 15  2  0
 15 16  1  0
 16 17  2  0
 17 18  1  0
  2 19  1  0
 19 20  2  0
 20 21  1  0
 21 22  2  0
 22 23  1  0
 23 24  2  0
 23 25  1  0
 25 26  2  0
 25 27  1  0
 27 28  1  0
 28 29  2  0
 29 30  1  0
 30 31  2  0
 31 32  1  0
 32 33  2  0
 32 34  2  0
 32 35  1  0
 35 36  1  0
 36 37  1  0
 37 38  1  0
 38 39  1  0
 39 40  1  0
 31 41  1  0
 41 42  2  0
 27 43  1  0
 43 44  2  0
 17  4  1  0
 24 19  1  0
 42 28  1  0
 14 10  1  0
 43 22  1  0
 40 35  1  0
  3 45  1  0
  5 46  1  0
 11 47  1  0
 11 48  1  0
 12 49  1  0
 12 50  1  0
 13 51  1  0
 13 52  1  0
 14 53  1  0
 14 54  1  0
 15 55  1  0
 16 56  1  0
 20 57  1  0
 21 58  1  0
 24 59  1  0
 29 60  1  0
 30 61  1  0
 36 62  1  0
 36 63  1  0
 37 64  1  0
 37 65  1  0
 38 66  1  0
 38 67  1  0
 39 68  1  0
 39 69  1  0
 40 70  1  0
 40 71  1  0
 41 72  1  0
 42 73  1  0
M  CHG  1  18  -1
M  END
>  <UniqueID>  (8) 
7

>  <SMILES>  (8) 
O=C(Nc1cc(S(=O)(=O)N2CCCC2)ccc1[O-])c1ccc2c(c1)C(=O)N(c1ccc(S(=O)(=O)N3CCCCC3)cc1)C2=O

>  <Energy>  (8) 
131.2986232621287

>  <Genealogy>  (8) 
O=C(Nc1cc(S(=O)(=O)N2CCCC2)ccc1[O-])c1ccc2c(c1)C(=O)N(c1ccc(S(=O)(=O)N3CCCCC3)cc1)C2=O (protonated)
O=C(Nc1cc(S(=O)(=O)N2CCCC2)ccc1[O-])c1ccc2c(c1)C(=O)N(c1ccc(S(=O)(=O)N3CCCCC3)cc1)C2=O (3D coordinates assigned)
O=C(Nc1cc(S(=O)(=O)N2CCCC2)ccc1[O-])c1ccc2c(c1)C(=O)N(c1ccc(S(=O)(=O)N3CCCCC3)cc1)C2=O (nonaromatic ring conformer: 131.2986232621287 kcal/mol)

>  <smiles>  (8) 
O=C(Nc1cc(S(=O)(=O)N2CCCC2)ccc1O)c1ccc2c(c1)C(=O)N(c1ccc(S(=O)(=O)N3CCCCC3)cc1)C2=O

>  <score_type>  (8) 
oracle

>  <origin>  (8) 
adgpu

>  <m_score__min__energy>  (8) 
-9.4499999999999993

>  <m_primary>  (8) 
energy

$$$$
8:0
     RDKit          3D

 59 62  0  0  0  0  0  0  0  0999 V2000
   -4.1980   16.5070  -32.7920 C   0  0  0  0  0  0  0  0  0  0  0  0
   -4.9600   16.6590  -34.1200 C   0  0  0  0  0  0  0  0  0  0  0  0
   -4.9030   18.1170  -34.6470 C   0  0  0  0  0  0  0  0  0  0  0  0
   -6.1480   18.9450  -34.2750 C   0  0  0  0  0  0  0  0  0  0  0  0
   -6.7050   18.4610  -33.0040 N   0  0  0  0  0  0  0  0  0  0  0  0
   -7.8720   19.5930  -32.3670 S   0  0  0  0  0  0  0  0  0  0  0  0
   -8.5480   18.9840  -31.1670 O   0  0  0  0  0  0  0  0  0  0  0  0
   -8.9270   19.8600  -33.4060 O   0  0  0  0  0  0  0  0  0  0  0  0
   -7.1290   21.1200  -31.8840 C   0  0  0  0  0  0  0  0  0  0  0  0
   -7.8300   22.3270  -32.0290 C   0  0  0  0  0  0  0  0  0  0  0  0
   -7.2680   23.5260  -31.5790 C   0  0  0  0  0  0  0  0  0  0  0  0
   -6.0010   23.5300  -30.9760 C   0  0  0  0  0  0  0  0  0  0  0  0
   -5.2850   25.0340  -30.3930 S   0  0  0  0  0  0  0  0  0  0  0  0
   -5.7770   26.1800  -31.2340 O   0  0  0  0  0  0  0  0  0  0  0  0
   -5.7160   25.2600  -28.9690 O   0  0  0  0  0  0  0  0  0  0  0  0
   -3.5500   24.9870  -30.4570 N   0  0  0  0  0  0  0  0  0  0  0  0
   -2.7550   24.2450  -29.5260 C   0  0  0  0  0  0  0  0  0  0  0  0
   -3.0990   22.9320  -29.1760 C   0  0  0  0  0  0  0  0  0  0  0  0
   -2.3300   22.2180  -28.2450 C   0  0  0  0  0  0  0  0  0  0  0  0
   -1.1770   22.8120  -27.6920 C   0  0  0  0  0  0  0  0  0  0  0  0
   -0.8300   24.1220  -28.0570 C   0  0  0  0  0  0  0  0  0  0  0  0
   -1.6050   24.8290  -28.9810 C   0  0  0  0  0  0  0  0  0  0  0  0
   -1.2380   26.1220  -29.3420 O   0  0  0  0  0  0  0  0  0  0  0  0
   -0.3690   22.0960  -26.6380 C   0  0  0  0  0  0  0  0  0  0  0  0
   -0.5080   20.6300  -26.7110 N   0  0  0  0  0  0  0  0  0  0  0  0
    0.2680   20.0520  -27.8230 C   0  0  0  0  0  0  0  0  0  0  0  0
   -1.9260   20.2250  -26.7340 C   0  0  0  0  0  0  0  0  0  0  0  0
   -2.6890   20.7860  -27.9480 C   0  0  0  0  0  0  0  0  0  0  0  0
   -5.2920   22.3270  -30.8520 C   0  0  0  0  0  0  0  0  0  0  0  0
   -5.8530   21.1280  -31.3040 C   0  0  0  0  0  0  0  0  0  0  0  0
   -7.3160   17.1240  -33.1690 C   0  0  0  0  0  0  0  0  0  0  0  0
   -6.4160   16.1610  -33.9840 C   0  0  0  0  0  0  0  0  0  0  0  0
   -4.8942   16.6459  -31.9518 H   0  0  0  0  0  0  0  0  0  0  0  0
   -3.7532   15.5024  -32.7374 H   0  0  0  0  0  0  0  0  0  0  0  0
   -3.4018   17.2640  -32.7374 H   0  0  0  0  0  0  0  0  0  0  0  0
   -4.4587   16.0256  -34.8667 H   0  0  0  0  0  0  0  0  0  0  0  0
   -4.0159   18.6085  -34.2209 H   0  0  0  0  0  0  0  0  0  0  0  0
   -4.8595   18.0667  -35.7450 H   0  0  0  0  0  0  0  0  0  0  0  0
   -5.8654   20.0030  -34.1708 H   0  0  0  0  0  0  0  0  0  0  0  0
   -6.9043   18.8402  -35.0668 H   0  0  0  0  0  0  0  0  0  0  0  0
   -8.8249   22.3301  -32.4982 H   0  0  0  0  0  0  0  0  0  0  0  0
   -7.8212   24.4693  -31.6982 H   0  0  0  0  0  0  0  0  0  0  0  0
   -3.9790   22.4577  -29.6350 H   0  0  0  0  0  0  0  0  0  0  0  0
    0.0579   24.5957  -27.6129 H   0  0  0  0  0  0  0  0  0  0  0  0
    0.6916   22.3557  -26.7712 H   0  0  0  0  0  0  0  0  0  0  0  0
   -0.7468   22.4165  -25.6559 H   0  0  0  0  0  0  0  0  0  0  0  0
    1.0885   19.4409  -27.4188 H   0  0  0  0  0  0  0  0  0  0  0  0
   -0.3892   19.4216  -28.4400 H   0  0  0  0  0  0  0  0  0  0  0  0
    0.6838   20.8622  -28.4400 H   0  0  0  0  0  0  0  0  0  0  0  0
   -1.9770   19.1266  -26.7642 H   0  0  0  0  0  0  0  0  0  0  0  0
   -2.4005   20.6317  -25.8288 H   0  0  0  0  0  0  0  0  0  0  0  0
   -2.4495   20.1725  -28.8291 H   0  0  0  0  0  0  0  0  0  0  0  0
   -3.7627   20.7534  -27.7113 H   0  0  0  0  0  0  0  0  0  0  0  0
   -4.2903   22.3259  -30.3974 H   0  0  0  0  0  0  0  0  0  0  0  0
   -5.2907   20.1879  -31.2039 H   0  0  0  0  0  0  0  0  0  0  0  0
   -7.4887   16.6890  -32.1735 H   0  0  0  0  0  0  0  0  0  0  0  0
   -8.2586   17.2513  -33.7216 H   0  0  0  0  0  0  0  0  0  0  0  0
   -6.4055   15.1826  -33.4814 H   0  0  0  0  0  0  0  0  0  0  0  0
   -6.8369   16.0994  -34.9984 H   0  0  0  0  0  0  0  0  0  0  0  0
  1  2  1  0
  2  3  1  0
  3  4  1  0
  4  5  1  0
  5  6  1  0
  6  7  2  0
  6  8  2  0
  6  9  1  0
  9 10  2  0
 10 11  1  0
 11 12  2  0
 12 13  1  0
 13 14  2  0
 13 15  2  0
 13 16  1  0
 16 17  1  0
 17 18  2  0
 18 19  1  0
 19 20  2  0
 20 21  1  0
 21 22  2  0
 22 23  1  0
 20 24  1  0
 24 25  1  0
 25 26  1  0
 25 27  1  0
 27 28  1  0
 12 29  1  0
 29 30  2  0
  5 31  1  0
 31 32  1  0
 32  2  1  0
 30  9  1  0
 22 17  1  0
 28 19  1  0
  1 33  1  0
  1 34  1  0
  1 35  1  0
  2 36  1  0
  3 37  1  0
  3 38  1  0
  4 39  1  0
  4 40  1  0
 10 41  1  0
 11 42  1  0
 18 43  1  0
 21 44  1  0
 24 45  1  0
 24 46  1  0
 26 47  1  0
 26 48  1  0
 26 49  1  0
 27 50  1  0
 27 51  1  0
 28 52  1  0
 28 53  1  0
 29 54  1  0
 30 55  1  0
 31 56  1  0
 31 57  1  0
 32 58  1  0
 32 59  1  0
M  CHG  2  16  -1  23  -1
M  END
>  <UniqueID>  (9) 
8

>  <SMILES>  (9) 
CC1CCN(S(=O)(=O)c2ccc(S(=O)(=O)[N-]c3cc4c(cc3[O-])CN(C)CC4)cc2)CC1

>  <Energy>  (9) 
73.52867276038394

>  <Genealogy>  (9) 
CC1CCN(S(=O)(=O)c2ccc(S(=O)(=O)[N-]c3cc4c(cc3[O-])CN(C)CC4)cc2)CC1 (protonated)
CC1CCN(S(=O)(=O)c2ccc(S(=O)(=O)[N-]c3cc4c(cc3[O-])CN(C)CC4)cc2)CC1 (3D coordinates assigned)
CC1CCN(S(=O)(=O)c2ccc(S(=O)(=O)[N-]c3cc4c(cc3[O-])CN(C)CC4)cc2)CC1 (nonaromatic ring conformer: 73.52867276038394 kcal/mol)

>  <smiles>  (9) 
CC1CCN(S(=O)(=O)c2ccc(S(=O)(=O)Nc3cc4c(cc3O)CN(C)CC4)cc2)CC1

>  <score_type>  (9) 
oracle

>  <origin>  (9) 
adgpu

>  <m_score__min__energy>  (9) 
-16.699999999999999

>  <m_primary>  (9) 
energy

$$$$
9:0
     RDKit          3D

 58 61  0  0  0  0  0  0  0  0999 V2000
   -2.8420   20.4250  -27.4410 C   0  0  0  0  0  0  0  0  0  0  0  0
   -2.5280   21.7980  -27.9570 C   0  0  0  0  0  0  0  0  0  0  0  0
   -1.4650   22.5330  -27.4210 C   0  0  0  0  0  0  0  0  0  0  0  0
   -1.1970   23.8200  -27.8830 C   0  0  0  0  0  0  0  0  0  0  0  0
   -1.9910   24.3920  -28.8840 C   0  0  0  0  0  0  0  0  0  0  0  0
   -1.6780   25.6720  -29.3290 O   0  0  0  0  0  0  0  0  0  0  0  0
   -3.0780   23.6720  -29.4290 C   0  0  0  0  0  0  0  0  0  0  0  0
   -3.9370   24.2470  -30.4950 C   0  0  0  0  0  0  0  0  0  0  0  0
   -3.8990   25.4820  -30.7490 O   0  0  0  0  0  0  0  0  0  0  0  0
   -4.8280   23.4050  -31.2370 N   0  0  0  0  0  0  0  0  0  0  0  0
   -4.4000   22.2590  -31.9850 C   0  0  0  0  0  0  0  0  0  0  0  0
   -3.0680   22.1980  -32.4110 C   0  0  0  0  0  0  0  0  0  0  0  0
   -2.5890   21.0730  -33.0930 C   0  0  0  0  0  0  0  0  0  0  0  0
   -0.9080   21.0230  -33.6220 S   0  0  0  0  0  0  0  0  0  0  0  0
   -0.5890   22.2460  -34.4390 O   0  0  0  0  0  0  0  0  0  0  0  0
   -0.7130   19.8060  -34.4840 O   0  0  0  0  0  0  0  0  0  0  0  0
    0.1530   20.9320  -32.2370 N   0  0  0  0  0  0  0  0  0  0  0  0
   -0.5720   21.2640  -30.9860 C   0  0  0  0  0  0  0  0  0  0  0  0
   -0.9440   20.0230  -30.1610 C   0  0  0  0  0  0  0  0  0  0  0  0
    0.3090   19.2190  -29.7750 C   0  0  0  0  0  0  0  0  0  0  0  0
    1.4230   19.3140  -30.8330 C   0  0  0  0  0  0  0  0  0  0  0  0
    0.8470   19.6240  -32.2160 C   0  0  0  0  0  0  0  0  0  0  0  0
   -3.4600   20.0120  -33.3730 C   0  0  0  0  0  0  0  0  0  0  0  0
   -4.7980   20.0780  -32.9810 C   0  0  0  0  0  0  0  0  0  0  0  0
   -5.2860   21.2040  -32.3000 C   0  0  0  0  0  0  0  0  0  0  0  0
   -6.6900   21.3010  -32.0080 N   0  0  0  0  0  0  0  0  0  0  0  0
   -7.4080   22.5650  -31.9840 C   0  0  0  0  0  0  0  0  0  0  0  0
   -8.8840   22.1900  -31.9310 C   0  0  0  0  0  0  0  0  0  0  0  0
   -8.9260   20.7230  -31.5220 C   0  0  0  0  0  0  0  0  0  0  0  0
   -7.5710   20.1520  -31.9120 C   0  0  0  0  0  0  0  0  0  0  0  0
   -3.3330   22.3710  -28.9520 C   0  0  0  0  0  0  0  0  0  0  0  0
   -2.8392   20.4372  -26.3411 H   0  0  0  0  0  0  0  0  0  0  0  0
   -3.8341   20.1157  -27.8018 H   0  0  0  0  0  0  0  0  0  0  0  0
   -2.0830   19.7153  -27.8018 H   0  0  0  0  0  0  0  0  0  0  0  0
   -0.8381   22.0930  -26.6315 H   0  0  0  0  0  0  0  0  0  0  0  0
   -0.3570   24.3896  -27.4588 H   0  0  0  0  0  0  0  0  0  0  0  0
   -2.3916   23.0414  -32.2081 H   0  0  0  0  0  0  0  0  0  0  0  0
    0.0682   21.9143  -30.3718 H   0  0  0  0  0  0  0  0  0  0  0  0
   -1.5099   21.7628  -31.2715 H   0  0  0  0  0  0  0  0  0  0  0  0
   -1.4621   20.3427  -29.2448 H   0  0  0  0  0  0  0  0  0  0  0  0
   -1.5971   19.3811  -30.7704 H   0  0  0  0  0  0  0  0  0  0  0  0
    0.6957   19.6060  -28.8207 H   0  0  0  0  0  0  0  0  0  0  0  0
    0.0149   18.1621  -29.6951 H   0  0  0  0  0  0  0  0  0  0  0  0
    2.1217   20.1143  -30.5476 H   0  0  0  0  0  0  0  0  0  0  0  0
    1.9418   18.3452  -30.8807 H   0  0  0  0  0  0  0  0  0  0  0  0
    1.6676   19.6435  -32.9482 H   0  0  0  0  0  0  0  0  0  0  0  0
    0.1150   18.8422  -32.4669 H   0  0  0  0  0  0  0  0  0  0  0  0
   -3.0879   19.1234  -33.9039 H   0  0  0  0  0  0  0  0  0  0  0  0
   -5.4751   19.2412  -33.2075 H   0  0  0  0  0  0  0  0  0  0  0  0
   -7.1274   23.1504  -31.0960 H   0  0  0  0  0  0  0  0  0  0  0  0
   -7.1744   23.1853  -32.8619 H   0  0  0  0  0  0  0  0  0  0  0  0
   -9.4101   22.8094  -31.1896 H   0  0  0  0  0  0  0  0  0  0  0  0
   -9.3781   22.3541  -32.9000 H   0  0  0  0  0  0  0  0  0  0  0  0
   -9.0839   20.6309  -30.4373 H   0  0  0  0  0  0  0  0  0  0  0  0
   -9.7511   20.1864  -32.0132 H   0  0  0  0  0  0  0  0  0  0  0  0
   -7.2110   19.4525  -31.1432 H   0  0  0  0  0  0  0  0  0  0  0  0
   -7.6174   19.5883  -32.8554 H   0  0  0  0  0  0  0  0  0  0  0  0
   -4.1751   21.7969  -29.3658 H   0  0  0  0  0  0  0  0  0  0  0  0
  1  2  1  0
  2  3  2  0
  3  4  1  0
  4  5  2  0
  5  6  1  0
  5  7  1  0
  7  8  1  0
  8  9  2  0
  8 10  1  0
 10 11  1  0
 11 12  2  0
 12 13  1  0
 13 14  1  0
 14 15  2  0
 14 16  2  0
 14 17  1  0
 17 18  1  0
 18 19  1  0
 19 20  1  0
 20 21  1  0
 21 22  1  0
 13 23  2  0
 23 24  1  0
 24 25  2  0
 25 26  1  0
 26 27  1  0
 27 28  1  0
 28 29  1  0
 29 30  1  0
  7 31  2  0
 31  2  1  0
 25 11  1  0
 30 26  1  0
 22 17  1  0
  1 32  1  0
  1 33  1  0
  1 34  1  0
  3 35  1  0
  4 36  1  0
 12 37  1  0
 18 38  1  0
 18 39  1  0
 19 40  1  0
 19 41  1  0
 20 42  1  0
 20 43  1  0
 21 44  1  0
 21 45  1  0
 22 46  1  0
 22 47  1  0
 23 48  1  0
 24 49  1  0
 27 50  1  0
 27 51  1  0
 28 52  1  0
 28 53  1  0
 29 54  1  0
 29 55  1  0
 30 56  1  0
 30 57  1  0
 31 58  1  0
M  CHG  2   6  -1  10  -1
M  END
>  <UniqueID>  (10) 
9

>  <SMILES>  (10) 
Cc1ccc([O-])c(C(=O)[N-]c2cc(S(=O)(=O)N3CCCCC3)ccc2N2CCCC2)c1

>  <Energy>  (10) 
76.21781276877144

>  <Genealogy>  (10) 
Cc1ccc([O-])c(C(=O)[N-]c2cc(S(=O)(=O)N3CCCCC3)ccc2N2CCCC2)c1 (protonated)
Cc1ccc([O-])c(C(=O)[N-]c2cc(S(=O)(=O)N3CCCCC3)ccc2N2CCCC2)c1 (3D coordinates assigned)
Cc1ccc([O-])c(C(=O)[N-]c2cc(S(=O)(=O)N3CCCCC3)ccc2N2CCCC2)c1 (nonaromatic ring conformer: 76.21781276877144 kcal/mol)

>  <smiles>  (10) 
Cc1ccc(O)c(C(=O)Nc2cc(S(=O)(=O)N3CCCCC3)ccc2N2CCCC2)c1

>  <score_type>  (10) 
oracle

>  <origin>  (10) 
adgpu

>  <m_score__min__energy>  (10) 
-13.970000000000001

>  <m_primary>  (10) 
energy

$$$$
10:0
     RDKit          3D

 53 56  0  0  0  0  0  0  0  0999 V2000
   -4.3370   22.2990  -30.1130 C   0  0  0  0  0  0  0  0  0  0  0  0
   -5.0880   23.0280  -31.5510 S   0  0  0  0  0  0  0  0  0  0  0  0
   -5.0810   24.5260  -31.4250 O   0  0  0  0  0  0  0  0  0  0  0  0
   -4.2890   22.6450  -32.7650 O   0  0  0  0  0  0  0  0  0  0  0  0
   -6.7510   22.4520  -31.7080 C   0  0  0  0  0  0  0  0  0  0  0  0
   -7.7950   23.3800  -31.8520 C   0  0  0  0  0  0  0  0  0  0  0  0
   -9.1150   22.9440  -31.9760 C   0  0  0  0  0  0  0  0  0  0  0  0
   -9.4050   21.5790  -31.9700 C   0  0  0  0  0  0  0  0  0  0  0  0
   -8.3750   20.6460  -31.8350 C   0  0  0  0  0  0  0  0  0  0  0  0
   -7.0430   21.0730  -31.6870 C   0  0  0  0  0  0  0  0  0  0  0  0
   -5.9740   20.1200  -31.5710 N   0  0  0  0  0  0  0  0  0  0  0  0
   -6.0330   18.7350  -31.9400 C   0  0  0  0  0  0  0  0  0  0  0  0
   -6.9390   18.0170  -31.4410 O   0  0  0  0  0  0  0  0  0  0  0  0
   -5.1060   18.1530  -32.9430 C   0  0  0  0  0  0  0  0  0  0  0  0
   -5.4870   17.0070  -33.6510 C   0  0  0  0  0  0  0  0  0  0  0  0
   -4.6280   16.4470  -34.5880 C   0  0  0  0  0  0  0  0  0  0  0  0
   -3.3830   17.0270  -34.8150 C   0  0  0  0  0  0  0  0  0  0  0  0
   -2.9890   18.1460  -34.1260 N   0  0  0  0  0  0  0  0  0  0  0  0
   -1.7580   18.7120  -34.3660 C   0  0  0  0  0  0  0  0  0  0  0  0
   -0.9930   18.2250  -35.2460 O   0  0  0  0  0  0  0  0  0  0  0  0
   -1.3520   19.8570  -33.6560 C   0  0  0  0  0  0  0  0  0  0  0  0
   -0.0310   20.4970  -33.8630 C   0  0  0  0  0  0  0  0  0  0  0  0
    0.4650   21.2000  -32.9410 O   0  0  0  0  0  0  0  0  0  0  0  0
    0.7020   20.2980  -35.0830 N   0  0  0  0  0  0  0  0  0  0  0  0
    1.9710   20.9700  -35.3510 C   0  0  0  0  0  0  0  0  0  0  0  0
    1.7490   22.4450  -35.5520 C   0  0  0  0  0  0  0  0  0  0  0  0
    0.4740   22.9200  -35.9010 C   0  0  0  0  0  0  0  0  0  0  0  0
    0.2650   24.2880  -36.1070 C   0  0  0  0  0  0  0  0  0  0  0  0
    1.3260   25.1890  -35.9700 C   0  0  0  0  0  0  0  0  0  0  0  0
    1.0620   26.9030  -36.2300 Cl  0  0  0  0  0  0  0  0  0  0  0  0
    2.5990   24.7200  -35.6270 C   0  0  0  0  0  0  0  0  0  0  0  0
    2.8120   23.3530  -35.4210 C   0  0  0  0  0  0  0  0  0  0  0  0
   -2.2490   20.4170  -32.7440 C   0  0  0  0  0  0  0  0  0  0  0  0
   -3.4530   19.8380  -32.5330 N   0  0  0  0  0  0  0  0  0  0  0  0
   -3.8350   18.7140  -33.1950 C   0  0  0  0  0  0  0  0  0  0  0  0
   -4.7838   22.7327  -29.2062 H   0  0  0  0  0  0  0  0  0  0  0  0
   -4.5069   21.2122  -30.1217 H   0  0  0  0  0  0  0  0  0  0  0  0
   -3.2558   22.5011  -30.1217 H   0  0  0  0  0  0  0  0  0  0  0  0
   -7.5711   24.4569  -31.8672 H   0  0  0  0  0  0  0  0  0  0  0  0
   -9.9282   23.6776  -32.0786 H   0  0  0  0  0  0  0  0  0  0  0  0
  -10.4458   21.2378  -32.0717 H   0  0  0  0  0  0  0  0  0  0  0  0
   -8.6066   19.5707  -31.8444 H   0  0  0  0  0  0  0  0  0  0  0  0
   -6.4695   16.5487  -33.4648 H   0  0  0  0  0  0  0  0  0  0  0  0
   -4.9300   15.5496  -35.1479 H   0  0  0  0  0  0  0  0  0  0  0  0
   -2.7051   16.5814  -35.5579 H   0  0  0  0  0  0  0  0  0  0  0  0
    0.3610   19.6000  -35.7820 H   0  0  0  0  0  0  0  0  0  0  0  0
    2.6492   20.8180  -34.4984 H   0  0  0  0  0  0  0  0  0  0  0  0
    2.4137   20.5471  -36.2649 H   0  0  0  0  0  0  0  0  0  0  0  0
   -0.3625   22.2145  -36.0127 H   0  0  0  0  0  0  0  0  0  0  0  0
   -0.7359   24.6557  -36.3773 H   0  0  0  0  0  0  0  0  0  0  0  0
    3.4340   25.4279  -35.5191 H   0  0  0  0  0  0  0  0  0  0  0  0
    3.8152   22.9882  -35.1556 H   0  0  0  0  0  0  0  0  0  0  0  0
   -1.9759   21.3309  -32.1961 H   0  0  0  0  0  0  0  0  0  0  0  0
  1  2  1  0
  2  3  2  0
  2  4  2  0
  2  5  1  0
  5  6  2  0
  6  7  1  0
  7  8  2  0
  8  9  1  0
  9 10  2  0
 10 11  1  0
 11 12  1  0
 12 13  2  0
 12 14  1  0
 14 15  2  0
 15 16  1  0
 16 17  2  0
 17 18  1  0
 18 19  1  0
 19 20  2  0
 19 21  1  0
 21 22  1  0
 22 23  2  0
 22 24  1  0
 24 25  1  0
 25 26  1  0
 26 27  2  0
 27 28  1  0
 28 29  2  0
 29 30  1  0
 29 31  1  0
 31 32  2  0
 21 33  2  0
 33 34  1  0
 34 35  2  0
 10  5  1  0
 35 14  1  0
 35 18  1  0
 32 26  1  0
  1 36  1  0
  1 37  1  0
  1 38  1  0
  6 39  1  0
  7 40  1  0
  8 41  1  0
  9 42  1  0
 15 43  1  0
 16 44  1  0
 17 45  1  0
 24 46  1  0
 25 47  1  0
 25 48  1  0
 27 49  1  0
 28 50  1  0
 31 51  1  0
 32 52  1  0
 33 53  1  0
M  CHG  1  11  -1
M  END
>  <UniqueID>  (11) 
10

>  <SMILES>  (11) 
CS(=O)(=O)c1ccccc1[N-]C(=O)c1cccn2c(=O)c(C(=O)NCc3ccc(Cl)cc3)cnc12

>  <Energy>  (11) 
72.34311425876128

>  <Genealogy>  (11) 
CS(=O)(=O)c1ccccc1[N-]C(=O)c1cccn2c(=O)c(C(=O)NCc3ccc(Cl)cc3)cnc12 (protonated)
CS(=O)(=O)c1ccccc1[N-]C(=O)c1cccn2c(=O)c(C(=O)NCc3ccc(Cl)cc3)cnc12 (3D coordinates assigned)
CS(=O)(=O)c1ccccc1[N-]C(=O)c1cccn2c(=O)c(C(=O)NCc3ccc(Cl)cc3)cnc12 (optimized conformer: 72.34311425876128 kcal/mol)

>  <smiles>  (11) 
CS(=O)(=O)c1ccccc1NC(=O)c1cccn2c(=O)c(C(=O)NCc3ccc(Cl)cc3)cnc12

>  <score_type>  (11) 
oracle

>  <origin>  (11) 
adgpu

>  <m_score__min__energy>  (11) 
-11.75

>  <m_primary>  (11) 
energy

$$$$
11:0
     RDKit          3D

 54 56  0  0  0  0  0  0  0  0999 V2000
   -5.4940   15.9120  -33.6180 C   0  0  0  0  0  0  0  0  0  0  0  0
   -5.3260   17.1390  -34.3190 O   0  0  0  0  0  0  0  0  0  0  0  0
   -4.5340   18.2120  -33.8780 C   0  0  0  0  0  0  0  0  0  0  0  0
   -3.2000   18.3650  -34.2980 C   0  0  0  0  0  0  0  0  0  0  0  0
   -2.4330   19.4420  -33.8520 C   0  0  0  0  0  0  0  0  0  0  0  0
   -2.9780   20.3920  -32.9750 C   0  0  0  0  0  0  0  0  0  0  0  0
   -2.1690   21.5410  -32.5070 C   0  0  0  0  0  0  0  0  0  0  0  0
   -0.9590   21.6390  -32.8480 O   0  0  0  0  0  0  0  0  0  0  0  0
   -2.7750   22.5690  -31.7090 N   0  0  0  0  0  0  0  0  0  0  0  0
   -2.7380   22.6730  -30.2770 C   0  0  0  0  0  0  0  0  0  0  0  0
   -2.3830   21.5780  -29.4660 C   0  0  0  0  0  0  0  0  0  0  0  0
   -2.3760   21.7030  -28.0700 C   0  0  0  0  0  0  0  0  0  0  0  0
   -1.9410   20.3220  -27.0680 S   0  0  0  0  0  0  0  0  0  0  0  0
   -3.3830   19.3220  -26.7820 C   0  0  0  0  0  0  0  0  0  0  0  0
   -0.8890   19.5040  -27.7630 O   0  0  0  0  0  0  0  0  0  0  0  0
   -1.3930   20.7950  -25.7510 O   0  0  0  0  0  0  0  0  0  0  0  0
   -2.7500   22.9160  -27.4800 C   0  0  0  0  0  0  0  0  0  0  0  0
   -3.1260   23.9970  -28.2790 C   0  0  0  0  0  0  0  0  0  0  0  0
   -3.1260   23.8790  -29.6750 C   0  0  0  0  0  0  0  0  0  0  0  0
   -3.5080   24.9580  -30.4700 O   0  0  0  0  0  0  0  0  0  0  0  0
   -4.3110   20.2390  -32.5530 C   0  0  0  0  0  0  0  0  0  0  0  0
   -5.0900   19.1610  -32.9980 C   0  0  0  0  0  0  0  0  0  0  0  0
   -6.7700   19.0270  -32.4480 S   0  0  0  0  0  0  0  0  0  0  0  0
   -6.7960   18.3470  -31.1060 O   0  0  0  0  0  0  0  0  0  0  0  0
   -7.5500   18.1710  -33.4070 O   0  0  0  0  0  0  0  0  0  0  0  0
   -7.5340   20.5920  -32.3110 N   0  0  0  0  0  0  0  0  0  0  0  0
   -8.9640   20.4330  -31.9750 C   0  0  0  0  0  0  0  0  0  0  0  0
   -9.6300   21.7730  -31.5890 C   0  0  0  0  0  0  0  0  0  0  0  0
   -8.7630   22.9730  -31.9770 C   0  0  0  0  0  0  0  0  0  0  0  0
   -7.3630   22.8670  -31.3500 C   0  0  0  0  0  0  0  0  0  0  0  0
   -6.8460   21.4150  -31.3040 C   0  0  0  0  0  0  0  0  0  0  0  0
   -5.4680   16.1020  -32.5348 H   0  0  0  0  0  0  0  0  0  0  0  0
   -6.4618   15.4646  -33.8887 H   0  0  0  0  0  0  0  0  0  0  0  0
   -4.6821   15.2209  -33.8887 H   0  0  0  0  0  0  0  0  0  0  0  0
   -2.7573   17.6284  -34.9847 H   0  0  0  0  0  0  0  0  0  0  0  0
   -1.3918   19.5472  -34.1910 H   0  0  0  0  0  0  0  0  0  0  0  0
   -2.1096   20.6192  -29.9306 H   0  0  0  0  0  0  0  0  0  0  0  0
   -3.5433   19.2108  -25.6994 H   0  0  0  0  0  0  0  0  0  0  0  0
   -4.2607   19.8063  -27.2348 H   0  0  0  0  0  0  0  0  0  0  0  0
   -3.2371   18.3302  -27.2348 H   0  0  0  0  0  0  0  0  0  0  0  0
   -2.7476   23.0175  -26.3847 H   0  0  0  0  0  0  0  0  0  0  0  0
   -3.4239   24.9465  -27.8101 H   0  0  0  0  0  0  0  0  0  0  0  0
   -3.4920   24.9040  -31.4820 H   0  0  0  0  0  0  0  0  0  0  0  0
   -4.7490   20.9758  -31.8637 H   0  0  0  0  0  0  0  0  0  0  0  0
   -9.4880   20.0164  -32.8479 H   0  0  0  0  0  0  0  0  0  0  0  0
   -9.0322   19.7616  -31.1063 H   0  0  0  0  0  0  0  0  0  0  0  0
  -10.5977   21.8513  -32.1061 H   0  0  0  0  0  0  0  0  0  0  0  0
   -9.7621   21.7863  -30.4970 H   0  0  0  0  0  0  0  0  0  0  0  0
   -8.6651   23.0069  -33.0721 H   0  0  0  0  0  0  0  0  0  0  0  0
   -9.2453   23.8888  -31.6047 H   0  0  0  0  0  0  0  0  0  0  0  0
   -6.6631   23.4722  -31.9449 H   0  0  0  0  0  0  0  0  0  0  0  0
   -7.4318   23.2307  -30.3141 H   0  0  0  0  0  0  0  0  0  0  0  0
   -5.7651   21.4088  -31.5082 H   0  0  0  0  0  0  0  0  0  0  0  0
   -7.0453   20.9974  -30.3061 H   0  0  0  0  0  0  0  0  0  0  0  0
  1  2  1  0
  2  3  1  0
  3  4  2  0
  4  5  1  0
  5  6  2  0
  6  7  1  0
  7  8  2  0
  7  9  1  0
  9 10  1  0
 10 11  2  0
 11 12  1  0
 12 13  1  0
 13 14  1  0
 13 15  2  0
 13 16  2  0
 12 17  2  0
 17 18  1  0
 18 19  2  0
 19 20  1  0
  6 21  1  0
 21 22  2  0
 22 23  1  0
 23 24  2  0
 23 25  2  0
 23 26  1  0
 26 27  1  0
 27 28  1  0
 28 29  1  0
 29 30  1  0
 30 31  1  0
 22  3  1  0
 31 26  1  0
 19 10  1  0
  1 32  1  0
  1 33  1  0
  1 34  1  0
  4 35  1  0
  5 36  1  0
 11 37  1  0
 14 38  1  0
 14 39  1  0
 14 40  1  0
 17 41  1  0
 18 42  1  0
 20 43  1  0
 21 44  1  0
 27 45  1  0
 27 46  1  0
 28 47  1  0
 28 48  1  0
 29 49  1  0
 29 50  1  0
 30 51  1  0
 30 52  1  0
 31 53  1  0
 31 54  1  0
M  CHG  1   9  -1
M  END
>  <UniqueID>  (12) 
11

>  <SMILES>  (12) 
COc1ccc(C(=O)[N-]c2cc(S(C)(=O)=O)ccc2O)cc1S(=O)(=O)N1CCCCC1

>  <Energy>  (12) 
58.93139083227944

>  <Genealogy>  (12) 
COc1ccc(C(=O)[N-]c2cc(S(C)(=O)=O)ccc2O)cc1S(=O)(=O)N1CCCCC1 (protonated)
COc1ccc(C(=O)[N-]c2cc(S(C)(=O)=O)ccc2O)cc1S(=O)(=O)N1CCCCC1 (3D coordinates assigned)
COc1ccc(C(=O)[N-]c2cc(S(C)(=O)=O)ccc2O)cc1S(=O)(=O)N1CCCCC1 (nonaromatic ring conformer: 58.93139083227944 kcal/mol)

>  <smiles>  (12) 
COc1ccc(C(=O)Nc2cc(S(C)(=O)=O)ccc2O)cc1S(=O)(=O)N1CCCCC1

>  <score_type>  (12) 
oracle

>  <origin>  (12) 
adgpu

>  <m_score__min__energy>  (12) 
-11.470000000000001

>  <m_primary>  (12) 
energy

$$$$
12:0
     RDKit          3D

 53 57  0  0  0  0  0  0  0  0999 V2000
   -0.5500   21.8490  -32.3290 O   0  0  0  0  0  0  0  0  0  0  0  0
   -1.4230   21.0540  -32.7710 C   0  0  0  0  0  0  0  0  0  0  0  0
   -1.0260   19.9570  -33.4670 N   0  0  0  0  0  0  0  0  0  0  0  0
   -1.9150   19.0610  -33.9700 C   0  0  0  0  0  0  0  0  0  0  0  0
   -3.2840   19.2490  -33.7810 C   0  0  0  0  0  0  0  0  0  0  0  0
   -3.7330   20.3680  -33.0670 C   0  0  0  0  0  0  0  0  0  0  0  0
   -5.1030   20.5820  -32.8680 C   0  0  0  0  0  0  0  0  0  0  0  0
   -5.5530   21.7030  -32.1570 C   0  0  0  0  0  0  0  0  0  0  0  0
   -6.9630   21.9100  -31.9930 N   0  0  0  0  0  0  0  0  0  0  0  0
   -7.6020   23.0270  -32.6880 C   0  0  0  0  0  0  0  0  0  0  0  0
   -8.9030   23.3970  -31.9720 C   0  0  0  0  0  0  0  0  0  0  0  0
   -9.7280   22.2580  -31.8130 O   0  0  0  0  0  0  0  0  0  0  0  0
   -9.1000   21.3240  -30.9530 C   0  0  0  0  0  0  0  0  0  0  0  0
   -7.8070   20.7890  -31.5780 C   0  0  0  0  0  0  0  0  0  0  0  0
   -4.6210   22.6190  -31.6250 C   0  0  0  0  0  0  0  0  0  0  0  0
   -5.1490   24.0340  -30.7050 S   0  0  0  0  0  0  0  0  0  0  0  0
   -5.8090   25.0010  -31.6470 O   0  0  0  0  0  0  0  0  0  0  0  0
   -6.1130   23.6110  -29.6310 O   0  0  0  0  0  0  0  0  0  0  0  0
   -3.7750   24.7870  -29.9610 N   0  0  0  0  0  0  0  0  0  0  0  0
   -2.6620   24.1430  -29.3210 C   0  0  0  0  0  0  0  0  0  0  0  0
   -2.8230   22.8040  -28.9420 C   0  0  0  0  0  0  0  0  0  0  0  0
   -1.7840   22.0960  -28.3240 C   0  0  0  0  0  0  0  0  0  0  0  0
   -0.5470   22.7310  -28.1000 C   0  0  0  0  0  0  0  0  0  0  0  0
   -0.3920   24.0800  -28.4420 C   0  0  0  0  0  0  0  0  0  0  0  0
   -1.4360   24.7900  -29.0450 C   0  0  0  0  0  0  0  0  0  0  0  0
   -1.2370   26.1320  -29.3360 O   0  0  0  0  0  0  0  0  0  0  0  0
    0.5780   22.0040  -27.4000 C   0  0  0  0  0  0  0  0  0  0  0  0
    0.4440   20.5440  -27.4910 N   0  0  0  0  0  0  0  0  0  0  0  0
   -0.8890   20.1170  -27.0470 C   0  0  0  0  0  0  0  0  0  0  0  0
   -1.9770   20.6370  -27.9960 C   0  0  0  0  0  0  0  0  0  0  0  0
   -3.2490   22.4110  -31.8340 C   0  0  0  0  0  0  0  0  0  0  0  0
   -2.7950   21.2900  -32.5500 C   0  0  0  0  0  0  0  0  0  0  0  0
   -1.5539   18.1846  -34.5281 H   0  0  0  0  0  0  0  0  0  0  0  0
   -4.0049   18.5252  -34.1889 H   0  0  0  0  0  0  0  0  0  0  0  0
   -5.8317   19.8644  -33.2731 H   0  0  0  0  0  0  0  0  0  0  0  0
   -6.9248   23.8938  -32.6889 H   0  0  0  0  0  0  0  0  0  0  0  0
   -7.8248   22.7343  -33.7247 H   0  0  0  0  0  0  0  0  0  0  0  0
   -8.6647   23.8114  -30.9813 H   0  0  0  0  0  0  0  0  0  0  0  0
   -9.4407   24.1413  -32.5777 H   0  0  0  0  0  0  0  0  0  0  0  0
   -8.8619   21.8166  -29.9987 H   0  0  0  0  0  0  0  0  0  0  0  0
   -9.7865   20.4803  -30.7889 H   0  0  0  0  0  0  0  0  0  0  0  0
   -7.2679   20.1788  -30.8384 H   0  0  0  0  0  0  0  0  0  0  0  0
   -8.0527   20.1720  -32.4549 H   0  0  0  0  0  0  0  0  0  0  0  0
   -3.7818   22.2998  -29.1329 H   0  0  0  0  0  0  0  0  0  0  0  0
    0.5616   24.5874  -28.2342 H   0  0  0  0  0  0  0  0  0  0  0  0
    1.5314   22.3006  -27.8616 H   0  0  0  0  0  0  0  0  0  0  0  0
    0.5429   22.2781  -26.3353 H   0  0  0  0  0  0  0  0  0  0  0  0
    0.5830   20.2520  -28.4880 H   0  0  0  0  0  0  0  0  0  0  0  0
   -0.9260   19.0178  -27.0251 H   0  0  0  0  0  0  0  0  0  0  0  0
   -1.0729   20.5286  -26.0436 H   0  0  0  0  0  0  0  0  0  0  0  0
   -1.9436   20.0550  -28.9288 H   0  0  0  0  0  0  0  0  0  0  0  0
   -2.9497   20.5252  -27.4946 H   0  0  0  0  0  0  0  0  0  0  0  0
   -2.5216   23.1325  -31.4335 H   0  0  0  0  0  0  0  0  0  0  0  0
  1  2  2  0
  2  3  1  0
  3  4  1  0
  4  5  2  0
  5  6  1  0
  6  7  2  0
  7  8  1  0
  8  9  1  0
  9 10  1  0
 10 11  1  0
 11 12  1  0
 12 13  1  0
 13 14  1  0
  8 15  2  0
 15 16  1  0
 16 17  2  0
 16 18  2  0
 16 19  1  0
 19 20  1  0
 20 21  2  0
 21 22  1  0
 22 23  2  0
 23 24  1  0
 24 25  2  0
 25 26  1  0
 23 27  1  0
 27 28  1  0
 28 29  1  0
 29 30  1  0
 15 31  1  0
 31 32  2  0
 32  2  1  0
 32  6  1  0
 14  9  1  0
 25 20  1  0
 30 22  1  0
  4 33  1  0
  5 34  1  0
  7 35  1  0
 10 36  1  0
 10 37  1  0
 11 38  1  0
 11 39  1  0
 13 40  1  0
 13 41  1  0
 14 42  1  0
 14 43  1  0
 21 44  1  0
 24 45  1  0
 27 46  1  0
 27 47  1  0
 28 48  1  0
 29 49  1  0
 29 50  1  0
 30 51  1  0
 30 52  1  0
 31 53  1  0
M  CHG  3   3  -1  19  -1  26  -1
M  END
>  <UniqueID>  (13) 
12

>  <SMILES>  (13) 
O=c1[n-]ccc2cc(N3CCOCC3)c(S(=O)(=O)[N-]c3cc4c(cc3[O-])CNCC4)cc12

>  <Energy>  (13) 
78.68047377630856

>  <Genealogy>  (13) 
O=c1[n-]ccc2cc(N3CCOCC3)c(S(=O)(=O)[N-]c3cc4c(cc3[O-])CNCC4)cc12 (protonated)
O=c1[n-]ccc2cc(N3CCOCC3)c(S(=O)(=O)[N-]c3cc4c(cc3[O-])CNCC4)cc12 (3D coordinates assigned)
O=c1[n-]ccc2cc(N3CCOCC3)c(S(=O)(=O)[N-]c3cc4c(cc3[O-])CNCC4)cc12 (nonaromatic ring conformer: 78.68047377630856 kcal/mol)

>  <smiles>  (13) 
O=c1[nH]ccc2cc(N3CCOCC3)c(S(=O)(=O)Nc3cc4c(cc3O)CNCC4)cc12

>  <score_type>  (13) 
oracle

>  <origin>  (13) 
adgpu

>  <m_score__min__energy>  (13) 
-13.890000000000001

>  <m_primary>  (13) 
energy

$$$$
13:0
     RDKit          3D

 60 63  0  0  0  0  0  0  0  0999 V2000
   -0.2890   19.6740  -29.8520 O   0  0  0  0  0  0  0  0  0  0  0  0
   -0.8080   20.6430  -30.4710 C   0  0  0  0  0  0  0  0  0  0  0  0
   -1.5000   21.7050  -29.7080 C   0  0  0  0  0  0  0  0  0  0  0  0
   -1.5640   21.6510  -28.3080 C   0  0  0  0  0  0  0  0  0  0  0  0
   -2.2780   22.6200  -27.5990 C   0  0  0  0  0  0  0  0  0  0  0  0
   -2.9520   23.6480  -28.2790 C   0  0  0  0  0  0  0  0  0  0  0  0
   -3.6970   24.5970  -27.5720 O   0  0  0  0  0  0  0  0  0  0  0  0
   -2.8760   23.7270  -29.6740 C   0  0  0  0  0  0  0  0  0  0  0  0
   -3.5540   24.7890  -30.3550 N   0  0  0  0  0  0  0  0  0  0  0  0
   -5.2750   25.0010  -30.3360 S   0  0  0  0  0  0  0  0  0  0  0  0
   -5.6340   26.1580  -31.2280 O   0  0  0  0  0  0  0  0  0  0  0  0
   -5.7680   25.3030  -28.9470 O   0  0  0  0  0  0  0  0  0  0  0  0
   -6.0240   23.5300  -30.9520 C   0  0  0  0  0  0  0  0  0  0  0  0
   -7.3190   23.1770  -30.5470 C   0  0  0  0  0  0  0  0  0  0  0  0
   -7.8780   21.9620  -30.9610 C   0  0  0  0  0  0  0  0  0  0  0  0
   -7.1480   21.0980  -31.7890 C   0  0  0  0  0  0  0  0  0  0  0  0
   -7.7880   19.5190  -32.2370 S   0  0  0  0  0  0  0  0  0  0  0  0
   -8.8660   19.6990  -33.2700 O   0  0  0  0  0  0  0  0  0  0  0  0
   -8.3800   18.8360  -31.0320 O   0  0  0  0  0  0  0  0  0  0  0  0
   -6.4870   18.5690  -32.9060 N   0  0  0  0  0  0  0  0  0  0  0  0
   -6.8950   17.1800  -33.1140 C   0  0  0  0  0  0  0  0  0  0  0  0
   -5.9630   16.6310  -34.1750 C   0  0  0  0  0  0  0  0  0  0  0  0
   -5.5030   17.8530  -34.9650 C   0  0  0  0  0  0  0  0  0  0  0  0
   -6.0850   19.0530  -34.2250 C   0  0  0  0  0  0  0  0  0  0  0  0
   -5.8570   21.4560  -32.1980 C   0  0  0  0  0  0  0  0  0  0  0  0
   -5.2960   22.6650  -31.7790 C   0  0  0  0  0  0  0  0  0  0  0  0
   -2.1590   22.7470  -30.3840 C   0  0  0  0  0  0  0  0  0  0  0  0
   -0.7020   20.6950  -31.9050 N   0  0  0  0  0  0  0  0  0  0  0  0
    0.5530   20.2880  -32.5430 C   0  0  0  0  0  0  0  0  0  0  0  0
    0.7900   21.0930  -33.8300 C   0  0  0  0  0  0  0  0  0  0  0  0
   -0.4680   21.2180  -34.7350 C   0  0  0  0  0  0  0  0  0  0  0  0
   -0.1910   20.7310  -36.0220 O   0  0  0  0  0  0  0  0  0  0  0  0
   -1.6870   20.4720  -34.1730 C   0  0  0  0  0  0  0  0  0  0  0  0
   -1.9280   20.8450  -32.7060 C   0  0  0  0  0  0  0  0  0  0  0  0
   -1.0503   20.8430  -27.7665 H   0  0  0  0  0  0  0  0  0  0  0  0
   -2.3127   22.5778  -26.5004 H   0  0  0  0  0  0  0  0  0  0  0  0
   -4.2550   25.2840  -28.0530 H   0  0  0  0  0  0  0  0  0  0  0  0
   -7.8969   23.8559  -29.9028 H   0  0  0  0  0  0  0  0  0  0  0  0
   -8.8917   21.6849  -30.6360 H   0  0  0  0  0  0  0  0  0  0  0  0
   -6.7930   16.6068  -32.1807 H   0  0  0  0  0  0  0  0  0  0  0  0
   -7.9481   17.1092  -33.4239 H   0  0  0  0  0  0  0  0  0  0  0  0
   -5.1039   16.1245  -33.7108 H   0  0  0  0  0  0  0  0  0  0  0  0
   -6.4582   15.8864  -34.8156 H   0  0  0  0  0  0  0  0  0  0  0  0
   -4.4046   17.9081  -34.9846 H   0  0  0  0  0  0  0  0  0  0  0  0
   -5.8384   17.8146  -36.0119 H   0  0  0  0  0  0  0  0  0  0  0  0
   -5.3262   19.8431  -34.1253 H   0  0  0  0  0  0  0  0  0  0  0  0
   -6.9390   19.4817  -34.7698 H   0  0  0  0  0  0  0  0  0  0  0  0
   -5.2828   20.7828  -32.8515 H   0  0  0  0  0  0  0  0  0  0  0  0
   -4.2798   22.9384  -32.0994 H   0  0  0  0  0  0  0  0  0  0  0  0
   -2.1133   22.7964  -31.4819 H   0  0  0  0  0  0  0  0  0  0  0  0
    1.3864   20.4647  -31.8472 H   0  0  0  0  0  0  0  0  0  0  0  0
    0.4913   19.2199  -32.7986 H   0  0  0  0  0  0  0  0  0  0  0  0
    1.1174   22.1052  -33.5502 H   0  0  0  0  0  0  0  0  0  0  0  0
    1.5492   20.5495  -34.4116 H   0  0  0  0  0  0  0  0  0  0  0  0
   -0.7174   22.2887  -34.7715 H   0  0  0  0  0  0  0  0  0  0  0  0
   -0.0810   19.7490  -35.9460 H   0  0  0  0  0  0  0  0  0  0  0  0
   -2.5761   20.7388  -34.7632 H   0  0  0  0  0  0  0  0  0  0  0  0
   -1.4959   19.3904  -34.2338 H   0  0  0  0  0  0  0  0  0  0  0  0
   -2.2641   21.8911  -32.6533 H   0  0  0  0  0  0  0  0  0  0  0  0
   -2.6930   20.1680  -32.2980 H   0  0  0  0  0  0  0  0  0  0  0  0
  1  2  2  0
  2  3  1  0
  3  4  2  0
  4  5  1  0
  5  6  2  0
  6  7  1  0
  6  8  1  0
  8  9  1  0
  9 10  1  0
 10 11  2  0
 10 12  2  0
 10 13  1  0
 13 14  2  0
 14 15  1  0
 15 16  2  0
 16 17  1  0
 17 18  2  0
 17 19  2  0
 17 20  1  0
 20 21  1  0
 21 22  1  0
 22 23  1  0
 23 24  1  0
 16 25  1  0
 25 26  2  0
  8 27  2  0
  2 28  1  0
 28 29  1  0
 29 30  1  0
 30 31  1  0
 31 32  1  0
 31 33  1  0
 33 34  1  0
 27  3  1  0
 34 28  1  0
 26 13  1  0
 24 20  1  0
  4 35  1  0
  5 36  1  0
  7 37  1  0
 14 38  1  0
 15 39  1  0
 21 40  1  0
 21 41  1  0
 22 42  1  0
 22 43  1  0
 23 44  1  0
 23 45  1  0
 24 46  1  0
 24 47  1  0
 25 48  1  0
 26 49  1  0
 27 50  1  0
 29 51  1  0
 29 52  1  0
 30 53  1  0
 30 54  1  0
 31 55  1  0
 32 56  1  0
 33 57  1  0
 33 58  1  0
 34 59  1  0
 34 60  1  0
M  CHG  1   9  -1
M  END
>  <UniqueID>  (14) 
13

>  <SMILES>  (14) 
O=C(c1ccc(O)c([N-]S(=O)(=O)c2ccc(S(=O)(=O)N3CCCC3)cc2)c1)N1CCC(O)CC1

>  <Energy>  (14) 
75.16085914540352

>  <Genealogy>  (14) 
O=C(c1ccc(O)c([N-]S(=O)(=O)c2ccc(S(=O)(=O)N3CCCC3)cc2)c1)N1CCC(O)CC1 (protonated)
O=C(c1ccc(O)c([N-]S(=O)(=O)c2ccc(S(=O)(=O)N3CCCC3)cc2)c1)N1CCC(O)CC1 (3D coordinates assigned)
O=C(c1ccc(O)c([N-]S(=O)(=O)c2ccc(S(=O)(=O)N3CCCC3)cc2)c1)N1CCC(O)CC1 (nonaromatic ring conformer: 75.16085914540352 kcal/mol)

>  <smiles>  (14) 
O=C(c1ccc(O)c(NS(=O)(=O)c2ccc(S(=O)(=O)N3CCCC3)cc2)c1)N1CCC(O)CC1

>  <score_type>  (14) 
oracle

>  <origin>  (14) 
adgpu

>  <m_score__min__energy>  (14) 
-12.369999999999999

>  <m_primary>  (14) 
energy

$$$$
14:0
     RDKit          3D

 47 50  0  0  0  0  0  0  0  0999 V2000
   -2.2140   19.0100  -33.8710 C   0  0  0  0  0  0  0  0  0  0  0  0
   -2.4690   17.3980  -34.6760 S   0  0  0  0  0  0  0  0  0  0  0  0
   -4.1960   17.2830  -34.1780 C   0  0  0  0  0  0  0  0  0  0  0  0
   -4.8260   18.4310  -33.6790 C   0  0  0  0  0  0  0  0  0  0  0  0
   -6.1710   18.3950  -33.2810 C   0  0  0  0  0  0  0  0  0  0  0  0
   -6.8150   19.6090  -32.7370 C   0  0  0  0  0  0  0  0  0  0  0  0
   -8.1870   19.8320  -32.6320 C   0  0  0  0  0  0  0  0  0  0  0  0
   -8.4250   21.0510  -32.0970 N   0  0  0  0  0  0  0  0  0  0  0  0
   -9.7340   21.6250  -31.8040 C   0  0  0  0  0  0  0  0  0  0  0  0
   -7.2200   21.5980  -31.8420 C   0  0  0  0  0  0  0  0  0  0  0  0
   -6.9520   22.8330  -31.2480 C   0  0  0  0  0  0  0  0  0  0  0  0
   -5.6070   23.1850  -31.0230 C   0  0  0  0  0  0  0  0  0  0  0  0
   -5.2200   24.7200  -30.2550 S   0  0  0  0  0  0  0  0  0  0  0  0
   -6.3650   25.6720  -30.4630 O   0  0  0  0  0  0  0  0  0  0  0  0
   -3.9760   25.3120  -30.8550 O   0  0  0  0  0  0  0  0  0  0  0  0
   -4.9710   24.4900  -28.5530 N   0  0  0  0  0  0  0  0  0  0  0  0
   -3.8040   23.8630  -28.0100 C   0  0  0  0  0  0  0  0  0  0  0  0
   -2.8160   24.5380  -27.2920 C   0  0  0  0  0  0  0  0  0  0  0  0
   -1.6440   23.4140  -26.8660 S   0  0  0  0  0  0  0  0  0  0  0  0
   -2.4310   22.1250  -27.5990 C   0  0  0  0  0  0  0  0  0  0  0  0
   -3.5850   22.5300  -28.1740 N   0  0  0  0  0  0  0  0  0  0  0  0
   -4.5710   22.2990  -31.3990 C   0  0  0  0  0  0  0  0  0  0  0  0
   -4.8700   21.0610  -31.9940 C   0  0  0  0  0  0  0  0  0  0  0  0
   -6.2110   20.7450  -32.2180 C   0  0  0  0  0  0  0  0  0  0  0  0
   -6.8770   17.1850  -33.3670 C   0  0  0  0  0  0  0  0  0  0  0  0
   -6.2580   16.0400  -33.8720 C   0  0  0  0  0  0  0  0  0  0  0  0
   -4.9200   16.0770  -34.2920 C   0  0  0  0  0  0  0  0  0  0  0  0
   -4.2750   14.8330  -34.8380 C   0  0  0  0  0  0  0  0  0  0  0  0
   -2.2343   18.8817  -32.7787 H   0  0  0  0  0  0  0  0  0  0  0  0
   -1.2397   19.4210  -34.1738 H   0  0  0  0  0  0  0  0  0  0  0  0
   -3.0139   19.7017  -34.1738 H   0  0  0  0  0  0  0  0  0  0  0  0
   -4.2599   19.3707  -33.5984 H   0  0  0  0  0  0  0  0  0  0  0  0
   -8.9651   19.1182  -32.9403 H   0  0  0  0  0  0  0  0  0  0  0  0
   -9.8722   21.6856  -30.7144 H   0  0  0  0  0  0  0  0  0  0  0  0
   -9.7976   22.6336  -32.2384 H   0  0  0  0  0  0  0  0  0  0  0  0
  -10.5190   20.9885  -32.2384 H   0  0  0  0  0  0  0  0  0  0  0  0
   -7.7690   23.5124  -30.9636 H   0  0  0  0  0  0  0  0  0  0  0  0
   -5.7300   24.7900  -27.9020 H   0  0  0  0  0  0  0  0  0  0  0  0
   -2.8068   25.6109  -27.0494 H   0  0  0  0  0  0  0  0  0  0  0  0
   -2.0577   21.0903  -27.6098 H   0  0  0  0  0  0  0  0  0  0  0  0
   -3.5222   22.5810  -31.2244 H   0  0  0  0  0  0  0  0  0  0  0  0
   -4.0696   20.3609  -32.2752 H   0  0  0  0  0  0  0  0  0  0  0  0
   -7.9245   17.1385  -33.0345 H   0  0  0  0  0  0  0  0  0  0  0  0
   -6.8249   15.0999  -33.9412 H   0  0  0  0  0  0  0  0  0  0  0  0
   -3.9444   14.1954  -34.0048 H   0  0  0  0  0  0  0  0  0  0  0  0
   -5.0017   14.2834  -35.4543 H   0  0  0  0  0  0  0  0  0  0  0  0
   -3.4071   15.1102  -35.4543 H   0  0  0  0  0  0  0  0  0  0  0  0
  1  2  1  0
  2  3  1  0
  3  4  2  0
  4  5  1  0
  5  6  1  0
  6  7  2  0
  7  8  1  0
  8  9  1  0
  8 10  1  0
 10 11  2  0
 11 12  1  0
 12 13  1  0
 13 14  2  0
 13 15  2  0
 13 16  1  0
 16 17  1  0
 17 18  2  0
 18 19  1  0
 19 20  1  0
 20 21  2  0
 12 22  2  0
 22 23  1  0
 23 24  2  0
  5 25  2  0
 25 26  1  0
 26 27  2  0
 27 28  1  0
 27  3  1  0
 24  6  1  0
 24 10  1  0
 21 17  1  0
  1 29  1  0
  1 30  1  0
  1 31  1  0
  4 32  1  0
  7 33  1  0
  9 34  1  0
  9 35  1  0
  9 36  1  0
 11 37  1  0
 16 38  1  0
 18 39  1  0
 20 40  1  0
 22 41  1  0
 23 42  1  0
 25 43  1  0
 26 44  1  0
 28 45  1  0
 28 46  1  0
 28 47  1  0
M  END
>  <UniqueID>  (15) 
14

>  <SMILES>  (15) 
CSc1cc(-c2cn(C)c3cc(S(=O)(=O)Nc4cscn4)ccc23)ccc1C

>  <Energy>  (15) 
115.07352460597895

>  <Genealogy>  (15) 
CSc1cc(-c2cn(C)c3cc(S(=O)(=O)Nc4cscn4)ccc23)ccc1C (3D coordinates assigned)
CSc1cc(-c2cn(C)c3cc(S(=O)(=O)Nc4cscn4)ccc23)ccc1C (optimized conformer: 115.07352460597895 kcal/mol)

>  <smiles>  (15) 
CSc1cc(-c2cn(C)c3cc(S(=O)(=O)Nc4cscn4)ccc23)ccc1C

>  <score_type>  (15) 
oracle

>  <origin>  (15) 
adgpu

>  <m_score__min__energy>  (15) 
-10.640000000000001

>  <m_primary>  (15) 
energy

$$$$
15:0
     RDKit          3D

 62 65  0  0  0  0  0  0  0  0999 V2000
   -1.8360   17.4420  -34.5950 C   0  0  0  0  0  0  0  0  0  0  0  0
   -2.2420   18.8720  -34.2160 C   0  0  0  0  0  0  0  0  0  0  0  0
   -2.9840   18.8820  -32.8530 C   0  0  0  0  0  0  0  0  0  0  0  0
   -2.7550   20.1860  -32.0850 C   0  0  0  0  0  0  0  0  0  0  0  0
   -1.3160   20.3810  -31.8540 N   0  0  0  0  0  0  0  0  0  0  0  0
   -0.8260   20.8400  -30.5790 C   0  0  0  0  0  0  0  0  0  0  0  0
    0.2710   20.3940  -30.1420 O   0  0  0  0  0  0  0  0  0  0  0  0
   -1.5770   21.8210  -29.7610 C   0  0  0  0  0  0  0  0  0  0  0  0
   -1.6870   21.6630  -28.3700 C   0  0  0  0  0  0  0  0  0  0  0  0
   -2.3940   22.5970  -27.6070 C   0  0  0  0  0  0  0  0  0  0  0  0
   -3.0140   23.6910  -28.2250 C   0  0  0  0  0  0  0  0  0  0  0  0
   -3.7060   24.6310  -27.4620 O   0  0  0  0  0  0  0  0  0  0  0  0
   -2.9390   23.8350  -29.6170 C   0  0  0  0  0  0  0  0  0  0  0  0
   -3.5860   24.9290  -30.2670 N   0  0  0  0  0  0  0  0  0  0  0  0
   -5.3100   25.0580  -30.2680 S   0  0  0  0  0  0  0  0  0  0  0  0
   -5.7320   26.1740  -31.1840 O   0  0  0  0  0  0  0  0  0  0  0  0
   -5.7820   25.3760  -28.8780 O   0  0  0  0  0  0  0  0  0  0  0  0
   -6.0170   23.5340  -30.7950 C   0  0  0  0  0  0  0  0  0  0  0  0
   -7.4080   23.3620  -30.7900 C   0  0  0  0  0  0  0  0  0  0  0  0
   -7.9710   22.1710  -31.2580 C   0  0  0  0  0  0  0  0  0  0  0  0
   -7.1470   21.1450  -31.7430 C   0  0  0  0  0  0  0  0  0  0  0  0
   -7.8370   19.6360  -32.3340 S   0  0  0  0  0  0  0  0  0  0  0  0
   -8.5740   18.9360  -31.2230 O   0  0  0  0  0  0  0  0  0  0  0  0
   -8.8100   19.9450  -33.4370 O   0  0  0  0  0  0  0  0  0  0  0  0
   -6.5570   18.6230  -32.9490 N   0  0  0  0  0  0  0  0  0  0  0  0
   -7.0040   17.2400  -33.1130 C   0  0  0  0  0  0  0  0  0  0  0  0
   -6.1770   16.6420  -34.2410 C   0  0  0  0  0  0  0  0  0  0  0  0
   -5.5540   17.8280  -34.9620 C   0  0  0  0  0  0  0  0  0  0  0  0
   -6.1280   19.0560  -34.2770 C   0  0  0  0  0  0  0  0  0  0  0  0
   -5.7560   21.3160  -31.7440 C   0  0  0  0  0  0  0  0  0  0  0  0
   -5.1930   22.5070  -31.2750 C   0  0  0  0  0  0  0  0  0  0  0  0
   -2.2220   22.9050  -30.3800 C   0  0  0  0  0  0  0  0  0  0  0  0
   -0.3470   19.9710  -32.8830 C   0  0  0  0  0  0  0  0  0  0  0  0
   -1.0220   19.8270  -34.2520 C   0  0  0  0  0  0  0  0  0  0  0  0
   -1.6690   16.8537  -33.6806 H   0  0  0  0  0  0  0  0  0  0  0  0
   -2.6379   16.9781  -35.1881 H   0  0  0  0  0  0  0  0  0  0  0  0
   -0.9100   17.4687  -35.1881 H   0  0  0  0  0  0  0  0  0  0  0  0
   -2.9500   19.2539  -34.9662 H   0  0  0  0  0  0  0  0  0  0  0  0
   -4.0622   18.7615  -33.0347 H   0  0  0  0  0  0  0  0  0  0  0  0
   -2.5882   18.0554  -32.2446 H   0  0  0  0  0  0  0  0  0  0  0  0
   -3.1484   21.0293  -32.6715 H   0  0  0  0  0  0  0  0  0  0  0  0
   -3.2748   20.1338  -31.1170 H   0  0  0  0  0  0  0  0  0  0  0  0
   -1.2145   20.7999  -27.8782 H   0  0  0  0  0  0  0  0  0  0  0  0
   -2.4639   22.4724  -26.5163 H   0  0  0  0  0  0  0  0  0  0  0  0
   -4.2940   25.3340  -27.8920 H   0  0  0  0  0  0  0  0  0  0  0  0
   -8.0587   24.1665  -30.4167 H   0  0  0  0  0  0  0  0  0  0  0  0
   -9.0629   22.0383  -31.2458 H   0  0  0  0  0  0  0  0  0  0  0  0
   -6.8398   16.6761  -32.1829 H   0  0  0  0  0  0  0  0  0  0  0  0
   -8.0783   17.1972  -33.3455 H   0  0  0  0  0  0  0  0  0  0  0  0
   -5.3941   15.9838  -33.8363 H   0  0  0  0  0  0  0  0  0  0  0  0
   -6.7920   16.0305  -34.9177 H   0  0  0  0  0  0  0  0  0  0  0  0
   -4.4586   17.8077  -34.8631 H   0  0  0  0  0  0  0  0  0  0  0  0
   -5.7752   17.8169  -36.0395 H   0  0  0  0  0  0  0  0  0  0  0  0
   -5.3598   19.8388  -34.1925 H   0  0  0  0  0  0  0  0  0  0  0  0
   -6.9670   19.4775  -34.8501 H   0  0  0  0  0  0  0  0  0  0  0  0
   -5.1050   20.5107  -32.1149 H   0  0  0  0  0  0  0  0  0  0  0  0
   -4.1009   22.6381  -31.2828 H   0  0  0  0  0  0  0  0  0  0  0  0
   -2.1633   23.0240  -31.4720 H   0  0  0  0  0  0  0  0  0  0  0  0
    0.4463   20.7299  -32.9518 H   0  0  0  0  0  0  0  0  0  0  0  0
    0.0739   18.9958  -32.5971 H   0  0  0  0  0  0  0  0  0  0  0  0
   -1.3608   20.8194  -34.5841 H   0  0  0  0  0  0  0  0  0  0  0  0
   -0.2830   19.3984  -34.9450 H   0  0  0  0  0  0  0  0  0  0  0  0
  1  2  1  0
  2  3  1  0
  3  4  1  0
  4  5  1  0
  5  6  1  0
  6  7  2  0
  6  8  1  0
  8  9  2  0
  9 10  1  0
 10 11  2  0
 11 12  1  0
 11 13  1  0
 13 14  1  0
 14 15  1  0
 15 16  2  0
 15 17  2  0
 15 18  1  0
 18 19  2  0
 19 20  1  0
 20 21  2  0
 21 22  1  0
 22 23  2  0
 22 24  2  0
 22 25  1  0
 25 26  1  0
 26 27  1  0
 27 28  1  0
 28 29  1  0
 21 30  1  0
 30 31  2  0
 13 32  2  0
  5 33  1  0
 33 34  1  0
 34  2  1  0
 32  8  1  0
 31 18  1  0
 29 25  1  0
  1 35  1  0
  1 36  1  0
  1 37  1  0
  2 38  1  0
  3 39  1  0
  3 40  1  0
  4 41  1  0
  4 42  1  0
  9 43  1  0
 10 44  1  0
 12 45  1  0
 19 46  1  0
 20 47  1  0
 26 48  1  0
 26 49  1  0
 27 50  1  0
 27 51  1  0
 28 52  1  0
 28 53  1  0
 29 54  1  0
 29 55  1  0
 30 56  1  0
 31 57  1  0
 32 58  1  0
 33 59  1  0
 33 60  1  0
 34 61  1  0
 34 62  1  0
M  CHG  1  14  -1
M  END
>  <UniqueID>  (16) 
15

>  <SMILES>  (16) 
CC1CCN(C(=O)c2ccc(O)c([N-]S(=O)(=O)c3ccc(S(=O)(=O)N4CCCC4)cc3)c2)CC1

>  <Energy>  (16) 
77.83003677723754

>  <Genealogy>  (16) 
CC1CCN(C(=O)c2ccc(O)c([N-]S(=O)(=O)c3ccc(S(=O)(=O)N4CCCC4)cc3)c2)CC1 (protonated)
CC1CCN(C(=O)c2ccc(O)c([N-]S(=O)(=O)c3ccc(S(=O)(=O)N4CCCC4)cc3)c2)CC1 (3D coordinates assigned)
CC1CCN(C(=O)c2ccc(O)c([N-]S(=O)(=O)c3ccc(S(=O)(=O)N4CCCC4)cc3)c2)CC1 (nonaromatic ring conformer: 77.83003677723754 kcal/mol)

>  <smiles>  (16) 
CC1CCN(C(=O)c2ccc(O)c(NS(=O)(=O)c3ccc(S(=O)(=O)N4CCCC4)cc3)c2)CC1

>  <score_type>  (16) 
oracle

>  <origin>  (16) 
adgpu

>  <m_score__min__energy>  (16) 
-13.51

>  <m_primary>  (16) 
energy

$$$$
16:0
     RDKit          3D

 70 74  0  0  0  0  0  0  0  0999 V2000
   -5.7300   26.3000  -30.1340 C   0  0  0  0  0  0  0  0  0  0  0  0
   -5.5740   24.8440  -30.4570 C   0  0  0  0  0  0  0  0  0  0  0  0
   -4.3480   24.1820  -30.1910 C   0  0  0  0  0  0  0  0  0  0  0  0
   -4.1740   22.8310  -30.5370 C   0  0  0  0  0  0  0  0  0  0  0  0
   -5.2370   22.1690  -31.1580 C   0  0  0  0  0  0  0  0  0  0  0  0
   -6.4200   22.8090  -31.4210 C   0  0  0  0  0  0  0  0  0  0  0  0
   -6.6250   24.1480  -31.0930 C   0  0  0  0  0  0  0  0  0  0  0  0
   -7.2560   21.9090  -32.0450 C   0  0  0  0  0  0  0  0  0  0  0  0
   -6.5170   20.7340  -32.1480 C   0  0  0  0  0  0  0  0  0  0  0  0
   -7.0220   19.5090  -32.8060 C   0  0  0  0  0  0  0  0  0  0  0  0
   -8.2560   19.4340  -33.0680 O   0  0  0  0  0  0  0  0  0  0  0  0
   -6.1080   18.5060  -33.3110 N   0  0  0  0  0  0  0  0  0  0  0  0
   -6.4460   17.1470  -32.8150 C   0  0  0  0  0  0  0  0  0  0  0  0
   -5.9790   16.0210  -33.7710 C   0  0  0  0  0  0  0  0  0  0  0  0
   -4.7880   16.3930  -34.5610 N   0  0  0  0  0  0  0  0  0  0  0  0
   -3.5570   16.3690  -33.7520 C   0  0  0  0  0  0  0  0  0  0  0  0
   -4.9550   17.6550  -35.3240 C   0  0  0  0  0  0  0  0  0  0  0  0
   -6.0810   18.5540  -34.7810 C   0  0  0  0  0  0  0  0  0  0  0  0
   -5.2810   20.8910  -31.5950 N   0  0  0  0  0  0  0  0  0  0  0  0
   -4.2270   19.8840  -31.4320 C   0  0  0  0  0  0  0  0  0  0  0  0
   -3.0300   20.1410  -32.3220 C   0  0  0  0  0  0  0  0  0  0  0  0
   -3.0610   19.6620  -33.6410 C   0  0  0  0  0  0  0  0  0  0  0  0
   -2.0060   19.9280  -34.5180 C   0  0  0  0  0  0  0  0  0  0  0  0
   -0.9120   20.6910  -34.0940 C   0  0  0  0  0  0  0  0  0  0  0  0
    0.3950   21.0380  -35.2210 S   0  0  0  0  0  0  0  0  0  0  0  0
   -0.1140   20.8480  -36.6230 O   0  0  0  0  0  0  0  0  0  0  0  0
    1.5460   20.0990  -34.9850 O   0  0  0  0  0  0  0  0  0  0  0  0
    0.9330   22.6860  -34.9990 N   0  0  0  0  0  0  0  0  0  0  0  0
    2.4170   22.7660  -34.9930 C   0  0  0  0  0  0  0  0  0  0  0  0
    2.9940   23.3040  -36.3100 C   0  0  0  0  0  0  0  0  0  0  0  0
    2.4410   24.7040  -36.6290 C   0  0  0  0  0  0  0  0  0  0  0  0
    1.0020   24.9050  -36.1190 C   0  0  0  0  0  0  0  0  0  0  0  0
    0.2720   23.5660  -35.9860 C   0  0  0  0  0  0  0  0  0  0  0  0
   -0.8700   21.1730  -32.7800 C   0  0  0  0  0  0  0  0  0  0  0  0
   -1.9210   20.9000  -31.8990 C   0  0  0  0  0  0  0  0  0  0  0  0
   -5.7443   26.4339  -29.0423 H   0  0  0  0  0  0  0  0  0  0  0  0
   -4.8870   26.8628  -30.5614 H   0  0  0  0  0  0  0  0  0  0  0  0
   -6.6731   26.6714  -30.5614 H   0  0  0  0  0  0  0  0  0  0  0  0
   -3.5256   24.7313  -29.7093 H   0  0  0  0  0  0  0  0  0  0  0  0
   -3.2288   22.3097  -30.3253 H   0  0  0  0  0  0  0  0  0  0  0  0
   -7.5775   24.6478  -31.3229 H   0  0  0  0  0  0  0  0  0  0  0  0
   -8.2867   22.0820  -32.3882 H   0  0  0  0  0  0  0  0  0  0  0  0
   -5.1490   18.7430  -32.9780 H   0  0  0  0  0  0  0  0  0  0  0  0
   -5.9628   17.0002  -31.8378 H   0  0  0  0  0  0  0  0  0  0  0  0
   -7.5420   17.0854  -32.7442 H   0  0  0  0  0  0  0  0  0  0  0  0
   -5.7385   15.1300  -33.1724 H   0  0  0  0  0  0  0  0  0  0  0  0
   -6.7981   15.8300  -34.4800 H   0  0  0  0  0  0  0  0  0  0  0  0
   -3.8200   16.3741  -32.6839 H   0  0  0  0  0  0  0  0  0  0  0  0
   -2.9834   15.4595  -33.9840 H   0  0  0  0  0  0  0  0  0  0  0  0
   -2.9484   17.2554  -33.9840 H   0  0  0  0  0  0  0  0  0  0  0  0
   -4.0098   18.2160  -35.2811 H   0  0  0  0  0  0  0  0  0  0  0  0
   -5.2283   17.3784  -36.3530 H   0  0  0  0  0  0  0  0  0  0  0  0
   -5.9074   19.5901  -35.1072 H   0  0  0  0  0  0  0  0  0  0  0  0
   -7.0453   18.1936  -35.1687 H   0  0  0  0  0  0  0  0  0  0  0  0
   -3.8937   19.8901  -30.3837 H   0  0  0  0  0  0  0  0  0  0  0  0
   -4.6509   18.9103  -31.7188 H   0  0  0  0  0  0  0  0  0  0  0  0
   -3.9227   19.0724  -33.9872 H   0  0  0  0  0  0  0  0  0  0  0  0
   -2.0355   19.5362  -35.5454 H   0  0  0  0  0  0  0  0  0  0  0  0
    2.7288   23.4326  -34.1755 H   0  0  0  0  0  0  0  0  0  0  0  0
    2.8011   21.7440  -34.8586 H   0  0  0  0  0  0  0  0  0  0  0  0
    4.0892   23.3616  -36.2249 H   0  0  0  0  0  0  0  0  0  0  0  0
    2.7035   22.6214  -37.1222 H   0  0  0  0  0  0  0  0  0  0  0  0
    3.0903   25.4551  -36.1555 H   0  0  0  0  0  0  0  0  0  0  0  0
    2.4238   24.8130  -37.7235 H   0  0  0  0  0  0  0  0  0  0  0  0
    1.0349   25.3955  -35.1349 H   0  0  0  0  0  0  0  0  0  0  0  0
    0.4584   25.5286  -36.8440 H   0  0  0  0  0  0  0  0  0  0  0  0
   -0.7625   23.7532  -35.6622 H   0  0  0  0  0  0  0  0  0  0  0  0
    0.2904   23.0635  -36.9643 H   0  0  0  0  0  0  0  0  0  0  0  0
   -0.0089   21.7673  -32.4403 H   0  0  0  0  0  0  0  0  0  0  0  0
   -1.8816   21.2808  -30.8678 H   0  0  0  0  0  0  0  0  0  0  0  0
  1  2  1  0
  2  3  2  0
  3  4  1  0
  4  5  2  0
  5  6  1  0
  6  7  2  0
  6  8  1  0
  8  9  2  0
  9 10  1  0
 10 11  2  0
 10 12  1  0
 12 13  1  0
 13 14  1  0
 14 15  1  0
 15 16  1  0
 15 17  1  0
 17 18  1  0
  9 19  1  0
 19 20  1  0
 20 21  1  0
 21 22  2  0
 22 23  1  0
 23 24  2  0
 24 25  1  0
 25 26  2  0
 25 27  2  0
 25 28  1  0
 28 29  1  0
 29 30  1  0
 30 31  1  0
 31 32  1  0
 32 33  1  0
 24 34  1  0
 34 35  2  0
  7  2  1  0
 18 12  1  0
 35 21  1  0
 19  5  1  0
 33 28  1  0
  1 36  1  0
  1 37  1  0
  1 38  1  0
  3 39  1  0
  4 40  1  0
  7 41  1  0
  8 42  1  0
 12 43  1  0
 13 44  1  0
 13 45  1  0
 14 46  1  0
 14 47  1  0
 16 48  1  0
 16 49  1  0
 16 50  1  0
 17 51  1  0
 17 52  1  0
 18 53  1  0
 18 54  1  0
 20 55  1  0
 20 56  1  0
 22 57  1  0
 23 58  1  0
 29 59  1  0
 29 60  1  0
 30 61  1  0
 30 62  1  0
 31 63  1  0
 31 64  1  0
 32 65  1  0
 32 66  1  0
 33 67  1  0
 33 68  1  0
 34 69  1  0
 35 70  1  0
M  CHG  1  12   1
M  END
>  <UniqueID>  (17) 
16

>  <SMILES>  (17) 
Cc1ccc2c(c1)cc(C(=O)[NH+]1CCN(C)CC1)n2Cc1ccc(S(=O)(=O)N2CCCCC2)cc1

>  <Energy>  (17) 
127.26230878490584

>  <Genealogy>  (17) 
Cc1ccc2c(c1)cc(C(=O)[NH+]1CCN(C)CC1)n2Cc1ccc(S(=O)(=O)N2CCCCC2)cc1 (protonated)
Cc1ccc2c(c1)cc(C(=O)[NH+]1CCN(C)CC1)n2Cc1ccc(S(=O)(=O)N2CCCCC2)cc1 (3D coordinates assigned)
Cc1ccc2c(c1)cc(C(=O)[NH+]1CCN(C)CC1)n2Cc1ccc(S(=O)(=O)N2CCCCC2)cc1 (nonaromatic ring conformer: 127.26230878490584 kcal/mol)

>  <smiles>  (17) 
Cc1ccc2c(c1)cc(C(=O)N1CCN(C)CC1)n2Cc1ccc(S(=O)(=O)N2CCCCC2)cc1

>  <score_type>  (17) 
oracle

>  <origin>  (17) 
adgpu

>  <m_score__min__energy>  (17) 
-9.6300000000000008

>  <m_primary>  (17) 
energy

$$$$
17:0
     RDKit          3D

 36 37  0  0  0  0  0  0  0  0999 V2000
   -1.0830   19.6460  -28.4610 C   0  0  0  0  0  0  0  0  0  0  0  0
   -2.0290   20.7700  -27.4580 S   0  0  0  0  0  0  0  0  0  0  0  0
   -1.5890   20.6320  -26.0260 O   0  0  0  0  0  0  0  0  0  0  0  0
   -3.4900   20.4310  -27.5530 O   0  0  0  0  0  0  0  0  0  0  0  0
   -1.7730   22.4200  -28.0200 C   0  0  0  0  0  0  0  0  0  0  0  0
   -0.6610   23.1580  -27.5950 C   0  0  0  0  0  0  0  0  0  0  0  0
   -0.4860   24.4730  -28.0290 C   0  0  0  0  0  0  0  0  0  0  0  0
   -1.4160   25.0590  -28.8930 C   0  0  0  0  0  0  0  0  0  0  0  0
   -1.2330   26.3750  -29.3040 O   0  0  0  0  0  0  0  0  0  0  0  0
   -2.5220   24.3250  -29.3450 C   0  0  0  0  0  0  0  0  0  0  0  0
   -3.4760   24.9700  -30.2030 N   0  0  0  0  0  0  0  0  0  0  0  0
   -4.9050   24.8630  -30.1420 C   0  0  0  0  0  0  0  0  0  0  0  0
   -5.5850   25.6700  -29.4510 O   0  0  0  0  0  0  0  0  0  0  0  0
   -5.5860   23.7240  -30.8320 C   0  0  0  0  0  0  0  0  0  0  0  0
   -4.8750   23.3640  -32.0690 N   0  0  0  0  0  0  0  0  0  0  0  0
   -4.7760   21.9070  -32.2580 C   0  0  0  0  0  0  0  0  0  0  0  0
   -3.3640   21.4390  -32.0960 C   0  0  0  0  0  0  0  0  0  0  0  0
   -2.9290   20.1310  -32.1860 C   0  0  0  0  0  0  0  0  0  0  0  0
   -1.5670   20.1800  -31.9800 C   0  0  0  0  0  0  0  0  0  0  0  0
   -1.2580   21.5110  -31.7790 C   0  0  0  0  0  0  0  0  0  0  0  0
   -2.3490   22.2360  -31.8530 O   0  0  0  0  0  0  0  0  0  0  0  0
   -2.7020   23.0050  -28.8910 C   0  0  0  0  0  0  0  0  0  0  0  0
   -0.5115   18.9669  -27.8112 H   0  0  0  0  0  0  0  0  0  0  0  0
   -1.7634   19.0597  -29.0960 H   0  0  0  0  0  0  0  0  0  0  0  0
   -0.3891   20.2163  -29.0960 H   0  0  0  0  0  0  0  0  0  0  0  0
    0.0756   22.7005  -26.9181 H   0  0  0  0  0  0  0  0  0  0  0  0
    0.3868   25.0504  -27.6900 H   0  0  0  0  0  0  0  0  0  0  0  0
   -5.6040   22.8535  -30.1597 H   0  0  0  0  0  0  0  0  0  0  0  0
   -6.6109   24.0291  -31.0897 H   0  0  0  0  0  0  0  0  0  0  0  0
   -3.8980   23.7290  -31.9820 H   0  0  0  0  0  0  0  0  0  0  0  0
   -5.4093   21.4039  -31.5125 H   0  0  0  0  0  0  0  0  0  0  0  0
   -5.1110   21.6626  -33.2768 H   0  0  0  0  0  0  0  0  0  0  0  0
   -3.5409   19.2380  -32.3811 H   0  0  0  0  0  0  0  0  0  0  0  0
   -0.8677   19.3309  -31.9764 H   0  0  0  0  0  0  0  0  0  0  0  0
   -0.2490   21.9041  -31.5859 H   0  0  0  0  0  0  0  0  0  0  0  0
   -3.5782   22.4284  -29.2222 H   0  0  0  0  0  0  0  0  0  0  0  0
  1  2  1  0
  2  3  2  0
  2  4  2  0
  2  5  1  0
  5  6  2  0
  6  7  1  0
  7  8  2  0
  8  9  1  0
  8 10  1  0
 10 11  1  0
 11 12  1  0
 12 13  2  0
 12 14  1  0
 14 15  1  0
 15 16  1  0
 16 17  1  0
 17 18  2  0
 18 19  1  0
 19 20  2  0
 20 21  1  0
 10 22  2  0
 22  5  1  0
 21 17  1  0
  1 23  1  0
  1 24  1  0
  1 25  1  0
  6 26  1  0
  7 27  1  0
 14 28  1  0
 14 29  1  0
 15 30  1  0
 16 31  1  0
 16 32  1  0
 18 33  1  0
 19 34  1  0
 20 35  1  0
 22 36  1  0
M  CHG  2   9  -1  11  -1
M  END
>  <UniqueID>  (18) 
17

>  <SMILES>  (18) 
CS(=O)(=O)c1ccc([O-])c([N-]C(=O)CNCc2ccco2)c1

>  <Energy>  (18) 
58.129563885999254

>  <Genealogy>  (18) 
CS(=O)(=O)c1ccc([O-])c([N-]C(=O)CNCc2ccco2)c1 (protonated)
CS(=O)(=O)c1ccc([O-])c([N-]C(=O)CNCc2ccco2)c1 (3D coordinates assigned)
CS(=O)(=O)c1ccc([O-])c([N-]C(=O)CNCc2ccco2)c1 (optimized conformer: 58.129563885999254 kcal/mol)

>  <smiles>  (18) 
CS(=O)(=O)c1ccc(O)c(NC(=O)CNCc2ccco2)c1

>  <score_type>  (18) 
oracle

>  <origin>  (18) 
adgpu

>  <m_score__min__energy>  (18) 
-11.41

>  <m_primary>  (18) 
energy

$$$$
18:0
     RDKit          3D

 56 60  0  0  0  0  0  0  0  0999 V2000
    0.4020   25.3630  -36.5210 C   0  0  0  0  0  0  0  0  0  0  0  0
    1.4010   24.2550  -36.4880 C   0  0  0  0  0  0  0  0  0  0  0  0
    2.5940   24.2710  -37.1290 N   0  0  0  0  0  0  0  0  0  0  0  0
    3.2180   23.1280  -36.8440 N   0  0  0  0  0  0  0  0  0  0  0  0
    2.3900   22.4440  -36.0320 C   0  0  0  0  0  0  0  0  0  0  0  0
    2.5970   21.2000  -35.4540 C   0  0  0  0  0  0  0  0  0  0  0  0
    1.5780   20.7060  -34.6220 C   0  0  0  0  0  0  0  0  0  0  0  0
    0.3990   21.4690  -34.4070 C   0  0  0  0  0  0  0  0  0  0  0  0
   -0.6570   20.9970  -33.5460 N   0  0  0  0  0  0  0  0  0  0  0  0
   -0.7540   21.4340  -32.1470 C   0  0  0  0  0  0  0  0  0  0  0  0
   -1.4230   20.3460  -31.2900 C   0  0  0  0  0  0  0  0  0  0  0  0
   -2.7310   19.8670  -31.8320 N   0  0  0  0  0  0  0  0  0  0  0  0
   -3.8850   20.2670  -31.0450 C   0  0  0  0  0  0  0  0  0  0  0  0
   -4.9790   19.6630  -31.2180 O   0  0  0  0  0  0  0  0  0  0  0  0
   -3.8590   21.3840  -30.0660 C   0  0  0  0  0  0  0  0  0  0  0  0
   -3.1860   21.2100  -28.8440 C   0  0  0  0  0  0  0  0  0  0  0  0
   -3.1500   22.2350  -27.8980 C   0  0  0  0  0  0  0  0  0  0  0  0
   -3.7740   23.4530  -28.1650 C   0  0  0  0  0  0  0  0  0  0  0  0
   -4.4380   23.6490  -29.3770 C   0  0  0  0  0  0  0  0  0  0  0  0
   -4.4870   22.6260  -30.3400 C   0  0  0  0  0  0  0  0  0  0  0  0
   -5.3570   22.9280  -31.8560 S   0  0  0  0  0  0  0  0  0  0  0  0
   -5.7390   24.3790  -31.9590 O   0  0  0  0  0  0  0  0  0  0  0  0
   -4.4610   22.6000  -33.0180 O   0  0  0  0  0  0  0  0  0  0  0  0
   -6.8330   21.9720  -31.9180 C   0  0  0  0  0  0  0  0  0  0  0  0
   -7.9120   22.3110  -31.0910 C   0  0  0  0  0  0  0  0  0  0  0  0
   -9.0800   21.5430  -31.1110 C   0  0  0  0  0  0  0  0  0  0  0  0
   -9.1770   20.4360  -31.9590 C   0  0  0  0  0  0  0  0  0  0  0  0
   -8.1090   20.1000  -32.7930 C   0  0  0  0  0  0  0  0  0  0  0  0
   -6.9390   20.8650  -32.7760 C   0  0  0  0  0  0  0  0  0  0  0  0
   -2.9590   20.1790  -33.2610 C   0  0  0  0  0  0  0  0  0  0  0  0
   -1.6690   20.0790  -34.0810 C   0  0  0  0  0  0  0  0  0  0  0  0
    0.2800   22.6890  -35.0140 N   0  0  0  0  0  0  0  0  0  0  0  0
    1.2680   23.1190  -35.7950 N   0  0  0  0  0  0  0  0  0  0  0  0
    0.1412   25.6523  -35.4923 H   0  0  0  0  0  0  0  0  0  0  0  0
    0.8313   26.2282  -37.0475 H   0  0  0  0  0  0  0  0  0  0  0  0
   -0.5028   25.0253  -37.0475 H   0  0  0  0  0  0  0  0  0  0  0  0
    3.5172   20.6263  -35.6386 H   0  0  0  0  0  0  0  0  0  0  0  0
    1.6935   19.7260  -34.1359 H   0  0  0  0  0  0  0  0  0  0  0  0
    0.2559   21.6315  -31.7582 H   0  0  0  0  0  0  0  0  0  0  0  0
   -1.3628   22.3490  -32.1006 H   0  0  0  0  0  0  0  0  0  0  0  0
   -0.7393   19.4867  -31.2256 H   0  0  0  0  0  0  0  0  0  0  0  0
   -1.6299   20.7957  -30.3077 H   0  0  0  0  0  0  0  0  0  0  0  0
   -2.6990   18.8210  -31.7680 H   0  0  0  0  0  0  0  0  0  0  0  0
   -2.6824   20.2555  -28.6314 H   0  0  0  0  0  0  0  0  0  0  0  0
   -2.6292   22.0821  -26.9413 H   0  0  0  0  0  0  0  0  0  0  0  0
   -3.7429   24.2609  -27.4191 H   0  0  0  0  0  0  0  0  0  0  0  0
   -4.9275   24.6128  -29.5805 H   0  0  0  0  0  0  0  0  0  0  0  0
   -7.8400   23.1832  -30.4246 H   0  0  0  0  0  0  0  0  0  0  0  0
   -9.9241   21.8103  -30.4583 H   0  0  0  0  0  0  0  0  0  0  0  0
  -10.0947   19.8297  -31.9692 H   0  0  0  0  0  0  0  0  0  0  0  0
   -8.1882   19.2322  -33.4643 H   0  0  0  0  0  0  0  0  0  0  0  0
   -6.0999   20.5995  -33.4358 H   0  0  0  0  0  0  0  0  0  0  0  0
   -3.6943   19.4688  -33.6670 H   0  0  0  0  0  0  0  0  0  0  0  0
   -3.3268   21.2134  -33.3293 H   0  0  0  0  0  0  0  0  0  0  0  0
   -1.2868   19.0487  -34.0331 H   0  0  0  0  0  0  0  0  0  0  0  0
   -1.8848   20.3509  -35.1248 H   0  0  0  0  0  0  0  0  0  0  0  0
  1  2  1  0
  2  3  2  0
  3  4  1  0
  4  5  2  0
  5  6  1  0
  6  7  2  0
  7  8  1  0
  8  9  1  0
  9 10  1  0
 10 11  1  0
 11 12  1  0
 12 13  1  0
 13 14  2  0
 13 15  1  0
 15 16  2  0
 16 17  1  0
 17 18  2  0
 18 19  1  0
 19 20  2  0
 20 21  1  0
 21 22  2  0
 21 23  2  0
 21 24  1  0
 24 25  2  0
 25 26  1  0
 26 27  2  0
 27 28  1  0
 28 29  2  0
 12 30  1  0
 30 31  1  0
  8 32  2  0
 32 33  1  0
 33  2  1  0
 33  5  1  0
 31  9  1  0
 20 15  1  0
 29 24  1  0
  1 34  1  0
  1 35  1  0
  1 36  1  0
  6 37  1  0
  7 38  1  0
 10 39  1  0
 10 40  1  0
 11 41  1  0
 11 42  1  0
 12 43  1  0
 16 44  1  0
 17 45  1  0
 18 46  1  0
 19 47  1  0
 25 48  1  0
 26 49  1  0
 27 50  1  0
 28 51  1  0
 29 52  1  0
 30 53  1  0
 30 54  1  0
 31 55  1  0
 31 56  1  0
M  CHG  1  12   1
M  END
>  <UniqueID>  (19) 
18

>  <SMILES>  (19) 
Cc1nnc2ccc(N3CC[NH+](C(=O)c4ccccc4S(=O)(=O)c4ccccc4)CC3)nn12

>  <Energy>  (19) 
123.89826013744016

>  <Genealogy>  (19) 
Cc1nnc2ccc(N3CC[NH+](C(=O)c4ccccc4S(=O)(=O)c4ccccc4)CC3)nn12 (protonated)
Cc1nnc2ccc(N3CC[NH+](C(=O)c4ccccc4S(=O)(=O)c4ccccc4)CC3)nn12 (3D coordinates assigned)
Cc1nnc2ccc(N3CC[NH+](C(=O)c4ccccc4S(=O)(=O)c4ccccc4)CC3)nn12 (nonaromatic ring conformer: 123.89826013744016 kcal/mol)

>  <smiles>  (19) 
Cc1nnc2ccc(N3CCN(C(=O)c4ccccc4S(=O)(=O)c4ccccc4)CC3)nn12

>  <score_type>  (19) 
oracle

>  <origin>  (19) 
adgpu

>  <m_score__min__energy>  (19) 
-9.4100000000000001

>  <m_primary>  (19) 
energy

$$$$
19:0
     RDKit          3D

 40 42  0  0  0  0  0  0  0  0999 V2000
   -6.6990   18.3010  -33.4520 C   0  0  0  0  0  0  0  0  0  0  0  0
   -6.3970   19.6820  -32.9510 C   0  0  0  0  0  0  0  0  0  0  0  0
   -5.1310   20.1470  -33.1060 N   0  0  0  0  0  0  0  0  0  0  0  0
   -4.7350   21.3650  -32.6670 C   0  0  0  0  0  0  0  0  0  0  0  0
   -3.0000   21.8100  -32.8600 S   0  0  0  0  0  0  0  0  0  0  0  0
   -2.4510   20.9920  -31.3190 C   0  0  0  0  0  0  0  0  0  0  0  0
   -2.2230   21.9980  -30.2290 C   0  0  0  0  0  0  0  0  0  0  0  0
   -0.9780   22.6110  -30.0690 C   0  0  0  0  0  0  0  0  0  0  0  0
   -0.8310   23.6030  -29.0980 C   0  0  0  0  0  0  0  0  0  0  0  0
    0.2930   24.1620  -28.9660 O   0  0  0  0  0  0  0  0  0  0  0  0
   -1.8960   23.9610  -28.3090 N   0  0  0  0  0  0  0  0  0  0  0  0
   -1.7650   24.9370  -27.3520 C   0  0  0  0  0  0  0  0  0  0  0  0
   -2.8490   25.3040  -26.5520 C   0  0  0  0  0  0  0  0  0  0  0  0
   -4.0770   24.6720  -26.7270 C   0  0  0  0  0  0  0  0  0  0  0  0
   -4.2130   23.6830  -27.6970 C   0  0  0  0  0  0  0  0  0  0  0  0
   -3.1120   23.3330  -28.4850 C   0  0  0  0  0  0  0  0  0  0  0  0
   -3.2570   22.3740  -29.4360 N   0  0  0  0  0  0  0  0  0  0  0  0
   -5.6600   22.2250  -32.0560 C   0  0  0  0  0  0  0  0  0  0  0  0
   -5.2220   23.5200  -31.5830 C   0  0  0  0  0  0  0  0  0  0  0  0
   -4.8690   24.5550  -31.2030 N   0  0  0  0  0  0  0  0  0  0  0  0
   -7.0020   21.8000  -31.9000 C   0  0  0  0  0  0  0  0  0  0  0  0
   -8.0270   22.7170  -31.2630 C   0  0  0  0  0  0  0  0  0  0  0  0
   -7.3620   20.4810  -32.2920 C   0  0  0  0  0  0  0  0  0  0  0  0
   -8.7660   19.9620  -32.0630 C   0  0  0  0  0  0  0  0  0  0  0  0
   -6.8468   17.6249  -32.5970 H   0  0  0  0  0  0  0  0  0  0  0  0
   -7.6132   18.3245  -34.0632 H   0  0  0  0  0  0  0  0  0  0  0  0
   -5.8584   17.9407  -34.0632 H   0  0  0  0  0  0  0  0  0  0  0  0
   -3.2236   20.2792  -30.9950 H   0  0  0  0  0  0  0  0  0  0  0  0
   -1.5038   20.4691  -31.5176 H   0  0  0  0  0  0  0  0  0  0  0  0
   -0.1258   22.3163  -30.6990 H   0  0  0  0  0  0  0  0  0  0  0  0
   -0.7943   25.4358  -27.2139 H   0  0  0  0  0  0  0  0  0  0  0  0
   -2.7334   26.0874  -25.7885 H   0  0  0  0  0  0  0  0  0  0  0  0
   -4.9367   24.9532  -26.1010 H   0  0  0  0  0  0  0  0  0  0  0  0
   -5.1803   23.1800  -27.8428 H   0  0  0  0  0  0  0  0  0  0  0  0
   -7.9501   22.6482  -30.1678 H   0  0  0  0  0  0  0  0  0  0  0  0
   -7.8385   23.7535  -31.5794 H   0  0  0  0  0  0  0  0  0  0  0  0
   -9.0362   22.4148  -31.5794 H   0  0  0  0  0  0  0  0  0  0  0  0
   -8.9589   19.8907  -30.9824 H   0  0  0  0  0  0  0  0  0  0  0  0
   -9.4909   20.6516  -32.5201 H   0  0  0  0  0  0  0  0  0  0  0  0
   -8.8681   18.9667  -32.5201 H   0  0  0  0  0  0  0  0  0  0  0  0
  1  2  1  0
  2  3  2  0
  3  4  1  0
  4  5  1  0
  5  6  1  0
  6  7  1  0
  7  8  2  0
  8  9  1  0
  9 10  2  0
  9 11  1  0
 11 12  1  0
 12 13  2  0
 13 14  1  0
 14 15  2  0
 15 16  1  0
 16 17  2  0
  4 18  2  0
 18 19  1  0
 19 20  3  0
 18 21  1  0
 21 22  1  0
 21 23  2  0
 23 24  1  0
 23  2  1  0
 17  7  1  0
 16 11  1  0
  1 25  1  0
  1 26  1  0
  1 27  1  0
  6 28  1  0
  6 29  1  0
  8 30  1  0
 12 31  1  0
 13 32  1  0
 14 33  1  0
 15 34  1  0
 22 35  1  0
 22 36  1  0
 22 37  1  0
 24 38  1  0
 24 39  1  0
 24 40  1  0
M  END
>  <UniqueID>  (20) 
19

>  <SMILES>  (20) 
Cc1nc(SCc2cc(=O)n3ccccc3n2)c(C#N)c(C)c1C

>  <Energy>  (20) 
46.572068298045394

>  <Genealogy>  (20) 
Cc1nc(SCc2cc(=O)n3ccccc3n2)c(C#N)c(C)c1C (3D coordinates assigned)
Cc1nc(SCc2cc(=O)n3ccccc3n2)c(C#N)c(C)c1C (optimized conformer: 46.572068298045394 kcal/mol)

>  <smiles>  (20) 
Cc1nc(SCc2cc(=O)n3ccccc3n2)c(C#N)c(C)c1C

>  <score_type>  (20) 
oracle

>  <origin>  (20) 
adgpu

>  <m_score__min__energy>  (20) 
-8.9600000000000009

>  <m_primary>  (20) 
energy

$$$$
20:0
     RDKit          3D

 54 57  0  0  0  0  0  0  0  0999 V2000
   -4.6920   16.2030  -34.6360 C   0  0  0  0  0  0  0  0  0  0  0  0
   -5.2890   16.4080  -33.2780 C   0  0  0  0  0  0  0  0  0  0  0  0
   -5.1710   15.4890  -32.4250 O   0  0  0  0  0  0  0  0  0  0  0  0
   -5.9760   17.6300  -32.9270 N   0  0  0  0  0  0  0  0  0  0  0  0
   -5.9080   18.8210  -33.7850 C   0  0  0  0  0  0  0  0  0  0  0  0
   -5.8820   20.0910  -32.9310 C   0  0  0  0  0  0  0  0  0  0  0  0
   -6.9660   20.0970  -31.9350 N   0  0  0  0  0  0  0  0  0  0  0  0
   -7.4240   21.3510  -31.3940 C   0  0  0  0  0  0  0  0  0  0  0  0
   -8.6430   21.5070  -31.1170 O   0  0  0  0  0  0  0  0  0  0  0  0
   -6.4940   22.4780  -31.1910 C   0  0  0  0  0  0  0  0  0  0  0  0
   -6.9780   23.7870  -31.0710 C   0  0  0  0  0  0  0  0  0  0  0  0
   -6.0930   24.8460  -30.8560 C   0  0  0  0  0  0  0  0  0  0  0  0
   -4.7220   24.6050  -30.7270 C   0  0  0  0  0  0  0  0  0  0  0  0
   -3.8620   25.6670  -30.4790 O   0  0  0  0  0  0  0  0  0  0  0  0
   -4.2260   23.2940  -30.8260 C   0  0  0  0  0  0  0  0  0  0  0  0
   -2.8330   23.0300  -30.5960 N   0  0  0  0  0  0  0  0  0  0  0  0
   -2.1180   23.2690  -29.0320 S   0  0  0  0  0  0  0  0  0  0  0  0
   -0.9650   24.2250  -29.1510 O   0  0  0  0  0  0  0  0  0  0  0  0
   -3.1400   23.8470  -28.0950 O   0  0  0  0  0  0  0  0  0  0  0  0
   -1.5830   21.7110  -28.4010 C   0  0  0  0  0  0  0  0  0  0  0  0
   -2.4210   20.9950  -27.5380 C   0  0  0  0  0  0  0  0  0  0  0  0
   -2.0650   19.7170  -27.1010 C   0  0  0  0  0  0  0  0  0  0  0  0
   -0.8640   19.1350  -27.5310 C   0  0  0  0  0  0  0  0  0  0  0  0
   -0.5060   17.8430  -27.1180 C   0  0  0  0  0  0  0  0  0  0  0  0
    0.6840   17.2660  -27.5710 C   0  0  0  0  0  0  0  0  0  0  0  0
    1.5240   17.9730  -28.4350 C   0  0  0  0  0  0  0  0  0  0  0  0
    1.1810   19.2630  -28.8510 C   0  0  0  0  0  0  0  0  0  0  0  0
   -0.0110   19.8540  -28.4040 C   0  0  0  0  0  0  0  0  0  0  0  0
   -0.3740   21.1420  -28.8270 C   0  0  0  0  0  0  0  0  0  0  0  0
   -5.1160   22.2410  -31.0970 C   0  0  0  0  0  0  0  0  0  0  0  0
   -7.7340   18.8740  -31.6730 C   0  0  0  0  0  0  0  0  0  0  0  0
   -6.8220   17.6430  -31.7210 C   0  0  0  0  0  0  0  0  0  0  0  0
   -3.6563   15.8474  -34.5314 H   0  0  0  0  0  0  0  0  0  0  0  0
   -5.2823   15.4561  -35.1871 H   0  0  0  0  0  0  0  0  0  0  0  0
   -4.6989   17.1550  -35.1871 H   0  0  0  0  0  0  0  0  0  0  0  0
   -4.9945   18.7761  -34.3962 H   0  0  0  0  0  0  0  0  0  0  0  0
   -6.7955   18.8450  -34.4344 H   0  0  0  0  0  0  0  0  0  0  0  0
   -4.9162   20.1495  -32.4077 H   0  0  0  0  0  0  0  0  0  0  0  0
   -6.0216   20.9558  -33.5964 H   0  0  0  0  0  0  0  0  0  0  0  0
   -8.0581   23.9815  -31.1463 H   0  0  0  0  0  0  0  0  0  0  0  0
   -6.4767   25.8747  -30.7879 H   0  0  0  0  0  0  0  0  0  0  0  0
   -2.1850   22.9320  -31.4080 H   0  0  0  0  0  0  0  0  0  0  0  0
   -3.3677   21.4426  -27.2012 H   0  0  0  0  0  0  0  0  0  0  0  0
   -2.7283   19.1659  -26.4180 H   0  0  0  0  0  0  0  0  0  0  0  0
   -1.1630   17.2828  -26.4364 H   0  0  0  0  0  0  0  0  0  0  0  0
    0.9599   16.2519  -27.2461 H   0  0  0  0  0  0  0  0  0  0  0  0
    2.4584   17.5132  -28.7892 H   0  0  0  0  0  0  0  0  0  0  0  0
    1.8467   19.8159  -29.5300 H   0  0  0  0  0  0  0  0  0  0  0  0
    0.2923   21.7074  -29.4952 H   0  0  0  0  0  0  0  0  0  0  0  0
   -4.7276   21.2214  -31.2366 H   0  0  0  0  0  0  0  0  0  0  0  0
   -8.1954   18.9434  -30.6768 H   0  0  0  0  0  0  0  0  0  0  0  0
   -8.5101   18.7705  -32.4457 H   0  0  0  0  0  0  0  0  0  0  0  0
   -6.1737   17.6464  -30.8324 H   0  0  0  0  0  0  0  0  0  0  0  0
   -7.4605   16.7476  -31.7441 H   0  0  0  0  0  0  0  0  0  0  0  0
  1  2  1  0
  2  3  2  0
  2  4  1  0
  4  5  1  0
  5  6  1  0
  6  7  1  0
  7  8  1  0
  8  9  2  0
  8 10  1  0
 10 11  2  0
 11 12  1  0
 12 13  2  0
 13 14  1  0
 13 15  1  0
 15 16  1  0
 16 17  1  0
 17 18  2  0
 17 19  2  0
 17 20  1  0
 20 21  2  0
 21 22  1  0
 22 23  2  0
 23 24  1  0
 24 25  2  0
 25 26  1  0
 26 27  2  0
 27 28  1  0
 28 29  2  0
 15 30  2  0
  7 31  1  0
 31 32  1  0
 32  4  1  0
 30 10  1  0
 29 20  1  0
 28 23  1  0
  1 33  1  0
  1 34  1  0
  1 35  1  0
  5 36  1  0
  5 37  1  0
  6 38  1  0
  6 39  1  0
 11 40  1  0
 12 41  1  0
 16 42  1  0
 21 43  1  0
 22 44  1  0
 24 45  1  0
 25 46  1  0
 26 47  1  0
 27 48  1  0
 29 49  1  0
 30 50  1  0
 31 51  1  0
 31 52  1  0
 32 53  1  0
 32 54  1  0
M  CHG  1  14  -1
M  END
>  <UniqueID>  (21) 
20

>  <SMILES>  (21) 
CC(=O)N1CCN(C(=O)c2ccc([O-])c(NS(=O)(=O)c3ccc4ccccc4c3)c2)CC1

>  <Energy>  (21) 
64.75162134120319

>  <Genealogy>  (21) 
CC(=O)N1CCN(C(=O)c2ccc([O-])c(NS(=O)(=O)c3ccc4ccccc4c3)c2)CC1 (protonated)
CC(=O)N1CCN(C(=O)c2ccc([O-])c(NS(=O)(=O)c3ccc4ccccc4c3)c2)CC1 (3D coordinates assigned)
CC(=O)N1CCN(C(=O)c2ccc([O-])c(NS(=O)(=O)c3ccc4ccccc4c3)c2)CC1 (nonaromatic ring conformer: 64.75162134120319 kcal/mol)

>  <smiles>  (21) 
CC(=O)N1CCN(C(=O)c2ccc(O)c(NS(=O)(=O)c3ccc4ccccc4c3)c2)CC1

>  <score_type>  (21) 
oracle

>  <origin>  (21) 
adgpu

>  <m_score__min__energy>  (21) 
-14.369999999999999

>  <m_primary>  (21) 
energy

$$$$
21:0
     RDKit          3D

 37 40  0  0  0  0  0  0  0  0999 V2000
   -5.8810   24.9440  -29.0420 O   0  0  0  0  0  0  0  0  0  0  0  0
   -5.3180   24.8930  -30.4350 S   0  0  0  0  0  0  0  0  0  0  0  0
   -5.8420   26.0620  -31.2190 O   0  0  0  0  0  0  0  0  0  0  0  0
   -3.5890   24.9940  -30.3480 N   0  0  0  0  0  0  0  0  0  0  0  0
   -2.7570   24.2040  -29.4860 C   0  0  0  0  0  0  0  0  0  0  0  0
   -3.0910   22.8820  -29.1390 C   0  0  0  0  0  0  0  0  0  0  0  0
   -2.2370   22.1280  -28.3210 C   0  0  0  0  0  0  0  0  0  0  0  0
   -1.0580   22.7010  -27.8250 C   0  0  0  0  0  0  0  0  0  0  0  0
   -0.7370   24.0280  -28.1450 C   0  0  0  0  0  0  0  0  0  0  0  0
   -1.5790   24.7710  -28.9780 C   0  0  0  0  0  0  0  0  0  0  0  0
   -1.2390   26.0810  -29.2980 O   0  0  0  0  0  0  0  0  0  0  0  0
   -0.1860   21.8790  -26.9160 C   0  0  0  0  0  0  0  0  0  0  0  0
   -0.0290   20.4520  -27.4700 C   0  0  0  0  0  0  0  0  0  0  0  0
   -1.3490   19.8050  -27.9700 C   0  0  0  0  0  0  0  0  0  0  0  0
   -2.5840   20.7240  -27.9070 C   0  0  0  0  0  0  0  0  0  0  0  0
   -5.7920   23.4050  -31.2460 C   0  0  0  0  0  0  0  0  0  0  0  0
   -4.8220   22.6480  -31.9440 C   0  0  0  0  0  0  0  0  0  0  0  0
   -5.1740   21.4440  -32.5760 C   0  0  0  0  0  0  0  0  0  0  0  0
   -6.4980   21.0350  -32.4890 C   0  0  0  0  0  0  0  0  0  0  0  0
   -7.2720   19.6940  -33.0950 S   0  0  0  0  0  0  0  0  0  0  0  0
   -8.7880   20.0580  -32.5000 N   0  0  0  0  0  0  0  0  0  0  0  0
   -8.7160   21.2100  -31.8320 N   0  0  0  0  0  0  0  0  0  0  0  0
   -7.4670   21.7600  -31.8170 C   0  0  0  0  0  0  0  0  0  0  0  0
   -7.1300   22.9580  -31.1850 C   0  0  0  0  0  0  0  0  0  0  0  0
   -4.0261   22.4379  -29.5109 H   0  0  0  0  0  0  0  0  0  0  0  0
    0.1781   24.4849  -27.7403 H   0  0  0  0  0  0  0  0  0  0  0  0
    0.8053   22.3499  -26.8412 H   0  0  0  0  0  0  0  0  0  0  0  0
   -0.6553   21.8266  -25.9225 H   0  0  0  0  0  0  0  0  0  0  0  0
    0.6771   20.4867  -28.3128 H   0  0  0  0  0  0  0  0  0  0  0  0
    0.3267   19.8303  -26.6351 H   0  0  0  0  0  0  0  0  0  0  0  0
   -1.2044   19.4975  -29.0162 H   0  0  0  0  0  0  0  0  0  0  0  0
   -1.5558   18.9621  -27.2942 H   0  0  0  0  0  0  0  0  0  0  0  0
   -3.3585   20.3315  -28.5823 H   0  0  0  0  0  0  0  0  0  0  0  0
   -2.9499   20.7463  -26.8699 H   0  0  0  0  0  0  0  0  0  0  0  0
   -3.7828   23.0054  -31.9923 H   0  0  0  0  0  0  0  0  0  0  0  0
   -4.4277   20.8467  -33.1202 H   0  0  0  0  0  0  0  0  0  0  0  0
   -7.8924   23.5429  -30.6495 H   0  0  0  0  0  0  0  0  0  0  0  0
  1  2  2  0
  2  3  2  0
  2  4  1  0
  4  5  1  0
  5  6  2  0
  6  7  1  0
  7  8  2  0
  8  9  1  0
  9 10  2  0
 10 11  1  0
  8 12  1  0
 12 13  1  0
 13 14  1  0
 14 15  1  0
  2 16  1  0
 16 17  2  0
 17 18  1  0
 18 19  2  0
 19 20  1  0
 20 21  1  0
 21 22  2  0
 22 23  1  0
 23 24  2  0
 10  5  1  0
 24 16  1  0
 15  7  1  0
 23 19  1  0
  6 25  1  0
  9 26  1  0
 12 27  1  0
 12 28  1  0
 13 29  1  0
 13 30  1  0
 14 31  1  0
 14 32  1  0
 15 33  1  0
 15 34  1  0
 17 35  1  0
 18 36  1  0
 24 37  1  0
M  CHG  2   4  -1  11  -1
M  END
>  <UniqueID>  (22) 
21

>  <SMILES>  (22) 
O=S(=O)([N-]c1cc2c(cc1[O-])CCCC2)c1ccc2snnc2c1

>  <Energy>  (22) 
91.08021326167339

>  <Genealogy>  (22) 
O=S(=O)([N-]c1cc2c(cc1[O-])CCCC2)c1ccc2snnc2c1 (protonated)
O=S(=O)([N-]c1cc2c(cc1[O-])CCCC2)c1ccc2snnc2c1 (3D coordinates assigned)
O=S(=O)([N-]c1cc2c(cc1[O-])CCCC2)c1ccc2snnc2c1 (nonaromatic ring conformer: 91.08021326167339 kcal/mol)

>  <smiles>  (22) 
O=S(=O)(Nc1cc2c(cc1O)CCCC2)c1ccc2snnc2c1

>  <score_type>  (22) 
oracle

>  <origin>  (22) 
adgpu

>  <m_score__min__energy>  (22) 
-14.41

>  <m_primary>  (22) 
energy

$$$$
22:0
     RDKit          3D

 50 53  0  0  0  0  0  0  0  0999 V2000
   -6.5500   23.4610  -32.3270 C   0  0  0  0  0  0  0  0  0  0  0  0
   -6.4870   21.9540  -32.4060 C   0  0  0  0  0  0  0  0  0  0  0  0
   -5.2590   21.2310  -32.5640 C   0  0  0  0  0  0  0  0  0  0  0  0
   -3.9090   21.9020  -32.7830 C   0  0  2  0  0  0  0  0  0  0  0  0
   -3.1810   21.2340  -33.7800 O   0  0  0  0  0  0  0  0  0  0  0  0
   -3.1000   21.9630  -31.4690 C   0  0  0  0  0  0  0  0  0  0  0  0
   -3.9600   22.3510  -30.3260 N   0  0  0  0  0  0  0  0  0  0  0  0
   -4.2230   23.8190  -30.2970 C   0  0  0  0  0  0  0  0  0  0  0  0
   -4.1420   24.4380  -28.8940 C   0  0  0  0  0  0  0  0  0  0  0  0
   -2.8750   24.0580  -28.2590 N   0  0  0  0  0  0  0  0  0  0  0  0
   -2.1560   24.9900  -27.4270 C   0  0  0  0  0  0  0  0  0  0  0  0
   -2.2900   24.9340  -26.0280 C   0  0  0  0  0  0  0  0  0  0  0  0
   -1.5950   25.8320  -25.2120 C   0  0  0  0  0  0  0  0  0  0  0  0
   -0.7620   26.7950  -25.7830 C   0  0  0  0  0  0  0  0  0  0  0  0
   -0.6240   26.8660  -27.1710 C   0  0  0  0  0  0  0  0  0  0  0  0
   -1.3170   25.9700  -27.9940 C   0  0  0  0  0  0  0  0  0  0  0  0
   -1.1930   26.0860  -29.3400 F   0  0  0  0  0  0  0  0  0  0  0  0
   -2.3830   22.6840  -28.4140 C   0  0  0  0  0  0  0  0  0  0  0  0
   -3.4610   21.7940  -29.0460 C   0  0  0  0  0  0  0  0  0  0  0  0
   -5.2900   19.8110  -32.5760 C   0  0  0  0  0  0  0  0  0  0  0  0
   -6.4870   19.1070  -32.4100 C   0  0  0  0  0  0  0  0  0  0  0  0
   -7.6540   19.8360  -32.2370 C   0  0  0  0  0  0  0  0  0  0  0  0
   -7.6690   21.2080  -32.2290 C   0  0  0  0  0  0  0  0  0  0  0  0
   -9.0790   21.6980  -32.0000 C   0  0  0  0  0  0  0  0  0  0  0  0
   -9.8370   20.4920  -31.8790 O   0  0  0  0  0  0  0  0  0  0  0  0
   -9.0050   19.3920  -32.0200 C   0  0  0  0  0  0  0  0  0  0  0  0
   -9.3920   18.1950  -31.9610 O   0  0  0  0  0  0  0  0  0  0  0  0
   -6.5630   23.7726  -31.2722 H   0  0  0  0  0  0  0  0  0  0  0  0
   -5.6691   23.8915  -32.8257 H   0  0  0  0  0  0  0  0  0  0  0  0
   -7.4638   23.8164  -32.8257 H   0  0  0  0  0  0  0  0  0  0  0  0
   -4.0929   22.9336  -33.1175 H   0  0  0  0  0  0  0  0  0  0  0  0
   -2.7640   21.9300  -34.3540 H   0  0  0  0  0  0  0  0  0  0  0  0
   -2.6643   20.9728  -31.2699 H   0  0  0  0  0  0  0  0  0  0  0  0
   -2.3097   22.7197  -31.5821 H   0  0  0  0  0  0  0  0  0  0  0  0
   -3.4808   24.3166  -30.9385 H   0  0  0  0  0  0  0  0  0  0  0  0
   -5.2538   23.9658  -30.6517 H   0  0  0  0  0  0  0  0  0  0  0  0
   -4.1969   25.5337  -28.9739 H   0  0  0  0  0  0  0  0  0  0  0  0
   -4.9802   24.0700  -28.2842 H   0  0  0  0  0  0  0  0  0  0  0  0
   -2.9465   24.1781  -25.5724 H   0  0  0  0  0  0  0  0  0  0  0  0
   -1.7050   25.7793  -24.1188 H   0  0  0  0  0  0  0  0  0  0  0  0
   -0.2137   27.4987  -25.1395 H   0  0  0  0  0  0  0  0  0  0  0  0
    0.0309   27.6279  -27.6188 H   0  0  0  0  0  0  0  0  0  0  0  0
   -1.4932   22.6892  -29.0608 H   0  0  0  0  0  0  0  0  0  0  0  0
   -2.1288   22.2836  -27.4215 H   0  0  0  0  0  0  0  0  0  0  0  0
   -3.0338   20.7980  -29.2345 H   0  0  0  0  0  0  0  0  0  0  0  0
   -4.3081   21.7374  -28.3466 H   0  0  0  0  0  0  0  0  0  0  0  0
   -4.3527   19.2532  -32.7189 H   0  0  0  0  0  0  0  0  0  0  0  0
   -6.5024   18.0071  -32.4165 H   0  0  0  0  0  0  0  0  0  0  0  0
   -9.1425   22.2961  -31.0790 H   0  0  0  0  0  0  0  0  0  0  0  0
   -9.4412   22.3520  -32.8069 H   0  0  0  0  0  0  0  0  0  0  0  0
  1  2  1  0
  2  3  2  0
  3  4  1  0
  4  5  1  0
  4  6  1  0
  6  7  1  0
  7  8  1  0
  8  9  1  0
  9 10  1  0
 10 11  1  0
 11 12  2  0
 12 13  1  0
 13 14  2  0
 14 15  1  0
 15 16  2  0
 16 17  1  0
 10 18  1  0
 18 19  1  0
  3 20  1  0
 20 21  2  0
 21 22  1  0
 22 23  2  0
 23 24  1  0
 24 25  1  0
 25 26  1  0
 26 27  2  0
 23  2  1  0
 19  7  1  0
 26 22  1  0
 16 11  1  0
  1 28  1  0
  1 29  1  0
  1 30  1  0
  4 31  1  6
  5 32  1  0
  6 33  1  0
  6 34  1  0
  8 35  1  0
  8 36  1  0
  9 37  1  0
  9 38  1  0
 12 39  1  0
 13 40  1  0
 14 41  1  0
 15 42  1  0
 18 43  1  0
 18 44  1  0
 19 45  1  0
 19 46  1  0
 20 47  1  0
 21 48  1  0
 24 49  1  0
 24 50  1  0
M  END
>  <UniqueID>  (23) 
22

>  <SMILES>  (23) 
Cc1c([C@H](O)CN2CCN(c3ccccc3F)CC2)ccc2c1COC2=O

>  <Energy>  (23) 
91.86432729543122

>  <Genealogy>  (23) 
Cc1c([C@H](O)CN2CCN(c3ccccc3F)CC2)ccc2c1COC2=O (chirality)
Cc1c([C@H](O)CN2CCN(c3ccccc3F)CC2)ccc2c1COC2=O (3D coordinates assigned)
Cc1c([C@H](O)CN2CCN(c3ccccc3F)CC2)ccc2c1COC2=O (nonaromatic ring conformer: 91.86432729543122 kcal/mol)

>  <smiles>  (23) 
Cc1c(C(O)CN2CCN(c3ccccc3F)CC2)ccc2c1COC2=O

>  <score_type>  (23) 
oracle

>  <origin>  (23) 
adgpu

>  <m_score__min__energy>  (23) 
-9.6999999999999993

>  <m_primary>  (23) 
energy

$$$$
23:0
     RDKit          3D

 43 46  0  0  0  0  0  0  0  0999 V2000
   -6.4730   18.9130  -33.9220 C   0  0  0  0  0  0  0  0  0  0  0  0
   -7.1160   19.7230  -32.8960 N   0  0  0  0  0  0  0  0  0  0  0  0
   -8.5210   19.7850  -32.6370 C   0  0  0  0  0  0  0  0  0  0  0  0
   -9.3640   18.9680  -33.0910 O   0  0  0  0  0  0  0  0  0  0  0  0
   -8.8230   20.9430  -31.8040 C   0  0  0  0  0  0  0  0  0  0  0  0
   -9.9490   21.2870  -31.3620 O   0  0  0  0  0  0  0  0  0  0  0  0
   -7.5520   21.6170  -31.5970 C   0  0  0  0  0  0  0  0  0  0  0  0
   -7.2520   22.7850  -30.9050 C   0  0  0  0  0  0  0  0  0  0  0  0
   -5.9170   23.2330  -30.8950 C   0  0  0  0  0  0  0  0  0  0  0  0
   -5.5040   24.6990  -30.0130 S   0  0  0  0  0  0  0  0  0  0  0  0
   -4.6090   25.5870  -30.8340 O   0  0  0  0  0  0  0  0  0  0  0  0
   -6.7660   25.4540  -29.7030 O   0  0  0  0  0  0  0  0  0  0  0  0
   -4.7120   24.2830  -28.5250 N   0  0  0  0  0  0  0  0  0  0  0  0
   -3.5610   23.4360  -28.4000 C   0  0  0  0  0  0  0  0  0  0  0  0
   -3.6440   22.1420  -27.8540 C   0  0  0  0  0  0  0  0  0  0  0  0
   -2.5050   21.3300  -27.7600 C   0  0  0  0  0  0  0  0  0  0  0  0
   -1.2590   21.8250  -28.1850 C   0  0  0  0  0  0  0  0  0  0  0  0
   -1.1770   23.1120  -28.7350 C   0  0  0  0  0  0  0  0  0  0  0  0
   -2.3200   23.9180  -28.8350 C   0  0  0  0  0  0  0  0  0  0  0  0
   -2.2260   25.2050  -29.3670 O   0  0  0  0  0  0  0  0  0  0  0  0
   -0.0290   20.9480  -28.1540 C   0  0  0  0  0  0  0  0  0  0  0  0
   -0.1500   19.8520  -27.1840 N   0  0  0  0  0  0  0  0  0  0  0  0
   -1.3880   19.0950  -27.4070 C   0  0  0  0  0  0  0  0  0  0  0  0
   -2.6250   19.9610  -27.1360 C   0  0  0  0  0  0  0  0  0  0  0  0
   -4.9230   22.5010  -31.5890 C   0  0  0  0  0  0  0  0  0  0  0  0
   -5.2490   21.3210  -32.2760 C   0  0  0  0  0  0  0  0  0  0  0  0
   -6.5770   20.8910  -32.2610 C   0  0  0  0  0  0  0  0  0  0  0  0
   -5.8570   18.1371  -33.4440 H   0  0  0  0  0  0  0  0  0  0  0  0
   -7.2417   18.4367  -34.5484 H   0  0  0  0  0  0  0  0  0  0  0  0
   -5.8348   19.5536  -34.5484 H   0  0  0  0  0  0  0  0  0  0  0  0
   -8.0383   23.3455  -30.3782 H   0  0  0  0  0  0  0  0  0  0  0  0
   -4.6131   21.7633  -27.4970 H   0  0  0  0  0  0  0  0  0  0  0  0
   -0.2082   23.4925  -29.0909 H   0  0  0  0  0  0  0  0  0  0  0  0
   -3.0390   25.6930  -29.7240 H   0  0  0  0  0  0  0  0  0  0  0  0
    0.1248   20.5189  -29.1551 H   0  0  0  0  0  0  0  0  0  0  0  0
    0.8229   21.5739  -27.8499 H   0  0  0  0  0  0  0  0  0  0  0  0
   -0.1650   20.2550  -26.2160 H   0  0  0  0  0  0  0  0  0  0  0  0
   -1.4139   18.7492  -28.4509 H   0  0  0  0  0  0  0  0  0  0  0  0
   -1.4029   18.2404  -26.7146 H   0  0  0  0  0  0  0  0  0  0  0  0
   -3.5095   19.4571  -27.5529 H   0  0  0  0  0  0  0  0  0  0  0  0
   -2.7168   20.0908  -26.0476 H   0  0  0  0  0  0  0  0  0  0  0  0
   -3.8836   22.8612  -31.5897 H   0  0  0  0  0  0  0  0  0  0  0  0
   -4.4774   20.7495  -32.8127 H   0  0  0  0  0  0  0  0  0  0  0  0
  1  2  1  0
  2  3  1  0
  3  4  2  0
  3  5  1  0
  5  6  2  0
  5  7  1  0
  7  8  2  0
  8  9  1  0
  9 10  1  0
 10 11  2  0
 10 12  2  0
 10 13  1  0
 13 14  1  0
 14 15  2  0
 15 16  1  0
 16 17  2  0
 17 18  1  0
 18 19  2  0
 19 20  1  0
 17 21  1  0
 21 22  1  0
 22 23  1  0
 23 24  1  0
  9 25  2  0
 25 26  1  0
 26 27  2  0
 27  2  1  0
 27  7  1  0
 19 14  1  0
 24 16  1  0
  1 28  1  0
  1 29  1  0
  1 30  1  0
  8 31  1  0
 15 32  1  0
 18 33  1  0
 20 34  1  0
 21 35  1  0
 21 36  1  0
 22 37  1  0
 23 38  1  0
 23 39  1  0
 24 40  1  0
 24 41  1  0
 25 42  1  0
 26 43  1  0
M  CHG  1  13  -1
M  END
>  <UniqueID>  (24) 
23

>  <SMILES>  (24) 
CN1C(=O)C(=O)c2cc(S(=O)(=O)[N-]c3cc4c(cc3O)CNCC4)ccc21

>  <Energy>  (24) 
82.7457058689116

>  <Genealogy>  (24) 
CN1C(=O)C(=O)c2cc(S(=O)(=O)[N-]c3cc4c(cc3O)CNCC4)ccc21 (protonated)
CN1C(=O)C(=O)c2cc(S(=O)(=O)[N-]c3cc4c(cc3O)CNCC4)ccc21 (3D coordinates assigned)
CN1C(=O)C(=O)c2cc(S(=O)(=O)[N-]c3cc4c(cc3O)CNCC4)ccc21 (nonaromatic ring conformer: 82.7457058689116 kcal/mol)

>  <smiles>  (24) 
CN1C(=O)C(=O)c2cc(S(=O)(=O)Nc3cc4c(cc3O)CNCC4)ccc21

>  <score_type>  (24) 
oracle

>  <origin>  (24) 
adgpu

>  <m_score__min__energy>  (24) 
-12.550000000000001

>  <m_primary>  (24) 
energy

$$$$
24:0
     RDKit          3D

 55 58  0  0  0  0  0  0  0  0999 V2000
   -6.4350   25.4640  -29.7960 C   0  0  0  0  0  0  0  0  0  0  0  0
   -6.5320   24.1090  -30.4420 C   0  0  0  0  0  0  0  0  0  0  0  0
   -7.6770   23.7670  -31.1750 C   0  0  0  0  0  0  0  0  0  0  0  0
   -7.7690   22.5290  -31.8070 C   0  0  0  0  0  0  0  0  0  0  0  0
   -6.7240   21.6020  -31.7080 C   0  0  0  0  0  0  0  0  0  0  0  0
   -6.8850   20.0240  -32.4880 S   0  0  0  0  0  0  0  0  0  0  0  0
   -6.5860   18.9400  -31.4890 O   0  0  0  0  0  0  0  0  0  0  0  0
   -8.3010   19.8780  -32.9700 O   0  0  0  0  0  0  0  0  0  0  0  0
   -5.7740   19.9110  -33.8380 N   0  0  0  0  0  0  0  0  0  0  0  0
   -4.4770   20.5590  -33.5400 C   0  0  0  0  0  0  0  0  0  0  0  0
   -3.3850   19.5510  -33.1390 C   0  0  0  0  0  0  0  0  0  0  0  0
   -3.9550   18.4630  -32.4470 O   0  0  0  0  0  0  0  0  0  0  0  0
   -4.7460   17.6810  -33.3250 C   0  0  0  0  0  0  0  0  0  0  0  0
   -5.6100   18.5200  -34.2960 C   0  0  0  0  0  0  0  0  0  0  0  0
   -5.5810   21.9180  -30.9500 C   0  0  0  0  0  0  0  0  0  0  0  0
   -4.6000   20.9400  -30.7650 O   0  0  0  0  0  0  0  0  0  0  0  0
   -5.4610   23.1980  -30.3590 C   0  0  0  0  0  0  0  0  0  0  0  0
   -4.2720   23.5830  -29.6540 N   0  0  0  0  0  0  0  0  0  0  0  0
   -3.4470   24.6970  -30.0150 C   0  0  0  0  0  0  0  0  0  0  0  0
   -3.8710   25.5600  -30.8300 O   0  0  0  0  0  0  0  0  0  0  0  0
   -2.1700   24.8900  -29.3990 N   0  0  0  0  0  0  0  0  0  0  0  0
   -1.9420   25.3570  -28.0620 C   0  0  0  0  0  0  0  0  0  0  0  0
   -2.6920   24.8820  -26.9730 C   0  0  0  0  0  0  0  0  0  0  0  0
   -2.4230   25.3370  -25.6800 C   0  0  0  0  0  0  0  0  0  0  0  0
   -1.3870   26.2530  -25.4510 C   0  0  0  0  0  0  0  0  0  0  0  0
   -0.6310   26.7350  -26.5390 C   0  0  0  0  0  0  0  0  0  0  0  0
   -0.8980   26.2600  -27.8330 C   0  0  0  0  0  0  0  0  0  0  0  0
    0.5310   27.6750  -26.3160 C   0  0  0  0  0  0  0  0  0  0  0  0
    0.4270   28.4000  -25.0430 N   0  0  0  0  0  0  0  0  0  0  0  0
    0.2100   27.4680  -23.9300 C   0  0  0  0  0  0  0  0  0  0  0  0
   -1.1510   26.7710  -24.0560 C   0  0  0  0  0  0  0  0  0  0  0  0
   -6.4432   25.3500  -28.7019 H   0  0  0  0  0  0  0  0  0  0  0  0
   -5.4996   25.9523  -30.1068 H   0  0  0  0  0  0  0  0  0  0  0  0
   -7.2913   26.0805  -30.1068 H   0  0  0  0  0  0  0  0  0  0  0  0
   -8.5094   24.4819  -31.2517 H   0  0  0  0  0  0  0  0  0  0  0  0
   -8.6687   22.2778  -32.3879 H   0  0  0  0  0  0  0  0  0  0  0  0
   -4.1417   21.1027  -34.4356 H   0  0  0  0  0  0  0  0  0  0  0  0
   -4.6329   21.2354  -32.6867 H   0  0  0  0  0  0  0  0  0  0  0  0
   -2.8816   19.1817  -34.0446 H   0  0  0  0  0  0  0  0  0  0  0  0
   -2.6585   20.0522  -32.4824 H   0  0  0  0  0  0  0  0  0  0  0  0
   -4.0767   17.0417  -33.9194 H   0  0  0  0  0  0  0  0  0  0  0  0
   -5.4383   17.0971  -32.7007 H   0  0  0  0  0  0  0  0  0  0  0  0
   -5.1262   18.5274  -35.2839 H   0  0  0  0  0  0  0  0  0  0  0  0
   -6.6084   18.0604  -34.3415 H   0  0  0  0  0  0  0  0  0  0  0  0
   -4.7020   19.9880  -31.0940 H   0  0  0  0  0  0  0  0  0  0  0  0
   -3.4947   24.1485  -27.1394 H   0  0  0  0  0  0  0  0  0  0  0  0
   -3.0281   24.9741  -24.8361 H   0  0  0  0  0  0  0  0  0  0  0  0
   -0.2796   26.6016  -28.6761 H   0  0  0  0  0  0  0  0  0  0  0  0
    1.4630   27.0908  -26.3149 H   0  0  0  0  0  0  0  0  0  0  0  0
    0.5225   28.4179  -27.1272 H   0  0  0  0  0  0  0  0  0  0  0  0
   -0.3810   29.0660  -25.0960 H   0  0  0  0  0  0  0  0  0  0  0  0
    1.0055   26.7083  -23.9363 H   0  0  0  0  0  0  0  0  0  0  0  0
    0.2279   28.0358  -22.9880 H   0  0  0  0  0  0  0  0  0  0  0  0
   -1.1851   25.9265  -23.3520 H   0  0  0  0  0  0  0  0  0  0  0  0
   -1.9351   27.5079  -23.8275 H   0  0  0  0  0  0  0  0  0  0  0  0
  1  2  1  0
  2  3  2  0
  3  4  1  0
  4  5  2  0
  5  6  1  0
  6  7  2  0
  6  8  2  0
  6  9  1  0
  9 10  1  0
 10 11  1  0
 11 12  1  0
 12 13  1  0
 13 14  1  0
  5 15  1  0
 15 16  1  0
 15 17  2  0
 17 18  1  0
 18 19  1  0
 19 20  2  0
 19 21  1  0
 21 22  1  0
 22 23  2  0
 23 24  1  0
 24 25  2  0
 25 26  1  0
 26 27  2  0
 26 28  1  0
 28 29  1  0
 29 30  1  0
 30 31  1  0
 17  2  1  0
 27 22  1  0
 14  9  1  0
 31 25  1  0
  1 32  1  0
  1 33  1  0
  1 34  1  0
  3 35  1  0
  4 36  1  0
 10 37  1  0
 10 38  1  0
 11 39  1  0
 11 40  1  0
 13 41  1  0
 13 42  1  0
 14 43  1  0
 14 44  1  0
 16 45  1  0
 23 46  1  0
 24 47  1  0
 27 48  1  0
 28 49  1  0
 28 50  1  0
 29 51  1  0
 30 52  1  0
 30 53  1  0
 31 54  1  0
 31 55  1  0
M  CHG  2  18  -1  21  -1
M  END
>  <UniqueID>  (25) 
24

>  <SMILES>  (25) 
Cc1ccc(S(=O)(=O)N2CCOCC2)c(O)c1[N-]C(=O)[N-]c1ccc2c(c1)CNCC2

>  <Energy>  (25) 
81.16902331653289

>  <Genealogy>  (25) 
Cc1ccc(S(=O)(=O)N2CCOCC2)c(O)c1[N-]C(=O)[N-]c1ccc2c(c1)CNCC2 (protonated)
Cc1ccc(S(=O)(=O)N2CCOCC2)c(O)c1[N-]C(=O)[N-]c1ccc2c(c1)CNCC2 (3D coordinates assigned)
Cc1ccc(S(=O)(=O)N2CCOCC2)c(O)c1[N-]C(=O)[N-]c1ccc2c(c1)CNCC2 (nonaromatic ring conformer: 81.16902331653289 kcal/mol)

>  <smiles>  (25) 
Cc1ccc(S(=O)(=O)N2CCOCC2)c(O)c1NC(=O)Nc1ccc2c(c1)CNCC2

>  <score_type>  (25) 
oracle

>  <origin>  (25) 
adgpu

>  <m_score__min__energy>  (25) 
-13.1

>  <m_primary>  (25) 
energy

$$$$
25:0
     RDKit          3D

 38 40  0  0  0  0  0  0  0  0999 V2000
   -6.3120   17.3810  -32.9810 C   0  0  0  0  0  0  0  0  0  0  0  0
   -6.4630   18.7050  -33.6620 C   0  0  0  0  0  0  0  0  0  0  0  0
   -6.0510   18.8260  -34.8470 O   0  0  0  0  0  0  0  0  0  0  0  0
   -7.0960   19.8250  -33.0190 N   0  0  0  0  0  0  0  0  0  0  0  0
   -8.5280   19.8590  -32.7120 C   0  0  0  0  0  0  0  0  0  0  0  0
   -8.7480   21.1010  -31.8160 C   0  0  0  0  0  0  0  0  0  0  0  0
   -7.3990   21.7260  -31.7590 C   0  0  0  0  0  0  0  0  0  0  0  0
   -7.0440   22.9250  -31.1420 C   0  0  0  0  0  0  0  0  0  0  0  0
   -5.7150   23.3740  -31.2530 C   0  0  0  0  0  0  0  0  0  0  0  0
   -5.2250   24.8660  -30.4580 S   0  0  0  0  0  0  0  0  0  0  0  0
   -5.7310   26.0610  -31.2170 O   0  0  0  0  0  0  0  0  0  0  0  0
   -5.7970   24.8880  -29.0690 O   0  0  0  0  0  0  0  0  0  0  0  0
   -3.4960   24.9470  -30.3630 N   0  0  0  0  0  0  0  0  0  0  0  0
   -2.6790   24.2100  -29.4400 C   0  0  0  0  0  0  0  0  0  0  0  0
   -3.0170   22.9040  -29.0360 C   0  0  0  0  0  0  0  0  0  0  0  0
   -2.2120   22.2140  -28.1250 C   0  0  0  0  0  0  0  0  0  0  0  0
   -2.6480   20.5920  -27.6200 Cl  0  0  0  0  0  0  0  0  0  0  0  0
   -1.0590   22.8170  -27.6150 C   0  0  0  0  0  0  0  0  0  0  0  0
   -0.7100   24.1080  -28.0150 C   0  0  0  0  0  0  0  0  0  0  0  0
   -1.5120   24.8090  -28.9240 C   0  0  0  0  0  0  0  0  0  0  0  0
   -1.1320   26.0980  -29.2960 O   0  0  0  0  0  0  0  0  0  0  0  0
   -4.7850   22.6280  -32.0060 C   0  0  0  0  0  0  0  0  0  0  0  0
   -5.1700   21.4280  -32.6240 C   0  0  0  0  0  0  0  0  0  0  0  0
   -6.4860   20.9790  -32.4540 C   0  0  0  0  0  0  0  0  0  0  0  0
   -6.3285   17.5255  -31.8907 H   0  0  0  0  0  0  0  0  0  0  0  0
   -7.1406   16.7204  -33.2759 H   0  0  0  0  0  0  0  0  0  0  0  0
   -5.3559   16.9239  -33.2759 H   0  0  0  0  0  0  0  0  0  0  0  0
   -9.1145   19.9483  -33.6383 H   0  0  0  0  0  0  0  0  0  0  0  0
   -8.8515   18.9374  -32.2061 H   0  0  0  0  0  0  0  0  0  0  0  0
   -9.4811   21.7866  -32.2661 H   0  0  0  0  0  0  0  0  0  0  0  0
   -9.1479   20.8494  -30.8226 H   0  0  0  0  0  0  0  0  0  0  0  0
   -7.7880   23.5083  -30.5797 H   0  0  0  0  0  0  0  0  0  0  0  0
   -3.9204   22.4237  -29.4399 H   0  0  0  0  0  0  0  0  0  0  0  0
   -0.4260   22.2739  -26.8978 H   0  0  0  0  0  0  0  0  0  0  0  0
    0.2003   24.5774  -27.6138 H   0  0  0  0  0  0  0  0  0  0  0  0
   -1.2420   26.4450  -30.2410 H   0  0  0  0  0  0  0  0  0  0  0  0
   -3.7511   22.9888  -32.1098 H   0  0  0  0  0  0  0  0  0  0  0  0
   -4.4537   20.8525  -33.2288 H   0  0  0  0  0  0  0  0  0  0  0  0
  1  2  1  0
  2  3  2  0
  2  4  1  0
  4  5  1  0
  5  6  1  0
  6  7  1  0
  7  8  2  0
  8  9  1  0
  9 10  1  0
 10 11  2  0
 10 12  2  0
 10 13  1  0
 13 14  1  0
 14 15  2  0
 15 16  1  0
 16 17  1  0
 16 18  2  0
 18 19  1  0
 19 20  2  0
 20 21  1  0
  9 22  2  0
 22 23  1  0
 23 24  2  0
 24  4  1  0
 24  7  1  0
 20 14  1  0
  1 25  1  0
  1 26  1  0
  1 27  1  0
  5 28  1  0
  5 29  1  0
  6 30  1  0
  6 31  1  0
  8 32  1  0
 15 33  1  0
 18 34  1  0
 19 35  1  0
 21 36  1  0
 22 37  1  0
 23 38  1  0
M  CHG  1  13  -1
M  END
>  <UniqueID>  (26) 
25

>  <SMILES>  (26) 
CC(=O)N1CCc2cc(S(=O)(=O)[N-]c3cc(Cl)ccc3O)ccc21

>  <Energy>  (26) 
59.59589658197692

>  <Genealogy>  (26) 
CC(=O)N1CCc2cc(S(=O)(=O)[N-]c3cc(Cl)ccc3O)ccc21 (protonated)
CC(=O)N1CCc2cc(S(=O)(=O)[N-]c3cc(Cl)ccc3O)ccc21 (3D coordinates assigned)
CC(=O)N1CCc2cc(S(=O)(=O)[N-]c3cc(Cl)ccc3O)ccc21 (nonaromatic ring conformer: 59.59589658197692 kcal/mol)

>  <smiles>  (26) 
CC(=O)N1CCc2cc(S(=O)(=O)Nc3cc(Cl)ccc3O)ccc21

>  <score_type>  (26) 
oracle

>  <origin>  (26) 
adgpu

>  <m_score__min__energy>  (26) 
-12.25

>  <m_primary>  (26) 
energy

$$$$
26:0
     RDKit          3D

 52 53  0  0  0  0  0  0  0  0999 V2000
   -7.0190   25.0230  -29.9990 C   0  0  0  0  0  0  0  0  0  0  0  0
   -6.7200   23.8440  -30.9200 C   0  0  0  0  0  0  0  0  0  0  0  0
   -7.9880   23.3580  -31.6290 C   0  0  0  0  0  0  0  0  0  0  0  0
   -7.8310   21.9060  -32.1050 C   0  0  0  0  0  0  0  0  0  0  0  0
   -9.1570   21.1210  -32.0910 C   0  0  0  0  0  0  0  0  0  0  0  0
   -9.0860   19.7200  -32.7270 C   0  0  0  0  0  0  0  0  0  0  0  0
   -8.5800   18.6450  -31.7490 C   0  0  0  0  0  0  0  0  0  0  0  0
   -7.0470   18.5750  -31.6930 C   0  0  0  0  0  0  0  0  0  0  0  0
   -6.5250   17.1310  -31.6470 C   0  0  0  0  0  0  0  0  0  0  0  0
   -5.8310   16.7570  -32.9580 C   0  0  0  0  0  0  0  0  0  0  0  0
   -5.9440   18.1340  -34.1580 S   0  0  0  0  0  0  0  0  0  0  0  0
   -4.1480   18.4400  -34.3130 C   0  0  0  0  0  0  0  0  0  0  0  0
   -3.7240   19.5470  -33.4000 C   0  0  0  0  0  0  0  0  0  0  0  0
   -4.5200   20.6180  -33.0110 C   0  0  0  0  0  0  0  0  0  0  0  0
   -3.7690   21.3520  -32.1860 N   0  0  0  0  0  0  0  0  0  0  0  0
   -4.0870   22.4770  -31.5500 N   0  0  0  0  0  0  0  0  0  0  0  0
   -3.1580   23.0660  -30.7430 C   0  0  0  0  0  0  0  0  0  0  0  0
   -3.5490   24.5550  -29.9010 S   0  0  0  0  0  0  0  0  0  0  0  0
   -2.1050   25.2700  -29.2780 N   0  0  0  0  0  0  0  0  0  0  0  0
   -4.5010   24.2650  -28.7740 O   0  0  0  0  0  0  0  0  0  0  0  0
   -4.2030   25.5140  -30.8570 O   0  0  0  0  0  0  0  0  0  0  0  0
   -1.8830   22.4770  -30.6010 C   0  0  0  0  0  0  0  0  0  0  0  0
   -1.5830   21.2880  -31.2840 C   0  0  0  0  0  0  0  0  0  0  0  0
   -2.5800   20.7460  -32.0860 C   0  0  0  0  0  0  0  0  0  0  0  0
   -2.4990   19.6190  -32.8190 N   0  0  0  0  0  0  0  0  0  0  0  0
   -6.9370   24.6995  -28.9509 H   0  0  0  0  0  0  0  0  0  0  0  0
   -6.2972   25.8306  -30.1911 H   0  0  0  0  0  0  0  0  0  0  0  0
   -8.0384   25.3890  -30.1911 H   0  0  0  0  0  0  0  0  0  0  0  0
   -5.9842   24.1567  -31.6755 H   0  0  0  0  0  0  0  0  0  0  0  0
   -6.3240   23.0183  -30.3106 H   0  0  0  0  0  0  0  0  0  0  0  0
   -8.8358   23.4179  -30.9307 H   0  0  0  0  0  0  0  0  0  0  0  0
   -8.1653   23.9970  -32.5066 H   0  0  0  0  0  0  0  0  0  0  0  0
   -7.4395   21.9145  -33.1329 H   0  0  0  0  0  0  0  0  0  0  0  0
   -7.1440   21.4038  -31.4081 H   0  0  0  0  0  0  0  0  0  0  0  0
   -9.4752   21.0058  -31.0444 H   0  0  0  0  0  0  0  0  0  0  0  0
   -9.8663   21.7012  -32.6994 H   0  0  0  0  0  0  0  0  0  0  0  0
  -10.0928   19.4380  -33.0688 H   0  0  0  0  0  0  0  0  0  0  0  0
   -8.3708   19.7713  -33.5611 H   0  0  0  0  0  0  0  0  0  0  0  0
   -8.9594   18.8769  -30.7429 H   0  0  0  0  0  0  0  0  0  0  0  0
   -8.9461   17.6707  -32.1050 H   0  0  0  0  0  0  0  0  0  0  0  0
   -6.6385   19.0694  -32.5867 H   0  0  0  0  0  0  0  0  0  0  0  0
   -6.7232   19.0769  -30.7693 H   0  0  0  0  0  0  0  0  0  0  0  0
   -5.8068   17.0343  -30.8195 H   0  0  0  0  0  0  0  0  0  0  0  0
   -7.3791   16.4542  -31.4971 H   0  0  0  0  0  0  0  0  0  0  0  0
   -4.7719   16.5377  -32.7573 H   0  0  0  0  0  0  0  0  0  0  0  0
   -6.3272   15.8724  -33.3836 H   0  0  0  0  0  0  0  0  0  0  0  0
   -3.6005   17.5232  -34.0488 H   0  0  0  0  0  0  0  0  0  0  0  0
   -3.9248   18.7295  -35.3505 H   0  0  0  0  0  0  0  0  0  0  0  0
   -5.5564   20.8197  -33.3195 H   0  0  0  0  0  0  0  0  0  0  0  0
   -1.6020   25.7010  -30.0860 H   0  0  0  0  0  0  0  0  0  0  0  0
   -1.1264   22.9487  -29.9567 H   0  0  0  0  0  0  0  0  0  0  0  0
   -0.5993   20.8052  -31.1883 H   0  0  0  0  0  0  0  0  0  0  0  0
  1  2  1  0
  2  3  1  0
  3  4  1  0
  4  5  1  0
  5  6  1  0
  6  7  1  0
  7  8  1  0
  8  9  1  0
  9 10  1  0
 10 11  1  0
 11 12  1  0
 12 13  1  0
 13 14  2  0
 14 15  1  0
 15 16  1  0
 16 17  2  0
 17 18  1  0
 18 19  1  0
 18 20  2  0
 18 21  2  0
 17 22  1  0
 22 23  2  0
 23 24  1  0
 24 25  2  0
 25 13  1  0
 24 15  1  0
  1 26  1  0
  1 27  1  0
  1 28  1  0
  2 29  1  0
  2 30  1  0
  3 31  1  0
  3 32  1  0
  4 33  1  0
  4 34  1  0
  5 35  1  0
  5 36  1  0
  6 37  1  0
  6 38  1  0
  7 39  1  0
  7 40  1  0
  8 41  1  0
  8 42  1  0
  9 43  1  0
  9 44  1  0
 10 45  1  0
 10 46  1  0
 12 47  1  0
 12 48  1  0
 14 49  1  0
 19 50  1  0
 22 51  1  0
 23 52  1  0
M  CHG  1  19  -1
M  END
>  <UniqueID>  (27) 
26

>  <SMILES>  (27) 
CCCCCCCCCCSCc1cn2nc(S([NH-])(=O)=O)ccc2n1

>  <Energy>  (27) 
66.04299426647053

>  <Genealogy>  (27) 
CCCCCCCCCCSCc1cn2nc(S([NH-])(=O)=O)ccc2n1 (protonated)
CCCCCCCCCCSCc1cn2nc(S([NH-])(=O)=O)ccc2n1 (3D coordinates assigned)
CCCCCCCCCCSCc1cn2nc(S([NH-])(=O)=O)ccc2n1 (optimized conformer: 66.04299426647053 kcal/mol)

>  <smiles>  (27) 
CCCCCCCCCCSCc1cn2nc(S(N)(=O)=O)ccc2n1

>  <score_type>  (27) 
oracle

>  <origin>  (27) 
adgpu

>  <m_score__min__energy>  (27) 
-10.81

>  <m_primary>  (27) 
energy

$$$$
27:0
     RDKit          3D

 49 51  0  0  0  0  0  0  0  0999 V2000
   -5.0630   24.8810  -28.5850 O   0  0  0  0  0  0  0  0  0  0  0  0
   -4.2860   24.5690  -29.5250 C   0  0  0  0  0  0  0  0  0  0  0  0
   -4.5940   25.0050  -30.8540 N   0  0  0  0  0  0  0  0  0  0  0  0
   -5.7460   24.5400  -31.6190 C   0  0  0  0  0  0  0  0  0  0  0  0
   -6.7750   23.9260  -30.6730 C   0  0  0  0  0  0  0  0  0  0  0  0
   -7.2650   22.6070  -31.2080 C   0  0  0  0  0  0  0  0  0  0  0  0
   -8.6200   22.2620  -31.1060 C   0  0  0  0  0  0  0  0  0  0  0  0
   -9.0780   21.0510  -31.6320 C   0  0  0  0  0  0  0  0  0  0  0  0
   -8.1940   20.1800  -32.2730 C   0  0  0  0  0  0  0  0  0  0  0  0
   -8.6780   18.9790  -32.7800 O   0  0  0  0  0  0  0  0  0  0  0  0
   -6.8330   20.5210  -32.3970 C   0  0  0  0  0  0  0  0  0  0  0  0
   -5.6790   19.4490  -33.2040 S   0  0  0  0  0  0  0  0  0  0  0  0
   -6.1820   19.1470  -34.5890 O   0  0  0  0  0  0  0  0  0  0  0  0
   -5.5790   18.1460  -32.4590 O   0  0  0  0  0  0  0  0  0  0  0  0
   -4.0940   20.1770  -33.3170 N   0  0  0  0  0  0  0  0  0  0  0  0
   -3.6100   20.5610  -31.9820 C   0  0  0  0  0  0  0  0  0  0  0  0
   -2.3360   21.4190  -32.1000 C   0  0  0  0  0  0  0  0  0  0  0  0
   -1.6010   21.2010  -33.4330 C   0  0  0  0  0  0  0  0  0  0  0  0
   -1.6860   19.7370  -33.8750 C   0  0  0  0  0  0  0  0  0  0  0  0
   -3.1500   19.2490  -33.9720 C   0  0  0  0  0  0  0  0  0  0  0  0
   -6.3800   21.7390  -31.8670 C   0  0  0  0  0  0  0  0  0  0  0  0
   -3.1040   23.7380  -29.2350 C   0  0  0  0  0  0  0  0  0  0  0  0
   -3.2670   22.3640  -29.0040 C   0  0  0  0  0  0  0  0  0  0  0  0
   -2.1560   21.5580  -28.7330 C   0  0  0  0  0  0  0  0  0  0  0  0
   -0.8790   22.1230  -28.6800 C   0  0  0  0  0  0  0  0  0  0  0  0
   -0.7110   23.4940  -28.8890 C   0  0  0  0  0  0  0  0  0  0  0  0
   -1.8190   24.3070  -29.1570 C   0  0  0  0  0  0  0  0  0  0  0  0
   -1.6370   25.6760  -29.3220 O   0  0  0  0  0  0  0  0  0  0  0  0
   -6.1990   25.3894  -32.1513 H   0  0  0  0  0  0  0  0  0  0  0  0
   -5.4198   23.7816  -32.3459 H   0  0  0  0  0  0  0  0  0  0  0  0
   -6.3113   23.7670  -29.6882 H   0  0  0  0  0  0  0  0  0  0  0  0
   -7.6298   24.6126  -30.5844 H   0  0  0  0  0  0  0  0  0  0  0  0
   -9.3245   22.9463  -30.6106 H   0  0  0  0  0  0  0  0  0  0  0  0
  -10.1407   20.7822  -31.5407 H   0  0  0  0  0  0  0  0  0  0  0  0
   -4.3903   21.1396  -31.4659 H   0  0  0  0  0  0  0  0  0  0  0  0
   -3.3757   19.6502  -31.4113 H   0  0  0  0  0  0  0  0  0  0  0  0
   -2.6164   22.4797  -32.0211 H   0  0  0  0  0  0  0  0  0  0  0  0
   -1.6549   21.1195  -31.2898 H   0  0  0  0  0  0  0  0  0  0  0  0
   -2.0598   21.8367  -34.2046 H   0  0  0  0  0  0  0  0  0  0  0  0
   -0.5418   21.4642  -33.2957 H   0  0  0  0  0  0  0  0  0  0  0  0
   -1.2109   19.6351  -34.8619 H   0  0  0  0  0  0  0  0  0  0  0  0
   -1.1707   19.1227  -33.1220 H   0  0  0  0  0  0  0  0  0  0  0  0
   -3.4229   19.1575  -35.0337 H   0  0  0  0  0  0  0  0  0  0  0  0
   -3.2170   18.2802  -33.4554 H   0  0  0  0  0  0  0  0  0  0  0  0
   -5.3205   22.0164  -31.9690 H   0  0  0  0  0  0  0  0  0  0  0  0
   -4.2723   21.9185  -29.0361 H   0  0  0  0  0  0  0  0  0  0  0  0
   -2.2877   20.4794  -28.5616 H   0  0  0  0  0  0  0  0  0  0  0  0
   -0.0052   21.4876  -28.4735 H   0  0  0  0  0  0  0  0  0  0  0  0
    0.2951   23.9363  -28.8429 H   0  0  0  0  0  0  0  0  0  0  0  0
  1  2  2  0
  2  3  1  0
  3  4  1  0
  4  5  1  0
  5  6  1  0
  6  7  2  0
  7  8  1  0
  8  9  2  0
  9 10  1  0
  9 11  1  0
 11 12  1  0
 12 13  2  0
 12 14  2  0
 12 15  1  0
 15 16  1  0
 16 17  1  0
 17 18  1  0
 18 19  1  0
 19 20  1  0
 11 21  2  0
  2 22  1  0
 22 23  2  0
 23 24  1  0
 24 25  2  0
 25 26  1  0
 26 27  2  0
 27 28  1  0
 21  6  1  0
 27 22  1  0
 20 15  1  0
  4 29  1  0
  4 30  1  0
  5 31  1  0
  5 32  1  0
  7 33  1  0
  8 34  1  0
 16 35  1  0
 16 36  1  0
 17 37  1  0
 17 38  1  0
 18 39  1  0
 18 40  1  0
 19 41  1  0
 19 42  1  0
 20 43  1  0
 20 44  1  0
 21 45  1  0
 23 46  1  0
 24 47  1  0
 25 48  1  0
 26 49  1  0
M  CHG  3   3  -1  10  -1  28  -1
M  END
>  <UniqueID>  (28) 
27

>  <SMILES>  (28) 
O=C([N-]CCc1ccc([O-])c(S(=O)(=O)N2CCCCC2)c1)c1ccccc1[O-]

>  <Energy>  (28) 
55.882711514447344

>  <Genealogy>  (28) 
O=C([N-]CCc1ccc([O-])c(S(=O)(=O)N2CCCCC2)c1)c1ccccc1[O-] (protonated)
O=C([N-]CCc1ccc([O-])c(S(=O)(=O)N2CCCCC2)c1)c1ccccc1[O-] (3D coordinates assigned)
O=C([N-]CCc1ccc([O-])c(S(=O)(=O)N2CCCCC2)c1)c1ccccc1[O-] (nonaromatic ring conformer: 55.882711514447344 kcal/mol)

>  <smiles>  (28) 
O=C(NCCc1ccc(O)c(S(=O)(=O)N2CCCCC2)c1)c1ccccc1O

>  <score_type>  (28) 
oracle

>  <origin>  (28) 
adgpu

>  <m_score__min__energy>  (28) 
-13.82

>  <m_primary>  (28) 
energy

$$$$
28:0
     RDKit          3D

 66 69  0  0  0  0  0  0  0  0999 V2000
   -5.1900   25.7440  -31.1950 O   0  0  0  0  0  0  0  0  0  0  0  0
   -5.0080   24.4140  -30.5180 S   0  0  0  0  0  0  0  0  0  0  0  0
   -5.1660   24.6080  -29.0350 O   0  0  0  0  0  0  0  0  0  0  0  0
   -3.4180   23.8110  -30.8690 N   0  0  0  0  0  0  0  0  0  0  0  0
   -2.7300   23.4700  -29.6270 C   0  0  0  0  0  0  0  0  0  0  0  0
   -2.9880   22.0010  -29.2370 C   0  0  0  0  0  0  0  0  0  0  0  0
   -1.9470   21.0320  -29.6540 N   0  0  0  0  0  0  0  0  0  0  0  0
   -0.9130   21.6120  -30.5350 C   0  0  0  0  0  0  0  0  0  0  0  0
    0.2300   20.6080  -30.7720 C   0  0  0  0  0  0  0  0  0  0  0  0
   -0.2140   19.2870  -30.5350 O   0  0  0  0  0  0  0  0  0  0  0  0
   -0.4860   19.1060  -29.1550 C   0  0  0  0  0  0  0  0  0  0  0  0
   -1.3610   20.2330  -28.5640 C   0  0  0  0  0  0  0  0  0  0  0  0
   -6.2230   23.2900  -31.1240 C   0  0  0  0  0  0  0  0  0  0  0  0
   -7.5720   23.6690  -31.1370 C   0  0  0  0  0  0  0  0  0  0  0  0
   -8.5410   22.7950  -31.6340 C   0  0  0  0  0  0  0  0  0  0  0  0
   -8.1680   21.5420  -32.1280 C   0  0  0  0  0  0  0  0  0  0  0  0
   -6.8210   21.1600  -32.1330 C   0  0  0  0  0  0  0  0  0  0  0  0
   -6.3590   19.5780  -32.7540 S   0  0  0  0  0  0  0  0  0  0  0  0
   -7.3380   18.5530  -32.2520 O   0  0  0  0  0  0  0  0  0  0  0  0
   -6.3840   19.5930  -34.2580 O   0  0  0  0  0  0  0  0  0  0  0  0
   -4.7610   19.1950  -32.1960 N   0  0  0  0  0  0  0  0  0  0  0  0
   -3.5590   19.6660  -32.8310 C   0  0  0  0  0  0  0  0  0  0  0  0
   -3.2070   21.0280  -32.8380 C   0  0  0  0  0  0  0  0  0  0  0  0
   -2.0370   21.4540  -33.4750 C   0  0  0  0  0  0  0  0  0  0  0  0
   -1.2010   20.5260  -34.1120 C   0  0  0  0  0  0  0  0  0  0  0  0
    0.2630   21.0660  -34.9380 S   0  0  0  0  0  0  0  0  0  0  0  0
    0.2570   22.5670  -35.0180 O   0  0  0  0  0  0  0  0  0  0  0  0
    0.2670   20.5260  -36.3420 O   0  0  0  0  0  0  0  0  0  0  0  0
    1.7070   20.5380  -34.1110 N   0  0  0  0  0  0  0  0  0  0  0  0
    1.5600   19.1490  -33.6510 C   0  0  0  0  0  0  0  0  0  0  0  0
    2.8330   18.7080  -32.8980 C   0  0  0  0  0  0  0  0  0  0  0  0
    3.8790   19.6590  -33.0020 O   0  0  0  0  0  0  0  0  0  0  0  0
    4.1110   19.9730  -34.3620 C   0  0  0  0  0  0  0  0  0  0  0  0
    2.8800   20.6590  -34.9930 C   0  0  0  0  0  0  0  0  0  0  0  0
   -1.5390   19.1670  -34.0910 C   0  0  0  0  0  0  0  0  0  0  0  0
   -2.7070   18.7410  -33.4540 C   0  0  0  0  0  0  0  0  0  0  0  0
   -5.8500   22.0340  -31.6240 C   0  0  0  0  0  0  0  0  0  0  0  0
   -1.6489   23.6218  -29.7615 H   0  0  0  0  0  0  0  0  0  0  0  0
   -3.1137   24.1178  -28.8250 H   0  0  0  0  0  0  0  0  0  0  0  0
   -3.0751   21.9527  -28.1415 H   0  0  0  0  0  0  0  0  0  0  0  0
   -3.9031   21.7057  -29.7712 H   0  0  0  0  0  0  0  0  0  0  0  0
   -1.3685   21.8745  -31.5013 H   0  0  0  0  0  0  0  0  0  0  0  0
   -0.4995   22.5086  -30.0502 H   0  0  0  0  0  0  0  0  0  0  0  0
    0.5759   20.6924  -31.8128 H   0  0  0  0  0  0  0  0  0  0  0  0
    1.0532   20.8362  -30.0790 H   0  0  0  0  0  0  0  0  0  0  0  0
   -1.0105   18.1481  -29.0230 H   0  0  0  0  0  0  0  0  0  0  0  0
    0.4768   19.1212  -28.6232 H   0  0  0  0  0  0  0  0  0  0  0  0
   -2.1676   19.7910  -27.9606 H   0  0  0  0  0  0  0  0  0  0  0  0
   -0.7386   20.8826  -27.9310 H   0  0  0  0  0  0  0  0  0  0  0  0
   -7.8682   24.6571  -30.7549 H   0  0  0  0  0  0  0  0  0  0  0  0
   -9.5998   23.0932  -31.6367 H   0  0  0  0  0  0  0  0  0  0  0  0
   -8.9347   20.8541  -32.5139 H   0  0  0  0  0  0  0  0  0  0  0  0
   -4.6850   18.5090  -31.4120 H   0  0  0  0  0  0  0  0  0  0  0  0
   -3.8562   21.7627  -32.3392 H   0  0  0  0  0  0  0  0  0  0  0  0
   -1.7716   22.5215  -33.4762 H   0  0  0  0  0  0  0  0  0  0  0  0
    0.6940   19.0778  -32.9764 H   0  0  0  0  0  0  0  0  0  0  0  0
    1.4082   18.4933  -34.5211 H   0  0  0  0  0  0  0  0  0  0  0  0
    2.5850   18.5704  -31.8352 H   0  0  0  0  0  0  0  0  0  0  0  0
    3.1850   17.7710  -33.3543 H   0  0  0  0  0  0  0  0  0  0  0  0
    4.9747   20.6506  -34.4318 H   0  0  0  0  0  0  0  0  0  0  0  0
    4.3073   19.0381  -34.9074 H   0  0  0  0  0  0  0  0  0  0  0  0
    3.1029   21.7242  -35.1532 H   0  0  0  0  0  0  0  0  0  0  0  0
    2.6540   20.1679  -35.9510 H   0  0  0  0  0  0  0  0  0  0  0  0
   -0.8818   18.4318  -34.5783 H   0  0  0  0  0  0  0  0  0  0  0  0
   -2.9612   17.6709  -33.4406 H   0  0  0  0  0  0  0  0  0  0  0  0
   -4.7919   21.7335  -31.6168 H   0  0  0  0  0  0  0  0  0  0  0  0
  1  2  2  0
  2  3  2  0
  2  4  1  0
  4  5  1  0
  5  6  1  0
  6  7  1  0
  7  8  1  0
  8  9  1  0
  9 10  1  0
 10 11  1  0
 11 12  1  0
  2 13  1  0
 13 14  2  0
 14 15  1  0
 15 16  2  0
 16 17  1  0
 17 18  1  0
 18 19  2  0
 18 20  2  0
 18 21  1  0
 21 22  1  0
 22 23  2  0
 23 24  1  0
 24 25  2  0
 25 26  1  0
 26 27  2  0
 26 28  2  0
 26 29  1  0
 29 30  1  0
 30 31  1  0
 31 32  1  0
 32 33  1  0
 33 34  1  0
 25 35  1  0
 35 36  2  0
 17 37  2  0
 12  7  1  0
 37 13  1  0
 36 22  1  0
 34 29  1  0
  5 38  1  0
  5 39  1  0
  6 40  1  0
  6 41  1  0
  8 42  1  0
  8 43  1  0
  9 44  1  0
  9 45  1  0
 11 46  1  0
 11 47  1  0
 12 48  1  0
 12 49  1  0
 14 50  1  0
 15 51  1  0
 16 52  1  0
 21 53  1  0
 23 54  1  0
 24 55  1  0
 30 56  1  0
 30 57  1  0
 31 58  1  0
 31 59  1  0
 33 60  1  0
 33 61  1  0
 34 62  1  0
 34 63  1  0
 35 64  1  0
 36 65  1  0
 37 66  1  0
M  CHG  1   4  -1
M  END
>  <UniqueID>  (29) 
28

>  <SMILES>  (29) 
O=S(=O)([N-]CCN1CCOCC1)c1cccc(S(=O)(=O)Nc2ccc(S(=O)(=O)N3CCOCC3)cc2)c1

>  <Energy>  (29) 
89.93986439632194

>  <Genealogy>  (29) 
O=S(=O)([N-]CCN1CCOCC1)c1cccc(S(=O)(=O)Nc2ccc(S(=O)(=O)N3CCOCC3)cc2)c1 (protonated)
O=S(=O)([N-]CCN1CCOCC1)c1cccc(S(=O)(=O)Nc2ccc(S(=O)(=O)N3CCOCC3)cc2)c1 (3D coordinates assigned)
O=S(=O)([N-]CCN1CCOCC1)c1cccc(S(=O)(=O)Nc2ccc(S(=O)(=O)N3CCOCC3)cc2)c1 (nonaromatic ring conformer: 89.93986439632194 kcal/mol)

>  <smiles>  (29) 
O=S(=O)(NCCN1CCOCC1)c1cccc(S(=O)(=O)Nc2ccc(S(=O)(=O)N3CCOCC3)cc2)c1

>  <score_type>  (29) 
oracle

>  <origin>  (29) 
adgpu

>  <m_score__min__energy>  (29) 
-11.869999999999999

>  <m_primary>  (29) 
energy

$$$$
29:0
     RDKit          3D

 57 60  0  0  0  0  0  0  0  0999 V2000
   -1.5690   20.4040  -27.2060 C   0  0  0  0  0  0  0  0  0  0  0  0
   -1.7430   20.3670  -28.6950 C   0  0  0  0  0  0  0  0  0  0  0  0
   -2.9290   20.8400  -29.2790 C   0  0  0  0  0  0  0  0  0  0  0  0
   -3.0800   20.8390  -30.6690 C   0  0  0  0  0  0  0  0  0  0  0  0
   -2.0400   20.3810  -31.4910 C   0  0  0  0  0  0  0  0  0  0  0  0
   -2.2510   20.3680  -33.2420 S   0  0  0  0  0  0  0  0  0  0  0  0
   -3.1480   21.5190  -33.6020 O   0  0  0  0  0  0  0  0  0  0  0  0
   -0.9190   20.5560  -33.9110 O   0  0  0  0  0  0  0  0  0  0  0  0
   -2.9700   18.8400  -33.7870 C   0  0  0  0  0  0  0  0  0  0  0  0
   -2.1910   17.9690  -34.5680 C   0  0  0  0  0  0  0  0  0  0  0  0
   -2.6880   16.7260  -34.9620 C   0  0  0  0  0  0  0  0  0  0  0  0
   -3.9710   16.3330  -34.5830 C   0  0  0  0  0  0  0  0  0  0  0  0
   -4.7660   17.1900  -33.8220 C   0  0  0  0  0  0  0  0  0  0  0  0
   -4.2900   18.4540  -33.4270 C   0  0  0  0  0  0  0  0  0  0  0  0
   -5.2040   19.3380  -32.6710 C   0  0  0  0  0  0  0  0  0  0  0  0
   -5.7820   18.9040  -31.6370 O   0  0  0  0  0  0  0  0  0  0  0  0
   -5.4300   20.6860  -33.1130 N   0  0  0  0  0  0  0  0  0  0  0  0
   -6.1070   21.6830  -32.3300 C   0  0  0  0  0  0  0  0  0  0  0  0
   -7.5090   21.7450  -32.3580 C   0  0  0  0  0  0  0  0  0  0  0  0
   -8.1880   22.7160  -31.6170 C   0  0  0  0  0  0  0  0  0  0  0  0
   -7.4750   23.6390  -30.8510 C   0  0  0  0  0  0  0  0  0  0  0  0
   -6.0750   23.6010  -30.8250 C   0  0  0  0  0  0  0  0  0  0  0  0
   -5.1880   24.8050  -29.8960 S   0  0  0  0  0  0  0  0  0  0  0  0
   -4.4130   25.6790  -30.8400 O   0  0  0  0  0  0  0  0  0  0  0  0
   -6.1480   25.6660  -29.1190 O   0  0  0  0  0  0  0  0  0  0  0  0
   -4.0860   23.9940  -28.8130 N   0  0  0  0  0  0  0  0  0  0  0  0
   -4.1630   24.5480  -27.4610 C   0  0  0  0  0  0  0  0  0  0  0  0
   -2.8070   24.3080  -26.8160 C   0  0  0  0  0  0  0  0  0  0  0  0
   -1.8510   24.0470  -27.9720 C   0  0  0  0  0  0  0  0  0  0  0  0
   -2.6970   24.1760  -29.2300 C   0  0  0  0  0  0  0  0  0  0  0  0
   -5.3930   22.6310  -31.5760 C   0  0  0  0  0  0  0  0  0  0  0  0
   -0.8500   19.9200  -30.9110 C   0  0  0  0  0  0  0  0  0  0  0  0
   -0.6990   19.9210  -29.5210 C   0  0  0  0  0  0  0  0  0  0  0  0
   -2.5337   20.1989  -26.7189 H   0  0  0  0  0  0  0  0  0  0  0  0
   -0.8360   19.6416  -26.9034 H   0  0  0  0  0  0  0  0  0  0  0  0
   -1.2096   21.3986  -26.9034 H   0  0  0  0  0  0  0  0  0  0  0  0
   -3.7430   21.2130  -28.6401 H   0  0  0  0  0  0  0  0  0  0  0  0
   -4.0171   21.1984  -31.1191 H   0  0  0  0  0  0  0  0  0  0  0  0
   -1.1778   18.2706  -34.8722 H   0  0  0  0  0  0  0  0  0  0  0  0
   -2.0663   16.0548  -35.5728 H   0  0  0  0  0  0  0  0  0  0  0  0
   -4.3560   15.3475  -34.8840 H   0  0  0  0  0  0  0  0  0  0  0  0
   -5.7775   16.8739  -33.5270 H   0  0  0  0  0  0  0  0  0  0  0  0
   -5.1870   20.9210  -34.1020 H   0  0  0  0  0  0  0  0  0  0  0  0
   -8.0763   21.0254  -32.9665 H   0  0  0  0  0  0  0  0  0  0  0  0
   -9.2872   22.7528  -31.6376 H   0  0  0  0  0  0  0  0  0  0  0  0
   -8.0139   24.3987  -30.2658 H   0  0  0  0  0  0  0  0  0  0  0  0
   -4.3775   25.6260  -27.5041 H   0  0  0  0  0  0  0  0  0  0  0  0
   -4.9679   24.0716  -26.8820 H   0  0  0  0  0  0  0  0  0  0  0  0
   -2.4895   25.1938  -26.2462 H   0  0  0  0  0  0  0  0  0  0  0  0
   -2.8334   23.4662  -26.1084 H   0  0  0  0  0  0  0  0  0  0  0  0
   -1.0393   24.7894  -27.9758 H   0  0  0  0  0  0  0  0  0  0  0  0
   -1.3769   23.0573  -27.8965 H   0  0  0  0  0  0  0  0  0  0  0  0
   -2.5618   25.1710  -29.6791 H   0  0  0  0  0  0  0  0  0  0  0  0
   -2.4060   23.4305  -29.9847 H   0  0  0  0  0  0  0  0  0  0  0  0
   -4.2932   22.6123  -31.5747 H   0  0  0  0  0  0  0  0  0  0  0  0
   -0.0327   19.5564  -31.5512 H   0  0  0  0  0  0  0  0  0  0  0  0
    0.2423   19.5707  -29.0724 H   0  0  0  0  0  0  0  0  0  0  0  0
  1  2  1  0
  2  3  2  0
  3  4  1  0
  4  5  2  0
  5  6  1  0
  6  7  2  0
  6  8  2  0
  6  9  1  0
  9 10  2  0
 10 11  1  0
 11 12  2  0
 12 13  1  0
 13 14  2  0
 14 15  1  0
 15 16  2  0
 15 17  1  0
 17 18  1  0
 18 19  2  0
 19 20  1  0
 20 21  2  0
 21 22  1  0
 22 23  1  0
 23 24  2  0
 23 25  2  0
 23 26  1  0
 26 27  1  0
 27 28  1  0
 28 29  1  0
 29 30  1  0
 22 31  2  0
  5 32  1  0
 32 33  2  0
 33  2  1  0
 14  9  1  0
 31 18  1  0
 30 26  1  0
  1 34  1  0
  1 35  1  0
  1 36  1  0
  3 37  1  0
  4 38  1  0
 10 39  1  0
 11 40  1  0
 12 41  1  0
 13 42  1  0
 17 43  1  0
 19 44  1  0
 20 45  1  0
 21 46  1  0
 27 47  1  0
 27 48  1  0
 28 49  1  0
 28 50  1  0
 29 51  1  0
 29 52  1  0
 30 53  1  0
 30 54  1  0
 31 55  1  0
 32 56  1  0
 33 57  1  0
M  END
>  <UniqueID>  (30) 
29

>  <SMILES>  (30) 
Cc1ccc(S(=O)(=O)c2ccccc2C(=O)Nc2cccc(S(=O)(=O)N3CCCC3)c2)cc1

>  <Energy>  (30) 
72.26782285812332

>  <Genealogy>  (30) 
Cc1ccc(S(=O)(=O)c2ccccc2C(=O)Nc2cccc(S(=O)(=O)N3CCCC3)c2)cc1 (3D coordinates assigned)
Cc1ccc(S(=O)(=O)c2ccccc2C(=O)Nc2cccc(S(=O)(=O)N3CCCC3)c2)cc1 (nonaromatic ring conformer: 72.26782285812332 kcal/mol)

>  <smiles>  (30) 
Cc1ccc(S(=O)(=O)c2ccccc2C(=O)Nc2cccc(S(=O)(=O)N3CCCC3)c2)cc1

>  <score_type>  (30) 
oracle

>  <origin>  (30) 
adgpu

>  <m_score__min__energy>  (30) 
-11.039999999999999

>  <m_primary>  (30) 
energy

$$$$
30:0
     RDKit          3D

 48 50  0  0  0  0  0  0  0  0999 V2000
   -0.7230   22.7040  -26.1320 C   0  0  0  0  0  0  0  0  0  0  0  0
   -1.8650   23.3050  -26.9570 C   0  0  0  0  0  0  0  0  0  0  0  0
   -1.3180   24.1280  -28.1450 C   0  0  0  0  0  0  0  0  0  0  0  0
   -2.3740   24.3430  -29.2470 C   0  0  0  0  0  0  0  0  0  0  0  0
   -3.7310   24.1960  -28.6960 N   0  0  0  0  0  0  0  0  0  0  0  0
   -4.9210   24.7070  -29.8670 S   0  0  0  0  0  0  0  0  0  0  0  0
   -4.2830   25.6570  -30.8420 O   0  0  0  0  0  0  0  0  0  0  0  0
   -6.0330   25.4370  -29.1660 O   0  0  0  0  0  0  0  0  0  0  0  0
   -5.5920   23.3350  -30.7520 C   0  0  0  0  0  0  0  0  0  0  0  0
   -4.7370   22.4240  -31.3910 C   0  0  0  0  0  0  0  0  0  0  0  0
   -5.2660   21.3310  -32.0850 C   0  0  0  0  0  0  0  0  0  0  0  0
   -6.6540   21.1410  -32.1500 C   0  0  0  0  0  0  0  0  0  0  0  0
   -7.3300   19.7690  -33.0210 S   0  0  0  0  0  0  0  0  0  0  0  0
   -6.7940   19.7850  -34.4250 O   0  0  0  0  0  0  0  0  0  0  0  0
   -8.8300   19.8780  -33.0640 O   0  0  0  0  0  0  0  0  0  0  0  0
   -6.8660   18.2790  -32.2260 N   0  0  0  0  0  0  0  0  0  0  0  0
   -7.2430   17.1200  -33.0430 C   0  0  0  0  0  0  0  0  0  0  0  0
   -6.0420   16.7240  -33.8910 C   0  0  0  0  0  0  0  0  0  0  0  0
   -4.8560   17.4540  -33.2900 C   0  0  0  0  0  0  0  0  0  0  0  0
   -5.4080   18.2040  -32.0860 C   0  0  0  0  0  0  0  0  0  0  0  0
   -7.5060   22.0490  -31.5100 C   0  0  0  0  0  0  0  0  0  0  0  0
   -6.9790   23.1420  -30.8160 C   0  0  0  0  0  0  0  0  0  0  0  0
   -3.9840   22.7980  -28.2860 C   0  0  0  0  0  0  0  0  0  0  0  0
   -2.8210   22.2080  -27.4570 C   0  0  0  0  0  0  0  0  0  0  0  0
   -0.9440   22.8203  -25.0607 H   0  0  0  0  0  0  0  0  0  0  0  0
   -0.6207   21.6352  -26.3714 H   0  0  0  0  0  0  0  0  0  0  0  0
    0.2158   23.2248  -26.3714 H   0  0  0  0  0  0  0  0  0  0  0  0
   -2.4306   23.9825  -26.3004 H   0  0  0  0  0  0  0  0  0  0  0  0
   -0.9905   25.1101  -27.7732 H   0  0  0  0  0  0  0  0  0  0  0  0
   -0.4826   23.5649  -28.5865 H   0  0  0  0  0  0  0  0  0  0  0  0
   -2.2605   25.3542  -29.6649 H   0  0  0  0  0  0  0  0  0  0  0  0
   -2.2258   23.5888  -30.0339 H   0  0  0  0  0  0  0  0  0  0  0  0
   -3.6477   22.5700  -31.3459 H   0  0  0  0  0  0  0  0  0  0  0  0
   -4.5912   20.6181  -32.5814 H   0  0  0  0  0  0  0  0  0  0  0  0
   -7.5305   16.2823  -32.3906 H   0  0  0  0  0  0  0  0  0  0  0  0
   -8.0971   17.3723  -33.6887 H   0  0  0  0  0  0  0  0  0  0  0  0
   -5.8844   15.6362  -33.8484 H   0  0  0  0  0  0  0  0  0  0  0  0
   -6.1874   16.9880  -34.9489 H   0  0  0  0  0  0  0  0  0  0  0  0
   -4.0828   16.7376  -32.9753 H   0  0  0  0  0  0  0  0  0  0  0  0
   -4.3859   18.1350  -34.0147 H   0  0  0  0  0  0  0  0  0  0  0  0
   -5.1492   17.6672  -31.1614 H   0  0  0  0  0  0  0  0  0  0  0  0
   -4.9772   19.2149  -32.0360 H   0  0  0  0  0  0  0  0  0  0  0  0
   -8.5952   21.9016  -31.5535 H   0  0  0  0  0  0  0  0  0  0  0  0
   -7.6549   23.8530  -30.3184 H   0  0  0  0  0  0  0  0  0  0  0  0
   -4.9011   22.7682  -27.6793 H   0  0  0  0  0  0  0  0  0  0  0  0
   -4.0854   22.1935  -29.1994 H   0  0  0  0  0  0  0  0  0  0  0  0
   -3.2364   21.6745  -26.5893 H   0  0  0  0  0  0  0  0  0  0  0  0
   -2.2509   21.5248  -28.1037 H   0  0  0  0  0  0  0  0  0  0  0  0
  1  2  1  0
  2  3  1  0
  3  4  1  0
  4  5  1  0
  5  6  1  0
  6  7  2  0
  6  8  2  0
  6  9  1  0
  9 10  2  0
 10 11  1  0
 11 12  2  0
 12 13  1  0
 13 14  2  0
 13 15  2  0
 13 16  1  0
 16 17  1  0
 17 18  1  0
 18 19  1  0
 19 20  1  0
 12 21  1  0
 21 22  2  0
  5 23  1  0
 23 24  1  0
 24  2  1  0
 22  9  1  0
 20 16  1  0
  1 25  1  0
  1 26  1  0
  1 27  1  0
  2 28  1  0
  3 29  1  0
  3 30  1  0
  4 31  1  0
  4 32  1  0
 10 33  1  0
 11 34  1  0
 17 35  1  0
 17 36  1  0
 18 37  1  0
 18 38  1  0
 19 39  1  0
 19 40  1  0
 20 41  1  0
 20 42  1  0
 21 43  1  0
 22 44  1  0
 23 45  1  0
 23 46  1  0
 24 47  1  0
 24 48  1  0
M  END
>  <UniqueID>  (31) 
30

>  <SMILES>  (31) 
CC1CCN(S(=O)(=O)c2ccc(S(=O)(=O)N3CCCC3)cc2)CC1

>  <Energy>  (31) 
49.52066861688879

>  <Genealogy>  (31) 
CC1CCN(S(=O)(=O)c2ccc(S(=O)(=O)N3CCCC3)cc2)CC1 (3D coordinates assigned)
CC1CCN(S(=O)(=O)c2ccc(S(=O)(=O)N3CCCC3)cc2)CC1 (nonaromatic ring conformer: 49.52066861688879 kcal/mol)

>  <smiles>  (31) 
CC1CCN(S(=O)(=O)c2ccc(S(=O)(=O)N3CCCC3)cc2)CC1

>  <score_type>  (31) 
oracle

>  <origin>  (31) 
adgpu

>  <m_score__min__energy>  (31) 
-10.09

>  <m_primary>  (31) 
energy

$$$$
31:0
     RDKit          3D

 71 74  0  0  0  0  0  0  0  0999 V2000
   -3.6154   22.4226  -30.1173 H   0  0  0  0  0  0  0  0  0  0  0  0
   -3.9330   23.2150  -30.8110 C   0  0  0  0  0  0  0  0  0  0  0  0
   -3.7250   24.6200  -30.4240 C   0  0  0  0  0  0  0  0  0  0  0  0
   -4.4330   25.5390  -30.9210 O   0  0  0  0  0  0  0  0  0  0  0  0
   -2.7280   24.9280  -29.4440 N   0  0  0  0  0  0  0  0  0  0  0  0
   -2.3840   24.0450  -28.3320 C   0  0  0  0  0  0  0  0  0  0  0  0
   -1.7046   24.5774  -27.6501 H   0  0  0  0  0  0  0  0  0  0  0  0
   -3.3137   23.7613  -27.8170 H   0  0  0  0  0  0  0  0  0  0  0  0
   -1.6950   22.7630  -28.8220 C   0  0  0  0  0  0  0  0  0  0  0  0
   -1.5477   22.8378  -29.9095 H   0  0  0  0  0  0  0  0  0  0  0  0
   -0.7397   22.6761  -28.2836 H   0  0  0  0  0  0  0  0  0  0  0  0
   -2.5080   21.4940  -28.5240 C   0  0  0  0  0  0  0  0  0  0  0  0
   -3.2371   21.7146  -27.7304 H   0  0  0  0  0  0  0  0  0  0  0  0
   -3.0176   21.1851  -29.4486 H   0  0  0  0  0  0  0  0  0  0  0  0
   -1.6440   20.3940  -28.0850 N   0  0  0  0  0  0  0  0  0  0  0  0
   -2.0340   19.3490  -27.2150 C   0  0  0  0  0  0  0  0  0  0  0  0
   -3.1460   19.3210  -26.6230 O   0  0  0  0  0  0  0  0  0  0  0  0
   -1.0140   18.2890  -27.0920 C   0  0  0  0  0  0  0  0  0  0  0  0
   -1.3887   17.3341  -27.4892 H   0  0  0  0  0  0  0  0  0  0  0  0
   -0.7291   18.0859  -26.0491 H   0  0  0  0  0  0  0  0  0  0  0  0
    0.1530   18.8180  -27.9410 C   0  0  0  0  0  0  0  0  0  0  0  0
    0.4413   18.0683  -28.6926 H   0  0  0  0  0  0  0  0  0  0  0  0
    1.0300   19.0246  -27.3100 H   0  0  0  0  0  0  0  0  0  0  0  0
   -0.3310   20.1050  -28.6390 C   0  0  0  0  0  0  0  0  0  0  0  0
   -0.4012   19.9470  -29.7253 H   0  0  0  0  0  0  0  0  0  0  0  0
    0.3674   20.9388  -28.4744 H   0  0  0  0  0  0  0  0  0  0  0  0
   -4.4940   22.8650  -31.9750 C   0  0  0  0  0  0  0  0  0  0  0  0
   -4.7420   23.6575  -32.6964 H   0  0  0  0  0  0  0  0  0  0  0  0
   -4.7970   21.4590  -32.3380 C   0  0  0  0  0  0  0  0  0  0  0  0
   -3.9460   20.7120  -33.1710 C   0  0  0  0  0  0  0  0  0  0  0  0
   -3.0585   21.1875  -33.6139 H   0  0  0  0  0  0  0  0  0  0  0  0
   -4.2210   19.3710  -33.4390 C   0  0  0  0  0  0  0  0  0  0  0  0
   -3.5506   18.7963  -34.0949 H   0  0  0  0  0  0  0  0  0  0  0  0
   -5.3440   18.7520  -32.8790 C   0  0  0  0  0  0  0  0  0  0  0  0
   -5.6570   17.0420  -33.1910 S   0  0  0  0  0  0  0  0  0  0  0  0
   -6.7680   16.8760  -34.1910 O   0  0  0  0  0  0  0  0  0  0  0  0
   -6.0670   16.3740  -31.9080 O   0  0  0  0  0  0  0  0  0  0  0  0
   -4.1930   16.3090  -33.8390 C   0  0  0  0  0  0  0  0  0  0  0  0
   -3.8600   16.5040  -35.1880 C   0  0  0  0  0  0  0  0  0  0  0  0
   -4.5261   17.0906  -35.8379 H   0  0  0  0  0  0  0  0  0  0  0  0
   -2.6840   15.9550  -35.7090 C   0  0  0  0  0  0  0  0  0  0  0  0
   -2.4266   16.1099  -36.7672 H   0  0  0  0  0  0  0  0  0  0  0  0
   -1.8350   15.2090  -34.8850 C   0  0  0  0  0  0  0  0  0  0  0  0
   -0.9110   14.7753  -35.2951 H   0  0  0  0  0  0  0  0  0  0  0  0
   -2.1620   15.0150  -33.5390 C   0  0  0  0  0  0  0  0  0  0  0  0
   -1.4935   14.4293  -32.8909 H   0  0  0  0  0  0  0  0  0  0  0  0
   -3.3370   15.5640  -33.0150 C   0  0  0  0  0  0  0  0  0  0  0  0
   -3.5899   15.4112  -31.9554 H   0  0  0  0  0  0  0  0  0  0  0  0
   -6.2100   19.4850  -32.0490 C   0  0  0  0  0  0  0  0  0  0  0  0
   -7.3310   18.8330  -31.5050 O   0  0  0  0  0  0  0  0  0  0  0  0
   -8.6920   19.2040  -31.7160 C   0  0  0  0  0  0  0  0  0  0  0  0
   -9.2241   18.3735  -32.2030 H   0  0  0  0  0  0  0  0  0  0  0  0
   -9.1580   19.4296  -30.7454 H   0  0  0  0  0  0  0  0  0  0  0  0
   -8.7680   20.4580  -32.6170 C   0  0  0  0  0  0  0  0  0  0  0  0
   -7.8172   20.5452  -33.1632 H   0  0  0  0  0  0  0  0  0  0  0  0
   -9.6357   20.3131  -33.2773 H   0  0  0  0  0  0  0  0  0  0  0  0
   -9.0020   21.7290  -31.8930 N   0  0  0  0  0  0  0  0  0  0  0  0
   -8.1560   22.8490  -32.3360 C   0  0  0  0  0  0  0  0  0  0  0  0
   -7.3248   22.4711  -32.9495 H   0  0  0  0  0  0  0  0  0  0  0  0
   -8.7396   23.5564  -32.9435 H   0  0  0  0  0  0  0  0  0  0  0  0
   -7.6120   23.5360  -31.0930 C   0  0  0  0  0  0  0  0  0  0  0  0
   -6.5587   23.8184  -31.2370 H   0  0  0  0  0  0  0  0  0  0  0  0
   -8.1575   24.4626  -30.8608 H   0  0  0  0  0  0  0  0  0  0  0  0
   -7.7410   22.5100  -29.9910 C   0  0  0  0  0  0  0  0  0  0  0  0
   -6.8128   21.9282  -29.8916 H   0  0  0  0  0  0  0  0  0  0  0  0
   -7.9244   22.9726  -29.0100 H   0  0  0  0  0  0  0  0  0  0  0  0
   -8.8880   21.6180  -30.4300 C   0  0  0  0  0  0  0  0  0  0  0  0
   -8.6816   20.5751  -30.1477 H   0  0  0  0  0  0  0  0  0  0  0  0
   -9.8256   21.9266  -29.9445 H   0  0  0  0  0  0  0  0  0  0  0  0
   -5.9240   20.8370  -31.7780 C   0  0  0  0  0  0  0  0  0  0  0  0
   -6.5915   21.4124  -31.1198 H   0  0  0  0  0  0  0  0  0  0  0  0
  1  2  1  0
  2  3  1  0
  3  4  2  0
  3  5  1  0
  5  6  1  0
  6  7  1  0
  6  8  1  0
  6  9  1  0
  9 10  1  0
  9 11  1  0
  9 12  1  0
 12 13  1  0
 12 14  1  0
 12 15  1  0
 15 16  1  0
 16 17  2  0
 16 18  1  0
 18 19  1  0
 18 20  1  0
 18 21  1  0
 21 22  1  0
 21 23  1  0
 21 24  1  0
 24 25  1  0
 24 26  1  0
  2 27  2  0
 27 28  1  0
 27 29  1  0
 29 30  2  0
 30 31  1  0
 30 32  1  0
 32 33  1  0
 32 34  2  0
 34 35  1  0
 35 36  2  0
 35 37  2  0
 35 38  1  0
 38 39  2  0
 39 40  1  0
 39 41  1  0
 41 42  1  0
 41 43  2  0
 43 44  1  0
 43 45  1  0
 45 46  1  0
 45 47  2  0
 47 48  1  0
 34 49  1  0
 49 50  1  0
 50 51  1  0
 51 52  1  0
 51 53  1  0
 51 54  1  0
 54 55  1  0
 54 56  1  0
 54 57  1  0
 57 58  1  0
 58 59  1  0
 58 60  1  0
 58 61  1  0
 61 62  1  0
 61 63  1  0
 61 64  1  0
 64 65  1  0
 64 66  1  0
 64 67  1  0
 67 68  1  0
 67 69  1  0
 49 70  2  0
 70 71  1  0
 24 15  1  0
 70 29  1  0
 47 38  1  0
 67 57  1  0
M  CHG  1   5  -1
M  END
>  <UniqueID>  (32) 
31

>  <SMILES>  (32) 
O=C(/C=C/c1ccc(S(=O)(=O)c2ccccc2)c(OCCN2CCCC2)c1)[N-]CCCN1CCCC1=O

>  <Energy>  (32) 
82.34409369352275

>  <Genealogy>  (32) 
O=C(C=Cc1ccc(S(=O)(=O)c2ccccc2)c(OCCN2CCCC2)c1)[N-]CCCN1CCCC1=O (protonated)
O=C(/C=C/c1ccc(S(=O)(=O)c2ccccc2)c(OCCN2CCCC2)c1)[N-]CCCN1CCCC1=O (cis-trans isomerization)
O=C(/C=C/c1ccc(S(=O)(=O)c2ccccc2)c(OCCN2CCCC2)c1)[N-]CCCN1CCCC1=O (3D coordinates assigned)
O=C(/C=C/c1ccc(S(=O)(=O)c2ccccc2)c(OCCN2CCCC2)c1)[N-]CCCN1CCCC1=O (nonaromatic ring conformer: 82.34409369352275 kcal/mol)

>  <smiles>  (32) 
O=C(C=Cc1ccc(S(=O)(=O)c2ccccc2)c(OCCN2CCCC2)c1)NCCCN1CCCC1=O

>  <score_type>  (32) 
oracle

>  <origin>  (32) 
adgpu

>  <m_score__min__energy>  (32) 
-12.119999999999999

>  <m_primary>  (32) 
energy

$$$$
32:0
     RDKit          3D

 53 56  0  0  0  0  0  0  0  0999 V2000
   -5.7180   26.4380  -30.8400 O   0  0  0  0  0  0  0  0  0  0  0  0
   -5.2600   25.1350  -30.2490 S   0  0  0  0  0  0  0  0  0  0  0  0
   -5.5490   25.1370  -28.7760 O   0  0  0  0  0  0  0  0  0  0  0  0
   -3.5640   24.9440  -30.5190 N   0  0  0  0  0  0  0  0  0  0  0  0
   -2.7860   24.1870  -29.5930 C   0  0  0  0  0  0  0  0  0  0  0  0
   -3.1360   22.8630  -29.3060 C   0  0  0  0  0  0  0  0  0  0  0  0
   -2.3180   22.0680  -28.4860 C   0  0  0  0  0  0  0  0  0  0  0  0
   -1.1090   22.5990  -27.9850 C   0  0  0  0  0  0  0  0  0  0  0  0
   -0.7780   23.9420  -28.2560 C   0  0  0  0  0  0  0  0  0  0  0  0
   -1.6100   24.7310  -29.0580 C   0  0  0  0  0  0  0  0  0  0  0  0
   -1.2510   26.0470  -29.3440 O   0  0  0  0  0  0  0  0  0  0  0  0
   -0.2290   21.7820  -27.0720 C   0  0  0  0  0  0  0  0  0  0  0  0
   -0.4740   20.3430  -27.2350 N   0  0  0  0  0  0  0  0  0  0  0  0
   -1.8990   20.0440  -27.0600 C   0  0  0  0  0  0  0  0  0  0  0  0
   -2.6980   20.6360  -28.2230 C   0  0  0  0  0  0  0  0  0  0  0  0
   -6.0880   23.7990  -31.0370 C   0  0  0  0  0  0  0  0  0  0  0  0
   -7.4190   23.5140  -30.6970 C   0  0  0  0  0  0  0  0  0  0  0  0
   -8.0220   22.3340  -31.1440 C   0  0  0  0  0  0  0  0  0  0  0  0
   -7.3000   21.4340  -31.9420 C   0  0  0  0  0  0  0  0  0  0  0  0
   -7.9780   19.8600  -32.3440 S   0  0  0  0  0  0  0  0  0  0  0  0
   -8.9600   20.0280  -33.4650 O   0  0  0  0  0  0  0  0  0  0  0  0
   -8.6970   19.2930  -31.1550 O   0  0  0  0  0  0  0  0  0  0  0  0
   -6.6940   18.7900  -32.8470 N   0  0  0  0  0  0  0  0  0  0  0  0
   -7.1730   17.3940  -32.8370 C   0  0  0  0  0  0  0  0  0  0  0  0
   -6.1860   16.4260  -33.5310 C   0  0  0  0  0  0  0  0  0  0  0  0
   -4.8180   17.0710  -33.7290 C   0  0  0  0  0  0  0  0  0  0  0  0
   -4.9500   18.3620  -34.5550 C   0  0  0  0  0  0  0  0  0  0  0  0
   -6.2070   19.1730  -34.1790 C   0  0  0  0  0  0  0  0  0  0  0  0
   -5.9860   21.7420  -32.3190 C   0  0  0  0  0  0  0  0  0  0  0  0
   -5.3820   22.9190  -31.8680 C   0  0  0  0  0  0  0  0  0  0  0  0
   -4.0605   22.4406  -29.7265 H   0  0  0  0  0  0  0  0  0  0  0  0
    0.1416   24.3733  -27.8337 H   0  0  0  0  0  0  0  0  0  0  0  0
    0.8245   21.9942  -27.3068 H   0  0  0  0  0  0  0  0  0  0  0  0
   -0.4611   22.0562  -26.0323 H   0  0  0  0  0  0  0  0  0  0  0  0
    0.0580   19.8400  -26.4880 H   0  0  0  0  0  0  0  0  0  0  0  0
   -2.0433   18.9538  -27.0350 H   0  0  0  0  0  0  0  0  0  0  0  0
   -2.2500   20.4854  -26.1155 H   0  0  0  0  0  0  0  0  0  0  0  0
   -2.5024   20.0430  -29.1286 H   0  0  0  0  0  0  0  0  0  0  0  0
   -3.7648   20.6072  -27.9565 H   0  0  0  0  0  0  0  0  0  0  0  0
   -7.9900   24.2208  -30.0770 H   0  0  0  0  0  0  0  0  0  0  0  0
   -9.0637   22.1113  -30.8695 H   0  0  0  0  0  0  0  0  0  0  0  0
   -7.3063   17.0739  -31.7931 H   0  0  0  0  0  0  0  0  0  0  0  0
   -8.1214   17.3612  -33.3933 H   0  0  0  0  0  0  0  0  0  0  0  0
   -6.0705   15.5263  -32.9088 H   0  0  0  0  0  0  0  0  0  0  0  0
   -6.5928   16.1681  -34.5199 H   0  0  0  0  0  0  0  0  0  0  0  0
   -4.3848   17.3115  -32.7469 H   0  0  0  0  0  0  0  0  0  0  0  0
   -4.1656   16.3675  -34.2671 H   0  0  0  0  0  0  0  0  0  0  0  0
   -4.0612   18.9861  -34.3800 H   0  0  0  0  0  0  0  0  0  0  0  0
   -5.0388   18.0761  -35.6135 H   0  0  0  0  0  0  0  0  0  0  0  0
   -5.9582   20.2445  -34.1780 H   0  0  0  0  0  0  0  0  0  0  0  0
   -6.9957   18.9645  -34.9169 H   0  0  0  0  0  0  0  0  0  0  0  0
   -5.4279   21.0551  -32.9722 H   0  0  0  0  0  0  0  0  0  0  0  0
   -4.3498   23.1551  -32.1662 H   0  0  0  0  0  0  0  0  0  0  0  0
  1  2  2  0
  2  3  2  0
  2  4  1  0
  4  5  1  0
  5  6  2  0
  6  7  1  0
  7  8  2  0
  8  9  1  0
  9 10  2  0
 10 11  1  0
  8 12  1  0
 12 13  1  0
 13 14  1  0
 14 15  1  0
  2 16  1  0
 16 17  2  0
 17 18  1  0
 18 19  2  0
 19 20  1  0
 20 21  2  0
 20 22  2  0
 20 23  1  0
 23 24  1  0
 24 25  1  0
 25 26  1  0
 26 27  1  0
 27 28  1  0
 19 29  1  0
 29 30  2  0
 10  5  1  0
 30 16  1  0
 15  7  1  0
 28 23  1  0
  6 31  1  0
  9 32  1  0
 12 33  1  0
 12 34  1  0
 13 35  1  0
 14 36  1  0
 14 37  1  0
 15 38  1  0
 15 39  1  0
 17 40  1  0
 18 41  1  0
 24 42  1  0
 24 43  1  0
 25 44  1  0
 25 45  1  0
 26 46  1  0
 26 47  1  0
 27 48  1  0
 27 49  1  0
 28 50  1  0
 28 51  1  0
 29 52  1  0
 30 53  1  0
M  CHG  2   4  -1  11  -1
M  END
>  <UniqueID>  (33) 
32

>  <SMILES>  (33) 
O=S(=O)([N-]c1cc2c(cc1[O-])CNCC2)c1ccc(S(=O)(=O)N2CCCCC2)cc1

>  <Energy>  (33) 
66.72874473304833

>  <Genealogy>  (33) 
O=S(=O)([N-]c1cc2c(cc1[O-])CNCC2)c1ccc(S(=O)(=O)N2CCCCC2)cc1 (protonated)
O=S(=O)([N-]c1cc2c(cc1[O-])CNCC2)c1ccc(S(=O)(=O)N2CCCCC2)cc1 (3D coordinates assigned)
O=S(=O)([N-]c1cc2c(cc1[O-])CNCC2)c1ccc(S(=O)(=O)N2CCCCC2)cc1 (nonaromatic ring conformer: 66.72874473304833 kcal/mol)

>  <smiles>  (33) 
O=S(=O)(Nc1cc2c(cc1O)CNCC2)c1ccc(S(=O)(=O)N2CCCCC2)cc1

>  <score_type>  (33) 
oracle

>  <origin>  (33) 
adgpu

>  <m_score__min__energy>  (33) 
-15.960000000000001

>  <m_primary>  (33) 
energy

$$$$
33:0
     RDKit          3D

 72 75  0  0  0  0  0  0  0  0999 V2000
   -6.1200   18.8760  -35.1650 N   0  0  0  0  0  0  0  0  0  0  0  0
   -6.1380   18.7040  -33.8770 C   0  0  0  0  0  0  0  0  0  0  0  0
   -7.2530   19.0740  -33.0680 N   0  0  0  0  0  0  0  0  0  0  0  0
   -7.6530   20.4690  -32.8030 C   0  0  0  0  0  0  0  0  0  0  0  0
   -8.7390   20.5390  -31.6970 C   0  0  0  0  0  0  0  0  0  0  0  0
   -8.8090   21.9120  -30.9930 C   0  0  0  0  0  0  0  0  0  0  0  0
   -8.3430   23.0520  -31.9080 C   0  0  0  0  0  0  0  0  0  0  0  0
   -6.8870   22.8550  -32.3830 C   0  0  0  0  0  0  0  0  0  0  0  0
   -6.4580   21.3730  -32.4540 C   0  0  0  0  0  0  0  0  0  0  0  0
   -7.2820   18.0930  -31.9780 C   0  0  0  0  0  0  0  0  0  0  0  0
   -5.8850   17.4510  -31.9460 C   0  0  0  0  0  0  0  0  0  0  0  0
   -5.2820   17.7840  -33.2250 N   0  0  0  0  0  0  0  0  0  0  0  0
   -3.5890   17.5780  -33.5600 S   0  0  0  0  0  0  0  0  0  0  0  0
   -3.3460   17.6270  -35.0420 O   0  0  0  0  0  0  0  0  0  0  0  0
   -3.1330   16.2440  -33.0420 O   0  0  0  0  0  0  0  0  0  0  0  0
   -2.6710   18.8680  -32.7880 C   0  0  0  0  0  0  0  0  0  0  0  0
   -1.2760   18.7770  -32.7010 C   0  0  0  0  0  0  0  0  0  0  0  0
   -0.5450   19.7730  -32.0460 C   0  0  0  0  0  0  0  0  0  0  0  0
   -1.2010   20.8860  -31.4940 C   0  0  0  0  0  0  0  0  0  0  0  0
   -0.4220   21.9480  -30.7680 C   0  0  0  0  0  0  0  0  0  0  0  0
   -0.9540   22.1210  -29.4170 N   0  0  0  0  0  0  0  0  0  0  0  0
   -0.5510   23.1950  -28.5540 C   0  0  0  0  0  0  0  0  0  0  0  0
    0.3090   24.0340  -28.9420 O   0  0  0  0  0  0  0  0  0  0  0  0
   -1.1260   23.3170  -27.1700 C   0  0  0  0  0  0  0  0  0  0  0  0
   -1.9860   24.5880  -27.0440 C   0  0  0  0  0  0  0  0  0  0  0  0
   -3.3270   24.5460  -27.8200 C   0  0  0  0  0  0  0  0  0  0  0  0
   -3.1440   24.8580  -29.3270 C   0  0  0  0  0  0  0  0  0  0  0  0
   -4.4220   24.5270  -30.1050 C   0  0  0  0  0  0  0  0  0  0  0  0
   -4.7890   23.0310  -30.0110 C   0  0  0  0  0  0  0  0  0  0  0  0
   -4.1850   22.3240  -28.7810 C   0  0  0  0  0  0  0  0  0  0  0  0
   -4.1490   23.2510  -27.5600 C   0  0  0  0  0  0  0  0  0  0  0  0
   -2.5990   20.9760  -31.5860 C   0  0  0  0  0  0  0  0  0  0  0  0
   -3.3290   19.9700  -32.2240 C   0  0  0  0  0  0  0  0  0  0  0  0
   -6.8860   19.3790  -35.6600 H   0  0  0  0  0  0  0  0  0  0  0  0
   -5.3900   18.4260  -35.7580 H   0  0  0  0  0  0  0  0  0  0  0  0
   -8.0818   20.8547  -33.7397 H   0  0  0  0  0  0  0  0  0  0  0  0
   -9.7173   20.3317  -32.1552 H   0  0  0  0  0  0  0  0  0  0  0  0
   -8.4724   19.7948  -30.9321 H   0  0  0  0  0  0  0  0  0  0  0  0
   -9.8490   22.1028  -30.6896 H   0  0  0  0  0  0  0  0  0  0  0  0
   -8.1391   21.8810  -30.1210 H   0  0  0  0  0  0  0  0  0  0  0  0
   -9.0013   23.0923  -32.7884 H   0  0  0  0  0  0  0  0  0  0  0  0
   -8.3888   23.9888  -31.3333 H   0  0  0  0  0  0  0  0  0  0  0  0
   -6.7852   23.2955  -33.3858 H   0  0  0  0  0  0  0  0  0  0  0  0
   -6.2362   23.3455  -31.6442 H   0  0  0  0  0  0  0  0  0  0  0  0
   -5.6833   21.2594  -33.2267 H   0  0  0  0  0  0  0  0  0  0  0  0
   -6.0678   21.0737  -31.4700 H   0  0  0  0  0  0  0  0  0  0  0  0
   -7.4952   18.5917  -31.0210 H   0  0  0  0  0  0  0  0  0  0  0  0
   -8.0675   17.3393  -32.1360 H   0  0  0  0  0  0  0  0  0  0  0  0
   -5.2892   17.8653  -31.1194 H   0  0  0  0  0  0  0  0  0  0  0  0
   -5.9363   16.3638  -31.7869 H   0  0  0  0  0  0  0  0  0  0  0  0
   -0.7537   17.9191  -33.1495 H   0  0  0  0  0  0  0  0  0  0  0  0
    0.5483   19.6847  -31.9626 H   0  0  0  0  0  0  0  0  0  0  0  0
    0.6346   21.6482  -30.7081 H   0  0  0  0  0  0  0  0  0  0  0  0
   -0.5090   22.8982  -31.3154 H   0  0  0  0  0  0  0  0  0  0  0  0
   -1.7020   21.4630  -29.1010 H   0  0  0  0  0  0  0  0  0  0  0  0
   -1.7512   22.4365  -26.9606 H   0  0  0  0  0  0  0  0  0  0  0  0
   -0.2977   23.3794  -26.4489 H   0  0  0  0  0  0  0  0  0  0  0  0
   -2.2120   24.7439  -25.9788 H   0  0  0  0  0  0  0  0  0  0  0  0
   -1.3976   25.4048  -27.4874 H   0  0  0  0  0  0  0  0  0  0  0  0
   -3.9409   25.3610  -27.4090 H   0  0  0  0  0  0  0  0  0  0  0  0
   -2.9126   25.9264  -29.4495 H   0  0  0  0  0  0  0  0  0  0  0  0
   -2.3206   24.2430  -29.7192 H   0  0  0  0  0  0  0  0  0  0  0  0
   -5.2511   25.1219  -29.6944 H   0  0  0  0  0  0  0  0  0  0  0  0
   -4.2449   24.7660  -31.1640 H   0  0  0  0  0  0  0  0  0  0  0  0
   -5.8843   22.9441  -29.9592 H   0  0  0  0  0  0  0  0  0  0  0  0
   -4.3724   22.5397  -30.9027 H   0  0  0  0  0  0  0  0  0  0  0  0
   -4.7953   21.4408  -28.5411 H   0  0  0  0  0  0  0  0  0  0  0  0
   -3.1523   22.0329  -29.0233 H   0  0  0  0  0  0  0  0  0  0  0  0
   -5.1800   23.5335  -27.3009 H   0  0  0  0  0  0  0  0  0  0  0  0
   -3.6614   22.7044  -26.7393 H   0  0  0  0  0  0  0  0  0  0  0  0
   -3.1217   21.8421  -31.1540 H   0  0  0  0  0  0  0  0  0  0  0  0
   -4.4249   20.0429  -32.2841 H   0  0  0  0  0  0  0  0  0  0  0  0
  1  2  2  0
  2  3  1  0
  3  4  1  0
  4  5  1  0
  5  6  1  0
  6  7  1  0
  7  8  1  0
  8  9  1  0
  3 10  1  0
 10 11  1  0
 11 12  1  0
 12 13  1  0
 13 14  2  0
 13 15  2  0
 13 16  1  0
 16 17  2  0
 17 18  1  0
 18 19  2  0
 19 20  1  0
 20 21  1  0
 21 22  1  0
 22 23  2  0
 22 24  1  0
 24 25  1  0
 25 26  1  0
 26 27  1  0
 27 28  1  0
 28 29  1  0
 29 30  1  0
 30 31  1  0
 19 32  1  0
 32 33  2  0
 12  2  1  0
 33 16  1  0
  9  4  1  0
 31 26  1  0
  1 34  1  0
  1 35  1  0
  4 36  1  0
  5 37  1  0
  5 38  1  0
  6 39  1  0
  6 40  1  0
  7 41  1  0
  7 42  1  0
  8 43  1  0
  8 44  1  0
  9 45  1  0
  9 46  1  0
 10 47  1  0
 10 48  1  0
 11 49  1  0
 11 50  1  0
 17 51  1  0
 18 52  1  0
 20 53  1  0
 20 54  1  0
 21 55  1  0
 24 56  1  0
 24 57  1  0
 25 58  1  0
 25 59  1  0
 26 60  1  0
 27 61  1  0
 27 62  1  0
 28 63  1  0
 28 64  1  0
 29 65  1  0
 29 66  1  0
 30 67  1  0
 30 68  1  0
 31 69  1  0
 31 70  1  0
 32 71  1  0
 33 72  1  0
M  CHG  1   1   1
M  END
>  <UniqueID>  (34) 
33

>  <SMILES>  (34) 
[NH2+]=C1N(C2CCCCC2)CCN1S(=O)(=O)c1ccc(CNC(=O)CCC2CCCCC2)cc1

>  <Energy>  (34) 
93.52699041192669

>  <Genealogy>  (34) 
[NH2+]=C1N(C2CCCCC2)CCN1S(=O)(=O)c1ccc(CNC(=O)CCC2CCCCC2)cc1 (protonated)
[NH2+]=C1N(C2CCCCC2)CCN1S(=O)(=O)c1ccc(CNC(=O)CCC2CCCCC2)cc1 (3D coordinates assigned)
[NH2+]=C1N(C2CCCCC2)CCN1S(=O)(=O)c1ccc(CNC(=O)CCC2CCCCC2)cc1 (nonaromatic ring conformer: 93.52699041192669 kcal/mol)

>  <smiles>  (34) 
N=C1N(C2CCCCC2)CCN1S(=O)(=O)c1ccc(CNC(=O)CCC2CCCCC2)cc1

>  <score_type>  (34) 
oracle

>  <origin>  (34) 
adgpu

>  <m_score__min__energy>  (34) 
-11.630000000000001

>  <m_primary>  (34) 
energy

$$$$
34:0
     RDKit          3D

 68 71  0  0  0  0  0  0  0  0999 V2000
   -2.1030   19.7160  -26.7080 C   0  0  0  0  0  0  0  0  0  0  0  0
   -1.3480   21.2730  -27.1340 S   0  0  0  0  0  0  0  0  0  0  0  0
   -0.9390   22.0090  -25.8890 O   0  0  0  0  0  0  0  0  0  0  0  0
   -0.1130   20.9720  -27.9380 O   0  0  0  0  0  0  0  0  0  0  0  0
   -2.4570   22.2690  -28.0950 C   0  0  0  0  0  0  0  0  0  0  0  0
   -3.8330   22.1920  -27.8290 C   0  0  0  0  0  0  0  0  0  0  0  0
   -4.7360   23.0340  -28.4790 C   0  0  0  0  0  0  0  0  0  0  0  0
   -4.2840   23.9780  -29.4130 C   0  0  0  0  0  0  0  0  0  0  0  0
   -5.2330   24.9290  -30.0400 C   0  0  0  0  0  0  0  0  0  0  0  0
   -4.8190   26.0370  -30.4770 O   0  0  0  0  0  0  0  0  0  0  0  0
   -6.6130   24.5750  -30.1990 N   0  0  0  0  0  0  0  0  0  0  0  0
   -7.0590   23.4960  -31.0740 C   0  0  0  0  0  0  0  0  0  0  0  0
   -5.8810   22.9100  -31.7950 C   0  0  0  0  0  0  0  0  0  0  0  0
   -5.3660   23.5580  -32.7460 O   0  0  0  0  0  0  0  0  0  0  0  0
   -5.3440   21.6370  -31.3990 N   0  0  0  0  0  0  0  0  0  0  0  0
   -4.6010   20.7930  -32.2950 C   0  0  0  0  0  0  0  0  0  0  0  0
   -3.2230   20.9930  -32.4900 C   0  0  0  0  0  0  0  0  0  0  0  0
   -2.5040   20.1970  -33.3910 C   0  0  0  0  0  0  0  0  0  0  0  0
   -0.8000   20.5280  -33.6960 S   0  0  0  0  0  0  0  0  0  0  0  0
   -0.6480   21.9170  -34.2520 O   0  0  0  0  0  0  0  0  0  0  0  0
   -0.2740   19.5480  -34.7120 O   0  0  0  0  0  0  0  0  0  0  0  0
    0.0920   20.4020  -32.1990 N   0  0  0  0  0  0  0  0  0  0  0  0
   -0.6630   19.6600  -31.1860 C   0  0  0  0  0  0  0  0  0  0  0  0
    0.3620   19.0040  -30.2710 C   0  0  0  0  0  0  0  0  0  0  0  0
    1.6820   19.0610  -31.0310 C   0  0  0  0  0  0  0  0  0  0  0  0
    1.3310   19.6500  -32.3870 C   0  0  0  0  0  0  0  0  0  0  0  0
   -3.1550   19.1630  -34.0740 C   0  0  0  0  0  0  0  0  0  0  0  0
   -4.5120   18.9220  -33.8520 C   0  0  0  0  0  0  0  0  0  0  0  0
   -5.2430   19.7290  -32.9700 C   0  0  0  0  0  0  0  0  0  0  0  0
   -6.6440   19.4680  -32.7900 N   0  0  0  0  0  0  0  0  0  0  0  0
   -7.1240   18.1350  -32.4200 C   0  0  0  0  0  0  0  0  0  0  0  0
   -8.2960   18.2740  -31.4430 C   0  0  0  0  0  0  0  0  0  0  0  0
   -9.2860   19.1440  -31.9660 O   0  0  0  0  0  0  0  0  0  0  0  0
   -8.7630   20.4560  -32.0810 C   0  0  0  0  0  0  0  0  0  0  0  0
   -7.6280   20.5020  -33.1080 C   0  0  0  0  0  0  0  0  0  0  0  0
   -2.9120   24.0470  -29.6980 C   0  0  0  0  0  0  0  0  0  0  0  0
   -1.9930   23.1930  -29.0620 C   0  0  0  0  0  0  0  0  0  0  0  0
   -0.6070   23.2730  -29.4240 N   0  0  0  0  0  0  0  0  0  0  0  0
   -0.1070   22.4120  -30.1770 O   0  0  0  0  0  0  0  0  0  0  0  0
    0.2270   24.1400  -28.7570 O   0  0  0  0  0  0  0  0  0  0  0  0
   -2.1502   19.6187  -25.6133 H   0  0  0  0  0  0  0  0  0  0  0  0
   -3.1206   19.6760  -27.1239 H   0  0  0  0  0  0  0  0  0  0  0  0
   -1.5043   18.8922  -27.1239 H   0  0  0  0  0  0  0  0  0  0  0  0
   -4.2044   21.4582  -27.0985 H   0  0  0  0  0  0  0  0  0  0  0  0
   -5.8107   22.9570  -28.2573 H   0  0  0  0  0  0  0  0  0  0  0  0
   -7.5451   22.7142  -30.4719 H   0  0  0  0  0  0  0  0  0  0  0  0
   -7.7742   23.8947  -31.8085 H   0  0  0  0  0  0  0  0  0  0  0  0
   -5.7010   21.2170  -30.5120 H   0  0  0  0  0  0  0  0  0  0  0  0
   -2.7036   21.7836  -31.9286 H   0  0  0  0  0  0  0  0  0  0  0  0
   -1.3010   20.3465  -30.6101 H   0  0  0  0  0  0  0  0  0  0  0  0
   -1.3170   18.9080  -31.6515 H   0  0  0  0  0  0  0  0  0  0  0  0
    0.4401   19.5563  -29.3229 H   0  0  0  0  0  0  0  0  0  0  0  0
    0.0811   17.9710  -30.0180 H   0  0  0  0  0  0  0  0  0  0  0  0
    2.4032   19.7041  -30.5053 H   0  0  0  0  0  0  0  0  0  0  0  0
    2.1501   18.0696  -31.1202 H   0  0  0  0  0  0  0  0  0  0  0  0
    2.1338   20.3185  -32.7313 H   0  0  0  0  0  0  0  0  0  0  0  0
    1.2098   18.8628  -33.1457 H   0  0  0  0  0  0  0  0  0  0  0  0
   -2.5962   18.5391  -34.7871 H   0  0  0  0  0  0  0  0  0  0  0  0
   -5.0113   18.0921  -34.3735 H   0  0  0  0  0  0  0  0  0  0  0  0
   -7.4583   17.6011  -33.3218 H   0  0  0  0  0  0  0  0  0  0  0  0
   -6.3105   17.5689  -31.9427 H   0  0  0  0  0  0  0  0  0  0  0  0
   -8.7413   17.2831  -31.2704 H   0  0  0  0  0  0  0  0  0  0  0  0
   -7.9202   18.6942  -30.4985 H   0  0  0  0  0  0  0  0  0  0  0  0
   -9.5656   21.1373  -32.4000 H   0  0  0  0  0  0  0  0  0  0  0  0
   -8.3653   20.7636  -31.1026 H   0  0  0  0  0  0  0  0  0  0  0  0
   -8.0357   20.3238  -34.1140 H   0  0  0  0  0  0  0  0  0  0  0  0
   -7.1456   21.4901  -33.0789 H   0  0  0  0  0  0  0  0  0  0  0  0
   -2.5487   24.7817  -30.4316 H   0  0  0  0  0  0  0  0  0  0  0  0
  1  2  1  0
  2  3  2  0
  2  4  2  0
  2  5  1  0
  5  6  2  0
  6  7  1  0
  7  8  2  0
  8  9  1  0
  9 10  2  0
  9 11  1  0
 11 12  1  0
 12 13  1  0
 13 14  2  0
 13 15  1  0
 15 16  1  0
 16 17  2  0
 17 18  1  0
 18 19  1  0
 19 20  2  0
 19 21  2  0
 19 22  1  0
 22 23  1  0
 23 24  1  0
 24 25  1  0
 25 26  1  0
 18 27  2  0
 27 28  1  0
 28 29  2  0
 29 30  1  0
 30 31  1  0
 31 32  1  0
 32 33  1  0
 33 34  1  0
 34 35  1  0
  8 36  1  0
 36 37  2  0
 37 38  1  0
 38 39  2  0
 38 40  1  0
 37  5  1  0
 29 16  1  0
 35 30  1  0
 26 22  1  0
  1 41  1  0
  1 42  1  0
  1 43  1  0
  6 44  1  0
  7 45  1  0
 12 46  1  0
 12 47  1  0
 15 48  1  0
 17 49  1  0
 23 50  1  0
 23 51  1  0
 24 52  1  0
 24 53  1  0
 25 54  1  0
 25 55  1  0
 26 56  1  0
 26 57  1  0
 27 58  1  0
 28 59  1  0
 31 60  1  0
 31 61  1  0
 32 62  1  0
 32 63  1  0
 34 64  1  0
 34 65  1  0
 35 66  1  0
 35 67  1  0
 36 68  1  0
M  CHG  3  11  -1  38   1  40  -1
M  END
>  <UniqueID>  (35) 
34

>  <SMILES>  (35) 
CS(=O)(=O)c1ccc(C(=O)[N-]CC(=O)Nc2cc(S(=O)(=O)N3CCCC3)ccc2N2CCOCC2)cc1[N+](=O)[O-]

>  <Energy>  (35) 
84.92762286060002

>  <Genealogy>  (35) 
CS(=O)(=O)c1ccc(C(=O)[N-]CC(=O)Nc2cc(S(=O)(=O)N3CCCC3)ccc2N2CCOCC2)cc1[N+](=O)[O-] (protonated)
CS(=O)(=O)c1ccc(C(=O)[N-]CC(=O)Nc2cc(S(=O)(=O)N3CCCC3)ccc2N2CCOCC2)cc1[N+](=O)[O-] (3D coordinates assigned)
CS(=O)(=O)c1ccc(C(=O)[N-]CC(=O)Nc2cc(S(=O)(=O)N3CCCC3)ccc2N2CCOCC2)cc1[N+](=O)[O-] (nonaromatic ring conformer: 84.92762286060002 kcal/mol)

>  <smiles>  (35) 
CS(=O)(=O)c1ccc(C(=O)NCC(=O)Nc2cc(S(=O)(=O)N3CCCC3)ccc2N2CCOCC2)cc1[N+](=O)[O-]

>  <score_type>  (35) 
oracle

>  <origin>  (35) 
adgpu

>  <m_score__min__energy>  (35) 
-12.970000000000001

>  <m_primary>  (35) 
energy

$$$$
35:0
     RDKit          3D

 69 73  0  0  0  0  0  0  0  0999 V2000
    0.5690   26.1150  -25.6050 C   0  0  0  0  0  0  0  0  0  0  0  0
   -0.6450   25.5700  -24.9670 N   0  0  0  0  0  0  0  0  0  0  0  0
   -0.6480   24.0910  -24.9610 C   0  0  0  0  0  0  0  0  0  0  0  0
   -0.8010   23.5150  -26.3800 C   0  0  0  0  0  0  0  0  0  0  0  0
   -1.7790   24.2890  -27.1520 N   0  0  0  0  0  0  0  0  0  0  0  0
   -1.7790   24.2290  -28.5880 C   0  0  0  0  0  0  0  0  0  0  0  0
   -1.8000   25.3040  -29.2490 O   0  0  0  0  0  0  0  0  0  0  0  0
   -1.7670   22.9340  -29.3110 C   0  0  0  0  0  0  0  0  0  0  0  0
   -2.5690   21.8690  -28.8660 C   0  0  0  0  0  0  0  0  0  0  0  0
   -2.5210   20.6320  -29.5110 C   0  0  0  0  0  0  0  0  0  0  0  0
   -1.6680   20.4410  -30.6010 C   0  0  0  0  0  0  0  0  0  0  0  0
   -0.8660   21.4990  -31.0640 C   0  0  0  0  0  0  0  0  0  0  0  0
    0.0460   21.3240  -32.1580 N   0  0  0  0  0  0  0  0  0  0  0  0
   -0.3170   20.9040  -33.4840 C   0  0  0  0  0  0  0  0  0  0  0  0
   -0.1200   21.6880  -34.4510 O   0  0  0  0  0  0  0  0  0  0  0  0
   -1.0260   19.6240  -33.7120 C   0  0  0  0  0  0  0  0  0  0  0  0
   -0.2540   18.4930  -34.0230 C   0  0  0  0  0  0  0  0  0  0  0  0
   -0.8610   17.2620  -34.2690 C   0  0  0  0  0  0  0  0  0  0  0  0
   -2.2490   17.1420  -34.2250 C   0  0  0  0  0  0  0  0  0  0  0  0
   -3.0460   18.2590  -33.9440 C   0  0  0  0  0  0  0  0  0  0  0  0
   -4.4450   18.1490  -33.9860 C   0  0  0  0  0  0  0  0  0  0  0  0
   -5.2490   19.2750  -33.7850 C   0  0  0  0  0  0  0  0  0  0  0  0
   -6.6650   19.1730  -33.9630 N   0  0  0  0  0  0  0  0  0  0  0  0
   -7.7370   19.7500  -32.7290 S   0  0  0  0  0  0  0  0  0  0  0  0
   -9.0770   20.0590  -33.3430 O   0  0  0  0  0  0  0  0  0  0  0  0
   -7.9170   18.6850  -31.6820 O   0  0  0  0  0  0  0  0  0  0  0  0
   -7.0970   21.2110  -31.9800 C   0  0  0  0  0  0  0  0  0  0  0  0
   -7.7460   22.4420  -32.1550 C   0  0  0  0  0  0  0  0  0  0  0  0
   -7.2890   23.5780  -31.4790 C   0  0  0  0  0  0  0  0  0  0  0  0
   -6.1880   23.4930  -30.6150 C   0  0  0  0  0  0  0  0  0  0  0  0
   -5.6300   24.9220  -29.7490 S   0  0  0  0  0  0  0  0  0  0  0  0
   -4.3280   25.6540  -30.6180 N   0  0  0  0  0  0  0  0  0  0  0  0
   -5.1600   24.5340  -28.3740 O   0  0  0  0  0  0  0  0  0  0  0  0
   -6.7550   25.9080  -29.6130 O   0  0  0  0  0  0  0  0  0  0  0  0
   -5.5330   22.2650  -30.4500 C   0  0  0  0  0  0  0  0  0  0  0  0
   -5.9850   21.1290  -31.1270 C   0  0  0  0  0  0  0  0  0  0  0  0
   -4.6600   20.5060  -33.4830 C   0  0  0  0  0  0  0  0  0  0  0  0
   -3.2700   20.6290  -33.4310 C   0  0  0  0  0  0  0  0  0  0  0  0
   -2.4400   19.5170  -33.6750 C   0  0  0  0  0  0  0  0  0  0  0  0
   -0.9000   22.7300  -30.3980 C   0  0  0  0  0  0  0  0  0  0  0  0
   -2.6800   25.2080  -26.4510 C   0  0  0  0  0  0  0  0  0  0  0  0
   -1.8830   26.1610  -25.5390 C   0  0  0  0  0  0  0  0  0  0  0  0
    1.2797   26.4340  -24.8283 H   0  0  0  0  0  0  0  0  0  0  0  0
    1.0340   25.3392  -26.2311 H   0  0  0  0  0  0  0  0  0  0  0  0
    0.2983   26.9780  -26.2311 H   0  0  0  0  0  0  0  0  0  0  0  0
    0.3002   23.7346  -24.5322 H   0  0  0  0  0  0  0  0  0  0  0  0
   -1.5050   23.7528  -24.3600 H   0  0  0  0  0  0  0  0  0  0  0  0
    0.1724   23.5512  -26.8911 H   0  0  0  0  0  0  0  0  0  0  0  0
   -1.1540   22.4760  -26.3033 H   0  0  0  0  0  0  0  0  0  0  0  0
   -3.2382   22.0111  -28.0046 H   0  0  0  0  0  0  0  0  0  0  0  0
   -3.1564   19.8054  -29.1602 H   0  0  0  0  0  0  0  0  0  0  0  0
   -1.6238   19.4607  -31.0980 H   0  0  0  0  0  0  0  0  0  0  0  0
    0.8415   18.5791  -34.0731 H   0  0  0  0  0  0  0  0  0  0  0  0
   -0.2421   16.3821  -34.4987 H   0  0  0  0  0  0  0  0  0  0  0  0
   -2.7205   16.1659  -34.4118 H   0  0  0  0  0  0  0  0  0  0  0  0
   -4.9112   17.1714  -34.1781 H   0  0  0  0  0  0  0  0  0  0  0  0
   -7.0410   19.1400  -34.9360 H   0  0  0  0  0  0  0  0  0  0  0  0
   -8.6156   22.5141  -32.8248 H   0  0  0  0  0  0  0  0  0  0  0  0
   -7.7960   24.5431  -31.6260 H   0  0  0  0  0  0  0  0  0  0  0  0
   -3.5040   25.6640  -29.9720 H   0  0  0  0  0  0  0  0  0  0  0  0
   -4.6596   22.1950  -29.7849 H   0  0  0  0  0  0  0  0  0  0  0  0
   -5.4679   20.1677  -30.9911 H   0  0  0  0  0  0  0  0  0  0  0  0
   -5.2947   21.3824  -33.2853 H   0  0  0  0  0  0  0  0  0  0  0  0
   -2.8183   21.6043  -33.1971 H   0  0  0  0  0  0  0  0  0  0  0  0
   -0.2411   23.5462  -30.7291 H   0  0  0  0  0  0  0  0  0  0  0  0
   -3.2396   25.7995  -27.1905 H   0  0  0  0  0  0  0  0  0  0  0  0
   -3.3723   24.6203  -25.8302 H   0  0  0  0  0  0  0  0  0  0  0  0
   -1.6014   27.0461  -26.1284 H   0  0  0  0  0  0  0  0  0  0  0  0
   -2.5376   26.4030  -24.6888 H   0  0  0  0  0  0  0  0  0  0  0  0
  1  2  1  0
  2  3  1  0
  3  4  1  0
  4  5  1  0
  5  6  1  0
  6  7  2  0
  6  8  1  0
  8  9  2  0
  9 10  1  0
 10 11  2  0
 11 12  1  0
 12 13  1  0
 13 14  1  0
 14 15  2  0
 14 16  1  0
 16 17  2  0
 17 18  1  0
 18 19  2  0
 19 20  1  0
 20 21  2  0
 21 22  1  0
 22 23  1  0
 23 24  1  0
 24 25  2  0
 24 26  2  0
 24 27  1  0
 27 28  2  0
 28 29  1  0
 29 30  2  0
 30 31  1  0
 31 32  1  0
 31 33  2  0
 31 34  2  0
 30 35  1  0
 35 36  2  0
 22 37  2  0
 37 38  1  0
 38 39  2  0
 12 40  2  0
  5 41  1  0
 41 42  1  0
 42  2  1  0
 40  8  1  0
 39 16  1  0
 39 20  1  0
 36 27  1  0
  1 43  1  0
  1 44  1  0
  1 45  1  0
  3 46  1  0
  3 47  1  0
  4 48  1  0
  4 49  1  0
  9 50  1  0
 10 51  1  0
 11 52  1  0
 17 53  1  0
 18 54  1  0
 19 55  1  0
 21 56  1  0
 23 57  1  0
 28 58  1  0
 29 59  1  0
 32 60  1  0
 35 61  1  0
 36 62  1  0
 37 63  1  0
 38 64  1  0
 40 65  1  0
 41 66  1  0
 41 67  1  0
 42 68  1  0
 42 69  1  0
M  CHG  2  13  -1  32  -1
M  END
>  <UniqueID>  (36) 
35

>  <SMILES>  (36) 
CN1CCN(C(=O)c2cccc([N-]C(=O)c3cccc4cc(NS(=O)(=O)c5ccc(S([NH-])(=O)=O)cc5)ccc34)c2)CC1

>  <Energy>  (36) 
106.09734371405047

>  <Genealogy>  (36) 
CN1CCN(C(=O)c2cccc([N-]C(=O)c3cccc4cc(NS(=O)(=O)c5ccc(S([NH-])(=O)=O)cc5)ccc34)c2)CC1 (protonated)
CN1CCN(C(=O)c2cccc([N-]C(=O)c3cccc4cc(NS(=O)(=O)c5ccc(S([NH-])(=O)=O)cc5)ccc34)c2)CC1 (3D coordinates assigned)
CN1CCN(C(=O)c2cccc([N-]C(=O)c3cccc4cc(NS(=O)(=O)c5ccc(S([NH-])(=O)=O)cc5)ccc34)c2)CC1 (nonaromatic ring conformer: 106.09734371405047 kcal/mol)

>  <smiles>  (36) 
CN1CCN(C(=O)c2cccc(NC(=O)c3cccc4cc(NS(=O)(=O)c5ccc(S(N)(=O)=O)cc5)ccc34)c2)CC1

>  <score_type>  (36) 
oracle

>  <origin>  (36) 
adgpu

>  <m_score__min__energy>  (36) 
-14.699999999999999

>  <m_primary>  (36) 
energy

$$$$
36:0
     RDKit          3D

 60 64  0  0  0  0  0  0  0  0999 V2000
   -1.0160   25.5370  -26.1840 C   0  0  0  0  0  0  0  0  0  0  0  0
   -0.5840   24.6540  -27.3160 C   0  0  0  0  0  0  0  0  0  0  0  0
    0.4600   24.9500  -27.9580 O   0  0  0  0  0  0  0  0  0  0  0  0
   -1.3040   23.4510  -27.6430 N   0  0  0  0  0  0  0  0  0  0  0  0
   -0.9130   22.2290  -26.9170 C   0  0  0  0  0  0  0  0  0  0  0  0
   -1.6130   20.9820  -27.4630 C   0  0  0  0  0  0  0  0  0  0  0  0
   -3.1200   21.2130  -27.5440 C   0  0  0  0  0  0  0  0  0  0  0  0
   -3.4120   22.4010  -28.4170 C   0  0  0  0  0  0  0  0  0  0  0  0
   -4.5920   22.4420  -29.1740 C   0  0  0  0  0  0  0  0  0  0  0  0
   -4.8540   23.5240  -30.0220 C   0  0  0  0  0  0  0  0  0  0  0  0
   -6.3230   23.5500  -31.0010 S   0  0  0  0  0  0  0  0  0  0  0  0
   -5.9580   23.8350  -32.4320 O   0  0  0  0  0  0  0  0  0  0  0  0
   -7.2180   24.6580  -30.5210 O   0  0  0  0  0  0  0  0  0  0  0  0
   -7.1870   22.0310  -30.9120 N   0  0  0  0  0  0  0  0  0  0  0  0
   -6.3370   20.8910  -31.3290 C   0  0  0  0  0  0  0  0  0  0  0  0
   -6.6630   20.4010  -32.7520 C   0  0  0  0  0  0  0  0  0  0  0  0
   -8.0880   19.9900  -32.8970 N   0  0  0  0  0  0  0  0  0  0  0  0
   -8.2300   18.5220  -32.7410 C   0  0  0  0  0  0  0  0  0  0  0  0
   -6.9290   17.7950  -33.0000 C   0  0  0  0  0  0  0  0  0  0  0  0
   -6.3170   17.0320  -31.9720 C   0  0  0  0  0  0  0  0  0  0  0  0
   -5.1240   16.3300  -32.2180 C   0  0  0  0  0  0  0  0  0  0  0  0
   -4.5740   16.4090  -33.4950 C   0  0  0  0  0  0  0  0  0  0  0  0
   -5.1560   17.1350  -34.4830 C   0  0  0  0  0  0  0  0  0  0  0  0
   -6.3360   17.8430  -34.2810 C   0  0  0  0  0  0  0  0  0  0  0  0
   -4.4000   17.0320  -35.6340 O   0  0  0  0  0  0  0  0  0  0  0  0
   -3.2730   16.1910  -35.3510 C   0  0  0  0  0  0  0  0  0  0  0  0
   -3.4240   15.8140  -33.9750 O   0  0  0  0  0  0  0  0  0  0  0  0
   -8.9990   20.7220  -31.9750 C   0  0  0  0  0  0  0  0  0  0  0  0
   -8.4660   22.1200  -31.6430 C   0  0  0  0  0  0  0  0  0  0  0  0
   -3.9340   24.5740  -30.1020 C   0  0  0  0  0  0  0  0  0  0  0  0
   -2.7670   24.5510  -29.3360 C   0  0  0  0  0  0  0  0  0  0  0  0
   -2.5070   23.4830  -28.4560 C   0  0  0  0  0  0  0  0  0  0  0  0
   -0.7775   25.0496  -25.2272 H   0  0  0  0  0  0  0  0  0  0  0  0
   -0.4869   26.4994  -26.2471 H   0  0  0  0  0  0  0  0  0  0  0  0
   -2.1005   25.7099  -26.2471 H   0  0  0  0  0  0  0  0  0  0  0  0
    0.1747   22.0941  -27.0108 H   0  0  0  0  0  0  0  0  0  0  0  0
   -1.2126   22.3509  -25.8656 H   0  0  0  0  0  0  0  0  0  0  0  0
   -1.2255   20.7591  -28.4681 H   0  0  0  0  0  0  0  0  0  0  0  0
   -1.4164   20.1366  -26.7873 H   0  0  0  0  0  0  0  0  0  0  0  0
   -3.6029   20.3209  -27.9694 H   0  0  0  0  0  0  0  0  0  0  0  0
   -3.5109   21.4029  -26.5335 H   0  0  0  0  0  0  0  0  0  0  0  0
   -5.3167   21.6178  -29.1006 H   0  0  0  0  0  0  0  0  0  0  0  0
   -5.2837   21.2064  -31.2973 H   0  0  0  0  0  0  0  0  0  0  0  0
   -6.5313   20.0587  -30.6365 H   0  0  0  0  0  0  0  0  0  0  0  0
   -6.4557   21.2149  -33.4624 H   0  0  0  0  0  0  0  0  0  0  0  0
   -6.0367   19.5200  -32.9558 H   0  0  0  0  0  0  0  0  0  0  0  0
   -8.3710   20.2300  -33.8800 H   0  0  0  0  0  0  0  0  0  0  0  0
   -8.5599   18.3044  -31.7144 H   0  0  0  0  0  0  0  0  0  0  0  0
   -8.9669   18.1721  -33.4789 H   0  0  0  0  0  0  0  0  0  0  0  0
   -6.7796   16.9894  -30.9749 H   0  0  0  0  0  0  0  0  0  0  0  0
   -4.6406   15.7374  -31.4273 H   0  0  0  0  0  0  0  0  0  0  0  0
   -6.7941   18.4235  -35.0953 H   0  0  0  0  0  0  0  0  0  0  0  0
   -3.2826   15.3017  -35.9983 H   0  0  0  0  0  0  0  0  0  0  0  0
   -2.3183   16.7056  -35.5349 H   0  0  0  0  0  0  0  0  0  0  0  0
   -9.9852   20.8205  -32.4522 H   0  0  0  0  0  0  0  0  0  0  0  0
   -9.0698   20.1506  -31.0378 H   0  0  0  0  0  0  0  0  0  0  0  0
   -8.3094   22.6781  -32.5779 H   0  0  0  0  0  0  0  0  0  0  0  0
   -9.2007   22.6369  -31.0082 H   0  0  0  0  0  0  0  0  0  0  0  0
   -4.1310   25.4234  -30.7726 H   0  0  0  0  0  0  0  0  0  0  0  0
   -2.0436   25.3753  -29.4208 H   0  0  0  0  0  0  0  0  0  0  0  0
  1  2  1  0
  2  3  2  0
  2  4  1  0
  4  5  1  0
  5  6  1  0
  6  7  1  0
  7  8  1  0
  8  9  2  0
  9 10  1  0
 10 11  1  0
 11 12  2  0
 11 13  2  0
 11 14  1  0
 14 15  1  0
 15 16  1  0
 16 17  1  0
 17 18  1  0
 18 19  1  0
 19 20  2  0
 20 21  1  0
 21 22  2  0
 22 23  1  0
 23 24  2  0
 23 25  1  0
 25 26  1  0
 26 27  1  0
 17 28  1  0
 28 29  1  0
 10 30  2  0
 30 31  1  0
 31 32  2  0
 32  4  1  0
 32  8  1  0
 29 14  1  0
 24 19  1  0
 27 22  1  0
  1 33  1  0
  1 34  1  0
  1 35  1  0
  5 36  1  0
  5 37  1  0
  6 38  1  0
  6 39  1  0
  7 40  1  0
  7 41  1  0
  9 42  1  0
 15 43  1  0
 15 44  1  0
 16 45  1  0
 16 46  1  0
 17 47  1  0
 18 48  1  0
 18 49  1  0
 20 50  1  0
 21 51  1  0
 24 52  1  0
 26 53  1  0
 26 54  1  0
 28 55  1  0
 28 56  1  0
 29 57  1  0
 29 58  1  0
 30 59  1  0
 31 60  1  0
M  CHG  1  17   1
M  END
>  <UniqueID>  (37) 
36

>  <SMILES>  (37) 
CC(=O)N1CCCc2cc(S(=O)(=O)N3CC[NH+](Cc4ccc5c(c4)OCO5)CC3)ccc21

>  <Energy>  (37) 
108.10811361033322

>  <Genealogy>  (37) 
CC(=O)N1CCCc2cc(S(=O)(=O)N3CC[NH+](Cc4ccc5c(c4)OCO5)CC3)ccc21 (protonated)
CC(=O)N1CCCc2cc(S(=O)(=O)N3CC[NH+](Cc4ccc5c(c4)OCO5)CC3)ccc21 (3D coordinates assigned)
CC(=O)N1CCCc2cc(S(=O)(=O)N3CC[NH+](Cc4ccc5c(c4)OCO5)CC3)ccc21 (nonaromatic ring conformer: 108.10811361033322 kcal/mol)

>  <smiles>  (37) 
CC(=O)N1CCCc2cc(S(=O)(=O)N3CCN(Cc4ccc5c(c4)OCO5)CC3)ccc21

>  <score_type>  (37) 
oracle

>  <origin>  (37) 
adgpu

>  <m_score__min__energy>  (37) 
-9.7799999999999994

>  <m_primary>  (37) 
energy

$$$$
37:0
     RDKit          3D

 52 56  0  0  0  0  0  0  0  0999 V2000
   -0.2060   22.3040  -23.8600 C   0  0  0  0  0  0  0  0  0  0  0  0
   -0.1310   22.8630  -25.2490 C   0  0  0  0  0  0  0  0  0  0  0  0
    0.6910   23.9630  -25.5200 C   0  0  0  0  0  0  0  0  0  0  0  0
    0.7880   24.4670  -26.8190 C   0  0  0  0  0  0  0  0  0  0  0  0
    0.0730   23.8690  -27.8670 C   0  0  0  0  0  0  0  0  0  0  0  0
    0.1480   24.4110  -29.1490 O   0  0  0  0  0  0  0  0  0  0  0  0
   -0.7330   22.7390  -27.6130 C   0  0  0  0  0  0  0  0  0  0  0  0
   -1.4800   22.0670  -28.7040 C   0  0  0  0  0  0  0  0  0  0  0  0
   -2.7090   21.4400  -28.4390 C   0  0  0  0  0  0  0  0  0  0  0  0
   -3.4110   20.7950  -29.4620 C   0  0  0  0  0  0  0  0  0  0  0  0
   -2.8990   20.7720  -30.7700 C   0  0  0  0  0  0  0  0  0  0  0  0
   -3.5810   20.0850  -31.8290 N   0  0  0  0  0  0  0  0  0  0  0  0
   -4.7550   20.5460  -32.5110 C   0  0  0  0  0  0  0  0  0  0  0  0
   -4.6570   21.4900  -33.3410 O   0  0  0  0  0  0  0  0  0  0  0  0
   -6.0660   19.8840  -32.2550 C   0  0  0  0  0  0  0  0  0  0  0  0
   -6.0690   18.5080  -31.9470 C   0  0  0  0  0  0  0  0  0  0  0  0
   -7.2640   17.8190  -31.7400 C   0  0  0  0  0  0  0  0  0  0  0  0
   -8.4820   18.4840  -31.8490 C   0  0  0  0  0  0  0  0  0  0  0  0
   -8.5080   19.8450  -32.1480 C   0  0  0  0  0  0  0  0  0  0  0  0
   -7.3160   20.5620  -32.3340 C   0  0  0  0  0  0  0  0  0  0  0  0
   -7.4670   22.3170  -32.7140 S   0  0  0  0  0  0  0  0  0  0  0  0
   -6.3840   22.8240  -31.3740 C   0  0  0  0  0  0  0  0  0  0  0  0
   -6.6190   22.3370  -30.0650 C   0  0  0  0  0  0  0  0  0  0  0  0
   -5.7950   22.7360  -28.9970 C   0  0  0  0  0  0  0  0  0  0  0  0
   -4.7540   23.6180  -29.2760 C   0  0  0  0  0  0  0  0  0  0  0  0
   -3.8560   24.1250  -28.4190 N   0  0  0  0  0  0  0  0  0  0  0  0
   -3.1010   24.9090  -29.2290 C   0  0  0  0  0  0  0  0  0  0  0  0
   -2.1260   25.5800  -28.8020 O   0  0  0  0  0  0  0  0  0  0  0  0
   -3.4740   24.9220  -30.5360 N   0  0  0  0  0  0  0  0  0  0  0  0
   -4.5290   24.0920  -30.5330 C   0  0  0  0  0  0  0  0  0  0  0  0
   -5.3250   23.7250  -31.6150 C   0  0  0  0  0  0  0  0  0  0  0  0
   -1.6600   21.3730  -31.0320 C   0  0  0  0  0  0  0  0  0  0  0  0
   -1.1180   21.3300  -32.3140 O   0  0  0  0  0  0  0  0  0  0  0  0
   -0.9590   22.0200  -30.0080 C   0  0  0  0  0  0  0  0  0  0  0  0
   -0.8280   22.2450  -26.2990 C   0  0  0  0  0  0  0  0  0  0  0  0
   -0.0966   23.1196  -23.1301 H   0  0  0  0  0  0  0  0  0  0  0  0
   -1.1784   21.8105  -23.7154 H   0  0  0  0  0  0  0  0  0  0  0  0
    0.6019   21.5717  -23.7154 H   0  0  0  0  0  0  0  0  0  0  0  0
    1.2632   24.4326  -24.7063 H   0  0  0  0  0  0  0  0  0  0  0  0
    1.4288   25.3379  -27.0213 H   0  0  0  0  0  0  0  0  0  0  0  0
   -0.6860   24.6620  -29.6690 H   0  0  0  0  0  0  0  0  0  0  0  0
   -3.1219   21.4566  -27.4196 H   0  0  0  0  0  0  0  0  0  0  0  0
   -4.3697   20.3028  -29.2413 H   0  0  0  0  0  0  0  0  0  0  0  0
   -5.1133   17.9691  -31.8687 H   0  0  0  0  0  0  0  0  0  0  0  0
   -7.2438   16.7480  -31.4901 H   0  0  0  0  0  0  0  0  0  0  0  0
   -9.4237   17.9355  -31.6992 H   0  0  0  0  0  0  0  0  0  0  0  0
   -9.4740   20.3632  -32.2393 H   0  0  0  0  0  0  0  0  0  0  0  0
   -7.4517   21.6419  -29.8822 H   0  0  0  0  0  0  0  0  0  0  0  0
   -5.9671   22.3640  -27.9762 H   0  0  0  0  0  0  0  0  0  0  0  0
   -5.1349   24.1235  -32.6225 H   0  0  0  0  0  0  0  0  0  0  0  0
    0.0084   22.4960  -30.2260 H   0  0  0  0  0  0  0  0  0  0  0  0
   -1.4551   21.3652  -26.0924 H   0  0  0  0  0  0  0  0  0  0  0  0
  1  2  1  0
  2  3  2  0
  3  4  1  0
  4  5  2  0
  5  6  1  0
  5  7  1  0
  7  8  1  0
  8  9  2  0
  9 10  1  0
 10 11  2  0
 11 12  1  0
 12 13  1  0
 13 14  2  0
 13 15  1  0
 15 16  2  0
 16 17  1  0
 17 18  2  0
 18 19  1  0
 19 20  2  0
 20 21  1  0
 21 22  1  0
 22 23  2  0
 23 24  1  0
 24 25  2  0
 25 26  1  0
 26 27  1  0
 27 28  2  0
 27 29  1  0
 29 30  1  0
 30 31  2  0
 11 32  1  0
 32 33  1  0
 32 34  2  0
  7 35  2  0
 35  2  1  0
 34  8  1  0
 20 15  1  0
 31 22  1  0
 30 25  1  0
  1 36  1  0
  1 37  1  0
  1 38  1  0
  3 39  1  0
  4 40  1  0
  6 41  1  0
  9 42  1  0
 10 43  1  0
 16 44  1  0
 17 45  1  0
 18 46  1  0
 19 47  1  0
 23 48  1  0
 24 49  1  0
 31 50  1  0
 34 51  1  0
 35 52  1  0
M  CHG  4  12  -1  26  -1  29  -1  33  -1
M  END
>  <UniqueID>  (38) 
37

>  <SMILES>  (38) 
Cc1ccc(O)c(-c2ccc([N-]C(=O)c3ccccc3Sc3ccc4[n-]c(=O)[n-]c4c3)c([O-])c2)c1

>  <Energy>  (38) 
104.64631966713664

>  <Genealogy>  (38) 
Cc1ccc(O)c(-c2ccc([N-]C(=O)c3ccccc3Sc3ccc4[n-]c(=O)[n-]c4c3)c([O-])c2)c1 (protonated)
Cc1ccc(O)c(-c2ccc([N-]C(=O)c3ccccc3Sc3ccc4[n-]c(=O)[n-]c4c3)c([O-])c2)c1 (3D coordinates assigned)
Cc1ccc(O)c(-c2ccc([N-]C(=O)c3ccccc3Sc3ccc4[n-]c(=O)[n-]c4c3)c([O-])c2)c1 (optimized conformer: 104.64631966713664 kcal/mol)

>  <smiles>  (38) 
Cc1ccc(O)c(-c2ccc(NC(=O)c3ccccc3Sc3ccc4[nH]c(=O)[nH]c4c3)c(O)c2)c1

>  <score_type>  (38) 
oracle

>  <origin>  (38) 
adgpu

>  <m_score__min__energy>  (38) 
-14.58

>  <m_primary>  (38) 
energy

$$$$
38:0
     RDKit          3D

 49 51  0  0  0  0  0  0  0  0999 V2000
    1.8980   24.7130  -24.5870 C   0  0  0  0  0  0  0  0  0  0  0  0
    0.9400   24.8550  -25.7330 C   0  0  0  0  0  0  0  0  0  0  0  0
    0.2340   26.0490  -25.9210 C   0  0  0  0  0  0  0  0  0  0  0  0
   -0.6350   26.1910  -27.0050 C   0  0  0  0  0  0  0  0  0  0  0  0
   -0.7950   25.1510  -27.9360 C   0  0  0  0  0  0  0  0  0  0  0  0
   -1.7220   25.2940  -29.0280 N   0  0  0  0  0  0  0  0  0  0  0  0
   -2.9230   24.5220  -29.1560 C   0  0  0  0  0  0  0  0  0  0  0  0
   -3.3100   23.7770  -28.2150 O   0  0  0  0  0  0  0  0  0  0  0  0
   -3.7010   24.6310  -30.3500 N   0  0  0  0  0  0  0  0  0  0  0  0
   -5.4110   24.8920  -30.3230 S   0  0  0  0  0  0  0  0  0  0  0  0
   -5.7560   26.0390  -31.2320 O   0  0  0  0  0  0  0  0  0  0  0  0
   -5.8390   25.2430  -28.9260 O   0  0  0  0  0  0  0  0  0  0  0  0
   -6.2410   23.4240  -30.8280 C   0  0  0  0  0  0  0  0  0  0  0  0
   -5.7940   22.6940  -31.9380 C   0  0  0  0  0  0  0  0  0  0  0  0
   -6.4530   21.5210  -32.3190 C   0  0  0  0  0  0  0  0  0  0  0  0
   -7.5650   21.0680  -31.5960 C   0  0  0  0  0  0  0  0  0  0  0  0
   -8.3960   19.5860  -32.0800 S   0  0  0  0  0  0  0  0  0  0  0  0
   -9.1000   19.0070  -30.8840 O   0  0  0  0  0  0  0  0  0  0  0  0
   -9.4350   19.9210  -33.1130 O   0  0  0  0  0  0  0  0  0  0  0  0
   -7.3040   18.3910  -32.7340 N   0  0  0  0  0  0  0  0  0  0  0  0
   -6.3840   17.8990  -31.7150 C   0  0  0  0  0  0  0  0  0  0  0  0
   -5.3150   17.0940  -32.4300 C   0  0  0  0  0  0  0  0  0  0  0  0
   -5.0380   17.8740  -34.0460 S   0  0  0  0  0  0  0  0  0  0  0  0
   -6.4870   18.9470  -33.8120 C   0  0  0  0  0  0  0  0  0  0  0  0
   -8.0040   21.7940  -30.4800 C   0  0  0  0  0  0  0  0  0  0  0  0
   -7.3460   22.9650  -30.0980 C   0  0  0  0  0  0  0  0  0  0  0  0
   -0.0730   23.9480  -27.7600 C   0  0  0  0  0  0  0  0  0  0  0  0
   -0.2210   22.8070  -28.7290 C   0  0  0  0  0  0  0  0  0  0  0  0
    0.7900   23.8130  -26.6590 C   0  0  0  0  0  0  0  0  0  0  0  0
    1.3486   24.7944  -23.6375 H   0  0  0  0  0  0  0  0  0  0  0  0
    2.3922   23.7318  -24.6416 H   0  0  0  0  0  0  0  0  0  0  0  0
    2.6556   25.5087  -24.6416 H   0  0  0  0  0  0  0  0  0  0  0  0
    0.3643   26.8794  -25.2115 H   0  0  0  0  0  0  0  0  0  0  0  0
   -1.1998   27.1264  -27.1312 H   0  0  0  0  0  0  0  0  0  0  0  0
   -1.5520   26.0410  -29.7380 H   0  0  0  0  0  0  0  0  0  0  0  0
   -4.9228   23.0447  -32.5107 H   0  0  0  0  0  0  0  0  0  0  0  0
   -6.0971   20.9512  -33.1900 H   0  0  0  0  0  0  0  0  0  0  0  0
   -5.9256   18.7443  -31.1808 H   0  0  0  0  0  0  0  0  0  0  0  0
   -6.9131   17.2784  -30.9768 H   0  0  0  0  0  0  0  0  0  0  0  0
   -4.3839   17.1016  -31.8443 H   0  0  0  0  0  0  0  0  0  0  0  0
   -5.6334   16.0483  -32.5529 H   0  0  0  0  0  0  0  0  0  0  0  0
   -6.1583   19.9618  -33.5434 H   0  0  0  0  0  0  0  0  0  0  0  0
   -7.0727   18.9991  -34.7417 H   0  0  0  0  0  0  0  0  0  0  0  0
   -8.8707   21.4397  -29.9026 H   0  0  0  0  0  0  0  0  0  0  0  0
   -7.6962   23.5292  -29.2210 H   0  0  0  0  0  0  0  0  0  0  0  0
   -0.3430   21.8664  -28.1719 H   0  0  0  0  0  0  0  0  0  0  0  0
   -1.1048   22.9757  -29.3618 H   0  0  0  0  0  0  0  0  0  0  0  0
    0.6766   22.7446  -29.3618 H   0  0  0  0  0  0  0  0  0  0  0  0
    1.3544   22.8788  -26.5222 H   0  0  0  0  0  0  0  0  0  0  0  0
  1  2  1  0
  2  3  2  0
  3  4  1  0
  4  5  2  0
  5  6  1  0
  6  7  1  0
  7  8  2  0
  7  9  1  0
  9 10  1  0
 10 11  2  0
 10 12  2  0
 10 13  1  0
 13 14  2  0
 14 15  1  0
 15 16  2  0
 16 17  1  0
 17 18  2  0
 17 19  2  0
 17 20  1  0
 20 21  1  0
 21 22  1  0
 22 23  1  0
 23 24  1  0
 16 25  1  0
 25 26  2  0
  5 27  1  0
 27 28  1  0
 27 29  2  0
 29  2  1  0
 26 13  1  0
 24 20  1  0
  1 30  1  0
  1 31  1  0
  1 32  1  0
  3 33  1  0
  4 34  1  0
  6 35  1  0
 14 36  1  0
 15 37  1  0
 21 38  1  0
 21 39  1  0
 22 40  1  0
 22 41  1  0
 24 42  1  0
 24 43  1  0
 25 44  1  0
 26 45  1  0
 28 46  1  0
 28 47  1  0
 28 48  1  0
 29 49  1  0
M  CHG  1   9  -1
M  END
>  <UniqueID>  (39) 
38

>  <SMILES>  (39) 
Cc1ccc(NC(=O)[N-]S(=O)(=O)c2ccc(S(=O)(=O)N3CCSC3)cc2)c(C)c1

>  <Energy>  (39) 
51.03312599569959

>  <Genealogy>  (39) 
Cc1ccc(NC(=O)[N-]S(=O)(=O)c2ccc(S(=O)(=O)N3CCSC3)cc2)c(C)c1 (protonated)
Cc1ccc(NC(=O)[N-]S(=O)(=O)c2ccc(S(=O)(=O)N3CCSC3)cc2)c(C)c1 (3D coordinates assigned)
Cc1ccc(NC(=O)[N-]S(=O)(=O)c2ccc(S(=O)(=O)N3CCSC3)cc2)c(C)c1 (nonaromatic ring conformer: 51.03312599569959 kcal/mol)

>  <smiles>  (39) 
Cc1ccc(NC(=O)NS(=O)(=O)c2ccc(S(=O)(=O)N3CCSC3)cc2)c(C)c1

>  <score_type>  (39) 
oracle

>  <origin>  (39) 
adgpu

>  <m_score__min__energy>  (39) 
-11.779999999999999

>  <m_primary>  (39) 
energy

$$$$
39:0
     RDKit          3D

 73 76  0  0  0  0  0  0  0  0999 V2000
   -0.8520   19.8580  -30.7420 C   0  0  0  0  0  0  0  0  0  0  0  0
    0.0280   19.8010  -29.4960 C   0  0  0  0  0  0  0  0  0  0  0  0
   -0.5720   18.8640  -28.4380 C   0  0  0  0  0  0  0  0  0  0  0  0
   -1.0110   19.6170  -27.1740 C   0  0  0  0  0  0  0  0  0  0  0  0
   -1.7580   20.8850  -27.5060 C   0  0  0  0  0  0  0  0  0  0  0  0
   -3.1280   20.8400  -27.7930 C   0  0  0  0  0  0  0  0  0  0  0  0
   -3.8150   22.0050  -28.1290 C   0  0  0  0  0  0  0  0  0  0  0  0
   -3.1430   23.2340  -28.2040 C   0  0  0  0  0  0  0  0  0  0  0  0
   -3.8780   24.4230  -28.5230 N   0  0  0  0  0  0  0  0  0  0  0  0
   -4.7870   24.5700  -29.9920 S   0  0  0  0  0  0  0  0  0  0  0  0
   -6.2230   24.9010  -29.6940 O   0  0  0  0  0  0  0  0  0  0  0  0
   -4.2070   25.6710  -30.8340 O   0  0  0  0  0  0  0  0  0  0  0  0
   -4.7000   23.0410  -30.8580 C   0  0  0  0  0  0  0  0  0  0  0  0
   -3.5170   22.6580  -31.5050 C   0  0  0  0  0  0  0  0  0  0  0  0
   -3.4700   21.4670  -32.2340 C   0  0  0  0  0  0  0  0  0  0  0  0
   -4.6100   20.6570  -32.3430 C   0  0  0  0  0  0  0  0  0  0  0  0
   -5.7960   21.0290  -31.6760 C   0  0  0  0  0  0  0  0  0  0  0  0
   -5.8360   22.2290  -30.9520 C   0  0  0  0  0  0  0  0  0  0  0  0
   -7.0540   20.2090  -31.8180 C   0  0  0  0  0  0  0  0  0  0  0  0
   -6.7740   18.8070  -32.3720 C   0  0  0  0  0  0  0  0  0  0  0  0
   -5.8590   18.8970  -33.5190 N   0  0  0  0  0  0  0  0  0  0  0  0
   -5.7370   17.3520  -34.3300 S   0  0  0  0  0  0  0  0  0  0  0  0
   -7.0840   16.6850  -34.3400 O   0  0  0  0  0  0  0  0  0  0  0  0
   -5.3510   17.5940  -35.7630 O   0  0  0  0  0  0  0  0  0  0  0  0
   -4.5050   16.2970  -33.5910 C   0  0  0  0  0  0  0  0  0  0  0  0
   -4.9580   15.2830  -32.7300 C   0  0  0  0  0  0  0  0  0  0  0  0
   -4.0640   14.3970  -32.1130 C   0  0  0  0  0  0  0  0  0  0  0  0
   -4.5850   13.3130  -31.2100 C   0  0  0  0  0  0  0  0  0  0  0  0
   -2.6870   14.5360  -32.3490 C   0  0  0  0  0  0  0  0  0  0  0  0
   -1.5120   13.4570  -31.6000 Cl  0  0  0  0  0  0  0  0  0  0  0  0
   -2.2210   15.5490  -33.1890 C   0  0  0  0  0  0  0  0  0  0  0  0
   -3.1110   16.4350  -33.8220 C   0  0  0  0  0  0  0  0  0  0  0  0
   -2.5340   17.5310  -34.6760 C   0  0  0  0  0  0  0  0  0  0  0  0
   -4.5260   19.3420  -33.0740 C   0  0  0  0  0  0  0  0  0  0  0  0
   -1.7590   23.2900  -27.9230 C   0  0  0  0  0  0  0  0  0  0  0  0
   -0.8650   24.8160  -28.0400 S   0  0  0  0  0  0  0  0  0  0  0  0
   -0.6640   25.6070  -26.4540 C   0  0  0  0  0  0  0  0  0  0  0  0
    0.5080   24.5510  -28.5920 O   0  0  0  0  0  0  0  0  0  0  0  0
   -1.6000   25.7530  -28.9550 O   0  0  0  0  0  0  0  0  0  0  0  0
   -1.0800   22.1110  -27.5700 C   0  0  0  0  0  0  0  0  0  0  0  0
   -1.9081   19.9264  -30.4422 H   0  0  0  0  0  0  0  0  0  0  0  0
   -0.5829   20.7406  -31.3409 H   0  0  0  0  0  0  0  0  0  0  0  0
   -0.6991   18.9481  -31.3409 H   0  0  0  0  0  0  0  0  0  0  0  0
    1.0257   19.4331  -29.7774 H   0  0  0  0  0  0  0  0  0  0  0  0
    0.0951   20.8126  -29.0691 H   0  0  0  0  0  0  0  0  0  0  0  0
   -1.4477   18.3574  -28.8700 H   0  0  0  0  0  0  0  0  0  0  0  0
    0.2062   18.1432  -28.1469 H   0  0  0  0  0  0  0  0  0  0  0  0
   -1.6665   18.9631  -26.5801 H   0  0  0  0  0  0  0  0  0  0  0  0
   -0.1077   19.8912  -26.6093 H   0  0  0  0  0  0  0  0  0  0  0  0
   -3.6644   19.8805  -27.7530 H   0  0  0  0  0  0  0  0  0  0  0  0
   -4.8942   21.9604  -28.3373 H   0  0  0  0  0  0  0  0  0  0  0  0
   -3.6900   25.3000  -27.9910 H   0  0  0  0  0  0  0  0  0  0  0  0
   -2.6237   23.2965  -31.4387 H   0  0  0  0  0  0  0  0  0  0  0  0
   -2.5339   21.1629  -32.7251 H   0  0  0  0  0  0  0  0  0  0  0  0
   -6.7678   22.5347  -30.4538 H   0  0  0  0  0  0  0  0  0  0  0  0
   -7.5262   20.1111  -30.8293 H   0  0  0  0  0  0  0  0  0  0  0  0
   -7.7151   20.7264  -32.5288 H   0  0  0  0  0  0  0  0  0  0  0  0
   -6.3146   18.1892  -31.5863 H   0  0  0  0  0  0  0  0  0  0  0  0
   -7.7201   18.3502  -32.6979 H   0  0  0  0  0  0  0  0  0  0  0  0
   -6.0361   15.1825  -32.5363 H   0  0  0  0  0  0  0  0  0  0  0  0
   -4.4423   13.6099  -30.1605 H   0  0  0  0  0  0  0  0  0  0  0  0
   -5.6564   13.1572  -31.4045 H   0  0  0  0  0  0  0  0  0  0  0  0
   -4.0374   12.3790  -31.4045 H   0  0  0  0  0  0  0  0  0  0  0  0
   -1.1394   15.6560  -33.3586 H   0  0  0  0  0  0  0  0  0  0  0  0
   -2.1191   18.3190  -34.0303 H   0  0  0  0  0  0  0  0  0  0  0  0
   -1.7358   17.1193  -35.3110 H   0  0  0  0  0  0  0  0  0  0  0  0
   -3.3252   17.9561  -35.3110 H   0  0  0  0  0  0  0  0  0  0  0  0
   -4.0999   18.5833  -32.4011 H   0  0  0  0  0  0  0  0  0  0  0  0
   -3.8877   19.4746  -33.9600 H   0  0  0  0  0  0  0  0  0  0  0  0
   -0.8498   24.8758  -25.6534 H   0  0  0  0  0  0  0  0  0  0  0  0
    0.3614   25.9953  -26.3652 H   0  0  0  0  0  0  0  0  0  0  0  0
   -1.3796   26.4377  -26.3652 H   0  0  0  0  0  0  0  0  0  0  0  0
   -0.0047   22.1504  -27.3414 H   0  0  0  0  0  0  0  0  0  0  0  0
  1  2  1  0
  2  3  1  0
  3  4  1  0
  4  5  1  0
  5  6  2  0
  6  7  1  0
  7  8  2  0
  8  9  1  0
  9 10  1  0
 10 11  2  0
 10 12  2  0
 10 13  1  0
 13 14  2  0
 14 15  1  0
 15 16  2  0
 16 17  1  0
 17 18  2  0
 17 19  1  0
 19 20  1  0
 20 21  1  0
 21 22  1  0
 22 23  2  0
 22 24  2  0
 22 25  1  0
 25 26  2  0
 26 27  1  0
 27 28  1  0
 27 29  2  0
 29 30  1  0
 29 31  1  0
 31 32  2  0
 32 33  1  0
 21 34  1  0
  8 35  1  0
 35 36  1  0
 36 37  1  0
 36 38  2  0
 36 39  2  0
 35 40  2  0
 40  5  1  0
 18 13  1  0
 32 25  1  0
 34 16  1  0
  1 41  1  0
  1 42  1  0
  1 43  1  0
  2 44  1  0
  2 45  1  0
  3 46  1  0
  3 47  1  0
  4 48  1  0
  4 49  1  0
  6 50  1  0
  7 51  1  0
  9 52  1  0
 14 53  1  0
 15 54  1  0
 18 55  1  0
 19 56  1  0
 19 57  1  0
 20 58  1  0
 20 59  1  0
 26 60  1  0
 28 61  1  0
 28 62  1  0
 28 63  1  0
 31 64  1  0
 33 65  1  0
 33 66  1  0
 33 67  1  0
 34 68  1  0
 34 69  1  0
 37 70  1  0
 37 71  1  0
 37 72  1  0
 40 73  1  0
M  END
>  <UniqueID>  (40) 
39

>  <SMILES>  (40) 
CCCCc1ccc(NS(=O)(=O)c2ccc3c(c2)CCN(S(=O)(=O)c2cc(C)c(Cl)cc2C)C3)c(S(C)(=O)=O)c1

>  <Energy>  (40) 
77.12921662569744

>  <Genealogy>  (40) 
CCCCc1ccc(NS(=O)(=O)c2ccc3c(c2)CCN(S(=O)(=O)c2cc(C)c(Cl)cc2C)C3)c(S(C)(=O)=O)c1 (3D coordinates assigned)
CCCCc1ccc(NS(=O)(=O)c2ccc3c(c2)CCN(S(=O)(=O)c2cc(C)c(Cl)cc2C)C3)c(S(C)(=O)=O)c1 (nonaromatic ring conformer: 77.12921662569744 kcal/mol)

>  <smiles>  (40) 
CCCCc1ccc(NS(=O)(=O)c2ccc3c(c2)CCN(S(=O)(=O)c2cc(C)c(Cl)cc2C)C3)c(S(C)(=O)=O)c1

>  <score_type>  (40) 
oracle

>  <origin>  (40) 
adgpu

>  <m_score__min__energy>  (40) 
-12.869999999999999

>  <m_primary>  (40) 
energy

$$$$
40:0
     RDKit          3D

 46 49  0  0  0  0  0  0  0  0999 V2000
   -5.2290   24.7440  -28.5230 O   0  0  0  0  0  0  0  0  0  0  0  0
   -5.1740   24.8460  -30.0210 S   0  0  0  0  0  0  0  0  0  0  0  0
   -5.9440   26.0670  -30.4420 O   0  0  0  0  0  0  0  0  0  0  0  0
   -3.5110   25.0190  -30.5160 N   0  0  0  0  0  0  0  0  0  0  0  0
   -2.6140   24.1830  -29.7160 C   0  0  0  0  0  0  0  0  0  0  0  0
   -2.0280   24.9500  -28.5720 C   0  0  0  0  0  0  0  0  0  0  0  0
   -2.2730   24.6340  -27.2730 N   0  0  0  0  0  0  0  0  0  0  0  0
   -1.5850   25.5760  -26.6130 C   0  0  0  0  0  0  0  0  0  0  0  0
   -1.4790   25.7450  -25.2340 C   0  0  0  0  0  0  0  0  0  0  0  0
   -0.6980   26.8200  -24.7670 C   0  0  0  0  0  0  0  0  0  0  0  0
   -0.0540   27.6860  -25.6800 C   0  0  0  0  0  0  0  0  0  0  0  0
   -0.1860   27.4830  -27.0680 C   0  0  0  0  0  0  0  0  0  0  0  0
   -0.9650   26.4090  -27.4920 C   0  0  0  0  0  0  0  0  0  0  0  0
   -1.2280   26.0350  -28.7510 N   0  0  0  0  0  0  0  0  0  0  0  0
   -5.9080   23.4000  -30.7130 C   0  0  0  0  0  0  0  0  0  0  0  0
   -5.1170   22.4180  -31.3250 C   0  0  0  0  0  0  0  0  0  0  0  0
   -5.7050   21.2570  -31.8340 C   0  0  0  0  0  0  0  0  0  0  0  0
   -7.0890   21.0620  -31.7270 C   0  0  0  0  0  0  0  0  0  0  0  0
   -7.8290   19.5830  -32.3520 S   0  0  0  0  0  0  0  0  0  0  0  0
   -8.6210   18.9310  -31.2530 O   0  0  0  0  0  0  0  0  0  0  0  0
   -8.7810   19.9440  -33.4600 O   0  0  0  0  0  0  0  0  0  0  0  0
   -6.6540   18.4420  -32.9600 N   0  0  0  0  0  0  0  0  0  0  0  0
   -7.2320   17.1170  -33.1720 C   0  0  0  0  0  0  0  0  0  0  0  0
   -6.3780   16.4400  -34.2340 C   0  0  0  0  0  0  0  0  0  0  0  0
   -5.6480   17.5710  -34.9440 C   0  0  0  0  0  0  0  0  0  0  0  0
   -6.1150   18.8450  -34.2570 C   0  0  0  0  0  0  0  0  0  0  0  0
   -7.8820   22.0510  -31.1300 C   0  0  0  0  0  0  0  0  0  0  0  0
   -7.2940   23.2140  -30.6220 C   0  0  0  0  0  0  0  0  0  0  0  0
   -3.1805   23.3271  -29.3203 H   0  0  0  0  0  0  0  0  0  0  0  0
   -1.7913   23.8417  -30.3615 H   0  0  0  0  0  0  0  0  0  0  0  0
   -1.9868   25.0636  -24.5355 H   0  0  0  0  0  0  0  0  0  0  0  0
   -0.5885   26.9867  -23.6852 H   0  0  0  0  0  0  0  0  0  0  0  0
    0.5534   28.5228  -25.3048 H   0  0  0  0  0  0  0  0  0  0  0  0
    0.3084   28.1487  -27.7908 H   0  0  0  0  0  0  0  0  0  0  0  0
   -4.0294   22.5618  -31.4049 H   0  0  0  0  0  0  0  0  0  0  0  0
   -5.0798   20.4937  -32.3202 H   0  0  0  0  0  0  0  0  0  0  0  0
   -7.2072   16.5373  -32.2375 H   0  0  0  0  0  0  0  0  0  0  0  0
   -8.2826   17.1868  -33.4903 H   0  0  0  0  0  0  0  0  0  0  0  0
   -5.6590   15.7501  -33.7680 H   0  0  0  0  0  0  0  0  0  0  0  0
   -6.9861   15.8438  -34.9303 H   0  0  0  0  0  0  0  0  0  0  0  0
   -4.5595   17.4531  -34.8381 H   0  0  0  0  0  0  0  0  0  0  0  0
   -5.8637   17.5844  -36.0226 H   0  0  0  0  0  0  0  0  0  0  0  0
   -5.2692   19.5348  -34.1195 H   0  0  0  0  0  0  0  0  0  0  0  0
   -6.8736   19.3669  -34.8588 H   0  0  0  0  0  0  0  0  0  0  0  0
   -8.9710   21.9123  -31.0606 H   0  0  0  0  0  0  0  0  0  0  0  0
   -7.9211   23.9846  -30.1499 H   0  0  0  0  0  0  0  0  0  0  0  0
  1  2  2  0
  2  3  2  0
  2  4  1  0
  4  5  1  0
  5  6  1  0
  6  7  2  0
  7  8  1  0
  8  9  2  0
  9 10  1  0
 10 11  2  0
 11 12  1  0
 12 13  2  0
 13 14  1  0
  2 15  1  0
 15 16  2  0
 16 17  1  0
 17 18  2  0
 18 19  1  0
 19 20  2  0
 19 21  2  0
 19 22  1  0
 22 23  1  0
 23 24  1  0
 24 25  1  0
 25 26  1  0
 18 27  1  0
 27 28  2  0
 14  6  1  0
 28 15  1  0
 13  8  1  0
 26 22  1  0
  5 29  1  0
  5 30  1  0
  9 31  1  0
 10 32  1  0
 11 33  1  0
 12 34  1  0
 16 35  1  0
 17 36  1  0
 23 37  1  0
 23 38  1  0
 24 39  1  0
 24 40  1  0
 25 41  1  0
 25 42  1  0
 26 43  1  0
 26 44  1  0
 27 45  1  0
 28 46  1  0
M  CHG  2   4  -1  14  -1
M  END
>  <UniqueID>  (41) 
40

>  <SMILES>  (41) 
O=S(=O)([N-]Cc1nc2ccccc2[n-]1)c1ccc(S(=O)(=O)N2CCCC2)cc1

>  <Energy>  (41) 
82.59254723312146

>  <Genealogy>  (41) 
O=S(=O)([N-]Cc1nc2ccccc2[n-]1)c1ccc(S(=O)(=O)N2CCCC2)cc1 (protonated)
O=S(=O)([N-]Cc1nc2ccccc2[n-]1)c1ccc(S(=O)(=O)N2CCCC2)cc1 (3D coordinates assigned)
O=S(=O)([N-]Cc1nc2ccccc2[n-]1)c1ccc(S(=O)(=O)N2CCCC2)cc1 (nonaromatic ring conformer: 82.59254723312146 kcal/mol)

>  <smiles>  (41) 
O=S(=O)(NCc1nc2ccccc2[nH]1)c1ccc(S(=O)(=O)N2CCCC2)cc1

>  <score_type>  (41) 
oracle

>  <origin>  (41) 
adgpu

>  <m_score__min__energy>  (41) 
-12.91

>  <m_primary>  (41) 
energy

$$$$
41:0
     RDKit          3D

 51 53  0  0  0  0  0  0  0  0999 V2000
   -2.3090   14.1600  -32.3610 C   0  0  0  0  0  0  0  0  0  0  0  0
   -3.2450   13.3020  -33.2040 C   0  0  0  0  0  0  0  0  0  0  0  0
   -3.7990   14.1860  -34.6530 S   0  0  0  0  0  0  0  0  0  0  0  0
   -4.7030   13.3050  -35.4690 O   0  0  0  0  0  0  0  0  0  0  0  0
   -2.6090   14.5580  -35.4930 O   0  0  0  0  0  0  0  0  0  0  0  0
   -4.6540   15.6500  -34.1750 C   0  0  0  0  0  0  0  0  0  0  0  0
   -4.5980   16.7890  -34.9860 C   0  0  0  0  0  0  0  0  0  0  0  0
   -5.2620   17.9580  -34.6060 C   0  0  0  0  0  0  0  0  0  0  0  0
   -5.9840   18.0110  -33.4000 C   0  0  0  0  0  0  0  0  0  0  0  0
   -6.6900   19.2540  -33.0050 C   0  0  0  0  0  0  0  0  0  0  0  0
   -7.9130   19.2020  -32.6990 O   0  0  0  0  0  0  0  0  0  0  0  0
   -6.0120   20.5210  -33.0140 N   0  0  0  0  0  0  0  0  0  0  0  0
   -6.4520   21.6670  -32.2630 C   0  0  0  0  0  0  0  0  0  0  0  0
   -7.8030   22.0390  -32.3040 C   0  0  0  0  0  0  0  0  0  0  0  0
   -8.2500   23.1620  -31.6020 C   0  0  0  0  0  0  0  0  0  0  0  0
   -7.3480   23.9330  -30.8660 C   0  0  0  0  0  0  0  0  0  0  0  0
   -5.9900   23.5880  -30.8340 C   0  0  0  0  0  0  0  0  0  0  0  0
   -4.8450   24.5800  -29.9260 S   0  0  0  0  0  0  0  0  0  0  0  0
   -4.2470   25.6080  -30.8460 O   0  0  0  0  0  0  0  0  0  0  0  0
   -5.5780   25.3060  -28.8330 O   0  0  0  0  0  0  0  0  0  0  0  0
   -3.5650   23.6200  -29.2250 N   0  0  0  0  0  0  0  0  0  0  0  0
   -4.1210   22.5870  -28.3350 C   0  0  0  0  0  0  0  0  0  0  0  0
   -3.0190   21.6060  -27.8860 C   0  0  0  0  0  0  0  0  0  0  0  0
   -1.7340   22.0850  -28.2350 O   0  0  0  0  0  0  0  0  0  0  0  0
   -1.6180   22.1630  -29.6450 C   0  0  0  0  0  0  0  0  0  0  0  0
   -2.7520   22.9960  -30.2800 C   0  0  0  0  0  0  0  0  0  0  0  0
   -5.5440   22.4580  -31.5340 C   0  0  0  0  0  0  0  0  0  0  0  0
   -6.0370   16.8610  -32.5900 C   0  0  0  0  0  0  0  0  0  0  0  0
   -5.3740   15.6910  -32.9740 C   0  0  0  0  0  0  0  0  0  0  0  0
   -2.5067   13.9788  -31.2942 H   0  0  0  0  0  0  0  0  0  0  0  0
   -1.2655   13.8982  -32.5902 H   0  0  0  0  0  0  0  0  0  0  0  0
   -2.4793   15.2223  -32.5902 H   0  0  0  0  0  0  0  0  0  0  0  0
   -2.7120   12.3931  -33.5199 H   0  0  0  0  0  0  0  0  0  0  0  0
   -4.1242   13.0435  -32.5956 H   0  0  0  0  0  0  0  0  0  0  0  0
   -4.0287   16.7638  -35.9269 H   0  0  0  0  0  0  0  0  0  0  0  0
   -5.2198   18.8447  -35.2556 H   0  0  0  0  0  0  0  0  0  0  0  0
   -5.2200   20.6500  -33.6830 H   0  0  0  0  0  0  0  0  0  0  0  0
   -8.5161   21.4431  -32.8926 H   0  0  0  0  0  0  0  0  0  0  0  0
   -9.3142   23.4389  -31.6294 H   0  0  0  0  0  0  0  0  0  0  0  0
   -7.7040   24.8130  -30.3102 H   0  0  0  0  0  0  0  0  0  0  0  0
   -4.5575   23.0705  -27.4486 H   0  0  0  0  0  0  0  0  0  0  0  0
   -4.8932   22.0262  -28.8820 H   0  0  0  0  0  0  0  0  0  0  0  0
   -3.0716   21.4826  -26.7942 H   0  0  0  0  0  0  0  0  0  0  0  0
   -3.1816   20.6437  -28.3934 H   0  0  0  0  0  0  0  0  0  0  0  0
   -0.6536   22.6290  -29.8955 H   0  0  0  0  0  0  0  0  0  0  0  0
   -1.6858   21.1408  -30.0457 H   0  0  0  0  0  0  0  0  0  0  0  0
   -2.3162   23.7801  -30.9166 H   0  0  0  0  0  0  0  0  0  0  0  0
   -3.3899   22.3366  -30.8869 H   0  0  0  0  0  0  0  0  0  0  0  0
   -4.4779   22.1879  -31.5134 H   0  0  0  0  0  0  0  0  0  0  0  0
   -6.6042   16.8827  -31.6478 H   0  0  0  0  0  0  0  0  0  0  0  0
   -5.4180   14.7998  -32.3307 H   0  0  0  0  0  0  0  0  0  0  0  0
  1  2  1  0
  2  3  1  0
  3  4  2  0
  3  5  2  0
  3  6  1  0
  6  7  2  0
  7  8  1  0
  8  9  2  0
  9 10  1  0
 10 11  2  0
 10 12  1  0
 12 13  1  0
 13 14  2  0
 14 15  1  0
 15 16  2  0
 16 17  1  0
 17 18  1  0
 18 19  2  0
 18 20  2  0
 18 21  1  0
 21 22  1  0
 22 23  1  0
 23 24  1  0
 24 25  1  0
 25 26  1  0
 17 27  2  0
  9 28  1  0
 28 29  2  0
 29  6  1  0
 27 13  1  0
 26 21  1  0
  1 30  1  0
  1 31  1  0
  1 32  1  0
  2 33  1  0
  2 34  1  0
  7 35  1  0
  8 36  1  0
 12 37  1  0
 14 38  1  0
 15 39  1  0
 16 40  1  0
 22 41  1  0
 22 42  1  0
 23 43  1  0
 23 44  1  0
 25 45  1  0
 25 46  1  0
 26 47  1  0
 26 48  1  0
 27 49  1  0
 28 50  1  0
 29 51  1  0
M  END
>  <UniqueID>  (42) 
41

>  <SMILES>  (42) 
CCS(=O)(=O)c1ccc(C(=O)Nc2cccc(S(=O)(=O)N3CCOCC3)c2)cc1

>  <Energy>  (42) 
58.91149453840704

>  <Genealogy>  (42) 
CCS(=O)(=O)c1ccc(C(=O)Nc2cccc(S(=O)(=O)N3CCOCC3)c2)cc1 (3D coordinates assigned)
CCS(=O)(=O)c1ccc(C(=O)Nc2cccc(S(=O)(=O)N3CCOCC3)c2)cc1 (nonaromatic ring conformer: 58.91149453840704 kcal/mol)

>  <smiles>  (42) 
CCS(=O)(=O)c1ccc(C(=O)Nc2cccc(S(=O)(=O)N3CCOCC3)c2)cc1

>  <score_type>  (42) 
oracle

>  <origin>  (42) 
adgpu

>  <m_score__min__energy>  (42) 
-9.9100000000000001

>  <m_primary>  (42) 
energy

$$$$
42:0
     RDKit          3D

 67 70  0  0  0  0  0  0  0  0999 V2000
   -5.0280   17.4690  -34.4800 C   0  0  0  0  0  0  0  0  0  0  0  0
   -6.1470   18.1220  -33.7840 N   0  0  0  0  0  0  0  0  0  0  0  0
   -6.0370   17.9220  -32.3190 C   0  0  0  0  0  0  0  0  0  0  0  0
   -6.7960   19.0100  -31.5520 C   0  0  0  0  0  0  0  0  0  0  0  0
   -6.2100   20.3450  -31.8040 N   0  0  0  0  0  0  0  0  0  0  0  0
   -7.3830   21.5940  -31.4550 S   0  0  0  0  0  0  0  0  0  0  0  0
   -8.0960   21.9910  -32.7170 O   0  0  0  0  0  0  0  0  0  0  0  0
   -8.3880   21.0640  -30.4700 O   0  0  0  0  0  0  0  0  0  0  0  0
   -6.5510   23.0180  -30.8170 C   0  0  0  0  0  0  0  0  0  0  0  0
   -7.3200   24.0090  -30.1910 C   0  0  0  0  0  0  0  0  0  0  0  0
   -6.7070   25.1390  -29.6480 C   0  0  0  0  0  0  0  0  0  0  0  0
   -5.3210   25.2910  -29.7260 C   0  0  0  0  0  0  0  0  0  0  0  0
   -4.5340   24.3180  -30.3700 C   0  0  0  0  0  0  0  0  0  0  0  0
   -3.1040   24.4330  -30.4350 N   0  0  0  0  0  0  0  0  0  0  0  0
   -2.2240   24.5250  -29.3080 C   0  0  0  0  0  0  0  0  0  0  0  0
   -1.7090   25.6410  -29.0230 O   0  0  0  0  0  0  0  0  0  0  0  0
   -1.9320   23.3600  -28.5280 N   0  0  0  0  0  0  0  0  0  0  0  0
   -1.1060   22.2610  -28.9380 C   0  0  0  0  0  0  0  0  0  0  0  0
   -0.1980   21.7290  -28.0110 C   0  0  0  0  0  0  0  0  0  0  0  0
   -0.0990   22.2740  -26.7390 O   0  0  0  0  0  0  0  0  0  0  0  0
    0.6000   20.6380  -28.3530 C   0  0  0  0  0  0  0  0  0  0  0  0
    0.4780   20.0480  -29.6090 C   0  0  0  0  0  0  0  0  0  0  0  0
   -0.4160   20.5680  -30.5570 C   0  0  0  0  0  0  0  0  0  0  0  0
   -0.6600   19.6980  -32.0800 S   0  0  0  0  0  0  0  0  0  0  0  0
   -2.1380   19.6370  -32.3570 O   0  0  0  0  0  0  0  0  0  0  0  0
   -0.1500   18.2870  -31.9530 O   0  0  0  0  0  0  0  0  0  0  0  0
    0.1520   20.5070  -33.4010 N   0  0  0  0  0  0  0  0  0  0  0  0
   -0.6090   20.3180  -34.6420 C   0  0  0  0  0  0  0  0  0  0  0  0
   -0.0140   21.1880  -35.7650 C   0  0  0  0  0  0  0  0  0  0  0  0
    1.4450   21.4210  -35.6190 N   0  0  0  0  0  0  0  0  0  0  0  0
    1.7490   22.7100  -34.9720 C   0  0  0  0  0  0  0  0  0  0  0  0
    2.1250   20.2980  -34.9390 C   0  0  0  0  0  0  0  0  0  0  0  0
    1.5320   20.0000  -33.5410 C   0  0  0  0  0  0  0  0  0  0  0  0
   -1.1680   21.7260  -30.2430 C   0  0  0  0  0  0  0  0  0  0  0  0
   -1.9440   22.3740  -31.2100 O   0  0  0  0  0  0  0  0  0  0  0  0
   -5.1500   23.1710  -30.8950 C   0  0  0  0  0  0  0  0  0  0  0  0
   -4.3630   22.1900  -31.4940 O   0  0  0  0  0  0  0  0  0  0  0  0
   -5.6430   20.5050  -33.1650 C   0  0  0  0  0  0  0  0  0  0  0  0
   -6.2770   19.5440  -34.1860 C   0  0  0  0  0  0  0  0  0  0  0  0
   -4.3251   17.0588  -33.7399 H   0  0  0  0  0  0  0  0  0  0  0  0
   -5.4136   16.6542  -35.1103 H   0  0  0  0  0  0  0  0  0  0  0  0
   -4.5083   18.2056  -35.1103 H   0  0  0  0  0  0  0  0  0  0  0  0
   -6.4578   16.9396  -32.0585 H   0  0  0  0  0  0  0  0  0  0  0  0
   -4.9745   17.9757  -32.0392 H   0  0  0  0  0  0  0  0  0  0  0  0
   -7.8471   19.0117  -31.8764 H   0  0  0  0  0  0  0  0  0  0  0  0
   -6.7245   18.7940  -30.4758 H   0  0  0  0  0  0  0  0  0  0  0  0
   -8.4123   23.8953  -30.1275 H   0  0  0  0  0  0  0  0  0  0  0  0
   -7.3170   25.9118  -29.1574 H   0  0  0  0  0  0  0  0  0  0  0  0
   -4.8418   26.1759  -29.2818 H   0  0  0  0  0  0  0  0  0  0  0  0
    1.3277   20.2422  -27.6292 H   0  0  0  0  0  0  0  0  0  0  0  0
    1.0875   19.1673  -29.8595 H   0  0  0  0  0  0  0  0  0  0  0  0
   -0.5640   19.2598  -34.9389 H   0  0  0  0  0  0  0  0  0  0  0  0
   -1.6545   20.6147  -34.4721 H   0  0  0  0  0  0  0  0  0  0  0  0
   -0.1925   20.6856  -36.7272 H   0  0  0  0  0  0  0  0  0  0  0  0
   -0.5070   22.1699  -35.7114 H   0  0  0  0  0  0  0  0  0  0  0  0
    1.7201   22.5876  -33.8792 H   0  0  0  0  0  0  0  0  0  0  0  0
    2.7510   23.0460  -35.2770 H   0  0  0  0  0  0  0  0  0  0  0  0
    1.0027   23.4584  -35.2770 H   0  0  0  0  0  0  0  0  0  0  0  0
    2.0263   19.3972  -35.5626 H   0  0  0  0  0  0  0  0  0  0  0  0
    3.1784   20.5825  -34.7996 H   0  0  0  0  0  0  0  0  0  0  0  0
    1.5273   18.9114  -33.3829 H   0  0  0  0  0  0  0  0  0  0  0  0
    2.1568   20.5103  -32.7933 H   0  0  0  0  0  0  0  0  0  0  0  0
   -2.7650   22.9190  -30.9840 H   0  0  0  0  0  0  0  0  0  0  0  0
   -5.8156   21.5386  -33.4995 H   0  0  0  0  0  0  0  0  0  0  0  0
   -4.5696   20.2712  -33.1087 H   0  0  0  0  0  0  0  0  0  0  0  0
   -7.3454   19.7870  -34.2830 H   0  0  0  0  0  0  0  0  0  0  0  0
   -5.7451   19.6716  -35.1404 H   0  0  0  0  0  0  0  0  0  0  0  0
  1  2  1  0
  2  3  1  0
  3  4  1  0
  4  5  1  0
  5  6  1  0
  6  7  2  0
  6  8  2  0
  6  9  1  0
  9 10  2  0
 10 11  1  0
 11 12  2  0
 12 13  1  0
 13 14  1  0
 14 15  1  0
 15 16  2  0
 15 17  1  0
 17 18  1  0
 18 19  2  0
 19 20  1  0
 19 21  1  0
 21 22  2  0
 22 23  1  0
 23 24  1  0
 24 25  2  0
 24 26  2  0
 24 27  1  0
 27 28  1  0
 28 29  1  0
 29 30  1  0
 30 31  1  0
 30 32  1  0
 32 33  1  0
 23 34  2  0
 34 35  1  0
 13 36  2  0
 36 37  1  0
  5 38  1  0
 38 39  1  0
 39  2  1  0
 36  9  1  0
 34 18  1  0
 33 27  1  0
  1 40  1  0
  1 41  1  0
  1 42  1  0
  3 43  1  0
  3 44  1  0
  4 45  1  0
  4 46  1  0
 10 47  1  0
 11 48  1  0
 12 49  1  0
 21 50  1  0
 22 51  1  0
 28 52  1  0
 28 53  1  0
 29 54  1  0
 29 55  1  0
 31 56  1  0
 31 57  1  0
 31 58  1  0
 32 59  1  0
 32 60  1  0
 33 61  1  0
 33 62  1  0
 35 63  1  0
 38 64  1  0
 38 65  1  0
 39 66  1  0
 39 67  1  0
M  CHG  4  14  -1  17  -1  20  -1  37  -1
M  END
>  <UniqueID>  (43) 
42

>  <SMILES>  (43) 
CN1CCN(S(=O)(=O)c2cccc([N-]C(=O)[N-]c3c([O-])ccc(S(=O)(=O)N4CCN(C)CC4)c3O)c2[O-])CC1

>  <Energy>  (43) 
102.50461494881581

>  <Genealogy>  (43) 
CN1CCN(S(=O)(=O)c2cccc([N-]C(=O)[N-]c3c([O-])ccc(S(=O)(=O)N4CCN(C)CC4)c3O)c2[O-])CC1 (protonated)
CN1CCN(S(=O)(=O)c2cccc([N-]C(=O)[N-]c3c([O-])ccc(S(=O)(=O)N4CCN(C)CC4)c3O)c2[O-])CC1 (3D coordinates assigned)
CN1CCN(S(=O)(=O)c2cccc([N-]C(=O)[N-]c3c([O-])ccc(S(=O)(=O)N4CCN(C)CC4)c3O)c2[O-])CC1 (nonaromatic ring conformer: 102.50461494881581 kcal/mol)

>  <smiles>  (43) 
CN1CCN(S(=O)(=O)c2cccc(NC(=O)Nc3c(O)ccc(S(=O)(=O)N4CCN(C)CC4)c3O)c2O)CC1

>  <score_type>  (43) 
oracle

>  <origin>  (43) 
adgpu

>  <m_score__min__energy>  (43) 
-14.56

>  <m_primary>  (43) 
energy

$$$$
43:0
     RDKit          3D

 33 35  0  0  0  0  0  0  0  0999 V2000
   -4.5990   25.3100  -30.8610 O   0  0  0  0  0  0  0  0  0  0  0  0
   -5.3980   24.5930  -30.1990 C   0  0  0  0  0  0  0  0  0  0  0  0
   -6.7890   24.3820  -30.7120 C   0  0  0  0  0  0  0  0  0  0  0  0
   -6.8530   23.1530  -31.4980 N   0  0  0  0  0  0  0  0  0  0  0  0
   -7.8700   22.1510  -31.4170 C   0  0  0  0  0  0  0  0  0  0  0  0
   -8.9890   22.3200  -30.8630 O   0  0  0  0  0  0  0  0  0  0  0  0
   -7.4070   20.9150  -32.0370 C   0  0  0  0  0  0  0  0  0  0  0  0
   -8.0410   19.6840  -32.1980 C   0  0  0  0  0  0  0  0  0  0  0  0
   -7.3250   18.6520  -32.8300 C   0  0  0  0  0  0  0  0  0  0  0  0
   -6.0030   18.8670  -33.2790 C   0  0  0  0  0  0  0  0  0  0  0  0
   -5.3840   20.1170  -33.0990 C   0  0  0  0  0  0  0  0  0  0  0  0
   -6.1160   21.1250  -32.4740 C   0  0  0  0  0  0  0  0  0  0  0  0
   -5.7530   22.4960  -32.1360 C   0  0  0  0  0  0  0  0  0  0  0  0
   -4.6350   23.0330  -32.3530 O   0  0  0  0  0  0  0  0  0  0  0  0
   -5.0130   24.0580  -28.9240 N   0  0  0  0  0  0  0  0  0  0  0  0
   -3.6870   24.1780  -28.3880 C   0  0  0  0  0  0  0  0  0  0  0  0
   -2.5540   23.8590  -29.1620 C   0  0  0  0  0  0  0  0  0  0  0  0
   -2.6870   23.3980  -30.4300 F   0  0  0  0  0  0  0  0  0  0  0  0
   -1.2730   23.9700  -28.6110 C   0  0  0  0  0  0  0  0  0  0  0  0
   -1.1110   24.3850  -27.2870 C   0  0  0  0  0  0  0  0  0  0  0  0
   -2.2310   24.6800  -26.5050 C   0  0  0  0  0  0  0  0  0  0  0  0
   -3.5140   24.5700  -27.0490 C   0  0  0  0  0  0  0  0  0  0  0  0
   -4.5920   24.8650  -26.2780 F   0  0  0  0  0  0  0  0  0  0  0  0
   -7.4828   24.3066  -29.8617 H   0  0  0  0  0  0  0  0  0  0  0  0
   -7.0702   25.2326  -31.3503 H   0  0  0  0  0  0  0  0  0  0  0  0
   -9.0695   19.5249  -31.8417 H   0  0  0  0  0  0  0  0  0  0  0  0
   -7.7980   17.6696  -32.9759 H   0  0  0  0  0  0  0  0  0  0  0  0
   -5.4541   18.0515  -33.7726 H   0  0  0  0  0  0  0  0  0  0  0  0
   -4.3536   20.2937  -33.4411 H   0  0  0  0  0  0  0  0  0  0  0  0
   -5.7630   23.6850  -28.3010 H   0  0  0  0  0  0  0  0  0  0  0  0
   -0.3905   23.7298  -29.2222 H   0  0  0  0  0  0  0  0  0  0  0  0
   -0.1017   24.4796  -26.8599 H   0  0  0  0  0  0  0  0  0  0  0  0
   -2.1028   24.9991  -25.4601 H   0  0  0  0  0  0  0  0  0  0  0  0
  1  2  2  0
  2  3  1  0
  3  4  1  0
  4  5  1  0
  5  6  2  0
  5  7  1  0
  7  8  2  0
  8  9  1  0
  9 10  2  0
 10 11  1  0
 11 12  2  0
 12 13  1  0
 13 14  2  0
  2 15  1  0
 15 16  1  0
 16 17  2  0
 17 18  1  0
 17 19  1  0
 19 20  2  0
 20 21  1  0
 21 22  2  0
 22 23  1  0
 13  4  1  0
 22 16  1  0
 12  7  1  0
  3 24  1  0
  3 25  1  0
  8 26  1  0
  9 27  1  0
 10 28  1  0
 11 29  1  0
 15 30  1  0
 19 31  1  0
 20 32  1  0
 21 33  1  0
M  END
>  <UniqueID>  (44) 
43

>  <SMILES>  (44) 
O=C(CN1C(=O)c2ccccc2C1=O)Nc1c(F)cccc1F

>  <Energy>  (44) 
70.06130604051157

>  <Genealogy>  (44) 
O=C(CN1C(=O)c2ccccc2C1=O)Nc1c(F)cccc1F (3D coordinates assigned)
O=C(CN1C(=O)c2ccccc2C1=O)Nc1c(F)cccc1F (nonaromatic ring conformer: 70.06130604051157 kcal/mol)

>  <smiles>  (44) 
O=C(CN1C(=O)c2ccccc2C1=O)Nc1c(F)cccc1F

>  <score_type>  (44) 
oracle

>  <origin>  (44) 
adgpu

>  <m_score__min__energy>  (44) 
-8.6699999999999999

>  <m_primary>  (44) 
energy

$$$$
44:0
     RDKit          3D

 62 64  0  0  0  0  0  0  0  0999 V2000
   -9.7080   21.2950  -31.9370 C   0  0  0  0  0  0  0  0  0  0  0  0
   -8.7100   20.2010  -31.5540 C   0  0  0  0  0  0  0  0  0  0  0  0
   -8.9730   18.9170  -32.3510 C   0  0  0  0  0  0  0  0  0  0  0  0
   -7.2860   20.6980  -31.7230 C   0  0  0  0  0  0  0  0  0  0  0  0
   -7.0500   22.0650  -31.9650 C   0  0  0  0  0  0  0  0  0  0  0  0
   -5.7500   22.5350  -32.1630 C   0  0  0  0  0  0  0  0  0  0  0  0
   -4.6640   21.6520  -32.1170 C   0  0  0  0  0  0  0  0  0  0  0  0
   -2.9780   22.2450  -32.3130 S   0  0  0  0  0  0  0  0  0  0  0  0
   -2.4700   21.6450  -30.6930 C   0  0  0  0  0  0  0  0  0  0  0  0
   -1.6160   20.5340  -30.6420 C   0  0  0  0  0  0  0  0  0  0  0  0
   -1.2230   19.9830  -29.4140 C   0  0  0  0  0  0  0  0  0  0  0  0
   -0.3490   18.7890  -29.3820 C   0  0  0  0  0  0  0  0  0  0  0  0
   -0.4560   17.9290  -30.2970 O   0  0  0  0  0  0  0  0  0  0  0  0
    0.6350   18.6010  -28.3490 N   0  0  0  0  0  0  0  0  0  0  0  0
    1.4460   19.7370  -27.8960 C   0  0  0  0  0  0  0  0  0  0  0  0
    0.9470   17.2410  -27.9010 C   0  0  0  0  0  0  0  0  0  0  0  0
   -1.7050   20.5510  -28.2270 C   0  0  0  0  0  0  0  0  0  0  0  0
   -2.5200   21.6820  -28.2660 C   0  0  0  0  0  0  0  0  0  0  0  0
   -2.9080   22.2480  -29.4890 C   0  0  0  0  0  0  0  0  0  0  0  0
   -3.8200   23.7680  -29.4440 S   0  0  0  0  0  0  0  0  0  0  0  0
   -3.8550   24.3320  -30.8370 O   0  0  0  0  0  0  0  0  0  0  0  0
   -5.2280   23.5630  -28.9640 O   0  0  0  0  0  0  0  0  0  0  0  0
   -3.0260   24.9000  -28.3750 N   0  0  0  0  0  0  0  0  0  0  0  0
   -1.5730   24.9760  -28.6640 C   0  0  0  0  0  0  0  0  0  0  0  0
   -0.7260   24.2200  -27.6310 C   0  0  0  0  0  0  0  0  0  0  0  0
   -0.9410   24.7480  -26.2650 N   0  0  0  0  0  0  0  0  0  0  0  0
   -0.5050   23.7640  -25.2620 C   0  0  0  0  0  0  0  0  0  0  0  0
   -2.3300   25.2040  -26.0100 C   0  0  0  0  0  0  0  0  0  0  0  0
   -3.3380   24.5600  -26.9720 C   0  0  0  0  0  0  0  0  0  0  0  0
   -4.8920   20.2880  -31.9060 C   0  0  0  0  0  0  0  0  0  0  0  0
   -6.1930   19.8110  -31.7230 C   0  0  0  0  0  0  0  0  0  0  0  0
  -10.1223   21.7491  -31.0248 H   0  0  0  0  0  0  0  0  0  0  0  0
   -9.1962   22.0666  -32.5308 H   0  0  0  0  0  0  0  0  0  0  0  0
  -10.5233   20.8560  -32.5308 H   0  0  0  0  0  0  0  0  0  0  0  0
   -8.8479   19.9530  -30.4912 H   0  0  0  0  0  0  0  0  0  0  0  0
   -9.1440   18.0822  -31.6554 H   0  0  0  0  0  0  0  0  0  0  0  0
   -9.8617   19.0542  -32.9846 H   0  0  0  0  0  0  0  0  0  0  0  0
   -8.1019   18.6938  -32.9846 H   0  0  0  0  0  0  0  0  0  0  0  0
   -7.8957   22.7676  -31.9983 H   0  0  0  0  0  0  0  0  0  0  0  0
   -5.5781   23.6042  -32.3561 H   0  0  0  0  0  0  0  0  0  0  0  0
   -1.2492   20.0885  -31.5785 H   0  0  0  0  0  0  0  0  0  0  0  0
    1.4626   19.7603  -26.7964 H   0  0  0  0  0  0  0  0  0  0  0  0
    2.4726   19.6293  -28.2760 H   0  0  0  0  0  0  0  0  0  0  0  0
    1.0107   20.6730  -28.2760 H   0  0  0  0  0  0  0  0  0  0  0  0
    0.9542   17.2097  -26.8015 H   0  0  0  0  0  0  0  0  0  0  0  0
    0.1851   16.5454  -28.2826 H   0  0  0  0  0  0  0  0  0  0  0  0
    1.9359   16.9470  -28.2826 H   0  0  0  0  0  0  0  0  0  0  0  0
   -1.4389   20.1021  -27.2587 H   0  0  0  0  0  0  0  0  0  0  0  0
   -2.8631   22.1362  -27.3248 H   0  0  0  0  0  0  0  0  0  0  0  0
   -1.3881   24.5413  -29.6574 H   0  0  0  0  0  0  0  0  0  0  0  0
   -1.2801   26.0355  -28.6242 H   0  0  0  0  0  0  0  0  0  0  0  0
   -1.0032   23.1557  -27.6509 H   0  0  0  0  0  0  0  0  0  0  0  0
    0.3349   24.3522  -27.8900 H   0  0  0  0  0  0  0  0  0  0  0  0
   -0.6828   24.1652  -24.2533 H   0  0  0  0  0  0  0  0  0  0  0  0
   -1.0743   22.8317  -25.3914 H   0  0  0  0  0  0  0  0  0  0  0  0
    0.5680   23.5594  -25.3914 H   0  0  0  0  0  0  0  0  0  0  0  0
   -2.6059   24.9393  -24.9786 H   0  0  0  0  0  0  0  0  0  0  0  0
   -2.3620   26.2923  -26.1665 H   0  0  0  0  0  0  0  0  0  0  0  0
   -3.3026   23.4673  -26.8508 H   0  0  0  0  0  0  0  0  0  0  0  0
   -4.3414   24.9431  -26.7345 H   0  0  0  0  0  0  0  0  0  0  0  0
   -4.0438   19.5879  -31.8840 H   0  0  0  0  0  0  0  0  0  0  0  0
   -6.3641   18.7341  -31.5779 H   0  0  0  0  0  0  0  0  0  0  0  0
  1  2  1  0
  2  3  1  0
  2  4  1  0
  4  5  2  0
  5  6  1  0
  6  7  2  0
  7  8  1  0
  8  9  1  0
  9 10  2  0
 10 11  1  0
 11 12  1  0
 12 13  2  0
 12 14  1  0
 14 15  1  0
 14 16  1  0
 11 17  2  0
 17 18  1  0
 18 19  2  0
 19 20  1  0
 20 21  2  0
 20 22  2  0
 20 23  1  0
 23 24  1  0
 24 25  1  0
 25 26  1  0
 26 27  1  0
 26 28  1  0
 28 29  1  0
  7 30  1  0
 30 31  2  0
 31  4  1  0
 19  9  1  0
 29 23  1  0
  1 32  1  0
  1 33  1  0
  1 34  1  0
  2 35  1  0
  3 36  1  0
  3 37  1  0
  3 38  1  0
  5 39  1  0
  6 40  1  0
 10 41  1  0
 15 42  1  0
 15 43  1  0
 15 44  1  0
 16 45  1  0
 16 46  1  0
 16 47  1  0
 17 48  1  0
 18 49  1  0
 24 50  1  0
 24 51  1  0
 25 52  1  0
 25 53  1  0
 27 54  1  0
 27 55  1  0
 27 56  1  0
 28 57  1  0
 28 58  1  0
 29 59  1  0
 29 60  1  0
 30 61  1  0
 31 62  1  0
M  END
>  <UniqueID>  (45) 
44

>  <SMILES>  (45) 
CC(C)c1ccc(Sc2cc(C(=O)N(C)C)ccc2S(=O)(=O)N2CCN(C)CC2)cc1

>  <Energy>  (45) 
71.15817239142409

>  <Genealogy>  (45) 
CC(C)c1ccc(Sc2cc(C(=O)N(C)C)ccc2S(=O)(=O)N2CCN(C)CC2)cc1 (3D coordinates assigned)
CC(C)c1ccc(Sc2cc(C(=O)N(C)C)ccc2S(=O)(=O)N2CCN(C)CC2)cc1 (nonaromatic ring conformer: 71.15817239142409 kcal/mol)

>  <smiles>  (45) 
CC(C)c1ccc(Sc2cc(C(=O)N(C)C)ccc2S(=O)(=O)N2CCN(C)CC2)cc1

>  <score_type>  (45) 
oracle

>  <origin>  (45) 
adgpu

>  <m_score__min__energy>  (45) 
-10.35

>  <m_primary>  (45) 
energy

$$$$
45:0
     RDKit          3D

 63 66  0  0  0  0  0  0  0  0999 V2000
   -5.7900   25.5510  -30.1180 C   0  0  0  0  0  0  0  0  0  0  0  0
   -4.8450   24.8730  -30.9410 O   0  0  0  0  0  0  0  0  0  0  0  0
   -4.8930   23.5050  -31.2550 C   0  0  0  0  0  0  0  0  0  0  0  0
   -5.5200   23.0440  -32.4270 C   0  0  0  0  0  0  0  0  0  0  0  0
   -5.5780   21.6780  -32.7150 C   0  0  0  0  0  0  0  0  0  0  0  0
   -5.0090   20.7470  -31.8380 C   0  0  0  0  0  0  0  0  0  0  0  0
   -5.0600   19.2800  -32.1480 C   0  0  0  0  0  0  0  0  0  0  0  0
   -4.3560   21.2000  -30.6850 C   0  0  0  0  0  0  0  0  0  0  0  0
   -4.3090   22.5680  -30.3770 C   0  0  0  0  0  0  0  0  0  0  0  0
   -3.5790   23.0500  -28.8360 S   0  0  0  0  0  0  0  0  0  0  0  0
   -2.7910   24.3090  -29.0670 O   0  0  0  0  0  0  0  0  0  0  0  0
   -4.6170   23.3180  -27.7830 O   0  0  0  0  0  0  0  0  0  0  0  0
   -2.5230   21.7510  -28.2550 C   0  0  0  0  0  0  0  0  0  0  0  0
   -3.0370   20.7990  -27.3590 C   0  0  0  0  0  0  0  0  0  0  0  0
   -2.2150   19.7940  -26.8460 C   0  0  0  0  0  0  0  0  0  0  0  0
   -0.8720   19.7310  -27.2150 C   0  0  0  0  0  0  0  0  0  0  0  0
   -0.3460   20.6650  -28.1090 C   0  0  0  0  0  0  0  0  0  0  0  0
   -1.1640   21.6690  -28.6480 C   0  0  0  0  0  0  0  0  0  0  0  0
   -0.5770   22.6170  -29.6060 C   0  0  0  0  0  0  0  0  0  0  0  0
   -0.5020   22.2930  -30.8180 O   0  0  0  0  0  0  0  0  0  0  0  0
   -0.1810   23.9190  -29.1360 N   0  0  0  0  0  0  0  0  0  0  0  0
   -0.2570   24.4660  -27.9530 C   0  0  0  0  0  0  0  0  0  0  0  0
   -0.8750   23.8510  -26.8420 C   0  0  0  0  0  0  0  0  0  0  0  0
   -0.9160   24.5240  -25.6180 C   0  0  0  0  0  0  0  0  0  0  0  0
   -0.3210   25.7840  -25.4810 C   0  0  0  0  0  0  0  0  0  0  0  0
   -0.4330   26.5600  -24.1880 C   0  0  0  0  0  0  0  0  0  0  0  0
    0.8100   26.6280  -23.3740 N   0  0  0  0  0  0  0  0  0  0  0  0
    1.0330   27.9310  -22.6880 C   0  0  0  0  0  0  0  0  0  0  0  0
    1.8840   28.9250  -23.4950 C   0  0  0  0  0  0  0  0  0  0  0  0
    3.1880   28.2760  -23.9350 C   0  0  0  0  0  0  0  0  0  0  0  0
    2.8800   27.0600  -24.7960 C   0  0  0  0  0  0  0  0  0  0  0  0
    2.0150   26.0470  -24.0290 C   0  0  0  0  0  0  0  0  0  0  0  0
    0.2710   26.3680  -26.6110 C   0  0  0  0  0  0  0  0  0  0  0  0
    0.2830   25.7050  -27.7960 N   0  0  0  0  0  0  0  0  0  0  0  0
   -5.5465   25.3763  -29.0596 H   0  0  0  0  0  0  0  0  0  0  0  0
   -5.7530   26.6298  -30.3295 H   0  0  0  0  0  0  0  0  0  0  0  0
   -6.8001   25.1703  -30.3295 H   0  0  0  0  0  0  0  0  0  0  0  0
   -5.9694   23.7666  -33.1240 H   0  0  0  0  0  0  0  0  0  0  0  0
   -6.0728   21.3327  -33.6347 H   0  0  0  0  0  0  0  0  0  0  0  0
   -5.0799   18.7073  -31.2091 H   0  0  0  0  0  0  0  0  0  0  0  0
   -5.9663   19.0597  -32.7311 H   0  0  0  0  0  0  0  0  0  0  0  0
   -4.1711   18.9973  -32.7311 H   0  0  0  0  0  0  0  0  0  0  0  0
   -3.8742   20.4747  -30.0128 H   0  0  0  0  0  0  0  0  0  0  0  0
   -4.0944   20.8457  -27.0595 H   0  0  0  0  0  0  0  0  0  0  0  0
   -2.6279   19.0500  -26.1489 H   0  0  0  0  0  0  0  0  0  0  0  0
   -0.2254   18.9434  -26.8006 H   0  0  0  0  0  0  0  0  0  0  0  0
    0.7156   20.6135  -28.3924 H   0  0  0  0  0  0  0  0  0  0  0  0
   -1.3206   22.8500  -26.9394 H   0  0  0  0  0  0  0  0  0  0  0  0
   -1.4191   24.0608  -24.7564 H   0  0  0  0  0  0  0  0  0  0  0  0
   -0.7335   27.5890  -24.4349 H   0  0  0  0  0  0  0  0  0  0  0  0
   -1.1681   26.0197  -23.5734 H   0  0  0  0  0  0  0  0  0  0  0  0
    0.6060   25.9620  -22.5880 H   0  0  0  0  0  0  0  0  0  0  0  0
    0.0532   28.3921  -22.4943 H   0  0  0  0  0  0  0  0  0  0  0  0
    1.5887   27.7132  -21.7640 H   0  0  0  0  0  0  0  0  0  0  0  0
    1.3209   29.2450  -24.3841 H   0  0  0  0  0  0  0  0  0  0  0  0
    2.1152   29.7928  -22.8598 H   0  0  0  0  0  0  0  0  0  0  0  0
    3.7795   28.9980  -24.5172 H   0  0  0  0  0  0  0  0  0  0  0  0
    3.7613   27.9644  -23.0494 H   0  0  0  0  0  0  0  0  0  0  0  0
    2.3396   27.3849  -25.6973 H   0  0  0  0  0  0  0  0  0  0  0  0
    3.8286   26.5748  -25.0695 H   0  0  0  0  0  0  0  0  0  0  0  0
    1.6810   25.2752  -24.7381 H   0  0  0  0  0  0  0  0  0  0  0  0
    2.6461   25.6482  -23.2211 H   0  0  0  0  0  0  0  0  0  0  0  0
    0.7270   27.3663  -26.5368 H   0  0  0  0  0  0  0  0  0  0  0  0
  1  2  1  0
  2  3  1  0
  3  4  2  0
  4  5  1  0
  5  6  2  0
  6  7  1  0
  6  8  1  0
  8  9  2  0
  9 10  1  0
 10 11  2  0
 10 12  2  0
 10 13  1  0
 13 14  2  0
 14 15  1  0
 15 16  2  0
 16 17  1  0
 17 18  2  0
 18 19  1  0
 19 20  2  0
 19 21  1  0
 21 22  2  3
 22 23  1  0
 23 24  2  0
 24 25  1  0
 25 26  1  0
 26 27  1  0
 27 28  1  0
 28 29  1  0
 29 30  1  0
 30 31  1  0
 31 32  1  0
 25 33  2  0
 33 34  1  0
  9  3  1  0
 18 13  1  0
 34 22  1  0
 32 27  1  0
  1 35  1  0
  1 36  1  0
  1 37  1  0
  4 38  1  0
  5 39  1  0
  7 40  1  0
  7 41  1  0
  7 42  1  0
  8 43  1  0
 14 44  1  0
 15 45  1  0
 16 46  1  0
 17 47  1  0
 23 48  1  0
 24 49  1  0
 26 50  1  0
 26 51  1  0
 27 52  1  0
 28 53  1  0
 28 54  1  0
 29 55  1  0
 29 56  1  0
 30 57  1  0
 30 58  1  0
 31 59  1  0
 31 60  1  0
 32 61  1  0
 32 62  1  0
 33 63  1  0
M  CHG  2  27   1  34  -1
M  END
>  <UniqueID>  (46) 
45

>  <SMILES>  (46) 
COc1ccc(C)cc1S(=O)(=O)c1ccccc1C(=O)N=c1ccc(C[NH+]2CCCCC2)c[n-]1

>  <Energy>  (46) 
85.75055815861904

>  <Genealogy>  (46) 
COc1ccc(C)cc1S(=O)(=O)c1ccccc1C(=O)N=c1ccc(C[NH+]2CCCCC2)c[n-]1 (protonated)
COc1ccc(C)cc1S(=O)(=O)c1ccccc1C(=O)N=c1ccc(C[NH+]2CCCCC2)c[n-]1 (3D coordinates assigned)
COc1ccc(C)cc1S(=O)(=O)c1ccccc1C(=O)N=c1ccc(C[NH+]2CCCCC2)c[n-]1 (nonaromatic ring conformer: 85.75055815861904 kcal/mol)

>  <smiles>  (46) 
COc1ccc(C)cc1S(=O)(=O)c1ccccc1C(=O)N=c1ccc(CN2CCCCC2)c[nH]1

>  <score_type>  (46) 
oracle

>  <origin>  (46) 
adgpu

>  <m_score__min__energy>  (46) 
-11.529999999999999

>  <m_primary>  (46) 
energy

$$$$
46:0
     RDKit          3D

 62 65  0  0  0  0  0  0  0  0999 V2000
   -0.7761   24.2076  -30.3253 H   0  0  0  0  0  0  0  0  0  0  0  0
   -1.1710   24.0770  -29.3070 C   0  0  0  0  0  0  0  0  0  0  0  0
   -0.3310   23.6120  -28.2960 C   0  0  0  0  0  0  0  0  0  0  0  0
    0.7252   23.3988  -28.5174 H   0  0  0  0  0  0  0  0  0  0  0  0
   -0.8240   23.4150  -27.0010 C   0  0  0  0  0  0  0  0  0  0  0  0
    0.0840   22.9390  -25.9040 C   0  0  0  0  0  0  0  0  0  0  0  0
   -0.3654   23.1746  -24.9280 H   0  0  0  0  0  0  0  0  0  0  0  0
    0.2243   21.8514  -25.9902 H   0  0  0  0  0  0  0  0  0  0  0  0
    1.0583   23.4423  -25.9902 H   0  0  0  0  0  0  0  0  0  0  0  0
   -2.1640   23.7200  -26.7210 C   0  0  0  0  0  0  0  0  0  0  0  0
   -2.5510   23.5817  -25.7006 H   0  0  0  0  0  0  0  0  0  0  0  0
   -3.0180   24.2000  -27.7280 C   0  0  0  0  0  0  0  0  0  0  0  0
   -4.4490   24.5230  -27.3920 C   0  0  0  0  0  0  0  0  0  0  0  0
   -4.5718   24.5507  -26.2992 H   0  0  0  0  0  0  0  0  0  0  0  0
   -4.7128   25.5033  -27.8156 H   0  0  0  0  0  0  0  0  0  0  0  0
   -5.1083   23.7511  -27.8156 H   0  0  0  0  0  0  0  0  0  0  0  0
   -2.5180   24.3810  -29.0390 C   0  0  0  0  0  0  0  0  0  0  0  0
   -3.3810   24.8360  -30.0990 N   0  0  0  0  0  0  0  0  0  0  0  0
   -3.0940   25.6690  -30.6570 H   0  0  0  0  0  0  0  0  0  0  0  0
   -4.6240   24.1940  -30.4370 C   0  0  0  0  0  0  0  0  0  0  0  0
   -5.8270   24.9150  -30.3510 C   0  0  0  0  0  0  0  0  0  0  0  0
   -5.8076   25.9739  -30.0539 H   0  0  0  0  0  0  0  0  0  0  0  0
   -7.0460   24.3000  -30.6390 C   0  0  0  0  0  0  0  0  0  0  0  0
   -7.9796   24.8781  -30.5747 H   0  0  0  0  0  0  0  0  0  0  0  0
   -7.0860   22.9520  -31.0090 C   0  0  0  0  0  0  0  0  0  0  0  0
   -8.6290   22.1710  -31.3730 S   0  0  0  0  0  0  0  0  0  0  0  0
   -9.3470   21.8820  -30.0840 O   0  0  0  0  0  0  0  0  0  0  0  0
   -9.4790   23.1180  -32.1750 O   0  0  0  0  0  0  0  0  0  0  0  0
   -8.4400   20.6820  -32.2670 N   0  0  0  0  0  0  0  0  0  0  0  0
   -8.3130   19.5240  -31.3840 C   0  0  0  0  0  0  0  0  0  0  0  0
   -7.7512   19.7958  -30.4782 H   0  0  0  0  0  0  0  0  0  0  0  0
   -9.2988   19.1565  -31.0630 H   0  0  0  0  0  0  0  0  0  0  0  0
   -7.5590   18.4650  -32.1730 C   0  0  0  0  0  0  0  0  0  0  0  0
   -6.8359   17.9453  -31.5272 H   0  0  0  0  0  0  0  0  0  0  0  0
   -8.2341   17.6964  -32.5773 H   0  0  0  0  0  0  0  0  0  0  0  0
   -6.8380   19.2250  -33.2770 C   0  0  0  0  0  0  0  0  0  0  0  0
   -5.7491   19.1037  -33.1796 H   0  0  0  0  0  0  0  0  0  0  0  0
   -7.1132   18.8540  -34.2753 H   0  0  0  0  0  0  0  0  0  0  0  0
   -7.2300   20.6830  -33.0880 C   0  0  0  0  0  0  0  0  0  0  0  0
   -6.4241   21.2305  -32.5773 H   0  0  0  0  0  0  0  0  0  0  0  0
   -7.4045   21.1776  -34.0549 H   0  0  0  0  0  0  0  0  0  0  0  0
   -5.8940   22.2190  -31.0750 C   0  0  0  0  0  0  0  0  0  0  0  0
   -5.9254   21.1522  -31.3413 H   0  0  0  0  0  0  0  0  0  0  0  0
   -4.6600   22.8310  -30.8050 C   0  0  0  0  0  0  0  0  0  0  0  0
   -3.1790   21.8790  -30.9610 S   0  0  0  0  0  0  0  0  0  0  0  0
   -3.4020   20.7410  -31.9180 O   0  0  0  0  0  0  0  0  0  0  0  0
   -2.0780   22.7700  -31.4670 O   0  0  0  0  0  0  0  0  0  0  0  0
   -2.7380   21.2280  -29.4170 N   0  0  0  0  0  0  0  0  0  0  0  0
   -1.7230   20.4390  -29.2550 C   0  0  0  0  0  0  0  0  0  0  0  0
   -0.9190   20.0440  -30.2140 O   0  0  0  0  0  0  0  0  0  0  0  0
    0.0090   19.2750  -29.7270 N   0  0  0  0  0  0  0  0  0  0  0  0
    0.7700   18.8290  -30.2860 H   0  0  0  0  0  0  0  0  0  0  0  0
   -0.1880   19.1660  -28.3970 C   0  0  0  0  0  0  0  0  0  0  0  0
    0.6570   18.3440  -27.4800 C   0  0  0  0  0  0  0  0  0  0  0  0
    0.4080   18.5862  -26.4363 H   0  0  0  0  0  0  0  0  0  0  0  0
    0.4664   17.2764  -27.6642 H   0  0  0  0  0  0  0  0  0  0  0  0
    1.7189   18.5640  -27.6642 H   0  0  0  0  0  0  0  0  0  0  0  0
   -1.3180   19.8880  -28.0560 C   0  0  0  0  0  0  0  0  0  0  0  0
   -1.8970   20.1160  -26.6950 C   0  0  0  0  0  0  0  0  0  0  0  0
   -1.1613   19.8263  -25.9303 H   0  0  0  0  0  0  0  0  0  0  0  0
   -2.1486   21.1803  -26.5772 H   0  0  0  0  0  0  0  0  0  0  0  0
   -2.8067   19.5090  -26.5772 H   0  0  0  0  0  0  0  0  0  0  0  0
  1  2  1  0
  2  3  2  0
  3  4  1  0
  3  5  1  0
  5  6  1  0
  6  7  1  0
  6  8  1  0
  6  9  1  0
  5 10  2  0
 10 11  1  0
 10 12  1  0
 12 13  1  0
 13 14  1  0
 13 15  1  0
 13 16  1  0
 12 17  2  0
 17 18  1  0
 18 19  1  0
 18 20  1  0
 20 21  2  0
 21 22  1  0
 21 23  1  0
 23 24  1  0
 23 25  2  0
 25 26  1  0
 26 27  2  0
 26 28  2  0
 26 29  1  0
 29 30  1  0
 30 31  1  0
 30 32  1  0
 30 33  1  0
 33 34  1  0
 33 35  1  0
 33 36  1  0
 36 37  1  0
 36 38  1  0
 36 39  1  0
 39 40  1  0
 39 41  1  0
 25 42  1  0
 42 43  1  0
 42 44  2  0
 44 45  1  0
 45 46  2  0
 45 47  2  0
 45 48  1  0
 48 49  2  0
 49 50  1  0
 50 51  1  0
 51 52  1  0
 51 53  1  0
 53 54  1  0
 54 55  1  0
 54 56  1  0
 54 57  1  0
 53 58  2  0
 58 59  1  0
 59 60  1  0
 59 61  1  0
 59 62  1  0
 17  2  1  0
 44 20  1  0
 58 49  1  0
 39 29  1  0
M  END
>  <UniqueID>  (47) 
46

>  <SMILES>  (47) 
Cc1ccc(Nc2ccc(S(=O)(=O)N3CCCC3)cc2S(=O)(=O)/N=c2\o[nH]c(C)c2C)c(C)c1

>  <Energy>  (47) 
104.95592373316462

>  <Genealogy>  (47) 
Cc1ccc(Nc2ccc(S(=O)(=O)N3CCCC3)cc2S(=O)(=O)/N=c2\o[nH]c(C)c2C)c(C)c1 (cis-trans isomerization)
Cc1ccc(Nc2ccc(S(=O)(=O)N3CCCC3)cc2S(=O)(=O)/N=c2\o[nH]c(C)c2C)c(C)c1 (3D coordinates assigned)
Cc1ccc(Nc2ccc(S(=O)(=O)N3CCCC3)cc2S(=O)(=O)/N=c2\o[nH]c(C)c2C)c(C)c1 (nonaromatic ring conformer: 104.95592373316462 kcal/mol)

>  <smiles>  (47) 
Cc1ccc(Nc2ccc(S(=O)(=O)N3CCCC3)cc2S(=O)(=O)N=c2o[nH]c(C)c2C)c(C)c1

>  <score_type>  (47) 
oracle

>  <origin>  (47) 
adgpu

>  <m_score__min__energy>  (47) 
-11.34

>  <m_primary>  (47) 
energy

$$$$
47:0
     RDKit          3D

 45 48  0  0  0  0  0  0  0  0999 V2000
   -2.8431   23.5956  -28.0805 H   0  0  0  0  0  0  0  0  0  0  0  0
   -3.4660   23.7490  -28.9740 C   0  0  0  0  0  0  0  0  0  0  0  0
   -3.4210   24.9290  -29.6440 N   0  0  0  0  0  0  0  0  0  0  0  0
   -4.1650   25.1400  -30.7310 N   0  0  0  0  0  0  0  0  0  0  0  0
   -5.0020   24.1850  -31.2140 C   0  0  0  0  0  0  0  0  0  0  0  0
   -5.6026   24.3821  -32.1142 H   0  0  0  0  0  0  0  0  0  0  0  0
   -5.0980   22.9480  -30.5620 C   0  0  0  0  0  0  0  0  0  0  0  0
   -5.9990   21.8880  -31.0760 C   0  0  0  0  0  0  0  0  0  0  0  0
   -7.3580   22.1780  -31.2930 C   0  0  0  0  0  0  0  0  0  0  0  0
   -7.7426   23.1813  -31.0575 H   0  0  0  0  0  0  0  0  0  0  0  0
   -8.2310   21.2050  -31.8060 C   0  0  0  0  0  0  0  0  0  0  0  0
   -9.6950   21.5170  -31.9940 C   0  0  0  0  0  0  0  0  0  0  0  0
  -10.2960   20.4840  -32.6890 F   0  0  0  0  0  0  0  0  0  0  0  0
  -10.3230   21.6620  -30.7680 F   0  0  0  0  0  0  0  0  0  0  0  0
   -9.8590   22.6940  -32.7030 F   0  0  0  0  0  0  0  0  0  0  0  0
   -7.7430   19.9130  -32.0500 C   0  0  0  0  0  0  0  0  0  0  0  0
   -8.4252   19.1319  -32.4167 H   0  0  0  0  0  0  0  0  0  0  0  0
   -6.3980   19.6110  -31.8310 C   0  0  0  0  0  0  0  0  0  0  0  0
   -6.0271   18.5953  -32.0327 H   0  0  0  0  0  0  0  0  0  0  0  0
   -5.5140   20.5940  -31.3550 C   0  0  0  0  0  0  0  0  0  0  0  0
   -4.1710   20.2840  -31.0860 O   0  0  0  0  0  0  0  0  0  0  0  0
   -3.0990   20.4780  -31.9710 C   0  0  0  0  0  0  0  0  0  0  0  0
   -3.1590   20.0570  -33.3120 C   0  0  0  0  0  0  0  0  0  0  0  0
   -4.0607   19.5512  -33.6877 H   0  0  0  0  0  0  0  0  0  0  0  0
   -2.0770   20.2790  -34.1690 C   0  0  0  0  0  0  0  0  0  0  0  0
   -2.1277   19.9425  -35.2150 H   0  0  0  0  0  0  0  0  0  0  0  0
   -0.9280   20.9290  -33.6990 C   0  0  0  0  0  0  0  0  0  0  0  0
    0.4450   21.2000  -34.7670 S   0  0  0  0  0  0  0  0  0  0  0  0
    0.5010   20.0920  -35.7800 O   0  0  0  0  0  0  0  0  0  0  0  0
    1.7300   21.2110  -33.9850 O   0  0  0  0  0  0  0  0  0  0  0  0
    0.2690   22.7160  -35.5900 N   0  0  0  0  0  0  0  0  0  0  0  0
    1.2520   23.3760  -36.1250 C   0  0  0  0  0  0  0  0  0  0  0  0
    2.5870   23.0140  -36.1490 C   0  0  0  0  0  0  0  0  0  0  0  0
    3.0565   22.1124  -35.7286 H   0  0  0  0  0  0  0  0  0  0  0  0
    3.1900   24.0570  -36.8280 C   0  0  0  0  0  0  0  0  0  0  0  0
    4.2636   24.1388  -37.0529 H   0  0  0  0  0  0  0  0  0  0  0  0
    2.2680   24.9360  -37.1610 O   0  0  0  0  0  0  0  0  0  0  0  0
    1.0960   24.5520  -36.7520 N   0  0  0  0  0  0  0  0  0  0  0  0
    0.2070   25.0790  -36.8940 H   0  0  0  0  0  0  0  0  0  0  0  0
   -0.8780   21.3710  -32.3710 C   0  0  0  0  0  0  0  0  0  0  0  0
    0.0162   21.8946  -32.0018 H   0  0  0  0  0  0  0  0  0  0  0  0
   -1.9590   21.1500  -31.5120 C   0  0  0  0  0  0  0  0  0  0  0  0
   -1.8960   21.5810  -30.2290 F   0  0  0  0  0  0  0  0  0  0  0  0
   -4.3070   22.7330  -29.4260 C   0  0  0  0  0  0  0  0  0  0  0  0
   -4.3491   21.7706  -28.8950 H   0  0  0  0  0  0  0  0  0  0  0  0
  1  2  1  0
  2  3  2  0
  3  4  1  0
  4  5  2  0
  5  6  1  0
  5  7  1  0
  7  8  1  0
  8  9  2  0
  9 10  1  0
  9 11  1  0
 11 12  1  0
 12 13  1  0
 12 14  1  0
 12 15  1  0
 11 16  2  0
 16 17  1  0
 16 18  1  0
 18 19  1  0
 18 20  2  0
 20 21  1  0
 21 22  1  0
 22 23  2  0
 23 24  1  0
 23 25  1  0
 25 26  1  0
 25 27  2  0
 27 28  1  0
 28 29  2  0
 28 30  2  0
 28 31  1  0
 31 32  2  0
 32 33  1  0
 33 34  1  0
 33 35  2  0
 35 36  1  0
 35 37  1  0
 37 38  1  0
 38 39  1  0
 27 40  1  0
 40 41  1  0
 40 42  2  0
 42 43  1  0
  7 44  2  0
 44 45  1  0
 44  2  1  0
 20  8  1  0
 42 22  1  0
 38 32  1  0
M  END
>  <UniqueID>  (48) 
47

>  <SMILES>  (48) 
O=S(=O)(/N=c1\cco[nH]1)c1ccc(Oc2ccc(C(F)(F)F)cc2-c2ccnnc2)c(F)c1

>  <Energy>  (48) 
99.30714746972593

>  <Genealogy>  (48) 
O=S(=O)(/N=c1\cco[nH]1)c1ccc(Oc2ccc(C(F)(F)F)cc2-c2ccnnc2)c(F)c1 (cis-trans isomerization)
O=S(=O)(/N=c1\cco[nH]1)c1ccc(Oc2ccc(C(F)(F)F)cc2-c2ccnnc2)c(F)c1 (3D coordinates assigned)
O=S(=O)(/N=c1\cco[nH]1)c1ccc(Oc2ccc(C(F)(F)F)cc2-c2ccnnc2)c(F)c1 (optimized conformer: 99.30714746972593 kcal/mol)

>  <smiles>  (48) 
O=S(=O)(N=c1cco[nH]1)c1ccc(Oc2ccc(C(F)(F)F)cc2-c2ccnnc2)c(F)c1

>  <score_type>  (48) 
oracle

>  <origin>  (48) 
adgpu

>  <m_score__min__energy>  (48) 
-9.1799999999999997

>  <m_primary>  (48) 
energy

$$$$
