0:0
     RDKit          3D

 59 63  0  0  0  0  0  0  0  0999 V2000
   -0.3750   23.0830  -29.6180 O   0  0  0  0  0  0  0  0  0  0  0  0
   -0.4900   21.8330  -29.7180 C   0  0  0  0  0  0  0  0  0  0  0  0
   -0.7550   21.1050  -30.9520 C   0  0  0  0  0  0  0  0  0  0  0  0
   -0.9910   21.5700  -32.2450 C   0  0  0  0  0  0  0  0  0  0  0  0
   -1.3640   20.6320  -33.2250 C   0  0  0  0  0  0  0  0  0  0  0  0
   -1.5030   19.2640  -32.8930 C   0  0  0  0  0  0  0  0  0  0  0  0
   -2.0180   18.3510  -33.8590 N   0  0  0  0  0  0  0  0  0  0  0  0
   -3.6560   17.8070  -33.7460 S   0  0  0  0  0  0  0  0  0  0  0  0
   -3.7370   16.7040  -32.7280 O   0  0  0  0  0  0  0  0  0  0  0  0
   -4.1040   17.2680  -35.0760 O   0  0  0  0  0  0  0  0  0  0  0  0
   -4.6970   19.1440  -33.2620 C   0  0  0  0  0  0  0  0  0  0  0  0
   -4.2720   20.4650  -33.4660 C   0  0  0  0  0  0  0  0  0  0  0  0
   -5.0510   21.5340  -33.0110 C   0  0  0  0  0  0  0  0  0  0  0  0
   -6.2720   21.2930  -32.3690 C   0  0  0  0  0  0  0  0  0  0  0  0
   -7.2190   22.6470  -31.7560 S   0  0  0  0  0  0  0  0  0  0  0  0
   -8.6680   22.2640  -31.6770 O   0  0  0  0  0  0  0  0  0  0  0  0
   -7.0780   23.7970  -32.7120 O   0  0  0  0  0  0  0  0  0  0  0  0
   -6.6190   23.1040  -30.1770 N   0  0  0  0  0  0  0  0  0  0  0  0
   -6.7740   24.5540  -29.9210 C   0  0  0  0  0  0  0  0  0  0  0  0
   -5.4670   25.3360  -30.1260 C   0  0  0  0  0  0  0  0  0  0  0  0
   -4.6990   24.7480  -31.1520 O   0  0  0  0  0  0  0  0  0  0  0  0
   -4.1980   23.4920  -30.7310 C   0  0  0  0  0  0  0  0  0  0  0  0
   -5.2360   22.6380  -29.9650 C   0  0  0  0  0  0  0  0  0  0  0  0
   -6.7070   19.9720  -32.1820 C   0  0  0  0  0  0  0  0  0  0  0  0
   -5.9210   18.9030  -32.6220 C   0  0  0  0  0  0  0  0  0  0  0  0
   -1.2420   18.8210  -31.5810 C   0  0  0  0  0  0  0  0  0  0  0  0
   -0.8730   19.7700  -30.6310 C   0  0  0  0  0  0  0  0  0  0  0  0
   -0.6860   19.6440  -29.1930 C   0  0  0  0  0  0  0  0  0  0  0  0
   -0.7640   18.5710  -28.5390 O   0  0  0  0  0  0  0  0  0  0  0  0
   -0.4360   20.9280  -28.6090 N   0  0  0  0  0  0  0  0  0  0  0  0
   -0.7220   21.2840  -27.2190 C   0  0  0  0  0  0  0  0  0  0  0  0
   -1.5540   22.5410  -27.1680 C   0  0  0  0  0  0  0  0  0  0  0  0
   -2.9100   22.5080  -27.5400 C   0  0  0  0  0  0  0  0  0  0  0  0
   -3.7030   23.6520  -27.4180 C   0  0  0  0  0  0  0  0  0  0  0  0
   -3.1510   24.8340  -26.9170 C   0  0  0  0  0  0  0  0  0  0  0  0
   -1.8060   24.8760  -26.5400 C   0  0  0  0  0  0  0  0  0  0  0  0
   -1.0090   23.7340  -26.6620 C   0  0  0  0  0  0  0  0  0  0  0  0
   -0.8887   22.6372  -32.4913 H   0  0  0  0  0  0  0  0  0  0  0  0
   -1.5489   20.9649  -34.2570 H   0  0  0  0  0  0  0  0  0  0  0  0
   -3.3226   20.6611  -33.9857 H   0  0  0  0  0  0  0  0  0  0  0  0
   -4.7034   22.5672  -33.1580 H   0  0  0  0  0  0  0  0  0  0  0  0
   -7.5344   24.9533  -30.6083 H   0  0  0  0  0  0  0  0  0  0  0  0
   -7.0721   24.6755  -28.8692 H   0  0  0  0  0  0  0  0  0  0  0  0
   -5.7049   26.3742  -30.4008 H   0  0  0  0  0  0  0  0  0  0  0  0
   -4.8884   25.3161  -29.1907 H   0  0  0  0  0  0  0  0  0  0  0  0
   -3.8737   22.9310  -31.6199 H   0  0  0  0  0  0  0  0  0  0  0  0
   -3.3681   23.6912  -30.0371 H   0  0  0  0  0  0  0  0  0  0  0  0
   -5.1583   21.5961  -30.3092 H   0  0  0  0  0  0  0  0  0  0  0  0
   -5.0146   22.7273  -28.8912 H   0  0  0  0  0  0  0  0  0  0  0  0
   -7.6700   19.7770  -31.6874 H   0  0  0  0  0  0  0  0  0  0  0  0
   -6.2638   17.8696  -32.4656 H   0  0  0  0  0  0  0  0  0  0  0  0
   -1.3272   17.7570  -31.3151 H   0  0  0  0  0  0  0  0  0  0  0  0
   -1.2738   20.4624  -26.7389 H   0  0  0  0  0  0  0  0  0  0  0  0
    0.2261   21.4573  -26.6887 H   0  0  0  0  0  0  0  0  0  0  0  0
   -3.3484   21.5771  -27.9289 H   0  0  0  0  0  0  0  0  0  0  0  0
   -4.7614   23.6222  -27.7162 H   0  0  0  0  0  0  0  0  0  0  0  0
   -3.7766   25.7334  -26.8192 H   0  0  0  0  0  0  0  0  0  0  0  0
   -1.3742   25.8082  -26.1470 H   0  0  0  0  0  0  0  0  0  0  0  0
    0.0484   23.7690  -26.3610 H   0  0  0  0  0  0  0  0  0  0  0  0
  1  2  2  0
  2  3  1  0
  3  4  2  0
  4  5  1  0
  5  6  2  0
  6  7  1  0
  7  8  1  0
  8  9  2  0
  8 10  2  0
  8 11  1  0
 11 12  2  0
 12 13  1  0
 13 14  2  0
 14 15  1  0
 15 16  2  0
 15 17  2  0
 15 18  1  0
 18 19  1  0
 19 20  1  0
 20 21  1  0
 21 22  1  0
 22 23  1  0
 14 24  1  0
 24 25  2  0
  6 26  1  0
 26 27  2  0
 27 28  1  0
 28 29  2  0
 28 30  1  0
 30 31  1  0
 31 32  1  0
 32 33  2  0
 33 34  1  0
 34 35  2  0
 35 36  1  0
 36 37  2  0
 30  2  1  0
 37 32  1  0
 27  3  1  0
 25 11  1  0
 23 18  1  0
  4 38  1  0
  5 39  1  0
 12 40  1  0
 13 41  1  0
 19 42  1  0
 19 43  1  0
 20 44  1  0
 20 45  1  0
 22 46  1  0
 22 47  1  0
 23 48  1  0
 23 49  1  0
 24 50  1  0
 25 51  1  0
 26 52  1  0
 31 53  1  0
 31 54  1  0
 33 55  1  0
 34 56  1  0
 35 57  1  0
 36 58  1  0
 37 59  1  0
M  CHG  1   7  -1
M  END
>  <UniqueID>  (1) 
1

>  <SMILES>  (1) 
O=C1c2ccc([N-]S(=O)(=O)c3ccc(S(=O)(=O)N4CCOCC4)cc3)cc2C(=O)N1Cc1ccccc1

>  <Energy>  (1) 
110.4916653623982

>  <Genealogy>  (1) 
O=C1c2ccc([N-]S(=O)(=O)c3ccc(S(=O)(=O)N4CCOCC4)cc3)cc2C(=O)N1Cc1ccccc1 (protonated)
O=C1c2ccc([N-]S(=O)(=O)c3ccc(S(=O)(=O)N4CCOCC4)cc3)cc2C(=O)N1Cc1ccccc1 (3D coordinates assigned)
O=C1c2ccc([N-]S(=O)(=O)c3ccc(S(=O)(=O)N4CCOCC4)cc3)cc2C(=O)N1Cc1ccccc1 (nonaromatic ring conformer: 110.4916653623982 kcal/mol)

>  <smiles>  (1) 
O=C1c2ccc(NS(=O)(=O)c3ccc(S(=O)(=O)N4CCOCC4)cc3)cc2C(=O)N1Cc1ccccc1

>  <score_type>  (1) 
oracle

>  <origin>  (1) 
adgpu

>  <m_score__min__energy>  (1) 
-12.380000000000001

>  <m_primary>  (1) 
energy

$$$$
1:0
     RDKit          3D

 56 59  0  0  0  0  0  0  0  0999 V2000
   -1.2090   25.6440  -25.0800 C   0  0  0  0  0  0  0  0  0  0  0  0
   -0.8920   24.3300  -25.8090 C   0  0  0  0  0  0  0  0  0  0  0  0
   -1.8510   24.0460  -26.9050 N   0  0  0  0  0  0  0  0  0  0  0  0
   -3.1150   24.8030  -26.7200 C   0  0  0  0  0  0  0  0  0  0  0  0
   -4.2640   24.2080  -27.5410 C   0  0  0  0  0  0  0  0  0  0  0  0
   -1.1130   24.4280  -28.4590 S   0  0  0  0  0  0  0  0  0  0  0  0
    0.3850   24.5010  -28.3410 O   0  0  0  0  0  0  0  0  0  0  0  0
   -1.6030   25.7550  -28.9700 O   0  0  0  0  0  0  0  0  0  0  0  0
   -1.5280   23.1760  -29.6320 C   0  0  0  0  0  0  0  0  0  0  0  0
   -2.7510   23.2170  -30.3170 C   0  0  0  0  0  0  0  0  0  0  0  0
   -3.0690   22.2290  -31.2530 C   0  0  0  0  0  0  0  0  0  0  0  0
   -2.1750   21.1780  -31.5080 C   0  0  0  0  0  0  0  0  0  0  0  0
   -2.5050   20.1650  -32.5280 C   0  0  0  0  0  0  0  0  0  0  0  0
   -1.7450   19.9400  -33.6200 N   0  0  0  0  0  0  0  0  0  0  0  0
   -2.3040   18.9380  -34.2890 N   0  0  0  0  0  0  0  0  0  0  0  0
   -3.3990   18.5680  -33.5980 C   0  0  0  0  0  0  0  0  0  0  0  0
   -4.5050   17.2540  -34.1200 S   0  0  0  0  0  0  0  0  0  0  0  0
   -5.7290   18.3740  -34.8850 C   0  0  0  0  0  0  0  0  0  0  0  0
   -6.4580   19.1610  -33.8420 C   0  0  0  0  0  0  0  0  0  0  0  0
   -7.4310   18.5700  -33.0990 N   0  0  0  0  0  0  0  0  0  0  0  0
   -8.0820   19.2490  -32.1190 C   0  0  0  0  0  0  0  0  0  0  0  0
   -8.9820   18.6660  -31.4570 O   0  0  0  0  0  0  0  0  0  0  0  0
   -7.7420   20.5860  -31.8540 C   0  0  0  0  0  0  0  0  0  0  0  0
   -8.3730   21.3450  -30.8510 C   0  0  0  0  0  0  0  0  0  0  0  0
   -7.9840   22.6680  -30.6250 C   0  0  0  0  0  0  0  0  0  0  0  0
   -6.9690   23.2440  -31.3950 C   0  0  0  0  0  0  0  0  0  0  0  0
   -6.3360   22.5000  -32.3950 C   0  0  0  0  0  0  0  0  0  0  0  0
   -6.7190   21.1750  -32.6280 C   0  0  0  0  0  0  0  0  0  0  0  0
   -6.1060   20.4510  -33.6000 N   0  0  0  0  0  0  0  0  0  0  0  0
   -3.5520   19.3160  -32.4940 N   0  0  0  0  0  0  0  0  0  0  0  0
   -4.6410   19.3080  -31.6070 N   0  0  0  0  0  0  0  0  0  0  0  0
   -0.9420   21.1500  -30.8360 C   0  0  0  0  0  0  0  0  0  0  0  0
   -0.6230   22.1400  -29.9020 C   0  0  0  0  0  0  0  0  0  0  0  0
   -1.1692   25.4792  -23.9931 H   0  0  0  0  0  0  0  0  0  0  0  0
   -0.4693   26.4076  -25.3623 H   0  0  0  0  0  0  0  0  0  0  0  0
   -2.2155   25.9864  -25.3623 H   0  0  0  0  0  0  0  0  0  0  0  0
    0.1204   24.3970  -26.2339 H   0  0  0  0  0  0  0  0  0  0  0  0
   -0.9682   23.5130  -25.0764 H   0  0  0  0  0  0  0  0  0  0  0  0
   -2.0550   23.0190  -26.9080 H   0  0  0  0  0  0  0  0  0  0  0  0
   -3.3902   24.7805  -25.6552 H   0  0  0  0  0  0  0  0  0  0  0  0
   -2.9481   25.8340  -27.0653 H   0  0  0  0  0  0  0  0  0  0  0  0
   -5.0323   23.8101  -26.8618 H   0  0  0  0  0  0  0  0  0  0  0  0
   -4.7052   24.9909  -28.1753 H   0  0  0  0  0  0  0  0  0  0  0  0
   -3.8792   23.3958  -28.1753 H   0  0  0  0  0  0  0  0  0  0  0  0
   -3.4635   24.0307  -30.1166 H   0  0  0  0  0  0  0  0  0  0  0  0
   -4.0261   22.2756  -31.7932 H   0  0  0  0  0  0  0  0  0  0  0  0
   -5.2087   19.0680  -35.5615 H   0  0  0  0  0  0  0  0  0  0  0  0
   -6.4589   17.7687  -35.4424 H   0  0  0  0  0  0  0  0  0  0  0  0
   -9.1733   20.8964  -30.2442 H   0  0  0  0  0  0  0  0  0  0  0  0
   -8.4778   23.2581  -29.8389 H   0  0  0  0  0  0  0  0  0  0  0  0
   -6.6675   24.2862  -31.2133 H   0  0  0  0  0  0  0  0  0  0  0  0
   -5.5373   22.9562  -32.9982 H   0  0  0  0  0  0  0  0  0  0  0  0
   -5.6110   19.1260  -31.9480 H   0  0  0  0  0  0  0  0  0  0  0  0
   -4.4890   19.3980  -30.5780 H   0  0  0  0  0  0  0  0  0  0  0  0
   -0.2231   20.3443  -31.0459 H   0  0  0  0  0  0  0  0  0  0  0  0
    0.3427   22.1059  -29.3764 H   0  0  0  0  0  0  0  0  0  0  0  0
  1  2  1  0
  2  3  1  0
  3  4  1  0
  4  5  1  0
  3  6  1  0
  6  7  2  0
  6  8  2  0
  6  9  1  0
  9 10  2  0
 10 11  1  0
 11 12  2  0
 12 13  1  0
 13 14  2  0
 14 15  1  0
 15 16  2  0
 16 17  1  0
 17 18  1  0
 18 19  1  0
 19 20  2  0
 20 21  1  0
 21 22  2  0
 21 23  1  0
 23 24  2  0
 24 25  1  0
 25 26  2  0
 26 27  1  0
 27 28  2  0
 28 29  1  0
 16 30  1  0
 30 31  1  0
 12 32  1  0
 32 33  2  0
 33  9  1  0
 30 13  1  0
 29 19  1  0
 28 23  1  0
  1 34  1  0
  1 35  1  0
  1 36  1  0
  2 37  1  0
  2 38  1  0
  3 39  1  0
  4 40  1  0
  4 41  1  0
  5 42  1  0
  5 43  1  0
  5 44  1  0
 10 45  1  0
 11 46  1  0
 18 47  1  0
 18 48  1  0
 24 49  1  0
 25 50  1  0
 26 51  1  0
 27 52  1  0
 31 53  1  0
 31 54  1  0
 32 55  1  0
 33 56  1  0
M  CHG  2   3   1  29  -1
M  END
>  <UniqueID>  (2) 
2

>  <SMILES>  (2) 
CC[NH+](CC)S(=O)(=O)c1ccc(-c2nnc(SCc3nc(=O)c4ccccc4[n-]3)n2N)cc1

>  <Energy>  (2) 
101.0869601331352

>  <Genealogy>  (2) 
CC[NH+](CC)S(=O)(=O)c1ccc(-c2nnc(SCc3nc(=O)c4ccccc4[n-]3)n2N)cc1 (protonated)
CC[NH+](CC)S(=O)(=O)c1ccc(-c2nnc(SCc3nc(=O)c4ccccc4[n-]3)n2N)cc1 (3D coordinates assigned)
CC[NH+](CC)S(=O)(=O)c1ccc(-c2nnc(SCc3nc(=O)c4ccccc4[n-]3)n2N)cc1 (optimized conformer: 101.0869601331352 kcal/mol)

>  <smiles>  (2) 
CCN(CC)S(=O)(=O)c1ccc(-c2nnc(SCc3nc(=O)c4ccccc4[nH]3)n2N)cc1

>  <score_type>  (2) 
oracle

>  <origin>  (2) 
adgpu

>  <m_score__min__energy>  (2) 
-11.470000000000001

>  <m_primary>  (2) 
energy

$$$$
2:0
     RDKit          3D

 48 50  0  0  0  0  0  0  0  0999 V2000
    0.5010   23.8270  -27.9970 C   0  0  0  0  0  0  0  0  0  0  0  0
   -0.2670   23.2820  -29.0670 O   0  0  0  0  0  0  0  0  0  0  0  0
   -1.6690   23.2660  -29.1080 C   0  0  0  0  0  0  0  0  0  0  0  0
   -2.4100   22.0730  -29.0160 C   0  0  0  0  0  0  0  0  0  0  0  0
   -3.8050   22.1010  -29.0850 C   0  0  0  0  0  0  0  0  0  0  0  0
   -4.4820   23.3170  -29.2610 C   0  0  0  0  0  0  0  0  0  0  0  0
   -5.9820   23.3320  -29.3950 C   0  0  0  0  0  0  0  0  0  0  0  0
   -6.4380   22.3250  -30.3780 N   0  0  0  0  0  0  0  0  0  0  0  0
   -7.9100   22.2090  -30.3500 C   0  0  0  0  0  0  0  0  0  0  0  0
   -8.3560   21.0590  -31.1970 C   0  0  0  0  0  0  0  0  0  0  0  0
   -9.4480   21.0520  -32.0390 C   0  0  0  0  0  0  0  0  0  0  0  0
   -9.4860   19.7890  -32.5870 C   0  0  0  0  0  0  0  0  0  0  0  0
   -8.4210   19.1010  -32.0390 C   0  0  0  0  0  0  0  0  0  0  0  0
   -7.7680   19.8850  -31.2120 O   0  0  0  0  0  0  0  0  0  0  0  0
   -5.9040   22.7500  -31.9980 S   0  0  0  0  0  0  0  0  0  0  0  0
   -7.0800   23.1200  -32.8570 O   0  0  0  0  0  0  0  0  0  0  0  0
   -4.9700   23.9280  -31.9340 O   0  0  0  0  0  0  0  0  0  0  0  0
   -5.0970   21.3780  -32.7550 C   0  0  0  0  0  0  0  0  0  0  0  0
   -3.7170   21.1940  -32.6180 C   0  0  0  0  0  0  0  0  0  0  0  0
   -3.1010   20.0710  -33.1770 C   0  0  0  0  0  0  0  0  0  0  0  0
   -3.8540   19.1120  -33.8760 C   0  0  0  0  0  0  0  0  0  0  0  0
   -3.1740   17.9850  -34.4440 N   0  0  0  0  0  0  0  0  0  0  0  0
   -5.2520   19.2930  -34.0130 C   0  0  0  0  0  0  0  0  0  0  0  0
   -6.0860   18.3120  -34.6400 N   0  0  0  0  0  0  0  0  0  0  0  0
   -5.8540   20.4390  -33.4670 C   0  0  0  0  0  0  0  0  0  0  0  0
   -3.7460   24.5100  -29.3240 C   0  0  0  0  0  0  0  0  0  0  0  0
   -2.3500   24.4840  -29.2530 C   0  0  0  0  0  0  0  0  0  0  0  0
   -1.6350   25.6720  -29.3400 O   0  0  0  0  0  0  0  0  0  0  0  0
    0.0637   23.5166  -27.0366 H   0  0  0  0  0  0  0  0  0  0  0  0
    1.5358   23.4600  -28.0643 H   0  0  0  0  0  0  0  0  0  0  0  0
    0.4962   24.9249  -28.0643 H   0  0  0  0  0  0  0  0  0  0  0  0
   -1.8878   21.1132  -28.8891 H   0  0  0  0  0  0  0  0  0  0  0  0
   -4.3757   21.1644  -29.0009 H   0  0  0  0  0  0  0  0  0  0  0  0
   -6.4325   23.1089  -28.4166 H   0  0  0  0  0  0  0  0  0  0  0  0
   -6.2920   24.3277  -29.7449 H   0  0  0  0  0  0  0  0  0  0  0  0
   -8.2417   22.0467  -29.3138 H   0  0  0  0  0  0  0  0  0  0  0  0
   -8.3498   23.1365  -30.7453 H   0  0  0  0  0  0  0  0  0  0  0  0
  -10.1436   21.8819  -32.2326 H   0  0  0  0  0  0  0  0  0  0  0  0
  -10.2169   19.4056  -33.3142 H   0  0  0  0  0  0  0  0  0  0  0  0
   -8.1596   18.0559  -32.2613 H   0  0  0  0  0  0  0  0  0  0  0  0
   -3.1159   21.9342  -32.0696 H   0  0  0  0  0  0  0  0  0  0  0  0
   -2.0147   19.9362  -33.0687 H   0  0  0  0  0  0  0  0  0  0  0  0
   -3.3790   17.6900  -35.4270 H   0  0  0  0  0  0  0  0  0  0  0  0
   -2.5340   17.3770  -33.8910 H   0  0  0  0  0  0  0  0  0  0  0  0
   -6.7780   18.5960  -35.3690 H   0  0  0  0  0  0  0  0  0  0  0  0
   -6.1050   17.3140  -34.3370 H   0  0  0  0  0  0  0  0  0  0  0  0
   -6.9338   20.6009  -33.6004 H   0  0  0  0  0  0  0  0  0  0  0  0
   -4.2704   25.4711  -29.4299 H   0  0  0  0  0  0  0  0  0  0  0  0
  1  2  1  0
  2  3  1  0
  3  4  2  0
  4  5  1  0
  5  6  2  0
  6  7  1  0
  7  8  1  0
  8  9  1  0
  9 10  1  0
 10 11  2  0
 11 12  1  0
 12 13  2  0
 13 14  1  0
  8 15  1  0
 15 16  2  0
 15 17  2  0
 15 18  1  0
 18 19  2  0
 19 20  1  0
 20 21  2  0
 21 22  1  0
 21 23  1  0
 23 24  1  0
 23 25  2  0
  6 26  1  0
 26 27  2  0
 27 28  1  0
 27  3  1  0
 14 10  1  0
 25 18  1  0
  1 29  1  0
  1 30  1  0
  1 31  1  0
  4 32  1  0
  5 33  1  0
  7 34  1  0
  7 35  1  0
  9 36  1  0
  9 37  1  0
 11 38  1  0
 12 39  1  0
 13 40  1  0
 19 41  1  0
 20 42  1  0
 22 43  1  0
 22 44  1  0
 24 45  1  0
 24 46  1  0
 25 47  1  0
 26 48  1  0
M  CHG  1  28  -1
M  END
>  <UniqueID>  (3) 
3

>  <SMILES>  (3) 
COc1ccc(CN(Cc2ccco2)S(=O)(=O)c2ccc(N)c(N)c2)cc1[O-]

>  <Energy>  (3) 
71.90487252861206

>  <Genealogy>  (3) 
COc1ccc(CN(Cc2ccco2)S(=O)(=O)c2ccc(N)c(N)c2)cc1[O-] (protonated)
COc1ccc(CN(Cc2ccco2)S(=O)(=O)c2ccc(N)c(N)c2)cc1[O-] (3D coordinates assigned)
COc1ccc(CN(Cc2ccco2)S(=O)(=O)c2ccc(N)c(N)c2)cc1[O-] (optimized conformer: 71.90487252861206 kcal/mol)

>  <smiles>  (3) 
COc1ccc(CN(Cc2ccco2)S(=O)(=O)c2ccc(N)c(N)c2)cc1O

>  <score_type>  (3) 
oracle

>  <origin>  (3) 
adgpu

>  <m_score__min__energy>  (3) 
-11.07

>  <m_primary>  (3) 
energy

$$$$
3:0
     RDKit          3D

 45 47  0  0  0  0  0  0  0  0999 V2000
   -3.9380   22.6750  -28.3900 C   0  0  0  0  0  0  0  0  0  0  0  0
   -4.8310   23.3320  -29.3860 C   0  0  0  0  0  0  0  0  0  0  0  0
   -5.7590   22.6710  -30.1110 N   0  0  0  0  0  0  0  0  0  0  0  0
   -6.4320   23.5040  -30.9510 C   0  0  0  0  0  0  0  0  0  0  0  0
   -7.5240   23.0000  -31.8580 C   0  0  0  0  0  0  0  0  0  0  0  0
   -7.6180   21.5170  -31.8570 N   0  0  1  0  0  0  0  0  0  0  0  0
   -9.0310   21.0710  -31.6670 C   0  0  0  0  0  0  0  0  0  0  0  0
   -9.3860   19.7320  -32.3520 C   0  0  0  0  0  0  0  0  0  0  0  0
   -8.5880   18.5210  -31.8150 C   0  0  0  0  0  0  0  0  0  0  0  0
   -7.1290   18.7730  -31.8390 N   0  0  0  0  0  0  0  0  0  0  0  0
   -6.3650   17.5190  -31.6700 C   0  0  0  0  0  0  0  0  0  0  0  0
   -5.3540   17.3740  -32.7700 C   0  0  0  0  0  0  0  0  0  0  0  0
   -4.1810   18.0430  -32.7790 N   0  0  0  0  0  0  0  0  0  0  0  0
   -3.6010   17.6800  -33.9410 C   0  0  0  0  0  0  0  0  0  0  0  0
   -4.4250   16.8080  -34.6190 C   0  0  0  0  0  0  0  0  0  0  0  0
   -5.5230   16.6110  -33.8720 N   0  0  0  0  0  0  0  0  0  0  0  0
   -6.6960   15.8260  -34.2490 C   0  0  0  0  0  0  0  0  0  0  0  0
   -6.6990   19.4660  -33.0740 C   0  0  0  0  0  0  0  0  0  0  0  0
   -6.9630   20.9950  -33.0850 C   0  0  0  0  0  0  0  0  0  0  0  0
   -6.0380   24.8400  -30.9000 C   0  0  0  0  0  0  0  0  0  0  0  0
   -4.8080   24.9690  -29.7610 S   0  0  0  0  0  0  0  0  0  0  0  0
   -4.2766   22.9241  -27.3735 H   0  0  0  0  0  0  0  0  0  0  0  0
   -3.9714   21.5845  -28.5307 H   0  0  0  0  0  0  0  0  0  0  0  0
   -2.9069   23.0314  -28.5307 H   0  0  0  0  0  0  0  0  0  0  0  0
   -8.4847   23.4156  -31.5199 H   0  0  0  0  0  0  0  0  0  0  0  0
   -7.2857   23.3215  -32.8826 H   0  0  0  0  0  0  0  0  0  0  0  0
   -7.0590   21.1570  -31.0460 H   0  0  0  0  0  0  0  0  0  0  0  0
   -9.2132   20.9620  -30.5877 H   0  0  0  0  0  0  0  0  0  0  0  0
   -9.6635   21.8373  -32.1389 H   0  0  0  0  0  0  0  0  0  0  0  0
  -10.4573   19.5370  -32.1964 H   0  0  0  0  0  0  0  0  0  0  0  0
   -9.1256   19.8391  -33.4154 H   0  0  0  0  0  0  0  0  0  0  0  0
   -8.8983   18.3206  -30.7789 H   0  0  0  0  0  0  0  0  0  0  0  0
   -8.7977   17.6572  -32.4630 H   0  0  0  0  0  0  0  0  0  0  0  0
   -5.8462   17.5378  -30.7002 H   0  0  0  0  0  0  0  0  0  0  0  0
   -7.0606   16.6677  -31.7082 H   0  0  0  0  0  0  0  0  0  0  0  0
   -2.6189   18.0273  -34.2942 H   0  0  0  0  0  0  0  0  0  0  0  0
   -4.2194   16.3535  -35.5994 H   0  0  0  0  0  0  0  0  0  0  0  0
   -7.2128   15.4801  -33.3417 H   0  0  0  0  0  0  0  0  0  0  0  0
   -7.3787   16.4498  -34.8446 H   0  0  0  0  0  0  0  0  0  0  0  0
   -6.3797   14.9570  -34.8446 H   0  0  0  0  0  0  0  0  0  0  0  0
   -5.6182   19.3040  -33.1992 H   0  0  0  0  0  0  0  0  0  0  0  0
   -7.2980   19.0414  -33.8931 H   0  0  0  0  0  0  0  0  0  0  0  0
   -5.9980   21.5093  -33.2046 H   0  0  0  0  0  0  0  0  0  0  0  0
   -7.6585   21.1861  -33.9155 H   0  0  0  0  0  0  0  0  0  0  0  0
   -6.4569   25.6628  -31.4980 H   0  0  0  0  0  0  0  0  0  0  0  0
  1  2  1  0
  2  3  2  0
  3  4  1  0
  4  5  1  0
  5  6  1  0
  6  7  1  0
  7  8  1  0
  8  9  1  0
  9 10  1  0
 10 11  1  0
 11 12  1  0
 12 13  2  0
 13 14  1  0
 14 15  2  0
 15 16  1  0
 16 17  1  0
 10 18  1  0
 18 19  1  0
  4 20  2  0
 20 21  1  0
 21  2  1  0
 19  6  1  0
 16 12  1  0
  1 22  1  0
  1 23  1  0
  1 24  1  0
  5 25  1  0
  5 26  1  0
  6 27  1  1
  7 28  1  0
  7 29  1  0
  8 30  1  0
  8 31  1  0
  9 32  1  0
  9 33  1  0
 11 34  1  0
 11 35  1  0
 14 36  1  0
 15 37  1  0
 17 38  1  0
 17 39  1  0
 17 40  1  0
 18 41  1  0
 18 42  1  0
 19 43  1  0
 19 44  1  0
 20 45  1  0
M  CHG  1   6   1
M  END
>  <UniqueID>  (4) 
4

>  <SMILES>  (4) 
Cc1nc(C[N@H+]2CCCN(Cc3nccn3C)CC2)cs1

>  <Energy>  (4) 
118.15752075390567

>  <Genealogy>  (4) 
Cc1nc(C[NH+]2CCCN(Cc3nccn3C)CC2)cs1 (protonated)
Cc1nc(C[N@H+]2CCCN(Cc3nccn3C)CC2)cs1 (chirality)
Cc1nc(C[N@H+]2CCCN(Cc3nccn3C)CC2)cs1 (3D coordinates assigned)
Cc1nc(C[N@H+]2CCCN(Cc3nccn3C)CC2)cs1 (nonaromatic ring conformer: 118.15752075390567 kcal/mol)

>  <smiles>  (4) 
Cc1nc(CN2CCCN(Cc3nccn3C)CC2)cs1

>  <score_type>  (4) 
oracle

>  <origin>  (4) 
adgpu

>  <m_score__min__energy>  (4) 
-4.96

>  <m_primary>  (4) 
energy

$$$$
4:0
     RDKit          3D

 49 51  0  0  0  0  0  0  0  0999 V2000
   -4.0920   18.3970  -32.6810 C   0  0  0  0  0  0  0  0  0  0  0  0
   -5.5100   18.1280  -33.2060 C   0  0  2  0  0  0  0  0  0  0  0  0
   -5.9620   19.2310  -34.1960 C   0  0  0  0  0  0  0  0  0  0  0  0
   -6.8670   20.2590  -33.5090 C   0  0  0  0  0  0  0  0  0  0  0  0
   -8.1140   19.6340  -33.0050 N   0  0  2  0  0  0  0  0  0  0  0  0
   -8.8470   20.6680  -31.7990 S   0  0  0  0  0  0  0  0  0  0  0  0
  -10.1460   21.2160  -32.3220 O   0  0  0  0  0  0  0  0  0  0  0  0
   -9.1230   19.8770  -30.5500 O   0  0  0  0  0  0  0  0  0  0  0  0
   -7.7760   22.0200  -31.4300 C   0  0  0  0  0  0  0  0  0  0  0  0
   -7.2920   22.2180  -30.1320 C   0  0  0  0  0  0  0  0  0  0  0  0
   -6.4230   23.2780  -29.8580 C   0  0  0  0  0  0  0  0  0  0  0  0
   -6.0210   24.1550  -30.8820 C   0  0  0  0  0  0  0  0  0  0  0  0
   -5.0900   25.2710  -30.5970 C   0  0  0  0  0  0  0  0  0  0  0  0
   -5.4590   26.4620  -30.7880 O   0  0  0  0  0  0  0  0  0  0  0  0
   -3.7880   25.0010  -30.0580 N   0  0  0  0  0  0  0  0  0  0  0  0
   -3.0250   23.7940  -30.2230 C   0  0  0  0  0  0  0  0  0  0  0  0
   -3.5940   22.6750  -30.8610 C   0  0  0  0  0  0  0  0  0  0  0  0
   -2.8620   21.4970  -31.0120 C   0  0  0  0  0  0  0  0  0  0  0  0
   -1.5620   21.4130  -30.5210 C   0  0  0  0  0  0  0  0  0  0  0  0
   -0.9890   22.5060  -29.8690 C   0  0  0  0  0  0  0  0  0  0  0  0
   -1.7100   23.7040  -29.6980 C   0  0  0  0  0  0  0  0  0  0  0  0
   -1.0560   24.8330  -28.9810 C   0  0  0  0  0  0  0  0  0  0  0  0
   -1.5720   25.9820  -28.9640 O   0  0  0  0  0  0  0  0  0  0  0  0
    0.1470   24.6340  -28.3100 O   0  0  0  0  0  0  0  0  0  0  0  0
   -6.5120   23.9490  -32.1850 C   0  0  0  0  0  0  0  0  0  0  0  0
   -7.3820   22.8890  -32.4540 C   0  0  0  0  0  0  0  0  0  0  0  0
   -7.9390   18.2530  -32.4770 C   0  0  0  0  0  0  0  0  0  0  0  0
   -6.4980   17.9650  -32.0290 C   0  0  0  0  0  0  0  0  0  0  0  0
   -4.1018   18.3951  -31.5810 H   0  0  0  0  0  0  0  0  0  0  0  0
   -3.4119   17.6119  -33.0430 H   0  0  0  0  0  0  0  0  0  0  0  0
   -3.7467   19.3767  -33.0430 H   0  0  0  0  0  0  0  0  0  0  0  0
   -5.5006   17.1825  -33.7681 H   0  0  0  0  0  0  0  0  0  0  0  0
   -5.0728   19.7439  -34.5913 H   0  0  0  0  0  0  0  0  0  0  0  0
   -6.5309   18.7560  -35.0089 H   0  0  0  0  0  0  0  0  0  0  0  0
   -6.3235   20.7050  -32.6631 H   0  0  0  0  0  0  0  0  0  0  0  0
   -7.1398   21.0271  -34.2476 H   0  0  0  0  0  0  0  0  0  0  0  0
   -8.7930   19.5870  -33.8020 H   0  0  0  0  0  0  0  0  0  0  0  0
   -7.5967   21.5366  -29.3240 H   0  0  0  0  0  0  0  0  0  0  0  0
   -6.0506   23.4276  -28.8338 H   0  0  0  0  0  0  0  0  0  0  0  0
   -4.6239   22.7302  -31.2434 H   0  0  0  0  0  0  0  0  0  0  0  0
   -3.3132   20.6322  -31.5204 H   0  0  0  0  0  0  0  0  0  0  0  0
   -0.9859   20.4844  -30.6470 H   0  0  0  0  0  0  0  0  0  0  0  0
    0.0386   22.4310  -29.4838 H   0  0  0  0  0  0  0  0  0  0  0  0
   -6.2089   24.6267  -32.9967 H   0  0  0  0  0  0  0  0  0  0  0  0
   -7.7592   22.7368  -33.4760 H   0  0  0  0  0  0  0  0  0  0  0  0
   -8.6086   18.1190  -31.6146 H   0  0  0  0  0  0  0  0  0  0  0  0
   -8.1784   17.5541  -33.2920 H   0  0  0  0  0  0  0  0  0  0  0  0
   -6.2229   18.6673  -31.2283 H   0  0  0  0  0  0  0  0  0  0  0  0
   -6.4439   16.9278  -31.6667 H   0  0  0  0  0  0  0  0  0  0  0  0
  1  2  1  0
  2  3  1  0
  3  4  1  0
  4  5  1  0
  5  6  1  0
  6  7  2  0
  6  8  2  0
  6  9  1  0
  9 10  2  0
 10 11  1  0
 11 12  2  0
 12 13  1  0
 13 14  2  0
 13 15  1  0
 15 16  1  0
 16 17  2  0
 17 18  1  0
 18 19  2  0
 19 20  1  0
 20 21  2  0
 21 22  1  0
 22 23  2  0
 22 24  1  0
 12 25  1  0
 25 26  2  0
  5 27  1  0
 27 28  1  0
 28  2  1  0
 26  9  1  0
 21 16  1  0
  1 29  1  0
  1 30  1  0
  1 31  1  0
  2 32  1  6
  3 33  1  0
  3 34  1  0
  4 35  1  0
  4 36  1  0
  5 37  1  6
 10 38  1  0
 11 39  1  0
 17 40  1  0
 18 41  1  0
 19 42  1  0
 20 43  1  0
 25 44  1  0
 26 45  1  0
 27 46  1  0
 27 47  1  0
 28 48  1  0
 28 49  1  0
M  CHG  3   5   1  15  -1  24  -1
M  END
>  <UniqueID>  (5) 
5

>  <SMILES>  (5) 
CC1CC[NH+](S(=O)(=O)c2ccc(C(=O)[N-]c3ccccc3C(=O)[O-])cc2)CC1

>  <Energy>  (5) 
61.66080092823721

>  <Genealogy>  (5) 
CC1CC[NH+](S(=O)(=O)c2ccc(C(=O)[N-]c3ccccc3C(=O)[O-])cc2)CC1 (protonated)
CC1CC[NH+](S(=O)(=O)c2ccc(C(=O)[N-]c3ccccc3C(=O)[O-])cc2)CC1 (3D coordinates assigned)
CC1CC[NH+](S(=O)(=O)c2ccc(C(=O)[N-]c3ccccc3C(=O)[O-])cc2)CC1 (nonaromatic ring conformer: 61.66080092823721 kcal/mol)

>  <smiles>  (5) 
CC1CCN(S(=O)(=O)c2ccc(C(=O)Nc3ccccc3C(=O)O)cc2)CC1

>  <score_type>  (5) 
oracle

>  <origin>  (5) 
adgpu

>  <m_score__min__energy>  (5) 
-14.300000000000001

>  <m_primary>  (5) 
energy

$$$$
5:0
     RDKit          3D

 55 58  0  0  0  0  0  0  0  0999 V2000
   -5.7760   18.4420  -33.0130 O   0  0  0  0  0  0  0  0  0  0  0  0
   -5.3400   19.5950  -33.2720 C   0  0  0  0  0  0  0  0  0  0  0  0
   -6.2780   20.6720  -33.4200 N   0  0  0  0  0  0  0  0  0  0  0  0
   -6.7190   21.5150  -32.3470 C   0  0  0  0  0  0  0  0  0  0  0  0
   -7.8190   21.1620  -31.5500 C   0  0  0  0  0  0  0  0  0  0  0  0
   -8.1720   21.9500  -30.4450 C   0  0  0  0  0  0  0  0  0  0  0  0
   -7.4280   23.0910  -30.1360 C   0  0  0  0  0  0  0  0  0  0  0  0
   -6.3410   23.4620  -30.9410 C   0  0  0  0  0  0  0  0  0  0  0  0
   -5.3290   24.8210  -30.4630 S   0  0  0  0  0  0  0  0  0  0  0  0
   -5.7430   26.0770  -31.1770 O   0  0  0  0  0  0  0  0  0  0  0  0
   -5.4700   25.0360  -28.9840 O   0  0  0  0  0  0  0  0  0  0  0  0
   -3.6670   24.4790  -30.8360 N   0  0  0  0  0  0  0  0  0  0  0  0
   -2.7850   23.6630  -30.0480 C   0  0  0  0  0  0  0  0  0  0  0  0
   -2.8890   22.2580  -30.0230 C   0  0  0  0  0  0  0  0  0  0  0  0
   -2.0260   21.4990  -29.2330 C   0  0  0  0  0  0  0  0  0  0  0  0
   -1.0410   22.1300  -28.4740 C   0  0  0  0  0  0  0  0  0  0  0  0
   -0.9100   23.5210  -28.5140 C   0  0  0  0  0  0  0  0  0  0  0  0
   -1.7750   24.2860  -29.3000 C   0  0  0  0  0  0  0  0  0  0  0  0
   -1.6290   25.6690  -29.3350 O   0  0  0  0  0  0  0  0  0  0  0  0
   -6.0090   22.6870  -32.0640 C   0  0  0  0  0  0  0  0  0  0  0  0
   -3.8850   19.7960  -33.4580 C   0  0  0  0  0  0  0  0  0  0  0  0
   -3.0770   18.7730  -33.9830 C   0  0  0  0  0  0  0  0  0  0  0  0
   -1.7190   18.9960  -34.2190 C   0  0  0  0  0  0  0  0  0  0  0  0
   -1.1400   20.2300  -33.9040 C   0  0  0  0  0  0  0  0  0  0  0  0
    0.5640   20.5200  -34.2500 S   0  0  0  0  0  0  0  0  0  0  0  0
    0.7500   21.9790  -34.5600 O   0  0  0  0  0  0  0  0  0  0  0  0
    0.9590   19.7410  -35.4740 O   0  0  0  0  0  0  0  0  0  0  0  0
    1.6070   20.0920  -32.9090 N   0  0  0  0  0  0  0  0  0  0  0  0
    2.4030   18.8770  -33.1640 C   0  0  0  0  0  0  0  0  0  0  0  0
    1.6320   17.5690  -32.8730 C   0  0  0  0  0  0  0  0  0  0  0  0
    0.3610   17.7940  -32.2940 O   0  0  0  0  0  0  0  0  0  0  0  0
    0.4940   18.6440  -31.1780 C   0  0  0  0  0  0  0  0  0  0  0  0
    0.8900   20.0640  -31.6150 C   0  0  0  0  0  0  0  0  0  0  0  0
   -1.9280   21.2350  -33.3260 C   0  0  0  0  0  0  0  0  0  0  0  0
   -3.2920   21.0200  -33.1080 C   0  0  0  0  0  0  0  0  0  0  0  0
   -8.4062   20.2642  -31.7929 H   0  0  0  0  0  0  0  0  0  0  0  0
   -9.0342   21.6697  -29.8220 H   0  0  0  0  0  0  0  0  0  0  0  0
   -7.6951   23.6998  -29.2596 H   0  0  0  0  0  0  0  0  0  0  0  0
   -3.6563   21.7563  -30.6309 H   0  0  0  0  0  0  0  0  0  0  0  0
   -2.1222   20.4035  -29.2086 H   0  0  0  0  0  0  0  0  0  0  0  0
   -0.3664   21.5325  -27.8432 H   0  0  0  0  0  0  0  0  0  0  0  0
   -0.1233   24.0148  -27.9247 H   0  0  0  0  0  0  0  0  0  0  0  0
   -5.1874   23.0026  -32.7239 H   0  0  0  0  0  0  0  0  0  0  0  0
   -3.5171   17.7906  -34.2094 H   0  0  0  0  0  0  0  0  0  0  0  0
   -1.1011   18.1971  -34.6549 H   0  0  0  0  0  0  0  0  0  0  0  0
    2.7080   18.8748  -34.2209 H   0  0  0  0  0  0  0  0  0  0  0  0
    3.2668   18.9045  -32.4835 H   0  0  0  0  0  0  0  0  0  0  0  0
    1.4949   17.0250  -33.8192 H   0  0  0  0  0  0  0  0  0  0  0  0
    2.2257   16.9910  -32.1495 H   0  0  0  0  0  0  0  0  0  0  0  0
   -0.4652   18.6866  -30.6412 H   0  0  0  0  0  0  0  0  0  0  0  0
    1.2827   18.2445  -30.5235 H   0  0  0  0  0  0  0  0  0  0  0  0
   -0.0235   20.6699  -31.7073 H   0  0  0  0  0  0  0  0  0  0  0  0
    1.5732   20.4646  -30.8516 H   0  0  0  0  0  0  0  0  0  0  0  0
   -1.4719   22.1952  -33.0433 H   0  0  0  0  0  0  0  0  0  0  0  0
   -3.9052   21.8153  -32.6591 H   0  0  0  0  0  0  0  0  0  0  0  0
  1  2  2  0
  2  3  1  0
  3  4  1  0
  4  5  2  0
  5  6  1  0
  6  7  2  0
  7  8  1  0
  8  9  1  0
  9 10  2  0
  9 11  2  0
  9 12  1  0
 12 13  1  0
 13 14  2  0
 14 15  1  0
 15 16  2  0
 16 17  1  0
 17 18  2  0
 18 19  1  0
  8 20  2  0
  2 21  1  0
 21 22  2  0
 22 23  1  0
 23 24  2  0
 24 25  1  0
 25 26  2  0
 25 27  2  0
 25 28  1  0
 28 29  1  0
 29 30  1  0
 30 31  1  0
 31 32  1  0
 32 33  1  0
 24 34  1  0
 34 35  2  0
 20  4  1  0
 35 21  1  0
 18 13  1  0
 33 28  1  0
  5 36  1  0
  6 37  1  0
  7 38  1  0
 14 39  1  0
 15 40  1  0
 16 41  1  0
 17 42  1  0
 20 43  1  0
 22 44  1  0
 23 45  1  0
 29 46  1  0
 29 47  1  0
 30 48  1  0
 30 49  1  0
 32 50  1  0
 32 51  1  0
 33 52  1  0
 33 53  1  0
 34 54  1  0
 35 55  1  0
M  CHG  3   3  -1  12  -1  19  -1
M  END
>  <UniqueID>  (6) 
6

>  <SMILES>  (6) 
O=C([N-]c1cccc(S(=O)(=O)[N-]c2ccccc2[O-])c1)c1ccc(S(=O)(=O)N2CCOCC2)cc1

>  <Energy>  (6) 
77.61439911733683

>  <Genealogy>  (6) 
O=C([N-]c1cccc(S(=O)(=O)[N-]c2ccccc2[O-])c1)c1ccc(S(=O)(=O)N2CCOCC2)cc1 (protonated)
O=C([N-]c1cccc(S(=O)(=O)[N-]c2ccccc2[O-])c1)c1ccc(S(=O)(=O)N2CCOCC2)cc1 (3D coordinates assigned)
O=C([N-]c1cccc(S(=O)(=O)[N-]c2ccccc2[O-])c1)c1ccc(S(=O)(=O)N2CCOCC2)cc1 (nonaromatic ring conformer: 77.61439911733683 kcal/mol)

>  <smiles>  (6) 
O=C(Nc1cccc(S(=O)(=O)Nc2ccccc2O)c1)c1ccc(S(=O)(=O)N2CCOCC2)cc1

>  <score_type>  (6) 
oracle

>  <origin>  (6) 
adgpu

>  <m_score__min__energy>  (6) 
-14.029999999999999

>  <m_primary>  (6) 
energy

$$$$
6:0
     RDKit          3D

 50 53  0  0  0  0  0  0  0  0999 V2000
   -5.6910   23.1940  -32.6840 N   0  0  0  0  0  0  0  0  0  0  0  0
   -6.4610   22.7040  -31.6170 N   0  0  0  0  0  0  0  0  0  0  0  0
   -6.8980   23.3950  -30.5500 C   0  0  0  0  0  0  0  0  0  0  0  0
   -6.4580   25.0900  -30.1640 S   0  0  0  0  0  0  0  0  0  0  0  0
   -5.0650   24.6590  -29.0550 C   0  0  0  0  0  0  0  0  0  0  0  0
   -3.7580   24.6240  -29.8050 C   0  0  0  0  0  0  0  0  0  0  0  0
   -2.7560   25.2260  -29.3350 O   0  0  0  0  0  0  0  0  0  0  0  0
   -3.5660   23.7660  -30.9350 N   0  0  0  0  0  0  0  0  0  0  0  0
   -2.9140   22.4910  -30.9410 C   0  0  0  0  0  0  0  0  0  0  0  0
   -2.6460   21.8650  -29.7180 C   0  0  0  0  0  0  0  0  0  0  0  0
   -1.9510   20.6560  -29.6810 C   0  0  0  0  0  0  0  0  0  0  0  0
   -1.4910   20.0770  -30.8650 C   0  0  0  0  0  0  0  0  0  0  0  0
   -1.7220   20.7090  -32.0950 C   0  0  0  0  0  0  0  0  0  0  0  0
   -1.0890   19.9890  -33.5780 S   0  0  0  0  0  0  0  0  0  0  0  0
    0.2820   19.4340  -33.3070 O   0  0  0  0  0  0  0  0  0  0  0  0
   -0.9570   21.0560  -34.6300 O   0  0  0  0  0  0  0  0  0  0  0  0
   -2.1140   18.7040  -34.1690 N   0  0  0  0  0  0  0  0  0  0  0  0
   -1.3050   17.5950  -34.6940 C   0  0  0  0  0  0  0  0  0  0  0  0
   -2.2310   16.4980  -35.2610 C   0  0  0  0  0  0  0  0  0  0  0  0
   -3.5850   16.6750  -34.8770 O   0  0  0  0  0  0  0  0  0  0  0  0
   -3.6680   16.8920  -33.4830 C   0  0  0  0  0  0  0  0  0  0  0  0
   -3.0070   18.2300  -33.0990 C   0  0  0  0  0  0  0  0  0  0  0  0
   -2.4360   21.9170  -32.1320 C   0  0  0  0  0  0  0  0  0  0  0  0
   -7.7770   22.6750  -29.8300 N   0  0  0  0  0  0  0  0  0  0  0  0
   -7.9070   21.5030  -30.4390 N   0  0  0  0  0  0  0  0  0  0  0  0
   -7.1010   21.5220  -31.5200 C   0  0  0  0  0  0  0  0  0  0  0  0
   -6.9300   20.3620  -32.4100 C   0  0  0  0  0  0  0  0  0  0  0  0
   -6.0540   20.2570  -33.4860 C   0  0  0  0  0  0  0  0  0  0  0  0
   -6.0520   18.9870  -34.0750 C   0  0  0  0  0  0  0  0  0  0  0  0
   -6.9080   18.0840  -33.4590 C   0  0  0  0  0  0  0  0  0  0  0  0
   -7.6600   18.8660  -32.1760 S   0  0  0  0  0  0  0  0  0  0  0  0
   -6.1370   23.6850  -33.4880 H   0  0  0  0  0  0  0  0  0  0  0  0
   -4.6490   23.1920  -32.6320 H   0  0  0  0  0  0  0  0  0  0  0  0
   -4.9987   25.4105  -28.2545 H   0  0  0  0  0  0  0  0  0  0  0  0
   -5.2515   23.6592  -28.6360 H   0  0  0  0  0  0  0  0  0  0  0  0
   -2.9855   22.3292  -28.7803 H   0  0  0  0  0  0  0  0  0  0  0  0
   -1.7652   20.1584  -28.7178 H   0  0  0  0  0  0  0  0  0  0  0  0
   -0.9457   19.1222  -30.8329 H   0  0  0  0  0  0  0  0  0  0  0  0
   -0.6482   17.9682  -35.4936 H   0  0  0  0  0  0  0  0  0  0  0  0
   -0.6952   17.1727  -33.8817 H   0  0  0  0  0  0  0  0  0  0  0  0
   -2.1706   16.5189  -36.3591 H   0  0  0  0  0  0  0  0  0  0  0  0
   -1.8927   15.5335  -34.8544 H   0  0  0  0  0  0  0  0  0  0  0  0
   -4.7262   16.9131  -33.1833 H   0  0  0  0  0  0  0  0  0  0  0  0
   -3.1408   16.0764  -32.9664 H   0  0  0  0  0  0  0  0  0  0  0  0
   -3.7911   18.9818  -32.9256 H   0  0  0  0  0  0  0  0  0  0  0  0
   -2.4108   18.0772  -32.1873 H   0  0  0  0  0  0  0  0  0  0  0  0
   -2.6219   22.4155  -33.0948 H   0  0  0  0  0  0  0  0  0  0  0  0
   -5.4260   21.0885  -33.8385 H   0  0  0  0  0  0  0  0  0  0  0  0
   -5.4302   18.7286  -34.9448 H   0  0  0  0  0  0  0  0  0  0  0  0
   -7.0665   17.0376  -33.7590 H   0  0  0  0  0  0  0  0  0  0  0  0
  1  2  1  0
  2  3  1  0
  3  4  1  0
  4  5  1  0
  5  6  1  0
  6  7  2  0
  6  8  1  0
  8  9  1  0
  9 10  2  0
 10 11  1  0
 11 12  2  0
 12 13  1  0
 13 14  1  0
 14 15  2  0
 14 16  2  0
 14 17  1  0
 17 18  1  0
 18 19  1  0
 19 20  1  0
 20 21  1  0
 21 22  1  0
 13 23  2  0
  3 24  2  0
 24 25  1  0
 25 26  2  0
 26 27  1  0
 27 28  2  0
 28 29  1  0
 29 30  2  0
 30 31  1  0
 26  2  1  0
 31 27  1  0
 23  9  1  0
 22 17  1  0
  1 32  1  0
  1 33  1  0
  5 34  1  0
  5 35  1  0
 10 36  1  0
 11 37  1  0
 12 38  1  0
 18 39  1  0
 18 40  1  0
 19 41  1  0
 19 42  1  0
 21 43  1  0
 21 44  1  0
 22 45  1  0
 22 46  1  0
 23 47  1  0
 28 48  1  0
 29 49  1  0
 30 50  1  0
M  CHG  1   8  -1
M  END
>  <UniqueID>  (7) 
7

>  <SMILES>  (7) 
Nn1c(SCC(=O)[N-]c2cccc(S(=O)(=O)N3CCOCC3)c2)nnc1-c1cccs1

>  <Energy>  (7) 
124.2552328326203

>  <Genealogy>  (7) 
Nn1c(SCC(=O)[N-]c2cccc(S(=O)(=O)N3CCOCC3)c2)nnc1-c1cccs1 (protonated)
Nn1c(SCC(=O)[N-]c2cccc(S(=O)(=O)N3CCOCC3)c2)nnc1-c1cccs1 (3D coordinates assigned)
Nn1c(SCC(=O)[N-]c2cccc(S(=O)(=O)N3CCOCC3)c2)nnc1-c1cccs1 (nonaromatic ring conformer: 124.2552328326203 kcal/mol)

>  <smiles>  (7) 
Nn1c(SCC(=O)Nc2cccc(S(=O)(=O)N3CCOCC3)c2)nnc1-c1cccs1

>  <score_type>  (7) 
oracle

>  <origin>  (7) 
adgpu

>  <m_score__min__energy>  (7) 
-10.77

>  <m_primary>  (7) 
energy

$$$$
7:0
     RDKit          3D

 48 50  0  0  0  0  0  0  0  0999 V2000
   -5.9640   18.9890  -33.5960 C   0  0  0  0  0  0  0  0  0  0  0  0
   -5.4340   19.3870  -32.3360 O   0  0  0  0  0  0  0  0  0  0  0  0
   -5.2740   20.7190  -31.9200 C   0  0  0  0  0  0  0  0  0  0  0  0
   -6.3410   21.4600  -31.3800 C   0  0  0  0  0  0  0  0  0  0  0  0
   -6.1620   22.7940  -31.0110 C   0  0  0  0  0  0  0  0  0  0  0  0
   -4.9150   23.4160  -31.1690 C   0  0  0  0  0  0  0  0  0  0  0  0
   -4.7350   24.8350  -30.7940 C   0  0  0  0  0  0  0  0  0  0  0  0
   -5.7060   25.6380  -30.8380 O   0  0  0  0  0  0  0  0  0  0  0  0
   -3.4920   25.3040  -30.3850 O   0  0  0  0  0  0  0  0  0  0  0  0
   -3.8420   22.6710  -31.6930 C   0  0  0  0  0  0  0  0  0  0  0  0
   -4.0140   21.3290  -32.0570 C   0  0  0  0  0  0  0  0  0  0  0  0
   -2.6650   20.4290  -32.7600 S   0  0  0  0  0  0  0  0  0  0  0  0
   -2.7160   18.9830  -32.3550 O   0  0  0  0  0  0  0  0  0  0  0  0
   -2.7440   20.5150  -34.2580 O   0  0  0  0  0  0  0  0  0  0  0  0
   -1.1800   21.1340  -32.2200 N   0  0  0  0  0  0  0  0  0  0  0  0
   -0.7860   21.0370  -30.8520 C   0  0  0  0  0  0  0  0  0  0  0  0
   -0.6750   22.2050  -30.0890 C   0  0  0  0  0  0  0  0  0  0  0  0
   -0.3610   22.1310  -28.7250 C   0  0  0  0  0  0  0  0  0  0  0  0
   -0.3510   23.5860  -27.7320 S   0  0  0  0  0  0  0  0  0  0  0  0
    0.7090   24.5330  -28.2250 O   0  0  0  0  0  0  0  0  0  0  0  0
   -0.0420   23.2130  -26.3090 O   0  0  0  0  0  0  0  0  0  0  0  0
   -1.9270   24.3320  -27.8140 N   0  0  0  0  0  0  0  0  0  0  0  0
   -2.3020   24.9120  -26.5250 C   0  0  0  0  0  0  0  0  0  0  0  0
   -3.8210   24.8970  -26.4640 C   0  0  0  0  0  0  0  0  0  0  0  0
   -4.2590   23.8970  -27.5230 C   0  0  0  0  0  0  0  0  0  0  0  0
   -2.9710   23.3540  -28.1220 C   0  0  0  0  0  0  0  0  0  0  0  0
   -0.1420   20.8830  -28.1300 C   0  0  0  0  0  0  0  0  0  0  0  0
   -0.2360   19.7160  -28.8920 C   0  0  0  0  0  0  0  0  0  0  0  0
   -0.5620   19.7860  -30.2540 C   0  0  0  0  0  0  0  0  0  0  0  0
   -0.6590   18.6220  -31.0120 O   0  0  0  0  0  0  0  0  0  0  0  0
   -6.8344   18.3353  -33.4377 H   0  0  0  0  0  0  0  0  0  0  0  0
   -6.2728   19.8803  -34.1619 H   0  0  0  0  0  0  0  0  0  0  0  0
   -5.1942   18.4439  -34.1619 H   0  0  0  0  0  0  0  0  0  0  0  0
   -7.3239   20.9843  -31.2476 H   0  0  0  0  0  0  0  0  0  0  0  0
   -7.0059   23.3622  -30.5928 H   0  0  0  0  0  0  0  0  0  0  0  0
   -2.8583   23.1472  -31.8180 H   0  0  0  0  0  0  0  0  0  0  0  0
   -0.8349   23.1853  -30.5618 H   0  0  0  0  0  0  0  0  0  0  0  0
   -1.8837   24.3120  -25.7034 H   0  0  0  0  0  0  0  0  0  0  0  0
   -1.9122   25.9356  -26.4235 H   0  0  0  0  0  0  0  0  0  0  0  0
   -4.1629   24.5775  -25.4685 H   0  0  0  0  0  0  0  0  0  0  0  0
   -4.2470   25.8951  -26.6434 H   0  0  0  0  0  0  0  0  0  0  0  0
   -4.8439   23.0847  -27.0669 H   0  0  0  0  0  0  0  0  0  0  0  0
   -4.9005   24.3629  -28.2855 H   0  0  0  0  0  0  0  0  0  0  0  0
   -2.7241   22.3802  -27.6739 H   0  0  0  0  0  0  0  0  0  0  0  0
   -3.0686   23.2036  -29.2073 H   0  0  0  0  0  0  0  0  0  0  0  0
    0.1047   20.8211  -27.0598 H   0  0  0  0  0  0  0  0  0  0  0  0
   -0.0536   18.7384  -28.4218 H   0  0  0  0  0  0  0  0  0  0  0  0
   -1.0720   18.6240  -31.9380 H   0  0  0  0  0  0  0  0  0  0  0  0
  1  2  1  0
  2  3  1  0
  3  4  2  0
  4  5  1  0
  5  6  2  0
  6  7  1  0
  7  8  2  0
  7  9  1  0
  6 10  1  0
 10 11  2  0
 11 12  1  0
 12 13  2  0
 12 14  2  0
 12 15  1  0
 15 16  1  0
 16 17  2  0
 17 18  1  0
 18 19  1  0
 19 20  2  0
 19 21  2  0
 19 22  1  0
 22 23  1  0
 23 24  1  0
 24 25  1  0
 25 26  1  0
 18 27  2  0
 27 28  1  0
 28 29  2  0
 29 30  1  0
 11  3  1  0
 29 16  1  0
 26 22  1  0
  1 31  1  0
  1 32  1  0
  1 33  1  0
  4 34  1  0
  5 35  1  0
 10 36  1  0
 17 37  1  0
 23 38  1  0
 23 39  1  0
 24 40  1  0
 24 41  1  0
 25 42  1  0
 25 43  1  0
 26 44  1  0
 26 45  1  0
 27 46  1  0
 28 47  1  0
 30 48  1  0
M  CHG  2   9  -1  15  -1
M  END
>  <UniqueID>  (8) 
8

>  <SMILES>  (8) 
COc1ccc(C(=O)[O-])cc1S(=O)(=O)[N-]c1cc(S(=O)(=O)N2CCCC2)ccc1O

>  <Energy>  (8) 
54.8799385740531

>  <Genealogy>  (8) 
COc1ccc(C(=O)[O-])cc1S(=O)(=O)[N-]c1cc(S(=O)(=O)N2CCCC2)ccc1O (protonated)
COc1ccc(C(=O)[O-])cc1S(=O)(=O)[N-]c1cc(S(=O)(=O)N2CCCC2)ccc1O (3D coordinates assigned)
COc1ccc(C(=O)[O-])cc1S(=O)(=O)[N-]c1cc(S(=O)(=O)N2CCCC2)ccc1O (nonaromatic ring conformer: 54.8799385740531 kcal/mol)

>  <smiles>  (8) 
COc1ccc(C(=O)O)cc1S(=O)(=O)Nc1cc(S(=O)(=O)N2CCCC2)ccc1O

>  <score_type>  (8) 
oracle

>  <origin>  (8) 
adgpu

>  <m_score__min__energy>  (8) 
-12.01

>  <m_primary>  (8) 
energy

$$$$
8:0
     RDKit          3D

 52 54  0  0  0  0  0  0  0  0999 V2000
    1.3450   19.9700  -31.3900 O   0  0  0  0  0  0  0  0  0  0  0  0
    0.4180   20.2720  -30.5930 C   0  0  0  0  0  0  0  0  0  0  0  0
    0.1780   19.3870  -29.3960 C   0  0  0  0  0  0  0  0  0  0  0  0
   -1.1760   19.5650  -28.8540 N   0  0  0  0  0  0  0  0  0  0  0  0
   -1.2080   19.5740  -27.3810 C   0  0  0  0  0  0  0  0  0  0  0  0
   -2.2280   20.5810  -26.8250 C   0  0  0  0  0  0  0  0  0  0  0  0
   -2.0870   21.9100  -27.5170 C   0  0  0  0  0  0  0  0  0  0  0  0
   -3.2260   22.6620  -27.8460 C   0  0  0  0  0  0  0  0  0  0  0  0
   -3.0910   23.9130  -28.4580 C   0  0  0  0  0  0  0  0  0  0  0  0
   -1.8200   24.4250  -28.7340 C   0  0  0  0  0  0  0  0  0  0  0  0
   -1.6880   25.6680  -29.3410 O   0  0  0  0  0  0  0  0  0  0  0  0
   -0.6820   23.6870  -28.3960 C   0  0  0  0  0  0  0  0  0  0  0  0
   -0.8120   22.4370  -27.7840 C   0  0  0  0  0  0  0  0  0  0  0  0
   -0.3920   21.4200  -30.8880 N   0  0  0  0  0  0  0  0  0  0  0  0
   -1.6130   21.4550  -31.6400 C   0  0  0  0  0  0  0  0  0  0  0  0
   -2.7440   22.1450  -31.1700 C   0  0  0  0  0  0  0  0  0  0  0  0
   -3.9190   22.1910  -31.9330 C   0  0  0  0  0  0  0  0  0  0  0  0
   -5.3430   23.0460  -31.3290 S   0  0  0  0  0  0  0  0  0  0  0  0
   -5.0560   24.5210  -31.2990 O   0  0  0  0  0  0  0  0  0  0  0  0
   -5.6290   22.6010  -29.9210 O   0  0  0  0  0  0  0  0  0  0  0  0
   -6.7570   22.7490  -32.3170 N   0  0  0  0  0  0  0  0  0  0  0  0
   -7.9650   23.3520  -31.7280 C   0  0  0  0  0  0  0  0  0  0  0  0
   -9.0240   22.2660  -31.6150 C   0  0  0  0  0  0  0  0  0  0  0  0
   -8.2460   20.9760  -31.6440 C   0  0  0  0  0  0  0  0  0  0  0  0
   -7.0180   21.3110  -32.4670 C   0  0  0  0  0  0  0  0  0  0  0  0
   -3.9470   21.5770  -33.1920 C   0  0  0  0  0  0  0  0  0  0  0  0
   -2.8190   20.9100  -33.6750 C   0  0  0  0  0  0  0  0  0  0  0  0
   -1.6500   20.8510  -32.9050 C   0  0  0  0  0  0  0  0  0  0  0  0
   -0.5220   20.1910  -33.3910 O   0  0  0  0  0  0  0  0  0  0  0  0
    0.3067   18.3369  -29.6970 H   0  0  0  0  0  0  0  0  0  0  0  0
    0.9005   19.6631  -28.6139 H   0  0  0  0  0  0  0  0  0  0  0  0
   -1.5640   20.4660  -29.2200 H   0  0  0  0  0  0  0  0  0  0  0  0
   -1.4757   18.5675  -27.0270 H   0  0  0  0  0  0  0  0  0  0  0  0
   -0.2113   19.8736  -27.0249 H   0  0  0  0  0  0  0  0  0  0  0  0
   -3.2447   20.1940  -26.9880 H   0  0  0  0  0  0  0  0  0  0  0  0
   -2.0426   20.7183  -25.7495 H   0  0  0  0  0  0  0  0  0  0  0  0
   -4.2277   22.2665  -27.6219 H   0  0  0  0  0  0  0  0  0  0  0  0
   -3.9865   24.4945  -28.7224 H   0  0  0  0  0  0  0  0  0  0  0  0
    0.3181   24.0908  -28.6121 H   0  0  0  0  0  0  0  0  0  0  0  0
    0.0864   21.8642  -27.5106 H   0  0  0  0  0  0  0  0  0  0  0  0
   -2.7066   22.6532  -30.1951 H   0  0  0  0  0  0  0  0  0  0  0  0
   -7.7336   23.7533  -30.7303 H   0  0  0  0  0  0  0  0  0  0  0  0
   -8.3281   24.1761  -32.3597 H   0  0  0  0  0  0  0  0  0  0  0  0
   -9.5812   22.3629  -30.6715 H   0  0  0  0  0  0  0  0  0  0  0  0
   -9.7695   22.3231  -32.4218 H   0  0  0  0  0  0  0  0  0  0  0  0
   -7.9633   20.6662  -30.6271 H   0  0  0  0  0  0  0  0  0  0  0  0
   -8.8245   20.1404  -32.0649 H   0  0  0  0  0  0  0  0  0  0  0  0
   -6.1549   20.7339  -32.1037 H   0  0  0  0  0  0  0  0  0  0  0  0
   -7.1830   21.0582  -33.5248 H   0  0  0  0  0  0  0  0  0  0  0  0
   -4.8610   21.6204  -33.8025 H   0  0  0  0  0  0  0  0  0  0  0  0
   -2.8485   20.4291  -34.6639 H   0  0  0  0  0  0  0  0  0  0  0  0
    0.3350   20.1420  -32.8550 H   0  0  0  0  0  0  0  0  0  0  0  0
  1  2  2  0
  2  3  1  0
  3  4  1  0
  4  5  1  0
  5  6  1  0
  6  7  1  0
  7  8  2  0
  8  9  1  0
  9 10  2  0
 10 11  1  0
 10 12  1  0
 12 13  2  0
  2 14  1  0
 14 15  1  0
 15 16  2  0
 16 17  1  0
 17 18  1  0
 18 19  2  0
 18 20  2  0
 18 21  1  0
 21 22  1  0
 22 23  1  0
 23 24  1  0
 24 25  1  0
 17 26  2  0
 26 27  1  0
 27 28  2  0
 28 29  1  0
 13  7  1  0
 28 15  1  0
 25 21  1  0
  3 30  1  0
  3 31  1  0
  4 32  1  0
  5 33  1  0
  5 34  1  0
  6 35  1  0
  6 36  1  0
  8 37  1  0
  9 38  1  0
 12 39  1  0
 13 40  1  0
 16 41  1  0
 22 42  1  0
 22 43  1  0
 23 44  1  0
 23 45  1  0
 24 46  1  0
 24 47  1  0
 25 48  1  0
 25 49  1  0
 26 50  1  0
 27 51  1  0
 29 52  1  0
M  CHG  2  11  -1  14  -1
M  END
>  <UniqueID>  (9) 
9

>  <SMILES>  (9) 
O=C(CNCCc1ccc([O-])cc1)[N-]c1cc(S(=O)(=O)N2CCCC2)ccc1O

>  <Energy>  (9) 
55.10851900540903

>  <Genealogy>  (9) 
O=C(CNCCc1ccc([O-])cc1)[N-]c1cc(S(=O)(=O)N2CCCC2)ccc1O (protonated)
O=C(CNCCc1ccc([O-])cc1)[N-]c1cc(S(=O)(=O)N2CCCC2)ccc1O (3D coordinates assigned)
O=C(CNCCc1ccc([O-])cc1)[N-]c1cc(S(=O)(=O)N2CCCC2)ccc1O (nonaromatic ring conformer: 55.10851900540903 kcal/mol)

>  <smiles>  (9) 
O=C(CNCCc1ccc(O)cc1)Nc1cc(S(=O)(=O)N2CCCC2)ccc1O

>  <score_type>  (9) 
oracle

>  <origin>  (9) 
adgpu

>  <m_score__min__energy>  (9) 
-12.4

>  <m_primary>  (9) 
energy

$$$$
9:0
     RDKit          3D

 41 43  0  0  0  0  0  0  0  0999 V2000
   -6.4480   17.5350  -33.1910 C   0  0  0  0  0  0  0  0  0  0  0  0
   -6.5040   18.9100  -33.7780 C   0  0  0  0  0  0  0  0  0  0  0  0
   -6.0600   19.0900  -34.9430 O   0  0  0  0  0  0  0  0  0  0  0  0
   -7.0840   20.0170  -33.0670 N   0  0  0  0  0  0  0  0  0  0  0  0
   -8.5110   20.0950  -32.7460 C   0  0  0  0  0  0  0  0  0  0  0  0
   -8.6710   21.2910  -31.7790 C   0  0  0  0  0  0  0  0  0  0  0  0
   -7.2970   21.8560  -31.7000 C   0  0  0  0  0  0  0  0  0  0  0  0
   -6.8850   23.0040  -31.0220 C   0  0  0  0  0  0  0  0  0  0  0  0
   -5.5430   23.4050  -31.1250 C   0  0  0  0  0  0  0  0  0  0  0  0
   -4.9940   24.8370  -30.2560 S   0  0  0  0  0  0  0  0  0  0  0  0
   -6.1440   25.7960  -30.1420 O   0  0  0  0  0  0  0  0  0  0  0  0
   -3.8830   25.5110  -31.0110 O   0  0  0  0  0  0  0  0  0  0  0  0
   -4.4390   24.4270  -28.6570 N   0  0  0  0  0  0  0  0  0  0  0  0
   -3.5440   23.2660  -28.6730 C   0  0  0  0  0  0  0  0  0  0  0  0
   -2.2130   23.5840  -28.0350 C   0  0  0  0  0  0  0  0  0  0  0  0
   -1.6900   22.7060  -27.0680 C   0  0  0  0  0  0  0  0  0  0  0  0
   -0.4510   22.9580  -26.4760 C   0  0  0  0  0  0  0  0  0  0  0  0
    0.2810   24.0880  -26.8390 C   0  0  0  0  0  0  0  0  0  0  0  0
   -0.2270   24.9730  -27.7920 C   0  0  0  0  0  0  0  0  0  0  0  0
   -1.4690   24.7340  -28.3950 C   0  0  0  0  0  0  0  0  0  0  0  0
   -1.9310   25.6550  -29.3380 O   0  0  0  0  0  0  0  0  0  0  0  0
   -4.6490   22.6610  -31.9250 C   0  0  0  0  0  0  0  0  0  0  0  0
   -5.0890   21.5120  -32.6010 C   0  0  0  0  0  0  0  0  0  0  0  0
   -6.4220   21.1110  -32.4450 C   0  0  0  0  0  0  0  0  0  0  0  0
   -6.4508   17.6046  -32.0932 H   0  0  0  0  0  0  0  0  0  0  0  0
   -7.3234   16.9582  -33.5241 H   0  0  0  0  0  0  0  0  0  0  0  0
   -5.5286   17.0313  -33.5241 H   0  0  0  0  0  0  0  0  0  0  0  0
   -9.0989   20.2627  -33.6604 H   0  0  0  0  0  0  0  0  0  0  0  0
   -8.8711   19.1606  -32.2908 H   0  0  0  0  0  0  0  0  0  0  0  0
   -9.3784   22.0309  -32.1816 H   0  0  0  0  0  0  0  0  0  0  0  0
   -9.0726   20.9991  -30.7974 H   0  0  0  0  0  0  0  0  0  0  0  0
   -7.5982   23.5841  -30.4180 H   0  0  0  0  0  0  0  0  0  0  0  0
   -4.0178   22.4419  -28.1195 H   0  0  0  0  0  0  0  0  0  0  0  0
   -3.3654   22.9826  -29.7207 H   0  0  0  0  0  0  0  0  0  0  0  0
   -2.2623   21.8132  -26.7759 H   0  0  0  0  0  0  0  0  0  0  0  0
   -0.0515   22.2639  -25.7219 H   0  0  0  0  0  0  0  0  0  0  0  0
    1.2590   24.2822  -26.3744 H   0  0  0  0  0  0  0  0  0  0  0  0
    0.3525   25.8651  -28.0717 H   0  0  0  0  0  0  0  0  0  0  0  0
   -2.8700   25.6370  -29.7160 H   0  0  0  0  0  0  0  0  0  0  0  0
   -3.6015   22.9834  -32.0192 H   0  0  0  0  0  0  0  0  0  0  0  0
   -4.4013   20.9385  -33.2399 H   0  0  0  0  0  0  0  0  0  0  0  0
  1  2  1  0
  2  3  2  0
  2  4  1  0
  4  5  1  0
  5  6  1  0
  6  7  1  0
  7  8  2  0
  8  9  1  0
  9 10  1  0
 10 11  2  0
 10 12  2  0
 10 13  1  0
 13 14  1  0
 14 15  1  0
 15 16  2  0
 16 17  1  0
 17 18  2  0
 18 19  1  0
 19 20  2  0
 20 21  1  0
  9 22  2  0
 22 23  1  0
 23 24  2  0
 24  4  1  0
 24  7  1  0
 20 15  1  0
  1 25  1  0
  1 26  1  0
  1 27  1  0
  5 28  1  0
  5 29  1  0
  6 30  1  0
  6 31  1  0
  8 32  1  0
 14 33  1  0
 14 34  1  0
 16 35  1  0
 17 36  1  0
 18 37  1  0
 19 38  1  0
 21 39  1  0
 22 40  1  0
 23 41  1  0
M  CHG  1  13  -1
M  END
>  <UniqueID>  (10) 
10

>  <SMILES>  (10) 
CC(=O)N1CCc2cc(S(=O)(=O)[N-]Cc3ccccc3O)ccc21

>  <Energy>  (10) 
59.101651158864215

>  <Genealogy>  (10) 
CC(=O)N1CCc2cc(S(=O)(=O)[N-]Cc3ccccc3O)ccc21 (protonated)
CC(=O)N1CCc2cc(S(=O)(=O)[N-]Cc3ccccc3O)ccc21 (3D coordinates assigned)
CC(=O)N1CCc2cc(S(=O)(=O)[N-]Cc3ccccc3O)ccc21 (nonaromatic ring conformer: 59.101651158864215 kcal/mol)

>  <smiles>  (10) 
CC(=O)N1CCc2cc(S(=O)(=O)NCc3ccccc3O)ccc21

>  <score_type>  (10) 
oracle

>  <origin>  (10) 
adgpu

>  <m_score__min__energy>  (10) 
-11.35

>  <m_primary>  (10) 
energy

$$$$
10:0
     RDKit          3D

 50 53  0  0  0  0  0  0  0  0999 V2000
   -2.0180   25.2720  -29.2760 O   0  0  0  0  0  0  0  0  0  0  0  0
   -3.1150   24.6690  -29.4160 C   0  0  0  0  0  0  0  0  0  0  0  0
   -3.7570   23.9840  -28.2450 C   0  0  0  0  0  0  0  0  0  0  0  0
   -4.5760   22.7640  -28.6920 C   0  0  0  0  0  0  0  0  0  0  0  0
   -5.4410   23.0580  -29.8950 C   0  0  0  0  0  0  0  0  0  0  0  0
   -6.6240   22.3350  -30.1100 C   0  0  0  0  0  0  0  0  0  0  0  0
   -7.3740   22.5320  -31.2770 C   0  0  0  0  0  0  0  0  0  0  0  0
   -8.8900   21.6590  -31.4940 S   0  0  0  0  0  0  0  0  0  0  0  0
   -9.4800   21.2690  -30.1680 O   0  0  0  0  0  0  0  0  0  0  0  0
   -9.8620   22.5480  -32.2160 O   0  0  0  0  0  0  0  0  0  0  0  0
   -8.6010   20.2310  -32.4370 N   0  0  0  0  0  0  0  0  0  0  0  0
   -7.2800   19.7080  -32.6400 C   0  0  0  0  0  0  0  0  0  0  0  0
   -6.7410   18.7360  -31.7800 C   0  0  0  0  0  0  0  0  0  0  0  0
   -5.4240   18.3010  -31.9450 C   0  0  0  0  0  0  0  0  0  0  0  0
   -4.6310   18.8270  -32.9720 C   0  0  0  0  0  0  0  0  0  0  0  0
   -2.9360   18.3590  -33.1050 S   0  0  0  0  0  0  0  0  0  0  0  0
   -2.4980   18.4860  -34.5380 O   0  0  0  0  0  0  0  0  0  0  0  0
   -2.8000   16.9140  -32.7100 O   0  0  0  0  0  0  0  0  0  0  0  0
   -1.8950   19.3340  -32.0870 N   0  0  0  0  0  0  0  0  0  0  0  0
   -2.6460   20.2920  -31.2480 C   0  0  0  0  0  0  0  0  0  0  0  0
   -2.6100   21.7290  -31.7970 C   0  0  0  0  0  0  0  0  0  0  0  0
   -2.4910   21.7190  -33.1990 O   0  0  0  0  0  0  0  0  0  0  0  0
   -1.2060   21.2560  -33.5680 C   0  0  0  0  0  0  0  0  0  0  0  0
   -0.7890   19.9560  -32.8380 C   0  0  0  0  0  0  0  0  0  0  0  0
   -5.1830   19.7530  -33.8670 C   0  0  0  0  0  0  0  0  0  0  0  0
   -6.5020   20.1880  -33.7030 C   0  0  0  0  0  0  0  0  0  0  0  0
   -6.9300   23.4490  -32.2410 C   0  0  0  0  0  0  0  0  0  0  0  0
   -5.7470   24.1630  -32.0400 C   0  0  0  0  0  0  0  0  0  0  0  0
   -5.0010   23.9710  -30.8740 C   0  0  0  0  0  0  0  0  0  0  0  0
   -3.7920   24.7090  -30.6730 N   0  0  0  0  0  0  0  0  0  0  0  0
   -2.9721   23.6531  -27.5490 H   0  0  0  0  0  0  0  0  0  0  0  0
   -4.4361   24.6974  -27.7552 H   0  0  0  0  0  0  0  0  0  0  0  0
   -3.8835   21.9480  -28.9462 H   0  0  0  0  0  0  0  0  0  0  0  0
   -5.2414   22.4853  -27.8616 H   0  0  0  0  0  0  0  0  0  0  0  0
   -6.9649   21.6087  -29.3575 H   0  0  0  0  0  0  0  0  0  0  0  0
   -9.3820   19.8920  -33.0410 H   0  0  0  0  0  0  0  0  0  0  0  0
   -7.3592   18.3157  -30.9730 H   0  0  0  0  0  0  0  0  0  0  0  0
   -5.0083   17.5424  -31.2655 H   0  0  0  0  0  0  0  0  0  0  0  0
   -3.6944   19.9636  -31.1939 H   0  0  0  0  0  0  0  0  0  0  0  0
   -2.1685   20.3063  -30.2572 H   0  0  0  0  0  0  0  0  0  0  0  0
   -3.5390   22.2469  -31.5164 H   0  0  0  0  0  0  0  0  0  0  0  0
   -1.7407   22.2508  -31.3703 H   0  0  0  0  0  0  0  0  0  0  0  0
   -1.2019   21.0645  -34.6512 H   0  0  0  0  0  0  0  0  0  0  0  0
   -0.4848   22.0355  -33.2814 H   0  0  0  0  0  0  0  0  0  0  0  0
   -0.4251   19.2360  -33.5857 H   0  0  0  0  0  0  0  0  0  0  0  0
   -0.0087   20.2242  -32.1106 H   0  0  0  0  0  0  0  0  0  0  0  0
   -4.5776   20.1387  -34.7005 H   0  0  0  0  0  0  0  0  0  0  0  0
   -6.9315   20.9109  -34.4121 H   0  0  0  0  0  0  0  0  0  0  0  0
   -7.5158   23.6062  -33.1586 H   0  0  0  0  0  0  0  0  0  0  0  0
   -5.4015   24.8781  -32.8011 H   0  0  0  0  0  0  0  0  0  0  0  0
  1  2  2  0
  2  3  1  0
  3  4  1  0
  4  5  1  0
  5  6  2  0
  6  7  1  0
  7  8  1  0
  8  9  2  0
  8 10  2  0
  8 11  1  0
 11 12  1  0
 12 13  2  0
 13 14  1  0
 14 15  2  0
 15 16  1  0
 16 17  2  0
 16 18  2  0
 16 19  1  0
 19 20  1  0
 20 21  1  0
 21 22  1  0
 22 23  1  0
 23 24  1  0
 15 25  1  0
 25 26  2  0
  7 27  2  0
 27 28  1  0
 28 29  2  0
 29 30  1  0
 30  2  1  0
 29  5  1  0
 26 12  1  0
 24 19  1  0
  3 31  1  0
  3 32  1  0
  4 33  1  0
  4 34  1  0
  6 35  1  0
 11 36  1  0
 13 37  1  0
 14 38  1  0
 20 39  1  0
 20 40  1  0
 21 41  1  0
 21 42  1  0
 23 43  1  0
 23 44  1  0
 24 45  1  0
 24 46  1  0
 25 47  1  0
 26 48  1  0
 27 49  1  0
 28 50  1  0
M  CHG  1  30  -1
M  END
>  <UniqueID>  (11) 
11

>  <SMILES>  (11) 
O=C1CCc2cc(S(=O)(=O)Nc3ccc(S(=O)(=O)N4CCOCC4)cc3)ccc2[N-]1

>  <Energy>  (11) 
62.7511533759415

>  <Genealogy>  (11) 
O=C1CCc2cc(S(=O)(=O)Nc3ccc(S(=O)(=O)N4CCOCC4)cc3)ccc2[N-]1 (protonated)
O=C1CCc2cc(S(=O)(=O)Nc3ccc(S(=O)(=O)N4CCOCC4)cc3)ccc2[N-]1 (3D coordinates assigned)
O=C1CCc2cc(S(=O)(=O)Nc3ccc(S(=O)(=O)N4CCOCC4)cc3)ccc2[N-]1 (nonaromatic ring conformer: 62.7511533759415 kcal/mol)

>  <smiles>  (11) 
O=C1CCc2cc(S(=O)(=O)Nc3ccc(S(=O)(=O)N4CCOCC4)cc3)ccc2N1

>  <score_type>  (11) 
oracle

>  <origin>  (11) 
adgpu

>  <m_score__min__energy>  (11) 
-11.34

>  <m_primary>  (11) 
energy

$$$$
11:0
     RDKit          3D

 55 58  0  0  0  0  0  0  0  0999 V2000
    0.3450   18.8110  -27.5740 C   0  0  0  0  0  0  0  0  0  0  0  0
   -0.6970   19.8400  -27.4360 N   0  0  0  0  0  0  0  0  0  0  0  0
   -2.0330   19.2220  -27.5180 C   0  0  0  0  0  0  0  0  0  0  0  0
   -3.1000   20.2520  -27.1430 C   0  0  0  0  0  0  0  0  0  0  0  0
   -2.8950   21.5610  -27.8630 C   0  0  0  0  0  0  0  0  0  0  0  0
   -3.9260   22.5090  -27.8700 C   0  0  0  0  0  0  0  0  0  0  0  0
   -3.7450   23.7690  -28.4700 C   0  0  0  0  0  0  0  0  0  0  0  0
   -4.7920   24.7580  -28.4610 N   0  0  0  0  0  0  0  0  0  0  0  0
   -5.8110   25.0820  -29.8280 S   0  0  0  0  0  0  0  0  0  0  0  0
   -7.0990   25.6930  -29.3550 O   0  0  0  0  0  0  0  0  0  0  0  0
   -5.1140   26.0520  -30.7400 O   0  0  0  0  0  0  0  0  0  0  0  0
   -6.1740   23.5790  -30.6690 C   0  0  0  0  0  0  0  0  0  0  0  0
   -7.3590   22.8790  -30.4030 C   0  0  0  0  0  0  0  0  0  0  0  0
   -7.6530   21.7040  -31.1010 C   0  0  0  0  0  0  0  0  0  0  0  0
   -6.7660   21.2200  -32.0710 C   0  0  0  0  0  0  0  0  0  0  0  0
   -7.1470   19.7300  -32.9300 S   0  0  0  0  0  0  0  0  0  0  0  0
   -6.8760   19.9020  -34.4000 O   0  0  0  0  0  0  0  0  0  0  0  0
   -8.6130   19.4430  -32.7460 O   0  0  0  0  0  0  0  0  0  0  0  0
   -6.1990   18.4140  -32.2690 N   0  0  0  0  0  0  0  0  0  0  0  0
   -4.7480   18.6210  -32.4360 C   0  0  0  0  0  0  0  0  0  0  0  0
   -4.2550   18.2010  -33.8290 C   0  0  0  0  0  0  0  0  0  0  0  0
   -4.6260   16.8690  -34.1150 O   0  0  0  0  0  0  0  0  0  0  0  0
   -6.0350   16.7710  -34.1470 C   0  0  0  0  0  0  0  0  0  0  0  0
   -6.6380   17.0980  -32.7720 C   0  0  0  0  0  0  0  0  0  0  0  0
   -5.5780   21.9150  -32.3320 C   0  0  0  0  0  0  0  0  0  0  0  0
   -5.2830   23.0890  -31.6330 C   0  0  0  0  0  0  0  0  0  0  0  0
   -2.5150   24.0580  -29.0880 C   0  0  0  0  0  0  0  0  0  0  0  0
   -2.3060   25.2860  -29.7060 O   0  0  0  0  0  0  0  0  0  0  0  0
   -1.4820   23.1150  -29.0810 C   0  0  0  0  0  0  0  0  0  0  0  0
   -1.6520   21.8770  -28.4490 C   0  0  0  0  0  0  0  0  0  0  0  0
   -0.5410   20.8560  -28.4960 C   0  0  0  0  0  0  0  0  0  0  0  0
    0.6740   18.4861  -26.5759 H   0  0  0  0  0  0  0  0  0  0  0  0
   -0.0610   17.9496  -28.1247 H   0  0  0  0  0  0  0  0  0  0  0  0
    1.2012   19.2277  -28.1247 H   0  0  0  0  0  0  0  0  0  0  0  0
   -2.2103   18.8687  -28.5445 H   0  0  0  0  0  0  0  0  0  0  0  0
   -2.0853   18.3723  -26.8213 H   0  0  0  0  0  0  0  0  0  0  0  0
   -4.0897   19.8515  -27.4079 H   0  0  0  0  0  0  0  0  0  0  0  0
   -3.0257   20.4420  -26.0621 H   0  0  0  0  0  0  0  0  0  0  0  0
   -4.8903   22.2653  -27.4001 H   0  0  0  0  0  0  0  0  0  0  0  0
   -5.0500   25.2260  -27.5640 H   0  0  0  0  0  0  0  0  0  0  0  0
   -8.0595   23.2553  -29.6429 H   0  0  0  0  0  0  0  0  0  0  0  0
   -8.5838   21.1579  -30.8878 H   0  0  0  0  0  0  0  0  0  0  0  0
   -4.5237   19.6877  -32.2883 H   0  0  0  0  0  0  0  0  0  0  0  0
   -4.2314   17.9949  -31.6936 H   0  0  0  0  0  0  0  0  0  0  0  0
   -4.6974   18.8679  -34.5837 H   0  0  0  0  0  0  0  0  0  0  0  0
   -3.1575   18.2719  -33.8492 H   0  0  0  0  0  0  0  0  0  0  0  0
   -6.4286   17.4795  -34.8907 H   0  0  0  0  0  0  0  0  0  0  0  0
   -6.3099   15.7403  -34.4156 H   0  0  0  0  0  0  0  0  0  0  0  0
   -7.7347   17.0994  -32.8575 H   0  0  0  0  0  0  0  0  0  0  0  0
   -6.2926   16.3327  -32.0614 H   0  0  0  0  0  0  0  0  0  0  0  0
   -4.8756   21.5359  -33.0889 H   0  0  0  0  0  0  0  0  0  0  0  0
   -4.3480   23.6301  -31.8405 H   0  0  0  0  0  0  0  0  0  0  0  0
   -0.5278   23.3479  -29.5762 H   0  0  0  0  0  0  0  0  0  0  0  0
   -0.5557   20.3561  -29.4757 H   0  0  0  0  0  0  0  0  0  0  0  0
    0.4147   21.3772  -28.3377 H   0  0  0  0  0  0  0  0  0  0  0  0
  1  2  1  0
  2  3  1  0
  3  4  1  0
  4  5  1  0
  5  6  2  0
  6  7  1  0
  7  8  1  0
  8  9  1  0
  9 10  2  0
  9 11  2  0
  9 12  1  0
 12 13  2  0
 13 14  1  0
 14 15  2  0
 15 16  1  0
 16 17  2  0
 16 18  2  0
 16 19  1  0
 19 20  1  0
 20 21  1  0
 21 22  1  0
 22 23  1  0
 23 24  1  0
 15 25  1  0
 25 26  2  0
  7 27  2  0
 27 28  1  0
 27 29  1  0
 29 30  2  0
 30 31  1  0
 31  2  1  0
 30  5  1  0
 26 12  1  0
 24 19  1  0
  1 32  1  0
  1 33  1  0
  1 34  1  0
  3 35  1  0
  3 36  1  0
  4 37  1  0
  4 38  1  0
  6 39  1  0
  8 40  1  0
 13 41  1  0
 14 42  1  0
 20 43  1  0
 20 44  1  0
 21 45  1  0
 21 46  1  0
 23 47  1  0
 23 48  1  0
 24 49  1  0
 24 50  1  0
 25 51  1  0
 26 52  1  0
 29 53  1  0
 31 54  1  0
 31 55  1  0
M  CHG  1  28  -1
M  END
>  <UniqueID>  (12) 
12

>  <SMILES>  (12) 
CN1CCc2cc(NS(=O)(=O)c3ccc(S(=O)(=O)N4CCOCC4)cc3)c([O-])cc2C1

>  <Energy>  (12) 
67.06691319662295

>  <Genealogy>  (12) 
CN1CCc2cc(NS(=O)(=O)c3ccc(S(=O)(=O)N4CCOCC4)cc3)c([O-])cc2C1 (protonated)
CN1CCc2cc(NS(=O)(=O)c3ccc(S(=O)(=O)N4CCOCC4)cc3)c([O-])cc2C1 (3D coordinates assigned)
CN1CCc2cc(NS(=O)(=O)c3ccc(S(=O)(=O)N4CCOCC4)cc3)c([O-])cc2C1 (nonaromatic ring conformer: 67.06691319662295 kcal/mol)

>  <smiles>  (12) 
CN1CCc2cc(NS(=O)(=O)c3ccc(S(=O)(=O)N4CCOCC4)cc3)c(O)cc2C1

>  <score_type>  (12) 
oracle

>  <origin>  (12) 
adgpu

>  <m_score__min__energy>  (12) 
-14.130000000000001

>  <m_primary>  (12) 
energy

$$$$
12:0
     RDKit          3D

 42 44  0  0  0  0  0  0  0  0999 V2000
   -5.6840   26.3340  -30.5550 O   0  0  0  0  0  0  0  0  0  0  0  0
   -5.0360   25.2520  -30.5940 C   0  0  0  0  0  0  0  0  0  0  0  0
   -3.6210   25.2530  -30.3520 N   0  0  0  0  0  0  0  0  0  0  0  0
   -2.9310   24.5510  -29.3080 C   0  0  0  0  0  0  0  0  0  0  0  0
   -1.6310   24.9530  -28.9750 C   0  0  0  0  0  0  0  0  0  0  0  0
   -0.9150   24.2830  -27.9780 C   0  0  0  0  0  0  0  0  0  0  0  0
   -1.4870   23.1920  -27.3140 C   0  0  0  0  0  0  0  0  0  0  0  0
   -0.7640   22.5340  -26.3230 O   0  0  0  0  0  0  0  0  0  0  0  0
   -2.7770   22.7690  -27.6580 C   0  0  0  0  0  0  0  0  0  0  0  0
   -3.4950   23.4390  -28.6550 C   0  0  0  0  0  0  0  0  0  0  0  0
   -5.7270   23.9890  -30.9440 C   0  0  0  0  0  0  0  0  0  0  0  0
   -6.7610   23.4920  -30.1300 C   0  0  0  0  0  0  0  0  0  0  0  0
   -7.4120   22.2990  -30.4580 C   0  0  0  0  0  0  0  0  0  0  0  0
   -7.0440   21.5860  -31.6050 C   0  0  0  0  0  0  0  0  0  0  0  0
   -7.8580   20.0730  -31.9930 S   0  0  0  0  0  0  0  0  0  0  0  0
   -8.2900   20.0840  -33.4320 O   0  0  0  0  0  0  0  0  0  0  0  0
   -9.0850   19.9640  -31.1320 O   0  0  0  0  0  0  0  0  0  0  0  0
   -6.7890   18.7250  -31.6660 N   0  0  0  0  0  0  0  0  0  0  0  0
   -5.3800   19.0290  -31.9840 C   0  0  0  0  0  0  0  0  0  0  0  0
   -5.0680   18.8490  -33.4780 C   0  0  0  0  0  0  0  0  0  0  0  0
   -5.4310   17.5560  -33.9150 O   0  0  0  0  0  0  0  0  0  0  0  0
   -6.8260   17.3880  -33.7790 C   0  0  0  0  0  0  0  0  0  0  0  0
   -7.2480   17.4780  -32.3040 C   0  0  0  0  0  0  0  0  0  0  0  0
   -6.0110   22.0710  -32.4180 C   0  0  0  0  0  0  0  0  0  0  0  0
   -5.3580   23.2630  -32.0920 C   0  0  0  0  0  0  0  0  0  0  0  0
   -1.1701   25.8017  -29.5015 H   0  0  0  0  0  0  0  0  0  0  0  0
    0.1004   24.6144  -27.7150 H   0  0  0  0  0  0  0  0  0  0  0  0
   -0.5320   22.9870  -25.4470 H   0  0  0  0  0  0  0  0  0  0  0  0
   -3.2272   21.9076  -27.1430 H   0  0  0  0  0  0  0  0  0  0  0  0
   -4.5034   23.0955  -28.9292 H   0  0  0  0  0  0  0  0  0  0  0  0
   -7.0598   24.0465  -29.2282 H   0  0  0  0  0  0  0  0  0  0  0  0
   -8.2170   21.9190  -29.8118 H   0  0  0  0  0  0  0  0  0  0  0  0
   -5.1705   20.0714  -31.7018 H   0  0  0  0  0  0  0  0  0  0  0  0
   -4.7484   18.3260  -31.4210 H   0  0  0  0  0  0  0  0  0  0  0  0
   -5.6311   19.5962  -34.0564 H   0  0  0  0  0  0  0  0  0  0  0  0
   -3.9867   18.9815  -33.6303 H   0  0  0  0  0  0  0  0  0  0  0  0
   -7.3408   18.1750  -34.3496 H   0  0  0  0  0  0  0  0  0  0  0  0
   -7.0993   16.3940  -34.1627 H   0  0  0  0  0  0  0  0  0  0  0  0
   -8.3457   17.4346  -32.2468 H   0  0  0  0  0  0  0  0  0  0  0  0
   -6.7843   16.6359  -31.7693 H   0  0  0  0  0  0  0  0  0  0  0  0
   -5.7127   21.5112  -33.3167 H   0  0  0  0  0  0  0  0  0  0  0  0
   -4.5495   23.6366  -32.7376 H   0  0  0  0  0  0  0  0  0  0  0  0
  1  2  2  0
  2  3  1  0
  3  4  1  0
  4  5  2  0
  5  6  1  0
  6  7  2  0
  7  8  1  0
  7  9  1  0
  9 10  2  0
  2 11  1  0
 11 12  2  0
 12 13  1  0
 13 14  2  0
 14 15  1  0
 15 16  2  0
 15 17  2  0
 15 18  1  0
 18 19  1  0
 19 20  1  0
 20 21  1  0
 21 22  1  0
 22 23  1  0
 14 24  1  0
 24 25  2  0
 10  4  1  0
 25 11  1  0
 23 18  1  0
  5 26  1  0
  6 27  1  0
  8 28  1  0
  9 29  1  0
 10 30  1  0
 12 31  1  0
 13 32  1  0
 19 33  1  0
 19 34  1  0
 20 35  1  0
 20 36  1  0
 22 37  1  0
 22 38  1  0
 23 39  1  0
 23 40  1  0
 24 41  1  0
 25 42  1  0
M  CHG  1   3  -1
M  END
>  <UniqueID>  (13) 
13

>  <SMILES>  (13) 
O=C([N-]c1ccc(O)cc1)c1ccc(S(=O)(=O)N2CCOCC2)cc1

>  <Energy>  (13) 
52.270575033341096

>  <Genealogy>  (13) 
O=C([N-]c1ccc(O)cc1)c1ccc(S(=O)(=O)N2CCOCC2)cc1 (protonated)
O=C([N-]c1ccc(O)cc1)c1ccc(S(=O)(=O)N2CCOCC2)cc1 (3D coordinates assigned)
O=C([N-]c1ccc(O)cc1)c1ccc(S(=O)(=O)N2CCOCC2)cc1 (nonaromatic ring conformer: 52.270575033341096 kcal/mol)

>  <smiles>  (13) 
O=C(Nc1ccc(O)cc1)c1ccc(S(=O)(=O)N2CCOCC2)cc1

>  <score_type>  (13) 
oracle

>  <origin>  (13) 
adgpu

>  <m_score__min__energy>  (13) 
-9.9800000000000004

>  <m_primary>  (13) 
energy

$$$$
13:0
     RDKit          3D

 48 51  0  0  0  0  0  0  0  0999 V2000
   -4.6180   16.8210  -34.9830 C   0  0  0  0  0  0  0  0  0  0  0  0
   -5.6240   17.4590  -34.0620 C   0  0  0  0  0  0  0  0  0  0  0  0
   -6.7080   16.7180  -33.5730 C   0  0  0  0  0  0  0  0  0  0  0  0
   -7.6220   17.3040  -32.6920 C   0  0  0  0  0  0  0  0  0  0  0  0
   -7.4570   18.6310  -32.2870 C   0  0  0  0  0  0  0  0  0  0  0  0
   -6.3680   19.3850  -32.7570 C   0  0  0  0  0  0  0  0  0  0  0  0
   -6.1690   20.7850  -32.3070 C   0  0  0  0  0  0  0  0  0  0  0  0
   -7.1100   21.4040  -31.4700 C   0  0  0  0  0  0  0  0  0  0  0  0
   -6.8750   22.6870  -30.9690 C   0  0  0  0  0  0  0  0  0  0  0  0
   -5.6970   23.3690  -31.2970 C   0  0  0  0  0  0  0  0  0  0  0  0
   -5.3040   24.8740  -30.4690 S   0  0  0  0  0  0  0  0  0  0  0  0
   -5.8850   24.8310  -29.0820 O   0  0  0  0  0  0  0  0  0  0  0  0
   -5.9060   26.0340  -31.2130 O   0  0  0  0  0  0  0  0  0  0  0  0
   -3.5840   25.0950  -30.3580 N   0  0  0  0  0  0  0  0  0  0  0  0
   -2.7410   24.2990  -29.5200 C   0  0  0  0  0  0  0  0  0  0  0  0
   -3.0600   22.9630  -29.2300 C   0  0  0  0  0  0  0  0  0  0  0  0
   -2.2990   22.2320  -28.3070 C   0  0  0  0  0  0  0  0  0  0  0  0
   -1.1420   22.8120  -27.7450 C   0  0  0  0  0  0  0  0  0  0  0  0
   -0.7950   24.1300  -28.0820 C   0  0  0  0  0  0  0  0  0  0  0  0
   -1.5890   24.8700  -28.9640 C   0  0  0  0  0  0  0  0  0  0  0  0
   -1.2410   26.1830  -29.2690 O   0  0  0  0  0  0  0  0  0  0  0  0
   -0.3330   22.0680  -26.7060 C   0  0  0  0  0  0  0  0  0  0  0  0
   -0.5580   20.6160  -26.7530 N   0  0  0  0  0  0  0  0  0  0  0  0
   -1.9940   20.3100  -26.7090 C   0  0  0  0  0  0  0  0  0  0  0  0
   -2.7010   20.8170  -27.9740 C   0  0  0  0  0  0  0  0  0  0  0  0
   -4.7780   22.7780  -32.1740 C   0  0  0  0  0  0  0  0  0  0  0  0
   -5.0110   21.4950  -32.6740 C   0  0  0  0  0  0  0  0  0  0  0  0
   -5.4480   18.7850  -33.6380 C   0  0  0  0  0  0  0  0  0  0  0  0
   -3.8373   16.3259  -34.3868 H   0  0  0  0  0  0  0  0  0  0  0  0
   -5.1219   16.0770  -35.6175 H   0  0  0  0  0  0  0  0  0  0  0  0
   -4.1599   17.5940  -35.6175 H   0  0  0  0  0  0  0  0  0  0  0  0
   -6.8405   15.6711  -33.8835 H   0  0  0  0  0  0  0  0  0  0  0  0
   -8.4740   16.7182  -32.3164 H   0  0  0  0  0  0  0  0  0  0  0  0
   -8.1824   19.0875  -31.5975 H   0  0  0  0  0  0  0  0  0  0  0  0
   -8.0383   20.8759  -31.2067 H   0  0  0  0  0  0  0  0  0  0  0  0
   -7.6190   23.1635  -30.3138 H   0  0  0  0  0  0  0  0  0  0  0  0
   -3.9147   22.4855  -29.7315 H   0  0  0  0  0  0  0  0  0  0  0  0
    0.1084   24.5842  -27.6489 H   0  0  0  0  0  0  0  0  0  0  0  0
    0.7347   22.2657  -26.8819 H   0  0  0  0  0  0  0  0  0  0  0  0
   -0.6517   22.4243  -25.7153 H   0  0  0  0  0  0  0  0  0  0  0  0
   -0.1590   20.2450  -27.6470 H   0  0  0  0  0  0  0  0  0  0  0  0
   -2.1280   19.2208  -26.6335 H   0  0  0  0  0  0  0  0  0  0  0  0
   -2.4339   20.8126  -25.8350 H   0  0  0  0  0  0  0  0  0  0  0  0
   -2.4355   20.1628  -28.8175 H   0  0  0  0  0  0  0  0  0  0  0  0
   -3.7855   20.8021  -27.7907 H   0  0  0  0  0  0  0  0  0  0  0  0
   -3.8710   23.3258  -32.4694 H   0  0  0  0  0  0  0  0  0  0  0  0
   -4.2837   21.0361  -33.3599 H   0  0  0  0  0  0  0  0  0  0  0  0
   -4.5828   19.3614  -33.9974 H   0  0  0  0  0  0  0  0  0  0  0  0
  1  2  1  0
  2  3  2  0
  3  4  1  0
  4  5  2  0
  5  6  1  0
  6  7  1  0
  7  8  2  0
  8  9  1  0
  9 10  2  0
 10 11  1  0
 11 12  2  0
 11 13  2  0
 11 14  1  0
 14 15  1  0
 15 16  2  0
 16 17  1  0
 17 18  2  0
 18 19  1  0
 19 20  2  0
 20 21  1  0
 18 22  1  0
 22 23  1  0
 23 24  1  0
 24 25  1  0
 10 26  1  0
 26 27  2  0
  6 28  2  0
 28  2  1  0
 27  7  1  0
 20 15  1  0
 25 17  1  0
  1 29  1  0
  1 30  1  0
  1 31  1  0
  3 32  1  0
  4 33  1  0
  5 34  1  0
  8 35  1  0
  9 36  1  0
 16 37  1  0
 19 38  1  0
 22 39  1  0
 22 40  1  0
 23 41  1  0
 24 42  1  0
 24 43  1  0
 25 44  1  0
 25 45  1  0
 26 46  1  0
 27 47  1  0
 28 48  1  0
M  CHG  2  14  -1  21  -1
M  END
>  <UniqueID>  (14) 
14

>  <SMILES>  (14) 
Cc1cccc(-c2ccc(S(=O)(=O)[N-]c3cc4c(cc3[O-])CNCC4)cc2)c1

>  <Energy>  (14) 
65.14100448552186

>  <Genealogy>  (14) 
Cc1cccc(-c2ccc(S(=O)(=O)[N-]c3cc4c(cc3[O-])CNCC4)cc2)c1 (protonated)
Cc1cccc(-c2ccc(S(=O)(=O)[N-]c3cc4c(cc3[O-])CNCC4)cc2)c1 (3D coordinates assigned)
Cc1cccc(-c2ccc(S(=O)(=O)[N-]c3cc4c(cc3[O-])CNCC4)cc2)c1 (nonaromatic ring conformer: 65.14100448552186 kcal/mol)

>  <smiles>  (14) 
Cc1cccc(-c2ccc(S(=O)(=O)Nc3cc4c(cc3O)CNCC4)cc2)c1

>  <score_type>  (14) 
oracle

>  <origin>  (14) 
adgpu

>  <m_score__min__energy>  (14) 
-14.949999999999999

>  <m_primary>  (14) 
energy

$$$$
14:0
     RDKit          3D

 65 69  0  0  0  0  0  0  0  0999 V2000
   -2.9780   11.9760  -33.2180 C   0  0  0  0  0  0  0  0  0  0  0  0
   -3.3220   13.0260  -32.1960 C   0  0  0  0  0  0  0  0  0  0  0  0
   -2.8730   12.9130  -31.0180 O   0  0  0  0  0  0  0  0  0  0  0  0
   -4.1650   14.1860  -32.5630 C   0  0  0  0  0  0  0  0  0  0  0  0
   -4.5230   14.4280  -33.8980 C   0  0  0  0  0  0  0  0  0  0  0  0
   -5.3470   15.5130  -34.2080 C   0  0  0  0  0  0  0  0  0  0  0  0
   -5.7960   16.3660  -33.1950 C   0  0  0  0  0  0  0  0  0  0  0  0
   -6.7040   17.5350  -33.5110 C   0  0  0  0  0  0  0  0  0  0  0  0
   -6.2150   18.8330  -33.0030 N   0  0  0  0  0  0  0  0  0  0  0  0
   -5.2090   19.4660  -33.8780 C   0  0  0  0  0  0  0  0  0  0  0  0
   -4.4910   20.5810  -33.1110 C   0  0  0  0  0  0  0  0  0  0  0  0
   -5.4360   21.4320  -32.2980 C   0  0  0  0  0  0  0  0  0  0  0  0
   -4.9630   22.6240  -31.7270 C   0  0  0  0  0  0  0  0  0  0  0  0
   -5.7990   23.4060  -30.9220 C   0  0  0  0  0  0  0  0  0  0  0  0
   -5.2450   24.9710  -30.3260 S   0  0  0  0  0  0  0  0  0  0  0  0
   -5.7610   25.1850  -28.9300 O   0  0  0  0  0  0  0  0  0  0  0  0
   -5.7530   26.0720  -31.2090 O   0  0  0  0  0  0  0  0  0  0  0  0
   -3.5180   24.9780  -30.3090 N   0  0  0  0  0  0  0  0  0  0  0  0
   -2.8200   24.0160  -29.5210 C   0  0  0  0  0  0  0  0  0  0  0  0
   -2.0260   23.0510  -30.1540 C   0  0  0  0  0  0  0  0  0  0  0  0
   -1.4780   21.9880  -29.4290 C   0  0  0  0  0  0  0  0  0  0  0  0
   -1.7460   21.8760  -28.0470 C   0  0  0  0  0  0  0  0  0  0  0  0
   -2.4990   22.8730  -27.4090 C   0  0  0  0  0  0  0  0  0  0  0  0
   -3.0490   23.9380  -28.1380 C   0  0  0  0  0  0  0  0  0  0  0  0
   -3.8550   24.8790  -27.4810 O   0  0  0  0  0  0  0  0  0  0  0  0
   -1.3130   20.6470  -27.2550 C   0  0  0  0  0  0  0  0  0  0  0  0
   -0.5370   19.6380  -28.0460 N   0  0  0  0  0  0  0  0  0  0  0  0
   -0.7350   18.2750  -27.4810 C   0  0  0  0  0  0  0  0  0  0  0  0
   -0.8970   19.6080  -29.4840 C   0  0  0  0  0  0  0  0  0  0  0  0
   -0.6240   20.9630  -30.1150 C   0  0  0  0  0  0  0  0  0  0  0  0
   -7.1120   22.9870  -30.6750 C   0  0  0  0  0  0  0  0  0  0  0  0
   -7.5930   21.8040  -31.2400 C   0  0  0  0  0  0  0  0  0  0  0  0
   -6.7580   21.0080  -32.0340 C   0  0  0  0  0  0  0  0  0  0  0  0
   -7.3120   19.7730  -32.6890 C   0  0  0  0  0  0  0  0  0  0  0  0
   -5.4110   16.0960  -31.8750 C   0  0  0  0  0  0  0  0  0  0  0  0
   -4.6180   15.0260  -31.5940 N   0  0  0  0  0  0  0  0  0  0  0  0
   -2.6750   11.0510  -32.7056 H   0  0  0  0  0  0  0  0  0  0  0  0
   -3.8573   11.7752  -33.8476 H   0  0  0  0  0  0  0  0  0  0  0  0
   -2.1503   12.3344  -33.8476 H   0  0  0  0  0  0  0  0  0  0  0  0
   -4.1566   13.7665  -34.6969 H   0  0  0  0  0  0  0  0  0  0  0  0
   -5.6432   15.6966  -35.2513 H   0  0  0  0  0  0  0  0  0  0  0  0
   -6.8056   17.6079  -34.6039 H   0  0  0  0  0  0  0  0  0  0  0  0
   -7.6619   17.3378  -33.0074 H   0  0  0  0  0  0  0  0  0  0  0  0
   -4.4758   18.7113  -34.1988 H   0  0  0  0  0  0  0  0  0  0  0  0
   -5.7083   19.8922  -34.7607 H   0  0  0  0  0  0  0  0  0  0  0  0
   -3.7564   20.1239  -32.4317 H   0  0  0  0  0  0  0  0  0  0  0  0
   -4.0086   21.2358  -33.8517 H   0  0  0  0  0  0  0  0  0  0  0  0
   -3.9278   22.9457  -31.9137 H   0  0  0  0  0  0  0  0  0  0  0  0
   -1.8313   23.1302  -31.2337 H   0  0  0  0  0  0  0  0  0  0  0  0
   -2.6604   22.8190  -26.3222 H   0  0  0  0  0  0  0  0  0  0  0  0
   -4.4730   25.5110  -27.9740 H   0  0  0  0  0  0  0  0  0  0  0  0
   -0.6850   20.9826  -26.4166 H   0  0  0  0  0  0  0  0  0  0  0  0
   -2.2357   20.1451  -26.9283 H   0  0  0  0  0  0  0  0  0  0  0  0
   -0.7272   18.3288  -26.3823 H   0  0  0  0  0  0  0  0  0  0  0  0
   -1.7009   17.8736  -27.8216 H   0  0  0  0  0  0  0  0  0  0  0  0
    0.0768   17.6154  -27.8216 H   0  0  0  0  0  0  0  0  0  0  0  0
   -0.2963   18.8406  -29.9942 H   0  0  0  0  0  0  0  0  0  0  0  0
   -1.9665   19.3713  -29.5842 H   0  0  0  0  0  0  0  0  0  0  0  0
    0.4379   21.2224  -29.9922 H   0  0  0  0  0  0  0  0  0  0  0  0
   -0.8602   20.9332  -31.1889 H   0  0  0  0  0  0  0  0  0  0  0  0
   -7.7680   23.5928  -30.0326 H   0  0  0  0  0  0  0  0  0  0  0  0
   -8.6335   21.4957  -31.0604 H   0  0  0  0  0  0  0  0  0  0  0  0
   -8.0244   19.2868  -32.0063 H   0  0  0  0  0  0  0  0  0  0  0  0
   -7.8231   20.0564  -33.6209 H   0  0  0  0  0  0  0  0  0  0  0  0
   -5.7517   16.7527  -31.0610 H   0  0  0  0  0  0  0  0  0  0  0  0
  1  2  1  0
  2  3  2  0
  2  4  1  0
  4  5  2  0
  5  6  1  0
  6  7  2  0
  7  8  1  0
  8  9  1  0
  9 10  1  0
 10 11  1  0
 11 12  1  0
 12 13  2  0
 13 14  1  0
 14 15  1  0
 15 16  2  0
 15 17  2  0
 15 18  1  0
 18 19  1  0
 19 20  2  0
 20 21  1  0
 21 22  2  0
 22 23  1  0
 23 24  2  0
 24 25  1  0
 22 26  1  0
 26 27  1  0
 27 28  1  0
 27 29  1  0
 29 30  1  0
 14 31  2  0
 31 32  1  0
 32 33  2  0
 33 34  1  0
  7 35  1  0
 35 36  2  0
 36  4  1  0
 34  9  1  0
 33 12  1  0
 24 19  1  0
 30 21  1  0
  1 37  1  0
  1 38  1  0
  1 39  1  0
  5 40  1  0
  6 41  1  0
  8 42  1  0
  8 43  1  0
 10 44  1  0
 10 45  1  0
 11 46  1  0
 11 47  1  0
 13 48  1  0
 20 49  1  0
 23 50  1  0
 25 51  1  0
 26 52  1  0
 26 53  1  0
 28 54  1  0
 28 55  1  0
 28 56  1  0
 29 57  1  0
 29 58  1  0
 30 59  1  0
 30 60  1  0
 31 61  1  0
 32 62  1  0
 34 63  1  0
 34 64  1  0
 35 65  1  0
M  CHG  1  18  -1
M  END
>  <UniqueID>  (15) 
15

>  <SMILES>  (15) 
CC(=O)c1ccc(CN2CCc3cc(S(=O)(=O)[N-]c4cc5c(cc4O)CN(C)CC5)ccc3C2)cn1

>  <Energy>  (15) 
89.66405406376194

>  <Genealogy>  (15) 
CC(=O)c1ccc(CN2CCc3cc(S(=O)(=O)[N-]c4cc5c(cc4O)CN(C)CC5)ccc3C2)cn1 (protonated)
CC(=O)c1ccc(CN2CCc3cc(S(=O)(=O)[N-]c4cc5c(cc4O)CN(C)CC5)ccc3C2)cn1 (3D coordinates assigned)
CC(=O)c1ccc(CN2CCc3cc(S(=O)(=O)[N-]c4cc5c(cc4O)CN(C)CC5)ccc3C2)cn1 (nonaromatic ring conformer: 89.66405406376194 kcal/mol)

>  <smiles>  (15) 
CC(=O)c1ccc(CN2CCc3cc(S(=O)(=O)Nc4cc5c(cc4O)CN(C)CC5)ccc3C2)cn1

>  <score_type>  (15) 
oracle

>  <origin>  (15) 
adgpu

>  <m_score__min__energy>  (15) 
-11.949999999999999

>  <m_primary>  (15) 
energy

$$$$
15:0
     RDKit          3D

 30 32  0  0  0  0  0  0  0  0999 V2000
   -5.4370   15.9030  -34.2330 C   0  0  0  0  0  0  0  0  0  0  0  0
   -6.0400   17.1260  -33.6270 C   0  0  0  0  0  0  0  0  0  0  0  0
   -5.5290   18.4210  -33.7300 C   0  0  0  0  0  0  0  0  0  0  0  0
   -6.4810   19.1800  -33.0860 C   0  0  0  0  0  0  0  0  0  0  0  0
   -6.4950   20.5240  -32.9050 N   0  0  0  0  0  0  0  0  0  0  0  0
   -7.5540   21.0920  -32.2520 C   0  0  0  0  0  0  0  0  0  0  0  0
   -7.5900   22.5800  -32.0710 C   0  0  0  0  0  0  0  0  0  0  0  0
   -7.3570   23.0280  -30.3160 S   0  0  0  0  0  0  0  0  0  0  0  0
   -5.7650   23.8200  -30.5680 C   0  0  0  0  0  0  0  0  0  0  0  0
   -5.5910   25.1500  -30.6690 N   0  0  0  0  0  0  0  0  0  0  0  0
   -4.2860   25.3110  -30.8560 N   0  0  0  0  0  0  0  0  0  0  0  0
   -3.6790   24.1330  -30.8670 N   0  0  0  0  0  0  0  0  0  0  0  0
   -4.5830   23.1900  -30.6750 N   0  0  0  0  0  0  0  0  0  0  0  0
   -4.3020   21.7600  -30.6660 C   0  0  0  0  0  0  0  0  0  0  0  0
   -8.6170   20.2830  -31.7850 C   0  0  0  0  0  0  0  0  0  0  0  0
   -8.5590   18.8990  -32.0010 C   0  0  0  0  0  0  0  0  0  0  0  0
   -9.4880   18.1430  -31.6090 O   0  0  0  0  0  0  0  0  0  0  0  0
   -7.4770   18.4020  -32.6500 N   0  0  0  0  0  0  0  0  0  0  0  0
   -7.2270   17.1460  -32.9780 N   0  0  0  0  0  0  0  0  0  0  0  0
   -5.1026   15.2247  -33.4342 H   0  0  0  0  0  0  0  0  0  0  0  0
   -6.1875   15.3942  -34.8558 H   0  0  0  0  0  0  0  0  0  0  0  0
   -4.5764   16.1885  -34.8558 H   0  0  0  0  0  0  0  0  0  0  0  0
   -4.5957   18.7535  -34.2079 H   0  0  0  0  0  0  0  0  0  0  0  0
   -6.7866   23.0352  -32.6687 H   0  0  0  0  0  0  0  0  0  0  0  0
   -8.5715   22.9509  -32.4014 H   0  0  0  0  0  0  0  0  0  0  0  0
   -4.2325   21.4065  -29.6267 H   0  0  0  0  0  0  0  0  0  0  0  0
   -5.1120   21.2239  -31.1823 H   0  0  0  0  0  0  0  0  0  0  0  0
   -3.3494   21.5703  -31.1823 H   0  0  0  0  0  0  0  0  0  0  0  0
   -9.4739   20.7322  -31.2616 H   0  0  0  0  0  0  0  0  0  0  0  0
   -7.8500   16.3310  -32.7800 H   0  0  0  0  0  0  0  0  0  0  0  0
  1  2  1  0
  2  3  2  0
  3  4  1  0
  4  5  2  0
  5  6  1  0
  6  7  1  0
  7  8  1  0
  8  9  1  0
  9 10  2  0
 10 11  1  0
 11 12  2  0
 12 13  1  0
 13 14  1  0
  6 15  2  0
 15 16  1  0
 16 17  2  0
 16 18  1  0
 18 19  1  0
 19  2  1  0
 18  4  1  0
 13  9  1  0
  1 20  1  0
  1 21  1  0
  1 22  1  0
  3 23  1  0
  7 24  1  0
  7 25  1  0
 14 26  1  0
 14 27  1  0
 14 28  1  0
 15 29  1  0
 19 30  1  0
M  END
>  <UniqueID>  (16) 
16

>  <SMILES>  (16) 
Cc1cc2nc(CSc3nnnn3C)cc(=O)n2[nH]1

>  <Energy>  (16) 
102.69651620187129

>  <Genealogy>  (16) 
Cc1cc2nc(CSc3nnnn3C)cc(=O)n2[nH]1 (3D coordinates assigned)
Cc1cc2nc(CSc3nnnn3C)cc(=O)n2[nH]1 (optimized conformer: 102.69651620187129 kcal/mol)

>  <smiles>  (16) 
Cc1cc2nc(CSc3nnnn3C)cc(=O)n2[nH]1

>  <score_type>  (16) 
oracle

>  <origin>  (16) 
adgpu

>  <m_score__min__energy>  (16) 
-8.1600000000000001

>  <m_primary>  (16) 
energy

$$$$
16:0
     RDKit          3D

 59 62  0  0  0  0  0  0  0  0999 V2000
   -0.2840   20.1330  -30.3150 C   0  0  0  0  0  0  0  0  0  0  0  0
   -1.3680   21.0940  -30.1590 N   0  0  0  0  0  0  0  0  0  0  0  0
   -2.6900   20.8310  -30.1800 C   0  0  0  0  0  0  0  0  0  0  0  0
   -3.4380   21.9220  -29.9070 N   0  0  0  0  0  0  0  0  0  0  0  0
   -2.5260   22.8930  -29.7000 C   0  0  0  0  0  0  0  0  0  0  0  0
   -2.9380   24.5440  -29.2730 S   0  0  0  0  0  0  0  0  0  0  0  0
   -3.7210   24.5530  -27.9900 O   0  0  0  0  0  0  0  0  0  0  0  0
   -1.6720   25.3270  -29.0700 O   0  0  0  0  0  0  0  0  0  0  0  0
   -3.8600   25.2740  -30.5550 N   0  0  0  0  0  0  0  0  0  0  0  0
   -5.2030   25.6430  -30.1010 C   0  0  0  0  0  0  0  0  0  0  0  0
   -6.2800   25.0210  -30.9940 C   0  0  0  0  0  0  0  0  0  0  0  0
   -5.8100   23.8160  -31.6030 O   0  0  0  0  0  0  0  0  0  0  0  0
   -6.5500   22.6360  -31.7870 C   0  0  0  0  0  0  0  0  0  0  0  0
   -7.9560   22.6080  -31.8030 C   0  0  0  0  0  0  0  0  0  0  0  0
   -8.6330   21.4010  -31.9820 C   0  0  0  0  0  0  0  0  0  0  0  0
   -7.9220   20.2020  -32.1390 C   0  0  0  0  0  0  0  0  0  0  0  0
   -6.5120   20.2180  -32.1520 C   0  0  0  0  0  0  0  0  0  0  0  0
   -5.8430   21.4400  -31.9510 C   0  0  0  0  0  0  0  0  0  0  0  0
   -5.6930   18.9520  -32.3940 C   0  0  2  0  0  0  0  0  0  0  0  0
   -5.0220   19.0530  -33.7890 C   0  0  0  0  0  0  0  0  0  0  0  0
   -3.5720   19.4570  -33.7070 C   0  0  0  0  0  0  0  0  0  0  0  0
   -2.5620   18.4940  -33.8680 C   0  0  0  0  0  0  0  0  0  0  0  0
   -1.2160   18.8690  -33.8190 C   0  0  0  0  0  0  0  0  0  0  0  0
   -0.8690   20.2060  -33.6100 C   0  0  0  0  0  0  0  0  0  0  0  0
   -1.8680   21.1710  -33.4490 C   0  0  0  0  0  0  0  0  0  0  0  0
   -3.2160   20.8010  -33.4960 C   0  0  0  0  0  0  0  0  0  0  0  0
   -6.5080   17.6120  -32.2510 C   0  0  1  0  0  0  0  0  0  0  0  0
   -5.7360   16.6040  -31.5100 N   0  0  0  0  0  0  0  0  0  0  0  0
   -7.8820   17.7990  -31.5820 C   0  0  0  0  0  0  0  0  0  0  0  0
   -8.6640   18.9070  -32.2780 C   0  0  0  0  0  0  0  0  0  0  0  0
   -1.2520   22.3930  -29.8410 C   0  0  0  0  0  0  0  0  0  0  0  0
    0.0719   19.8175  -29.3231 H   0  0  0  0  0  0  0  0  0  0  0  0
   -0.6486   19.2559  -30.8698 H   0  0  0  0  0  0  0  0  0  0  0  0
    0.5431   20.6001  -30.8698 H   0  0  0  0  0  0  0  0  0  0  0  0
   -3.1125   19.8385  -30.3955 H   0  0  0  0  0  0  0  0  0  0  0  0
   -5.3432   25.2878  -29.0694 H   0  0  0  0  0  0  0  0  0  0  0  0
   -5.2989   26.7377  -30.1508 H   0  0  0  0  0  0  0  0  0  0  0  0
   -7.1658   24.7930  -30.3830 H   0  0  0  0  0  0  0  0  0  0  0  0
   -6.5329   25.7387  -31.7884 H   0  0  0  0  0  0  0  0  0  0  0  0
   -8.5242   23.5410  -31.6739 H   0  0  0  0  0  0  0  0  0  0  0  0
   -9.7328   21.3897  -32.0001 H   0  0  0  0  0  0  0  0  0  0  0  0
   -4.7435   21.4549  -31.9223 H   0  0  0  0  0  0  0  0  0  0  0  0
   -4.9338   18.8991  -31.5997 H   0  0  0  0  0  0  0  0  0  0  0  0
   -5.0871   18.0724  -34.2831 H   0  0  0  0  0  0  0  0  0  0  0  0
   -5.5527   19.8302  -34.3584 H   0  0  0  0  0  0  0  0  0  0  0  0
   -2.8313   17.4404  -34.0333 H   0  0  0  0  0  0  0  0  0  0  0  0
   -0.4294   18.1105  -33.9451 H   0  0  0  0  0  0  0  0  0  0  0  0
    0.1904   20.4997  -33.5721 H   0  0  0  0  0  0  0  0  0  0  0  0
   -1.5931   22.2234  -33.2850 H   0  0  0  0  0  0  0  0  0  0  0  0
   -3.9992   21.5627  -33.3677 H   0  0  0  0  0  0  0  0  0  0  0  0
   -6.6901   17.2645  -33.2787 H   0  0  0  0  0  0  0  0  0  0  0  0
   -6.0770   16.5300  -30.5270 H   0  0  0  0  0  0  0  0  0  0  0  0
   -5.8200   15.6670  -31.9700 H   0  0  0  0  0  0  0  0  0  0  0  0
   -4.7270   16.8780  -31.4810 H   0  0  0  0  0  0  0  0  0  0  0  0
   -8.4486   16.8585  -31.6482 H   0  0  0  0  0  0  0  0  0  0  0  0
   -7.7316   18.0755  -30.5280 H   0  0  0  0  0  0  0  0  0  0  0  0
   -8.7780   18.6618  -33.3443 H   0  0  0  0  0  0  0  0  0  0  0  0
   -9.6580   19.0013  -31.8164 H   0  0  0  0  0  0  0  0  0  0  0  0
   -0.3135   22.9531  -29.7164 H   0  0  0  0  0  0  0  0  0  0  0  0
  1  2  1  0
  2  3  1  0
  3  4  2  0
  4  5  1  0
  5  6  1  0
  6  7  2  0
  6  8  2  0
  6  9  1  0
  9 10  1  0
 10 11  1  0
 11 12  1  0
 12 13  1  0
 13 14  2  0
 14 15  1  0
 15 16  2  0
 16 17  1  0
 17 18  2  0
 17 19  1  0
 19 20  1  0
 20 21  1  0
 21 22  2  0
 22 23  1  0
 23 24  2  0
 24 25  1  0
 25 26  2  0
 19 27  1  0
 27 28  1  0
 27 29  1  0
 29 30  1  0
  5 31  2  0
 31  2  1  0
 18 13  1  0
 26 21  1  0
 30 16  1  0
  1 32  1  0
  1 33  1  0
  1 34  1  0
  3 35  1  0
 10 36  1  0
 10 37  1  0
 11 38  1  0
 11 39  1  0
 14 40  1  0
 15 41  1  0
 18 42  1  0
 19 43  1  1
 20 44  1  0
 20 45  1  0
 22 46  1  0
 23 47  1  0
 24 48  1  0
 25 49  1  0
 26 50  1  0
 27 51  1  6
 28 52  1  0
 28 53  1  0
 28 54  1  0
 29 55  1  0
 29 56  1  0
 30 57  1  0
 30 58  1  0
 31 59  1  0
M  CHG  2   9  -1  28   1
M  END
>  <UniqueID>  (17) 
17

>  <SMILES>  (17) 
Cn1cnc(S(=O)(=O)[N-]CCOc2ccc3c(c2)[C@H](Cc2ccccc2)[C@@H]([NH3+])CC3)c1

>  <Energy>  (17) 
92.28391437790002

>  <Genealogy>  (17) 
Cn1cnc(S(=O)(=O)[N-]CCOc2ccc3c(c2)C(Cc2ccccc2)C([NH3+])CC3)c1 (protonated)
Cn1cnc(S(=O)(=O)[N-]CCOc2ccc3c(c2)[C@H](Cc2ccccc2)[C@@H]([NH3+])CC3)c1 (chirality)
Cn1cnc(S(=O)(=O)[N-]CCOc2ccc3c(c2)[C@H](Cc2ccccc2)[C@@H]([NH3+])CC3)c1 (3D coordinates assigned)
Cn1cnc(S(=O)(=O)[N-]CCOc2ccc3c(c2)[C@H](Cc2ccccc2)[C@@H]([NH3+])CC3)c1 (nonaromatic ring conformer: 92.28391437790002 kcal/mol)

>  <smiles>  (17) 
Cn1cnc(S(=O)(=O)NCCOc2ccc3c(c2)C(Cc2ccccc2)C(N)CC3)c1

>  <score_type>  (17) 
oracle

>  <origin>  (17) 
adgpu

>  <m_score__min__energy>  (17) 
-10.699999999999999

>  <m_primary>  (17) 
energy

$$$$
17:0
     RDKit          3D

 44 46  0  0  0  0  0  0  0  0999 V2000
   -1.2190   23.1940  -27.5780 C   0  0  0  0  0  0  0  0  0  0  0  0
   -2.2770   23.5410  -28.5200 N   0  0  0  0  0  0  0  0  0  0  0  0
   -3.4120   22.8410  -28.7380 C   0  0  0  0  0  0  0  0  0  0  0  0
   -4.2200   23.5220  -29.6410 C   0  0  0  0  0  0  0  0  0  0  0  0
   -5.5340   23.0950  -30.1600 C   0  0  0  0  0  0  0  0  0  0  0  0
   -6.5090   23.0080  -29.3690 O   0  0  0  0  0  0  0  0  0  0  0  0
   -5.7500   22.8330  -31.5530 N   0  0  0  0  0  0  0  0  0  0  0  0
   -5.7110   21.5460  -32.1830 C   0  0  0  0  0  0  0  0  0  0  0  0
   -6.8610   20.7430  -32.2910 C   0  0  0  0  0  0  0  0  0  0  0  0
   -6.7980   19.5030  -32.9320 C   0  0  0  0  0  0  0  0  0  0  0  0
   -5.5920   19.0580  -33.4910 C   0  0  0  0  0  0  0  0  0  0  0  0
   -5.5200   17.5020  -34.3220 S   0  0  0  0  0  0  0  0  0  0  0  0
   -5.2780   17.7360  -35.7880 O   0  0  0  0  0  0  0  0  0  0  0  0
   -6.8420   16.7990  -34.1750 O   0  0  0  0  0  0  0  0  0  0  0  0
   -4.2450   16.4890  -33.6830 N   0  0  0  0  0  0  0  0  0  0  0  0
   -4.7310   15.6390  -32.5670 C   0  0  0  0  0  0  0  0  0  0  0  0
   -4.9850   14.1840  -32.9910 C   0  0  0  0  0  0  0  0  0  0  0  0
   -3.7100   13.5370  -33.5640 C   0  0  0  0  0  0  0  0  0  0  0  0
   -2.7810   14.5570  -34.2450 C   0  0  0  0  0  0  0  0  0  0  0  0
   -3.5770   15.7520  -34.7790 C   0  0  0  0  0  0  0  0  0  0  0  0
   -4.4500   19.8660  -33.3990 C   0  0  0  0  0  0  0  0  0  0  0  0
   -4.5140   21.1060  -32.7580 C   0  0  0  0  0  0  0  0  0  0  0  0
   -3.5330   24.6760  -29.9700 C   0  0  0  0  0  0  0  0  0  0  0  0
   -3.9550   25.6750  -30.8400 O   0  0  0  0  0  0  0  0  0  0  0  0
   -2.3570   24.6620  -29.2610 C   0  0  0  0  0  0  0  0  0  0  0  0
   -1.3880   25.6580  -29.2840 O   0  0  0  0  0  0  0  0  0  0  0  0
   -1.5895   23.3155  -26.5494 H   0  0  0  0  0  0  0  0  0  0  0  0
   -0.9147   22.1490  -27.7371 H   0  0  0  0  0  0  0  0  0  0  0  0
   -0.3549   23.8558  -27.7371 H   0  0  0  0  0  0  0  0  0  0  0  0
   -3.6595   21.8764  -28.2707 H   0  0  0  0  0  0  0  0  0  0  0  0
   -7.8145   21.0930  -31.8688 H   0  0  0  0  0  0  0  0  0  0  0  0
   -7.6979   18.8739  -32.9982 H   0  0  0  0  0  0  0  0  0  0  0  0
   -3.9762   15.6448  -31.7668 H   0  0  0  0  0  0  0  0  0  0  0  0
   -5.6904   16.0564  -32.2275 H   0  0  0  0  0  0  0  0  0  0  0  0
   -5.3161   13.6080  -32.1143 H   0  0  0  0  0  0  0  0  0  0  0  0
   -5.7578   14.1805  -33.7738 H   0  0  0  0  0  0  0  0  0  0  0  0
   -3.1605   13.0544  -32.7423 H   0  0  0  0  0  0  0  0  0  0  0  0
   -4.0213   12.8093  -34.3280 H   0  0  0  0  0  0  0  0  0  0  0  0
   -2.0417   14.9150  -33.5134 H   0  0  0  0  0  0  0  0  0  0  0  0
   -2.2784   14.0642  -35.0903 H   0  0  0  0  0  0  0  0  0  0  0  0
   -2.8908   16.4339  -35.3026 H   0  0  0  0  0  0  0  0  0  0  0  0
   -4.3504   15.3745  -35.4641 H   0  0  0  0  0  0  0  0  0  0  0  0
   -3.4996   19.5224  -33.8333 H   0  0  0  0  0  0  0  0  0  0  0  0
   -3.6170   21.7405  -32.7052 H   0  0  0  0  0  0  0  0  0  0  0  0
  1  2  1  0
  2  3  1  0
  3  4  2  0
  4  5  1  0
  5  6  2  0
  5  7  1  0
  7  8  1  0
  8  9  2  0
  9 10  1  0
 10 11  2  0
 11 12  1  0
 12 13  2  0
 12 14  2  0
 12 15  1  0
 15 16  1  0
 16 17  1  0
 17 18  1  0
 18 19  1  0
 19 20  1  0
 11 21  1  0
 21 22  2  0
  4 23  1  0
 23 24  1  0
 23 25  2  0
 25 26  1  0
 25  2  1  0
 22  8  1  0
 20 15  1  0
  1 27  1  0
  1 28  1  0
  1 29  1  0
  3 30  1  0
  9 31  1  0
 10 32  1  0
 16 33  1  0
 16 34  1  0
 17 35  1  0
 17 36  1  0
 18 37  1  0
 18 38  1  0
 19 39  1  0
 19 40  1  0
 20 41  1  0
 20 42  1  0
 21 43  1  0
 22 44  1  0
M  CHG  3   7  -1  24  -1  26  -1
M  END
>  <UniqueID>  (18) 
18

>  <SMILES>  (18) 
Cn1cc(C(=O)[N-]c2ccc(S(=O)(=O)N3CCCCC3)cc2)c([O-])c1[O-]

>  <Energy>  (18) 
83.29503272586419

>  <Genealogy>  (18) 
Cn1cc(C(=O)[N-]c2ccc(S(=O)(=O)N3CCCCC3)cc2)c([O-])c1[O-] (protonated)
Cn1cc(C(=O)[N-]c2ccc(S(=O)(=O)N3CCCCC3)cc2)c([O-])c1[O-] (3D coordinates assigned)
Cn1cc(C(=O)[N-]c2ccc(S(=O)(=O)N3CCCCC3)cc2)c([O-])c1[O-] (nonaromatic ring conformer: 83.29503272586419 kcal/mol)

>  <smiles>  (18) 
Cn1cc(C(=O)Nc2ccc(S(=O)(=O)N3CCCCC3)cc2)c(O)c1O

>  <score_type>  (18) 
oracle

>  <origin>  (18) 
adgpu

>  <m_score__min__energy>  (18) 
-13.619999999999999

>  <m_primary>  (18) 
energy

$$$$
18:0
     RDKit          3D

 47 51  0  0  0  0  0  0  0  0999 V2000
   -0.5290   26.7450  -22.7970 C   0  0  0  0  0  0  0  0  0  0  0  0
   -0.8500   26.9640  -24.5370 S   0  0  0  0  0  0  0  0  0  0  0  0
   -0.9120   28.4350  -24.8410 O   0  0  0  0  0  0  0  0  0  0  0  0
   -2.1880   26.3500  -24.8440 O   0  0  0  0  0  0  0  0  0  0  0  0
    0.3760   26.1760  -25.5130 N   0  0  2  0  0  0  0  0  0  0  0  0
    0.7050   26.9440  -26.7440 C   0  0  0  0  0  0  0  0  0  0  0  0
   -0.4580   27.0050  -27.7610 C   0  0  0  0  0  0  0  0  0  0  0  0
   -1.1130   25.6700  -27.8660 C   0  0  0  0  0  0  0  0  0  0  0  0
   -2.0050   25.2910  -28.7940 N   0  0  0  0  0  0  0  0  0  0  0  0
   -2.3350   24.0330  -28.4080 C   0  0  0  0  0  0  0  0  0  0  0  0
   -3.3050   23.1980  -29.1420 C   0  0  0  0  0  0  0  0  0  0  0  0
   -3.3060   21.8070  -29.3080 C   0  0  0  0  0  0  0  0  0  0  0  0
   -2.4190   20.8230  -28.6550 C   0  0  0  0  0  0  0  0  0  0  0  0
   -2.7980   20.1880  -27.4600 C   0  0  0  0  0  0  0  0  0  0  0  0
   -1.9560   19.2420  -26.8670 C   0  0  0  0  0  0  0  0  0  0  0  0
   -0.7410   18.9110  -27.4690 C   0  0  0  0  0  0  0  0  0  0  0  0
   -0.3670   19.5190  -28.6700 C   0  0  0  0  0  0  0  0  0  0  0  0
   -1.2050   20.4660  -29.2660 C   0  0  0  0  0  0  0  0  0  0  0  0
   -4.3000   21.4430  -30.1510 N   0  0  0  0  0  0  0  0  0  0  0  0
   -4.9250   22.5500  -30.5110 N   0  0  0  0  0  0  0  0  0  0  0  0
   -5.9780   22.6290  -31.3630 C   0  0  0  0  0  0  0  0  0  0  0  0
   -6.5040   23.8950  -31.6560 C   0  0  0  0  0  0  0  0  0  0  0  0
   -5.9260   25.0370  -31.0710 C   0  0  0  0  0  0  0  0  0  0  0  0
   -4.8350   24.9120  -30.1970 C   0  0  0  0  0  0  0  0  0  0  0  0
   -4.3630   23.6230  -29.9300 C   0  0  0  0  0  0  0  0  0  0  0  0
   -1.7090   23.6220  -27.2790 N   0  0  0  0  0  0  0  0  0  0  0  0
   -0.9560   24.6820  -26.9460 C   0  0  0  0  0  0  0  0  0  0  0  0
    0.0060   24.7690  -25.8020 C   0  0  0  0  0  0  0  0  0  0  0  0
   -1.2991   27.2704  -22.2131 H   0  0  0  0  0  0  0  0  0  0  0  0
   -0.5511   25.6728  -22.5522 H   0  0  0  0  0  0  0  0  0  0  0  0
    0.4612   27.1567  -22.5522 H   0  0  0  0  0  0  0  0  0  0  0  0
    1.2410   26.1550  -24.9230 H   0  0  0  0  0  0  0  0  0  0  0  0
    0.9680   27.9718  -26.4535 H   0  0  0  0  0  0  0  0  0  0  0  0
    1.5395   26.4239  -27.2370 H   0  0  0  0  0  0  0  0  0  0  0  0
   -1.1967   27.7480  -27.4258 H   0  0  0  0  0  0  0  0  0  0  0  0
   -0.0618   27.2917  -28.7463 H   0  0  0  0  0  0  0  0  0  0  0  0
   -3.7607   20.4361  -26.9892 H   0  0  0  0  0  0  0  0  0  0  0  0
   -2.2517   18.7579  -25.9245 H   0  0  0  0  0  0  0  0  0  0  0  0
   -0.0775   18.1710  -26.9976 H   0  0  0  0  0  0  0  0  0  0  0  0
    0.5876   19.2523  -29.1470 H   0  0  0  0  0  0  0  0  0  0  0  0
   -0.9127   20.9339  -30.2177 H   0  0  0  0  0  0  0  0  0  0  0  0
   -6.4083   21.7221  -31.8127 H   0  0  0  0  0  0  0  0  0  0  0  0
   -7.3616   23.9949  -32.3376 H   0  0  0  0  0  0  0  0  0  0  0  0
   -6.3317   26.0335  -31.3001 H   0  0  0  0  0  0  0  0  0  0  0  0
   -4.3680   25.7961  -29.7385 H   0  0  0  0  0  0  0  0  0  0  0  0
   -0.4607   24.3305  -24.9076 H   0  0  0  0  0  0  0  0  0  0  0  0
    0.9191   24.2195  -26.0745 H   0  0  0  0  0  0  0  0  0  0  0  0
  1  2  1  0
  2  3  2  0
  2  4  2  0
  2  5  1  0
  5  6  1  0
  6  7  1  0
  7  8  1  0
  8  9  1  0
  9 10  1  0
 10 11  1  0
 11 12  1  0
 12 13  1  0
 13 14  2  0
 14 15  1  0
 15 16  2  0
 16 17  1  0
 17 18  2  0
 12 19  2  0
 19 20  1  0
 20 21  1  0
 21 22  2  0
 22 23  1  0
 23 24  2  0
 24 25  1  0
 10 26  2  0
 26 27  1  0
 27 28  1  0
 28  5  1  0
 27  8  2  0
 25 11  2  0
 18 13  1  0
 25 20  1  0
  1 29  1  0
  1 30  1  0
  1 31  1  0
  5 32  1  1
  6 33  1  0
  6 34  1  0
  7 35  1  0
  7 36  1  0
 14 37  1  0
 15 38  1  0
 16 39  1  0
 17 40  1  0
 18 41  1  0
 21 42  1  0
 22 43  1  0
 23 44  1  0
 24 45  1  0
 28 46  1  0
 28 47  1  0
M  CHG  2   5   1   9  -1
M  END
>  <UniqueID>  (19) 
19

>  <SMILES>  (19) 
CS(=O)(=O)[N@@H+]1CCc2[n-]c(-c3c(-c4ccccc4)nn4ccccc34)nc2C1

>  <Energy>  (19) 
123.11578466283403

>  <Genealogy>  (19) 
CS(=O)(=O)[NH+]1CCc2[n-]c(-c3c(-c4ccccc4)nn4ccccc34)nc2C1 (protonated)
CS(=O)(=O)[N@@H+]1CCc2[n-]c(-c3c(-c4ccccc4)nn4ccccc34)nc2C1 (chirality)
CS(=O)(=O)[N@@H+]1CCc2[n-]c(-c3c(-c4ccccc4)nn4ccccc34)nc2C1 (3D coordinates assigned)
CS(=O)(=O)[N@@H+]1CCc2[n-]c(-c3c(-c4ccccc4)nn4ccccc34)nc2C1 (nonaromatic ring conformer: 123.11578466283403 kcal/mol)

>  <smiles>  (19) 
CS(=O)(=O)N1CCc2[nH]c(-c3c(-c4ccccc4)nn4ccccc34)nc2C1

>  <score_type>  (19) 
oracle

>  <origin>  (19) 
adgpu

>  <m_score__min__energy>  (19) 
-8.9600000000000009

>  <m_primary>  (19) 
energy

$$$$
19:0
     RDKit          3D

 58 61  0  0  0  0  0  0  0  0999 V2000
    0.6450   18.7360  -30.4870 C   0  0  0  0  0  0  0  0  0  0  0  0
   -0.1500   18.4890  -31.7360 C   0  0  0  0  0  0  0  0  0  0  0  0
    0.1060   17.4510  -32.4080 O   0  0  0  0  0  0  0  0  0  0  0  0
   -1.1950   19.3880  -32.1780 N   0  0  0  0  0  0  0  0  0  0  0  0
   -1.8960   19.0800  -33.4390 C   0  0  0  0  0  0  0  0  0  0  0  0
   -2.9350   20.1480  -33.7940 C   0  0  0  0  0  0  0  0  0  0  0  0
   -3.7250   20.4880  -32.6090 N   0  0  0  0  0  0  0  0  0  0  0  0
   -5.1590   20.3990  -32.6510 C   0  0  0  0  0  0  0  0  0  0  0  0
   -5.7010   19.3670  -33.1340 O   0  0  0  0  0  0  0  0  0  0  0  0
   -6.0060   21.5050  -32.1530 C   0  0  0  0  0  0  0  0  0  0  0  0
   -7.3880   21.5140  -32.4080 C   0  0  0  0  0  0  0  0  0  0  0  0
   -8.1820   22.5700  -31.9510 C   0  0  0  0  0  0  0  0  0  0  0  0
   -7.6060   23.6280  -31.2420 C   0  0  0  0  0  0  0  0  0  0  0  0
   -6.2280   23.6330  -30.9870 C   0  0  0  0  0  0  0  0  0  0  0  0
   -5.4830   24.9620  -30.1070 S   0  0  0  0  0  0  0  0  0  0  0  0
   -6.4850   26.0570  -29.8630 O   0  0  0  0  0  0  0  0  0  0  0  0
   -4.3420   25.5100  -30.9170 O   0  0  0  0  0  0  0  0  0  0  0  0
   -4.9100   24.3820  -28.5760 N   0  0  0  0  0  0  0  0  0  0  0  0
   -3.7430   23.5660  -28.4550 C   0  0  0  0  0  0  0  0  0  0  0  0
   -3.8720   22.2830  -27.9140 C   0  0  0  0  0  0  0  0  0  0  0  0
   -2.7640   21.4300  -27.8120 C   0  0  0  0  0  0  0  0  0  0  0  0
   -1.4900   21.8950  -28.2090 C   0  0  0  0  0  0  0  0  0  0  0  0
   -1.3620   23.1880  -28.7390 C   0  0  0  0  0  0  0  0  0  0  0  0
   -2.4730   24.0320  -28.8460 C   0  0  0  0  0  0  0  0  0  0  0  0
   -2.2800   25.3300  -29.3170 O   0  0  0  0  0  0  0  0  0  0  0  0
   -0.2720   21.0010  -28.1610 C   0  0  0  0  0  0  0  0  0  0  0  0
   -0.4430   19.8380  -27.1800 C   0  0  0  0  0  0  0  0  0  0  0  0
   -1.7700   19.1230  -27.4340 C   0  0  0  0  0  0  0  0  0  0  0  0
   -2.9510   20.0670  -27.1830 C   0  0  0  0  0  0  0  0  0  0  0  0
   -5.4320   22.5790  -31.4530 C   0  0  0  0  0  0  0  0  0  0  0  0
   -3.0550   20.7700  -31.3310 C   0  0  0  0  0  0  0  0  0  0  0  0
   -1.5330   20.6230  -31.4470 C   0  0  0  0  0  0  0  0  0  0  0  0
    0.0151   18.5403  -29.6067 H   0  0  0  0  0  0  0  0  0  0  0  0
    1.5177   18.0667  -30.4695 H   0  0  0  0  0  0  0  0  0  0  0  0
    0.9848   19.7821  -30.4695 H   0  0  0  0  0  0  0  0  0  0  0  0
   -1.1564   19.0204  -34.2510 H   0  0  0  0  0  0  0  0  0  0  0  0
   -2.4231   18.1232  -33.3096 H   0  0  0  0  0  0  0  0  0  0  0  0
   -2.4213   21.0489  -34.1607 H   0  0  0  0  0  0  0  0  0  0  0  0
   -3.6037   19.7573  -34.5752 H   0  0  0  0  0  0  0  0  0  0  0  0
   -7.8468   20.6868  -32.9694 H   0  0  0  0  0  0  0  0  0  0  0  0
   -9.2638   22.5683  -32.1501 H   0  0  0  0  0  0  0  0  0  0  0  0
   -8.2345   24.4568  -30.8841 H   0  0  0  0  0  0  0  0  0  0  0  0
   -4.8561   21.9383  -27.5637 H   0  0  0  0  0  0  0  0  0  0  0  0
   -0.3762   23.5425  -29.0745 H   0  0  0  0  0  0  0  0  0  0  0  0
   -3.0210   26.0170  -29.3430 H   0  0  0  0  0  0  0  0  0  0  0  0
   -0.0934   20.5923  -29.1665 H   0  0  0  0  0  0  0  0  0  0  0  0
    0.5781   21.6087  -27.8175 H   0  0  0  0  0  0  0  0  0  0  0  0
    0.3847   19.1258  -27.3132 H   0  0  0  0  0  0  0  0  0  0  0  0
   -0.4386   20.2316  -26.1528 H   0  0  0  0  0  0  0  0  0  0  0  0
   -1.7998   18.7771  -28.4778 H   0  0  0  0  0  0  0  0  0  0  0  0
   -1.8483   18.2682  -26.7462 H   0  0  0  0  0  0  0  0  0  0  0  0
   -3.8599   19.6099  -27.6014 H   0  0  0  0  0  0  0  0  0  0  0  0
   -3.0280   20.2148  -26.0957 H   0  0  0  0  0  0  0  0  0  0  0  0
   -4.3476   22.5924  -31.2691 H   0  0  0  0  0  0  0  0  0  0  0  0
   -3.2918   21.7992  -31.0233 H   0  0  0  0  0  0  0  0  0  0  0  0
   -3.4149   20.0447  -30.5865 H   0  0  0  0  0  0  0  0  0  0  0  0
   -1.1245   21.4890  -31.9884 H   0  0  0  0  0  0  0  0  0  0  0  0
   -1.0993   20.5726  -30.4374 H   0  0  0  0  0  0  0  0  0  0  0  0
  1  2  1  0
  2  3  2  0
  2  4  1  0
  4  5  1  0
  5  6  1  0
  6  7  1  0
  7  8  1  0
  8  9  2  0
  8 10  1  0
 10 11  2  0
 11 12  1  0
 12 13  2  0
 13 14  1  0
 14 15  1  0
 15 16  2  0
 15 17  2  0
 15 18  1  0
 18 19  1  0
 19 20  2  0
 20 21  1  0
 21 22  2  0
 22 23  1  0
 23 24  2  0
 24 25  1  0
 22 26  1  0
 26 27  1  0
 27 28  1  0
 28 29  1  0
 14 30  2  0
  7 31  1  0
 31 32  1  0
 32  4  1  0
 30 10  1  0
 24 19  1  0
 29 21  1  0
  1 33  1  0
  1 34  1  0
  1 35  1  0
  5 36  1  0
  5 37  1  0
  6 38  1  0
  6 39  1  0
 11 40  1  0
 12 41  1  0
 13 42  1  0
 20 43  1  0
 23 44  1  0
 25 45  1  0
 26 46  1  0
 26 47  1  0
 27 48  1  0
 27 49  1  0
 28 50  1  0
 28 51  1  0
 29 52  1  0
 29 53  1  0
 30 54  1  0
 31 55  1  0
 31 56  1  0
 32 57  1  0
 32 58  1  0
M  CHG  1  18  -1
M  END
>  <UniqueID>  (20) 
20

>  <SMILES>  (20) 
CC(=O)N1CCN(C(=O)c2cccc(S(=O)(=O)[N-]c3cc4c(cc3O)CCCC4)c2)CC1

>  <Energy>  (20) 
72.15672636158577

>  <Genealogy>  (20) 
CC(=O)N1CCN(C(=O)c2cccc(S(=O)(=O)[N-]c3cc4c(cc3O)CCCC4)c2)CC1 (protonated)
CC(=O)N1CCN(C(=O)c2cccc(S(=O)(=O)[N-]c3cc4c(cc3O)CCCC4)c2)CC1 (3D coordinates assigned)
CC(=O)N1CCN(C(=O)c2cccc(S(=O)(=O)[N-]c3cc4c(cc3O)CCCC4)c2)CC1 (nonaromatic ring conformer: 72.15672636158577 kcal/mol)

>  <smiles>  (20) 
CC(=O)N1CCN(C(=O)c2cccc(S(=O)(=O)Nc3cc4c(cc3O)CCCC4)c2)CC1

>  <score_type>  (20) 
oracle

>  <origin>  (20) 
adgpu

>  <m_score__min__energy>  (20) 
-13

>  <m_primary>  (20) 
energy

$$$$
20:0
     RDKit          3D

 56 58  0  0  0  0  0  0  0  0999 V2000
   -0.0210   24.9330  -28.5210 O   0  0  0  0  0  0  0  0  0  0  0  0
   -1.2100   25.2840  -28.2930 C   0  0  0  0  0  0  0  0  0  0  0  0
   -1.6390   25.5920  -26.8910 C   0  0  0  0  0  0  0  0  0  0  0  0
   -0.7190   24.9340  -25.8440 C   0  0  0  0  0  0  0  0  0  0  0  0
   -0.8440   23.3890  -25.7560 C   0  0  0  0  0  0  0  0  0  0  0  0
    0.5120   22.6680  -26.0100 C   0  0  0  0  0  0  0  0  0  0  0  0
    0.6460   22.1900  -27.4630 C   0  0  0  0  0  0  0  0  0  0  0  0
   -0.4540   21.1690  -27.8230 C   0  0  0  0  0  0  0  0  0  0  0  0
   -1.7860   21.4230  -27.0880 C   0  0  0  0  0  0  0  0  0  0  0  0
   -1.9590   22.9020  -26.7220 C   0  0  0  0  0  0  0  0  0  0  0  0
   -2.1830   25.2990  -29.3440 N   0  0  0  0  0  0  0  0  0  0  0  0
   -2.9450   24.1700  -29.7930 C   0  0  0  0  0  0  0  0  0  0  0  0
   -4.3390   24.2980  -29.8700 C   0  0  0  0  0  0  0  0  0  0  0  0
   -5.1320   23.2210  -30.2850 C   0  0  0  0  0  0  0  0  0  0  0  0
   -6.8840   23.4010  -30.3640 S   0  0  0  0  0  0  0  0  0  0  0  0
   -7.2320   24.8200  -29.9970 O   0  0  0  0  0  0  0  0  0  0  0  0
   -7.5270   22.4850  -29.3600 O   0  0  0  0  0  0  0  0  0  0  0  0
   -7.4470   23.0620  -31.9890 N   0  0  0  0  0  0  0  0  0  0  0  0
   -6.8170   21.8660  -32.5900 C   0  0  0  0  0  0  0  0  0  0  0  0
   -7.4140   20.5480  -32.0740 C   0  0  0  0  0  0  0  0  0  0  0  0
   -8.9340   20.5380  -32.2460 C   0  0  0  0  0  0  0  0  0  0  0  0
   -9.5610   21.7630  -31.5780 C   0  0  0  0  0  0  0  0  0  0  0  0
   -8.9220   23.0610  -32.0980 C   0  0  0  0  0  0  0  0  0  0  0  0
   -4.5230   22.0150  -30.6560 C   0  0  0  0  0  0  0  0  0  0  0  0
   -3.1320   21.8920  -30.6210 C   0  0  0  0  0  0  0  0  0  0  0  0
   -2.3340   22.9690  -30.2080 C   0  0  0  0  0  0  0  0  0  0  0  0
   -0.9420   22.8540  -30.2430 O   0  0  0  0  0  0  0  0  0  0  0  0
   -1.6187   26.6821  -26.7455 H   0  0  0  0  0  0  0  0  0  0  0  0
   -2.6529   25.1888  -26.7513 H   0  0  0  0  0  0  0  0  0  0  0  0
    0.3224   25.1803  -26.0987 H   0  0  0  0  0  0  0  0  0  0  0  0
   -1.0277   25.3287  -24.8648 H   0  0  0  0  0  0  0  0  0  0  0  0
   -1.1298   23.1221  -24.7278 H   0  0  0  0  0  0  0  0  0  0  0  0
    1.3325   23.3665  -25.7888 H   0  0  0  0  0  0  0  0  0  0  0  0
    0.5546   21.7843  -25.3563 H   0  0  0  0  0  0  0  0  0  0  0  0
    0.5629   23.0574  -28.1343 H   0  0  0  0  0  0  0  0  0  0  0  0
    1.6242   21.7002  -27.5778 H   0  0  0  0  0  0  0  0  0  0  0  0
   -0.6376   21.2209  -28.9063 H   0  0  0  0  0  0  0  0  0  0  0  0
   -0.0934   20.1778  -27.5108 H   0  0  0  0  0  0  0  0  0  0  0  0
   -2.6171   21.1178  -27.7407 H   0  0  0  0  0  0  0  0  0  0  0  0
   -1.7806   20.8377  -26.1566 H   0  0  0  0  0  0  0  0  0  0  0  0
   -1.9214   23.5037  -27.6421 H   0  0  0  0  0  0  0  0  0  0  0  0
   -2.9278   23.0186  -26.2141 H   0  0  0  0  0  0  0  0  0  0  0  0
   -4.8142   25.2532  -29.6020 H   0  0  0  0  0  0  0  0  0  0  0  0
   -6.9534   21.9090  -33.6807 H   0  0  0  0  0  0  0  0  0  0  0  0
   -5.7540   21.8778  -32.3075 H   0  0  0  0  0  0  0  0  0  0  0  0
   -6.9812   19.7098  -32.6398 H   0  0  0  0  0  0  0  0  0  0  0  0
   -7.1789   20.4486  -31.0040 H   0  0  0  0  0  0  0  0  0  0  0  0
   -9.1762   20.5480  -33.3190 H   0  0  0  0  0  0  0  0  0  0  0  0
   -9.3379   19.6310  -31.7724 H   0  0  0  0  0  0  0  0  0  0  0  0
  -10.6389   21.7799  -31.7967 H   0  0  0  0  0  0  0  0  0  0  0  0
   -9.3891   21.6975  -30.4935 H   0  0  0  0  0  0  0  0  0  0  0  0
   -9.1956   23.1872  -33.1559 H   0  0  0  0  0  0  0  0  0  0  0  0
   -9.2989   23.8860  -31.4757 H   0  0  0  0  0  0  0  0  0  0  0  0
   -5.1415   21.1633  -30.9755 H   0  0  0  0  0  0  0  0  0  0  0  0
   -2.6595   20.9445  -30.9192 H   0  0  0  0  0  0  0  0  0  0  0  0
   -0.3370   23.5980  -29.9110 H   0  0  0  0  0  0  0  0  0  0  0  0
  1  2  2  0
  2  3  1  0
  3  4  1  0
  4  5  1  0
  5  6  1  0
  6  7  1  0
  7  8  1  0
  8  9  1  0
  9 10  1  0
  2 11  1  0
 11 12  1  0
 12 13  2  0
 13 14  1  0
 14 15  1  0
 15 16  2  0
 15 17  2  0
 15 18  1  0
 18 19  1  0
 19 20  1  0
 20 21  1  0
 21 22  1  0
 22 23  1  0
 14 24  2  0
 24 25  1  0
 25 26  2  0
 26 27  1  0
 10  5  1  0
 26 12  1  0
 23 18  1  0
  3 28  1  0
  3 29  1  0
  4 30  1  0
  4 31  1  0
  5 32  1  0
  6 33  1  0
  6 34  1  0
  7 35  1  0
  7 36  1  0
  8 37  1  0
  8 38  1  0
  9 39  1  0
  9 40  1  0
 10 41  1  0
 10 42  1  0
 13 43  1  0
 19 44  1  0
 19 45  1  0
 20 46  1  0
 20 47  1  0
 21 48  1  0
 21 49  1  0
 22 50  1  0
 22 51  1  0
 23 52  1  0
 23 53  1  0
 24 54  1  0
 25 55  1  0
 27 56  1  0
M  CHG  1  11  -1
M  END
>  <UniqueID>  (21) 
21

>  <SMILES>  (21) 
O=C(CCC1CCCCC1)[N-]c1cc(S(=O)(=O)N2CCCCC2)ccc1O

>  <Energy>  (21) 
59.213200563765696

>  <Genealogy>  (21) 
O=C(CCC1CCCCC1)[N-]c1cc(S(=O)(=O)N2CCCCC2)ccc1O (protonated)
O=C(CCC1CCCCC1)[N-]c1cc(S(=O)(=O)N2CCCCC2)ccc1O (3D coordinates assigned)
O=C(CCC1CCCCC1)[N-]c1cc(S(=O)(=O)N2CCCCC2)ccc1O (nonaromatic ring conformer: 59.213200563765696 kcal/mol)

>  <smiles>  (21) 
O=C(CCC1CCCCC1)Nc1cc(S(=O)(=O)N2CCCCC2)ccc1O

>  <score_type>  (21) 
oracle

>  <origin>  (21) 
adgpu

>  <m_score__min__energy>  (21) 
-12.06

>  <m_primary>  (21) 
energy

$$$$
21:0
     RDKit          3D

 43 45  0  0  0  0  0  0  0  0999 V2000
   -4.6970   23.9750  -31.2380 O   0  0  0  0  0  0  0  0  0  0  0  0
   -5.0410   22.7660  -31.3360 C   0  0  0  0  0  0  0  0  0  0  0  0
   -4.0400   21.7350  -31.2850 N   0  0  0  0  0  0  0  0  0  0  0  0
   -2.7420   21.9110  -30.6920 C   0  0  0  0  0  0  0  0  0  0  0  0
   -1.6970   21.0000  -30.9320 C   0  0  0  0  0  0  0  0  0  0  0  0
   -0.4400   21.2030  -30.3560 C   0  0  0  0  0  0  0  0  0  0  0  0
   -0.2080   22.3200  -29.5500 C   0  0  0  0  0  0  0  0  0  0  0  0
   -1.2320   23.2490  -29.3250 C   0  0  0  0  0  0  0  0  0  0  0  0
   -0.9590   24.6540  -28.2970 S   0  0  0  0  0  0  0  0  0  0  0  0
   -1.5760   25.8540  -28.9630 O   0  0  0  0  0  0  0  0  0  0  0  0
    0.5170   24.9020  -28.1530 O   0  0  0  0  0  0  0  0  0  0  0  0
   -1.6960   24.4240  -26.7260 N   0  0  0  0  0  0  0  0  0  0  0  0
   -0.7910   23.7400  -25.7810 C   0  0  0  0  0  0  0  0  0  0  0  0
    0.3420   24.6510  -25.2720 C   0  0  0  0  0  0  0  0  0  0  0  0
   -0.1200   26.0920  -24.9950 C   0  0  0  0  0  0  0  0  0  0  0  0
   -1.6410   26.2000  -24.9120 C   0  0  0  0  0  0  0  0  0  0  0  0
   -2.2940   25.6800  -26.2060 C   0  0  0  0  0  0  0  0  0  0  0  0
   -2.4940   23.0410  -29.8980 C   0  0  0  0  0  0  0  0  0  0  0  0
   -6.4680   22.4290  -31.5550 C   0  0  0  0  0  0  0  0  0  0  0  0
   -7.4420   23.4350  -31.6960 C   0  0  0  0  0  0  0  0  0  0  0  0
   -8.7450   23.1050  -31.9040 N   0  0  0  0  0  0  0  0  0  0  0  0
   -9.1520   21.8120  -31.9860 C   0  0  0  0  0  0  0  0  0  0  0  0
   -8.2240   20.7780  -31.8620 C   0  0  0  0  0  0  0  0  0  0  0  0
   -8.7870   18.9560  -31.9820 Br  0  0  0  0  0  0  0  0  0  0  0  0
   -6.8790   21.0880  -31.6500 C   0  0  0  0  0  0  0  0  0  0  0  0
   -4.2210   20.8480  -31.8070 H   0  0  0  0  0  0  0  0  0  0  0  0
   -1.8700   20.1247  -31.5754 H   0  0  0  0  0  0  0  0  0  0  0  0
    0.3694   20.4807  -30.5380 H   0  0  0  0  0  0  0  0  0  0  0  0
    0.7804   22.4704  -29.0912 H   0  0  0  0  0  0  0  0  0  0  0  0
   -1.3795   23.3958  -24.9178 H   0  0  0  0  0  0  0  0  0  0  0  0
   -0.3246   22.9011  -26.3183 H   0  0  0  0  0  0  0  0  0  0  0  0
    0.7406   24.2258  -24.3391 H   0  0  0  0  0  0  0  0  0  0  0  0
    1.1053   24.6978  -26.0627 H   0  0  0  0  0  0  0  0  0  0  0  0
    0.3122   26.4260  -24.0402 H   0  0  0  0  0  0  0  0  0  0  0  0
    0.2201   26.7237  -25.8288 H   0  0  0  0  0  0  0  0  0  0  0  0
   -1.9997   25.6025  -24.0609 H   0  0  0  0  0  0  0  0  0  0  0  0
   -1.9141   27.2571  -24.7776 H   0  0  0  0  0  0  0  0  0  0  0  0
   -3.3601   25.4976  -26.0055 H   0  0  0  0  0  0  0  0  0  0  0  0
   -2.1312   26.4501  -26.9744 H   0  0  0  0  0  0  0  0  0  0  0  0
   -3.2982   23.7710  -29.7235 H   0  0  0  0  0  0  0  0  0  0  0  0
   -7.1481   24.4934  -31.6377 H   0  0  0  0  0  0  0  0  0  0  0  0
  -10.2146   21.5798  -32.1504 H   0  0  0  0  0  0  0  0  0  0  0  0
   -6.1384   20.2800  -31.5570 H   0  0  0  0  0  0  0  0  0  0  0  0
  1  2  2  0
  2  3  1  0
  3  4  1  0
  4  5  2  0
  5  6  1  0
  6  7  2  0
  7  8  1  0
  8  9  1  0
  9 10  2  0
  9 11  2  0
  9 12  1  0
 12 13  1  0
 13 14  1  0
 14 15  1  0
 15 16  1  0
 16 17  1  0
  8 18  2  0
  2 19  1  0
 19 20  2  0
 20 21  1  0
 21 22  2  0
 22 23  1  0
 23 24  1  0
 23 25  2  0
 18  4  1  0
 25 19  1  0
 17 12  1  0
  3 26  1  0
  5 27  1  0
  6 28  1  0
  7 29  1  0
 13 30  1  0
 13 31  1  0
 14 32  1  0
 14 33  1  0
 15 34  1  0
 15 35  1  0
 16 36  1  0
 16 37  1  0
 17 38  1  0
 17 39  1  0
 18 40  1  0
 20 41  1  0
 22 42  1  0
 25 43  1  0
M  END
>  <UniqueID>  (22) 
22

>  <SMILES>  (22) 
O=C(Nc1cccc(S(=O)(=O)N2CCCCC2)c1)c1cncc(Br)c1

>  <Energy>  (22) 
57.50759101773933

>  <Genealogy>  (22) 
O=C(Nc1cccc(S(=O)(=O)N2CCCCC2)c1)c1cncc(Br)c1 (3D coordinates assigned)
O=C(Nc1cccc(S(=O)(=O)N2CCCCC2)c1)c1cncc(Br)c1 (nonaromatic ring conformer: 57.50759101773933 kcal/mol)

>  <smiles>  (22) 
O=C(Nc1cccc(S(=O)(=O)N2CCCCC2)c1)c1cncc(Br)c1

>  <score_type>  (22) 
oracle

>  <origin>  (22) 
adgpu

>  <m_score__min__energy>  (22) 
-9.6400000000000006

>  <m_primary>  (22) 
energy

$$$$
22:0
     RDKit          3D

 41 44  0  0  0  0  0  0  0  0999 V2000
   -2.7370   19.9510  -27.5330 C   0  0  0  0  0  0  0  0  0  0  0  0
   -2.8860   21.0240  -28.4550 O   0  0  0  0  0  0  0  0  0  0  0  0
   -2.3130   22.2960  -28.2970 C   0  0  0  0  0  0  0  0  0  0  0  0
   -2.1620   22.8950  -27.0290 C   0  0  0  0  0  0  0  0  0  0  0  0
   -1.5810   24.1600  -26.9120 C   0  0  0  0  0  0  0  0  0  0  0  0
   -1.1440   24.8400  -28.0510 C   0  0  0  0  0  0  0  0  0  0  0  0
   -1.2900   24.2570  -29.3110 C   0  0  0  0  0  0  0  0  0  0  0  0
   -1.8770   22.9910  -29.4380 C   0  0  0  0  0  0  0  0  0  0  0  0
   -2.0650   22.2750  -31.0740 S   0  0  0  0  0  0  0  0  0  0  0  0
   -3.8440   22.4790  -31.0520 C   0  0  0  0  0  0  0  0  0  0  0  0
   -4.6650   21.4110  -31.2740 N   0  0  0  0  0  0  0  0  0  0  0  0
   -6.0340   21.5410  -31.2850 C   0  0  0  0  0  0  0  0  0  0  0  0
   -6.8640   20.3910  -31.5440 N   0  0  0  0  0  0  0  0  0  0  0  0
   -8.3170   20.5040  -31.3590 C   0  0  0  0  0  0  0  0  0  0  0  0
   -9.0090   19.1630  -31.6200 C   0  0  0  0  0  0  0  0  0  0  0  0
   -8.5130   18.5720  -32.8660 N   0  0  0  0  0  0  0  0  0  0  0  0
   -7.0710   18.2560  -32.8170 C   0  0  0  0  0  0  0  0  0  0  0  0
   -6.2660   19.0680  -31.7790 C   0  0  0  0  0  0  0  0  0  0  0  0
   -6.6000   22.7700  -31.0670 N   0  0  0  0  0  0  0  0  0  0  0  0
   -5.7830   23.8270  -30.8440 C   0  0  0  0  0  0  0  0  0  0  0  0
   -6.1560   25.0930  -30.6180 N   0  0  0  0  0  0  0  0  0  0  0  0
   -4.9560   25.7180  -30.4690 C   0  0  0  0  0  0  0  0  0  0  0  0
   -3.8740   24.9030  -30.5920 N   0  0  0  0  0  0  0  0  0  0  0  0
   -4.4400   23.7130  -30.8300 C   0  0  0  0  0  0  0  0  0  0  0  0
   -2.7910   20.3402  -26.5056 H   0  0  0  0  0  0  0  0  0  0  0  0
   -3.5420   19.2180  -27.6902 H   0  0  0  0  0  0  0  0  0  0  0  0
   -1.7628   19.4651  -27.6902 H   0  0  0  0  0  0  0  0  0  0  0  0
   -2.5032   22.3637  -26.1283 H   0  0  0  0  0  0  0  0  0  0  0  0
   -1.4674   24.6218  -25.9201 H   0  0  0  0  0  0  0  0  0  0  0  0
   -0.6848   25.8350  -27.9552 H   0  0  0  0  0  0  0  0  0  0  0  0
   -0.9432   24.7930  -30.2068 H   0  0  0  0  0  0  0  0  0  0  0  0
   -8.5246   20.8210  -30.3263 H   0  0  0  0  0  0  0  0  0  0  0  0
   -8.7051   21.2439  -32.0745 H   0  0  0  0  0  0  0  0  0  0  0  0
   -8.8009   18.4780  -30.7848 H   0  0  0  0  0  0  0  0  0  0  0  0
  -10.0928   19.3293  -31.7080 H   0  0  0  0  0  0  0  0  0  0  0  0
   -8.6860   19.2490  -33.6470 H   0  0  0  0  0  0  0  0  0  0  0  0
   -6.9625   17.1884  -32.5754 H   0  0  0  0  0  0  0  0  0  0  0  0
   -6.6618   18.5211  -33.8030 H   0  0  0  0  0  0  0  0  0  0  0  0
   -6.2446   18.5123  -30.8299 H   0  0  0  0  0  0  0  0  0  0  0  0
   -5.2489   19.2152  -32.1713 H   0  0  0  0  0  0  0  0  0  0  0  0
   -4.8683   26.7955  -30.2655 H   0  0  0  0  0  0  0  0  0  0  0  0
  1  2  1  0
  2  3  1  0
  3  4  2  0
  4  5  1  0
  5  6  2  0
  6  7  1  0
  7  8  2  0
  8  9  1  0
  9 10  1  0
 10 11  2  0
 11 12  1  0
 12 13  1  0
 13 14  1  0
 14 15  1  0
 15 16  1  0
 16 17  1  0
 17 18  1  0
 12 19  2  0
 19 20  1  0
 20 21  1  0
 21 22  2  0
 22 23  1  0
 23 24  1  0
  8  3  1  0
 24 10  1  0
 18 13  1  0
 24 20  2  0
  1 25  1  0
  1 26  1  0
  1 27  1  0
  4 28  1  0
  5 29  1  0
  6 30  1  0
  7 31  1  0
 14 32  1  0
 14 33  1  0
 15 34  1  0
 15 35  1  0
 16 36  1  0
 17 37  1  0
 17 38  1  0
 18 39  1  0
 18 40  1  0
 22 41  1  0
M  CHG  1  23  -1
M  END
>  <UniqueID>  (23) 
23

>  <SMILES>  (23) 
COc1ccccc1Sc1nc(N2CCNCC2)nc2nc[n-]c12

>  <Energy>  (23) 
81.31348243278687

>  <Genealogy>  (23) 
COc1ccccc1Sc1nc(N2CCNCC2)nc2nc[n-]c12 (protonated)
COc1ccccc1Sc1nc(N2CCNCC2)nc2nc[n-]c12 (3D coordinates assigned)
COc1ccccc1Sc1nc(N2CCNCC2)nc2nc[n-]c12 (nonaromatic ring conformer: 81.31348243278687 kcal/mol)

>  <smiles>  (23) 
COc1ccccc1Sc1nc(N2CCNCC2)nc2nc[nH]c12

>  <score_type>  (23) 
oracle

>  <origin>  (23) 
adgpu

>  <m_score__min__energy>  (23) 
-9.0199999999999996

>  <m_primary>  (23) 
energy

$$$$
23:0
     RDKit          3D

 33 35  0  0  0  0  0  0  0  0999 V2000
   -4.1810   25.6730  -30.8430 O   0  0  0  0  0  0  0  0  0  0  0  0
   -4.4700   24.5780  -30.2910 C   0  0  0  0  0  0  0  0  0  0  0  0
   -3.8760   24.2730  -29.0220 N   0  0  0  0  0  0  0  0  0  0  0  0
   -2.5330   23.8180  -28.8030 C   0  0  0  0  0  0  0  0  0  0  0  0
   -2.3220   22.4570  -28.5410 C   0  0  0  0  0  0  0  0  0  0  0  0
   -1.0260   21.9580  -28.3350 C   0  0  0  0  0  0  0  0  0  0  0  0
   -0.8150   20.5550  -28.0880 N   0  0  0  0  0  0  0  0  0  0  0  0
   -1.2430   19.8400  -27.0270 C   0  0  0  0  0  0  0  0  0  0  0  0
   -1.9580   20.3720  -25.9600 O   0  0  0  0  0  0  0  0  0  0  0  0
   -0.8530   18.5190  -27.1280 C   0  0  0  0  0  0  0  0  0  0  0  0
   -0.1470   18.4170  -28.3130 C   0  0  0  0  0  0  0  0  0  0  0  0
   -0.1460   19.6810  -28.8680 C   0  0  0  0  0  0  0  0  0  0  0  0
    0.4390   20.0060  -30.0870 O   0  0  0  0  0  0  0  0  0  0  0  0
    0.0630   22.8430  -28.3750 C   0  0  0  0  0  0  0  0  0  0  0  0
   -0.1430   24.2050  -28.6020 C   0  0  0  0  0  0  0  0  0  0  0  0
   -1.4350   24.7000  -28.8030 C   0  0  0  0  0  0  0  0  0  0  0  0
   -1.6150   26.0680  -28.9710 O   0  0  0  0  0  0  0  0  0  0  0  0
   -5.4450   23.6700  -30.9430 C   0  0  0  0  0  0  0  0  0  0  0  0
   -5.0110   22.5620  -31.6950 C   0  0  0  0  0  0  0  0  0  0  0  0
   -5.9410   21.7140  -32.3040 C   0  0  0  0  0  0  0  0  0  0  0  0
   -7.3090   21.9560  -32.1610 C   0  0  0  0  0  0  0  0  0  0  0  0
   -7.7510   23.0440  -31.4040 C   0  0  0  0  0  0  0  0  0  0  0  0
   -6.8240   23.8940  -30.7930 C   0  0  0  0  0  0  0  0  0  0  0  0
   -3.1817   21.7723  -28.4963 H   0  0  0  0  0  0  0  0  0  0  0  0
   -1.0617   17.7113  -26.4110 H   0  0  0  0  0  0  0  0  0  0  0  0
    0.3194   17.5118  -28.7290 H   0  0  0  0  0  0  0  0  0  0  0  0
    1.0839   22.4613  -28.2267 H   0  0  0  0  0  0  0  0  0  0  0  0
    0.7156   24.8922  -28.6228 H   0  0  0  0  0  0  0  0  0  0  0  0
   -3.9348   22.3623  -31.8041 H   0  0  0  0  0  0  0  0  0  0  0  0
   -5.5945   20.8546  -32.8969 H   0  0  0  0  0  0  0  0  0  0  0  0
   -8.0387   21.2898  -32.6445 H   0  0  0  0  0  0  0  0  0  0  0  0
   -8.8287   23.2320  -31.2886 H   0  0  0  0  0  0  0  0  0  0  0  0
   -7.1768   24.7441  -30.1906 H   0  0  0  0  0  0  0  0  0  0  0  0
  1  2  2  0
  2  3  1  0
  3  4  1  0
  4  5  2  0
  5  6  1  0
  6  7  1  0
  7  8  1  0
  8  9  1  0
  8 10  2  0
 10 11  1  0
 11 12  2  0
 12 13  1  0
  6 14  2  0
 14 15  1  0
 15 16  2  0
 16 17  1  0
  2 18  1  0
 18 19  2  0
 19 20  1  0
 20 21  2  0
 21 22  1  0
 22 23  2  0
 16  4  1  0
 23 18  1  0
 12  7  1  0
  5 24  1  0
 10 25  1  0
 11 26  1  0
 14 27  1  0
 15 28  1  0
 19 29  1  0
 20 30  1  0
 21 31  1  0
 22 32  1  0
 23 33  1  0
M  CHG  4   3  -1   9  -1  13  -1  17  -1
M  END
>  <UniqueID>  (24) 
24

>  <SMILES>  (24) 
O=C([N-]c1cc(-n2c([O-])ccc2[O-])ccc1[O-])c1ccccc1

>  <Energy>  (24) 
78.0992202167399

>  <Genealogy>  (24) 
O=C([N-]c1cc(-n2c([O-])ccc2[O-])ccc1[O-])c1ccccc1 (protonated)
O=C([N-]c1cc(-n2c([O-])ccc2[O-])ccc1[O-])c1ccccc1 (3D coordinates assigned)
O=C([N-]c1cc(-n2c([O-])ccc2[O-])ccc1[O-])c1ccccc1 (optimized conformer: 78.0992202167399 kcal/mol)

>  <smiles>  (24) 
O=C(Nc1cc(-n2c(O)ccc2O)ccc1O)c1ccccc1

>  <score_type>  (24) 
oracle

>  <origin>  (24) 
adgpu

>  <m_score__min__energy>  (24) 
-11.789999999999999

>  <m_primary>  (24) 
energy

$$$$
24:0
     RDKit          3D

 41 43  0  0  0  0  0  0  0  0999 V2000
   -5.4910   26.3690  -30.5750 O   0  0  0  0  0  0  0  0  0  0  0  0
   -4.8580   25.2830  -30.6580 C   0  0  0  0  0  0  0  0  0  0  0  0
   -3.4710   25.2700  -30.2980 N   0  0  0  0  0  0  0  0  0  0  0  0
   -2.8850   24.5380  -29.2100 C   0  0  0  0  0  0  0  0  0  0  0  0
   -3.5640   23.4710  -28.5930 C   0  0  0  0  0  0  0  0  0  0  0  0
   -2.9770   22.7840  -27.5270 C   0  0  0  0  0  0  0  0  0  0  0  0
   -1.7190   23.1640  -27.0580 C   0  0  0  0  0  0  0  0  0  0  0  0
   -1.0460   24.2370  -27.6480 C   0  0  0  0  0  0  0  0  0  0  0  0
   -1.6280   24.9300  -28.7210 C   0  0  0  0  0  0  0  0  0  0  0  0
   -0.9600   26.0040  -29.3090 O   0  0  0  0  0  0  0  0  0  0  0  0
   -5.5490   24.0780  -31.1740 C   0  0  0  0  0  0  0  0  0  0  0  0
   -6.9360   23.9140  -31.0040 C   0  0  0  0  0  0  0  0  0  0  0  0
   -7.5790   22.7740  -31.4910 C   0  0  0  0  0  0  0  0  0  0  0  0
   -6.8450   21.7720  -32.1410 C   0  0  0  0  0  0  0  0  0  0  0  0
   -7.6550   20.3220  -32.7360 S   0  0  0  0  0  0  0  0  0  0  0  0
   -9.1410   20.5540  -32.7440 O   0  0  0  0  0  0  0  0  0  0  0  0
   -7.2220   20.0610  -34.1520 O   0  0  0  0  0  0  0  0  0  0  0  0
   -7.2950   18.9160  -31.7550 N   0  0  0  0  0  0  0  0  0  0  0  0
   -5.8500   18.6790  -31.6800 C   0  0  0  0  0  0  0  0  0  0  0  0
   -5.4880   17.6020  -32.6930 C   0  0  0  0  0  0  0  0  0  0  0  0
   -6.8000   16.9720  -33.1150 C   0  0  0  0  0  0  0  0  0  0  0  0
   -7.8820   17.7030  -32.3310 C   0  0  0  0  0  0  0  0  0  0  0  0
   -5.4630   21.9270  -32.3050 C   0  0  0  0  0  0  0  0  0  0  0  0
   -4.8180   23.0670  -31.8190 C   0  0  0  0  0  0  0  0  0  0  0  0
   -4.5614   23.1764  -28.9514 H   0  0  0  0  0  0  0  0  0  0  0  0
   -3.5073   21.9426  -27.0571 H   0  0  0  0  0  0  0  0  0  0  0  0
   -1.2564   22.6181  -26.2226 H   0  0  0  0  0  0  0  0  0  0  0  0
   -0.0579   24.5393  -27.2708 H   0  0  0  0  0  0  0  0  0  0  0  0
   -1.2810   26.4160  -30.1770 H   0  0  0  0  0  0  0  0  0  0  0  0
   -7.5179   24.6891  -30.4839 H   0  0  0  0  0  0  0  0  0  0  0  0
   -8.6659   22.6618  -31.3641 H   0  0  0  0  0  0  0  0  0  0  0  0
   -5.3084   19.6072  -31.9147 H   0  0  0  0  0  0  0  0  0  0  0  0
   -5.5718   18.3543  -30.6665 H   0  0  0  0  0  0  0  0  0  0  0  0
   -4.9809   18.0481  -33.5612 H   0  0  0  0  0  0  0  0  0  0  0  0
   -4.8018   16.8573  -32.2634 H   0  0  0  0  0  0  0  0  0  0  0  0
   -6.9568   17.1012  -34.1961 H   0  0  0  0  0  0  0  0  0  0  0  0
   -6.8137   15.8908  -32.9127 H   0  0  0  0  0  0  0  0  0  0  0  0
   -8.7095   17.9737  -33.0033 H   0  0  0  0  0  0  0  0  0  0  0  0
   -8.2730   17.0558  -31.5321 H   0  0  0  0  0  0  0  0  0  0  0  0
   -4.8822   21.1471  -32.8192 H   0  0  0  0  0  0  0  0  0  0  0  0
   -3.7301   23.1735  -31.9424 H   0  0  0  0  0  0  0  0  0  0  0  0
  1  2  2  0
  2  3  1  0
  3  4  1  0
  4  5  2  0
  5  6  1  0
  6  7  2  0
  7  8  1  0
  8  9  2  0
  9 10  1  0
  2 11  1  0
 11 12  2  0
 12 13  1  0
 13 14  2  0
 14 15  1  0
 15 16  2  0
 15 17  2  0
 15 18  1  0
 18 19  1  0
 19 20  1  0
 20 21  1  0
 21 22  1  0
 14 23  1  0
 23 24  2  0
  9  4  1  0
 24 11  1  0
 22 18  1  0
  5 25  1  0
  6 26  1  0
  7 27  1  0
  8 28  1  0
 10 29  1  0
 12 30  1  0
 13 31  1  0
 19 32  1  0
 19 33  1  0
 20 34  1  0
 20 35  1  0
 21 36  1  0
 21 37  1  0
 22 38  1  0
 22 39  1  0
 23 40  1  0
 24 41  1  0
M  CHG  1   3  -1
M  END
>  <UniqueID>  (25) 
25

>  <SMILES>  (25) 
O=C([N-]c1ccccc1O)c1ccc(S(=O)(=O)N2CCCC2)cc1

>  <Energy>  (25) 
49.121739181828936

>  <Genealogy>  (25) 
O=C([N-]c1ccccc1O)c1ccc(S(=O)(=O)N2CCCC2)cc1 (protonated)
O=C([N-]c1ccccc1O)c1ccc(S(=O)(=O)N2CCCC2)cc1 (3D coordinates assigned)
O=C([N-]c1ccccc1O)c1ccc(S(=O)(=O)N2CCCC2)cc1 (nonaromatic ring conformer: 49.121739181828936 kcal/mol)

>  <smiles>  (25) 
O=C(Nc1ccccc1O)c1ccc(S(=O)(=O)N2CCCC2)cc1

>  <score_type>  (25) 
oracle

>  <origin>  (25) 
adgpu

>  <m_score__min__energy>  (25) 
-12.16

>  <m_primary>  (25) 
energy

$$$$
25:0
     RDKit          3D

 50 52  0  0  0  0  0  0  0  0999 V2000
   -2.8870   21.5880  -33.0750 C   0  0  0  0  0  0  0  0  0  0  0  0
   -4.2680   21.9320  -33.0870 O   0  0  0  0  0  0  0  0  0  0  0  0
   -5.3160   21.0370  -32.8190 C   0  0  0  0  0  0  0  0  0  0  0  0
   -5.2520   19.6810  -33.1990 C   0  0  0  0  0  0  0  0  0  0  0  0
   -6.3110   18.8160  -32.9150 C   0  0  0  0  0  0  0  0  0  0  0  0
   -7.4450   19.2900  -32.2520 C   0  0  0  0  0  0  0  0  0  0  0  0
   -8.7720   18.2000  -31.8950 Cl  0  0  0  0  0  0  0  0  0  0  0  0
   -7.5210   20.6320  -31.8700 C   0  0  0  0  0  0  0  0  0  0  0  0
   -6.4610   21.5090  -32.1480 C   0  0  0  0  0  0  0  0  0  0  0  0
   -6.5590   23.1960  -31.6370 S   0  0  0  0  0  0  0  0  0  0  0  0
   -7.7300   23.4090  -30.7190 O   0  0  0  0  0  0  0  0  0  0  0  0
   -6.7410   24.0570  -32.8560 O   0  0  0  0  0  0  0  0  0  0  0  0
   -5.0800   23.6370  -30.7760 C   0  0  0  0  0  0  0  0  0  0  0  0
   -4.6430   24.9640  -30.7650 C   0  0  0  0  0  0  0  0  0  0  0  0
   -3.4940   25.2990  -30.1270 N   0  0  0  0  0  0  0  0  0  0  0  0
   -2.7220   24.3830  -29.4830 C   0  0  0  0  0  0  0  0  0  0  0  0
   -1.4550   24.8600  -28.8320 C   0  0  0  0  0  0  0  0  0  0  0  0
   -3.1220   23.0250  -29.4550 C   0  0  0  0  0  0  0  0  0  0  0  0
   -2.3160   21.9890  -28.7610 C   0  0  0  0  0  0  0  0  0  0  0  0
   -2.5690   21.6970  -27.5600 O   0  0  0  0  0  0  0  0  0  0  0  0
   -1.2270   21.3480  -29.4440 N   0  0  0  0  0  0  0  0  0  0  0  0
   -0.5950   20.1360  -28.9940 C   0  0  0  0  0  0  0  0  0  0  0  0
    0.4920   19.6210  -29.7110 C   0  0  0  0  0  0  0  0  0  0  0  0
    1.1100   18.4330  -29.3110 C   0  0  0  0  0  0  0  0  0  0  0  0
    0.6400   17.7240  -28.1870 C   0  0  0  0  0  0  0  0  0  0  0  0
    1.2850   16.4580  -27.7460 C   0  0  0  0  0  0  0  0  0  0  0  0
    1.4210   15.2770  -28.6590 C   0  0  0  0  0  0  0  0  0  0  0  0
    1.7350   16.3620  -26.5720 O   0  0  0  0  0  0  0  0  0  0  0  0
   -0.4680   18.2340  -27.4850 C   0  0  0  0  0  0  0  0  0  0  0  0
   -1.0830   19.4230  -27.8870 C   0  0  0  0  0  0  0  0  0  0  0  0
   -4.3200   22.6650  -30.1080 C   0  0  0  0  0  0  0  0  0  0  0  0
   -4.7220   21.4680  -30.0810 O   0  0  0  0  0  0  0  0  0  0  0  0
   -2.5397   21.5015  -32.0349 H   0  0  0  0  0  0  0  0  0  0  0  0
   -2.7441   20.6268  -33.5904 H   0  0  0  0  0  0  0  0  0  0  0  0
   -2.3099   22.3698  -33.5904 H   0  0  0  0  0  0  0  0  0  0  0  0
   -4.3621   19.3017  -33.7227 H   0  0  0  0  0  0  0  0  0  0  0  0
   -6.2518   17.7591  -33.2142 H   0  0  0  0  0  0  0  0  0  0  0  0
   -8.4159   21.0029  -31.3489 H   0  0  0  0  0  0  0  0  0  0  0  0
   -5.2328   25.7396  -31.2755 H   0  0  0  0  0  0  0  0  0  0  0  0
   -1.5664   24.8181  -27.7385 H   0  0  0  0  0  0  0  0  0  0  0  0
   -0.6190   24.2151  -29.1404 H   0  0  0  0  0  0  0  0  0  0  0  0
   -1.2519   25.8962  -29.1404 H   0  0  0  0  0  0  0  0  0  0  0  0
   -0.8140   21.8400  -30.2680 H   0  0  0  0  0  0  0  0  0  0  0  0
    0.8629   20.1565  -30.5974 H   0  0  0  0  0  0  0  0  0  0  0  0
    1.9704   18.0480  -29.8780 H   0  0  0  0  0  0  0  0  0  0  0  0
    1.5265   14.3606  -28.0598 H   0  0  0  0  0  0  0  0  0  0  0  0
    0.5259   15.1991  -29.2936 H   0  0  0  0  0  0  0  0  0  0  0  0
    2.3104   15.4046  -29.2936 H   0  0  0  0  0  0  0  0  0  0  0  0
   -0.8544   17.6907  -26.6100 H   0  0  0  0  0  0  0  0  0  0  0  0
   -1.9543   19.8024  -27.3330 H   0  0  0  0  0  0  0  0  0  0  0  0
  1  2  1  0
  2  3  1  0
  3  4  2  0
  4  5  1  0
  5  6  2  0
  6  7  1  0
  6  8  1  0
  8  9  2  0
  9 10  1  0
 10 11  2  0
 10 12  2  0
 10 13  1  0
 13 14  2  0
 14 15  1  0
 15 16  1  0
 16 17  1  0
 16 18  2  0
 18 19  1  0
 19 20  2  0
 19 21  1  0
 21 22  1  0
 22 23  2  0
 23 24  1  0
 24 25  2  0
 25 26  1  0
 26 27  1  0
 26 28  2  0
 25 29  1  0
 29 30  2  0
 18 31  1  0
 31 32  2  0
  9  3  1  0
 31 13  1  0
 30 22  1  0
  1 33  1  0
  1 34  1  0
  1 35  1  0
  4 36  1  0
  5 37  1  0
  8 38  1  0
 14 39  1  0
 17 40  1  0
 17 41  1  0
 17 42  1  0
 21 43  1  0
 23 44  1  0
 24 45  1  0
 27 46  1  0
 27 47  1  0
 27 48  1  0
 29 49  1  0
 30 50  1  0
M  CHG  1  15  -1
M  END
>  <UniqueID>  (26) 
26

>  <SMILES>  (26) 
COc1ccc(Cl)cc1S(=O)(=O)c1c[n-]c(C)c(C(=O)Nc2ccc(C(C)=O)cc2)c1=O

>  <Energy>  (26) 
65.01182209085914

>  <Genealogy>  (26) 
COc1ccc(Cl)cc1S(=O)(=O)c1c[n-]c(C)c(C(=O)Nc2ccc(C(C)=O)cc2)c1=O (protonated)
COc1ccc(Cl)cc1S(=O)(=O)c1c[n-]c(C)c(C(=O)Nc2ccc(C(C)=O)cc2)c1=O (3D coordinates assigned)
COc1ccc(Cl)cc1S(=O)(=O)c1c[n-]c(C)c(C(=O)Nc2ccc(C(C)=O)cc2)c1=O (optimized conformer: 65.01182209085914 kcal/mol)

>  <smiles>  (26) 
COc1ccc(Cl)cc1S(=O)(=O)c1c[nH]c(C)c(C(=O)Nc2ccc(C(C)=O)cc2)c1=O

>  <score_type>  (26) 
oracle

>  <origin>  (26) 
adgpu

>  <m_score__min__energy>  (26) 
-10.359999999999999

>  <m_primary>  (26) 
energy

$$$$
26:0
     RDKit          3D

 48 50  0  0  0  0  0  0  0  0999 V2000
   -9.4590   22.8460  -32.2800 O   0  0  0  0  0  0  0  0  0  0  0  0
   -8.3390   21.9890  -31.7600 S   0  0  0  0  0  0  0  0  0  0  0  0
   -8.7990   21.2870  -30.5140 O   0  0  0  0  0  0  0  0  0  0  0  0
   -7.9200   20.8060  -32.9570 N   0  0  0  0  0  0  0  0  0  0  0  0
   -7.1930   19.5960  -32.7050 C   0  0  0  0  0  0  0  0  0  0  0  0
   -7.7670   18.6310  -31.8670 C   0  0  0  0  0  0  0  0  0  0  0  0
   -7.0930   17.4380  -31.5980 C   0  0  0  0  0  0  0  0  0  0  0  0
   -5.8370   17.1990  -32.1650 C   0  0  0  0  0  0  0  0  0  0  0  0
   -5.2500   18.1540  -33.0000 C   0  0  0  0  0  0  0  0  0  0  0  0
   -3.6630   17.8400  -33.7000 S   0  0  0  0  0  0  0  0  0  0  0  0
   -3.7900   17.8980  -35.1960 O   0  0  0  0  0  0  0  0  0  0  0  0
   -3.1790   16.4740  -33.2990 O   0  0  0  0  0  0  0  0  0  0  0  0
   -2.5260   19.0480  -33.1420 N   0  0  0  0  0  0  0  0  0  0  0  0
   -1.1450   18.6180  -33.4540 C   0  0  0  0  0  0  0  0  0  0  0  0
   -0.4530   19.6000  -34.4100 C   0  0  0  0  0  0  0  0  0  0  0  0
    0.0450   20.9040  -33.7730 C   0  0  0  0  0  0  0  0  0  0  0  0
   -0.8050   21.3830  -32.5850 C   0  0  0  0  0  0  0  0  0  0  0  0
   -2.2880   21.5230  -32.9610 C   0  0  0  0  0  0  0  0  0  0  0  0
   -2.8380   20.3470  -33.7760 C   0  0  0  0  0  0  0  0  0  0  0  0
   -5.9290   19.3500  -33.2730 C   0  0  0  0  0  0  0  0  0  0  0  0
   -6.9280   22.9710  -31.3730 C   0  0  0  0  0  0  0  0  0  0  0  0
   -5.6390   22.5350  -31.7120 C   0  0  0  0  0  0  0  0  0  0  0  0
   -4.5270   23.3120  -31.3800 C   0  0  0  0  0  0  0  0  0  0  0  0
   -4.6920   24.5300  -30.7160 C   0  0  0  0  0  0  0  0  0  0  0  0
   -3.5810   25.2990  -30.3920 O   0  0  0  0  0  0  0  0  0  0  0  0
   -5.9760   24.9740  -30.3790 C   0  0  0  0  0  0  0  0  0  0  0  0
   -6.1370   26.1910  -29.7190 O   0  0  0  0  0  0  0  0  0  0  0  0
   -7.0930   24.1920  -30.7090 C   0  0  0  0  0  0  0  0  0  0  0  0
   -8.7545   18.8142  -31.4183 H   0  0  0  0  0  0  0  0  0  0  0  0
   -7.5505   16.6852  -30.9393 H   0  0  0  0  0  0  0  0  0  0  0  0
   -5.3098   16.2571  -31.9533 H   0  0  0  0  0  0  0  0  0  0  0  0
   -0.5680   18.5625  -32.5191 H   0  0  0  0  0  0  0  0  0  0  0  0
   -1.1919   17.6342  -33.9438 H   0  0  0  0  0  0  0  0  0  0  0  0
    0.4133   19.0873  -34.8534 H   0  0  0  0  0  0  0  0  0  0  0  0
   -1.2174   19.8957  -35.1436 H   0  0  0  0  0  0  0  0  0  0  0  0
    1.0747   20.7455  -33.4201 H   0  0  0  0  0  0  0  0  0  0  0  0
   -0.0219   21.6826  -34.5471 H   0  0  0  0  0  0  0  0  0  0  0  0
   -0.7131   20.6549  -31.7656 H   0  0  0  0  0  0  0  0  0  0  0  0
   -0.4360   22.3731  -32.2791 H   0  0  0  0  0  0  0  0  0  0  0  0
   -2.8738   21.6051  -32.0336 H   0  0  0  0  0  0  0  0  0  0  0  0
   -2.3724   22.4174  -33.5958 H   0  0  0  0  0  0  0  0  0  0  0  0
   -3.9301   20.4502  -33.8583 H   0  0  0  0  0  0  0  0  0  0  0  0
   -2.3640   20.3665  -34.7684 H   0  0  0  0  0  0  0  0  0  0  0  0
   -5.4713   20.1001  -33.9347 H   0  0  0  0  0  0  0  0  0  0  0  0
   -5.5035   21.5796  -32.2402 H   0  0  0  0  0  0  0  0  0  0  0  0
   -3.5172   22.9635  -31.6424 H   0  0  0  0  0  0  0  0  0  0  0  0
   -5.3710   26.6290  -29.2190 H   0  0  0  0  0  0  0  0  0  0  0  0
   -8.1026   24.5398  -30.4448 H   0  0  0  0  0  0  0  0  0  0  0  0
  1  2  2  0
  2  3  2  0
  2  4  1  0
  4  5  1  0
  5  6  2  0
  6  7  1  0
  7  8  2  0
  8  9  1  0
  9 10  1  0
 10 11  2  0
 10 12  2  0
 10 13  1  0
 13 14  1  0
 14 15  1  0
 15 16  1  0
 16 17  1  0
 17 18  1  0
 18 19  1  0
  9 20  2  0
  2 21  1  0
 21 22  2  0
 22 23  1  0
 23 24  2  0
 24 25  1  0
 24 26  1  0
 26 27  1  0
 26 28  2  0
 20  5  1  0
 28 21  1  0
 19 13  1  0
  6 29  1  0
  7 30  1  0
  8 31  1  0
 14 32  1  0
 14 33  1  0
 15 34  1  0
 15 35  1  0
 16 36  1  0
 16 37  1  0
 17 38  1  0
 17 39  1  0
 18 40  1  0
 18 41  1  0
 19 42  1  0
 19 43  1  0
 20 44  1  0
 22 45  1  0
 23 46  1  0
 27 47  1  0
 28 48  1  0
M  CHG  2   4  -1  25  -1
M  END
>  <UniqueID>  (27) 
27

>  <SMILES>  (27) 
O=S(=O)([N-]c1cccc(S(=O)(=O)N2CCCCCC2)c1)c1ccc([O-])c(O)c1

>  <Energy>  (27) 
53.89651082173959

>  <Genealogy>  (27) 
O=S(=O)([N-]c1cccc(S(=O)(=O)N2CCCCCC2)c1)c1ccc([O-])c(O)c1 (protonated)
O=S(=O)([N-]c1cccc(S(=O)(=O)N2CCCCCC2)c1)c1ccc([O-])c(O)c1 (3D coordinates assigned)
O=S(=O)([N-]c1cccc(S(=O)(=O)N2CCCCCC2)c1)c1ccc([O-])c(O)c1 (nonaromatic ring conformer: 53.89651082173959 kcal/mol)

>  <smiles>  (27) 
O=S(=O)(Nc1cccc(S(=O)(=O)N2CCCCCC2)c1)c1ccc(O)c(O)c1

>  <score_type>  (27) 
oracle

>  <origin>  (27) 
adgpu

>  <m_score__min__energy>  (27) 
-10.58

>  <m_primary>  (27) 
energy

$$$$
27:0
     RDKit          3D

 43 46  0  0  0  0  0  0  0  0999 V2000
   -6.5600   18.7500  -33.4950 C   0  0  0  0  0  0  0  0  0  0  0  0
   -7.2810   19.9330  -33.0400 N   0  0  0  0  0  0  0  0  0  0  0  0
   -8.6730   19.9860  -32.7190 C   0  0  0  0  0  0  0  0  0  0  0  0
   -9.5160   19.1180  -33.0680 O   0  0  0  0  0  0  0  0  0  0  0  0
   -8.9570   21.1650  -31.9150 C   0  0  0  0  0  0  0  0  0  0  0  0
  -10.0750   21.5300  -31.4650 O   0  0  0  0  0  0  0  0  0  0  0  0
   -7.6740   21.8180  -31.7170 C   0  0  0  0  0  0  0  0  0  0  0  0
   -7.3490   22.9670  -30.9990 C   0  0  0  0  0  0  0  0  0  0  0  0
   -5.9980   23.3630  -30.9550 C   0  0  0  0  0  0  0  0  0  0  0  0
   -5.5260   24.8360  -30.1160 S   0  0  0  0  0  0  0  0  0  0  0  0
   -6.7500   25.6790  -29.8950 O   0  0  0  0  0  0  0  0  0  0  0  0
   -4.5320   25.6190  -30.9270 O   0  0  0  0  0  0  0  0  0  0  0  0
   -4.8180   24.4340  -28.5820 N   0  0  0  0  0  0  0  0  0  0  0  0
   -3.6780   23.5670  -28.4440 C   0  0  0  0  0  0  0  0  0  0  0  0
   -3.8100   22.2660  -27.9260 C   0  0  0  0  0  0  0  0  0  0  0  0
   -2.6900   21.4400  -27.7600 C   0  0  0  0  0  0  0  0  0  0  0  0
   -1.4210   21.8970  -28.1700 C   0  0  0  0  0  0  0  0  0  0  0  0
   -1.2870   23.1890  -28.6930 C   0  0  0  0  0  0  0  0  0  0  0  0
   -2.4040   24.0180  -28.8340 C   0  0  0  0  0  0  0  0  0  0  0  0
   -2.2360   25.2970  -29.3540 O   0  0  0  0  0  0  0  0  0  0  0  0
   -0.1890   21.0480  -27.9560 C   0  0  0  0  0  0  0  0  0  0  0  0
   -0.5090   19.6200  -27.8140 N   0  0  0  0  0  0  0  0  0  0  0  0
   -1.5440   19.4190  -26.7910 C   0  0  0  0  0  0  0  0  0  0  0  0
   -2.8750   20.0420  -27.2290 C   0  0  0  0  0  0  0  0  0  0  0  0
   -5.0140   22.5940  -31.6190 C   0  0  0  0  0  0  0  0  0  0  0  0
   -5.3670   21.4350  -32.3300 C   0  0  0  0  0  0  0  0  0  0  0  0
   -6.7140   21.0670  -32.3720 C   0  0  0  0  0  0  0  0  0  0  0  0
   -6.2103   18.1762  -32.6241 H   0  0  0  0  0  0  0  0  0  0  0  0
   -7.2298   18.1233  -34.1021 H   0  0  0  0  0  0  0  0  0  0  0  0
   -5.6960   19.0581  -34.1021 H   0  0  0  0  0  0  0  0  0  0  0  0
   -8.1258   23.5486  -30.4810 H   0  0  0  0  0  0  0  0  0  0  0  0
   -5.3380   24.7420  -27.7310 H   0  0  0  0  0  0  0  0  0  0  0  0
   -4.8061   21.8916  -27.6473 H   0  0  0  0  0  0  0  0  0  0  0  0
   -0.2947   23.5548  -28.9954 H   0  0  0  0  0  0  0  0  0  0  0  0
    0.4818   21.1755  -28.8184 H   0  0  0  0  0  0  0  0  0  0  0  0
    0.2877   21.3790  -27.0216 H   0  0  0  0  0  0  0  0  0  0  0  0
   -0.8600   19.2580  -28.7320 H   0  0  0  0  0  0  0  0  0  0  0  0
   -1.6869   18.3402  -26.6304 H   0  0  0  0  0  0  0  0  0  0  0  0
   -1.2175   19.9061  -25.8604 H   0  0  0  0  0  0  0  0  0  0  0  0
   -3.3182   19.4170  -28.0183 H   0  0  0  0  0  0  0  0  0  0  0  0
   -3.5340   20.0944  -26.3498 H   0  0  0  0  0  0  0  0  0  0  0  0
   -3.9603   22.9071  -31.5782 H   0  0  0  0  0  0  0  0  0  0  0  0
   -4.6018   20.8322  -32.8410 H   0  0  0  0  0  0  0  0  0  0  0  0
  1  2  1  0
  2  3  1  0
  3  4  2  0
  3  5  1  0
  5  6  2  0
  5  7  1  0
  7  8  2  0
  8  9  1  0
  9 10  1  0
 10 11  2  0
 10 12  2  0
 10 13  1  0
 13 14  1  0
 14 15  2  0
 15 16  1  0
 16 17  2  0
 17 18  1  0
 18 19  2  0
 19 20  1  0
 17 21  1  0
 21 22  1  0
 22 23  1  0
 23 24  1  0
  9 25  2  0
 25 26  1  0
 26 27  2  0
 27  2  1  0
 27  7  1  0
 19 14  1  0
 24 16  1  0
  1 28  1  0
  1 29  1  0
  1 30  1  0
  8 31  1  0
 13 32  1  0
 15 33  1  0
 18 34  1  0
 21 35  1  0
 21 36  1  0
 22 37  1  0
 23 38  1  0
 23 39  1  0
 24 40  1  0
 24 41  1  0
 25 42  1  0
 26 43  1  0
M  CHG  1  20  -1
M  END
>  <UniqueID>  (28) 
28

>  <SMILES>  (28) 
CN1C(=O)C(=O)c2cc(S(=O)(=O)Nc3cc4c(cc3[O-])CNCC4)ccc21

>  <Energy>  (28) 
82.5314498172778

>  <Genealogy>  (28) 
CN1C(=O)C(=O)c2cc(S(=O)(=O)Nc3cc4c(cc3[O-])CNCC4)ccc21 (protonated)
CN1C(=O)C(=O)c2cc(S(=O)(=O)Nc3cc4c(cc3[O-])CNCC4)ccc21 (3D coordinates assigned)
CN1C(=O)C(=O)c2cc(S(=O)(=O)Nc3cc4c(cc3[O-])CNCC4)ccc21 (nonaromatic ring conformer: 82.5314498172778 kcal/mol)

>  <smiles>  (28) 
CN1C(=O)C(=O)c2cc(S(=O)(=O)Nc3cc4c(cc3O)CNCC4)ccc21

>  <score_type>  (28) 
oracle

>  <origin>  (28) 
adgpu

>  <m_score__min__energy>  (28) 
-14.02

>  <m_primary>  (28) 
energy

$$$$
28:0
     RDKit          3D

 63 66  0  0  0  0  0  0  0  0999 V2000
   -5.1030   24.8290  -31.5950 O   0  0  0  0  0  0  0  0  0  0  0  0
   -4.7730   24.3160  -30.4900 C   0  0  0  0  0  0  0  0  0  0  0  0
   -3.7510   24.9230  -29.6910 N   0  0  0  0  0  0  0  0  0  0  0  0
   -2.5850   24.2560  -29.1880 C   0  0  0  0  0  0  0  0  0  0  0  0
   -2.7000   22.9190  -28.7870 C   0  0  0  0  0  0  0  0  0  0  0  0
   -1.5900   22.2270  -28.2830 C   0  0  0  0  0  0  0  0  0  0  0  0
   -1.7610   20.5480  -27.7770 S   0  0  0  0  0  0  0  0  0  0  0  0
   -0.8990   20.3210  -26.5670 O   0  0  0  0  0  0  0  0  0  0  0  0
   -3.1920   20.2670  -27.4050 O   0  0  0  0  0  0  0  0  0  0  0  0
   -1.2590   19.4810  -29.0660 N   0  0  0  0  0  0  0  0  0  0  0  0
    0.1690   19.1270  -28.8970 C   0  0  0  0  0  0  0  0  0  0  0  0
    0.7730   18.5930  -30.1990 C   0  0  0  0  0  0  0  0  0  0  0  0
    0.7330   19.6600  -31.3070 C   0  0  0  0  0  0  0  0  0  0  0  0
   -0.3950   20.6860  -31.1020 C   0  0  0  0  0  0  0  0  0  0  0  0
   -1.6000   20.0520  -30.3930 C   0  0  0  0  0  0  0  0  0  0  0  0
   -0.3630   22.8880  -28.1530 C   0  0  0  0  0  0  0  0  0  0  0  0
   -0.2470   24.2310  -28.5190 C   0  0  0  0  0  0  0  0  0  0  0  0
   -1.3540   24.9240  -29.0200 C   0  0  0  0  0  0  0  0  0  0  0  0
   -1.2280   26.2780  -29.3100 O   0  0  0  0  0  0  0  0  0  0  0  0
   -5.4080   23.1180  -30.0230 N   0  0  0  0  0  0  0  0  0  0  0  0
   -6.3320   22.3370  -30.7980 C   0  0  0  0  0  0  0  0  0  0  0  0
   -7.6940   22.6800  -30.8800 C   0  0  0  0  0  0  0  0  0  0  0  0
   -8.5690   21.9090  -31.6500 C   0  0  0  0  0  0  0  0  0  0  0  0
   -8.0940   20.8010  -32.3540 C   0  0  0  0  0  0  0  0  0  0  0  0
   -6.7360   20.4650  -32.3040 C   0  0  0  0  0  0  0  0  0  0  0  0
   -6.1540   19.0570  -33.1900 S   0  0  0  0  0  0  0  0  0  0  0  0
   -7.0730   17.9000  -32.9090 O   0  0  0  0  0  0  0  0  0  0  0  0
   -6.1670   19.3330  -34.6690 O   0  0  0  0  0  0  0  0  0  0  0  0
   -4.5320   18.6700  -32.6700 N   0  0  0  0  0  0  0  0  0  0  0  0
   -3.5920   19.7800  -32.9740 C   0  0  0  0  0  0  0  0  0  0  0  0
   -2.7250   19.5110  -34.2120 C   0  0  0  0  0  0  0  0  0  0  0  0
   -1.9000   18.2230  -34.0440 C   0  0  0  0  0  0  0  0  0  0  0  0
   -2.6110   17.1710  -33.1760 C   0  0  0  0  0  0  0  0  0  0  0  0
   -4.1300   17.3560  -33.2190 C   0  0  0  0  0  0  0  0  0  0  0  0
   -5.8580   21.2380  -31.5310 C   0  0  0  0  0  0  0  0  0  0  0  0
   -3.6703   22.4072  -28.8683 H   0  0  0  0  0  0  0  0  0  0  0  0
    0.7252   20.0238  -28.5864 H   0  0  0  0  0  0  0  0  0  0  0  0
    0.2409   18.3378  -28.1342 H   0  0  0  0  0  0  0  0  0  0  0  0
    1.8183   18.3026  -30.0175 H   0  0  0  0  0  0  0  0  0  0  0  0
    0.1822   17.7254  -30.5281 H   0  0  0  0  0  0  0  0  0  0  0  0
    1.6955   20.1925  -31.3179 H   0  0  0  0  0  0  0  0  0  0  0  0
    0.5435   19.1434  -32.2595 H   0  0  0  0  0  0  0  0  0  0  0  0
   -0.0162   21.5184  -30.4907 H   0  0  0  0  0  0  0  0  0  0  0  0
   -0.7215   21.0465  -32.0886 H   0  0  0  0  0  0  0  0  0  0  0  0
   -2.3711   20.8242  -30.2545 H   0  0  0  0  0  0  0  0  0  0  0  0
   -1.9553   19.2249  -31.0251 H   0  0  0  0  0  0  0  0  0  0  0  0
    0.5121   22.3485  -27.7616 H   0  0  0  0  0  0  0  0  0  0  0  0
    0.7192   24.7460  -28.4128 H   0  0  0  0  0  0  0  0  0  0  0  0
   -5.2670   22.8620  -29.0190 H   0  0  0  0  0  0  0  0  0  0  0  0
   -8.0716   23.5583  -30.3360 H   0  0  0  0  0  0  0  0  0  0  0  0
   -9.6349   22.1759  -31.7015 H   0  0  0  0  0  0  0  0  0  0  0  0
   -8.7886   20.1904  -32.9495 H   0  0  0  0  0  0  0  0  0  0  0  0
   -4.1759   20.6960  -33.1475 H   0  0  0  0  0  0  0  0  0  0  0  0
   -2.9140   19.8814  -32.1137 H   0  0  0  0  0  0  0  0  0  0  0  0
   -3.3776   19.4070  -35.0914 H   0  0  0  0  0  0  0  0  0  0  0  0
   -2.0313   20.3548  -34.3416 H   0  0  0  0  0  0  0  0  0  0  0  0
   -1.7149   17.7915  -35.0388 H   0  0  0  0  0  0  0  0  0  0  0  0
   -0.9622   18.4932  -33.5366 H   0  0  0  0  0  0  0  0  0  0  0  0
   -2.3606   16.1675  -33.5506 H   0  0  0  0  0  0  0  0  0  0  0  0
   -2.2739   17.2908  -32.1358 H   0  0  0  0  0  0  0  0  0  0  0  0
   -4.4692   17.2859  -34.2630 H   0  0  0  0  0  0  0  0  0  0  0  0
   -4.5911   16.5692  -32.6038 H   0  0  0  0  0  0  0  0  0  0  0  0
   -4.7889   20.9810  -31.4988 H   0  0  0  0  0  0  0  0  0  0  0  0
  1  2  2  0
  2  3  1  0
  3  4  1  0
  4  5  2  0
  5  6  1  0
  6  7  1  0
  7  8  2  0
  7  9  2  0
  7 10  1  0
 10 11  1  0
 11 12  1  0
 12 13  1  0
 13 14  1  0
 14 15  1  0
  6 16  2  0
 16 17  1  0
 17 18  2  0
 18 19  1  0
  2 20  1  0
 20 21  1  0
 21 22  2  0
 22 23  1  0
 23 24  2  0
 24 25  1  0
 25 26  1  0
 26 27  2  0
 26 28  2  0
 26 29  1  0
 29 30  1  0
 30 31  1  0
 31 32  1  0
 32 33  1  0
 33 34  1  0
 25 35  2  0
 18  4  1  0
 35 21  1  0
 15 10  1  0
 34 29  1  0
  5 36  1  0
 11 37  1  0
 11 38  1  0
 12 39  1  0
 12 40  1  0
 13 41  1  0
 13 42  1  0
 14 43  1  0
 14 44  1  0
 15 45  1  0
 15 46  1  0
 16 47  1  0
 17 48  1  0
 20 49  1  0
 22 50  1  0
 23 51  1  0
 24 52  1  0
 30 53  1  0
 30 54  1  0
 31 55  1  0
 31 56  1  0
 32 57  1  0
 32 58  1  0
 33 59  1  0
 33 60  1  0
 34 61  1  0
 34 62  1  0
 35 63  1  0
M  CHG  2   3  -1  19  -1
M  END
>  <UniqueID>  (29) 
29

>  <SMILES>  (29) 
O=C([N-]c1cc(S(=O)(=O)N2CCCCC2)ccc1[O-])Nc1cccc(S(=O)(=O)N2CCCCC2)c1

>  <Energy>  (29) 
84.0573268374143

>  <Genealogy>  (29) 
O=C([N-]c1cc(S(=O)(=O)N2CCCCC2)ccc1[O-])Nc1cccc(S(=O)(=O)N2CCCCC2)c1 (protonated)
O=C([N-]c1cc(S(=O)(=O)N2CCCCC2)ccc1[O-])Nc1cccc(S(=O)(=O)N2CCCCC2)c1 (3D coordinates assigned)
O=C([N-]c1cc(S(=O)(=O)N2CCCCC2)ccc1[O-])Nc1cccc(S(=O)(=O)N2CCCCC2)c1 (nonaromatic ring conformer: 84.0573268374143 kcal/mol)

>  <smiles>  (29) 
O=C(Nc1cccc(S(=O)(=O)N2CCCCC2)c1)Nc1cc(S(=O)(=O)N2CCCCC2)ccc1O

>  <score_type>  (29) 
oracle

>  <origin>  (29) 
adgpu

>  <m_score__min__energy>  (29) 
-15.23

>  <m_primary>  (29) 
energy

$$$$
29:0
     RDKit          3D

 61 65  0  0  0  0  0  0  0  0999 V2000
   -2.6340   22.1310  -31.6300 O   0  0  0  0  0  0  0  0  0  0  0  0
   -3.3840   22.7500  -30.4820 S   0  0  0  0  0  0  0  0  0  0  0  0
   -3.1110   24.2270  -30.4960 O   0  0  0  0  0  0  0  0  0  0  0  0
   -5.1130   22.4570  -30.7320 C   0  0  0  0  0  0  0  0  0  0  0  0
   -5.5480   21.2520  -31.3070 C   0  0  0  0  0  0  0  0  0  0  0  0
   -6.9150   21.0090  -31.5070 C   0  0  0  0  0  0  0  0  0  0  0  0
   -7.4600   19.4710  -32.1840 S   0  0  0  0  0  0  0  0  0  0  0  0
   -8.2390   19.7360  -33.4420 O   0  0  0  0  0  0  0  0  0  0  0  0
   -8.3800   18.8000  -31.2010 O   0  0  0  0  0  0  0  0  0  0  0  0
   -6.1140   18.4120  -32.5570 N   0  0  0  0  0  0  0  0  0  0  0  0
   -5.2650   19.0140  -33.6100 C   0  0  0  0  0  0  0  0  0  0  0  0
   -4.3520   17.9580  -34.2480 C   0  0  0  0  0  0  0  0  0  0  0  0
   -5.1140   16.8680  -34.8880 N   0  0  0  0  0  0  0  0  0  0  0  0
   -6.4900   16.7210  -34.3820 C   0  0  0  0  0  0  0  0  0  0  0  0
   -6.5770   17.0380  -32.8820 C   0  0  0  0  0  0  0  0  0  0  0  0
   -7.8500   21.9910  -31.1590 C   0  0  0  0  0  0  0  0  0  0  0  0
   -7.4270   23.1910  -30.5880 C   0  0  0  0  0  0  0  0  0  0  0  0
   -6.0670   23.4300  -30.3660 C   0  0  0  0  0  0  0  0  0  0  0  0
   -5.6060   24.9620  -29.6310 Cl  0  0  0  0  0  0  0  0  0  0  0  0
   -2.7690   22.0440  -28.9700 C   0  0  0  0  0  0  0  0  0  0  0  0
   -3.1110   20.7090  -28.6940 C   0  0  0  0  0  0  0  0  0  0  0  0
   -2.5790   20.0480  -27.5860 C   0  0  0  0  0  0  0  0  0  0  0  0
   -1.6860   20.7050  -26.7460 C   0  0  0  0  0  0  0  0  0  0  0  0
   -1.3490   22.0360  -26.9900 C   0  0  0  0  0  0  0  0  0  0  0  0
   -1.9130   22.7390  -28.0690 C   0  0  0  0  0  0  0  0  0  0  0  0
   -1.5100   24.4600  -28.2390 S   0  0  0  0  0  0  0  0  0  0  0  0
   -2.7470   25.2900  -28.4340 O   0  0  0  0  0  0  0  0  0  0  0  0
   -0.6200   24.6140  -29.4400 O   0  0  0  0  0  0  0  0  0  0  0  0
   -0.6900   25.1000  -26.8030 C   0  0  0  0  0  0  0  0  0  0  0  0
   -1.4520   25.4630  -25.6810 C   0  0  0  0  0  0  0  0  0  0  0  0
   -0.8310   25.9260  -24.5190 C   0  0  0  0  0  0  0  0  0  0  0  0
    0.5590   26.0280  -24.4540 C   0  0  0  0  0  0  0  0  0  0  0  0
    1.3390   25.6660  -25.5610 C   0  0  0  0  0  0  0  0  0  0  0  0
    2.7370   25.7600  -25.5190 C   0  0  0  0  0  0  0  0  0  0  0  0
    3.4910   25.4040  -26.6370 C   0  0  0  0  0  0  0  0  0  0  0  0
    2.8420   24.9570  -27.7890 C   0  0  0  0  0  0  0  0  0  0  0  0
    1.4860   24.8640  -27.8150 N   0  0  0  0  0  0  0  0  0  0  0  0
    0.7160   25.2000  -26.7430 C   0  0  0  0  0  0  0  0  0  0  0  0
   -4.8102   20.4918  -31.6032 H   0  0  0  0  0  0  0  0  0  0  0  0
   -5.5380   18.3570  -31.6840 H   0  0  0  0  0  0  0  0  0  0  0  0
   -5.9100   19.4494  -34.3874 H   0  0  0  0  0  0  0  0  0  0  0  0
   -4.6361   19.7918  -33.1523 H   0  0  0  0  0  0  0  0  0  0  0  0
   -3.7260   18.4459  -35.0097 H   0  0  0  0  0  0  0  0  0  0  0  0
   -3.7412   17.5151  -33.4476 H   0  0  0  0  0  0  0  0  0  0  0  0
   -5.1690   17.0560  -35.9170 H   0  0  0  0  0  0  0  0  0  0  0  0
   -7.1480   17.4103  -34.9314 H   0  0  0  0  0  0  0  0  0  0  0  0
   -6.8023   15.6770  -34.5319 H   0  0  0  0  0  0  0  0  0  0  0  0
   -7.6240   16.9346  -32.5609 H   0  0  0  0  0  0  0  0  0  0  0  0
   -5.9176   16.3326  -32.3552 H   0  0  0  0  0  0  0  0  0  0  0  0
   -8.9213   21.8157  -31.3364 H   0  0  0  0  0  0  0  0  0  0  0  0
   -8.1682   23.9549  -30.3103 H   0  0  0  0  0  0  0  0  0  0  0  0
   -3.8071   20.1782  -29.3601 H   0  0  0  0  0  0  0  0  0  0  0  0
   -2.8660   19.0069  -27.3769 H   0  0  0  0  0  0  0  0  0  0  0  0
   -1.2455   20.1745  -25.8890 H   0  0  0  0  0  0  0  0  0  0  0  0
   -0.6313   22.5433  -26.3285 H   0  0  0  0  0  0  0  0  0  0  0  0
   -2.5484   25.3819  -25.7176 H   0  0  0  0  0  0  0  0  0  0  0  0
   -1.4414   26.2120  -23.6497 H   0  0  0  0  0  0  0  0  0  0  0  0
    1.0421   26.3920  -23.5353 H   0  0  0  0  0  0  0  0  0  0  0  0
    3.2384   26.1138  -24.6061 H   0  0  0  0  0  0  0  0  0  0  0  0
    4.5884   25.4749  -26.6111 H   0  0  0  0  0  0  0  0  0  0  0  0
    3.4286   24.6796  -28.6772 H   0  0  0  0  0  0  0  0  0  0  0  0
  1  2  2  0
  2  3  2  0
  2  4  1  0
  4  5  2  0
  5  6  1  0
  6  7  1  0
  7  8  2  0
  7  9  2  0
  7 10  1  0
 10 11  1  0
 11 12  1  0
 12 13  1  0
 13 14  1  0
 14 15  1  0
  6 16  2  0
 16 17  1  0
 17 18  2  0
 18 19  1  0
  2 20  1  0
 20 21  2  0
 21 22  1  0
 22 23  2  0
 23 24  1  0
 24 25  2  0
 25 26  1  0
 26 27  2  0
 26 28  2  0
 26 29  1  0
 29 30  2  0
 30 31  1  0
 31 32  2  0
 32 33  1  0
 33 34  2  0
 34 35  1  0
 35 36  2  0
 36 37  1  0
 37 38  2  0
 18  4  1  0
 25 20  1  0
 38 29  1  0
 15 10  1  0
 38 33  1  0
  5 39  1  0
 10 40  1  0
 11 41  1  0
 11 42  1  0
 12 43  1  0
 12 44  1  0
 13 45  1  0
 14 46  1  0
 14 47  1  0
 15 48  1  0
 15 49  1  0
 16 50  1  0
 17 51  1  0
 21 52  1  0
 22 53  1  0
 23 54  1  0
 24 55  1  0
 30 56  1  0
 31 57  1  0
 32 58  1  0
 34 59  1  0
 35 60  1  0
 36 61  1  0
M  CHG  1  10   1
M  END
>  <UniqueID>  (30) 
30

>  <SMILES>  (30) 
O=S(=O)(c1cc(S(=O)(=O)[NH+]2CCNCC2)ccc1Cl)c1ccccc1S(=O)(=O)c1cccc2cccnc12

>  <Energy>  (30) 
84.80832847973109

>  <Genealogy>  (30) 
O=S(=O)(c1cc(S(=O)(=O)[NH+]2CCNCC2)ccc1Cl)c1ccccc1S(=O)(=O)c1cccc2cccnc12 (protonated)
O=S(=O)(c1cc(S(=O)(=O)[NH+]2CCNCC2)ccc1Cl)c1ccccc1S(=O)(=O)c1cccc2cccnc12 (3D coordinates assigned)
O=S(=O)(c1cc(S(=O)(=O)[NH+]2CCNCC2)ccc1Cl)c1ccccc1S(=O)(=O)c1cccc2cccnc12 (nonaromatic ring conformer: 84.80832847973109 kcal/mol)

>  <smiles>  (30) 
O=S(=O)(c1cc(S(=O)(=O)N2CCNCC2)ccc1Cl)c1ccccc1S(=O)(=O)c1cccc2cccnc12

>  <score_type>  (30) 
oracle

>  <origin>  (30) 
adgpu

>  <m_score__min__energy>  (30) 
-12.01

>  <m_primary>  (30) 
energy

$$$$
30:0
     RDKit          3D

 54 56  0  0  0  0  0  0  0  0999 V2000
   -8.4220   20.0960  -32.3290 C   0  0  0  0  0  0  0  0  0  0  0  0
   -8.3920   21.5200  -31.7810 C   0  0  0  0  0  0  0  0  0  0  0  0
   -7.2050   22.3080  -32.3450 C   0  0  0  0  0  0  0  0  0  0  0  0
   -6.0750   22.2780  -31.4050 N   0  0  0  0  0  0  0  0  0  0  0  0
   -6.2480   22.7570  -30.0310 C   0  0  0  0  0  0  0  0  0  0  0  0
   -6.5930   24.2440  -30.0200 C   0  0  0  0  0  0  0  0  0  0  0  0
   -5.4460   25.0320  -30.4780 C   0  0  0  0  0  0  0  0  0  0  0  0
   -4.5320   25.6440  -30.8420 N   0  0  0  0  0  0  0  0  0  0  0  0
   -4.7740   21.8730  -31.8690 C   0  0  0  0  0  0  0  0  0  0  0  0
   -3.4690   22.3130  -31.6840 C   0  0  0  0  0  0  0  0  0  0  0  0
   -2.8590   23.3870  -30.9590 N   0  0  0  0  0  0  0  0  0  0  0  0
   -2.3460   23.2520  -29.6190 C   0  0  0  0  0  0  0  0  0  0  0  0
   -2.2840   21.9690  -29.0480 C   0  0  0  0  0  0  0  0  0  0  0  0
   -1.7840   21.7780  -27.7510 C   0  0  0  0  0  0  0  0  0  0  0  0
   -1.6600   20.1560  -27.0680 S   0  0  0  0  0  0  0  0  0  0  0  0
   -2.8460   19.3420  -27.5100 O   0  0  0  0  0  0  0  0  0  0  0  0
   -1.6970   20.2500  -25.5680 O   0  0  0  0  0  0  0  0  0  0  0  0
   -0.1920   19.3460  -27.5720 N   0  0  0  0  0  0  0  0  0  0  0  0
   -0.4770   18.2630  -28.5210 C   0  0  0  0  0  0  0  0  0  0  0  0
   -0.2610   18.8070  -29.9230 C   0  0  0  0  0  0  0  0  0  0  0  0
    0.6050   20.0400  -29.7550 C   0  0  0  0  0  0  0  0  0  0  0  0
    0.7330   20.2630  -28.2530 C   0  0  0  0  0  0  0  0  0  0  0  0
   -1.3650   22.8840  -27.0050 C   0  0  0  0  0  0  0  0  0  0  0  0
   -1.4300   24.1640  -27.5540 C   0  0  0  0  0  0  0  0  0  0  0  0
   -1.9170   24.3590  -28.8500 C   0  0  0  0  0  0  0  0  0  0  0  0
   -1.9830   25.6550  -29.3430 O   0  0  0  0  0  0  0  0  0  0  0  0
   -3.0270   21.3570  -32.5810 C   0  0  0  0  0  0  0  0  0  0  0  0
   -1.9160   21.0560  -33.0920 O   0  0  0  0  0  0  0  0  0  0  0  0
   -4.3110   20.8680  -32.7000 C   0  0  0  0  0  0  0  0  0  0  0  0
   -4.8430   19.9240  -33.3400 O   0  0  0  0  0  0  0  0  0  0  0  0
   -8.4371   19.3815  -31.4927 H   0  0  0  0  0  0  0  0  0  0  0  0
   -9.3232   19.9589  -32.9446 H   0  0  0  0  0  0  0  0  0  0  0  0
   -7.5273   19.9211  -32.9446 H   0  0  0  0  0  0  0  0  0  0  0  0
   -9.3258   22.0307  -32.0588 H   0  0  0  0  0  0  0  0  0  0  0  0
   -8.2872   21.4692  -30.6872 H   0  0  0  0  0  0  0  0  0  0  0  0
   -6.8936   21.8597  -33.3000 H   0  0  0  0  0  0  0  0  0  0  0  0
   -7.5122   23.3529  -32.4994 H   0  0  0  0  0  0  0  0  0  0  0  0
   -7.0619   22.1935  -29.5514 H   0  0  0  0  0  0  0  0  0  0  0  0
   -5.3067   22.6072  -29.4820 H   0  0  0  0  0  0  0  0  0  0  0  0
   -7.4478   24.4238  -30.6886 H   0  0  0  0  0  0  0  0  0  0  0  0
   -6.8495   24.5458  -28.9938 H   0  0  0  0  0  0  0  0  0  0  0  0
   -3.1190   24.3470  -31.2770 H   0  0  0  0  0  0  0  0  0  0  0  0
   -2.6329   21.1012  -29.6270 H   0  0  0  0  0  0  0  0  0  0  0  0
    0.2660   18.9530  -26.7160 H   0  0  0  0  0  0  0  0  0  0  0  0
    0.2022   17.4171  -28.3388 H   0  0  0  0  0  0  0  0  0  0  0  0
   -1.5114   17.9085  -28.4010 H   0  0  0  0  0  0  0  0  0  0  0  0
    0.2506   18.0613  -30.5493 H   0  0  0  0  0  0  0  0  0  0  0  0
   -1.2142   19.0444  -30.4180 H   0  0  0  0  0  0  0  0  0  0  0  0
    1.5961   19.8746  -30.2025 H   0  0  0  0  0  0  0  0  0  0  0  0
    0.1625   20.9139  -30.2554 H   0  0  0  0  0  0  0  0  0  0  0  0
    1.7649   20.0569  -27.9326 H   0  0  0  0  0  0  0  0  0  0  0  0
    0.4883   21.3055  -28.0015 H   0  0  0  0  0  0  0  0  0  0  0  0
   -0.9833   22.7439  -25.9829 H   0  0  0  0  0  0  0  0  0  0  0  0
   -1.0950   25.0285  -26.9620 H   0  0  0  0  0  0  0  0  0  0  0  0
  1  2  1  0
  2  3  1  0
  3  4  1  0
  4  5  1  0
  5  6  1  0
  6  7  1  0
  7  8  3  0
  4  9  1  0
  9 10  2  0
 10 11  1  0
 11 12  1  0
 12 13  2  0
 13 14  1  0
 14 15  1  0
 15 16  2  0
 15 17  2  0
 15 18  1  0
 18 19  1  0
 19 20  1  0
 20 21  1  0
 21 22  1  0
 14 23  2  0
 23 24  1  0
 24 25  2  0
 25 26  1  0
 10 27  1  0
 27 28  2  0
 27 29  1  0
 29 30  2  0
 29  9  1  0
 25 12  1  0
 22 18  1  0
  1 31  1  0
  1 32  1  0
  1 33  1  0
  2 34  1  0
  2 35  1  0
  3 36  1  0
  3 37  1  0
  5 38  1  0
  5 39  1  0
  6 40  1  0
  6 41  1  0
 11 42  1  0
 13 43  1  0
 18 44  1  0
 19 45  1  0
 19 46  1  0
 20 47  1  0
 20 48  1  0
 21 49  1  0
 21 50  1  0
 22 51  1  0
 22 52  1  0
 23 53  1  0
 24 54  1  0
M  CHG  2  18   1  26  -1
M  END
>  <UniqueID>  (31) 
31

>  <SMILES>  (31) 
CCCN(CCC#N)c1c(Nc2cc(S(=O)(=O)[NH+]3CCCC3)ccc2[O-])c(=O)c1=O

>  <Energy>  (31) 
43.52216563340511

>  <Genealogy>  (31) 
CCCN(CCC#N)c1c(Nc2cc(S(=O)(=O)[NH+]3CCCC3)ccc2[O-])c(=O)c1=O (protonated)
CCCN(CCC#N)c1c(Nc2cc(S(=O)(=O)[NH+]3CCCC3)ccc2[O-])c(=O)c1=O (3D coordinates assigned)
CCCN(CCC#N)c1c(Nc2cc(S(=O)(=O)[NH+]3CCCC3)ccc2[O-])c(=O)c1=O (nonaromatic ring conformer: 43.52216563340511 kcal/mol)

>  <smiles>  (31) 
CCCN(CCC#N)c1c(Nc2cc(S(=O)(=O)N3CCCC3)ccc2O)c(=O)c1=O

>  <score_type>  (31) 
oracle

>  <origin>  (31) 
adgpu

>  <m_score__min__energy>  (31) 
-11.390000000000001

>  <m_primary>  (31) 
energy

$$$$
31:0
     RDKit          3D

 46 48  0  0  1  0  0  0  0  0999 V2000
    0.1390   22.3570  -26.9460 C   0  0  0  0  0  0  0  0  0  0  0  0
    0.1870   23.7340  -27.2580 O   0  0  0  0  0  0  0  0  0  0  0  0
    0.2050   24.2170  -28.5490 N   0  0  0  0  0  0  0  0  0  0  0  0
   -0.9100   24.7590  -28.9720 C   0  0  0  0  0  0  0  0  0  0  0  0
   -2.0420   24.8110  -28.0860 C   0  0  0  0  0  0  0  0  0  0  0  0
   -3.2300   24.2520  -28.4260 C   0  0  0  0  0  0  0  0  0  0  0  0
   -3.5270   23.6120  -29.6570 N   0  0  0  0  0  0  0  0  0  0  0  0
   -2.7000   22.6100  -30.2820 C   0  0  0  0  0  0  0  0  0  0  0  0
   -3.6310   21.4130  -30.5690 C   0  0  0  0  0  0  0  0  0  0  0  0
   -4.7270   21.8160  -31.3930 N   0  0  0  0  0  0  0  0  0  0  0  0
   -5.4330   20.8000  -32.1320 C   0  0  0  0  0  0  0  0  0  0  0  0
   -4.8510   20.0780  -33.1440 C   0  0  0  0  0  0  0  0  0  0  0  0
   -5.5400   19.0820  -33.8420 C   0  0  0  0  0  0  0  0  0  0  0  0
   -6.8670   18.8030  -33.5070 C   0  0  0  0  0  0  0  0  0  0  0  0
   -7.4670   19.5230  -32.4880 C   0  0  0  0  0  0  0  0  0  0  0  0
   -8.8920   19.2640  -32.0840 C   0  0  0  0  0  0  0  0  0  0  0  0
   -9.2000   20.3510  -31.2480 F   0  0  0  0  0  0  0  0  0  0  0  0
   -8.9890   18.1520  -31.2970 F   0  0  0  0  0  0  0  0  0  0  0  0
   -9.7610   19.2960  -33.1420 F   0  0  0  0  0  0  0  0  0  0  0  0
   -6.7540   20.5000  -31.8190 C   0  0  0  0  0  0  0  0  0  0  0  0
   -5.1160   23.1990  -31.5110 C   0  0  0  0  0  0  0  0  0  0  0  0
   -4.7610   23.9910  -30.3070 C   0  0  0  0  0  0  0  0  0  0  0  0
   -4.2510   24.3220  -27.5310 N   0  0  0  0  0  0  0  0  0  0  0  0
   -4.1000   24.9260  -26.3410 C   0  0  0  0  0  0  0  0  0  0  0  0
   -2.9340   25.4860  -25.9860 N   0  0  0  0  0  0  0  0  0  0  0  0
   -1.9020   25.4320  -26.8520 C   0  0  0  0  0  0  0  0  0  0  0  0
   -0.7720   25.9620  -26.5210 N   0  0  0  0  0  0  0  0  0  0  0  0
    0.1345   22.2285  -25.8535 H   0  0  0  0  0  0  0  0  0  0  0  0
   -0.7750   21.9164  -27.3708 H   0  0  0  0  0  0  0  0  0  0  0  0
    1.0202   21.8539  -27.3708 H   0  0  0  0  0  0  0  0  0  0  0  0
   -0.9797   25.1686  -29.9905 H   0  0  0  0  0  0  0  0  0  0  0  0
   -2.2732   22.9963  -31.2194 H   0  0  0  0  0  0  0  0  0  0  0  0
   -1.8576   22.3211  -29.6363 H   0  0  0  0  0  0  0  0  0  0  0  0
   -3.0606   20.6266  -31.0849 H   0  0  0  0  0  0  0  0  0  0  0  0
   -4.0249   21.0327  -29.6150 H   0  0  0  0  0  0  0  0  0  0  0  0
   -3.8063   20.2905  -33.4151 H   0  0  0  0  0  0  0  0  0  0  0  0
   -5.0417   18.5230  -34.6478 H   0  0  0  0  0  0  0  0  0  0  0  0
   -7.4267   18.0233  -34.0445 H   0  0  0  0  0  0  0  0  0  0  0  0
   -7.2487   21.0593  -31.0113 H   0  0  0  0  0  0  0  0  0  0  0  0
   -4.6081   23.6357  -32.3835 H   0  0  0  0  0  0  0  0  0  0  0  0
   -6.2098   23.2315  -31.6235 H   0  0  0  0  0  0  0  0  0  0  0  0
   -4.6762   25.0457  -30.6076 H   0  0  0  0  0  0  0  0  0  0  0  0
   -5.5596   23.8028  -29.5743 H   0  0  0  0  0  0  0  0  0  0  0  0
   -5.1990   23.8970  -27.7610 H   0  0  0  0  0  0  0  0  0  0  0  0
   -4.9497   24.9622  -25.6434 H   0  0  0  0  0  0  0  0  0  0  0  0
    0.0390   25.9290  -27.1790 H   0  0  0  0  0  0  0  0  0  0  0  0
  1  2  1  0
  2  3  1  0
  3  4  2  0
  4  5  1  0
  5  6  2  0
  6  7  1  0
  7  8  1  0
  8  9  1  0
  9 10  1  0
 10 11  1  0
 11 12  2  0
 12 13  1  0
 13 14  2  0
 14 15  1  0
 15 16  1  0
 16 17  1  0
 16 18  1  0
 16 19  1  0
 15 20  2  0
 10 21  1  0
 21 22  1  0
  6 23  1  0
 23 24  1  0
 24 25  2  0
 25 26  1  0
 26 27  2  3
 26  5  1  0
 22  7  1  0
 20 11  1  0
  1 28  1  0
  1 29  1  0
  1 30  1  0
  4 31  1  0
  8 32  1  0
  8 33  1  0
  9 34  1  0
  9 35  1  0
 12 36  1  0
 13 37  1  0
 14 38  1  0
 20 39  1  0
 21 40  1  0
 21 41  1  0
 22 42  1  0
 22 43  1  0
 23 44  1  0
 24 45  1  0
 27 46  1  0
M  END
>  <smiles>  (32) 
CON=Cc1c(N2CCN(c3cccc(C(F)(F)F)c3)CC2)[nH]cnc1=N

>  <score_type>  (32) 
oracle

>  <origin>  (32) 
adgpu

>  <m_score__min__energy>  (32) 
-7.5999999999999996

>  <m_primary>  (32) 
energy

$$$$
32:0
     RDKit          3D

 65 68  0  0  0  0  0  0  0  0999 V2000
   -1.0010   26.3610  -28.1650 C   0  0  0  0  0  0  0  0  0  0  0  0
   -1.9820   25.6380  -28.9010 O   0  0  0  0  0  0  0  0  0  0  0  0
   -2.4790   24.3730  -28.5420 C   0  0  0  0  0  0  0  0  0  0  0  0
   -1.7110   23.4580  -27.7930 C   0  0  0  0  0  0  0  0  0  0  0  0
   -2.2270   22.1960  -27.4620 C   0  0  0  0  0  0  0  0  0  0  0  0
   -1.3990   21.2340  -26.7100 C   0  0  0  0  0  0  0  0  0  0  0  0
   -0.8610   21.5960  -25.6320 O   0  0  0  0  0  0  0  0  0  0  0  0
   -1.1870   19.8930  -27.1730 N   0  0  0  0  0  0  0  0  0  0  0  0
    0.0930   19.4160  -28.2470 S   0  0  0  0  0  0  0  0  0  0  0  0
    1.3800   20.0320  -27.7780 O   0  0  0  0  0  0  0  0  0  0  0  0
    0.2100   17.9180  -28.2470 O   0  0  0  0  0  0  0  0  0  0  0  0
   -0.2650   19.9540  -29.8960 C   0  0  0  0  0  0  0  0  0  0  0  0
   -1.0860   21.0790  -30.0840 C   0  0  0  0  0  0  0  0  0  0  0  0
   -1.4010   21.5260  -31.3690 C   0  0  0  0  0  0  0  0  0  0  0  0
   -0.9000   20.8570  -32.4840 C   0  0  0  0  0  0  0  0  0  0  0  0
   -0.0850   19.7350  -32.3180 C   0  0  0  0  0  0  0  0  0  0  0  0
    0.2390   19.2670  -31.0310 C   0  0  0  0  0  0  0  0  0  0  0  0
    1.1200   18.0530  -30.8960 C   0  0  0  0  0  0  0  0  0  0  0  0
   -3.5380   21.8700  -27.8290 C   0  0  0  0  0  0  0  0  0  0  0  0
   -4.3080   22.7690  -28.5650 C   0  0  0  0  0  0  0  0  0  0  0  0
   -3.7800   24.0120  -28.9480 C   0  0  0  0  0  0  0  0  0  0  0  0
   -4.6100   24.9500  -29.7900 C   0  0  0  0  0  0  0  0  0  0  0  0
   -4.6600   24.5040  -31.1470 O   0  0  0  0  0  0  0  0  0  0  0  0
   -5.3220   23.3500  -31.6000 C   0  0  0  0  0  0  0  0  0  0  0  0
   -6.6990   23.3200  -31.8610 C   0  0  0  0  0  0  0  0  0  0  0  0
   -7.3100   22.1380  -32.2770 C   0  0  0  0  0  0  0  0  0  0  0  0
   -6.5680   20.9550  -32.4470 C   0  0  0  0  0  0  0  0  0  0  0  0
   -5.1580   20.9940  -32.2420 C   0  0  0  0  0  0  0  0  0  0  0  0
   -4.5670   22.1920  -31.7950 C   0  0  0  0  0  0  0  0  0  0  0  0
   -4.2480   19.7870  -32.3840 C   0  0  0  0  0  0  0  0  0  0  0  0
   -4.5700   18.9090  -33.6030 C   0  0  0  0  0  0  0  0  0  0  0  0
   -5.6120   17.8980  -33.3100 N   0  0  2  0  0  0  0  0  0  0  0  0
   -6.1270   17.3260  -34.5700 C   0  0  0  0  0  0  0  0  0  0  0  0
   -6.7180   18.3990  -32.4550 C   0  0  0  0  0  0  0  0  0  0  0  0
   -7.3190   19.7310  -32.9370 C   0  0  0  0  0  0  0  0  0  0  0  0
   -1.1799   26.2291  -27.0877 H   0  0  0  0  0  0  0  0  0  0  0  0
    0.0003   25.9833  -28.4193 H   0  0  0  0  0  0  0  0  0  0  0  0
   -1.0654   27.4293  -28.4193 H   0  0  0  0  0  0  0  0  0  0  0  0
   -0.6984   23.7360  -27.4653 H   0  0  0  0  0  0  0  0  0  0  0  0
   -1.4849   21.6134  -29.2092 H   0  0  0  0  0  0  0  0  0  0  0  0
   -2.0456   22.4075  -31.5012 H   0  0  0  0  0  0  0  0  0  0  0  0
   -1.1465   21.2127  -33.4953 H   0  0  0  0  0  0  0  0  0  0  0  0
    0.3077   19.2118  -33.2023 H   0  0  0  0  0  0  0  0  0  0  0  0
    1.2799   17.8327  -29.8302 H   0  0  0  0  0  0  0  0  0  0  0  0
    0.6349   17.1923  -31.3796 H   0  0  0  0  0  0  0  0  0  0  0  0
    2.0887   18.2473  -31.3796 H   0  0  0  0  0  0  0  0  0  0  0  0
   -3.9629   20.8989  -27.5349 H   0  0  0  0  0  0  0  0  0  0  0  0
   -5.3371   22.5025  -28.8478 H   0  0  0  0  0  0  0  0  0  0  0  0
   -5.6321   24.9891  -29.3853 H   0  0  0  0  0  0  0  0  0  0  0  0
   -4.1494   25.9486  -29.7637 H   0  0  0  0  0  0  0  0  0  0  0  0
   -7.2999   24.2330  -31.7370 H   0  0  0  0  0  0  0  0  0  0  0  0
   -8.3918   22.1303  -32.4759 H   0  0  0  0  0  0  0  0  0  0  0  0
   -3.4856   22.2156  -31.5950 H   0  0  0  0  0  0  0  0  0  0  0  0
   -3.2114   20.1430  -32.4769 H   0  0  0  0  0  0  0  0  0  0  0  0
   -4.4000   19.1637  -31.4905 H   0  0  0  0  0  0  0  0  0  0  0  0
   -4.9240   19.5548  -34.4201 H   0  0  0  0  0  0  0  0  0  0  0  0
   -3.6512   18.3729  -33.8828 H   0  0  0  0  0  0  0  0  0  0  0  0
   -5.1520   17.1120  -32.7920 H   0  0  0  0  0  0  0  0  0  0  0  0
   -6.8471   16.5262  -34.3423 H   0  0  0  0  0  0  0  0  0  0  0  0
   -6.6263   18.1138  -35.1532 H   0  0  0  0  0  0  0  0  0  0  0  0
   -5.2913   16.9119  -35.1532 H   0  0  0  0  0  0  0  0  0  0  0  0
   -7.5165   17.6425  -32.4418 H   0  0  0  0  0  0  0  0  0  0  0  0
   -6.2946   18.5806  -31.4561 H   0  0  0  0  0  0  0  0  0  0  0  0
   -7.3115   19.7369  -34.0370 H   0  0  0  0  0  0  0  0  0  0  0  0
   -8.3360   19.7921  -32.5224 H   0  0  0  0  0  0  0  0  0  0  0  0
  1  2  1  0
  2  3  1  0
  3  4  2  0
  4  5  1  0
  5  6  1  0
  6  7  2  0
  6  8  1  0
  8  9  1  0
  9 10  2  0
  9 11  2  0
  9 12  1  0
 12 13  2  0
 13 14  1  0
 14 15  2  0
 15 16  1  0
 16 17  2  0
 17 18  1  0
  5 19  2  0
 19 20  1  0
 20 21  2  0
 21 22  1  0
 22 23  1  0
 23 24  1  0
 24 25  2  0
 25 26  1  0
 26 27  2  0
 27 28  1  0
 28 29  2  0
 28 30  1  0
 30 31  1  0
 31 32  1  0
 32 33  1  0
 32 34  1  0
 34 35  1  0
 21  3  1  0
 29 24  1  0
 17 12  1  0
 35 27  1  0
  1 36  1  0
  1 37  1  0
  1 38  1  0
  4 39  1  0
 13 40  1  0
 14 41  1  0
 15 42  1  0
 16 43  1  0
 18 44  1  0
 18 45  1  0
 18 46  1  0
 19 47  1  0
 20 48  1  0
 22 49  1  0
 22 50  1  0
 25 51  1  0
 26 52  1  0
 29 53  1  0
 30 54  1  0
 30 55  1  0
 31 56  1  0
 31 57  1  0
 32 58  1  1
 33 59  1  0
 33 60  1  0
 33 61  1  0
 34 62  1  0
 34 63  1  0
 35 64  1  0
 35 65  1  0
M  CHG  2   8  -1  32   1
M  END
>  <UniqueID>  (33) 
32

>  <SMILES>  (33) 
COc1cc(C(=O)[N-]S(=O)(=O)c2ccccc2C)ccc1COc1ccc2c(c1)CC[N@H+](C)CC2

>  <Energy>  (33) 
89.43830360816484

>  <Genealogy>  (33) 
COc1cc(C(=O)[N-]S(=O)(=O)c2ccccc2C)ccc1COc1ccc2c(c1)CC[NH+](C)CC2 (protonated)
COc1cc(C(=O)[N-]S(=O)(=O)c2ccccc2C)ccc1COc1ccc2c(c1)CC[N@H+](C)CC2 (chirality)
COc1cc(C(=O)[N-]S(=O)(=O)c2ccccc2C)ccc1COc1ccc2c(c1)CC[N@H+](C)CC2 (3D coordinates assigned)
COc1cc(C(=O)[N-]S(=O)(=O)c2ccccc2C)ccc1COc1ccc2c(c1)CC[N@H+](C)CC2 (nonaromatic ring conformer: 89.43830360816484 kcal/mol)

>  <smiles>  (33) 
COc1cc(C(=O)NS(=O)(=O)c2ccccc2C)ccc1COc1ccc2c(c1)CCN(C)CC2

>  <score_type>  (33) 
oracle

>  <origin>  (33) 
adgpu

>  <m_score__min__energy>  (33) 
-9.0500000000000007

>  <m_primary>  (33) 
energy

$$$$
33:0
     RDKit          3D

 37 40  0  0  0  0  0  0  0  0999 V2000
   -0.8890   26.8840  -23.8060 N   0  0  0  0  0  0  0  0  0  0  0  0
   -0.3380   26.5650  -25.0830 C   0  0  0  0  0  0  0  0  0  0  0  0
    0.8520   26.8900  -25.3360 O   0  0  0  0  0  0  0  0  0  0  0  0
   -1.1520   25.8580  -26.1000 C   0  0  0  0  0  0  0  0  0  0  0  0
   -0.6270   25.5880  -27.3770 C   0  0  0  0  0  0  0  0  0  0  0  0
   -1.3980   24.9220  -28.3340 C   0  0  0  0  0  0  0  0  0  0  0  0
   -2.7070   24.5110  -28.0360 C   0  0  0  0  0  0  0  0  0  0  0  0
   -3.4990   23.8260  -29.0220 N   0  0  0  0  0  0  0  0  0  0  0  0
   -3.8770   22.5280  -29.0080 C   0  0  0  0  0  0  0  0  0  0  0  0
   -3.5280   21.6260  -28.0070 O   0  0  0  0  0  0  0  0  0  0  0  0
   -4.6290   22.2150  -30.1270 C   0  0  0  0  0  0  0  0  0  0  0  0
   -4.7070   23.3830  -30.8590 C   0  0  0  0  0  0  0  0  0  0  0  0
   -5.5460   23.5980  -32.4240 S   0  0  0  0  0  0  0  0  0  0  0  0
   -6.3000   21.9800  -32.3270 C   0  0  0  0  0  0  0  0  0  0  0  0
   -5.6590   20.8500  -32.7230 N   0  0  0  0  0  0  0  0  0  0  0  0
   -6.5680   19.9000  -32.4620 C   0  0  0  0  0  0  0  0  0  0  0  0
   -6.4490   18.5270  -32.6670 C   0  0  0  0  0  0  0  0  0  0  0  0
   -7.5440   17.7170  -32.3080 C   0  0  0  0  0  0  0  0  0  0  0  0
   -8.7110   18.2940  -31.7590 C   0  0  0  0  0  0  0  0  0  0  0  0
   -8.7940   19.6860  -31.5650 C   0  0  0  0  0  0  0  0  0  0  0  0
   -7.6930   20.4560  -31.9320 C   0  0  0  0  0  0  0  0  0  0  0  0
   -7.5510   21.7850  -31.8340 N   0  0  0  0  0  0  0  0  0  0  0  0
   -4.0100   24.3440  -30.1580 C   0  0  0  0  0  0  0  0  0  0  0  0
   -3.8690   25.6710  -30.5510 O   0  0  0  0  0  0  0  0  0  0  0  0
   -3.2320   24.7800  -26.7620 C   0  0  0  0  0  0  0  0  0  0  0  0
   -2.4640   25.4470  -25.8050 C   0  0  0  0  0  0  0  0  0  0  0  0
   -1.6560   27.5860  -23.7130 H   0  0  0  0  0  0  0  0  0  0  0  0
    0.3975   25.9032  -27.6241 H   0  0  0  0  0  0  0  0  0  0  0  0
   -0.9756   24.7182  -29.3290 H   0  0  0  0  0  0  0  0  0  0  0  0
   -4.2230   21.2670  -27.3640 H   0  0  0  0  0  0  0  0  0  0  0  0
   -5.0716   21.2403  -30.3800 H   0  0  0  0  0  0  0  0  0  0  0  0
   -5.5334   18.0915  -33.0936 H   0  0  0  0  0  0  0  0  0  0  0  0
   -7.4902   16.6283  -32.4560 H   0  0  0  0  0  0  0  0  0  0  0  0
   -9.5598   17.6518  -31.4815 H   0  0  0  0  0  0  0  0  0  0  0  0
   -9.6962   20.1489  -31.1388 H   0  0  0  0  0  0  0  0  0  0  0  0
   -4.2561   24.4630  -26.5157 H   0  0  0  0  0  0  0  0  0  0  0  0
   -2.8893   25.6527  -24.8116 H   0  0  0  0  0  0  0  0  0  0  0  0
  1  2  1  0
  2  3  2  0
  2  4  1  0
  4  5  2  0
  5  6  1  0
  6  7  2  0
  7  8  1  0
  8  9  1  0
  9 10  1  0
  9 11  2  0
 11 12  1  0
 12 13  1  0
 13 14  1  0
 14 15  2  0
 15 16  1  0
 16 17  2  0
 17 18  1  0
 18 19  2  0
 19 20  1  0
 20 21  2  0
 21 22  1  0
 12 23  2  0
 23 24  1  0
  7 25  1  0
 25 26  2  0
 26  4  1  0
 23  8  1  0
 22 14  1  0
 21 16  1  0
  1 27  1  0
  5 28  1  0
  6 29  1  0
 10 30  1  0
 11 31  1  0
 17 32  1  0
 18 33  1  0
 19 34  1  0
 20 35  1  0
 25 36  1  0
 26 37  1  0
M  CHG  3   1  -1  22  -1  24  -1
M  END
>  <UniqueID>  (34) 
33

>  <SMILES>  (34) 
[NH-]C(=O)c1ccc(-n2c(O)cc(Sc3nc4ccccc4[n-]3)c2[O-])cc1

>  <Energy>  (34) 
106.03116970073394

>  <Genealogy>  (34) 
[NH-]C(=O)c1ccc(-n2c(O)cc(Sc3nc4ccccc4[n-]3)c2[O-])cc1 (protonated)
[NH-]C(=O)c1ccc(-n2c(O)cc(Sc3nc4ccccc4[n-]3)c2[O-])cc1 (3D coordinates assigned)
[NH-]C(=O)c1ccc(-n2c(O)cc(Sc3nc4ccccc4[n-]3)c2[O-])cc1 (optimized conformer: 106.03116970073394 kcal/mol)

>  <smiles>  (34) 
NC(=O)c1ccc(-n2c(O)cc(Sc3nc4ccccc4[nH]3)c2O)cc1

>  <score_type>  (34) 
oracle

>  <origin>  (34) 
adgpu

>  <m_score__min__energy>  (34) 
-10.630000000000001

>  <m_primary>  (34) 
energy

$$$$
34:0
     RDKit          3D

 50 53  0  0  0  0  0  0  0  0999 V2000
   -2.1760   20.7270  -31.8590 C   0  0  0  0  0  0  0  0  0  0  0  0
   -3.5820   21.2480  -31.6890 C   0  0  0  0  0  0  0  0  0  0  0  0
   -4.6580   20.4870  -32.1770 C   0  0  0  0  0  0  0  0  0  0  0  0
   -5.9760   20.9460  -32.0380 C   0  0  0  0  0  0  0  0  0  0  0  0
   -7.0980   20.1810  -32.5380 N   0  0  0  0  0  0  0  0  0  0  0  0
   -6.8860   18.8520  -33.1390 C   0  0  0  0  0  0  0  0  0  0  0  0
   -7.7080   17.7870  -32.3960 C   0  0  0  0  0  0  0  0  0  0  0  0
   -9.1100   18.2810  -31.9720 C   0  0  0  0  0  0  0  0  0  0  0  0
   -9.5150   19.5880  -32.6670 C   0  0  0  0  0  0  0  0  0  0  0  0
   -8.4750   20.6840  -32.3950 C   0  0  0  0  0  0  0  0  0  0  0  0
   -6.1960   22.1450  -31.4290 N   0  0  0  0  0  0  0  0  0  0  0  0
   -5.1910   22.9130  -30.9370 C   0  0  0  0  0  0  0  0  0  0  0  0
   -5.4930   24.1270  -30.3170 C   0  0  0  0  0  0  0  0  0  0  0  0
   -4.4720   24.9200  -29.7920 C   0  0  0  0  0  0  0  0  0  0  0  0
   -3.1320   24.5080  -29.8790 C   0  0  0  0  0  0  0  0  0  0  0  0
   -2.0580   25.2870  -29.3330 N   0  0  0  0  0  0  0  0  0  0  0  0
   -1.2030   24.9220  -27.8700 S   0  0  0  0  0  0  0  0  0  0  0  0
   -2.0320   25.3570  -26.6960 O   0  0  0  0  0  0  0  0  0  0  0  0
    0.0880   25.6950  -27.8510 O   0  0  0  0  0  0  0  0  0  0  0  0
   -0.9400   23.1770  -27.7620 C   0  0  0  0  0  0  0  0  0  0  0  0
    0.3620   22.6930  -27.9610 C   0  0  0  0  0  0  0  0  0  0  0  0
    0.6210   21.3230  -27.8960 C   0  0  0  0  0  0  0  0  0  0  0  0
   -0.4100   20.4270  -27.6160 C   0  0  0  0  0  0  0  0  0  0  0  0
   -1.7100   20.8960  -27.4090 C   0  0  0  0  0  0  0  0  0  0  0  0
   -2.9690   19.7200  -27.0460 Cl  0  0  0  0  0  0  0  0  0  0  0  0
   -1.9880   22.2760  -27.4890 C   0  0  0  0  0  0  0  0  0  0  0  0
   -3.2860   22.7570  -27.2990 O   0  0  0  0  0  0  0  0  0  0  0  0
   -2.8270   23.2960  -30.5110 C   0  0  0  0  0  0  0  0  0  0  0  0
   -3.8480   22.4830  -31.0480 C   0  0  0  0  0  0  0  0  0  0  0  0
   -1.7248   20.5598  -30.8698 H   0  0  0  0  0  0  0  0  0  0  0  0
   -2.2012   19.7785  -32.4156 H   0  0  0  0  0  0  0  0  0  0  0  0
   -1.5771   21.4629  -32.4156 H   0  0  0  0  0  0  0  0  0  0  0  0
   -4.4650   19.5238  -32.6719 H   0  0  0  0  0  0  0  0  0  0  0  0
   -7.1968   18.8781  -34.1938 H   0  0  0  0  0  0  0  0  0  0  0  0
   -5.8193   18.5940  -33.0638 H   0  0  0  0  0  0  0  0  0  0  0  0
   -7.8300   16.9164  -33.0572 H   0  0  0  0  0  0  0  0  0  0  0  0
   -7.1596   17.5360  -31.4761 H   0  0  0  0  0  0  0  0  0  0  0  0
   -9.8475   17.5051  -32.2251 H   0  0  0  0  0  0  0  0  0  0  0  0
   -9.0791   18.4769  -30.8900 H   0  0  0  0  0  0  0  0  0  0  0  0
   -9.5845   19.4154  -33.7512 H   0  0  0  0  0  0  0  0  0  0  0  0
  -10.4886   19.9146  -32.2728 H   0  0  0  0  0  0  0  0  0  0  0  0
   -8.6294   21.5062  -33.1093 H   0  0  0  0  0  0  0  0  0  0  0  0
   -8.6063   21.0295  -31.3589 H   0  0  0  0  0  0  0  0  0  0  0  0
   -6.5389   24.4593  -30.2422 H   0  0  0  0  0  0  0  0  0  0  0  0
   -4.7185   25.8756  -29.3060 H   0  0  0  0  0  0  0  0  0  0  0  0
    1.1819   23.3962  -28.1691 H   0  0  0  0  0  0  0  0  0  0  0  0
    1.6414   20.9491  -28.0662 H   0  0  0  0  0  0  0  0  0  0  0  0
   -0.1996   19.3489  -27.5579 H   0  0  0  0  0  0  0  0  0  0  0  0
   -3.4970   23.7350  -27.1460 H   0  0  0  0  0  0  0  0  0  0  0  0
   -1.7783   22.9736  -30.5899 H   0  0  0  0  0  0  0  0  0  0  0  0
  1  2  1  0
  2  3  2  0
  3  4  1  0
  4  5  1  0
  5  6  1  0
  6  7  1  0
  7  8  1  0
  8  9  1  0
  9 10  1  0
  4 11  2  0
 11 12  1  0
 12 13  2  0
 13 14  1  0
 14 15  2  0
 15 16  1  0
 16 17  1  0
 17 18  2  0
 17 19  2  0
 17 20  1  0
 20 21  2  0
 21 22  1  0
 22 23  2  0
 23 24  1  0
 24 25  1  0
 24 26  2  0
 26 27  1  0
 15 28  1  0
 28 29  2  0
 29  2  1  0
 10  5  1  0
 29 12  1  0
 26 20  1  0
  1 30  1  0
  1 31  1  0
  1 32  1  0
  3 33  1  0
  6 34  1  0
  6 35  1  0
  7 36  1  0
  7 37  1  0
  8 38  1  0
  8 39  1  0
  9 40  1  0
  9 41  1  0
 10 42  1  0
 10 43  1  0
 13 44  1  0
 14 45  1  0
 21 46  1  0
 22 47  1  0
 23 48  1  0
 27 49  1  0
 28 50  1  0
M  CHG  1  16  -1
M  END
>  <UniqueID>  (35) 
34

>  <SMILES>  (35) 
Cc1cc(N2CCCCC2)nc2ccc([N-]S(=O)(=O)c3cccc(Cl)c3O)cc12

>  <Energy>  (35) 
67.15721509210809

>  <Genealogy>  (35) 
Cc1cc(N2CCCCC2)nc2ccc([N-]S(=O)(=O)c3cccc(Cl)c3O)cc12 (protonated)
Cc1cc(N2CCCCC2)nc2ccc([N-]S(=O)(=O)c3cccc(Cl)c3O)cc12 (3D coordinates assigned)
Cc1cc(N2CCCCC2)nc2ccc([N-]S(=O)(=O)c3cccc(Cl)c3O)cc12 (nonaromatic ring conformer: 67.15721509210809 kcal/mol)

>  <smiles>  (35) 
Cc1cc(N2CCCCC2)nc2ccc(NS(=O)(=O)c3cccc(Cl)c3O)cc12

>  <score_type>  (35) 
oracle

>  <origin>  (35) 
adgpu

>  <m_score__min__energy>  (35) 
-11.24

>  <m_primary>  (35) 
energy

$$$$
35:0
     RDKit          3D

 63 66  0  0  0  0  0  0  0  0999 V2000
   -0.8480   28.9390  -25.4970 C   0  0  0  0  0  0  0  0  0  0  0  0
    0.0320   28.0680  -24.5930 C   0  0  2  0  0  0  0  0  0  0  0  0
    1.0250   27.2390  -25.4390 C   0  0  0  0  0  0  0  0  0  0  0  0
    1.5130   26.0130  -24.6530 C   0  0  0  0  0  0  0  0  0  0  0  0
    0.4030   25.0890  -24.2870 N   0  0  2  0  0  0  0  0  0  0  0  0
    0.3250   23.7410  -25.3990 S   0  0  0  0  0  0  0  0  0  0  0  0
    1.6910   23.4640  -25.9680 O   0  0  0  0  0  0  0  0  0  0  0  0
   -0.1560   22.5050  -24.6880 O   0  0  0  0  0  0  0  0  0  0  0  0
   -0.7680   24.1360  -26.7230 C   0  0  0  0  0  0  0  0  0  0  0  0
   -0.2800   24.7070  -27.9060 C   0  0  0  0  0  0  0  0  0  0  0  0
   -1.1500   24.9860  -28.9640 C   0  0  0  0  0  0  0  0  0  0  0  0
   -2.5200   24.6890  -28.8500 C   0  0  0  0  0  0  0  0  0  0  0  0
   -3.4420   24.9800  -29.9090 N   0  0  0  0  0  0  0  0  0  0  0  0
   -4.1550   24.0200  -30.7000 C   0  0  0  0  0  0  0  0  0  0  0  0
   -5.4080   24.1230  -30.7810 O   0  0  0  0  0  0  0  0  0  0  0  0
   -3.4770   22.8740  -31.3530 C   0  0  0  0  0  0  0  0  0  0  0  0
   -2.3520   22.2680  -30.7680 C   0  0  0  0  0  0  0  0  0  0  0  0
   -1.7530   21.1570  -31.3680 C   0  0  0  0  0  0  0  0  0  0  0  0
   -2.2810   20.6190  -32.5490 C   0  0  0  0  0  0  0  0  0  0  0  0
   -1.5520   19.1870  -33.2800 S   0  0  0  0  0  0  0  0  0  0  0  0
   -2.5760   18.4960  -34.1390 O   0  0  0  0  0  0  0  0  0  0  0  0
   -1.1350   18.2310  -32.1960 O   0  0  0  0  0  0  0  0  0  0  0  0
   -0.1570   19.5990  -34.2520 N   0  0  0  0  0  0  0  0  0  0  0  0
   -0.5020   20.5470  -35.3360 C   0  0  0  0  0  0  0  0  0  0  0  0
    0.0440   21.9600  -35.0660 C   0  0  0  0  0  0  0  0  0  0  0  0
    1.4570   21.9860  -34.9130 O   0  0  0  0  0  0  0  0  0  0  0  0
    1.9820   20.8530  -34.2310 C   0  0  0  0  0  0  0  0  0  0  0  0
    0.9480   20.0750  -33.3970 C   0  0  0  0  0  0  0  0  0  0  0  0
   -3.4040   21.2160  -33.1350 C   0  0  0  0  0  0  0  0  0  0  0  0
   -4.0010   22.3330  -32.5400 C   0  0  0  0  0  0  0  0  0  0  0  0
   -3.0090   24.1390  -27.6590 C   0  0  0  0  0  0  0  0  0  0  0  0
   -2.1360   23.8490  -26.6070 C   0  0  0  0  0  0  0  0  0  0  0  0
   -0.9280   25.7400  -24.1960 C   0  0  0  0  0  0  0  0  0  0  0  0
   -0.8260   27.1750  -23.6600 C   0  0  0  0  0  0  0  0  0  0  0  0
   -1.4931   29.5775  -24.8756 H   0  0  0  0  0  0  0  0  0  0  0  0
   -0.2093   29.5706  -26.1320 H   0  0  0  0  0  0  0  0  0  0  0  0
   -1.4730   28.2939  -26.1320 H   0  0  0  0  0  0  0  0  0  0  0  0
    0.6219   28.7299  -23.9419 H   0  0  0  0  0  0  0  0  0  0  0  0
    0.5235   26.9027  -26.3585 H   0  0  0  0  0  0  0  0  0  0  0  0
    1.8918   27.8693  -25.6868 H   0  0  0  0  0  0  0  0  0  0  0  0
    2.2391   25.4643  -25.2709 H   0  0  0  0  0  0  0  0  0  0  0  0
    1.9674   26.3749  -23.7189 H   0  0  0  0  0  0  0  0  0  0  0  0
    0.6240   24.6820  -23.3470 H   0  0  0  0  0  0  0  0  0  0  0  0
    0.7915   24.9365  -28.0024 H   0  0  0  0  0  0  0  0  0  0  0  0
   -0.7620   25.4391  -29.8882 H   0  0  0  0  0  0  0  0  0  0  0  0
   -1.9400   22.6710  -29.8311 H   0  0  0  0  0  0  0  0  0  0  0  0
   -0.8620   20.7024  -30.9105 H   0  0  0  0  0  0  0  0  0  0  0  0
   -0.0757   20.1766  -36.2799 H   0  0  0  0  0  0  0  0  0  0  0  0
   -1.5986   20.6129  -35.3915 H   0  0  0  0  0  0  0  0  0  0  0  0
   -0.2298   22.6096  -35.9104 H   0  0  0  0  0  0  0  0  0  0  0  0
   -0.3973   22.3100  -34.1212 H   0  0  0  0  0  0  0  0  0  0  0  0
    2.4060   20.1673  -34.9794 H   0  0  0  0  0  0  0  0  0  0  0  0
    2.7327   21.2339  -33.5229 H   0  0  0  0  0  0  0  0  0  0  0  0
    1.4395   19.2105  -32.9268 H   0  0  0  0  0  0  0  0  0  0  0  0
    0.5374   20.7446  -32.6269 H   0  0  0  0  0  0  0  0  0  0  0  0
   -3.8187   20.8050  -34.0673 H   0  0  0  0  0  0  0  0  0  0  0  0
   -4.8867   22.7910  -33.0044 H   0  0  0  0  0  0  0  0  0  0  0  0
   -4.0844   23.9344  -27.5509 H   0  0  0  0  0  0  0  0  0  0  0  0
   -2.5235   23.3936  -25.6837 H   0  0  0  0  0  0  0  0  0  0  0  0
   -1.3809   25.7657  -25.1981 H   0  0  0  0  0  0  0  0  0  0  0  0
   -1.5462   25.1574  -23.4972 H   0  0  0  0  0  0  0  0  0  0  0  0
   -1.8370   27.6021  -23.5862 H   0  0  0  0  0  0  0  0  0  0  0  0
   -0.3430   27.1420  -22.6723 H   0  0  0  0  0  0  0  0  0  0  0  0
  1  2  1  0
  2  3  1  0
  3  4  1  0
  4  5  1  0
  5  6  1  0
  6  7  2  0
  6  8  2  0
  6  9  1  0
  9 10  2  0
 10 11  1  0
 11 12  2  0
 12 13  1  0
 13 14  1  0
 14 15  2  0
 14 16  1  0
 16 17  2  0
 17 18  1  0
 18 19  2  0
 19 20  1  0
 20 21  2  0
 20 22  2  0
 20 23  1  0
 23 24  1  0
 24 25  1  0
 25 26  1  0
 26 27  1  0
 27 28  1  0
 19 29  1  0
 29 30  2  0
 12 31  1  0
 31 32  2  0
  5 33  1  0
 33 34  1  0
 34  2  1  0
 32  9  1  0
 30 16  1  0
 28 23  1  0
  1 35  1  0
  1 36  1  0
  1 37  1  0
  2 38  1  1
  3 39  1  0
  3 40  1  0
  4 41  1  0
  4 42  1  0
  5 43  1  1
 10 44  1  0
 11 45  1  0
 17 46  1  0
 18 47  1  0
 24 48  1  0
 24 49  1  0
 25 50  1  0
 25 51  1  0
 27 52  1  0
 27 53  1  0
 28 54  1  0
 28 55  1  0
 29 56  1  0
 30 57  1  0
 31 58  1  0
 32 59  1  0
 33 60  1  0
 33 61  1  0
 34 62  1  0
 34 63  1  0
M  CHG  2   5   1  13  -1
M  END
>  <UniqueID>  (36) 
35

>  <SMILES>  (36) 
CC1CC[NH+](S(=O)(=O)c2ccc([N-]C(=O)c3ccc(S(=O)(=O)N4CCOCC4)cc3)cc2)CC1

>  <Energy>  (36) 
87.93185174093279

>  <Genealogy>  (36) 
CC1CC[NH+](S(=O)(=O)c2ccc([N-]C(=O)c3ccc(S(=O)(=O)N4CCOCC4)cc3)cc2)CC1 (protonated)
CC1CC[NH+](S(=O)(=O)c2ccc([N-]C(=O)c3ccc(S(=O)(=O)N4CCOCC4)cc3)cc2)CC1 (3D coordinates assigned)
CC1CC[NH+](S(=O)(=O)c2ccc([N-]C(=O)c3ccc(S(=O)(=O)N4CCOCC4)cc3)cc2)CC1 (nonaromatic ring conformer: 87.93185174093279 kcal/mol)

>  <smiles>  (36) 
CC1CCN(S(=O)(=O)c2ccc(NC(=O)c3ccc(S(=O)(=O)N4CCOCC4)cc3)cc2)CC1

>  <score_type>  (36) 
oracle

>  <origin>  (36) 
adgpu

>  <m_score__min__energy>  (36) 
-13.18

>  <m_primary>  (36) 
energy

$$$$
36:0
     RDKit          3D

 47 49  0  0  0  0  0  0  0  0999 V2000
   -6.1830   17.5630  -33.3400 C   0  0  0  0  0  0  0  0  0  0  0  0
   -6.6470   18.6460  -32.4110 C   0  0  0  0  0  0  0  0  0  0  0  0
   -6.3910   18.5460  -31.2180 O   0  0  0  0  0  0  0  0  0  0  0  0
   -7.3900   19.7910  -32.9140 N   0  0  2  0  0  0  0  0  0  0  0  0
   -6.7860   20.9950  -32.4300 C   0  0  0  0  0  0  0  0  0  0  0  0
   -5.5420   21.4970  -32.8330 C   0  0  0  0  0  0  0  0  0  0  0  0
   -5.0680   22.6770  -32.2410 C   0  0  0  0  0  0  0  0  0  0  0  0
   -5.8320   23.3380  -31.2550 C   0  0  0  0  0  0  0  0  0  0  0  0
   -5.2280   24.7990  -30.4770 S   0  0  0  0  0  0  0  0  0  0  0  0
   -5.7210   24.8240  -29.0570 O   0  0  0  0  0  0  0  0  0  0  0  0
   -5.7500   26.0190  -31.1830 O   0  0  0  0  0  0  0  0  0  0  0  0
   -3.4860   24.8370  -30.4710 N   0  0  0  0  0  0  0  0  0  0  0  0
   -2.9500   24.8520  -29.1070 C   0  0  0  0  0  0  0  0  0  0  0  0
   -2.7150   23.4570  -28.5920 C   0  0  0  0  0  0  0  0  0  0  0  0
   -1.8900   23.2460  -27.4760 C   0  0  0  0  0  0  0  0  0  0  0  0
   -1.6550   21.9510  -27.0070 C   0  0  0  0  0  0  0  0  0  0  0  0
   -2.2550   20.8500  -27.6370 C   0  0  0  0  0  0  0  0  0  0  0  0
   -1.9640   19.4570  -27.1610 C   0  0  0  0  0  0  0  0  0  0  0  0
   -3.0710   21.0590  -28.7580 C   0  0  0  0  0  0  0  0  0  0  0  0
   -3.3080   22.3530  -29.2270 C   0  0  0  0  0  0  0  0  0  0  0  0
   -7.0800   22.8150  -30.8720 C   0  0  0  0  0  0  0  0  0  0  0  0
   -7.5310   21.6460  -31.4840 C   0  0  0  0  0  0  0  0  0  0  0  0
   -8.7900   20.9160  -31.2360 C   0  0  0  0  0  0  0  0  0  0  0  0
   -8.7900   19.8920  -32.3970 C   0  0  2  0  0  0  0  0  0  0  0  0
   -9.4500   18.5560  -32.0110 C   0  0  0  0  0  0  0  0  0  0  0  0
   -5.8167   16.7081  -32.7526 H   0  0  0  0  0  0  0  0  0  0  0  0
   -7.0216   17.2398  -33.9742 H   0  0  0  0  0  0  0  0  0  0  0  0
   -5.3705   17.9472  -33.9742 H   0  0  0  0  0  0  0  0  0  0  0  0
   -7.3960   19.8080  -33.9600 H   0  0  0  0  0  0  0  0  0  0  0  0
   -4.9484   20.9761  -33.5987 H   0  0  0  0  0  0  0  0  0  0  0  0
   -4.0953   23.0897  -32.5468 H   0  0  0  0  0  0  0  0  0  0  0  0
   -1.9961   25.3998  -29.1036 H   0  0  0  0  0  0  0  0  0  0  0  0
   -3.6852   25.3427  -28.4523 H   0  0  0  0  0  0  0  0  0  0  0  0
   -1.4262   24.1045  -26.9682 H   0  0  0  0  0  0  0  0  0  0  0  0
   -0.9966   21.7938  -26.1399 H   0  0  0  0  0  0  0  0  0  0  0  0
   -1.9602   19.4386  -26.0612 H   0  0  0  0  0  0  0  0  0  0  0  0
   -2.7384   18.7719  -27.5365 H   0  0  0  0  0  0  0  0  0  0  0  0
   -0.9801   19.1393  -27.5365 H   0  0  0  0  0  0  0  0  0  0  0  0
   -3.5269   20.1992  -29.2707 H   0  0  0  0  0  0  0  0  0  0  0  0
   -3.9620   22.5085  -30.0977 H   0  0  0  0  0  0  0  0  0  0  0  0
   -7.6879   23.3177  -30.1054 H   0  0  0  0  0  0  0  0  0  0  0  0
   -8.7766   20.4135  -30.2576 H   0  0  0  0  0  0  0  0  0  0  0  0
   -9.6819   21.5592  -31.2066 H   0  0  0  0  0  0  0  0  0  0  0  0
   -9.4293   20.2374  -33.2228 H   0  0  0  0  0  0  0  0  0  0  0  0
   -9.4920   18.4709  -30.9151 H   0  0  0  0  0  0  0  0  0  0  0  0
  -10.4701   18.5190  -32.4210 H   0  0  0  0  0  0  0  0  0  0  0  0
   -8.8596   17.7234  -32.4210 H   0  0  0  0  0  0  0  0  0  0  0  0
  1  2  1  0
  2  3  2  0
  2  4  1  0
  4  5  1  0
  5  6  2  0
  6  7  1  0
  7  8  2  0
  8  9  1  0
  9 10  2  0
  9 11  2  0
  9 12  1  0
 12 13  1  0
 13 14  1  0
 14 15  2  0
 15 16  1  0
 16 17  2  0
 17 18  1  0
 17 19  1  0
 19 20  2  0
  8 21  1  0
 21 22  2  0
 22 23  1  0
 23 24  1  0
 24 25  1  0
 24  4  1  0
 22  5  1  0
 20 14  1  0
  1 26  1  0
  1 27  1  0
  1 28  1  0
  4 29  1  6
  6 30  1  0
  7 31  1  0
 13 32  1  0
 13 33  1  0
 15 34  1  0
 16 35  1  0
 18 36  1  0
 18 37  1  0
 18 38  1  0
 19 39  1  0
 20 40  1  0
 21 41  1  0
 23 42  1  0
 23 43  1  0
 24 44  1  6
 25 45  1  0
 25 46  1  0
 25 47  1  0
M  CHG  2   4   1  12  -1
M  END
>  <UniqueID>  (37) 
36

>  <SMILES>  (37) 
CC(=O)[N@@H+]1c2ccc(S(=O)(=O)[N-]Cc3ccc(C)cc3)cc2C[C@@H]1C

>  <Energy>  (37) 
59.231699794016514

>  <Genealogy>  (37) 
CC(=O)[NH+]1c2ccc(S(=O)(=O)[N-]Cc3ccc(C)cc3)cc2CC1C (protonated)
CC(=O)[N@@H+]1c2ccc(S(=O)(=O)[N-]Cc3ccc(C)cc3)cc2C[C@@H]1C (chirality)
CC(=O)[N@@H+]1c2ccc(S(=O)(=O)[N-]Cc3ccc(C)cc3)cc2C[C@@H]1C (3D coordinates assigned)
CC(=O)[N@@H+]1c2ccc(S(=O)(=O)[N-]Cc3ccc(C)cc3)cc2C[C@@H]1C (nonaromatic ring conformer: 59.231699794016514 kcal/mol)

>  <smiles>  (37) 
CC(=O)N1c2ccc(S(=O)(=O)NCc3ccc(C)cc3)cc2CC1C

>  <score_type>  (37) 
oracle

>  <origin>  (37) 
adgpu

>  <m_score__min__energy>  (37) 
-11.02

>  <m_primary>  (37) 
energy

$$$$
37:0
     RDKit          3D

 29 30  0  0  0  0  0  0  0  0999 V2000
   -4.1880   25.6630  -31.6480 H   0  0  0  0  0  0  0  0  0  0  0  0
   -4.6660   25.2270  -30.8270 N   0  0  0  0  0  0  0  0  0  0  0  0
   -5.6410   24.3820  -30.9570 C   0  0  0  0  0  0  0  0  0  0  0  0
   -6.1000   24.0100  -32.2300 C   0  0  0  0  0  0  0  0  0  0  0  0
   -5.6348   24.4333  -33.1324 H   0  0  0  0  0  0  0  0  0  0  0  0
   -7.1500   23.1000  -32.3420 C   0  0  0  0  0  0  0  0  0  0  0  0
   -7.5153   22.8003  -33.3353 H   0  0  0  0  0  0  0  0  0  0  0  0
   -7.7390   22.5680  -31.1890 C   0  0  0  0  0  0  0  0  0  0  0  0
   -9.0510   21.4020  -31.3150 S   0  0  0  0  0  0  0  0  0  0  0  0
   -9.6050   21.4130  -32.7120 O   0  0  0  0  0  0  0  0  0  0  0  0
  -10.1500   21.7740  -30.3570 O   0  0  0  0  0  0  0  0  0  0  0  0
   -8.4270   19.7790  -30.9210 C   0  0  0  0  0  0  0  0  0  0  0  0
   -7.8071   19.8395  -30.0143 H   0  0  0  0  0  0  0  0  0  0  0  0
   -9.2771   19.1013  -30.7537 H   0  0  0  0  0  0  0  0  0  0  0  0
   -7.5960   19.2470  -32.0540 C   0  0  0  0  0  0  0  0  0  0  0  0
   -6.8280   20.1200  -32.8410 C   0  0  0  0  0  0  0  0  0  0  0  0
   -6.8144   21.1959  -32.6123 H   0  0  0  0  0  0  0  0  0  0  0  0
   -6.0800   19.6260  -33.9150 C   0  0  0  0  0  0  0  0  0  0  0  0
   -5.4743   20.3129  -34.5244 H   0  0  0  0  0  0  0  0  0  0  0  0
   -6.1010   18.2610  -34.2150 C   0  0  0  0  0  0  0  0  0  0  0  0
   -5.5103   17.8736  -35.0582 H   0  0  0  0  0  0  0  0  0  0  0  0
   -6.8730   17.3890  -33.4430 C   0  0  0  0  0  0  0  0  0  0  0  0
   -6.8915   16.3154  -33.6817 H   0  0  0  0  0  0  0  0  0  0  0  0
   -7.6220   17.8770  -32.3680 C   0  0  0  0  0  0  0  0  0  0  0  0
   -8.2328   17.1876  -31.7667 H   0  0  0  0  0  0  0  0  0  0  0  0
   -7.2490   22.9560  -29.9370 C   0  0  0  0  0  0  0  0  0  0  0  0
   -7.6951   22.5397  -29.0218 H   0  0  0  0  0  0  0  0  0  0  0  0
   -6.2230   23.8460  -29.8460 N   0  0  0  0  0  0  0  0  0  0  0  0
   -5.8800   24.1200  -28.8970 H   0  0  0  0  0  0  0  0  0  0  0  0
  1  2  1  0
  2  3  2  0
  3  4  1  0
  4  5  1  0
  4  6  2  0
  6  7  1  0
  6  8  1  0
  8  9  1  0
  9 10  2  0
  9 11  2  0
  9 12  1  0
 12 13  1  0
 12 14  1  0
 12 15  1  0
 15 16  2  0
 16 17  1  0
 16 18  1  0
 18 19  1  0
 18 20  2  0
 20 21  1  0
 20 22  1  0
 22 23  1  0
 22 24  2  0
 24 25  1  0
  8 26  2  0
 26 27  1  0
 26 28  1  0
 28 29  1  0
 28  3  1  0
 24 15  1  0
M  END
>  <UniqueID>  (38) 
37

>  <SMILES>  (38) 
[H]/N=c1\ccc(S(=O)(=O)Cc2ccccc2)c[nH]1

>  <Energy>  (38) 
26.973491569641332

>  <Genealogy>  (38) 
[H]/N=c1\ccc(S(=O)(=O)Cc2ccccc2)c[nH]1 (cis-trans isomerization)
[H]/N=c1\ccc(S(=O)(=O)Cc2ccccc2)c[nH]1 (3D coordinates assigned)
[H]/N=c1\ccc(S(=O)(=O)Cc2ccccc2)c[nH]1 (optimized conformer: 26.973491569641332 kcal/mol)

>  <smiles>  (38) 
N=c1ccc(S(=O)(=O)Cc2ccccc2)c[nH]1

>  <score_type>  (38) 
oracle

>  <origin>  (38) 
adgpu

>  <m_score__min__energy>  (38) 
-7.8600000000000003

>  <m_primary>  (38) 
energy

$$$$
38:0
     RDKit          3D

 69 72  0  0  0  0  0  0  0  0999 V2000
   -2.0200   16.9290  -34.3600 C   0  0  0  0  0  0  0  0  0  0  0  0
   -2.9730   17.9730  -34.1960 O   0  0  0  0  0  0  0  0  0  0  0  0
   -2.7640   19.1160  -33.4110 C   0  0  0  0  0  0  0  0  0  0  0  0
   -1.9890   19.0940  -32.2330 C   0  0  0  0  0  0  0  0  0  0  0  0
   -1.8410   20.2520  -31.4630 C   0  0  0  0  0  0  0  0  0  0  0  0
   -2.4700   21.4490  -31.8470 C   0  0  0  0  0  0  0  0  0  0  0  0
   -2.3910   22.6690  -30.9600 C   0  0  0  0  0  0  0  0  0  0  0  0
   -3.5110   22.6830  -30.0130 N   0  0  0  0  0  0  0  0  0  0  0  0
   -4.6670   23.3900  -30.0620 C   0  0  0  0  0  0  0  0  0  0  0  0
   -5.1640   24.2140  -31.2180 C   0  0  0  0  0  0  0  0  0  0  0  0
   -5.6210   23.3410  -32.2960 N   0  0  0  0  0  0  0  0  0  0  0  0
   -6.6160   22.3090  -32.1410 C   0  0  0  0  0  0  0  0  0  0  0  0
   -7.9480   22.6730  -31.8930 C   0  0  0  0  0  0  0  0  0  0  0  0
   -8.9320   21.6950  -31.7250 C   0  0  0  0  0  0  0  0  0  0  0  0
   -8.6000   20.3410  -31.8170 C   0  0  0  0  0  0  0  0  0  0  0  0
   -7.2780   19.9590  -32.0730 C   0  0  0  0  0  0  0  0  0  0  0  0
   -6.8440   18.2470  -32.1630 S   0  0  0  0  0  0  0  0  0  0  0  0
   -8.0980   17.4270  -32.2980 O   0  0  0  0  0  0  0  0  0  0  0  0
   -6.1610   17.8430  -30.8850 O   0  0  0  0  0  0  0  0  0  0  0  0
   -5.7860   17.9300  -33.5170 N   0  0  0  0  0  0  0  0  0  0  0  0
   -5.8960   16.5240  -33.9310 C   0  0  0  0  0  0  0  0  0  0  0  0
   -6.1130   18.8190  -34.6400 C   0  0  0  0  0  0  0  0  0  0  0  0
   -6.2900   20.9420  -32.2310 C   0  0  0  0  0  0  0  0  0  0  0  0
   -5.3250   23.3320  -28.8840 N   0  0  0  0  0  0  0  0  0  0  0  0
   -4.5900   22.6000  -28.0600 N   0  0  0  0  0  0  0  0  0  0  0  0
   -3.5040   22.2030  -28.7500 C   0  0  0  0  0  0  0  0  0  0  0  0
   -2.1310   21.3010  -28.0130 S   0  0  0  0  0  0  0  0  0  0  0  0
   -0.8300   22.5240  -28.3960 C   0  0  0  0  0  0  0  0  0  0  0  0
   -0.7670   23.6490  -27.3970 C   0  0  0  0  0  0  0  0  0  0  0  0
   -1.2050   24.9370  -27.7500 C   0  0  0  0  0  0  0  0  0  0  0  0
   -1.3200   25.9360  -26.7750 C   0  0  0  0  0  0  0  0  0  0  0  0
   -0.9840   25.6650  -25.4380 C   0  0  0  0  0  0  0  0  0  0  0  0
   -1.2290   26.6920  -24.3730 C   0  0  0  0  0  0  0  0  0  0  0  0
   -0.5200   24.3880  -25.0890 C   0  0  0  0  0  0  0  0  0  0  0  0
   -0.4060   23.3920  -26.0640 C   0  0  0  0  0  0  0  0  0  0  0  0
   -3.2200   21.4750  -33.0360 C   0  0  0  0  0  0  0  0  0  0  0  0
   -3.3580   20.3200  -33.8140 C   0  0  0  0  0  0  0  0  0  0  0  0
   -1.6939   16.5717  -33.3721 H   0  0  0  0  0  0  0  0  0  0  0  0
   -2.4781   16.0986  -34.9173 H   0  0  0  0  0  0  0  0  0  0  0  0
   -1.1514   17.3097  -34.9173 H   0  0  0  0  0  0  0  0  0  0  0  0
   -1.4984   18.1612  -31.9182 H   0  0  0  0  0  0  0  0  0  0  0  0
   -1.2278   20.2259  -30.5501 H   0  0  0  0  0  0  0  0  0  0  0  0
   -1.4436   22.6508  -30.4013 H   0  0  0  0  0  0  0  0  0  0  0  0
   -2.4413   23.5713  -31.5871 H   0  0  0  0  0  0  0  0  0  0  0  0
   -5.9997   24.8455  -30.8821 H   0  0  0  0  0  0  0  0  0  0  0  0
   -4.3436   24.8457  -31.5892 H   0  0  0  0  0  0  0  0  0  0  0  0
   -5.2290   23.5160  -33.2520 H   0  0  0  0  0  0  0  0  0  0  0  0
   -8.2201   23.7370  -31.8303 H   0  0  0  0  0  0  0  0  0  0  0  0
   -9.9710   21.9921  -31.5197 H   0  0  0  0  0  0  0  0  0  0  0  0
   -9.3783   19.5744  -31.6881 H   0  0  0  0  0  0  0  0  0  0  0  0
   -4.8000   18.1050  -33.2120 H   0  0  0  0  0  0  0  0  0  0  0  0
   -5.9462   15.8820  -33.0392 H   0  0  0  0  0  0  0  0  0  0  0  0
   -6.8075   16.3889  -34.5318 H   0  0  0  0  0  0  0  0  0  0  0  0
   -5.0166   16.2488  -34.5318 H   0  0  0  0  0  0  0  0  0  0  0  0
   -6.4683   19.7849  -34.2516 H   0  0  0  0  0  0  0  0  0  0  0  0
   -5.2148   18.9789  -35.2546 H   0  0  0  0  0  0  0  0  0  0  0  0
   -6.9007   18.3588  -35.2546 H   0  0  0  0  0  0  0  0  0  0  0  0
   -5.2500   20.6421  -32.4272 H   0  0  0  0  0  0  0  0  0  0  0  0
    0.1423   22.0097  -28.4064 H   0  0  0  0  0  0  0  0  0  0  0  0
   -1.0716   22.9658  -29.3740 H   0  0  0  0  0  0  0  0  0  0  0  0
   -1.4586   25.1615  -28.7966 H   0  0  0  0  0  0  0  0  0  0  0  0
   -1.6752   26.9380  -27.0576 H   0  0  0  0  0  0  0  0  0  0  0  0
   -1.1180   26.2267  -23.3825 H   0  0  0  0  0  0  0  0  0  0  0  0
   -0.5007   27.5097  -24.4777 H   0  0  0  0  0  0  0  0  0  0  0  0
   -2.2480   27.0929  -24.4777 H   0  0  0  0  0  0  0  0  0  0  0  0
   -0.2453   24.1697  -24.0465 H   0  0  0  0  0  0  0  0  0  0  0  0
   -0.0297   22.3970  -25.7842 H   0  0  0  0  0  0  0  0  0  0  0  0
   -3.7019   22.4102  -33.3571 H   0  0  0  0  0  0  0  0  0  0  0  0
   -3.9368   20.3572  -34.7486 H   0  0  0  0  0  0  0  0  0  0  0  0
  1  2  1  0
  2  3  1  0
  3  4  2  0
  4  5  1  0
  5  6  2  0
  6  7  1  0
  7  8  1  0
  8  9  1  0
  9 10  1  0
 10 11  1  0
 11 12  1  0
 12 13  2  0
 13 14  1  0
 14 15  2  0
 15 16  1  0
 16 17  1  0
 17 18  2  0
 17 19  2  0
 17 20  1  0
 20 21  1  0
 20 22  1  0
 16 23  2  0
  9 24  2  0
 24 25  1  0
 25 26  2  0
 26 27  1  0
 27 28  1  0
 28 29  1  0
 29 30  2  0
 30 31  1  0
 31 32  2  0
 32 33  1  0
 32 34  1  0
 34 35  2  0
  6 36  1  0
 36 37  2  0
 37  3  1  0
 26  8  1  0
 35 29  1  0
 23 12  1  0
  1 38  1  0
  1 39  1  0
  1 40  1  0
  4 41  1  0
  5 42  1  0
  7 43  1  0
  7 44  1  0
 10 45  1  0
 10 46  1  0
 11 47  1  0
 13 48  1  0
 14 49  1  0
 15 50  1  0
 20 51  1  0
 21 52  1  0
 21 53  1  0
 21 54  1  0
 22 55  1  0
 22 56  1  0
 22 57  1  0
 23 58  1  0
 28 59  1  0
 28 60  1  0
 30 61  1  0
 31 62  1  0
 33 63  1  0
 33 64  1  0
 33 65  1  0
 34 66  1  0
 35 67  1  0
 36 68  1  0
 37 69  1  0
M  CHG  1  20   1
M  END
>  <UniqueID>  (39) 
38

>  <SMILES>  (39) 
COc1ccc(Cn2c(CNc3cccc(S(=O)(=O)[NH+](C)C)c3)nnc2SCc2ccc(C)cc2)cc1

>  <Energy>  (39) 
99.28995608912622

>  <Genealogy>  (39) 
COc1ccc(Cn2c(CNc3cccc(S(=O)(=O)[NH+](C)C)c3)nnc2SCc2ccc(C)cc2)cc1 (protonated)
COc1ccc(Cn2c(CNc3cccc(S(=O)(=O)[NH+](C)C)c3)nnc2SCc2ccc(C)cc2)cc1 (3D coordinates assigned)
COc1ccc(Cn2c(CNc3cccc(S(=O)(=O)[NH+](C)C)c3)nnc2SCc2ccc(C)cc2)cc1 (optimized conformer: 99.28995608912622 kcal/mol)

>  <smiles>  (39) 
COc1ccc(Cn2c(CNc3cccc(S(=O)(=O)N(C)C)c3)nnc2SCc2ccc(C)cc2)cc1

>  <score_type>  (39) 
oracle

>  <origin>  (39) 
adgpu

>  <m_score__min__energy>  (39) 
-11.15

>  <m_primary>  (39) 
energy

$$$$
39:0
     RDKit          3D

 56 59  0  0  0  0  0  0  0  0999 V2000
   -1.4160   23.7650  -29.7670 O   0  0  0  0  0  0  0  0  0  0  0  0
   -1.9600   22.7990  -30.3650 C   0  0  0  0  0  0  0  0  0  0  0  0
   -1.1950   21.6220  -30.6610 N   0  0  0  0  0  0  0  0  0  0  0  0
   -1.1130   20.9470  -31.9250 C   0  0  0  0  0  0  0  0  0  0  0  0
   -1.8180   19.7480  -32.0920 C   0  0  0  0  0  0  0  0  0  0  0  0
   -1.7470   19.0490  -33.3000 C   0  0  0  0  0  0  0  0  0  0  0  0
   -0.9580   19.5330  -34.3460 C   0  0  0  0  0  0  0  0  0  0  0  0
   -0.2180   20.7140  -34.1820 C   0  0  0  0  0  0  0  0  0  0  0  0
    0.7900   21.3210  -35.5000 S   0  0  0  0  0  0  0  0  0  0  0  0
    0.0830   21.0860  -36.8050 O   0  0  0  0  0  0  0  0  0  0  0  0
    2.0800   20.5480  -35.5250 O   0  0  0  0  0  0  0  0  0  0  0  0
    1.1520   23.0240  -35.3500 N   0  0  0  0  0  0  0  0  0  0  0  0
    2.4770   23.3540  -35.8700 C   0  0  0  0  0  0  0  0  0  0  0  0
    2.4300   24.8240  -36.2590 C   0  0  0  0  0  0  0  0  0  0  0  0
    0.9520   25.1500  -36.4180 C   0  0  0  0  0  0  0  0  0  0  0  0
    0.2180   23.8530  -36.1090 C   0  0  0  0  0  0  0  0  0  0  0  0
   -0.2990   21.4180  -32.9710 C   0  0  0  0  0  0  0  0  0  0  0  0
   -3.3750   22.8950  -30.8160 C   0  0  0  0  0  0  0  0  0  0  0  0
   -4.0440   21.7380  -31.2610 C   0  0  0  0  0  0  0  0  0  0  0  0
   -5.3720   21.7990  -31.7050 C   0  0  0  0  0  0  0  0  0  0  0  0
   -6.1830   20.3410  -32.2780 S   0  0  0  0  0  0  0  0  0  0  0  0
   -5.1760   19.2290  -32.3920 O   0  0  0  0  0  0  0  0  0  0  0  0
   -6.7320   20.6040  -33.6540 O   0  0  0  0  0  0  0  0  0  0  0  0
   -7.4870   19.8320  -31.2250 N   0  0  0  0  0  0  0  0  0  0  0  0
   -8.1570   18.6000  -31.6920 C   0  0  0  0  0  0  0  0  0  0  0  0
   -9.4990   18.8760  -32.3910 C   0  0  0  0  0  0  0  0  0  0  0  0
   -9.4820   20.1410  -33.0090 O   0  0  0  0  0  0  0  0  0  0  0  0
   -9.4760   21.1560  -32.0240 C   0  0  0  0  0  0  0  0  0  0  0  0
   -8.4230   20.9280  -30.9150 C   0  0  0  0  0  0  0  0  0  0  0  0
   -6.0510   23.0230  -31.6870 C   0  0  0  0  0  0  0  0  0  0  0  0
   -5.4050   24.1760  -31.2440 C   0  0  0  0  0  0  0  0  0  0  0  0
   -4.0770   24.1230  -30.8110 C   0  0  0  0  0  0  0  0  0  0  0  0
   -3.4710   25.3000  -30.3800 O   0  0  0  0  0  0  0  0  0  0  0  0
   -2.4309   19.3545  -31.2676 H   0  0  0  0  0  0  0  0  0  0  0  0
   -2.3140   18.1151  -33.4274 H   0  0  0  0  0  0  0  0  0  0  0  0
   -0.9166   18.9873  -35.3002 H   0  0  0  0  0  0  0  0  0  0  0  0
    3.2415   23.1891  -35.0965 H   0  0  0  0  0  0  0  0  0  0  0  0
    2.7372   22.7210  -36.7312 H   0  0  0  0  0  0  0  0  0  0  0  0
    2.8791   25.4458  -35.4705 H   0  0  0  0  0  0  0  0  0  0  0  0
    2.9954   25.0225  -37.1815 H   0  0  0  0  0  0  0  0  0  0  0  0
    0.6536   25.9390  -35.7120 H   0  0  0  0  0  0  0  0  0  0  0  0
    0.7206   25.5212  -37.4273 H   0  0  0  0  0  0  0  0  0  0  0  0
   -0.6821   24.0579  -35.5109 H   0  0  0  0  0  0  0  0  0  0  0  0
   -0.1068   23.3480  -37.0307 H   0  0  0  0  0  0  0  0  0  0  0  0
    0.2782   22.3450  -32.8386 H   0  0  0  0  0  0  0  0  0  0  0  0
   -3.5166   20.7727  -31.2600 H   0  0  0  0  0  0  0  0  0  0  0  0
   -7.4914   18.0857  -32.4009 H   0  0  0  0  0  0  0  0  0  0  0  0
   -8.3673   17.9828  -30.8061 H   0  0  0  0  0  0  0  0  0  0  0  0
   -9.6758   18.1030  -33.1534 H   0  0  0  0  0  0  0  0  0  0  0  0
  -10.3020   18.8579  -31.6394 H   0  0  0  0  0  0  0  0  0  0  0  0
   -9.2632   22.1172  -32.5148 H   0  0  0  0  0  0  0  0  0  0  0  0
  -10.4642   21.1461  -31.5410 H   0  0  0  0  0  0  0  0  0  0  0  0
   -7.8458   21.8552  -30.7839 H   0  0  0  0  0  0  0  0  0  0  0  0
   -8.9650   20.6484  -29.9996 H   0  0  0  0  0  0  0  0  0  0  0  0
   -7.0970   23.0751  -32.0233 H   0  0  0  0  0  0  0  0  0  0  0  0
   -5.9443   25.1347  -31.2351 H   0  0  0  0  0  0  0  0  0  0  0  0
  1  2  2  0
  2  3  1  0
  3  4  1  0
  4  5  2  0
  5  6  1  0
  6  7  2  0
  7  8  1  0
  8  9  1  0
  9 10  2  0
  9 11  2  0
  9 12  1  0
 12 13  1  0
 13 14  1  0
 14 15  1  0
 15 16  1  0
  8 17  2  0
  2 18  1  0
 18 19  2  0
 19 20  1  0
 20 21  1  0
 21 22  2  0
 21 23  2  0
 21 24  1  0
 24 25  1  0
 25 26  1  0
 26 27  1  0
 27 28  1  0
 28 29  1  0
 20 30  2  0
 30 31  1  0
 31 32  2  0
 32 33  1  0
 17  4  1  0
 32 18  1  0
 16 12  1  0
 29 24  1  0
  5 34  1  0
  6 35  1  0
  7 36  1  0
 13 37  1  0
 13 38  1  0
 14 39  1  0
 14 40  1  0
 15 41  1  0
 15 42  1  0
 16 43  1  0
 16 44  1  0
 17 45  1  0
 19 46  1  0
 25 47  1  0
 25 48  1  0
 26 49  1  0
 26 50  1  0
 28 51  1  0
 28 52  1  0
 29 53  1  0
 29 54  1  0
 30 55  1  0
 31 56  1  0
M  CHG  2   3  -1  33  -1
M  END
>  <UniqueID>  (40) 
39

>  <SMILES>  (40) 
O=C([N-]c1cccc(S(=O)(=O)N2CCCC2)c1)c1cc(S(=O)(=O)N2CCOCC2)ccc1[O-]

>  <Energy>  (40) 
75.55362278403244

>  <Genealogy>  (40) 
O=C([N-]c1cccc(S(=O)(=O)N2CCCC2)c1)c1cc(S(=O)(=O)N2CCOCC2)ccc1[O-] (protonated)
O=C([N-]c1cccc(S(=O)(=O)N2CCCC2)c1)c1cc(S(=O)(=O)N2CCOCC2)ccc1[O-] (3D coordinates assigned)
O=C([N-]c1cccc(S(=O)(=O)N2CCCC2)c1)c1cc(S(=O)(=O)N2CCOCC2)ccc1[O-] (nonaromatic ring conformer: 75.55362278403244 kcal/mol)

>  <smiles>  (40) 
O=C(Nc1cccc(S(=O)(=O)N2CCCC2)c1)c1cc(S(=O)(=O)N2CCOCC2)ccc1O

>  <score_type>  (40) 
oracle

>  <origin>  (40) 
adgpu

>  <m_score__min__energy>  (40) 
-14.949999999999999

>  <m_primary>  (40) 
energy

$$$$
40:0
     RDKit          3D

 60 62  0  0  0  0  0  0  0  0999 V2000
   -0.5940   26.4570  -23.3430 C   0  0  0  0  0  0  0  0  0  0  0  0
    0.8310   26.8670  -23.7200 C   0  0  0  0  0  0  0  0  0  0  0  0
    0.8820   28.1800  -24.5120 C   0  0  0  0  0  0  0  0  0  0  0  0
   -0.1800   28.1620  -25.9560 S   0  0  0  0  0  0  0  0  0  0  0  0
   -0.0380   29.4610  -26.6990 O   0  0  0  0  0  0  0  0  0  0  0  0
   -1.6220   27.9880  -25.5640 O   0  0  0  0  0  0  0  0  0  0  0  0
    0.2990   26.8680  -27.0120 N   0  0  0  0  0  0  0  0  0  0  0  0
   -0.4360   25.6380  -27.1780 C   0  0  0  0  0  0  0  0  0  0  0  0
   -0.3880   24.6170  -26.2110 C   0  0  0  0  0  0  0  0  0  0  0  0
   -1.0910   23.4280  -26.4010 C   0  0  0  0  0  0  0  0  0  0  0  0
   -1.8590   23.2370  -27.5490 C   0  0  0  0  0  0  0  0  0  0  0  0
   -2.5470   22.0760  -27.6980 F   0  0  0  0  0  0  0  0  0  0  0  0
   -1.9370   24.2450  -28.5230 C   0  0  0  0  0  0  0  0  0  0  0  0
   -2.7610   24.0330  -29.7340 C   0  0  0  0  0  0  0  0  0  0  0  0
   -3.5960   24.9200  -30.0590 O   0  0  0  0  0  0  0  0  0  0  0  0
   -2.6230   22.8200  -30.5800 C   0  0  0  0  0  0  0  0  0  0  0  0
   -1.3830   22.1780  -30.7400 C   0  0  0  0  0  0  0  0  0  0  0  0
   -1.2790   21.0700  -31.5220 N   0  0  0  0  0  0  0  0  0  0  0  0
   -2.3500   20.5480  -32.1730 C   0  0  0  0  0  0  0  0  0  0  0  0
   -3.6070   21.1560  -32.0630 C   0  0  0  0  0  0  0  0  0  0  0  0
   -4.7490   20.6060  -32.7420 N   0  0  0  0  0  0  0  0  0  0  0  0
   -4.6510   19.2660  -33.3390 C   0  0  0  0  0  0  0  0  0  0  0  0
   -5.8940   18.9150  -34.1760 C   0  0  0  0  0  0  0  0  0  0  0  0
   -7.2440   19.2090  -33.4590 C   0  0  0  0  0  0  0  0  0  0  0  0
   -7.9090   17.9640  -32.9870 N   0  0  0  0  0  0  0  0  0  0  0  0
   -7.0440   16.7700  -32.9470 C   0  0  0  0  0  0  0  0  0  0  0  0
   -8.5840   18.1520  -31.6910 C   0  0  0  0  0  0  0  0  0  0  0  0
   -7.1440   20.3260  -32.3820 C   0  0  0  0  0  0  0  0  0  0  0  0
   -6.0330   21.3150  -32.7210 C   0  0  0  0  0  0  0  0  0  0  0  0
   -3.7350   22.2990  -31.2610 C   0  0  0  0  0  0  0  0  0  0  0  0
   -1.2050   25.4390  -28.3440 C   0  0  0  0  0  0  0  0  0  0  0  0
   -1.2300   26.4220  -29.3300 O   0  0  0  0  0  0  0  0  0  0  0  0
   -0.6899   26.4294  -22.2475 H   0  0  0  0  0  0  0  0  0  0  0  0
   -1.3066   27.1865  -23.7552 H   0  0  0  0  0  0  0  0  0  0  0  0
   -0.8100   25.4603  -23.7552 H   0  0  0  0  0  0  0  0  0  0  0  0
    1.4170   26.9901  -22.7973 H   0  0  0  0  0  0  0  0  0  0  0  0
    1.2440   26.0760  -24.3632 H   0  0  0  0  0  0  0  0  0  0  0  0
    0.5643   29.0009  -23.8523 H   0  0  0  0  0  0  0  0  0  0  0  0
    1.9157   28.3152  -24.8629 H   0  0  0  0  0  0  0  0  0  0  0  0
    1.1450   27.0420  -27.5980 H   0  0  0  0  0  0  0  0  0  0  0  0
    0.2089   24.7580  -25.2979 H   0  0  0  0  0  0  0  0  0  0  0  0
   -1.0394   22.6353  -25.6401 H   0  0  0  0  0  0  0  0  0  0  0  0
   -0.4921   22.5736  -30.2302 H   0  0  0  0  0  0  0  0  0  0  0  0
   -2.2301   19.6445  -32.7889 H   0  0  0  0  0  0  0  0  0  0  0  0
   -3.7640   19.2307  -33.9886 H   0  0  0  0  0  0  0  0  0  0  0  0
   -4.5747   18.5345  -32.5210 H   0  0  0  0  0  0  0  0  0  0  0  0
   -5.8615   19.5014  -35.1061 H   0  0  0  0  0  0  0  0  0  0  0  0
   -5.8596   17.8306  -34.3574 H   0  0  0  0  0  0  0  0  0  0  0  0
   -7.9154   19.6342  -34.2196 H   0  0  0  0  0  0  0  0  0  0  0  0
   -6.8455   16.4960  -31.9003 H   0  0  0  0  0  0  0  0  0  0  0  0
   -7.5480   15.9349  -33.4554 H   0  0  0  0  0  0  0  0  0  0  0  0
   -6.0934   16.9887  -33.4554 H   0  0  0  0  0  0  0  0  0  0  0  0
   -7.8731   17.9540  -30.8752 H   0  0  0  0  0  0  0  0  0  0  0  0
   -8.9504   19.1864  -31.6151 H   0  0  0  0  0  0  0  0  0  0  0  0
   -9.4324   17.4560  -31.6151 H   0  0  0  0  0  0  0  0  0  0  0  0
   -8.1019   20.8644  -32.3322 H   0  0  0  0  0  0  0  0  0  0  0  0
   -6.9135   19.8588  -31.4132 H   0  0  0  0  0  0  0  0  0  0  0  0
   -6.2244   21.7596  -33.7088 H   0  0  0  0  0  0  0  0  0  0  0  0
   -6.0034   22.1127  -31.9642 H   0  0  0  0  0  0  0  0  0  0  0  0
   -4.7140   22.7913  -31.1646 H   0  0  0  0  0  0  0  0  0  0  0  0
  1  2  1  0
  2  3  1  0
  3  4  1  0
  4  5  2  0
  4  6  2  0
  4  7  1  0
  7  8  1  0
  8  9  2  0
  9 10  1  0
 10 11  2  0
 11 12  1  0
 11 13  1  0
 13 14  1  0
 14 15  2  0
 14 16  1  0
 16 17  2  0
 17 18  1  0
 18 19  2  0
 19 20  1  0
 20 21  1  0
 21 22  1  0
 22 23  1  0
 23 24  1  0
 24 25  1  0
 25 26  1  0
 25 27  1  0
 24 28  1  0
 28 29  1  0
 20 30  2  0
 13 31  2  0
 31 32  1  0
 31  8  1  0
 30 16  1  0
 29 21  1  0
  1 33  1  0
  1 34  1  0
  1 35  1  0
  2 36  1  0
  2 37  1  0
  3 38  1  0
  3 39  1  0
  7 40  1  0
  9 41  1  0
 10 42  1  0
 17 43  1  0
 19 44  1  0
 22 45  1  0
 22 46  1  0
 23 47  1  0
 23 48  1  0
 24 49  1  0
 26 50  1  0
 26 51  1  0
 26 52  1  0
 27 53  1  0
 27 54  1  0
 27 55  1  0
 28 56  1  0
 28 57  1  0
 29 58  1  0
 29 59  1  0
 30 60  1  0
M  CHG  1  32  -1
M  END
>  <UniqueID>  (41) 
40

>  <SMILES>  (41) 
CCCS(=O)(=O)Nc1ccc(F)c(C(=O)c2cncc(N3CCC(N(C)C)CC3)c2)c1[O-]

>  <Energy>  (41) 
79.92113038547829

>  <Genealogy>  (41) 
CCCS(=O)(=O)Nc1ccc(F)c(C(=O)c2cncc(N3CCC(N(C)C)CC3)c2)c1[O-] (protonated)
CCCS(=O)(=O)Nc1ccc(F)c(C(=O)c2cncc(N3CCC(N(C)C)CC3)c2)c1[O-] (3D coordinates assigned)
CCCS(=O)(=O)Nc1ccc(F)c(C(=O)c2cncc(N3CCC(N(C)C)CC3)c2)c1[O-] (nonaromatic ring conformer: 79.92113038547829 kcal/mol)

>  <smiles>  (41) 
CCCS(=O)(=O)Nc1ccc(F)c(C(=O)c2cncc(N3CCC(N(C)C)CC3)c2)c1O

>  <score_type>  (41) 
oracle

>  <origin>  (41) 
adgpu

>  <m_score__min__energy>  (41) 
-13.949999999999999

>  <m_primary>  (41) 
energy

$$$$
41:0
     RDKit          3D

 42 44  0  0  0  0  0  0  0  0999 V2000
   -3.8850   24.1730  -26.8470 O   0  0  0  0  0  0  0  0  0  0  0  0
   -3.1380   24.8060  -27.6420 C   0  0  0  0  0  0  0  0  0  0  0  0
   -3.4570   24.8460  -29.0430 N   0  0  0  0  0  0  0  0  0  0  0  0
   -4.2870   23.8740  -29.7030 C   0  0  0  0  0  0  0  0  0  0  0  0
   -3.8190   22.5760  -29.9790 C   0  0  0  0  0  0  0  0  0  0  0  0
   -4.6370   21.6570  -30.6410 C   0  0  0  0  0  0  0  0  0  0  0  0
   -5.9280   22.0220  -31.0430 C   0  0  0  0  0  0  0  0  0  0  0  0
   -6.9510   20.8550  -31.8770 S   0  0  0  0  0  0  0  0  0  0  0  0
   -7.6060   21.5370  -33.0450 O   0  0  0  0  0  0  0  0  0  0  0  0
   -8.0130   20.3460  -30.9400 O   0  0  0  0  0  0  0  0  0  0  0  0
   -5.9800   19.5160  -32.4390 N   0  0  0  0  0  0  0  0  0  0  0  0
   -6.4490   18.2350  -31.8620 C   0  0  0  0  0  0  0  0  0  0  0  0
   -7.1900   17.3670  -32.8940 C   0  0  0  0  0  0  0  0  0  0  0  0
   -6.4000   17.0620  -34.0340 O   0  0  0  0  0  0  0  0  0  0  0  0
   -5.5350   18.1190  -34.4350 C   0  0  0  0  0  0  0  0  0  0  0  0
   -5.9460   19.5060  -33.9140 C   0  0  0  0  0  0  0  0  0  0  0  0
   -6.3880   23.3210  -30.7940 C   0  0  0  0  0  0  0  0  0  0  0  0
   -5.5700   24.2410  -30.1330 C   0  0  0  0  0  0  0  0  0  0  0  0
   -1.9830   25.5650  -27.1060 C   0  0  0  0  0  0  0  0  0  0  0  0
   -1.7530   25.5850  -25.7180 C   0  0  0  0  0  0  0  0  0  0  0  0
   -0.6770   26.3000  -25.1860 C   0  0  0  0  0  0  0  0  0  0  0  0
    0.1880   26.9960  -26.0320 C   0  0  0  0  0  0  0  0  0  0  0  0
   -0.0170   26.9710  -27.4130 C   0  0  0  0  0  0  0  0  0  0  0  0
   -1.0900   26.2550  -27.9560 C   0  0  0  0  0  0  0  0  0  0  0  0
   -1.2400   26.2150  -29.3380 O   0  0  0  0  0  0  0  0  0  0  0  0
   -3.1570   25.6860  -29.5870 H   0  0  0  0  0  0  0  0  0  0  0  0
   -2.8040   22.2834  -29.6720 H   0  0  0  0  0  0  0  0  0  0  0  0
   -4.2655   20.6424  -30.8474 H   0  0  0  0  0  0  0  0  0  0  0  0
   -5.5787   17.6754  -31.4886 H   0  0  0  0  0  0  0  0  0  0  0  0
   -7.1539   18.4691  -31.0506 H   0  0  0  0  0  0  0  0  0  0  0  0
   -7.4861   16.4243  -32.4107 H   0  0  0  0  0  0  0  0  0  0  0  0
   -8.0607   17.9421  -33.2421 H   0  0  0  0  0  0  0  0  0  0  0  0
   -4.5241   17.8968  -34.0625 H   0  0  0  0  0  0  0  0  0  0  0  0
   -5.5854   18.1676  -35.5328 H   0  0  0  0  0  0  0  0  0  0  0  0
   -5.2194   20.2539  -34.2642 H   0  0  0  0  0  0  0  0  0  0  0  0
   -6.9502   19.7450  -34.2941 H   0  0  0  0  0  0  0  0  0  0  0  0
   -7.3959   23.6179  -31.1196 H   0  0  0  0  0  0  0  0  0  0  0  0
   -5.9358   25.2619  -29.9484 H   0  0  0  0  0  0  0  0  0  0  0  0
   -2.4263   25.0328  -25.0458 H   0  0  0  0  0  0  0  0  0  0  0  0
   -0.5112   26.3145  -24.0987 H   0  0  0  0  0  0  0  0  0  0  0  0
    1.0308   27.5639  -25.6110 H   0  0  0  0  0  0  0  0  0  0  0  0
    0.6686   27.5170  -28.0777 H   0  0  0  0  0  0  0  0  0  0  0  0
  1  2  2  0
  2  3  1  0
  3  4  1  0
  4  5  2  0
  5  6  1  0
  6  7  2  0
  7  8  1  0
  8  9  2  0
  8 10  2  0
  8 11  1  0
 11 12  1  0
 12 13  1  0
 13 14  1  0
 14 15  1  0
 15 16  1  0
  7 17  1  0
 17 18  2  0
  2 19  1  0
 19 20  2  0
 20 21  1  0
 21 22  2  0
 22 23  1  0
 23 24  2  0
 24 25  1  0
 18  4  1  0
 24 19  1  0
 16 11  1  0
  3 26  1  0
  5 27  1  0
  6 28  1  0
 12 29  1  0
 12 30  1  0
 13 31  1  0
 13 32  1  0
 15 33  1  0
 15 34  1  0
 16 35  1  0
 16 36  1  0
 17 37  1  0
 18 38  1  0
 20 39  1  0
 21 40  1  0
 22 41  1  0
 23 42  1  0
M  CHG  1  25  -1
M  END
>  <UniqueID>  (42) 
41

>  <SMILES>  (42) 
O=C(Nc1ccc(S(=O)(=O)N2CCOCC2)cc1)c1ccccc1[O-]

>  <Energy>  (42) 
63.297615934476084

>  <Genealogy>  (42) 
O=C(Nc1ccc(S(=O)(=O)N2CCOCC2)cc1)c1ccccc1[O-] (protonated)
O=C(Nc1ccc(S(=O)(=O)N2CCOCC2)cc1)c1ccccc1[O-] (3D coordinates assigned)
O=C(Nc1ccc(S(=O)(=O)N2CCOCC2)cc1)c1ccccc1[O-] (nonaromatic ring conformer: 63.297615934476084 kcal/mol)

>  <smiles>  (42) 
O=C(Nc1ccc(S(=O)(=O)N2CCOCC2)cc1)c1ccccc1O

>  <score_type>  (42) 
oracle

>  <origin>  (42) 
adgpu

>  <m_score__min__energy>  (42) 
-11.15

>  <m_primary>  (42) 
energy

$$$$
42:0
     RDKit          3D

 44 46  0  0  0  0  0  0  0  0999 V2000
   -8.1490   22.8200  -31.2330 C   0  0  0  0  0  0  0  0  0  0  0  0
   -6.8370   23.4850  -30.9340 C   0  0  0  0  0  0  0  0  0  0  0  0
   -6.7880   24.6000  -30.0850 C   0  0  0  0  0  0  0  0  0  0  0  0
   -5.5640   25.1960  -29.7790 C   0  0  0  0  0  0  0  0  0  0  0  0
   -4.3770   24.6760  -30.3040 C   0  0  0  0  0  0  0  0  0  0  0  0
   -3.1650   25.2840  -29.9910 O   0  0  0  0  0  0  0  0  0  0  0  0
   -4.4060   23.5490  -31.1380 C   0  0  0  0  0  0  0  0  0  0  0  0
   -3.1680   23.0360  -31.6490 N   0  0  0  0  0  0  0  0  0  0  0  0
   -2.3060   21.6710  -31.0150 S   0  0  0  0  0  0  0  0  0  0  0  0
   -2.8040   21.3800  -29.6270 O   0  0  0  0  0  0  0  0  0  0  0  0
   -0.8350   21.9700  -30.9860 O   0  0  0  0  0  0  0  0  0  0  0  0
   -2.5860   20.2630  -32.0410 C   0  0  0  0  0  0  0  0  0  0  0  0
   -3.8910   19.9300  -32.4330 C   0  0  0  0  0  0  0  0  0  0  0  0
   -4.1270   18.8120  -33.2450 C   0  0  0  0  0  0  0  0  0  0  0  0
   -5.7730   18.3830  -33.7010 S   0  0  0  0  0  0  0  0  0  0  0  0
   -5.8930   16.8870  -33.7820 O   0  0  0  0  0  0  0  0  0  0  0  0
   -6.0860   18.9600  -35.0550 O   0  0  0  0  0  0  0  0  0  0  0  0
   -6.8840   18.9910  -32.4990 N   0  0  0  0  0  0  0  0  0  0  0  0
   -7.7840   19.9950  -33.0660 C   0  0  0  0  0  0  0  0  0  0  0  0
   -9.0510   19.9600  -32.2280 C   0  0  0  0  0  0  0  0  0  0  0  0
   -9.0460   18.5980  -31.5510 C   0  0  0  0  0  0  0  0  0  0  0  0
   -7.7550   17.9290  -31.9970 C   0  0  0  0  0  0  0  0  0  0  0  0
   -3.0490   18.0210  -33.6630 C   0  0  0  0  0  0  0  0  0  0  0  0
   -1.7460   18.3550  -33.2880 C   0  0  0  0  0  0  0  0  0  0  0  0
   -1.5100   19.4740  -32.4840 C   0  0  0  0  0  0  0  0  0  0  0  0
   -0.2030   19.7940  -32.1300 O   0  0  0  0  0  0  0  0  0  0  0  0
   -5.6440   22.9510  -31.4450 C   0  0  0  0  0  0  0  0  0  0  0  0
   -8.6538   22.5642  -30.2897 H   0  0  0  0  0  0  0  0  0  0  0  0
   -8.7834   23.5054  -31.8142 H   0  0  0  0  0  0  0  0  0  0  0  0
   -7.9713   21.9031  -31.8142 H   0  0  0  0  0  0  0  0  0  0  0  0
   -7.7173   25.0060  -29.6589 H   0  0  0  0  0  0  0  0  0  0  0  0
   -5.5328   26.0780  -29.1224 H   0  0  0  0  0  0  0  0  0  0  0  0
   -4.7358   20.5511  -32.1006 H   0  0  0  0  0  0  0  0  0  0  0  0
   -7.3219   20.9919  -33.0149 H   0  0  0  0  0  0  0  0  0  0  0  0
   -8.0003   19.7838  -34.1236 H   0  0  0  0  0  0  0  0  0  0  0  0
   -9.0388   20.7637  -31.4771 H   0  0  0  0  0  0  0  0  0  0  0  0
   -9.9523   20.1107  -32.8403 H   0  0  0  0  0  0  0  0  0  0  0  0
   -9.0622   18.7121  -30.4571 H   0  0  0  0  0  0  0  0  0  0  0  0
   -9.9300   18.0029  -31.8235 H   0  0  0  0  0  0  0  0  0  0  0  0
   -7.2791   17.4184  -31.1468 H   0  0  0  0  0  0  0  0  0  0  0  0
   -7.9478   17.1746  -32.7740 H   0  0  0  0  0  0  0  0  0  0  0  0
   -3.2295   17.1343  -34.2884 H   0  0  0  0  0  0  0  0  0  0  0  0
   -0.9024   17.7355  -33.6264 H   0  0  0  0  0  0  0  0  0  0  0  0
   -5.6758   22.0600  -32.0892 H   0  0  0  0  0  0  0  0  0  0  0  0
  1  2  1  0
  2  3  2  0
  3  4  1  0
  4  5  2  0
  5  6  1  0
  5  7  1  0
  7  8  1  0
  8  9  1  0
  9 10  2  0
  9 11  2  0
  9 12  1  0
 12 13  2  0
 13 14  1  0
 14 15  1  0
 15 16  2  0
 15 17  2  0
 15 18  1  0
 18 19  1  0
 19 20  1  0
 20 21  1  0
 21 22  1  0
 14 23  2  0
 23 24  1  0
 24 25  2  0
 25 26  1  0
  7 27  2  0
 27  2  1  0
 25 12  1  0
 22 18  1  0
  1 28  1  0
  1 29  1  0
  1 30  1  0
  3 31  1  0
  4 32  1  0
 13 33  1  0
 19 34  1  0
 19 35  1  0
 20 36  1  0
 20 37  1  0
 21 38  1  0
 21 39  1  0
 22 40  1  0
 22 41  1  0
 23 42  1  0
 24 43  1  0
 27 44  1  0
M  CHG  3   6  -1   8  -1  26  -1
M  END
>  <UniqueID>  (43) 
42

>  <SMILES>  (43) 
Cc1ccc([O-])c([N-]S(=O)(=O)c2cc(S(=O)(=O)N3CCCC3)ccc2[O-])c1

>  <Energy>  (43) 
49.90748094094907

>  <Genealogy>  (43) 
Cc1ccc([O-])c([N-]S(=O)(=O)c2cc(S(=O)(=O)N3CCCC3)ccc2[O-])c1 (protonated)
Cc1ccc([O-])c([N-]S(=O)(=O)c2cc(S(=O)(=O)N3CCCC3)ccc2[O-])c1 (3D coordinates assigned)
Cc1ccc([O-])c([N-]S(=O)(=O)c2cc(S(=O)(=O)N3CCCC3)ccc2[O-])c1 (nonaromatic ring conformer: 49.90748094094907 kcal/mol)

>  <smiles>  (43) 
Cc1ccc(O)c(NS(=O)(=O)c2cc(S(=O)(=O)N3CCCC3)ccc2O)c1

>  <score_type>  (43) 
oracle

>  <origin>  (43) 
adgpu

>  <m_score__min__energy>  (43) 
-16

>  <m_primary>  (43) 
energy

$$$$
43:0
     RDKit          3D

 44 46  0  0  0  0  0  0  0  0999 V2000
    0.0610   21.7820  -27.3570 C   0  0  0  0  0  0  0  0  0  0  0  0
   -0.9220   22.8120  -27.8460 C   0  0  0  0  0  0  0  0  0  0  0  0
   -0.6990   24.1940  -27.7580 C   0  0  0  0  0  0  0  0  0  0  0  0
    0.4710   24.8650  -27.1490 C   0  0  0  0  0  0  0  0  0  0  0  0
    1.5090   25.0210  -27.8500 O   0  0  0  0  0  0  0  0  0  0  0  0
    0.4650   25.3210  -25.7810 N   0  0  0  0  0  0  0  0  0  0  0  0
   -0.7910   25.6060  -25.0800 C   0  0  0  0  0  0  0  0  0  0  0  0
    1.7430   25.6010  -25.1180 C   0  0  0  0  0  0  0  0  0  0  0  0
   -2.0680   24.9930  -28.3300 S   0  0  0  0  0  0  0  0  0  0  0  0
   -2.9330   23.6140  -28.7310 C   0  0  0  0  0  0  0  0  0  0  0  0
   -4.2760   23.6340  -29.2340 N   0  0  0  0  0  0  0  0  0  0  0  0
   -4.6900   24.4510  -30.3370 C   0  0  0  0  0  0  0  0  0  0  0  0
   -3.9070   25.3060  -30.8300 O   0  0  0  0  0  0  0  0  0  0  0  0
   -6.0940   24.3610  -30.8510 C   0  0  0  0  0  0  0  0  0  0  0  0
   -6.2650   23.1430  -31.6370 N   0  0  0  0  0  0  0  0  0  0  0  0
   -5.2220   22.3190  -32.1650 C   0  0  0  0  0  0  0  0  0  0  0  0
   -4.0180   22.6780  -32.2680 O   0  0  0  0  0  0  0  0  0  0  0  0
   -5.7540   21.0140  -32.5400 C   0  0  0  0  0  0  0  0  0  0  0  0
   -5.1260   19.9000  -33.0930 C   0  0  0  0  0  0  0  0  0  0  0  0
   -5.9070   18.7560  -33.3350 C   0  0  0  0  0  0  0  0  0  0  0  0
   -7.2830   18.7480  -33.0190 C   0  0  0  0  0  0  0  0  0  0  0  0
   -7.8920   19.8850  -32.4570 C   0  0  0  0  0  0  0  0  0  0  0  0
   -7.0970   21.0080  -32.2320 C   0  0  0  0  0  0  0  0  0  0  0  0
   -7.4260   22.3090  -31.6590 C   0  0  0  0  0  0  0  0  0  0  0  0
   -8.5560   22.6530  -31.2200 O   0  0  0  0  0  0  0  0  0  0  0  0
   -2.1880   22.4890  -28.3770 C   0  0  0  0  0  0  0  0  0  0  0  0
   -2.7030   21.1430  -28.4410 C   0  0  0  0  0  0  0  0  0  0  0  0
   -3.1170   20.0630  -28.4910 N   0  0  0  0  0  0  0  0  0  0  0  0
    0.0678   21.7748  -26.2570 H   0  0  0  0  0  0  0  0  0  0  0  0
   -0.2330   20.7892  -27.7283 H   0  0  0  0  0  0  0  0  0  0  0  0
    1.0664   22.0294  -27.7283 H   0  0  0  0  0  0  0  0  0  0  0  0
   -0.6216   25.5676  -23.9938 H   0  0  0  0  0  0  0  0  0  0  0  0
   -1.1481   26.6080  -25.3602 H   0  0  0  0  0  0  0  0  0  0  0  0
   -1.5456   24.8562  -25.3602 H   0  0  0  0  0  0  0  0  0  0  0  0
    1.6046   25.5707  -24.0272 H   0  0  0  0  0  0  0  0  0  0  0  0
    2.4837   24.8438  -25.4148 H   0  0  0  0  0  0  0  0  0  0  0  0
    2.0992   26.5985  -25.4148 H   0  0  0  0  0  0  0  0  0  0  0  0
   -5.0120   23.1570  -28.6660 H   0  0  0  0  0  0  0  0  0  0  0  0
   -6.7920   24.3461  -30.0010 H   0  0  0  0  0  0  0  0  0  0  0  0
   -6.2993   25.2327  -31.4898 H   0  0  0  0  0  0  0  0  0  0  0  0
   -4.0526   19.9149  -33.3328 H   0  0  0  0  0  0  0  0  0  0  0  0
   -5.4424   17.8607  -33.7738 H   0  0  0  0  0  0  0  0  0  0  0  0
   -7.8830   17.8468  -33.2135 H   0  0  0  0  0  0  0  0  0  0  0  0
   -8.9623   19.8878  -32.2030 H   0  0  0  0  0  0  0  0  0  0  0  0
  1  2  1  0
  2  3  2  0
  3  4  1  0
  4  5  2  0
  4  6  1  0
  6  7  1  0
  6  8  1  0
  3  9  1  0
  9 10  1  0
 10 11  1  0
 11 12  1  0
 12 13  2  0
 12 14  1  0
 14 15  1  0
 15 16  1  0
 16 17  2  0
 16 18  1  0
 18 19  2  0
 19 20  1  0
 20 21  2  0
 21 22  1  0
 22 23  2  0
 23 24  1  0
 24 25  2  0
 10 26  2  0
 26 27  1  0
 27 28  3  0
 26  2  1  0
 24 15  1  0
 23 18  1  0
  1 29  1  0
  1 30  1  0
  1 31  1  0
  7 32  1  0
  7 33  1  0
  7 34  1  0
  8 35  1  0
  8 36  1  0
  8 37  1  0
 11 38  1  0
 14 39  1  0
 14 40  1  0
 19 41  1  0
 20 42  1  0
 21 43  1  0
 22 44  1  0
M  END
>  <UniqueID>  (44) 
43

>  <SMILES>  (44) 
Cc1c(C(=O)N(C)C)sc(NC(=O)CN2C(=O)c3ccccc3C2=O)c1C#N

>  <Energy>  (44) 
107.99666204593741

>  <Genealogy>  (44) 
Cc1c(C(=O)N(C)C)sc(NC(=O)CN2C(=O)c3ccccc3C2=O)c1C#N (3D coordinates assigned)
Cc1c(C(=O)N(C)C)sc(NC(=O)CN2C(=O)c3ccccc3C2=O)c1C#N (nonaromatic ring conformer: 107.99666204593741 kcal/mol)

>  <smiles>  (44) 
Cc1c(C(=O)N(C)C)sc(NC(=O)CN2C(=O)c3ccccc3C2=O)c1C#N

>  <score_type>  (44) 
oracle

>  <origin>  (44) 
adgpu

>  <m_score__min__energy>  (44) 
-10.109999999999999

>  <m_primary>  (44) 
energy

$$$$
44:0
     RDKit          3D

 48 51  0  0  0  0  0  0  0  0999 V2000
   -7.5847   17.7341  -32.5372 H   0  0  0  0  0  0  0  0  0  0  0  0
   -7.0840   18.7030  -32.6800 C   0  0  0  0  0  0  0  0  0  0  0  0
   -7.6030   19.8500  -32.0720 C   0  0  0  0  0  0  0  0  0  0  0  0
   -8.4954   19.7760  -31.4331 H   0  0  0  0  0  0  0  0  0  0  0  0
   -6.9900   21.0930  -32.2740 C   0  0  0  0  0  0  0  0  0  0  0  0
   -7.6480   22.5360  -31.5070 S   0  0  0  0  0  0  0  0  0  0  0  0
   -7.6990   23.6290  -32.5360 O   0  0  0  0  0  0  0  0  0  0  0  0
   -9.0400   22.2540  -31.0180 O   0  0  0  0  0  0  0  0  0  0  0  0
   -6.6180   23.0200  -30.1740 N   0  0  0  0  0  0  0  0  0  0  0  0
   -6.6500   24.4760  -29.9350 C   0  0  0  0  0  0  0  0  0  0  0  0
   -7.6720   24.8407  -30.1155 H   0  0  0  0  0  0  0  0  0  0  0  0
   -6.3357   24.6509  -28.8955 H   0  0  0  0  0  0  0  0  0  0  0  0
   -5.6830   25.2450  -30.8510 C   0  0  0  0  0  0  0  0  0  0  0  0
   -6.0369   25.1712  -31.8899 H   0  0  0  0  0  0  0  0  0  0  0  0
   -5.6547   26.2955  -30.5261 H   0  0  0  0  0  0  0  0  0  0  0  0
   -4.3770   24.7150  -30.7700 O   0  0  0  0  0  0  0  0  0  0  0  0
   -4.3830   23.3790  -31.2220 C   0  0  0  0  0  0  0  0  0  0  0  0
   -4.7910   23.3446  -32.2430 H   0  0  0  0  0  0  0  0  0  0  0  0
   -3.3518   22.9963  -31.2113 H   0  0  0  0  0  0  0  0  0  0  0  0
   -5.2450   22.5030  -30.3050 C   0  0  0  0  0  0  0  0  0  0  0  0
   -5.2873   21.4864  -30.7230 H   0  0  0  0  0  0  0  0  0  0  0  0
   -4.7858   22.5051  -29.3054 H   0  0  0  0  0  0  0  0  0  0  0  0
   -5.8440   21.1780  -33.0760 C   0  0  0  0  0  0  0  0  0  0  0  0
   -5.3577   22.1516  -33.2362 H   0  0  0  0  0  0  0  0  0  0  0  0
   -5.3170   20.0290  -33.6730 C   0  0  0  0  0  0  0  0  0  0  0  0
   -4.4190   20.1034  -34.3040 H   0  0  0  0  0  0  0  0  0  0  0  0
   -5.9270   18.7810  -33.4720 C   0  0  0  0  0  0  0  0  0  0  0  0
   -5.3770   17.5600  -34.1060 C   0  0  0  0  0  0  0  0  0  0  0  0
   -6.1130   16.5420  -34.2160 O   0  0  0  0  0  0  0  0  0  0  0  0
   -4.0490   17.5100  -34.6500 N   0  0  0  0  0  0  0  0  0  0  0  0
   -2.9620   17.8650  -34.0300 C   0  0  0  0  0  0  0  0  0  0  0  0
   -2.9160   18.2690  -32.7420 N   0  0  0  0  0  0  0  0  0  0  0  0
   -1.6830   18.5560  -32.3320 N   0  0  0  0  0  0  0  0  0  0  0  0
   -0.7500   18.3710  -33.2900 C   0  0  0  0  0  0  0  0  0  0  0  0
    0.9910   18.6800  -33.0380 S   0  0  0  0  0  0  0  0  0  0  0  0
    0.9350   20.2260  -33.9350 C   0  0  0  0  0  0  0  0  0  0  0  0
    2.0320   20.9620  -34.2160 N   0  0  0  0  0  0  0  0  0  0  0  0
    1.7540   22.0780  -34.8870 N   0  0  0  0  0  0  0  0  0  0  0  0
    0.4350   22.2230  -35.1450 C   0  0  0  0  0  0  0  0  0  0  0  0
   -0.0930   23.2390  -35.7620 N   0  0  0  0  0  0  0  0  0  0  0  0
    0.5760   24.3870  -36.3150 C   0  0  0  0  0  0  0  0  0  0  0  0
    1.4470   24.2000  -37.2070 O   0  0  0  0  0  0  0  0  0  0  0  0
    0.2860   25.7910  -35.8800 C   0  0  0  0  0  0  0  0  0  0  0  0
    0.2759   25.8397  -34.7811 H   0  0  0  0  0  0  0  0  0  0  0  0
    1.0641   26.4637  -36.2697 H   0  0  0  0  0  0  0  0  0  0  0  0
   -0.6950   26.1004  -36.2697 H   0  0  0  0  0  0  0  0  0  0  0  0
   -0.4680   20.9420  -34.5300 S   0  0  0  0  0  0  0  0  0  0  0  0
   -1.4320   17.8240  -34.7310 S   0  0  0  0  0  0  0  0  0  0  0  0
  1  2  1  0
  2  3  2  0
  3  4  1  0
  3  5  1  0
  5  6  1  0
  6  7  2  0
  6  8  2  0
  6  9  1  0
  9 10  1  0
 10 11  1  0
 10 12  1  0
 10 13  1  0
 13 14  1  0
 13 15  1  0
 13 16  1  0
 16 17  1  0
 17 18  1  0
 17 19  1  0
 17 20  1  0
 20 21  1  0
 20 22  1  0
  5 23  2  0
 23 24  1  0
 23 25  1  0
 25 26  1  0
 25 27  2  0
 27 28  1  0
 28 29  2  0
 28 30  1  0
 30 31  2  0
 31 32  1  0
 32 33  1  0
 33 34  2  0
 34 35  1  0
 35 36  1  0
 36 37  2  0
 37 38  1  0
 38 39  1  0
 39 40  2  3
 40 41  1  0
 41 42  2  0
 41 43  1  0
 43 44  1  0
 43 45  1  0
 43 46  1  0
 39 47  1  0
 34 48  1  0
 27  2  1  0
 48 31  1  0
 20  9  1  0
 47 36  1  0
M  CHG  2  32  -1  38  -1
M  END
>  <UniqueID>  (45) 
44

>  <SMILES>  (45) 
CC(=O)N=c1[n-]nc(Sc2n[n-]/c(=N\C(=O)c3ccc(S(=O)(=O)N4CCOCC4)cc3)s2)s1

>  <Energy>  (45) 
130.83352319950603

>  <Genealogy>  (45) 
CC(=O)N=c1[n-]nc(Sc2n[n-]c(=NC(=O)c3ccc(S(=O)(=O)N4CCOCC4)cc3)s2)s1 (protonated)
CC(=O)N=c1[n-]nc(Sc2n[n-]/c(=N\C(=O)c3ccc(S(=O)(=O)N4CCOCC4)cc3)s2)s1 (cis-trans isomerization)
CC(=O)N=c1[n-]nc(Sc2n[n-]/c(=N\C(=O)c3ccc(S(=O)(=O)N4CCOCC4)cc3)s2)s1 (3D coordinates assigned)
CC(=O)N=c1[n-]nc(Sc2n[n-]/c(=N\C(=O)c3ccc(S(=O)(=O)N4CCOCC4)cc3)s2)s1 (nonaromatic ring conformer: 130.83352319950603 kcal/mol)

>  <smiles>  (45) 
CC(=O)N=c1[nH]nc(Sc2n[nH]c(=NC(=O)c3ccc(S(=O)(=O)N4CCOCC4)cc3)s2)s1

>  <score_type>  (45) 
oracle

>  <origin>  (45) 
adgpu

>  <m_score__min__energy>  (45) 
-11.359999999999999

>  <m_primary>  (45) 
energy

$$$$
45:0
     RDKit          3D

 60 64  0  0  0  0  0  0  0  0999 V2000
    0.2570   20.8760  -36.7220 C   0  0  0  0  0  0  0  0  0  0  0  0
    0.9000   22.2230  -35.7430 S   0  0  0  0  0  0  0  0  0  0  0  0
   -0.1130   23.3340  -35.7030 O   0  0  0  0  0  0  0  0  0  0  0  0
    2.1720   22.7400  -36.3490 O   0  0  0  0  0  0  0  0  0  0  0  0
    1.1990   21.6630  -34.1270 N   0  0  0  0  0  0  0  0  0  0  0  0
    0.1920   20.9760  -33.3790 C   0  0  0  0  0  0  0  0  0  0  0  0
    0.4730   20.5470  -32.0770 C   0  0  0  0  0  0  0  0  0  0  0  0
   -0.5160   19.9200  -31.3160 C   0  0  0  0  0  0  0  0  0  0  0  0
   -1.7830   19.6990  -31.8580 C   0  0  0  0  0  0  0  0  0  0  0  0
   -2.0640   20.0660  -33.1890 C   0  0  0  0  0  0  0  0  0  0  0  0
   -3.4280   19.7910  -33.8050 C   0  0  1  0  0  0  0  0  0  0  0  0
   -3.6490   18.2640  -34.0050 C   0  0  0  0  0  0  0  0  0  0  0  0
   -5.0850   18.0010  -34.1420 N   0  0  0  0  0  0  0  0  0  0  0  0
   -5.4350   16.6110  -34.4380 C   0  0  0  0  0  0  0  0  0  0  0  0
   -6.8610   16.4210  -33.9060 C   0  0  0  0  0  0  0  0  0  0  0  0
   -7.1450   17.6640  -33.0630 C   0  0  0  0  0  0  0  0  0  0  0  0
   -5.7700   18.2900  -32.8870 C   0  0  2  0  0  0  0  0  0  0  0  0
   -5.7100   19.7730  -32.6270 C   0  0  0  0  0  0  0  0  0  0  0  0
   -6.7330   20.4460  -31.9380 C   0  0  0  0  0  0  0  0  0  0  0  0
   -6.6400   21.8180  -31.6940 C   0  0  0  0  0  0  0  0  0  0  0  0
   -7.6980   22.4510  -31.0440 O   0  0  0  0  0  0  0  0  0  0  0  0
   -5.4960   22.5320  -32.0950 C   0  0  0  0  0  0  0  0  0  0  0  0
   -5.4220   23.9420  -31.8360 N   0  0  0  0  0  0  0  0  0  0  0  0
   -5.0620   24.6640  -30.3050 S   0  0  0  0  0  0  0  0  0  0  0  0
   -6.3270   24.7490  -29.4920 O   0  0  0  0  0  0  0  0  0  0  0  0
   -4.5290   26.0560  -30.4870 O   0  0  0  0  0  0  0  0  0  0  0  0
   -3.9020   23.6540  -29.4480 C   0  0  0  0  0  0  0  0  0  0  0  0
   -2.6600   23.3710  -30.0290 C   0  0  0  0  0  0  0  0  0  0  0  0
   -1.7310   22.5750  -29.3500 C   0  0  0  0  0  0  0  0  0  0  0  0
   -2.0350   22.0600  -28.0880 C   0  0  0  0  0  0  0  0  0  0  0  0
   -3.2720   22.3410  -27.5020 C   0  0  0  0  0  0  0  0  0  0  0  0
   -4.1990   23.1470  -28.1750 C   0  0  0  0  0  0  0  0  0  0  0  0
   -4.4630   21.8540  -32.7590 C   0  0  0  0  0  0  0  0  0  0  0  0
   -4.5440   20.4740  -33.0080 C   0  0  0  0  0  0  0  0  0  0  0  0
   -1.0690   20.7270  -33.9370 C   0  0  0  0  0  0  0  0  0  0  0  0
   -0.1201   20.0860  -36.0559 H   0  0  0  0  0  0  0  0  0  0  0  0
   -0.5631   21.2429  -37.3567 H   0  0  0  0  0  0  0  0  0  0  0  0
    1.0580   20.4690  -37.3567 H   0  0  0  0  0  0  0  0  0  0  0  0
    1.4753   20.7040  -31.6519 H   0  0  0  0  0  0  0  0  0  0  0  0
   -0.2959   19.5996  -30.2870 H   0  0  0  0  0  0  0  0  0  0  0  0
   -2.5674   19.2352  -31.2419 H   0  0  0  0  0  0  0  0  0  0  0  0
   -3.4606   20.2386  -34.8093 H   0  0  0  0  0  0  0  0  0  0  0  0
   -3.1254   17.9319  -34.9136 H   0  0  0  0  0  0  0  0  0  0  0  0
   -3.2528   17.7155  -33.1377 H   0  0  0  0  0  0  0  0  0  0  0  0
   -5.4027   16.4297  -35.5225 H   0  0  0  0  0  0  0  0  0  0  0  0
   -4.7302   15.9064  -33.9724 H   0  0  0  0  0  0  0  0  0  0  0  0
   -7.5764   16.3481  -34.7384 H   0  0  0  0  0  0  0  0  0  0  0  0
   -6.9604   15.4958  -33.3194 H   0  0  0  0  0  0  0  0  0  0  0  0
   -7.8256   18.3496  -33.5890 H   0  0  0  0  0  0  0  0  0  0  0  0
   -7.6376   17.4322  -32.1072 H   0  0  0  0  0  0  0  0  0  0  0  0
   -5.3227   17.8655  -31.9761 H   0  0  0  0  0  0  0  0  0  0  0  0
   -7.6140   19.8880  -31.5881 H   0  0  0  0  0  0  0  0  0  0  0  0
   -7.6070   23.3650  -30.6180 H   0  0  0  0  0  0  0  0  0  0  0  0
   -2.4139   23.7755  -31.0219 H   0  0  0  0  0  0  0  0  0  0  0  0
   -0.7575   22.3540  -29.8120 H   0  0  0  0  0  0  0  0  0  0  0  0
   -1.3025   21.4347  -27.5566 H   0  0  0  0  0  0  0  0  0  0  0  0
   -3.5178   21.9292  -26.5121 H   0  0  0  0  0  0  0  0  0  0  0  0
   -5.1640   23.3832  -27.7028 H   0  0  0  0  0  0  0  0  0  0  0  0
   -3.5749   22.4122  -33.0901 H   0  0  0  0  0  0  0  0  0  0  0  0
   -1.2839   21.0498  -34.9664 H   0  0  0  0  0  0  0  0  0  0  0  0
  1  2  1  0
  2  3  2  0
  2  4  2  0
  2  5  1  0
  5  6  1  0
  6  7  2  0
  7  8  1  0
  8  9  2  0
  9 10  1  0
 10 11  1  0
 11 12  1  0
 12 13  1  0
 13 14  1  0
 14 15  1  0
 15 16  1  0
 16 17  1  0
 17 18  1  0
 18 19  2  0
 19 20  1  0
 20 21  1  0
 20 22  2  0
 22 23  1  0
 23 24  1  0
 24 25  2  0
 24 26  2  0
 24 27  1  0
 27 28  2  0
 28 29  1  0
 29 30  2  0
 30 31  1  0
 31 32  2  0
 22 33  1  0
 33 34  2  0
 10 35  2  0
 35  6  1  0
 34 11  1  0
 17 13  1  0
 34 18  1  0
 32 27  1  0
  1 36  1  0
  1 37  1  0
  1 38  1  0
  7 39  1  0
  8 40  1  0
  9 41  1  0
 11 42  1  6
 12 43  1  0
 12 44  1  0
 14 45  1  0
 14 46  1  0
 15 47  1  0
 15 48  1  0
 16 49  1  0
 16 50  1  0
 17 51  1  1
 19 52  1  0
 21 53  1  0
 28 54  1  0
 29 55  1  0
 30 56  1  0
 31 57  1  0
 32 58  1  0
 33 59  1  0
 35 60  1  0
M  CHG  2   5  -1  23  -1
M  END
>  <UniqueID>  (46) 
45

>  <SMILES>  (46) 
CS(=O)(=O)[N-]c1cccc([C@H]2CN3CCC[C@@H]3c3cc(O)c([N-]S(=O)(=O)c4ccccc4)cc32)c1

>  <Energy>  (46) 
82.08201235489055

>  <Genealogy>  (46) 
CS(=O)(=O)[N-]c1cccc(C2CN3CCCC3c3cc(O)c([N-]S(=O)(=O)c4ccccc4)cc32)c1 (protonated)
CS(=O)(=O)[N-]c1cccc([C@H]2CN3CCC[C@@H]3c3cc(O)c([N-]S(=O)(=O)c4ccccc4)cc32)c1 (chirality)
CS(=O)(=O)[N-]c1cccc([C@H]2CN3CCC[C@@H]3c3cc(O)c([N-]S(=O)(=O)c4ccccc4)cc32)c1 (3D coordinates assigned)
CS(=O)(=O)[N-]c1cccc([C@H]2CN3CCC[C@@H]3c3cc(O)c([N-]S(=O)(=O)c4ccccc4)cc32)c1 (nonaromatic ring conformer: 82.08201235489055 kcal/mol)

>  <smiles>  (46) 
CS(=O)(=O)Nc1cccc(C2CN3CCCC3c3cc(O)c(NS(=O)(=O)c4ccccc4)cc32)c1

>  <score_type>  (46) 
oracle

>  <origin>  (46) 
adgpu

>  <m_score__min__energy>  (46) 
-13.050000000000001

>  <m_primary>  (46) 
energy

$$$$
46:0
     RDKit          3D

 52 55  0  0  0  0  0  0  0  0999 V2000
   -4.5660   24.9130  -26.8000 C   0  0  0  0  0  0  0  0  0  0  0  0
   -3.8280   23.8560  -27.5520 C   0  0  0  0  0  0  0  0  0  0  0  0
   -3.3240   22.7780  -27.0070 O   0  0  0  0  0  0  0  0  0  0  0  0
   -2.7350   22.1010  -27.9680 C   0  0  0  0  0  0  0  0  0  0  0  0
   -2.0540   20.8070  -27.7620 C   0  0  0  0  0  0  0  0  0  0  0  0
   -0.8330   20.5290  -28.4000 C   0  0  0  0  0  0  0  0  0  0  0  0
   -0.1950   19.3000  -28.2020 C   0  0  0  0  0  0  0  0  0  0  0  0
   -0.7680   18.3380  -27.3640 C   0  0  0  0  0  0  0  0  0  0  0  0
   -0.1190   17.1200  -27.1720 O   0  0  0  0  0  0  0  0  0  0  0  0
   -1.9870   18.6070  -26.7280 C   0  0  0  0  0  0  0  0  0  0  0  0
   -2.6280   19.8340  -26.9260 C   0  0  0  0  0  0  0  0  0  0  0  0
   -2.8270   22.7160  -29.1680 N   0  0  0  0  0  0  0  0  0  0  0  0
   -3.5330   23.8300  -28.9010 C   0  0  0  0  0  0  0  0  0  0  0  0
   -3.9150   24.8590  -29.9370 C   0  0  0  0  0  0  0  0  0  0  0  0
   -4.6260   24.2840  -31.0990 N   0  0  0  0  0  0  0  0  0  0  0  0
   -4.0120   23.0310  -31.5970 C   0  0  0  0  0  0  0  0  0  0  0  0
   -4.9840   22.2060  -32.4440 C   0  0  0  0  0  0  0  0  0  0  0  0
   -6.1880   21.8990  -31.6620 N   0  0  0  0  0  0  0  0  0  0  0  0
   -6.9040   20.6600  -31.8700 C   0  0  0  0  0  0  0  0  0  0  0  0
   -8.2180   20.5040  -31.3940 C   0  0  0  0  0  0  0  0  0  0  0  0
   -8.9160   19.3170  -31.6180 C   0  0  0  0  0  0  0  0  0  0  0  0
   -8.3100   18.2650  -32.3090 C   0  0  0  0  0  0  0  0  0  0  0  0
   -6.9880   18.3840  -32.7680 C   0  0  0  0  0  0  0  0  0  0  0  0
   -6.3560   17.2760  -33.5740 C   0  0  0  0  0  0  0  0  0  0  0  0
   -5.1770   16.8530  -32.9860 F   0  0  0  0  0  0  0  0  0  0  0  0
   -7.2330   16.2090  -33.6460 F   0  0  0  0  0  0  0  0  0  0  0  0
   -6.0680   17.7100  -34.8570 F   0  0  0  0  0  0  0  0  0  0  0  0
   -6.2990   19.5930  -32.5630 C   0  0  0  0  0  0  0  0  0  0  0  0
   -6.6740   22.8810  -30.6820 C   0  0  0  0  0  0  0  0  0  0  0  0
   -6.1050   24.2780  -30.9720 C   0  0  0  0  0  0  0  0  0  0  0  0
   -4.4482   24.7442  -25.7194 H   0  0  0  0  0  0  0  0  0  0  0  0
   -4.1605   25.9011  -27.0632 H   0  0  0  0  0  0  0  0  0  0  0  0
   -5.6333   24.8728  -27.0632 H   0  0  0  0  0  0  0  0  0  0  0  0
   -0.3764   21.2822  -29.0589 H   0  0  0  0  0  0  0  0  0  0  0  0
    0.7596   19.0897  -28.7065 H   0  0  0  0  0  0  0  0  0  0  0  0
   -0.4810   16.4230  -26.5310 H   0  0  0  0  0  0  0  0  0  0  0  0
   -2.4413   17.8508  -26.0709 H   0  0  0  0  0  0  0  0  0  0  0  0
   -3.5858   20.0385  -26.4252 H   0  0  0  0  0  0  0  0  0  0  0  0
   -4.5685   25.6059  -29.4626 H   0  0  0  0  0  0  0  0  0  0  0  0
   -2.9820   25.3036  -30.3137 H   0  0  0  0  0  0  0  0  0  0  0  0
   -3.1358   23.2859  -32.2112 H   0  0  0  0  0  0  0  0  0  0  0  0
   -3.7274   22.4250  -30.7242 H   0  0  0  0  0  0  0  0  0  0  0  0
   -5.2663   22.7799  -33.3389 H   0  0  0  0  0  0  0  0  0  0  0  0
   -4.4968   21.2667  -32.7445 H   0  0  0  0  0  0  0  0  0  0  0  0
   -8.6991   21.3241  -30.8409 H   0  0  0  0  0  0  0  0  0  0  0  0
   -9.9468   19.2091  -31.2493 H   0  0  0  0  0  0  0  0  0  0  0  0
   -8.8717   17.3377  -32.4948 H   0  0  0  0  0  0  0  0  0  0  0  0
   -5.2751   19.7068  -32.9486 H   0  0  0  0  0  0  0  0  0  0  0  0
   -7.7722   22.9231  -30.7296 H   0  0  0  0  0  0  0  0  0  0  0  0
   -6.3427   22.5692  -29.6805 H   0  0  0  0  0  0  0  0  0  0  0  0
   -6.5397   24.6457  -31.9132 H   0  0  0  0  0  0  0  0  0  0  0  0
   -6.3660   24.9241  -30.1209 H   0  0  0  0  0  0  0  0  0  0  0  0
  1  2  1  0
  2  3  1  0
  3  4  1  0
  4  5  1  0
  5  6  2  0
  6  7  1  0
  7  8  2  0
  8  9  1  0
  8 10  1  0
 10 11  2  0
  4 12  2  0
 12 13  1  0
 13 14  1  0
 14 15  1  0
 15 16  1  0
 16 17  1  0
 17 18  1  0
 18 19  1  0
 19 20  2  0
 20 21  1  0
 21 22  2  0
 22 23  1  0
 23 24  1  0
 24 25  1  0
 24 26  1  0
 24 27  1  0
 23 28  2  0
 18 29  1  0
 29 30  1  0
 13  2  2  0
 30 15  1  0
 11  5  1  0
 28 19  1  0
  1 31  1  0
  1 32  1  0
  1 33  1  0
  6 34  1  0
  7 35  1  0
  9 36  1  0
 10 37  1  0
 11 38  1  0
 14 39  1  0
 14 40  1  0
 16 41  1  0
 16 42  1  0
 17 43  1  0
 17 44  1  0
 20 45  1  0
 21 46  1  0
 22 47  1  0
 28 48  1  0
 29 49  1  0
 29 50  1  0
 30 51  1  0
 30 52  1  0
M  END
>  <UniqueID>  (47) 
46

>  <SMILES>  (47) 
Cc1oc(-c2ccc(O)cc2)nc1CN1CCN(c2cccc(C(F)(F)F)c2)CC1

>  <Energy>  (47) 
95.20036547032159

>  <Genealogy>  (47) 
Cc1oc(-c2ccc(O)cc2)nc1CN1CCN(c2cccc(C(F)(F)F)c2)CC1 (3D coordinates assigned)
Cc1oc(-c2ccc(O)cc2)nc1CN1CCN(c2cccc(C(F)(F)F)c2)CC1 (nonaromatic ring conformer: 95.20036547032159 kcal/mol)

>  <smiles>  (47) 
Cc1oc(-c2ccc(O)cc2)nc1CN1CCN(c2cccc(C(F)(F)F)c2)CC1

>  <score_type>  (47) 
oracle

>  <origin>  (47) 
adgpu

>  <m_score__min__energy>  (47) 
-8.7899999999999991

>  <m_primary>  (47) 
energy

$$$$
47:0
     RDKit          3D

 70 73  0  0  0  0  0  0  0  0999 V2000
    1.3800   16.6260  -31.1180 C   0  0  0  0  0  0  0  0  0  0  0  0
    2.0760   17.4230  -30.0560 C   0  0  0  0  0  0  0  0  0  0  0  0
    3.3360   17.4110  -30.0200 O   0  0  0  0  0  0  0  0  0  0  0  0
    1.3330   18.1710  -29.0700 N   0  0  0  0  0  0  0  0  0  0  0  0
   -0.0830   17.8510  -28.8200 C   0  0  0  0  0  0  0  0  0  0  0  0
   -0.5960   18.5140  -27.5390 C   0  0  0  0  0  0  0  0  0  0  0  0
   -0.2330   19.9330  -27.5200 N   0  0  0  0  0  0  0  0  0  0  0  0
   -1.0730   20.8620  -26.8140 C   0  0  0  0  0  0  0  0  0  0  0  0
   -1.6380   20.4960  -25.7470 O   0  0  0  0  0  0  0  0  0  0  0  0
   -1.3090   22.2310  -27.3250 C   0  0  0  0  0  0  0  0  0  0  0  0
   -0.2310   23.0940  -27.5790 C   0  0  0  0  0  0  0  0  0  0  0  0
   -0.4560   24.3680  -28.1040 C   0  0  0  0  0  0  0  0  0  0  0  0
   -1.7580   24.7960  -28.3840 C   0  0  0  0  0  0  0  0  0  0  0  0
   -1.9480   26.0420  -28.9660 O   0  0  0  0  0  0  0  0  0  0  0  0
   -2.8500   23.9530  -28.1130 C   0  0  0  0  0  0  0  0  0  0  0  0
   -4.1980   24.3610  -28.3890 N   0  0  0  0  0  0  0  0  0  0  0  0
   -4.7620   24.6850  -29.9970 S   0  0  0  0  0  0  0  0  0  0  0  0
   -5.8730   25.6960  -29.9330 O   0  0  0  0  0  0  0  0  0  0  0  0
   -3.6540   25.2610  -30.8350 O   0  0  0  0  0  0  0  0  0  0  0  0
   -5.3650   23.1950  -30.7200 C   0  0  0  0  0  0  0  0  0  0  0  0
   -4.4850   22.1970  -31.1290 C   0  0  0  0  0  0  0  0  0  0  0  0
   -4.9730   21.0010  -31.6480 C   0  0  0  0  0  0  0  0  0  0  0  0
   -6.3600   20.7720  -31.7830 C   0  0  0  0  0  0  0  0  0  0  0  0
   -7.2620   21.8320  -31.4620 C   0  0  0  0  0  0  0  0  0  0  0  0
   -6.7400   23.0090  -30.8770 C   0  0  0  0  0  0  0  0  0  0  0  0
   -8.7800   21.7080  -31.6570 C   0  0  0  0  0  0  0  0  0  0  0  0
   -9.4540   21.5350  -30.2780 C   0  0  0  0  0  0  0  0  0  0  0  0
   -9.3550   22.9770  -32.3330 C   0  0  0  0  0  0  0  0  0  0  0  0
   -9.1320   20.5140  -32.5790 C   0  0  0  0  0  0  0  0  0  0  0  0
   -8.3740   19.2490  -32.1940 C   0  0  0  0  0  0  0  0  0  0  0  0
   -6.8380   19.4190  -32.3350 C   0  0  0  0  0  0  0  0  0  0  0  0
   -6.4330   19.3130  -33.8240 C   0  0  0  0  0  0  0  0  0  0  0  0
   -6.1820   18.2520  -31.5540 C   0  0  0  0  0  0  0  0  0  0  0  0
   -2.6150   22.6630  -27.6130 C   0  0  0  0  0  0  0  0  0  0  0  0
    1.1080   20.3590  -27.9530 C   0  0  0  0  0  0  0  0  0  0  0  0
    2.0220   19.1590  -28.2280 C   0  0  0  0  0  0  0  0  0  0  0  0
    0.7265   15.8777  -30.6458 H   0  0  0  0  0  0  0  0  0  0  0  0
    0.7749   17.2985  -31.7437 H   0  0  0  0  0  0  0  0  0  0  0  0
    2.1279   16.1170  -31.7437 H   0  0  0  0  0  0  0  0  0  0  0  0
   -0.6841   18.2057  -29.6702 H   0  0  0  0  0  0  0  0  0  0  0  0
   -0.1723   16.7611  -28.7013 H   0  0  0  0  0  0  0  0  0  0  0  0
   -1.6910   18.4190  -27.4948 H   0  0  0  0  0  0  0  0  0  0  0  0
   -0.1390   18.0163  -26.6710 H   0  0  0  0  0  0  0  0  0  0  0  0
    0.7961   22.7647  -27.3633 H   0  0  0  0  0  0  0  0  0  0  0  0
    0.3944   25.0382  -28.2983 H   0  0  0  0  0  0  0  0  0  0  0  0
   -4.7710   24.7480  -27.6030 H   0  0  0  0  0  0  0  0  0  0  0  0
   -3.3998   22.3540  -31.0418 H   0  0  0  0  0  0  0  0  0  0  0  0
   -4.2645   20.2191  -31.9590 H   0  0  0  0  0  0  0  0  0  0  0  0
   -7.4317   23.7945  -30.5385 H   0  0  0  0  0  0  0  0  0  0  0  0
   -8.7172   21.7241  -29.4834 H   0  0  0  0  0  0  0  0  0  0  0  0
  -10.2857   22.2488  -30.1843 H   0  0  0  0  0  0  0  0  0  0  0  0
   -9.8391   20.5089  -30.1843 H   0  0  0  0  0  0  0  0  0  0  0  0
   -9.6780   23.6898  -31.5600 H   0  0  0  0  0  0  0  0  0  0  0  0
   -8.5796   23.4420  -32.9596 H   0  0  0  0  0  0  0  0  0  0  0  0
  -10.2158   22.7006  -32.9596 H   0  0  0  0  0  0  0  0  0  0  0  0
  -10.2117   20.3163  -32.5067 H   0  0  0  0  0  0  0  0  0  0  0  0
   -8.8432   20.7825  -33.6059 H   0  0  0  0  0  0  0  0  0  0  0  0
   -8.6082   19.0003  -31.1484 H   0  0  0  0  0  0  0  0  0  0  0  0
   -8.6886   18.4462  -32.8771 H   0  0  0  0  0  0  0  0  0  0  0  0
   -5.3711   19.0351  -33.8963 H   0  0  0  0  0  0  0  0  0  0  0  0
   -7.0473   18.5454  -34.3173 H   0  0  0  0  0  0  0  0  0  0  0  0
   -6.5925   20.2831  -34.3173 H   0  0  0  0  0  0  0  0  0  0  0  0
   -6.2829   18.4315  -30.4734 H   0  0  0  0  0  0  0  0  0  0  0  0
   -6.6817   17.3080  -31.8171 H   0  0  0  0  0  0  0  0  0  0  0  0
   -5.1158   18.1882  -31.8171 H   0  0  0  0  0  0  0  0  0  0  0  0
   -3.4625   21.9823  -27.4446 H   0  0  0  0  0  0  0  0  0  0  0  0
    1.0134   20.9536  -28.8736 H   0  0  0  0  0  0  0  0  0  0  0  0
    1.5569   20.9542  -27.1442 H   0  0  0  0  0  0  0  0  0  0  0  0
    2.9291   19.5055  -28.7447 H   0  0  0  0  0  0  0  0  0  0  0  0
    2.2884   18.6873  -27.2707 H   0  0  0  0  0  0  0  0  0  0  0  0
  1  2  1  0
  2  3  2  0
  2  4  1  0
  4  5  1  0
  5  6  1  0
  6  7  1  0
  7  8  1  0
  8  9  2  0
  8 10  1  0
 10 11  2  0
 11 12  1  0
 12 13  2  0
 13 14  1  0
 13 15  1  0
 15 16  1  0
 16 17  1  0
 17 18  2  0
 17 19  2  0
 17 20  1  0
 20 21  2  0
 21 22  1  0
 22 23  2  0
 23 24  1  0
 24 25  2  0
 24 26  1  0
 26 27  1  0
 26 28  1  0
 26 29  1  0
 29 30  1  0
 30 31  1  0
 31 32  1  0
 31 33  1  0
 15 34  2  0
  7 35  1  0
 35 36  1  0
 36  4  1  0
 34 10  1  0
 25 20  1  0
 31 23  1  0
  1 37  1  0
  1 38  1  0
  1 39  1  0
  5 40  1  0
  5 41  1  0
  6 42  1  0
  6 43  1  0
 11 44  1  0
 12 45  1  0
 16 46  1  0
 21 47  1  0
 22 48  1  0
 25 49  1  0
 27 50  1  0
 27 51  1  0
 27 52  1  0
 28 53  1  0
 28 54  1  0
 28 55  1  0
 29 56  1  0
 29 57  1  0
 30 58  1  0
 30 59  1  0
 32 60  1  0
 32 61  1  0
 32 62  1  0
 33 63  1  0
 33 64  1  0
 33 65  1  0
 34 66  1  0
 35 67  1  0
 35 68  1  0
 36 69  1  0
 36 70  1  0
M  CHG  1  14  -1
M  END
>  <UniqueID>  (48) 
47

>  <SMILES>  (48) 
CC(=O)N1CCN(C(=O)c2ccc([O-])c(NS(=O)(=O)c3ccc4c(c3)C(C)(C)CCC4(C)C)c2)CC1

>  <Energy>  (48) 
86.04518090740888

>  <Genealogy>  (48) 
CC(=O)N1CCN(C(=O)c2ccc([O-])c(NS(=O)(=O)c3ccc4c(c3)C(C)(C)CCC4(C)C)c2)CC1 (protonated)
CC(=O)N1CCN(C(=O)c2ccc([O-])c(NS(=O)(=O)c3ccc4c(c3)C(C)(C)CCC4(C)C)c2)CC1 (3D coordinates assigned)
CC(=O)N1CCN(C(=O)c2ccc([O-])c(NS(=O)(=O)c3ccc4c(c3)C(C)(C)CCC4(C)C)c2)CC1 (nonaromatic ring conformer: 86.04518090740888 kcal/mol)

>  <smiles>  (48) 
CC(=O)N1CCN(C(=O)c2ccc(O)c(NS(=O)(=O)c3ccc4c(c3)C(C)(C)CCC4(C)C)c2)CC1

>  <score_type>  (48) 
oracle

>  <origin>  (48) 
adgpu

>  <m_score__min__energy>  (48) 
-15.890000000000001

>  <m_primary>  (48) 
energy

$$$$
48:0
     RDKit          3D

 59 62  0  0  0  0  0  0  0  0999 V2000
    1.7480   24.1410  -25.2860 C   0  0  0  0  0  0  0  0  0  0  0  0
    0.5520   25.0430  -25.1260 C   0  0  0  0  0  0  0  0  0  0  0  0
    0.7260   26.2890  -24.5010 C   0  0  0  0  0  0  0  0  0  0  0  0
   -0.3450   27.1740  -24.3670 C   0  0  0  0  0  0  0  0  0  0  0  0
   -1.6060   26.8250  -24.8520 C   0  0  0  0  0  0  0  0  0  0  0  0
   -1.8040   25.5830  -25.4560 C   0  0  0  0  0  0  0  0  0  0  0  0
   -0.7410   24.6740  -25.5800 C   0  0  0  0  0  0  0  0  0  0  0  0
   -1.0060   23.3570  -26.1930 C   0  0  0  0  0  0  0  0  0  0  0  0
   -0.4730   22.3300  -25.6940 O   0  0  0  0  0  0  0  0  0  0  0  0
   -1.8490   23.2370  -27.3530 N   0  0  0  0  0  0  0  0  0  0  0  0
   -2.5990   22.0010  -27.5890 C   0  0  0  0  0  0  0  0  0  0  0  0
   -3.8630   22.3260  -28.3870 C   0  0  0  0  0  0  0  0  0  0  0  0
   -3.5600   22.9640  -29.6880 N   0  0  0  0  0  0  0  0  0  0  0  0
   -4.9140   23.9400  -30.2080 S   0  0  0  0  0  0  0  0  0  0  0  0
   -4.4390   25.0000  -31.1630 O   0  0  0  0  0  0  0  0  0  0  0  0
   -5.5470   24.6090  -29.0190 O   0  0  0  0  0  0  0  0  0  0  0  0
   -6.0950   22.9270  -31.0340 C   0  0  0  0  0  0  0  0  0  0  0  0
   -7.4390   23.3140  -31.1160 C   0  0  0  0  0  0  0  0  0  0  0  0
   -8.3680   22.4890  -31.7550 C   0  0  0  0  0  0  0  0  0  0  0  0
   -7.9660   21.2680  -32.3120 C   0  0  0  0  0  0  0  0  0  0  0  0
   -8.9050   20.4400  -32.9260 O   0  0  0  0  0  0  0  0  0  0  0  0
   -6.6160   20.8740  -32.2360 C   0  0  0  0  0  0  0  0  0  0  0  0
   -6.1770   19.6290  -32.8050 N   0  0  0  0  0  0  0  0  0  0  0  0
   -6.6460   18.3540  -32.2540 C   0  0  0  0  0  0  0  0  0  0  0  0
   -6.9260   17.3280  -33.3740 C   0  0  0  0  0  0  0  0  0  0  0  0
   -6.1160   17.5210  -34.5940 N   0  0  0  0  0  0  0  0  0  0  0  0
   -4.8510   18.2180  -34.3350 C   0  0  0  0  0  0  0  0  0  0  0  0
   -5.1240   19.6380  -33.8270 C   0  0  0  0  0  0  0  0  0  0  0  0
   -5.6900   21.7070  -31.5900 C   0  0  0  0  0  0  0  0  0  0  0  0
   -2.2970   23.7430  -29.7280 C   0  0  0  0  0  0  0  0  0  0  0  0
   -1.8850   24.3050  -28.3600 C   0  0  0  0  0  0  0  0  0  0  0  0
    2.1270   23.8551  -24.2937 H   0  0  0  0  0  0  0  0  0  0  0  0
    1.4543   23.2376  -25.8406 H   0  0  0  0  0  0  0  0  0  0  0  0
    2.5359   24.6717  -25.8406 H   0  0  0  0  0  0  0  0  0  0  0  0
    1.7163   26.5701  -24.1133 H   0  0  0  0  0  0  0  0  0  0  0  0
   -0.1948   28.1480  -23.8784 H   0  0  0  0  0  0  0  0  0  0  0  0
   -2.4451   27.5301  -24.7580 H   0  0  0  0  0  0  0  0  0  0  0  0
   -2.7999   25.3140  -25.8378 H   0  0  0  0  0  0  0  0  0  0  0  0
   -1.9759   21.2951  -28.1577 H   0  0  0  0  0  0  0  0  0  0  0  0
   -2.8756   21.5463  -26.6263 H   0  0  0  0  0  0  0  0  0  0  0  0
   -4.4144   21.3922  -28.5713 H   0  0  0  0  0  0  0  0  0  0  0  0
   -4.4598   23.0362  -27.7958 H   0  0  0  0  0  0  0  0  0  0  0  0
   -7.7633   24.2689  -30.6766 H   0  0  0  0  0  0  0  0  0  0  0  0
   -9.4211   22.7999  -31.8211 H   0  0  0  0  0  0  0  0  0  0  0  0
   -8.7420   20.0400  -33.8430 H   0  0  0  0  0  0  0  0  0  0  0  0
   -5.8754   17.9491  -31.5815 H   0  0  0  0  0  0  0  0  0  0  0  0
   -7.5830   18.5357  -31.7072 H   0  0  0  0  0  0  0  0  0  0  0  0
   -6.7191   16.3224  -32.9791 H   0  0  0  0  0  0  0  0  0  0  0  0
   -7.9767   17.4645  -33.6696 H   0  0  0  0  0  0  0  0  0  0  0  0
   -6.6690   18.0860  -35.2820 H   0  0  0  0  0  0  0  0  0  0  0  0
   -4.2796   17.6639  -33.5757 H   0  0  0  0  0  0  0  0  0  0  0  0
   -4.2748   18.2757  -35.2702 H   0  0  0  0  0  0  0  0  0  0  0  0
   -4.2015   20.0495  -33.3915 H   0  0  0  0  0  0  0  0  0  0  0  0
   -5.4564   20.2585  -34.6723 H   0  0  0  0  0  0  0  0  0  0  0  0
   -4.6363   21.3991  -31.5196 H   0  0  0  0  0  0  0  0  0  0  0  0
   -1.4932   23.0860  -30.0917 H   0  0  0  0  0  0  0  0  0  0  0  0
   -2.4653   24.6014  -30.3949 H   0  0  0  0  0  0  0  0  0  0  0  0
   -0.8864   24.7591  -28.4414 H   0  0  0  0  0  0  0  0  0  0  0  0
   -2.6220   25.0605  -28.0500 H   0  0  0  0  0  0  0  0  0  0  0  0
  1  2  1  0
  2  3  2  0
  3  4  1  0
  4  5  2  0
  5  6  1  0
  6  7  2  0
  7  8  1  0
  8  9  2  0
  8 10  1  0
 10 11  1  0
 11 12  1  0
 12 13  1  0
 13 14  1  0
 14 15  2  0
 14 16  2  0
 14 17  1  0
 17 18  2  0
 18 19  1  0
 19 20  2  0
 20 21  1  0
 20 22  1  0
 22 23  1  0
 23 24  1  0
 24 25  1  0
 25 26  1  0
 26 27  1  0
 27 28  1  0
 22 29  2  0
 13 30  1  0
 30 31  1  0
  7  2  1  0
 31 10  1  0
 29 17  1  0
 28 23  1  0
  1 32  1  0
  1 33  1  0
  1 34  1  0
  3 35  1  0
  4 36  1  0
  5 37  1  0
  6 38  1  0
 11 39  1  0
 11 40  1  0
 12 41  1  0
 12 42  1  0
 18 43  1  0
 19 44  1  0
 21 45  1  0
 24 46  1  0
 24 47  1  0
 25 48  1  0
 25 49  1  0
 26 50  1  0
 27 51  1  0
 27 52  1  0
 28 53  1  0
 28 54  1  0
 29 55  1  0
 30 56  1  0
 30 57  1  0
 31 58  1  0
 31 59  1  0
M  END
>  <UniqueID>  (49) 
48

>  <SMILES>  (49) 
Cc1ccccc1C(=O)N1CCN(S(=O)(=O)c2ccc(O)c(N3CCNCC3)c2)CC1

>  <Energy>  (49) 
81.62533187171971

>  <Genealogy>  (49) 
Cc1ccccc1C(=O)N1CCN(S(=O)(=O)c2ccc(O)c(N3CCNCC3)c2)CC1 (3D coordinates assigned)
Cc1ccccc1C(=O)N1CCN(S(=O)(=O)c2ccc(O)c(N3CCNCC3)c2)CC1 (nonaromatic ring conformer: 81.62533187171971 kcal/mol)

>  <smiles>  (49) 
Cc1ccccc1C(=O)N1CCN(S(=O)(=O)c2ccc(O)c(N3CCNCC3)c2)CC1

>  <score_type>  (49) 
oracle

>  <origin>  (49) 
adgpu

>  <m_score__min__energy>  (49) 
-10.23

>  <m_primary>  (49) 
energy

$$$$
49:0
     RDKit          3D

 45 47  0  0  0  0  0  0  0  0999 V2000
   -1.5580   25.3210  -26.8370 C   0  0  0  0  0  0  0  0  0  0  0  0
   -1.5870   25.2850  -28.3330 C   0  0  0  0  0  0  0  0  0  0  0  0
   -1.2250   26.3100  -28.9690 O   0  0  0  0  0  0  0  0  0  0  0  0
   -2.0500   24.1330  -29.0570 N   0  0  0  0  0  0  0  0  0  0  0  0
   -1.1570   23.0650  -29.5080 C   0  0  0  0  0  0  0  0  0  0  0  0
   -1.9980   22.1620  -30.4380 C   0  0  0  0  0  0  0  0  0  0  0  0
   -3.3560   22.7630  -30.3650 C   0  0  0  0  0  0  0  0  0  0  0  0
   -4.5290   22.2930  -30.9570 C   0  0  0  0  0  0  0  0  0  0  0  0
   -5.7320   22.9750  -30.7090 C   0  0  0  0  0  0  0  0  0  0  0  0
   -7.2200   22.4190  -31.4710 S   0  0  0  0  0  0  0  0  0  0  0  0
   -8.3640   22.6530  -30.5250 O   0  0  0  0  0  0  0  0  0  0  0  0
   -7.4740   23.1980  -32.7330 O   0  0  0  0  0  0  0  0  0  0  0  0
   -7.0890   20.7160  -31.8360 N   0  0  1  0  0  0  0  0  0  0  0  0
   -8.4290   20.1520  -32.0760 C   0  0  0  0  0  0  0  0  0  0  0  0
   -8.3640   18.6180  -32.1910 C   0  0  0  0  0  0  0  0  0  0  0  0
   -7.1140   18.1160  -32.9600 C   0  0  2  0  0  0  0  0  0  0  0  0
   -6.0780   17.4720  -32.0250 C   0  0  0  0  0  0  0  0  0  0  0  0
   -6.4830   19.2360  -33.8070 C   0  0  0  0  0  0  0  0  0  0  0  0
   -6.1750   20.5090  -32.9870 C   0  0  0  0  0  0  0  0  0  0  0  0
   -5.7350   24.1060  -29.8650 C   0  0  0  0  0  0  0  0  0  0  0  0
   -4.5420   24.5560  -29.2770 C   0  0  0  0  0  0  0  0  0  0  0  0
   -3.3530   23.8780  -29.5710 C   0  0  0  0  0  0  0  0  0  0  0  0
   -2.2012   24.5226  -26.4385 H   0  0  0  0  0  0  0  0  0  0  0  0
   -0.5263   25.1700  -26.4865 H   0  0  0  0  0  0  0  0  0  0  0  0
   -1.9252   26.2969  -26.4865 H   0  0  0  0  0  0  0  0  0  0  0  0
   -0.3036   23.4886  -30.0578 H   0  0  0  0  0  0  0  0  0  0  0  0
   -0.7513   22.4967  -28.6580 H   0  0  0  0  0  0  0  0  0  0  0  0
   -1.6108   22.1878  -31.4673 H   0  0  0  0  0  0  0  0  0  0  0  0
   -1.9801   21.1033  -30.1401 H   0  0  0  0  0  0  0  0  0  0  0  0
   -4.5121   21.4049  -31.6059 H   0  0  0  0  0  0  0  0  0  0  0  0
   -6.6830   20.2630  -30.9850 H   0  0  0  0  0  0  0  0  0  0  0  0
   -8.8327   20.5670  -33.0113 H   0  0  0  0  0  0  0  0  0  0  0  0
   -9.0791   20.4148  -31.2285 H   0  0  0  0  0  0  0  0  0  0  0  0
   -9.2633   18.2685  -32.7193 H   0  0  0  0  0  0  0  0  0  0  0  0
   -8.3029   18.2156  -31.1691 H   0  0  0  0  0  0  0  0  0  0  0  0
   -7.4595   17.3305  -33.6483 H   0  0  0  0  0  0  0  0  0  0  0  0
   -6.3667   17.6514  -30.9788 H   0  0  0  0  0  0  0  0  0  0  0  0
   -6.0371   16.3890  -32.2135 H   0  0  0  0  0  0  0  0  0  0  0  0
   -5.0888   17.9146  -32.2135 H   0  0  0  0  0  0  0  0  0  0  0  0
   -7.1803   19.4997  -34.6158 H   0  0  0  0  0  0  0  0  0  0  0  0
   -5.5276   18.8559  -34.1979 H   0  0  0  0  0  0  0  0  0  0  0  0
   -6.2555   21.3795  -33.6547 H   0  0  0  0  0  0  0  0  0  0  0  0
   -5.1627   20.3871  -32.5743 H   0  0  0  0  0  0  0  0  0  0  0  0
   -6.6772   24.6380  -29.6667 H   0  0  0  0  0  0  0  0  0  0  0  0
   -4.5416   25.4228  -28.5998 H   0  0  0  0  0  0  0  0  0  0  0  0
  1  2  1  0
  2  3  2  0
  2  4  1  0
  4  5  1  0
  5  6  1  0
  6  7  1  0
  7  8  2  0
  8  9  1  0
  9 10  1  0
 10 11  2  0
 10 12  2  0
 10 13  1  0
 13 14  1  0
 14 15  1  0
 15 16  1  0
 16 17  1  0
 16 18  1  0
 18 19  1  0
  9 20  2  0
 20 21  1  0
 21 22  2  0
 22  4  1  0
 22  7  1  0
 19 13  1  0
  1 23  1  0
  1 24  1  0
  1 25  1  0
  5 26  1  0
  5 27  1  0
  6 28  1  0
  6 29  1  0
  8 30  1  0
 13 31  1  1
 14 32  1  0
 14 33  1  0
 15 34  1  0
 15 35  1  0
 16 36  1  6
 17 37  1  0
 17 38  1  0
 17 39  1  0
 18 40  1  0
 18 41  1  0
 19 42  1  0
 19 43  1  0
 20 44  1  0
 21 45  1  0
M  CHG  1  13   1
M  END
>  <UniqueID>  (50) 
49

>  <SMILES>  (50) 
CC(=O)N1CCc2cc(S(=O)(=O)[NH+]3CCC(C)CC3)ccc21

>  <Energy>  (50) 
65.35958289851413

>  <Genealogy>  (50) 
CC(=O)N1CCc2cc(S(=O)(=O)[NH+]3CCC(C)CC3)ccc21 (protonated)
CC(=O)N1CCc2cc(S(=O)(=O)[NH+]3CCC(C)CC3)ccc21 (3D coordinates assigned)
CC(=O)N1CCc2cc(S(=O)(=O)[NH+]3CCC(C)CC3)ccc21 (nonaromatic ring conformer: 65.35958289851413 kcal/mol)

>  <smiles>  (50) 
CC(=O)N1CCc2cc(S(=O)(=O)N3CCC(C)CC3)ccc21

>  <score_type>  (50) 
oracle

>  <origin>  (50) 
adgpu

>  <m_score__min__energy>  (50) 
-8.6199999999999992

>  <m_primary>  (50) 
energy

$$$$
