0:0
     RDKit          3D

 49 52  0  0  0  0  0  0  0  0999 V2000
    0.1410   21.5800  -34.3730 H   0  0  0  0  0  0  0  0  0  0  0  0
   -0.3270   20.6460  -34.3440 N   0  0  0  0  0  0  0  0  0  0  0  0
   -1.5330   20.5080  -33.8960 C   0  0  0  0  0  0  0  0  0  0  0  0
   -2.2210   21.5900  -33.4450 N   0  0  0  0  0  0  0  0  0  0  0  0
   -3.4920   21.4930  -32.9720 C   0  0  0  0  0  0  0  0  0  0  0  0
   -4.0128   22.3923  -32.6115 H   0  0  0  0  0  0  0  0  0  0  0  0
   -4.1440   20.2450  -32.9420 C   0  0  0  0  0  0  0  0  0  0  0  0
   -5.4670   20.0790  -32.4720 C   0  0  0  0  0  0  0  0  0  0  0  0
   -6.3050   21.2260  -32.0520 C   0  0  0  0  0  0  0  0  0  0  0  0
   -5.7160   22.2860  -31.3480 C   0  0  0  0  0  0  0  0  0  0  0  0
   -4.6375   22.2643  -31.1325 H   0  0  0  0  0  0  0  0  0  0  0  0
   -6.4870   23.3710  -30.9170 C   0  0  0  0  0  0  0  0  0  0  0  0
   -5.7380   24.6590  -29.9800 S   0  0  0  0  0  0  0  0  0  0  0  0
   -4.8920   25.4950  -30.8980 O   0  0  0  0  0  0  0  0  0  0  0  0
   -6.7850   25.5310  -29.3440 O   0  0  0  0  0  0  0  0  0  0  0  0
   -4.7340   23.9790  -28.7370 N   0  0  0  0  0  0  0  0  0  0  0  0
   -4.9610   24.2470  -27.7530 H   0  0  0  0  0  0  0  0  0  0  0  0
   -3.5340   23.2330  -29.0090 C   0  0  0  0  0  0  0  0  0  0  0  0
   -3.4900   21.8350  -28.8480 C   0  0  0  0  0  0  0  0  0  0  0  0
   -4.3853   21.2970  -28.5032 H   0  0  0  0  0  0  0  0  0  0  0  0
   -2.3170   21.1250  -29.1230 C   0  0  0  0  0  0  0  0  0  0  0  0
   -2.2940   20.0325  -28.9972 H   0  0  0  0  0  0  0  0  0  0  0  0
   -1.1750   21.8010  -29.5570 C   0  0  0  0  0  0  0  0  0  0  0  0
   -0.2535   21.2410  -29.7743 H   0  0  0  0  0  0  0  0  0  0  0  0
   -1.2030   23.1870  -29.7150 C   0  0  0  0  0  0  0  0  0  0  0  0
   -0.3014   23.7177  -30.0549 H   0  0  0  0  0  0  0  0  0  0  0  0
   -2.3730   23.9050  -29.4430 C   0  0  0  0  0  0  0  0  0  0  0  0
   -2.3790   25.2850  -29.6150 O   0  0  0  0  0  0  0  0  0  0  0  0
   -7.8510   23.4140  -31.2240 C   0  0  0  0  0  0  0  0  0  0  0  0
   -8.4593   24.2703  -30.8971 H   0  0  0  0  0  0  0  0  0  0  0  0
   -8.4440   22.3740  -31.9440 C   0  0  0  0  0  0  0  0  0  0  0  0
   -9.5161   22.4193  -32.1861 H   0  0  0  0  0  0  0  0  0  0  0  0
   -7.6790   21.2680  -32.3620 C   0  0  0  0  0  0  0  0  0  0  0  0
   -8.2490   20.1960  -33.0700 O   0  0  0  0  0  0  0  0  0  0  0  0
   -9.2470   19.3240  -32.5490 C   0  0  0  0  0  0  0  0  0  0  0  0
   -9.2182   19.3491  -31.4497 H   0  0  0  0  0  0  0  0  0  0  0  0
  -10.2378   19.6510  -32.8974 H   0  0  0  0  0  0  0  0  0  0  0  0
   -9.0559   18.2983  -32.8974 H   0  0  0  0  0  0  0  0  0  0  0  0
   -6.0210   18.7910  -32.4340 C   0  0  0  0  0  0  0  0  0  0  0  0
   -7.0457   18.6441  -32.0620 H   0  0  0  0  0  0  0  0  0  0  0  0
   -5.2710   17.6930  -32.8690 C   0  0  0  0  0  0  0  0  0  0  0  0
   -5.8640   16.3200  -32.8530 C   0  0  0  0  0  0  0  0  0  0  0  0
   -6.0050   15.9936  -31.8120 H   0  0  0  0  0  0  0  0  0  0  0  0
   -6.8361   16.3344  -33.3676 H   0  0  0  0  0  0  0  0  0  0  0  0
   -5.1870   15.6222  -33.3676 H   0  0  0  0  0  0  0  0  0  0  0  0
   -4.0090   17.8780  -33.3400 N   0  0  0  0  0  0  0  0  0  0  0  0
   -3.4310   19.1080  -33.3870 C   0  0  0  0  0  0  0  0  0  0  0  0
   -2.1270   19.2420  -33.8700 C   0  0  0  0  0  0  0  0  0  0  0  0
   -1.5731   18.3609  -34.2262 H   0  0  0  0  0  0  0  0  0  0  0  0
  1  2  1  0
  2  3  2  0
  3  4  1  0
  4  5  1  0
  5  6  1  0
  5  7  2  0
  7  8  1  0
  8  9  1  0
  9 10  2  0
 10 11  1  0
 10 12  1  0
 12 13  1  0
 13 14  2  0
 13 15  2  0
 13 16  1  0
 16 17  1  0
 16 18  1  0
 18 19  2  0
 19 20  1  0
 19 21  1  0
 21 22  1  0
 21 23  2  0
 23 24  1  0
 23 25  1  0
 25 26  1  0
 25 27  2  0
 27 28  1  0
 12 29  2  0
 29 30  1  0
 29 31  1  0
 31 32  1  0
 31 33  2  0
 33 34  1  0
 34 35  1  0
 35 36  1  0
 35 37  1  0
 35 38  1  0
  8 39  2  0
 39 40  1  0
 39 41  1  0
 41 42  1  0
 42 43  1  0
 42 44  1  0
 42 45  1  0
 41 46  2  0
 46 47  1  0
 47 48  2  0
 48 49  1  0
 48  3  1  0
 47  7  1  0
 33  9  1  0
 27 18  1  0
M  CHG  2   4  -1  28  -1
M  END
>  <UniqueID>  (1) 
1

>  <SMILES>  (1) 
[H]/N=c1/cc2nc(C)cc(-c3cc(S(=O)(=O)Nc4ccccc4[O-])ccc3OC)c2c[n-]1

>  <Energy>  (1) 
64.89898325581827

>  <Genealogy>  (1) 
COc1ccc(S(=O)(=O)Nc2ccccc2[O-])cc1-c1cc(C)nc2cc(=N)[n-]cc12 (protonated)
[H]/N=c1/cc2nc(C)cc(-c3cc(S(=O)(=O)Nc4ccccc4[O-])ccc3OC)c2c[n-]1 (cis-trans isomerization)
[H]/N=c1/cc2nc(C)cc(-c3cc(S(=O)(=O)Nc4ccccc4[O-])ccc3OC)c2c[n-]1 (3D coordinates assigned)
[H]/N=c1/cc2nc(C)cc(-c3cc(S(=O)(=O)Nc4ccccc4[O-])ccc3OC)c2c[n-]1 (optimized conformer: 64.89898325581827 kcal/mol)

>  <smiles>  (1) 
COc1ccc(S(=O)(=O)Nc2ccccc2O)cc1-c1cc(C)nc2cc(=N)[nH]cc12

>  <score_type>  (1) 
oracle

>  <origin>  (1) 
adgpu

>  <m_score__min__energy>  (1) 
-14.25

>  <m_primary>  (1) 
energy

$$$$
1:0
     RDKit          3D

 40 43  0  0  0  0  0  0  0  0999 V2000
   -9.6083   17.7597  -31.1727 H   0  0  0  0  0  0  0  0  0  0  0  0
   -8.9920   18.5370  -31.6480 C   0  0  0  0  0  0  0  0  0  0  0  0
   -9.5010   19.5750  -32.3480 N   0  0  0  0  0  0  0  0  0  0  0  0
   -8.3920   20.2360  -32.7320 C   0  0  0  0  0  0  0  0  0  0  0  0
   -8.3959   21.1604  -33.3282 H   0  0  0  0  0  0  0  0  0  0  0  0
   -7.2790   19.6210  -32.2930 N   0  0  0  0  0  0  0  0  0  0  0  0
   -5.9140   20.0500  -32.4340 C   0  0  0  0  0  0  0  0  0  0  0  0
   -5.0500   19.2870  -33.2370 C   0  0  0  0  0  0  0  0  0  0  0  0
   -5.4091   18.3450  -33.6771 H   0  0  0  0  0  0  0  0  0  0  0  0
   -3.7380   19.7090  -33.4850 C   0  0  0  0  0  0  0  0  0  0  0  0
   -2.8670   18.9150  -34.2960 N   0  0  0  0  0  0  0  0  0  0  0  0
   -1.8890   19.2230  -34.4910 H   0  0  0  0  0  0  0  0  0  0  0  0
   -3.1950   18.0120  -34.7070 H   0  0  0  0  0  0  0  0  0  0  0  0
   -3.2900   20.9190  -32.9480 C   0  0  0  0  0  0  0  0  0  0  0  0
   -2.2626   21.2591  -33.1451 H   0  0  0  0  0  0  0  0  0  0  0  0
   -4.1410   21.6970  -32.1630 C   0  0  0  0  0  0  0  0  0  0  0  0
   -3.7862   22.6586  -31.7635 H   0  0  0  0  0  0  0  0  0  0  0  0
   -5.4450   21.2650  -31.8780 C   0  0  0  0  0  0  0  0  0  0  0  0
   -6.5040   22.3460  -30.9020 S   0  0  0  0  0  0  0  0  0  0  0  0
   -5.1790   23.4850  -30.5000 C   0  0  0  0  0  0  0  0  0  0  0  0
   -4.9210   24.6020  -31.2150 N   0  0  0  0  0  0  0  0  0  0  0  0
   -3.8960   25.3080  -30.7410 N   0  0  0  0  0  0  0  0  0  0  0  0
   -3.3420   24.7620  -29.6380 C   0  0  0  0  0  0  0  0  0  0  0  0
   -2.3000   25.2830  -29.0570 N   0  0  0  0  0  0  0  0  0  0  0  0
   -1.6600   24.8050  -27.8640 C   0  0  0  0  0  0  0  0  0  0  0  0
   -1.1860   23.4850  -27.7610 C   0  0  0  0  0  0  0  0  0  0  0  0
   -1.2797   22.8001  -28.6167 H   0  0  0  0  0  0  0  0  0  0  0  0
   -0.5960   23.0410  -26.5740 C   0  0  0  0  0  0  0  0  0  0  0  0
   -0.2082   22.0140  -26.5045 H   0  0  0  0  0  0  0  0  0  0  0  0
   -0.4980   23.8990  -25.4760 C   0  0  0  0  0  0  0  0  0  0  0  0
   -0.0152   23.5517  -24.5506 H   0  0  0  0  0  0  0  0  0  0  0  0
   -1.0130   25.2020  -25.5490 C   0  0  0  0  0  0  0  0  0  0  0  0
   -0.8890   26.1310  -24.3780 C   0  0  0  0  0  0  0  0  0  0  0  0
   -0.9658   25.5555  -23.4437 H   0  0  0  0  0  0  0  0  0  0  0  0
    0.0851   26.6406  -24.4158 H   0  0  0  0  0  0  0  0  0  0  0  0
   -1.6954   26.8782  -24.4158 H   0  0  0  0  0  0  0  0  0  0  0  0
   -1.5900   25.6490  -26.7480 C   0  0  0  0  0  0  0  0  0  0  0  0
   -1.9909   26.6714  -26.8119 H   0  0  0  0  0  0  0  0  0  0  0  0
   -4.1150   23.3230  -29.2050 S   0  0  0  0  0  0  0  0  0  0  0  0
   -7.6470   18.5600  -31.5970 N   0  0  0  0  0  0  0  0  0  0  0  0
  1  2  1  0
  2  3  1  0
  3  4  2  0
  4  5  1  0
  4  6  1  0
  6  7  1  0
  7  8  2  0
  8  9  1  0
  8 10  1  0
 10 11  1  0
 11 12  1  0
 11 13  1  0
 10 14  2  0
 14 15  1  0
 14 16  1  0
 16 17  1  0
 16 18  2  0
 18 19  1  0
 19 20  1  0
 20 21  2  0
 21 22  1  0
 22 23  1  0
 23 24  2  0
 24 25  1  0
 25 26  2  0
 26 27  1  0
 26 28  1  0
 28 29  1  0
 28 30  2  0
 30 31  1  0
 30 32  1  0
 32 33  1  0
 33 34  1  0
 33 35  1  0
 33 36  1  0
 32 37  2  0
 37 38  1  0
 23 39  1  0
  6 40  1  0
 40  2  2  0
 18  7  1  0
 39 20  1  0
 37 25  1  0
M  CHG  1  22  -1
M  END
>  <UniqueID>  (2) 
2

>  <SMILES>  (2) 
Cc1cccc(/N=c2/[n-]nc(Sc3ccc(N)cc3-n3cncn3)s2)c1

>  <Energy>  (2) 
121.2990908575725

>  <Genealogy>  (2) 
Cc1cccc(N=c2[n-]nc(Sc3ccc(N)cc3-n3cncn3)s2)c1 (protonated)
Cc1cccc(/N=c2/[n-]nc(Sc3ccc(N)cc3-n3cncn3)s2)c1 (cis-trans isomerization)
Cc1cccc(/N=c2/[n-]nc(Sc3ccc(N)cc3-n3cncn3)s2)c1 (3D coordinates assigned)
Cc1cccc(/N=c2/[n-]nc(Sc3ccc(N)cc3-n3cncn3)s2)c1 (optimized conformer: 121.2990908575725 kcal/mol)

>  <smiles>  (2) 
Cc1cccc(N=c2[nH]nc(Sc3ccc(N)cc3-n3cncn3)s2)c1

>  <score_type>  (2) 
oracle

>  <origin>  (2) 
adgpu

>  <m_score__min__energy>  (2) 
-10.890000000000001

>  <m_primary>  (2) 
energy

$$$$
2:0
     RDKit          3D

 59 61  0  0  0  0  0  0  0  0999 V2000
    0.9930   22.6630  -35.3390 N   0  0  0  0  0  0  0  0  0  0  0  0
    0.7950   21.8000  -34.5950 C   0  0  0  0  0  0  0  0  0  0  0  0
    0.5430   20.7070  -33.6550 C   0  0  0  0  0  0  0  0  0  0  0  0
   -0.8590   20.7280  -33.2600 N   0  0  0  0  0  0  0  0  0  0  0  0
   -1.8180   19.7210  -33.6000 C   0  0  0  0  0  0  0  0  0  0  0  0
   -1.5930   18.9900  -34.6010 O   0  0  0  0  0  0  0  0  0  0  0  0
   -3.0430   19.4650  -32.7520 C   0  0  0  0  0  0  0  0  0  0  0  0
   -3.7230   20.7620  -32.2810 C   0  0  0  0  0  0  0  0  0  0  0  0
   -2.9750   21.4140  -31.1030 C   0  0  0  0  0  0  0  0  0  0  0  0
   -3.8710   21.6020  -29.8680 C   0  0  0  0  0  0  0  0  0  0  0  0
   -3.8020   23.0270  -29.2930 C   0  0  0  0  0  0  0  0  0  0  0  0
   -3.0360   23.9760  -30.2230 C   0  0  0  0  0  0  0  0  0  0  0  0
   -3.7860   25.2090  -30.4550 N   0  0  0  0  0  0  0  0  0  0  0  0
   -5.2160   25.3190  -30.5180 C   0  0  0  0  0  0  0  0  0  0  0  0
   -5.7480   26.4250  -30.2510 O   0  0  0  0  0  0  0  0  0  0  0  0
   -6.0790   24.1790  -30.8860 C   0  0  0  0  0  0  0  0  0  0  0  0
   -5.9940   23.6010  -32.1630 C   0  0  0  0  0  0  0  0  0  0  0  0
   -6.8260   22.5320  -32.5090 C   0  0  0  0  0  0  0  0  0  0  0  0
   -7.7860   22.0530  -31.6000 C   0  0  0  0  0  0  0  0  0  0  0  0
   -8.6370   20.9440  -31.9200 N   0  0  0  0  0  0  0  0  0  0  0  0
   -8.3490   19.5720  -31.6280 C   0  0  0  0  0  0  0  0  0  0  0  0
   -9.0950   18.9480  -30.8300 O   0  0  0  0  0  0  0  0  0  0  0  0
   -7.2490   18.8940  -32.2500 N   0  0  0  0  0  0  0  0  0  0  0  0
   -6.5410   17.7770  -31.6250 C   0  0  0  0  0  0  0  0  0  0  0  0
   -5.6270   17.3200  -32.6980 C   0  0  0  0  0  0  0  0  0  0  0  0
   -4.6850   16.2940  -32.6410 C   0  0  0  0  0  0  0  0  0  0  0  0
   -3.9180   16.0240  -33.7840 C   0  0  0  0  0  0  0  0  0  0  0  0
   -4.1060   16.7790  -34.9590 C   0  0  0  0  0  0  0  0  0  0  0  0
   -5.0590   17.8080  -34.9930 C   0  0  0  0  0  0  0  0  0  0  0  0
   -5.8070   18.0630  -33.8430 C   0  0  0  0  0  0  0  0  0  0  0  0
   -6.8470   19.1000  -33.6420 C   0  0  0  0  0  0  0  0  0  0  0  0
   -7.8760   22.6340  -30.3300 C   0  0  0  0  0  0  0  0  0  0  0  0
   -7.0380   23.6990  -29.9790 C   0  0  0  0  0  0  0  0  0  0  0  0
    0.7748   19.7461  -34.1375 H   0  0  0  0  0  0  0  0  0  0  0  0
    1.1791   20.8303  -32.7661 H   0  0  0  0  0  0  0  0  0  0  0  0
   -3.7655   18.8843  -33.3443 H   0  0  0  0  0  0  0  0  0  0  0  0
   -2.7169   18.9173  -31.8555 H   0  0  0  0  0  0  0  0  0  0  0  0
   -3.7511   21.4726  -33.1202 H   0  0  0  0  0  0  0  0  0  0  0  0
   -4.7371   20.5077  -31.9390 H   0  0  0  0  0  0  0  0  0  0  0  0
   -2.1244   20.7733  -30.8274 H   0  0  0  0  0  0  0  0  0  0  0  0
   -2.6421   22.4104  -31.4291 H   0  0  0  0  0  0  0  0  0  0  0  0
   -4.9117   21.3880  -30.1529 H   0  0  0  0  0  0  0  0  0  0  0  0
   -3.5111   20.9130  -29.0897 H   0  0  0  0  0  0  0  0  0  0  0  0
   -4.8253   23.4076  -29.1592 H   0  0  0  0  0  0  0  0  0  0  0  0
   -3.2693   22.9840  -28.3316 H   0  0  0  0  0  0  0  0  0  0  0  0
   -2.0686   24.2258  -29.7629 H   0  0  0  0  0  0  0  0  0  0  0  0
   -2.8875   23.4718  -31.1893 H   0  0  0  0  0  0  0  0  0  0  0  0
   -5.2701   23.9908  -32.8938 H   0  0  0  0  0  0  0  0  0  0  0  0
   -6.7290   22.0625  -33.4990 H   0  0  0  0  0  0  0  0  0  0  0  0
   -5.9776   18.1108  -30.7412 H   0  0  0  0  0  0  0  0  0  0  0  0
   -7.2136   16.9858  -31.2621 H   0  0  0  0  0  0  0  0  0  0  0  0
   -4.5462   15.7090  -31.7199 H   0  0  0  0  0  0  0  0  0  0  0  0
   -3.1673   15.2203  -33.7631 H   0  0  0  0  0  0  0  0  0  0  0  0
   -3.5032   16.5607  -35.8529 H   0  0  0  0  0  0  0  0  0  0  0  0
   -5.2132   18.4010  -35.9065 H   0  0  0  0  0  0  0  0  0  0  0  0
   -6.4338   20.1087  -33.7895 H   0  0  0  0  0  0  0  0  0  0  0  0
   -7.6833   19.0201  -34.3521 H   0  0  0  0  0  0  0  0  0  0  0  0
   -8.6088   22.2519  -29.6040 H   0  0  0  0  0  0  0  0  0  0  0  0
   -7.1312   24.1631  -28.9861 H   0  0  0  0  0  0  0  0  0  0  0  0
  1  2  3  0
  2  3  1  0
  3  4  1  0
  4  5  1  0
  5  6  2  0
  5  7  1  0
  7  8  1  0
  8  9  1  0
  9 10  1  0
 10 11  1  0
 11 12  1  0
 12 13  1  0
 13 14  1  0
 14 15  2  0
 14 16  1  0
 16 17  2  0
 17 18  1  0
 18 19  2  0
 19 20  1  0
 20 21  1  0
 21 22  2  0
 21 23  1  0
 23 24  1  0
 24 25  1  0
 25 26  2  0
 26 27  1  0
 27 28  2  0
 28 29  1  0
 29 30  2  0
 30 31  1  0
 19 32  1  0
 32 33  2  0
 33 16  1  0
 31 23  1  0
 30 25  1  0
  3 34  1  0
  3 35  1  0
  7 36  1  0
  7 37  1  0
  8 38  1  0
  8 39  1  0
  9 40  1  0
  9 41  1  0
 10 42  1  0
 10 43  1  0
 11 44  1  0
 11 45  1  0
 12 46  1  0
 12 47  1  0
 17 48  1  0
 18 49  1  0
 24 50  1  0
 24 51  1  0
 26 52  1  0
 27 53  1  0
 28 54  1  0
 29 55  1  0
 31 56  1  0
 31 57  1  0
 32 58  1  0
 33 59  1  0
M  CHG  3   4  -1  13  -1  20  -1
M  END
>  <UniqueID>  (3) 
3

>  <SMILES>  (3) 
N#CC[N-]C(=O)CCCCCC[N-]C(=O)c1ccc([N-]C(=O)N2Cc3ccccc3C2)cc1

>  <Energy>  (3) 
68.4003912112849

>  <Genealogy>  (3) 
N#CC[N-]C(=O)CCCCCC[N-]C(=O)c1ccc([N-]C(=O)N2Cc3ccccc3C2)cc1 (protonated)
N#CC[N-]C(=O)CCCCCC[N-]C(=O)c1ccc([N-]C(=O)N2Cc3ccccc3C2)cc1 (3D coordinates assigned)
N#CC[N-]C(=O)CCCCCC[N-]C(=O)c1ccc([N-]C(=O)N2Cc3ccccc3C2)cc1 (nonaromatic ring conformer: 68.4003912112849 kcal/mol)

>  <smiles>  (3) 
N#CCNC(=O)CCCCCCNC(=O)c1ccc(NC(=O)N2Cc3ccccc3C2)cc1

>  <score_type>  (3) 
oracle

>  <origin>  (3) 
adgpu

>  <m_score__min__energy>  (3) 
-12.31

>  <m_primary>  (3) 
energy

$$$$
3:0
     RDKit          3D

 53 56  0  0  0  0  0  0  0  0999 V2000
   -1.6610   21.8820  -31.9430 C   0  0  0  0  0  0  0  0  0  0  0  0
   -2.3470   20.9400  -32.8800 C   0  0  0  0  0  0  0  0  0  0  0  0
   -3.5980   20.4860  -32.6750 N   0  0  0  0  0  0  0  0  0  0  0  0
   -3.8300   19.7220  -33.7640 C   0  0  0  0  0  0  0  0  0  0  0  0
   -4.9330   19.0660  -33.9790 N   0  0  0  0  0  0  0  0  0  0  0  0
   -6.1180   19.0880  -33.1670 C   0  0  0  0  0  0  0  0  0  0  0  0
   -6.9170   17.9390  -33.1200 C   0  0  0  0  0  0  0  0  0  0  0  0
   -8.0960   17.9270  -32.3690 C   0  0  0  0  0  0  0  0  0  0  0  0
   -8.5000   19.0710  -31.6780 C   0  0  0  0  0  0  0  0  0  0  0  0
   -7.7330   20.2440  -31.7460 C   0  0  0  0  0  0  0  0  0  0  0  0
   -8.1930   21.4830  -31.0230 C   0  0  0  0  0  0  0  0  0  0  0  0
   -7.2240   21.8960  -30.0590 O   0  0  0  0  0  0  0  0  0  0  0  0
   -6.3530   22.9890  -30.1970 C   0  0  0  0  0  0  0  0  0  0  0  0
   -6.8490   24.1580  -30.7810 C   0  0  0  0  0  0  0  0  0  0  0  0
   -6.0240   25.2710  -30.9520 C   0  0  0  0  0  0  0  0  0  0  0  0
   -4.6900   25.2270  -30.5400 C   0  0  0  0  0  0  0  0  0  0  0  0
   -4.1680   24.0650  -29.9440 C   0  0  0  0  0  0  0  0  0  0  0  0
   -2.7520   24.0180  -29.5060 C   0  0  0  0  0  0  0  0  0  0  0  0
   -2.0050   25.2200  -29.3340 N   0  0  0  0  0  0  0  0  0  0  0  0
   -2.1950   22.9100  -29.2780 O   0  0  0  0  0  0  0  0  0  0  0  0
   -5.0100   22.9500  -29.7700 C   0  0  0  0  0  0  0  0  0  0  0  0
   -6.5420   20.2490  -32.4910 C   0  0  0  0  0  0  0  0  0  0  0  0
   -2.8120   19.6780  -34.5920 O   0  0  0  0  0  0  0  0  0  0  0  0
   -1.8630   20.4190  -34.0730 C   0  0  0  0  0  0  0  0  0  0  0  0
   -0.5490   20.6270  -34.7190 C   0  0  0  0  0  0  0  0  0  0  0  0
   -0.0350   21.9140  -34.9550 C   0  0  0  0  0  0  0  0  0  0  0  0
    1.2160   22.0770  -35.5550 C   0  0  0  0  0  0  0  0  0  0  0  0
    1.9810   20.9590  -35.9120 C   0  0  0  0  0  0  0  0  0  0  0  0
    3.5500   21.1680  -36.6820 S   0  0  0  0  0  0  0  0  0  0  0  0
    3.8410   22.8500  -36.9530 N   0  0  0  0  0  0  0  0  0  0  0  0
    3.5760   20.4390  -37.9950 O   0  0  0  0  0  0  0  0  0  0  0  0
    4.6300   20.6080  -35.7980 O   0  0  0  0  0  0  0  0  0  0  0  0
    1.4800   19.6750  -35.6660 C   0  0  0  0  0  0  0  0  0  0  0  0
    0.2290   19.5090  -35.0650 C   0  0  0  0  0  0  0  0  0  0  0  0
   -1.8754   21.5877  -30.9050 H   0  0  0  0  0  0  0  0  0  0  0  0
   -0.5755   21.8469  -32.1173 H   0  0  0  0  0  0  0  0  0  0  0  0
   -2.0275   22.9044  -32.1173 H   0  0  0  0  0  0  0  0  0  0  0  0
   -6.6150   17.0401  -33.6776 H   0  0  0  0  0  0  0  0  0  0  0  0
   -8.7072   17.0136  -32.3223 H   0  0  0  0  0  0  0  0  0  0  0  0
   -9.4222   19.0527  -31.0786 H   0  0  0  0  0  0  0  0  0  0  0  0
   -8.3430   22.2920  -31.7531 H   0  0  0  0  0  0  0  0  0  0  0  0
   -9.1354   21.2582  -30.5021 H   0  0  0  0  0  0  0  0  0  0  0  0
   -7.8982   24.2013  -31.1086 H   0  0  0  0  0  0  0  0  0  0  0  0
   -6.4257   26.1856  -31.4126 H   0  0  0  0  0  0  0  0  0  0  0  0
   -4.0442   26.1060  -30.6825 H   0  0  0  0  0  0  0  0  0  0  0  0
   -2.4550   26.0830  -28.9560 H   0  0  0  0  0  0  0  0  0  0  0  0
   -4.6158   22.0390  -29.2960 H   0  0  0  0  0  0  0  0  0  0  0  0
   -5.9364   21.1656  -32.5469 H   0  0  0  0  0  0  0  0  0  0  0  0
   -0.6216   22.7983  -34.6654 H   0  0  0  0  0  0  0  0  0  0  0  0
    1.6024   23.0886  -35.7482 H   0  0  0  0  0  0  0  0  0  0  0  0
    3.6760   23.0280  -37.9690 H   0  0  0  0  0  0  0  0  0  0  0  0
    2.0737   18.7926  -35.9470 H   0  0  0  0  0  0  0  0  0  0  0  0
   -0.1491   18.4963  -34.8615 H   0  0  0  0  0  0  0  0  0  0  0  0
  1  2  1  0
  2  3  1  0
  3  4  1  0
  4  5  2  3
  5  6  1  0
  6  7  2  0
  7  8  1  0
  8  9  2  0
  9 10  1  0
 10 11  1  0
 11 12  1  0
 12 13  1  0
 13 14  2  0
 14 15  1  0
 15 16  2  0
 16 17  1  0
 17 18  1  0
 18 19  1  0
 18 20  2  0
 17 21  2  0
 10 22  2  0
  4 23  1  0
 23 24  1  0
 24 25  1  0
 25 26  2  0
 26 27  1  0
 27 28  2  0
 28 29  1  0
 29 30  1  0
 29 31  2  0
 29 32  2  0
 28 33  1  0
 33 34  2  0
 24  2  2  0
 34 25  1  0
 22  6  1  0
 21 13  1  0
  1 35  1  0
  1 36  1  0
  1 37  1  0
  7 38  1  0
  8 39  1  0
  9 40  1  0
 11 41  1  0
 11 42  1  0
 14 43  1  0
 15 44  1  0
 16 45  1  0
 19 46  1  0
 21 47  1  0
 22 48  1  0
 26 49  1  0
 27 50  1  0
 30 51  1  0
 33 52  1  0
 34 53  1  0
M  CHG  3   3  -1  19  -1  30  -1
M  END
>  <UniqueID>  (4) 
4

>  <SMILES>  (4) 
Cc1[n-]c(=Nc2cccc(COc3cccc(C([NH-])=O)c3)c2)oc1-c1ccc(S([NH-])(=O)=O)cc1

>  <Energy>  (4) 
95.72488625074996

>  <Genealogy>  (4) 
Cc1[n-]c(=Nc2cccc(COc3cccc(C([NH-])=O)c3)c2)oc1-c1ccc(S([NH-])(=O)=O)cc1 (protonated)
Cc1[n-]c(=Nc2cccc(COc3cccc(C([NH-])=O)c3)c2)oc1-c1ccc(S([NH-])(=O)=O)cc1 (3D coordinates assigned)
Cc1[n-]c(=Nc2cccc(COc3cccc(C([NH-])=O)c3)c2)oc1-c1ccc(S([NH-])(=O)=O)cc1 (optimized conformer: 95.72488625074996 kcal/mol)

>  <smiles>  (4) 
Cc1[nH]c(=Nc2cccc(COc3cccc(C(N)=O)c3)c2)oc1-c1ccc(S(N)(=O)=O)cc1

>  <score_type>  (4) 
oracle

>  <origin>  (4) 
adgpu

>  <m_score__min__energy>  (4) 
-12.529999999999999

>  <m_primary>  (4) 
energy

$$$$
4:0
     RDKit          3D

 46 48  0  0  0  0  0  0  0  0999 V2000
   -0.4560   26.4360  -23.3720 C   0  0  0  0  0  0  0  0  0  0  0  0
   -0.0920   27.5690  -24.7490 S   0  0  0  0  0  0  0  0  0  0  0  0
    0.0050   26.2500  -25.9630 C   0  0  0  0  0  0  0  0  0  0  0  0
    1.1830   25.5090  -26.0980 C   0  0  0  0  0  0  0  0  0  0  0  0
    1.2650   24.4990  -27.0600 C   0  0  0  0  0  0  0  0  0  0  0  0
    0.1700   24.2210  -27.8810 C   0  0  0  0  0  0  0  0  0  0  0  0
   -1.0260   24.9420  -27.7390 C   0  0  0  0  0  0  0  0  0  0  0  0
   -2.1300   24.6520  -28.6120 N   0  0  0  0  0  0  0  0  0  0  0  0
   -2.1490   23.5560  -29.5450 C   0  0  0  0  0  0  0  0  0  0  0  0
   -1.1490   22.7980  -29.6600 O   0  0  0  0  0  0  0  0  0  0  0  0
   -3.3400   23.2960  -30.3820 C   0  0  0  0  0  0  0  0  0  0  0  0
   -3.6160   21.9800  -30.7890 C   0  0  0  0  0  0  0  0  0  0  0  0
   -4.7310   21.6990  -31.5910 C   0  0  0  0  0  0  0  0  0  0  0  0
   -5.0550   20.0440  -32.1070 S   0  0  0  0  0  0  0  0  0  0  0  0
   -3.8290   19.4990  -32.7850 O   0  0  0  0  0  0  0  0  0  0  0  0
   -5.3240   19.1920  -30.8960 O   0  0  0  0  0  0  0  0  0  0  0  0
   -6.4180   19.9340  -33.2040 N   0  0  0  0  0  0  0  0  0  0  0  0
   -6.4770   18.6390  -33.9040 C   0  0  0  0  0  0  0  0  0  0  0  0
   -7.1380   17.5220  -33.0610 C   0  0  0  0  0  0  0  0  0  0  0  0
   -7.7510   18.0020  -31.8800 O   0  0  0  0  0  0  0  0  0  0  0  0
   -8.5630   19.1120  -32.1820 C   0  0  0  0  0  0  0  0  0  0  0  0
   -7.6970   20.3220  -32.5710 C   0  0  0  0  0  0  0  0  0  0  0  0
   -5.5830   22.7390  -31.9800 C   0  0  0  0  0  0  0  0  0  0  0  0
   -5.3090   24.0530  -31.5940 C   0  0  0  0  0  0  0  0  0  0  0  0
   -4.1870   24.3400  -30.8100 C   0  0  0  0  0  0  0  0  0  0  0  0
   -3.9090   25.6640  -30.4910 O   0  0  0  0  0  0  0  0  0  0  0  0
   -1.0930   25.9770  -26.7880 C   0  0  0  0  0  0  0  0  0  0  0  0
   -0.2893   26.9548  -22.4165 H   0  0  0  0  0  0  0  0  0  0  0  0
   -1.5044   26.1089  -23.4336 H   0  0  0  0  0  0  0  0  0  0  0  0
    0.2058   25.5595  -23.4336 H   0  0  0  0  0  0  0  0  0  0  0  0
    2.0443   25.7210  -25.4475 H   0  0  0  0  0  0  0  0  0  0  0  0
    2.1945   23.9213  -27.1710 H   0  0  0  0  0  0  0  0  0  0  0  0
    0.2452   23.4320  -28.6438 H   0  0  0  0  0  0  0  0  0  0  0  0
   -2.9400   25.3100  -28.5940 H   0  0  0  0  0  0  0  0  0  0  0  0
   -2.9507   21.1621  -30.4753 H   0  0  0  0  0  0  0  0  0  0  0  0
   -7.0564   18.7679  -34.8301 H   0  0  0  0  0  0  0  0  0  0  0  0
   -5.4413   18.3280  -34.1057 H   0  0  0  0  0  0  0  0  0  0  0  0
   -7.9042   17.0273  -33.6760 H   0  0  0  0  0  0  0  0  0  0  0  0
   -6.3406   16.8284  -32.7559 H   0  0  0  0  0  0  0  0  0  0  0  0
   -9.2271   18.8573  -33.0211 H   0  0  0  0  0  0  0  0  0  0  0  0
   -9.1575   19.3706  -31.2933 H   0  0  0  0  0  0  0  0  0  0  0  0
   -8.2633   20.9463  -33.2777 H   0  0  0  0  0  0  0  0  0  0  0  0
   -7.4560   20.8667  -31.6462 H   0  0  0  0  0  0  0  0  0  0  0  0
   -6.4710   22.5209  -32.5915 H   0  0  0  0  0  0  0  0  0  0  0  0
   -5.9793   24.8666  -31.9083 H   0  0  0  0  0  0  0  0  0  0  0  0
   -2.0118   26.5742  -26.6923 H   0  0  0  0  0  0  0  0  0  0  0  0
  1  2  1  0
  2  3  1  0
  3  4  2  0
  4  5  1  0
  5  6  2  0
  6  7  1  0
  7  8  1  0
  8  9  1  0
  9 10  2  0
  9 11  1  0
 11 12  2  0
 12 13  1  0
 13 14  1  0
 14 15  2  0
 14 16  2  0
 14 17  1  0
 17 18  1  0
 18 19  1  0
 19 20  1  0
 20 21  1  0
 21 22  1  0
 13 23  2  0
 23 24  1  0
 24 25  2  0
 25 26  1  0
  7 27  2  0
 27  3  1  0
 25 11  1  0
 22 17  1  0
  1 28  1  0
  1 29  1  0
  1 30  1  0
  4 31  1  0
  5 32  1  0
  6 33  1  0
  8 34  1  0
 12 35  1  0
 18 36  1  0
 18 37  1  0
 19 38  1  0
 19 39  1  0
 21 40  1  0
 21 41  1  0
 22 42  1  0
 22 43  1  0
 23 44  1  0
 24 45  1  0
 27 46  1  0
M  CHG  1  26  -1
M  END
>  <UniqueID>  (5) 
5

>  <SMILES>  (5) 
CSc1cccc(NC(=O)c2cc(S(=O)(=O)N3CCOCC3)ccc2[O-])c1

>  <Energy>  (5) 
62.335738026119586

>  <Genealogy>  (5) 
CSc1cccc(NC(=O)c2cc(S(=O)(=O)N3CCOCC3)ccc2[O-])c1 (protonated)
CSc1cccc(NC(=O)c2cc(S(=O)(=O)N3CCOCC3)ccc2[O-])c1 (3D coordinates assigned)
CSc1cccc(NC(=O)c2cc(S(=O)(=O)N3CCOCC3)ccc2[O-])c1 (nonaromatic ring conformer: 62.335738026119586 kcal/mol)

>  <smiles>  (5) 
CSc1cccc(NC(=O)c2cc(S(=O)(=O)N3CCOCC3)ccc2O)c1

>  <score_type>  (5) 
oracle

>  <origin>  (5) 
adgpu

>  <m_score__min__energy>  (5) 
-11.92

>  <m_primary>  (5) 
energy

$$$$
5:0
     RDKit          3D

 45 48  0  0  0  0  0  0  0  0999 V2000
   -0.3790   21.7060  -34.2220 O   0  0  0  0  0  0  0  0  0  0  0  0
   -0.2110   21.1640  -33.0990 C   0  0  0  0  0  0  0  0  0  0  0  0
    0.8890   20.4240  -32.8070 N   0  0  0  0  0  0  0  0  0  0  0  0
    0.6500   20.0570  -31.5390 C   0  0  0  0  0  0  0  0  0  0  0  0
    1.4520   19.2760  -30.7140 C   0  0  0  0  0  0  0  0  0  0  0  0
    0.9910   19.0090  -29.4130 C   0  0  0  0  0  0  0  0  0  0  0  0
   -0.2520   19.5330  -28.9600 C   0  0  0  0  0  0  0  0  0  0  0  0
   -0.7430   19.2710  -27.6330 N   0  0  0  0  0  0  0  0  0  0  0  0
   -1.9280   20.2590  -26.8400 S   0  0  0  0  0  0  0  0  0  0  0  0
   -3.2940   19.6680  -27.0540 O   0  0  0  0  0  0  0  0  0  0  0  0
   -1.6330   20.2950  -25.3660 O   0  0  0  0  0  0  0  0  0  0  0  0
   -1.8980   21.8810  -27.5240 C   0  0  0  0  0  0  0  0  0  0  0  0
   -0.7510   22.6780  -27.4200 C   0  0  0  0  0  0  0  0  0  0  0  0
   -0.7190   23.9390  -28.0190 C   0  0  0  0  0  0  0  0  0  0  0  0
   -1.8300   24.4130  -28.7260 C   0  0  0  0  0  0  0  0  0  0  0  0
   -1.7650   25.6590  -29.3390 O   0  0  0  0  0  0  0  0  0  0  0  0
   -2.9920   23.6270  -28.8160 C   0  0  0  0  0  0  0  0  0  0  0  0
   -4.3930   24.1820  -29.7350 S   0  0  0  0  0  0  0  0  0  0  0  0
   -3.9280   25.0900  -30.8400 O   0  0  0  0  0  0  0  0  0  0  0  0
   -5.3170   24.9610  -28.8390 O   0  0  0  0  0  0  0  0  0  0  0  0
   -5.2370   22.8110  -30.4120 N   0  0  0  0  0  0  0  0  0  0  0  0
   -6.2480   23.2730  -31.3850 C   0  0  0  0  0  0  0  0  0  0  0  0
   -6.6320   22.1360  -32.3450 C   0  0  0  0  0  0  0  0  0  0  0  0
   -5.5450   21.6160  -33.1020 O   0  0  0  0  0  0  0  0  0  0  0  0
   -4.2730   21.8750  -32.5270 C   0  0  0  0  0  0  0  0  0  0  0  0
   -4.2870   21.8340  -30.9900 C   0  0  0  0  0  0  0  0  0  0  0  0
   -3.0170   22.3620  -28.2120 C   0  0  0  0  0  0  0  0  0  0  0  0
   -1.0290   20.3240  -29.8360 C   0  0  0  0  0  0  0  0  0  0  0  0
   -0.5400   20.5640  -31.1150 C   0  0  0  0  0  0  0  0  0  0  0  0
   -1.1150   21.2790  -32.0930 N   0  0  0  0  0  0  0  0  0  0  0  0
    2.4154   18.8801  -31.0677 H   0  0  0  0  0  0  0  0  0  0  0  0
    1.5980   18.3881  -28.7377 H   0  0  0  0  0  0  0  0  0  0  0  0
   -0.4800   18.3760  -27.1640 H   0  0  0  0  0  0  0  0  0  0  0  0
    0.1253   22.3103  -26.8660 H   0  0  0  0  0  0  0  0  0  0  0  0
    0.1833   24.5625  -27.9348 H   0  0  0  0  0  0  0  0  0  0  0  0
   -7.1450   23.6076  -30.8433 H   0  0  0  0  0  0  0  0  0  0  0  0
   -5.8252   24.1036  -31.9692 H   0  0  0  0  0  0  0  0  0  0  0  0
   -7.0626   21.3155  -31.7523 H   0  0  0  0  0  0  0  0  0  0  0  0
   -7.3440   22.5611  -33.0677 H   0  0  0  0  0  0  0  0  0  0  0  0
   -3.5633   21.1175  -32.8911 H   0  0  0  0  0  0  0  0  0  0  0  0
   -3.9786   22.8919  -32.8256 H   0  0  0  0  0  0  0  0  0  0  0  0
   -4.5769   20.8237  -30.6654 H   0  0  0  0  0  0  0  0  0  0  0  0
   -3.2785   22.0948  -30.6366 H   0  0  0  0  0  0  0  0  0  0  0  0
   -3.9237   21.7429  -28.2797 H   0  0  0  0  0  0  0  0  0  0  0  0
   -1.9956   20.7390  -29.5143 H   0  0  0  0  0  0  0  0  0  0  0  0
  1  2  2  0
  2  3  1  0
  3  4  1  0
  4  5  2  0
  5  6  1  0
  6  7  2  0
  7  8  1  0
  8  9  1  0
  9 10  2  0
  9 11  2  0
  9 12  1  0
 12 13  2  0
 13 14  1  0
 14 15  2  0
 15 16  1  0
 15 17  1  0
 17 18  1  0
 18 19  2  0
 18 20  2  0
 18 21  1  0
 21 22  1  0
 22 23  1  0
 23 24  1  0
 24 25  1  0
 25 26  1  0
 17 27  2  0
  7 28  1  0
 28 29  2  0
 29 30  1  0
 30  2  1  0
 29  4  1  0
 27 12  1  0
 26 21  1  0
  5 31  1  0
  6 32  1  0
  8 33  1  0
 13 34  1  0
 14 35  1  0
 22 36  1  0
 22 37  1  0
 23 38  1  0
 23 39  1  0
 25 40  1  0
 25 41  1  0
 26 42  1  0
 26 43  1  0
 27 44  1  0
 28 45  1  0
M  CHG  3   3  -1  16  -1  30  -1
M  END
>  <UniqueID>  (6) 
6

>  <SMILES>  (6) 
O=c1[n-]c2ccc(NS(=O)(=O)c3ccc([O-])c(S(=O)(=O)N4CCOCC4)c3)cc2[n-]1

>  <Energy>  (6) 
95.87226549175585

>  <Genealogy>  (6) 
O=c1[n-]c2ccc(NS(=O)(=O)c3ccc([O-])c(S(=O)(=O)N4CCOCC4)c3)cc2[n-]1 (protonated)
O=c1[n-]c2ccc(NS(=O)(=O)c3ccc([O-])c(S(=O)(=O)N4CCOCC4)c3)cc2[n-]1 (3D coordinates assigned)
O=c1[n-]c2ccc(NS(=O)(=O)c3ccc([O-])c(S(=O)(=O)N4CCOCC4)c3)cc2[n-]1 (nonaromatic ring conformer: 95.87226549175585 kcal/mol)

>  <smiles>  (6) 
O=c1[nH]c2ccc(NS(=O)(=O)c3ccc(O)c(S(=O)(=O)N4CCOCC4)c3)cc2[nH]1

>  <score_type>  (6) 
oracle

>  <origin>  (6) 
adgpu

>  <m_score__min__energy>  (6) 
-12.390000000000001

>  <m_primary>  (6) 
energy

$$$$
6:0
     RDKit          3D

 47 50  0  0  0  0  0  0  0  0999 V2000
   -5.2140   17.6970  -34.9050 C   0  0  0  0  0  0  0  0  0  0  0  0
   -5.2600   18.9090  -34.0210 C   0  0  0  0  0  0  0  0  0  0  0  0
   -4.0710   19.5360  -33.6230 C   0  0  0  0  0  0  0  0  0  0  0  0
   -4.1080   20.6510  -32.7740 C   0  0  0  0  0  0  0  0  0  0  0  0
   -2.8380   21.3550  -32.3960 C   0  0  0  0  0  0  0  0  0  0  0  0
   -5.3450   21.1430  -32.3330 C   0  0  0  0  0  0  0  0  0  0  0  0
   -6.5410   20.5010  -32.6920 C   0  0  0  0  0  0  0  0  0  0  0  0
   -7.7960   21.0210  -32.2160 N   0  0  0  0  0  0  0  0  0  0  0  0
   -8.8870   20.2920  -32.0600 N   0  0  0  0  0  0  0  0  0  0  0  0
   -9.8910   21.0860  -31.7190 N   0  0  0  0  0  0  0  0  0  0  0  0
   -9.4770   22.3430  -31.6640 N   0  0  0  0  0  0  0  0  0  0  0  0
   -8.1670   22.2940  -31.9680 C   0  0  0  0  0  0  0  0  0  0  0  0
   -7.1470   23.7600  -32.1700 S   0  0  0  0  0  0  0  0  0  0  0  0
   -6.7870   23.9520  -30.3890 C   0  0  0  0  0  0  0  0  0  0  0  0
   -5.3290   24.2210  -30.1780 C   0  0  0  0  0  0  0  0  0  0  0  0
   -4.6530   24.7160  -31.1200 O   0  0  0  0  0  0  0  0  0  0  0  0
   -4.7310   23.9790  -28.8940 N   0  0  0  0  0  0  0  0  0  0  0  0
   -3.3290   24.1280  -28.6190 C   0  0  0  0  0  0  0  0  0  0  0  0
   -2.3910   23.6870  -29.5670 C   0  0  0  0  0  0  0  0  0  0  0  0
   -1.0200   23.8310  -29.3310 C   0  0  0  0  0  0  0  0  0  0  0  0
   -0.5780   24.4310  -28.1500 C   0  0  0  0  0  0  0  0  0  0  0  0
   -1.5050   24.9190  -27.2210 C   0  0  0  0  0  0  0  0  0  0  0  0
   -2.8760   24.7620  -27.4460 C   0  0  0  0  0  0  0  0  0  0  0  0
   -1.0380   25.5680  -26.0720 O   0  0  0  0  0  0  0  0  0  0  0  0
    0.3270   25.9770  -25.9580 C   0  0  0  0  0  0  0  0  0  0  0  0
    1.2520   24.9200  -26.5760 C   0  0  0  0  0  0  0  0  0  0  0  0
    0.7890   24.5570  -27.8790 O   0  0  0  0  0  0  0  0  0  0  0  0
   -6.4890   19.3850  -33.5440 C   0  0  0  0  0  0  0  0  0  0  0  0
   -5.1796   16.7905  -34.2829 H   0  0  0  0  0  0  0  0  0  0  0  0
   -6.1118   17.6720  -35.5400 H   0  0  0  0  0  0  0  0  0  0  0  0
   -4.3168   17.7402  -35.5400 H   0  0  0  0  0  0  0  0  0  0  0  0
   -3.1039   19.1511  -33.9787 H   0  0  0  0  0  0  0  0  0  0  0  0
   -2.7562   21.4004  -31.3000 H   0  0  0  0  0  0  0  0  0  0  0  0
   -1.9780   20.8048  -32.8055 H   0  0  0  0  0  0  0  0  0  0  0  0
   -2.8488   22.3759  -32.8055 H   0  0  0  0  0  0  0  0  0  0  0  0
   -5.3786   22.0414  -31.6991 H   0  0  0  0  0  0  0  0  0  0  0  0
   -7.3725   24.7931  -29.9893 H   0  0  0  0  0  0  0  0  0  0  0  0
   -7.0577   23.0220  -29.8676 H   0  0  0  0  0  0  0  0  0  0  0  0
   -5.3680   23.7890  -28.0860 H   0  0  0  0  0  0  0  0  0  0  0  0
   -2.7377   23.2245  -30.5029 H   0  0  0  0  0  0  0  0  0  0  0  0
   -0.2919   23.4726  -30.0736 H   0  0  0  0  0  0  0  0  0  0  0  0
   -3.6008   25.1337  -26.7067 H   0  0  0  0  0  0  0  0  0  0  0  0
    0.4648   26.9327  -26.4848 H   0  0  0  0  0  0  0  0  0  0  0  0
    0.5781   26.0944  -24.8935 H   0  0  0  0  0  0  0  0  0  0  0  0
    2.2701   25.3293  -26.6535 H   0  0  0  0  0  0  0  0  0  0  0  0
    1.2532   24.0263  -25.9346 H   0  0  0  0  0  0  0  0  0  0  0  0
   -7.4208   18.8805  -33.8392 H   0  0  0  0  0  0  0  0  0  0  0  0
  1  2  1  0
  2  3  2  0
  3  4  1  0
  4  5  1  0
  4  6  2  0
  6  7  1  0
  7  8  1  0
  8  9  1  0
  9 10  2  0
 10 11  1  0
 11 12  2  0
 12 13  1  0
 13 14  1  0
 14 15  1  0
 15 16  2  0
 15 17  1  0
 17 18  1  0
 18 19  2  0
 19 20  1  0
 20 21  2  0
 21 22  1  0
 22 23  2  0
 22 24  1  0
 24 25  1  0
 25 26  1  0
 26 27  1  0
  7 28  2  0
 28  2  1  0
 12  8  1  0
 23 18  1  0
 27 21  1  0
  1 29  1  0
  1 30  1  0
  1 31  1  0
  3 32  1  0
  5 33  1  0
  5 34  1  0
  5 35  1  0
  6 36  1  0
 14 37  1  0
 14 38  1  0
 17 39  1  0
 19 40  1  0
 20 41  1  0
 23 42  1  0
 25 43  1  0
 25 44  1  0
 26 45  1  0
 26 46  1  0
 28 47  1  0
M  END
>  <UniqueID>  (7) 
7

>  <SMILES>  (7) 
Cc1cc(C)cc(-n2nnnc2SCC(=O)Nc2ccc3c(c2)OCCO3)c1

>  <Energy>  (7) 
93.68173768666661

>  <Genealogy>  (7) 
Cc1cc(C)cc(-n2nnnc2SCC(=O)Nc2ccc3c(c2)OCCO3)c1 (3D coordinates assigned)
Cc1cc(C)cc(-n2nnnc2SCC(=O)Nc2ccc3c(c2)OCCO3)c1 (nonaromatic ring conformer: 93.68173768666661 kcal/mol)

>  <smiles>  (7) 
Cc1cc(C)cc(-n2nnnc2SCC(=O)Nc2ccc3c(c2)OCCO3)c1

>  <score_type>  (7) 
oracle

>  <origin>  (7) 
adgpu

>  <m_score__min__energy>  (7) 
-10.27

>  <m_primary>  (7) 
energy

$$$$
7:0
     RDKit          3D

 30 31  0  0  0  0  0  0  0  0999 V2000
   -3.0730   18.1710  -24.8470 H   0  0  0  0  0  0  0  0  0  0  0  0
   -3.2370   18.8310  -25.5960 O   0  0  0  0  0  0  0  0  0  0  0  0
   -2.3070   19.0450  -26.6110 C   0  0  0  0  0  0  0  0  0  0  0  0
   -1.2610   18.1970  -26.7910 N   0  0  0  0  0  0  0  0  0  0  0  0
   -0.4890   18.5800  -27.8330 C   0  0  0  0  0  0  0  0  0  0  0  0
    0.5720   17.9420  -28.2200 N   0  0  0  0  0  0  0  0  0  0  0  0
    1.0630   16.7310  -27.5730 C   0  0  0  0  0  0  0  0  0  0  0  0
    1.0136   16.8529  -26.4809 H   0  0  0  0  0  0  0  0  0  0  0  0
    0.4406   15.8758  -27.8750 H   0  0  0  0  0  0  0  0  0  0  0  0
    2.1053   16.5507  -27.8750 H   0  0  0  0  0  0  0  0  0  0  0  0
   -1.0620   19.9720  -28.5750 S   0  0  0  0  0  0  0  0  0  0  0  0
   -2.3610   20.1160  -27.5100 C   0  0  0  0  0  0  0  0  0  0  0  0
   -3.4260   21.1670  -27.6090 C   0  0  0  0  0  0  0  0  0  0  0  0
   -4.1942   20.8377  -28.3241 H   0  0  0  0  0  0  0  0  0  0  0  0
   -3.8724   21.3159  -26.6147 H   0  0  0  0  0  0  0  0  0  0  0  0
   -2.8380   22.4710  -28.0790 C   0  0  0  0  0  0  0  0  0  0  0  0
   -1.6230   22.9370  -27.5530 C   0  0  0  0  0  0  0  0  0  0  0  0
   -1.0834   22.3370  -26.8055 H   0  0  0  0  0  0  0  0  0  0  0  0
   -1.0970   24.1590  -27.9750 C   0  0  0  0  0  0  0  0  0  0  0  0
   -0.1427   24.5166  -27.5609 H   0  0  0  0  0  0  0  0  0  0  0  0
   -1.7770   24.9300  -28.9210 C   0  0  0  0  0  0  0  0  0  0  0  0
   -1.2390   26.1450  -29.3300 O   0  0  0  0  0  0  0  0  0  0  0  0
   -2.9920   24.4840  -29.4570 C   0  0  0  0  0  0  0  0  0  0  0  0
   -3.6440   25.2900  -30.4030 O   0  0  0  0  0  0  0  0  0  0  0  0
   -5.0570   25.3530  -30.5710 C   0  0  0  0  0  0  0  0  0  0  0  0
   -5.5429   25.3747  -29.5844 H   0  0  0  0  0  0  0  0  0  0  0  0
   -5.3196   26.2637  -31.1292 H   0  0  0  0  0  0  0  0  0  0  0  0
   -5.3997   24.4692  -31.1292 H   0  0  0  0  0  0  0  0  0  0  0  0
   -3.5200   23.2480  -29.0310 C   0  0  0  0  0  0  0  0  0  0  0  0
   -4.4730   22.8891  -29.4469 H   0  0  0  0  0  0  0  0  0  0  0  0
  1  2  1  0
  2  3  1  0
  3  4  1  0
  4  5  1  0
  5  6  2  0
  6  7  1  0
  7  8  1  0
  7  9  1  0
  7 10  1  0
  5 11  1  0
 11 12  1  0
 12 13  1  0
 13 14  1  0
 13 15  1  0
 13 16  1  0
 16 17  2  0
 17 18  1  0
 17 19  1  0
 19 20  1  0
 19 21  2  0
 21 22  1  0
 21 23  1  0
 23 24  1  0
 24 25  1  0
 25 26  1  0
 25 27  1  0
 25 28  1  0
 23 29  2  0
 29 30  1  0
 12  3  2  0
 29 16  1  0
M  CHG  2   4  -1  22  -1
M  END
>  <UniqueID>  (8) 
8

>  <SMILES>  (8) 
C/N=c1\[n-]c(O)c(Cc2ccc([O-])c(OC)c2)s1

>  <Energy>  (8) 
56.82008789638162

>  <Genealogy>  (8) 
CN=c1[n-]c(O)c(Cc2ccc([O-])c(OC)c2)s1 (protonated)
C/N=c1\[n-]c(O)c(Cc2ccc([O-])c(OC)c2)s1 (cis-trans isomerization)
C/N=c1\[n-]c(O)c(Cc2ccc([O-])c(OC)c2)s1 (3D coordinates assigned)
C/N=c1\[n-]c(O)c(Cc2ccc([O-])c(OC)c2)s1 (optimized conformer: 56.82008789638162 kcal/mol)

>  <smiles>  (8) 
CN=c1[nH]c(O)c(Cc2ccc(O)c(OC)c2)s1

>  <score_type>  (8) 
oracle

>  <origin>  (8) 
adgpu

>  <m_score__min__energy>  (8) 
-10.01

>  <m_primary>  (8) 
energy

$$$$
8:0
     RDKit          3D

 57 60  0  0  0  0  0  0  0  0999 V2000
   -4.0460   20.4030  -31.4660 O   0  0  0  0  0  0  0  0  0  0  0  0
   -3.1420   21.2390  -31.7400 C   0  0  0  0  0  0  0  0  0  0  0  0
   -3.3050   22.6150  -31.3580 N   0  0  0  0  0  0  0  0  0  0  0  0
   -4.5810   23.2130  -31.0700 C   0  0  0  0  0  0  0  0  0  0  0  0
   -5.7750   22.4910  -31.2560 C   0  0  0  0  0  0  0  0  0  0  0  0
   -7.0160   23.0880  -30.9940 C   0  0  0  0  0  0  0  0  0  0  0  0
   -8.5080   22.1860  -31.2490 S   0  0  0  0  0  0  0  0  0  0  0  0
   -9.1450   21.8750  -29.9210 O   0  0  0  0  0  0  0  0  0  0  0  0
   -9.4610   23.0260  -32.0530 O   0  0  0  0  0  0  0  0  0  0  0  0
   -8.1500   20.7150  -32.1190 N   0  0  0  0  0  0  0  0  0  0  0  0
   -7.1030   20.9280  -33.1190 C   0  0  0  0  0  0  0  0  0  0  0  0
   -6.3850   19.5970  -33.2930 C   0  0  0  0  0  0  0  0  0  0  0  0
   -6.7720   18.7670  -32.0790 C   0  0  0  0  0  0  0  0  0  0  0  0
   -7.6300   19.6830  -31.2230 C   0  0  0  0  0  0  0  0  0  0  0  0
   -7.0690   24.4200  -30.5680 C   0  0  0  0  0  0  0  0  0  0  0  0
   -5.8900   25.1500  -30.3980 C   0  0  0  0  0  0  0  0  0  0  0  0
   -4.6500   24.5540  -30.6500 C   0  0  0  0  0  0  0  0  0  0  0  0
   -3.4890   25.2980  -30.4740 O   0  0  0  0  0  0  0  0  0  0  0  0
   -1.9010   20.7760  -32.4090 C   0  0  0  0  0  0  0  0  0  0  0  0
   -0.6650   21.3700  -32.0960 C   0  0  0  0  0  0  0  0  0  0  0  0
    0.5090   20.9370  -32.7190 C   0  0  0  0  0  0  0  0  0  0  0  0
    0.4680   19.9000  -33.6570 C   0  0  0  0  0  0  0  0  0  0  0  0
    1.9560   19.3800  -34.4450 S   0  0  0  0  0  0  0  0  0  0  0  0
    3.1150   19.7330  -33.5530 O   0  0  0  0  0  0  0  0  0  0  0  0
    1.9360   17.8880  -34.6400 O   0  0  0  0  0  0  0  0  0  0  0  0
    2.1060   20.2010  -35.9860 N   0  0  0  0  0  0  0  0  0  0  0  0
    3.1520   21.2480  -35.9540 C   0  0  0  0  0  0  0  0  0  0  0  0
    2.5740   22.6630  -35.7690 C   0  0  0  0  0  0  0  0  0  0  0  0
    1.4130   22.6140  -34.9700 O   0  0  0  0  0  0  0  0  0  0  0  0
    0.3600   21.9770  -35.6730 C   0  0  0  0  0  0  0  0  0  0  0  0
    0.8090   20.7180  -36.4550 C   0  0  0  0  0  0  0  0  0  0  0  0
   -0.7570   19.2980  -33.9700 C   0  0  0  0  0  0  0  0  0  0  0  0
   -1.9330   19.7300  -33.3490 C   0  0  0  0  0  0  0  0  0  0  0  0
   -2.4440   23.1810  -31.1840 H   0  0  0  0  0  0  0  0  0  0  0  0
   -5.7339   21.4502  -31.6097 H   0  0  0  0  0  0  0  0  0  0  0  0
   -7.5492   21.2453  -34.0730 H   0  0  0  0  0  0  0  0  0  0  0  0
   -6.4044   21.7148  -32.7982 H   0  0  0  0  0  0  0  0  0  0  0  0
   -6.7129   19.1011  -34.2185 H   0  0  0  0  0  0  0  0  0  0  0  0
   -5.2954   19.7271  -33.3688 H   0  0  0  0  0  0  0  0  0  0  0  0
   -7.3442   17.8791  -32.3860 H   0  0  0  0  0  0  0  0  0  0  0  0
   -5.8891   18.4038  -31.5326 H   0  0  0  0  0  0  0  0  0  0  0  0
   -8.4587   19.1172  -30.7724 H   0  0  0  0  0  0  0  0  0  0  0  0
   -7.0467   20.1242  -30.4014 H   0  0  0  0  0  0  0  0  0  0  0  0
   -8.0413   24.8933  -30.3665 H   0  0  0  0  0  0  0  0  0  0  0  0
   -5.9371   26.1973  -30.0648 H   0  0  0  0  0  0  0  0  0  0  0  0
   -0.6219   22.1818  -31.3550 H   0  0  0  0  0  0  0  0  0  0  0  0
    1.4688   21.4135  -32.4707 H   0  0  0  0  0  0  0  0  0  0  0  0
    3.8362   21.0359  -35.1192 H   0  0  0  0  0  0  0  0  0  0  0  0
    3.6719   21.2266  -36.9231 H   0  0  0  0  0  0  0  0  0  0  0  0
    3.3248   23.3012  -35.2802 H   0  0  0  0  0  0  0  0  0  0  0  0
    2.3143   23.0764  -36.7547 H   0  0  0  0  0  0  0  0  0  0  0  0
   -0.4118   21.6792  -34.9480 H   0  0  0  0  0  0  0  0  0  0  0  0
   -0.0169   22.6987  -36.4127 H   0  0  0  0  0  0  0  0  0  0  0  0
    0.0487   19.9332  -36.3283 H   0  0  0  0  0  0  0  0  0  0  0  0
    0.9222   21.0012  -37.5119 H   0  0  0  0  0  0  0  0  0  0  0  0
   -0.7943   18.4823  -34.7071 H   0  0  0  0  0  0  0  0  0  0  0  0
   -2.8902   19.2483  -33.5974 H   0  0  0  0  0  0  0  0  0  0  0  0
  1  2  2  0
  2  3  1  0
  3  4  1  0
  4  5  2  0
  5  6  1  0
  6  7  1  0
  7  8  2  0
  7  9  2  0
  7 10  1  0
 10 11  1  0
 11 12  1  0
 12 13  1  0
 13 14  1  0
  6 15  2  0
 15 16  1  0
 16 17  2  0
 17 18  1  0
  2 19  1  0
 19 20  2  0
 20 21  1  0
 21 22  2  0
 22 23  1  0
 23 24  2  0
 23 25  2  0
 23 26  1  0
 26 27  1  0
 27 28  1  0
 28 29  1  0
 29 30  1  0
 30 31  1  0
 22 32  1  0
 32 33  2  0
 17  4  1  0
 33 19  1  0
 14 10  1  0
 31 26  1  0
  3 34  1  0
  5 35  1  0
 11 36  1  0
 11 37  1  0
 12 38  1  0
 12 39  1  0
 13 40  1  0
 13 41  1  0
 14 42  1  0
 14 43  1  0
 15 44  1  0
 16 45  1  0
 20 46  1  0
 21 47  1  0
 27 48  1  0
 27 49  1  0
 28 50  1  0
 28 51  1  0
 30 52  1  0
 30 53  1  0
 31 54  1  0
 31 55  1  0
 32 56  1  0
 33 57  1  0
M  CHG  1  18  -1
M  END
>  <UniqueID>  (9) 
9

>  <SMILES>  (9) 
O=C(Nc1cc(S(=O)(=O)N2CCCC2)ccc1[O-])c1ccc(S(=O)(=O)N2CCOCC2)cc1

>  <Energy>  (9) 
76.59406455134678

>  <Genealogy>  (9) 
O=C(Nc1cc(S(=O)(=O)N2CCCC2)ccc1[O-])c1ccc(S(=O)(=O)N2CCOCC2)cc1 (protonated)
O=C(Nc1cc(S(=O)(=O)N2CCCC2)ccc1[O-])c1ccc(S(=O)(=O)N2CCOCC2)cc1 (3D coordinates assigned)
O=C(Nc1cc(S(=O)(=O)N2CCCC2)ccc1[O-])c1ccc(S(=O)(=O)N2CCOCC2)cc1 (nonaromatic ring conformer: 76.59406455134678 kcal/mol)

>  <smiles>  (9) 
O=C(Nc1cc(S(=O)(=O)N2CCCC2)ccc1O)c1ccc(S(=O)(=O)N2CCOCC2)cc1

>  <score_type>  (9) 
oracle

>  <origin>  (9) 
adgpu

>  <m_score__min__energy>  (9) 
-13.029999999999999

>  <m_primary>  (9) 
energy

$$$$
9:0
     RDKit          3D

 43 46  0  0  0  0  0  0  0  0999 V2000
   -6.5850   19.6010  -33.4370 C   0  0  0  0  0  0  0  0  0  0  0  0
   -5.9500   18.2440  -33.6010 C   0  0  0  0  0  0  0  0  0  0  0  0
   -6.7850   17.1240  -33.7650 C   0  0  0  0  0  0  0  0  0  0  0  0
   -6.2410   15.8500  -33.9410 C   0  0  0  0  0  0  0  0  0  0  0  0
   -7.0790   14.7540  -34.1100 O   0  0  0  0  0  0  0  0  0  0  0  0
   -4.8580   15.6770  -33.9500 C   0  0  0  0  0  0  0  0  0  0  0  0
   -4.0140   16.7740  -33.7720 C   0  0  0  0  0  0  0  0  0  0  0  0
   -4.5420   18.0660  -33.5870 C   0  0  0  0  0  0  0  0  0  0  0  0
   -3.6080   19.1970  -33.3640 C   0  0  0  0  0  0  0  0  0  0  0  0
   -2.4890   19.3820  -34.1870 C   0  0  0  0  0  0  0  0  0  0  0  0
   -1.6270   20.4590  -33.9290 C   0  0  0  0  0  0  0  0  0  0  0  0
   -0.4260   20.7190  -34.7640 C   0  0  0  0  0  0  0  0  0  0  0  0
    0.0180   22.0310  -35.0250 C   0  0  0  0  0  0  0  0  0  0  0  0
    1.1470   22.2510  -35.8210 C   0  0  0  0  0  0  0  0  0  0  0  0
    1.8410   21.1710  -36.3700 C   0  0  0  0  0  0  0  0  0  0  0  0
    2.9630   21.3940  -37.1580 O   0  0  0  0  0  0  0  0  0  0  0  0
    1.4060   19.8670  -36.1270 C   0  0  0  0  0  0  0  0  0  0  0  0
    0.2770   19.6400  -35.3340 C   0  0  0  0  0  0  0  0  0  0  0  0
   -1.9130   21.2980  -32.8970 N   0  0  0  0  0  0  0  0  0  0  0  0
   -3.0000   21.1130  -32.1000 C   0  0  0  0  0  0  0  0  0  0  0  0
   -3.2790   22.0490  -30.9840 C   0  0  0  0  0  0  0  0  0  0  0  0
   -3.3850   21.5780  -29.6610 C   0  0  0  0  0  0  0  0  0  0  0  0
   -3.6460   22.4630  -28.6110 C   0  0  0  0  0  0  0  0  0  0  0  0
   -3.8060   23.8270  -28.8670 C   0  0  0  0  0  0  0  0  0  0  0  0
   -3.7050   24.3090  -30.1740 C   0  0  0  0  0  0  0  0  0  0  0  0
   -3.8640   25.6660  -30.4270 O   0  0  0  0  0  0  0  0  0  0  0  0
   -3.4430   23.4270  -31.2280 C   0  0  0  0  0  0  0  0  0  0  0  0
   -3.8300   20.0640  -32.3410 N   0  0  0  0  0  0  0  0  0  0  0  0
   -6.6917   19.8289  -32.3662 H   0  0  0  0  0  0  0  0  0  0  0  0
   -5.9499   20.3629  -33.9126 H   0  0  0  0  0  0  0  0  0  0  0  0
   -7.5769   19.6016  -33.9126 H   0  0  0  0  0  0  0  0  0  0  0  0
   -7.8774   17.2530  -33.7545 H   0  0  0  0  0  0  0  0  0  0  0  0
   -4.4311   14.6740  -34.0977 H   0  0  0  0  0  0  0  0  0  0  0  0
   -2.9238   16.6276  -33.7763 H   0  0  0  0  0  0  0  0  0  0  0  0
   -2.2895   18.6941  -35.0219 H   0  0  0  0  0  0  0  0  0  0  0  0
   -0.5266   22.8871  -34.6002 H   0  0  0  0  0  0  0  0  0  0  0  0
    1.4892   23.2782  -36.0151 H   0  0  0  0  0  0  0  0  0  0  0  0
    1.9525   19.0163  -36.5602 H   0  0  0  0  0  0  0  0  0  0  0  0
   -0.0649   18.6101  -35.1539 H   0  0  0  0  0  0  0  0  0  0  0  0
   -3.2614   20.5051  -29.4523 H   0  0  0  0  0  0  0  0  0  0  0  0
   -3.7256   22.0847  -27.5812 H   0  0  0  0  0  0  0  0  0  0  0  0
   -4.0116   24.5215  -28.0391 H   0  0  0  0  0  0  0  0  0  0  0  0
   -3.3644   23.8124  -32.2553 H   0  0  0  0  0  0  0  0  0  0  0  0
  1  2  1  0
  2  3  2  0
  3  4  1  0
  4  5  1  0
  4  6  2  0
  6  7  1  0
  7  8  2  0
  8  9  1  0
  9 10  2  0
 10 11  1  0
 11 12  1  0
 12 13  2  0
 13 14  1  0
 14 15  2  0
 15 16  1  0
 15 17  1  0
 17 18  2  0
 11 19  2  0
 19 20  1  0
 20 21  1  0
 21 22  2  0
 22 23  1  0
 23 24  2  0
 24 25  1  0
 25 26  1  0
 25 27  2  0
 20 28  2  0
  8  2  1  0
 28  9  1  0
 18 12  1  0
 27 21  1  0
  1 29  1  0
  1 30  1  0
  1 31  1  0
  3 32  1  0
  6 33  1  0
  7 34  1  0
 10 35  1  0
 13 36  1  0
 14 37  1  0
 17 38  1  0
 18 39  1  0
 22 40  1  0
 23 41  1  0
 24 42  1  0
 27 43  1  0
M  CHG  3   5  -1  16  -1  26  -1
M  END
>  <UniqueID>  (10) 
10

>  <SMILES>  (10) 
Cc1cc([O-])ccc1-c1cc(-c2ccc([O-])cc2)nc(-c2cccc([O-])c2)n1

>  <Energy>  (10) 
59.88086499773805

>  <Genealogy>  (10) 
Cc1cc([O-])ccc1-c1cc(-c2ccc([O-])cc2)nc(-c2cccc([O-])c2)n1 (protonated)
Cc1cc([O-])ccc1-c1cc(-c2ccc([O-])cc2)nc(-c2cccc([O-])c2)n1 (3D coordinates assigned)
Cc1cc([O-])ccc1-c1cc(-c2ccc([O-])cc2)nc(-c2cccc([O-])c2)n1 (optimized conformer: 59.88086499773805 kcal/mol)

>  <smiles>  (10) 
Cc1cc(O)ccc1-c1cc(-c2ccc(O)cc2)nc(-c2cccc(O)c2)n1

>  <score_type>  (10) 
oracle

>  <origin>  (10) 
adgpu

>  <m_score__min__energy>  (10) 
-12

>  <m_primary>  (10) 
energy

$$$$
10:0
     RDKit          3D

 53 55  0  0  0  0  0  0  0  0999 V2000
   -2.3000   17.3280  -33.8730 C   0  0  0  0  0  0  0  0  0  0  0  0
   -2.9000   15.9340  -34.0320 C   0  0  0  0  0  0  0  0  0  0  0  0
   -4.2600   15.9930  -34.7380 C   0  0  0  0  0  0  0  0  0  0  0  0
   -4.5080   17.3800  -35.3380 C   0  0  0  0  0  0  0  0  0  0  0  0
   -5.7470   17.9490  -34.8110 N   0  0  0  0  0  0  0  0  0  0  0  0
   -5.9760   18.1220  -33.4020 C   0  0  0  0  0  0  0  0  0  0  0  0
   -5.1780   17.6050  -32.5730 O   0  0  0  0  0  0  0  0  0  0  0  0
   -7.1490   18.8800  -32.9070 C   0  0  0  0  0  0  0  0  0  0  0  0
   -8.3800   18.2290  -32.7190 C   0  0  0  0  0  0  0  0  0  0  0  0
   -9.4890   18.9340  -32.2450 C   0  0  0  0  0  0  0  0  0  0  0  0
   -9.3840   20.2950  -31.9550 C   0  0  0  0  0  0  0  0  0  0  0  0
   -8.1660   20.9690  -32.1370 C   0  0  0  0  0  0  0  0  0  0  0  0
   -8.0580   22.4110  -31.8020 C   0  0  0  0  0  0  0  0  0  0  0  0
   -9.0660   23.1500  -31.9660 O   0  0  0  0  0  0  0  0  0  0  0  0
   -6.8060   23.0120  -31.2800 C   0  0  0  0  0  0  0  0  0  0  0  0
   -5.9270   22.2700  -30.4730 C   0  0  0  0  0  0  0  0  0  0  0  0
   -4.7460   22.8460  -29.9950 C   0  0  0  0  0  0  0  0  0  0  0  0
   -4.4110   24.1670  -30.3380 C   0  0  0  0  0  0  0  0  0  0  0  0
   -3.2230   24.8040  -29.8480 N   0  0  0  0  0  0  0  0  0  0  0  0
   -2.1020   24.1610  -29.2250 C   0  0  0  0  0  0  0  0  0  0  0  0
   -1.5870   23.1440  -29.7620 O   0  0  0  0  0  0  0  0  0  0  0  0
   -1.4990   24.7230  -27.9860 C   0  0  0  0  0  0  0  0  0  0  0  0
   -1.3430   23.8960  -26.8550 C   0  0  0  0  0  0  0  0  0  0  0  0
   -0.7770   24.3930  -25.6790 C   0  0  0  0  0  0  0  0  0  0  0  0
   -0.3600   25.7230  -25.6100 C   0  0  0  0  0  0  0  0  0  0  0  0
   -0.5090   26.5590  -26.7170 C   0  0  0  0  0  0  0  0  0  0  0  0
   -1.0770   26.0720  -27.9010 C   0  0  0  0  0  0  0  0  0  0  0  0
   -1.2210   26.9460  -28.9730 O   0  0  0  0  0  0  0  0  0  0  0  0
   -5.2900   24.9090  -31.1360 C   0  0  0  0  0  0  0  0  0  0  0  0
   -6.4710   24.3340  -31.6150 C   0  0  0  0  0  0  0  0  0  0  0  0
   -7.0470   20.2480  -32.5950 C   0  0  0  0  0  0  0  0  0  0  0  0
   -2.1986   17.5637  -32.8033 H   0  0  0  0  0  0  0  0  0  0  0  0
   -1.3095   17.3575  -34.3505 H   0  0  0  0  0  0  0  0  0  0  0  0
   -2.9594   18.0677  -34.3505 H   0  0  0  0  0  0  0  0  0  0  0  0
   -2.2135   15.3136  -34.6268 H   0  0  0  0  0  0  0  0  0  0  0  0
   -3.0455   15.5011  -33.0313 H   0  0  0  0  0  0  0  0  0  0  0  0
   -4.2799   15.2440  -35.5434 H   0  0  0  0  0  0  0  0  0  0  0  0
   -5.0476   15.7854  -33.9987 H   0  0  0  0  0  0  0  0  0  0  0  0
   -3.6674   18.0415  -35.0814 H   0  0  0  0  0  0  0  0  0  0  0  0
   -4.5950   17.2858  -36.4305 H   0  0  0  0  0  0  0  0  0  0  0  0
   -6.5160   18.1500  -35.4870 H   0  0  0  0  0  0  0  0  0  0  0  0
   -8.4711   17.1567  -32.9467 H   0  0  0  0  0  0  0  0  0  0  0  0
  -10.4478   18.4148  -32.0999 H   0  0  0  0  0  0  0  0  0  0  0  0
  -10.2614   20.8433  -31.5813 H   0  0  0  0  0  0  0  0  0  0  0  0
   -6.1697   21.2285  -30.2154 H   0  0  0  0  0  0  0  0  0  0  0  0
   -4.0757   22.2621  -29.3471 H   0  0  0  0  0  0  0  0  0  0  0  0
   -1.6709   22.8470  -26.8993 H   0  0  0  0  0  0  0  0  0  0  0  0
   -0.6597   23.7349  -24.8054 H   0  0  0  0  0  0  0  0  0  0  0  0
    0.0861   26.1122  -24.6829 H   0  0  0  0  0  0  0  0  0  0  0  0
   -0.1785   27.6066  -26.6596 H   0  0  0  0  0  0  0  0  0  0  0  0
   -5.0496   25.9524  -31.3881 H   0  0  0  0  0  0  0  0  0  0  0  0
   -7.1424   24.9212  -32.2587 H   0  0  0  0  0  0  0  0  0  0  0  0
   -6.0807   20.7607  -32.7104 H   0  0  0  0  0  0  0  0  0  0  0  0
  1  2  1  0
  2  3  1  0
  3  4  1  0
  4  5  1  0
  5  6  1  0
  6  7  2  0
  6  8  1  0
  8  9  2  0
  9 10  1  0
 10 11  2  0
 11 12  1  0
 12 13  1  0
 13 14  2  0
 13 15  1  0
 15 16  2  0
 16 17  1  0
 17 18  2  0
 18 19  1  0
 19 20  1  0
 20 21  2  0
 20 22  1  0
 22 23  2  0
 23 24  1  0
 24 25  2  0
 25 26  1  0
 26 27  2  0
 27 28  1  0
 18 29  1  0
 29 30  2  0
 12 31  2  0
 31  8  1  0
 30 15  1  0
 27 22  1  0
  1 32  1  0
  1 33  1  0
  1 34  1  0
  2 35  1  0
  2 36  1  0
  3 37  1  0
  3 38  1  0
  4 39  1  0
  4 40  1  0
  5 41  1  0
  9 42  1  0
 10 43  1  0
 11 44  1  0
 16 45  1  0
 17 46  1  0
 23 47  1  0
 24 48  1  0
 25 49  1  0
 26 50  1  0
 29 51  1  0
 30 52  1  0
 31 53  1  0
M  CHG  2  19  -1  28  -1
M  END
>  <UniqueID>  (11) 
11

>  <SMILES>  (11) 
CCCCNC(=O)c1cccc(C(=O)c2ccc([N-]C(=O)c3ccccc3[O-])cc2)c1

>  <Energy>  (11) 
61.052005155173944

>  <Genealogy>  (11) 
CCCCNC(=O)c1cccc(C(=O)c2ccc([N-]C(=O)c3ccccc3[O-])cc2)c1 (protonated)
CCCCNC(=O)c1cccc(C(=O)c2ccc([N-]C(=O)c3ccccc3[O-])cc2)c1 (3D coordinates assigned)
CCCCNC(=O)c1cccc(C(=O)c2ccc([N-]C(=O)c3ccccc3[O-])cc2)c1 (optimized conformer: 61.052005155173944 kcal/mol)

>  <smiles>  (11) 
CCCCNC(=O)c1cccc(C(=O)c2ccc(NC(=O)c3ccccc3O)cc2)c1

>  <score_type>  (11) 
oracle

>  <origin>  (11) 
adgpu

>  <m_score__min__energy>  (11) 
-13.73

>  <m_primary>  (11) 
energy

$$$$
11:0
     RDKit          3D

 45 47  0  0  0  0  0  0  0  0999 V2000
   -5.5290   23.4800  -29.7260 O   0  0  0  0  0  0  0  0  0  0  0  0
   -4.8630   23.7190  -31.0520 S   0  0  0  0  0  0  0  0  0  0  0  0
   -4.4740   25.1690  -31.1390 O   0  0  0  0  0  0  0  0  0  0  0  0
   -5.9670   23.3310  -32.3300 N   0  0  0  0  0  0  0  0  0  0  0  0
   -7.0960   22.4740  -32.1100 C   0  0  0  0  0  0  0  0  0  0  0  0
   -8.3920   23.0000  -31.9820 C   0  0  0  0  0  0  0  0  0  0  0  0
   -9.4850   22.1460  -31.8130 C   0  0  0  0  0  0  0  0  0  0  0  0
   -9.2950   20.7630  -31.7850 C   0  0  0  0  0  0  0  0  0  0  0  0
   -8.0080   20.2250  -31.9220 C   0  0  0  0  0  0  0  0  0  0  0  0
   -7.7730   18.4780  -31.9530 S   0  0  0  0  0  0  0  0  0  0  0  0
   -9.0900   17.8050  -31.6840 O   0  0  0  0  0  0  0  0  0  0  0  0
   -6.8250   18.0860  -30.8540 O   0  0  0  0  0  0  0  0  0  0  0  0
   -7.1460   17.9210  -33.4900 N   0  0  0  0  0  0  0  0  0  0  0  0
   -6.7830   16.4880  -33.4870 C   0  0  0  0  0  0  0  0  0  0  0  0
   -5.3570   16.1980  -32.9750 C   0  0  0  0  0  0  0  0  0  0  0  0
   -4.3460   17.3100  -33.2830 C   0  0  0  0  0  0  0  0  0  0  0  0
   -4.8170   18.1830  -34.4400 C   0  0  0  0  0  0  0  0  0  0  0  0
   -6.1540   18.8480  -34.0850 C   0  0  0  0  0  0  0  0  0  0  0  0
   -6.9090   21.0860  -32.0480 C   0  0  0  0  0  0  0  0  0  0  0  0
   -3.4470   22.6800  -31.1750 C   0  0  0  0  0  0  0  0  0  0  0  0
   -2.4610   22.6890  -30.1780 C   0  0  0  0  0  0  0  0  0  0  0  0
   -1.3190   21.8940  -30.3110 C   0  0  0  0  0  0  0  0  0  0  0  0
   -1.1580   21.0820  -31.4370 C   0  0  0  0  0  0  0  0  0  0  0  0
   -2.1380   21.0680  -32.4350 C   0  0  0  0  0  0  0  0  0  0  0  0
   -1.9380   20.0440  -33.8450 Cl  0  0  0  0  0  0  0  0  0  0  0  0
   -3.2770   21.8710  -32.3080 C   0  0  0  0  0  0  0  0  0  0  0  0
   -5.9560   23.9460  -33.1730 H   0  0  0  0  0  0  0  0  0  0  0  0
   -8.5472   24.0885  -32.0149 H   0  0  0  0  0  0  0  0  0  0  0  0
  -10.4965   22.5638  -31.7019 H   0  0  0  0  0  0  0  0  0  0  0  0
  -10.1581   20.0935  -31.6550 H   0  0  0  0  0  0  0  0  0  0  0  0
   -7.4963   15.9528  -32.8429 H   0  0  0  0  0  0  0  0  0  0  0  0
   -6.8178   16.1509  -34.5335 H   0  0  0  0  0  0  0  0  0  0  0  0
   -5.4017   16.0634  -31.8842 H   0  0  0  0  0  0  0  0  0  0  0  0
   -5.0078   15.2959  -33.4988 H   0  0  0  0  0  0  0  0  0  0  0  0
   -4.2206   17.9379  -32.3885 H   0  0  0  0  0  0  0  0  0  0  0  0
   -3.3920   16.8422  -33.5676 H   0  0  0  0  0  0  0  0  0  0  0  0
   -4.0649   18.9606  -34.6393 H   0  0  0  0  0  0  0  0  0  0  0  0
   -4.9514   17.5563  -35.3340 H   0  0  0  0  0  0  0  0  0  0  0  0
   -5.9586   19.6556  -33.3642 H   0  0  0  0  0  0  0  0  0  0  0  0
   -6.5867   19.2179  -35.0262 H   0  0  0  0  0  0  0  0  0  0  0  0
   -5.8922   20.6694  -32.0986 H   0  0  0  0  0  0  0  0  0  0  0  0
   -2.5866   23.3237  -29.2884 H   0  0  0  0  0  0  0  0  0  0  0  0
   -0.5461   21.9075  -29.5284 H   0  0  0  0  0  0  0  0  0  0  0  0
   -0.2607   20.4539  -31.5384 H   0  0  0  0  0  0  0  0  0  0  0  0
   -4.0413   21.8677  -33.0991 H   0  0  0  0  0  0  0  0  0  0  0  0
  1  2  2  0
  2  3  2  0
  2  4  1  0
  4  5  1  0
  5  6  2  0
  6  7  1  0
  7  8  2  0
  8  9  1  0
  9 10  1  0
 10 11  2  0
 10 12  2  0
 10 13  1  0
 13 14  1  0
 14 15  1  0
 15 16  1  0
 16 17  1  0
 17 18  1  0
  9 19  2  0
  2 20  1  0
 20 21  2  0
 21 22  1  0
 22 23  2  0
 23 24  1  0
 24 25  1  0
 24 26  2  0
 19  5  1  0
 26 20  1  0
 18 13  1  0
  4 27  1  0
  6 28  1  0
  7 29  1  0
  8 30  1  0
 14 31  1  0
 14 32  1  0
 15 33  1  0
 15 34  1  0
 16 35  1  0
 16 36  1  0
 17 37  1  0
 17 38  1  0
 18 39  1  0
 18 40  1  0
 19 41  1  0
 21 42  1  0
 22 43  1  0
 23 44  1  0
 26 45  1  0
M  END
>  <UniqueID>  (12) 
12

>  <SMILES>  (12) 
O=S(=O)(Nc1cccc(S(=O)(=O)N2CCCCC2)c1)c1cccc(Cl)c1

>  <Energy>  (12) 
53.83768469303146

>  <Genealogy>  (12) 
O=S(=O)(Nc1cccc(S(=O)(=O)N2CCCCC2)c1)c1cccc(Cl)c1 (3D coordinates assigned)
O=S(=O)(Nc1cccc(S(=O)(=O)N2CCCCC2)c1)c1cccc(Cl)c1 (nonaromatic ring conformer: 53.83768469303146 kcal/mol)

>  <smiles>  (12) 
O=S(=O)(Nc1cccc(S(=O)(=O)N2CCCCC2)c1)c1cccc(Cl)c1

>  <score_type>  (12) 
oracle

>  <origin>  (12) 
adgpu

>  <m_score__min__energy>  (12) 
-10.539999999999999

>  <m_primary>  (12) 
energy

$$$$
12:0
     RDKit          3D

 40 43  0  0  0  0  0  0  0  0999 V2000
   -7.6825   10.6992  -35.3990 H   0  0  0  0  0  0  0  0  0  0  0  0
   -7.0530   11.5520  -35.1050 C   0  0  0  0  0  0  0  0  0  0  0  0
   -7.5520   13.1520  -34.9950 S   0  0  0  0  0  0  0  0  0  0  0  0
   -6.0670   13.7810  -34.5100 C   0  0  0  0  0  0  0  0  0  0  0  0
   -5.7960   15.1990  -34.2260 C   0  0  0  0  0  0  0  0  0  0  0  0
   -6.8540   16.2530  -33.4530 S   0  0  0  0  0  0  0  0  0  0  0  0
   -5.8580   17.6140  -33.5110 C   0  0  0  0  0  0  0  0  0  0  0  0
   -6.2000   18.9570  -32.9770 C   0  0  0  0  0  0  0  0  0  0  0  0
   -5.1910   19.9150  -32.7640 C   0  0  0  0  0  0  0  0  0  0  0  0
   -4.1450   19.6646  -32.9947 H   0  0  0  0  0  0  0  0  0  0  0  0
   -5.5050   21.1820  -32.2620 C   0  0  0  0  0  0  0  0  0  0  0  0
   -4.7060   21.9208  -32.1015 H   0  0  0  0  0  0  0  0  0  0  0  0
   -6.8310   21.5140  -31.9630 C   0  0  0  0  0  0  0  0  0  0  0  0
   -7.2260   23.1150  -31.3480 S   0  0  0  0  0  0  0  0  0  0  0  0
   -8.3770   23.6830  -32.1310 O   0  0  0  0  0  0  0  0  0  0  0  0
   -7.6140   23.0150  -29.9000 O   0  0  0  0  0  0  0  0  0  0  0  0
   -5.8360   24.1380  -31.5190 N   0  0  0  0  0  0  0  0  0  0  0  0
   -4.9360   24.3060  -30.5970 C   0  0  0  0  0  0  0  0  0  0  0  0
   -4.9070   23.7230  -29.3420 C   0  0  0  0  0  0  0  0  0  0  0  0
   -5.6264   23.0204  -28.8962 H   0  0  0  0  0  0  0  0  0  0  0  0
   -3.7510   24.2410  -28.7860 C   0  0  0  0  0  0  0  0  0  0  0  0
   -3.2120   23.9300  -27.4310 C   0  0  0  0  0  0  0  0  0  0  0  0
   -3.8958   24.3245  -26.6650 H   0  0  0  0  0  0  0  0  0  0  0  0
   -3.1202   22.8401  -27.3142 H   0  0  0  0  0  0  0  0  0  0  0  0
   -2.2224   24.3960  -27.3142 H   0  0  0  0  0  0  0  0  0  0  0  0
   -3.1710   25.0430  -29.6520 O   0  0  0  0  0  0  0  0  0  0  0  0
   -3.8650   25.1020  -30.7500 N   0  0  0  0  0  0  0  0  0  0  0  0
   -3.6140   25.6710  -31.5900 H   0  0  0  0  0  0  0  0  0  0  0  0
   -7.8440   20.5740  -32.1830 C   0  0  0  0  0  0  0  0  0  0  0  0
   -8.8896   20.8337  -31.9609 H   0  0  0  0  0  0  0  0  0  0  0  0
   -7.5330   19.3060  -32.6840 C   0  0  0  0  0  0  0  0  0  0  0  0
   -8.3370   18.5740  -32.8509 H   0  0  0  0  0  0  0  0  0  0  0  0
   -4.6720   17.2430  -34.1490 C   0  0  0  0  0  0  0  0  0  0  0  0
   -3.8402   17.9414  -34.3235 H   0  0  0  0  0  0  0  0  0  0  0  0
   -4.6390   15.9010  -34.5460 C   0  0  0  0  0  0  0  0  0  0  0  0
   -3.7805   15.4456  -35.0614 H   0  0  0  0  0  0  0  0  0  0  0  0
   -5.1550   12.7330  -34.4280 C   0  0  0  0  0  0  0  0  0  0  0  0
   -4.1043   12.8670  -34.1313 H   0  0  0  0  0  0  0  0  0  0  0  0
   -5.7090   11.4910  -34.7610 C   0  0  0  0  0  0  0  0  0  0  0  0
   -5.1331   10.5539  -34.7511 H   0  0  0  0  0  0  0  0  0  0  0  0
  1  2  1  0
  2  3  1  0
  3  4  1  0
  4  5  1  0
  5  6  1  0
  6  7  1  0
  7  8  1  0
  8  9  2  0
  9 10  1  0
  9 11  1  0
 11 12  1  0
 11 13  2  0
 13 14  1  0
 14 15  2  0
 14 16  2  0
 14 17  1  0
 17 18  2  0
 18 19  1  0
 19 20  1  0
 19 21  2  0
 21 22  1  0
 22 23  1  0
 22 24  1  0
 22 25  1  0
 21 26  1  0
 26 27  1  0
 27 28  1  0
 13 29  1  0
 29 30  1  0
 29 31  2  0
 31 32  1  0
  7 33  2  0
 33 34  1  0
 33 35  1  0
 35 36  1  0
  4 37  2  0
 37 38  1  0
 37 39  1  0
 39 40  1  0
 39  2  2  0
 35  5  2  0
 31  8  1  0
 27 18  1  0
M  END
>  <UniqueID>  (13) 
13

>  <SMILES>  (13) 
Cc1c/c(=N\S(=O)(=O)c2ccc(-c3ccc(-c4cccs4)s3)cc2)[nH]o1

>  <Energy>  (13) 
133.54821038990497

>  <Genealogy>  (13) 
Cc1c/c(=N\S(=O)(=O)c2ccc(-c3ccc(-c4cccs4)s3)cc2)[nH]o1 (cis-trans isomerization)
Cc1c/c(=N\S(=O)(=O)c2ccc(-c3ccc(-c4cccs4)s3)cc2)[nH]o1 (3D coordinates assigned)
Cc1c/c(=N\S(=O)(=O)c2ccc(-c3ccc(-c4cccs4)s3)cc2)[nH]o1 (optimized conformer: 133.54821038990497 kcal/mol)

>  <smiles>  (13) 
Cc1cc(=NS(=O)(=O)c2ccc(-c3ccc(-c4cccs4)s3)cc2)[nH]o1

>  <score_type>  (13) 
oracle

>  <origin>  (13) 
adgpu

>  <m_score__min__energy>  (13) 
-10

>  <m_primary>  (13) 
energy

$$$$
13:0
     RDKit          3D

 40 42  0  0  0  0  0  0  0  0999 V2000
   -4.8860   20.0460  -33.1000 C   0  0  0  0  0  0  0  0  0  0  0  0
   -5.8660   20.8370  -32.2780 C   0  0  0  0  0  0  0  0  0  0  0  0
   -7.2450   20.6860  -32.5100 C   0  0  0  0  0  0  0  0  0  0  0  0
   -8.1740   21.4090  -31.7570 C   0  0  0  0  0  0  0  0  0  0  0  0
   -9.8910   21.2140  -32.0600 Cl  0  0  0  0  0  0  0  0  0  0  0  0
   -7.7360   22.2790  -30.7580 C   0  0  0  0  0  0  0  0  0  0  0  0
   -6.3710   22.4310  -30.5100 C   0  0  0  0  0  0  0  0  0  0  0  0
   -5.4230   21.7250  -31.2710 C   0  0  0  0  0  0  0  0  0  0  0  0
   -4.0190   21.8580  -30.9850 N   0  0  0  0  0  0  0  0  0  0  0  0
   -3.3600   23.1230  -30.8000 C   0  0  0  0  0  0  0  0  0  0  0  0
   -4.0150   24.1980  -30.8680 O   0  0  0  0  0  0  0  0  0  0  0  0
   -1.9600   23.1870  -30.5020 N   0  0  0  0  0  0  0  0  0  0  0  0
   -1.3860   23.2870  -29.1920 C   0  0  0  0  0  0  0  0  0  0  0  0
   -0.9300   22.1490  -28.5130 C   0  0  0  0  0  0  0  0  0  0  0  0
   -0.3350   22.2700  -27.2600 C   0  0  0  0  0  0  0  0  0  0  0  0
   -0.1780   23.5260  -26.6660 C   0  0  0  0  0  0  0  0  0  0  0  0
    0.6370   23.5920  -25.1070 Cl  0  0  0  0  0  0  0  0  0  0  0  0
   -0.6230   24.6870  -27.3390 C   0  0  0  0  0  0  0  0  0  0  0  0
   -0.4190   26.2950  -26.6030 S   0  0  0  0  0  0  0  0  0  0  0  0
    1.0190   26.5140  -26.2190 O   0  0  0  0  0  0  0  0  0  0  0  0
   -0.7770   27.3480  -27.6130 O   0  0  0  0  0  0  0  0  0  0  0  0
   -1.4320   26.5370  -25.1410 C   0  0  0  0  0  0  0  0  0  0  0  0
   -0.8620   27.5560  -24.1670 C   0  0  0  0  0  0  0  0  0  0  0  0
   -0.8550   26.0800  -23.8090 C   0  0  0  0  0  0  0  0  0  0  0  0
   -1.2060   24.5540  -28.6180 C   0  0  0  0  0  0  0  0  0  0  0  0
   -1.6100   25.6770  -29.3340 O   0  0  0  0  0  0  0  0  0  0  0  0
   -4.2060   19.4971  -32.4319 H   0  0  0  0  0  0  0  0  0  0  0  0
   -5.4317   19.3323  -33.7346 H   0  0  0  0  0  0  0  0  0  0  0  0
   -4.3035   20.7300  -33.7346 H   0  0  0  0  0  0  0  0  0  0  0  0
   -7.5948   19.9937  -33.2899 H   0  0  0  0  0  0  0  0  0  0  0  0
   -8.4681   22.8463  -30.1646 H   0  0  0  0  0  0  0  0  0  0  0  0
   -6.0340   23.1091  -29.7121 H   0  0  0  0  0  0  0  0  0  0  0  0
   -3.4490   20.9850  -30.9290 H   0  0  0  0  0  0  0  0  0  0  0  0
   -1.0427   21.1557  -28.9720 H   0  0  0  0  0  0  0  0  0  0  0  0
    0.0145   21.3699  -26.7330 H   0  0  0  0  0  0  0  0  0  0  0  0
   -2.3913   26.3660  -25.6514 H   0  0  0  0  0  0  0  0  0  0  0  0
    0.0825   28.0699  -24.3991 H   0  0  0  0  0  0  0  0  0  0  0  0
   -1.2420   28.4703  -23.6877 H   0  0  0  0  0  0  0  0  0  0  0  0
    0.0944   25.5250  -23.7823 H   0  0  0  0  0  0  0  0  0  0  0  0
   -1.2278   25.4829  -22.9637 H   0  0  0  0  0  0  0  0  0  0  0  0
  1  2  1  0
  2  3  2  0
  3  4  1  0
  4  5  1  0
  4  6  2  0
  6  7  1  0
  7  8  2  0
  8  9  1  0
  9 10  1  0
 10 11  2  0
 10 12  1  0
 12 13  1  0
 13 14  2  0
 14 15  1  0
 15 16  2  0
 16 17  1  0
 16 18  1  0
 18 19  1  0
 19 20  2  0
 19 21  2  0
 19 22  1  0
 22 23  1  0
 23 24  1  0
 18 25  2  0
 25 26  1  0
  8  2  1  0
 25 13  1  0
 24 22  1  0
  1 27  1  0
  1 28  1  0
  1 29  1  0
  3 30  1  0
  6 31  1  0
  7 32  1  0
  9 33  1  0
 14 34  1  0
 15 35  1  0
 22 36  1  0
 23 37  1  0
 23 38  1  0
 24 39  1  0
 24 40  1  0
M  CHG  2  12  -1  26  -1
M  END
>  <UniqueID>  (14) 
14

>  <SMILES>  (14) 
Cc1cc(Cl)ccc1NC(=O)[N-]c1ccc(Cl)c(S(=O)(=O)C2CC2)c1[O-]

>  <Energy>  (14) 
316.79056694116605

>  <Genealogy>  (14) 
Cc1cc(Cl)ccc1NC(=O)[N-]c1ccc(Cl)c(S(=O)(=O)C2CC2)c1[O-] (protonated)
Cc1cc(Cl)ccc1NC(=O)[N-]c1ccc(Cl)c(S(=O)(=O)C2CC2)c1[O-] (3D coordinates assigned)
Cc1cc(Cl)ccc1NC(=O)[N-]c1ccc(Cl)c(S(=O)(=O)C2CC2)c1[O-] (nonaromatic ring conformer: 316.79056694116605 kcal/mol)

>  <smiles>  (14) 
Cc1cc(Cl)ccc1NC(=O)Nc1ccc(Cl)c(S(=O)(=O)C2CC2)c1O

>  <score_type>  (14) 
oracle

>  <origin>  (14) 
adgpu

>  <m_score__min__energy>  (14) 
-13.43

>  <m_primary>  (14) 
energy

$$$$
14:0
     RDKit          3D

 40 41  0  0  0  0  0  0  0  0999 V2000
   -6.0750   18.6990  -34.2350 C   0  0  0  0  0  0  0  0  0  0  0  0
   -5.4710   19.9010  -33.5140 C   0  0  0  0  0  0  0  0  0  0  0  0
   -6.0670   20.1120  -32.1200 C   0  0  0  0  0  0  0  0  0  0  0  0
   -7.2170   21.0250  -32.1480 N   0  0  0  0  0  0  0  0  0  0  0  0
   -8.5280   20.7190  -32.0330 C   0  0  0  0  0  0  0  0  0  0  0  0
   -9.0850   19.3340  -31.9400 C   0  0  0  0  0  0  0  0  0  0  0  0
   -9.2830   21.8270  -31.9100 N   0  0  0  0  0  0  0  0  0  0  0  0
   -8.4610   22.8640  -31.9520 N   0  0  0  0  0  0  0  0  0  0  0  0
   -7.2170   22.3740  -32.1080 C   0  0  0  0  0  0  0  0  0  0  0  0
   -5.7490   23.4120  -32.1450 S   0  0  0  0  0  0  0  0  0  0  0  0
   -6.3180   24.5680  -30.8460 C   0  0  0  0  0  0  0  0  0  0  0  0
   -5.2740   25.6010  -30.5290 C   0  0  0  0  0  0  0  0  0  0  0  0
   -5.6290   26.8020  -30.3890 O   0  0  0  0  0  0  0  0  0  0  0  0
   -3.8780   25.2830  -30.4640 N   0  0  0  0  0  0  0  0  0  0  0  0
   -3.3030   24.1860  -29.7470 C   0  0  0  0  0  0  0  0  0  0  0  0
   -2.7750   23.0760  -30.4210 C   0  0  0  0  0  0  0  0  0  0  0  0
   -2.2370   22.0060  -29.7020 C   0  0  0  0  0  0  0  0  0  0  0  0
   -2.2500   22.0190  -28.2980 C   0  0  0  0  0  0  0  0  0  0  0  0
   -1.6360   20.8910  -27.5240 C   0  0  0  0  0  0  0  0  0  0  0  0
   -2.7930   23.1240  -27.6250 C   0  0  0  0  0  0  0  0  0  0  0  0
   -3.3330   24.1930  -28.3480 C   0  0  0  0  0  0  0  0  0  0  0  0
   -6.4401   17.9725  -33.4941 H   0  0  0  0  0  0  0  0  0  0  0  0
   -6.9126   19.0324  -34.8653 H   0  0  0  0  0  0  0  0  0  0  0  0
   -5.3076   18.2258  -34.8653 H   0  0  0  0  0  0  0  0  0  0  0  0
   -4.3870   19.7433  -33.4135 H   0  0  0  0  0  0  0  0  0  0  0  0
   -5.6971   20.7962  -34.1119 H   0  0  0  0  0  0  0  0  0  0  0  0
   -6.3943   19.1400  -31.7224 H   0  0  0  0  0  0  0  0  0  0  0  0
   -5.2912   20.5607  -31.4822 H   0  0  0  0  0  0  0  0  0  0  0  0
   -9.1975   19.0543  -30.8821 H   0  0  0  0  0  0  0  0  0  0  0  0
  -10.0669   19.2997  -32.4347 H   0  0  0  0  0  0  0  0  0  0  0  0
   -8.4003   18.6294  -32.4347 H   0  0  0  0  0  0  0  0  0  0  0  0
   -7.2290   25.0765  -31.1947 H   0  0  0  0  0  0  0  0  0  0  0  0
   -6.5169   23.9883  -29.9326 H   0  0  0  0  0  0  0  0  0  0  0  0
   -2.7844   23.0475  -31.5206 H   0  0  0  0  0  0  0  0  0  0  0  0
   -1.8014   21.1498  -30.2379 H   0  0  0  0  0  0  0  0  0  0  0  0
   -1.7418   21.0854  -26.4465 H   0  0  0  0  0  0  0  0  0  0  0  0
   -2.1467   19.9507  -27.7789 H   0  0  0  0  0  0  0  0  0  0  0  0
   -0.5690   20.8095  -27.7789 H   0  0  0  0  0  0  0  0  0  0  0  0
   -2.7941   23.1498  -26.5253 H   0  0  0  0  0  0  0  0  0  0  0  0
   -3.7833   25.0430  -27.8143 H   0  0  0  0  0  0  0  0  0  0  0  0
  1  2  1  0
  2  3  1  0
  3  4  1  0
  4  5  1  0
  5  6  1  0
  5  7  2  0
  7  8  1  0
  8  9  2  0
  9 10  1  0
 10 11  1  0
 11 12  1  0
 12 13  2  0
 12 14  1  0
 14 15  1  0
 15 16  2  0
 16 17  1  0
 17 18  2  0
 18 19  1  0
 18 20  1  0
 20 21  2  0
  9  4  1  0
 21 15  1  0
  1 22  1  0
  1 23  1  0
  1 24  1  0
  2 25  1  0
  2 26  1  0
  3 27  1  0
  3 28  1  0
  6 29  1  0
  6 30  1  0
  6 31  1  0
 11 32  1  0
 11 33  1  0
 16 34  1  0
 17 35  1  0
 19 36  1  0
 19 37  1  0
 19 38  1  0
 20 39  1  0
 21 40  1  0
M  CHG  1  14  -1
M  END
>  <UniqueID>  (15) 
15

>  <SMILES>  (15) 
CCCn1c(C)nnc1SCC(=O)[N-]c1ccc(C)cc1

>  <Energy>  (15) 
69.84394883678075

>  <Genealogy>  (15) 
CCCn1c(C)nnc1SCC(=O)[N-]c1ccc(C)cc1 (protonated)
CCCn1c(C)nnc1SCC(=O)[N-]c1ccc(C)cc1 (3D coordinates assigned)
CCCn1c(C)nnc1SCC(=O)[N-]c1ccc(C)cc1 (optimized conformer: 69.84394883678075 kcal/mol)

>  <smiles>  (15) 
CCCn1c(C)nnc1SCC(=O)Nc1ccc(C)cc1

>  <score_type>  (15) 
oracle

>  <origin>  (15) 
adgpu

>  <m_score__min__energy>  (15) 
-9.4000000000000004

>  <m_primary>  (15) 
energy

$$$$
15:0
     RDKit          3D

 34 35  0  0  0  0  0  0  0  0999 V2000
    2.8910   18.8810  -37.9180 C   0  0  0  0  0  0  0  0  0  0  0  0
    2.2650   19.8280  -37.0020 N   0  0  0  0  0  0  0  0  0  0  0  0
    1.1630   19.6000  -36.2550 C   0  0  0  0  0  0  0  0  0  0  0  0
    0.7990   20.7620  -35.5840 C   0  0  0  0  0  0  0  0  0  0  0  0
   -0.3730   20.9780  -34.7080 C   0  0  0  0  0  0  0  0  0  0  0  0
   -0.5730   22.1300  -34.2420 O   0  0  0  0  0  0  0  0  0  0  0  0
   -1.2710   19.9260  -34.3310 N   0  0  0  0  0  0  0  0  0  0  0  0
   -1.6390   19.5610  -32.9690 C   0  0  0  0  0  0  0  0  0  0  0  0
   -2.0890   20.7890  -32.2320 C   0  0  0  0  0  0  0  0  0  0  0  0
   -3.3890   21.2870  -32.4160 C   0  0  0  0  0  0  0  0  0  0  0  0
   -3.8200   22.4110  -31.7040 C   0  0  0  0  0  0  0  0  0  0  0  0
   -2.9640   23.0380  -30.7900 C   0  0  0  0  0  0  0  0  0  0  0  0
   -3.5080   24.4580  -29.9040 S   0  0  0  0  0  0  0  0  0  0  0  0
   -2.1450   25.2870  -29.2370 N   0  0  0  0  0  0  0  0  0  0  0  0
   -4.4300   24.0340  -28.7970 O   0  0  0  0  0  0  0  0  0  0  0  0
   -4.2340   25.3930  -30.8300 O   0  0  0  0  0  0  0  0  0  0  0  0
   -1.6690   22.5370  -30.5980 C   0  0  0  0  0  0  0  0  0  0  0  0
   -1.2360   21.4140  -31.3080 C   0  0  0  0  0  0  0  0  0  0  0  0
    1.7050   21.7290  -35.9810 C   0  0  0  0  0  0  0  0  0  0  0  0
    1.7170   23.0630  -35.5830 O   0  0  0  0  0  0  0  0  0  0  0  0
    2.5860   21.1250  -36.8480 C   0  0  0  0  0  0  0  0  0  0  0  0
    3.6460   21.7530  -37.4920 O   0  0  0  0  0  0  0  0  0  0  0  0
    3.4075   18.0997  -37.3411 H   0  0  0  0  0  0  0  0  0  0  0  0
    2.1195   18.4193  -38.5518 H   0  0  0  0  0  0  0  0  0  0  0  0
    3.6180   19.4099  -38.5518 H   0  0  0  0  0  0  0  0  0  0  0  0
    0.6328   18.6386  -36.1876 H   0  0  0  0  0  0  0  0  0  0  0  0
   -2.4574   18.8264  -32.9936 H   0  0  0  0  0  0  0  0  0  0  0  0
   -0.7703   19.1211  -32.4573 H   0  0  0  0  0  0  0  0  0  0  0  0
   -4.0708   20.7913  -33.1227 H   0  0  0  0  0  0  0  0  0  0  0  0
   -4.8351   22.8040  -31.8625 H   0  0  0  0  0  0  0  0  0  0  0  0
   -1.5960   25.6680  -30.0400 H   0  0  0  0  0  0  0  0  0  0  0  0
   -0.9910   23.0298  -29.8856 H   0  0  0  0  0  0  0  0  0  0  0  0
   -0.2232   21.0181  -31.1425 H   0  0  0  0  0  0  0  0  0  0  0  0
    0.9950   23.4320  -34.9770 H   0  0  0  0  0  0  0  0  0  0  0  0
  1  2  1  0
  2  3  1  0
  3  4  2  0
  4  5  1  0
  5  6  2  0
  5  7  1  0
  7  8  1  0
  8  9  1  0
  9 10  2  0
 10 11  1  0
 11 12  2  0
 12 13  1  0
 13 14  1  0
 13 15  2  0
 13 16  2  0
 12 17  1  0
 17 18  2  0
  4 19  1  0
 19 20  1  0
 19 21  2  0
 21 22  1  0
 21  2  1  0
 18  9  1  0
  1 23  1  0
  1 24  1  0
  1 25  1  0
  3 26  1  0
  8 27  1  0
  8 28  1  0
 10 29  1  0
 11 30  1  0
 14 31  1  0
 17 32  1  0
 18 33  1  0
 20 34  1  0
M  CHG  3   7  -1  14  -1  22  -1
M  END
>  <UniqueID>  (16) 
16

>  <SMILES>  (16) 
Cn1cc(C(=O)[N-]Cc2ccc(S([NH-])(=O)=O)cc2)c(O)c1[O-]

>  <Energy>  (16) 
63.435647089179405

>  <Genealogy>  (16) 
Cn1cc(C(=O)[N-]Cc2ccc(S([NH-])(=O)=O)cc2)c(O)c1[O-] (protonated)
Cn1cc(C(=O)[N-]Cc2ccc(S([NH-])(=O)=O)cc2)c(O)c1[O-] (3D coordinates assigned)
Cn1cc(C(=O)[N-]Cc2ccc(S([NH-])(=O)=O)cc2)c(O)c1[O-] (optimized conformer: 63.435647089179405 kcal/mol)

>  <smiles>  (16) 
Cn1cc(C(=O)NCc2ccc(S(N)(=O)=O)cc2)c(O)c1O

>  <score_type>  (16) 
oracle

>  <origin>  (16) 
adgpu

>  <m_score__min__energy>  (16) 
-10.949999999999999

>  <m_primary>  (16) 
energy

$$$$
16:0
     RDKit          3D

 46 48  0  0  0  0  0  0  0  0999 V2000
   -0.1340   23.0600  -24.3160 C   0  0  0  0  0  0  0  0  0  0  0  0
   -0.6310   23.9460  -25.3130 O   0  0  0  0  0  0  0  0  0  0  0  0
   -0.6330   25.3460  -25.2070 C   0  0  0  0  0  0  0  0  0  0  0  0
   -0.4830   25.9970  -23.9650 C   0  0  0  0  0  0  0  0  0  0  0  0
   -0.4860   27.3910  -23.8930 C   0  0  0  0  0  0  0  0  0  0  0  0
   -0.6360   28.1530  -25.0540 C   0  0  0  0  0  0  0  0  0  0  0  0
   -0.6370   29.9050  -24.9590 Cl  0  0  0  0  0  0  0  0  0  0  0  0
   -0.7860   27.5200  -26.2900 C   0  0  0  0  0  0  0  0  0  0  0  0
   -0.7890   26.1180  -26.3750 C   0  0  0  0  0  0  0  0  0  0  0  0
   -0.9720   25.3290  -27.9430 S   0  0  0  0  0  0  0  0  0  0  0  0
   -1.1480   26.3860  -28.9970 O   0  0  0  0  0  0  0  0  0  0  0  0
    0.2590   24.5120  -28.2200 O   0  0  0  0  0  0  0  0  0  0  0  0
   -2.3600   24.2880  -27.9240 N   0  0  0  0  0  0  0  0  0  0  0  0
   -2.8560   23.4480  -28.9800 C   0  0  0  0  0  0  0  0  0  0  0  0
   -2.7990   22.0640  -28.7790 C   0  0  0  0  0  0  0  0  0  0  0  0
   -3.2560   21.1770  -29.7550 C   0  0  0  0  0  0  0  0  0  0  0  0
   -3.7880   21.6570  -30.9600 C   0  0  0  0  0  0  0  0  0  0  0  0
   -4.2530   20.7170  -31.9470 N   0  0  0  0  0  0  0  0  0  0  0  0
   -5.3440   21.0060  -32.8810 C   0  0  0  0  0  0  0  0  0  0  0  0
   -6.5570   20.1630  -32.5690 C   0  0  0  0  0  0  0  0  0  0  0  0
   -7.8320   20.7560  -32.5980 C   0  0  0  0  0  0  0  0  0  0  0  0
   -8.9730   20.0000  -32.3200 C   0  0  0  0  0  0  0  0  0  0  0  0
   -8.8570   18.6440  -32.0170 C   0  0  0  0  0  0  0  0  0  0  0  0
   -7.5990   18.0370  -31.9970 C   0  0  0  0  0  0  0  0  0  0  0  0
   -6.4470   18.7800  -32.2780 C   0  0  0  0  0  0  0  0  0  0  0  0
   -5.2160   18.1200  -32.2650 O   0  0  0  0  0  0  0  0  0  0  0  0
   -3.8510   23.0470  -31.1680 C   0  0  0  0  0  0  0  0  0  0  0  0
   -3.3940   23.9390  -30.1920 C   0  0  0  0  0  0  0  0  0  0  0  0
   -3.4920   25.3000  -30.4520 O   0  0  0  0  0  0  0  0  0  0  0  0
   -0.3614   23.4653  -23.3190 H   0  0  0  0  0  0  0  0  0  0  0  0
   -0.6116   22.0756  -24.4293 H   0  0  0  0  0  0  0  0  0  0  0  0
    0.9550   22.9544  -24.4293 H   0  0  0  0  0  0  0  0  0  0  0  0
   -0.3629   25.4025  -23.0473 H   0  0  0  0  0  0  0  0  0  0  0  0
   -0.3700   27.8905  -22.9199 H   0  0  0  0  0  0  0  0  0  0  0  0
   -0.9025   28.1232  -27.2025 H   0  0  0  0  0  0  0  0  0  0  0  0
   -2.3880   21.6695  -27.8380 H   0  0  0  0  0  0  0  0  0  0  0  0
   -3.1983   20.0930  -29.5773 H   0  0  0  0  0  0  0  0  0  0  0  0
   -3.7870   19.7820  -31.9930 H   0  0  0  0  0  0  0  0  0  0  0  0
   -5.6141   22.0693  -32.8015 H   0  0  0  0  0  0  0  0  0  0  0  0
   -5.0054   20.7712  -33.9009 H   0  0  0  0  0  0  0  0  0  0  0  0
   -7.9314   21.8241  -32.8416 H   0  0  0  0  0  0  0  0  0  0  0  0
   -9.9649   20.4752  -32.3401 H   0  0  0  0  0  0  0  0  0  0  0  0
   -9.7567   18.0518  -31.7936 H   0  0  0  0  0  0  0  0  0  0  0  0
   -7.5133   16.9666  -31.7585 H   0  0  0  0  0  0  0  0  0  0  0  0
   -4.9850   17.3900  -31.6040 H   0  0  0  0  0  0  0  0  0  0  0  0
   -4.2647   23.4372  -32.1096 H   0  0  0  0  0  0  0  0  0  0  0  0
  1  2  1  0
  2  3  1  0
  3  4  2  0
  4  5  1  0
  5  6  2  0
  6  7  1  0
  6  8  1  0
  8  9  2  0
  9 10  1  0
 10 11  2  0
 10 12  2  0
 10 13  1  0
 13 14  1  0
 14 15  2  0
 15 16  1  0
 16 17  2  0
 17 18  1  0
 18 19  1  0
 19 20  1  0
 20 21  2  0
 21 22  1  0
 22 23  2  0
 23 24  1  0
 24 25  2  0
 25 26  1  0
 17 27  1  0
 27 28  2  0
 28 29  1  0
  9  3  1  0
 28 14  1  0
 25 20  1  0
  1 30  1  0
  1 31  1  0
  1 32  1  0
  4 33  1  0
  5 34  1  0
  8 35  1  0
 15 36  1  0
 16 37  1  0
 18 38  1  0
 19 39  1  0
 19 40  1  0
 21 41  1  0
 22 42  1  0
 23 43  1  0
 24 44  1  0
 26 45  1  0
 27 46  1  0
M  CHG  2  13  -1  29  -1
M  END
>  <UniqueID>  (17) 
17

>  <SMILES>  (17) 
COc1ccc(Cl)cc1S(=O)(=O)[N-]c1ccc(NCc2ccccc2O)cc1[O-]

>  <Energy>  (17) 
57.216700188319486

>  <Genealogy>  (17) 
COc1ccc(Cl)cc1S(=O)(=O)[N-]c1ccc(NCc2ccccc2O)cc1[O-] (protonated)
COc1ccc(Cl)cc1S(=O)(=O)[N-]c1ccc(NCc2ccccc2O)cc1[O-] (3D coordinates assigned)
COc1ccc(Cl)cc1S(=O)(=O)[N-]c1ccc(NCc2ccccc2O)cc1[O-] (optimized conformer: 57.216700188319486 kcal/mol)

>  <smiles>  (17) 
COc1ccc(Cl)cc1S(=O)(=O)Nc1ccc(NCc2ccccc2O)cc1O

>  <score_type>  (17) 
oracle

>  <origin>  (17) 
adgpu

>  <m_score__min__energy>  (17) 
-13.08

>  <m_primary>  (17) 
energy

$$$$
17:0
     RDKit          3D

 68 71  0  0  0  0  0  0  0  0999 V2000
   -1.7030   17.2460  -33.2050 C   0  0  0  0  0  0  0  0  0  0  0  0
   -0.6410   17.0780  -32.1250 C   0  0  0  0  0  0  0  0  0  0  0  0
   -0.0540   18.3770  -31.7770 N   0  0  0  0  0  0  0  0  0  0  0  0
    0.1530   19.3680  -32.7990 C   0  0  0  0  0  0  0  0  0  0  0  0
   -0.7660   20.4180  -32.9690 C   0  0  0  0  0  0  0  0  0  0  0  0
   -0.5600   21.3820  -33.9600 C   0  0  0  0  0  0  0  0  0  0  0  0
    0.5610   21.3020  -34.7920 C   0  0  0  0  0  0  0  0  0  0  0  0
    1.4800   20.2630  -34.6290 C   0  0  0  0  0  0  0  0  0  0  0  0
    1.2780   19.2980  -33.6360 C   0  0  0  0  0  0  0  0  0  0  0  0
    0.6370   18.6210  -30.1970 S   0  0  0  0  0  0  0  0  0  0  0  0
    0.7180   17.3080  -29.4690 O   0  0  0  0  0  0  0  0  0  0  0  0
    2.0260   19.1780  -30.3370 O   0  0  0  0  0  0  0  0  0  0  0  0
   -0.3330   19.7520  -29.2570 C   0  0  0  0  0  0  0  0  0  0  0  0
   -0.9390   19.3460  -28.0610 C   0  0  0  0  0  0  0  0  0  0  0  0
   -1.6810   20.2580  -27.3050 C   0  0  0  0  0  0  0  0  0  0  0  0
   -1.8190   21.5810  -27.7350 C   0  0  0  0  0  0  0  0  0  0  0  0
   -1.2260   21.9960  -28.9400 C   0  0  0  0  0  0  0  0  0  0  0  0
   -1.2920   23.3550  -29.3990 N   0  0  0  0  0  0  0  0  0  0  0  0
   -2.4670   24.1460  -29.6150 C   0  0  0  0  0  0  0  0  0  0  0  0
   -2.6020   25.2590  -29.0400 O   0  0  0  0  0  0  0  0  0  0  0  0
   -3.5180   23.6390  -30.5280 C   0  0  0  0  0  0  0  0  0  0  0  0
   -3.3500   22.3630  -31.0930 C   0  0  0  0  0  0  0  0  0  0  0  0
   -4.2860   21.8450  -31.9970 C   0  0  0  0  0  0  0  0  0  0  0  0
   -4.1010   20.2150  -32.6430 S   0  0  0  0  0  0  0  0  0  0  0  0
   -3.1660   19.4170  -31.7740 O   0  0  0  0  0  0  0  0  0  0  0  0
   -3.5140   20.3050  -34.0250 O   0  0  0  0  0  0  0  0  0  0  0  0
   -5.6650   19.4380  -32.7010 N   0  0  0  0  0  0  0  0  0  0  0  0
   -6.5550   20.0000  -31.6640 C   0  0  0  0  0  0  0  0  0  0  0  0
   -8.0300   20.0440  -32.1340 C   0  0  0  0  0  0  0  0  0  0  0  0
   -8.7940   18.7190  -31.9420 C   0  0  0  0  0  0  0  0  0  0  0  0
   -8.0210   17.4650  -32.4090 C   0  0  0  0  0  0  0  0  0  0  0  0
   -6.6220   17.2820  -31.7950 C   0  0  0  0  0  0  0  0  0  0  0  0
   -5.4890   17.9770  -32.5750 C   0  0  0  0  0  0  0  0  0  0  0  0
   -5.4000   22.6100  -32.3520 C   0  0  0  0  0  0  0  0  0  0  0  0
   -5.5870   23.8760  -31.7950 C   0  0  0  0  0  0  0  0  0  0  0  0
   -4.6730   24.3900  -30.8660 C   0  0  0  0  0  0  0  0  0  0  0  0
   -4.9700   25.6220  -30.2800 O   0  0  0  0  0  0  0  0  0  0  0  0
   -0.4740   21.0790  -29.6860 C   0  0  0  0  0  0  0  0  0  0  0  0
   -2.6845   17.4013  -32.7331 H   0  0  0  0  0  0  0  0  0  0  0  0
   -1.4552   18.1161  -33.8307 H   0  0  0  0  0  0  0  0  0  0  0  0
   -1.7359   16.3419  -33.8307 H   0  0  0  0  0  0  0  0  0  0  0  0
   -1.1022   16.6371  -31.2289 H   0  0  0  0  0  0  0  0  0  0  0  0
    0.1530   16.4186  -32.5054 H   0  0  0  0  0  0  0  0  0  0  0  0
   -1.6513   20.4813  -32.3192 H   0  0  0  0  0  0  0  0  0  0  0  0
   -1.2801   22.2040  -34.0854 H   0  0  0  0  0  0  0  0  0  0  0  0
    0.7192   22.0579  -35.5754 H   0  0  0  0  0  0  0  0  0  0  0  0
    2.3633   20.2032  -35.2818 H   0  0  0  0  0  0  0  0  0  0  0  0
    2.0038   18.4810  -33.5106 H   0  0  0  0  0  0  0  0  0  0  0  0
   -0.8307   18.3071  -27.7160 H   0  0  0  0  0  0  0  0  0  0  0  0
   -2.1580   19.9335  -26.3684 H   0  0  0  0  0  0  0  0  0  0  0  0
   -2.3925   22.2983  -27.1295 H   0  0  0  0  0  0  0  0  0  0  0  0
   -2.4698   21.7619  -30.8210 H   0  0  0  0  0  0  0  0  0  0  0  0
   -6.4876   19.3759  -30.7607 H   0  0  0  0  0  0  0  0  0  0  0  0
   -6.2311   21.0308  -31.4576 H   0  0  0  0  0  0  0  0  0  0  0  0
   -8.5504   20.8280  -31.5643 H   0  0  0  0  0  0  0  0  0  0  0  0
   -8.0114   20.2444  -33.2154 H   0  0  0  0  0  0  0  0  0  0  0  0
   -9.0215   18.6046  -30.8719 H   0  0  0  0  0  0  0  0  0  0  0  0
   -9.6970   18.7830  -32.5670 H   0  0  0  0  0  0  0  0  0  0  0  0
   -8.6224   16.5808  -32.1513 H   0  0  0  0  0  0  0  0  0  0  0  0
   -7.8618   17.5936  -33.4898 H   0  0  0  0  0  0  0  0  0  0  0  0
   -6.6381   17.6910  -30.7740 H   0  0  0  0  0  0  0  0  0  0  0  0
   -6.4060   16.2037  -31.8214 H   0  0  0  0  0  0  0  0  0  0  0  0
   -4.5397   17.7852  -32.0534 H   0  0  0  0  0  0  0  0  0  0  0  0
   -5.4988   17.5627  -33.5940 H   0  0  0  0  0  0  0  0  0  0  0  0
   -6.1311   22.2137  -33.0720 H   0  0  0  0  0  0  0  0  0  0  0  0
   -6.4609   24.4762  -32.0884 H   0  0  0  0  0  0  0  0  0  0  0  0
   -4.6810   25.8800  -29.3470 H   0  0  0  0  0  0  0  0  0  0  0  0
    0.0110   21.4039  -30.6183 H   0  0  0  0  0  0  0  0  0  0  0  0
  1  2  1  0
  2  3  1  0
  3  4  1  0
  4  5  2  0
  5  6  1  0
  6  7  2  0
  7  8  1  0
  8  9  2  0
  3 10  1  0
 10 11  2  0
 10 12  2  0
 10 13  1  0
 13 14  2  0
 14 15  1  0
 15 16  2  0
 16 17  1  0
 17 18  1  0
 18 19  1  0
 19 20  2  0
 19 21  1  0
 21 22  2  0
 22 23  1  0
 23 24  1  0
 24 25  2  0
 24 26  2  0
 24 27  1  0
 27 28  1  0
 28 29  1  0
 29 30  1  0
 30 31  1  0
 31 32  1  0
 32 33  1  0
 23 34  2  0
 34 35  1  0
 35 36  2  0
 36 37  1  0
 17 38  2  0
  9  4  1  0
 38 13  1  0
 36 21  1  0
 33 27  1  0
  1 39  1  0
  1 40  1  0
  1 41  1  0
  2 42  1  0
  2 43  1  0
  5 44  1  0
  6 45  1  0
  7 46  1  0
  8 47  1  0
  9 48  1  0
 14 49  1  0
 15 50  1  0
 16 51  1  0
 22 52  1  0
 28 53  1  0
 28 54  1  0
 29 55  1  0
 29 56  1  0
 30 57  1  0
 30 58  1  0
 31 59  1  0
 31 60  1  0
 32 61  1  0
 32 62  1  0
 33 63  1  0
 33 64  1  0
 34 65  1  0
 35 66  1  0
 37 67  1  0
 38 68  1  0
M  CHG  1  18  -1
M  END
>  <UniqueID>  (18) 
18

>  <SMILES>  (18) 
CCN(c1ccccc1)S(=O)(=O)c1cccc([N-]C(=O)c2cc(S(=O)(=O)N3CCCCCC3)ccc2O)c1

>  <Energy>  (18) 
90.20760420826093

>  <Genealogy>  (18) 
CCN(c1ccccc1)S(=O)(=O)c1cccc([N-]C(=O)c2cc(S(=O)(=O)N3CCCCCC3)ccc2O)c1 (protonated)
CCN(c1ccccc1)S(=O)(=O)c1cccc([N-]C(=O)c2cc(S(=O)(=O)N3CCCCCC3)ccc2O)c1 (3D coordinates assigned)
CCN(c1ccccc1)S(=O)(=O)c1cccc([N-]C(=O)c2cc(S(=O)(=O)N3CCCCCC3)ccc2O)c1 (nonaromatic ring conformer: 90.20760420826093 kcal/mol)

>  <smiles>  (18) 
CCN(c1ccccc1)S(=O)(=O)c1cccc(NC(=O)c2cc(S(=O)(=O)N3CCCCCC3)ccc2O)c1

>  <score_type>  (18) 
oracle

>  <origin>  (18) 
adgpu

>  <m_score__min__energy>  (18) 
-8.5399999999999991

>  <m_primary>  (18) 
energy

$$$$
18:0
     RDKit          3D

 44 46  0  0  0  0  0  0  0  0999 V2000
   -1.9130   25.5060  -28.9630 N   0  0  0  0  0  0  0  0  0  0  0  0
   -1.3470   25.0090  -27.7420 C   0  0  0  0  0  0  0  0  0  0  0  0
   -0.6350   25.8970  -26.9170 C   0  0  0  0  0  0  0  0  0  0  0  0
   -0.0680   25.4560  -25.7200 C   0  0  0  0  0  0  0  0  0  0  0  0
   -0.2050   24.1250  -25.3320 C   0  0  0  0  0  0  0  0  0  0  0  0
   -0.9080   23.2280  -26.1390 C   0  0  0  0  0  0  0  0  0  0  0  0
   -1.4850   23.6550  -27.3470 C   0  0  0  0  0  0  0  0  0  0  0  0
   -2.3610   22.4820  -28.3400 S   0  0  0  0  0  0  0  0  0  0  0  0
   -1.5330   21.2390  -28.5210 O   0  0  0  0  0  0  0  0  0  0  0  0
   -3.6520   22.1240  -27.6590 O   0  0  0  0  0  0  0  0  0  0  0  0
   -2.6760   23.1840  -29.8950 N   0  0  0  0  0  0  0  0  0  0  0  0
   -3.9580   23.2310  -30.5360 C   0  0  0  0  0  0  0  0  0  0  0  0
   -4.6610   22.0620  -30.8810 C   0  0  0  0  0  0  0  0  0  0  0  0
   -5.9000   22.1430  -31.5320 C   0  0  0  0  0  0  0  0  0  0  0  0
   -6.7530   20.6700  -31.9940 S   0  0  0  0  0  0  0  0  0  0  0  0
   -7.9910   20.5440  -31.1520 O   0  0  0  0  0  0  0  0  0  0  0  0
   -7.1850   20.7780  -33.4300 O   0  0  0  0  0  0  0  0  0  0  0  0
   -5.7710   19.2320  -31.7940 N   0  0  0  0  0  0  0  0  0  0  0  0
   -4.7090   19.1130  -32.8180 C   0  0  0  0  0  0  0  0  0  0  0  0
   -5.0530   18.1010  -33.9220 C   0  0  0  0  0  0  0  0  0  0  0  0
   -6.4470   18.0390  -34.1170 O   0  0  0  0  0  0  0  0  0  0  0  0
   -7.0590   17.4300  -32.9970 C   0  0  0  0  0  0  0  0  0  0  0  0
   -6.5820   18.0100  -31.6440 C   0  0  0  0  0  0  0  0  0  0  0  0
   -6.4500   23.3990  -31.8180 C   0  0  0  0  0  0  0  0  0  0  0  0
   -5.7620   24.5630  -31.4690 C   0  0  0  0  0  0  0  0  0  0  0  0
   -4.5200   24.4820  -30.8320 C   0  0  0  0  0  0  0  0  0  0  0  0
   -3.8450   25.6500  -30.4960 O   0  0  0  0  0  0  0  0  0  0  0  0
   -1.8540   24.9860  -29.8630 H   0  0  0  0  0  0  0  0  0  0  0  0
   -2.4170   26.4210  -28.9760 H   0  0  0  0  0  0  0  0  0  0  0  0
   -0.5236   26.9493  -27.2175 H   0  0  0  0  0  0  0  0  0  0  0  0
    0.4873   26.1599  -25.0827 H   0  0  0  0  0  0  0  0  0  0  0  0
    0.2416   23.7799  -24.3878 H   0  0  0  0  0  0  0  0  0  0  0  0
   -1.0109   22.1784  -25.8264 H   0  0  0  0  0  0  0  0  0  0  0  0
   -4.2353   21.0772  -30.6381 H   0  0  0  0  0  0  0  0  0  0  0  0
   -4.5560   20.0990  -33.2811 H   0  0  0  0  0  0  0  0  0  0  0  0
   -3.8013   18.7530  -32.3116 H   0  0  0  0  0  0  0  0  0  0  0  0
   -4.5695   18.4105  -34.8603 H   0  0  0  0  0  0  0  0  0  0  0  0
   -4.6914   17.1072  -33.6192 H   0  0  0  0  0  0  0  0  0  0  0  0
   -8.1469   17.5733  -33.0735 H   0  0  0  0  0  0  0  0  0  0  0  0
   -6.7772   16.3668  -33.0116 H   0  0  0  0  0  0  0  0  0  0  0  0
   -7.4657   18.2487  -31.0340 H   0  0  0  0  0  0  0  0  0  0  0  0
   -5.9460   17.2500  -31.1665 H   0  0  0  0  0  0  0  0  0  0  0  0
   -7.4268   23.4687  -32.3190 H   0  0  0  0  0  0  0  0  0  0  0  0
   -6.1986   25.5468  -31.6960 H   0  0  0  0  0  0  0  0  0  0  0  0
  1  2  1  0
  2  3  2  0
  3  4  1  0
  4  5  2  0
  5  6  1  0
  6  7  2  0
  7  8  1  0
  8  9  2  0
  8 10  2  0
  8 11  1  0
 11 12  1  0
 12 13  2  0
 13 14  1  0
 14 15  1  0
 15 16  2  0
 15 17  2  0
 15 18  1  0
 18 19  1  0
 19 20  1  0
 20 21  1  0
 21 22  1  0
 22 23  1  0
 14 24  2  0
 24 25  1  0
 25 26  2  0
 26 27  1  0
  7  2  1  0
 26 12  1  0
 23 18  1  0
  1 28  1  0
  1 29  1  0
  3 30  1  0
  4 31  1  0
  5 32  1  0
  6 33  1  0
 13 34  1  0
 19 35  1  0
 19 36  1  0
 20 37  1  0
 20 38  1  0
 22 39  1  0
 22 40  1  0
 23 41  1  0
 23 42  1  0
 24 43  1  0
 25 44  1  0
M  CHG  2  11  -1  27  -1
M  END
>  <UniqueID>  (19) 
19

>  <SMILES>  (19) 
Nc1ccccc1S(=O)(=O)[N-]c1cc(S(=O)(=O)N2CCOCC2)ccc1[O-]

>  <Energy>  (19) 
61.240720146296475

>  <Genealogy>  (19) 
Nc1ccccc1S(=O)(=O)[N-]c1cc(S(=O)(=O)N2CCOCC2)ccc1[O-] (protonated)
Nc1ccccc1S(=O)(=O)[N-]c1cc(S(=O)(=O)N2CCOCC2)ccc1[O-] (3D coordinates assigned)
Nc1ccccc1S(=O)(=O)[N-]c1cc(S(=O)(=O)N2CCOCC2)ccc1[O-] (nonaromatic ring conformer: 61.240720146296475 kcal/mol)

>  <smiles>  (19) 
Nc1ccccc1S(=O)(=O)Nc1cc(S(=O)(=O)N2CCOCC2)ccc1O

>  <score_type>  (19) 
oracle

>  <origin>  (19) 
adgpu

>  <m_score__min__energy>  (19) 
-12.41

>  <m_primary>  (19) 
energy

$$$$
19:0
     RDKit          3D

 68 71  0  0  0  0  0  0  0  0999 V2000
   -9.5430   20.0890  -32.7290 C   0  0  0  0  0  0  0  0  0  0  0  0
   -9.3180   19.0950  -31.6800 N   0  0  0  0  0  0  0  0  0  0  0  0
   -8.1090   18.3130  -31.9590 C   0  0  0  0  0  0  0  0  0  0  0  0
   -6.9680   19.2410  -32.2900 C   0  0  0  0  0  0  0  0  0  0  0  0
   -6.7660   20.3850  -31.5000 C   0  0  0  0  0  0  0  0  0  0  0  0
   -5.7190   21.2780  -31.7750 C   0  0  0  0  0  0  0  0  0  0  0  0
   -5.5540   22.4720  -30.9130 C   0  0  0  0  0  0  0  0  0  0  0  0
   -4.9430   23.5930  -31.3190 C   0  0  0  0  0  0  0  0  0  0  0  0
   -4.7780   24.7690  -30.4420 C   0  0  0  0  0  0  0  0  0  0  0  0
   -5.8100   25.3460  -30.0100 O   0  0  0  0  0  0  0  0  0  0  0  0
   -3.4930   25.2750  -30.0560 N   0  0  0  0  0  0  0  0  0  0  0  0
   -2.6700   24.7710  -28.9930 C   0  0  0  0  0  0  0  0  0  0  0  0
   -1.3110   24.5490  -29.2570 C   0  0  0  0  0  0  0  0  0  0  0  0
   -0.4790   23.9980  -28.2810 C   0  0  0  0  0  0  0  0  0  0  0  0
   -0.9940   23.6710  -27.0270 C   0  0  0  0  0  0  0  0  0  0  0  0
   -2.3370   23.9210  -26.7360 C   0  0  0  0  0  0  0  0  0  0  0  0
   -3.1830   24.4900  -27.7020 C   0  0  0  0  0  0  0  0  0  0  0  0
   -4.5270   24.8260  -27.3360 N   0  0  0  0  0  0  0  0  0  0  0  0
   -4.8900   21.0350  -32.8850 C   0  0  0  0  0  0  0  0  0  0  0  0
   -5.0780   19.8970  -33.6700 C   0  0  0  0  0  0  0  0  0  0  0  0
   -6.0880   18.9820  -33.3650 C   0  0  0  0  0  0  0  0  0  0  0  0
   -6.2130   17.8330  -34.1560 O   0  0  0  0  0  0  0  0  0  0  0  0
   -5.7140   16.5750  -33.7880 C   0  0  0  0  0  0  0  0  0  0  0  0
   -4.5440   16.5110  -33.0230 C   0  0  0  0  0  0  0  0  0  0  0  0
   -4.0020   15.2730  -32.6620 C   0  0  0  0  0  0  0  0  0  0  0  0
   -4.6330   14.0860  -33.0570 C   0  0  0  0  0  0  0  0  0  0  0  0
   -3.9720   12.5170  -32.6120 S   0  0  0  0  0  0  0  0  0  0  0  0
   -3.4880   12.5870  -31.1900 O   0  0  0  0  0  0  0  0  0  0  0  0
   -5.0380   11.4620  -32.7080 O   0  0  0  0  0  0  0  0  0  0  0  0
   -2.6460   12.1430  -33.6920 N   0  0  0  0  0  0  0  0  0  0  0  0
   -1.7540   13.3120  -33.9000 C   0  0  0  0  0  0  0  0  0  0  0  0
   -1.7090   13.8170  -35.3540 C   0  0  0  0  0  0  0  0  0  0  0  0
   -3.1140   13.8560  -35.9540 C   0  0  0  0  0  0  0  0  0  0  0  0
   -3.8050   12.4810  -35.8960 C   0  0  0  0  0  0  0  0  0  0  0  0
   -3.1120   11.4960  -34.9340 C   0  0  0  0  0  0  0  0  0  0  0  0
   -5.8200   14.1470  -33.7970 C   0  0  0  0  0  0  0  0  0  0  0  0
   -6.3630   15.3830  -34.1560 C   0  0  0  0  0  0  0  0  0  0  0  0
   -9.7636   21.0637  -32.2693 H   0  0  0  0  0  0  0  0  0  0  0  0
   -8.6413   20.1737  -33.3533 H   0  0  0  0  0  0  0  0  0  0  0  0
  -10.3933   19.7772  -33.3533 H   0  0  0  0  0  0  0  0  0  0  0  0
   -9.1760   19.6090  -30.7790 H   0  0  0  0  0  0  0  0  0  0  0  0
   -7.8484   17.7145  -31.0736 H   0  0  0  0  0  0  0  0  0  0  0  0
   -8.2958   17.6465  -32.8139 H   0  0  0  0  0  0  0  0  0  0  0  0
   -7.4389   20.5838  -30.6528 H   0  0  0  0  0  0  0  0  0  0  0  0
   -5.9531   22.4361  -29.8886 H   0  0  0  0  0  0  0  0  0  0  0  0
   -4.5492   23.6389  -32.3451 H   0  0  0  0  0  0  0  0  0  0  0  0
   -0.8969   24.8113  -30.2417 H   0  0  0  0  0  0  0  0  0  0  0  0
    0.5842   23.8215  -28.5013 H   0  0  0  0  0  0  0  0  0  0  0  0
   -0.3422   23.2160  -26.2667 H   0  0  0  0  0  0  0  0  0  0  0  0
   -2.7355   23.6701  -25.7419 H   0  0  0  0  0  0  0  0  0  0  0  0
   -4.9000   24.5660  -26.3970 H   0  0  0  0  0  0  0  0  0  0  0  0
   -5.1270   25.4270  -27.9410 H   0  0  0  0  0  0  0  0  0  0  0  0
   -4.0890   21.7461  -33.1356 H   0  0  0  0  0  0  0  0  0  0  0  0
   -4.4248   19.7189  -34.5369 H   0  0  0  0  0  0  0  0  0  0  0  0
   -4.0478   17.4394  -32.7038 H   0  0  0  0  0  0  0  0  0  0  0  0
   -3.0781   15.2313  -32.0665 H   0  0  0  0  0  0  0  0  0  0  0  0
   -2.1065   14.1339  -33.2595 H   0  0  0  0  0  0  0  0  0  0  0  0
   -0.7354   12.9831  -33.6465 H   0  0  0  0  0  0  0  0  0  0  0  0
   -1.2802   14.8298  -35.3717 H   0  0  0  0  0  0  0  0  0  0  0  0
   -1.0886   13.1304  -35.9487 H   0  0  0  0  0  0  0  0  0  0  0  0
   -3.7200   14.5819  -35.3920 H   0  0  0  0  0  0  0  0  0  0  0  0
   -3.0238   14.1464  -37.0111 H   0  0  0  0  0  0  0  0  0  0  0  0
   -4.8431   12.6247  -35.5619 H   0  0  0  0  0  0  0  0  0  0  0  0
   -3.7535   12.0453  -36.9047 H   0  0  0  0  0  0  0  0  0  0  0  0
   -3.8255   10.7014  -34.6702 H   0  0  0  0  0  0  0  0  0  0  0  0
   -2.2277   11.0947  -35.4507 H   0  0  0  0  0  0  0  0  0  0  0  0
   -6.3270   13.2180  -34.0969 H   0  0  0  0  0  0  0  0  0  0  0  0
   -7.3014   15.4240  -34.7285 H   0  0  0  0  0  0  0  0  0  0  0  0
  1  2  1  0
  2  3  1  0
  3  4  1  0
  4  5  2  0
  5  6  1  0
  6  7  1  0
  7  8  2  3
  8  9  1  0
  9 10  2  0
  9 11  1  0
 11 12  1  0
 12 13  2  0
 13 14  1  0
 14 15  2  0
 15 16  1  0
 16 17  2  0
 17 18  1  0
  6 19  2  0
 19 20  1  0
 20 21  2  0
 21 22  1  0
 22 23  1  0
 23 24  2  0
 24 25  1  0
 25 26  2  0
 26 27  1  0
 27 28  2  0
 27 29  2  0
 27 30  1  0
 30 31  1  0
 31 32  1  0
 32 33  1  0
 33 34  1  0
 34 35  1  0
 26 36  1  0
 36 37  2  0
 21  4  1  0
 37 23  1  0
 17 12  1  0
 35 30  1  0
  1 38  1  0
  1 39  1  0
  1 40  1  0
  2 41  1  0
  3 42  1  0
  3 43  1  0
  5 44  1  0
  7 45  1  0
  8 46  1  0
 13 47  1  0
 14 48  1  0
 15 49  1  0
 16 50  1  0
 18 51  1  0
 18 52  1  0
 19 53  1  0
 20 54  1  0
 24 55  1  0
 25 56  1  0
 31 57  1  0
 31 58  1  0
 32 59  1  0
 32 60  1  0
 33 61  1  0
 33 62  1  0
 34 63  1  0
 34 64  1  0
 35 65  1  0
 35 66  1  0
 36 67  1  0
 37 68  1  0
M  CHG  1  11  -1
M  END
>  <UniqueID>  (20) 
20

>  <SMILES>  (20) 
CNCc1cc(C=CC(=O)[N-]c2ccccc2N)ccc1Oc1ccc(S(=O)(=O)N2CCCCC2)cc1

>  <Energy>  (20) 
93.55440529688917

>  <Genealogy>  (20) 
CNCc1cc(C=CC(=O)[N-]c2ccccc2N)ccc1Oc1ccc(S(=O)(=O)N2CCCCC2)cc1 (protonated)
CNCc1cc(C=CC(=O)[N-]c2ccccc2N)ccc1Oc1ccc(S(=O)(=O)N2CCCCC2)cc1 (3D coordinates assigned)
CNCc1cc(C=CC(=O)[N-]c2ccccc2N)ccc1Oc1ccc(S(=O)(=O)N2CCCCC2)cc1 (nonaromatic ring conformer: 93.55440529688917 kcal/mol)

>  <smiles>  (20) 
CNCc1cc(C=CC(=O)Nc2ccccc2N)ccc1Oc1ccc(S(=O)(=O)N2CCCCC2)cc1

>  <score_type>  (20) 
oracle

>  <origin>  (20) 
adgpu

>  <m_score__min__energy>  (20) 
-10.57

>  <m_primary>  (20) 
energy

$$$$
20:0
     RDKit          3D

 66 68  0  0  0  0  0  0  0  0999 V2000
   -5.7200   25.3200  -29.7580 C   0  0  0  0  0  0  0  0  0  0  0  0
   -4.9160   24.6850  -30.8040 N   0  0  0  0  0  0  0  0  0  0  0  0
   -5.7410   23.9550  -31.7780 C   0  0  0  0  0  0  0  0  0  0  0  0
   -7.1820   23.7340  -31.2830 C   0  0  0  0  0  0  0  0  0  0  0  0
   -7.2510   22.5790  -30.2730 C   0  0  0  0  0  0  0  0  0  0  0  0
   -8.4580   21.6480  -30.5260 C   0  0  0  0  0  0  0  0  0  0  0  0
   -8.4400   20.9600  -31.9050 C   0  0  0  0  0  0  0  0  0  0  0  0
   -7.8770   19.5290  -31.8970 C   0  0  0  0  0  0  0  0  0  0  0  0
   -7.3000   19.1580  -33.1930 N   0  0  0  0  0  0  0  0  0  0  0  0
   -5.8880   19.0800  -33.4620 C   0  0  0  0  0  0  0  0  0  0  0  0
   -5.2980   17.8220  -33.6600 C   0  0  0  0  0  0  0  0  0  0  0  0
   -3.9210   17.7090  -33.8550 C   0  0  0  0  0  0  0  0  0  0  0  0
   -3.1130   18.8520  -33.8690 C   0  0  0  0  0  0  0  0  0  0  0  0
   -1.3660   18.6760  -33.9670 S   0  0  0  0  0  0  0  0  0  0  0  0
   -1.0400   17.6240  -34.9900 O   0  0  0  0  0  0  0  0  0  0  0  0
   -0.7150   19.9670  -34.3760 O   0  0  0  0  0  0  0  0  0  0  0  0
   -0.7650   18.1800  -32.4190 N   0  0  0  0  0  0  0  0  0  0  0  0
   -0.9070   18.9950  -31.2450 C   0  0  0  0  0  0  0  0  0  0  0  0
   -0.2140   18.6490  -30.0740 C   0  0  0  0  0  0  0  0  0  0  0  0
   -0.3580   19.4160  -28.9140 C   0  0  0  0  0  0  0  0  0  0  0  0
   -1.1870   20.5400  -28.9150 C   0  0  0  0  0  0  0  0  0  0  0  0
   -1.8670   20.9110  -30.0830 C   0  0  0  0  0  0  0  0  0  0  0  0
   -2.8810   22.3490  -30.1210 S   0  0  0  0  0  0  0  0  0  0  0  0
   -4.0200   22.2390  -29.1460 O   0  0  0  0  0  0  0  0  0  0  0  0
   -3.4470   22.5030  -31.5040 O   0  0  0  0  0  0  0  0  0  0  0  0
   -1.9220   23.7440  -29.7430 N   0  0  0  0  0  0  0  0  0  0  0  0
   -1.5760   24.1840  -28.4220 C   0  0  0  0  0  0  0  0  0  0  0  0
   -1.5780   23.3080  -27.3210 C   0  0  0  0  0  0  0  0  0  0  0  0
   -1.2380   23.7750  -26.0460 C   0  0  0  0  0  0  0  0  0  0  0  0
   -0.8960   25.1170  -25.8630 C   0  0  0  0  0  0  0  0  0  0  0  0
   -0.8900   25.9940  -26.9500 C   0  0  0  0  0  0  0  0  0  0  0  0
   -1.2320   25.5320  -28.2260 C   0  0  0  0  0  0  0  0  0  0  0  0
   -1.2280   26.4180  -29.3000 O   0  0  0  0  0  0  0  0  0  0  0  0
   -1.7210   20.1410  -31.2460 C   0  0  0  0  0  0  0  0  0  0  0  0
   -3.7000   20.1150  -33.7110 C   0  0  0  0  0  0  0  0  0  0  0  0
   -5.0790   20.2300  -33.5130 C   0  0  0  0  0  0  0  0  0  0  0  0
   -5.3399   25.0198  -28.7704 H   0  0  0  0  0  0  0  0  0  0  0  0
   -5.6554   26.4135  -29.8589 H   0  0  0  0  0  0  0  0  0  0  0  0
   -6.7687   25.0038  -29.8589 H   0  0  0  0  0  0  0  0  0  0  0  0
   -4.2360   24.0270  -30.3580 H   0  0  0  0  0  0  0  0  0  0  0  0
   -5.7743   24.5315  -32.7142 H   0  0  0  0  0  0  0  0  0  0  0  0
   -5.2840   22.9657  -31.9278 H   0  0  0  0  0  0  0  0  0  0  0  0
   -7.5408   24.6549  -30.8001 H   0  0  0  0  0  0  0  0  0  0  0  0
   -7.8122   23.4788  -32.1477 H   0  0  0  0  0  0  0  0  0  0  0  0
   -6.3266   21.9877  -30.3486 H   0  0  0  0  0  0  0  0  0  0  0  0
   -7.3684   23.0161  -29.2704 H   0  0  0  0  0  0  0  0  0  0  0  0
   -8.4620   20.8681  -29.7503 H   0  0  0  0  0  0  0  0  0  0  0  0
   -9.3586   22.2789  -30.4966 H   0  0  0  0  0  0  0  0  0  0  0  0
   -9.4723   20.9208  -32.2828 H   0  0  0  0  0  0  0  0  0  0  0  0
   -7.7705   21.5558  -32.5429 H   0  0  0  0  0  0  0  0  0  0  0  0
   -7.0945   19.4596  -31.1270 H   0  0  0  0  0  0  0  0  0  0  0  0
   -8.7068   18.8388  -31.6846 H   0  0  0  0  0  0  0  0  0  0  0  0
   -7.9610   18.8510  -33.9410 H   0  0  0  0  0  0  0  0  0  0  0  0
   -5.9257   16.9186  -33.6615 H   0  0  0  0  0  0  0  0  0  0  0  0
   -3.4682   16.7169  -33.9984 H   0  0  0  0  0  0  0  0  0  0  0  0
   -0.5040   17.1750  -32.3040 H   0  0  0  0  0  0  0  0  0  0  0  0
    0.4462   17.7692  -30.0692 H   0  0  0  0  0  0  0  0  0  0  0  0
    0.1827   19.1336  -27.9986 H   0  0  0  0  0  0  0  0  0  0  0  0
   -1.3064   21.1350  -27.9976 H   0  0  0  0  0  0  0  0  0  0  0  0
   -1.8480   22.2511  -27.4628 H   0  0  0  0  0  0  0  0  0  0  0  0
   -1.2401   23.0857  -25.1887 H   0  0  0  0  0  0  0  0  0  0  0  0
   -0.6308   25.4839  -24.8605 H   0  0  0  0  0  0  0  0  0  0  0  0
   -0.6161   27.0492  -26.8030 H   0  0  0  0  0  0  0  0  0  0  0  0
   -2.2473   20.4360  -32.1657 H   0  0  0  0  0  0  0  0  0  0  0  0
   -3.0735   21.0186  -33.7429 H   0  0  0  0  0  0  0  0  0  0  0  0
   -5.5340   21.2247  -33.3965 H   0  0  0  0  0  0  0  0  0  0  0  0
  1  2  1  0
  2  3  1  0
  3  4  1  0
  4  5  1  0
  5  6  1  0
  6  7  1  0
  7  8  1  0
  8  9  1  0
  9 10  1  0
 10 11  2  0
 11 12  1  0
 12 13  2  0
 13 14  1  0
 14 15  2  0
 14 16  2  0
 14 17  1  0
 17 18  1  0
 18 19  2  0
 19 20  1  0
 20 21  2  0
 21 22  1  0
 22 23  1  0
 23 24  2  0
 23 25  2  0
 23 26  1  0
 26 27  1  0
 27 28  2  0
 28 29  1  0
 29 30  2  0
 30 31  1  0
 31 32  2  0
 32 33  1  0
 22 34  2  0
 13 35  1  0
 35 36  2  0
 36 10  1  0
 34 18  1  0
 32 27  1  0
  1 37  1  0
  1 38  1  0
  1 39  1  0
  2 40  1  0
  3 41  1  0
  3 42  1  0
  4 43  1  0
  4 44  1  0
  5 45  1  0
  5 46  1  0
  6 47  1  0
  6 48  1  0
  7 49  1  0
  7 50  1  0
  8 51  1  0
  8 52  1  0
  9 53  1  0
 11 54  1  0
 12 55  1  0
 17 56  1  0
 19 57  1  0
 20 58  1  0
 21 59  1  0
 28 60  1  0
 29 61  1  0
 30 62  1  0
 31 63  1  0
 34 64  1  0
 35 65  1  0
 36 66  1  0
M  CHG  2  26  -1  33  -1
M  END
>  <UniqueID>  (21) 
21

>  <SMILES>  (21) 
CNCCCCCCNc1ccc(S(=O)(=O)Nc2cccc(S(=O)(=O)[N-]c3ccccc3[O-])c2)cc1

>  <Energy>  (21) 
66.78167758871886

>  <Genealogy>  (21) 
CNCCCCCCNc1ccc(S(=O)(=O)Nc2cccc(S(=O)(=O)[N-]c3ccccc3[O-])c2)cc1 (protonated)
CNCCCCCCNc1ccc(S(=O)(=O)Nc2cccc(S(=O)(=O)[N-]c3ccccc3[O-])c2)cc1 (3D coordinates assigned)
CNCCCCCCNc1ccc(S(=O)(=O)Nc2cccc(S(=O)(=O)[N-]c3ccccc3[O-])c2)cc1 (optimized conformer: 66.78167758871886 kcal/mol)

>  <smiles>  (21) 
CNCCCCCCNc1ccc(S(=O)(=O)Nc2cccc(S(=O)(=O)Nc3ccccc3O)c2)cc1

>  <score_type>  (21) 
oracle

>  <origin>  (21) 
adgpu

>  <m_score__min__energy>  (21) 
-14.359999999999999

>  <m_primary>  (21) 
energy

$$$$
21:0
     RDKit          3D

 72 77  0  0  0  0  0  0  0  0999 V2000
    0.4970   21.8740  -33.8920 O   0  0  0  0  0  0  0  0  0  0  0  0
    0.0590   20.7830  -33.4450 C   0  0  0  0  0  0  0  0  0  0  0  0
    0.4240   19.5630  -34.1010 N   0  0  0  0  0  0  0  0  0  0  0  0
   -0.1040   18.2700  -33.7820 C   0  0  0  0  0  0  0  0  0  0  0  0
    0.6010   17.3750  -32.9570 C   0  0  0  0  0  0  0  0  0  0  0  0
    0.0930   16.0960  -32.7170 C   0  0  0  0  0  0  0  0  0  0  0  0
   -1.1140   15.6960  -33.3020 C   0  0  0  0  0  0  0  0  0  0  0  0
   -1.8240   16.5810  -34.1260 C   0  0  0  0  0  0  0  0  0  0  0  0
   -3.3430   16.0790  -34.8670 S   0  0  0  0  0  0  0  0  0  0  0  0
   -3.0590   15.5320  -36.2410 O   0  0  0  0  0  0  0  0  0  0  0  0
   -4.2280   17.2890  -35.0200 O   0  0  0  0  0  0  0  0  0  0  0  0
   -4.1240   14.8730  -33.8560 N   0  0  0  0  0  0  0  0  0  0  0  0
   -4.6690   15.4730  -32.6220 C   0  0  0  0  0  0  0  0  0  0  0  0
   -5.8800   16.3830  -32.8930 C   0  0  0  0  0  0  0  0  0  0  0  0
   -6.8390   15.8130  -33.9540 C   0  0  0  0  0  0  0  0  0  0  0  0
   -6.5910   14.3280  -34.2070 C   0  0  0  0  0  0  0  0  0  0  0  0
   -5.1270   14.0720  -34.6180 C   0  0  0  0  0  0  0  0  0  0  0  0
   -1.3070   17.8620  -34.3720 C   0  0  0  0  0  0  0  0  0  0  0  0
   -0.8100   20.7420  -32.2380 C   0  0  0  0  0  0  0  0  0  0  0  0
   -0.2020   20.8720  -30.9730 C   0  0  0  0  0  0  0  0  0  0  0  0
   -0.9690   20.8870  -29.8080 C   0  0  0  0  0  0  0  0  0  0  0  0
   -2.3560   20.7840  -29.8810 C   0  0  0  0  0  0  0  0  0  0  0  0
   -2.9810   20.6530  -31.1190 C   0  0  0  0  0  0  0  0  0  0  0  0
   -2.2270   20.6110  -32.3020 C   0  0  0  0  0  0  0  0  0  0  0  0
   -3.1430   20.4850  -33.8490 S   0  0  0  0  0  0  0  0  0  0  0  0
   -4.7590   20.6090  -33.0700 C   0  0  0  0  0  0  0  0  0  0  0  0
   -5.5910   19.4860  -32.9840 C   0  0  0  0  0  0  0  0  0  0  0  0
   -6.8690   19.5990  -32.4330 C   0  0  0  0  0  0  0  0  0  0  0  0
   -7.3290   20.8370  -31.9780 C   0  0  0  0  0  0  0  0  0  0  0  0
   -6.5080   21.9800  -32.0680 C   0  0  0  0  0  0  0  0  0  0  0  0
   -6.9720   23.2750  -31.6390 N   0  0  0  0  0  0  0  0  0  0  0  0
   -6.7490   23.7850  -30.2860 C   0  0  0  0  0  0  0  0  0  0  0  0
   -5.3520   24.3030  -30.1200 C   0  0  0  0  0  0  0  0  0  0  0  0
   -4.7590   25.1690  -30.9740 N   0  0  0  0  0  0  0  0  0  0  0  0
   -3.5070   25.2830  -30.6140 O   0  0  0  0  0  0  0  0  0  0  0  0
   -3.2630   24.5210  -29.5780 C   0  0  0  0  0  0  0  0  0  0  0  0
   -2.0610   24.3200  -28.9100 C   0  0  0  0  0  0  0  0  0  0  0  0
   -2.0550   23.4060  -27.8380 C   0  0  0  0  0  0  0  0  0  0  0  0
   -3.2380   22.7250  -27.4660 C   0  0  0  0  0  0  0  0  0  0  0  0
   -4.4360   22.9490  -28.1680 C   0  0  0  0  0  0  0  0  0  0  0  0
   -4.4040   23.8680  -29.2170 C   0  0  0  0  0  0  0  0  0  0  0  0
   -5.2240   21.8530  -32.6200 C   0  0  0  0  0  0  0  0  0  0  0  0
    1.5533   17.6825  -32.5004 H   0  0  0  0  0  0  0  0  0  0  0  0
    0.6435   15.4009  -32.0660 H   0  0  0  0  0  0  0  0  0  0  0  0
   -1.5064   14.6855  -33.1150 H   0  0  0  0  0  0  0  0  0  0  0  0
   -3.3600   14.2210  -33.5580 H   0  0  0  0  0  0  0  0  0  0  0  0
   -4.9803   14.6643  -31.9445 H   0  0  0  0  0  0  0  0  0  0  0  0
   -3.8784   16.0938  -32.1753 H   0  0  0  0  0  0  0  0  0  0  0  0
   -6.4362   16.5146  -31.9531 H   0  0  0  0  0  0  0  0  0  0  0  0
   -5.4929   17.3372  -33.2799 H   0  0  0  0  0  0  0  0  0  0  0  0
   -7.8740   15.9464  -33.6061 H   0  0  0  0  0  0  0  0  0  0  0  0
   -6.6644   16.3530  -34.8963 H   0  0  0  0  0  0  0  0  0  0  0  0
   -6.8096   13.7654  -33.2874 H   0  0  0  0  0  0  0  0  0  0  0  0
   -7.2467   13.9989  -35.0266 H   0  0  0  0  0  0  0  0  0  0  0  0
   -4.9069   13.0057  -34.4610 H   0  0  0  0  0  0  0  0  0  0  0  0
   -5.0384   14.3774  -35.6710 H   0  0  0  0  0  0  0  0  0  0  0  0
   -1.8512   18.5518  -35.0339 H   0  0  0  0  0  0  0  0  0  0  0  0
    0.8920   20.9628  -30.9036 H   0  0  0  0  0  0  0  0  0  0  0  0
   -0.4769   20.9805  -28.8287 H   0  0  0  0  0  0  0  0  0  0  0  0
   -2.9581   20.8061  -28.9607 H   0  0  0  0  0  0  0  0  0  0  0  0
   -4.0775   20.5817  -31.1700 H   0  0  0  0  0  0  0  0  0  0  0  0
   -5.2367   18.5117  -33.3517 H   0  0  0  0  0  0  0  0  0  0  0  0
   -7.5146   18.7117  -32.3571 H   0  0  0  0  0  0  0  0  0  0  0  0
   -8.3376   20.9208  -31.5470 H   0  0  0  0  0  0  0  0  0  0  0  0
   -7.4990   23.8660  -32.3220 H   0  0  0  0  0  0  0  0  0  0  0  0
   -7.4592   24.6018  -30.0898 H   0  0  0  0  0  0  0  0  0  0  0  0
   -6.8985   22.9586  -29.5755 H   0  0  0  0  0  0  0  0  0  0  0  0
   -1.1473   24.8553  -29.2076 H   0  0  0  0  0  0  0  0  0  0  0  0
   -1.1223   23.2202  -27.2853 H   0  0  0  0  0  0  0  0  0  0  0  0
   -3.2208   22.0173  -26.6241 H   0  0  0  0  0  0  0  0  0  0  0  0
   -5.3625   22.4199  -27.9002 H   0  0  0  0  0  0  0  0  0  0  0  0
   -4.5759   22.7381  -32.7005 H   0  0  0  0  0  0  0  0  0  0  0  0
  1  2  2  0
  2  3  1  0
  3  4  1  0
  4  5  2  0
  5  6  1  0
  6  7  2  0
  7  8  1  0
  8  9  1  0
  9 10  2  0
  9 11  2  0
  9 12  1  0
 12 13  1  0
 13 14  1  0
 14 15  1  0
 15 16  1  0
 16 17  1  0
  8 18  2  0
  2 19  1  0
 19 20  2  0
 20 21  1  0
 21 22  2  0
 22 23  1  0
 23 24  2  0
 24 25  1  0
 25 26  1  0
 26 27  2  0
 27 28  1  0
 28 29  2  0
 29 30  1  0
 30 31  1  0
 31 32  1  0
 32 33  1  0
 33 34  2  0
 34 35  1  0
 35 36  1  0
 36 37  2  0
 37 38  1  0
 38 39  2  0
 39 40  1  0
 40 41  2  0
 30 42  2  0
 18  4  1  0
 24 19  1  0
 42 26  1  0
 17 12  1  0
 41 33  1  0
 41 36  1  0
  5 43  1  0
  6 44  1  0
  7 45  1  0
 12 46  1  0
 13 47  1  0
 13 48  1  0
 14 49  1  0
 14 50  1  0
 15 51  1  0
 15 52  1  0
 16 53  1  0
 16 54  1  0
 17 55  1  0
 17 56  1  0
 18 57  1  0
 20 58  1  0
 21 59  1  0
 22 60  1  0
 23 61  1  0
 27 62  1  0
 28 63  1  0
 29 64  1  0
 31 65  1  0
 32 66  1  0
 32 67  1  0
 37 68  1  0
 38 69  1  0
 39 70  1  0
 40 71  1  0
 42 72  1  0
M  CHG  2   3  -1  12   1
M  END
>  <UniqueID>  (22) 
22

>  <SMILES>  (22) 
O=C([N-]c1cccc(S(=O)(=O)[NH+]2CCCCC2)c1)c1ccccc1Sc1cccc(NCc2noc3ccccc23)c1

>  <Energy>  (22) 
132.16321261366926

>  <Genealogy>  (22) 
O=C([N-]c1cccc(S(=O)(=O)[NH+]2CCCCC2)c1)c1ccccc1Sc1cccc(NCc2noc3ccccc23)c1 (protonated)
O=C([N-]c1cccc(S(=O)(=O)[NH+]2CCCCC2)c1)c1ccccc1Sc1cccc(NCc2noc3ccccc23)c1 (3D coordinates assigned)
O=C([N-]c1cccc(S(=O)(=O)[NH+]2CCCCC2)c1)c1ccccc1Sc1cccc(NCc2noc3ccccc23)c1 (nonaromatic ring conformer: 132.16321261366926 kcal/mol)

>  <smiles>  (22) 
O=C(Nc1cccc(S(=O)(=O)N2CCCCC2)c1)c1ccccc1Sc1cccc(NCc2noc3ccccc23)c1

>  <score_type>  (22) 
oracle

>  <origin>  (22) 
adgpu

>  <m_score__min__energy>  (22) 
-14.17

>  <m_primary>  (22) 
energy

$$$$
22:0
     RDKit          3D

 56 60  0  0  0  0  0  0  0  0999 V2000
   -3.4130   17.4710  -33.1010 C   0  0  0  0  0  0  0  0  0  0  0  0
   -4.4410   16.5870  -33.6780 N   0  0  0  0  0  0  0  0  0  0  0  0
   -4.9410   17.0970  -34.9740 C   0  0  0  0  0  0  0  0  0  0  0  0
   -5.7420   18.3990  -34.8050 C   0  0  0  0  0  0  0  0  0  0  0  0
   -6.5470   18.3580  -33.5790 N   0  0  0  0  0  0  0  0  0  0  0  0
   -7.0130   19.5800  -32.9760 C   0  0  0  0  0  0  0  0  0  0  0  0
   -8.3860   19.8460  -32.8630 C   0  0  0  0  0  0  0  0  0  0  0  0
   -8.8140   21.0120  -32.3120 N   0  0  0  0  0  0  0  0  0  0  0  0
   -7.9460   21.9550  -31.8610 C   0  0  0  0  0  0  0  0  0  0  0  0
   -6.5620   21.7440  -31.9530 C   0  0  0  0  0  0  0  0  0  0  0  0
   -5.6290   22.7440  -31.4970 N   0  0  0  0  0  0  0  0  0  0  0  0
   -6.0730   24.1150  -31.2280 C   0  0  0  0  0  0  0  0  0  0  0  0
   -5.6240   24.5220  -29.8280 C   0  0  0  0  0  0  0  0  0  0  0  0
   -4.1600   24.2410  -29.6240 C   0  0  0  0  0  0  0  0  0  0  0  0
   -3.4890   24.9240  -28.6590 N   0  0  0  0  0  0  0  0  0  0  0  0
   -2.1750   24.7000  -28.3750 C   0  0  0  0  0  0  0  0  0  0  0  0
   -1.5150   25.5010  -27.3130 C   0  0  0  0  0  0  0  0  0  0  0  0
   -1.8800   25.3690  -25.9580 C   0  0  0  0  0  0  0  0  0  0  0  0
   -1.2510   26.1390  -24.9760 C   0  0  0  0  0  0  0  0  0  0  0  0
   -0.2550   27.0520  -25.3310 C   0  0  0  0  0  0  0  0  0  0  0  0
    0.1090   27.2000  -26.6700 C   0  0  0  0  0  0  0  0  0  0  0  0
   -0.5180   26.4340  -27.6570 C   0  0  0  0  0  0  0  0  0  0  0  0
   -1.4780   23.7260  -29.1090 C   0  0  0  0  0  0  0  0  0  0  0  0
   -2.1430   22.9980  -30.0960 C   0  0  0  0  0  0  0  0  0  0  0  0
   -3.4970   23.2350  -30.3580 C   0  0  0  0  0  0  0  0  0  0  0  0
   -4.1910   22.4560  -31.4510 C   0  0  0  0  0  0  0  0  0  0  0  0
   -6.1040   20.5480  -32.5240 C   0  0  0  0  0  0  0  0  0  0  0  0
   -6.8350   17.0530  -32.9770 C   0  0  0  0  0  0  0  0  0  0  0  0
   -5.5250   16.2890  -32.7050 C   0  0  0  0  0  0  0  0  0  0  0  0
   -3.4651   17.4262  -32.0032 H   0  0  0  0  0  0  0  0  0  0  0  0
   -2.4176   17.1424  -33.4346 H   0  0  0  0  0  0  0  0  0  0  0  0
   -3.5888   18.5044  -33.4346 H   0  0  0  0  0  0  0  0  0  0  0  0
   -4.0835   17.2899  -35.6354 H   0  0  0  0  0  0  0  0  0  0  0  0
   -5.6100   16.3376  -35.4050 H   0  0  0  0  0  0  0  0  0  0  0  0
   -5.0442   19.2476  -34.7504 H   0  0  0  0  0  0  0  0  0  0  0  0
   -6.4161   18.5135  -35.6667 H   0  0  0  0  0  0  0  0  0  0  0  0
   -9.1185   19.1080  -33.2217 H   0  0  0  0  0  0  0  0  0  0  0  0
   -8.3299   22.8877  -31.4220 H   0  0  0  0  0  0  0  0  0  0  0  0
   -5.6307   24.7971  -31.9691 H   0  0  0  0  0  0  0  0  0  0  0  0
   -7.1697   24.1681  -31.2944 H   0  0  0  0  0  0  0  0  0  0  0  0
   -5.8054   25.5983  -29.6916 H   0  0  0  0  0  0  0  0  0  0  0  0
   -6.1971   23.9365  -29.0940 H   0  0  0  0  0  0  0  0  0  0  0  0
   -2.6658   24.6546  -25.6714 H   0  0  0  0  0  0  0  0  0  0  0  0
   -1.5408   26.0259  -23.9209 H   0  0  0  0  0  0  0  0  0  0  0  0
    0.2419   27.6537  -24.5557 H   0  0  0  0  0  0  0  0  0  0  0  0
    0.8912   27.9212  -26.9495 H   0  0  0  0  0  0  0  0  0  0  0  0
   -0.2302   26.5611  -28.7110 H   0  0  0  0  0  0  0  0  0  0  0  0
   -0.4132   23.5382  -28.9066 H   0  0  0  0  0  0  0  0  0  0  0  0
   -1.6001   22.2336  -30.6713 H   0  0  0  0  0  0  0  0  0  0  0  0
   -3.7430   22.7246  -32.4191 H   0  0  0  0  0  0  0  0  0  0  0  0
   -4.0638   21.3839  -31.2401 H   0  0  0  0  0  0  0  0  0  0  0  0
   -5.0230   20.3674  -32.6182 H   0  0  0  0  0  0  0  0  0  0  0  0
   -7.3722   17.2014  -32.0286 H   0  0  0  0  0  0  0  0  0  0  0  0
   -7.4535   16.4667  -33.6725 H   0  0  0  0  0  0  0  0  0  0  0  0
   -5.1704   16.5566  -31.6987 H   0  0  0  0  0  0  0  0  0  0  0  0
   -5.7544   15.2174  -32.8006 H   0  0  0  0  0  0  0  0  0  0  0  0
  1  2  1  0
  2  3  1  0
  3  4  1  0
  4  5  1  0
  5  6  1  0
  6  7  2  0
  7  8  1  0
  8  9  2  0
  9 10  1  0
 10 11  1  0
 11 12  1  0
 12 13  1  0
 13 14  1  0
 14 15  2  0
 15 16  1  0
 16 17  1  0
 17 18  2  0
 18 19  1  0
 19 20  2  0
 20 21  1  0
 21 22  2  0
 16 23  2  0
 23 24  1  0
 24 25  2  0
 25 26  1  0
 10 27  2  0
  5 28  1  0
 28 29  1  0
 29  2  1  0
 27  6  1  0
 26 11  1  0
 25 14  1  0
 22 17  1  0
  1 30  1  0
  1 31  1  0
  1 32  1  0
  3 33  1  0
  3 34  1  0
  4 35  1  0
  4 36  1  0
  7 37  1  0
  9 38  1  0
 12 39  1  0
 12 40  1  0
 13 41  1  0
 13 42  1  0
 18 43  1  0
 19 44  1  0
 20 45  1  0
 21 46  1  0
 22 47  1  0
 23 48  1  0
 24 49  1  0
 26 50  1  0
 26 51  1  0
 27 52  1  0
 28 53  1  0
 28 54  1  0
 29 55  1  0
 29 56  1  0
M  END
>  <UniqueID>  (23) 
23

>  <SMILES>  (23) 
CN1CCN(c2cncc(N3CCc4nc(-c5ccccc5)ccc4C3)c2)CC1

>  <Energy>  (23) 
82.27826277657596

>  <Genealogy>  (23) 
CN1CCN(c2cncc(N3CCc4nc(-c5ccccc5)ccc4C3)c2)CC1 (3D coordinates assigned)
CN1CCN(c2cncc(N3CCc4nc(-c5ccccc5)ccc4C3)c2)CC1 (nonaromatic ring conformer: 82.27826277657596 kcal/mol)

>  <smiles>  (23) 
CN1CCN(c2cncc(N3CCc4nc(-c5ccccc5)ccc4C3)c2)CC1

>  <score_type>  (23) 
oracle

>  <origin>  (23) 
adgpu

>  <m_score__min__energy>  (23) 
-9.1400000000000006

>  <m_primary>  (23) 
energy

$$$$
23:0
     RDKit          3D

 67 70  0  0  0  0  0  0  0  0999 V2000
   -2.8100   19.1870  -32.7360 C   0  0  0  0  0  0  0  0  0  0  0  0
   -2.7910   20.2420  -31.8010 O   0  0  0  0  0  0  0  0  0  0  0  0
   -2.5560   21.4640  -32.4720 C   0  0  0  0  0  0  0  0  0  0  0  0
   -2.4050   22.5780  -31.4330 C   0  0  0  0  0  0  0  0  0  0  0  0
   -3.5440   22.6130  -30.5070 N   0  0  0  0  0  0  0  0  0  0  0  0
   -3.3470   22.3570  -29.1000 C   0  0  0  0  0  0  0  0  0  0  0  0
   -3.4950   21.1900  -28.6450 O   0  0  0  0  0  0  0  0  0  0  0  0
   -3.1250   23.4600  -28.1450 C   0  0  0  0  0  0  0  0  0  0  0  0
   -4.2010   23.8560  -27.3340 C   0  0  0  0  0  0  0  0  0  0  0  0
   -4.0530   24.8910  -26.4090 C   0  0  0  0  0  0  0  0  0  0  0  0
   -2.8240   25.5400  -26.2790 C   0  0  0  0  0  0  0  0  0  0  0  0
   -1.7450   25.1580  -27.0800 C   0  0  0  0  0  0  0  0  0  0  0  0
   -1.8790   24.1140  -28.0050 C   0  0  0  0  0  0  0  0  0  0  0  0
   -0.4410   23.6480  -28.9790 S   0  0  0  0  0  0  0  0  0  0  0  0
   -0.4890   21.9380  -28.4470 C   0  0  0  0  0  0  0  0  0  0  0  0
   -0.8440   21.6210  -27.1360 C   0  0  0  0  0  0  0  0  0  0  0  0
   -0.8730   20.2870  -26.7220 C   0  0  0  0  0  0  0  0  0  0  0  0
   -0.5520   19.2510  -27.6200 C   0  0  0  0  0  0  0  0  0  0  0  0
   -0.6220   17.8230  -27.1520 C   0  0  0  0  0  0  0  0  0  0  0  0
   -0.2080   19.5720  -28.9570 C   0  0  0  0  0  0  0  0  0  0  0  0
    0.1540   18.4990  -29.9510 C   0  0  0  0  0  0  0  0  0  0  0  0
   -0.1770   20.9190  -29.3550 C   0  0  0  0  0  0  0  0  0  0  0  0
   -4.8720   22.7700  -31.0400 C   0  0  0  0  0  0  0  0  0  0  0  0
   -5.7170   21.6570  -31.2560 C   0  0  0  0  0  0  0  0  0  0  0  0
   -5.1840   20.3380  -31.0470 N   0  0  0  0  0  0  0  0  0  0  0  0
   -7.0160   21.8590  -31.6880 N   0  0  0  0  0  0  0  0  0  0  0  0
   -7.9790   20.7440  -31.8530 C   0  0  0  0  0  0  0  0  0  0  0  0
   -7.3770   19.6450  -32.6970 C   0  0  0  0  0  0  0  0  0  0  0  0
   -7.5370   18.2950  -32.3300 C   0  0  0  0  0  0  0  0  0  0  0  0
   -6.8980   17.2820  -33.0500 C   0  0  0  0  0  0  0  0  0  0  0  0
   -6.1020   17.6030  -34.1530 C   0  0  0  0  0  0  0  0  0  0  0  0
   -5.9530   18.9360  -34.5390 C   0  0  0  0  0  0  0  0  0  0  0  0
   -6.5880   19.9550  -33.8170 C   0  0  0  0  0  0  0  0  0  0  0  0
   -7.4500   23.1380  -31.9450 C   0  0  0  0  0  0  0  0  0  0  0  0
   -8.6210   23.3540  -32.3600 O   0  0  0  0  0  0  0  0  0  0  0  0
   -6.6290   24.1980  -31.7570 N   0  0  0  0  0  0  0  0  0  0  0  0
   -5.3630   24.0470  -31.3100 C   0  0  0  0  0  0  0  0  0  0  0  0
   -4.6490   25.0640  -31.1130 O   0  0  0  0  0  0  0  0  0  0  0  0
   -2.8273   18.2249  -32.2030 H   0  0  0  0  0  0  0  0  0  0  0  0
   -3.7067   19.2726  -33.3673 H   0  0  0  0  0  0  0  0  0  0  0  0
   -1.9107   19.2403  -33.3673 H   0  0  0  0  0  0  0  0  0  0  0  0
   -1.6345   21.3871  -33.0677 H   0  0  0  0  0  0  0  0  0  0  0  0
   -3.3989   21.6901  -33.1416 H   0  0  0  0  0  0  0  0  0  0  0  0
   -1.4829   22.4070  -30.8581 H   0  0  0  0  0  0  0  0  0  0  0  0
   -2.3646   23.5403  -31.9644 H   0  0  0  0  0  0  0  0  0  0  0  0
   -5.1706   23.3452  -27.4287 H   0  0  0  0  0  0  0  0  0  0  0  0
   -4.9047   25.1951  -25.7827 H   0  0  0  0  0  0  0  0  0  0  0  0
   -2.7052   26.3518  -25.5463 H   0  0  0  0  0  0  0  0  0  0  0  0
   -0.7822   25.6812  -26.9837 H   0  0  0  0  0  0  0  0  0  0  0  0
   -1.1014   22.4220  -26.4274 H   0  0  0  0  0  0  0  0  0  0  0  0
   -1.1490   20.0438  -25.6853 H   0  0  0  0  0  0  0  0  0  0  0  0
   -0.6233   17.7972  -26.0523 H   0  0  0  0  0  0  0  0  0  0  0  0
   -1.5440   17.3578  -27.5307 H   0  0  0  0  0  0  0  0  0  0  0  0
    0.2501   17.2698  -27.5307 H   0  0  0  0  0  0  0  0  0  0  0  0
    0.4608   17.5896  -29.4135 H   0  0  0  0  0  0  0  0  0  0  0  0
   -0.7183   18.2749  -30.5826 H   0  0  0  0  0  0  0  0  0  0  0  0
    0.9838   18.8491  -30.5826 H   0  0  0  0  0  0  0  0  0  0  0  0
    0.0949   21.1754  -30.3896 H   0  0  0  0  0  0  0  0  0  0  0  0
   -5.4030   19.5720  -31.7230 H   0  0  0  0  0  0  0  0  0  0  0  0
   -4.4290   20.1340  -30.3560 H   0  0  0  0  0  0  0  0  0  0  0  0
   -8.2377   20.3397  -30.8632 H   0  0  0  0  0  0  0  0  0  0  0  0
   -8.8809   21.1244  -32.3550 H   0  0  0  0  0  0  0  0  0  0  0  0
   -8.1705   18.0355  -31.4690 H   0  0  0  0  0  0  0  0  0  0  0  0
   -7.0216   16.2314  -32.7484 H   0  0  0  0  0  0  0  0  0  0  0  0
   -5.5937   16.8064  -34.7160 H   0  0  0  0  0  0  0  0  0  0  0  0
   -5.3347   19.1874  -35.4133 H   0  0  0  0  0  0  0  0  0  0  0  0
   -6.4681   21.0031  -34.1288 H   0  0  0  0  0  0  0  0  0  0  0  0
  1  2  1  0
  2  3  1  0
  3  4  1  0
  4  5  1  0
  5  6  1  0
  6  7  2  0
  6  8  1  0
  8  9  2  0
  9 10  1  0
 10 11  2  0
 11 12  1  0
 12 13  2  0
 13 14  1  0
 14 15  1  0
 15 16  2  0
 16 17  1  0
 17 18  2  0
 18 19  1  0
 18 20  1  0
 20 21  1  0
 20 22  2  0
  5 23  1  0
 23 24  2  0
 24 25  1  0
 24 26  1  0
 26 27  1  0
 27 28  1  0
 28 29  2  0
 29 30  1  0
 30 31  2  0
 31 32  1  0
 32 33  2  0
 26 34  1  0
 34 35  2  0
 34 36  1  0
 36 37  1  0
 37 38  2  0
 13  8  1  0
 22 15  1  0
 37 23  1  0
 33 28  1  0
  1 39  1  0
  1 40  1  0
  1 41  1  0
  3 42  1  0
  3 43  1  0
  4 44  1  0
  4 45  1  0
  9 46  1  0
 10 47  1  0
 11 48  1  0
 12 49  1  0
 16 50  1  0
 17 51  1  0
 19 52  1  0
 19 53  1  0
 19 54  1  0
 21 55  1  0
 21 56  1  0
 21 57  1  0
 22 58  1  0
 25 59  1  0
 25 60  1  0
 27 61  1  0
 27 62  1  0
 29 63  1  0
 30 64  1  0
 31 65  1  0
 32 66  1  0
 33 67  1  0
M  CHG  1  36  -1
M  END
>  <UniqueID>  (24) 
24

>  <SMILES>  (24) 
COCCN(C(=O)c1ccccc1Sc1ccc(C)c(C)c1)c1c(N)n(Cc2ccccc2)c(=O)[n-]c1=O

>  <Energy>  (24) 
89.20827859683216

>  <Genealogy>  (24) 
COCCN(C(=O)c1ccccc1Sc1ccc(C)c(C)c1)c1c(N)n(Cc2ccccc2)c(=O)[n-]c1=O (protonated)
COCCN(C(=O)c1ccccc1Sc1ccc(C)c(C)c1)c1c(N)n(Cc2ccccc2)c(=O)[n-]c1=O (3D coordinates assigned)
COCCN(C(=O)c1ccccc1Sc1ccc(C)c(C)c1)c1c(N)n(Cc2ccccc2)c(=O)[n-]c1=O (optimized conformer: 89.20827859683216 kcal/mol)

>  <smiles>  (24) 
COCCN(C(=O)c1ccccc1Sc1ccc(C)c(C)c1)c1c(N)n(Cc2ccccc2)c(=O)[nH]c1=O

>  <score_type>  (24) 
oracle

>  <origin>  (24) 
adgpu

>  <m_score__min__energy>  (24) 
-10.69

>  <m_primary>  (24) 
energy

$$$$
24:0
     RDKit          3D

 54 56  0  0  0  0  0  0  0  0999 V2000
   -5.8520   15.6580  -34.2090 C   0  0  0  0  0  0  0  0  0  0  0  0
   -5.0380   16.5870  -33.4060 N   0  0  0  0  0  0  0  0  0  0  0  0
   -5.3770   16.5300  -31.9630 C   0  0  0  0  0  0  0  0  0  0  0  0
   -6.3610   17.6320  -31.5240 C   0  0  0  0  0  0  0  0  0  0  0  0
   -7.2290   18.0020  -32.6470 N   0  0  0  0  0  0  0  0  0  0  0  0
   -8.5140   19.0550  -32.1100 S   0  0  0  0  0  0  0  0  0  0  0  0
   -9.1410   18.4800  -30.8700 O   0  0  0  0  0  0  0  0  0  0  0  0
   -9.5730   19.1360  -33.1740 O   0  0  0  0  0  0  0  0  0  0  0  0
   -7.9160   20.6780  -31.7540 C   0  0  0  0  0  0  0  0  0  0  0  0
   -8.8050   21.7610  -31.7120 C   0  0  0  0  0  0  0  0  0  0  0  0
   -8.3390   23.0420  -31.4050 C   0  0  0  0  0  0  0  0  0  0  0  0
   -6.9780   23.2570  -31.1420 C   0  0  0  0  0  0  0  0  0  0  0  0
   -6.4910   24.6300  -30.7690 C   0  0  0  0  0  0  0  0  0  0  0  0
   -5.5400   24.5440  -29.6630 N   0  0  0  0  0  0  0  0  0  0  0  0
   -4.1300   24.3580  -29.8760 C   0  0  0  0  0  0  0  0  0  0  0  0
   -3.6910   24.2170  -31.0500 O   0  0  0  0  0  0  0  0  0  0  0  0
   -3.1810   24.3070  -28.7380 C   0  0  0  0  0  0  0  0  0  0  0  0
   -3.6320   24.5540  -27.4310 C   0  0  0  0  0  0  0  0  0  0  0  0
   -2.7400   24.5060  -26.3580 C   0  0  0  0  0  0  0  0  0  0  0  0
   -1.3970   24.2030  -26.5960 C   0  0  0  0  0  0  0  0  0  0  0  0
   -0.2520   24.1430  -25.2670 S   0  0  0  0  0  0  0  0  0  0  0  0
   -0.5150   25.5310  -24.1860 C   0  0  0  0  0  0  0  0  0  0  0  0
    1.1490   24.1970  -25.8070 O   0  0  0  0  0  0  0  0  0  0  0  0
   -0.4330   22.8590  -24.5040 O   0  0  0  0  0  0  0  0  0  0  0  0
   -0.9750   23.9520  -27.8630 N   0  0  0  0  0  0  0  0  0  0  0  0
   -1.8230   23.9940  -28.9260 C   0  0  0  0  0  0  0  0  0  0  0  0
   -6.0880   22.1710  -31.1920 C   0  0  0  0  0  0  0  0  0  0  0  0
   -6.5550   20.8910  -31.4990 C   0  0  0  0  0  0  0  0  0  0  0  0
   -6.4520   18.6440  -33.7250 C   0  0  0  0  0  0  0  0  0  0  0  0
   -5.0800   17.9620  -33.9410 C   0  0  0  0  0  0  0  0  0  0  0  0
   -6.4271   15.0016  -33.5394 H   0  0  0  0  0  0  0  0  0  0  0  0
   -6.5438   16.2313  -34.8436 H   0  0  0  0  0  0  0  0  0  0  0  0
   -5.1928   15.0475  -34.8436 H   0  0  0  0  0  0  0  0  0  0  0  0
   -5.8311   15.5511  -31.7494 H   0  0  0  0  0  0  0  0  0  0  0  0
   -4.4432   16.6849  -31.4026 H   0  0  0  0  0  0  0  0  0  0  0  0
   -6.9783   17.2600  -30.6930 H   0  0  0  0  0  0  0  0  0  0  0  0
   -5.7932   18.5160  -31.1984 H   0  0  0  0  0  0  0  0  0  0  0  0
   -9.8731   21.6018  -31.9214 H   0  0  0  0  0  0  0  0  0  0  0  0
   -9.0431   23.8863  -31.3694 H   0  0  0  0  0  0  0  0  0  0  0  0
   -5.9972   25.0891  -31.6381 H   0  0  0  0  0  0  0  0  0  0  0  0
   -7.3494   25.2435  -30.4579 H   0  0  0  0  0  0  0  0  0  0  0  0
   -5.9270   24.5450  -28.6930 H   0  0  0  0  0  0  0  0  0  0  0  0
   -4.6922   24.7862  -27.2520 H   0  0  0  0  0  0  0  0  0  0  0  0
   -3.0913   24.7049  -25.3348 H   0  0  0  0  0  0  0  0  0  0  0  0
   -0.4519   25.1979  -23.1396 H   0  0  0  0  0  0  0  0  0  0  0  0
    0.2546   26.2939  -24.3750 H   0  0  0  0  0  0  0  0  0  0  0  0
   -1.5103   25.9595  -24.3750 H   0  0  0  0  0  0  0  0  0  0  0  0
   -1.4447   23.7822  -29.9370 H   0  0  0  0  0  0  0  0  0  0  0  0
   -5.0187   22.3295  -30.9885 H   0  0  0  0  0  0  0  0  0  0  0  0
   -5.8512   20.0466  -31.5407 H   0  0  0  0  0  0  0  0  0  0  0  0
   -7.0281   18.5855  -34.6603 H   0  0  0  0  0  0  0  0  0  0  0  0
   -6.2682   19.6886  -33.4333 H   0  0  0  0  0  0  0  0  0  0  0  0
   -4.8705   17.9264  -35.0203 H   0  0  0  0  0  0  0  0  0  0  0  0
   -4.3260   18.5527  -33.4001 H   0  0  0  0  0  0  0  0  0  0  0  0
  1  2  1  0
  2  3  1  0
  3  4  1  0
  4  5  1  0
  5  6  1  0
  6  7  2  0
  6  8  2  0
  6  9  1  0
  9 10  2  0
 10 11  1  0
 11 12  2  0
 12 13  1  0
 13 14  1  0
 14 15  1  0
 15 16  2  0
 15 17  1  0
 17 18  2  0
 18 19  1  0
 19 20  2  0
 20 21  1  0
 21 22  1  0
 21 23  2  0
 21 24  2  0
 20 25  1  0
 25 26  2  0
 12 27  1  0
 27 28  2  0
  5 29  1  0
 29 30  1  0
 30  2  1  0
 28  9  1  0
 26 17  1  0
  1 31  1  0
  1 32  1  0
  1 33  1  0
  3 34  1  0
  3 35  1  0
  4 36  1  0
  4 37  1  0
 10 38  1  0
 11 39  1  0
 13 40  1  0
 13 41  1  0
 14 42  1  0
 18 43  1  0
 19 44  1  0
 22 45  1  0
 22 46  1  0
 22 47  1  0
 26 48  1  0
 27 49  1  0
 28 50  1  0
 29 51  1  0
 29 52  1  0
 30 53  1  0
 30 54  1  0
M  END
>  <UniqueID>  (25) 
25

>  <SMILES>  (25) 
CN1CCN(S(=O)(=O)c2ccc(CNC(=O)c3ccc(S(C)(=O)=O)nc3)cc2)CC1

>  <Energy>  (25) 
61.04964965326405

>  <Genealogy>  (25) 
CN1CCN(S(=O)(=O)c2ccc(CNC(=O)c3ccc(S(C)(=O)=O)nc3)cc2)CC1 (3D coordinates assigned)
CN1CCN(S(=O)(=O)c2ccc(CNC(=O)c3ccc(S(C)(=O)=O)nc3)cc2)CC1 (nonaromatic ring conformer: 61.04964965326405 kcal/mol)

>  <smiles>  (25) 
CN1CCN(S(=O)(=O)c2ccc(CNC(=O)c3ccc(S(C)(=O)=O)nc3)cc2)CC1

>  <score_type>  (25) 
oracle

>  <origin>  (25) 
adgpu

>  <m_score__min__energy>  (25) 
-10.34

>  <m_primary>  (25) 
energy

$$$$
25:0
     RDKit          3D

 37 39  0  0  0  0  0  0  0  0999 V2000
   -2.6350   20.8880  -27.5770 C   0  0  0  0  0  0  0  0  0  0  0  0
   -2.2850   22.2800  -28.0140 C   0  0  0  0  0  0  0  0  0  0  0  0
   -1.1070   22.8890  -27.5590 C   0  0  0  0  0  0  0  0  0  0  0  0
   -0.7610   24.1680  -28.0010 C   0  0  0  0  0  0  0  0  0  0  0  0
   -1.5780   24.8410  -28.9140 C   0  0  0  0  0  0  0  0  0  0  0  0
   -1.2150   26.1110  -29.3510 O   0  0  0  0  0  0  0  0  0  0  0  0
   -2.7500   24.2380  -29.3940 C   0  0  0  0  0  0  0  0  0  0  0  0
   -3.5520   24.9490  -30.3490 N   0  0  0  0  0  0  0  0  0  0  0  0
   -5.2790   24.8450  -30.4810 S   0  0  0  0  0  0  0  0  0  0  0  0
   -5.7880   26.0470  -31.2260 O   0  0  0  0  0  0  0  0  0  0  0  0
   -5.8750   24.8320  -29.1010 O   0  0  0  0  0  0  0  0  0  0  0  0
   -5.7320   23.3930  -31.3670 C   0  0  0  0  0  0  0  0  0  0  0  0
   -7.0630   23.1880  -31.7550 C   0  0  0  0  0  0  0  0  0  0  0  0
   -7.4280   22.0180  -32.4260 C   0  0  0  0  0  0  0  0  0  0  0  0
   -6.4650   21.0460  -32.7240 C   0  0  0  0  0  0  0  0  0  0  0  0
   -5.1210   21.2520  -32.3500 C   0  0  0  0  0  0  0  0  0  0  0  0
   -4.7650   22.4220  -31.6620 C   0  0  0  0  0  0  0  0  0  0  0  0
   -4.1010   20.1610  -32.5750 C   0  0  0  0  0  0  0  0  0  0  0  0
   -4.3880   19.3590  -33.8520 C   0  0  0  0  0  0  0  0  0  0  0  0
   -5.8330   18.9600  -33.9200 C   0  0  0  0  0  0  0  0  0  0  0  0
   -6.1660   17.8810  -34.4780 O   0  0  0  0  0  0  0  0  0  0  0  0
   -6.8370   19.8460  -33.4160 N   0  0  0  0  0  0  0  0  0  0  0  0
   -3.0990   22.9530  -28.9390 C   0  0  0  0  0  0  0  0  0  0  0  0
   -2.6469   20.8408  -26.4781 H   0  0  0  0  0  0  0  0  0  0  0  0
   -3.6284   20.6204  -27.9663 H   0  0  0  0  0  0  0  0  0  0  0  0
   -1.8863   20.1823  -27.9663 H   0  0  0  0  0  0  0  0  0  0  0  0
   -0.4531   22.3579  -26.8516 H   0  0  0  0  0  0  0  0  0  0  0  0
    0.1569   24.6470  -27.6296 H   0  0  0  0  0  0  0  0  0  0  0  0
   -7.8230   23.9509  -31.5305 H   0  0  0  0  0  0  0  0  0  0  0  0
   -8.4758   21.8598  -32.7213 H   0  0  0  0  0  0  0  0  0  0  0  0
   -3.7211   22.5781  -31.3524 H   0  0  0  0  0  0  0  0  0  0  0  0
   -3.1044   20.6188  -32.6597 H   0  0  0  0  0  0  0  0  0  0  0  0
   -4.1501   19.4690  -31.7213 H   0  0  0  0  0  0  0  0  0  0  0  0
   -4.1434   19.9773  -34.7283 H   0  0  0  0  0  0  0  0  0  0  0  0
   -3.7718   18.4478  -33.8409 H   0  0  0  0  0  0  0  0  0  0  0  0
   -7.8460   19.6240  -33.5770 H   0  0  0  0  0  0  0  0  0  0  0  0
   -4.0160   22.4724  -29.3106 H   0  0  0  0  0  0  0  0  0  0  0  0
  1  2  1  0
  2  3  2  0
  3  4  1  0
  4  5  2  0
  5  6  1  0
  5  7  1  0
  7  8  1  0
  8  9  1  0
  9 10  2  0
  9 11  2  0
  9 12  1  0
 12 13  2  0
 13 14  1  0
 14 15  2  0
 15 16  1  0
 16 17  2  0
 16 18  1  0
 18 19  1  0
 19 20  1  0
 20 21  2  0
 20 22  1  0
  7 23  2  0
 23  2  1  0
 17 12  1  0
 22 15  1  0
  1 24  1  0
  1 25  1  0
  1 26  1  0
  3 27  1  0
  4 28  1  0
 13 29  1  0
 14 30  1  0
 17 31  1  0
 18 32  1  0
 18 33  1  0
 19 34  1  0
 19 35  1  0
 22 36  1  0
 23 37  1  0
M  CHG  2   6  -1   8  -1
M  END
>  <UniqueID>  (26) 
26

>  <SMILES>  (26) 
Cc1ccc([O-])c([N-]S(=O)(=O)c2ccc3c(c2)CCC(=O)N3)c1

>  <Energy>  (26) 
40.822547756312645

>  <Genealogy>  (26) 
Cc1ccc([O-])c([N-]S(=O)(=O)c2ccc3c(c2)CCC(=O)N3)c1 (protonated)
Cc1ccc([O-])c([N-]S(=O)(=O)c2ccc3c(c2)CCC(=O)N3)c1 (3D coordinates assigned)
Cc1ccc([O-])c([N-]S(=O)(=O)c2ccc3c(c2)CCC(=O)N3)c1 (nonaromatic ring conformer: 40.822547756312645 kcal/mol)

>  <smiles>  (26) 
Cc1ccc(O)c(NS(=O)(=O)c2ccc3c(c2)CCC(=O)N3)c1

>  <score_type>  (26) 
oracle

>  <origin>  (26) 
adgpu

>  <m_score__min__energy>  (26) 
-13.67

>  <m_primary>  (26) 
energy

$$$$
26:0
     RDKit          3D

 65 69  0  0  0  0  0  0  0  0999 V2000
   -5.0580   19.2810  -34.5970 H   0  0  0  0  0  0  0  0  0  0  0  0
   -6.0900   19.1270  -34.5760 N   0  0  0  0  0  0  0  0  0  0  0  0
   -6.5790   19.1470  -32.9150 S   0  0  0  0  0  0  0  0  0  0  0  0
   -5.4270   18.7160  -32.0500 O   0  0  0  0  0  0  0  0  0  0  0  0
   -7.7120   18.1800  -32.7160 O   0  0  0  0  0  0  0  0  0  0  0  0
   -7.1080   20.7670  -32.4640 C   0  0  0  0  0  0  0  0  0  0  0  0
   -8.4750   21.0410  -32.3340 C   0  0  0  0  0  0  0  0  0  0  0  0
   -9.2153   20.2633  -32.5730 H   0  0  0  0  0  0  0  0  0  0  0  0
   -8.9020   22.3010  -31.9010 C   0  0  0  0  0  0  0  0  0  0  0  0
   -9.9772   22.5142  -31.8084 H   0  0  0  0  0  0  0  0  0  0  0  0
   -7.9660   23.2890  -31.5860 C   0  0  0  0  0  0  0  0  0  0  0  0
   -8.3054   24.2686  -31.2183 H   0  0  0  0  0  0  0  0  0  0  0  0
   -6.5960   23.0360  -31.7370 C   0  0  0  0  0  0  0  0  0  0  0  0
   -5.6430   24.0220  -31.3140 N   0  0  0  0  0  0  0  0  0  0  0  0
   -4.5710   23.7760  -30.6230 C   0  0  0  0  0  0  0  0  0  0  0  0
   -4.1770   22.5010  -30.3680 N   0  0  0  0  0  0  0  0  0  0  0  0
   -3.0480   22.2660  -29.6540 C   0  0  0  0  0  0  0  0  0  0  0  0
   -2.5000   20.5850  -29.3810 S   0  0  0  0  0  0  0  0  0  0  0  0
   -1.4330   20.5810  -30.8180 C   0  0  0  0  0  0  0  0  0  0  0  0
   -1.9070   21.0170  -32.0160 N   0  0  0  0  0  0  0  0  0  0  0  0
   -1.1460   20.9890  -33.1430 C   0  0  0  0  0  0  0  0  0  0  0  0
   -1.5574   21.3606  -34.0931 H   0  0  0  0  0  0  0  0  0  0  0  0
    0.1650   20.4860  -33.0950 C   0  0  0  0  0  0  0  0  0  0  0  0
    1.0020   20.4380  -34.2640 N   0  0  0  0  0  0  0  0  0  0  0  0
    1.3770   19.5070  -34.5550 H   0  0  0  0  0  0  0  0  0  0  0  0
    1.2220   21.5510  -35.1480 C   0  0  0  0  0  0  0  0  0  0  0  0
    0.5560   22.6150  -35.0250 O   0  0  0  0  0  0  0  0  0  0  0  0
    2.2000   21.4390  -36.2770 C   0  0  0  0  0  0  0  0  0  0  0  0
    3.2160   21.3226  -35.8718 H   0  0  0  0  0  0  0  0  0  0  0  0
    1.9489   20.5637  -36.8942 H   0  0  0  0  0  0  0  0  0  0  0  0
    2.1533   22.3484  -36.8942 H   0  0  0  0  0  0  0  0  0  0  0  0
    0.6750   20.0540  -31.8620 C   0  0  0  0  0  0  0  0  0  0  0  0
    1.7086   19.6838  -31.7948 H   0  0  0  0  0  0  0  0  0  0  0  0
   -0.1260   20.0930  -30.7210 C   0  0  0  0  0  0  0  0  0  0  0  0
    0.2663   19.7435  -29.7546 H   0  0  0  0  0  0  0  0  0  0  0  0
   -2.3140   23.3050  -29.1840 N   0  0  0  0  0  0  0  0  0  0  0  0
   -2.6900   24.5830  -29.4560 C   0  0  0  0  0  0  0  0  0  0  0  0
   -1.9680   25.6760  -28.9660 O   0  0  0  0  0  0  0  0  0  0  0  0
   -0.9780   25.6420  -27.9720 C   0  0  0  0  0  0  0  0  0  0  0  0
   -0.9500   26.5470  -26.8970 C   0  0  0  0  0  0  0  0  0  0  0  0
   -1.7123   27.3367  -26.8245 H   0  0  0  0  0  0  0  0  0  0  0  0
    0.0420   26.4460  -25.9220 C   0  0  0  0  0  0  0  0  0  0  0  0
    0.0588   27.1637  -25.0886 H   0  0  0  0  0  0  0  0  0  0  0  0
    1.0190   25.4410  -25.9900 C   0  0  0  0  0  0  0  0  0  0  0  0
    2.0390   25.3850  -24.9800 N   0  0  0  0  0  0  0  0  0  0  0  0
    2.9800   26.3190  -24.7280 C   0  0  0  0  0  0  0  0  0  0  0  0
    3.0616   27.2672  -25.2796 H   0  0  0  0  0  0  0  0  0  0  0  0
    3.8110   25.9620  -23.7240 N   0  0  0  0  0  0  0  0  0  0  0  0
    3.3710   24.7420  -23.3530 C   0  0  0  0  0  0  0  0  0  0  0  0
    3.9550   23.9390  -22.2390 C   0  0  0  0  0  0  0  0  0  0  0  0
    3.6431   24.3678  -21.2752 H   0  0  0  0  0  0  0  0  0  0  0  0
    3.5998   22.9004  -22.3103 H   0  0  0  0  0  0  0  0  0  0  0  0
    5.0525   23.9569  -22.3103 H   0  0  0  0  0  0  0  0  0  0  0  0
    2.2850   24.3790  -24.1210 C   0  0  0  0  0  0  0  0  0  0  0  0
    1.7216   23.4373  -24.0452 H   0  0  0  0  0  0  0  0  0  0  0  0
    0.9640   24.4930  -27.0410 C   0  0  0  0  0  0  0  0  0  0  0  0
    1.9290   23.3400  -27.1260 C   0  0  0  0  0  0  0  0  0  0  0  0
    2.2015   23.0144  -26.1113 H   0  0  0  0  0  0  0  0  0  0  0  0
    1.4564   22.5053  -27.6644 H   0  0  0  0  0  0  0  0  0  0  0  0
    2.8339   23.6582  -27.6644 H   0  0  0  0  0  0  0  0  0  0  0  0
   -0.0220   24.6240  -28.0320 C   0  0  0  0  0  0  0  0  0  0  0  0
   -0.0425   23.9126  -28.8708 H   0  0  0  0  0  0  0  0  0  0  0  0
   -3.8170   24.8110  -30.1760 N   0  0  0  0  0  0  0  0  0  0  0  0
   -6.1700   21.7690  -32.1780 C   0  0  0  0  0  0  0  0  0  0  0  0
   -5.0960   21.5640  -32.2988 H   0  0  0  0  0  0  0  0  0  0  0  0
  1  2  1  0
  2  3  1  0
  3  4  2  0
  3  5  2  0
  3  6  1  0
  6  7  2  0
  7  8  1  0
  7  9  1  0
  9 10  1  0
  9 11  2  0
 11 12  1  0
 11 13  1  0
 13 14  1  0
 14 15  2  0
 15 16  1  0
 16 17  2  0
 17 18  1  0
 18 19  1  0
 19 20  2  0
 20 21  1  0
 21 22  1  0
 21 23  2  0
 23 24  1  0
 24 25  1  0
 24 26  1  0
 26 27  2  0
 26 28  1  0
 28 29  1  0
 28 30  1  0
 28 31  1  0
 23 32  1  0
 32 33  1  0
 32 34  2  0
 34 35  1  0
 17 36  1  0
 36 37  2  0
 37 38  1  0
 38 39  1  0
 39 40  2  0
 40 41  1  0
 40 42  1  0
 42 43  1  0
 42 44  2  0
 44 45  1  0
 45 46  1  0
 46 47  1  0
 46 48  2  0
 48 49  1  0
 49 50  1  0
 50 51  1  0
 50 52  1  0
 50 53  1  0
 49 54  2  0
 54 55  1  0
 44 56  1  0
 56 57  1  0
 57 58  1  0
 57 59  1  0
 57 60  1  0
 56 61  2  0
 61 62  1  0
 37 63  1  0
 13 64  2  0
 64 65  1  0
 64  6  1  0
 63 15  1  0
 34 19  1  0
 61 39  1  0
 54 45  1  0
M  CHG  2   2  -1  63  -1
M  END
>  <UniqueID>  (27) 
27

>  <SMILES>  (27) 
CC(=O)Nc1ccc(Sc2nc(Oc3ccc(-n4cnc(C)c4)c(C)c3)[n-]/c(=N/c3cccc(S([NH-])(=O)=O)c3)n2)nc1

>  <Energy>  (27) 
114.7620085152189

>  <Genealogy>  (27) 
CC(=O)Nc1ccc(Sc2nc(Oc3ccc(-n4cnc(C)c4)c(C)c3)[n-]c(=Nc3cccc(S([NH-])(=O)=O)c3)n2)nc1 (protonated)
CC(=O)Nc1ccc(Sc2nc(Oc3ccc(-n4cnc(C)c4)c(C)c3)[n-]/c(=N/c3cccc(S([NH-])(=O)=O)c3)n2)nc1 (cis-trans isomerization)
CC(=O)Nc1ccc(Sc2nc(Oc3ccc(-n4cnc(C)c4)c(C)c3)[n-]/c(=N/c3cccc(S([NH-])(=O)=O)c3)n2)nc1 (3D coordinates assigned)
CC(=O)Nc1ccc(Sc2nc(Oc3ccc(-n4cnc(C)c4)c(C)c3)[n-]/c(=N/c3cccc(S([NH-])(=O)=O)c3)n2)nc1 (optimized conformer: 114.7620085152189 kcal/mol)

>  <smiles>  (27) 
CC(=O)Nc1ccc(Sc2nc(Oc3ccc(-n4cnc(C)c4)c(C)c3)[nH]c(=Nc3cccc(S(N)(=O)=O)c3)n2)nc1

>  <score_type>  (27) 
oracle

>  <origin>  (27) 
adgpu

>  <m_score__min__energy>  (27) 
-11.1

>  <m_primary>  (27) 
energy

$$$$
27:0
     RDKit          3D

 45 47  0  0  0  0  0  0  0  0999 V2000
   -1.1470   22.2670  -31.2970 O   0  0  0  0  0  0  0  0  0  0  0  0
   -1.9800   22.8080  -30.5230 C   0  0  0  0  0  0  0  0  0  0  0  0
   -1.5230   23.3490  -29.2780 N   0  0  0  0  0  0  0  0  0  0  0  0
   -2.3800   23.5680  -28.1180 C   0  0  0  0  0  0  0  0  0  0  0  0
   -1.8560   24.7310  -27.3190 C   0  0  0  0  0  0  0  0  0  0  0  0
   -1.9200   24.6830  -25.9140 C   0  0  0  0  0  0  0  0  0  0  0  0
   -1.4470   25.7490  -25.1460 C   0  0  0  0  0  0  0  0  0  0  0  0
   -0.9110   26.8770  -25.7680 C   0  0  0  0  0  0  0  0  0  0  0  0
   -0.8520   26.9440  -27.1610 C   0  0  0  0  0  0  0  0  0  0  0  0
   -1.3240   25.8840  -27.9450 C   0  0  0  0  0  0  0  0  0  0  0  0
   -1.2560   26.0120  -29.3350 O   0  0  0  0  0  0  0  0  0  0  0  0
   -3.3920   22.8970  -30.9360 C   0  0  0  0  0  0  0  0  0  0  0  0
   -4.0520   21.7450  -31.3910 C   0  0  0  0  0  0  0  0  0  0  0  0
   -5.3950   21.8080  -31.7890 C   0  0  0  0  0  0  0  0  0  0  0  0
   -6.2220   20.3680  -32.3760 S   0  0  0  0  0  0  0  0  0  0  0  0
   -5.2320   19.2490  -32.5430 O   0  0  0  0  0  0  0  0  0  0  0  0
   -6.8390   20.6840  -33.7100 O   0  0  0  0  0  0  0  0  0  0  0  0
   -7.4630   19.9070  -31.2290 N   0  0  0  0  0  0  0  0  0  0  0  0
   -8.4630   20.9750  -31.0510 C   0  0  0  0  0  0  0  0  0  0  0  0
   -9.4290   21.0840  -32.2550 C   0  0  0  0  0  0  0  0  0  0  0  0
   -9.4430   19.9300  -33.0780 O   0  0  0  0  0  0  0  0  0  0  0  0
   -9.4380   18.7650  -32.2860 C   0  0  0  0  0  0  0  0  0  0  0  0
   -8.0820   18.6080  -31.5770 C   0  0  0  0  0  0  0  0  0  0  0  0
   -6.0790   23.0290  -31.7300 C   0  0  0  0  0  0  0  0  0  0  0  0
   -5.4320   24.1740  -31.2590 C   0  0  0  0  0  0  0  0  0  0  0  0
   -4.0960   24.1120  -30.8520 C   0  0  0  0  0  0  0  0  0  0  0  0
   -3.4810   25.2540  -30.3500 O   0  0  0  0  0  0  0  0  0  0  0  0
   -3.4041   23.7864  -28.4548 H   0  0  0  0  0  0  0  0  0  0  0  0
   -2.3850   22.6647  -27.4903 H   0  0  0  0  0  0  0  0  0  0  0  0
   -2.3459   23.7990  -25.4169 H   0  0  0  0  0  0  0  0  0  0  0  0
   -1.4971   25.6993  -24.0483 H   0  0  0  0  0  0  0  0  0  0  0  0
   -0.5349   27.7135  -25.1607 H   0  0  0  0  0  0  0  0  0  0  0  0
   -0.4313   27.8367  -27.6469 H   0  0  0  0  0  0  0  0  0  0  0  0
   -1.9810   25.6820  -29.9580 H   0  0  0  0  0  0  0  0  0  0  0  0
   -3.5127   20.7873  -31.4356 H   0  0  0  0  0  0  0  0  0  0  0  0
   -9.0498   20.7623  -30.1452 H   0  0  0  0  0  0  0  0  0  0  0  0
   -7.9232   21.9297  -30.9661 H   0  0  0  0  0  0  0  0  0  0  0  0
  -10.4463   21.2493  -31.8707 H   0  0  0  0  0  0  0  0  0  0  0  0
   -9.0757   21.9195  -32.8772 H   0  0  0  0  0  0  0  0  0  0  0  0
  -10.2359   18.8352  -31.5320 H   0  0  0  0  0  0  0  0  0  0  0  0
   -9.6071   17.8915  -32.9329 H   0  0  0  0  0  0  0  0  0  0  0  0
   -8.2335   18.0319  -30.6523 H   0  0  0  0  0  0  0  0  0  0  0  0
   -7.4025   18.0928  -32.2719 H   0  0  0  0  0  0  0  0  0  0  0  0
   -7.1282   23.0864  -32.0554 H   0  0  0  0  0  0  0  0  0  0  0  0
   -5.9762   25.1286  -31.2081 H   0  0  0  0  0  0  0  0  0  0  0  0
  1  2  2  0
  2  3  1  0
  3  4  1  0
  4  5  1  0
  5  6  2  0
  6  7  1  0
  7  8  2  0
  8  9  1  0
  9 10  2  0
 10 11  1  0
  2 12  1  0
 12 13  2  0
 13 14  1  0
 14 15  1  0
 15 16  2  0
 15 17  2  0
 15 18  1  0
 18 19  1  0
 19 20  1  0
 20 21  1  0
 21 22  1  0
 22 23  1  0
 14 24  2  0
 24 25  1  0
 25 26  2  0
 26 27  1  0
 10  5  1  0
 26 12  1  0
 23 18  1  0
  4 28  1  0
  4 29  1  0
  6 30  1  0
  7 31  1  0
  8 32  1  0
  9 33  1  0
 11 34  1  0
 13 35  1  0
 19 36  1  0
 19 37  1  0
 20 38  1  0
 20 39  1  0
 22 40  1  0
 22 41  1  0
 23 42  1  0
 23 43  1  0
 24 44  1  0
 25 45  1  0
M  CHG  2   3  -1  27  -1
M  END
>  <UniqueID>  (28) 
28

>  <SMILES>  (28) 
O=C([N-]Cc1ccccc1O)c1cc(S(=O)(=O)N2CCOCC2)ccc1[O-]

>  <Energy>  (28) 
63.27820937315169

>  <Genealogy>  (28) 
O=C([N-]Cc1ccccc1O)c1cc(S(=O)(=O)N2CCOCC2)ccc1[O-] (protonated)
O=C([N-]Cc1ccccc1O)c1cc(S(=O)(=O)N2CCOCC2)ccc1[O-] (3D coordinates assigned)
O=C([N-]Cc1ccccc1O)c1cc(S(=O)(=O)N2CCOCC2)ccc1[O-] (nonaromatic ring conformer: 63.27820937315169 kcal/mol)

>  <smiles>  (28) 
O=C(NCc1ccccc1O)c1cc(S(=O)(=O)N2CCOCC2)ccc1O

>  <score_type>  (28) 
oracle

>  <origin>  (28) 
adgpu

>  <m_score__min__energy>  (28) 
-13.140000000000001

>  <m_primary>  (28) 
energy

$$$$
28:0
     RDKit          3D

 37 39  0  0  0  0  0  0  0  0999 V2000
   -7.9580   19.2110  -32.3610 C   0  0  0  0  0  0  0  0  0  0  0  0
   -6.6680   19.7840  -32.5470 O   0  0  0  0  0  0  0  0  0  0  0  0
   -6.2290   20.9690  -31.9330 C   0  0  0  0  0  0  0  0  0  0  0  0
   -7.0780   21.7550  -31.1290 C   0  0  0  0  0  0  0  0  0  0  0  0
   -6.6050   22.9290  -30.5380 C   0  0  0  0  0  0  0  0  0  0  0  0
   -5.2800   23.3370  -30.7420 C   0  0  0  0  0  0  0  0  0  0  0  0
   -4.6720   24.8250  -30.0240 S   0  0  0  0  0  0  0  0  0  0  0  0
   -3.9100   25.6440  -31.0290 O   0  0  0  0  0  0  0  0  0  0  0  0
   -5.8380   25.6330  -29.5290 O   0  0  0  0  0  0  0  0  0  0  0  0
   -3.6360   24.4440  -28.6880 N   0  0  0  0  0  0  0  0  0  0  0  0
   -2.8780   23.2340  -28.5380 C   0  0  0  0  0  0  0  0  0  0  0  0
   -3.5240   21.9700  -28.4520 C   0  0  0  0  0  0  0  0  0  0  0  0
   -2.7800   20.7870  -28.3250 C   0  0  0  0  0  0  0  0  0  0  0  0
   -1.3960   20.8920  -28.2860 C   0  0  0  0  0  0  0  0  0  0  0  0
   -0.7600   22.0890  -28.3720 C   0  0  0  0  0  0  0  0  0  0  0  0
   -1.4560   23.2990  -28.5060 C   0  0  0  0  0  0  0  0  0  0  0  0
   -0.7280   24.5880  -28.5600 C   0  0  0  0  0  0  0  0  0  0  0  0
   -1.2300   25.6870  -29.3250 N   0  0  0  0  0  0  0  0  0  0  0  0
    0.3500   24.7310  -27.9230 O   0  0  0  0  0  0  0  0  0  0  0  0
    0.6040   21.8790  -28.2790 O   0  0  0  0  0  0  0  0  0  0  0  0
    0.8370   20.4720  -28.1370 C   0  0  0  0  0  0  0  0  0  0  0  0
   -0.4670   19.8790  -28.1460 O   0  0  0  0  0  0  0  0  0  0  0  0
   -4.4320   22.5590  -31.5390 C   0  0  0  0  0  0  0  0  0  0  0  0
   -4.9010   21.3810  -32.1290 C   0  0  0  0  0  0  0  0  0  0  0  0
   -3.8090   20.4240  -33.1220 Cl  0  0  0  0  0  0  0  0  0  0  0  0
   -8.1664   19.1184  -31.2849 H   0  0  0  0  0  0  0  0  0  0  0  0
   -8.7167   19.8567  -32.8272 H   0  0  0  0  0  0  0  0  0  0  0  0
   -7.9875   18.2151  -32.8272 H   0  0  0  0  0  0  0  0  0  0  0  0
   -8.1199   21.4422  -30.9656 H   0  0  0  0  0  0  0  0  0  0  0  0
   -7.2748   23.5352  -29.9104 H   0  0  0  0  0  0  0  0  0  0  0  0
   -4.6223   21.9189  -28.4855 H   0  0  0  0  0  0  0  0  0  0  0  0
   -3.2772   19.8080  -28.2585 H   0  0  0  0  0  0  0  0  0  0  0  0
   -2.1910   25.6700  -29.7330 H   0  0  0  0  0  0  0  0  0  0  0  0
   -0.6600   26.5550  -29.4270 H   0  0  0  0  0  0  0  0  0  0  0  0
    1.4401   20.0932  -28.9753 H   0  0  0  0  0  0  0  0  0  0  0  0
    1.3929   20.2353  -27.2178 H   0  0  0  0  0  0  0  0  0  0  0  0
   -3.3913   22.8759  -31.7020 H   0  0  0  0  0  0  0  0  0  0  0  0
  1  2  1  0
  2  3  1  0
  3  4  2  0
  4  5  1  0
  5  6  2  0
  6  7  1  0
  7  8  2  0
  7  9  2  0
  7 10  1  0
 10 11  1  0
 11 12  2  0
 12 13  1  0
 13 14  2  0
 14 15  1  0
 15 16  2  0
 16 17  1  0
 17 18  1  0
 17 19  2  0
 15 20  1  0
 20 21  1  0
 21 22  1  0
  6 23  1  0
 23 24  2  0
 24 25  1  0
 24  3  1  0
 16 11  1  0
 22 14  1  0
  1 26  1  0
  1 27  1  0
  1 28  1  0
  4 29  1  0
  5 30  1  0
 12 31  1  0
 13 32  1  0
 18 33  1  0
 18 34  1  0
 21 35  1  0
 21 36  1  0
 23 37  1  0
M  CHG  1  10  -1
M  END
>  <UniqueID>  (29) 
29

>  <SMILES>  (29) 
COc1ccc(S(=O)(=O)[N-]c2ccc3c(c2C(N)=O)OCO3)cc1Cl

>  <Energy>  (29) 
72.61412261730774

>  <Genealogy>  (29) 
COc1ccc(S(=O)(=O)[N-]c2ccc3c(c2C(N)=O)OCO3)cc1Cl (protonated)
COc1ccc(S(=O)(=O)[N-]c2ccc3c(c2C(N)=O)OCO3)cc1Cl (3D coordinates assigned)
COc1ccc(S(=O)(=O)[N-]c2ccc3c(c2C(N)=O)OCO3)cc1Cl (nonaromatic ring conformer: 72.61412261730774 kcal/mol)

>  <smiles>  (29) 
COc1ccc(S(=O)(=O)Nc2ccc3c(c2C(N)=O)OCO3)cc1Cl

>  <score_type>  (29) 
oracle

>  <origin>  (29) 
adgpu

>  <m_score__min__energy>  (29) 
-8.8399999999999999

>  <m_primary>  (29) 
energy

$$$$
29:0
     RDKit          3D

 47 50  0  0  0  0  0  0  0  0999 V2000
   -5.2990   25.5770  -30.3860 C   0  0  0  0  0  0  0  0  0  0  0  0
   -3.8710   25.3130  -30.4850 N   0  0  0  0  0  0  0  0  0  0  0  0
   -3.2100   24.0650  -30.2320 C   0  0  0  0  0  0  0  0  0  0  0  0
   -2.3650   24.0210  -29.3000 O   0  0  0  0  0  0  0  0  0  0  0  0
   -3.4350   22.8420  -31.0320 C   0  0  0  0  0  0  0  0  0  0  0  0
   -2.5090   21.8320  -31.3210 C   0  0  0  0  0  0  0  0  0  0  0  0
   -3.0280   20.8510  -32.1800 C   0  0  0  0  0  0  0  0  0  0  0  0
   -2.3650   19.7140  -32.6640 C   0  0  0  0  0  0  0  0  0  0  0  0
   -0.6930   19.3040  -32.1480 S   0  0  0  0  0  0  0  0  0  0  0  0
   -0.0850   19.2810  -33.8350 C   0  0  0  0  0  0  0  0  0  0  0  0
   -0.1040   18.0870  -34.5660 C   0  0  0  0  0  0  0  0  0  0  0  0
    0.3600   18.0660  -35.8840 C   0  0  0  0  0  0  0  0  0  0  0  0
    0.8640   19.2320  -36.4680 C   0  0  0  0  0  0  0  0  0  0  0  0
    0.9200   20.4240  -35.7330 C   0  0  0  0  0  0  0  0  0  0  0  0
    1.4550   21.6080  -36.3430 N   0  0  0  0  0  0  0  0  0  0  0  0
    0.9190   22.9220  -36.1120 C   0  0  0  0  0  0  0  0  0  0  0  0
   -0.0580   23.0820  -35.3340 O   0  0  0  0  0  0  0  0  0  0  0  0
    1.4610   24.0660  -36.7820 N   0  0  0  0  0  0  0  0  0  0  0  0
    1.2950   25.4320  -36.3800 C   0  0  0  0  0  0  0  0  0  0  0  0
    2.4290   26.1900  -36.0660 C   0  0  0  0  0  0  0  0  0  0  0  0
    2.3030   27.5340  -35.7010 C   0  0  0  0  0  0  0  0  0  0  0  0
    1.0390   28.1360  -35.6660 C   0  0  0  0  0  0  0  0  0  0  0  0
    0.9090   29.5200  -35.2930 C   0  0  0  0  0  0  0  0  0  0  0  0
    0.8040   30.6330  -34.9940 N   0  0  0  0  0  0  0  0  0  0  0  0
   -0.0970   27.3910  -36.0080 C   0  0  0  0  0  0  0  0  0  0  0  0
    0.0300   26.0470  -36.3710 C   0  0  0  0  0  0  0  0  0  0  0  0
    0.4150   20.4500  -34.4210 C   0  0  0  0  0  0  0  0  0  0  0  0
   -3.0570   18.8750  -33.5570 C   0  0  0  0  0  0  0  0  0  0  0  0
   -4.3420   19.1620  -33.9240 N   0  0  0  0  0  0  0  0  0  0  0  0
   -4.9980   20.2590  -33.4530 C   0  0  0  0  0  0  0  0  0  0  0  0
   -4.3300   21.1050  -32.5740 C   0  0  0  0  0  0  0  0  0  0  0  0
   -4.8700   22.5270  -31.8740 S   0  0  0  0  0  0  0  0  0  0  0  0
   -5.5894   25.6307  -29.3264 H   0  0  0  0  0  0  0  0  0  0  0  0
   -5.5301   26.5331  -30.8784 H   0  0  0  0  0  0  0  0  0  0  0  0
   -5.8567   24.7667  -30.8784 H   0  0  0  0  0  0  0  0  0  0  0  0
   -1.4856   21.8099  -30.9183 H   0  0  0  0  0  0  0  0  0  0  0  0
   -0.4844   17.1648  -34.1025 H   0  0  0  0  0  0  0  0  0  0  0  0
    0.3287   17.1310  -36.4626 H   0  0  0  0  0  0  0  0  0  0  0  0
    1.2182   19.2138  -37.5092 H   0  0  0  0  0  0  0  0  0  0  0  0
    2.3150   21.5020  -36.9270 H   0  0  0  0  0  0  0  0  0  0  0  0
    3.4254   25.7257  -36.1066 H   0  0  0  0  0  0  0  0  0  0  0  0
    3.1976   28.1190  -35.4411 H   0  0  0  0  0  0  0  0  0  0  0  0
   -1.0899   27.8640  -35.9909 H   0  0  0  0  0  0  0  0  0  0  0  0
   -0.8627   25.4682  -36.6506 H   0  0  0  0  0  0  0  0  0  0  0  0
    0.4128   21.3921  -33.8531 H   0  0  0  0  0  0  0  0  0  0  0  0
   -2.5601   17.9815  -33.9628 H   0  0  0  0  0  0  0  0  0  0  0  0
   -6.0326   20.4710  -33.7608 H   0  0  0  0  0  0  0  0  0  0  0  0
  1  2  1  0
  2  3  1  0
  3  4  2  0
  3  5  1  0
  5  6  2  0
  6  7  1  0
  7  8  2  0
  8  9  1  0
  9 10  1  0
 10 11  2  0
 11 12  1  0
 12 13  2  0
 13 14  1  0
 14 15  1  0
 15 16  1  0
 16 17  2  0
 16 18  1  0
 18 19  1  0
 19 20  2  0
 20 21  1  0
 21 22  2  0
 22 23  1  0
 23 24  3  0
 22 25  1  0
 25 26  2  0
 14 27  2  0
  8 28  1  0
 28 29  2  0
 29 30  1  0
 30 31  2  0
 31 32  1  0
 32  5  1  0
 31  7  1  0
 27 10  1  0
 26 19  1  0
  1 33  1  0
  1 34  1  0
  1 35  1  0
  6 36  1  0
 11 37  1  0
 12 38  1  0
 13 39  1  0
 15 40  1  0
 20 41  1  0
 21 42  1  0
 25 43  1  0
 26 44  1  0
 27 45  1  0
 28 46  1  0
 30 47  1  0
M  CHG  2   2  -1  18  -1
M  END
>  <UniqueID>  (30) 
30

>  <SMILES>  (30) 
C[N-]C(=O)c1cc2c(Sc3cccc(NC(=O)[N-]c4ccc(C#N)cc4)c3)cncc2s1

>  <Energy>  (30) 
87.70654489297861

>  <Genealogy>  (30) 
C[N-]C(=O)c1cc2c(Sc3cccc(NC(=O)[N-]c4ccc(C#N)cc4)c3)cncc2s1 (protonated)
C[N-]C(=O)c1cc2c(Sc3cccc(NC(=O)[N-]c4ccc(C#N)cc4)c3)cncc2s1 (3D coordinates assigned)
C[N-]C(=O)c1cc2c(Sc3cccc(NC(=O)[N-]c4ccc(C#N)cc4)c3)cncc2s1 (optimized conformer: 87.70654489297861 kcal/mol)

>  <smiles>  (30) 
CNC(=O)c1cc2c(Sc3cccc(NC(=O)Nc4ccc(C#N)cc4)c3)cncc2s1

>  <score_type>  (30) 
oracle

>  <origin>  (30) 
adgpu

>  <m_score__min__energy>  (30) 
-12.529999999999999

>  <m_primary>  (30) 
energy

$$$$
30:0
     RDKit          3D

 62 66  0  0  0  0  0  0  0  0999 V2000
   -8.4670   19.6220  -31.8630 C   0  0  0  0  0  0  0  0  0  0  0  0
   -8.2350   20.8200  -32.6670 N   0  0  0  0  0  0  0  0  0  0  0  0
   -8.6480   22.2380  -31.7490 S   0  0  0  0  0  0  0  0  0  0  0  0
   -9.0700   23.3290  -32.6930 O   0  0  0  0  0  0  0  0  0  0  0  0
   -9.7990   21.9350  -30.8290 O   0  0  0  0  0  0  0  0  0  0  0  0
   -7.2610   22.7850  -30.8110 C   0  0  0  0  0  0  0  0  0  0  0  0
   -7.2160   24.0940  -30.3220 C   0  0  0  0  0  0  0  0  0  0  0  0
   -6.0950   24.5430  -29.6220 C   0  0  0  0  0  0  0  0  0  0  0  0
   -5.0010   23.6920  -29.4050 C   0  0  0  0  0  0  0  0  0  0  0  0
   -3.8200   24.2220  -28.6920 C   0  0  0  0  0  0  0  0  0  0  0  0
   -3.8650   24.4420  -27.3050 C   0  0  0  0  0  0  0  0  0  0  0  0
   -2.7380   24.9280  -26.6350 C   0  0  0  0  0  0  0  0  0  0  0  0
   -1.5640   25.2030  -27.3450 C   0  0  0  0  0  0  0  0  0  0  0  0
   -0.1500   25.8090  -26.5010 Cl  0  0  0  0  0  0  0  0  0  0  0  0
   -1.5180   24.9960  -28.7270 C   0  0  0  0  0  0  0  0  0  0  0  0
   -2.6440   24.5120  -29.4000 C   0  0  0  0  0  0  0  0  0  0  0  0
   -5.0330   22.3700  -29.9130 C   0  0  0  0  0  0  0  0  0  0  0  0
   -3.8380   21.4470  -29.8110 C   0  0  0  0  0  0  0  0  0  0  0  0
   -2.7670   21.8320  -30.7610 N   0  0  0  0  0  0  0  0  0  0  0  0
   -1.8760   20.6850  -31.0780 C   0  0  0  0  0  0  0  0  0  0  0  0
   -2.1780   20.0090  -32.4330 C   0  0  0  0  0  0  0  0  0  0  0  0
   -3.5880   20.1860  -32.8090 N   0  0  0  0  0  0  0  0  0  0  0  0
   -4.4020   19.0550  -33.1940 C   0  0  0  0  0  0  0  0  0  0  0  0
   -5.7100   19.2270  -33.6860 C   0  0  0  0  0  0  0  0  0  0  0  0
   -6.4740   18.1130  -34.0380 C   0  0  0  0  0  0  0  0  0  0  0  0
   -5.9370   16.8280  -33.9020 C   0  0  0  0  0  0  0  0  0  0  0  0
   -6.6780   15.6870  -34.2460 C   0  0  0  0  0  0  0  0  0  0  0  0
   -6.1120   14.4170  -34.0960 C   0  0  0  0  0  0  0  0  0  0  0  0
   -4.8100   14.2800  -33.6050 C   0  0  0  0  0  0  0  0  0  0  0  0
   -4.0660   15.4130  -33.2600 C   0  0  0  0  0  0  0  0  0  0  0  0
   -4.6240   16.6880  -33.4060 C   0  0  0  0  0  0  0  0  0  0  0  0
   -3.9040   17.7910  -33.0710 N   0  0  0  0  0  0  0  0  0  0  0  0
   -4.1320   21.5510  -32.8310 C   0  0  0  0  0  0  0  0  0  0  0  0
   -3.2700   22.4990  -31.9830 C   0  0  0  0  0  0  0  0  0  0  0  0
   -6.1740   21.9290  -30.6030 C   0  0  0  0  0  0  0  0  0  0  0  0
   -8.4167   19.8816  -30.7953 H   0  0  0  0  0  0  0  0  0  0  0  0
   -9.4612   19.2121  -32.0943 H   0  0  0  0  0  0  0  0  0  0  0  0
   -7.6977   18.8705  -32.0943 H   0  0  0  0  0  0  0  0  0  0  0  0
   -8.8860   20.7860  -33.4840 H   0  0  0  0  0  0  0  0  0  0  0  0
   -8.0661   24.7717  -30.4893 H   0  0  0  0  0  0  0  0  0  0  0  0
   -6.0691   25.5731  -29.2371 H   0  0  0  0  0  0  0  0  0  0  0  0
   -4.7883   24.2316  -26.7453 H   0  0  0  0  0  0  0  0  0  0  0  0
   -2.7744   25.0944  -25.5483 H   0  0  0  0  0  0  0  0  0  0  0  0
   -0.5955   25.2140  -29.2851 H   0  0  0  0  0  0  0  0  0  0  0  0
   -2.6077   24.3580  -30.4886 H   0  0  0  0  0  0  0  0  0  0  0  0
   -3.4393   21.4914  -28.7868 H   0  0  0  0  0  0  0  0  0  0  0  0
   -4.1687   20.4280  -30.0606 H   0  0  0  0  0  0  0  0  0  0  0  0
   -0.8380   21.0486  -31.0969 H   0  0  0  0  0  0  0  0  0  0  0  0
   -2.0458   19.9264  -30.2998 H   0  0  0  0  0  0  0  0  0  0  0  0
   -1.5401   20.4578  -33.2087 H   0  0  0  0  0  0  0  0  0  0  0  0
   -1.9733   18.9322  -32.3401 H   0  0  0  0  0  0  0  0  0  0  0  0
   -6.1294   20.2383  -33.7929 H   0  0  0  0  0  0  0  0  0  0  0  0
   -7.4964   18.2451  -34.4216 H   0  0  0  0  0  0  0  0  0  0  0  0
   -7.7024   15.7914  -34.6330 H   0  0  0  0  0  0  0  0  0  0  0  0
   -6.6931   13.5227  -34.3652 H   0  0  0  0  0  0  0  0  0  0  0  0
   -4.3697   13.2786  -33.4898 H   0  0  0  0  0  0  0  0  0  0  0  0
   -3.0420   15.3018  -32.8738 H   0  0  0  0  0  0  0  0  0  0  0  0
   -4.1517   21.9140  -33.8692 H   0  0  0  0  0  0  0  0  0  0  0  0
   -5.1486   21.5308  -32.4114 H   0  0  0  0  0  0  0  0  0  0  0  0
   -2.4128   22.8359  -32.5843 H   0  0  0  0  0  0  0  0  0  0  0  0
   -3.8948   23.3512  -31.6774 H   0  0  0  0  0  0  0  0  0  0  0  0
   -6.2135   20.8981  -30.9845 H   0  0  0  0  0  0  0  0  0  0  0  0
  1  2  1  0
  2  3  1  0
  3  4  2  0
  3  5  2  0
  3  6  1  0
  6  7  2  0
  7  8  1  0
  8  9  2  0
  9 10  1  0
 10 11  2  0
 11 12  1  0
 12 13  2  0
 13 14  1  0
 13 15  1  0
 15 16  2  0
  9 17  1  0
 17 18  1  0
 18 19  1  0
 19 20  1  0
 20 21  1  0
 21 22  1  0
 22 23  1  0
 23 24  2  0
 24 25  1  0
 25 26  2  0
 26 27  1  0
 27 28  2  0
 28 29  1  0
 29 30  2  0
 30 31  1  0
 31 32  2  0
 22 33  1  0
 33 34  1  0
 17 35  2  0
 35  6  1  0
 16 10  1  0
 34 19  1  0
 32 23  1  0
 31 26  1  0
  1 36  1  0
  1 37  1  0
  1 38  1  0
  2 39  1  0
  7 40  1  0
  8 41  1  0
 11 42  1  0
 12 43  1  0
 15 44  1  0
 16 45  1  0
 18 46  1  0
 18 47  1  0
 20 48  1  0
 20 49  1  0
 21 50  1  0
 21 51  1  0
 24 52  1  0
 25 53  1  0
 27 54  1  0
 28 55  1  0
 29 56  1  0
 30 57  1  0
 33 58  1  0
 33 59  1  0
 34 60  1  0
 34 61  1  0
 35 62  1  0
M  END
>  <UniqueID>  (31) 
31

>  <SMILES>  (31) 
CNS(=O)(=O)c1ccc(-c2ccc(Cl)cc2)c(CN2CCN(c3ccc4ccccc4n3)CC2)c1

>  <Energy>  (31) 
84.49895184111058

>  <Genealogy>  (31) 
CNS(=O)(=O)c1ccc(-c2ccc(Cl)cc2)c(CN2CCN(c3ccc4ccccc4n3)CC2)c1 (3D coordinates assigned)
CNS(=O)(=O)c1ccc(-c2ccc(Cl)cc2)c(CN2CCN(c3ccc4ccccc4n3)CC2)c1 (nonaromatic ring conformer: 84.49895184111058 kcal/mol)

>  <smiles>  (31) 
CNS(=O)(=O)c1ccc(-c2ccc(Cl)cc2)c(CN2CCN(c3ccc4ccccc4n3)CC2)c1

>  <score_type>  (31) 
oracle

>  <origin>  (31) 
adgpu

>  <m_score__min__energy>  (31) 
-11.5

>  <m_primary>  (31) 
energy

$$$$
31:0
     RDKit          3D

 48 51  0  0  0  0  0  0  0  0999 V2000
   -5.9060   25.4060  -30.1280 C   0  0  0  0  0  0  0  0  0  0  0  0
   -5.9940   24.0390  -30.7440 C   0  0  0  0  0  0  0  0  0  0  0  0
   -7.2390   23.4180  -30.9220 C   0  0  0  0  0  0  0  0  0  0  0  0
   -7.3150   22.1380  -31.4930 C   0  0  0  0  0  0  0  0  0  0  0  0
   -8.5640   21.4670  -31.7120 N   0  0  0  0  0  0  0  0  0  0  0  0
   -8.7510   19.7590  -31.9450 S   0  0  0  0  0  0  0  0  0  0  0  0
   -9.0500   19.1110  -30.6230 O   0  0  0  0  0  0  0  0  0  0  0  0
   -9.9000   19.5150  -32.8830 O   0  0  0  0  0  0  0  0  0  0  0  0
   -7.2640   19.0710  -32.5930 C   0  0  0  0  0  0  0  0  0  0  0  0
   -6.5450   18.1260  -31.8470 C   0  0  0  0  0  0  0  0  0  0  0  0
   -5.3560   17.5900  -32.3510 C   0  0  0  0  0  0  0  0  0  0  0  0
   -4.8830   17.9920  -33.6040 C   0  0  0  0  0  0  0  0  0  0  0  0
   -5.6000   18.9280  -34.3540 C   0  0  0  0  0  0  0  0  0  0  0  0
   -6.7890   19.4660  -33.8530 C   0  0  0  0  0  0  0  0  0  0  0  0
   -6.1310   21.4980  -31.8620 C   0  0  0  0  0  0  0  0  0  0  0  0
   -4.9330   22.1090  -31.6730 N   0  0  0  0  0  0  0  0  0  0  0  0
   -4.8280   23.3520  -31.1280 C   0  0  0  0  0  0  0  0  0  0  0  0
   -3.5780   23.9610  -30.9410 O   0  0  0  0  0  0  0  0  0  0  0  0
   -2.7710   23.8580  -29.7990 C   0  0  0  0  0  0  0  0  0  0  0  0
   -2.6270   22.6140  -29.1830 C   0  0  0  0  0  0  0  0  0  0  0  0
   -1.8260   22.4950  -28.0450 C   0  0  0  0  0  0  0  0  0  0  0  0
   -1.1670   23.6190  -27.5210 C   0  0  0  0  0  0  0  0  0  0  0  0
   -0.3100   23.5080  -26.3120 C   0  0  0  0  0  0  0  0  0  0  0  0
   -0.5020   22.6880  -25.2070 C   0  0  0  0  0  0  0  0  0  0  0  0
    0.4900   22.8920  -24.3190 N   0  0  0  0  0  0  0  0  0  0  0  0
    1.3070   23.7970  -24.8330 N   0  0  0  0  0  0  0  0  0  0  0  0
    2.4700   24.3290  -24.1360 C   0  0  0  0  0  0  0  0  0  0  0  0
    0.8520   24.2060  -26.0310 C   0  0  0  0  0  0  0  0  0  0  0  0
   -1.3400   24.8520  -28.1740 C   0  0  0  0  0  0  0  0  0  0  0  0
   -2.1270   24.9400  -29.2790 N   0  0  0  0  0  0  0  0  0  0  0  0
   -5.9118   25.3153  -29.0318 H   0  0  0  0  0  0  0  0  0  0  0  0
   -4.9746   25.8943  -30.4505 H   0  0  0  0  0  0  0  0  0  0  0  0
   -6.7671   26.0097  -30.4505 H   0  0  0  0  0  0  0  0  0  0  0  0
   -8.1590   23.9359  -30.6131 H   0  0  0  0  0  0  0  0  0  0  0  0
   -6.9174   17.8056  -30.8628 H   0  0  0  0  0  0  0  0  0  0  0  0
   -4.7924   16.8518  -31.7616 H   0  0  0  0  0  0  0  0  0  0  0  0
   -3.9466   17.5715  -33.9993 H   0  0  0  0  0  0  0  0  0  0  0  0
   -5.2281   19.2420  -35.3404 H   0  0  0  0  0  0  0  0  0  0  0  0
   -7.3530   20.2000  -34.4473 H   0  0  0  0  0  0  0  0  0  0  0  0
   -6.1683   20.4933  -32.3083 H   0  0  0  0  0  0  0  0  0  0  0  0
   -3.1416   21.7318  -29.5916 H   0  0  0  0  0  0  0  0  0  0  0  0
   -1.7108   21.5160  -27.5568 H   0  0  0  0  0  0  0  0  0  0  0  0
   -1.3352   21.9816  -25.0774 H   0  0  0  0  0  0  0  0  0  0  0  0
    2.3115   24.2565  -23.0499 H   0  0  0  0  0  0  0  0  0  0  0  0
    3.3620   23.7494  -24.4158 H   0  0  0  0  0  0  0  0  0  0  0  0
    2.6148   25.3829  -24.4158 H   0  0  0  0  0  0  0  0  0  0  0  0
    1.3217   24.9636  -26.6755 H   0  0  0  0  0  0  0  0  0  0  0  0
   -0.8358   25.7505  -27.7887 H   0  0  0  0  0  0  0  0  0  0  0  0
  1  2  1  0
  2  3  2  0
  3  4  1  0
  4  5  1  0
  5  6  1  0
  6  7  2  0
  6  8  2  0
  6  9  1  0
  9 10  2  0
 10 11  1  0
 11 12  2  0
 12 13  1  0
 13 14  2  0
  4 15  2  0
 15 16  1  0
 16 17  2  0
 17 18  1  0
 18 19  1  0
 19 20  2  0
 20 21  1  0
 21 22  2  0
 22 23  1  0
 23 24  1  0
 24 25  2  0
 25 26  1  0
 26 27  1  0
 26 28  1  0
 22 29  1  0
 29 30  2  0
 17  2  1  0
 30 19  1  0
 14  9  1  0
 28 23  2  0
  1 31  1  0
  1 32  1  0
  1 33  1  0
  3 34  1  0
 10 35  1  0
 11 36  1  0
 12 37  1  0
 13 38  1  0
 14 39  1  0
 15 40  1  0
 20 41  1  0
 21 42  1  0
 24 43  1  0
 27 44  1  0
 27 45  1  0
 27 46  1  0
 28 47  1  0
 29 48  1  0
M  CHG  1   5  -1
M  END
>  <UniqueID>  (32) 
32

>  <SMILES>  (32) 
Cc1cc([N-]S(=O)(=O)c2ccccc2)cnc1Oc1ccc(-c2cnn(C)c2)cn1

>  <Energy>  (32) 
89.2042734468637

>  <Genealogy>  (32) 
Cc1cc([N-]S(=O)(=O)c2ccccc2)cnc1Oc1ccc(-c2cnn(C)c2)cn1 (protonated)
Cc1cc([N-]S(=O)(=O)c2ccccc2)cnc1Oc1ccc(-c2cnn(C)c2)cn1 (3D coordinates assigned)
Cc1cc([N-]S(=O)(=O)c2ccccc2)cnc1Oc1ccc(-c2cnn(C)c2)cn1 (optimized conformer: 89.2042734468637 kcal/mol)

>  <smiles>  (32) 
Cc1cc(NS(=O)(=O)c2ccccc2)cnc1Oc1ccc(-c2cnn(C)c2)cn1

>  <score_type>  (32) 
oracle

>  <origin>  (32) 
adgpu

>  <m_score__min__energy>  (32) 
-10.48

>  <m_primary>  (32) 
energy

$$$$
32:0
     RDKit          3D

 24 25  0  0  0  0  0  0  0  0999 V2000
   -9.0630   20.9360  -32.2460 C   0  0  0  0  0  0  0  0  0  0  0  0
   -7.8080   21.5930  -31.7530 C   0  0  0  0  0  0  0  0  0  0  0  0
   -7.8170   22.3280  -30.5600 C   0  0  0  0  0  0  0  0  0  0  0  0
   -6.6410   22.9090  -30.0810 C   0  0  0  0  0  0  0  0  0  0  0  0
   -5.4320   22.7540  -30.7790 C   0  0  0  0  0  0  0  0  0  0  0  0
   -4.2090   23.4020  -30.2620 C   0  0  0  0  0  0  0  0  0  0  0  0
   -3.1120   22.7410  -29.8460 N   0  0  0  0  0  0  0  0  0  0  0  0
   -2.2380   23.7150  -29.5250 C   0  0  0  0  0  0  0  0  0  0  0  0
   -1.0760   23.4920  -29.0940 O   0  0  0  0  0  0  0  0  0  0  0  0
   -2.7210   24.9230  -29.7150 O   0  0  0  0  0  0  0  0  0  0  0  0
   -3.9410   24.7570  -30.1720 C   0  0  0  0  0  0  0  0  0  0  0  0
   -4.8270   25.8310  -30.4870 N   0  0  0  0  0  0  0  0  0  0  0  0
   -5.4180   22.0000  -31.9710 C   0  0  0  0  0  0  0  0  0  0  0  0
   -3.9290   21.7020  -32.8630 Cl  0  0  0  0  0  0  0  0  0  0  0  0
   -6.6010   21.4190  -32.4450 C   0  0  0  0  0  0  0  0  0  0  0  0
   -9.6718   20.6173  -31.3870 H   0  0  0  0  0  0  0  0  0  0  0  0
   -9.6354   21.6501  -32.8563 H   0  0  0  0  0  0  0  0  0  0  0  0
   -8.8022   20.0587  -32.8563 H   0  0  0  0  0  0  0  0  0  0  0  0
   -8.7550   22.4479  -29.9981 H   0  0  0  0  0  0  0  0  0  0  0  0
   -6.6616   23.4930  -29.1491 H   0  0  0  0  0  0  0  0  0  0  0  0
   -2.9570   21.7090  -29.8100 H   0  0  0  0  0  0  0  0  0  0  0  0
   -5.3420   26.3190  -29.7210 H   0  0  0  0  0  0  0  0  0  0  0  0
   -5.0070   26.1100  -31.4750 H   0  0  0  0  0  0  0  0  0  0  0  0
   -6.5830   20.8210  -33.3681 H   0  0  0  0  0  0  0  0  0  0  0  0
  1  2  1  0
  2  3  2  0
  3  4  1  0
  4  5  2  0
  5  6  1  0
  6  7  1  0
  7  8  1  0
  8  9  2  0
  8 10  1  0
 10 11  1  0
 11 12  1  0
  5 13  1  0
 13 14  1  0
 13 15  2  0
 15  2  1  0
 11  6  2  0
  1 16  1  0
  1 17  1  0
  1 18  1  0
  3 19  1  0
  4 20  1  0
  7 21  1  0
 12 22  1  0
 12 23  1  0
 15 24  1  0
M  END
>  <UniqueID>  (33) 
33

>  <SMILES>  (33) 
Cc1ccc(-c2[nH]c(=O)oc2N)c(Cl)c1

>  <Energy>  (33) 
62.19609219502643

>  <Genealogy>  (33) 
Cc1ccc(-c2[nH]c(=O)oc2N)c(Cl)c1 (3D coordinates assigned)
Cc1ccc(-c2[nH]c(=O)oc2N)c(Cl)c1 (optimized conformer: 62.19609219502643 kcal/mol)

>  <smiles>  (33) 
Cc1ccc(-c2[nH]c(=O)oc2N)c(Cl)c1

>  <score_type>  (33) 
oracle

>  <origin>  (33) 
adgpu

>  <m_score__min__energy>  (33) 
-6.3499999999999996

>  <m_primary>  (33) 
energy

$$$$
33:0
     RDKit          3D

 50 53  0  0  1  0  0  0  0  0999 V2000
    3.3840   24.9970  -27.2380 C   0  0  0  0  0  0  0  0  0  0  0  0
    2.0620   25.5230  -27.4030 O   0  0  0  0  0  0  0  0  0  0  0  0
    1.3020   25.9120  -26.3090 C   0  0  0  0  0  0  0  0  0  0  0  0
    1.8330   26.0860  -25.0490 C   0  0  0  0  0  0  0  0  0  0  0  0
    1.0800   26.4740  -23.9570 C   0  0  0  0  0  0  0  0  0  0  0  0
   -0.2770   26.6980  -24.1420 C   0  0  0  0  0  0  0  0  0  0  0  0
   -0.8290   26.5290  -25.4010 C   0  0  0  0  0  0  0  0  0  0  0  0
   -0.0500   26.1410  -26.4680 C   0  0  0  0  0  0  0  0  0  0  0  0
   -0.7130   25.9950  -27.7240 N   0  0  0  0  0  0  0  0  0  0  0  0
   -1.9620   25.3480  -27.8690 C   0  0  0  0  0  0  0  0  0  0  0  0
   -2.5060   24.8860  -26.8450 O   0  0  0  0  0  0  0  0  0  0  0  0
   -2.5230   25.2650  -29.1750 N   0  0  0  0  0  0  0  0  0  0  0  0
   -3.7710   24.6380  -29.4390 C   0  0  0  0  0  0  0  0  0  0  0  0
   -4.5330   25.1830  -30.4600 C   0  0  0  0  0  0  0  0  0  0  0  0
   -5.7580   24.6330  -30.7780 C   0  0  0  0  0  0  0  0  0  0  0  0
   -6.2430   23.5090  -30.0650 C   0  0  0  0  0  0  0  0  0  0  0  0
   -7.4930   23.0580  -30.3270 N   0  0  0  0  0  0  0  0  0  0  0  0
   -7.9520   22.1500  -31.0210 C   0  0  0  0  0  0  0  0  0  0  0  0
   -9.3010   21.9800  -31.0470 N   0  0  0  0  0  0  0  0  0  0  0  0
   -9.9010   21.0470  -31.7500 N   0  0  0  0  0  0  0  0  0  0  0  0
   -9.1790   20.1870  -32.5010 C   0  0  0  0  0  0  0  0  0  0  0  0
   -9.8180   19.3100  -33.1550 N   0  0  0  0  0  0  0  0  0  0  0  0
   -7.8080   20.3430  -32.4870 C   0  0  0  0  0  0  0  0  0  0  0  0
   -7.0690   19.4860  -33.2360 C   0  0  0  0  0  0  0  0  0  0  0  0
   -5.7070   19.6220  -33.2380 C   0  0  0  0  0  0  0  0  0  0  0  0
   -5.0200   20.5640  -32.5360 C   0  0  0  0  0  0  0  0  0  0  0  0
   -5.7990   21.4460  -31.7630 C   0  0  0  0  0  0  0  0  0  0  0  0
   -7.1580   21.3200  -31.7530 C   0  0  0  0  0  0  0  0  0  0  0  0
   -5.4460   22.9710  -29.0260 C   0  0  0  0  0  0  0  0  0  0  0  0
   -4.2270   23.5420  -28.7310 C   0  0  0  0  0  0  0  0  0  0  0  0
    3.6114   24.9065  -26.1656 H   0  0  0  0  0  0  0  0  0  0  0  0
    3.4459   24.0057  -27.7109 H   0  0  0  0  0  0  0  0  0  0  0  0
    4.1100   25.6748  -27.7109 H   0  0  0  0  0  0  0  0  0  0  0  0
    2.9089   25.9073  -24.9056 H   0  0  0  0  0  0  0  0  0  0  0  0
    1.5438   26.6018  -22.9678 H   0  0  0  0  0  0  0  0  0  0  0  0
   -0.9087   27.0071  -23.2962 H   0  0  0  0  0  0  0  0  0  0  0  0
   -1.9041   26.7071  -25.5505 H   0  0  0  0  0  0  0  0  0  0  0  0
   -0.2390   26.3870  -28.5570 H   0  0  0  0  0  0  0  0  0  0  0  0
   -2.0170   25.6730  -30.0040 H   0  0  0  0  0  0  0  0  0  0  0  0
   -4.1610   26.0551  -31.0177 H   0  0  0  0  0  0  0  0  0  0  0  0
   -6.3604   25.0691  -31.5885 H   0  0  0  0  0  0  0  0  0  0  0  0
   -9.9350   22.6120  -30.4870 H   0  0  0  0  0  0  0  0  0  0  0  0
  -10.9590   20.9630  -31.7320 H   0  0  0  0  0  0  0  0  0  0  0  0
   -9.4830   18.5740  -33.7740 H   0  0  0  0  0  0  0  0  0  0  0  0
   -7.5549   18.6977  -33.8297 H   0  0  0  0  0  0  0  0  0  0  0  0
   -5.1253   18.9186  -33.8518 H   0  0  0  0  0  0  0  0  0  0  0  0
   -3.9227   20.6322  -32.5704 H   0  0  0  0  0  0  0  0  0  0  0  0
   -5.3137   22.2344  -31.1688 H   0  0  0  0  0  0  0  0  0  0  0  0
   -5.7989   22.0992  -28.4555 H   0  0  0  0  0  0  0  0  0  0  0  0
   -3.6102   23.1210  -27.9233 H   0  0  0  0  0  0  0  0  0  0  0  0
  1  2  1  0
  2  3  1  0
  3  4  2  0
  4  5  1  0
  5  6  2  0
  6  7  1  0
  7  8  2  0
  8  9  1  0
  9 10  1  0
 10 11  2  0
 10 12  1  0
 12 13  1  0
 13 14  2  0
 14 15  1  0
 15 16  2  0
 16 17  1  0
 17 18  2  0
 18 19  1  0
 19 20  1  0
 20 21  1  0
 21 22  2  3
 21 23  1  0
 23 24  2  0
 24 25  1  0
 25 26  2  0
 26 27  1  0
 27 28  2  0
 16 29  1  0
 29 30  2  0
  8  3  1  0
 30 13  1  0
 28 18  1  0
 28 23  1  0
  1 31  1  0
  1 32  1  0
  1 33  1  0
  4 34  1  0
  5 35  1  0
  6 36  1  0
  7 37  1  0
  9 38  1  0
 12 39  1  0
 14 40  1  0
 15 41  1  0
 19 42  1  0
 20 43  1  0
 22 44  1  0
 24 45  1  0
 25 46  1  0
 26 47  1  0
 27 48  1  0
 29 49  1  0
 30 50  1  0
M  END
>  <smiles>  (34) 
COc1ccccc1NC(=O)Nc1ccc(N=c2[nH][nH]c(=N)c3ccccc23)cc1

>  <score_type>  (34) 
oracle

>  <origin>  (34) 
adgpu

>  <m_score__min__energy>  (34) 
-8.8599999999999994

>  <m_primary>  (34) 
energy

$$$$
34:0
     RDKit          3D

 68 71  0  0  0  0  0  0  0  0999 V2000
    2.9910   25.6870  -37.5630 C   0  0  0  0  0  0  0  0  0  0  0  0
    2.3440   24.5680  -36.7900 C   0  0  0  0  0  0  0  0  0  0  0  0
    3.1420   23.5040  -36.3290 C   0  0  0  0  0  0  0  0  0  0  0  0
    2.5760   22.4570  -35.6000 C   0  0  0  0  0  0  0  0  0  0  0  0
    1.2000   22.4480  -35.3230 C   0  0  0  0  0  0  0  0  0  0  0  0
    0.6180   21.3680  -34.5690 N   0  0  0  0  0  0  0  0  0  0  0  0
    1.4570   20.5730  -33.6570 C   0  0  0  0  0  0  0  0  0  0  0  0
    0.6100   19.8790  -32.5770 C   0  0  0  0  0  0  0  0  0  0  0  0
   -0.5240   20.8160  -32.1010 C   0  0  0  0  0  0  0  0  0  0  0  0
   -1.2910   20.2730  -30.8660 C   0  0  0  0  0  0  0  0  0  0  0  0
   -2.4860   21.0580  -30.5480 N   0  0  0  0  0  0  0  0  0  0  0  0
   -2.5040   22.4940  -30.4930 C   0  0  0  0  0  0  0  0  0  0  0  0
   -1.4200   23.1270  -30.3800 O   0  0  0  0  0  0  0  0  0  0  0  0
   -3.7930   23.2310  -30.5270 C   0  0  0  0  0  0  0  0  0  0  0  0
   -4.9620   22.5850  -30.9710 C   0  0  0  0  0  0  0  0  0  0  0  0
   -6.1940   23.2490  -30.9840 C   0  0  0  0  0  0  0  0  0  0  0  0
   -7.6590   22.3930  -31.4700 S   0  0  0  0  0  0  0  0  0  0  0  0
   -8.5110   23.3070  -32.3060 O   0  0  0  0  0  0  0  0  0  0  0  0
   -8.4460   22.0160  -30.2430 O   0  0  0  0  0  0  0  0  0  0  0  0
   -7.2910   20.9450  -32.3780 N   0  0  0  0  0  0  0  0  0  0  0  0
   -6.3340   20.0990  -31.6310 C   0  0  0  0  0  0  0  0  0  0  0  0
   -6.2970   18.6700  -32.1870 C   0  0  0  0  0  0  0  0  0  0  0  0
   -7.6700   17.9860  -32.0560 C   0  0  0  0  0  0  0  0  0  0  0  0
   -8.8360   18.9910  -31.9990 C   0  0  0  0  0  0  0  0  0  0  0  0
   -8.5250   20.2470  -32.8260 C   0  0  0  0  0  0  0  0  0  0  0  0
   -6.2590   24.5910  -30.5870 C   0  0  0  0  0  0  0  0  0  0  0  0
   -5.1020   25.2620  -30.1870 C   0  0  0  0  0  0  0  0  0  0  0  0
   -3.8730   24.5940  -30.1540 C   0  0  0  0  0  0  0  0  0  0  0  0
   -2.7450   25.2900  -29.7310 O   0  0  0  0  0  0  0  0  0  0  0  0
   -1.4750   21.2060  -33.2660 C   0  0  0  0  0  0  0  0  0  0  0  0
   -0.8190   21.0800  -34.6510 C   0  0  0  0  0  0  0  0  0  0  0  0
    0.4010   23.5120  -35.7730 C   0  0  0  0  0  0  0  0  0  0  0  0
    0.9600   24.5820  -36.4910 C   0  0  0  0  0  0  0  0  0  0  0  0
    0.0630   25.6920  -36.9730 C   0  0  0  0  0  0  0  0  0  0  0  0
    3.4150   26.4202  -36.8611 H   0  0  0  0  0  0  0  0  0  0  0  0
    3.7928   25.2795  -38.1962 H   0  0  0  0  0  0  0  0  0  0  0  0
    2.2378   26.1786  -38.1962 H   0  0  0  0  0  0  0  0  0  0  0  0
    4.2206   23.4976  -36.5451 H   0  0  0  0  0  0  0  0  0  0  0  0
    3.2117   21.6344  -35.2406 H   0  0  0  0  0  0  0  0  0  0  0  0
    1.9923   19.8079  -34.2385 H   0  0  0  0  0  0  0  0  0  0  0  0
    2.1655   21.2511  -33.1587 H   0  0  0  0  0  0  0  0  0  0  0  0
    0.1710   18.9608  -32.9944 H   0  0  0  0  0  0  0  0  0  0  0  0
    1.2543   19.6326  -31.7201 H   0  0  0  0  0  0  0  0  0  0  0  0
   -0.0353   21.7398  -31.7578 H   0  0  0  0  0  0  0  0  0  0  0  0
   -1.5961   19.2360  -31.0701 H   0  0  0  0  0  0  0  0  0  0  0  0
   -0.6136   20.3373  -30.0017 H   0  0  0  0  0  0  0  0  0  0  0  0
   -3.3500   20.5300  -30.2840 H   0  0  0  0  0  0  0  0  0  0  0  0
   -4.9064   21.5411  -31.3134 H   0  0  0  0  0  0  0  0  0  0  0  0
   -5.3293   20.5398  -31.7102 H   0  0  0  0  0  0  0  0  0  0  0  0
   -6.6590   20.0534  -30.5811 H   0  0  0  0  0  0  0  0  0  0  0  0
   -6.0137   18.7055  -33.2493 H   0  0  0  0  0  0  0  0  0  0  0  0
   -5.5624   18.0902  -31.6089 H   0  0  0  0  0  0  0  0  0  0  0  0
   -7.8176   17.3256  -32.9233 H   0  0  0  0  0  0  0  0  0  0  0  0
   -7.6708   17.4246  -31.1100 H   0  0  0  0  0  0  0  0  0  0  0  0
   -9.7422   18.5128  -32.3992 H   0  0  0  0  0  0  0  0  0  0  0  0
   -8.9873   19.2912  -30.9516 H   0  0  0  0  0  0  0  0  0  0  0  0
   -8.3988   19.9519  -33.8781 H   0  0  0  0  0  0  0  0  0  0  0  0
   -9.3649   20.9449  -32.6940 H   0  0  0  0  0  0  0  0  0  0  0  0
   -7.2247   25.1176  -30.5905 H   0  0  0  0  0  0  0  0  0  0  0  0
   -5.1568   26.3215  -29.8962 H   0  0  0  0  0  0  0  0  0  0  0  0
   -2.3550   20.5468  -33.2346 H   0  0  0  0  0  0  0  0  0  0  0  0
   -1.7457   22.2631  -33.1273 H   0  0  0  0  0  0  0  0  0  0  0  0
   -0.9618   20.0562  -35.0271 H   0  0  0  0  0  0  0  0  0  0  0  0
   -1.2880   21.8043  -35.3332 H   0  0  0  0  0  0  0  0  0  0  0  0
   -0.6782   23.5072  -35.5600 H   0  0  0  0  0  0  0  0  0  0  0  0
   -0.3639   26.2203  -36.1078 H   0  0  0  0  0  0  0  0  0  0  0  0
    0.6475   26.3977  -37.5816 H   0  0  0  0  0  0  0  0  0  0  0  0
   -0.7496   25.2686  -37.5816 H   0  0  0  0  0  0  0  0  0  0  0  0
  1  2  1  0
  2  3  2  0
  3  4  1  0
  4  5  2  0
  5  6  1  0
  6  7  1  0
  7  8  1  0
  8  9  1  0
  9 10  1  0
 10 11  1  0
 11 12  1  0
 12 13  2  0
 12 14  1  0
 14 15  2  0
 15 16  1  0
 16 17  1  0
 17 18  2  0
 17 19  2  0
 17 20  1  0
 20 21  1  0
 21 22  1  0
 22 23  1  0
 23 24  1  0
 24 25  1  0
 16 26  2  0
 26 27  1  0
 27 28  2  0
 28 29  1  0
  9 30  1  0
 30 31  1  0
  5 32  1  0
 32 33  2  0
 33 34  1  0
 33  2  1  0
 31  6  1  0
 28 14  1  0
 25 20  1  0
  1 35  1  0
  1 36  1  0
  1 37  1  0
  3 38  1  0
  4 39  1  0
  7 40  1  0
  7 41  1  0
  8 42  1  0
  8 43  1  0
  9 44  1  0
 10 45  1  0
 10 46  1  0
 11 47  1  0
 15 48  1  0
 21 49  1  0
 21 50  1  0
 22 51  1  0
 22 52  1  0
 23 53  1  0
 23 54  1  0
 24 55  1  0
 24 56  1  0
 25 57  1  0
 25 58  1  0
 26 59  1  0
 27 60  1  0
 30 61  1  0
 30 62  1  0
 31 63  1  0
 31 64  1  0
 32 65  1  0
 34 66  1  0
 34 67  1  0
 34 68  1  0
M  CHG  1  29  -1
M  END
>  <UniqueID>  (35) 
34

>  <SMILES>  (35) 
Cc1ccc(N2CCC(CNC(=O)c3cc(S(=O)(=O)N4CCCCC4)ccc3[O-])CC2)cc1C

>  <Energy>  (35) 
84.24161373079642

>  <Genealogy>  (35) 
Cc1ccc(N2CCC(CNC(=O)c3cc(S(=O)(=O)N4CCCCC4)ccc3[O-])CC2)cc1C (protonated)
Cc1ccc(N2CCC(CNC(=O)c3cc(S(=O)(=O)N4CCCCC4)ccc3[O-])CC2)cc1C (3D coordinates assigned)
Cc1ccc(N2CCC(CNC(=O)c3cc(S(=O)(=O)N4CCCCC4)ccc3[O-])CC2)cc1C (nonaromatic ring conformer: 84.24161373079642 kcal/mol)

>  <smiles>  (35) 
Cc1ccc(N2CCC(CNC(=O)c3cc(S(=O)(=O)N4CCCCC4)ccc3O)CC2)cc1C

>  <score_type>  (35) 
oracle

>  <origin>  (35) 
adgpu

>  <m_score__min__energy>  (35) 
-13.85

>  <m_primary>  (35) 
energy

$$$$
35:0
     RDKit          3D

 43 45  0  0  0  0  0  0  0  0999 V2000
   -2.2020   21.9770  -31.3600 C   0  0  0  0  0  0  0  0  0  0  0  0
   -3.0710   22.7970  -30.4680 C   0  0  0  0  0  0  0  0  0  0  0  0
   -3.8570   23.8000  -30.9140 N   0  0  0  0  0  0  0  0  0  0  0  0
   -4.5950   24.3470  -29.9090 C   0  0  0  0  0  0  0  0  0  0  0  0
   -5.5510   25.4750  -30.1580 C   0  0  0  0  0  0  0  0  0  0  0  0
   -6.8850   24.9580  -30.4640 N   0  0  0  0  0  0  0  0  0  0  0  0
   -7.1490   23.6300  -30.9590 C   0  0  0  0  0  0  0  0  0  0  0  0
   -6.8030   23.2420  -32.2690 C   0  0  0  0  0  0  0  0  0  0  0  0
   -7.0630   21.9420  -32.7130 C   0  0  0  0  0  0  0  0  0  0  0  0
   -7.6770   21.0150  -31.8640 C   0  0  0  0  0  0  0  0  0  0  0  0
   -7.9640   19.3700  -32.4260 S   0  0  0  0  0  0  0  0  0  0  0  0
   -9.3280   19.3040  -33.0530 O   0  0  0  0  0  0  0  0  0  0  0  0
   -7.9230   18.4160  -31.2640 O   0  0  0  0  0  0  0  0  0  0  0  0
   -6.7510   18.9270  -33.6060 N   0  0  0  0  0  0  0  0  0  0  0  0
   -5.4330   19.4610  -33.1980 C   0  0  0  0  0  0  0  0  0  0  0  0
   -4.2950   18.6640  -33.8550 C   0  0  0  0  0  0  0  0  0  0  0  0
   -4.2870   17.2810  -33.5230 O   0  0  0  0  0  0  0  0  0  0  0  0
   -5.5510   16.7830  -33.1070 C   0  0  0  0  0  0  0  0  0  0  0  0
   -6.7350   17.4580  -33.8250 C   0  0  0  0  0  0  0  0  0  0  0  0
   -8.0240   21.3950  -30.5610 C   0  0  0  0  0  0  0  0  0  0  0  0
   -7.7650   22.6930  -30.1140 C   0  0  0  0  0  0  0  0  0  0  0  0
   -4.4220   23.7570  -28.6590 C   0  0  0  0  0  0  0  0  0  0  0  0
   -3.2940   22.5210  -28.8260 S   0  0  0  0  0  0  0  0  0  0  0  0
   -1.5371   21.3496  -30.7483 H   0  0  0  0  0  0  0  0  0  0  0  0
   -2.8303   21.3350  -31.9949 H   0  0  0  0  0  0  0  0  0  0  0  0
   -1.5975   22.6415  -31.9949 H   0  0  0  0  0  0  0  0  0  0  0  0
   -5.6054   26.1083  -29.2602 H   0  0  0  0  0  0  0  0  0  0  0  0
   -5.1920   26.0629  -31.0156 H   0  0  0  0  0  0  0  0  0  0  0  0
   -7.6960   25.5900  -30.2770 H   0  0  0  0  0  0  0  0  0  0  0  0
   -6.3258   23.9660  -32.9458 H   0  0  0  0  0  0  0  0  0  0  0  0
   -6.7834   21.6466  -33.7350 H   0  0  0  0  0  0  0  0  0  0  0  0
   -7.0250   19.3870  -34.5050 H   0  0  0  0  0  0  0  0  0  0  0  0
   -5.3598   20.5146  -33.5054 H   0  0  0  0  0  0  0  0  0  0  0  0
   -5.3398   19.3739  -32.1054 H   0  0  0  0  0  0  0  0  0  0  0  0
   -4.3940   18.7565  -34.9466 H   0  0  0  0  0  0  0  0  0  0  0  0
   -3.3525   19.0863  -33.4763 H   0  0  0  0  0  0  0  0  0  0  0  0
   -5.5865   15.7031  -33.3134 H   0  0  0  0  0  0  0  0  0  0  0  0
   -5.6516   17.0019  -32.0337 H   0  0  0  0  0  0  0  0  0  0  0  0
   -6.6560   17.2602  -34.9042 H   0  0  0  0  0  0  0  0  0  0  0  0
   -7.6659   17.0417  -33.4126 H   0  0  0  0  0  0  0  0  0  0  0  0
   -8.5022   20.6687  -29.8874 H   0  0  0  0  0  0  0  0  0  0  0  0
   -8.0461   22.9835  -29.0910 H   0  0  0  0  0  0  0  0  0  0  0  0
   -4.9321   24.0477  -27.7288 H   0  0  0  0  0  0  0  0  0  0  0  0
  1  2  1  0
  2  3  2  0
  3  4  1  0
  4  5  1  0
  5  6  1  0
  6  7  1  0
  7  8  2  0
  8  9  1  0
  9 10  2  0
 10 11  1  0
 11 12  2  0
 11 13  2  0
 11 14  1  0
 14 15  1  0
 15 16  1  0
 16 17  1  0
 17 18  1  0
 18 19  1  0
 10 20  1  0
 20 21  2  0
  4 22  2  0
 22 23  1  0
 23  2  1  0
 21  7  1  0
 19 14  1  0
  1 24  1  0
  1 25  1  0
  1 26  1  0
  5 27  1  0
  5 28  1  0
  6 29  1  0
  8 30  1  0
  9 31  1  0
 14 32  1  0
 15 33  1  0
 15 34  1  0
 16 35  1  0
 16 36  1  0
 18 37  1  0
 18 38  1  0
 19 39  1  0
 19 40  1  0
 20 41  1  0
 21 42  1  0
 22 43  1  0
M  CHG  1  14   1
M  END
>  <UniqueID>  (36) 
35

>  <SMILES>  (36) 
Cc1nc(CNc2ccc(S(=O)(=O)[NH+]3CCOCC3)cc2)cs1

>  <Energy>  (36) 
82.0444425243318

>  <Genealogy>  (36) 
Cc1nc(CNc2ccc(S(=O)(=O)[NH+]3CCOCC3)cc2)cs1 (protonated)
Cc1nc(CNc2ccc(S(=O)(=O)[NH+]3CCOCC3)cc2)cs1 (3D coordinates assigned)
Cc1nc(CNc2ccc(S(=O)(=O)[NH+]3CCOCC3)cc2)cs1 (nonaromatic ring conformer: 82.0444425243318 kcal/mol)

>  <smiles>  (36) 
Cc1nc(CNc2ccc(S(=O)(=O)N3CCOCC3)cc2)cs1

>  <score_type>  (36) 
oracle

>  <origin>  (36) 
adgpu

>  <m_score__min__energy>  (36) 
-7.9900000000000002

>  <m_primary>  (36) 
energy

$$$$
36:0
     RDKit          3D

 39 41  0  0  0  0  0  0  0  0999 V2000
   -9.2300   20.5850  -31.8340 O   0  0  0  0  0  0  0  0  0  0  0  0
   -8.0120   20.5960  -32.1590 C   0  0  0  0  0  0  0  0  0  0  0  0
   -7.4500   19.4280  -32.8720 C   0  0  0  0  0  0  0  0  0  0  0  0
   -6.4940   19.6460  -33.8790 C   0  0  0  0  0  0  0  0  0  0  0  0
   -5.9040   18.5680  -34.5430 C   0  0  0  0  0  0  0  0  0  0  0  0
   -6.2560   17.2610  -34.2030 C   0  0  0  0  0  0  0  0  0  0  0  0
   -7.2060   17.0300  -33.2060 C   0  0  0  0  0  0  0  0  0  0  0  0
   -7.8150   18.1010  -32.5410 C   0  0  0  0  0  0  0  0  0  0  0  0
   -8.7900   17.8150  -31.5840 O   0  0  0  0  0  0  0  0  0  0  0  0
   -7.1780   21.7040  -31.7630 N   0  0  0  0  0  0  0  0  0  0  0  0
   -7.5450   22.4780  -30.5660 C   0  0  0  0  0  0  0  0  0  0  0  0
   -6.5560   23.6200  -30.3010 C   0  0  0  0  0  0  0  0  0  0  0  0
   -5.1800   23.1480  -30.5000 N   0  0  0  0  0  0  0  0  0  0  0  0
   -4.1620   23.4650  -29.5360 C   0  0  0  0  0  0  0  0  0  0  0  0
   -3.9960   22.6610  -28.3980 C   0  0  0  0  0  0  0  0  0  0  0  0
   -3.0070   22.9630  -27.4580 C   0  0  0  0  0  0  0  0  0  0  0  0
   -2.1790   24.0730  -27.6460 C   0  0  0  0  0  0  0  0  0  0  0  0
   -2.3410   24.8840  -28.7720 C   0  0  0  0  0  0  0  0  0  0  0  0
   -3.3310   24.5870  -29.7160 C   0  0  0  0  0  0  0  0  0  0  0  0
   -3.4950   25.4170  -30.8190 O   0  0  0  0  0  0  0  0  0  0  0  0
   -4.8200   22.3970  -31.7100 C   0  0  0  0  0  0  0  0  0  0  0  0
   -6.0450   22.1400  -32.5930 C   0  0  0  0  0  0  0  0  0  0  0  0
   -6.2081   20.6740  -34.1464 H   0  0  0  0  0  0  0  0  0  0  0  0
   -5.1616   18.7493  -35.3342 H   0  0  0  0  0  0  0  0  0  0  0  0
   -5.7849   16.4124  -34.7206 H   0  0  0  0  0  0  0  0  0  0  0  0
   -7.4782   15.9977  -32.9408 H   0  0  0  0  0  0  0  0  0  0  0  0
   -9.3540   18.5280  -31.1380 H   0  0  0  0  0  0  0  0  0  0  0  0
   -8.5492   22.9030  -30.7108 H   0  0  0  0  0  0  0  0  0  0  0  0
   -7.5240   21.7996  -29.7004 H   0  0  0  0  0  0  0  0  0  0  0  0
   -6.7612   24.4482  -30.9953 H   0  0  0  0  0  0  0  0  0  0  0  0
   -6.6729   23.9659  -29.2634 H   0  0  0  0  0  0  0  0  0  0  0  0
   -4.6479   21.7883  -28.2450 H   0  0  0  0  0  0  0  0  0  0  0  0
   -2.8802   22.3267  -26.5697 H   0  0  0  0  0  0  0  0  0  0  0  0
   -1.3991   24.3083  -26.9068 H   0  0  0  0  0  0  0  0  0  0  0  0
   -1.6890   25.7580  -28.9171 H   0  0  0  0  0  0  0  0  0  0  0  0
   -4.0804   22.9752  -32.2834 H   0  0  0  0  0  0  0  0  0  0  0  0
   -4.4038   21.4259  -31.4039 H   0  0  0  0  0  0  0  0  0  0  0  0
   -6.3149   23.0666  -33.1209 H   0  0  0  0  0  0  0  0  0  0  0  0
   -5.8065   21.3522  -33.3227 H   0  0  0  0  0  0  0  0  0  0  0  0
  1  2  2  0
  2  3  1  0
  3  4  2  0
  4  5  1  0
  5  6  2  0
  6  7  1  0
  7  8  2  0
  8  9  1  0
  2 10  1  0
 10 11  1  0
 11 12  1  0
 12 13  1  0
 13 14  1  0
 14 15  2  0
 15 16  1  0
 16 17  2  0
 17 18  1  0
 18 19  2  0
 19 20  1  0
 13 21  1  0
 21 22  1  0
  8  3  1  0
 22 10  1  0
 19 14  1  0
  4 23  1  0
  5 24  1  0
  6 25  1  0
  7 26  1  0
  9 27  1  0
 11 28  1  0
 11 29  1  0
 12 30  1  0
 12 31  1  0
 15 32  1  0
 16 33  1  0
 17 34  1  0
 18 35  1  0
 21 36  1  0
 21 37  1  0
 22 38  1  0
 22 39  1  0
M  CHG  1  20  -1
M  END
>  <UniqueID>  (37) 
36

>  <SMILES>  (37) 
O=C(c1ccccc1O)N1CCN(c2ccccc2[O-])CC1

>  <Energy>  (37) 
53.506678359472566

>  <Genealogy>  (37) 
O=C(c1ccccc1O)N1CCN(c2ccccc2[O-])CC1 (protonated)
O=C(c1ccccc1O)N1CCN(c2ccccc2[O-])CC1 (3D coordinates assigned)
O=C(c1ccccc1O)N1CCN(c2ccccc2[O-])CC1 (nonaromatic ring conformer: 53.506678359472566 kcal/mol)

>  <smiles>  (37) 
O=C(c1ccccc1O)N1CCN(c2ccccc2O)CC1

>  <score_type>  (37) 
oracle

>  <origin>  (37) 
adgpu

>  <m_score__min__energy>  (37) 
-10.81

>  <m_primary>  (37) 
energy

$$$$
37:0
     RDKit          3D

 34 36  0  0  0  0  0  0  0  0999 V2000
   -6.1170   27.0567  -30.5256 H   0  0  0  0  0  0  0  0  0  0  0  0
   -5.7290   26.0360  -30.3930 C   0  0  0  0  0  0  0  0  0  0  0  0
   -4.4810   25.6720  -30.7960 N   0  0  0  0  0  0  0  0  0  0  0  0
   -4.2300   24.3730  -30.5280 C   0  0  0  0  0  0  0  0  0  0  0  0
   -3.1020   23.8100  -30.8320 N   0  0  0  0  0  0  0  0  0  0  0  0
   -2.7270   22.1430  -30.5240 S   0  0  0  0  0  0  0  0  0  0  0  0
   -3.1140   21.8060  -29.1110 O   0  0  0  0  0  0  0  0  0  0  0  0
   -1.2500   21.9290  -30.6920 O   0  0  0  0  0  0  0  0  0  0  0  0
   -3.5860   21.1150  -31.6660 C   0  0  0  0  0  0  0  0  0  0  0  0
   -2.8690   20.2410  -32.4900 C   0  0  0  0  0  0  0  0  0  0  0  0
   -1.7748   20.1747  -32.3982 H   0  0  0  0  0  0  0  0  0  0  0  0
   -3.5370   19.4530  -33.4280 C   0  0  0  0  0  0  0  0  0  0  0  0
   -2.9665   18.7595  -34.0633 H   0  0  0  0  0  0  0  0  0  0  0  0
   -4.9280   19.5380  -33.5670 C   0  0  0  0  0  0  0  0  0  0  0  0
   -5.7380   18.5440  -34.8360 S   0  0  0  0  0  0  0  0  0  0  0  0
   -4.9930   17.0000  -34.2800 C   0  0  0  0  0  0  0  0  0  0  0  0
   -4.0220   16.3870  -35.0870 C   0  0  0  0  0  0  0  0  0  0  0  0
   -3.7188   16.8605  -36.0324 H   0  0  0  0  0  0  0  0  0  0  0  0
   -3.4380   15.1790  -34.6970 C   0  0  0  0  0  0  0  0  0  0  0  0
   -2.6886   14.6973  -35.3422 H   0  0  0  0  0  0  0  0  0  0  0  0
   -3.8050   14.5830  -33.4890 C   0  0  0  0  0  0  0  0  0  0  0  0
   -3.3514   13.6275  -33.1870 H   0  0  0  0  0  0  0  0  0  0  0  0
   -4.7480   15.2000  -32.6640 C   0  0  0  0  0  0  0  0  0  0  0  0
   -5.0275   14.7332  -31.7080 H   0  0  0  0  0  0  0  0  0  0  0  0
   -5.3400   16.4110  -33.0480 C   0  0  0  0  0  0  0  0  0  0  0  0
   -6.4630   17.1800  -31.9380 Cl  0  0  0  0  0  0  0  0  0  0  0  0
   -5.6600   20.3800  -32.7050 C   0  0  0  0  0  0  0  0  0  0  0  0
   -7.1000   20.4150  -32.7290 C   0  0  0  0  0  0  0  0  0  0  0  0
   -8.2570   20.4410  -32.7380 N   0  0  0  0  0  0  0  0  0  0  0  0
   -4.9820   21.1700  -31.7640 C   0  0  0  0  0  0  0  0  0  0  0  0
   -5.5506   21.8367  -31.0991 H   0  0  0  0  0  0  0  0  0  0  0  0
   -5.5450   23.6250  -29.7800 S   0  0  0  0  0  0  0  0  0  0  0  0
   -6.4790   25.0240  -29.8010 C   0  0  0  0  0  0  0  0  0  0  0  0
   -7.5041   25.1219  -29.4142 H   0  0  0  0  0  0  0  0  0  0  0  0
  1  2  1  0
  2  3  1  0
  3  4  1  0
  4  5  2  0
  5  6  1  0
  6  7  2  0
  6  8  2  0
  6  9  1  0
  9 10  2  0
 10 11  1  0
 10 12  1  0
 12 13  1  0
 12 14  2  0
 14 15  1  0
 15 16  1  0
 16 17  2  0
 17 18  1  0
 17 19  1  0
 19 20  1  0
 19 21  2  0
 21 22  1  0
 21 23  1  0
 23 24  1  0
 23 25  2  0
 25 26  1  0
 14 27  1  0
 27 28  1  0
 28 29  3  0
 27 30  2  0
 30 31  1  0
  4 32  1  0
 32 33  1  0
 33 34  1  0
 33  2  2  0
 30  9  1  0
 25 16  1  0
M  CHG  1   3  -1
M  END
>  <UniqueID>  (38) 
37

>  <SMILES>  (38) 
N#Cc1cc(S(=O)(=O)/N=c2/[n-]ccs2)ccc1Sc1ccccc1Cl

>  <Energy>  (38) 
67.6610749524966

>  <Genealogy>  (38) 
N#Cc1cc(S(=O)(=O)N=c2[n-]ccs2)ccc1Sc1ccccc1Cl (protonated)
N#Cc1cc(S(=O)(=O)/N=c2/[n-]ccs2)ccc1Sc1ccccc1Cl (cis-trans isomerization)
N#Cc1cc(S(=O)(=O)/N=c2/[n-]ccs2)ccc1Sc1ccccc1Cl (3D coordinates assigned)
N#Cc1cc(S(=O)(=O)/N=c2/[n-]ccs2)ccc1Sc1ccccc1Cl (optimized conformer: 67.6610749524966 kcal/mol)

>  <smiles>  (38) 
N#Cc1cc(S(=O)(=O)N=c2[nH]ccs2)ccc1Sc1ccccc1Cl

>  <score_type>  (38) 
oracle

>  <origin>  (38) 
adgpu

>  <m_score__min__energy>  (38) 
-10.359999999999999

>  <m_primary>  (38) 
energy

$$$$
38:0
     RDKit          3D

 43 45  0  0  0  0  0  0  0  0999 V2000
   -7.6500   19.8470  -33.8250 O   0  0  0  0  0  0  0  0  0  0  0  0
   -8.0510   20.0870  -32.3950 S   0  0  0  0  0  0  0  0  0  0  0  0
   -9.5470   20.2010  -32.3300 O   0  0  0  0  0  0  0  0  0  0  0  0
   -7.5470   18.7240  -31.4300 N   0  0  0  0  0  0  0  0  0  0  0  0
   -6.4600   17.9680  -32.0590 C   0  0  0  0  0  0  0  0  0  0  0  0
   -5.2560   18.8320  -32.3230 C   0  0  0  0  0  0  0  0  0  0  0  0
   -4.6350   18.8210  -33.5840 C   0  0  0  0  0  0  0  0  0  0  0  0
   -3.5230   19.6330  -33.8290 C   0  0  0  0  0  0  0  0  0  0  0  0
   -3.0190   20.4570  -32.8170 C   0  0  0  0  0  0  0  0  0  0  0  0
   -3.6330   20.4740  -31.5610 C   0  0  0  0  0  0  0  0  0  0  0  0
   -4.7500   19.6680  -31.3140 C   0  0  0  0  0  0  0  0  0  0  0  0
   -7.3470   21.5960  -31.8170 C   0  0  0  0  0  0  0  0  0  0  0  0
   -6.2240   22.1470  -32.4490 C   0  0  0  0  0  0  0  0  0  0  0  0
   -5.6100   23.2840  -31.9190 C   0  0  0  0  0  0  0  0  0  0  0  0
   -6.1140   23.8790  -30.7550 C   0  0  0  0  0  0  0  0  0  0  0  0
   -5.2470   25.2250  -30.0220 S   0  0  0  0  0  0  0  0  0  0  0  0
   -5.7220   26.5070  -30.6420 O   0  0  0  0  0  0  0  0  0  0  0  0
   -5.4920   25.2700  -28.5400 O   0  0  0  0  0  0  0  0  0  0  0  0
   -3.5470   25.0350  -30.3120 N   0  0  0  0  0  0  0  0  0  0  0  0
   -2.6540   24.3010  -29.4630 C   0  0  0  0  0  0  0  0  0  0  0  0
   -2.9070   22.9630  -29.1000 C   0  0  0  0  0  0  0  0  0  0  0  0
   -1.9990   22.2670  -28.2950 C   0  0  0  0  0  0  0  0  0  0  0  0
   -0.8380   22.8970  -27.8440 C   0  0  0  0  0  0  0  0  0  0  0  0
   -0.5870   24.2260  -28.1890 C   0  0  0  0  0  0  0  0  0  0  0  0
   -1.4910   24.9280  -28.9940 C   0  0  0  0  0  0  0  0  0  0  0  0
   -1.2180   26.2430  -29.3440 O   0  0  0  0  0  0  0  0  0  0  0  0
   -7.2630   23.3560  -30.1490 C   0  0  0  0  0  0  0  0  0  0  0  0
   -7.8790   22.2190  -30.6800 C   0  0  0  0  0  0  0  0  0  0  0  0
   -6.1672   17.1440  -31.3917 H   0  0  0  0  0  0  0  0  0  0  0  0
   -6.8240   17.5859  -33.0241 H   0  0  0  0  0  0  0  0  0  0  0  0
   -5.0252   18.1712  -34.3812 H   0  0  0  0  0  0  0  0  0  0  0  0
   -3.0438   19.6237  -34.8191 H   0  0  0  0  0  0  0  0  0  0  0  0
   -2.1407   21.0908  -33.0092 H   0  0  0  0  0  0  0  0  0  0  0  0
   -3.2372   21.1223  -30.7653 H   0  0  0  0  0  0  0  0  0  0  0  0
   -5.2335   19.6892  -30.3262 H   0  0  0  0  0  0  0  0  0  0  0  0
   -5.8257   21.6834  -33.3636 H   0  0  0  0  0  0  0  0  0  0  0  0
   -4.7282   23.7136  -32.4169 H   0  0  0  0  0  0  0  0  0  0  0  0
   -3.8222   22.4639  -29.4511 H   0  0  0  0  0  0  0  0  0  0  0  0
   -2.2002   21.2219  -28.0171 H   0  0  0  0  0  0  0  0  0  0  0  0
   -0.1212   22.3464  -27.2170 H   0  0  0  0  0  0  0  0  0  0  0  0
    0.3248   24.7233  -27.8267 H   0  0  0  0  0  0  0  0  0  0  0  0
   -7.6812   23.8403  -29.2543 H   0  0  0  0  0  0  0  0  0  0  0  0
   -8.7835   21.8123  -30.2042 H   0  0  0  0  0  0  0  0  0  0  0  0
  1  2  2  0
  2  3  2  0
  2  4  1  0
  4  5  1  0
  5  6  1  0
  6  7  2  0
  7  8  1  0
  8  9  2  0
  9 10  1  0
 10 11  2  0
  2 12  1  0
 12 13  2  0
 13 14  1  0
 14 15  2  0
 15 16  1  0
 16 17  2  0
 16 18  2  0
 16 19  1  0
 19 20  1  0
 20 21  2  0
 21 22  1  0
 22 23  2  0
 23 24  1  0
 24 25  2  0
 25 26  1  0
 15 27  1  0
 27 28  2  0
 11  6  1  0
 28 12  1  0
 25 20  1  0
  5 29  1  0
  5 30  1  0
  7 31  1  0
  8 32  1  0
  9 33  1  0
 10 34  1  0
 11 35  1  0
 13 36  1  0
 14 37  1  0
 21 38  1  0
 22 39  1  0
 23 40  1  0
 24 41  1  0
 27 42  1  0
 28 43  1  0
M  CHG  3   4  -1  19  -1  26  -1
M  END
>  <UniqueID>  (39) 
38

>  <SMILES>  (39) 
O=S(=O)([N-]Cc1ccccc1)c1ccc(S(=O)(=O)[N-]c2ccccc2[O-])cc1

>  <Energy>  (39) 
46.14628345123717

>  <Genealogy>  (39) 
O=S(=O)([N-]Cc1ccccc1)c1ccc(S(=O)(=O)[N-]c2ccccc2[O-])cc1 (protonated)
O=S(=O)([N-]Cc1ccccc1)c1ccc(S(=O)(=O)[N-]c2ccccc2[O-])cc1 (3D coordinates assigned)
O=S(=O)([N-]Cc1ccccc1)c1ccc(S(=O)(=O)[N-]c2ccccc2[O-])cc1 (optimized conformer: 46.14628345123717 kcal/mol)

>  <smiles>  (39) 
O=S(=O)(NCc1ccccc1)c1ccc(S(=O)(=O)Nc2ccccc2O)cc1

>  <score_type>  (39) 
oracle

>  <origin>  (39) 
adgpu

>  <m_score__min__energy>  (39) 
-14.01

>  <m_primary>  (39) 
energy

$$$$
39:0
     RDKit          3D

 49 51  0  0  0  0  0  0  0  0999 V2000
   -2.5270   19.2860  -26.7490 C   0  0  0  0  0  0  0  0  0  0  0  0
   -1.5160   20.0390  -27.3920 O   0  0  0  0  0  0  0  0  0  0  0  0
   -1.7230   20.6880  -28.6160 C   0  0  0  0  0  0  0  0  0  0  0  0
   -1.9080   20.0080  -29.6600 O   0  0  0  0  0  0  0  0  0  0  0  0
   -1.7050   22.1600  -28.6800 C   0  0  0  0  0  0  0  0  0  0  0  0
   -0.8800   22.9000  -27.8200 C   0  0  0  0  0  0  0  0  0  0  0  0
   -0.9190   24.2910  -27.8340 C   0  0  0  0  0  0  0  0  0  0  0  0
   -1.7770   24.9590  -28.7100 C   0  0  0  0  0  0  0  0  0  0  0  0
   -2.5920   24.2350  -29.5910 C   0  0  0  0  0  0  0  0  0  0  0  0
   -3.4950   24.9020  -30.4760 N   0  0  0  0  0  0  0  0  0  0  0  0
   -5.2060   25.0410  -30.2220 S   0  0  0  0  0  0  0  0  0  0  0  0
   -5.4800   24.9820  -28.7470 O   0  0  0  0  0  0  0  0  0  0  0  0
   -5.6760   26.3760  -30.7380 O   0  0  0  0  0  0  0  0  0  0  0  0
   -6.0740   23.7290  -31.0120 C   0  0  0  0  0  0  0  0  0  0  0  0
   -7.4580   23.7890  -31.1690 C   0  0  0  0  0  0  0  0  0  0  0  0
   -8.1440   22.7160  -31.7350 C   0  0  0  0  0  0  0  0  0  0  0  0
   -7.4590   21.5700  -32.1340 C   0  0  0  0  0  0  0  0  0  0  0  0
   -8.1580   20.5410  -32.6700 F   0  0  0  0  0  0  0  0  0  0  0  0
   -6.0630   21.4990  -31.9890 C   0  0  0  0  0  0  0  0  0  0  0  0
   -5.1460   20.0590  -32.4810 S   0  0  0  0  0  0  0  0  0  0  0  0
   -5.5770   18.8710  -31.6570 O   0  0  0  0  0  0  0  0  0  0  0  0
   -5.4790   19.7610  -33.9210 O   0  0  0  0  0  0  0  0  0  0  0  0
   -3.4110   20.2490  -32.2950 N   0  0  0  0  0  0  0  0  0  0  0  0
   -2.7010   19.0070  -32.6690 C   0  0  0  0  0  0  0  0  0  0  0  0
   -1.1880   19.2500  -32.8460 C   0  0  0  0  0  0  0  0  0  0  0  0
   -0.7890   20.4520  -32.2110 O   0  0  0  0  0  0  0  0  0  0  0  0
   -1.3770   21.5630  -32.8640 C   0  0  0  0  0  0  0  0  0  0  0  0
   -2.9040   21.4050  -33.0530 C   0  0  0  0  0  0  0  0  0  0  0  0
   -5.3780   22.5950  -31.4430 C   0  0  0  0  0  0  0  0  0  0  0  0
   -2.5450   22.8480  -29.5710 C   0  0  0  0  0  0  0  0  0  0  0  0
   -2.4110   19.3724  -25.6585 H   0  0  0  0  0  0  0  0  0  0  0  0
   -3.5144   19.6705  -27.0443 H   0  0  0  0  0  0  0  0  0  0  0  0
   -2.4414   18.2298  -27.0443 H   0  0  0  0  0  0  0  0  0  0  0  0
   -0.1991   22.3783  -27.1314 H   0  0  0  0  0  0  0  0  0  0  0  0
   -0.2728   24.8653  -27.1538 H   0  0  0  0  0  0  0  0  0  0  0  0
   -1.8135   26.0584  -28.7087 H   0  0  0  0  0  0  0  0  0  0  0  0
   -8.0092   24.6844  -30.8457 H   0  0  0  0  0  0  0  0  0  0  0  0
   -9.2344   22.7742  -31.8678 H   0  0  0  0  0  0  0  0  0  0  0  0
   -3.2360   20.4270  -31.2760 H   0  0  0  0  0  0  0  0  0  0  0  0
   -2.8522   18.2573  -31.8783 H   0  0  0  0  0  0  0  0  0  0  0  0
   -3.1075   18.6534  -33.6280 H   0  0  0  0  0  0  0  0  0  0  0  0
   -0.6344   18.4086  -32.4037 H   0  0  0  0  0  0  0  0  0  0  0  0
   -0.9697   19.3324  -33.9210 H   0  0  0  0  0  0  0  0  0  0  0  0
   -1.1883   22.4648  -32.2630 H   0  0  0  0  0  0  0  0  0  0  0  0
   -0.9246   21.6383  -33.8638 H   0  0  0  0  0  0  0  0  0  0  0  0
   -3.4069   22.3167  -32.6983 H   0  0  0  0  0  0  0  0  0  0  0  0
   -3.1107   21.2426  -34.1211 H   0  0  0  0  0  0  0  0  0  0  0  0
   -4.2822   22.5620  -31.3530 H   0  0  0  0  0  0  0  0  0  0  0  0
   -3.1777   22.2767  -30.2662 H   0  0  0  0  0  0  0  0  0  0  0  0
  1  2  1  0
  2  3  1  0
  3  4  2  0
  3  5  1  0
  5  6  2  0
  6  7  1  0
  7  8  2  0
  8  9  1  0
  9 10  1  0
 10 11  1  0
 11 12  2  0
 11 13  2  0
 11 14  1  0
 14 15  2  0
 15 16  1  0
 16 17  2  0
 17 18  1  0
 17 19  1  0
 19 20  1  0
 20 21  2  0
 20 22  2  0
 20 23  1  0
 23 24  1  0
 24 25  1  0
 25 26  1  0
 26 27  1  0
 27 28  1  0
 19 29  2  0
  9 30  2  0
 30  5  1  0
 29 14  1  0
 28 23  1  0
  1 31  1  0
  1 32  1  0
  1 33  1  0
  6 34  1  0
  7 35  1  0
  8 36  1  0
 15 37  1  0
 16 38  1  0
 23 39  1  0
 24 40  1  0
 24 41  1  0
 25 42  1  0
 25 43  1  0
 27 44  1  0
 27 45  1  0
 28 46  1  0
 28 47  1  0
 29 48  1  0
 30 49  1  0
M  CHG  2  10  -1  23   1
M  END
>  <UniqueID>  (40) 
39

>  <SMILES>  (40) 
COC(=O)c1cccc([N-]S(=O)(=O)c2ccc(F)c(S(=O)(=O)[NH+]3CCOCC3)c2)c1

>  <Energy>  (40) 
65.11819571633609

>  <Genealogy>  (40) 
COC(=O)c1cccc([N-]S(=O)(=O)c2ccc(F)c(S(=O)(=O)[NH+]3CCOCC3)c2)c1 (protonated)
COC(=O)c1cccc([N-]S(=O)(=O)c2ccc(F)c(S(=O)(=O)[NH+]3CCOCC3)c2)c1 (3D coordinates assigned)
COC(=O)c1cccc([N-]S(=O)(=O)c2ccc(F)c(S(=O)(=O)[NH+]3CCOCC3)c2)c1 (nonaromatic ring conformer: 65.11819571633609 kcal/mol)

>  <smiles>  (40) 
COC(=O)c1cccc(NS(=O)(=O)c2ccc(F)c(S(=O)(=O)N3CCOCC3)c2)c1

>  <score_type>  (40) 
oracle

>  <origin>  (40) 
adgpu

>  <m_score__min__energy>  (40) 
-10.029999999999999

>  <m_primary>  (40) 
energy

$$$$
40:0
     RDKit          3D

 38 40  0  0  0  0  0  0  0  0999 V2000
   -8.8530   20.4380  -30.7090 O   0  0  0  0  0  0  0  0  0  0  0  0
   -8.3710   20.8930  -31.7820 C   0  0  0  0  0  0  0  0  0  0  0  0
   -8.1960   22.3040  -31.9610 N   0  0  0  0  0  0  0  0  0  0  0  0
   -7.0780   23.0850  -31.5160 C   0  0  0  0  0  0  0  0  0  0  0  0
   -7.2310   24.1700  -30.6340 C   0  0  0  0  0  0  0  0  0  0  0  0
   -6.1130   24.8930  -30.2070 C   0  0  0  0  0  0  0  0  0  0  0  0
   -4.8280   24.5450  -30.6580 C   0  0  0  0  0  0  0  0  0  0  0  0
   -3.6600   25.2490  -30.2150 N   0  0  0  0  0  0  0  0  0  0  0  0
   -2.6420   24.7340  -29.3460 C   0  0  0  0  0  0  0  0  0  0  0  0
   -1.6270   25.4420  -29.1130 O   0  0  0  0  0  0  0  0  0  0  0  0
   -2.7830   23.4370  -28.6640 C   0  0  0  0  0  0  0  0  0  0  0  0
   -1.8450   22.4690  -28.6760 N   0  0  0  0  0  0  0  0  0  0  0  0
   -2.4390   21.4940  -27.9620 C   0  0  0  0  0  0  0  0  0  0  0  0
   -3.6700   21.8440  -27.5490 N   0  0  0  0  0  0  0  0  0  0  0  0
   -3.8910   23.0680  -27.9950 N   0  0  0  0  0  0  0  0  0  0  0  0
   -4.6750   23.4340  -31.4950 C   0  0  0  0  0  0  0  0  0  0  0  0
   -5.7910   22.7110  -31.9210 C   0  0  0  0  0  0  0  0  0  0  0  0
   -8.0390   20.0050  -32.8560 N   0  0  0  0  0  0  0  0  0  0  0  0
   -8.1510   18.5520  -32.7390 C   0  0  0  0  0  0  0  0  0  0  0  0
   -6.9490   17.8870  -33.3550 C   0  0  0  0  0  0  0  0  0  0  0  0
   -5.8880   18.6670  -33.8430 C   0  0  0  0  0  0  0  0  0  0  0  0
   -4.7580   18.0550  -34.3940 C   0  0  0  0  0  0  0  0  0  0  0  0
   -4.6780   16.6610  -34.4570 C   0  0  0  0  0  0  0  0  0  0  0  0
   -5.7270   15.8780  -33.9680 C   0  0  0  0  0  0  0  0  0  0  0  0
   -6.8580   16.4870  -33.4160 C   0  0  0  0  0  0  0  0  0  0  0  0
   -8.2336   24.4506  -30.2790 H   0  0  0  0  0  0  0  0  0  0  0  0
   -6.2397   25.7384  -29.5147 H   0  0  0  0  0  0  0  0  0  0  0  0
   -1.9712   20.5231  -27.7419 H   0  0  0  0  0  0  0  0  0  0  0  0
   -3.6693   23.1284  -31.8193 H   0  0  0  0  0  0  0  0  0  0  0  0
   -5.6579   21.8405  -32.5802 H   0  0  0  0  0  0  0  0  0  0  0  0
   -7.6990   20.4110  -33.7560 H   0  0  0  0  0  0  0  0  0  0  0  0
   -8.2136   18.2768  -31.6758 H   0  0  0  0  0  0  0  0  0  0  0  0
   -9.0562   18.2179  -33.2671 H   0  0  0  0  0  0  0  0  0  0  0  0
   -5.9462   19.7643  -33.7915 H   0  0  0  0  0  0  0  0  0  0  0  0
   -3.9315   18.6710  -34.7781 H   0  0  0  0  0  0  0  0  0  0  0  0
   -3.7892   16.1802  -34.8916 H   0  0  0  0  0  0  0  0  0  0  0  0
   -5.6628   14.7810  -34.0174 H   0  0  0  0  0  0  0  0  0  0  0  0
   -7.6797   15.8671  -33.0280 H   0  0  0  0  0  0  0  0  0  0  0  0
  1  2  2  0
  2  3  1  0
  3  4  1  0
  4  5  2  0
  5  6  1  0
  6  7  2  0
  7  8  1  0
  8  9  1  0
  9 10  2  0
  9 11  1  0
 11 12  1  0
 12 13  2  0
 13 14  1  0
 14 15  1  0
  7 16  1  0
 16 17  2  0
  2 18  1  0
 18 19  1  0
 19 20  1  0
 20 21  2  0
 21 22  1  0
 22 23  2  0
 23 24  1  0
 24 25  2  0
 17  4  1  0
 25 20  1  0
 15 11  2  0
  5 26  1  0
  6 27  1  0
 13 28  1  0
 16 29  1  0
 17 30  1  0
 18 31  1  0
 19 32  1  0
 19 33  1  0
 21 34  1  0
 22 35  1  0
 23 36  1  0
 24 37  1  0
 25 38  1  0
M  CHG  3   3  -1   8  -1  14  -1
M  END
>  <UniqueID>  (41) 
40

>  <SMILES>  (41) 
O=C([N-]c1ccc([N-]C(=O)c2nc[n-]n2)cc1)NCc1ccccc1

>  <Energy>  (41) 
77.18028423414768

>  <Genealogy>  (41) 
O=C([N-]c1ccc([N-]C(=O)c2nc[n-]n2)cc1)NCc1ccccc1 (protonated)
O=C([N-]c1ccc([N-]C(=O)c2nc[n-]n2)cc1)NCc1ccccc1 (3D coordinates assigned)
O=C([N-]c1ccc([N-]C(=O)c2nc[n-]n2)cc1)NCc1ccccc1 (optimized conformer: 77.18028423414768 kcal/mol)

>  <smiles>  (41) 
O=C(NCc1ccccc1)Nc1ccc(NC(=O)c2nc[nH]n2)cc1

>  <score_type>  (41) 
oracle

>  <origin>  (41) 
adgpu

>  <m_score__min__energy>  (41) 
-11.369999999999999

>  <m_primary>  (41) 
energy

$$$$
41:0
     RDKit          3D

 64 67  0  0  0  0  0  0  0  0999 V2000
   -5.3450   16.3570  -31.7600 O   0  0  0  0  0  0  0  0  0  0  0  0
   -5.3460   16.3000  -33.0200 C   0  0  0  0  0  0  0  0  0  0  0  0
   -4.7120   15.1220  -33.6980 C   0  0  0  0  0  0  0  0  0  0  0  0
   -3.4320   15.4720  -34.2260 O   0  0  0  0  0  0  0  0  0  0  0  0
   -2.7430   16.6680  -33.9640 C   0  0  0  0  0  0  0  0  0  0  0  0
   -3.1330   17.9020  -34.5190 C   0  0  0  0  0  0  0  0  0  0  0  0
   -2.4160   19.0650  -34.2310 C   0  0  0  0  0  0  0  0  0  0  0  0
   -1.3070   19.0200  -33.3790 C   0  0  0  0  0  0  0  0  0  0  0  0
   -0.4200   20.4980  -32.9940 S   0  0  0  0  0  0  0  0  0  0  0  0
    1.0530   20.1960  -32.9580 O   0  0  0  0  0  0  0  0  0  0  0  0
   -0.6590   21.5150  -34.0760 O   0  0  0  0  0  0  0  0  0  0  0  0
   -0.9110   21.1590  -31.4520 N   0  0  0  0  0  0  0  0  0  0  0  0
   -2.3170   20.8000  -31.1630 C   0  0  0  0  0  0  0  0  0  0  0  0
   -2.6480   20.9850  -29.6800 C   0  0  0  0  0  0  0  0  0  0  0  0
   -1.7890   20.0570  -28.8020 C   0  0  0  0  0  0  0  0  0  0  0  0
   -0.4510   19.6820  -29.4640 C   0  0  0  0  0  0  0  0  0  0  0  0
    0.0520   20.8100  -30.3770 C   0  0  0  0  0  0  0  0  0  0  0  0
   -0.9120   17.7960  -32.8270 C   0  0  0  0  0  0  0  0  0  0  0  0
   -1.6260   16.6270  -33.1140 C   0  0  0  0  0  0  0  0  0  0  0  0
   -1.1050   15.1080  -32.3990 Cl  0  0  0  0  0  0  0  0  0  0  0  0
   -5.9520   17.3430  -33.8010 N   0  0  0  0  0  0  0  0  0  0  0  0
   -6.4470   18.5750  -33.2510 C   0  0  0  0  0  0  0  0  0  0  0  0
   -7.6320   18.6170  -32.4950 C   0  0  0  0  0  0  0  0  0  0  0  0
   -8.0830   19.8240  -31.9540 C   0  0  0  0  0  0  0  0  0  0  0  0
   -7.3550   21.0050  -32.1580 C   0  0  0  0  0  0  0  0  0  0  0  0
   -7.9190   22.5250  -31.4630 S   0  0  0  0  0  0  0  0  0  0  0  0
   -8.0840   23.5300  -32.5700 O   0  0  0  0  0  0  0  0  0  0  0  0
   -9.2720   22.3040  -30.8450 O   0  0  0  0  0  0  0  0  0  0  0  0
   -6.8310   23.1780  -30.2570 N   0  0  0  0  0  0  0  0  0  0  0  0
   -6.8290   24.6530  -30.2060 C   0  0  0  0  0  0  0  0  0  0  0  0
   -5.7570   25.2770  -31.1120 C   0  0  0  0  0  0  0  0  0  0  0  0
   -4.4900   24.7140  -30.8500 O   0  0  0  0  0  0  0  0  0  0  0  0
   -4.5140   23.3470  -31.1940 C   0  0  0  0  0  0  0  0  0  0  0  0
   -5.4840   22.5770  -30.2880 C   0  0  0  0  0  0  0  0  0  0  0  0
   -6.1530   20.9580  -32.8760 C   0  0  0  0  0  0  0  0  0  0  0  0
   -5.7020   19.7520  -33.4180 C   0  0  0  0  0  0  0  0  0  0  0  0
   -4.5913   14.3075  -32.9686 H   0  0  0  0  0  0  0  0  0  0  0  0
   -5.3601   14.7997  -34.5263 H   0  0  0  0  0  0  0  0  0  0  0  0
   -4.0081   17.9501  -35.1837 H   0  0  0  0  0  0  0  0  0  0  0  0
   -2.7248   20.0222  -34.6765 H   0  0  0  0  0  0  0  0  0  0  0  0
   -2.9804   21.4426  -31.7605 H   0  0  0  0  0  0  0  0  0  0  0  0
   -2.4634   19.7406  -31.4205 H   0  0  0  0  0  0  0  0  0  0  0  0
   -2.4539   22.0298  -29.3959 H   0  0  0  0  0  0  0  0  0  0  0  0
   -3.7073   20.7330  -29.5237 H   0  0  0  0  0  0  0  0  0  0  0  0
   -1.5797   20.5676  -27.8504 H   0  0  0  0  0  0  0  0  0  0  0  0
   -2.3557   19.1267  -28.6491 H   0  0  0  0  0  0  0  0  0  0  0  0
    0.2972   19.4944  -28.6798 H   0  0  0  0  0  0  0  0  0  0  0  0
   -0.6054   18.7811  -30.0760 H   0  0  0  0  0  0  0  0  0  0  0  0
    0.2310   21.7047  -29.7627 H   0  0  0  0  0  0  0  0  0  0  0  0
    0.9728   20.4545  -30.8626 H   0  0  0  0  0  0  0  0  0  0  0  0
   -0.0354   17.7526  -32.1639 H   0  0  0  0  0  0  0  0  0  0  0  0
   -6.1440   17.1490  -34.8100 H   0  0  0  0  0  0  0  0  0  0  0  0
   -8.2073   17.6944  -32.3285 H   0  0  0  0  0  0  0  0  0  0  0  0
   -9.0124   19.8477  -31.3660 H   0  0  0  0  0  0  0  0  0  0  0  0
   -7.8161   25.0174  -30.5267 H   0  0  0  0  0  0  0  0  0  0  0  0
   -6.6021   24.9489  -29.1711 H   0  0  0  0  0  0  0  0  0  0  0  0
   -6.0225   25.0939  -32.1637 H   0  0  0  0  0  0  0  0  0  0  0  0
   -5.7111   26.3575  -30.9112 H   0  0  0  0  0  0  0  0  0  0  0  0
   -4.8377   23.2435  -32.2402 H   0  0  0  0  0  0  0  0  0  0  0  0
   -3.5037   22.9318  -31.0644 H   0  0  0  0  0  0  0  0  0  0  0  0
   -5.5675   21.5446  -30.6584 H   0  0  0  0  0  0  0  0  0  0  0  0
   -5.0812   22.6102  -29.2649 H   0  0  0  0  0  0  0  0  0  0  0  0
   -5.5614   21.8751  -33.0137 H   0  0  0  0  0  0  0  0  0  0  0  0
   -4.7565   19.7251  -33.9794 H   0  0  0  0  0  0  0  0  0  0  0  0
  1  2  2  0
  2  3  1  0
  3  4  1  0
  4  5  1  0
  5  6  2  0
  6  7  1  0
  7  8  2  0
  8  9  1  0
  9 10  2  0
  9 11  2  0
  9 12  1  0
 12 13  1  0
 13 14  1  0
 14 15  1  0
 15 16  1  0
 16 17  1  0
  8 18  1  0
 18 19  2  0
 19 20  1  0
  2 21  1  0
 21 22  1  0
 22 23  2  0
 23 24  1  0
 24 25  2  0
 25 26  1  0
 26 27  2  0
 26 28  2  0
 26 29  1  0
 29 30  1  0
 30 31  1  0
 31 32  1  0
 32 33  1  0
 33 34  1  0
 25 35  1  0
 35 36  2  0
 19  5  1  0
 36 22  1  0
 17 12  1  0
 34 29  1  0
  3 37  1  0
  3 38  1  0
  6 39  1  0
  7 40  1  0
 13 41  1  0
 13 42  1  0
 14 43  1  0
 14 44  1  0
 15 45  1  0
 15 46  1  0
 16 47  1  0
 16 48  1  0
 17 49  1  0
 17 50  1  0
 18 51  1  0
 21 52  1  0
 23 53  1  0
 24 54  1  0
 30 55  1  0
 30 56  1  0
 31 57  1  0
 31 58  1  0
 33 59  1  0
 33 60  1  0
 34 61  1  0
 34 62  1  0
 35 63  1  0
 36 64  1  0
M  END
>  <UniqueID>  (42) 
41

>  <SMILES>  (42) 
O=C(COc1ccc(S(=O)(=O)N2CCCCC2)cc1Cl)Nc1ccc(S(=O)(=O)N2CCOCC2)cc1

>  <Energy>  (42) 
78.5542247219193

>  <Genealogy>  (42) 
O=C(COc1ccc(S(=O)(=O)N2CCCCC2)cc1Cl)Nc1ccc(S(=O)(=O)N2CCOCC2)cc1 (3D coordinates assigned)
O=C(COc1ccc(S(=O)(=O)N2CCCCC2)cc1Cl)Nc1ccc(S(=O)(=O)N2CCOCC2)cc1 (nonaromatic ring conformer: 78.5542247219193 kcal/mol)

>  <smiles>  (42) 
O=C(COc1ccc(S(=O)(=O)N2CCCCC2)cc1Cl)Nc1ccc(S(=O)(=O)N2CCOCC2)cc1

>  <score_type>  (42) 
oracle

>  <origin>  (42) 
adgpu

>  <m_score__min__energy>  (42) 
-11.789999999999999

>  <m_primary>  (42) 
energy

$$$$
42:0
     RDKit          3D

 63 68  0  0  0  0  0  0  0  0999 V2000
   -2.5487   16.5369  -35.5501 H   0  0  0  0  0  0  0  0  0  0  0  0
   -2.7770   15.4610  -35.5330 C   0  0  0  0  0  0  0  0  0  0  0  0
   -1.9880   14.4860  -36.0230 N   0  0  0  0  0  0  0  0  0  0  0  0
   -2.5840   13.3190  -35.8270 N   0  0  0  0  0  0  0  0  0  0  0  0
   -3.7610   13.5370  -35.2100 C   0  0  0  0  0  0  0  0  0  0  0  0
   -4.4814   12.7594  -34.9160 H   0  0  0  0  0  0  0  0  0  0  0  0
   -3.9180   14.8920  -35.0060 C   0  0  0  0  0  0  0  0  0  0  0  0
   -5.0650   15.5620  -34.3610 C   0  0  0  0  0  0  0  0  0  0  0  0
   -6.3500   15.0540  -34.2150 C   0  0  0  0  0  0  0  0  0  0  0  0
   -6.6810   14.0671  -34.5705 H   0  0  0  0  0  0  0  0  0  0  0  0
   -7.1380   15.9520  -33.5700 N   0  0  0  0  0  0  0  0  0  0  0  0
   -6.3040   16.9880  -33.3400 C   0  0  0  0  0  0  0  0  0  0  0  0
   -6.6020   18.1850  -32.7020 C   0  0  0  0  0  0  0  0  0  0  0  0
   -7.7920   18.4200  -32.2370 N   0  0  0  0  0  0  0  0  0  0  0  0
   -8.1520   19.6640  -31.5630 C   0  0  0  0  0  0  0  0  0  0  0  0
   -7.8654   19.3659  -30.5437 H   0  0  0  0  0  0  0  0  0  0  0  0
   -7.9430   20.8910  -32.4270 C   0  0  0  0  0  0  0  0  0  0  0  0
   -7.6202   21.8377  -31.9691 H   0  0  0  0  0  0  0  0  0  0  0  0
   -7.3451   21.1199  -33.3215 H   0  0  0  0  0  0  0  0  0  0  0  0
   -9.3490   20.3660  -32.1780 C   0  0  0  0  0  0  0  0  0  0  0  0
  -10.0431   20.9322  -31.5395 H   0  0  0  0  0  0  0  0  0  0  0  0
  -10.1897   20.0572  -32.8167 H   0  0  0  0  0  0  0  0  0  0  0  0
   -5.5960   19.0980  -32.5750 N   0  0  0  0  0  0  0  0  0  0  0  0
   -4.3340   18.8470  -33.0450 C   0  0  0  0  0  0  0  0  0  0  0  0
   -3.3840   19.7270  -32.9310 N   0  0  0  0  0  0  0  0  0  0  0  0
   -3.4690   20.9910  -32.2480 C   0  0  0  0  0  0  0  0  0  0  0  0
   -4.5840   21.8350  -32.4010 C   0  0  0  0  0  0  0  0  0  0  0  0
   -5.4072   21.5363  -33.0667 H   0  0  0  0  0  0  0  0  0  0  0  0
   -4.6540   23.0480  -31.7150 C   0  0  0  0  0  0  0  0  0  0  0  0
   -5.5173   23.7130  -31.8648 H   0  0  0  0  0  0  0  0  0  0  0  0
   -3.6300   23.4220  -30.8370 C   0  0  0  0  0  0  0  0  0  0  0  0
   -3.6960   24.7020  -30.1080 C   0  0  0  0  0  0  0  0  0  0  0  0
   -4.7550   25.3810  -30.1590 O   0  0  0  0  0  0  0  0  0  0  0  0
   -2.5820   25.2150  -29.3650 N   0  0  0  0  0  0  0  0  0  0  0  0
   -1.9620   24.5700  -28.2060 C   0  0  0  0  0  0  0  0  0  0  0  0
   -2.5614   23.6961  -27.9111 H   0  0  0  0  0  0  0  0  0  0  0  0
   -1.9180   25.5630  -27.0430 C   0  0  0  0  0  0  0  0  0  0  0  0
   -1.3093   26.4319  -27.3339 H   0  0  0  0  0  0  0  0  0  0  0  0
   -2.9461   25.8760  -26.8084 H   0  0  0  0  0  0  0  0  0  0  0  0
   -1.3020   24.9120  -25.7880 C   0  0  0  0  0  0  0  0  0  0  0  0
   -0.9509   25.7130  -25.1209 H   0  0  0  0  0  0  0  0  0  0  0  0
   -2.0901   24.2937  -25.3334 H   0  0  0  0  0  0  0  0  0  0  0  0
   -0.1580   24.0060  -26.0710 N   0  0  0  0  0  0  0  0  0  0  0  0
   -0.4930   22.5890  -25.8490 C   0  0  0  0  0  0  0  0  0  0  0  0
   -0.5404   22.3884  -24.7685 H   0  0  0  0  0  0  0  0  0  0  0  0
   -1.4684   22.3668  -26.3064 H   0  0  0  0  0  0  0  0  0  0  0  0
    0.2797   21.9535  -26.3064 H   0  0  0  0  0  0  0  0  0  0  0  0
    0.4600   24.2260  -27.3960 C   0  0  0  0  0  0  0  0  0  0  0  0
    0.8721   25.2454  -27.4272 H   0  0  0  0  0  0  0  0  0  0  0  0
    1.2444   23.4660  -27.5271 H   0  0  0  0  0  0  0  0  0  0  0  0
   -0.5440   24.0640  -28.5550 C   0  0  0  0  0  0  0  0  0  0  0  0
   -0.1732   24.6320  -29.4210 H   0  0  0  0  0  0  0  0  0  0  0  0
   -0.6242   22.9883  -28.7707 H   0  0  0  0  0  0  0  0  0  0  0  0
   -2.5210   22.5800  -30.6690 C   0  0  0  0  0  0  0  0  0  0  0  0
   -1.7062   22.8786  -29.9931 H   0  0  0  0  0  0  0  0  0  0  0  0
   -2.4430   21.3540  -31.3600 C   0  0  0  0  0  0  0  0  0  0  0  0
   -1.3570   20.4770  -31.1980 O   0  0  0  0  0  0  0  0  0  0  0  0
   -0.3470   20.2520  -32.1770 C   0  0  0  0  0  0  0  0  0  0  0  0
    0.6087   20.0391  -31.6756 H   0  0  0  0  0  0  0  0  0  0  0  0
   -0.6302   19.3949  -32.8057 H   0  0  0  0  0  0  0  0  0  0  0  0
   -0.2396   21.1482  -32.8057 H   0  0  0  0  0  0  0  0  0  0  0  0
   -4.0800   17.6650  -33.6770 N   0  0  0  0  0  0  0  0  0  0  0  0
   -5.0670   16.7810  -33.8010 N   0  0  0  0  0  0  0  0  0  0  0  0
  1  2  1  0
  2  3  2  0
  3  4  1  0
  4  5  1  0
  5  6  1  0
  5  7  2  0
  7  8  1  0
  8  9  2  0
  9 10  1  0
  9 11  1  0
 11 12  2  0
 12 13  1  0
 13 14  2  3
 14 15  1  0
 15 16  1  0
 15 17  1  0
 17 18  1  0
 17 19  1  0
 17 20  1  0
 20 21  1  0
 20 22  1  0
 13 23  1  0
 23 24  1  0
 24 25  2  0
 25 26  1  0
 26 27  2  0
 27 28  1  0
 27 29  1  0
 29 30  1  0
 29 31  2  0
 31 32  1  0
 32 33  2  0
 32 34  1  0
 34 35  1  0
 35 36  1  0
 35 37  1  0
 37 38  1  0
 37 39  1  0
 37 40  1  0
 40 41  1  0
 40 42  1  0
 40 43  1  0
 43 44  1  0
 44 45  1  0
 44 46  1  0
 44 47  1  0
 43 48  1  0
 48 49  1  0
 48 50  1  0
 48 51  1  0
 51 52  1  0
 51 53  1  0
 31 54  1  0
 54 55  1  0
 54 56  2  0
 56 57  1  0
 57 58  1  0
 58 59  1  0
 58 60  1  0
 58 61  1  0
 24 62  1  0
 62 63  1  0
  7  2  1  0
 63  8  1  0
 63 12  1  0
 20 15  1  0
 56 26  1  0
 51 35  1  0
M  CHG  4   4  -1  23  -1  34  -1  62  -1
M  END
>  <UniqueID>  (43) 
42

>  <SMILES>  (43) 
COc1cc(C(=O)[N-]C2CCN(C)CC2)ccc1/N=c1\[n-]c(=NC2CC2)c2ncc(-c3cn[n-]c3)n2[n-]1

>  <Energy>  (43) 
417.8668135907718

>  <Genealogy>  (43) 
COc1cc(C(=O)[N-]C2CCN(C)CC2)ccc1N=c1[n-]c(=NC2CC2)c2ncc(-c3cn[n-]c3)n2[n-]1 (protonated)
COc1cc(C(=O)[N-]C2CCN(C)CC2)ccc1/N=c1\[n-]c(=NC2CC2)c2ncc(-c3cn[n-]c3)n2[n-]1 (cis-trans isomerization)
COc1cc(C(=O)[N-]C2CCN(C)CC2)ccc1/N=c1\[n-]c(=NC2CC2)c2ncc(-c3cn[n-]c3)n2[n-]1 (3D coordinates assigned)
COc1cc(C(=O)[N-]C2CCN(C)CC2)ccc1/N=c1\[n-]c(=NC2CC2)c2ncc(-c3cn[n-]c3)n2[n-]1 (nonaromatic ring conformer: 417.8668135907718 kcal/mol)

>  <smiles>  (43) 
COc1cc(C(=O)NC2CCN(C)CC2)ccc1N=c1[nH]c(=NC2CC2)c2ncc(-c3cn[nH]c3)n2[nH]1

>  <score_type>  (43) 
oracle

>  <origin>  (43) 
adgpu

>  <m_score__min__energy>  (43) 
-11.08

>  <m_primary>  (43) 
energy

$$$$
43:0
     RDKit          3D

 30 31  0  0  1  0  0  0  0  0999 V2000
   -1.9940   24.0280  -29.6520 O   0  0  0  0  0  0  0  0  0  0  0  0
   -3.1960   23.5530  -30.0630 N   0  0  0  0  0  0  0  0  0  0  0  0
   -4.2050   24.2390  -30.4360 C   0  0  0  0  0  0  0  0  0  0  0  0
   -4.0850   25.6200  -30.4310 O   0  0  0  0  0  0  0  0  0  0  0  0
   -5.4410   23.5890  -30.8560 C   0  0  0  0  0  0  0  0  0  0  0  0
   -6.3570   24.3190  -31.5870 C   0  0  0  0  0  0  0  0  0  0  0  0
   -7.4960   23.7050  -31.9680 N   0  0  0  0  0  0  0  0  0  0  0  0
   -7.7420   22.4090  -31.6460 C   0  0  0  0  0  0  0  0  0  0  0  0
   -8.8620   21.9240  -32.0620 N   0  0  0  0  0  0  0  0  0  0  0  0
   -9.1950   20.5610  -31.7630 C   0  0  0  0  0  0  0  0  0  0  0  0
   -8.2180   19.5980  -32.3270 C   0  0  0  0  0  0  0  0  0  0  0  0
   -7.3540   19.9590  -33.3290 C   0  0  0  0  0  0  0  0  0  0  0  0
   -6.4270   19.1120  -33.8920 C   0  0  0  0  0  0  0  0  0  0  0  0
   -6.3730   17.8140  -33.4090 C   0  0  0  0  0  0  0  0  0  0  0  0
   -5.0890   16.6510  -34.1930 Br  0  0  0  0  0  0  0  0  0  0  0  0
   -7.2310   17.4400  -32.4080 C   0  0  0  0  0  0  0  0  0  0  0  0
   -8.1610   18.3180  -31.8530 C   0  0  0  0  0  0  0  0  0  0  0  0
   -6.8410   21.7230  -30.9370 N   0  0  0  0  0  0  0  0  0  0  0  0
   -5.6730   22.2710  -30.5180 C   0  0  0  0  0  0  0  0  0  0  0  0
   -1.1790   24.1940  -30.1920 H   0  0  0  0  0  0  0  0  0  0  0  0
   -3.4730   26.0500  -29.7490 H   0  0  0  0  0  0  0  0  0  0  0  0
   -6.1638   25.3693  -31.8507 H   0  0  0  0  0  0  0  0  0  0  0  0
   -9.2218   20.4365  -30.6704 H   0  0  0  0  0  0  0  0  0  0  0  0
  -10.1730   20.3492  -32.2197 H   0  0  0  0  0  0  0  0  0  0  0  0
   -7.4052   20.9909  -33.7065 H   0  0  0  0  0  0  0  0  0  0  0  0
   -5.7552   19.4518  -34.6940 H   0  0  0  0  0  0  0  0  0  0  0  0
   -7.1842   16.4087  -32.0283 H   0  0  0  0  0  0  0  0  0  0  0  0
   -8.8353   17.9867  -31.0496 H   0  0  0  0  0  0  0  0  0  0  0  0
   -7.0220   20.7420  -30.6910 H   0  0  0  0  0  0  0  0  0  0  0  0
   -4.9430   21.6907  -29.9346 H   0  0  0  0  0  0  0  0  0  0  0  0
  1  2  1  0
  2  3  2  0
  3  4  1  0
  3  5  1  0
  5  6  1  0
  6  7  2  0
  7  8  1  0
  8  9  2  3
  9 10  1  0
 10 11  1  0
 11 12  2  0
 12 13  1  0
 13 14  2  0
 14 15  1  0
 14 16  1  0
 16 17  2  0
  8 18  1  0
 18 19  1  0
 19  5  2  0
 17 11  1  0
  1 20  1  0
  4 21  1  0
  6 22  1  0
 10 23  1  0
 10 24  1  0
 12 25  1  0
 13 26  1  0
 16 27  1  0
 17 28  1  0
 18 29  1  0
 19 30  1  0
M  END
>  <smiles>  (44) 
ON=C(O)c1cnc(=NCc2ccc(Br)cc2)[nH]c1

>  <score_type>  (44) 
oracle

>  <origin>  (44) 
adgpu

>  <m_score__min__energy>  (44) 
-8.9199999999999999

>  <m_primary>  (44) 
energy

$$$$
44:0
     RDKit          3D

 41 43  0  0  0  0  0  0  0  0999 V2000
   -5.7210   26.0490  -30.8640 O   0  0  0  0  0  0  0  0  0  0  0  0
   -5.0190   25.0030  -30.9030 C   0  0  0  0  0  0  0  0  0  0  0  0
   -3.6350   25.0920  -30.5340 N   0  0  0  0  0  0  0  0  0  0  0  0
   -3.0390   24.5030  -29.3690 C   0  0  0  0  0  0  0  0  0  0  0  0
   -3.6170   23.3470  -28.8270 C   0  0  0  0  0  0  0  0  0  0  0  0
   -3.0830   22.7630  -27.6750 C   0  0  0  0  0  0  0  0  0  0  0  0
   -1.9530   23.3160  -27.0690 C   0  0  0  0  0  0  0  0  0  0  0  0
   -1.3470   24.4480  -27.6220 C   0  0  0  0  0  0  0  0  0  0  0  0
   -1.8800   25.0400  -28.7720 C   0  0  0  0  0  0  0  0  0  0  0  0
   -1.2370   26.1430  -29.3250 O   0  0  0  0  0  0  0  0  0  0  0  0
   -5.6210   23.7340  -31.3830 C   0  0  0  0  0  0  0  0  0  0  0  0
   -4.7980   22.7220  -31.9110 C   0  0  0  0  0  0  0  0  0  0  0  0
   -5.3430   21.5080  -32.3410 C   0  0  0  0  0  0  0  0  0  0  0  0
   -4.2650   20.2440  -32.9210 S   0  0  0  0  0  0  0  0  0  0  0  0
   -3.5860   19.6080  -31.7400 O   0  0  0  0  0  0  0  0  0  0  0  0
   -3.2180   20.8230  -33.8330 O   0  0  0  0  0  0  0  0  0  0  0  0
   -5.2090   19.0540  -33.7840 N   0  0  0  0  0  0  0  0  0  0  0  0
   -4.3390   18.1490  -34.5690 C   0  0  0  0  0  0  0  0  0  0  0  0
   -4.2270   16.7530  -33.9310 C   0  0  0  0  0  0  0  0  0  0  0  0
   -5.4830   16.1100  -33.7720 O   0  0  0  0  0  0  0  0  0  0  0  0
   -6.5480   17.0000  -33.4590 C   0  0  0  0  0  0  0  0  0  0  0  0
   -6.0950   18.3370  -32.8500 C   0  0  0  0  0  0  0  0  0  0  0  0
   -6.7260   21.3050  -32.2740 C   0  0  0  0  0  0  0  0  0  0  0  0
   -7.5570   22.3110  -31.7780 C   0  0  0  0  0  0  0  0  0  0  0  0
   -7.0140   23.5200  -31.3300 C   0  0  0  0  0  0  0  0  0  0  0  0
   -7.8650   24.4940  -30.8160 O   0  0  0  0  0  0  0  0  0  0  0  0
   -4.4961   22.8967  -29.3111 H   0  0  0  0  0  0  0  0  0  0  0  0
   -3.5535   21.8665  -27.2451 H   0  0  0  0  0  0  0  0  0  0  0  0
   -1.5398   22.8610  -26.1567 H   0  0  0  0  0  0  0  0  0  0  0  0
   -0.4487   24.8743  -27.1516 H   0  0  0  0  0  0  0  0  0  0  0  0
   -3.7132   22.8878  -31.9864 H   0  0  0  0  0  0  0  0  0  0  0  0
   -4.7582   18.0437  -35.5805 H   0  0  0  0  0  0  0  0  0  0  0  0
   -3.3314   18.5894  -34.5973 H   0  0  0  0  0  0  0  0  0  0  0  0
   -3.5911   16.1251  -34.5724 H   0  0  0  0  0  0  0  0  0  0  0  0
   -3.7971   16.8851  -32.9271 H   0  0  0  0  0  0  0  0  0  0  0  0
   -7.1026   17.2131  -34.3848 H   0  0  0  0  0  0  0  0  0  0  0  0
   -7.1645   16.4993  -32.6979 H   0  0  0  0  0  0  0  0  0  0  0  0
   -6.9787   18.9575  -32.6404 H   0  0  0  0  0  0  0  0  0  0  0  0
   -5.5442   18.1362  -31.9193 H   0  0  0  0  0  0  0  0  0  0  0  0
   -7.1586   20.3519  -32.6124 H   0  0  0  0  0  0  0  0  0  0  0  0
   -8.6448   22.1523  -31.7392 H   0  0  0  0  0  0  0  0  0  0  0  0
  1  2  2  0
  2  3  1  0
  3  4  1  0
  4  5  2  0
  5  6  1  0
  6  7  2  0
  7  8  1  0
  8  9  2  0
  9 10  1  0
  2 11  1  0
 11 12  2  0
 12 13  1  0
 13 14  1  0
 14 15  2  0
 14 16  2  0
 14 17  1  0
 17 18  1  0
 18 19  1  0
 19 20  1  0
 20 21  1  0
 21 22  1  0
 13 23  2  0
 23 24  1  0
 24 25  2  0
 25 26  1  0
  9  4  1  0
 25 11  1  0
 22 17  1  0
  5 27  1  0
  6 28  1  0
  7 29  1  0
  8 30  1  0
 12 31  1  0
 18 32  1  0
 18 33  1  0
 19 34  1  0
 19 35  1  0
 21 36  1  0
 21 37  1  0
 22 38  1  0
 22 39  1  0
 23 40  1  0
 24 41  1  0
M  CHG  3   3  -1  10  -1  26  -1
M  END
>  <UniqueID>  (45) 
43

>  <SMILES>  (45) 
O=C([N-]c1ccccc1[O-])c1cc(S(=O)(=O)N2CCOCC2)ccc1[O-]

>  <Energy>  (45) 
62.35622355058839

>  <Genealogy>  (45) 
O=C([N-]c1ccccc1[O-])c1cc(S(=O)(=O)N2CCOCC2)ccc1[O-] (protonated)
O=C([N-]c1ccccc1[O-])c1cc(S(=O)(=O)N2CCOCC2)ccc1[O-] (3D coordinates assigned)
O=C([N-]c1ccccc1[O-])c1cc(S(=O)(=O)N2CCOCC2)ccc1[O-] (nonaromatic ring conformer: 62.35622355058839 kcal/mol)

>  <smiles>  (45) 
O=C(Nc1ccccc1O)c1cc(S(=O)(=O)N2CCOCC2)ccc1O

>  <score_type>  (45) 
oracle

>  <origin>  (45) 
adgpu

>  <m_score__min__energy>  (45) 
-14.76

>  <m_primary>  (45) 
energy

$$$$
45:0
     RDKit          3D

 42 45  0  0  0  0  0  0  0  0999 V2000
   -4.0630   25.1310  -30.2590 O   0  0  0  0  0  0  0  0  0  0  0  0
   -3.6070   23.9880  -30.5340 C   0  0  0  0  0  0  0  0  0  0  0  0
   -4.1900   23.2630  -31.6270 N   0  0  0  0  0  0  0  0  0  0  0  0
   -5.5480   22.8100  -31.7470 C   0  0  0  0  0  0  0  0  0  0  0  0
   -6.5830   23.7750  -31.7980 C   0  0  0  0  0  0  0  0  0  0  0  0
   -7.9320   23.3850  -31.8950 C   0  0  0  0  0  0  0  0  0  0  0  0
   -8.2110   22.0220  -31.9340 C   0  0  0  0  0  0  0  0  0  0  0  0
   -9.4170   21.4310  -32.0440 N   0  0  0  0  0  0  0  0  0  0  0  0
   -9.1100   20.1080  -32.0510 C   0  0  0  0  0  0  0  0  0  0  0  0
   -7.7820   19.8690  -31.9450 N   0  0  0  0  0  0  0  0  0  0  0  0
   -6.9920   18.3270  -32.0200 S   0  0  0  0  0  0  0  0  0  0  0  0
   -6.6620   17.8550  -30.6320 O   0  0  0  0  0  0  0  0  0  0  0  0
   -7.9220   17.3390  -32.6680 O   0  0  0  0  0  0  0  0  0  0  0  0
   -5.4980   18.4580  -32.9430 C   0  0  0  0  0  0  0  0  0  0  0  0
   -5.4390   17.9560  -34.2490 C   0  0  0  0  0  0  0  0  0  0  0  0
   -4.2420   18.0140  -34.9720 C   0  0  0  0  0  0  0  0  0  0  0  0
   -3.1020   18.5760  -34.3910 C   0  0  0  0  0  0  0  0  0  0  0  0
   -3.1580   19.0860  -33.0900 C   0  0  0  0  0  0  0  0  0  0  0  0
   -4.3540   19.0300  -32.3680 C   0  0  0  0  0  0  0  0  0  0  0  0
   -7.2230   21.0860  -31.8740 C   0  0  0  0  0  0  0  0  0  0  0  0
   -5.8780   21.4330  -31.7640 C   0  0  0  0  0  0  0  0  0  0  0  0
   -2.4780   23.4560  -29.7370 C   0  0  0  0  0  0  0  0  0  0  0  0
   -2.3810   22.0710  -29.5240 C   0  0  0  0  0  0  0  0  0  0  0  0
   -1.2990   21.5370  -28.8210 C   0  0  0  0  0  0  0  0  0  0  0  0
   -0.3070   22.3790  -28.3180 C   0  0  0  0  0  0  0  0  0  0  0  0
   -0.4020   23.7650  -28.4990 C   0  0  0  0  0  0  0  0  0  0  0  0
    0.5800   24.6110  -27.9880 O   0  0  0  0  0  0  0  0  0  0  0  0
   -1.4890   24.3060  -29.1980 C   0  0  0  0  0  0  0  0  0  0  0  0
   -1.5880   25.6870  -29.3410 O   0  0  0  0  0  0  0  0  0  0  0  0
   -6.3292   24.8447  -31.7613 H   0  0  0  0  0  0  0  0  0  0  0  0
   -8.7383   24.1320  -31.9385 H   0  0  0  0  0  0  0  0  0  0  0  0
   -9.8641   19.3115  -32.1344 H   0  0  0  0  0  0  0  0  0  0  0  0
   -6.3361   17.5148  -34.7080 H   0  0  0  0  0  0  0  0  0  0  0  0
   -4.1986   17.6174  -35.9971 H   0  0  0  0  0  0  0  0  0  0  0  0
   -2.1599   18.6173  -34.9574 H   0  0  0  0  0  0  0  0  0  0  0  0
   -2.2611   19.5312  -32.6347 H   0  0  0  0  0  0  0  0  0  0  0  0
   -4.3977   19.4356  -31.3464 H   0  0  0  0  0  0  0  0  0  0  0  0
   -5.0971   20.6616  -31.6926 H   0  0  0  0  0  0  0  0  0  0  0  0
   -3.1627   21.4024  -29.9137 H   0  0  0  0  0  0  0  0  0  0  0  0
   -1.2288   20.4506  -28.6636 H   0  0  0  0  0  0  0  0  0  0  0  0
    0.5518   21.9537  -27.7780 H   0  0  0  0  0  0  0  0  0  0  0  0
    0.5880   25.6030  -28.1960 H   0  0  0  0  0  0  0  0  0  0  0  0
  1  2  2  0
  2  3  1  0
  3  4  1  0
  4  5  2  0
  5  6  1  0
  6  7  2  0
  7  8  1  0
  8  9  2  0
  9 10  1  0
 10 11  1  0
 11 12  2  0
 11 13  2  0
 11 14  1  0
 14 15  2  0
 15 16  1  0
 16 17  2  0
 17 18  1  0
 18 19  2  0
 10 20  1  0
 20 21  2  0
  2 22  1  0
 22 23  2  0
 23 24  1  0
 24 25  2  0
 25 26  1  0
 26 27  1  0
 26 28  2  0
 28 29  1  0
 21  4  1  0
 28 22  1  0
 20  7  1  0
 19 14  1  0
  5 30  1  0
  6 31  1  0
  9 32  1  0
 15 33  1  0
 16 34  1  0
 17 35  1  0
 18 36  1  0
 19 37  1  0
 21 38  1  0
 23 39  1  0
 24 40  1  0
 25 41  1  0
 27 42  1  0
M  CHG  2   3  -1  29  -1
M  END
>  <UniqueID>  (46) 
44

>  <SMILES>  (46) 
O=C([N-]c1ccc2ncn(S(=O)(=O)c3ccccc3)c2c1)c1cccc(O)c1[O-]

>  <Energy>  (46) 
91.32071873420823

>  <Genealogy>  (46) 
O=C([N-]c1ccc2ncn(S(=O)(=O)c3ccccc3)c2c1)c1cccc(O)c1[O-] (protonated)
O=C([N-]c1ccc2ncn(S(=O)(=O)c3ccccc3)c2c1)c1cccc(O)c1[O-] (3D coordinates assigned)
O=C([N-]c1ccc2ncn(S(=O)(=O)c3ccccc3)c2c1)c1cccc(O)c1[O-] (optimized conformer: 91.32071873420823 kcal/mol)

>  <smiles>  (46) 
O=C(Nc1ccc2ncn(S(=O)(=O)c3ccccc3)c2c1)c1cccc(O)c1O

>  <score_type>  (46) 
oracle

>  <origin>  (46) 
adgpu

>  <m_score__min__energy>  (46) 
-13.720000000000001

>  <m_primary>  (46) 
energy

$$$$
46:0
     RDKit          3D

 45 48  0  0  0  0  0  0  0  0999 V2000
   -0.2360   18.4880  -34.8310 C   0  0  0  0  0  0  0  0  0  0  0  0
   -1.4100   19.2220  -34.2430 C   0  0  0  0  0  0  0  0  0  0  0  0
   -2.5970   18.5300  -33.9590 C   0  0  0  0  0  0  0  0  0  0  0  0
   -3.6950   19.1980  -33.4110 C   0  0  0  0  0  0  0  0  0  0  0  0
   -3.6290   20.5750  -33.1390 C   0  0  0  0  0  0  0  0  0  0  0  0
   -4.7960   21.2870  -32.5590 C   0  0  0  0  0  0  0  0  0  0  0  0
   -6.0640   20.6560  -32.4760 C   0  0  0  0  0  0  0  0  0  0  0  0
   -7.1670   21.3270  -31.9230 C   0  0  0  0  0  0  0  0  0  0  0  0
   -6.9640   22.6230  -31.4640 C   0  0  0  0  0  0  0  0  0  0  0  0
   -7.8810   23.4330  -30.9050 N   0  0  0  0  0  0  0  0  0  0  0  0
   -7.2460   24.5670  -30.6180 N   0  0  0  0  0  0  0  0  0  0  0  0
   -5.9590   24.4210  -31.0040 C   0  0  0  0  0  0  0  0  0  0  0  0
   -4.9150   25.4850  -30.8430 C   0  0  0  0  0  0  0  0  0  0  0  0
   -3.6350   24.9110  -30.4350 N   0  0  0  0  0  0  0  0  0  0  0  0
   -3.4470   23.9850  -29.3580 C   0  0  0  0  0  0  0  0  0  0  0  0
   -4.1880   24.0640  -28.3450 O   0  0  0  0  0  0  0  0  0  0  0  0
   -2.3980   22.9510  -29.4000 C   0  0  0  0  0  0  0  0  0  0  0  0
   -2.6930   21.6990  -29.9480 C   0  0  0  0  0  0  0  0  0  0  0  0
   -1.7450   20.7270  -29.9860 N   0  0  0  0  0  0  0  0  0  0  0  0
   -0.4930   20.9600  -29.5080 C   0  0  0  0  0  0  0  0  0  0  0  0
    0.6440   19.7860  -29.5560 S   0  0  0  0  0  0  0  0  0  0  0  0
   -0.1770   22.1760  -28.9940 N   0  0  0  0  0  0  0  0  0  0  0  0
   -1.0910   23.1830  -28.9280 C   0  0  0  0  0  0  0  0  0  0  0  0
   -0.6640   24.5190  -28.3760 C   0  0  0  0  0  0  0  0  0  0  0  0
   -1.2690   24.7450  -27.1540 F   0  0  0  0  0  0  0  0  0  0  0  0
    0.7090   24.5540  -28.2000 F   0  0  0  0  0  0  0  0  0  0  0  0
   -1.0210   25.5240  -29.2560 F   0  0  0  0  0  0  0  0  0  0  0  0
   -5.7630   23.2070  -31.5460 N   0  0  0  0  0  0  0  0  0  0  0  0
   -4.6670   22.6060  -32.0740 C   0  0  0  0  0  0  0  0  0  0  0  0
   -2.4390   21.2680  -33.4240 C   0  0  0  0  0  0  0  0  0  0  0  0
   -1.3370   20.6020  -33.9710 C   0  0  0  0  0  0  0  0  0  0  0  0
    0.1260   21.5260  -34.3000 Cl  0  0  0  0  0  0  0  0  0  0  0  0
    0.3939   18.0942  -34.0198 H   0  0  0  0  0  0  0  0  0  0  0  0
   -0.5978   17.6550  -35.4516 H   0  0  0  0  0  0  0  0  0  0  0  0
    0.3544   19.1781  -35.4516 H   0  0  0  0  0  0  0  0  0  0  0  0
   -2.6637   17.4524  -34.1696 H   0  0  0  0  0  0  0  0  0  0  0  0
   -4.6181   18.6418  -33.1908 H   0  0  0  0  0  0  0  0  0  0  0  0
   -6.1848   19.6284  -32.8494 H   0  0  0  0  0  0  0  0  0  0  0  0
   -8.1536   20.8453  -31.8558 H   0  0  0  0  0  0  0  0  0  0  0  0
   -4.7845   26.0078  -31.8020 H   0  0  0  0  0  0  0  0  0  0  0  0
   -5.2479   26.1847  -30.0623 H   0  0  0  0  0  0  0  0  0  0  0  0
   -3.6974   21.5003  -30.3502 H   0  0  0  0  0  0  0  0  0  0  0  0
   -1.9920   19.7950  -30.3880 H   0  0  0  0  0  0  0  0  0  0  0  0
   -3.7028   23.1333  -32.1227 H   0  0  0  0  0  0  0  0  0  0  0  0
   -2.3739   22.3459  -33.2145 H   0  0  0  0  0  0  0  0  0  0  0  0
  1  2  1  0
  2  3  2  0
  3  4  1  0
  4  5  2  0
  5  6  1  0
  6  7  1  0
  7  8  2  0
  8  9  1  0
  9 10  2  0
 10 11  1  0
 11 12  2  0
 12 13  1  0
 13 14  1  0
 14 15  1  0
 15 16  2  0
 15 17  1  0
 17 18  2  0
 18 19  1  0
 19 20  1  0
 20 21  2  0
 20 22  1  0
 22 23  2  0
 23 24  1  0
 24 25  1  0
 24 26  1  0
 24 27  1  0
 12 28  1  0
 28 29  1  0
  5 30  1  0
 30 31  2  0
 31 32  1  0
 31  2  1  0
 29  6  2  0
 28  9  1  0
 23 17  1  0
  1 33  1  0
  1 34  1  0
  1 35  1  0
  3 36  1  0
  4 37  1  0
  7 38  1  0
  8 39  1  0
 13 40  1  0
 13 41  1  0
 18 42  1  0
 19 43  1  0
 29 44  1  0
 30 45  1  0
M  CHG  1  14  -1
M  END
>  <UniqueID>  (47) 
45

>  <SMILES>  (47) 
Cc1ccc(-c2ccc3nnc(C[N-]C(=O)c4c[nH]c(=S)nc4C(F)(F)F)n3c2)cc1Cl

>  <Energy>  (47) 
100.65049939116794

>  <Genealogy>  (47) 
Cc1ccc(-c2ccc3nnc(C[N-]C(=O)c4c[nH]c(=S)nc4C(F)(F)F)n3c2)cc1Cl (protonated)
Cc1ccc(-c2ccc3nnc(C[N-]C(=O)c4c[nH]c(=S)nc4C(F)(F)F)n3c2)cc1Cl (3D coordinates assigned)
Cc1ccc(-c2ccc3nnc(C[N-]C(=O)c4c[nH]c(=S)nc4C(F)(F)F)n3c2)cc1Cl (optimized conformer: 100.65049939116794 kcal/mol)

>  <smiles>  (47) 
Cc1ccc(-c2ccc3nnc(CNC(=O)c4c[nH]c(=S)nc4C(F)(F)F)n3c2)cc1Cl

>  <score_type>  (47) 
oracle

>  <origin>  (47) 
adgpu

>  <m_score__min__energy>  (47) 
-11.18

>  <m_primary>  (47) 
energy

$$$$
47:0
     RDKit          3D

 47 50  0  0  0  0  0  0  0  0999 V2000
   -4.5950   22.6150  -33.5560 H   0  0  0  0  0  0  0  0  0  0  0  0
   -3.8890   22.6430  -32.8310 O   0  0  0  0  0  0  0  0  0  0  0  0
   -4.2290   22.9510  -31.5170 C   0  0  0  0  0  0  0  0  0  0  0  0
   -3.4100   22.6380  -30.4780 N   0  0  0  0  0  0  0  0  0  0  0  0
   -3.9710   22.9710  -29.2930 C   0  0  0  0  0  0  0  0  0  0  0  0
   -3.3940   22.8160  -28.1380 N   0  0  0  0  0  0  0  0  0  0  0  0
   -2.1210   22.1950  -27.8930 C   0  0  0  0  0  0  0  0  0  0  0  0
   -0.9150   22.9240  -27.9000 C   0  0  0  0  0  0  0  0  0  0  0  0
   -0.9319   24.0102  -28.0728 H   0  0  0  0  0  0  0  0  0  0  0  0
    0.3030   22.2710  -27.6880 C   0  0  0  0  0  0  0  0  0  0  0  0
    1.2404   22.8466  -27.6809 H   0  0  0  0  0  0  0  0  0  0  0  0
    0.3320   20.8880  -27.4850 C   0  0  0  0  0  0  0  0  0  0  0  0
    1.2903   20.3775  -27.3089 H   0  0  0  0  0  0  0  0  0  0  0  0
   -0.8570   20.1550  -27.5060 C   0  0  0  0  0  0  0  0  0  0  0  0
   -0.8334   19.0657  -27.3548 H   0  0  0  0  0  0  0  0  0  0  0  0
   -2.0770   20.8040  -27.7190 C   0  0  0  0  0  0  0  0  0  0  0  0
   -3.0085   20.2197  -27.7503 H   0  0  0  0  0  0  0  0  0  0  0  0
   -5.4850   23.6740  -29.4830 S   0  0  0  0  0  0  0  0  0  0  0  0
   -5.4300   23.5690  -31.1620 C   0  0  0  0  0  0  0  0  0  0  0  0
   -6.5320   23.9730  -32.0530 C   0  0  0  0  0  0  0  0  0  0  0  0
   -6.5755   25.0244  -32.3736 H   0  0  0  0  0  0  0  0  0  0  0  0
   -7.4570   23.1660  -32.4850 N   0  0  0  0  0  0  0  0  0  0  0  0
   -7.4950   21.7390  -32.3310 C   0  0  0  0  0  0  0  0  0  0  0  0
   -8.5220   21.0010  -31.7720 C   0  0  0  0  0  0  0  0  0  0  0  0
   -9.7630   21.5560  -31.1420 C   0  0  0  0  0  0  0  0  0  0  0  0
   -9.6686   21.5138  -30.0469 H   0  0  0  0  0  0  0  0  0  0  0  0
   -9.8991   22.6007  -31.4583 H   0  0  0  0  0  0  0  0  0  0  0  0
  -10.6324   20.9609  -31.4583 H   0  0  0  0  0  0  0  0  0  0  0  0
   -8.2480   19.6830  -31.9360 N   0  0  0  0  0  0  0  0  0  0  0  0
   -9.0940   18.5690  -31.5000 C   0  0  0  0  0  0  0  0  0  0  0  0
   -9.1191   18.5360  -30.4008 H   0  0  0  0  0  0  0  0  0  0  0  0
  -10.1143   18.7105  -31.8859 H   0  0  0  0  0  0  0  0  0  0  0  0
   -8.6838   17.6241  -31.8859 H   0  0  0  0  0  0  0  0  0  0  0  0
   -7.0830   19.5630  -32.5740 N   0  0  0  0  0  0  0  0  0  0  0  0
   -6.4320   18.3270  -32.9140 C   0  0  0  0  0  0  0  0  0  0  0  0
   -6.1070   18.0420  -34.2500 C   0  0  0  0  0  0  0  0  0  0  0  0
   -6.3615   18.7622  -35.0415 H   0  0  0  0  0  0  0  0  0  0  0  0
   -5.4610   16.8460  -34.5780 C   0  0  0  0  0  0  0  0  0  0  0  0
   -5.2138   16.6253  -35.6269 H   0  0  0  0  0  0  0  0  0  0  0  0
   -5.1290   15.9310  -33.5760 C   0  0  0  0  0  0  0  0  0  0  0  0
   -4.6224   14.9899  -33.8361 H   0  0  0  0  0  0  0  0  0  0  0  0
   -5.4410   16.2120  -32.2420 C   0  0  0  0  0  0  0  0  0  0  0  0
   -5.1777   15.4926  -31.4526 H   0  0  0  0  0  0  0  0  0  0  0  0
   -6.0880   17.4080  -31.9110 C   0  0  0  0  0  0  0  0  0  0  0  0
   -6.3278   17.6285  -30.8603 H   0  0  0  0  0  0  0  0  0  0  0  0
   -6.6230   20.8010  -32.8490 C   0  0  0  0  0  0  0  0  0  0  0  0
   -5.5730   21.0410  -33.5030 O   0  0  0  0  0  0  0  0  0  0  0  0
  1  2  1  0
  2  3  1  0
  3  4  1  0
  4  5  1  0
  5  6  2  0
  6  7  1  0
  7  8  2  0
  8  9  1  0
  8 10  1  0
 10 11  1  0
 10 12  2  0
 12 13  1  0
 12 14  1  0
 14 15  1  0
 14 16  2  0
 16 17  1  0
  5 18  1  0
 18 19  1  0
 19 20  1  0
 20 21  1  0
 20 22  2  3
 22 23  1  0
 23 24  2  0
 24 25  1  0
 25 26  1  0
 25 27  1  0
 25 28  1  0
 24 29  1  0
 29 30  1  0
 30 31  1  0
 30 32  1  0
 30 33  1  0
 29 34  1  0
 34 35  1  0
 35 36  2  0
 36 37  1  0
 36 38  1  0
 38 39  1  0
 38 40  2  0
 40 41  1  0
 40 42  1  0
 42 43  1  0
 42 44  2  0
 44 45  1  0
 34 46  1  0
 46 47  2  0
 19  3  2  0
 46 23  1  0
 16  7  1  0
 44 35  1  0
M  CHG  1   4  -1
M  END
>  <UniqueID>  (48) 
46

>  <SMILES>  (48) 
Cc1c(N=Cc2s/c(=N/c3ccccc3)[n-]c2O)c(=O)n(-c2ccccc2)n1C

>  <Energy>  (48) 
137.91387932302806

>  <Genealogy>  (48) 
Cc1c(N=Cc2sc(=Nc3ccccc3)[n-]c2O)c(=O)n(-c2ccccc2)n1C (protonated)
Cc1c(N=Cc2s/c(=N/c3ccccc3)[n-]c2O)c(=O)n(-c2ccccc2)n1C (cis-trans isomerization)
Cc1c(N=Cc2s/c(=N/c3ccccc3)[n-]c2O)c(=O)n(-c2ccccc2)n1C (3D coordinates assigned)
Cc1c(N=Cc2s/c(=N/c3ccccc3)[n-]c2O)c(=O)n(-c2ccccc2)n1C (optimized conformer: 137.91387932302806 kcal/mol)

>  <smiles>  (48) 
Cc1c(N=Cc2sc(=Nc3ccccc3)[nH]c2O)c(=O)n(-c2ccccc2)n1C

>  <score_type>  (48) 
oracle

>  <origin>  (48) 
adgpu

>  <m_score__min__energy>  (48) 
-10.59

>  <m_primary>  (48) 
energy

$$$$
48:0
     RDKit          3D

 54 57  0  0  0  0  0  0  0  0999 V2000
   -2.3170   23.4860  -28.8450 O   0  0  0  0  0  0  0  0  0  0  0  0
   -2.5520   23.1020  -30.0240 C   0  0  0  0  0  0  0  0  0  0  0  0
   -1.4900   22.5710  -30.8260 N   0  0  0  0  0  0  0  0  0  0  0  0
   -1.5500   21.4170  -31.6790 C   0  0  0  0  0  0  0  0  0  0  0  0
   -1.8090   21.5340  -33.0590 C   0  0  0  0  0  0  0  0  0  0  0  0
   -1.8150   20.3980  -33.8720 C   0  0  0  0  0  0  0  0  0  0  0  0
   -1.5470   19.1420  -33.3260 C   0  0  0  0  0  0  0  0  0  0  0  0
   -1.2660   19.0180  -31.9640 C   0  0  0  0  0  0  0  0  0  0  0  0
   -1.2620   20.1500  -31.1380 C   0  0  0  0  0  0  0  0  0  0  0  0
   -0.9650   19.9970  -29.7420 N   0  0  0  0  0  0  0  0  0  0  0  0
   -2.0310   20.1980  -28.7620 C   0  0  0  0  0  0  0  0  0  0  0  0
   -1.4210   20.5830  -27.4100 C   0  0  0  0  0  0  0  0  0  0  0  0
   -0.4140   19.6630  -27.0290 O   0  0  0  0  0  0  0  0  0  0  0  0
    0.6690   19.7270  -27.9400 C   0  0  0  0  0  0  0  0  0  0  0  0
    0.2330   19.2620  -29.3340 C   0  0  0  0  0  0  0  0  0  0  0  0
   -3.9230   23.2340  -30.5790 C   0  0  0  0  0  0  0  0  0  0  0  0
   -4.6560   22.0730  -30.8910 C   0  0  0  0  0  0  0  0  0  0  0  0
   -5.9340   22.1600  -31.4600 C   0  0  0  0  0  0  0  0  0  0  0  0
   -6.8140   20.6910  -31.8900 S   0  0  0  0  0  0  0  0  0  0  0  0
   -7.2460   20.7790  -33.3270 O   0  0  0  0  0  0  0  0  0  0  0  0
   -8.0530   20.6040  -31.0440 O   0  0  0  0  0  0  0  0  0  0  0  0
   -5.8560   19.2400  -31.6650 N   0  0  0  0  0  0  0  0  0  0  0  0
   -6.6850   18.0230  -31.5810 C   0  0  0  0  0  0  0  0  0  0  0  0
   -7.0930   17.4710  -32.9680 C   0  0  0  0  0  0  0  0  0  0  0  0
   -6.4290   18.1070  -34.0430 O   0  0  0  0  0  0  0  0  0  0  0  0
   -5.0450   18.1550  -33.7860 C   0  0  0  0  0  0  0  0  0  0  0  0
   -4.7430   19.1290  -32.6330 C   0  0  0  0  0  0  0  0  0  0  0  0
   -6.5020   23.4170  -31.6960 C   0  0  0  0  0  0  0  0  0  0  0  0
   -5.7950   24.5760  -31.3760 C   0  0  0  0  0  0  0  0  0  0  0  0
   -4.5150   24.4960  -30.8200 C   0  0  0  0  0  0  0  0  0  0  0  0
   -3.8540   25.6780  -30.5020 O   0  0  0  0  0  0  0  0  0  0  0  0
   -2.0071   22.5231  -33.4977 H   0  0  0  0  0  0  0  0  0  0  0  0
   -2.0317   20.4938  -34.9462 H   0  0  0  0  0  0  0  0  0  0  0  0
   -1.5571   18.2494  -33.9688 H   0  0  0  0  0  0  0  0  0  0  0  0
   -1.0469   18.0279  -31.5377 H   0  0  0  0  0  0  0  0  0  0  0  0
   -2.6970   21.0032  -29.1056 H   0  0  0  0  0  0  0  0  0  0  0  0
   -2.6056   19.2666  -28.6513 H   0  0  0  0  0  0  0  0  0  0  0  0
   -0.9802   21.5879  -27.4870 H   0  0  0  0  0  0  0  0  0  0  0  0
   -2.2156   20.5689  -26.6494 H   0  0  0  0  0  0  0  0  0  0  0  0
    1.0281   20.7649  -28.0016 H   0  0  0  0  0  0  0  0  0  0  0  0
    1.4718   19.0658  -27.5818 H   0  0  0  0  0  0  0  0  0  0  0  0
    1.0427   19.4525  -30.0538 H   0  0  0  0  0  0  0  0  0  0  0  0
    0.0108   18.1850  -29.3079 H   0  0  0  0  0  0  0  0  0  0  0  0
   -4.2198   21.0843  -30.6854 H   0  0  0  0  0  0  0  0  0  0  0  0
   -6.1152   17.2470  -31.0489 H   0  0  0  0  0  0  0  0  0  0  0  0
   -7.6097   18.2915  -31.0492 H   0  0  0  0  0  0  0  0  0  0  0  0
   -6.8573   16.3970  -32.9990 H   0  0  0  0  0  0  0  0  0  0  0  0
   -8.1689   17.6642  -33.0908 H   0  0  0  0  0  0  0  0  0  0  0  0
   -4.6929   17.1496  -33.5119 H   0  0  0  0  0  0  0  0  0  0  0  0
   -4.5275   18.5049  -34.6914 H   0  0  0  0  0  0  0  0  0  0  0  0
   -3.8485   18.7747  -32.0998 H   0  0  0  0  0  0  0  0  0  0  0  0
   -4.5897   20.1248  -33.0745 H   0  0  0  0  0  0  0  0  0  0  0  0
   -7.5080   23.4912  -32.1347 H   0  0  0  0  0  0  0  0  0  0  0  0
   -6.2483   25.5607  -31.5626 H   0  0  0  0  0  0  0  0  0  0  0  0
  1  2  2  0
  2  3  1  0
  3  4  1  0
  4  5  2  0
  5  6  1  0
  6  7  2  0
  7  8  1  0
  8  9  2  0
  9 10  1  0
 10 11  1  0
 11 12  1  0
 12 13  1  0
 13 14  1  0
 14 15  1  0
  2 16  1  0
 16 17  2  0
 17 18  1  0
 18 19  1  0
 19 20  2  0
 19 21  2  0
 19 22  1  0
 22 23  1  0
 23 24  1  0
 24 25  1  0
 25 26  1  0
 26 27  1  0
 18 28  2  0
 28 29  1  0
 29 30  2  0
 30 31  1  0
  9  4  1  0
 15 10  1  0
 30 16  1  0
 27 22  1  0
  5 32  1  0
  6 33  1  0
  7 34  1  0
  8 35  1  0
 11 36  1  0
 11 37  1  0
 12 38  1  0
 12 39  1  0
 14 40  1  0
 14 41  1  0
 15 42  1  0
 15 43  1  0
 17 44  1  0
 23 45  1  0
 23 46  1  0
 24 47  1  0
 24 48  1  0
 26 49  1  0
 26 50  1  0
 27 51  1  0
 27 52  1  0
 28 53  1  0
 29 54  1  0
M  CHG  2   3  -1  31  -1
M  END
>  <UniqueID>  (49) 
47

>  <SMILES>  (49) 
O=C([N-]c1ccccc1N1CCOCC1)c1cc(S(=O)(=O)N2CCOCC2)ccc1[O-]

>  <Energy>  (49) 
79.52013517844287

>  <Genealogy>  (49) 
O=C([N-]c1ccccc1N1CCOCC1)c1cc(S(=O)(=O)N2CCOCC2)ccc1[O-] (protonated)
O=C([N-]c1ccccc1N1CCOCC1)c1cc(S(=O)(=O)N2CCOCC2)ccc1[O-] (3D coordinates assigned)
O=C([N-]c1ccccc1N1CCOCC1)c1cc(S(=O)(=O)N2CCOCC2)ccc1[O-] (nonaromatic ring conformer: 79.52013517844287 kcal/mol)

>  <smiles>  (49) 
O=C(Nc1ccccc1N1CCOCC1)c1cc(S(=O)(=O)N2CCOCC2)ccc1O

>  <score_type>  (49) 
oracle

>  <origin>  (49) 
adgpu

>  <m_score__min__energy>  (49) 
-13.19

>  <m_primary>  (49) 
energy

$$$$
