0:0
     RDKit          3D

 43 44  0  0  0  0  0  0  0  0999 V2000
   -1.9470   21.5490  -29.8720 C   0  0  0  0  0  0  0  0  0  0  0  0
   -1.8630   23.0550  -30.0990 C   0  0  0  0  0  0  0  0  0  0  0  0
   -2.1750   23.8110  -28.8300 C   0  0  0  0  0  0  0  0  0  0  0  0
   -1.1350   24.4870  -28.1680 C   0  0  0  0  0  0  0  0  0  0  0  0
   -1.3820   25.1920  -26.9890 C   0  0  0  0  0  0  0  0  0  0  0  0
   -2.6680   25.2220  -26.4500 C   0  0  0  0  0  0  0  0  0  0  0  0
   -3.7100   24.5460  -27.0860 C   0  0  0  0  0  0  0  0  0  0  0  0
   -3.4800   23.8420  -28.2820 C   0  0  0  0  0  0  0  0  0  0  0  0
   -4.5520   23.1140  -28.9050 N   0  0  0  0  0  0  0  0  0  0  0  0
   -5.0550   23.4220  -30.2180 C   0  0  0  0  0  0  0  0  0  0  0  0
   -4.6190   24.4270  -30.8420 O   0  0  0  0  0  0  0  0  0  0  0  0
   -6.0830   22.5660  -30.8550 C   0  0  0  0  0  0  0  0  0  0  0  0
   -7.4430   22.8640  -30.6900 C   0  0  0  0  0  0  0  0  0  0  0  0
   -8.4180   22.0550  -31.2730 C   0  0  0  0  0  0  0  0  0  0  0  0
   -8.0570   20.9420  -32.0400 C   0  0  0  0  0  0  0  0  0  0  0  0
   -9.3560   19.9640  -32.7140 Cl  0  0  0  0  0  0  0  0  0  0  0  0
   -6.6890   20.6420  -32.2370 C   0  0  0  0  0  0  0  0  0  0  0  0
   -6.1390   19.2540  -33.2010 S   0  0  0  0  0  0  0  0  0  0  0  0
   -6.4260   19.4770  -34.6590 O   0  0  0  0  0  0  0  0  0  0  0  0
   -4.6480   19.1260  -33.0530 O   0  0  0  0  0  0  0  0  0  0  0  0
   -6.8890   17.7670  -32.6760 N   0  0  0  0  0  0  0  0  0  0  0  0
   -6.4810   17.4550  -31.3020 C   0  0  0  0  0  0  0  0  0  0  0  0
   -6.5100   16.6710  -33.5780 C   0  0  0  0  0  0  0  0  0  0  0  0
   -5.7170   21.4620  -31.6430 C   0  0  0  0  0  0  0  0  0  0  0  0
   -1.9586   21.3411  -28.7919 H   0  0  0  0  0  0  0  0  0  0  0  0
   -2.8682   21.1599  -30.3302 H   0  0  0  0  0  0  0  0  0  0  0  0
   -1.0747   21.0599  -30.3302 H   0  0  0  0  0  0  0  0  0  0  0  0
   -0.8464   23.3128  -30.4307 H   0  0  0  0  0  0  0  0  0  0  0  0
   -2.6008   23.3359  -30.8650 H   0  0  0  0  0  0  0  0  0  0  0  0
   -0.1168   24.4600  -28.5833 H   0  0  0  0  0  0  0  0  0  0  0  0
   -0.5620   25.7242  -26.4847 H   0  0  0  0  0  0  0  0  0  0  0  0
   -2.8612   25.7796  -25.5217 H   0  0  0  0  0  0  0  0  0  0  0  0
   -4.7192   24.5637  -26.6487 H   0  0  0  0  0  0  0  0  0  0  0  0
   -4.9550   22.3070  -28.3830 H   0  0  0  0  0  0  0  0  0  0  0  0
   -7.7427   23.7409  -30.0973 H   0  0  0  0  0  0  0  0  0  0  0  0
   -9.4818   22.2945  -31.1283 H   0  0  0  0  0  0  0  0  0  0  0  0
   -7.1507   17.9671  -30.5954 H   0  0  0  0  0  0  0  0  0  0  0  0
   -6.5388   16.3685  -31.1401 H   0  0  0  0  0  0  0  0  0  0  0  0
   -5.4476   17.7954  -31.1401 H   0  0  0  0  0  0  0  0  0  0  0  0
   -6.2073   15.7957  -32.9845 H   0  0  0  0  0  0  0  0  0  0  0  0
   -7.3683   16.4048  -34.2124 H   0  0  0  0  0  0  0  0  0  0  0  0
   -5.6706   16.9919  -34.2124 H   0  0  0  0  0  0  0  0  0  0  0  0
   -4.6514   21.2366  -31.7970 H   0  0  0  0  0  0  0  0  0  0  0  0
  1  2  1  0
  2  3  1  0
  3  4  2  0
  4  5  1  0
  5  6  2  0
  6  7  1  0
  7  8  2  0
  8  9  1  0
  9 10  1  0
 10 11  2  0
 10 12  1  0
 12 13  2  0
 13 14  1  0
 14 15  2  0
 15 16  1  0
 15 17  1  0
 17 18  1  0
 18 19  2  0
 18 20  2  0
 18 21  1  0
 21 22  1  0
 21 23  1  0
 17 24  2  0
  8  3  1  0
 24 12  1  0
  1 25  1  0
  1 26  1  0
  1 27  1  0
  2 28  1  0
  2 29  1  0
  4 30  1  0
  5 31  1  0
  6 32  1  0
  7 33  1  0
  9 34  1  0
 13 35  1  0
 14 36  1  0
 22 37  1  0
 22 38  1  0
 22 39  1  0
 23 40  1  0
 23 41  1  0
 23 42  1  0
 24 43  1  0
M  END
>  <UniqueID>  (1) 
1

>  <SMILES>  (1) 
CCc1ccccc1NC(=O)c1ccc(Cl)c(S(=O)(=O)N(C)C)c1

>  <Energy>  (1) 
47.634120531055764

>  <Genealogy>  (1) 
CCc1ccccc1NC(=O)c1ccc(Cl)c(S(=O)(=O)N(C)C)c1 (3D coordinates assigned)
CCc1ccccc1NC(=O)c1ccc(Cl)c(S(=O)(=O)N(C)C)c1 (optimized conformer: 47.634120531055764 kcal/mol)

>  <smiles>  (1) 
CCc1ccccc1NC(=O)c1ccc(Cl)c(S(=O)(=O)N(C)C)c1

>  <score_type>  (1) 
oracle

>  <origin>  (1) 
adgpu

>  <m_score__min__energy>  (1) 
-8.7599999999999998

>  <m_primary>  (1) 
energy

$$$$
1:0
     RDKit          3D

 45 48  0  0  0  0  0  0  0  0999 V2000
   -5.0260   25.9990  -30.8570 O   0  0  0  0  0  0  0  0  0  0  0  0
   -4.5310   25.0900  -30.1330 C   0  0  0  0  0  0  0  0  0  0  0  0
   -5.4150   24.1340  -29.3850 C   0  0  0  0  0  0  0  0  0  0  0  0
   -6.4910   23.5400  -30.2570 C   0  0  0  0  0  0  0  0  0  0  0  0
   -7.3830   22.5880  -29.7350 C   0  0  0  0  0  0  0  0  0  0  0  0
   -8.3590   22.0130  -30.5540 C   0  0  0  0  0  0  0  0  0  0  0  0
   -8.4530   22.3840  -31.8990 C   0  0  0  0  0  0  0  0  0  0  0  0
   -7.5620   23.3210  -32.4280 C   0  0  0  0  0  0  0  0  0  0  0  0
   -6.5810   23.8960  -31.6130 C   0  0  0  0  0  0  0  0  0  0  0  0
   -3.1140   24.9140  -30.0690 N   0  0  0  0  0  0  0  0  0  0  0  0
   -2.4330   24.2180  -29.0200 C   0  0  0  0  0  0  0  0  0  0  0  0
   -2.4430   22.8420  -28.8060 C   0  0  0  0  0  0  0  0  0  0  0  0
   -3.1110   21.8270  -29.6390 C   0  0  0  0  0  0  0  0  0  0  0  0
   -3.3980   20.7040  -29.1450 O   0  0  0  0  0  0  0  0  0  0  0  0
   -3.4800   22.1430  -30.9920 N   0  0  0  0  0  0  0  0  0  0  0  0
   -3.9950   21.1830  -31.9310 C   0  0  0  0  0  0  0  0  0  0  0  0
   -3.1840   20.6370  -32.9430 C   0  0  0  0  0  0  0  0  0  0  0  0
   -3.7170   19.7190  -33.8540 C   0  0  0  0  0  0  0  0  0  0  0  0
   -5.0620   19.3450  -33.7690 C   0  0  0  0  0  0  0  0  0  0  0  0
   -5.7260   18.1930  -34.9130 Cl  0  0  0  0  0  0  0  0  0  0  0  0
   -5.8780   19.9030  -32.7820 C   0  0  0  0  0  0  0  0  0  0  0  0
   -5.3500   20.8240  -31.8720 C   0  0  0  0  0  0  0  0  0  0  0  0
   -1.7400   22.5550  -27.7240 O   0  0  0  0  0  0  0  0  0  0  0  0
   -1.2930   23.6840  -27.2220 C   0  0  0  0  0  0  0  0  0  0  0  0
   -0.5310   23.8510  -26.0680 C   0  0  0  0  0  0  0  0  0  0  0  0
   -0.2000   25.1630  -25.6830 C   0  0  0  0  0  0  0  0  0  0  0  0
   -0.6440   26.2650  -26.4460 C   0  0  0  0  0  0  0  0  0  0  0  0
   -1.4110   26.0670  -27.6080 C   0  0  0  0  0  0  0  0  0  0  0  0
   -1.6980   24.7530  -27.9810 C   0  0  0  0  0  0  0  0  0  0  0  0
   -4.7943   23.3184  -28.9857 H   0  0  0  0  0  0  0  0  0  0  0  0
   -5.9101   24.6968  -28.5799 H   0  0  0  0  0  0  0  0  0  0  0  0
   -7.3129   22.2940  -28.6773 H   0  0  0  0  0  0  0  0  0  0  0  0
   -9.0540   21.2677  -30.1399 H   0  0  0  0  0  0  0  0  0  0  0  0
   -9.2279   21.9384  -32.5400 H   0  0  0  0  0  0  0  0  0  0  0  0
   -7.6319   23.6073  -33.4878 H   0  0  0  0  0  0  0  0  0  0  0  0
   -5.8780   24.6291  -32.0352 H   0  0  0  0  0  0  0  0  0  0  0  0
   -3.4840   23.1490  -31.2740 H   0  0  0  0  0  0  0  0  0  0  0  0
   -2.1273   20.9331  -33.0180 H   0  0  0  0  0  0  0  0  0  0  0  0
   -3.0768   19.2903  -34.6391 H   0  0  0  0  0  0  0  0  0  0  0  0
   -6.9384   19.6172  -32.7205 H   0  0  0  0  0  0  0  0  0  0  0  0
   -6.0008   21.2697  -31.1053 H   0  0  0  0  0  0  0  0  0  0  0  0
   -0.1988   22.9849  -25.4768 H   0  0  0  0  0  0  0  0  0  0  0  0
    0.4084   25.3314  -24.7821 H   0  0  0  0  0  0  0  0  0  0  0  0
   -0.3879   27.2867  -26.1289 H   0  0  0  0  0  0  0  0  0  0  0  0
   -1.7725   26.9188  -28.2028 H   0  0  0  0  0  0  0  0  0  0  0  0
  1  2  2  0
  2  3  1  0
  3  4  1  0
  4  5  2  0
  5  6  1  0
  6  7  2  0
  7  8  1  0
  8  9  2  0
  2 10  1  0
 10 11  1  0
 11 12  2  0
 12 13  1  0
 13 14  2  0
 13 15  1  0
 15 16  1  0
 16 17  2  0
 17 18  1  0
 18 19  2  0
 19 20  1  0
 19 21  1  0
 21 22  2  0
 12 23  1  0
 23 24  1  0
 24 25  2  0
 25 26  1  0
 26 27  2  0
 27 28  1  0
 28 29  2  0
  9  4  1  0
 29 11  1  0
 22 16  1  0
 29 24  1  0
  3 30  1  0
  3 31  1  0
  5 32  1  0
  6 33  1  0
  7 34  1  0
  8 35  1  0
  9 36  1  0
 15 37  1  0
 17 38  1  0
 18 39  1  0
 21 40  1  0
 22 41  1  0
 25 42  1  0
 26 43  1  0
 27 44  1  0
 28 45  1  0
M  CHG  1  10  -1
M  END
>  <UniqueID>  (2) 
2

>  <SMILES>  (2) 
O=C(Cc1ccccc1)[N-]c1c(C(=O)Nc2ccc(Cl)cc2)oc2ccccc12

>  <Energy>  (2) 
92.33554676468536

>  <Genealogy>  (2) 
O=C(Cc1ccccc1)[N-]c1c(C(=O)Nc2ccc(Cl)cc2)oc2ccccc12 (protonated)
O=C(Cc1ccccc1)[N-]c1c(C(=O)Nc2ccc(Cl)cc2)oc2ccccc12 (3D coordinates assigned)
O=C(Cc1ccccc1)[N-]c1c(C(=O)Nc2ccc(Cl)cc2)oc2ccccc12 (optimized conformer: 92.33554676468536 kcal/mol)

>  <smiles>  (2) 
O=C(Cc1ccccc1)Nc1c(C(=O)Nc2ccc(Cl)cc2)oc2ccccc12

>  <score_type>  (2) 
oracle

>  <origin>  (2) 
adgpu

>  <m_score__min__energy>  (2) 
-10.33

>  <m_primary>  (2) 
energy

$$$$
2:0
     RDKit          3D

 46 49  0  0  0  0  0  0  0  0999 V2000
   -8.4160   23.4440  -32.3280 C   0  0  0  0  0  0  0  0  0  0  0  0
   -7.9780   23.3740  -30.9750 O   0  0  0  0  0  0  0  0  0  0  0  0
   -6.6940   23.7330  -30.5390 C   0  0  0  0  0  0  0  0  0  0  0  0
   -6.1160   24.8990  -31.0560 C   0  0  0  0  0  0  0  0  0  0  0  0
   -4.8310   25.2900  -30.6670 C   0  0  0  0  0  0  0  0  0  0  0  0
   -4.1040   24.5160  -29.7440 C   0  0  0  0  0  0  0  0  0  0  0  0
   -2.7730   24.8620  -29.3340 N   0  0  0  0  0  0  0  0  0  0  0  0
   -1.4640   23.7460  -29.1240 S   0  0  0  0  0  0  0  0  0  0  0  0
   -0.1650   24.4600  -29.3720 O   0  0  0  0  0  0  0  0  0  0  0  0
   -1.4620   23.2310  -27.7120 O   0  0  0  0  0  0  0  0  0  0  0  0
   -1.6170   22.4280  -30.2800 C   0  0  0  0  0  0  0  0  0  0  0  0
   -0.9760   21.2100  -30.0270 C   0  0  0  0  0  0  0  0  0  0  0  0
   -1.1010   20.1460  -30.9230 C   0  0  0  0  0  0  0  0  0  0  0  0
   -1.8810   20.2850  -32.0830 C   0  0  0  0  0  0  0  0  0  0  0  0
   -2.0340   19.1630  -33.0340 C   0  0  0  0  0  0  0  0  0  0  0  0
   -0.9910   18.5900  -33.6660 N   0  0  0  0  0  0  0  0  0  0  0  0
   -1.4740   17.6050  -34.4100 N   0  0  0  0  0  0  0  0  0  0  0  0
   -2.8050   17.5900  -34.2170 C   0  0  0  0  0  0  0  0  0  0  0  0
   -3.8090   16.5850  -35.0340 S   0  0  0  0  0  0  0  0  0  0  0  0
   -3.1990   18.5570  -33.3610 N   0  0  0  0  0  0  0  0  0  0  0  0
   -4.5410   18.9380  -33.0050 C   0  0  0  0  0  0  0  0  0  0  0  0
   -5.3440   18.0750  -32.2410 C   0  0  0  0  0  0  0  0  0  0  0  0
   -6.6570   18.4320  -31.9220 C   0  0  0  0  0  0  0  0  0  0  0  0
   -7.1790   19.6530  -32.3600 C   0  0  0  0  0  0  0  0  0  0  0  0
   -8.9760   20.1360  -31.9240 Br  0  0  0  0  0  0  0  0  0  0  0  0
   -6.3830   20.5220  -33.1120 C   0  0  0  0  0  0  0  0  0  0  0  0
   -5.0690   20.1670  -33.4330 C   0  0  0  0  0  0  0  0  0  0  0  0
   -2.4970   21.5180  -32.3500 C   0  0  0  0  0  0  0  0  0  0  0  0
   -2.3730   22.5800  -31.4500 C   0  0  0  0  0  0  0  0  0  0  0  0
   -4.6850   23.3570  -29.2180 C   0  0  0  0  0  0  0  0  0  0  0  0
   -5.9700   22.9640  -29.6090 C   0  0  0  0  0  0  0  0  0  0  0  0
   -9.5019   23.6175  -32.3533 H   0  0  0  0  0  0  0  0  0  0  0  0
   -7.9005   24.2712  -32.8380 H   0  0  0  0  0  0  0  0  0  0  0  0
   -8.1840   22.4974  -32.8380 H   0  0  0  0  0  0  0  0  0  0  0  0
   -6.6781   25.5132  -31.7749 H   0  0  0  0  0  0  0  0  0  0  0  0
   -4.3870   26.2059  -31.0841 H   0  0  0  0  0  0  0  0  0  0  0  0
   -0.3700   21.0899  -29.1169 H   0  0  0  0  0  0  0  0  0  0  0  0
   -0.5866   19.1952  -30.7195 H   0  0  0  0  0  0  0  0  0  0  0  0
   -4.9376   17.1141  -31.8923 H   0  0  0  0  0  0  0  0  0  0  0  0
   -7.2812   17.7509  -31.3250 H   0  0  0  0  0  0  0  0  0  0  0  0
   -6.7905   21.4857  -33.4515 H   0  0  0  0  0  0  0  0  0  0  0  0
   -4.4456   20.8541  -34.0239 H   0  0  0  0  0  0  0  0  0  0  0  0
   -3.0807   21.6490  -33.2731 H   0  0  0  0  0  0  0  0  0  0  0  0
   -2.8704   23.5382  -31.6608 H   0  0  0  0  0  0  0  0  0  0  0  0
   -4.1268   22.7493  -28.4906 H   0  0  0  0  0  0  0  0  0  0  0  0
   -6.4157   22.0508  -29.1879 H   0  0  0  0  0  0  0  0  0  0  0  0
  1  2  1  0
  2  3  1  0
  3  4  2  0
  4  5  1  0
  5  6  2  0
  6  7  1  0
  7  8  1  0
  8  9  2  0
  8 10  2  0
  8 11  1  0
 11 12  2  0
 12 13  1  0
 13 14  2  0
 14 15  1  0
 15 16  2  0
 16 17  1  0
 17 18  1  0
 18 19  2  0
 18 20  1  0
 20 21  1  0
 21 22  2  0
 22 23  1  0
 23 24  2  0
 24 25  1  0
 24 26  1  0
 26 27  2  0
 14 28  1  0
 28 29  2  0
  6 30  1  0
 30 31  2  0
 31  3  1  0
 29 11  1  0
 20 15  1  0
 27 21  1  0
  1 32  1  0
  1 33  1  0
  1 34  1  0
  4 35  1  0
  5 36  1  0
 12 37  1  0
 13 38  1  0
 22 39  1  0
 23 40  1  0
 26 41  1  0
 27 42  1  0
 28 43  1  0
 29 44  1  0
 30 45  1  0
 31 46  1  0
M  CHG  2   7  -1  17  -1
M  END
>  <UniqueID>  (3) 
3

>  <SMILES>  (3) 
COc1ccc([N-]S(=O)(=O)c2ccc(-c3n[n-]c(=S)n3-c3ccc(Br)cc3)cc2)cc1

>  <Energy>  (3) 
98.79112338398436

>  <Genealogy>  (3) 
COc1ccc([N-]S(=O)(=O)c2ccc(-c3n[n-]c(=S)n3-c3ccc(Br)cc3)cc2)cc1 (protonated)
COc1ccc([N-]S(=O)(=O)c2ccc(-c3n[n-]c(=S)n3-c3ccc(Br)cc3)cc2)cc1 (3D coordinates assigned)
COc1ccc([N-]S(=O)(=O)c2ccc(-c3n[n-]c(=S)n3-c3ccc(Br)cc3)cc2)cc1 (optimized conformer: 98.79112338398436 kcal/mol)

>  <smiles>  (3) 
COc1ccc(NS(=O)(=O)c2ccc(-c3n[nH]c(=S)n3-c3ccc(Br)cc3)cc2)cc1

>  <score_type>  (3) 
oracle

>  <origin>  (3) 
adgpu

>  <m_score__min__energy>  (3) 
-11.24

>  <m_primary>  (3) 
energy

$$$$
3:0
     RDKit          3D

 44 45  0  0  0  0  0  0  0  0999 V2000
   -3.9147   23.1455  -28.1646 H   0  0  0  0  0  0  0  0  0  0  0  0
   -2.8580   23.4460  -28.1100 C   0  0  0  0  0  0  0  0  0  0  0  0
   -2.0380   22.9220  -27.1100 C   0  0  0  0  0  0  0  0  0  0  0  0
   -2.4520   22.2085  -26.3823 H   0  0  0  0  0  0  0  0  0  0  0  0
   -0.6850   23.3000  -27.0260 C   0  0  0  0  0  0  0  0  0  0  0  0
    0.1690   22.7950  -26.0340 O   0  0  0  0  0  0  0  0  0  0  0  0
   -0.0040   23.0060  -24.6360 C   0  0  0  0  0  0  0  0  0  0  0  0
    0.5968   22.2732  -24.0775 H   0  0  0  0  0  0  0  0  0  0  0  0
    0.3233   24.0233  -24.3755 H   0  0  0  0  0  0  0  0  0  0  0  0
   -1.0658   22.8844  -24.3755 H   0  0  0  0  0  0  0  0  0  0  0  0
   -0.1620   24.2110  -27.9570 C   0  0  0  0  0  0  0  0  0  0  0  0
    1.1910   24.5700  -27.8500 O   0  0  0  0  0  0  0  0  0  0  0  0
    1.7260   25.4010  -26.8250 C   0  0  0  0  0  0  0  0  0  0  0  0
    1.4596   24.9873  -25.8412 H   0  0  0  0  0  0  0  0  0  0  0  0
    2.8210   25.4427  -26.9210 H   0  0  0  0  0  0  0  0  0  0  0  0
    1.3107   26.4150  -26.9210 H   0  0  0  0  0  0  0  0  0  0  0  0
   -0.9980   24.7360  -28.9630 C   0  0  0  0  0  0  0  0  0  0  0  0
   -0.5896   25.4533  -29.6901 H   0  0  0  0  0  0  0  0  0  0  0  0
   -2.3410   24.3550  -29.0470 C   0  0  0  0  0  0  0  0  0  0  0  0
   -3.1470   24.9090  -30.0960 N   0  0  0  0  0  0  0  0  0  0  0  0
   -4.8070   24.5100  -30.4000 S   0  0  0  0  0  0  0  0  0  0  0  0
   -5.4320   25.6000  -31.2230 O   0  0  0  0  0  0  0  0  0  0  0  0
   -5.5340   24.4060  -29.0880 O   0  0  0  0  0  0  0  0  0  0  0  0
   -4.9100   22.9940  -31.2890 C   0  0  0  0  0  0  0  0  0  0  0  0
   -6.1190   22.5910  -31.8590 C   0  0  0  0  0  0  0  0  0  0  0  0
   -7.0180   23.2129  -31.7365 H   0  0  0  0  0  0  0  0  0  0  0  0
   -6.1890   21.4020  -32.5830 C   0  0  0  0  0  0  0  0  0  0  0  0
   -7.1413   21.0830  -33.0318 H   0  0  0  0  0  0  0  0  0  0  0  0
   -5.0320   20.6100  -32.7370 C   0  0  0  0  0  0  0  0  0  0  0  0
   -5.0290   19.4910  -33.4090 N   0  0  0  0  0  0  0  0  0  0  0  0
   -6.1330   18.8570  -34.1360 C   0  0  0  0  0  0  0  0  0  0  0  0
   -5.7339   18.3647  -35.0351 H   0  0  0  0  0  0  0  0  0  0  0  0
   -6.8610   19.6352  -34.4087 H   0  0  0  0  0  0  0  0  0  0  0  0
   -6.8450   17.8110  -33.2680 C   0  0  0  0  0  0  0  0  0  0  0  0
   -6.0880   17.2678  -32.6833 H   0  0  0  0  0  0  0  0  0  0  0  0
   -7.3987   17.1450  -33.9461 H   0  0  0  0  0  0  0  0  0  0  0  0
   -7.8580   18.4210  -32.3030 C   0  0  0  0  0  0  0  0  0  0  0  0
   -7.5396   18.2293  -31.2677 H   0  0  0  0  0  0  0  0  0  0  0  0
   -7.9189   19.5061  -32.4729 H   0  0  0  0  0  0  0  0  0  0  0  0
   -8.8455   17.9673  -32.4729 H   0  0  0  0  0  0  0  0  0  0  0  0
   -3.8680   21.0230  -32.1550 N   0  0  0  0  0  0  0  0  0  0  0  0
   -3.0050   20.4410  -32.2570 H   0  0  0  0  0  0  0  0  0  0  0  0
   -3.7840   22.1810  -31.4460 C   0  0  0  0  0  0  0  0  0  0  0  0
   -2.8261   22.4787  -30.9945 H   0  0  0  0  0  0  0  0  0  0  0  0
  1  2  1  0
  2  3  2  0
  3  4  1  0
  3  5  1  0
  5  6  1  0
  6  7  1  0
  7  8  1  0
  7  9  1  0
  7 10  1  0
  5 11  2  0
 11 12  1  0
 12 13  1  0
 13 14  1  0
 13 15  1  0
 13 16  1  0
 11 17  1  0
 17 18  1  0
 17 19  2  0
 19 20  1  0
 20 21  1  0
 21 22  2  0
 21 23  2  0
 21 24  1  0
 24 25  1  0
 25 26  1  0
 25 27  2  0
 27 28  1  0
 27 29  1  0
 29 30  2  0
 30 31  1  0
 31 32  1  0
 31 33  1  0
 31 34  1  0
 34 35  1  0
 34 36  1  0
 34 37  1  0
 37 38  1  0
 37 39  1  0
 37 40  1  0
 29 41  1  0
 41 42  1  0
 41 43  1  0
 43 44  1  0
 19  2  1  0
 43 24  2  0
M  CHG  1  20  -1
M  END
>  <UniqueID>  (4) 
4

>  <SMILES>  (4) 
CCC/N=c1\ccc(S(=O)(=O)[N-]c2ccc(OC)c(OC)c2)c[nH]1

>  <Energy>  (4) 
45.58163164159648

>  <Genealogy>  (4) 
CCCN=c1ccc(S(=O)(=O)[N-]c2ccc(OC)c(OC)c2)c[nH]1 (protonated)
CCC/N=c1\ccc(S(=O)(=O)[N-]c2ccc(OC)c(OC)c2)c[nH]1 (cis-trans isomerization)
CCC/N=c1\ccc(S(=O)(=O)[N-]c2ccc(OC)c(OC)c2)c[nH]1 (3D coordinates assigned)
CCC/N=c1\ccc(S(=O)(=O)[N-]c2ccc(OC)c(OC)c2)c[nH]1 (optimized conformer: 45.58163164159648 kcal/mol)

>  <smiles>  (4) 
CCCN=c1ccc(S(=O)(=O)Nc2ccc(OC)c(OC)c2)c[nH]1

>  <score_type>  (4) 
oracle

>  <origin>  (4) 
adgpu

>  <m_score__min__energy>  (4) 
-9.1199999999999992

>  <m_primary>  (4) 
energy

$$$$
4:0
     RDKit          3D

 28 30  0  0  0  0  0  0  0  0999 V2000
   -7.3720   25.2240  -30.0610 H   0  0  0  0  0  0  0  0  0  0  0  0
   -6.3710   25.5150  -30.0720 N   0  0  0  0  0  0  0  0  0  0  0  0
   -5.4370   24.7440  -30.5260 C   0  0  0  0  0  0  0  0  0  0  0  0
   -4.1510   25.1110  -30.6170 N   0  0  0  0  0  0  0  0  0  0  0  0
   -3.5580   24.1070  -31.2030 O   0  0  0  0  0  0  0  0  0  0  0  0
   -4.3580   23.1200  -31.5030 N   0  0  0  0  0  0  0  0  0  0  0  0
   -5.5760   23.4860  -31.0670 C   0  0  0  0  0  0  0  0  0  0  0  0
   -6.7880   22.6680  -31.2420 C   0  0  0  0  0  0  0  0  0  0  0  0
   -8.0060   23.0980  -30.8480 N   0  0  0  0  0  0  0  0  0  0  0  0
   -8.8750   22.1950  -31.2710 N   0  0  0  0  0  0  0  0  0  0  0  0
   -9.9100   22.2590  -31.1410 H   0  0  0  0  0  0  0  0  0  0  0  0
   -8.1970   21.2460  -31.9320 C   0  0  0  0  0  0  0  0  0  0  0  0
   -8.9220   20.0210  -32.7480 S   0  0  0  0  0  0  0  0  0  0  0  0
   -6.8680   21.4990  -31.9270 N   0  0  0  0  0  0  0  0  0  0  0  0
   -5.8270   20.8360  -32.7270 C   0  0  0  0  0  0  0  0  0  0  0  0
   -5.9011   21.1905  -33.7657 H   0  0  0  0  0  0  0  0  0  0  0  0
   -4.8529   21.0876  -32.2822 H   0  0  0  0  0  0  0  0  0  0  0  0
   -5.9610   19.3270  -32.7180 C   0  0  0  0  0  0  0  0  0  0  0  0
   -5.9040   18.5910  -31.5170 C   0  0  0  0  0  0  0  0  0  0  0  0
   -5.7902   19.1181  -30.5583 H   0  0  0  0  0  0  0  0  0  0  0  0
   -5.9910   17.1970  -31.5360 C   0  0  0  0  0  0  0  0  0  0  0  0
   -5.9585   16.6325  -30.5925 H   0  0  0  0  0  0  0  0  0  0  0  0
   -6.1190   16.5190  -32.7480 C   0  0  0  0  0  0  0  0  0  0  0  0
   -6.1908   15.4214  -32.7593 H   0  0  0  0  0  0  0  0  0  0  0  0
   -6.1560   17.2340  -33.9480 C   0  0  0  0  0  0  0  0  0  0  0  0
   -6.2530   16.6974  -34.9033 H   0  0  0  0  0  0  0  0  0  0  0  0
   -6.0700   18.6300  -33.9380 C   0  0  0  0  0  0  0  0  0  0  0  0
   -6.0900   19.3000  -35.1180 F   0  0  0  0  0  0  0  0  0  0  0  0
  1  2  1  0
  2  3  2  0
  3  4  1  0
  4  5  1  0
  5  6  1  0
  6  7  2  0
  7  8  1  0
  8  9  2  0
  9 10  1  0
 10 11  1  0
 10 12  1  0
 12 13  2  0
 12 14  1  0
 14 15  1  0
 15 16  1  0
 15 17  1  0
 15 18  1  0
 18 19  2  0
 19 20  1  0
 19 21  1  0
 21 22  1  0
 21 23  2  0
 23 24  1  0
 23 25  1  0
 25 26  1  0
 25 27  2  0
 27 28  1  0
  7  3  1  0
 14  8  1  0
 27 18  1  0
M  CHG  1   4  -1
M  END
>  <UniqueID>  (5) 
5

>  <SMILES>  (5) 
[H]/N=c1/[n-]onc1-c1n[nH]c(=S)n1Cc1ccccc1F

>  <Energy>  (5) 
111.02619527621128

>  <Genealogy>  (5) 
N=c1[n-]onc1-c1n[nH]c(=S)n1Cc1ccccc1F (protonated)
[H]/N=c1/[n-]onc1-c1n[nH]c(=S)n1Cc1ccccc1F (cis-trans isomerization)
[H]/N=c1/[n-]onc1-c1n[nH]c(=S)n1Cc1ccccc1F (3D coordinates assigned)
[H]/N=c1/[n-]onc1-c1n[nH]c(=S)n1Cc1ccccc1F (optimized conformer: 111.02619527621128 kcal/mol)

>  <smiles>  (5) 
N=c1[nH]onc1-c1n[nH]c(=S)n1Cc1ccccc1F

>  <score_type>  (5) 
oracle

>  <origin>  (5) 
adgpu

>  <m_score__min__energy>  (5) 
-8.7400000000000002

>  <m_primary>  (5) 
energy

$$$$
5:0
     RDKit          3D

 39 40  0  0  0  0  0  0  0  0999 V2000
   -0.8390   27.0110  -27.8670 C   0  0  0  0  0  0  0  0  0  0  0  0
   -1.2920   26.1870  -28.9360 O   0  0  0  0  0  0  0  0  0  0  0  0
   -1.4560   24.7960  -28.8660 C   0  0  0  0  0  0  0  0  0  0  0  0
   -0.5700   23.9960  -28.1130 C   0  0  0  0  0  0  0  0  0  0  0  0
   -0.7700   22.6180  -28.0080 C   0  0  0  0  0  0  0  0  0  0  0  0
   -1.8550   22.0200  -28.6450 C   0  0  0  0  0  0  0  0  0  0  0  0
   -2.7350   22.7960  -29.4020 C   0  0  0  0  0  0  0  0  0  0  0  0
   -2.5390   24.1770  -29.5380 C   0  0  0  0  0  0  0  0  0  0  0  0
   -3.4840   24.8980  -30.3460 N   0  0  0  0  0  0  0  0  0  0  0  0
   -5.1700   24.5440  -30.5610 S   0  0  0  0  0  0  0  0  0  0  0  0
   -5.8320   25.6850  -31.2820 O   0  0  0  0  0  0  0  0  0  0  0  0
   -5.8000   24.3420  -29.2110 O   0  0  0  0  0  0  0  0  0  0  0  0
   -5.3600   23.0730  -31.5330 C   0  0  0  0  0  0  0  0  0  0  0  0
   -4.2120   22.5040  -32.1030 C   0  0  0  0  0  0  0  0  0  0  0  0
   -4.2870   21.3200  -32.8420 C   0  0  0  0  0  0  0  0  0  0  0  0
   -3.0520   20.7490  -33.4770 C   0  0  0  0  0  0  0  0  0  0  0  0
   -5.5250   20.7040  -33.0340 C   0  0  0  0  0  0  0  0  0  0  0  0
   -6.6930   21.2470  -32.4770 C   0  0  0  0  0  0  0  0  0  0  0  0
   -7.9970   20.5200  -32.6950 C   0  0  0  0  0  0  0  0  0  0  0  0
   -6.6280   22.4690  -31.7540 C   0  0  0  0  0  0  0  0  0  0  0  0
   -7.8850   23.0820  -31.1750 C   0  0  0  0  0  0  0  0  0  0  0  0
   -1.0975   26.5408  -26.9067 H   0  0  0  0  0  0  0  0  0  0  0  0
    0.2523   27.1317  -27.9342 H   0  0  0  0  0  0  0  0  0  0  0  0
   -1.3218   27.9971  -27.9342 H   0  0  0  0  0  0  0  0  0  0  0  0
    0.2863   24.4625  -27.6040 H   0  0  0  0  0  0  0  0  0  0  0  0
   -0.0702   22.0042  -27.4218 H   0  0  0  0  0  0  0  0  0  0  0  0
   -2.0185   20.9362  -28.5516 H   0  0  0  0  0  0  0  0  0  0  0  0
   -3.5926   22.3176  -29.8977 H   0  0  0  0  0  0  0  0  0  0  0  0
   -3.2381   22.9968  -31.9665 H   0  0  0  0  0  0  0  0  0  0  0  0
   -2.3523   20.4255  -32.6923 H   0  0  0  0  0  0  0  0  0  0  0  0
   -3.3264   19.8864  -34.1020 H   0  0  0  0  0  0  0  0  0  0  0  0
   -2.5725   21.5168  -34.1020 H   0  0  0  0  0  0  0  0  0  0  0  0
   -5.5857   19.7812  -33.6295 H   0  0  0  0  0  0  0  0  0  0  0  0
   -8.4448   20.2704  -31.7218 H   0  0  0  0  0  0  0  0  0  0  0  0
   -8.6858   21.1643  -33.2611 H   0  0  0  0  0  0  0  0  0  0  0  0
   -7.8111   19.5953  -33.2611 H   0  0  0  0  0  0  0  0  0  0  0  0
   -7.8329   23.0566  -30.0765 H   0  0  0  0  0  0  0  0  0  0  0  0
   -7.9741   24.1247  -31.5138 H   0  0  0  0  0  0  0  0  0  0  0  0
   -8.7615   22.5102  -31.5138 H   0  0  0  0  0  0  0  0  0  0  0  0
  1  2  1  0
  2  3  1  0
  3  4  2  0
  4  5  1  0
  5  6  2  0
  6  7  1  0
  7  8  2  0
  8  9  1  0
  9 10  1  0
 10 11  2  0
 10 12  2  0
 10 13  1  0
 13 14  2  0
 14 15  1  0
 15 16  1  0
 15 17  2  0
 17 18  1  0
 18 19  1  0
 18 20  2  0
 20 21  1  0
  8  3  1  0
 20 13  1  0
  1 22  1  0
  1 23  1  0
  1 24  1  0
  4 25  1  0
  5 26  1  0
  6 27  1  0
  7 28  1  0
 14 29  1  0
 16 30  1  0
 16 31  1  0
 16 32  1  0
 17 33  1  0
 19 34  1  0
 19 35  1  0
 19 36  1  0
 21 37  1  0
 21 38  1  0
 21 39  1  0
M  CHG  1   9  -1
M  END
>  <UniqueID>  (6) 
6

>  <SMILES>  (6) 
COc1ccccc1[N-]S(=O)(=O)c1cc(C)cc(C)c1C

>  <Energy>  (6) 
49.161775689414526

>  <Genealogy>  (6) 
COc1ccccc1[N-]S(=O)(=O)c1cc(C)cc(C)c1C (protonated)
COc1ccccc1[N-]S(=O)(=O)c1cc(C)cc(C)c1C (3D coordinates assigned)
COc1ccccc1[N-]S(=O)(=O)c1cc(C)cc(C)c1C (optimized conformer: 49.161775689414526 kcal/mol)

>  <smiles>  (6) 
COc1ccccc1NS(=O)(=O)c1cc(C)cc(C)c1C

>  <score_type>  (6) 
oracle

>  <origin>  (6) 
adgpu

>  <m_score__min__energy>  (6) 
-9.75

>  <m_primary>  (6) 
energy

$$$$
6:0
     RDKit          3D

 52 55  0  0  0  0  0  0  0  0999 V2000
    0.1900   29.0110  -38.1750 C   0  0  0  0  0  0  0  0  0  0  0  0
    1.2160   27.9170  -38.1630 C   0  0  0  0  0  0  0  0  0  0  0  0
    2.3000   28.1060  -38.7800 O   0  0  0  0  0  0  0  0  0  0  0  0
    0.9860   26.6320  -37.4500 C   0  0  0  0  0  0  0  0  0  0  0  0
    2.0810   25.8440  -37.0480 C   0  0  0  0  0  0  0  0  0  0  0  0
    1.8820   24.6330  -36.3790 C   0  0  0  0  0  0  0  0  0  0  0  0
    0.5820   24.1760  -36.1080 C   0  0  0  0  0  0  0  0  0  0  0  0
    0.3500   22.9440  -35.4040 N   0  0  0  0  0  0  0  0  0  0  0  0
    1.3930   22.0630  -34.9580 C   0  0  0  0  0  0  0  0  0  0  0  0
    2.5830   22.2310  -35.3400 O   0  0  0  0  0  0  0  0  0  0  0  0
    1.0630   20.8770  -34.1050 C   0  0  0  0  0  0  0  0  0  0  0  0
   -0.1250   21.1590  -33.2920 N   0  0  0  0  0  0  0  0  0  0  0  0
    0.0580   21.5240  -32.0120 N   0  0  0  0  0  0  0  0  0  0  0  0
   -0.9780   21.7800  -31.1580 C   0  0  0  0  0  0  0  0  0  0  0  0
   -0.6860   22.1850  -29.7480 C   0  0  0  0  0  0  0  0  0  0  0  0
   -2.2740   21.6280  -31.6610 C   0  0  0  0  0  0  0  0  0  0  0  0
   -3.5510   21.7650  -31.1360 C   0  0  0  0  0  0  0  0  0  0  0  0
   -3.9180   22.0810  -29.7150 C   0  0  0  0  0  0  0  0  0  0  0  0
   -4.4330   21.5030  -32.1410 N   0  0  0  0  0  0  0  0  0  0  0  0
   -5.8680   21.5590  -32.0870 C   0  0  0  0  0  0  0  0  0  0  0  0
   -6.5110   22.7900  -31.8750 C   0  0  0  0  0  0  0  0  0  0  0  0
   -7.9050   22.8500  -31.7900 C   0  0  0  0  0  0  0  0  0  0  0  0
   -8.6660   21.6830  -31.9000 C   0  0  0  0  0  0  0  0  0  0  0  0
   -8.0320   20.4510  -32.0880 C   0  0  0  0  0  0  0  0  0  0  0  0
   -6.6380   20.3870  -32.1750 C   0  0  0  0  0  0  0  0  0  0  0  0
   -3.7760   21.1790  -33.2490 N   0  0  0  0  0  0  0  0  0  0  0  0
   -2.4660   21.2570  -32.9590 C   0  0  0  0  0  0  0  0  0  0  0  0
   -1.3930   21.0100  -33.8030 C   0  0  0  0  0  0  0  0  0  0  0  0
   -1.5870   20.6600  -34.9990 O   0  0  0  0  0  0  0  0  0  0  0  0
   -0.5110   24.9700  -36.4830 C   0  0  0  0  0  0  0  0  0  0  0  0
   -0.3140   26.1800  -37.1530 C   0  0  0  0  0  0  0  0  0  0  0  0
   -0.0665   29.2845  -37.1409 H   0  0  0  0  0  0  0  0  0  0  0  0
    0.5971   29.8898  -38.6965 H   0  0  0  0  0  0  0  0  0  0  0  0
   -0.7131   28.6610  -38.6965 H   0  0  0  0  0  0  0  0  0  0  0  0
    3.1045   26.1850  -37.2627 H   0  0  0  0  0  0  0  0  0  0  0  0
    2.7489   24.0343  -36.0628 H   0  0  0  0  0  0  0  0  0  0  0  0
   -0.6390   22.6260  -35.2890 H   0  0  0  0  0  0  0  0  0  0  0  0
    0.8652   20.0081  -34.7499 H   0  0  0  0  0  0  0  0  0  0  0  0
    1.9129   20.6624  -33.4404 H   0  0  0  0  0  0  0  0  0  0  0  0
   -1.1862   21.4913  -29.0562 H   0  0  0  0  0  0  0  0  0  0  0  0
    0.4000   22.1555  -29.5754 H   0  0  0  0  0  0  0  0  0  0  0  0
   -1.0571   23.2060  -29.5754 H   0  0  0  0  0  0  0  0  0  0  0  0
   -3.2637   21.5177  -29.0334 H   0  0  0  0  0  0  0  0  0  0  0  0
   -3.7935   23.1590  -29.5352 H   0  0  0  0  0  0  0  0  0  0  0  0
   -4.9656   21.7978  -29.5352 H   0  0  0  0  0  0  0  0  0  0  0  0
   -5.9156   23.7096  -31.7756 H   0  0  0  0  0  0  0  0  0  0  0  0
   -8.4042   23.8181  -31.6362 H   0  0  0  0  0  0  0  0  0  0  0  0
   -9.7631   21.7336  -31.8387 H   0  0  0  0  0  0  0  0  0  0  0  0
   -8.6304   19.5314  -32.1675 H   0  0  0  0  0  0  0  0  0  0  0  0
   -6.1420   19.4149  -32.3129 H   0  0  0  0  0  0  0  0  0  0  0  0
   -1.5327   24.6373  -36.2476 H   0  0  0  0  0  0  0  0  0  0  0  0
   -1.1827   26.7853  -37.4513 H   0  0  0  0  0  0  0  0  0  0  0  0
  1  2  1  0
  2  3  2  0
  2  4  1  0
  4  5  2  0
  5  6  1  0
  6  7  2  0
  7  8  1  0
  8  9  1  0
  9 10  2  0
  9 11  1  0
 11 12  1  0
 12 13  1  0
 13 14  2  0
 14 15  1  0
 14 16  1  0
 16 17  2  0
 17 18  1  0
 17 19  1  0
 19 20  1  0
 20 21  2  0
 21 22  1  0
 22 23  2  0
 23 24  1  0
 24 25  2  0
 19 26  1  0
 26 27  2  0
 27 28  1  0
 28 29  2  0
  7 30  1  0
 30 31  2  0
 31  4  1  0
 28 12  1  0
 27 16  1  0
 25 20  1  0
  1 32  1  0
  1 33  1  0
  1 34  1  0
  5 35  1  0
  6 36  1  0
  8 37  1  0
 11 38  1  0
 11 39  1  0
 15 40  1  0
 15 41  1  0
 15 42  1  0
 18 43  1  0
 18 44  1  0
 18 45  1  0
 21 46  1  0
 22 47  1  0
 23 48  1  0
 24 49  1  0
 25 50  1  0
 30 51  1  0
 31 52  1  0
M  END
>  <UniqueID>  (7) 
7

>  <SMILES>  (7) 
CC(=O)c1ccc(NC(=O)Cn2nc(C)c3c(C)n(-c4ccccc4)nc3c2=O)cc1

>  <Energy>  (7) 
105.03643404299868

>  <Genealogy>  (7) 
CC(=O)c1ccc(NC(=O)Cn2nc(C)c3c(C)n(-c4ccccc4)nc3c2=O)cc1 (3D coordinates assigned)
CC(=O)c1ccc(NC(=O)Cn2nc(C)c3c(C)n(-c4ccccc4)nc3c2=O)cc1 (optimized conformer: 105.03643404299868 kcal/mol)

>  <smiles>  (7) 
CC(=O)c1ccc(NC(=O)Cn2nc(C)c3c(C)n(-c4ccccc4)nc3c2=O)cc1

>  <score_type>  (7) 
oracle

>  <origin>  (7) 
adgpu

>  <m_score__min__energy>  (7) 
-11.390000000000001

>  <m_primary>  (7) 
energy

$$$$
7:0
     RDKit          3D

 46 49  0  0  0  0  0  0  0  0999 V2000
   -4.5095   16.6195  -36.3047 H   0  0  0  0  0  0  0  0  0  0  0  0
   -4.0170   17.1600  -35.4830 C   0  0  0  0  0  0  0  0  0  0  0  0
   -4.7570   17.9020  -34.6190 N   0  0  0  0  0  0  0  0  0  0  0  0
   -4.1910   18.5890  -33.5890 C   0  0  0  0  0  0  0  0  0  0  0  0
   -5.0270   19.3810  -32.7360 N   0  0  0  0  0  0  0  0  0  0  0  0
   -4.7530   20.6480  -32.4750 N   0  0  0  0  0  0  0  0  0  0  0  0
   -5.7880   21.1690  -31.7810 C   0  0  0  0  0  0  0  0  0  0  0  0
   -5.8350   22.5770  -31.3150 C   0  0  0  0  0  0  0  0  0  0  0  0
   -7.0620   23.2320  -31.0900 C   0  0  0  0  0  0  0  0  0  0  0  0
   -8.0073   22.6960  -31.2605 H   0  0  0  0  0  0  0  0  0  0  0  0
   -7.0850   24.5600  -30.6510 C   0  0  0  0  0  0  0  0  0  0  0  0
   -8.0473   25.0645  -30.4794 H   0  0  0  0  0  0  0  0  0  0  0  0
   -5.8890   25.2470  -30.4300 C   0  0  0  0  0  0  0  0  0  0  0  0
   -5.9102   26.2911  -30.0843 H   0  0  0  0  0  0  0  0  0  0  0  0
   -4.6660   24.6080  -30.6480 C   0  0  0  0  0  0  0  0  0  0  0  0
   -3.4780   25.2940  -30.4280 O   0  0  0  0  0  0  0  0  0  0  0  0
   -4.6380   23.2810  -31.0880 C   0  0  0  0  0  0  0  0  0  0  0  0
   -3.6720   22.7832  -31.2581 H   0  0  0  0  0  0  0  0  0  0  0  0
   -6.7650   20.1990  -31.6050 C   0  0  0  0  0  0  0  0  0  0  0  0
   -7.7369   20.3022  -31.1002 H   0  0  0  0  0  0  0  0  0  0  0  0
   -6.2390   19.0780  -32.2070 C   0  0  0  0  0  0  0  0  0  0  0  0
   -6.8500   17.9260  -32.2410 N   0  0  0  0  0  0  0  0  0  0  0  0
   -6.3260   16.6740  -32.7030 C   0  0  0  0  0  0  0  0  0  0  0  0
   -6.8600   16.0880  -33.8550 C   0  0  0  0  0  0  0  0  0  0  0  0
   -7.6772   16.5866  -34.3968 H   0  0  0  0  0  0  0  0  0  0  0  0
   -6.3570   14.8710  -34.3180 C   0  0  0  0  0  0  0  0  0  0  0  0
   -6.7622   14.4252  -35.2384 H   0  0  0  0  0  0  0  0  0  0  0  0
   -5.3410   14.2170  -33.6170 C   0  0  0  0  0  0  0  0  0  0  0  0
   -4.9339   13.2701  -34.0013 H   0  0  0  0  0  0  0  0  0  0  0  0
   -4.8350   14.7620  -32.4220 C   0  0  0  0  0  0  0  0  0  0  0  0
   -3.7530   14.0600  -31.6890 C   0  0  0  0  0  0  0  0  0  0  0  0
   -2.5770   14.0830  -32.1430 O   0  0  0  0  0  0  0  0  0  0  0  0
   -4.0100   13.3440  -30.4780 N   0  0  0  0  0  0  0  0  0  0  0  0
   -4.9800   13.1550  -30.1450 H   0  0  0  0  0  0  0  0  0  0  0  0
   -3.2180   12.9160  -29.9500 H   0  0  0  0  0  0  0  0  0  0  0  0
   -5.3500   15.9890  -31.9630 C   0  0  0  0  0  0  0  0  0  0  0  0
   -4.9845   16.4143  -31.0167 H   0  0  0  0  0  0  0  0  0  0  0  0
   -2.8010   18.4910  -33.3610 C   0  0  0  0  0  0  0  0  0  0  0  0
   -2.1520   19.1620  -32.1820 C   0  0  0  0  0  0  0  0  0  0  0  0
   -2.5590   18.7412  -31.2508 H   0  0  0  0  0  0  0  0  0  0  0  0
   -1.0655   18.9934  -32.2164 H   0  0  0  0  0  0  0  0  0  0  0  0
   -2.3567   20.2422  -32.2164 H   0  0  0  0  0  0  0  0  0  0  0  0
   -2.0250   17.7480  -34.2620 C   0  0  0  0  0  0  0  0  0  0  0  0
   -0.9348   17.6888  -34.1281 H   0  0  0  0  0  0  0  0  0  0  0  0
   -2.6330   17.0830  -35.3290 C   0  0  0  0  0  0  0  0  0  0  0  0
   -2.0263   16.5042  -36.0409 H   0  0  0  0  0  0  0  0  0  0  0  0
  1  2  1  0
  2  3  2  0
  3  4  1  0
  4  5  1  0
  5  6  1  0
  6  7  1  0
  7  8  1  0
  8  9  2  0
  9 10  1  0
  9 11  1  0
 11 12  1  0
 11 13  2  0
 13 14  1  0
 13 15  1  0
 15 16  1  0
 15 17  2  0
 17 18  1  0
  7 19  2  0
 19 20  1  0
 19 21  1  0
 21 22  2  0
 22 23  1  0
 23 24  2  0
 24 25  1  0
 24 26  1  0
 26 27  1  0
 26 28  2  0
 28 29  1  0
 28 30  1  0
 30 31  1  0
 31 32  2  0
 31 33  1  0
 33 34  1  0
 33 35  1  0
 30 36  2  0
 36 37  1  0
  4 38  2  0
 38 39  1  0
 39 40  1  0
 39 41  1  0
 39 42  1  0
 38 43  1  0
 43 44  1  0
 43 45  2  0
 45 46  1  0
 45  2  1  0
 21  5  1  0
 36 23  1  0
 17  8  1  0
M  CHG  2   6  -1  16  -1
M  END
>  <UniqueID>  (8) 
8

>  <SMILES>  (8) 
Cc1cccnc1-n1[n-]c(-c2cccc([O-])c2)c/c1=N/c1cccc(C(N)=O)c1

>  <Energy>  (8) 
100.65871993172807

>  <Genealogy>  (8) 
Cc1cccnc1-n1[n-]c(-c2cccc([O-])c2)cc1=Nc1cccc(C(N)=O)c1 (protonated)
Cc1cccnc1-n1[n-]c(-c2cccc([O-])c2)c/c1=N/c1cccc(C(N)=O)c1 (cis-trans isomerization)
Cc1cccnc1-n1[n-]c(-c2cccc([O-])c2)c/c1=N/c1cccc(C(N)=O)c1 (3D coordinates assigned)
Cc1cccnc1-n1[n-]c(-c2cccc([O-])c2)c/c1=N/c1cccc(C(N)=O)c1 (optimized conformer: 100.65871993172807 kcal/mol)

>  <smiles>  (8) 
Cc1cccnc1-n1[nH]c(-c2cccc(O)c2)cc1=Nc1cccc(C(N)=O)c1

>  <score_type>  (8) 
oracle

>  <origin>  (8) 
adgpu

>  <m_score__min__energy>  (8) 
-11.050000000000001

>  <m_primary>  (8) 
energy

$$$$
8:0
     RDKit          3D

 47 49  0  0  0  0  0  0  0  0999 V2000
   -5.8320   18.7630  -34.2290 C   0  0  0  0  0  0  0  0  0  0  0  0
   -6.8530   18.7520  -33.1730 N   0  0  0  0  0  0  0  0  0  0  0  0
   -7.2320   17.4690  -32.5670 C   0  0  0  0  0  0  0  0  0  0  0  0
   -7.4770   19.9880  -32.7370 C   0  0  0  0  0  0  0  0  0  0  0  0
   -8.8310   20.0140  -32.3430 C   0  0  0  0  0  0  0  0  0  0  0  0
   -9.4280   21.2040  -31.9210 C   0  0  0  0  0  0  0  0  0  0  0  0
   -8.6920   22.3880  -31.8840 C   0  0  0  0  0  0  0  0  0  0  0  0
   -7.3420   22.3910  -32.2780 C   0  0  0  0  0  0  0  0  0  0  0  0
   -6.5550   23.5550  -32.2700 O   0  0  0  0  0  0  0  0  0  0  0  0
   -6.4860   24.4990  -31.2000 C   0  0  0  0  0  0  0  0  0  0  0  0
   -5.3710   24.1450  -30.2510 C   0  0  0  0  0  0  0  0  0  0  0  0
   -5.5240   23.0690  -29.3630 C   0  0  0  0  0  0  0  0  0  0  0  0
   -4.5030   22.7450  -28.4680 C   0  0  0  0  0  0  0  0  0  0  0  0
   -3.3190   23.4880  -28.4570 C   0  0  0  0  0  0  0  0  0  0  0  0
   -3.1410   24.5510  -29.3490 C   0  0  0  0  0  0  0  0  0  0  0  0
   -1.9150   25.2940  -29.2980 N   0  0  0  0  0  0  0  0  0  0  0  0
   -0.8080   25.0530  -28.4170 C   0  0  0  0  0  0  0  0  0  0  0  0
    0.1850   24.3880  -28.8200 O   0  0  0  0  0  0  0  0  0  0  0  0
   -0.8550   25.5360  -27.0180 C   0  0  0  0  0  0  0  0  0  0  0  0
   -0.8860   26.9150  -26.7350 C   0  0  0  0  0  0  0  0  0  0  0  0
   -0.9280   27.3660  -25.4120 C   0  0  0  0  0  0  0  0  0  0  0  0
   -0.9380   26.4500  -24.3580 C   0  0  0  0  0  0  0  0  0  0  0  0
   -0.9070   25.0800  -24.6250 C   0  0  0  0  0  0  0  0  0  0  0  0
   -0.8650   24.6220  -25.9450 C   0  0  0  0  0  0  0  0  0  0  0  0
   -4.1850   24.8950  -30.2280 C   0  0  0  0  0  0  0  0  0  0  0  0
   -6.7470   21.1950  -32.6950 C   0  0  0  0  0  0  0  0  0  0  0  0
   -4.8316   18.7738  -33.7717 H   0  0  0  0  0  0  0  0  0  0  0  0
   -5.9402   17.8636  -34.8530 H   0  0  0  0  0  0  0  0  0  0  0  0
   -5.9596   19.6598  -34.8530 H   0  0  0  0  0  0  0  0  0  0  0  0
   -7.2054   17.5591  -31.4710 H   0  0  0  0  0  0  0  0  0  0  0  0
   -8.2486   17.1979  -32.8881 H   0  0  0  0  0  0  0  0  0  0  0  0
   -6.5259   16.6890  -32.8881 H   0  0  0  0  0  0  0  0  0  0  0  0
   -9.4230   19.0873  -32.3683 H   0  0  0  0  0  0  0  0  0  0  0  0
  -10.4849   21.2074  -31.6160 H   0  0  0  0  0  0  0  0  0  0  0  0
   -9.1679   23.3205  -31.5463 H   0  0  0  0  0  0  0  0  0  0  0  0
   -6.3036   25.5017  -31.6139 H   0  0  0  0  0  0  0  0  0  0  0  0
   -7.4385   24.4815  -30.6500 H   0  0  0  0  0  0  0  0  0  0  0  0
   -6.4521   22.4787  -29.3723 H   0  0  0  0  0  0  0  0  0  0  0  0
   -4.6303   21.9040  -27.7705 H   0  0  0  0  0  0  0  0  0  0  0  0
   -2.5220   23.2352  -27.7423 H   0  0  0  0  0  0  0  0  0  0  0  0
   -0.8771   27.6424  -27.5601 H   0  0  0  0  0  0  0  0  0  0  0  0
   -0.9532   28.4453  -25.2010 H   0  0  0  0  0  0  0  0  0  0  0  0
   -0.9703   26.8076  -23.3182 H   0  0  0  0  0  0  0  0  0  0  0  0
   -0.9157   24.3590  -23.7943 H   0  0  0  0  0  0  0  0  0  0  0  0
   -0.8396   23.5411  -26.1477 H   0  0  0  0  0  0  0  0  0  0  0  0
   -4.0706   25.7573  -30.9013 H   0  0  0  0  0  0  0  0  0  0  0  0
   -5.6890   21.1957  -32.9961 H   0  0  0  0  0  0  0  0  0  0  0  0
  1  2  1  0
  2  3  1  0
  2  4  1  0
  4  5  2  0
  5  6  1  0
  6  7  2  0
  7  8  1  0
  8  9  1  0
  9 10  1  0
 10 11  1  0
 11 12  2  0
 12 13  1  0
 13 14  2  0
 14 15  1  0
 15 16  1  0
 16 17  1  0
 17 18  2  0
 17 19  1  0
 19 20  2  0
 20 21  1  0
 21 22  2  0
 22 23  1  0
 23 24  2  0
 15 25  2  0
  8 26  2  0
 26  4  1  0
 25 11  1  0
 24 19  1  0
  1 27  1  0
  1 28  1  0
  1 29  1  0
  3 30  1  0
  3 31  1  0
  3 32  1  0
  5 33  1  0
  6 34  1  0
  7 35  1  0
 10 36  1  0
 10 37  1  0
 12 38  1  0
 13 39  1  0
 14 40  1  0
 20 41  1  0
 21 42  1  0
 22 43  1  0
 23 44  1  0
 24 45  1  0
 25 46  1  0
 26 47  1  0
M  CHG  1  16  -1
M  END
>  <UniqueID>  (9) 
9

>  <SMILES>  (9) 
CN(C)c1cccc(OCc2cccc([N-]C(=O)c3ccccc3)c2)c1

>  <Energy>  (9) 
54.69931077263035

>  <Genealogy>  (9) 
CN(C)c1cccc(OCc2cccc([N-]C(=O)c3ccccc3)c2)c1 (protonated)
CN(C)c1cccc(OCc2cccc([N-]C(=O)c3ccccc3)c2)c1 (3D coordinates assigned)
CN(C)c1cccc(OCc2cccc([N-]C(=O)c3ccccc3)c2)c1 (optimized conformer: 54.69931077263035 kcal/mol)

>  <smiles>  (9) 
CN(C)c1cccc(OCc2cccc(NC(=O)c3ccccc3)c2)c1

>  <score_type>  (9) 
oracle

>  <origin>  (9) 
adgpu

>  <m_score__min__energy>  (9) 
-10.699999999999999

>  <m_primary>  (9) 
energy

$$$$
9:0
     RDKit          3D

 39 41  0  0  0  0  0  0  0  0999 V2000
   -4.2280   22.0100  -33.6760 O   0  0  0  0  0  0  0  0  0  0  0  0
   -4.7280   20.9620  -33.1850 C   0  0  0  0  0  0  0  0  0  0  0  0
   -3.9270   19.7160  -33.1900 C   0  0  0  0  0  0  0  0  0  0  0  0
   -2.7250   19.6820  -32.4610 C   0  0  0  0  0  0  0  0  0  0  0  0
   -1.9500   18.5210  -32.4220 C   0  0  0  0  0  0  0  0  0  0  0  0
   -2.3600   17.3820  -33.1180 C   0  0  0  0  0  0  0  0  0  0  0  0
   -1.3840   15.9250  -33.0680 Cl  0  0  0  0  0  0  0  0  0  0  0  0
   -3.5410   17.4080  -33.8630 C   0  0  0  0  0  0  0  0  0  0  0  0
   -4.3270   18.5660  -33.9100 C   0  0  0  0  0  0  0  0  0  0  0  0
   -5.7550   18.5520  -34.9420 Cl  0  0  0  0  0  0  0  0  0  0  0  0
   -6.0630   21.0290  -32.5430 C   0  0  0  0  0  0  0  0  0  0  0  0
   -6.8340   19.8540  -32.4530 C   0  0  0  0  0  0  0  0  0  0  0  0
   -8.0700   19.8610  -31.8010 C   0  0  0  0  0  0  0  0  0  0  0  0
   -9.0130   18.3870  -31.6940 Cl  0  0  0  0  0  0  0  0  0  0  0  0
   -8.5500   21.0390  -31.2310 C   0  0  0  0  0  0  0  0  0  0  0  0
   -7.8030   22.2150  -31.3160 C   0  0  0  0  0  0  0  0  0  0  0  0
   -6.5570   22.2280  -31.9690 C   0  0  0  0  0  0  0  0  0  0  0  0
   -5.8280   23.4600  -32.1020 N   0  0  0  0  0  0  0  0  0  0  0  0
   -5.3860   24.4320  -30.7350 S   0  0  0  0  0  0  0  0  0  0  0  0
   -6.6330   24.9290  -30.0580 O   0  0  0  0  0  0  0  0  0  0  0  0
   -4.5770   25.6100  -31.2010 O   0  0  0  0  0  0  0  0  0  0  0  0
   -4.4070   23.4800  -29.6220 C   0  0  0  0  0  0  0  0  0  0  0  0
   -3.8730   22.2440  -30.0160 C   0  0  0  0  0  0  0  0  0  0  0  0
   -3.0800   21.5080  -29.1290 C   0  0  0  0  0  0  0  0  0  0  0  0
   -2.8190   22.0030  -27.8480 C   0  0  0  0  0  0  0  0  0  0  0  0
   -3.3500   23.2340  -27.4510 C   0  0  0  0  0  0  0  0  0  0  0  0
   -4.1450   23.9700  -28.3360 C   0  0  0  0  0  0  0  0  0  0  0  0
   -2.3922   20.5780  -31.9166 H   0  0  0  0  0  0  0  0  0  0  0  0
   -1.0153   18.5037  -31.8423 H   0  0  0  0  0  0  0  0  0  0  0  0
   -3.8563   16.5117  -34.4173 H   0  0  0  0  0  0  0  0  0  0  0  0
   -6.4596   18.9214  -32.9004 H   0  0  0  0  0  0  0  0  0  0  0  0
   -9.5203   21.0418  -30.7127 H   0  0  0  0  0  0  0  0  0  0  0  0
   -8.1925   23.1410  -30.8679 H   0  0  0  0  0  0  0  0  0  0  0  0
   -5.4680   23.7560  -33.0360 H   0  0  0  0  0  0  0  0  0  0  0  0
   -4.0780   21.8531  -31.0235 H   0  0  0  0  0  0  0  0  0  0  0  0
   -2.6617   20.5393  -29.4398 H   0  0  0  0  0  0  0  0  0  0  0  0
   -2.1952   21.4234  -27.1516 H   0  0  0  0  0  0  0  0  0  0  0  0
   -3.1427   23.6235  -26.4434 H   0  0  0  0  0  0  0  0  0  0  0  0
   -4.5657   24.9364  -28.0212 H   0  0  0  0  0  0  0  0  0  0  0  0
  1  2  2  0
  2  3  1  0
  3  4  2  0
  4  5  1  0
  5  6  2  0
  6  7  1  0
  6  8  1  0
  8  9  2  0
  9 10  1  0
  2 11  1  0
 11 12  2  0
 12 13  1  0
 13 14  1  0
 13 15  2  0
 15 16  1  0
 16 17  2  0
 17 18  1  0
 18 19  1  0
 19 20  2  0
 19 21  2  0
 19 22  1  0
 22 23  2  0
 23 24  1  0
 24 25  2  0
 25 26  1  0
 26 27  2  0
  9  3  1  0
 17 11  1  0
 27 22  1  0
  4 28  1  0
  5 29  1  0
  8 30  1  0
 12 31  1  0
 15 32  1  0
 16 33  1  0
 18 34  1  0
 23 35  1  0
 24 36  1  0
 25 37  1  0
 26 38  1  0
 27 39  1  0
M  END
>  <UniqueID>  (10) 
10

>  <SMILES>  (10) 
O=C(c1ccc(Cl)cc1Cl)c1cc(Cl)ccc1NS(=O)(=O)c1ccccc1

>  <Energy>  (10) 
55.76900899042593

>  <Genealogy>  (10) 
O=C(c1ccc(Cl)cc1Cl)c1cc(Cl)ccc1NS(=O)(=O)c1ccccc1 (3D coordinates assigned)
O=C(c1ccc(Cl)cc1Cl)c1cc(Cl)ccc1NS(=O)(=O)c1ccccc1 (optimized conformer: 55.76900899042593 kcal/mol)

>  <smiles>  (10) 
O=C(c1ccc(Cl)cc1Cl)c1cc(Cl)ccc1NS(=O)(=O)c1ccccc1

>  <score_type>  (10) 
oracle

>  <origin>  (10) 
adgpu

>  <m_score__min__energy>  (10) 
-10.140000000000001

>  <m_primary>  (10) 
energy

$$$$
10:0
     RDKit          3D

 38 41  0  0  0  0  0  0  0  0999 V2000
    2.9720   28.8500  -21.6610 C   0  0  0  0  0  0  0  0  0  0  0  0
    2.2420   27.9590  -22.5780 N   0  0  0  0  0  0  0  0  0  0  0  0
    3.1820   27.3050  -23.5230 C   0  0  0  0  0  0  0  0  0  0  0  0
    2.5210   26.8360  -24.8410 C   0  0  0  0  0  0  0  0  0  0  0  0
    1.0660   26.6830  -24.7100 N   0  0  0  0  0  0  0  0  0  0  0  0
    0.3780   25.6760  -25.4790 C   0  0  0  0  0  0  0  0  0  0  0  0
    0.4320   24.3120  -25.0850 C   0  0  0  0  0  0  0  0  0  0  0  0
   -0.2400   23.3210  -25.8260 C   0  0  0  0  0  0  0  0  0  0  0  0
   -0.9520   23.7260  -26.9490 C   0  0  0  0  0  0  0  0  0  0  0  0
   -1.6600   22.9590  -27.7910 N   0  0  0  0  0  0  0  0  0  0  0  0
   -2.1340   23.8660  -28.6860 C   0  0  0  0  0  0  0  0  0  0  0  0
   -2.9820   23.4820  -29.8200 C   0  0  0  0  0  0  0  0  0  0  0  0
   -3.1300   22.2580  -30.2590 O   0  0  0  0  0  0  0  0  0  0  0  0
   -3.9610   22.3250  -31.2770 C   0  0  0  0  0  0  0  0  0  0  0  0
   -4.3230   21.3170  -31.9380 O   0  0  0  0  0  0  0  0  0  0  0  0
   -4.3910   23.5760  -31.5500 N   0  0  0  0  0  0  0  0  0  0  0  0
   -3.7570   24.3010  -30.6110 C   0  0  0  0  0  0  0  0  0  0  0  0
   -3.8850   25.6790  -30.4830 O   0  0  0  0  0  0  0  0  0  0  0  0
   -1.7580   25.1490  -28.4430 N   0  0  0  0  0  0  0  0  0  0  0  0
   -1.0100   25.0270  -27.3360 C   0  0  0  0  0  0  0  0  0  0  0  0
   -0.3600   26.0370  -26.6320 C   0  0  0  0  0  0  0  0  0  0  0  0
    0.2800   27.7270  -24.0390 C   0  0  0  0  0  0  0  0  0  0  0  0
    1.1880   28.7070  -23.2890 C   0  0  0  0  0  0  0  0  0  0  0  0
    2.7444   28.5722  -20.6213 H   0  0  0  0  0  0  0  0  0  0  0  0
    4.0532   28.7525  -21.8383 H   0  0  0  0  0  0  0  0  0  0  0  0
    2.6637   29.8909  -21.8383 H   0  0  0  0  0  0  0  0  0  0  0  0
    1.7890   27.2160  -21.9930 H   0  0  0  0  0  0  0  0  0  0  0  0
    3.9785   28.0220  -23.7710 H   0  0  0  0  0  0  0  0  0  0  0  0
    3.5655   26.4049  -23.0202 H   0  0  0  0  0  0  0  0  0  0  0  0
    2.7296   27.5785  -25.6254 H   0  0  0  0  0  0  0  0  0  0  0  0
    2.9415   25.8525  -25.0976 H   0  0  0  0  0  0  0  0  0  0  0  0
    1.0055   24.0268  -24.1907 H   0  0  0  0  0  0  0  0  0  0  0  0
   -0.2028   22.2632  -25.5266 H   0  0  0  0  0  0  0  0  0  0  0  0
   -0.4181   27.0847  -26.9619 H   0  0  0  0  0  0  0  0  0  0  0  0
   -0.2999   28.2799  -24.7927 H   0  0  0  0  0  0  0  0  0  0  0  0
   -0.3898   27.2456  -23.3113 H   0  0  0  0  0  0  0  0  0  0  0  0
    1.6514   29.3996  -24.0070 H   0  0  0  0  0  0  0  0  0  0  0  0
    0.5900   29.2762  -22.5621 H   0  0  0  0  0  0  0  0  0  0  0  0
  1  2  1  0
  2  3  1  0
  3  4  1  0
  4  5  1  0
  5  6  1  0
  6  7  2  0
  7  8  1  0
  8  9  2  0
  9 10  1  0
 10 11  1  0
 11 12  1  0
 12 13  1  0
 13 14  1  0
 14 15  2  0
 14 16  1  0
 16 17  1  0
 17 18  1  0
 11 19  2  0
 19 20  1  0
 20 21  2  0
  5 22  1  0
 22 23  1  0
 23  2  1  0
 21  6  1  0
 20  9  1  0
 17 12  2  0
  1 24  1  0
  1 25  1  0
  1 26  1  0
  2 27  1  0
  3 28  1  0
  3 29  1  0
  4 30  1  0
  4 31  1  0
  7 32  1  0
  8 33  1  0
 21 34  1  0
 22 35  1  0
 22 36  1  0
 23 37  1  0
 23 38  1  0
M  CHG  4   2   1  10  -1  16  -1  18  -1
M  END
>  <UniqueID>  (11) 
11

>  <SMILES>  (11) 
C[NH+]1CCN(c2ccc3[n-]c(-c4oc(=O)[n-]c4[O-])nc3c2)CC1

>  <Energy>  (11) 
116.59172973983787

>  <Genealogy>  (11) 
C[NH+]1CCN(c2ccc3[n-]c(-c4oc(=O)[n-]c4[O-])nc3c2)CC1 (protonated)
C[NH+]1CCN(c2ccc3[n-]c(-c4oc(=O)[n-]c4[O-])nc3c2)CC1 (3D coordinates assigned)
C[NH+]1CCN(c2ccc3[n-]c(-c4oc(=O)[n-]c4[O-])nc3c2)CC1 (nonaromatic ring conformer: 116.59172973983787 kcal/mol)

>  <smiles>  (11) 
CN1CCN(c2ccc3[nH]c(-c4oc(=O)[nH]c4O)nc3c2)CC1

>  <score_type>  (11) 
oracle

>  <origin>  (11) 
adgpu

>  <m_score__min__energy>  (11) 
-10.85

>  <m_primary>  (11) 
energy

$$$$
11:0
     RDKit          3D

 43 45  0  0  0  0  0  0  0  0999 V2000
   -5.7410   25.7300  -30.4410 C   0  0  0  0  0  0  0  0  0  0  0  0
   -5.1070   24.5260  -29.8940 N   0  0  0  0  0  0  0  0  0  0  0  0
   -4.6140   24.5510  -28.5090 C   0  0  0  0  0  0  0  0  0  0  0  0
   -4.2630   23.1450  -27.9630 C   0  0  0  0  0  0  0  0  0  0  0  0
   -2.9210   22.6170  -28.3220 N   0  0  0  0  0  0  0  0  0  0  0  0
   -2.7510   21.1940  -27.9820 C   0  0  0  0  0  0  0  0  0  0  0  0
   -1.8130   23.4250  -27.7820 C   0  0  0  0  0  0  0  0  0  0  0  0
   -4.7640   23.4220  -30.7580 C   0  0  0  0  0  0  0  0  0  0  0  0
   -3.4810   23.2740  -31.2100 N   0  0  0  0  0  0  0  0  0  0  0  0
   -3.1100   22.2260  -32.0100 C   0  0  0  0  0  0  0  0  0  0  0  0
   -4.0240   21.2820  -32.3810 N   0  0  0  0  0  0  0  0  0  0  0  0
   -5.3020   21.4230  -31.9560 C   0  0  0  0  0  0  0  0  0  0  0  0
   -5.6890   22.4480  -31.1490 C   0  0  0  0  0  0  0  0  0  0  0  0
   -7.0100   22.1820  -30.8400 C   0  0  0  0  0  0  0  0  0  0  0  0
   -7.3710   21.0300  -31.4570 N   0  0  0  0  0  0  0  0  0  0  0  0
   -6.3290   20.5720  -32.1460 N   0  0  0  0  0  0  0  0  0  0  0  0
   -6.3470   19.3450  -32.9000 C   0  0  0  0  0  0  0  0  0  0  0  0
   -5.7480   19.2970  -34.1710 C   0  0  0  0  0  0  0  0  0  0  0  0
   -5.7480   18.1110  -34.9110 C   0  0  0  0  0  0  0  0  0  0  0  0
   -6.3360   16.9580  -34.3860 C   0  0  0  0  0  0  0  0  0  0  0  0
   -6.9180   16.9880  -33.1160 C   0  0  0  0  0  0  0  0  0  0  0  0
   -6.9220   18.1730  -32.3730 C   0  0  0  0  0  0  0  0  0  0  0  0
   -6.0797   26.3733  -29.6155 H   0  0  0  0  0  0  0  0  0  0  0  0
   -5.0147   26.2784  -31.0589 H   0  0  0  0  0  0  0  0  0  0  0  0
   -6.6041   25.4414  -31.0589 H   0  0  0  0  0  0  0  0  0  0  0  0
   -3.7103   25.1770  -28.4704 H   0  0  0  0  0  0  0  0  0  0  0  0
   -5.4219   24.9542  -27.8808 H   0  0  0  0  0  0  0  0  0  0  0  0
   -4.3246   23.1864  -26.8655 H   0  0  0  0  0  0  0  0  0  0  0  0
   -4.9839   22.4591  -28.4320 H   0  0  0  0  0  0  0  0  0  0  0  0
   -2.8540   22.6780  -29.3670 H   0  0  0  0  0  0  0  0  0  0  0  0
   -2.7371   21.0775  -26.8883 H   0  0  0  0  0  0  0  0  0  0  0  0
   -3.5863   20.6144  -28.4019 H   0  0  0  0  0  0  0  0  0  0  0  0
   -1.8027   20.8274  -28.4019 H   0  0  0  0  0  0  0  0  0  0  0  0
   -1.8444   23.4021  -26.6827 H   0  0  0  0  0  0  0  0  0  0  0  0
   -0.8546   23.0123  -28.1301 H   0  0  0  0  0  0  0  0  0  0  0  0
   -1.9130   24.4636  -28.1301 H   0  0  0  0  0  0  0  0  0  0  0  0
   -2.0690   22.1443  -32.3558 H   0  0  0  0  0  0  0  0  0  0  0  0
   -7.6583   22.8003  -30.2017 H   0  0  0  0  0  0  0  0  0  0  0  0
   -5.2758   20.1995  -34.5863 H   0  0  0  0  0  0  0  0  0  0  0  0
   -5.2843   18.0858  -35.9082 H   0  0  0  0  0  0  0  0  0  0  0  0
   -6.3409   16.0270  -34.9719 H   0  0  0  0  0  0  0  0  0  0  0  0
   -7.3740   16.0777  -32.6997 H   0  0  0  0  0  0  0  0  0  0  0  0
   -7.3768   18.1893  -31.3716 H   0  0  0  0  0  0  0  0  0  0  0  0
  1  2  1  0
  2  3  1  0
  3  4  1  0
  4  5  1  0
  5  6  1  0
  5  7  1  0
  2  8  1  0
  8  9  2  0
  9 10  1  0
 10 11  2  0
 11 12  1  0
 12 13  2  0
 13 14  1  0
 14 15  2  0
 15 16  1  0
 16 17  1  0
 17 18  2  0
 18 19  1  0
 19 20  2  0
 20 21  1  0
 21 22  2  0
 13  8  1  0
 22 17  1  0
 16 12  1  0
  1 23  1  0
  1 24  1  0
  1 25  1  0
  3 26  1  0
  3 27  1  0
  4 28  1  0
  4 29  1  0
  5 30  1  0
  6 31  1  0
  6 32  1  0
  6 33  1  0
  7 34  1  0
  7 35  1  0
  7 36  1  0
 10 37  1  0
 14 38  1  0
 18 39  1  0
 19 40  1  0
 20 41  1  0
 21 42  1  0
 22 43  1  0
M  CHG  1   5   1
M  END
>  <UniqueID>  (12) 
12

>  <SMILES>  (12) 
CN(CC[NH+](C)C)c1ncnc2c1cnn2-c1ccccc1

>  <Energy>  (12) 
95.88759871482772

>  <Genealogy>  (12) 
CN(CC[NH+](C)C)c1ncnc2c1cnn2-c1ccccc1 (protonated)
CN(CC[NH+](C)C)c1ncnc2c1cnn2-c1ccccc1 (3D coordinates assigned)
CN(CC[NH+](C)C)c1ncnc2c1cnn2-c1ccccc1 (optimized conformer: 95.88759871482772 kcal/mol)

>  <smiles>  (12) 
CN(C)CCN(C)c1ncnc2c1cnn2-c1ccccc1

>  <score_type>  (12) 
oracle

>  <origin>  (12) 
adgpu

>  <m_score__min__energy>  (12) 
-6.7400000000000002

>  <m_primary>  (12) 
energy

$$$$
12:0
     RDKit          3D

 42 44  0  0  0  0  0  0  0  0999 V2000
   -6.3540   23.5550  -32.4410 N   0  0  0  0  0  0  0  0  0  0  0  0
   -7.7720   23.0130  -31.6140 S   0  0  0  0  0  0  0  0  0  0  0  0
   -7.6130   23.2610  -30.1400 O   0  0  0  0  0  0  0  0  0  0  0  0
   -8.9650   23.7810  -32.1060 O   0  0  0  0  0  0  0  0  0  0  0  0
   -8.0090   21.2950  -31.9140 C   0  0  0  0  0  0  0  0  0  0  0  0
   -9.2630   20.8120  -32.3100 C   0  0  0  0  0  0  0  0  0  0  0  0
   -9.4500   19.4460  -32.5360 C   0  0  0  0  0  0  0  0  0  0  0  0
   -8.3880   18.5540  -32.3610 C   0  0  0  0  0  0  0  0  0  0  0  0
   -7.1300   19.0230  -31.9500 C   0  0  0  0  0  0  0  0  0  0  0  0
   -5.9810   18.0650  -31.7910 C   0  0  0  0  0  0  0  0  0  0  0  0
   -4.7780   18.5920  -32.4590 N   0  0  0  0  0  0  0  0  0  0  0  0
   -4.3410   17.9810  -33.6020 C   0  0  0  0  0  0  0  0  0  0  0  0
   -3.2270   18.4600  -34.2820 C   0  0  0  0  0  0  0  0  0  0  0  0
   -2.5550   19.5770  -33.8010 C   0  0  0  0  0  0  0  0  0  0  0  0
   -2.9960   20.2260  -32.6370 C   0  0  0  0  0  0  0  0  0  0  0  0
   -2.2650   21.4270  -32.1440 C   0  0  0  0  0  0  0  0  0  0  0  0
   -1.0600   21.3310  -31.7860 O   0  0  0  0  0  0  0  0  0  0  0  0
   -2.9660   22.6740  -31.9920 N   0  0  0  0  0  0  0  0  0  0  0  0
   -3.5430   23.1720  -30.9320 C   0  0  0  0  0  0  0  0  0  0  0  0
   -3.4500   22.5800  -29.6530 C   0  0  0  0  0  0  0  0  0  0  0  0
   -4.0900   23.1850  -28.5690 C   0  0  0  0  0  0  0  0  0  0  0  0
   -4.8040   24.3690  -28.7510 C   0  0  0  0  0  0  0  0  0  0  0  0
   -4.8600   24.9400  -30.0220 C   0  0  0  0  0  0  0  0  0  0  0  0
   -4.2340   24.3380  -31.0670 N   0  0  0  0  0  0  0  0  0  0  0  0
   -4.1330   19.7040  -31.9710 C   0  0  0  0  0  0  0  0  0  0  0  0
   -4.5550   20.2610  -30.9190 O   0  0  0  0  0  0  0  0  0  0  0  0
   -6.9470   20.3990  -31.7310 C   0  0  0  0  0  0  0  0  0  0  0  0
   -5.5650   22.9500  -32.1220 H   0  0  0  0  0  0  0  0  0  0  0  0
   -6.1520   24.5220  -32.0990 H   0  0  0  0  0  0  0  0  0  0  0  0
  -10.1026   21.5101  -32.4434 H   0  0  0  0  0  0  0  0  0  0  0  0
  -10.4348   19.0717  -32.8523 H   0  0  0  0  0  0  0  0  0  0  0  0
   -8.5385   17.4802  -32.5461 H   0  0  0  0  0  0  0  0  0  0  0  0
   -5.7699   17.9263  -30.7204 H   0  0  0  0  0  0  0  0  0  0  0  0
   -6.2520   17.1028  -32.2500 H   0  0  0  0  0  0  0  0  0  0  0  0
   -4.8768   17.1010  -33.9874 H   0  0  0  0  0  0  0  0  0  0  0  0
   -2.8793   17.9571  -35.1964 H   0  0  0  0  0  0  0  0  0  0  0  0
   -1.6714   19.9553  -34.3360 H   0  0  0  0  0  0  0  0  0  0  0  0
   -2.8786   21.6507  -29.5119 H   0  0  0  0  0  0  0  0  0  0  0  0
   -4.0308   22.7271  -27.5706 H   0  0  0  0  0  0  0  0  0  0  0  0
   -5.3165   24.8464  -27.9028 H   0  0  0  0  0  0  0  0  0  0  0  0
   -5.4115   25.8787  -30.1788 H   0  0  0  0  0  0  0  0  0  0  0  0
   -5.9633   20.7755  -31.4137 H   0  0  0  0  0  0  0  0  0  0  0  0
  1  2  1  0
  2  3  2  0
  2  4  2  0
  2  5  1  0
  5  6  2  0
  6  7  1  0
  7  8  2  0
  8  9  1  0
  9 10  1  0
 10 11  1  0
 11 12  1  0
 12 13  2  0
 13 14  1  0
 14 15  2  0
 15 16  1  0
 16 17  2  0
 16 18  1  0
 18 19  2  3
 19 20  1  0
 20 21  2  0
 21 22  1  0
 22 23  2  0
 23 24  1  0
 15 25  1  0
 25 26  2  0
  9 27  2  0
 27  5  1  0
 25 11  1  0
 24 19  1  0
  1 28  1  0
  1 29  1  0
  6 30  1  0
  7 31  1  0
  8 32  1  0
 10 33  1  0
 10 34  1  0
 12 35  1  0
 13 36  1  0
 14 37  1  0
 20 38  1  0
 21 39  1  0
 22 40  1  0
 23 41  1  0
 27 42  1  0
M  CHG  1  24  -1
M  END
>  <UniqueID>  (13) 
13

>  <SMILES>  (13) 
NS(=O)(=O)c1cccc(Cn2cccc(C(=O)N=c3cccc[n-]3)c2=O)c1

>  <Energy>  (13) 
56.00428744070457

>  <Genealogy>  (13) 
NS(=O)(=O)c1cccc(Cn2cccc(C(=O)N=c3cccc[n-]3)c2=O)c1 (protonated)
NS(=O)(=O)c1cccc(Cn2cccc(C(=O)N=c3cccc[n-]3)c2=O)c1 (3D coordinates assigned)
NS(=O)(=O)c1cccc(Cn2cccc(C(=O)N=c3cccc[n-]3)c2=O)c1 (optimized conformer: 56.00428744070457 kcal/mol)

>  <smiles>  (13) 
NS(=O)(=O)c1cccc(Cn2cccc(C(=O)N=c3cccc[nH]3)c2=O)c1

>  <score_type>  (13) 
oracle

>  <origin>  (13) 
adgpu

>  <m_score__min__energy>  (13) 
-10.44

>  <m_primary>  (13) 
energy

$$$$
13:0
     RDKit          3D

 51 53  0  0  0  0  0  0  0  0999 V2000
   -2.7270   19.6070  -27.0570 C   0  0  0  0  0  0  0  0  0  0  0  0
   -2.2600   20.9520  -27.0540 O   0  0  0  0  0  0  0  0  0  0  0  0
   -2.7090   21.9480  -27.9350 C   0  0  0  0  0  0  0  0  0  0  0  0
   -3.2680   23.1560  -27.4850 C   0  0  0  0  0  0  0  0  0  0  0  0
   -3.7130   24.1120  -28.4000 C   0  0  0  0  0  0  0  0  0  0  0  0
   -3.5920   23.8850  -29.7830 C   0  0  0  0  0  0  0  0  0  0  0  0
   -4.0300   24.8220  -30.7330 O   0  0  0  0  0  0  0  0  0  0  0  0
   -5.3660   25.3010  -30.8370 C   0  0  0  0  0  0  0  0  0  0  0  0
   -3.0110   22.6900  -30.2390 C   0  0  0  0  0  0  0  0  0  0  0  0
   -2.9170   22.4720  -31.6550 N   0  0  0  0  0  0  0  0  0  0  0  0
   -2.0420   21.5630  -32.3400 C   0  0  0  0  0  0  0  0  0  0  0  0
   -0.8710   21.9160  -32.6420 O   0  0  0  0  0  0  0  0  0  0  0  0
   -2.5460   20.2330  -32.7570 C   0  0  0  0  0  0  0  0  0  0  0  0
   -1.6650   19.1470  -32.9050 C   0  0  0  0  0  0  0  0  0  0  0  0
   -2.1420   17.9020  -33.3230 C   0  0  0  0  0  0  0  0  0  0  0  0
   -3.4980   17.7270  -33.6030 C   0  0  0  0  0  0  0  0  0  0  0  0
   -4.3910   18.7960  -33.4570 C   0  0  0  0  0  0  0  0  0  0  0  0
   -6.0990   18.5750  -33.8320 S   0  0  0  0  0  0  0  0  0  0  0  0
   -6.3510   17.1550  -34.2590 O   0  0  0  0  0  0  0  0  0  0  0  0
   -6.4860   19.4750  -34.9710 O   0  0  0  0  0  0  0  0  0  0  0  0
   -7.0680   18.9490  -32.4360 N   0  0  0  0  0  0  0  0  0  0  0  0
   -7.3610   17.8960  -31.4630 C   0  0  0  0  0  0  0  0  0  0  0  0
   -7.5900   20.2760  -32.2430 C   0  0  0  0  0  0  0  0  0  0  0  0
   -6.7290   21.3860  -32.2400 C   0  0  0  0  0  0  0  0  0  0  0  0
   -7.2360   22.6750  -32.0520 C   0  0  0  0  0  0  0  0  0  0  0  0
   -8.6070   22.8680  -31.8700 C   0  0  0  0  0  0  0  0  0  0  0  0
   -9.4740   21.7720  -31.8800 C   0  0  0  0  0  0  0  0  0  0  0  0
   -8.9710   20.4810  -32.0680 C   0  0  0  0  0  0  0  0  0  0  0  0
   -3.9150   20.0410  -33.0240 C   0  0  0  0  0  0  0  0  0  0  0  0
   -2.5950   21.7190  -29.3110 C   0  0  0  0  0  0  0  0  0  0  0  0
   -2.8480   19.2586  -26.0207 H   0  0  0  0  0  0  0  0  0  0  0  0
   -3.6954   19.5562  -27.5763 H   0  0  0  0  0  0  0  0  0  0  0  0
   -1.9985   18.9671  -27.5763 H   0  0  0  0  0  0  0  0  0  0  0  0
   -3.3555   23.3496  -26.4057 H   0  0  0  0  0  0  0  0  0  0  0  0
   -4.1611   25.0488  -28.0371 H   0  0  0  0  0  0  0  0  0  0  0  0
   -5.7816   25.4500  -29.8295 H   0  0  0  0  0  0  0  0  0  0  0  0
   -5.3714   26.2571  -31.3810 H   0  0  0  0  0  0  0  0  0  0  0  0
   -5.9777   24.5662  -31.3810 H   0  0  0  0  0  0  0  0  0  0  0  0
   -0.5942   19.2784  -32.6905 H   0  0  0  0  0  0  0  0  0  0  0  0
   -1.4464   17.0569  -33.4318 H   0  0  0  0  0  0  0  0  0  0  0  0
   -3.8665   16.7466  -33.9393 H   0  0  0  0  0  0  0  0  0  0  0  0
   -7.2496   18.2965  -30.4446 H   0  0  0  0  0  0  0  0  0  0  0  0
   -8.3921   17.5407  -31.6065 H   0  0  0  0  0  0  0  0  0  0  0  0
   -6.6616   17.0592  -31.6065 H   0  0  0  0  0  0  0  0  0  0  0  0
   -5.6487   21.2398  -32.3866 H   0  0  0  0  0  0  0  0  0  0  0  0
   -6.5543   23.5383  -32.0474 H   0  0  0  0  0  0  0  0  0  0  0  0
   -9.0044   23.8825  -31.7188 H   0  0  0  0  0  0  0  0  0  0  0  0
  -10.5542   21.9253  -31.7397 H   0  0  0  0  0  0  0  0  0  0  0  0
   -9.6579   19.6219  -32.0791 H   0  0  0  0  0  0  0  0  0  0  0  0
   -4.6180   20.8766  -32.8914 H   0  0  0  0  0  0  0  0  0  0  0  0
   -2.1750   20.7681  -29.6707 H   0  0  0  0  0  0  0  0  0  0  0  0
  1  2  1  0
  2  3  1  0
  3  4  2  0
  4  5  1  0
  5  6  2  0
  6  7  1  0
  7  8  1  0
  6  9  1  0
  9 10  1  0
 10 11  1  0
 11 12  2  0
 11 13  1  0
 13 14  2  0
 14 15  1  0
 15 16  2  0
 16 17  1  0
 17 18  1  0
 18 19  2  0
 18 20  2  0
 18 21  1  0
 21 22  1  0
 21 23  1  0
 23 24  2  0
 24 25  1  0
 25 26  2  0
 26 27  1  0
 27 28  2  0
 17 29  2  0
  9 30  2  0
 30  3  1  0
 29 13  1  0
 28 23  1  0
  1 31  1  0
  1 32  1  0
  1 33  1  0
  4 34  1  0
  5 35  1  0
  8 36  1  0
  8 37  1  0
  8 38  1  0
 14 39  1  0
 15 40  1  0
 16 41  1  0
 22 42  1  0
 22 43  1  0
 22 44  1  0
 24 45  1  0
 25 46  1  0
 26 47  1  0
 27 48  1  0
 28 49  1  0
 29 50  1  0
 30 51  1  0
M  CHG  1  10  -1
M  END
>  <UniqueID>  (14) 
14

>  <SMILES>  (14) 
COc1ccc(OC)c([N-]C(=O)c2cccc(S(=O)(=O)N(C)c3ccccc3)c2)c1

>  <Energy>  (14) 
60.690800032999576

>  <Genealogy>  (14) 
COc1ccc(OC)c([N-]C(=O)c2cccc(S(=O)(=O)N(C)c3ccccc3)c2)c1 (protonated)
COc1ccc(OC)c([N-]C(=O)c2cccc(S(=O)(=O)N(C)c3ccccc3)c2)c1 (3D coordinates assigned)
COc1ccc(OC)c([N-]C(=O)c2cccc(S(=O)(=O)N(C)c3ccccc3)c2)c1 (optimized conformer: 60.690800032999576 kcal/mol)

>  <smiles>  (14) 
COc1ccc(OC)c(NC(=O)c2cccc(S(=O)(=O)N(C)c3ccccc3)c2)c1

>  <score_type>  (14) 
oracle

>  <origin>  (14) 
adgpu

>  <m_score__min__energy>  (14) 
-11.09

>  <m_primary>  (14) 
energy

$$$$
14:0
     RDKit          3D

 58 61  0  0  0  0  0  0  0  0999 V2000
   -7.1550   25.7880  -30.8781 H   0  0  0  0  0  0  0  0  0  0  0  0
   -6.3450   25.0470  -30.8090 C   0  0  0  0  0  0  0  0  0  0  0  0
   -5.2080   25.3490  -30.1330 N   0  0  0  0  0  0  0  0  0  0  0  0
   -4.1970   24.4490  -30.0210 C   0  0  0  0  0  0  0  0  0  0  0  0
   -3.1130   24.7880  -29.3860 N   0  0  0  0  0  0  0  0  0  0  0  0
   -1.9750   23.9450  -29.1360 C   0  0  0  0  0  0  0  0  0  0  0  0
   -1.2180   24.1530  -27.9770 C   0  0  0  0  0  0  0  0  0  0  0  0
   -1.5060   24.9446  -27.2696 H   0  0  0  0  0  0  0  0  0  0  0  0
   -0.0990   23.3600  -27.7150 C   0  0  0  0  0  0  0  0  0  0  0  0
    0.5029   23.5416  -26.8123 H   0  0  0  0  0  0  0  0  0  0  0  0
    0.2580   22.3370  -28.5960 C   0  0  0  0  0  0  0  0  0  0  0  0
    1.1561   21.7336  -28.3976 H   0  0  0  0  0  0  0  0  0  0  0  0
   -0.5210   22.0740  -29.7320 C   0  0  0  0  0  0  0  0  0  0  0  0
   -0.1240   21.0290  -30.6360 N   0  0  0  0  0  0  0  0  0  0  0  0
    0.8980   20.8430  -30.7570 H   0  0  0  0  0  0  0  0  0  0  0  0
   -1.0450   20.1820  -31.3400 C   0  0  0  0  0  0  0  0  0  0  0  0
   -2.2430   20.0760  -30.9590 O   0  0  0  0  0  0  0  0  0  0  0  0
   -0.5760   19.3920  -32.5180 C   0  0  0  0  0  0  0  0  0  0  0  0
   -0.0434   18.4949  -32.1693 H   0  0  0  0  0  0  0  0  0  0  0  0
   -1.4419   19.0912  -33.1260 H   0  0  0  0  0  0  0  0  0  0  0  0
    0.1027   20.0082  -33.1260 H   0  0  0  0  0  0  0  0  0  0  0  0
   -1.6400   22.8840  -29.9970 C   0  0  0  0  0  0  0  0  0  0  0  0
   -2.2584   22.6862  -30.8850 H   0  0  0  0  0  0  0  0  0  0  0  0
   -4.3170   23.2290  -30.6140 N   0  0  0  0  0  0  0  0  0  0  0  0
   -5.4320   22.8800  -31.3070 C   0  0  0  0  0  0  0  0  0  0  0  0
   -5.4910   21.5490  -31.9460 C   0  0  0  0  0  0  0  0  0  0  0  0
   -6.5950   20.7240  -31.6820 C   0  0  0  0  0  0  0  0  0  0  0  0
   -7.3770   21.0656  -30.9879 H   0  0  0  0  0  0  0  0  0  0  0  0
   -6.7100   19.4740  -32.2920 C   0  0  0  0  0  0  0  0  0  0  0  0
   -7.5784   18.8360  -32.0712 H   0  0  0  0  0  0  0  0  0  0  0  0
   -5.7250   19.0260  -33.1850 C   0  0  0  0  0  0  0  0  0  0  0  0
   -5.8570   17.7460  -33.8330 N   0  0  0  0  0  0  0  0  0  0  0  0
   -4.9740   17.3560  -34.9360 C   0  0  0  0  0  0  0  0  0  0  0  0
   -5.5687   17.2417  -35.8543 H   0  0  0  0  0  0  0  0  0  0  0  0
   -4.2107   18.1354  -35.0769 H   0  0  0  0  0  0  0  0  0  0  0  0
   -4.2750   16.0210  -34.6130 C   0  0  0  0  0  0  0  0  0  0  0  0
   -4.0394   15.5155  -35.5611 H   0  0  0  0  0  0  0  0  0  0  0  0
   -3.3755   16.2655  -34.0289 H   0  0  0  0  0  0  0  0  0  0  0  0
   -5.0910   15.0980  -33.7810 N   0  0  0  0  0  0  0  0  0  0  0  0
   -4.6140   15.0470  -32.3880 C   0  0  0  0  0  0  0  0  0  0  0  0
   -5.4703   15.1386  -31.7036 H   0  0  0  0  0  0  0  0  0  0  0  0
   -4.1033   14.0891  -32.2102 H   0  0  0  0  0  0  0  0  0  0  0  0
   -3.9123   15.8752  -32.2102 H   0  0  0  0  0  0  0  0  0  0  0  0
   -6.5430   15.3690  -33.8540 C   0  0  0  0  0  0  0  0  0  0  0  0
   -6.8762   15.2452  -34.8950 H   0  0  0  0  0  0  0  0  0  0  0  0
   -7.0565   14.6608  -33.1871 H   0  0  0  0  0  0  0  0  0  0  0  0
   -6.8830   16.7950  -33.3890 C   0  0  0  0  0  0  0  0  0  0  0  0
   -7.8550   17.0899  -33.8111 H   0  0  0  0  0  0  0  0  0  0  0  0
   -6.9235   16.8074  -32.2898 H   0  0  0  0  0  0  0  0  0  0  0  0
   -4.6270   19.8550  -33.4630 C   0  0  0  0  0  0  0  0  0  0  0  0
   -3.8629   19.5197  -34.1798 H   0  0  0  0  0  0  0  0  0  0  0  0
   -4.4890   21.1060  -32.8400 C   0  0  0  0  0  0  0  0  0  0  0  0
   -3.2960   21.9580  -33.1840 C   0  0  0  0  0  0  0  0  0  0  0  0
   -2.8127   22.3032  -32.2581 H   0  0  0  0  0  0  0  0  0  0  0  0
   -2.5799   21.3657  -33.7726 H   0  0  0  0  0  0  0  0  0  0  0  0
   -3.6239   22.8275  -33.7726 H   0  0  0  0  0  0  0  0  0  0  0  0
   -6.4900   23.7990  -31.4170 C   0  0  0  0  0  0  0  0  0  0  0  0
   -8.1240   23.3860  -32.3300 Br  0  0  0  0  0  0  0  0  0  0  0  0
  1  2  1  0
  2  3  2  0
  3  4  1  0
  4  5  2  0
  5  6  1  0
  6  7  2  0
  7  8  1  0
  7  9  1  0
  9 10  1  0
  9 11  2  0
 11 12  1  0
 11 13  1  0
 13 14  1  0
 14 15  1  0
 14 16  1  0
 16 17  2  0
 16 18  1  0
 18 19  1  0
 18 20  1  0
 18 21  1  0
 13 22  2  0
 22 23  1  0
  4 24  1  0
 24 25  1  0
 25 26  1  0
 26 27  2  0
 27 28  1  0
 27 29  1  0
 29 30  1  0
 29 31  2  0
 31 32  1  0
 32 33  1  0
 33 34  1  0
 33 35  1  0
 33 36  1  0
 36 37  1  0
 36 38  1  0
 36 39  1  0
 39 40  1  0
 40 41  1  0
 40 42  1  0
 40 43  1  0
 39 44  1  0
 44 45  1  0
 44 46  1  0
 44 47  1  0
 47 48  1  0
 47 49  1  0
 31 50  1  0
 50 51  1  0
 50 52  2  0
 52 53  1  0
 53 54  1  0
 53 55  1  0
 53 56  1  0
 25 57  2  0
 57 58  1  0
 57  2  1  0
 22  6  1  0
 52 26  1  0
 47 32  1  0
M  CHG  1  24  -1
M  END
>  <UniqueID>  (15) 
15

>  <SMILES>  (15) 
CC(=O)Nc1cccc(/N=c2/ncc(Br)c(-c3ccc(N4CCN(C)CC4)cc3C)[n-]2)c1

>  <Energy>  (15) 
87.53796736952432

>  <Genealogy>  (15) 
CC(=O)Nc1cccc(N=c2ncc(Br)c(-c3ccc(N4CCN(C)CC4)cc3C)[n-]2)c1 (protonated)
CC(=O)Nc1cccc(/N=c2/ncc(Br)c(-c3ccc(N4CCN(C)CC4)cc3C)[n-]2)c1 (cis-trans isomerization)
CC(=O)Nc1cccc(/N=c2/ncc(Br)c(-c3ccc(N4CCN(C)CC4)cc3C)[n-]2)c1 (3D coordinates assigned)
CC(=O)Nc1cccc(/N=c2/ncc(Br)c(-c3ccc(N4CCN(C)CC4)cc3C)[n-]2)c1 (nonaromatic ring conformer: 87.53796736952432 kcal/mol)

>  <smiles>  (15) 
CC(=O)Nc1cccc(N=c2ncc(Br)c(-c3ccc(N4CCN(C)CC4)cc3C)[nH]2)c1

>  <score_type>  (15) 
oracle

>  <origin>  (15) 
adgpu

>  <m_score__min__energy>  (15) 
-10.48

>  <m_primary>  (15) 
energy

$$$$
15:0
     RDKit          3D

 37 39  0  0  0  0  0  0  0  0999 V2000
   -3.8450   25.1760  -30.8350 N   0  0  0  0  0  0  0  0  0  0  0  0
   -5.2480   24.9900  -29.8440 S   0  0  0  0  0  0  0  0  0  0  0  0
   -5.9530   26.3120  -29.7230 O   0  0  0  0  0  0  0  0  0  0  0  0
   -4.8370   24.5350  -28.4720 O   0  0  0  0  0  0  0  0  0  0  0  0
   -6.3270   23.8020  -30.5680 C   0  0  0  0  0  0  0  0  0  0  0  0
   -7.2040   23.0660  -29.7630 C   0  0  0  0  0  0  0  0  0  0  0  0
   -8.0510   22.1110  -30.3330 C   0  0  0  0  0  0  0  0  0  0  0  0
   -8.0300   21.8840  -31.7190 C   0  0  0  0  0  0  0  0  0  0  0  0
   -8.9140   20.8350  -32.3370 C   0  0  0  0  0  0  0  0  0  0  0  0
   -8.1070   19.8720  -33.0800 N   0  0  0  0  0  0  0  0  0  0  0  0
   -7.4860   18.7410  -32.4460 C   0  0  0  0  0  0  0  0  0  0  0  0
   -7.8240   18.4230  -31.2720 O   0  0  0  0  0  0  0  0  0  0  0  0
   -6.4670   17.9320  -33.1550 C   0  0  0  0  0  0  0  0  0  0  0  0
   -6.7710   16.6180  -33.5630 C   0  0  0  0  0  0  0  0  0  0  0  0
   -5.8180   15.8380  -34.2260 C   0  0  0  0  0  0  0  0  0  0  0  0
   -4.5470   16.3570  -34.4800 C   0  0  0  0  0  0  0  0  0  0  0  0
   -3.6090   15.6120  -35.1210 N   0  0  0  0  0  0  0  0  0  0  0  0
   -2.3660   16.1050  -35.3680 C   0  0  0  0  0  0  0  0  0  0  0  0
   -1.5170   15.3910  -35.9640 O   0  0  0  0  0  0  0  0  0  0  0  0
   -2.0450   17.4060  -34.9540 C   0  0  0  0  0  0  0  0  0  0  0  0
   -0.9010   17.8860  -35.1700 O   0  0  0  0  0  0  0  0  0  0  0  0
   -2.9810   18.1540  -34.3130 N   0  0  0  0  0  0  0  0  0  0  0  0
   -4.2260   17.6650  -34.0660 C   0  0  0  0  0  0  0  0  0  0  0  0
   -5.1800   18.4460  -33.4050 C   0  0  0  0  0  0  0  0  0  0  0  0
   -7.1390   22.6130  -32.5210 C   0  0  0  0  0  0  0  0  0  0  0  0
   -6.2930   23.5670  -31.9490 C   0  0  0  0  0  0  0  0  0  0  0  0
   -3.8680   26.1480  -31.2160 H   0  0  0  0  0  0  0  0  0  0  0  0
   -7.2269   23.2398  -28.6771 H   0  0  0  0  0  0  0  0  0  0  0  0
   -8.7364   21.5352  -29.6937 H   0  0  0  0  0  0  0  0  0  0  0  0
   -9.4661   20.3109  -31.5430 H   0  0  0  0  0  0  0  0  0  0  0  0
   -9.6201   21.3205  -33.0267 H   0  0  0  0  0  0  0  0  0  0  0  0
   -8.0220   19.9990  -34.1130 H   0  0  0  0  0  0  0  0  0  0  0  0
   -7.7682   16.2014  -33.3579 H   0  0  0  0  0  0  0  0  0  0  0  0
   -6.0697   14.8164  -34.5471 H   0  0  0  0  0  0  0  0  0  0  0  0
   -4.9240   19.4650  -33.0794 H   0  0  0  0  0  0  0  0  0  0  0  0
   -7.1062   22.4327  -33.6056 H   0  0  0  0  0  0  0  0  0  0  0  0
   -5.5982   24.1352  -32.5849 H   0  0  0  0  0  0  0  0  0  0  0  0
  1  2  1  0
  2  3  2  0
  2  4  2  0
  2  5  1  0
  5  6  2  0
  6  7  1  0
  7  8  2  0
  8  9  1  0
  9 10  1  0
 10 11  1  0
 11 12  2  0
 11 13  1  0
 13 14  2  0
 14 15  1  0
 15 16  2  0
 16 17  1  0
 17 18  1  0
 18 19  2  0
 18 20  1  0
 20 21  2  0
 20 22  1  0
 22 23  1  0
 23 24  2  0
  8 25  1  0
 25 26  2  0
 26  5  1  0
 24 13  1  0
 23 16  1  0
  1 27  1  0
  6 28  1  0
  7 29  1  0
  9 30  1  0
  9 31  1  0
 10 32  1  0
 14 33  1  0
 15 34  1  0
 24 35  1  0
 25 36  1  0
 26 37  1  0
M  CHG  3   1  -1  17  -1  22  -1
M  END
>  <UniqueID>  (16) 
16

>  <SMILES>  (16) 
[NH-]S(=O)(=O)c1ccc(CNC(=O)c2ccc3[n-]c(=O)c(=O)[n-]c3c2)cc1

>  <Energy>  (16) 
44.06416130675628

>  <Genealogy>  (16) 
[NH-]S(=O)(=O)c1ccc(CNC(=O)c2ccc3[n-]c(=O)c(=O)[n-]c3c2)cc1 (protonated)
[NH-]S(=O)(=O)c1ccc(CNC(=O)c2ccc3[n-]c(=O)c(=O)[n-]c3c2)cc1 (3D coordinates assigned)
[NH-]S(=O)(=O)c1ccc(CNC(=O)c2ccc3[n-]c(=O)c(=O)[n-]c3c2)cc1 (optimized conformer: 44.06416130675628 kcal/mol)

>  <smiles>  (16) 
NS(=O)(=O)c1ccc(CNC(=O)c2ccc3[nH]c(=O)c(=O)[nH]c3c2)cc1

>  <score_type>  (16) 
oracle

>  <origin>  (16) 
adgpu

>  <m_score__min__energy>  (16) 
-11.09

>  <m_primary>  (16) 
energy

$$$$
16:0
     RDKit          3D

 44 46  0  0  0  0  0  0  0  0999 V2000
   -3.4830   21.6370  -32.4130 C   0  0  0  0  0  0  0  0  0  0  0  0
   -2.6140   21.9430  -31.1980 C   0  0  0  0  0  0  0  0  0  0  0  0
   -2.7200   23.3200  -30.8340 O   0  0  0  0  0  0  0  0  0  0  0  0
   -2.7030   23.8280  -29.5230 C   0  0  0  0  0  0  0  0  0  0  0  0
   -1.5590   24.4380  -28.9670 C   0  0  0  0  0  0  0  0  0  0  0  0
   -1.5840   24.9290  -27.6610 C   0  0  0  0  0  0  0  0  0  0  0  0
   -2.7400   24.8080  -26.8900 C   0  0  0  0  0  0  0  0  0  0  0  0
   -3.8770   24.2030  -27.4250 C   0  0  0  0  0  0  0  0  0  0  0  0
   -3.8730   23.7230  -28.7470 C   0  0  0  0  0  0  0  0  0  0  0  0
   -5.0330   23.0720  -29.2950 N   0  0  0  0  0  0  0  0  0  0  0  0
   -5.6390   23.4480  -30.5460 C   0  0  0  0  0  0  0  0  0  0  0  0
   -5.1270   24.3680  -31.2420 O   0  0  0  0  0  0  0  0  0  0  0  0
   -6.8570   22.7670  -31.0460 C   0  0  0  0  0  0  0  0  0  0  0  0
   -7.9630   23.4980  -31.5180 C   0  0  0  0  0  0  0  0  0  0  0  0
   -9.1040   22.8340  -31.9800 C   0  0  0  0  0  0  0  0  0  0  0  0
   -9.1600   21.4390  -31.9660 C   0  0  0  0  0  0  0  0  0  0  0  0
  -10.2750   20.8090  -32.4140 F   0  0  0  0  0  0  0  0  0  0  0  0
   -8.0750   20.7000  -31.4780 C   0  0  0  0  0  0  0  0  0  0  0  0
   -8.1410   18.9070  -31.4390 S   0  0  0  0  0  0  0  0  0  0  0  0
   -6.9130   18.7410  -32.7360 C   0  0  0  0  0  0  0  0  0  0  0  0
   -6.8660   19.5640  -33.8050 N   0  0  0  0  0  0  0  0  0  0  0  0
   -5.8340   19.0940  -34.5360 C   0  0  0  0  0  0  0  0  0  0  0  0
   -5.2770   18.0040  -33.9060 C   0  0  0  0  0  0  0  0  0  0  0  0
   -5.9500   17.7950  -32.7640 N   0  0  0  0  0  0  0  0  0  0  0  0
   -5.7430   16.6930  -31.8300 C   0  0  0  0  0  0  0  0  0  0  0  0
   -6.9280   21.3620  -31.0250 C   0  0  0  0  0  0  0  0  0  0  0  0
   -4.4714   21.2889  -32.0785 H   0  0  0  0  0  0  0  0  0  0  0  0
   -3.6005   22.5478  -33.0185 H   0  0  0  0  0  0  0  0  0  0  0  0
   -3.0039   20.8535  -33.0185 H   0  0  0  0  0  0  0  0  0  0  0  0
   -2.9428   21.3201  -30.3531 H   0  0  0  0  0  0  0  0  0  0  0  0
   -1.5658   21.7239  -31.4494 H   0  0  0  0  0  0  0  0  0  0  0  0
   -0.6413   24.5272  -29.5668 H   0  0  0  0  0  0  0  0  0  0  0  0
   -0.6905   25.4123  -27.2389 H   0  0  0  0  0  0  0  0  0  0  0  0
   -2.7549   25.1902  -25.8587 H   0  0  0  0  0  0  0  0  0  0  0  0
   -4.7827   24.1006  -26.8091 H   0  0  0  0  0  0  0  0  0  0  0  0
   -5.4190   22.2600  -28.7660 H   0  0  0  0  0  0  0  0  0  0  0  0
   -7.9300   24.5975  -31.5236 H   0  0  0  0  0  0  0  0  0  0  0  0
   -9.9605   23.4130  -32.3558 H   0  0  0  0  0  0  0  0  0  0  0  0
   -5.4897   19.5177  -35.4910 H   0  0  0  0  0  0  0  0  0  0  0  0
   -4.4286   17.4085  -34.2743 H   0  0  0  0  0  0  0  0  0  0  0  0
   -5.8135   17.0685  -30.7985 H   0  0  0  0  0  0  0  0  0  0  0  0
   -6.5124   15.9241  -31.9937 H   0  0  0  0  0  0  0  0  0  0  0  0
   -4.7470   16.2557  -31.9937 H   0  0  0  0  0  0  0  0  0  0  0  0
   -6.0745   20.7786  -30.6492 H   0  0  0  0  0  0  0  0  0  0  0  0
  1  2  1  0
  2  3  1  0
  3  4  1  0
  4  5  2  0
  5  6  1  0
  6  7  2  0
  7  8  1  0
  8  9  2  0
  9 10  1  0
 10 11  1  0
 11 12  2  0
 11 13  1  0
 13 14  2  0
 14 15  1  0
 15 16  2  0
 16 17  1  0
 16 18  1  0
 18 19  1  0
 19 20  1  0
 20 21  2  0
 21 22  1  0
 22 23  2  0
 23 24  1  0
 24 25  1  0
 18 26  2  0
  9  4  1  0
 26 13  1  0
 24 20  1  0
  1 27  1  0
  1 28  1  0
  1 29  1  0
  2 30  1  0
  2 31  1  0
  5 32  1  0
  6 33  1  0
  7 34  1  0
  8 35  1  0
 10 36  1  0
 14 37  1  0
 15 38  1  0
 22 39  1  0
 23 40  1  0
 25 41  1  0
 25 42  1  0
 25 43  1  0
 26 44  1  0
M  END
>  <UniqueID>  (17) 
17

>  <SMILES>  (17) 
CCOc1ccccc1NC(=O)c1ccc(F)c(Sc2nccn2C)c1

>  <Energy>  (17) 
75.76690159112925

>  <Genealogy>  (17) 
CCOc1ccccc1NC(=O)c1ccc(F)c(Sc2nccn2C)c1 (3D coordinates assigned)
CCOc1ccccc1NC(=O)c1ccc(F)c(Sc2nccn2C)c1 (optimized conformer: 75.76690159112925 kcal/mol)

>  <smiles>  (17) 
CCOc1ccccc1NC(=O)c1ccc(F)c(Sc2nccn2C)c1

>  <score_type>  (17) 
oracle

>  <origin>  (17) 
adgpu

>  <m_score__min__energy>  (17) 
-8.5600000000000005

>  <m_primary>  (17) 
energy

$$$$
17:0
     RDKit          3D

 49 52  0  0  0  0  0  0  0  0999 V2000
   -1.7590   27.3040  -37.5670 C   0  0  0  0  0  0  0  0  0  0  0  0
   -0.4440   26.5850  -37.5080 C   0  0  0  0  0  0  0  0  0  0  0  0
    0.6640   27.0850  -38.2090 C   0  0  0  0  0  0  0  0  0  0  0  0
    1.8990   26.4390  -38.1230 C   0  0  0  0  0  0  0  0  0  0  0  0
    2.0420   25.2980  -37.3300 C   0  0  0  0  0  0  0  0  0  0  0  0
    0.9470   24.7930  -36.6080 C   0  0  0  0  0  0  0  0  0  0  0  0
    1.1000   23.5910  -35.7600 C   0  0  0  0  0  0  0  0  0  0  0  0
    2.2880   23.1240  -35.3240 N   0  0  0  0  0  0  0  0  0  0  0  0
    1.9970   22.0730  -34.6200 O   0  0  0  0  0  0  0  0  0  0  0  0
    0.7000   21.8880  -34.6190 C   0  0  0  0  0  0  0  0  0  0  0  0
    0.0000   20.7770  -33.8870 C   0  0  0  0  0  0  0  0  0  0  0  0
   -0.8620   21.3330  -32.7260 C   0  0  0  0  0  0  0  0  0  0  0  0
   -2.3400   21.4860  -33.1060 C   0  0  0  0  0  0  0  0  0  0  0  0
   -2.8870   20.2150  -33.6060 N   0  0  0  0  0  0  0  0  0  0  0  0
   -4.2890   19.9140  -33.4530 C   0  0  0  0  0  0  0  0  0  0  0  0
   -4.6870   18.7220  -33.5580 O   0  0  0  0  0  0  0  0  0  0  0  0
   -5.2430   20.9670  -33.2230 N   0  0  0  0  0  0  0  0  0  0  0  0
   -6.5780   20.7320  -32.7420 C   0  0  0  0  0  0  0  0  0  0  0  0
   -7.2130   19.4960  -32.9700 C   0  0  0  0  0  0  0  0  0  0  0  0
   -8.4990   19.2580  -32.4780 C   0  0  0  0  0  0  0  0  0  0  0  0
   -9.1620   20.2440  -31.7470 C   0  0  0  0  0  0  0  0  0  0  0  0
   -8.5390   21.4700  -31.5020 C   0  0  0  0  0  0  0  0  0  0  0  0
   -7.2500   21.7180  -31.9890 C   0  0  0  0  0  0  0  0  0  0  0  0
   -6.5180   23.2870  -31.6720 Cl  0  0  0  0  0  0  0  0  0  0  0  0
   -1.9910   19.2190  -34.2140 C   0  0  0  0  0  0  0  0  0  0  0  0
   -0.8030   19.9140  -34.8850 C   0  0  0  0  0  0  0  0  0  0  0  0
    0.0630   22.8360  -35.3320 N   0  0  0  0  0  0  0  0  0  0  0  0
   -0.2940   25.4470  -36.6990 C   0  0  0  0  0  0  0  0  0  0  0  0
   -2.1163   27.4993  -36.5451 H   0  0  0  0  0  0  0  0  0  0  0  0
   -1.6317   28.2580  -38.0996 H   0  0  0  0  0  0  0  0  0  0  0  0
   -2.4934   26.6819  -38.0996 H   0  0  0  0  0  0  0  0  0  0  0  0
    0.5594   27.9883  -38.8280 H   0  0  0  0  0  0  0  0  0  0  0  0
    2.7622   26.8300  -38.6816 H   0  0  0  0  0  0  0  0  0  0  0  0
    3.0169   24.7920  -37.2703 H   0  0  0  0  0  0  0  0  0  0  0  0
    0.7460   20.1184  -33.4183 H   0  0  0  0  0  0  0  0  0  0  0  0
   -0.7879   20.6441  -31.8716 H   0  0  0  0  0  0  0  0  0  0  0  0
   -0.4780   22.3333  -32.4769 H   0  0  0  0  0  0  0  0  0  0  0  0
   -2.9096   21.7991  -32.2186 H   0  0  0  0  0  0  0  0  0  0  0  0
   -2.4224   22.2415  -33.9012 H   0  0  0  0  0  0  0  0  0  0  0  0
   -4.9730   21.9400  -33.4860 H   0  0  0  0  0  0  0  0  0  0  0  0
   -6.6927   18.7119  -33.5397 H   0  0  0  0  0  0  0  0  0  0  0  0
   -8.9893   18.2917  -32.6674 H   0  0  0  0  0  0  0  0  0  0  0  0
  -10.1757   20.0560  -31.3634 H   0  0  0  0  0  0  0  0  0  0  0  0
   -9.0638   22.2445  -30.9235 H   0  0  0  0  0  0  0  0  0  0  0  0
   -1.6201   18.5394  -33.4326 H   0  0  0  0  0  0  0  0  0  0  0  0
   -2.5491   18.6509  -34.9729 H   0  0  0  0  0  0  0  0  0  0  0  0
   -0.1366   19.1484  -35.3091 H   0  0  0  0  0  0  0  0  0  0  0  0
   -1.1957   20.5776  -35.6695 H   0  0  0  0  0  0  0  0  0  0  0  0
   -1.1550   25.0640  -36.1316 H   0  0  0  0  0  0  0  0  0  0  0  0
  1  2  1  0
  2  3  2  0
  3  4  1  0
  4  5  2  0
  5  6  1  0
  6  7  1  0
  7  8  2  0
  8  9  1  0
  9 10  1  0
 10 11  1  0
 11 12  1  0
 12 13  1  0
 13 14  1  0
 14 15  1  0
 15 16  2  0
 15 17  1  0
 17 18  1  0
 18 19  2  0
 19 20  1  0
 20 21  2  0
 21 22  1  0
 22 23  2  0
 23 24  1  0
 14 25  1  0
 25 26  1  0
 10 27  2  0
  6 28  2  0
 28  2  1  0
 27  7  1  0
 26 11  1  0
 23 18  1  0
  1 29  1  0
  1 30  1  0
  1 31  1  0
  3 32  1  0
  4 33  1  0
  5 34  1  0
 11 35  1  0
 12 36  1  0
 12 37  1  0
 13 38  1  0
 13 39  1  0
 17 40  1  0
 19 41  1  0
 20 42  1  0
 21 43  1  0
 22 44  1  0
 25 45  1  0
 25 46  1  0
 26 47  1  0
 26 48  1  0
 28 49  1  0
M  END
>  <UniqueID>  (18) 
18

>  <SMILES>  (18) 
Cc1cccc(-c2noc(C3CCN(C(=O)Nc4ccccc4Cl)CC3)n2)c1

>  <Energy>  (18) 
91.39295932178959

>  <Genealogy>  (18) 
Cc1cccc(-c2noc(C3CCN(C(=O)Nc4ccccc4Cl)CC3)n2)c1 (3D coordinates assigned)
Cc1cccc(-c2noc(C3CCN(C(=O)Nc4ccccc4Cl)CC3)n2)c1 (nonaromatic ring conformer: 91.39295932178959 kcal/mol)

>  <smiles>  (18) 
Cc1cccc(-c2noc(C3CCN(C(=O)Nc4ccccc4Cl)CC3)n2)c1

>  <score_type>  (18) 
oracle

>  <origin>  (18) 
adgpu

>  <m_score__min__energy>  (18) 
-9.9299999999999997

>  <m_primary>  (18) 
energy

$$$$
18:0
     RDKit          3D

 67 71  0  0  0  0  0  0  0  0999 V2000
   -8.4370   19.3160  -31.2640 C   0  0  0  0  0  0  0  0  0  0  0  0
   -8.3680   20.4160  -32.3230 C   0  0  2  0  0  0  0  0  0  0  0  0
   -7.7010   19.9580  -33.5480 N   0  0  0  0  0  0  0  0  0  0  0  0
   -6.3770   19.4130  -33.5670 C   0  0  0  0  0  0  0  0  0  0  0  0
   -5.0760   19.8990  -33.5100 C   0  0  0  0  0  0  0  0  0  0  0  0
   -4.4400   21.1680  -33.3320 N   0  0  0  0  0  0  0  0  0  0  0  0
   -3.5360   21.4730  -32.2590 C   0  0  0  0  0  0  0  0  0  0  0  0
   -4.0120   22.2360  -31.1850 C   0  0  0  0  0  0  0  0  0  0  0  0
   -3.1830   22.5340  -30.1010 C   0  0  0  0  0  0  0  0  0  0  0  0
   -1.8470   22.1050  -30.0850 C   0  0  0  0  0  0  0  0  0  0  0  0
   -0.9860   22.4500  -28.9780 N   0  0  0  0  0  0  0  0  0  0  0  0
   -0.8670   23.8470  -28.5460 C   0  0  0  0  0  0  0  0  0  0  0  0
    0.5190   24.1070  -27.9380 C   0  0  0  0  0  0  0  0  0  0  0  0
    0.8940   23.1050  -26.9200 N   0  0  0  0  0  0  0  0  0  0  0  0
    0.1600   23.2740  -25.6540 C   0  0  0  0  0  0  0  0  0  0  0  0
    0.8070   21.7280  -27.4520 C   0  0  0  0  0  0  0  0  0  0  0  0
   -0.5760   21.4090  -28.0280 C   0  0  0  0  0  0  0  0  0  0  0  0
   -1.3630   21.3510  -31.1680 C   0  0  0  0  0  0  0  0  0  0  0  0
   -2.1840   21.0510  -32.2640 C   0  0  0  0  0  0  0  0  0  0  0  0
   -1.6110   20.3550  -33.3820 N   0  0  0  0  0  0  0  0  0  0  0  0
   -0.3150   20.6560  -33.9310 C   0  0  0  0  0  0  0  0  0  0  0  0
    0.8430   19.9910  -33.4880 C   0  0  0  0  0  0  0  0  0  0  0  0
    2.0910   20.3120  -34.0320 C   0  0  0  0  0  0  0  0  0  0  0  0
    2.1970   21.2940  -35.0200 C   0  0  0  0  0  0  0  0  0  0  0  0
    3.7670   21.7020  -35.6920 Cl  0  0  0  0  0  0  0  0  0  0  0  0
    1.0480   21.9550  -35.4680 C   0  0  0  0  0  0  0  0  0  0  0  0
   -0.2020   21.6280  -34.9350 C   0  0  0  0  0  0  0  0  0  0  0  0
   -4.5960   18.6090  -33.6140 C   0  0  0  0  0  0  0  0  0  0  0  0
   -3.4510   18.0810  -33.6250 O   0  0  0  0  0  0  0  0  0  0  0  0
   -5.8880   18.1270  -33.6440 C   0  0  0  0  0  0  0  0  0  0  0  0
   -6.4040   16.9810  -33.7110 O   0  0  0  0  0  0  0  0  0  0  0  0
   -7.7310   21.6850  -31.7900 C   0  0  0  0  0  0  0  0  0  0  0  0
   -7.6750   21.9550  -30.4080 C   0  0  0  0  0  0  0  0  0  0  0  0
   -7.0640   23.1200  -29.9380 C   0  0  0  0  0  0  0  0  0  0  0  0
   -6.5050   24.0350  -30.8370 C   0  0  0  0  0  0  0  0  0  0  0  0
   -5.7750   25.5160  -30.2500 Cl  0  0  0  0  0  0  0  0  0  0  0  0
   -6.5700   23.7850  -32.2120 C   0  0  0  0  0  0  0  0  0  0  0  0
   -7.1770   22.6150  -32.6870 C   0  0  0  0  0  0  0  0  0  0  0  0
   -8.4086   19.7693  -30.2621 H   0  0  0  0  0  0  0  0  0  0  0  0
   -9.3724   18.7498  -31.3839 H   0  0  0  0  0  0  0  0  0  0  0  0
   -7.5797   18.6373  -31.3839 H   0  0  0  0  0  0  0  0  0  0  0  0
   -9.4077   20.6604  -32.5861 H   0  0  0  0  0  0  0  0  0  0  0  0
   -8.0020   20.4210  -34.4320 H   0  0  0  0  0  0  0  0  0  0  0  0
   -4.6190   21.9070  -34.0470 H   0  0  0  0  0  0  0  0  0  0  0  0
   -5.0486   22.6040  -31.1954 H   0  0  0  0  0  0  0  0  0  0  0  0
   -3.5809   23.1100  -29.2525 H   0  0  0  0  0  0  0  0  0  0  0  0
   -1.0111   24.5075  -29.4137 H   0  0  0  0  0  0  0  0  0  0  0  0
   -1.6332   24.0495  -27.7832 H   0  0  0  0  0  0  0  0  0  0  0  0
    1.2665   24.0852  -28.7447 H   0  0  0  0  0  0  0  0  0  0  0  0
    0.4841   25.0876  -27.4407 H   0  0  0  0  0  0  0  0  0  0  0  0
    0.8459   23.1161  -24.8086 H   0  0  0  0  0  0  0  0  0  0  0  0
   -0.2555   24.2913  -25.6040 H   0  0  0  0  0  0  0  0  0  0  0  0
   -0.6585   22.5408  -25.6040 H   0  0  0  0  0  0  0  0  0  0  0  0
    1.5568   21.6091  -28.2480 H   0  0  0  0  0  0  0  0  0  0  0  0
    0.9901   21.0348  -26.6178 H   0  0  0  0  0  0  0  0  0  0  0  0
   -0.5381   20.4395  -28.5464 H   0  0  0  0  0  0  0  0  0  0  0  0
   -1.3051   21.3689  -27.2053 H   0  0  0  0  0  0  0  0  0  0  0  0
   -0.3238   20.9907  -31.1554 H   0  0  0  0  0  0  0  0  0  0  0  0
   -2.1410   19.5440  -33.7680 H   0  0  0  0  0  0  0  0  0  0  0  0
    0.7667   19.2160  -32.7112 H   0  0  0  0  0  0  0  0  0  0  0  0
    2.9927   19.7891  -33.6805 H   0  0  0  0  0  0  0  0  0  0  0  0
    1.1286   22.7334  -36.2411 H   0  0  0  0  0  0  0  0  0  0  0  0
   -1.1038   22.1370  -35.3060 H   0  0  0  0  0  0  0  0  0  0  0  0
   -8.1156   21.2433  -29.6943 H   0  0  0  0  0  0  0  0  0  0  0  0
   -7.0222   23.3188  -28.8569 H   0  0  0  0  0  0  0  0  0  0  0  0
   -6.1434   24.5089  -32.9220 H   0  0  0  0  0  0  0  0  0  0  0  0
   -7.2204   22.4228  -33.7692 H   0  0  0  0  0  0  0  0  0  0  0  0
  1  2  1  0
  2  3  1  0
  3  4  1  0
  4  5  2  0
  5  6  1  0
  6  7  1  0
  7  8  2  0
  8  9  1  0
  9 10  2  0
 10 11  1  0
 11 12  1  0
 12 13  1  0
 13 14  1  0
 14 15  1  0
 14 16  1  0
 16 17  1  0
 10 18  1  0
 18 19  2  0
 19 20  1  0
 20 21  1  0
 21 22  2  0
 22 23  1  0
 23 24  2  0
 24 25  1  0
 24 26  1  0
 26 27  2  0
  5 28  1  0
 28 29  2  0
 28 30  1  0
 30 31  2  0
  2 32  1  0
 32 33  2  0
 33 34  1  0
 34 35  2  0
 35 36  1  0
 35 37  1  0
 37 38  2  0
 30  4  1  0
 38 32  1  0
 19  7  1  0
 27 21  1  0
 17 11  1  0
  1 39  1  0
  1 40  1  0
  1 41  1  0
  2 42  1  6
  3 43  1  0
  6 44  1  0
  8 45  1  0
  9 46  1  0
 12 47  1  0
 12 48  1  0
 13 49  1  0
 13 50  1  0
 15 51  1  0
 15 52  1  0
 15 53  1  0
 16 54  1  0
 16 55  1  0
 17 56  1  0
 17 57  1  0
 18 58  1  0
 20 59  1  0
 22 60  1  0
 23 61  1  0
 26 62  1  0
 27 63  1  0
 33 64  1  0
 34 65  1  0
 37 66  1  0
 38 67  1  0
M  END
>  <UniqueID>  (19) 
19

>  <SMILES>  (19) 
C[C@H](Nc1c(Nc2ccc(N3CCN(C)CC3)cc2Nc2ccc(Cl)cc2)c(=O)c1=O)c1ccc(Cl)cc1

>  <Energy>  (19) 
82.12311177477171

>  <Genealogy>  (19) 
C[C@H](Nc1c(Nc2ccc(N3CCN(C)CC3)cc2Nc2ccc(Cl)cc2)c(=O)c1=O)c1ccc(Cl)cc1 (chirality)
C[C@H](Nc1c(Nc2ccc(N3CCN(C)CC3)cc2Nc2ccc(Cl)cc2)c(=O)c1=O)c1ccc(Cl)cc1 (3D coordinates assigned)
C[C@H](Nc1c(Nc2ccc(N3CCN(C)CC3)cc2Nc2ccc(Cl)cc2)c(=O)c1=O)c1ccc(Cl)cc1 (nonaromatic ring conformer: 82.12311177477171 kcal/mol)

>  <smiles>  (19) 
CC(Nc1c(Nc2ccc(N3CCN(C)CC3)cc2Nc2ccc(Cl)cc2)c(=O)c1=O)c1ccc(Cl)cc1

>  <score_type>  (19) 
oracle

>  <origin>  (19) 
adgpu

>  <m_score__min__energy>  (19) 
-11.52

>  <m_primary>  (19) 
energy

$$$$
19:0
     RDKit          3D

 43 45  0  0  0  0  0  0  0  0999 V2000
   -3.9180   23.2830  -31.5390 O   0  0  0  0  0  0  0  0  0  0  0  0
   -3.4480   22.1180  -31.4610 C   0  0  0  0  0  0  0  0  0  0  0  0
   -3.1150   21.5660  -30.1000 C   0  0  0  0  0  0  0  0  0  0  0  0
   -3.5850   22.5210  -28.9950 C   0  0  0  0  0  0  0  0  0  0  0  0
   -2.5760   23.6010  -28.7440 C   0  0  0  0  0  0  0  0  0  0  0  0
   -1.2330   23.4680  -27.7320 S   0  0  0  0  0  0  0  0  0  0  0  0
   -0.7050   25.0240  -28.0890 C   0  0  0  0  0  0  0  0  0  0  0  0
    0.3270   25.5520  -27.6020 O   0  0  0  0  0  0  0  0  0  0  0  0
   -1.5100   25.6570  -28.9690 N   0  0  0  0  0  0  0  0  0  0  0  0
   -2.5500   24.8610  -29.3390 C   0  0  0  0  0  0  0  0  0  0  0  0
   -3.5090   25.2860  -30.2540 O   0  0  0  0  0  0  0  0  0  0  0  0
   -3.1670   21.4100  -32.6770 N   0  0  0  0  0  0  0  0  0  0  0  0
   -3.6160   20.1060  -33.0780 C   0  0  0  0  0  0  0  0  0  0  0  0
   -2.8170   19.3680  -33.9590 C   0  0  0  0  0  0  0  0  0  0  0  0
   -3.2320   18.1110  -34.4070 C   0  0  0  0  0  0  0  0  0  0  0  0
   -4.4570   17.5880  -33.9890 C   0  0  0  0  0  0  0  0  0  0  0  0
   -5.2830   18.3260  -33.1300 C   0  0  0  0  0  0  0  0  0  0  0  0
   -6.8320   17.6640  -32.5990 S   0  0  0  0  0  0  0  0  0  0  0  0
   -7.0770   16.3580  -33.3010 O   0  0  0  0  0  0  0  0  0  0  0  0
   -6.7700   17.3900  -31.1230 O   0  0  0  0  0  0  0  0  0  0  0  0
   -8.1630   18.7500  -32.9350 N   0  0  0  0  0  0  0  0  0  0  0  0
   -9.0500   18.8840  -31.7730 C   0  0  0  0  0  0  0  0  0  0  0  0
   -8.7330   20.2000  -31.0940 C   0  0  0  0  0  0  0  0  0  0  0  0
   -8.1730   21.0690  -32.1960 C   0  0  0  0  0  0  0  0  0  0  0  0
   -7.6810   20.1020  -33.2640 C   0  0  0  0  0  0  0  0  0  0  0  0
   -4.8650   19.5890  -32.6860 C   0  0  0  0  0  0  0  0  0  0  0  0
   -3.6141   20.5940  -29.9730 H   0  0  0  0  0  0  0  0  0  0  0  0
   -2.0239   21.4488  -30.0243 H   0  0  0  0  0  0  0  0  0  0  0  0
   -4.5356   22.9825  -29.3005 H   0  0  0  0  0  0  0  0  0  0  0  0
   -3.7136   21.9432  -28.0678 H   0  0  0  0  0  0  0  0  0  0  0  0
   -3.5200   24.9240  -31.1990 H   0  0  0  0  0  0  0  0  0  0  0  0
   -1.8562   19.7801  -34.3010 H   0  0  0  0  0  0  0  0  0  0  0  0
   -2.5924   17.5328  -35.0901 H   0  0  0  0  0  0  0  0  0  0  0  0
   -4.7751   16.5934  -34.3349 H   0  0  0  0  0  0  0  0  0  0  0  0
  -10.0998   18.8764  -32.1014 H   0  0  0  0  0  0  0  0  0  0  0  0
   -8.8971   18.0469  -31.0760 H   0  0  0  0  0  0  0  0  0  0  0  0
   -9.6438   20.6482  -30.6703 H   0  0  0  0  0  0  0  0  0  0  0  0
   -8.0291   20.0801  -30.2573 H   0  0  0  0  0  0  0  0  0  0  0  0
   -8.9557   21.7261  -32.6031 H   0  0  0  0  0  0  0  0  0  0  0  0
   -7.3655   21.7212  -31.8318 H   0  0  0  0  0  0  0  0  0  0  0  0
   -8.0719   20.4054  -34.2464 H   0  0  0  0  0  0  0  0  0  0  0  0
   -6.5816   20.1098  -33.2988 H   0  0  0  0  0  0  0  0  0  0  0  0
   -5.5180   20.1797  -32.0267 H   0  0  0  0  0  0  0  0  0  0  0  0
  1  2  2  0
  2  3  1  0
  3  4  1  0
  4  5  1  0
  5  6  1  0
  6  7  1  0
  7  8  2  0
  7  9  1  0
  9 10  1  0
 10 11  1  0
  2 12  1  0
 12 13  1  0
 13 14  2  0
 14 15  1  0
 15 16  2  0
 16 17  1  0
 17 18  1  0
 18 19  2  0
 18 20  2  0
 18 21  1  0
 21 22  1  0
 22 23  1  0
 23 24  1  0
 24 25  1  0
 17 26  2  0
 10  5  2  0
 26 13  1  0
 25 21  1  0
  3 27  1  0
  3 28  1  0
  4 29  1  0
  4 30  1  0
 11 31  1  0
 14 32  1  0
 15 33  1  0
 16 34  1  0
 22 35  1  0
 22 36  1  0
 23 37  1  0
 23 38  1  0
 24 39  1  0
 24 40  1  0
 25 41  1  0
 25 42  1  0
 26 43  1  0
M  CHG  2   9  -1  12  -1
M  END
>  <UniqueID>  (20) 
20

>  <SMILES>  (20) 
O=C(CCc1sc(=O)[n-]c1O)[N-]c1cccc(S(=O)(=O)N2CCCC2)c1

>  <Energy>  (20) 
75.23475850437063

>  <Genealogy>  (20) 
O=C(CCc1sc(=O)[n-]c1O)[N-]c1cccc(S(=O)(=O)N2CCCC2)c1 (protonated)
O=C(CCc1sc(=O)[n-]c1O)[N-]c1cccc(S(=O)(=O)N2CCCC2)c1 (3D coordinates assigned)
O=C(CCc1sc(=O)[n-]c1O)[N-]c1cccc(S(=O)(=O)N2CCCC2)c1 (nonaromatic ring conformer: 75.23475850437063 kcal/mol)

>  <smiles>  (20) 
O=C(CCc1sc(=O)[nH]c1O)Nc1cccc(S(=O)(=O)N2CCCC2)c1

>  <score_type>  (20) 
oracle

>  <origin>  (20) 
adgpu

>  <m_score__min__energy>  (20) 
-11.57

>  <m_primary>  (20) 
energy

$$$$
20:0
     RDKit          3D

 63 66  0  0  1  0  0  0  0  0999 V2000
   -0.8480   27.9550  -34.3070 C   0  0  0  0  0  0  0  0  0  0  0  0
    0.1880   27.7940  -35.3630 C   0  0  0  0  0  0  0  0  0  0  0  0
    0.3490   26.4050  -35.7940 N   0  0  0  0  0  0  0  0  0  0  0  0
   -0.2190   26.1980  -37.0950 C   0  0  0  0  0  0  0  0  0  0  0  0
   -1.2650   27.1880  -37.4920 C   0  0  0  0  0  0  0  0  0  0  0  0
    1.6710   25.9340  -35.5840 C   0  0  0  0  0  0  0  0  0  0  0  0
    2.3210   25.5280  -36.8720 C   0  0  0  0  0  0  0  0  0  0  0  0
    2.6150   24.1670  -37.0010 O   0  0  0  0  0  0  0  0  0  0  0  0
    1.9160   23.2660  -36.2010 C   0  0  0  0  0  0  0  0  0  0  0  0
    2.6400   22.4320  -35.3790 C   0  0  0  0  0  0  0  0  0  0  0  0
    1.9950   21.5270  -34.5720 C   0  0  0  0  0  0  0  0  0  0  0  0
    0.6080   21.4030  -34.5380 C   0  0  0  0  0  0  0  0  0  0  0  0
   -0.0660   20.4010  -33.6490 C   0  0  0  0  0  0  0  0  0  0  0  0
   -1.3510   20.8110  -33.1900 N   0  0  0  0  0  0  0  0  0  0  0  0
   -1.6190   21.4210  -32.1130 C   0  0  0  0  0  0  0  0  0  0  0  0
   -0.6400   21.7410  -31.2800 N   0  0  0  0  0  0  0  0  0  0  0  0
   -0.8540   22.3870  -30.1210 C   0  0  0  0  0  0  0  0  0  0  0  0
   -2.1300   22.7320  -29.7800 N   0  0  0  0  0  0  0  0  0  0  0  0
   -3.1640   22.4270  -30.5980 C   0  0  0  0  0  0  0  0  0  0  0  0
   -4.4440   22.7800  -30.2430 C   0  0  0  0  0  0  0  0  0  0  0  0
   -5.4840   22.4550  -31.0990 C   0  0  0  0  0  0  0  0  0  0  0  0
   -5.2400   21.7940  -32.2780 C   0  0  0  0  0  0  0  0  0  0  0  0
   -6.3490   21.5070  -33.0820 O   0  0  0  0  0  0  0  0  0  0  0  0
   -7.1390   20.4420  -32.6760 C   0  0  0  0  0  0  0  0  0  0  0  0
   -8.4320   20.5820  -32.2190 C   0  0  0  0  0  0  0  0  0  0  0  0
   -9.1240   19.4430  -31.8420 C   0  0  0  0  0  0  0  0  0  0  0  0
   -8.5760   18.1780  -31.9050 C   0  0  0  0  0  0  0  0  0  0  0  0
   -7.2690   18.0370  -32.3670 C   0  0  0  0  0  0  0  0  0  0  0  0
   -6.5810   19.1690  -32.7420 C   0  0  0  0  0  0  0  0  0  0  0  0
   -3.9580   21.4430  -32.6290 C   0  0  0  0  0  0  0  0  0  0  0  0
   -2.9190   21.7620  -31.7830 C   0  0  0  0  0  0  0  0  0  0  0  0
   -0.0970   22.2470  -35.3670 C   0  0  0  0  0  0  0  0  0  0  0  0
    0.5410   23.1760  -36.1970 C   0  0  0  0  0  0  0  0  0  0  0  0
   -0.3760   27.8817  -33.3161 H   0  0  0  0  0  0  0  0  0  0  0  0
   -1.3290   28.9387  -34.4121 H   0  0  0  0  0  0  0  0  0  0  0  0
   -1.6048   27.1637  -34.4121 H   0  0  0  0  0  0  0  0  0  0  0  0
   -0.1009   28.4007  -36.2339 H   0  0  0  0  0  0  0  0  0  0  0  0
    1.1479   28.1214  -34.9371 H   0  0  0  0  0  0  0  0  0  0  0  0
    0.5943   26.2461  -37.8340 H   0  0  0  0  0  0  0  0  0  0  0  0
   -0.7197   25.2192  -37.0597 H   0  0  0  0  0  0  0  0  0  0  0  0
   -1.7219   27.6204  -36.5896 H   0  0  0  0  0  0  0  0  0  0  0  0
   -0.8043   27.9886  -38.0893 H   0  0  0  0  0  0  0  0  0  0  0  0
   -2.0390   26.6840  -38.0893 H   0  0  0  0  0  0  0  0  0  0  0  0
    2.2661   26.7345  -35.1202 H   0  0  0  0  0  0  0  0  0  0  0  0
    1.6228   25.0517  -34.9288 H   0  0  0  0  0  0  0  0  0  0  0  0
    1.6454   25.8071  -37.6940 H   0  0  0  0  0  0  0  0  0  0  0  0
    3.2904   26.0473  -36.8950 H   0  0  0  0  0  0  0  0  0  0  0  0
    3.7384   22.4906  -35.3685 H   0  0  0  0  0  0  0  0  0  0  0  0
    2.5988   20.8730  -33.9257 H   0  0  0  0  0  0  0  0  0  0  0  0
   -0.1817   19.4621  -34.2103 H   0  0  0  0  0  0  0  0  0  0  0  0
    0.5696   20.2843  -32.7588 H   0  0  0  0  0  0  0  0  0  0  0  0
    0.3230   21.4920  -31.5180 H   0  0  0  0  0  0  0  0  0  0  0  0
   -0.0129   22.6342  -29.4566 H   0  0  0  0  0  0  0  0  0  0  0  0
   -4.6388   23.3096  -29.2988 H   0  0  0  0  0  0  0  0  0  0  0  0
   -6.5152   22.7291  -30.8317 H   0  0  0  0  0  0  0  0  0  0  0  0
   -8.9027   21.5742  -32.1553 H   0  0  0  0  0  0  0  0  0  0  0  0
  -10.1557   19.5515  -31.4763 H   0  0  0  0  0  0  0  0  0  0  0  0
   -9.1596   17.2981  -31.5965 H   0  0  0  0  0  0  0  0  0  0  0  0
   -6.7982   17.0449  -32.4306 H   0  0  0  0  0  0  0  0  0  0  0  0
   -5.5492   19.0629  -33.1083 H   0  0  0  0  0  0  0  0  0  0  0  0
   -3.7644   20.9139  -33.5738 H   0  0  0  0  0  0  0  0  0  0  0  0
   -1.1954   22.1892  -35.3772 H   0  0  0  0  0  0  0  0  0  0  0  0
   -0.0552   23.8342  -36.8461 H   0  0  0  0  0  0  0  0  0  0  0  0
  1  2  1  0
  2  3  1  0
  3  4  1  0
  4  5  1  0
  3  6  1  0
  6  7  1  0
  7  8  1  0
  8  9  1  0
  9 10  2  0
 10 11  1  0
 11 12  2  0
 12 13  1  0
 13 14  1  0
 14 15  2  0
 15 16  1  0
 16 17  1  0
 17 18  2  0
 18 19  1  0
 19 20  2  0
 20 21  1  0
 21 22  2  0
 22 23  1  0
 23 24  1  0
 24 25  2  0
 25 26  1  0
 26 27  2  0
 27 28  1  0
 28 29  2  0
 22 30  1  0
 30 31  2  0
 12 32  1  0
 32 33  2  0
 33  9  1  0
 31 15  1  0
 31 19  1  0
 29 24  1  0
  1 34  1  0
  1 35  1  0
  1 36  1  0
  2 37  1  0
  2 38  1  0
  4 39  1  0
  4 40  1  0
  5 41  1  0
  5 42  1  0
  5 43  1  0
  6 44  1  0
  6 45  1  0
  7 46  1  0
  7 47  1  0
 10 48  1  0
 11 49  1  0
 13 50  1  0
 13 51  1  0
 16 52  1  0
 17 53  1  0
 20 54  1  0
 21 55  1  0
 25 56  1  0
 26 57  1  0
 27 58  1  0
 28 59  1  0
 29 60  1  0
 30 61  1  0
 32 62  1  0
 33 63  1  0
M  END
>  <smiles>  (21) 
CCN(CC)CCOc1ccc(CN=c2[nH]cnc3ccc(Oc4ccccc4)cc23)cc1

>  <score_type>  (21) 
oracle

>  <origin>  (21) 
adgpu

>  <m_score__min__energy>  (21) 
-9.3100000000000005

>  <m_primary>  (21) 
energy

$$$$
21:0
     RDKit          3D

 54 57  0  0  0  0  0  0  0  0999 V2000
   -6.1890   14.8420  -34.1810 C   0  0  0  0  0  0  0  0  0  0  0  0
   -6.3820   16.2530  -34.0430 O   0  0  0  0  0  0  0  0  0  0  0  0
   -5.3520   17.1870  -33.8470 C   0  0  0  0  0  0  0  0  0  0  0  0
   -4.2830   17.1880  -34.7480 C   0  0  0  0  0  0  0  0  0  0  0  0
   -3.2260   18.0940  -34.6060 C   0  0  0  0  0  0  0  0  0  0  0  0
   -3.2300   19.0310  -33.5580 C   0  0  0  0  0  0  0  0  0  0  0  0
   -2.1280   20.0150  -33.4120 C   0  0  0  0  0  0  0  0  0  0  0  0
   -1.1540   19.9870  -34.2070 O   0  0  0  0  0  0  0  0  0  0  0  0
   -2.1220   21.0000  -32.3060 C   0  0  0  0  0  0  0  0  0  0  0  0
   -3.1720   21.9350  -32.1450 C   0  0  0  0  0  0  0  0  0  0  0  0
   -4.2850   21.9330  -33.0630 N   0  0  0  0  0  0  0  0  0  0  0  0
   -3.1200   22.8570  -31.0640 C   0  0  0  0  0  0  0  0  0  0  0  0
   -4.2030   23.8480  -30.8450 C   0  0  0  0  0  0  0  0  0  0  0  0
   -3.8970   25.0500  -30.6170 O   0  0  0  0  0  0  0  0  0  0  0  0
   -5.6250   23.4760  -30.9510 C   0  0  0  0  0  0  0  0  0  0  0  0
   -6.2800   22.7910  -29.9080 C   0  0  0  0  0  0  0  0  0  0  0  0
   -7.6360   22.4530  -30.0310 C   0  0  0  0  0  0  0  0  0  0  0  0
   -8.3380   22.7670  -31.1940 C   0  0  0  0  0  0  0  0  0  0  0  0
   -7.6910   23.4360  -32.2330 C   0  0  0  0  0  0  0  0  0  0  0  0
   -6.3440   23.7920  -32.1220 C   0  0  0  0  0  0  0  0  0  0  0  0
   -2.0230   22.7990  -30.1690 C   0  0  0  0  0  0  0  0  0  0  0  0
   -1.9800   23.6030  -28.9800 N   0  0  0  0  0  0  0  0  0  0  0  0
   -1.1070   24.7850  -28.9940 C   0  0  0  0  0  0  0  0  0  0  0  0
   -1.0620   25.4780  -27.6200 C   0  0  0  0  0  0  0  0  0  0  0  0
   -2.3430   25.5770  -27.0340 O   0  0  0  0  0  0  0  0  0  0  0  0
   -2.8310   24.2780  -26.7700 C   0  0  0  0  0  0  0  0  0  0  0  0
   -3.1370   23.5540  -28.0810 C   0  0  0  0  0  0  0  0  0  0  0  0
   -1.0180   21.9140  -30.3860 N   0  0  0  0  0  0  0  0  0  0  0  0
   -1.0310   21.0350  -31.4170 C   0  0  0  0  0  0  0  0  0  0  0  0
   -0.0510   20.2580  -31.5700 O   0  0  0  0  0  0  0  0  0  0  0  0
   -4.2970   19.0220  -32.6430 C   0  0  0  0  0  0  0  0  0  0  0  0
   -5.3540   18.1120  -32.7860 C   0  0  0  0  0  0  0  0  0  0  0  0
   -6.1260   14.3813  -33.1841 H   0  0  0  0  0  0  0  0  0  0  0  0
   -7.0362   14.4082  -34.7325 H   0  0  0  0  0  0  0  0  0  0  0  0
   -5.2565   14.6517  -34.7325 H   0  0  0  0  0  0  0  0  0  0  0  0
   -4.2726   16.4675  -35.5791 H   0  0  0  0  0  0  0  0  0  0  0  0
   -2.3878   18.0729  -35.3180 H   0  0  0  0  0  0  0  0  0  0  0  0
   -4.2520   22.4760  -33.9580 H   0  0  0  0  0  0  0  0  0  0  0  0
   -5.1320   21.3440  -32.9080 H   0  0  0  0  0  0  0  0  0  0  0  0
   -5.7272   22.5210  -28.9961 H   0  0  0  0  0  0  0  0  0  0  0  0
   -8.1482   21.9374  -29.2053 H   0  0  0  0  0  0  0  0  0  0  0  0
   -9.3976   22.4883  -31.2918 H   0  0  0  0  0  0  0  0  0  0  0  0
   -8.2465   23.6859  -33.1489 H   0  0  0  0  0  0  0  0  0  0  0  0
   -5.8446   24.3189  -32.9485 H   0  0  0  0  0  0  0  0  0  0  0  0
   -0.0888   24.4725  -29.2688 H   0  0  0  0  0  0  0  0  0  0  0  0
   -1.5115   25.5005  -29.7251 H   0  0  0  0  0  0  0  0  0  0  0  0
   -0.4096   24.8977  -26.9510 H   0  0  0  0  0  0  0  0  0  0  0  0
   -0.6764   26.4977  -27.7668 H   0  0  0  0  0  0  0  0  0  0  0  0
   -2.0723   23.7114  -26.2102 H   0  0  0  0  0  0  0  0  0  0  0  0
   -3.7546   24.3545  -26.1775 H   0  0  0  0  0  0  0  0  0  0  0  0
   -3.3828   22.5038  -27.8651 H   0  0  0  0  0  0  0  0  0  0  0  0
   -3.9875   24.0511  -28.5704 H   0  0  0  0  0  0  0  0  0  0  0  0
   -4.3028   19.7361  -31.8063 H   0  0  0  0  0  0  0  0  0  0  0  0
   -6.1868   18.1209  -32.0674 H   0  0  0  0  0  0  0  0  0  0  0  0
  1  2  1  0
  2  3  1  0
  3  4  2  0
  4  5  1  0
  5  6  2  0
  6  7  1  0
  7  8  2  0
  7  9  1  0
  9 10  2  0
 10 11  1  0
 10 12  1  0
 12 13  1  0
 13 14  2  0
 13 15  1  0
 15 16  2  0
 16 17  1  0
 17 18  2  0
 18 19  1  0
 19 20  2  0
 12 21  2  0
 21 22  1  0
 22 23  1  0
 23 24  1  0
 24 25  1  0
 25 26  1  0
 26 27  1  0
 21 28  1  0
 28 29  1  0
 29 30  2  0
  6 31  1  0
 31 32  2  0
 32  3  1  0
 29  9  1  0
 20 15  1  0
 27 22  1  0
  1 33  1  0
  1 34  1  0
  1 35  1  0
  4 36  1  0
  5 37  1  0
 11 38  1  0
 11 39  1  0
 16 40  1  0
 17 41  1  0
 18 42  1  0
 19 43  1  0
 20 44  1  0
 23 45  1  0
 23 46  1  0
 24 47  1  0
 24 48  1  0
 26 49  1  0
 26 50  1  0
 27 51  1  0
 27 52  1  0
 31 53  1  0
 32 54  1  0
M  CHG  1  28  -1
M  END
>  <UniqueID>  (22) 
21

>  <SMILES>  (22) 
COc1ccc(C(=O)c2c(N)c(C(=O)c3ccccc3)c(N3CCOCC3)[n-]c2=O)cc1

>  <Energy>  (22) 
82.72058662545894

>  <Genealogy>  (22) 
COc1ccc(C(=O)c2c(N)c(C(=O)c3ccccc3)c(N3CCOCC3)[n-]c2=O)cc1 (protonated)
COc1ccc(C(=O)c2c(N)c(C(=O)c3ccccc3)c(N3CCOCC3)[n-]c2=O)cc1 (3D coordinates assigned)
COc1ccc(C(=O)c2c(N)c(C(=O)c3ccccc3)c(N3CCOCC3)[n-]c2=O)cc1 (nonaromatic ring conformer: 82.72058662545894 kcal/mol)

>  <smiles>  (22) 
COc1ccc(C(=O)c2c(N)c(C(=O)c3ccccc3)c(N3CCOCC3)[nH]c2=O)cc1

>  <score_type>  (22) 
oracle

>  <origin>  (22) 
adgpu

>  <m_score__min__energy>  (22) 
-9.5800000000000001

>  <m_primary>  (22) 
energy

$$$$
22:0
     RDKit          3D

 46 48  0  0  0  0  0  0  0  0999 V2000
   -9.4830   22.0190  -31.6030 C   0  0  0  0  0  0  0  0  0  0  0  0
   -9.1320   20.6920  -31.2230 O   0  0  0  0  0  0  0  0  0  0  0  0
   -8.2580   19.8670  -31.9460 C   0  0  0  0  0  0  0  0  0  0  0  0
   -8.0280   18.5230  -31.6000 C   0  0  0  0  0  0  0  0  0  0  0  0
   -7.1490   17.7410  -32.3540 C   0  0  0  0  0  0  0  0  0  0  0  0
   -6.4910   18.2830  -33.4690 C   0  0  0  0  0  0  0  0  0  0  0  0
   -5.5310   17.4370  -34.2830 C   0  0  0  0  0  0  0  0  0  0  0  0
   -4.1510   17.9790  -34.3530 N   0  0  0  0  0  0  0  0  0  0  0  0
   -3.2410   17.0990  -35.1050 C   0  0  0  0  0  0  0  0  0  0  0  0
   -3.5800   18.3300  -33.0360 C   0  0  0  0  0  0  0  0  0  0  0  0
   -3.6280   19.8100  -32.8160 C   0  0  0  0  0  0  0  0  0  0  0  0
   -2.8710   20.7510  -33.4730 C   0  0  0  0  0  0  0  0  0  0  0  0
   -3.2360   21.9260  -33.0250 O   0  0  0  0  0  0  0  0  0  0  0  0
   -4.1880   21.7330  -32.1350 C   0  0  0  0  0  0  0  0  0  0  0  0
   -4.8450   22.8410  -31.3960 C   0  0  0  0  0  0  0  0  0  0  0  0
   -6.1930   23.1190  -31.6930 C   0  0  0  0  0  0  0  0  0  0  0  0
   -6.8670   24.1600  -31.0540 C   0  0  0  0  0  0  0  0  0  0  0  0
   -6.2110   24.9400  -30.1080 C   0  0  0  0  0  0  0  0  0  0  0  0
   -4.8790   24.6770  -29.7860 C   0  0  0  0  0  0  0  0  0  0  0  0
   -4.1830   23.6250  -30.4100 C   0  0  0  0  0  0  0  0  0  0  0  0
   -2.7600   23.3630  -29.9910 C   0  0  0  0  0  0  0  0  0  0  0  0
   -4.4710   20.4230  -31.9650 N   0  0  0  0  0  0  0  0  0  0  0  0
   -6.7120   19.6280  -33.8040 C   0  0  0  0  0  0  0  0  0  0  0  0
   -7.5930   20.4100  -33.0500 C   0  0  0  0  0  0  0  0  0  0  0  0
   -9.6441   22.6281  -30.7013 H   0  0  0  0  0  0  0  0  0  0  0  0
   -8.6697   22.4565  -32.2006 H   0  0  0  0  0  0  0  0  0  0  0  0
  -10.4063   21.9972  -32.2006 H   0  0  0  0  0  0  0  0  0  0  0  0
   -8.5426   18.0855  -30.7317 H   0  0  0  0  0  0  0  0  0  0  0  0
   -6.9714   16.6928  -32.0716 H   0  0  0  0  0  0  0  0  0  0  0  0
   -5.4856   16.4352  -33.8309 H   0  0  0  0  0  0  0  0  0  0  0  0
   -5.9175   17.4229  -35.3128 H   0  0  0  0  0  0  0  0  0  0  0  0
   -2.6336   16.5117  -34.4006 H   0  0  0  0  0  0  0  0  0  0  0  0
   -3.8291   16.4183  -35.7381 H   0  0  0  0  0  0  0  0  0  0  0  0
   -2.5804   17.7096  -35.7381 H   0  0  0  0  0  0  0  0  0  0  0  0
   -4.1587   17.8286  -32.2463 H   0  0  0  0  0  0  0  0  0  0  0  0
   -2.5305   18.0019  -33.0067 H   0  0  0  0  0  0  0  0  0  0  0  0
   -2.1015   20.5535  -34.2338 H   0  0  0  0  0  0  0  0  0  0  0  0
   -6.7217   22.5072  -32.4388 H   0  0  0  0  0  0  0  0  0  0  0  0
   -7.9197   24.3642  -31.2990 H   0  0  0  0  0  0  0  0  0  0  0  0
   -6.7430   25.7657  -29.6127 H   0  0  0  0  0  0  0  0  0  0  0  0
   -4.3675   25.2986  -29.0364 H   0  0  0  0  0  0  0  0  0  0  0  0
   -2.6973   23.3515  -28.8928 H   0  0  0  0  0  0  0  0  0  0  0  0
   -2.4344   22.3898  -30.3871 H   0  0  0  0  0  0  0  0  0  0  0  0
   -2.1091   24.1564  -30.3871 H   0  0  0  0  0  0  0  0  0  0  0  0
   -6.1890   20.0698  -34.6650 H   0  0  0  0  0  0  0  0  0  0  0  0
   -7.7642   21.4605  -33.3276 H   0  0  0  0  0  0  0  0  0  0  0  0
  1  2  1  0
  2  3  1  0
  3  4  2  0
  4  5  1  0
  5  6  2  0
  6  7  1  0
  7  8  1  0
  8  9  1  0
  8 10  1  0
 10 11  1  0
 11 12  2  0
 12 13  1  0
 13 14  1  0
 14 15  1  0
 15 16  2  0
 16 17  1  0
 17 18  2  0
 18 19  1  0
 19 20  2  0
 20 21  1  0
 14 22  2  0
  6 23  1  0
 23 24  2  0
 24  3  1  0
 22 11  1  0
 20 15  1  0
  1 25  1  0
  1 26  1  0
  1 27  1  0
  4 28  1  0
  5 29  1  0
  7 30  1  0
  7 31  1  0
  9 32  1  0
  9 33  1  0
  9 34  1  0
 10 35  1  0
 10 36  1  0
 12 37  1  0
 16 38  1  0
 17 39  1  0
 18 40  1  0
 19 41  1  0
 21 42  1  0
 21 43  1  0
 21 44  1  0
 23 45  1  0
 24 46  1  0
M  END
>  <UniqueID>  (23) 
22

>  <SMILES>  (23) 
COc1ccc(CN(C)Cc2coc(-c3ccccc3C)n2)cc1

>  <Energy>  (23) 
81.9876267932704

>  <Genealogy>  (23) 
COc1ccc(CN(C)Cc2coc(-c3ccccc3C)n2)cc1 (3D coordinates assigned)
COc1ccc(CN(C)Cc2coc(-c3ccccc3C)n2)cc1 (optimized conformer: 81.9876267932704 kcal/mol)

>  <smiles>  (23) 
COc1ccc(CN(C)Cc2coc(-c3ccccc3C)n2)cc1

>  <score_type>  (23) 
oracle

>  <origin>  (23) 
adgpu

>  <m_score__min__energy>  (23) 
-8.7200000000000006

>  <m_primary>  (23) 
energy

$$$$
23:0
     RDKit          3D

 27 28  0  0  0  0  0  0  0  0999 V2000
    0.8160   25.6560  -27.0870 H   0  0  0  0  0  0  0  0  0  0  0  0
    0.6870   25.0070  -27.8530 O   0  0  0  0  0  0  0  0  0  0  0  0
   -0.5470   24.4310  -28.1630 C   0  0  0  0  0  0  0  0  0  0  0  0
   -1.4100   25.1380  -29.0070 C   0  0  0  0  0  0  0  0  0  0  0  0
   -1.1241   26.1374  -29.3668 H   0  0  0  0  0  0  0  0  0  0  0  0
   -2.6310   24.5850  -29.3960 C   0  0  0  0  0  0  0  0  0  0  0  0
   -3.4790   25.2950  -30.2370 O   0  0  0  0  0  0  0  0  0  0  0  0
   -3.0000   23.3170  -28.9430 C   0  0  0  0  0  0  0  0  0  0  0  0
   -3.9583   22.8799  -29.2601 H   0  0  0  0  0  0  0  0  0  0  0  0
   -2.1570   22.6000  -28.0880 C   0  0  0  0  0  0  0  0  0  0  0  0
   -2.7400   20.8770  -27.4750 Br  0  0  0  0  0  0  0  0  0  0  0  0
   -0.9310   23.1600  -27.6690 C   0  0  0  0  0  0  0  0  0  0  0  0
   -0.0690   22.4040  -26.7360 C   0  0  0  0  0  0  0  0  0  0  0  0
    0.1518   21.3541  -26.9786 H   0  0  0  0  0  0  0  0  0  0  0  0
    0.4630   22.9120  -25.6120 C   0  0  0  0  0  0  0  0  0  0  0  0
    1.1343   22.2642  -25.0292 H   0  0  0  0  0  0  0  0  0  0  0  0
    0.2140   24.2770  -25.0990 C   0  0  0  0  0  0  0  0  0  0  0  0
   -1.0870   24.8030  -24.9900 C   0  0  0  0  0  0  0  0  0  0  0  0
   -1.9506   24.1979  -25.3032 H   0  0  0  0  0  0  0  0  0  0  0  0
   -1.2860   26.0920  -24.4850 C   0  0  0  0  0  0  0  0  0  0  0  0
   -2.3039   26.5032  -24.4162 H   0  0  0  0  0  0  0  0  0  0  0  0
   -0.1960   26.8580  -24.0680 C   0  0  0  0  0  0  0  0  0  0  0  0
   -0.3544   27.8747  -23.6791 H   0  0  0  0  0  0  0  0  0  0  0  0
    1.0970   26.3320  -24.1450 C   0  0  0  0  0  0  0  0  0  0  0  0
    1.9551   26.9321  -23.8079 H   0  0  0  0  0  0  0  0  0  0  0  0
    1.3010   25.0440  -24.6500 C   0  0  0  0  0  0  0  0  0  0  0  0
    2.3188   24.6294  -24.6957 H   0  0  0  0  0  0  0  0  0  0  0  0
  1  2  1  0
  2  3  1  0
  3  4  2  0
  4  5  1  0
  4  6  1  0
  6  7  1  0
  6  8  2  0
  8  9  1  0
  8 10  1  0
 10 11  1  0
 10 12  2  0
 12 13  1  0
 13 14  1  0
 13 15  2  0
 15 16  1  0
 15 17  1  0
 17 18  2  0
 18 19  1  0
 18 20  1  0
 20 21  1  0
 20 22  2  0
 22 23  1  0
 22 24  1  0
 24 25  1  0
 24 26  2  0
 26 27  1  0
 12  3  1  0
 26 17  1  0
M  CHG  1   7  -1
M  END
>  <UniqueID>  (24) 
23

>  <SMILES>  (24) 
[O-]c1cc(O)c(/C=C\c2ccccc2)c(Br)c1

>  <Energy>  (24) 
40.407690204540415

>  <Genealogy>  (24) 
[O-]c1cc(O)c(C=Cc2ccccc2)c(Br)c1 (protonated)
[O-]c1cc(O)c(/C=C\c2ccccc2)c(Br)c1 (cis-trans isomerization)
[O-]c1cc(O)c(/C=C\c2ccccc2)c(Br)c1 (3D coordinates assigned)
[O-]c1cc(O)c(/C=C\c2ccccc2)c(Br)c1 (optimized conformer: 40.407690204540415 kcal/mol)

>  <smiles>  (24) 
Oc1cc(O)c(C=Cc2ccccc2)c(Br)c1

>  <score_type>  (24) 
oracle

>  <origin>  (24) 
adgpu

>  <m_score__min__energy>  (24) 
-8.5299999999999994

>  <m_primary>  (24) 
energy

$$$$
24:0
     RDKit          3D

 28 29  0  0  0  0  0  0  0  0999 V2000
   -5.7273   25.3258  -29.6698 H   0  0  0  0  0  0  0  0  0  0  0  0
   -5.5700   24.2510  -29.8430 C   0  0  0  0  0  0  0  0  0  0  0  0
   -4.5440   23.6540  -29.3120 N   0  0  0  0  0  0  0  0  0  0  0  0
   -3.5310   24.2590  -28.4890 C   0  0  0  0  0  0  0  0  0  0  0  0
   -3.8480   24.5440  -27.1530 C   0  0  0  0  0  0  0  0  0  0  0  0
   -4.8516   24.3094  -26.7687 H   0  0  0  0  0  0  0  0  0  0  0  0
   -2.8990   25.1240  -26.3050 C   0  0  0  0  0  0  0  0  0  0  0  0
   -3.1597   25.3481  -25.2601 H   0  0  0  0  0  0  0  0  0  0  0  0
   -1.6200   25.4190  -26.7840 C   0  0  0  0  0  0  0  0  0  0  0  0
   -0.8759   25.8803  -26.1181 H   0  0  0  0  0  0  0  0  0  0  0  0
   -1.2870   25.1280  -28.1080 C   0  0  0  0  0  0  0  0  0  0  0  0
   -0.2781   25.3562  -28.4822 H   0  0  0  0  0  0  0  0  0  0  0  0
   -2.2320   24.5470  -28.9610 C   0  0  0  0  0  0  0  0  0  0  0  0
   -1.9621   24.3142  -30.0016 H   0  0  0  0  0  0  0  0  0  0  0  0
   -6.5180   23.5000  -30.6710 C   0  0  0  0  0  0  0  0  0  0  0  0
   -7.1496   24.0319  -31.3977 H   0  0  0  0  0  0  0  0  0  0  0  0
   -6.6170   22.2100  -30.5520 N   0  0  0  0  0  0  0  0  0  0  0  0
   -7.5040   21.3460  -31.2850 C   0  0  0  0  0  0  0  0  0  0  0  0
   -8.8280   21.7060  -31.6110 C   0  0  0  0  0  0  0  0  0  0  0  0
   -9.2194   22.6884  -31.3082 H   0  0  0  0  0  0  0  0  0  0  0  0
   -9.6450   20.8180  -32.3180 C   0  0  0  0  0  0  0  0  0  0  0  0
  -10.6755   21.1060  -32.5732 H   0  0  0  0  0  0  0  0  0  0  0  0
   -9.1570   19.5670  -32.7010 C   0  0  0  0  0  0  0  0  0  0  0  0
   -9.8005   18.8733  -33.2619 H   0  0  0  0  0  0  0  0  0  0  0  0
   -7.8500   19.1970  -32.3710 C   0  0  0  0  0  0  0  0  0  0  0  0
   -7.2400   17.6220  -32.8440 Cl  0  0  0  0  0  0  0  0  0  0  0  0
   -7.0300   20.0820  -31.6630 C   0  0  0  0  0  0  0  0  0  0  0  0
   -6.0043   19.7835  -31.4006 H   0  0  0  0  0  0  0  0  0  0  0  0
  1  2  1  0
  2  3  2  0
  3  4  1  0
  4  5  2  0
  5  6  1  0
  5  7  1  0
  7  8  1  0
  7  9  2  0
  9 10  1  0
  9 11  1  0
 11 12  1  0
 11 13  2  0
 13 14  1  0
  2 15  1  0
 15 16  1  0
 15 17  2  0
 17 18  1  0
 18 19  2  0
 19 20  1  0
 19 21  1  0
 21 22  1  0
 21 23  2  0
 23 24  1  0
 23 25  1  0
 25 26  1  0
 25 27  2  0
 27 28  1  0
 13  4  1  0
 27 18  1  0
M  END
>  <UniqueID>  (25) 
24

>  <SMILES>  (25) 
Clc1cccc(/N=C/C=N/c2ccccc2)c1

>  <Energy>  (25) 
32.4900272309818

>  <Genealogy>  (25) 
Clc1cccc(/N=C/C=N/c2ccccc2)c1 (cis-trans isomerization)
Clc1cccc(/N=C/C=N/c2ccccc2)c1 (3D coordinates assigned)
Clc1cccc(/N=C/C=N/c2ccccc2)c1 (optimized conformer: 32.4900272309818 kcal/mol)

>  <smiles>  (25) 
Clc1cccc(N=CC=Nc2ccccc2)c1

>  <score_type>  (25) 
oracle

>  <origin>  (25) 
adgpu

>  <m_score__min__energy>  (25) 
-6.5300000000000002

>  <m_primary>  (25) 
energy

$$$$
25:0
     RDKit          3D

 46 47  0  0  0  0  0  0  0  0999 V2000
   -2.8350   18.6010  -34.0990 C   0  0  0  0  0  0  0  0  0  0  0  0
   -3.7290   19.6290  -33.4710 C   0  0  0  0  0  0  0  0  0  0  0  0
   -3.1780   20.7560  -32.8450 C   0  0  0  0  0  0  0  0  0  0  0  0
   -4.0100   21.7320  -32.2870 C   0  0  0  0  0  0  0  0  0  0  0  0
   -5.4070   21.6020  -32.3610 C   0  0  0  0  0  0  0  0  0  0  0  0
   -6.2690   22.5820  -31.7490 N   0  0  0  0  0  0  0  0  0  0  0  0
   -5.9530   24.0150  -31.8240 C   0  0  0  0  0  0  0  0  0  0  0  0
   -4.9370   24.3990  -30.7880 C   0  0  0  0  0  0  0  0  0  0  0  0
   -4.2460   25.4400  -30.9550 O   0  0  0  0  0  0  0  0  0  0  0  0
   -4.7990   23.6220  -29.5890 N   0  0  0  0  0  0  0  0  0  0  0  0
   -3.8480   23.9490  -28.5650 C   0  0  0  0  0  0  0  0  0  0  0  0
   -4.3100   24.5450  -27.3850 C   0  0  0  0  0  0  0  0  0  0  0  0
   -3.4180   24.9000  -26.3710 C   0  0  0  0  0  0  0  0  0  0  0  0
   -2.0470   24.6650  -26.5240 C   0  0  0  0  0  0  0  0  0  0  0  0
   -1.0920   25.0210  -25.4220 C   0  0  0  0  0  0  0  0  0  0  0  0
   -1.5820   24.0230  -27.6810 C   0  0  0  0  0  0  0  0  0  0  0  0
   -2.4730   23.6440  -28.6990 C   0  0  0  0  0  0  0  0  0  0  0  0
   -1.9350   22.9240  -29.9060 C   0  0  0  0  0  0  0  0  0  0  0  0
   -7.7020   22.0760  -30.8990 S   0  0  0  0  0  0  0  0  0  0  0  0
   -9.1580   22.6540  -31.7450 C   0  0  0  0  0  0  0  0  0  0  0  0
   -7.7640   20.5740  -30.8460 O   0  0  0  0  0  0  0  0  0  0  0  0
   -7.6760   22.6190  -29.4980 O   0  0  0  0  0  0  0  0  0  0  0  0
   -5.9550   20.4800  -33.0030 C   0  0  0  0  0  0  0  0  0  0  0  0
   -5.1230   19.5050  -33.5610 C   0  0  0  0  0  0  0  0  0  0  0  0
   -2.3316   18.0221  -33.3107 H   0  0  0  0  0  0  0  0  0  0  0  0
   -3.4367   17.9242  -34.7234 H   0  0  0  0  0  0  0  0  0  0  0  0
   -2.0812   19.1029  -34.7234 H   0  0  0  0  0  0  0  0  0  0  0  0
   -2.0855   20.8733  -32.7924 H   0  0  0  0  0  0  0  0  0  0  0  0
   -3.5680   22.6066  -31.7872 H   0  0  0  0  0  0  0  0  0  0  0  0
   -5.5517   24.2427  -32.8225 H   0  0  0  0  0  0  0  0  0  0  0  0
   -6.8745   24.5863  -31.6384 H   0  0  0  0  0  0  0  0  0  0  0  0
   -5.5450   22.9260  -29.3630 H   0  0  0  0  0  0  0  0  0  0  0  0
   -5.3857   24.7353  -27.2557 H   0  0  0  0  0  0  0  0  0  0  0  0
   -3.7944   25.3661  -25.4485 H   0  0  0  0  0  0  0  0  0  0  0  0
   -1.5721   24.8420  -24.4486 H   0  0  0  0  0  0  0  0  0  0  0  0
   -0.1883   24.3994  -25.5049 H   0  0  0  0  0  0  0  0  0  0  0  0
   -0.8157   26.0825  -25.5049 H   0  0  0  0  0  0  0  0  0  0  0  0
   -0.5078   23.8139  -27.7926 H   0  0  0  0  0  0  0  0  0  0  0  0
   -1.3060   22.0822  -29.5807 H   0  0  0  0  0  0  0  0  0  0  0  0
   -2.7723   22.5441  -30.5098 H   0  0  0  0  0  0  0  0  0  0  0  0
   -1.3334   23.6193  -30.5098 H   0  0  0  0  0  0  0  0  0  0  0  0
   -9.9159   22.9549  -31.0067 H   0  0  0  0  0  0  0  0  0  0  0  0
   -8.8975   23.5169  -32.3755 H   0  0  0  0  0  0  0  0  0  0  0  0
   -9.5602   21.8473  -32.3755 H   0  0  0  0  0  0  0  0  0  0  0  0
   -7.0473   20.3673  -33.0674 H   0  0  0  0  0  0  0  0  0  0  0  0
   -5.5636   18.6368  -34.0729 H   0  0  0  0  0  0  0  0  0  0  0  0
  1  2  1  0
  2  3  2  0
  3  4  1  0
  4  5  2  0
  5  6  1  0
  6  7  1  0
  7  8  1  0
  8  9  2  0
  8 10  1  0
 10 11  1  0
 11 12  2  0
 12 13  1  0
 13 14  2  0
 14 15  1  0
 14 16  1  0
 16 17  2  0
 17 18  1  0
  6 19  1  0
 19 20  1  0
 19 21  2  0
 19 22  2  0
  5 23  1  0
 23 24  2  0
 24  2  1  0
 17 11  1  0
  1 25  1  0
  1 26  1  0
  1 27  1  0
  3 28  1  0
  4 29  1  0
  7 30  1  0
  7 31  1  0
 10 32  1  0
 12 33  1  0
 13 34  1  0
 15 35  1  0
 15 36  1  0
 15 37  1  0
 16 38  1  0
 18 39  1  0
 18 40  1  0
 18 41  1  0
 20 42  1  0
 20 43  1  0
 20 44  1  0
 23 45  1  0
 24 46  1  0
M  END
>  <UniqueID>  (26) 
25

>  <SMILES>  (26) 
Cc1ccc(N(CC(=O)Nc2ccc(C)cc2C)S(C)(=O)=O)cc1

>  <Energy>  (26) 
47.33116480126159

>  <Genealogy>  (26) 
Cc1ccc(N(CC(=O)Nc2ccc(C)cc2C)S(C)(=O)=O)cc1 (3D coordinates assigned)
Cc1ccc(N(CC(=O)Nc2ccc(C)cc2C)S(C)(=O)=O)cc1 (optimized conformer: 47.33116480126159 kcal/mol)

>  <smiles>  (26) 
Cc1ccc(N(CC(=O)Nc2ccc(C)cc2C)S(C)(=O)=O)cc1

>  <score_type>  (26) 
oracle

>  <origin>  (26) 
adgpu

>  <m_score__min__energy>  (26) 
-8.7100000000000009

>  <m_primary>  (26) 
energy

$$$$
26:0
     RDKit          3D

 44 46  0  0  0  0  0  0  0  0999 V2000
   -9.5080   21.6070  -31.7970 C   0  0  0  0  0  0  0  0  0  0  0  0
   -8.4150   21.6760  -30.7380 C   0  0  0  0  0  0  0  0  0  0  0  0
   -7.3840   22.6280  -31.1390 N   0  0  0  0  0  0  0  0  0  0  0  0
   -6.8050   23.5430  -30.3410 C   0  0  0  0  0  0  0  0  0  0  0  0
   -5.8370   24.1960  -31.0760 C   0  0  0  0  0  0  0  0  0  0  0  0
   -4.9690   25.3130  -30.6580 C   0  0  0  0  0  0  0  0  0  0  0  0
   -5.4860   26.4460  -30.4760 O   0  0  0  0  0  0  0  0  0  0  0  0
   -3.5580   25.1610  -30.4440 N   0  0  0  0  0  0  0  0  0  0  0  0
   -2.9170   24.1540  -29.5980 C   0  0  2  0  0  0  0  0  0  0  0  0
   -1.8560   24.8490  -28.7220 C   0  0  0  0  0  0  0  0  0  0  0  0
   -0.9380   23.8330  -28.0020 C   0  0  0  0  0  0  0  0  0  0  0  0
    0.2070   24.5810  -27.3060 C   0  0  0  0  0  0  0  0  0  0  0  0
   -1.7200   23.0180  -26.9530 C   0  0  0  0  0  0  0  0  0  0  0  0
   -0.3700   22.9380  -28.9630 O   0  0  0  0  0  0  0  0  0  0  0  0
   -1.0640   22.4920  -30.0940 C   0  0  0  0  0  0  0  0  0  0  0  0
   -0.5100   21.4730  -30.8730 C   0  0  0  0  0  0  0  0  0  0  0  0
   -1.1920   20.9890  -31.9910 C   0  0  0  0  0  0  0  0  0  0  0  0
   -2.4420   21.5190  -32.3360 C   0  0  0  0  0  0  0  0  0  0  0  0
   -3.1510   21.0090  -33.4700 N   0  0  0  0  0  0  0  0  0  0  0  0
   -2.9970   22.5490  -31.5640 C   0  0  0  0  0  0  0  0  0  0  0  0
   -2.3000   23.0670  -30.4570 C   0  0  0  0  0  0  0  0  0  0  0  0
   -5.8990   23.6290  -32.3360 C   0  0  0  0  0  0  0  0  0  0  0  0
   -6.8390   22.6640  -32.3450 N   0  0  0  0  0  0  0  0  0  0  0  0
  -10.4905   21.5450  -31.3063 H   0  0  0  0  0  0  0  0  0  0  0  0
   -9.4679   22.5095  -32.4247 H   0  0  0  0  0  0  0  0  0  0  0  0
   -9.3547   20.7167  -32.4247 H   0  0  0  0  0  0  0  0  0  0  0  0
   -8.8547   21.9977  -29.7824 H   0  0  0  0  0  0  0  0  0  0  0  0
   -7.9604   20.6806  -30.6260 H   0  0  0  0  0  0  0  0  0  0  0  0
   -7.0585   23.7365  -29.2882 H   0  0  0  0  0  0  0  0  0  0  0  0
   -3.6615   23.6753  -28.9449 H   0  0  0  0  0  0  0  0  0  0  0  0
   -1.2367   25.4954  -29.3612 H   0  0  0  0  0  0  0  0  0  0  0  0
   -2.3823   25.4336  -27.9530 H   0  0  0  0  0  0  0  0  0  0  0  0
    0.0868   24.5025  -26.2154 H   0  0  0  0  0  0  0  0  0  0  0  0
    1.1687   24.1364  -27.6018 H   0  0  0  0  0  0  0  0  0  0  0  0
    0.1863   25.6403  -27.6018 H   0  0  0  0  0  0  0  0  0  0  0  0
   -1.4174   23.3334  -25.9436 H   0  0  0  0  0  0  0  0  0  0  0  0
   -2.7984   23.1913  -27.0834 H   0  0  0  0  0  0  0  0  0  0  0  0
   -1.5023   21.9477  -27.0834 H   0  0  0  0  0  0  0  0  0  0  0  0
    0.4690   21.0497  -30.6040 H   0  0  0  0  0  0  0  0  0  0  0  0
   -0.7469   20.1900  -32.6021 H   0  0  0  0  0  0  0  0  0  0  0  0
   -3.8010   20.1980  -33.3720 H   0  0  0  0  0  0  0  0  0  0  0  0
   -3.0280   21.4370  -34.4140 H   0  0  0  0  0  0  0  0  0  0  0  0
   -3.9851   22.9554  -31.8257 H   0  0  0  0  0  0  0  0  0  0  0  0
   -5.2781   23.9203  -33.1960 H   0  0  0  0  0  0  0  0  0  0  0  0
  1  2  1  0
  2  3  1  0
  3  4  1  0
  4  5  2  0
  5  6  1  0
  6  7  2  0
  6  8  1  0
  8  9  1  0
  9 10  1  0
 10 11  1  0
 11 12  1  0
 11 13  1  0
 11 14  1  0
 14 15  1  0
 15 16  2  0
 16 17  1  0
 17 18  2  0
 18 19  1  0
 18 20  1  0
 20 21  2  0
  5 22  1  0
 22 23  2  0
 23  3  1  0
 21  9  1  0
 21 15  1  0
  1 24  1  0
  1 25  1  0
  1 26  1  0
  2 27  1  0
  2 28  1  0
  4 29  1  0
  9 30  1  1
 10 31  1  0
 10 32  1  0
 12 33  1  0
 12 34  1  0
 12 35  1  0
 13 36  1  0
 13 37  1  0
 13 38  1  0
 16 39  1  0
 17 40  1  0
 19 41  1  0
 19 42  1  0
 20 43  1  0
 22 44  1  0
M  CHG  1   8  -1
M  END
>  <UniqueID>  (27) 
26

>  <SMILES>  (27) 
CCn1cc(C(=O)[N-][C@@H]2CC(C)(C)Oc3ccc(N)cc32)cn1

>  <Energy>  (27) 
72.13606404535321

>  <Genealogy>  (27) 
CCn1cc(C(=O)[N-]C2CC(C)(C)Oc3ccc(N)cc32)cn1 (protonated)
CCn1cc(C(=O)[N-][C@@H]2CC(C)(C)Oc3ccc(N)cc32)cn1 (chirality)
CCn1cc(C(=O)[N-][C@@H]2CC(C)(C)Oc3ccc(N)cc32)cn1 (3D coordinates assigned)
CCn1cc(C(=O)[N-][C@@H]2CC(C)(C)Oc3ccc(N)cc32)cn1 (nonaromatic ring conformer: 72.13606404535321 kcal/mol)

>  <smiles>  (27) 
CCn1cc(C(=O)NC2CC(C)(C)Oc3ccc(N)cc32)cn1

>  <score_type>  (27) 
oracle

>  <origin>  (27) 
adgpu

>  <m_score__min__energy>  (27) 
-9.0800000000000001

>  <m_primary>  (27) 
energy

$$$$
27:0
     RDKit          3D

 48 50  0  0  0  0  0  0  0  0999 V2000
   -1.5000   19.6900  -27.5360 C   0  0  0  0  0  0  0  0  0  0  0  0
   -2.2940   20.7640  -28.2190 C   0  0  0  0  0  0  0  0  0  0  0  0
   -2.4000   20.7790  -29.6140 C   0  0  0  0  0  0  0  0  0  0  0  0
   -3.0950   21.8070  -30.2690 C   0  0  0  0  0  0  0  0  0  0  0  0
   -3.1580   21.7960  -31.7730 C   0  0  0  0  0  0  0  0  0  0  0  0
   -3.7320   22.8150  -29.5080 C   0  0  0  0  0  0  0  0  0  0  0  0
   -4.4950   23.8400  -30.1600 N   0  0  0  0  0  0  0  0  0  0  0  0
   -3.9910   24.9320  -30.7040 N   0  0  0  0  0  0  0  0  0  0  0  0
   -4.9850   25.6460  -31.2140 N   0  0  0  0  0  0  0  0  0  0  0  0
   -6.1440   25.0330  -31.0030 N   0  0  0  0  0  0  0  0  0  0  0  0
   -5.8240   23.9080  -30.3390 C   0  0  0  0  0  0  0  0  0  0  0  0
   -7.0220   22.7000  -29.7600 S   0  0  0  0  0  0  0  0  0  0  0  0
   -7.8670   22.5260  -31.3690 C   0  0  0  0  0  0  0  0  0  0  0  0
   -7.4270   21.2680  -32.0700 C   0  0  0  0  0  0  0  0  0  0  0  0
   -6.1740   21.2080  -32.6960 C   0  0  0  0  0  0  0  0  0  0  0  0
   -5.7490   20.0340  -33.3210 C   0  0  0  0  0  0  0  0  0  0  0  0
   -6.5690   18.8890  -33.3350 C   0  0  0  0  0  0  0  0  0  0  0  0
   -6.1250   17.6690  -33.9800 N   0  0  0  0  0  0  0  0  0  0  0  0
   -5.0260   17.7000  -34.9510 C   0  0  0  0  0  0  0  0  0  0  0  0
   -6.7740   16.3890  -33.6730 C   0  0  0  0  0  0  0  0  0  0  0  0
   -7.8260   18.9560  -32.7030 C   0  0  0  0  0  0  0  0  0  0  0  0
   -8.2510   20.1330  -32.0780 C   0  0  0  0  0  0  0  0  0  0  0  0
   -9.4670   20.1600  -31.4760 F   0  0  0  0  0  0  0  0  0  0  0  0
   -3.6000   22.8180  -28.1020 C   0  0  0  0  0  0  0  0  0  0  0  0
   -4.1900   23.9230  -27.2680 C   0  0  0  0  0  0  0  0  0  0  0  0
   -2.8660   21.8010  -27.4720 C   0  0  0  0  0  0  0  0  0  0  0  0
   -1.5866   19.8072  -26.4457 H   0  0  0  0  0  0  0  0  0  0  0  0
   -1.8878   18.7037  -27.8307 H   0  0  0  0  0  0  0  0  0  0  0  0
   -0.4434   19.7716  -27.8307 H   0  0  0  0  0  0  0  0  0  0  0  0
   -1.9334   19.9762  -30.2037 H   0  0  0  0  0  0  0  0  0  0  0  0
   -4.1941   21.6151  -32.0953 H   0  0  0  0  0  0  0  0  0  0  0  0
   -2.8175   22.7672  -32.1614 H   0  0  0  0  0  0  0  0  0  0  0  0
   -2.5085   20.9977  -32.1614 H   0  0  0  0  0  0  0  0  0  0  0  0
   -8.9537   22.4854  -31.2033 H   0  0  0  0  0  0  0  0  0  0  0  0
   -7.6081   23.3899  -31.9988 H   0  0  0  0  0  0  0  0  0  0  0  0
   -5.5205   22.0928  -32.6948 H   0  0  0  0  0  0  0  0  0  0  0  0
   -4.7630   20.0030  -33.8077 H   0  0  0  0  0  0  0  0  0  0  0  0
   -4.0650   17.7271  -34.4164 H   0  0  0  0  0  0  0  0  0  0  0  0
   -5.0691   16.8003  -35.5824 H   0  0  0  0  0  0  0  0  0  0  0  0
   -5.1197   18.5959  -35.5824 H   0  0  0  0  0  0  0  0  0  0  0  0
   -6.8380   16.2627  -32.5822 H   0  0  0  0  0  0  0  0  0  0  0  0
   -7.7863   16.3786  -34.1034 H   0  0  0  0  0  0  0  0  0  0  0  0
   -6.1841   15.5663  -34.1034 H   0  0  0  0  0  0  0  0  0  0  0  0
   -8.4811   18.0724  -32.7009 H   0  0  0  0  0  0  0  0  0  0  0  0
   -4.0630   23.6852  -26.2015 H   0  0  0  0  0  0  0  0  0  0  0  0
   -3.6768   24.8688  -27.4964 H   0  0  0  0  0  0  0  0  0  0  0  0
   -5.2614   24.0227  -27.4964 H   0  0  0  0  0  0  0  0  0  0  0  0
   -2.7387   21.8188  -26.3795 H   0  0  0  0  0  0  0  0  0  0  0  0
  1  2  1  0
  2  3  2  0
  3  4  1  0
  4  5  1  0
  4  6  2  0
  6  7  1  0
  7  8  1  0
  8  9  2  0
  9 10  1  0
 10 11  2  0
 11 12  1  0
 12 13  1  0
 13 14  1  0
 14 15  2  0
 15 16  1  0
 16 17  2  0
 17 18  1  0
 18 19  1  0
 18 20  1  0
 17 21  1  0
 21 22  2  0
 22 23  1  0
  6 24  1  0
 24 25  1  0
 24 26  2  0
 26  2  1  0
 11  7  1  0
 22 14  1  0
  1 27  1  0
  1 28  1  0
  1 29  1  0
  3 30  1  0
  5 31  1  0
  5 32  1  0
  5 33  1  0
 13 34  1  0
 13 35  1  0
 15 36  1  0
 16 37  1  0
 19 38  1  0
 19 39  1  0
 19 40  1  0
 20 41  1  0
 20 42  1  0
 20 43  1  0
 21 44  1  0
 25 45  1  0
 25 46  1  0
 25 47  1  0
 26 48  1  0
M  END
>  <UniqueID>  (28) 
27

>  <SMILES>  (28) 
Cc1cc(C)c(-n2nnnc2SCc2ccc(N(C)C)cc2F)c(C)c1

>  <Energy>  (28) 
92.72897850929792

>  <Genealogy>  (28) 
Cc1cc(C)c(-n2nnnc2SCc2ccc(N(C)C)cc2F)c(C)c1 (3D coordinates assigned)
Cc1cc(C)c(-n2nnnc2SCc2ccc(N(C)C)cc2F)c(C)c1 (optimized conformer: 92.72897850929792 kcal/mol)

>  <smiles>  (28) 
Cc1cc(C)c(-n2nnnc2SCc2ccc(N(C)C)cc2F)c(C)c1

>  <score_type>  (28) 
oracle

>  <origin>  (28) 
adgpu

>  <m_score__min__energy>  (28) 
-9.5500000000000007

>  <m_primary>  (28) 
energy

$$$$
28:0
     RDKit          3D

 48 50  0  0  0  0  0  0  0  0999 V2000
   -6.3490   19.7310  -32.6780 C   0  0  0  0  0  0  0  0  0  0  0  0
   -7.7960   19.4940  -32.7680 N   0  0  0  0  0  0  0  0  0  0  0  0
   -8.1160   18.1340  -32.3210 C   0  0  0  0  0  0  0  0  0  0  0  0
   -8.6480   20.6590  -31.7820 S   0  0  0  0  0  0  0  0  0  0  0  0
   -9.0940   20.0010  -30.5060 O   0  0  0  0  0  0  0  0  0  0  0  0
   -9.8740   21.1310  -32.5140 O   0  0  0  0  0  0  0  0  0  0  0  0
   -7.6310   22.0490  -31.3950 C   0  0  0  0  0  0  0  0  0  0  0  0
   -7.5100   22.4860  -30.0700 C   0  0  0  0  0  0  0  0  0  0  0  0
   -6.6970   23.5800  -29.7600 C   0  0  0  0  0  0  0  0  0  0  0  0
   -5.9920   24.2560  -30.7730 C   0  0  0  0  0  0  0  0  0  0  0  0
   -5.1300   25.4170  -30.4470 C   0  0  0  0  0  0  0  0  0  0  0  0
   -5.6540   26.5370  -30.2000 O   0  0  0  0  0  0  0  0  0  0  0  0
   -3.7030   25.2790  -30.4680 N   0  0  0  0  0  0  0  0  0  0  0  0
   -2.9040   24.5140  -29.5550 C   0  0  0  0  0  0  0  0  0  0  0  0
   -2.9730   23.1160  -29.6100 C   0  0  0  0  0  0  0  0  0  0  0  0
   -2.2280   22.3330  -28.7230 C   0  0  0  0  0  0  0  0  0  0  0  0
   -1.4160   22.9420  -27.7570 C   0  0  0  0  0  0  0  0  0  0  0  0
   -0.4870   21.9690  -26.6230 S   0  0  0  0  0  0  0  0  0  0  0  0
   -0.8410   22.3800  -25.2210 O   0  0  0  0  0  0  0  0  0  0  0  0
    0.9890   22.1700  -26.8320 O   0  0  0  0  0  0  0  0  0  0  0  0
   -0.8640   20.2880  -26.8380 N   0  0  0  0  0  0  0  0  0  0  0  0
   -0.0960   19.4530  -27.4680 C   0  0  0  0  0  0  0  0  0  0  0  0
   -0.4810   18.1540  -27.5890 N   0  0  0  0  0  0  0  0  0  0  0  0
    0.2940   17.2510  -28.2450 C   0  0  0  0  0  0  0  0  0  0  0  0
    1.5060   17.6530  -28.8070 C   0  0  0  0  0  0  0  0  0  0  0  0
    1.8880   18.9860  -28.6750 C   0  0  0  0  0  0  0  0  0  0  0  0
    1.0860   19.8580  -28.0110 N   0  0  0  0  0  0  0  0  0  0  0  0
   -1.3600   24.3400  -27.6830 C   0  0  0  0  0  0  0  0  0  0  0  0
   -2.1040   25.1240  -28.5700 C   0  0  0  0  0  0  0  0  0  0  0  0
   -6.1220   23.8120  -32.1020 C   0  0  0  0  0  0  0  0  0  0  0  0
   -6.9350   22.7170  -32.4080 C   0  0  0  0  0  0  0  0  0  0  0  0
   -6.0505   19.7799  -31.6204 H   0  0  0  0  0  0  0  0  0  0  0  0
   -5.8113   18.9090  -33.1731 H   0  0  0  0  0  0  0  0  0  0  0  0
   -6.1017   20.6816  -33.1731 H   0  0  0  0  0  0  0  0  0  0  0  0
   -8.1236   18.1017  -31.2215 H   0  0  0  0  0  0  0  0  0  0  0  0
   -9.1064   17.8460  -32.7031 H   0  0  0  0  0  0  0  0  0  0  0  0
   -7.3579   17.4345  -32.7031 H   0  0  0  0  0  0  0  0  0  0  0  0
   -8.0571   21.9661  -29.2698 H   0  0  0  0  0  0  0  0  0  0  0  0
   -6.6076   23.9151  -28.7161 H   0  0  0  0  0  0  0  0  0  0  0  0
   -3.6183   22.6304  -30.3568 H   0  0  0  0  0  0  0  0  0  0  0  0
   -2.2795   21.2359  -28.7837 H   0  0  0  0  0  0  0  0  0  0  0  0
   -0.0337   16.2046  -28.3328 H   0  0  0  0  0  0  0  0  0  0  0  0
    2.1447   16.9345  -29.3416 H   0  0  0  0  0  0  0  0  0  0  0  0
    2.8381   19.3320  -29.1081 H   0  0  0  0  0  0  0  0  0  0  0  0
   -0.7277   24.8231  -26.9235 H   0  0  0  0  0  0  0  0  0  0  0  0
   -2.0642   26.2209  -28.4980 H   0  0  0  0  0  0  0  0  0  0  0  0
   -5.5796   24.3307  -32.9062 H   0  0  0  0  0  0  0  0  0  0  0  0
   -7.0280   22.3788  -33.4506 H   0  0  0  0  0  0  0  0  0  0  0  0
  1  2  1  0
  2  3  1  0
  2  4  1  0
  4  5  2  0
  4  6  2  0
  4  7  1  0
  7  8  2  0
  8  9  1  0
  9 10  2  0
 10 11  1  0
 11 12  2  0
 11 13  1  0
 13 14  1  0
 14 15  2  0
 15 16  1  0
 16 17  2  0
 17 18  1  0
 18 19  2  0
 18 20  2  0
 18 21  1  0
 21 22  2  3
 22 23  1  0
 23 24  2  0
 24 25  1  0
 25 26  2  0
 26 27  1  0
 17 28  1  0
 28 29  2  0
 10 30  1  0
 30 31  2  0
 31  7  1  0
 29 14  1  0
 27 22  1  0
  1 32  1  0
  1 33  1  0
  1 34  1  0
  3 35  1  0
  3 36  1  0
  3 37  1  0
  8 38  1  0
  9 39  1  0
 15 40  1  0
 16 41  1  0
 24 42  1  0
 25 43  1  0
 26 44  1  0
 28 45  1  0
 29 46  1  0
 30 47  1  0
 31 48  1  0
M  CHG  2  13  -1  27  -1
M  END
>  <UniqueID>  (29) 
28

>  <SMILES>  (29) 
CN(C)S(=O)(=O)c1ccc(C(=O)[N-]c2ccc(S(=O)(=O)N=c3nccc[n-]3)cc2)cc1

>  <Energy>  (29) 
56.435729937524165

>  <Genealogy>  (29) 
CN(C)S(=O)(=O)c1ccc(C(=O)[N-]c2ccc(S(=O)(=O)N=c3nccc[n-]3)cc2)cc1 (protonated)
CN(C)S(=O)(=O)c1ccc(C(=O)[N-]c2ccc(S(=O)(=O)N=c3nccc[n-]3)cc2)cc1 (3D coordinates assigned)
CN(C)S(=O)(=O)c1ccc(C(=O)[N-]c2ccc(S(=O)(=O)N=c3nccc[n-]3)cc2)cc1 (optimized conformer: 56.435729937524165 kcal/mol)

>  <smiles>  (29) 
CN(C)S(=O)(=O)c1ccc(C(=O)Nc2ccc(S(=O)(=O)N=c3nccc[nH]3)cc2)cc1

>  <score_type>  (29) 
oracle

>  <origin>  (29) 
adgpu

>  <m_score__min__energy>  (29) 
-11.470000000000001

>  <m_primary>  (29) 
energy

$$$$
29:0
     RDKit          3D

 30 31  0  0  0  0  0  0  0  0999 V2000
   -3.5210   21.9710  -33.0490 O   0  0  0  0  0  0  0  0  0  0  0  0
   -3.4860   21.1830  -32.0660 C   0  0  0  0  0  0  0  0  0  0  0  0
   -3.8610   19.7480  -32.2640 C   0  0  0  0  0  0  0  0  0  0  0  0
   -4.8410   19.5520  -33.7900 S   0  0  0  0  0  0  0  0  0  0  0  0
   -6.4340   19.5650  -32.9610 C   0  0  0  0  0  0  0  0  0  0  0  0
   -7.0710   18.3560  -32.6550 C   0  0  0  0  0  0  0  0  0  0  0  0
   -8.3160   18.3610  -32.0190 C   0  0  0  0  0  0  0  0  0  0  0  0
   -8.9330   19.5750  -31.6980 C   0  0  0  0  0  0  0  0  0  0  0  0
   -8.3050   20.7840  -32.0130 C   0  0  0  0  0  0  0  0  0  0  0  0
   -9.0940   22.3020  -31.6300 Cl  0  0  0  0  0  0  0  0  0  0  0  0
   -7.0560   20.7810  -32.6450 C   0  0  0  0  0  0  0  0  0  0  0  0
   -3.1140   21.6630  -30.7660 N   0  0  0  0  0  0  0  0  0  0  0  0
   -2.7450   23.0540  -30.5200 C   0  0  0  0  0  0  0  0  0  0  0  0
   -3.9690   23.9120  -30.4740 C   0  0  0  0  0  0  0  0  0  0  0  0
   -5.2640   23.4680  -30.2940 C   0  0  0  0  0  0  0  0  0  0  0  0
   -6.0460   24.6030  -30.2930 C   0  0  0  0  0  0  0  0  0  0  0  0
   -5.1840   25.6640  -30.4710 C   0  0  0  0  0  0  0  0  0  0  0  0
   -3.9510   25.2200  -30.5750 O   0  0  0  0  0  0  0  0  0  0  0  0
   -2.9465   19.1415  -32.3401 H   0  0  0  0  0  0  0  0  0  0  0  0
   -4.4648   19.4153  -31.4068 H   0  0  0  0  0  0  0  0  0  0  0  0
   -6.5911   17.4011  -32.9154 H   0  0  0  0  0  0  0  0  0  0  0  0
   -8.8106   17.4103  -31.7709 H   0  0  0  0  0  0  0  0  0  0  0  0
   -9.9126   19.5784  -31.1976 H   0  0  0  0  0  0  0  0  0  0  0  0
   -6.5628   21.7323  -32.8936 H   0  0  0  0  0  0  0  0  0  0  0  0
   -3.0820   20.9920  -29.9650 H   0  0  0  0  0  0  0  0  0  0  0  0
   -2.2151   23.1249  -29.5587 H   0  0  0  0  0  0  0  0  0  0  0  0
   -2.0928   23.4020  -31.3346 H   0  0  0  0  0  0  0  0  0  0  0  0
   -5.6007   22.4274  -30.1762 H   0  0  0  0  0  0  0  0  0  0  0  0
   -7.1384   24.6523  -30.1741 H   0  0  0  0  0  0  0  0  0  0  0  0
   -5.4826   26.7216  -30.5188 H   0  0  0  0  0  0  0  0  0  0  0  0
  1  2  2  0
  2  3  1  0
  3  4  1  0
  4  5  1  0
  5  6  2  0
  6  7  1  0
  7  8  2  0
  8  9  1  0
  9 10  1  0
  9 11  2  0
  2 12  1  0
 12 13  1  0
 13 14  1  0
 14 15  2  0
 15 16  1  0
 16 17  2  0
 17 18  1  0
 11  5  1  0
 18 14  1  0
  3 19  1  0
  3 20  1  0
  6 21  1  0
  7 22  1  0
  8 23  1  0
 11 24  1  0
 12 25  1  0
 13 26  1  0
 13 27  1  0
 15 28  1  0
 16 29  1  0
 17 30  1  0
M  END
>  <UniqueID>  (30) 
29

>  <SMILES>  (30) 
O=C(CSc1cccc(Cl)c1)NCc1ccco1

>  <Energy>  (30) 
45.247036779418636

>  <Genealogy>  (30) 
O=C(CSc1cccc(Cl)c1)NCc1ccco1 (3D coordinates assigned)
O=C(CSc1cccc(Cl)c1)NCc1ccco1 (optimized conformer: 45.247036779418636 kcal/mol)

>  <smiles>  (30) 
O=C(CSc1cccc(Cl)c1)NCc1ccco1

>  <score_type>  (30) 
oracle

>  <origin>  (30) 
adgpu

>  <m_score__min__energy>  (30) 
-8.2400000000000002

>  <m_primary>  (30) 
energy

$$$$
30:0
     RDKit          3D

 44 46  0  0  0  0  0  0  0  0999 V2000
   -4.9770   15.2990  -32.4760 C   0  0  0  0  0  0  0  0  0  0  0  0
   -6.0170   15.9290  -33.2980 N   0  0  0  0  0  0  0  0  0  0  0  0
   -6.8020   15.0930  -34.2150 C   0  0  0  0  0  0  0  0  0  0  0  0
   -6.2630   17.3570  -33.2100 C   0  0  0  0  0  0  0  0  0  0  0  0
   -7.3770   17.8570  -32.5050 C   0  0  0  0  0  0  0  0  0  0  0  0
   -7.6120   19.2320  -32.4200 C   0  0  0  0  0  0  0  0  0  0  0  0
   -6.7450   20.1470  -33.0340 C   0  0  0  0  0  0  0  0  0  0  0  0
   -7.0200   21.5580  -32.9260 N   0  0  0  0  0  0  0  0  0  0  0  0
   -7.2930   22.2420  -31.6560 C   0  0  2  0  0  0  0  0  0  0  0  0
   -8.3350   23.1730  -31.8090 O   0  0  0  0  0  0  0  0  0  0  0  0
   -6.0570   22.9310  -31.1410 C   0  0  0  0  0  0  0  0  0  0  0  0
   -5.7540   24.2780  -31.2550 C   0  0  0  0  0  0  0  0  0  0  0  0
   -4.5260   24.4310  -30.6480 C   0  0  0  0  0  0  0  0  0  0  0  0
   -3.8630   25.6440  -30.4950 O   0  0  0  0  0  0  0  0  0  0  0  0
   -4.0620   23.2500  -30.1920 N   0  0  0  0  0  0  0  0  0  0  0  0
   -2.8440   23.0170  -29.4700 C   0  0  0  0  0  0  0  0  0  0  0  0
   -1.7490   22.4400  -30.1340 C   0  0  0  0  0  0  0  0  0  0  0  0
   -0.5560   22.1940  -29.4500 C   0  0  0  0  0  0  0  0  0  0  0  0
   -0.4420   22.5320  -28.0990 C   0  0  0  0  0  0  0  0  0  0  0  0
   -1.5190   23.1230  -27.4330 C   0  0  0  0  0  0  0  0  0  0  0  0
   -2.7190   23.3720  -28.1110 C   0  0  0  0  0  0  0  0  0  0  0  0
   -4.0140   24.1980  -27.2520 Cl  0  0  0  0  0  0  0  0  0  0  0  0
   -5.0010   22.3270  -30.4790 C   0  0  0  0  0  0  0  0  0  0  0  0
   -5.6320   19.6560  -33.7390 C   0  0  0  0  0  0  0  0  0  0  0  0
   -5.3940   18.2810  -33.8250 C   0  0  0  0  0  0  0  0  0  0  0  0
   -5.2140   15.4426  -31.4115 H   0  0  0  0  0  0  0  0  0  0  0  0
   -4.9341   14.2230  -32.7002 H   0  0  0  0  0  0  0  0  0  0  0  0
   -4.0034   15.7593  -32.7002 H   0  0  0  0  0  0  0  0  0  0  0  0
   -7.4414   14.4121  -33.6340 H   0  0  0  0  0  0  0  0  0  0  0  0
   -7.4311   15.7351  -34.8490 H   0  0  0  0  0  0  0  0  0  0  0  0
   -6.1216   14.5055  -34.8490 H   0  0  0  0  0  0  0  0  0  0  0  0
   -8.0696   17.1562  -32.0159 H   0  0  0  0  0  0  0  0  0  0  0  0
   -8.4872   19.6007  -31.8650 H   0  0  0  0  0  0  0  0  0  0  0  0
   -7.0260   22.1210  -33.8080 H   0  0  0  0  0  0  0  0  0  0  0  0
   -7.6012   21.4827  -30.9222 H   0  0  0  0  0  0  0  0  0  0  0  0
   -8.1780   23.9050  -31.1570 H   0  0  0  0  0  0  0  0  0  0  0  0
   -6.3645   25.0603  -31.7297 H   0  0  0  0  0  0  0  0  0  0  0  0
   -1.8314   22.1801  -31.1997 H   0  0  0  0  0  0  0  0  0  0  0  0
    0.2940   21.7340  -29.9752 H   0  0  0  0  0  0  0  0  0  0  0  0
    0.4957   22.3328  -27.5596 H   0  0  0  0  0  0  0  0  0  0  0  0
   -1.4239   23.3940  -26.3711 H   0  0  0  0  0  0  0  0  0  0  0  0
   -4.9384   21.2582  -30.2263 H   0  0  0  0  0  0  0  0  0  0  0  0
   -4.9422   20.3601  -34.2273 H   0  0  0  0  0  0  0  0  0  0  0  0
   -4.5173   17.9155  -34.3798 H   0  0  0  0  0  0  0  0  0  0  0  0
  1  2  1  0
  2  3  1  0
  2  4  1  0
  4  5  2  0
  5  6  1  0
  6  7  2  0
  7  8  1  0
  8  9  1  0
  9 10  1  0
  9 11  1  0
 11 12  1  0
 12 13  2  0
 13 14  1  0
 13 15  1  0
 15 16  1  0
 16 17  2  0
 17 18  1  0
 18 19  2  0
 19 20  1  0
 20 21  2  0
 21 22  1  0
 15 23  1  0
  7 24  1  0
 24 25  2  0
 25  4  1  0
 23 11  2  0
 21 16  1  0
  1 26  1  0
  1 27  1  0
  1 28  1  0
  3 29  1  0
  3 30  1  0
  3 31  1  0
  5 32  1  0
  6 33  1  0
  8 34  1  0
  9 35  1  1
 10 36  1  0
 12 37  1  0
 17 38  1  0
 18 39  1  0
 19 40  1  0
 20 41  1  0
 23 42  1  0
 24 43  1  0
 25 44  1  0
M  CHG  1  14  -1
M  END
>  <UniqueID>  (31) 
30

>  <SMILES>  (31) 
CN(C)c1ccc(N[C@H](O)c2cc([O-])n(-c3ccccc3Cl)c2)cc1

>  <Energy>  (31) 
82.49999351650825

>  <Genealogy>  (31) 
CN(C)c1ccc(NC(O)c2cc([O-])n(-c3ccccc3Cl)c2)cc1 (protonated)
CN(C)c1ccc(N[C@H](O)c2cc([O-])n(-c3ccccc3Cl)c2)cc1 (chirality)
CN(C)c1ccc(N[C@H](O)c2cc([O-])n(-c3ccccc3Cl)c2)cc1 (3D coordinates assigned)
CN(C)c1ccc(N[C@H](O)c2cc([O-])n(-c3ccccc3Cl)c2)cc1 (optimized conformer: 82.49999351650825 kcal/mol)

>  <smiles>  (31) 
CN(C)c1ccc(NC(O)c2cc(O)n(-c3ccccc3Cl)c2)cc1

>  <score_type>  (31) 
oracle

>  <origin>  (31) 
adgpu

>  <m_score__min__energy>  (31) 
-11.210000000000001

>  <m_primary>  (31) 
energy

$$$$
31:0
     RDKit          3D

 50 52  0  0  0  0  0  0  0  0999 V2000
   -5.0830   17.8830  -34.2340 C   0  0  0  0  0  0  0  0  0  0  0  0
   -5.9670   18.9870  -34.3930 O   0  0  0  0  0  0  0  0  0  0  0  0
   -6.5030   19.7400  -33.3370 C   0  0  0  0  0  0  0  0  0  0  0  0
   -7.7390   19.4060  -32.7440 C   0  0  0  0  0  0  0  0  0  0  0  0
   -8.2740   20.2010  -31.7280 C   0  0  0  0  0  0  0  0  0  0  0  0
   -7.5910   21.3380  -31.2960 C   0  0  0  0  0  0  0  0  0  0  0  0
   -6.3650   21.6770  -31.8700 C   0  0  0  0  0  0  0  0  0  0  0  0
   -5.8010   20.8740  -32.8720 C   0  0  0  0  0  0  0  0  0  0  0  0
   -4.5350   21.2510  -33.4320 N   0  0  0  0  0  0  0  0  0  0  0  0
   -3.0220   20.7820  -32.7220 S   0  0  0  0  0  0  0  0  0  0  0  0
   -1.9750   20.7850  -33.7990 O   0  0  0  0  0  0  0  0  0  0  0  0
   -3.1370   19.4050  -32.1300 O   0  0  0  0  0  0  0  0  0  0  0  0
   -2.5900   21.9120  -31.4320 C   0  0  0  0  0  0  0  0  0  0  0  0
   -3.3850   23.0530  -31.2310 C   0  0  0  0  0  0  0  0  0  0  0  0
   -3.0560   23.9920  -30.2480 C   0  0  0  0  0  0  0  0  0  0  0  0
   -3.9110   25.1280  -30.0640 N   0  0  0  0  0  0  0  0  0  0  0  0
   -5.2930   25.2280  -30.4300 C   0  0  0  0  0  0  0  0  0  0  0  0
   -6.3380   25.7210  -29.4750 C   0  0  0  0  0  0  0  0  0  0  0  0
   -5.6350   24.9220  -31.6030 O   0  0  0  0  0  0  0  0  0  0  0  0
   -1.9520   23.7590  -29.4140 C   0  0  0  0  0  0  0  0  0  0  0  0
   -1.1680   22.6170  -29.5890 C   0  0  0  0  0  0  0  0  0  0  0  0
   -1.4810   21.6870  -30.5910 C   0  0  0  0  0  0  0  0  0  0  0  0
   -0.6950   20.4920  -30.7100 N   0  0  0  0  0  0  0  0  0  0  0  0
   -0.4610   19.6830  -29.5130 C   0  0  0  0  0  0  0  0  0  0  0  0
   -0.0940   18.2550  -29.9230 C   0  0  0  0  0  0  0  0  0  0  0  0
    0.9760   18.2580  -30.8510 O   0  0  0  0  0  0  0  0  0  0  0  0
    0.5640   18.8790  -32.0550 C   0  0  0  0  0  0  0  0  0  0  0  0
    0.2420   20.3590  -31.8250 C   0  0  0  0  0  0  0  0  0  0  0  0
   -4.9277   17.6890  -33.1624 H   0  0  0  0  0  0  0  0  0  0  0  0
   -5.5201   16.9920  -34.7083 H   0  0  0  0  0  0  0  0  0  0  0  0
   -4.1180   18.1147  -34.7083 H   0  0  0  0  0  0  0  0  0  0  0  0
   -8.2848   18.5136  -33.0842 H   0  0  0  0  0  0  0  0  0  0  0  0
   -9.2356   19.9301  -31.2676 H   0  0  0  0  0  0  0  0  0  0  0  0
   -8.0191   21.9679  -30.5023 H   0  0  0  0  0  0  0  0  0  0  0  0
   -5.8367   22.5814  -31.5338 H   0  0  0  0  0  0  0  0  0  0  0  0
   -4.5120   22.0150  -34.1450 H   0  0  0  0  0  0  0  0  0  0  0  0
   -4.2775   23.2097  -31.8547 H   0  0  0  0  0  0  0  0  0  0  0  0
   -5.9961   25.5597  -28.4420 H   0  0  0  0  0  0  0  0  0  0  0  0
   -6.5092   26.7948  -29.6411 H   0  0  0  0  0  0  0  0  0  0  0  0
   -7.2756   25.1703  -29.6411 H   0  0  0  0  0  0  0  0  0  0  0  0
   -1.7034   24.4783  -28.6198 H   0  0  0  0  0  0  0  0  0  0  0  0
   -0.2991   22.4456  -28.9366 H   0  0  0  0  0  0  0  0  0  0  0  0
    0.3636   20.1203  -28.9309 H   0  0  0  0  0  0  0  0  0  0  0  0
   -1.3743   19.6641  -28.9002 H   0  0  0  0  0  0  0  0  0  0  0  0
    0.2056   17.6887  -29.0288 H   0  0  0  0  0  0  0  0  0  0  0  0
   -0.9701   17.7876  -30.3962 H   0  0  0  0  0  0  0  0  0  0  0  0
    1.3719   18.7974  -32.7970 H   0  0  0  0  0  0  0  0  0  0  0  0
   -0.3436   18.3744  -32.4178 H   0  0  0  0  0  0  0  0  0  0  0  0
    1.1690   20.9027  -31.5905 H   0  0  0  0  0  0  0  0  0  0  0  0
   -0.2123   20.7787  -32.7347 H   0  0  0  0  0  0  0  0  0  0  0  0
  1  2  1  0
  2  3  1  0
  3  4  2  0
  4  5  1  0
  5  6  2  0
  6  7  1  0
  7  8  2  0
  8  9  1  0
  9 10  1  0
 10 11  2  0
 10 12  2  0
 10 13  1  0
 13 14  2  0
 14 15  1  0
 15 16  1  0
 16 17  1  0
 17 18  1  0
 17 19  2  0
 15 20  2  0
 20 21  1  0
 21 22  2  0
 22 23  1  0
 23 24  1  0
 24 25  1  0
 25 26  1  0
 26 27  1  0
 27 28  1  0
  8  3  1  0
 22 13  1  0
 28 23  1  0
  1 29  1  0
  1 30  1  0
  1 31  1  0
  4 32  1  0
  5 33  1  0
  6 34  1  0
  7 35  1  0
  9 36  1  0
 14 37  1  0
 18 38  1  0
 18 39  1  0
 18 40  1  0
 20 41  1  0
 21 42  1  0
 24 43  1  0
 24 44  1  0
 25 45  1  0
 25 46  1  0
 27 47  1  0
 27 48  1  0
 28 49  1  0
 28 50  1  0
M  CHG  1  16  -1
M  END
>  <UniqueID>  (32) 
31

>  <SMILES>  (32) 
COc1ccccc1NS(=O)(=O)c1cc([N-]C(C)=O)ccc1N1CCOCC1

>  <Energy>  (32) 
66.41381269316032

>  <Genealogy>  (32) 
COc1ccccc1NS(=O)(=O)c1cc([N-]C(C)=O)ccc1N1CCOCC1 (protonated)
COc1ccccc1NS(=O)(=O)c1cc([N-]C(C)=O)ccc1N1CCOCC1 (3D coordinates assigned)
COc1ccccc1NS(=O)(=O)c1cc([N-]C(C)=O)ccc1N1CCOCC1 (nonaromatic ring conformer: 66.41381269316032 kcal/mol)

>  <smiles>  (32) 
COc1ccccc1NS(=O)(=O)c1cc(NC(C)=O)ccc1N1CCOCC1

>  <score_type>  (32) 
oracle

>  <origin>  (32) 
adgpu

>  <m_score__min__energy>  (32) 
-10.140000000000001

>  <m_primary>  (32) 
energy

$$$$
32:0
     RDKit          3D

 50 52  0  0  0  0  0  0  0  0999 V2000
   -6.5370   16.2550  -33.5110 C   0  0  0  0  0  0  0  0  0  0  0  0
   -6.8610   17.5720  -33.9420 O   0  0  0  0  0  0  0  0  0  0  0  0
   -7.1480   18.6440  -33.0820 C   0  0  0  0  0  0  0  0  0  0  0  0
   -8.2710   18.6300  -32.2310 C   0  0  0  0  0  0  0  0  0  0  0  0
   -8.5780   19.7410  -31.4460 C   0  0  0  0  0  0  0  0  0  0  0  0
   -7.7830   20.8840  -31.5120 C   0  0  0  0  0  0  0  0  0  0  0  0
   -6.6560   20.9060  -32.3370 C   0  0  0  0  0  0  0  0  0  0  0  0
   -6.3100   19.7780  -33.0940 C   0  0  0  0  0  0  0  0  0  0  0  0
   -5.0940   19.8100  -33.8530 N   0  0  0  0  0  0  0  0  0  0  0  0
   -3.8070   18.6670  -33.6310 S   0  0  0  0  0  0  0  0  0  0  0  0
   -4.1990   17.6610  -32.5860 O   0  0  0  0  0  0  0  0  0  0  0  0
   -3.5430   17.9540  -34.9280 O   0  0  0  0  0  0  0  0  0  0  0  0
   -2.3490   19.5380  -33.1570 C   0  0  0  0  0  0  0  0  0  0  0  0
   -1.8870   20.5860  -33.9620 C   0  0  0  0  0  0  0  0  0  0  0  0
   -0.8090   21.3670  -33.5450 C   0  0  0  0  0  0  0  0  0  0  0  0
   -0.1970   21.1160  -32.3160 C   0  0  0  0  0  0  0  0  0  0  0  0
   -0.6470   20.0620  -31.5010 C   0  0  0  0  0  0  0  0  0  0  0  0
   -0.0670   19.7980  -30.2180 N   0  0  0  0  0  0  0  0  0  0  0  0
   -0.5560   20.5880  -28.7540 S   0  0  0  0  0  0  0  0  0  0  0  0
   -1.3470   19.6250  -27.9130 O   0  0  0  0  0  0  0  0  0  0  0  0
    0.6480   21.0270  -27.9660 O   0  0  0  0  0  0  0  0  0  0  0  0
   -1.5750   21.9640  -29.1710 C   0  0  0  0  0  0  0  0  0  0  0  0
   -1.1650   23.2720  -28.8780 C   0  0  0  0  0  0  0  0  0  0  0  0
   -1.9390   24.3610  -29.2950 C   0  0  0  0  0  0  0  0  0  0  0  0
   -3.1350   24.1570  -29.9970 C   0  0  0  0  0  0  0  0  0  0  0  0
   -3.8620   25.3040  -30.4700 N   0  0  0  0  0  0  0  0  0  0  0  0
   -5.2850   25.4460  -30.5670 C   0  0  0  0  0  0  0  0  0  0  0  0
   -6.1480   24.4040  -31.2080 C   0  0  0  0  0  0  0  0  0  0  0  0
   -5.8310   26.4630  -30.0630 O   0  0  0  0  0  0  0  0  0  0  0  0
   -3.5330   22.8430  -30.3080 C   0  0  0  0  0  0  0  0  0  0  0  0
   -2.7620   21.7560  -29.8870 C   0  0  0  0  0  0  0  0  0  0  0  0
   -1.7080   19.2590  -31.9400 C   0  0  0  0  0  0  0  0  0  0  0  0
   -6.5286   16.2207  -32.4116 H   0  0  0  0  0  0  0  0  0  0  0  0
   -7.2881   15.5486  -33.8941 H   0  0  0  0  0  0  0  0  0  0  0  0
   -5.5439   15.9777  -33.8941 H   0  0  0  0  0  0  0  0  0  0  0  0
   -8.9103   17.7360  -32.1855 H   0  0  0  0  0  0  0  0  0  0  0  0
   -9.4485   19.7153  -30.7740 H   0  0  0  0  0  0  0  0  0  0  0  0
   -8.0434   21.7696  -30.9138 H   0  0  0  0  0  0  0  0  0  0  0  0
   -6.0367   21.8134  -32.3930 H   0  0  0  0  0  0  0  0  0  0  0  0
   -2.3751   20.7941  -34.9255 H   0  0  0  0  0  0  0  0  0  0  0  0
   -0.4408   22.1818  -34.1857 H   0  0  0  0  0  0  0  0  0  0  0  0
    0.6414   21.7456  -31.9833 H   0  0  0  0  0  0  0  0  0  0  0  0
   -0.2330   23.4429  -28.3192 H   0  0  0  0  0  0  0  0  0  0  0  0
   -1.6061   25.3850  -29.0701 H   0  0  0  0  0  0  0  0  0  0  0  0
   -6.6426   23.8068  -30.4278 H   0  0  0  0  0  0  0  0  0  0  0  0
   -6.9095   24.8927  -31.8336 H   0  0  0  0  0  0  0  0  0  0  0  0
   -5.5260   23.7469  -31.8336 H   0  0  0  0  0  0  0  0  0  0  0  0
   -4.4540   22.6712  -30.8844 H   0  0  0  0  0  0  0  0  0  0  0  0
   -3.0885   20.7315  -30.1188 H   0  0  0  0  0  0  0  0  0  0  0  0
   -2.0398   18.4069  -31.3286 H   0  0  0  0  0  0  0  0  0  0  0  0
  1  2  1  0
  2  3  1  0
  3  4  2  0
  4  5  1  0
  5  6  2  0
  6  7  1  0
  7  8  2  0
  8  9  1  0
  9 10  1  0
 10 11  2  0
 10 12  2  0
 10 13  1  0
 13 14  2  0
 14 15  1  0
 15 16  2  0
 16 17  1  0
 17 18  1  0
 18 19  1  0
 19 20  2  0
 19 21  2  0
 19 22  1  0
 22 23  2  0
 23 24  1  0
 24 25  2  0
 25 26  1  0
 26 27  1  0
 27 28  1  0
 27 29  2  0
 25 30  1  0
 30 31  2  0
 17 32  2  0
  8  3  1  0
 32 13  1  0
 31 22  1  0
  1 33  1  0
  1 34  1  0
  1 35  1  0
  4 36  1  0
  5 37  1  0
  6 38  1  0
  7 39  1  0
 14 40  1  0
 15 41  1  0
 16 42  1  0
 23 43  1  0
 24 44  1  0
 28 45  1  0
 28 46  1  0
 28 47  1  0
 30 48  1  0
 31 49  1  0
 32 50  1  0
M  CHG  3   9  -1  18  -1  26  -1
M  END
>  <UniqueID>  (33) 
32

>  <SMILES>  (33) 
COc1ccccc1[N-]S(=O)(=O)c1cccc([N-]S(=O)(=O)c2ccc([N-]C(C)=O)cc2)c1

>  <Energy>  (33) 
62.849386932695175

>  <Genealogy>  (33) 
COc1ccccc1[N-]S(=O)(=O)c1cccc([N-]S(=O)(=O)c2ccc([N-]C(C)=O)cc2)c1 (protonated)
COc1ccccc1[N-]S(=O)(=O)c1cccc([N-]S(=O)(=O)c2ccc([N-]C(C)=O)cc2)c1 (3D coordinates assigned)
COc1ccccc1[N-]S(=O)(=O)c1cccc([N-]S(=O)(=O)c2ccc([N-]C(C)=O)cc2)c1 (optimized conformer: 62.849386932695175 kcal/mol)

>  <smiles>  (33) 
COc1ccccc1NS(=O)(=O)c1cccc(NS(=O)(=O)c2ccc(NC(C)=O)cc2)c1

>  <score_type>  (33) 
oracle

>  <origin>  (33) 
adgpu

>  <m_score__min__energy>  (33) 
-11.65

>  <m_primary>  (33) 
energy

$$$$
33:0
     RDKit          3D

 33 35  0  0  0  0  0  0  0  0999 V2000
   -2.6760   24.9230  -29.7160 O   0  0  0  0  0  0  0  0  0  0  0  0
   -3.2230   23.8370  -30.0480 C   0  0  0  0  0  0  0  0  0  0  0  0
   -2.4690   22.5610  -29.8780 C   0  0  0  0  0  0  0  0  0  0  0  0
   -2.6500   21.5780  -31.3380 S   0  0  0  0  0  0  0  0  0  0  0  0
   -1.5650   21.9400  -32.3130 O   0  0  0  0  0  0  0  0  0  0  0  0
   -2.5420   20.1240  -30.9750 O   0  0  0  0  0  0  0  0  0  0  0  0
   -4.2060   21.8950  -32.0420 N   0  0  0  0  0  0  0  0  0  0  0  0
   -4.5360   21.1990  -33.2950 C   0  0  0  0  0  0  0  0  0  0  0  0
   -5.3190   19.9360  -33.0310 C   0  0  0  0  0  0  0  0  0  0  0  0
   -4.6900   18.6810  -33.0970 C   0  0  0  0  0  0  0  0  0  0  0  0
   -5.4170   17.5140  -32.8480 C   0  0  0  0  0  0  0  0  0  0  0  0
   -6.7740   17.5880  -32.5220 C   0  0  0  0  0  0  0  0  0  0  0  0
   -7.4060   18.8330  -32.4410 C   0  0  0  0  0  0  0  0  0  0  0  0
   -9.1090   18.9250  -32.0270 Cl  0  0  0  0  0  0  0  0  0  0  0  0
   -6.6820   20.0040  -32.6890 C   0  0  0  0  0  0  0  0  0  0  0  0
   -5.1090   22.8440  -31.4180 C   0  0  0  0  0  0  0  0  0  0  0  0
   -6.4820   22.8460  -31.7450 C   0  0  0  0  0  0  0  0  0  0  0  0
   -7.3430   23.8140  -31.2270 C   0  0  0  0  0  0  0  0  0  0  0  0
   -6.8570   24.7970  -30.3720 C   0  0  0  0  0  0  0  0  0  0  0  0
   -5.5110   24.8040  -30.0120 C   0  0  0  0  0  0  0  0  0  0  0  0
   -4.6290   23.8250  -30.5080 C   0  0  0  0  0  0  0  0  0  0  0  0
   -1.4041   22.7822  -29.7133 H   0  0  0  0  0  0  0  0  0  0  0  0
   -2.8646   22.0111  -29.0113 H   0  0  0  0  0  0  0  0  0  0  0  0
   -5.1373   21.8675  -33.9286 H   0  0  0  0  0  0  0  0  0  0  0  0
   -3.5967   20.9263  -33.7984 H   0  0  0  0  0  0  0  0  0  0  0  0
   -3.6204   18.6171  -33.3458 H   0  0  0  0  0  0  0  0  0  0  0  0
   -4.9200   16.5346  -32.9087 H   0  0  0  0  0  0  0  0  0  0  0  0
   -7.3447   16.6676  -32.3292 H   0  0  0  0  0  0  0  0  0  0  0  0
   -7.1804   20.9819  -32.6163 H   0  0  0  0  0  0  0  0  0  0  0  0
   -6.8794   22.0725  -32.4186 H   0  0  0  0  0  0  0  0  0  0  0  0
   -8.4096   23.7995  -31.4958 H   0  0  0  0  0  0  0  0  0  0  0  0
   -7.5352   25.5692  -29.9798 H   0  0  0  0  0  0  0  0  0  0  0  0
   -5.1334   25.5827  -29.3330 H   0  0  0  0  0  0  0  0  0  0  0  0
  1  2  2  0
  2  3  1  0
  3  4  1  0
  4  5  2  0
  4  6  2  0
  4  7  1  0
  7  8  1  0
  8  9  1  0
  9 10  2  0
 10 11  1  0
 11 12  2  0
 12 13  1  0
 13 14  1  0
 13 15  2  0
  7 16  1  0
 16 17  2  0
 17 18  1  0
 18 19  2  0
 19 20  1  0
 20 21  2  0
 21  2  1  0
 15  9  1  0
 21 16  1  0
  3 22  1  0
  3 23  1  0
  8 24  1  0
  8 25  1  0
 10 26  1  0
 11 27  1  0
 12 28  1  0
 15 29  1  0
 17 30  1  0
 18 31  1  0
 19 32  1  0
 20 33  1  0
M  END
>  <UniqueID>  (34) 
33

>  <SMILES>  (34) 
O=C1CS(=O)(=O)N(Cc2cccc(Cl)c2)c2ccccc21

>  <Energy>  (34) 
39.21974463722345

>  <Genealogy>  (34) 
O=C1CS(=O)(=O)N(Cc2cccc(Cl)c2)c2ccccc21 (3D coordinates assigned)
O=C1CS(=O)(=O)N(Cc2cccc(Cl)c2)c2ccccc21 (nonaromatic ring conformer: 39.21974463722345 kcal/mol)

>  <smiles>  (34) 
O=C1CS(=O)(=O)N(Cc2cccc(Cl)c2)c2ccccc21

>  <score_type>  (34) 
oracle

>  <origin>  (34) 
adgpu

>  <m_score__min__energy>  (34) 
-8.4800000000000004

>  <m_primary>  (34) 
energy

$$$$
34:0
     RDKit          3D

 39 42  0  0  0  0  0  0  0  0999 V2000
   -9.1810   22.2030  -30.8680 O   0  0  0  0  0  0  0  0  0  0  0  0
   -8.0170   21.7750  -31.0990 C   0  0  0  0  0  0  0  0  0  0  0  0
   -7.8240   20.4010  -31.6200 C   0  0  0  0  0  0  0  0  0  0  0  0
   -8.9290   19.5640  -31.8590 C   0  0  0  0  0  0  0  0  0  0  0  0
   -8.7420   18.2690  -32.3500 C   0  0  0  0  0  0  0  0  0  0  0  0
   -7.4550   17.7980  -32.6090 C   0  0  0  0  0  0  0  0  0  0  0  0
   -6.3480   18.6180  -32.3760 C   0  0  0  0  0  0  0  0  0  0  0  0
   -6.5210   19.9230  -31.8800 C   0  0  0  0  0  0  0  0  0  0  0  0
   -5.3500   20.7960  -31.6310 C   0  0  0  0  0  0  0  0  0  0  0  0
   -4.1850   20.3680  -31.8600 O   0  0  0  0  0  0  0  0  0  0  0  0
   -5.5440   22.1710  -31.1080 C   0  0  0  0  0  0  0  0  0  0  0  0
   -4.4390   23.0050  -30.8670 C   0  0  0  0  0  0  0  0  0  0  0  0
   -4.6140   24.3040  -30.3580 C   0  0  0  0  0  0  0  0  0  0  0  0
   -3.4930   25.1600  -30.0850 N   0  0  0  0  0  0  0  0  0  0  0  0
   -2.2550   24.8510  -28.9110 S   0  0  0  0  0  0  0  0  0  0  0  0
   -2.8400   24.9700  -27.5320 O   0  0  0  0  0  0  0  0  0  0  0  0
   -1.1610   25.8700  -29.0680 O   0  0  0  0  0  0  0  0  0  0  0  0
   -1.6290   23.2180  -29.1240 C   0  0  0  0  0  0  0  0  0  0  0  0
   -1.4200   22.4040  -28.0030 C   0  0  0  0  0  0  0  0  0  0  0  0
   -0.9490   21.0980  -28.1610 C   0  0  0  0  0  0  0  0  0  0  0  0
   -0.6830   20.5940  -29.4400 C   0  0  0  0  0  0  0  0  0  0  0  0
   -0.0950   18.9450  -29.6010 Cl  0  0  0  0  0  0  0  0  0  0  0  0
   -0.8890   21.4080  -30.5670 C   0  0  0  0  0  0  0  0  0  0  0  0
   -0.5700   20.8140  -32.1910 Cl  0  0  0  0  0  0  0  0  0  0  0  0
   -1.3590   22.7170  -30.4050 C   0  0  0  0  0  0  0  0  0  0  0  0
   -5.9140   24.7740  -30.1050 C   0  0  0  0  0  0  0  0  0  0  0  0
   -6.1370   26.0580  -29.6070 O   0  0  0  0  0  0  0  0  0  0  0  0
   -7.0160   23.9500  -30.3510 C   0  0  0  0  0  0  0  0  0  0  0  0
   -6.8440   22.6460  -30.8480 C   0  0  0  0  0  0  0  0  0  0  0  0
   -9.9464   19.9310  -31.6582 H   0  0  0  0  0  0  0  0  0  0  0  0
   -9.6113   17.6201  -32.5325 H   0  0  0  0  0  0  0  0  0  0  0  0
   -7.3112   16.7790  -32.9975 H   0  0  0  0  0  0  0  0  0  0  0  0
   -5.3353   18.2410  -32.5816 H   0  0  0  0  0  0  0  0  0  0  0  0
   -3.4243   22.6370  -31.0792 H   0  0  0  0  0  0  0  0  0  0  0  0
   -1.6273   22.7941  -26.9956 H   0  0  0  0  0  0  0  0  0  0  0  0
   -0.7866   20.4634  -27.2773 H   0  0  0  0  0  0  0  0  0  0  0  0
   -1.5171   23.3551  -31.2870 H   0  0  0  0  0  0  0  0  0  0  0  0
   -5.4300   26.5760  -29.1000 H   0  0  0  0  0  0  0  0  0  0  0  0
   -8.0305   24.3264  -30.1533 H   0  0  0  0  0  0  0  0  0  0  0  0
  1  2  2  0
  2  3  1  0
  3  4  2  0
  4  5  1  0
  5  6  2  0
  6  7  1  0
  7  8  2  0
  8  9  1  0
  9 10  2  0
  9 11  1  0
 11 12  2  0
 12 13  1  0
 13 14  1  0
 14 15  1  0
 15 16  2  0
 15 17  2  0
 15 18  1  0
 18 19  2  0
 19 20  1  0
 20 21  2  0
 21 22  1  0
 21 23  1  0
 23 24  1  0
 23 25  2  0
 13 26  2  0
 26 27  1  0
 26 28  1  0
 28 29  2  0
 29  2  1  0
  8  3  1  0
 29 11  1  0
 25 18  1  0
  4 30  1  0
  5 31  1  0
  6 32  1  0
  7 33  1  0
 12 34  1  0
 19 35  1  0
 20 36  1  0
 25 37  1  0
 27 38  1  0
 28 39  1  0
M  CHG  1  14  -1
M  END
>  <UniqueID>  (35) 
34

>  <SMILES>  (35) 
O=C1c2ccccc2C(=O)c2cc([N-]S(=O)(=O)c3ccc(Cl)c(Cl)c3)c(O)cc21

>  <Energy>  (35) 
52.75115711498882

>  <Genealogy>  (35) 
O=C1c2ccccc2C(=O)c2cc([N-]S(=O)(=O)c3ccc(Cl)c(Cl)c3)c(O)cc21 (protonated)
O=C1c2ccccc2C(=O)c2cc([N-]S(=O)(=O)c3ccc(Cl)c(Cl)c3)c(O)cc21 (3D coordinates assigned)
O=C1c2ccccc2C(=O)c2cc([N-]S(=O)(=O)c3ccc(Cl)c(Cl)c3)c(O)cc21 (nonaromatic ring conformer: 52.75115711498882 kcal/mol)

>  <smiles>  (35) 
O=C1c2ccccc2C(=O)c2cc(NS(=O)(=O)c3ccc(Cl)c(Cl)c3)c(O)cc21

>  <score_type>  (35) 
oracle

>  <origin>  (35) 
adgpu

>  <m_score__min__energy>  (35) 
-12.609999999999999

>  <m_primary>  (35) 
energy

$$$$
35:0
     RDKit          3D

 36 38  0  0  0  0  0  0  0  0999 V2000
    1.7740   18.6080  -31.5450 C   0  0  0  0  0  0  0  0  0  0  0  0
    1.8300   18.8880  -30.1510 O   0  0  0  0  0  0  0  0  0  0  0  0
    0.8040   19.4470  -29.3630 C   0  0  0  0  0  0  0  0  0  0  0  0
    0.5380   18.8460  -28.1140 C   0  0  0  0  0  0  0  0  0  0  0  0
    1.2820   17.6430  -27.6690 C   0  0  0  0  0  0  0  0  0  0  0  0
    0.6940   16.3680  -27.7440 C   0  0  0  0  0  0  0  0  0  0  0  0
    1.3970   15.2390  -27.3130 C   0  0  0  0  0  0  0  0  0  0  0  0
    2.6900   15.3700  -26.8010 C   0  0  0  0  0  0  0  0  0  0  0  0
    3.3830   14.2430  -26.3760 O   0  0  0  0  0  0  0  0  0  0  0  0
    3.2830   16.6350  -26.7150 C   0  0  0  0  0  0  0  0  0  0  0  0
    4.5680   16.7710  -26.2050 O   0  0  0  0  0  0  0  0  0  0  0  0
    2.5810   17.7670  -27.1440 C   0  0  0  0  0  0  0  0  0  0  0  0
   -0.4420   19.3910  -27.2710 C   0  0  0  0  0  0  0  0  0  0  0  0
   -1.1690   20.5130  -27.6560 C   0  0  0  0  0  0  0  0  0  0  0  0
   -2.1190   21.0350  -26.7820 O   0  0  0  0  0  0  0  0  0  0  0  0
   -0.9350   21.1150  -28.9030 C   0  0  0  0  0  0  0  0  0  0  0  0
   -1.7170   22.3080  -29.3110 C   0  0  0  0  0  0  0  0  0  0  0  0
   -2.9060   22.1620  -30.0440 C   0  0  0  0  0  0  0  0  0  0  0  0
   -3.6400   23.2880  -30.4280 C   0  0  0  0  0  0  0  0  0  0  0  0
   -3.1950   24.5680  -30.0840 C   0  0  0  0  0  0  0  0  0  0  0  0
   -3.9290   25.6830  -30.4710 O   0  0  0  0  0  0  0  0  0  0  0  0
   -2.0100   24.7220  -29.3550 C   0  0  0  0  0  0  0  0  0  0  0  0
   -1.5630   25.9930  -29.0090 O   0  0  0  0  0  0  0  0  0  0  0  0
   -1.2730   23.5970  -28.9690 C   0  0  0  0  0  0  0  0  0  0  0  0
    0.0490   20.5810  -29.7590 C   0  0  0  0  0  0  0  0  0  0  0  0
    0.2510   21.1750  -31.0010 O   0  0  0  0  0  0  0  0  0  0  0  0
    1.5603   17.5396  -31.6961 H   0  0  0  0  0  0  0  0  0  0  0  0
    0.9785   19.2101  -32.0083 H   0  0  0  0  0  0  0  0  0  0  0  0
    2.7399   18.8578  -32.0083 H   0  0  0  0  0  0  0  0  0  0  0  0
   -0.3248   16.2582  -28.1440 H   0  0  0  0  0  0  0  0  0  0  0  0
    0.9306   14.2448  -27.3773 H   0  0  0  0  0  0  0  0  0  0  0  0
    3.0481   18.7602  -27.0702 H   0  0  0  0  0  0  0  0  0  0  0  0
   -0.6380   18.9256  -26.2938 H   0  0  0  0  0  0  0  0  0  0  0  0
   -3.2612   21.1574  -30.3171 H   0  0  0  0  0  0  0  0  0  0  0  0
   -4.5702   23.1667  -31.0024 H   0  0  0  0  0  0  0  0  0  0  0  0
   -0.3426   23.7218  -28.3957 H   0  0  0  0  0  0  0  0  0  0  0  0
  1  2  1  0
  2  3  1  0
  3  4  2  0
  4  5  1  0
  5  6  2  0
  6  7  1  0
  7  8  2  0
  8  9  1  0
  8 10  1  0
 10 11  1  0
 10 12  2  0
  4 13  1  0
 13 14  2  0
 14 15  1  0
 14 16  1  0
 16 17  1  0
 17 18  2  0
 18 19  1  0
 19 20  2  0
 20 21  1  0
 20 22  1  0
 22 23  1  0
 22 24  2  0
 16 25  2  0
 25 26  1  0
 25  3  1  0
 12  5  1  0
 24 17  1  0
  1 27  1  0
  1 28  1  0
  1 29  1  0
  6 30  1  0
  7 31  1  0
 12 32  1  0
 13 33  1  0
 18 34  1  0
 19 35  1  0
 24 36  1  0
M  CHG  6   9  -1  11  -1  15  -1  21  -1  23  -1  26  -1
M  END
>  <UniqueID>  (36) 
35

>  <SMILES>  (36) 
COc1c(-c2ccc([O-])c([O-])c2)cc([O-])c(-c2ccc([O-])c([O-])c2)c1[O-]

>  <Energy>  (36) 
56.91703661584978

>  <Genealogy>  (36) 
COc1c(-c2ccc([O-])c([O-])c2)cc([O-])c(-c2ccc([O-])c([O-])c2)c1[O-] (protonated)
COc1c(-c2ccc([O-])c([O-])c2)cc([O-])c(-c2ccc([O-])c([O-])c2)c1[O-] (3D coordinates assigned)
COc1c(-c2ccc([O-])c([O-])c2)cc([O-])c(-c2ccc([O-])c([O-])c2)c1[O-] (optimized conformer: 56.91703661584978 kcal/mol)

>  <smiles>  (36) 
COc1c(-c2ccc(O)c(O)c2)cc(O)c(-c2ccc(O)c(O)c2)c1O

>  <score_type>  (36) 
oracle

>  <origin>  (36) 
adgpu

>  <m_score__min__energy>  (36) 
-11.92

>  <m_primary>  (36) 
energy

$$$$
36:0
     RDKit          3D

 41 43  0  0  0  0  0  0  0  0999 V2000
   -1.6320   24.3002  -29.2822 H   0  0  0  0  0  0  0  0  0  0  0  0
   -1.7830   23.2220  -29.1250 C   0  0  0  0  0  0  0  0  0  0  0  0
   -1.1680   22.6440  -28.0810 C   0  0  0  0  0  0  0  0  0  0  0  0
   -0.5009   23.2716  -27.4719 H   0  0  0  0  0  0  0  0  0  0  0  0
   -1.3210   21.2230  -27.6880 C   0  0  0  0  0  0  0  0  0  0  0  0
   -0.2870   20.2840  -27.8700 C   0  0  0  0  0  0  0  0  0  0  0  0
    0.6635   20.5980  -28.3259 H   0  0  0  0  0  0  0  0  0  0  0  0
   -0.4630   18.9550  -27.4740 C   0  0  0  0  0  0  0  0  0  0  0  0
    0.3549   18.2306  -27.6021 H   0  0  0  0  0  0  0  0  0  0  0  0
   -1.6760   18.5460  -26.9160 C   0  0  0  0  0  0  0  0  0  0  0  0
   -1.8092   17.5023  -26.5952 H   0  0  0  0  0  0  0  0  0  0  0  0
   -2.7200   19.4610  -26.7650 C   0  0  0  0  0  0  0  0  0  0  0  0
   -3.6792   19.1340  -26.3372 H   0  0  0  0  0  0  0  0  0  0  0  0
   -2.5480   20.7930  -27.1570 C   0  0  0  0  0  0  0  0  0  0  0  0
   -3.3778   21.5069  -27.0488 H   0  0  0  0  0  0  0  0  0  0  0  0
   -2.6520   22.4950  -30.0770 C   0  0  0  0  0  0  0  0  0  0  0  0
   -2.0860   21.7080  -31.1000 C   0  0  0  0  0  0  0  0  0  0  0  0
   -0.6010   21.5210  -31.2220 C   0  0  0  0  0  0  0  0  0  0  0  0
   -0.1548   21.4648  -30.2181 H   0  0  0  0  0  0  0  0  0  0  0  0
   -0.3924   20.5895  -31.7686 H   0  0  0  0  0  0  0  0  0  0  0  0
   -0.1680   22.3717  -31.7686 H   0  0  0  0  0  0  0  0  0  0  0  0
   -2.8910   21.1670  -32.0520 N   0  0  0  0  0  0  0  0  0  0  0  0
   -4.2350   21.3350  -32.0170 C   0  0  0  0  0  0  0  0  0  0  0  0
   -5.2440   20.7300  -33.3610 S   0  0  0  0  0  0  0  0  0  0  0  0
   -6.7580   21.0420  -32.4370 C   0  0  0  0  0  0  0  0  0  0  0  0
   -7.2060   22.3630  -32.2770 C   0  0  0  0  0  0  0  0  0  0  0  0
   -6.4920   23.3990  -32.7860 F   0  0  0  0  0  0  0  0  0  0  0  0
   -8.4020   22.6210  -31.6010 C   0  0  0  0  0  0  0  0  0  0  0  0
   -8.7515   23.6571  -31.4809 H   0  0  0  0  0  0  0  0  0  0  0  0
   -9.1540   21.5680  -31.0780 C   0  0  0  0  0  0  0  0  0  0  0  0
  -10.0953   21.7746  -30.5477 H   0  0  0  0  0  0  0  0  0  0  0  0
   -8.7110   20.2510  -31.2280 C   0  0  0  0  0  0  0  0  0  0  0  0
   -9.3045   19.4230  -30.8132 H   0  0  0  0  0  0  0  0  0  0  0  0
   -7.5150   19.9810  -31.9040 C   0  0  0  0  0  0  0  0  0  0  0  0
   -7.0000   18.3070  -32.0740 Cl  0  0  0  0  0  0  0  0  0  0  0  0
   -4.8090   22.0280  -31.0030 N   0  0  0  0  0  0  0  0  0  0  0  0
   -4.0610   22.5930  -30.0190 C   0  0  0  0  0  0  0  0  0  0  0  0
   -4.7730   23.3490  -28.9350 C   0  0  0  0  0  0  0  0  0  0  0  0
   -4.4335   22.9885  -27.9528 H   0  0  0  0  0  0  0  0  0  0  0  0
   -4.5498   24.4220  -29.0290 H   0  0  0  0  0  0  0  0  0  0  0  0
   -5.8575   23.1905  -29.0290 H   0  0  0  0  0  0  0  0  0  0  0  0
  1  2  1  0
  2  3  2  0
  3  4  1  0
  3  5  1  0
  5  6  2  0
  6  7  1  0
  6  8  1  0
  8  9  1  0
  8 10  2  0
 10 11  1  0
 10 12  1  0
 12 13  1  0
 12 14  2  0
 14 15  1  0
  2 16  1  0
 16 17  2  0
 17 18  1  0
 18 19  1  0
 18 20  1  0
 18 21  1  0
 17 22  1  0
 22 23  2  0
 23 24  1  0
 24 25  1  0
 25 26  2  0
 26 27  1  0
 26 28  1  0
 28 29  1  0
 28 30  2  0
 30 31  1  0
 30 32  1  0
 32 33  1  0
 32 34  2  0
 34 35  1  0
 23 36  1  0
 36 37  2  0
 37 38  1  0
 38 39  1  0
 38 40  1  0
 38 41  1  0
 14  5  1  0
 37 16  1  0
 34 25  1  0
M  END
>  <UniqueID>  (37) 
36

>  <SMILES>  (37) 
Cc1nc(Sc2c(F)cccc2Cl)nc(C)c1/C=C\c1ccccc1

>  <Energy>  (37) 
50.19276064891096

>  <Genealogy>  (37) 
Cc1nc(Sc2c(F)cccc2Cl)nc(C)c1/C=C\c1ccccc1 (cis-trans isomerization)
Cc1nc(Sc2c(F)cccc2Cl)nc(C)c1/C=C\c1ccccc1 (3D coordinates assigned)
Cc1nc(Sc2c(F)cccc2Cl)nc(C)c1/C=C\c1ccccc1 (optimized conformer: 50.19276064891096 kcal/mol)

>  <smiles>  (37) 
Cc1nc(Sc2c(F)cccc2Cl)nc(C)c1C=Cc1ccccc1

>  <score_type>  (37) 
oracle

>  <origin>  (37) 
adgpu

>  <m_score__min__energy>  (37) 
-8.3800000000000008

>  <m_primary>  (37) 
energy

$$$$
37:0
     RDKit          3D

 46 48  0  0  0  0  0  0  0  0999 V2000
   -5.6680   17.0690  -34.3260 C   0  0  0  0  0  0  0  0  0  0  0  0
   -6.5240   17.9470  -33.4610 C   0  0  0  0  0  0  0  0  0  0  0  0
   -7.6120   17.4040  -32.7610 C   0  0  0  0  0  0  0  0  0  0  0  0
   -8.3940   18.2150  -31.9360 C   0  0  0  0  0  0  0  0  0  0  0  0
   -8.0870   19.5710  -31.7910 C   0  0  0  0  0  0  0  0  0  0  0  0
   -6.9850   20.1260  -32.4620 C   0  0  0  0  0  0  0  0  0  0  0  0
   -6.6680   21.5240  -32.3150 N   0  0  0  0  0  0  0  0  0  0  0  0
   -5.3060   22.0030  -32.5860 C   0  0  0  0  0  0  0  0  0  0  0  0
   -5.0800   23.3810  -31.9480 C   0  0  0  0  0  0  0  0  0  0  0  0
   -5.7630   23.4450  -30.6410 N   0  0  0  0  0  0  0  0  0  0  0  0
   -5.2710   24.8520  -29.7170 S   0  0  0  0  0  0  0  0  0  0  0  0
   -4.3080   25.6480  -30.5520 O   0  0  0  0  0  0  0  0  0  0  0  0
   -6.4730   25.7130  -29.4450 O   0  0  0  0  0  0  0  0  0  0  0  0
   -4.4540   24.4900  -28.1580 C   0  0  0  0  0  0  0  0  0  0  0  0
   -2.9780   24.2530  -28.3190 C   0  0  0  0  0  0  0  0  0  0  0  0
   -2.0590   24.9190  -27.4900 C   0  0  0  0  0  0  0  0  0  0  0  0
   -0.6870   24.6840  -27.6260 C   0  0  0  0  0  0  0  0  0  0  0  0
   -0.2220   23.7890  -28.5930 C   0  0  0  0  0  0  0  0  0  0  0  0
   -1.1290   23.1320  -29.4300 C   0  0  0  0  0  0  0  0  0  0  0  0
   -2.5010   23.3640  -29.2980 C   0  0  0  0  0  0  0  0  0  0  0  0
   -7.2390   23.3810  -30.7710 C   0  0  0  0  0  0  0  0  0  0  0  0
   -7.7040   22.4980  -31.9490 C   0  0  0  0  0  0  0  0  0  0  0  0
   -6.2080   19.3050  -33.2980 C   0  0  0  0  0  0  0  0  0  0  0  0
   -5.0415   16.4264  -33.6899 H   0  0  0  0  0  0  0  0  0  0  0  0
   -6.3106   16.4415  -34.9611 H   0  0  0  0  0  0  0  0  0  0  0  0
   -5.0244   17.6955  -34.9611 H   0  0  0  0  0  0  0  0  0  0  0  0
   -7.8500   16.3349  -32.8625 H   0  0  0  0  0  0  0  0  0  0  0  0
   -9.2531   17.7861  -31.3993 H   0  0  0  0  0  0  0  0  0  0  0  0
   -8.7123   20.2073  -31.1475 H   0  0  0  0  0  0  0  0  0  0  0  0
   -4.5817   21.2882  -32.1682 H   0  0  0  0  0  0  0  0  0  0  0  0
   -5.1710   22.0900  -33.6742 H   0  0  0  0  0  0  0  0  0  0  0  0
   -4.0017   23.5448  -31.8049 H   0  0  0  0  0  0  0  0  0  0  0  0
   -5.4885   24.1590  -32.6097 H   0  0  0  0  0  0  0  0  0  0  0  0
   -5.4530   22.6170  -30.0780 H   0  0  0  0  0  0  0  0  0  0  0  0
   -4.6017   25.3412  -27.4771 H   0  0  0  0  0  0  0  0  0  0  0  0
   -4.8974   23.5669  -27.7565 H   0  0  0  0  0  0  0  0  0  0  0  0
   -2.4204   25.6282  -26.7308 H   0  0  0  0  0  0  0  0  0  0  0  0
    0.0270   25.2045  -26.9708 H   0  0  0  0  0  0  0  0  0  0  0  0
    0.8570   23.6014  -28.6957 H   0  0  0  0  0  0  0  0  0  0  0  0
   -0.7620   22.4310  -30.1941 H   0  0  0  0  0  0  0  0  0  0  0  0
   -3.2102   22.8490  -29.9627 H   0  0  0  0  0  0  0  0  0  0  0  0
   -7.6553   22.9700  -29.8394 H   0  0  0  0  0  0  0  0  0  0  0  0
   -7.5964   24.4030  -30.9653 H   0  0  0  0  0  0  0  0  0  0  0  0
   -8.6174   21.9594  -31.6566 H   0  0  0  0  0  0  0  0  0  0  0  0
   -7.9003   23.1448  -32.8168 H   0  0  0  0  0  0  0  0  0  0  0  0
   -5.3442   19.7309  -33.8295 H   0  0  0  0  0  0  0  0  0  0  0  0
  1  2  1  0
  2  3  2  0
  3  4  1  0
  4  5  2  0
  5  6  1  0
  6  7  1  0
  7  8  1  0
  8  9  1  0
  9 10  1  0
 10 11  1  0
 11 12  2  0
 11 13  2  0
 11 14  1  0
 14 15  1  0
 15 16  2  0
 16 17  1  0
 17 18  2  0
 18 19  1  0
 19 20  2  0
 10 21  1  0
 21 22  1  0
  6 23  2  0
 23  2  1  0
 22  7  1  0
 20 15  1  0
  1 24  1  0
  1 25  1  0
  1 26  1  0
  3 27  1  0
  4 28  1  0
  5 29  1  0
  8 30  1  0
  8 31  1  0
  9 32  1  0
  9 33  1  0
 10 34  1  0
 14 35  1  0
 14 36  1  0
 16 37  1  0
 17 38  1  0
 18 39  1  0
 19 40  1  0
 20 41  1  0
 21 42  1  0
 21 43  1  0
 22 44  1  0
 22 45  1  0
 23 46  1  0
M  CHG  1  10   1
M  END
>  <UniqueID>  (38) 
37

>  <SMILES>  (38) 
Cc1cccc(N2CC[NH+](S(=O)(=O)Cc3ccccc3)CC2)c1

>  <Energy>  (38) 
50.814444944226615

>  <Genealogy>  (38) 
Cc1cccc(N2CC[NH+](S(=O)(=O)Cc3ccccc3)CC2)c1 (protonated)
Cc1cccc(N2CC[NH+](S(=O)(=O)Cc3ccccc3)CC2)c1 (3D coordinates assigned)
Cc1cccc(N2CC[NH+](S(=O)(=O)Cc3ccccc3)CC2)c1 (nonaromatic ring conformer: 50.814444944226615 kcal/mol)

>  <smiles>  (38) 
Cc1cccc(N2CCN(S(=O)(=O)Cc3ccccc3)CC2)c1

>  <score_type>  (38) 
oracle

>  <origin>  (38) 
adgpu

>  <m_score__min__energy>  (38) 
-8.1500000000000004

>  <m_primary>  (38) 
energy

$$$$
38:0
     RDKit          3D

 38 39  0  0  0  0  0  0  0  0999 V2000
    0.6270   21.6360  -28.1460 N   0  0  0  0  0  0  0  0  0  0  0  0
   -1.6570   24.2590  -28.6180 C   0  0  0  0  0  0  0  0  0  0  0  0
   -1.6960   21.6650  -27.7900 C   0  0  0  0  0  0  0  0  0  0  0  0
   -2.8830   22.3940  -27.8360 C   0  0  0  0  0  0  0  0  0  0  0  0
   -2.8340   23.6750  -28.2490 N   0  0  0  0  0  0  0  0  0  0  0  0
   -4.0090   24.5170  -28.3310 C   0  0  0  0  0  0  0  0  0  0  0  0
   -4.6160   24.4830  -29.6850 C   0  0  0  0  0  0  0  0  0  0  0  0
   -3.9130   24.8300  -30.6680 O   0  0  0  0  0  0  0  0  0  0  0  0
   -5.9610   24.0620  -29.8210 N   0  0  0  0  0  0  0  0  0  0  0  0
   -6.6730   23.9820  -31.0670 C   0  0  0  0  0  0  0  0  0  0  0  0
   -6.5400   22.6600  -31.7140 C   0  0  0  0  0  0  0  0  0  0  0  0
   -7.5850   21.7790  -31.8940 C   0  0  0  0  0  0  0  0  0  0  0  0
   -7.3940   20.5580  -32.5040 C   0  0  0  0  0  0  0  0  0  0  0  0
   -6.1750   20.1410  -32.9650 C   0  0  0  0  0  0  0  0  0  0  0  0
   -6.0250   18.8190  -33.6130 C   0  0  0  0  0  0  0  0  0  0  0  0
   -6.1130   18.9250  -35.0520 N   0  0  0  0  0  0  0  0  0  0  0  0
   -5.1090   21.0190  -32.7910 C   0  0  0  0  0  0  0  0  0  0  0  0
   -5.2960   22.2510  -32.1770 C   0  0  0  0  0  0  0  0  0  0  0  0
   -0.5050   22.2540  -28.1630 C   0  0  0  0  0  0  0  0  0  0  0  0
   -1.6310   25.4740  -29.0060 O   0  0  0  0  0  0  0  0  0  0  0  0
   -0.5190   23.5360  -28.5680 N   0  0  0  0  0  0  0  0  0  0  0  0
    0.5910   20.6280  -27.8210 H   0  0  0  0  0  0  0  0  0  0  0  0
   -1.7085   20.6172  -27.4554 H   0  0  0  0  0  0  0  0  0  0  0  0
   -3.8378   21.9338  -27.5418 H   0  0  0  0  0  0  0  0  0  0  0  0
   -4.7510   24.1657  -27.5989 H   0  0  0  0  0  0  0  0  0  0  0  0
   -3.7042   25.5523  -28.1180 H   0  0  0  0  0  0  0  0  0  0  0  0
   -6.4790   23.7900  -28.9570 H   0  0  0  0  0  0  0  0  0  0  0  0
   -7.7390   24.1753  -30.8766 H   0  0  0  0  0  0  0  0  0  0  0  0
   -6.2398   24.7305  -31.7467 H   0  0  0  0  0  0  0  0  0  0  0  0
   -8.5904   22.0559  -31.5441 H   0  0  0  0  0  0  0  0  0  0  0  0
   -8.2591   19.8896  -32.6256 H   0  0  0  0  0  0  0  0  0  0  0  0
   -5.0451   18.3976  -33.3442 H   0  0  0  0  0  0  0  0  0  0  0  0
   -6.8390   18.1671  -33.2630 H   0  0  0  0  0  0  0  0  0  0  0  0
   -6.8380   19.6660  -35.2590 H   0  0  0  0  0  0  0  0  0  0  0  0
   -6.5520   18.0200  -35.3860 H   0  0  0  0  0  0  0  0  0  0  0  0
   -4.1068   20.7340  -33.1438 H   0  0  0  0  0  0  0  0  0  0  0  0
   -4.4334   22.9224  -32.0539 H   0  0  0  0  0  0  0  0  0  0  0  0
    0.3520   24.0350  -28.8620 H   0  0  0  0  0  0  0  0  0  0  0  0
  1  2  2  3
  2  3  1  0
  3  4  2  0
  4  5  1  0
  5  6  1  0
  6  7  1  0
  7  8  2  0
  7  9  1  0
  9 10  1  0
 10 11  1  0
 11 12  2  0
 12 13  1  0
 13 14  2  0
 14 15  1  0
 15 16  1  0
 14 17  1  0
 17 18  2  0
  5 19  1  0
 19 20  2  0
 19 21  1  0
 21  2  1  0
 18 11  1  0
  1 22  1  0
  3 23  1  0
  4 24  1  0
  6 25  1  0
  6 26  1  0
  9 27  1  0
 10 28  1  0
 10 29  1  0
 12 30  1  0
 13 31  1  0
 15 32  1  0
 15 33  1  0
 16 34  1  0
 16 35  1  0
 17 36  1  0
 18 37  1  0
 21 38  1  0
M  END
>  <smiles>  (39) 
N=c1ccn(CC(=O)NCc2ccc(CN)cc2)c(=O)[nH]1

>  <score_type>  (39) 
oracle

>  <origin>  (39) 
adgpu

>  <m_score__min__energy>  (39) 
-7.6299999999999999

>  <m_primary>  (39) 
energy

$$$$
39:0
     RDKit          3D

 36 38  0  0  0  0  0  0  0  0999 V2000
   -3.6820   16.6520  -35.7430 N   0  0  0  0  0  0  0  0  0  0  0  0
   -4.4410   17.1020  -34.9930 C   0  0  0  0  0  0  0  0  0  0  0  0
   -5.3890   17.6670  -34.0580 C   0  0  0  0  0  0  0  0  0  0  0  0
   -5.1550   18.9450  -33.5460 C   0  0  0  0  0  0  0  0  0  0  0  0
   -6.0690   19.5090  -32.6430 C   0  0  0  0  0  0  0  0  0  0  0  0
   -5.8790   20.8700  -32.0770 C   0  0  0  0  0  0  0  0  0  0  0  0
   -4.6350   21.5150  -32.2090 C   0  0  0  0  0  0  0  0  0  0  0  0
   -4.4310   22.7870  -31.6670 C   0  0  0  0  0  0  0  0  0  0  0  0
   -5.4620   23.4350  -30.9780 C   0  0  0  0  0  0  0  0  0  0  0  0
   -5.1820   25.0290  -30.2860 S   0  0  0  0  0  0  0  0  0  0  0  0
   -5.8850   25.1740  -28.9660 O   0  0  0  0  0  0  0  0  0  0  0  0
   -5.7110   26.0680  -31.2340 O   0  0  0  0  0  0  0  0  0  0  0  0
   -3.4810   25.2780  -30.0580 N   0  0  0  0  0  0  0  0  0  0  0  0
   -2.6590   24.5600  -29.1260 C   0  0  0  0  0  0  0  0  0  0  0  0
   -1.3290   24.9360  -28.8550 C   0  0  0  0  0  0  0  0  0  0  0  0
   -0.5630   24.2050  -27.9410 C   0  0  0  0  0  0  0  0  0  0  0  0
   -1.1130   23.0950  -27.2950 C   0  0  0  0  0  0  0  0  0  0  0  0
   -2.4310   22.7140  -27.5610 C   0  0  0  0  0  0  0  0  0  0  0  0
   -3.2010   23.4450  -28.4730 C   0  0  0  0  0  0  0  0  0  0  0  0
   -6.7010   22.7990  -30.8330 C   0  0  0  0  0  0  0  0  0  0  0  0
   -6.9090   21.5280  -31.3730 C   0  0  0  0  0  0  0  0  0  0  0  0
   -7.1570   18.7790  -32.2780 N   0  0  0  0  0  0  0  0  0  0  0  0
   -7.3860   17.5550  -32.7550 N   0  0  0  0  0  0  0  0  0  0  0  0
   -6.5380   16.9670  -33.6450 C   0  0  0  0  0  0  0  0  0  0  0  0
   -6.8810   15.4640  -34.2120 S   0  0  0  0  0  0  0  0  0  0  0  0
   -4.2590   19.5065  -33.8490 H   0  0  0  0  0  0  0  0  0  0  0  0
   -3.8153   21.0131  -32.7440 H   0  0  0  0  0  0  0  0  0  0  0  0
   -3.4551   23.2811  -31.7827 H   0  0  0  0  0  0  0  0  0  0  0  0
   -0.8912   25.8074  -29.3638 H   0  0  0  0  0  0  0  0  0  0  0  0
    0.4743   24.5046  -27.7305 H   0  0  0  0  0  0  0  0  0  0  0  0
   -0.5087   22.5210  -26.5771 H   0  0  0  0  0  0  0  0  0  0  0  0
   -2.8635   21.8392  -27.0534 H   0  0  0  0  0  0  0  0  0  0  0  0
   -4.2384   23.1422  -28.6785 H   0  0  0  0  0  0  0  0  0  0  0  0
   -7.5147   23.3031  -30.2910 H   0  0  0  0  0  0  0  0  0  0  0  0
   -7.8847   21.0357  -31.2482 H   0  0  0  0  0  0  0  0  0  0  0  0
   -8.2410   17.0470  -32.4340 H   0  0  0  0  0  0  0  0  0  0  0  0
  1  2  3  0
  2  3  1  0
  3  4  2  0
  4  5  1  0
  5  6  1  0
  6  7  2  0
  7  8  1  0
  8  9  2  0
  9 10  1  0
 10 11  2  0
 10 12  2  0
 10 13  1  0
 13 14  1  0
 14 15  2  0
 15 16  1  0
 16 17  2  0
 17 18  1  0
 18 19  2  0
  9 20  1  0
 20 21  2  0
  5 22  2  0
 22 23  1  0
 23 24  1  0
 24 25  2  0
 24  3  1  0
 21  6  1  0
 19 14  1  0
  4 26  1  0
  7 27  1  0
  8 28  1  0
 15 29  1  0
 16 30  1  0
 17 31  1  0
 18 32  1  0
 19 33  1  0
 20 34  1  0
 21 35  1  0
 23 36  1  0
M  CHG  1  13  -1
M  END
>  <UniqueID>  (40) 
38

>  <SMILES>  (40) 
N#Cc1cc(-c2ccc(S(=O)(=O)[N-]c3ccccc3)cc2)n[nH]c1=S

>  <Energy>  (40) 
48.075096665558185

>  <Genealogy>  (40) 
N#Cc1cc(-c2ccc(S(=O)(=O)[N-]c3ccccc3)cc2)n[nH]c1=S (protonated)
N#Cc1cc(-c2ccc(S(=O)(=O)[N-]c3ccccc3)cc2)n[nH]c1=S (3D coordinates assigned)
N#Cc1cc(-c2ccc(S(=O)(=O)[N-]c3ccccc3)cc2)n[nH]c1=S (optimized conformer: 48.075096665558185 kcal/mol)

>  <smiles>  (40) 
N#Cc1cc(-c2ccc(S(=O)(=O)Nc3ccccc3)cc2)n[nH]c1=S

>  <score_type>  (40) 
oracle

>  <origin>  (40) 
adgpu

>  <m_score__min__energy>  (40) 
-10.17

>  <m_primary>  (40) 
energy

$$$$
40:0
     RDKit          3D

 34 35  0  0  0  0  0  0  0  0999 V2000
   -1.5700   25.2370  -27.7390 C   0  0  0  0  0  0  0  0  0  0  0  0
   -2.1350   25.2780  -29.0450 O   0  0  0  0  0  0  0  0  0  0  0  0
   -2.7090   24.1750  -29.6970 C   0  0  0  0  0  0  0  0  0  0  0  0
   -2.1560   22.8850  -29.6100 C   0  0  0  0  0  0  0  0  0  0  0  0
   -2.7560   21.8110  -30.2700 C   0  0  0  0  0  0  0  0  0  0  0  0
   -3.9230   22.0010  -31.0270 C   0  0  0  0  0  0  0  0  0  0  0  0
   -4.5670   20.8700  -31.7380 C   0  0  0  0  0  0  0  0  0  0  0  0
   -4.6040   19.7350  -31.1860 O   0  0  0  0  0  0  0  0  0  0  0  0
   -5.1300   21.0390  -33.0500 N   0  0  0  0  0  0  0  0  0  0  0  0
   -5.8360   19.9620  -33.7400 C   0  0  0  0  0  0  0  0  0  0  0  0
   -7.0690   19.5840  -32.9830 C   0  0  0  0  0  0  0  0  0  0  0  0
   -8.1110   20.4360  -32.6400 C   0  0  0  0  0  0  0  0  0  0  0  0
   -9.1090   19.8070  -31.8860 C   0  0  0  0  0  0  0  0  0  0  0  0
   -8.8520   18.4660  -31.6280 C   0  0  0  0  0  0  0  0  0  0  0  0
   -7.3800   18.0640  -32.3360 S   0  0  0  0  0  0  0  0  0  0  0  0
   -4.4680   23.2920  -31.1240 C   0  0  0  0  0  0  0  0  0  0  0  0
   -3.8690   24.3800  -30.4590 C   0  0  0  0  0  0  0  0  0  0  0  0
   -4.3970   25.6800  -30.5300 O   0  0  0  0  0  0  0  0  0  0  0  0
   -5.7270   26.0340  -30.1650 C   0  0  0  0  0  0  0  0  0  0  0  0
   -2.3734   25.2953  -26.9899 H   0  0  0  0  0  0  0  0  0  0  0  0
   -1.0150   24.2962  -27.6090 H   0  0  0  0  0  0  0  0  0  0  0  0
   -0.8850   26.0878  -27.6090 H   0  0  0  0  0  0  0  0  0  0  0  0
   -1.2439   22.7209  -29.0175 H   0  0  0  0  0  0  0  0  0  0  0  0
   -2.3108   20.8078  -30.1963 H   0  0  0  0  0  0  0  0  0  0  0  0
   -4.9850   21.9330  -33.5690 H   0  0  0  0  0  0  0  0  0  0  0  0
   -6.1180   20.2999  -34.7481 H   0  0  0  0  0  0  0  0  0  0  0  0
   -5.1745   19.0858  -33.8087 H   0  0  0  0  0  0  0  0  0  0  0  0
   -8.1483   21.4962  -32.9309 H   0  0  0  0  0  0  0  0  0  0  0  0
  -10.0118   20.3257  -31.5311 H   0  0  0  0  0  0  0  0  0  0  0  0
   -9.5002   17.7840  -31.0582 H   0  0  0  0  0  0  0  0  0  0  0  0
   -5.3736   23.4555  -31.7266 H   0  0  0  0  0  0  0  0  0  0  0  0
   -5.8126   26.0568  -29.0686 H   0  0  0  0  0  0  0  0  0  0  0  0
   -5.9669   27.0273  -30.5722 H   0  0  0  0  0  0  0  0  0  0  0  0
   -6.4290   25.2914  -30.5722 H   0  0  0  0  0  0  0  0  0  0  0  0
  1  2  1  0
  2  3  1  0
  3  4  2  0
  4  5  1  0
  5  6  2  0
  6  7  1  0
  7  8  2  0
  7  9  1  0
  9 10  1  0
 10 11  1  0
 11 12  2  0
 12 13  1  0
 13 14  2  0
 14 15  1  0
  6 16  1  0
 16 17  2  0
 17 18  1  0
 18 19  1  0
 17  3  1  0
 15 11  1  0
  1 20  1  0
  1 21  1  0
  1 22  1  0
  4 23  1  0
  5 24  1  0
  9 25  1  0
 10 26  1  0
 10 27  1  0
 12 28  1  0
 13 29  1  0
 14 30  1  0
 16 31  1  0
 19 32  1  0
 19 33  1  0
 19 34  1  0
M  END
>  <UniqueID>  (41) 
39

>  <SMILES>  (41) 
COc1ccc(C(=O)NCc2cccs2)cc1OC

>  <Energy>  (41) 
58.52575568793028

>  <Genealogy>  (41) 
COc1ccc(C(=O)NCc2cccs2)cc1OC (3D coordinates assigned)
COc1ccc(C(=O)NCc2cccs2)cc1OC (optimized conformer: 58.52575568793028 kcal/mol)

>  <smiles>  (41) 
COc1ccc(C(=O)NCc2cccs2)cc1OC

>  <score_type>  (41) 
oracle

>  <origin>  (41) 
adgpu

>  <m_score__min__energy>  (41) 
-7.6600000000000001

>  <m_primary>  (41) 
energy

$$$$
41:0
     RDKit          3D

 49 51  0  0  0  0  0  0  0  0999 V2000
   -0.4530   22.5540  -24.0520 C   0  0  0  0  0  0  0  0  0  0  0  0
    0.2900   23.2960  -25.1570 C   0  0  0  0  0  0  0  0  0  0  0  0
    0.3130   22.5260  -26.3590 O   0  0  0  0  0  0  0  0  0  0  0  0
   -0.3860   22.8330  -27.5400 C   0  0  0  0  0  0  0  0  0  0  0  0
   -0.8160   24.1360  -27.8560 C   0  0  0  0  0  0  0  0  0  0  0  0
   -1.5170   24.3780  -29.0420 C   0  0  0  0  0  0  0  0  0  0  0  0
   -1.9500   25.6630  -29.3420 O   0  0  0  0  0  0  0  0  0  0  0  0
   -1.7880   23.3270  -29.9230 C   0  0  0  0  0  0  0  0  0  0  0  0
   -1.3510   22.0260  -29.6260 C   0  0  0  0  0  0  0  0  0  0  0  0
   -1.6180   20.9400  -30.4730 O   0  0  0  0  0  0  0  0  0  0  0  0
   -1.1880   20.8210  -31.8040 C   0  0  0  0  0  0  0  0  0  0  0  0
    0.1560   20.5500  -32.1140 C   0  0  0  0  0  0  0  0  0  0  0  0
    0.5620   20.4130  -33.4440 C   0  0  0  0  0  0  0  0  0  0  0  0
    2.2430   20.0810  -33.8190 Cl  0  0  0  0  0  0  0  0  0  0  0  0
   -0.3700   20.5400  -34.4760 C   0  0  0  0  0  0  0  0  0  0  0  0
   -1.7120   20.7920  -34.1790 C   0  0  0  0  0  0  0  0  0  0  0  0
   -2.1330   20.9170  -32.8450 C   0  0  0  0  0  0  0  0  0  0  0  0
   -3.5500   21.2110  -32.5400 C   0  0  0  0  0  0  0  0  0  0  0  0
   -3.8630   22.4500  -32.0700 N   0  0  0  0  0  0  0  0  0  0  0  0
   -5.1350   22.8160  -31.7710 C   0  0  0  0  0  0  0  0  0  0  0  0
   -6.1840   21.9090  -31.9480 C   0  0  0  0  0  0  0  0  0  0  0  0
   -7.8420   22.3570  -31.5520 S   0  0  0  0  0  0  0  0  0  0  0  0
   -8.0900   23.7670  -32.0100 O   0  0  0  0  0  0  0  0  0  0  0  0
   -8.0550   22.2950  -30.0650 O   0  0  0  0  0  0  0  0  0  0  0  0
   -8.9590   21.2930  -32.3490 N   0  0  0  0  0  0  0  0  0  0  0  0
   -8.9640   19.9950  -31.6840 C   0  0  0  0  0  0  0  0  0  0  0  0
   -5.8960   20.6230  -32.4130 C   0  0  0  0  0  0  0  0  0  0  0  0
   -4.5740   20.2480  -32.6990 C   0  0  0  0  0  0  0  0  0  0  0  0
   -4.2940   18.8470  -33.1710 C   0  0  0  0  0  0  0  0  0  0  0  0
   -0.6670   21.7870  -28.4280 C   0  0  0  0  0  0  0  0  0  0  0  0
   -0.0998   22.9068  -23.0718 H   0  0  0  0  0  0  0  0  0  0  0  0
   -1.5324   22.7454  -24.1434 H   0  0  0  0  0  0  0  0  0  0  0  0
   -0.2630   21.4744  -24.1434 H   0  0  0  0  0  0  0  0  0  0  0  0
   -0.2159   24.2532  -25.3517 H   0  0  0  0  0  0  0  0  0  0  0  0
    1.3258   23.4695  -24.8299 H   0  0  0  0  0  0  0  0  0  0  0  0
   -0.5999   24.9665  -27.1678 H   0  0  0  0  0  0  0  0  0  0  0  0
   -2.3452   23.5197  -30.8516 H   0  0  0  0  0  0  0  0  0  0  0  0
    0.8930   20.4451  -31.3042 H   0  0  0  0  0  0  0  0  0  0  0  0
   -0.0477   20.4416  -35.5231 H   0  0  0  0  0  0  0  0  0  0  0  0
   -2.4429   20.8931  -34.9948 H   0  0  0  0  0  0  0  0  0  0  0  0
   -5.3408   23.8269  -31.3892 H   0  0  0  0  0  0  0  0  0  0  0  0
   -8.9634   20.1415  -30.5938 H   0  0  0  0  0  0  0  0  0  0  0  0
   -9.8643   19.4357  -31.9783 H   0  0  0  0  0  0  0  0  0  0  0  0
   -8.0680   19.4288  -31.9783 H   0  0  0  0  0  0  0  0  0  0  0  0
   -6.7117   19.8990  -32.5560 H   0  0  0  0  0  0  0  0  0  0  0  0
   -4.1620   18.1866  -32.3013 H   0  0  0  0  0  0  0  0  0  0  0  0
   -5.1384   18.4891  -33.7784 H   0  0  0  0  0  0  0  0  0  0  0  0
   -3.3769   18.8411  -33.7784 H   0  0  0  0  0  0  0  0  0  0  0  0
   -0.3461   20.7643  -28.1809 H   0  0  0  0  0  0  0  0  0  0  0  0
  1  2  1  0
  2  3  1  0
  3  4  1  0
  4  5  2  0
  5  6  1  0
  6  7  1  0
  6  8  2  0
  8  9  1  0
  9 10  1  0
 10 11  1  0
 11 12  2  0
 12 13  1  0
 13 14  1  0
 13 15  2  0
 15 16  1  0
 16 17  2  0
 17 18  1  0
 18 19  2  0
 19 20  1  0
 20 21  2  0
 21 22  1  0
 22 23  2  0
 22 24  2  0
 22 25  1  0
 25 26  1  0
 21 27  1  0
 27 28  2  0
 28 29  1  0
  9 30  2  0
 30  4  1  0
 17 11  1  0
 28 18  1  0
  1 31  1  0
  1 32  1  0
  1 33  1  0
  2 34  1  0
  2 35  1  0
  5 36  1  0
  8 37  1  0
 12 38  1  0
 15 39  1  0
 16 40  1  0
 20 41  1  0
 26 42  1  0
 26 43  1  0
 26 44  1  0
 27 45  1  0
 29 46  1  0
 29 47  1  0
 29 48  1  0
 30 49  1  0
M  CHG  2   7  -1  25  -1
M  END
>  <UniqueID>  (42) 
40

>  <SMILES>  (42) 
CCOc1cc([O-])cc(Oc2cc(Cl)ccc2-c2ncc(S(=O)(=O)[N-]C)cc2C)c1

>  <Energy>  (42) 
60.944177648328825

>  <Genealogy>  (42) 
CCOc1cc([O-])cc(Oc2cc(Cl)ccc2-c2ncc(S(=O)(=O)[N-]C)cc2C)c1 (protonated)
CCOc1cc([O-])cc(Oc2cc(Cl)ccc2-c2ncc(S(=O)(=O)[N-]C)cc2C)c1 (3D coordinates assigned)
CCOc1cc([O-])cc(Oc2cc(Cl)ccc2-c2ncc(S(=O)(=O)[N-]C)cc2C)c1 (optimized conformer: 60.944177648328825 kcal/mol)

>  <smiles>  (42) 
CCOc1cc(O)cc(Oc2cc(Cl)ccc2-c2ncc(S(=O)(=O)NC)cc2C)c1

>  <score_type>  (42) 
oracle

>  <origin>  (42) 
adgpu

>  <m_score__min__energy>  (42) 
-12.1

>  <m_primary>  (42) 
energy

$$$$
42:0
     RDKit          3D

 60 64  0  0  0  0  0  0  0  0999 V2000
   -7.8348   24.7719  -29.9985 H   0  0  0  0  0  0  0  0  0  0  0  0
   -7.2600   23.9750  -30.4930 C   0  0  0  0  0  0  0  0  0  0  0  0
   -7.9060   22.8950  -31.0070 N   0  0  0  0  0  0  0  0  0  0  0  0
   -7.2220   21.9070  -31.6380 C   0  0  0  0  0  0  0  0  0  0  0  0
   -7.8570   20.8510  -32.0590 N   0  0  0  0  0  0  0  0  0  0  0  0
   -7.2500   19.7280  -32.7220 C   0  0  0  0  0  0  0  0  0  0  0  0
   -6.4210   19.8890  -33.8470 C   0  0  0  0  0  0  0  0  0  0  0  0
   -6.2594   20.8922  -34.2683 H   0  0  0  0  0  0  0  0  0  0  0  0
   -5.8020   18.7820  -34.4320 C   0  0  0  0  0  0  0  0  0  0  0  0
   -5.1489   18.9215  -35.3060 H   0  0  0  0  0  0  0  0  0  0  0  0
   -6.0060   17.4910  -33.9140 C   0  0  0  0  0  0  0  0  0  0  0  0
   -5.3240   16.2990  -34.5710 C   0  0  1  0  0  0  0  0  0  0  0  0
   -5.9086   16.0490  -35.4686 H   0  0  0  0  0  0  0  0  0  0  0  0
   -3.9010   16.6310  -35.0930 C   0  0  0  0  0  0  0  0  0  0  0  0
   -3.9246   16.6553  -36.1925 H   0  0  0  0  0  0  0  0  0  0  0  0
   -3.6089   17.6056  -34.6750 H   0  0  0  0  0  0  0  0  0  0  0  0
   -2.8590   15.5980  -34.6450 C   0  0  0  0  0  0  0  0  0  0  0  0
   -3.0860   14.6290  -35.1136 H   0  0  0  0  0  0  0  0  0  0  0  0
   -1.8613   15.9450  -34.9519 H   0  0  0  0  0  0  0  0  0  0  0  0
   -2.8780   15.4430  -33.1760 N   0  0  2  0  0  0  0  0  0  0  0  0
   -2.6420   16.3740  -32.7560 H   0  0  0  0  0  0  0  0  0  0  0  0
   -1.8140   14.5140  -32.7570 C   0  0  0  0  0  0  0  0  0  0  0  0
   -1.7714   14.4768  -31.6585 H   0  0  0  0  0  0  0  0  0  0  0  0
   -2.0288   13.5093  -33.1499 H   0  0  0  0  0  0  0  0  0  0  0  0
   -0.8474   14.8624  -33.1499 H   0  0  0  0  0  0  0  0  0  0  0  0
   -4.2020   15.0090  -32.6350 C   0  0  0  0  0  0  0  0  0  0  0  0
   -4.1036   13.9742  -32.2750 H   0  0  0  0  0  0  0  0  0  0  0  0
   -4.4618   15.7193  -31.8363 H   0  0  0  0  0  0  0  0  0  0  0  0
   -5.3570   15.0560  -33.6570 C   0  0  0  0  0  0  0  0  0  0  0  0
   -5.2984   14.1579  -34.2894 H   0  0  0  0  0  0  0  0  0  0  0  0
   -6.2939   15.1032  -33.0825 H   0  0  0  0  0  0  0  0  0  0  0  0
   -6.8790   17.3310  -32.8220 C   0  0  0  0  0  0  0  0  0  0  0  0
   -7.0757   16.3243  -32.4247 H   0  0  0  0  0  0  0  0  0  0  0  0
   -7.4990   18.4400  -32.2370 C   0  0  0  0  0  0  0  0  0  0  0  0
   -8.1867   18.2983  -31.3902 H   0  0  0  0  0  0  0  0  0  0  0  0
   -5.8750   22.0010  -31.7600 N   0  0  0  0  0  0  0  0  0  0  0  0
   -5.1760   23.0490  -31.2550 C   0  0  0  0  0  0  0  0  0  0  0  0
   -3.7850   23.1040  -31.4130 O   0  0  0  0  0  0  0  0  0  0  0  0
   -3.0290   22.0500  -31.9430 C   0  0  0  0  0  0  0  0  0  0  0  0
   -3.3960   21.5030  -33.1840 C   0  0  0  0  0  0  0  0  0  0  0  0
   -4.2252   21.9489  -33.7528 H   0  0  0  0  0  0  0  0  0  0  0  0
   -2.7120   20.3900  -33.7050 C   0  0  0  0  0  0  0  0  0  0  0  0
   -3.0144   19.9660  -34.6739 H   0  0  0  0  0  0  0  0  0  0  0  0
   -1.6460   19.8180  -32.9950 C   0  0  0  0  0  0  0  0  0  0  0  0
   -1.1198   18.9362  -33.3893 H   0  0  0  0  0  0  0  0  0  0  0  0
   -1.2650   20.3880  -31.7790 C   0  0  0  0  0  0  0  0  0  0  0  0
   -1.9210   21.4880  -31.2770 C   0  0  0  0  0  0  0  0  0  0  0  0
   -1.2440   21.8950  -30.0620 C   0  0  0  0  0  0  0  0  0  0  0  0
   -1.4870   22.9470  -29.4140 O   0  0  0  0  0  0  0  0  0  0  0  0
   -0.1520   20.9360  -29.7210 C   0  0  0  0  0  0  0  0  0  0  0  0
    0.8129   21.4573  -29.6363 H   0  0  0  0  0  0  0  0  0  0  0  0
   -0.3156   20.4368  -28.7545 H   0  0  0  0  0  0  0  0  0  0  0  0
   -0.1370   19.9440  -30.9050 C   0  0  0  0  0  0  0  0  0  0  0  0
    0.8191   19.9988  -31.4462 H   0  0  0  0  0  0  0  0  0  0  0  0
   -0.2475   18.8998  -30.5774 H   0  0  0  0  0  0  0  0  0  0  0  0
   -5.8610   24.0790  -30.5900 C   0  0  0  0  0  0  0  0  0  0  0  0
   -5.1130   25.2650  -30.0310 C   0  0  0  0  0  0  0  0  0  0  0  0
   -4.0970   25.6720  -30.8790 F   0  0  0  0  0  0  0  0  0  0  0  0
   -4.5600   24.9270  -28.8110 F   0  0  0  0  0  0  0  0  0  0  0  0
   -5.9850   26.3230  -29.8550 F   0  0  0  0  0  0  0  0  0  0  0  0
  1  2  1  0
  2  3  1  0
  3  4  1  0
  4  5  2  0
  5  6  1  0
  6  7  2  0
  7  8  1  0
  7  9  1  0
  9 10  1  0
  9 11  2  0
 11 12  1  0
 12 13  1  6
 12 14  1  0
 14 15  1  0
 14 16  1  0
 14 17  1  0
 17 18  1  0
 17 19  1  0
 17 20  1  0
 20 21  1  1
 20 22  1  0
 22 23  1  0
 22 24  1  0
 22 25  1  0
 20 26  1  0
 26 27  1  0
 26 28  1  0
 26 29  1  0
 29 30  1  0
 29 31  1  0
 11 32  1  0
 32 33  1  0
 32 34  2  0
 34 35  1  0
  4 36  1  0
 36 37  2  0
 37 38  1  0
 38 39  1  0
 39 40  2  0
 40 41  1  0
 40 42  1  0
 42 43  1  0
 42 44  2  0
 44 45  1  0
 44 46  1  0
 46 47  2  0
 47 48  1  0
 48 49  2  0
 48 50  1  0
 50 51  1  0
 50 52  1  0
 50 53  1  0
 53 54  1  0
 53 55  1  0
 37 56  1  0
 56 57  1  0
 57 58  1  0
 57 59  1  0
 57 60  1  0
 56  2  2  0
 34  6  1  0
 47 39  1  0
 29 12  1  0
 53 46  1  0
M  CHG  2   3  -1  20   1
M  END
>  <UniqueID>  (43) 
41

>  <SMILES>  (43) 
C[NH+]1CCC(c2ccc(/N=c3\nc(Oc4cccc5c4C(=O)CC5)c(C(F)(F)F)c[n-]3)cc2)CC1

>  <Energy>  (43) 
98.85033399802316

>  <Genealogy>  (43) 
C[NH+]1CCC(c2ccc(N=c3nc(Oc4cccc5c4C(=O)CC5)c(C(F)(F)F)c[n-]3)cc2)CC1 (protonated)
C[NH+]1CCC(c2ccc(/N=c3\nc(Oc4cccc5c4C(=O)CC5)c(C(F)(F)F)c[n-]3)cc2)CC1 (cis-trans isomerization)
C[NH+]1CCC(c2ccc(/N=c3\nc(Oc4cccc5c4C(=O)CC5)c(C(F)(F)F)c[n-]3)cc2)CC1 (3D coordinates assigned)
C[NH+]1CCC(c2ccc(/N=c3\nc(Oc4cccc5c4C(=O)CC5)c(C(F)(F)F)c[n-]3)cc2)CC1 (nonaromatic ring conformer: 98.85033399802316 kcal/mol)

>  <smiles>  (43) 
CN1CCC(c2ccc(N=c3nc(Oc4cccc5c4C(=O)CC5)c(C(F)(F)F)c[nH]3)cc2)CC1

>  <score_type>  (43) 
oracle

>  <origin>  (43) 
adgpu

>  <m_score__min__energy>  (43) 
-10.710000000000001

>  <m_primary>  (43) 
energy

$$$$
43:0
     RDKit          3D

 56 59  0  0  0  0  0  0  0  0999 V2000
   -2.7210   19.1850  -26.9180 C   0  0  0  0  0  0  0  0  0  0  0  0
   -2.0240   20.4460  -27.3390 C   0  0  0  0  0  0  0  0  0  0  0  0
   -0.6590   20.4220  -27.6590 C   0  0  0  0  0  0  0  0  0  0  0  0
    0.0040   21.6030  -28.0040 C   0  0  0  0  0  0  0  0  0  0  0  0
   -0.6880   22.8160  -28.0260 C   0  0  0  0  0  0  0  0  0  0  0  0
   -2.0550   22.8560  -27.7060 C   0  0  0  0  0  0  0  0  0  0  0  0
   -2.7950   24.1660  -27.6880 C   0  0  0  0  0  0  0  0  0  0  0  0
   -2.5050   24.9330  -28.9490 C   0  0  0  0  0  0  0  0  0  0  0  0
   -1.5200   25.7200  -28.9730 O   0  0  0  0  0  0  0  0  0  0  0  0
   -3.3890   24.8990  -30.0750 N   0  0  0  0  0  0  0  0  0  0  0  0
   -3.8780   23.7220  -30.7300 C   0  0  0  0  0  0  0  0  0  0  0  0
   -5.0250   23.7560  -31.5400 C   0  0  0  0  0  0  0  0  0  0  0  0
   -5.5040   22.5850  -32.1330 C   0  0  0  0  0  0  0  0  0  0  0  0
   -4.8560   21.3570  -31.9130 C   0  0  0  0  0  0  0  0  0  0  0  0
   -5.3690   20.1520  -32.5170 N   0  0  0  0  0  0  0  0  0  0  0  0
   -6.7500   19.7990  -32.3390 C   0  0  0  0  0  0  0  0  0  0  0  0
   -7.0910   18.5490  -31.7980 C   0  0  0  0  0  0  0  0  0  0  0  0
   -8.4340   18.2030  -31.6200 C   0  0  0  0  0  0  0  0  0  0  0  0
   -9.4420   19.1030  -31.9750 C   0  0  0  0  0  0  0  0  0  0  0  0
   -9.1090   20.3530  -32.5050 C   0  0  0  0  0  0  0  0  0  0  0  0
   -7.7670   20.7030  -32.6840 C   0  0  0  0  0  0  0  0  0  0  0  0
   -4.3030   19.0170  -33.2990 S   0  0  0  0  0  0  0  0  0  0  0  0
   -4.7230   18.8420  -34.7330 O   0  0  0  0  0  0  0  0  0  0  0  0
   -4.3770   17.6770  -32.6250 O   0  0  0  0  0  0  0  0  0  0  0  0
   -2.6490   19.6150  -33.2120 C   0  0  0  0  0  0  0  0  0  0  0  0
   -2.2630   20.7660  -33.9160 C   0  0  0  0  0  0  0  0  0  0  0  0
   -0.9490   21.2370  -33.8230 C   0  0  0  0  0  0  0  0  0  0  0  0
   -0.0170   20.5630  -33.0280 C   0  0  0  0  0  0  0  0  0  0  0  0
   -0.3980   19.4160  -32.3270 C   0  0  0  0  0  0  0  0  0  0  0  0
   -1.7100   18.9420  -32.4180 C   0  0  0  0  0  0  0  0  0  0  0  0
   -3.7290   21.3240  -31.0730 C   0  0  0  0  0  0  0  0  0  0  0  0
   -3.2500   22.4970  -30.4830 C   0  0  0  0  0  0  0  0  0  0  0  0
   -2.7140   21.6680  -27.3460 C   0  0  0  0  0  0  0  0  0  0  0  0
   -2.7505   19.1315  -25.8197 H   0  0  0  0  0  0  0  0  0  0  0  0
   -3.7477   19.1842  -27.3129 H   0  0  0  0  0  0  0  0  0  0  0  0
   -2.1756   18.3152  -27.3129 H   0  0  0  0  0  0  0  0  0  0  0  0
   -0.1080   19.4702  -27.6384 H   0  0  0  0  0  0  0  0  0  0  0  0
    1.0737   21.5771  -28.2589 H   0  0  0  0  0  0  0  0  0  0  0  0
   -0.1606   23.7431  -28.2949 H   0  0  0  0  0  0  0  0  0  0  0  0
   -3.8758   23.9738  -27.6180 H   0  0  0  0  0  0  0  0  0  0  0  0
   -2.4663   24.7567  -26.8202 H   0  0  0  0  0  0  0  0  0  0  0  0
   -5.5485   24.7087  -31.7083 H   0  0  0  0  0  0  0  0  0  0  0  0
   -6.3950   22.6243  -32.7769 H   0  0  0  0  0  0  0  0  0  0  0  0
   -6.2995   17.8401  -31.5135 H   0  0  0  0  0  0  0  0  0  0  0  0
   -8.6973   17.2210  -31.2000 H   0  0  0  0  0  0  0  0  0  0  0  0
  -10.4981   18.8279  -31.8374 H   0  0  0  0  0  0  0  0  0  0  0  0
   -9.9033   21.0619  -32.7815 H   0  0  0  0  0  0  0  0  0  0  0  0
   -7.5076   21.6893  -33.0962 H   0  0  0  0  0  0  0  0  0  0  0  0
   -2.9945   21.2985  -34.5417 H   0  0  0  0  0  0  0  0  0  0  0  0
   -0.6486   22.1390  -34.3762 H   0  0  0  0  0  0  0  0  0  0  0  0
    1.0154   20.9355  -32.9545 H   0  0  0  0  0  0  0  0  0  0  0  0
    0.3356   18.8851  -31.7025 H   0  0  0  0  0  0  0  0  0  0  0  0
   -2.0063   18.0384  -31.8650 H   0  0  0  0  0  0  0  0  0  0  0  0
   -3.2206   20.3681  -30.8788 H   0  0  0  0  0  0  0  0  0  0  0  0
   -2.3732   22.4564  -29.8200 H   0  0  0  0  0  0  0  0  0  0  0  0
   -3.7779   21.6962  -27.0678 H   0  0  0  0  0  0  0  0  0  0  0  0
  1  2  1  0
  2  3  2  0
  3  4  1  0
  4  5  2  0
  5  6  1  0
  6  7  1  0
  7  8  1  0
  8  9  2  0
  8 10  1  0
 10 11  1  0
 11 12  2  0
 12 13  1  0
 13 14  2  0
 14 15  1  0
 15 16  1  0
 16 17  2  0
 17 18  1  0
 18 19  2  0
 19 20  1  0
 20 21  2  0
 15 22  1  0
 22 23  2  0
 22 24  2  0
 22 25  1  0
 25 26  2  0
 26 27  1  0
 27 28  2  0
 28 29  1  0
 29 30  2  0
 14 31  1  0
 31 32  2  0
  6 33  2  0
 33  2  1  0
 32 11  1  0
 21 16  1  0
 30 25  1  0
  1 34  1  0
  1 35  1  0
  1 36  1  0
  3 37  1  0
  4 38  1  0
  5 39  1  0
  7 40  1  0
  7 41  1  0
 12 42  1  0
 13 43  1  0
 17 44  1  0
 18 45  1  0
 19 46  1  0
 20 47  1  0
 21 48  1  0
 26 49  1  0
 27 50  1  0
 28 51  1  0
 29 52  1  0
 30 53  1  0
 31 54  1  0
 32 55  1  0
 33 56  1  0
M  CHG  1  10  -1
M  END
>  <UniqueID>  (44) 
42

>  <SMILES>  (44) 
Cc1cccc(CC(=O)[N-]c2ccc(N(c3ccccc3)S(=O)(=O)c3ccccc3)cc2)c1

>  <Energy>  (44) 
74.27382552347441

>  <Genealogy>  (44) 
Cc1cccc(CC(=O)[N-]c2ccc(N(c3ccccc3)S(=O)(=O)c3ccccc3)cc2)c1 (protonated)
Cc1cccc(CC(=O)[N-]c2ccc(N(c3ccccc3)S(=O)(=O)c3ccccc3)cc2)c1 (3D coordinates assigned)
Cc1cccc(CC(=O)[N-]c2ccc(N(c3ccccc3)S(=O)(=O)c3ccccc3)cc2)c1 (optimized conformer: 74.27382552347441 kcal/mol)

>  <smiles>  (44) 
Cc1cccc(CC(=O)Nc2ccc(N(c3ccccc3)S(=O)(=O)c3ccccc3)cc2)c1

>  <score_type>  (44) 
oracle

>  <origin>  (44) 
adgpu

>  <m_score__min__energy>  (44) 
-11.640000000000001

>  <m_primary>  (44) 
energy

$$$$
44:0
     RDKit          3D

 35 36  0  0  0  0  0  0  0  0999 V2000
   -3.8370   18.8250  -33.8360 C   0  0  0  0  0  0  0  0  0  0  0  0
   -5.1410   18.8260  -33.0950 C   0  0  0  0  0  0  0  0  0  0  0  0
   -5.4310   17.8070  -32.1760 C   0  0  0  0  0  0  0  0  0  0  0  0
   -6.6310   17.8280  -31.4620 C   0  0  0  0  0  0  0  0  0  0  0  0
   -7.5390   18.8730  -31.6450 C   0  0  0  0  0  0  0  0  0  0  0  0
   -7.2550   19.9170  -32.5400 C   0  0  0  0  0  0  0  0  0  0  0  0
   -8.2000   20.9910  -32.6860 N   0  0  0  0  0  0  0  0  0  0  0  0
   -8.4950   22.1920  -31.4680 S   0  0  0  0  0  0  0  0  0  0  0  0
   -8.9300   21.5140  -30.1990 O   0  0  0  0  0  0  0  0  0  0  0  0
   -9.5910   23.1070  -31.9360 O   0  0  0  0  0  0  0  0  0  0  0  0
   -7.0190   23.0990  -31.1460 C   0  0  0  0  0  0  0  0  0  0  0  0
   -5.7760   22.5440  -31.4670 C   0  0  0  0  0  0  0  0  0  0  0  0
   -4.5930   23.2650  -31.2380 C   0  0  0  0  0  0  0  0  0  0  0  0
   -3.2640   22.6710  -31.6070 C   0  0  0  0  0  0  0  0  0  0  0  0
   -4.6650   24.5560  -30.6850 C   0  0  0  0  0  0  0  0  0  0  0  0
   -3.4970   25.2820  -30.4660 O   0  0  0  0  0  0  0  0  0  0  0  0
   -5.9130   25.1140  -30.3530 C   0  0  0  0  0  0  0  0  0  0  0  0
   -5.9980   26.4260  -29.7850 N   0  0  0  0  0  0  0  0  0  0  0  0
   -7.0840   24.3800  -30.5840 C   0  0  0  0  0  0  0  0  0  0  0  0
   -6.0490   19.8820  -33.2670 C   0  0  0  0  0  0  0  0  0  0  0  0
   -3.0058   18.8244  -33.1155 H   0  0  0  0  0  0  0  0  0  0  0  0
   -3.7751   17.9268  -34.4680 H   0  0  0  0  0  0  0  0  0  0  0  0
   -3.7737   19.7231  -34.4680 H   0  0  0  0  0  0  0  0  0  0  0  0
   -4.7120   16.9898  -32.0173 H   0  0  0  0  0  0  0  0  0  0  0  0
   -6.8616   17.0189  -30.7533 H   0  0  0  0  0  0  0  0  0  0  0  0
   -8.4847   18.8784  -31.0833 H   0  0  0  0  0  0  0  0  0  0  0  0
   -8.8190   21.0110  -33.5280 H   0  0  0  0  0  0  0  0  0  0  0  0
   -5.7247   21.5350  -31.9022 H   0  0  0  0  0  0  0  0  0  0  0  0
   -2.7069   22.4220  -30.6918 H   0  0  0  0  0  0  0  0  0  0  0  0
   -3.4223   21.7580  -32.1997 H   0  0  0  0  0  0  0  0  0  0  0  0
   -2.6893   23.3979  -32.1997 H   0  0  0  0  0  0  0  0  0  0  0  0
   -5.1880   27.0830  -29.8100 H   0  0  0  0  0  0  0  0  0  0  0  0
   -6.8810   26.7540  -29.3330 H   0  0  0  0  0  0  0  0  0  0  0  0
   -8.0608   24.8129  -30.3222 H   0  0  0  0  0  0  0  0  0  0  0  0
   -5.8168   20.6901  -33.9763 H   0  0  0  0  0  0  0  0  0  0  0  0
  1  2  1  0
  2  3  2  0
  3  4  1  0
  4  5  2  0
  5  6  1  0
  6  7  1  0
  7  8  1  0
  8  9  2  0
  8 10  2  0
  8 11  1  0
 11 12  2  0
 12 13  1  0
 13 14  1  0
 13 15  2  0
 15 16  1  0
 15 17  1  0
 17 18  1  0
 17 19  2  0
  6 20  2  0
 20  2  1  0
 19 11  1  0
  1 21  1  0
  1 22  1  0
  1 23  1  0
  3 24  1  0
  4 25  1  0
  5 26  1  0
  7 27  1  0
 12 28  1  0
 14 29  1  0
 14 30  1  0
 14 31  1  0
 18 32  1  0
 18 33  1  0
 19 34  1  0
 20 35  1  0
M  CHG  1  16  -1
M  END
>  <UniqueID>  (45) 
43

>  <SMILES>  (45) 
Cc1cccc(NS(=O)(=O)c2cc(C)c([O-])c(N)c2)c1

>  <Energy>  (45) 
36.31387527314206

>  <Genealogy>  (45) 
Cc1cccc(NS(=O)(=O)c2cc(C)c([O-])c(N)c2)c1 (protonated)
Cc1cccc(NS(=O)(=O)c2cc(C)c([O-])c(N)c2)c1 (3D coordinates assigned)
Cc1cccc(NS(=O)(=O)c2cc(C)c([O-])c(N)c2)c1 (optimized conformer: 36.31387527314206 kcal/mol)

>  <smiles>  (45) 
Cc1cccc(NS(=O)(=O)c2cc(C)c(O)c(N)c2)c1

>  <score_type>  (45) 
oracle

>  <origin>  (45) 
adgpu

>  <m_score__min__energy>  (45) 
-10.84

>  <m_primary>  (45) 
energy

$$$$
45:0
     RDKit          3D

 50 52  0  0  0  0  0  0  0  0999 V2000
   -0.3340   19.8350  -27.4600 C   0  0  0  0  0  0  0  0  0  0  0  0
    0.5490   19.8080  -28.5770 O   0  0  0  0  0  0  0  0  0  0  0  0
    0.1550   19.5310  -29.8950 C   0  0  0  0  0  0  0  0  0  0  0  0
   -0.0790   20.5530  -30.8360 C   0  0  0  0  0  0  0  0  0  0  0  0
   -0.4700   20.2380  -32.1390 C   0  0  0  0  0  0  0  0  0  0  0  0
   -0.6280   18.9020  -32.5230 C   0  0  0  0  0  0  0  0  0  0  0  0
   -1.0810   18.4890  -34.1760 S   0  0  0  0  0  0  0  0  0  0  0  0
   -0.6280   17.1000  -34.5320 O   0  0  0  0  0  0  0  0  0  0  0  0
   -0.4300   19.4650  -35.1140 O   0  0  0  0  0  0  0  0  0  0  0  0
   -2.8040   18.5900  -34.3490 N   0  0  0  0  0  0  0  0  0  0  0  0
   -3.6350   19.5890  -33.7410 C   0  0  0  0  0  0  0  0  0  0  0  0
   -4.9540   19.3180  -33.3360 C   0  0  0  0  0  0  0  0  0  0  0  0
   -5.7220   20.3120  -32.7230 C   0  0  0  0  0  0  0  0  0  0  0  0
   -5.1890   21.5900  -32.5190 C   0  0  0  0  0  0  0  0  0  0  0  0
   -6.1660   22.8300  -31.7390 S   0  0  0  0  0  0  0  0  0  0  0  0
   -7.1510   23.3440  -32.7530 O   0  0  0  0  0  0  0  0  0  0  0  0
   -6.9330   22.2620  -30.5790 O   0  0  0  0  0  0  0  0  0  0  0  0
   -5.1930   24.1680  -31.2090 N   0  0  0  0  0  0  0  0  0  0  0  0
   -4.1310   24.1790  -30.4500 C   0  0  0  0  0  0  0  0  0  0  0  0
   -3.5070   25.3000  -30.1700 O   0  0  0  0  0  0  0  0  0  0  0  0
   -2.4800   25.0930  -29.3990 N   0  0  0  0  0  0  0  0  0  0  0  0
   -2.4250   23.7680  -29.1610 C   0  0  0  0  0  0  0  0  0  0  0  0
   -1.3880   23.1310  -28.2890 C   0  0  0  0  0  0  0  0  0  0  0  0
   -3.4640   23.1250  -29.8200 C   0  0  0  0  0  0  0  0  0  0  0  0
   -3.7850   21.6600  -29.7290 C   0  0  0  0  0  0  0  0  0  0  0  0
   -3.8850   21.8700  -32.9460 C   0  0  0  0  0  0  0  0  0  0  0  0
   -3.1130   20.8740  -33.5510 C   0  0  0  0  0  0  0  0  0  0  0  0
   -0.3970   17.8810  -31.5940 C   0  0  0  0  0  0  0  0  0  0  0  0
   -0.0070   18.1890  -30.2760 C   0  0  0  0  0  0  0  0  0  0  0  0
    0.2290   17.1910  -29.3160 O   0  0  0  0  0  0  0  0  0  0  0  0
    1.4930   16.9330  -28.7160 C   0  0  0  0  0  0  0  0  0  0  0  0
    0.2517   19.8171  -26.5291 H   0  0  0  0  0  0  0  0  0  0  0  0
   -0.9404   20.7521  -27.4941 H   0  0  0  0  0  0  0  0  0  0  0  0
   -0.9953   18.9567  -27.4941 H   0  0  0  0  0  0  0  0  0  0  0  0
    0.0471   21.6056  -30.5425 H   0  0  0  0  0  0  0  0  0  0  0  0
   -0.6544   21.0428  -32.8658 H   0  0  0  0  0  0  0  0  0  0  0  0
   -5.3834   18.3190  -33.5024 H   0  0  0  0  0  0  0  0  0  0  0  0
   -6.7495   20.0890  -32.3996 H   0  0  0  0  0  0  0  0  0  0  0  0
   -1.6487   23.2912  -27.2324 H   0  0  0  0  0  0  0  0  0  0  0  0
   -1.3468   22.0516  -28.4970 H   0  0  0  0  0  0  0  0  0  0  0  0
   -0.4066   23.5822  -28.4970 H   0  0  0  0  0  0  0  0  0  0  0  0
   -3.8499   21.3638  -28.6716 H   0  0  0  0  0  0  0  0  0  0  0  0
   -4.7474   21.4640  -30.2244 H   0  0  0  0  0  0  0  0  0  0  0  0
   -2.9927   21.0796  -30.2244 H   0  0  0  0  0  0  0  0  0  0  0  0
   -3.4667   22.8775  -32.8048 H   0  0  0  0  0  0  0  0  0  0  0  0
   -2.0883   21.1015  -33.8800 H   0  0  0  0  0  0  0  0  0  0  0  0
   -0.5209   16.8304  -31.8953 H   0  0  0  0  0  0  0  0  0  0  0  0
    1.3902   16.9540  -27.6210 H   0  0  0  0  0  0  0  0  0  0  0  0
    1.8534   15.9428  -29.0316 H   0  0  0  0  0  0  0  0  0  0  0  0
    2.2126   17.7028  -29.0316 H   0  0  0  0  0  0  0  0  0  0  0  0
  1  2  1  0
  2  3  1  0
  3  4  2  0
  4  5  1  0
  5  6  2  0
  6  7  1  0
  7  8  2  0
  7  9  2  0
  7 10  1  0
 10 11  1  0
 11 12  2  0
 12 13  1  0
 13 14  2  0
 14 15  1  0
 15 16  2  0
 15 17  2  0
 15 18  1  0
 18 19  2  3
 19 20  1  0
 20 21  1  0
 21 22  1  0
 22 23  1  0
 22 24  2  0
 24 25  1  0
 14 26  1  0
 26 27  2  0
  6 28  1  0
 28 29  2  0
 29 30  1  0
 30 31  1  0
 29  3  1  0
 27 11  1  0
 24 19  1  0
  1 32  1  0
  1 33  1  0
  1 34  1  0
  4 35  1  0
  5 36  1  0
 12 37  1  0
 13 38  1  0
 23 39  1  0
 23 40  1  0
 23 41  1  0
 25 42  1  0
 25 43  1  0
 25 44  1  0
 26 45  1  0
 27 46  1  0
 28 47  1  0
 31 48  1  0
 31 49  1  0
 31 50  1  0
M  CHG  2  10  -1  21  -1
M  END
>  <UniqueID>  (46) 
44

>  <SMILES>  (46) 
COc1ccc(S(=O)(=O)[N-]c2ccc(S(=O)(=O)N=c3o[n-]c(C)c3C)cc2)cc1OC

>  <Energy>  (46) 
93.12503430448044

>  <Genealogy>  (46) 
COc1ccc(S(=O)(=O)[N-]c2ccc(S(=O)(=O)N=c3o[n-]c(C)c3C)cc2)cc1OC (protonated)
COc1ccc(S(=O)(=O)[N-]c2ccc(S(=O)(=O)N=c3o[n-]c(C)c3C)cc2)cc1OC (3D coordinates assigned)
COc1ccc(S(=O)(=O)[N-]c2ccc(S(=O)(=O)N=c3o[n-]c(C)c3C)cc2)cc1OC (optimized conformer: 93.12503430448044 kcal/mol)

>  <smiles>  (46) 
COc1ccc(S(=O)(=O)Nc2ccc(S(=O)(=O)N=c3o[nH]c(C)c3C)cc2)cc1OC

>  <score_type>  (46) 
oracle

>  <origin>  (46) 
adgpu

>  <m_score__min__energy>  (46) 
-10.94

>  <m_primary>  (46) 
energy

$$$$
46:0
     RDKit          3D

 41 44  0  0  0  0  0  0  0  0999 V2000
   -4.1230   24.9820  -29.8570 O   0  0  0  0  0  0  0  0  0  0  0  0
   -2.9730   24.4780  -29.7290 C   0  0  0  0  0  0  0  0  0  0  0  0
   -1.8680   25.3030  -29.3430 N   0  0  0  0  0  0  0  0  0  0  0  0
   -1.6120   25.7160  -27.9690 C   0  0  0  0  0  0  0  0  0  0  0  0
   -0.3710   25.0570  -27.4580 C   0  0  0  0  0  0  0  0  0  0  0  0
   -0.0980   24.7610  -26.1370 C   0  0  0  0  0  0  0  0  0  0  0  0
    1.1400   24.1530  -26.1440 C   0  0  0  0  0  0  0  0  0  0  0  0
    1.5420   24.1160  -27.4640 C   0  0  0  0  0  0  0  0  0  0  0  0
    0.6210   24.6630  -28.2230 O   0  0  0  0  0  0  0  0  0  0  0  0
   -2.7610   23.0480  -30.0420 C   0  0  0  0  0  0  0  0  0  0  0  0
   -2.9950   22.6210  -31.3580 C   0  0  0  0  0  0  0  0  0  0  0  0
   -2.7340   21.2990  -31.7210 C   0  0  0  0  0  0  0  0  0  0  0  0
   -2.9930   20.7600  -33.4090 S   0  0  0  0  0  0  0  0  0  0  0  0
   -4.7080   20.3340  -33.1030 C   0  0  0  0  0  0  0  0  0  0  0  0
   -5.1680   19.0380  -33.3700 C   0  0  0  0  0  0  0  0  0  0  0  0
   -6.5040   18.7040  -33.1260 C   0  0  0  0  0  0  0  0  0  0  0  0
   -7.3850   19.6660  -32.6180 C   0  0  0  0  0  0  0  0  0  0  0  0
   -9.0610   19.2470  -32.3110 Cl  0  0  0  0  0  0  0  0  0  0  0  0
   -6.9270   20.9620  -32.3560 C   0  0  0  0  0  0  0  0  0  0  0  0
   -5.5910   21.2970  -32.6000 C   0  0  0  0  0  0  0  0  0  0  0  0
   -2.2700   20.4190  -30.8000 N   0  0  0  0  0  0  0  0  0  0  0  0
   -2.0560   20.7760  -29.5080 C   0  0  0  0  0  0  0  0  0  0  0  0
   -1.5990   19.8180  -28.5960 C   0  0  0  0  0  0  0  0  0  0  0  0
   -1.4100   20.1570  -27.2560 C   0  0  0  0  0  0  0  0  0  0  0  0
   -1.6890   21.4520  -26.8160 C   0  0  0  0  0  0  0  0  0  0  0  0
   -2.1430   22.4200  -27.7170 C   0  0  0  0  0  0  0  0  0  0  0  0
   -2.3110   22.1050  -29.0820 C   0  0  0  0  0  0  0  0  0  0  0  0
   -1.4846   26.8081  -27.9349 H   0  0  0  0  0  0  0  0  0  0  0  0
   -2.4633   25.4190  -27.3389 H   0  0  0  0  0  0  0  0  0  0  0  0
   -0.7339   24.9668  -25.2633 H   0  0  0  0  0  0  0  0  0  0  0  0
    1.6951   23.7740  -25.2732 H   0  0  0  0  0  0  0  0  0  0  0  0
    2.4906   23.6923  -27.8253 H   0  0  0  0  0  0  0  0  0  0  0  0
   -3.3846   23.3290  -32.1043 H   0  0  0  0  0  0  0  0  0  0  0  0
   -4.4775   18.2820  -33.7721 H   0  0  0  0  0  0  0  0  0  0  0  0
   -6.8627   17.6850  -33.3333 H   0  0  0  0  0  0  0  0  0  0  0  0
   -7.6188   21.7187  -31.9575 H   0  0  0  0  0  0  0  0  0  0  0  0
   -5.2340   22.3174  -32.3966 H   0  0  0  0  0  0  0  0  0  0  0  0
   -1.3880   18.7937  -28.9370 H   0  0  0  0  0  0  0  0  0  0  0  0
   -1.0407   19.4029  -26.5454 H   0  0  0  0  0  0  0  0  0  0  0  0
   -1.5511   21.7120  -25.7561 H   0  0  0  0  0  0  0  0  0  0  0  0
   -2.3709   23.4348  -27.3589 H   0  0  0  0  0  0  0  0  0  0  0  0
  1  2  2  0
  2  3  1  0
  3  4  1  0
  4  5  1  0
  5  6  2  0
  6  7  1  0
  7  8  2  0
  8  9  1  0
  2 10  1  0
 10 11  2  0
 11 12  1  0
 12 13  1  0
 13 14  1  0
 14 15  2  0
 15 16  1  0
 16 17  2  0
 17 18  1  0
 17 19  1  0
 19 20  2  0
 12 21  2  0
 21 22  1  0
 22 23  2  0
 23 24  1  0
 24 25  2  0
 25 26  1  0
 26 27  2  0
  9  5  1  0
 27 10  1  0
 20 14  1  0
 27 22  1  0
  4 28  1  0
  4 29  1  0
  6 30  1  0
  7 31  1  0
  8 32  1  0
 11 33  1  0
 15 34  1  0
 16 35  1  0
 19 36  1  0
 20 37  1  0
 23 38  1  0
 24 39  1  0
 25 40  1  0
 26 41  1  0
M  CHG  1   3  -1
M  END
>  <UniqueID>  (47) 
45

>  <SMILES>  (47) 
O=C([N-]Cc1ccco1)c1cc(Sc2ccc(Cl)cc2)nc2ccccc12

>  <Energy>  (47) 
73.55744182490822

>  <Genealogy>  (47) 
O=C([N-]Cc1ccco1)c1cc(Sc2ccc(Cl)cc2)nc2ccccc12 (protonated)
O=C([N-]Cc1ccco1)c1cc(Sc2ccc(Cl)cc2)nc2ccccc12 (3D coordinates assigned)
O=C([N-]Cc1ccco1)c1cc(Sc2ccc(Cl)cc2)nc2ccccc12 (optimized conformer: 73.55744182490822 kcal/mol)

>  <smiles>  (47) 
O=C(NCc1ccco1)c1cc(Sc2ccc(Cl)cc2)nc2ccccc12

>  <score_type>  (47) 
oracle

>  <origin>  (47) 
adgpu

>  <m_score__min__energy>  (47) 
-11.35

>  <m_primary>  (47) 
energy

$$$$
47:0
     RDKit          3D

 49 51  0  0  0  0  0  0  0  0999 V2000
   -4.2910   14.1890  -34.5290 C   0  0  0  0  0  0  0  0  0  0  0  0
   -5.5230   14.8500  -34.2560 O   0  0  0  0  0  0  0  0  0  0  0  0
   -5.6250   16.1750  -33.8040 C   0  0  0  0  0  0  0  0  0  0  0  0
   -6.8640   16.7760  -33.5070 C   0  0  0  0  0  0  0  0  0  0  0  0
   -6.9120   18.1010  -33.0670 C   0  0  0  0  0  0  0  0  0  0  0  0
   -5.7350   18.8390  -32.9250 C   0  0  0  0  0  0  0  0  0  0  0  0
   -4.4980   18.2620  -33.2320 C   0  0  0  0  0  0  0  0  0  0  0  0
   -3.3070   19.0500  -33.0800 N   0  0  0  0  0  0  0  0  0  0  0  0
   -3.2410   20.4750  -32.9130 C   0  0  0  0  0  0  0  0  0  0  0  0
   -3.7060   21.2090  -33.8230 O   0  0  0  0  0  0  0  0  0  0  0  0
   -2.6050   21.1020  -31.7290 C   0  0  0  0  0  0  0  0  0  0  0  0
   -1.5060   20.4830  -31.1080 C   0  0  0  0  0  0  0  0  0  0  0  0
   -0.8810   21.0860  -30.0140 C   0  0  0  0  0  0  0  0  0  0  0  0
   -1.3440   22.3100  -29.5280 C   0  0  0  0  0  0  0  0  0  0  0  0
   -2.4510   22.9300  -30.1220 C   0  0  0  0  0  0  0  0  0  0  0  0
   -3.0050   24.4870  -29.5190 S   0  0  0  0  0  0  0  0  0  0  0  0
   -3.9240   24.2650  -28.3490 O   0  0  0  0  0  0  0  0  0  0  0  0
   -1.8120   25.2890  -29.0800 O   0  0  0  0  0  0  0  0  0  0  0  0
   -3.8660   25.3380  -30.7720 N   0  0  0  0  0  0  0  0  0  0  0  0
   -5.2710   25.5250  -30.4120 C   0  0  0  0  0  0  0  0  0  0  0  0
   -6.0660   24.2950  -30.7580 C   0  0  0  0  0  0  0  0  0  0  0  0
   -6.0370   23.7840  -32.0660 C   0  0  0  0  0  0  0  0  0  0  0  0
   -6.7630   22.6350  -32.3930 C   0  0  0  0  0  0  0  0  0  0  0  0
   -7.5240   21.9770  -31.4150 C   0  0  0  0  0  0  0  0  0  0  0  0
   -8.3340   20.7670  -31.7750 C   0  0  0  0  0  0  0  0  0  0  0  0
   -7.5720   22.4980  -30.1130 C   0  0  0  0  0  0  0  0  0  0  0  0
   -6.8400   23.6440  -29.7830 C   0  0  0  0  0  0  0  0  0  0  0  0
   -3.0890   22.3150  -31.2080 C   0  0  0  0  0  0  0  0  0  0  0  0
   -4.4490   16.9180  -33.6460 C   0  0  0  0  0  0  0  0  0  0  0  0
   -3.7988   13.9249  -33.5814 H   0  0  0  0  0  0  0  0  0  0  0  0
   -4.4861   13.2744  -35.1082 H   0  0  0  0  0  0  0  0  0  0  0  0
   -3.6368   14.8573  -35.1082 H   0  0  0  0  0  0  0  0  0  0  0  0
   -7.7948   16.2012  -33.6217 H   0  0  0  0  0  0  0  0  0  0  0  0
   -7.8811   18.5650  -32.8314 H   0  0  0  0  0  0  0  0  0  0  0  0
   -5.7807   19.8791  -32.5700 H   0  0  0  0  0  0  0  0  0  0  0  0
   -1.1362   19.5184  -31.4858 H   0  0  0  0  0  0  0  0  0  0  0  0
   -0.0216   20.5950  -29.5341 H   0  0  0  0  0  0  0  0  0  0  0  0
   -0.8384   22.7889  -28.6765 H   0  0  0  0  0  0  0  0  0  0  0  0
   -5.3467   25.7140  -29.3310 H   0  0  0  0  0  0  0  0  0  0  0  0
   -5.6736   26.3813  -30.9730 H   0  0  0  0  0  0  0  0  0  0  0  0
   -5.4393   24.2911  -32.8378 H   0  0  0  0  0  0  0  0  0  0  0  0
   -6.7375   22.2452  -33.4213 H   0  0  0  0  0  0  0  0  0  0  0  0
   -8.6705   20.2644  -30.8562 H   0  0  0  0  0  0  0  0  0  0  0  0
   -9.2091   21.0743  -32.3664 H   0  0  0  0  0  0  0  0  0  0  0  0
   -7.7164   20.0750  -32.3664 H   0  0  0  0  0  0  0  0  0  0  0  0
   -8.1882   22.0031  -29.3479 H   0  0  0  0  0  0  0  0  0  0  0  0
   -6.8708   24.0367  -28.7560 H   0  0  0  0  0  0  0  0  0  0  0  0
   -3.9763   22.7855  -31.6567 H   0  0  0  0  0  0  0  0  0  0  0  0
   -3.4761   16.4460  -33.8477 H   0  0  0  0  0  0  0  0  0  0  0  0
  1  2  1  0
  2  3  1  0
  3  4  2  0
  4  5  1  0
  5  6  2  0
  6  7  1  0
  7  8  1  0
  8  9  1  0
  9 10  2  0
  9 11  1  0
 11 12  2  0
 12 13  1  0
 13 14  2  0
 14 15  1  0
 15 16  1  0
 16 17  2  0
 16 18  2  0
 16 19  1  0
 19 20  1  0
 20 21  1  0
 21 22  2  0
 22 23  1  0
 23 24  2  0
 24 25  1  0
 24 26  1  0
 26 27  2  0
 15 28  2  0
  7 29  2  0
 29  3  1  0
 28 11  1  0
 27 21  1  0
  1 30  1  0
  1 31  1  0
  1 32  1  0
  4 33  1  0
  5 34  1  0
  6 35  1  0
 12 36  1  0
 13 37  1  0
 14 38  1  0
 20 39  1  0
 20 40  1  0
 22 41  1  0
 23 42  1  0
 25 43  1  0
 25 44  1  0
 25 45  1  0
 26 46  1  0
 27 47  1  0
 28 48  1  0
 29 49  1  0
M  CHG  2   8  -1  19  -1
M  END
>  <UniqueID>  (48) 
46

>  <SMILES>  (48) 
COc1cccc([N-]C(=O)c2cccc(S(=O)(=O)[N-]Cc3ccc(C)cc3)c2)c1

>  <Energy>  (48) 
52.256796758514945

>  <Genealogy>  (48) 
COc1cccc([N-]C(=O)c2cccc(S(=O)(=O)[N-]Cc3ccc(C)cc3)c2)c1 (protonated)
COc1cccc([N-]C(=O)c2cccc(S(=O)(=O)[N-]Cc3ccc(C)cc3)c2)c1 (3D coordinates assigned)
COc1cccc([N-]C(=O)c2cccc(S(=O)(=O)[N-]Cc3ccc(C)cc3)c2)c1 (optimized conformer: 52.256796758514945 kcal/mol)

>  <smiles>  (48) 
COc1cccc(NC(=O)c2cccc(S(=O)(=O)NCc3ccc(C)cc3)c2)c1

>  <score_type>  (48) 
oracle

>  <origin>  (48) 
adgpu

>  <m_score__min__energy>  (48) 
-10.9

>  <m_primary>  (48) 
energy

$$$$
48:0
     RDKit          3D

 40 42  0  0  0  0  0  0  0  0999 V2000
   -2.8380   20.0570  -29.5090 O   0  0  0  0  0  0  0  0  0  0  0  0
   -2.1270   20.7890  -30.2500 C   0  0  0  0  0  0  0  0  0  0  0  0
   -1.5060   20.2360  -31.4200 N   0  0  0  0  0  0  0  0  0  0  0  0
   -2.0650   19.2190  -32.2640 C   0  0  0  0  0  0  0  0  0  0  0  0
   -1.2680   18.1250  -32.6220 C   0  0  0  0  0  0  0  0  0  0  0  0
   -1.7880   17.1120  -33.4330 C   0  0  0  0  0  0  0  0  0  0  0  0
   -3.1030   17.1910  -33.8990 C   0  0  0  0  0  0  0  0  0  0  0  0
   -3.9010   18.2970  -33.5750 C   0  0  0  0  0  0  0  0  0  0  0  0
   -5.5660   18.3990  -34.1460 S   0  0  0  0  0  0  0  0  0  0  0  0
   -5.6710   17.9100  -35.5630 O   0  0  0  0  0  0  0  0  0  0  0  0
   -6.4400   17.5220  -33.2920 O   0  0  0  0  0  0  0  0  0  0  0  0
   -6.1350   20.0330  -34.0050 N   0  0  0  0  0  0  0  0  0  0  0  0
   -6.9410   20.5700  -32.9450 C   0  0  0  0  0  0  0  0  0  0  0  0
   -8.2150   20.0600  -32.6310 C   0  0  0  0  0  0  0  0  0  0  0  0
   -8.9650   20.6270  -31.5960 C   0  0  0  0  0  0  0  0  0  0  0  0
   -8.4500   21.6960  -30.8600 C   0  0  0  0  0  0  0  0  0  0  0  0
   -7.1790   22.1980  -31.1540 C   0  0  0  0  0  0  0  0  0  0  0  0
   -6.5300   23.5410  -30.2300 Cl  0  0  0  0  0  0  0  0  0  0  0  0
   -6.4240   21.6290  -32.1880 C   0  0  0  0  0  0  0  0  0  0  0  0
   -3.3730   19.3160  -32.7700 C   0  0  0  0  0  0  0  0  0  0  0  0
   -1.8870   22.2020  -29.8780 C   0  0  0  0  0  0  0  0  0  0  0  0
   -2.8820   23.1740  -30.0910 C   0  0  0  0  0  0  0  0  0  0  0  0
   -2.6630   24.5070  -29.7280 C   0  0  0  0  0  0  0  0  0  0  0  0
   -3.6590   25.4520  -29.9430 O   0  0  0  0  0  0  0  0  0  0  0  0
   -1.4460   24.8900  -29.1500 C   0  0  0  0  0  0  0  0  0  0  0  0
   -1.2470   26.2250  -28.7960 O   0  0  0  0  0  0  0  0  0  0  0  0
   -0.4450   23.9280  -28.9400 C   0  0  0  0  0  0  0  0  0  0  0  0
    0.7720   24.2910  -28.3730 O   0  0  0  0  0  0  0  0  0  0  0  0
   -0.6660   22.5950  -29.3010 C   0  0  0  0  0  0  0  0  0  0  0  0
   -0.2297   18.0624  -32.2641 H   0  0  0  0  0  0  0  0  0  0  0  0
   -1.1604   16.2505  -33.7050 H   0  0  0  0  0  0  0  0  0  0  0  0
   -3.5133   16.3827  -34.5221 H   0  0  0  0  0  0  0  0  0  0  0  0
   -8.6219   19.2124  -33.2019 H   0  0  0  0  0  0  0  0  0  0  0  0
   -9.9635   20.2298  -31.3610 H   0  0  0  0  0  0  0  0  0  0  0  0
   -9.0442   22.1429  -30.0493 H   0  0  0  0  0  0  0  0  0  0  0  0
   -5.4181   22.0167  -32.4069 H   0  0  0  0  0  0  0  0  0  0  0  0
   -3.9864   20.1977  -32.5326 H   0  0  0  0  0  0  0  0  0  0  0  0
   -3.8400   22.8831  -30.5467 H   0  0  0  0  0  0  0  0  0  0  0  0
   -1.6220   26.9890  -29.3440 H   0  0  0  0  0  0  0  0  0  0  0  0
    0.1225   21.8469  -29.1321 H   0  0  0  0  0  0  0  0  0  0  0  0
  1  2  2  0
  2  3  1  0
  3  4  1  0
  4  5  2  0
  5  6  1  0
  6  7  2  0
  7  8  1  0
  8  9  1  0
  9 10  2  0
  9 11  2  0
  9 12  1  0
 12 13  1  0
 13 14  2  0
 14 15  1  0
 15 16  2  0
 16 17  1  0
 17 18  1  0
 17 19  2  0
  8 20  2  0
  2 21  1  0
 21 22  2  0
 22 23  1  0
 23 24  1  0
 23 25  2  0
 25 26  1  0
 25 27  1  0
 27 28  1  0
 27 29  2  0
 20  4  1  0
 29 21  1  0
 19 13  1  0
  5 30  1  0
  6 31  1  0
  7 32  1  0
 14 33  1  0
 15 34  1  0
 16 35  1  0
 19 36  1  0
 20 37  1  0
 22 38  1  0
 26 39  1  0
 29 40  1  0
M  CHG  4   3  -1  12  -1  24  -1  28  -1
M  END
>  <UniqueID>  (49) 
47

>  <SMILES>  (49) 
O=C([N-]c1cccc(S(=O)(=O)[N-]c2cccc(Cl)c2)c1)c1cc([O-])c(O)c([O-])c1

>  <Energy>  (49) 
52.624899988479406

>  <Genealogy>  (49) 
O=C([N-]c1cccc(S(=O)(=O)[N-]c2cccc(Cl)c2)c1)c1cc([O-])c(O)c([O-])c1 (protonated)
O=C([N-]c1cccc(S(=O)(=O)[N-]c2cccc(Cl)c2)c1)c1cc([O-])c(O)c([O-])c1 (3D coordinates assigned)
O=C([N-]c1cccc(S(=O)(=O)[N-]c2cccc(Cl)c2)c1)c1cc([O-])c(O)c([O-])c1 (optimized conformer: 52.624899988479406 kcal/mol)

>  <smiles>  (49) 
O=C(Nc1cccc(S(=O)(=O)Nc2cccc(Cl)c2)c1)c1cc(O)c(O)c(O)c1

>  <score_type>  (49) 
oracle

>  <origin>  (49) 
adgpu

>  <m_score__min__energy>  (49) 
-12.460000000000001

>  <m_primary>  (49) 
energy

$$$$
