0:0
     RDKit          3D

 35 37  0  0  0  0  0  0  0  0999 V2000
    0.8126   23.5759  -28.9131 H   0  0  0  0  0  0  0  0  0  0  0  0
   -0.1790   23.8210  -28.5050 C   0  0  0  0  0  0  0  0  0  0  0  0
   -1.1270   24.3710  -29.3080 N   0  0  0  0  0  0  0  0  0  0  0  0
   -2.3680   24.6910  -28.8490 C   0  0  0  0  0  0  0  0  0  0  0  0
   -3.2820   25.2690  -29.7370 O   0  0  0  0  0  0  0  0  0  0  0  0
   -4.4350   24.6290  -30.2200 C   0  0  0  0  0  0  0  0  0  0  0  0
   -5.6850   25.1650  -29.8900 C   0  0  0  0  0  0  0  0  0  0  0  0
   -5.7440   26.0704  -29.2681 H   0  0  0  0  0  0  0  0  0  0  0  0
   -6.8590   24.5580  -30.3450 C   0  0  0  0  0  0  0  0  0  0  0  0
   -7.8352   25.0017  -30.0998 H   0  0  0  0  0  0  0  0  0  0  0  0
   -6.7980   23.3840  -31.1140 C   0  0  0  0  0  0  0  0  0  0  0  0
   -7.9830   22.7590  -31.6320 N   0  0  0  0  0  0  0  0  0  0  0  0
   -8.1430   21.4920  -31.8850 C   0  0  0  0  0  0  0  0  0  0  0  0
   -6.9520   20.2960  -31.7970 S   0  0  0  0  0  0  0  0  0  0  0  0
   -7.9980   19.0860  -32.3270 C   0  0  0  0  0  0  0  0  0  0  0  0
   -7.6140   17.6700  -32.5910 C   0  0  0  0  0  0  0  0  0  0  0  0
   -7.4715   17.1444  -31.6352 H   0  0  0  0  0  0  0  0  0  0  0  0
   -8.4104   17.1753  -33.1663 H   0  0  0  0  0  0  0  0  0  0  0  0
   -6.6767   17.6454  -33.1663 H   0  0  0  0  0  0  0  0  0  0  0  0
   -9.2400   19.6550  -32.5930 C   0  0  0  0  0  0  0  0  0  0  0  0
  -10.0926   19.0747  -32.9755 H   0  0  0  0  0  0  0  0  0  0  0  0
   -9.3100   20.9890  -32.3400 N   0  0  0  0  0  0  0  0  0  0  0  0
  -10.1720   21.5600  -32.4970 H   0  0  0  0  0  0  0  0  0  0  0  0
   -5.5480   22.8590  -31.4630 C   0  0  0  0  0  0  0  0  0  0  0  0
   -5.4899   21.9633  -32.0989 H   0  0  0  0  0  0  0  0  0  0  0  0
   -4.3740   23.4650  -31.0090 C   0  0  0  0  0  0  0  0  0  0  0  0
   -3.3975   23.0305  -31.2693 H   0  0  0  0  0  0  0  0  0  0  0  0
   -2.7060   24.4180  -27.5050 C   0  0  0  0  0  0  0  0  0  0  0  0
   -4.0270   24.6530  -27.0030 N   0  0  0  0  0  0  0  0  0  0  0  0
   -4.3840   24.1150  -26.1810 H   0  0  0  0  0  0  0  0  0  0  0  0
   -4.6830   25.3120  -27.4740 H   0  0  0  0  0  0  0  0  0  0  0  0
   -1.7320   23.8640  -26.6640 C   0  0  0  0  0  0  0  0  0  0  0  0
   -1.9679   23.6628  -25.6086 H   0  0  0  0  0  0  0  0  0  0  0  0
   -0.4630   23.5670  -27.1630 C   0  0  0  0  0  0  0  0  0  0  0  0
    0.3059   23.1368  -26.5045 H   0  0  0  0  0  0  0  0  0  0  0  0
  1  2  1  0
  2  3  2  0
  3  4  1  0
  4  5  1  0
  5  6  1  0
  6  7  2  0
  7  8  1  0
  7  9  1  0
  9 10  1  0
  9 11  2  0
 11 12  1  0
 12 13  2  0
 13 14  1  0
 14 15  1  0
 15 16  1  0
 16 17  1  0
 16 18  1  0
 16 19  1  0
 15 20  2  0
 20 21  1  0
 20 22  1  0
 22 23  1  0
 11 24  1  0
 24 25  1  0
 24 26  2  0
 26 27  1  0
  4 28  2  0
 28 29  1  0
 29 30  1  0
 29 31  1  0
 28 32  1  0
 32 33  1  0
 32 34  2  0
 34 35  1  0
 34  2  1  0
 26  6  1  0
 22 13  1  0
M  END
>  <UniqueID>  (1) 
1

>  <SMILES>  (1) 
Cc1c[nH]/c(=N/c2ccc(Oc3ncccc3N)cc2)s1

>  <Energy>  (1) 
82.28629953665838

>  <Genealogy>  (1) 
Cc1c[nH]/c(=N/c2ccc(Oc3ncccc3N)cc2)s1 (cis-trans isomerization)
Cc1c[nH]/c(=N/c2ccc(Oc3ncccc3N)cc2)s1 (3D coordinates assigned)
Cc1c[nH]/c(=N/c2ccc(Oc3ncccc3N)cc2)s1 (optimized conformer: 82.28629953665838 kcal/mol)

>  <smiles>  (1) 
Cc1c[nH]c(=Nc2ccc(Oc3ncccc3N)cc2)s1

>  <score_type>  (1) 
oracle

>  <origin>  (1) 
adgpu

>  <m_score__min__energy>  (1) 
-8.3100000000000005

>  <m_primary>  (1) 
energy

$$$$
1:0
     RDKit          3D

 23 24  0  0  0  0  0  0  0  0999 V2000
   -8.7670   21.9380  -30.2100 O   0  0  0  0  0  0  0  0  0  0  0  0
   -8.1720   21.9550  -31.3210 C   0  0  0  0  0  0  0  0  0  0  0  0
   -7.8920   23.2930  -31.9530 C   0  0  0  0  0  0  0  0  0  0  0  0
   -6.7500   23.9330  -31.3060 N   0  0  0  0  0  0  0  0  0  0  0  0
   -5.4520   23.7560  -31.6020 C   0  0  0  0  0  0  0  0  0  0  0  0
   -4.6680   24.5460  -30.8430 N   0  0  0  0  0  0  0  0  0  0  0  0
   -5.5700   25.2090  -30.0850 C   0  0  0  0  0  0  0  0  0  0  0  0
   -6.8390   24.8510  -30.3610 N   0  0  0  0  0  0  0  0  0  0  0  0
   -7.7430   20.6710  -31.9430 C   0  0  0  0  0  0  0  0  0  0  0  0
   -8.4060   19.4730  -31.6070 C   0  0  0  0  0  0  0  0  0  0  0  0
   -8.0150   18.2580  -32.1770 C   0  0  0  0  0  0  0  0  0  0  0  0
   -6.9580   18.2180  -33.0890 C   0  0  0  0  0  0  0  0  0  0  0  0
   -6.4700   16.6920  -33.8030 Cl  0  0  0  0  0  0  0  0  0  0  0  0
   -6.2920   19.3960  -33.4340 C   0  0  0  0  0  0  0  0  0  0  0  0
   -6.6790   20.6150  -32.8670 C   0  0  0  0  0  0  0  0  0  0  0  0
   -7.6702   23.1501  -33.0209 H   0  0  0  0  0  0  0  0  0  0  0  0
   -8.7763   23.9361  -31.8332 H   0  0  0  0  0  0  0  0  0  0  0  0
   -5.0779   23.0572  -32.3647 H   0  0  0  0  0  0  0  0  0  0  0  0
   -5.2978   25.9580  -29.3267 H   0  0  0  0  0  0  0  0  0  0  0  0
   -9.2392   19.4946  -30.8892 H   0  0  0  0  0  0  0  0  0  0  0  0
   -8.5413   17.3307  -31.9065 H   0  0  0  0  0  0  0  0  0  0  0  0
   -5.4607   19.3653  -34.1537 H   0  0  0  0  0  0  0  0  0  0  0  0
   -6.1487   21.5380  -33.1443 H   0  0  0  0  0  0  0  0  0  0  0  0
  1  2  2  0
  2  3  1  0
  3  4  1  0
  4  5  1  0
  5  6  2  0
  6  7  1  0
  7  8  2  0
  2  9  1  0
  9 10  2  0
 10 11  1  0
 11 12  2  0
 12 13  1  0
 12 14  1  0
 14 15  2  0
  8  4  1  0
 15  9  1  0
  3 16  1  0
  3 17  1  0
  5 18  1  0
  7 19  1  0
 10 20  1  0
 11 21  1  0
 14 22  1  0
 15 23  1  0
M  END
>  <UniqueID>  (2) 
2

>  <SMILES>  (2) 
O=C(Cn1cncn1)c1ccc(Cl)cc1

>  <Energy>  (2) 
56.36552082500421

>  <Genealogy>  (2) 
O=C(Cn1cncn1)c1ccc(Cl)cc1 (3D coordinates assigned)
O=C(Cn1cncn1)c1ccc(Cl)cc1 (optimized conformer: 56.36552082500421 kcal/mol)

>  <smiles>  (2) 
O=C(Cn1cncn1)c1ccc(Cl)cc1

>  <score_type>  (2) 
oracle

>  <origin>  (2) 
adgpu

>  <m_score__min__energy>  (2) 
-6.6100000000000003

>  <m_primary>  (2) 
energy

$$$$
2:0
     RDKit          3D

 35 36  0  0  0  0  0  0  0  0999 V2000
   -0.4487   25.6588  -29.3958 H   0  0  0  0  0  0  0  0  0  0  0  0
   -1.2880   25.3250  -28.7680 C   0  0  0  0  0  0  0  0  0  0  0  0
   -2.4620   24.9570  -29.3450 N   0  0  0  0  0  0  0  0  0  0  0  0
   -3.5310   24.5370  -28.6100 C   0  0  0  0  0  0  0  0  0  0  0  0
   -4.6500   24.1930  -29.1810 N   0  0  0  0  0  0  0  0  0  0  0  0
   -4.9560   24.2770  -30.5830 C   0  0  0  0  0  0  0  0  0  0  0  0
   -4.5960   25.3050  -31.2160 O   0  0  0  0  0  0  0  0  0  0  0  0
   -5.6410   23.1860  -31.3190 C   0  0  0  0  0  0  0  0  0  0  0  0
   -7.0440   23.1150  -31.2850 C   0  0  0  0  0  0  0  0  0  0  0  0
   -7.6149   23.8706  -30.7255 H   0  0  0  0  0  0  0  0  0  0  0  0
   -7.7190   22.0940  -31.9550 C   0  0  0  0  0  0  0  0  0  0  0  0
   -8.8171   22.0432  -31.9157 H   0  0  0  0  0  0  0  0  0  0  0  0
   -7.0020   21.1370  -32.6750 C   0  0  0  0  0  0  0  0  0  0  0  0
   -7.5352   20.3275  -33.1950 H   0  0  0  0  0  0  0  0  0  0  0  0
   -5.6090   21.2060  -32.7360 C   0  0  0  0  0  0  0  0  0  0  0  0
   -5.0495   20.4511  -33.3080 H   0  0  0  0  0  0  0  0  0  0  0  0
   -4.9140   22.2360  -32.0700 C   0  0  0  0  0  0  0  0  0  0  0  0
   -3.5160   22.3480  -32.1470 O   0  0  0  0  0  0  0  0  0  0  0  0
   -2.6110   21.9120  -31.1370 C   0  0  0  0  0  0  0  0  0  0  0  0
   -3.0405   22.1189  -30.1457 H   0  0  0  0  0  0  0  0  0  0  0  0
   -2.4366   20.8311  -31.2427 H   0  0  0  0  0  0  0  0  0  0  0  0
   -1.6570   22.4493  -31.2427 H   0  0  0  0  0  0  0  0  0  0  0  0
   -3.4150   24.4450  -27.2190 C   0  0  0  0  0  0  0  0  0  0  0  0
   -4.2609   24.0853  -26.6148 H   0  0  0  0  0  0  0  0  0  0  0  0
   -2.2180   24.8130  -26.6040 C   0  0  0  0  0  0  0  0  0  0  0  0
   -2.1177   24.7358  -25.5113 H   0  0  0  0  0  0  0  0  0  0  0  0
   -1.1440   25.2800  -27.3710 C   0  0  0  0  0  0  0  0  0  0  0  0
    0.0900   25.6410  -26.7250 N   0  0  0  0  0  0  0  0  0  0  0  0
    0.0590   26.3720  -25.9790 H   0  0  0  0  0  0  0  0  0  0  0  0
    1.3790   25.1450  -27.1170 C   0  0  0  0  0  0  0  0  0  0  0  0
    1.5330   24.5470  -28.2160 O   0  0  0  0  0  0  0  0  0  0  0  0
    2.5730   25.4240  -26.2640 C   0  0  0  0  0  0  0  0  0  0  0  0
    2.2894   25.3577  -25.2033 H   0  0  0  0  0  0  0  0  0  0  0  0
    3.3588   24.6853  -26.4803 H   0  0  0  0  0  0  0  0  0  0  0  0
    2.9501   26.4345  -26.4803 H   0  0  0  0  0  0  0  0  0  0  0  0
  1  2  1  0
  2  3  1  0
  3  4  1  0
  4  5  2  0
  5  6  1  0
  6  7  2  0
  6  8  1  0
  8  9  2  0
  9 10  1  0
  9 11  1  0
 11 12  1  0
 11 13  2  0
 13 14  1  0
 13 15  1  0
 15 16  1  0
 15 17  2  0
 17 18  1  0
 18 19  1  0
 19 20  1  0
 19 21  1  0
 19 22  1  0
  4 23  1  0
 23 24  1  0
 23 25  2  0
 25 26  1  0
 25 27  1  0
 27 28  1  0
 28 29  1  0
 28 30  1  0
 30 31  2  0
 30 32  1  0
 32 33  1  0
 32 34  1  0
 32 35  1  0
 27  2  2  0
 17  8  1  0
M  CHG  1   3  -1
M  END
>  <UniqueID>  (3) 
3

>  <SMILES>  (3) 
COc1ccccc1C(=O)/N=c1/ccc(NC(C)=O)c[n-]1

>  <Energy>  (3) 
45.61858889176309

>  <Genealogy>  (3) 
COc1ccccc1C(=O)N=c1ccc(NC(C)=O)c[n-]1 (protonated)
COc1ccccc1C(=O)/N=c1/ccc(NC(C)=O)c[n-]1 (cis-trans isomerization)
COc1ccccc1C(=O)/N=c1/ccc(NC(C)=O)c[n-]1 (3D coordinates assigned)
COc1ccccc1C(=O)/N=c1/ccc(NC(C)=O)c[n-]1 (optimized conformer: 45.61858889176309 kcal/mol)

>  <smiles>  (3) 
COc1ccccc1C(=O)N=c1ccc(NC(C)=O)c[nH]1

>  <score_type>  (3) 
oracle

>  <origin>  (3) 
adgpu

>  <m_score__min__energy>  (3) 
-8.5800000000000001

>  <m_primary>  (3) 
energy

$$$$
3:0
     RDKit          3D

 34 36  0  0  0  0  0  0  0  0999 V2000
   -9.8630   18.1110  -32.4370 H   0  0  0  0  0  0  0  0  0  0  0  0
   -9.4370   19.0190  -32.1440 N   0  0  0  0  0  0  0  0  0  0  0  0
   -8.1700   19.2690  -32.2810 C   0  0  0  0  0  0  0  0  0  0  0  0
   -7.6470   20.5110  -31.8740 C   0  0  0  0  0  0  0  0  0  0  0  0
   -8.5310   21.5300  -31.3450 C   0  0  0  0  0  0  0  0  0  0  0  0
   -9.2370   22.3440  -30.9220 N   0  0  0  0  0  0  0  0  0  0  0  0
   -6.2660   20.7610  -32.0310 C   0  0  0  0  0  0  0  0  0  0  0  0
   -5.6420   22.0370  -31.6050 C   0  0  0  0  0  0  0  0  0  0  0  0
   -6.2340   23.2640  -31.9540 C   0  0  0  0  0  0  0  0  0  0  0  0
   -7.1686   23.2757  -32.5341 H   0  0  0  0  0  0  0  0  0  0  0  0
   -5.6400   24.4690  -31.5670 C   0  0  0  0  0  0  0  0  0  0  0  0
   -6.1107   25.4253  -31.8390 H   0  0  0  0  0  0  0  0  0  0  0  0
   -4.4490   24.4610  -30.8350 C   0  0  0  0  0  0  0  0  0  0  0  0
   -3.8620   25.6600  -30.4510 O   0  0  0  0  0  0  0  0  0  0  0  0
   -3.8480   23.2460  -30.4930 C   0  0  0  0  0  0  0  0  0  0  0  0
   -2.9092   23.2395  -29.9197 H   0  0  0  0  0  0  0  0  0  0  0  0
   -4.4390   22.0390  -30.8790 C   0  0  0  0  0  0  0  0  0  0  0  0
   -3.9594   21.0855  -30.6128 H   0  0  0  0  0  0  0  0  0  0  0  0
   -5.4570   19.7730  -32.6070 C   0  0  0  0  0  0  0  0  0  0  0  0
   -4.3812   19.9572  -32.7440 H   0  0  0  0  0  0  0  0  0  0  0  0
   -6.0120   18.5520  -33.0090 C   0  0  0  0  0  0  0  0  0  0  0  0
   -5.1520   17.4970  -33.6010 C   0  0  0  0  0  0  0  0  0  0  0  0
   -4.5880   17.6910  -34.8740 C   0  0  0  0  0  0  0  0  0  0  0  0
   -4.7843   18.6240  -35.4226 H   0  0  0  0  0  0  0  0  0  0  0  0
   -3.7790   16.7050  -35.4470 C   0  0  0  0  0  0  0  0  0  0  0  0
   -3.3444   16.8630  -36.4451 H   0  0  0  0  0  0  0  0  0  0  0  0
   -3.5220   15.5210  -34.7550 C   0  0  0  0  0  0  0  0  0  0  0  0
   -2.8871   14.7457  -35.2086 H   0  0  0  0  0  0  0  0  0  0  0  0
   -4.0710   15.3200  -33.4860 C   0  0  0  0  0  0  0  0  0  0  0  0
   -3.8646   14.3872  -32.9407 H   0  0  0  0  0  0  0  0  0  0  0  0
   -4.8820   16.3010  -32.9070 C   0  0  0  0  0  0  0  0  0  0  0  0
   -5.3710   16.0960  -31.6570 F   0  0  0  0  0  0  0  0  0  0  0  0
   -7.3460   18.3270  -32.8290 N   0  0  0  0  0  0  0  0  0  0  0  0
   -7.7520   17.4140  -33.1390 H   0  0  0  0  0  0  0  0  0  0  0  0
  1  2  1  0
  2  3  2  0
  3  4  1  0
  4  5  1  0
  5  6  3  0
  4  7  2  0
  7  8  1  0
  8  9  2  0
  9 10  1  0
  9 11  1  0
 11 12  1  0
 11 13  2  0
 13 14  1  0
 13 15  1  0
 15 16  1  0
 15 17  2  0
 17 18  1  0
  7 19  1  0
 19 20  1  0
 19 21  2  0
 21 22  1  0
 22 23  2  0
 23 24  1  0
 23 25  1  0
 25 26  1  0
 25 27  2  0
 27 28  1  0
 27 29  1  0
 29 30  1  0
 29 31  2  0
 31 32  1  0
 21 33  1  0
 33 34  1  0
 33  3  1  0
 17  8  1  0
 31 22  1  0
M  CHG  1  14  -1
M  END
>  <UniqueID>  (4) 
4

>  <SMILES>  (4) 
[H]/N=c1\[nH]c(-c2ccccc2F)cc(-c2ccc([O-])cc2)c1C#N

>  <Energy>  (4) 
51.825115893950894

>  <Genealogy>  (4) 
N#Cc1c(-c2ccc([O-])cc2)cc(-c2ccccc2F)[nH]c1=N (protonated)
[H]/N=c1\[nH]c(-c2ccccc2F)cc(-c2ccc([O-])cc2)c1C#N (cis-trans isomerization)
[H]/N=c1\[nH]c(-c2ccccc2F)cc(-c2ccc([O-])cc2)c1C#N (3D coordinates assigned)
[H]/N=c1\[nH]c(-c2ccccc2F)cc(-c2ccc([O-])cc2)c1C#N (optimized conformer: 51.825115893950894 kcal/mol)

>  <smiles>  (4) 
N#Cc1c(-c2ccc(O)cc2)cc(-c2ccccc2F)[nH]c1=N

>  <score_type>  (4) 
oracle

>  <origin>  (4) 
adgpu

>  <m_score__min__energy>  (4) 
-11.26

>  <m_primary>  (4) 
energy

$$$$
4:0
     RDKit          3D

 44 46  0  0  0  0  0  0  0  0999 V2000
   -0.6470   20.0030  -33.3100 C   0  0  0  0  0  0  0  0  0  0  0  0
   -1.5190   20.9050  -32.4970 C   0  0  0  0  0  0  0  0  0  0  0  0
   -1.0460   21.4590  -31.3010 C   0  0  0  0  0  0  0  0  0  0  0  0
   -1.8790   22.2940  -30.5580 C   0  0  0  0  0  0  0  0  0  0  0  0
   -3.1770   22.5710  -31.0040 C   0  0  0  0  0  0  0  0  0  0  0  0
   -4.2140   23.6800  -30.1000 S   0  0  0  0  0  0  0  0  0  0  0  0
   -5.4560   22.9750  -29.6330 O   0  0  0  0  0  0  0  0  0  0  0  0
   -4.6050   24.8190  -31.0010 O   0  0  0  0  0  0  0  0  0  0  0  0
   -3.3460   24.2780  -28.6860 C   0  0  0  0  0  0  0  0  0  0  0  0
   -3.9710   24.3330  -27.4320 C   0  0  0  0  0  0  0  0  0  0  0  0
   -3.3130   24.9140  -26.3440 C   0  0  0  0  0  0  0  0  0  0  0  0
   -2.0290   25.4470  -26.5040 C   0  0  0  0  0  0  0  0  0  0  0  0
   -1.2230   26.2140  -25.1480 Cl  0  0  0  0  0  0  0  0  0  0  0  0
   -1.3960   25.3790  -27.7490 C   0  0  0  0  0  0  0  0  0  0  0  0
   -2.0510   24.7950  -28.8360 C   0  0  0  0  0  0  0  0  0  0  0  0
   -3.6200   21.9870  -32.2030 C   0  0  0  0  0  0  0  0  0  0  0  0
   -4.9240   22.2220  -32.6530 O   0  0  0  0  0  0  0  0  0  0  0  0
   -6.0130   21.3540  -32.4740 C   0  0  0  0  0  0  0  0  0  0  0  0
   -5.9030   19.9790  -32.7520 C   0  0  0  0  0  0  0  0  0  0  0  0
   -7.0090   19.1420  -32.6310 C   0  0  0  0  0  0  0  0  0  0  0  0
   -8.2420   19.6610  -32.2470 C   0  0  0  0  0  0  0  0  0  0  0  0
   -8.3880   21.0320  -31.9800 C   0  0  0  0  0  0  0  0  0  0  0  0
   -9.7430   21.5600  -31.5850 C   0  0  0  0  0  0  0  0  0  0  0  0
   -7.2600   21.8860  -32.0730 C   0  0  0  0  0  0  0  0  0  0  0  0
   -7.3990   23.3650  -31.7970 C   0  0  0  0  0  0  0  0  0  0  0  0
   -2.7860   21.1760  -32.9110 N   0  0  0  0  0  0  0  0  0  0  0  0
   -0.0411   19.3763  -32.6391 H   0  0  0  0  0  0  0  0  0  0  0  0
   -1.2749   19.3603  -33.9446 H   0  0  0  0  0  0  0  0  0  0  0  0
    0.0166   20.6088  -33.9446 H   0  0  0  0  0  0  0  0  0  0  0  0
   -0.0269   21.2374  -30.9512 H   0  0  0  0  0  0  0  0  0  0  0  0
   -1.5156   22.7365  -29.6188 H   0  0  0  0  0  0  0  0  0  0  0  0
   -4.9816   23.9179  -27.3040 H   0  0  0  0  0  0  0  0  0  0  0  0
   -3.8051   24.9523  -25.3610 H   0  0  0  0  0  0  0  0  0  0  0  0
   -0.3814   25.7857  -27.8726 H   0  0  0  0  0  0  0  0  0  0  0  0
   -1.5491   24.7405  -29.8133 H   0  0  0  0  0  0  0  0  0  0  0  0
   -4.9352   19.5620  -33.0675 H   0  0  0  0  0  0  0  0  0  0  0  0
   -6.9080   18.0667  -32.8396 H   0  0  0  0  0  0  0  0  0  0  0  0
   -9.1096   18.9915  -32.1518 H   0  0  0  0  0  0  0  0  0  0  0  0
   -9.8194   21.5898  -30.4881 H   0  0  0  0  0  0  0  0  0  0  0  0
   -9.8733   22.5747  -31.9893 H   0  0  0  0  0  0  0  0  0  0  0  0
  -10.5254   20.9010  -31.9893 H   0  0  0  0  0  0  0  0  0  0  0  0
   -7.4150   23.5353  -30.7104 H   0  0  0  0  0  0  0  0  0  0  0  0
   -6.5474   23.9023  -32.2398 H   0  0  0  0  0  0  0  0  0  0  0  0
   -8.3358   23.7342  -32.2398 H   0  0  0  0  0  0  0  0  0  0  0  0
  1  2  1  0
  2  3  2  0
  3  4  1  0
  4  5  2  0
  5  6  1  0
  6  7  2  0
  6  8  2  0
  6  9  1  0
  9 10  2  0
 10 11  1  0
 11 12  2  0
 12 13  1  0
 12 14  1  0
 14 15  2  0
  5 16  1  0
 16 17  1  0
 17 18  1  0
 18 19  2  0
 19 20  1  0
 20 21  2  0
 21 22  1  0
 22 23  1  0
 22 24  2  0
 24 25  1  0
 16 26  2  0
 26  2  1  0
 15  9  1  0
 24 18  1  0
  1 27  1  0
  1 28  1  0
  1 29  1  0
  3 30  1  0
  4 31  1  0
 10 32  1  0
 11 33  1  0
 14 34  1  0
 15 35  1  0
 19 36  1  0
 20 37  1  0
 21 38  1  0
 23 39  1  0
 23 40  1  0
 23 41  1  0
 25 42  1  0
 25 43  1  0
 25 44  1  0
M  END
>  <UniqueID>  (5) 
5

>  <SMILES>  (5) 
Cc1ccc(S(=O)(=O)c2ccc(Cl)cc2)c(Oc2cccc(C)c2C)n1

>  <Energy>  (5) 
51.17081627397441

>  <Genealogy>  (5) 
Cc1ccc(S(=O)(=O)c2ccc(Cl)cc2)c(Oc2cccc(C)c2C)n1 (3D coordinates assigned)
Cc1ccc(S(=O)(=O)c2ccc(Cl)cc2)c(Oc2cccc(C)c2C)n1 (optimized conformer: 51.17081627397441 kcal/mol)

>  <smiles>  (5) 
Cc1ccc(S(=O)(=O)c2ccc(Cl)cc2)c(Oc2cccc(C)c2C)n1

>  <score_type>  (5) 
oracle

>  <origin>  (5) 
adgpu

>  <m_score__min__energy>  (5) 
-9.5800000000000001

>  <m_primary>  (5) 
energy

$$$$
5:0
     RDKit          3D

 28 29  0  0  0  0  0  0  0  0999 V2000
   -9.7557   22.1492  -32.0834 H   0  0  0  0  0  0  0  0  0  0  0  0
   -8.6670   22.0450  -31.9660 C   0  0  0  0  0  0  0  0  0  0  0  0
   -7.9780   23.1390  -31.6010 C   0  0  0  0  0  0  0  0  0  0  0  0
   -8.5225   24.0946  -31.5790 H   0  0  0  0  0  0  0  0  0  0  0  0
   -6.5460   23.1640  -31.2260 C   0  0  0  0  0  0  0  0  0  0  0  0
   -5.8650   21.9920  -30.8490 C   0  0  0  0  0  0  0  0  0  0  0  0
   -6.3932   21.0271  -30.8483 H   0  0  0  0  0  0  0  0  0  0  0  0
   -4.5180   22.0500  -30.4750 C   0  0  0  0  0  0  0  0  0  0  0  0
   -3.8460   20.8870  -30.1170 O   0  0  0  0  0  0  0  0  0  0  0  0
   -3.8490   23.2770  -30.4540 C   0  0  0  0  0  0  0  0  0  0  0  0
   -2.7880   23.3199  -30.1668 H   0  0  0  0  0  0  0  0  0  0  0  0
   -4.5280   24.4500  -30.7980 C   0  0  0  0  0  0  0  0  0  0  0  0
   -3.8670   25.6710  -30.7650 O   0  0  0  0  0  0  0  0  0  0  0  0
   -5.8750   24.3950  -31.1740 C   0  0  0  0  0  0  0  0  0  0  0  0
   -6.4101   25.3214  -31.4300 H   0  0  0  0  0  0  0  0  0  0  0  0
   -8.0800   20.7110  -32.2230 C   0  0  0  0  0  0  0  0  0  0  0  0
   -8.5730   19.6030  -31.5230 C   0  0  0  0  0  0  0  0  0  0  0  0
   -9.3726   19.7383  -30.7798 H   0  0  0  0  0  0  0  0  0  0  0  0
   -8.0560   18.3250  -31.7620 C   0  0  0  0  0  0  0  0  0  0  0  0
   -8.4424   17.4647  -31.1958 H   0  0  0  0  0  0  0  0  0  0  0  0
   -7.0460   18.1330  -32.7210 C   0  0  0  0  0  0  0  0  0  0  0  0
   -6.5080   16.8210  -32.9680 N   0  0  0  0  0  0  0  0  0  0  0  0
   -6.8780   16.1560  -33.9580 O   0  0  0  0  0  0  0  0  0  0  0  0
   -5.5770   16.2740  -32.1140 O   0  0  0  0  0  0  0  0  0  0  0  0
   -6.5740   19.2420  -33.4430 C   0  0  0  0  0  0  0  0  0  0  0  0
   -5.7899   19.1053  -34.2023 H   0  0  0  0  0  0  0  0  0  0  0  0
   -7.0930   20.5180  -33.2040 C   0  0  0  0  0  0  0  0  0  0  0  0
   -6.7265   21.3756  -33.7873 H   0  0  0  0  0  0  0  0  0  0  0  0
  1  2  1  0
  2  3  2  0
  3  4  1  0
  3  5  1  0
  5  6  2  0
  6  7  1  0
  6  8  1  0
  8  9  1  0
  8 10  2  0
 10 11  1  0
 10 12  1  0
 12 13  1  0
 12 14  2  0
 14 15  1  0
  2 16  1  0
 16 17  2  0
 17 18  1  0
 17 19  1  0
 19 20  1  0
 19 21  2  0
 21 22  1  0
 22 23  2  0
 22 24  1  0
 21 25  1  0
 25 26  1  0
 25 27  2  0
 27 28  1  0
 14  5  1  0
 27 16  1  0
M  CHG  4   9  -1  13  -1  22   1  24  -1
M  END
>  <UniqueID>  (6) 
6

>  <SMILES>  (6) 
O=[N+]([O-])c1ccc(/C=C\c2cc([O-])cc([O-])c2)cc1

>  <Energy>  (6) 
39.70805225435127

>  <Genealogy>  (6) 
O=[N+]([O-])c1ccc(C=Cc2cc([O-])cc([O-])c2)cc1 (protonated)
O=[N+]([O-])c1ccc(/C=C\c2cc([O-])cc([O-])c2)cc1 (cis-trans isomerization)
O=[N+]([O-])c1ccc(/C=C\c2cc([O-])cc([O-])c2)cc1 (3D coordinates assigned)
O=[N+]([O-])c1ccc(/C=C\c2cc([O-])cc([O-])c2)cc1 (optimized conformer: 39.70805225435127 kcal/mol)

>  <smiles>  (6) 
O=[N+]([O-])c1ccc(C=Cc2cc(O)cc(O)c2)cc1

>  <score_type>  (6) 
oracle

>  <origin>  (6) 
adgpu

>  <m_score__min__energy>  (6) 
-10.73

>  <m_primary>  (6) 
energy

$$$$
6:0
     RDKit          3D

 23 24  0  0  0  0  0  0  0  0999 V2000
   -6.5200   17.9350  -33.3910 C   0  0  0  0  0  0  0  0  0  0  0  0
   -6.5360   19.3320  -33.6680 O   0  0  0  0  0  0  0  0  0  0  0  0
   -7.2420   20.2820  -32.9140 C   0  0  0  0  0  0  0  0  0  0  0  0
   -8.6300   20.1940  -32.7080 C   0  0  0  0  0  0  0  0  0  0  0  0
   -9.2900   21.1630  -31.9500 C   0  0  0  0  0  0  0  0  0  0  0  0
   -8.5770   22.2240  -31.3900 C   0  0  0  0  0  0  0  0  0  0  0  0
   -7.1880   22.3320  -31.5810 C   0  0  0  0  0  0  0  0  0  0  0  0
   -6.4240   23.4590  -30.9890 C   0  0  0  0  0  0  0  0  0  0  0  0
   -6.7490   24.2070  -29.8650 C   0  0  0  0  0  0  0  0  0  0  0  0
   -5.7850   25.1260  -29.6800 N   0  0  0  0  0  0  0  0  0  0  0  0
   -4.9200   24.9070  -30.6850 C   0  0  0  0  0  0  0  0  0  0  0  0
   -3.8690   25.5780  -30.8570 O   0  0  0  0  0  0  0  0  0  0  0  0
   -5.2890   23.9210  -31.4680 O   0  0  0  0  0  0  0  0  0  0  0  0
   -6.5280   21.3490  -32.3490 C   0  0  0  0  0  0  0  0  0  0  0  0
   -5.1880   21.4180  -32.5570 F   0  0  0  0  0  0  0  0  0  0  0  0
   -6.5182   17.7770  -32.3024 H   0  0  0  0  0  0  0  0  0  0  0  0
   -7.4128   17.4642  -33.8283 H   0  0  0  0  0  0  0  0  0  0  0  0
   -5.6166   17.4848  -33.8283 H   0  0  0  0  0  0  0  0  0  0  0  0
   -9.1975   19.3593  -33.1453 H   0  0  0  0  0  0  0  0  0  0  0  0
  -10.3764   21.0899  -31.7935 H   0  0  0  0  0  0  0  0  0  0  0  0
   -9.1061   22.9823  -30.7941 H   0  0  0  0  0  0  0  0  0  0  0  0
   -7.6406   24.0712  -29.2352 H   0  0  0  0  0  0  0  0  0  0  0  0
   -5.7250   25.8450  -28.9260 H   0  0  0  0  0  0  0  0  0  0  0  0
  1  2  1  0
  2  3  1  0
  3  4  2  0
  4  5  1  0
  5  6  2  0
  6  7  1  0
  7  8  1  0
  8  9  2  0
  9 10  1  0
 10 11  1  0
 11 12  2  0
 11 13  1  0
  7 14  2  0
 14 15  1  0
 14  3  1  0
 13  8  1  0
  1 16  1  0
  1 17  1  0
  1 18  1  0
  4 19  1  0
  5 20  1  0
  6 21  1  0
  9 22  1  0
 10 23  1  0
M  END
>  <UniqueID>  (7) 
7

>  <SMILES>  (7) 
COc1cccc(-c2c[nH]c(=O)o2)c1F

>  <Energy>  (7) 
56.9365317899975

>  <Genealogy>  (7) 
COc1cccc(-c2c[nH]c(=O)o2)c1F (3D coordinates assigned)
COc1cccc(-c2c[nH]c(=O)o2)c1F (optimized conformer: 56.9365317899975 kcal/mol)

>  <smiles>  (7) 
COc1cccc(-c2c[nH]c(=O)o2)c1F

>  <score_type>  (7) 
oracle

>  <origin>  (7) 
adgpu

>  <m_score__min__energy>  (7) 
-6.4400000000000004

>  <m_primary>  (7) 
energy

$$$$
7:0
     RDKit          3D

 39 40  0  0  0  0  0  0  0  0999 V2000
   -5.7310   25.2650  -30.4660 C   0  0  0  0  0  0  0  0  0  0  0  0
   -5.1870   24.1270  -31.2220 N   0  0  0  0  0  0  0  0  0  0  0  0
   -5.0360   22.9660  -30.3260 C   0  0  0  0  0  0  0  0  0  0  0  0
   -6.0770   23.8020  -32.3560 C   0  0  0  0  0  0  0  0  0  0  0  0
   -6.8640   22.5510  -32.0710 C   0  0  0  0  0  0  0  0  0  0  0  0
   -8.1150   22.6390  -31.4090 C   0  0  0  0  0  0  0  0  0  0  0  0
   -8.8740   21.4830  -31.1500 C   0  0  0  0  0  0  0  0  0  0  0  0
   -8.3610   20.2580  -31.5700 C   0  0  0  0  0  0  0  0  0  0  0  0
   -8.9210   19.0460  -31.4190 N   0  0  0  0  0  0  0  0  0  0  0  0
   -8.0590   18.1640  -31.9770 C   0  0  0  0  0  0  0  0  0  0  0  0
   -6.9500   18.8290  -32.4880 C   0  0  0  0  0  0  0  0  0  0  0  0
   -5.7510   18.2020  -33.1470 C   0  0  0  0  0  0  0  0  0  0  0  0
   -6.0990   17.5740  -34.4430 N   0  0  0  0  0  0  0  0  0  0  0  0
   -6.6420   16.2230  -34.2150 C   0  0  0  0  0  0  0  0  0  0  0  0
   -4.9260   17.4940  -35.3330 C   0  0  0  0  0  0  0  0  0  0  0  0
   -7.1560   20.1670  -32.2150 C   0  0  0  0  0  0  0  0  0  0  0  0
   -6.3770   21.2910  -32.4850 C   0  0  0  0  0  0  0  0  0  0  0  0
   -5.6367   25.0677  -29.3880 H   0  0  0  0  0  0  0  0  0  0  0  0
   -5.1713   26.1766  -30.7223 H   0  0  0  0  0  0  0  0  0  0  0  0
   -6.7919   25.4019  -30.7223 H   0  0  0  0  0  0  0  0  0  0  0  0
   -5.0797   23.3023  -29.2796 H   0  0  0  0  0  0  0  0  0  0  0  0
   -5.8484   22.2489  -30.5150 H   0  0  0  0  0  0  0  0  0  0  0  0
   -4.0672   22.4806  -30.5150 H   0  0  0  0  0  0  0  0  0  0  0  0
   -6.7734   24.6376  -32.5199 H   0  0  0  0  0  0  0  0  0  0  0  0
   -5.4621   23.6372  -33.2531 H   0  0  0  0  0  0  0  0  0  0  0  0
   -8.4961   23.6218  -31.0946 H   0  0  0  0  0  0  0  0  0  0  0  0
   -9.8424   21.5447  -30.6319 H   0  0  0  0  0  0  0  0  0  0  0  0
   -9.8320   18.8240  -30.9590 H   0  0  0  0  0  0  0  0  0  0  0  0
   -8.2139   17.0758  -32.0201 H   0  0  0  0  0  0  0  0  0  0  0  0
   -4.9931   18.9801  -33.3209 H   0  0  0  0  0  0  0  0  0  0  0  0
   -5.3667   17.4166  -32.4796 H   0  0  0  0  0  0  0  0  0  0  0  0
   -6.8400   18.1400  -34.9190 H   0  0  0  0  0  0  0  0  0  0  0  0
   -6.7173   16.0358  -33.1337 H   0  0  0  0  0  0  0  0  0  0  0  0
   -7.6404   16.1474  -34.6706 H   0  0  0  0  0  0  0  0  0  0  0  0
   -5.9737   15.4775  -34.6706 H   0  0  0  0  0  0  0  0  0  0  0  0
   -4.0098   17.4315  -34.7274 H   0  0  0  0  0  0  0  0  0  0  0  0
   -5.0077   16.5993  -35.9678 H   0  0  0  0  0  0  0  0  0  0  0  0
   -4.8855   18.3915  -35.9678 H   0  0  0  0  0  0  0  0  0  0  0  0
   -5.4119   21.1997  -33.0049 H   0  0  0  0  0  0  0  0  0  0  0  0
  1  2  1  0
  2  3  1  0
  2  4  1  0
  4  5  1  0
  5  6  2  0
  6  7  1  0
  7  8  2  0
  8  9  1  0
  9 10  1  0
 10 11  2  0
 11 12  1  0
 12 13  1  0
 13 14  1  0
 13 15  1  0
 11 16  1  0
 16 17  2  0
 17  5  1  0
 16  8  1  0
  1 18  1  0
  1 19  1  0
  1 20  1  0
  3 21  1  0
  3 22  1  0
  3 23  1  0
  4 24  1  0
  4 25  1  0
  6 26  1  0
  7 27  1  0
  9 28  1  0
 10 29  1  0
 12 30  1  0
 12 31  1  0
 13 32  1  0
 14 33  1  0
 14 34  1  0
 14 35  1  0
 15 36  1  0
 15 37  1  0
 15 38  1  0
 17 39  1  0
M  CHG  1  13   1
M  END
>  <UniqueID>  (8) 
8

>  <SMILES>  (8) 
CN(C)Cc1ccc2[nH]cc(C[NH+](C)C)c2c1

>  <Energy>  (8) 
69.89334897640599

>  <Genealogy>  (8) 
CN(C)Cc1ccc2[nH]cc(C[NH+](C)C)c2c1 (protonated)
CN(C)Cc1ccc2[nH]cc(C[NH+](C)C)c2c1 (3D coordinates assigned)
CN(C)Cc1ccc2[nH]cc(C[NH+](C)C)c2c1 (optimized conformer: 69.89334897640599 kcal/mol)

>  <smiles>  (8) 
CN(C)Cc1ccc2[nH]cc(CN(C)C)c2c1

>  <score_type>  (8) 
oracle

>  <origin>  (8) 
adgpu

>  <m_score__min__energy>  (8) 
-6.25

>  <m_primary>  (8) 
energy

$$$$
8:0
     RDKit          3D

 60 64  0  0  0  0  0  0  0  0999 V2000
   -6.1220   18.7830  -31.2580 O   0  0  0  0  0  0  0  0  0  0  0  0
   -6.7040   18.7840  -32.3750 C   0  0  0  0  0  0  0  0  0  0  0  0
   -6.8890   17.5600  -33.0980 N   0  0  0  0  0  0  0  0  0  0  0  0
   -5.8820   16.7900  -33.7700 C   0  0  0  0  0  0  0  0  0  0  0  0
   -4.9760   17.4560  -34.6040 C   0  0  0  0  0  0  0  0  0  0  0  0
   -3.9620   16.7520  -35.2570 C   0  0  0  0  0  0  0  0  0  0  0  0
   -3.8330   15.3710  -35.0750 C   0  0  0  0  0  0  0  0  0  0  0  0
   -2.5430   14.5200  -35.9130 Cl  0  0  0  0  0  0  0  0  0  0  0  0
   -4.7230   14.6950  -34.2240 C   0  0  0  0  0  0  0  0  0  0  0  0
   -4.5760   12.8080  -33.9190 Br  0  0  0  0  0  0  0  0  0  0  0  0
   -5.7370   15.4050  -33.5680 C   0  0  0  0  0  0  0  0  0  0  0  0
   -7.1950   20.0060  -32.9420 N   0  0  0  0  0  0  0  0  0  0  0  0
   -7.2200   21.2710  -32.2570 C   0  0  0  0  0  0  0  0  0  0  0  0
   -8.3670   22.0730  -32.3450 C   0  0  0  0  0  0  0  0  0  0  0  0
   -8.4260   23.2970  -31.6770 C   0  0  0  0  0  0  0  0  0  0  0  0
   -7.3460   23.7290  -30.9050 C   0  0  0  0  0  0  0  0  0  0  0  0
   -6.1950   22.9310  -30.7810 C   0  0  0  0  0  0  0  0  0  0  0  0
   -5.0490   23.3900  -29.9550 C   0  0  0  0  0  0  0  0  0  0  0  0
   -4.7160   22.7310  -28.7610 C   0  0  0  0  0  0  0  0  0  0  0  0
   -3.6460   23.1780  -27.9850 C   0  0  0  0  0  0  0  0  0  0  0  0
   -2.8950   24.2830  -28.4100 C   0  0  0  0  0  0  0  0  0  0  0  0
   -1.8060   24.7950  -27.6180 N   0  0  0  0  0  0  0  0  0  0  0  0
   -0.4730   24.9100  -28.2320 C   0  0  0  0  0  0  0  0  0  0  0  0
    0.5070   25.6410  -27.3070 C   0  0  0  0  0  0  0  0  0  0  0  0
   -0.1640   26.7940  -26.6890 N   0  0  0  0  0  0  0  0  0  0  0  0
    0.3590   28.1280  -26.8450 C   0  0  0  0  0  0  0  0  0  0  0  0
   -0.5040   29.2100  -27.0970 C   0  0  0  0  0  0  0  0  0  0  0  0
    0.0060   30.5050  -27.2250 C   0  0  0  0  0  0  0  0  0  0  0  0
    1.3770   30.7340  -27.0980 C   0  0  0  0  0  0  0  0  0  0  0  0
    2.2430   29.6690  -26.8410 C   0  0  0  0  0  0  0  0  0  0  0  0
    1.7380   28.3710  -26.7120 C   0  0  0  0  0  0  0  0  0  0  0  0
   -1.4430   26.5940  -25.9880 C   0  0  0  0  0  0  0  0  0  0  0  0
   -1.9880   25.1780  -26.2100 C   0  0  0  0  0  0  0  0  0  0  0  0
   -3.2420   24.9160  -29.5650 N   0  0  0  0  0  0  0  0  0  0  0  0
   -4.2810   24.5020  -30.3380 C   0  0  0  0  0  0  0  0  0  0  0  0
   -6.1460   21.6950  -31.4540 C   0  0  0  0  0  0  0  0  0  0  0  0
   -5.0636   18.5432  -34.7462 H   0  0  0  0  0  0  0  0  0  0  0  0
   -3.2621   17.2854  -35.9170 H   0  0  0  0  0  0  0  0  0  0  0  0
   -6.4241   14.8765  -32.8908 H   0  0  0  0  0  0  0  0  0  0  0  0
   -7.4610   19.9900  -33.9530 H   0  0  0  0  0  0  0  0  0  0  0  0
   -9.2255   21.7353  -32.9442 H   0  0  0  0  0  0  0  0  0  0  0  0
   -9.3265   23.9234  -31.7591 H   0  0  0  0  0  0  0  0  0  0  0  0
   -7.3958   24.6999  -30.3904 H   0  0  0  0  0  0  0  0  0  0  0  0
   -5.3013   21.8583  -28.4357 H   0  0  0  0  0  0  0  0  0  0  0  0
   -3.3930   22.6661  -27.0448 H   0  0  0  0  0  0  0  0  0  0  0  0
   -0.0857   23.9014  -28.4386 H   0  0  0  0  0  0  0  0  0  0  0  0
   -0.5688   25.4890  -29.1623 H   0  0  0  0  0  0  0  0  0  0  0  0
    0.8506   24.9528  -26.5207 H   0  0  0  0  0  0  0  0  0  0  0  0
    1.3696   25.9914  -27.8928 H   0  0  0  0  0  0  0  0  0  0  0  0
   -1.5858   29.0360  -27.1938 H   0  0  0  0  0  0  0  0  0  0  0  0
   -0.6745   31.3455  -27.4262 H   0  0  0  0  0  0  0  0  0  0  0  0
    1.7756   31.7541  -27.2004 H   0  0  0  0  0  0  0  0  0  0  0  0
    3.3231   29.8510  -26.7399 H   0  0  0  0  0  0  0  0  0  0  0  0
    2.4231   27.5356  -26.5054 H   0  0  0  0  0  0  0  0  0  0  0  0
   -1.2892   26.7533  -24.9105 H   0  0  0  0  0  0  0  0  0  0  0  0
   -2.1732   27.3125  -26.3888 H   0  0  0  0  0  0  0  0  0  0  0  0
   -1.4450   24.4714  -25.5652 H   0  0  0  0  0  0  0  0  0  0  0  0
   -3.0591   25.1553  -25.9606 H   0  0  0  0  0  0  0  0  0  0  0  0
   -4.5211   25.0399  -31.2669 H   0  0  0  0  0  0  0  0  0  0  0  0
   -5.2580   21.0541  -31.3505 H   0  0  0  0  0  0  0  0  0  0  0  0
  1  2  2  0
  2  3  1  0
  3  4  1  0
  4  5  2  0
  5  6  1  0
  6  7  2  0
  7  8  1  0
  7  9  1  0
  9 10  1  0
  9 11  2  0
  2 12  1  0
 12 13  1  0
 13 14  2  0
 14 15  1  0
 15 16  2  0
 16 17  1  0
 17 18  1  0
 18 19  2  0
 19 20  1  0
 20 21  2  0
 21 22  1  0
 22 23  1  0
 23 24  1  0
 24 25  1  0
 25 26  1  0
 26 27  2  0
 27 28  1  0
 28 29  2  0
 29 30  1  0
 30 31  2  0
 25 32  1  0
 32 33  1  0
 21 34  1  0
 34 35  2  0
 17 36  2  0
 11  4  1  0
 36 13  1  0
 35 18  1  0
 33 22  1  0
 31 26  1  0
  5 37  1  0
  6 38  1  0
 11 39  1  0
 12 40  1  0
 14 41  1  0
 15 42  1  0
 16 43  1  0
 19 44  1  0
 20 45  1  0
 23 46  1  0
 23 47  1  0
 24 48  1  0
 24 49  1  0
 27 50  1  0
 28 51  1  0
 29 52  1  0
 30 53  1  0
 31 54  1  0
 32 55  1  0
 32 56  1  0
 33 57  1  0
 33 58  1  0
 35 59  1  0
 36 60  1  0
M  CHG  1   3  -1
M  END
>  <UniqueID>  (9) 
9

>  <SMILES>  (9) 
O=C([N-]c1ccc(Cl)c(Br)c1)Nc1cccc(-c2ccc(N3CCN(c4ccccc4)CC3)nc2)c1

>  <Energy>  (9) 
87.72828183457156

>  <Genealogy>  (9) 
O=C([N-]c1ccc(Cl)c(Br)c1)Nc1cccc(-c2ccc(N3CCN(c4ccccc4)CC3)nc2)c1 (protonated)
O=C([N-]c1ccc(Cl)c(Br)c1)Nc1cccc(-c2ccc(N3CCN(c4ccccc4)CC3)nc2)c1 (3D coordinates assigned)
O=C([N-]c1ccc(Cl)c(Br)c1)Nc1cccc(-c2ccc(N3CCN(c4ccccc4)CC3)nc2)c1 (nonaromatic ring conformer: 87.72828183457156 kcal/mol)

>  <smiles>  (9) 
O=C(Nc1cccc(-c2ccc(N3CCN(c4ccccc4)CC3)nc2)c1)Nc1ccc(Cl)c(Br)c1

>  <score_type>  (9) 
oracle

>  <origin>  (9) 
adgpu

>  <m_score__min__energy>  (9) 
-11.779999999999999

>  <m_primary>  (9) 
energy

$$$$
9:0
     RDKit          3D

 41 44  0  0  0  0  0  0  0  0999 V2000
   -1.9520   26.0820  -24.9610 C   0  0  0  0  0  0  0  0  0  0  0  0
   -1.9670   25.4510  -26.3210 C   0  0  0  0  0  0  0  0  0  0  0  0
   -0.8060   25.4440  -27.1080 C   0  0  0  0  0  0  0  0  0  0  0  0
   -0.8320   24.9030  -28.3960 C   0  0  0  0  0  0  0  0  0  0  0  0
   -2.0180   24.3730  -28.9090 C   0  0  0  0  0  0  0  0  0  0  0  0
   -3.1890   24.3670  -28.1360 C   0  0  0  0  0  0  0  0  0  0  0  0
   -4.4030   23.8420  -28.6980 N   0  0  0  0  0  0  0  0  0  0  0  0
   -4.7460   23.9390  -30.0900 C   0  0  0  0  0  0  0  0  0  0  0  0
   -4.1710   24.7880  -30.8250 O   0  0  0  0  0  0  0  0  0  0  0  0
   -5.7980   23.0870  -30.6720 C   0  0  0  0  0  0  0  0  0  0  0  0
   -7.1730   23.3390  -30.6540 C   0  0  0  0  0  0  0  0  0  0  0  0
   -7.9050   22.3210  -31.2700 C   0  0  0  0  0  0  0  0  0  0  0  0
   -9.2580   22.2930  -31.3660 N   0  0  0  0  0  0  0  0  0  0  0  0
   -9.8820   21.2370  -31.9630 C   0  0  0  0  0  0  0  0  0  0  0  0
   -9.1330   20.1640  -32.4820 C   0  0  0  0  0  0  0  0  0  0  0  0
   -7.7260   20.1780  -32.3980 C   0  0  0  0  0  0  0  0  0  0  0  0
   -6.9280   19.0560  -32.9440 C   0  0  0  0  0  0  0  0  0  0  0  0
   -6.1210   19.2360  -34.0810 C   0  0  0  0  0  0  0  0  0  0  0  0
   -5.3770   18.1690  -34.5950 C   0  0  0  0  0  0  0  0  0  0  0  0
   -5.4380   16.9150  -33.9850 C   0  0  0  0  0  0  0  0  0  0  0  0
   -6.2440   16.7220  -32.8610 C   0  0  0  0  0  0  0  0  0  0  0  0
   -6.9900   17.7860  -32.3430 C   0  0  0  0  0  0  0  0  0  0  0  0
   -7.1350   21.2850  -31.7750 C   0  0  0  0  0  0  0  0  0  0  0  0
   -5.5160   21.6050  -31.4420 S   0  0  0  0  0  0  0  0  0  0  0  0
   -3.1610   24.9310  -26.8470 C   0  0  0  0  0  0  0  0  0  0  0  0
   -1.9707   25.2959  -24.1918 H   0  0  0  0  0  0  0  0  0  0  0  0
   -1.0393   26.6852  -24.8467 H   0  0  0  0  0  0  0  0  0  0  0  0
   -2.8350   26.7279  -24.8467 H   0  0  0  0  0  0  0  0  0  0  0  0
    0.1285   25.8660  -26.7097 H   0  0  0  0  0  0  0  0  0  0  0  0
    0.0828   24.8945  -29.0068 H   0  0  0  0  0  0  0  0  0  0  0  0
   -2.0342   23.9570  -29.9272 H   0  0  0  0  0  0  0  0  0  0  0  0
   -5.1200   23.4630  -28.0390 H   0  0  0  0  0  0  0  0  0  0  0  0
   -7.6263   24.2357  -30.2063 H   0  0  0  0  0  0  0  0  0  0  0  0
  -10.9793   21.2238  -32.0395 H   0  0  0  0  0  0  0  0  0  0  0  0
   -9.6465   19.3133  -32.9538 H   0  0  0  0  0  0  0  0  0  0  0  0
   -6.0745   20.2208  -34.5688 H   0  0  0  0  0  0  0  0  0  0  0  0
   -4.7428   18.3183  -35.4813 H   0  0  0  0  0  0  0  0  0  0  0  0
   -4.8506   16.0779  -34.3901 H   0  0  0  0  0  0  0  0  0  0  0  0
   -6.2923   15.7326  -32.3826 H   0  0  0  0  0  0  0  0  0  0  0  0
   -7.6283   17.6285  -31.4611 H   0  0  0  0  0  0  0  0  0  0  0  0
   -4.0819   24.9649  -26.2464 H   0  0  0  0  0  0  0  0  0  0  0  0
  1  2  1  0
  2  3  2  0
  3  4  1  0
  4  5  2  0
  5  6  1  0
  6  7  1  0
  7  8  1  0
  8  9  2  0
  8 10  1  0
 10 11  2  0
 11 12  1  0
 12 13  2  0
 13 14  1  0
 14 15  2  0
 15 16  1  0
 16 17  1  0
 17 18  2  0
 18 19  1  0
 19 20  2  0
 20 21  1  0
 21 22  2  0
 16 23  2  0
 23 24  1  0
  6 25  2  0
 25  2  1  0
 24 10  1  0
 23 12  1  0
 22 17  1  0
  1 26  1  0
  1 27  1  0
  1 28  1  0
  3 29  1  0
  4 30  1  0
  5 31  1  0
  7 32  1  0
 11 33  1  0
 14 34  1  0
 15 35  1  0
 18 36  1  0
 19 37  1  0
 20 38  1  0
 21 39  1  0
 22 40  1  0
 25 41  1  0
M  END
>  <UniqueID>  (10) 
10

>  <SMILES>  (10) 
Cc1cccc(NC(=O)c2cc3nccc(-c4ccccc4)c3s2)c1

>  <Energy>  (10) 
86.62803109969289

>  <Genealogy>  (10) 
Cc1cccc(NC(=O)c2cc3nccc(-c4ccccc4)c3s2)c1 (3D coordinates assigned)
Cc1cccc(NC(=O)c2cc3nccc(-c4ccccc4)c3s2)c1 (optimized conformer: 86.62803109969289 kcal/mol)

>  <smiles>  (10) 
Cc1cccc(NC(=O)c2cc3nccc(-c4ccccc4)c3s2)c1

>  <score_type>  (10) 
oracle

>  <origin>  (10) 
adgpu

>  <m_score__min__energy>  (10) 
-10.6

>  <m_primary>  (10) 
energy

$$$$
10:0
     RDKit          3D

 43 47  0  0  0  0  0  0  0  0999 V2000
   -1.8280   26.6380  -28.3880 H   0  0  0  0  0  0  0  0  0  0  0  0
   -1.3580   25.7420  -28.6470 N   0  0  0  0  0  0  0  0  0  0  0  0
   -1.9770   24.8370  -29.3320 C   0  0  0  0  0  0  0  0  0  0  0  0
   -3.2760   24.9200  -29.7100 N   0  0  0  0  0  0  0  0  0  0  0  0
   -3.5850   23.7280  -30.2250 N   0  0  0  0  0  0  0  0  0  0  0  0
   -4.9160   23.3260  -30.6040 C   0  0  0  0  0  0  0  0  0  0  0  0
   -5.2630   23.1580  -31.9580 C   0  0  0  0  0  0  0  0  0  0  0  0
   -4.5073   23.3240  -32.7399 H   0  0  0  0  0  0  0  0  0  0  0  0
   -6.5600   22.7820  -32.3160 C   0  0  0  0  0  0  0  0  0  0  0  0
   -6.8180   22.6464  -33.3767 H   0  0  0  0  0  0  0  0  0  0  0  0
   -7.5330   22.5770  -31.3300 C   0  0  0  0  0  0  0  0  0  0  0  0
   -9.1630   22.1040  -31.7980 S   0  0  0  0  0  0  0  0  0  0  0  0
  -10.0320   21.9080  -30.5880 O   0  0  0  0  0  0  0  0  0  0  0  0
   -9.7570   23.1860  -32.6540 O   0  0  0  0  0  0  0  0  0  0  0  0
   -9.1100   20.6270  -32.7030 N   0  0  0  0  0  0  0  0  0  0  0  0
   -8.0170   19.6980  -32.7090 C   0  0  0  0  0  0  0  0  0  0  0  0
   -6.8970   19.8640  -33.5450 C   0  0  0  0  0  0  0  0  0  0  0  0
   -6.8455   20.7239  -34.2291 H   0  0  0  0  0  0  0  0  0  0  0  0
   -5.8490   18.9380  -33.5080 C   0  0  0  0  0  0  0  0  0  0  0  0
   -4.9772   19.0695  -34.1657 H   0  0  0  0  0  0  0  0  0  0  0  0
   -5.9070   17.8470  -32.6380 C   0  0  0  0  0  0  0  0  0  0  0  0
   -5.0795   17.1230  -32.6071 H   0  0  0  0  0  0  0  0  0  0  0  0
   -7.0170   17.6760  -31.8070 C   0  0  0  0  0  0  0  0  0  0  0  0
   -7.0630   16.8167  -31.1219 H   0  0  0  0  0  0  0  0  0  0  0  0
   -8.0700   18.5960  -31.8450 C   0  0  0  0  0  0  0  0  0  0  0  0
   -8.9445   18.4537  -31.1931 H   0  0  0  0  0  0  0  0  0  0  0  0
   -7.1990   22.7560  -29.9820 C   0  0  0  0  0  0  0  0  0  0  0  0
   -7.9613   22.6040  -29.2037 H   0  0  0  0  0  0  0  0  0  0  0  0
   -5.9010   23.1270  -29.6220 C   0  0  0  0  0  0  0  0  0  0  0  0
   -5.6480   23.2645  -28.5604 H   0  0  0  0  0  0  0  0  0  0  0  0
   -2.4700   22.9690  -30.1500 C   0  0  0  0  0  0  0  0  0  0  0  0
   -2.4040   21.6550  -29.8690 N   0  0  0  0  0  0  0  0  0  0  0  0
   -1.2320   21.6120  -29.1690 C   0  0  0  0  0  0  0  0  0  0  0  0
   -0.6870   20.3740  -28.6050 C   0  0  0  0  0  0  0  0  0  0  0  0
    0.5110   19.9100  -28.8760 O   0  0  0  0  0  0  0  0  0  0  0  0
    0.6860   18.7920  -28.2080 C   0  0  0  0  0  0  0  0  0  0  0  0
    1.5957   18.1741  -28.2352 H   0  0  0  0  0  0  0  0  0  0  0  0
   -0.4440   18.5100  -27.4670 C   0  0  0  0  0  0  0  0  0  0  0  0
   -0.6025   17.6448  -26.8065 H   0  0  0  0  0  0  0  0  0  0  0  0
   -1.3340   19.5320  -27.7220 C   0  0  0  0  0  0  0  0  0  0  0  0
   -2.3465   19.6515  -27.3089 H   0  0  0  0  0  0  0  0  0  0  0  0
   -0.6840   22.8370  -28.9500 N   0  0  0  0  0  0  0  0  0  0  0  0
   -1.4620   23.6400  -29.6450 N   0  0  0  0  0  0  0  0  0  0  0  0
  1  2  1  0
  2  3  2  0
  3  4  1  0
  4  5  1  0
  5  6  1  0
  6  7  2  0
  7  8  1  0
  7  9  1  0
  9 10  1  0
  9 11  2  0
 11 12  1  0
 12 13  2  0
 12 14  2  0
 12 15  1  0
 15 16  1  0
 16 17  2  0
 17 18  1  0
 17 19  1  0
 19 20  1  0
 19 21  2  0
 21 22  1  0
 21 23  1  0
 23 24  1  0
 23 25  2  0
 25 26  1  0
 11 27  1  0
 27 28  1  0
 27 29  2  0
 29 30  1  0
  5 31  1  0
 31 32  2  0
 32 33  1  0
 33 34  1  0
 34 35  1  0
 35 36  1  0
 36 37  1  0
 36 38  2  0
 38 39  1  0
 38 40  1  0
 40 41  1  0
 33 42  2  0
 42 43  1  0
 43  3  1  0
 29  6  1  0
 43 31  1  0
 25 16  1  0
 40 34  2  0
M  CHG  2   4  -1  15  -1
M  END
>  <UniqueID>  (11) 
11

>  <SMILES>  (11) 
[H]/N=c1\[n-]n(-c2ccc(S(=O)(=O)[N-]c3ccccc3)cc2)c2nc(-c3ccco3)nn12

>  <Energy>  (11) 
183.62021375654317

>  <Genealogy>  (11) 
N=c1[n-]n(-c2ccc(S(=O)(=O)[N-]c3ccccc3)cc2)c2nc(-c3ccco3)nn12 (protonated)
[H]/N=c1\[n-]n(-c2ccc(S(=O)(=O)[N-]c3ccccc3)cc2)c2nc(-c3ccco3)nn12 (cis-trans isomerization)
[H]/N=c1\[n-]n(-c2ccc(S(=O)(=O)[N-]c3ccccc3)cc2)c2nc(-c3ccco3)nn12 (3D coordinates assigned)
[H]/N=c1\[n-]n(-c2ccc(S(=O)(=O)[N-]c3ccccc3)cc2)c2nc(-c3ccco3)nn12 (optimized conformer: 183.62021375654317 kcal/mol)

>  <smiles>  (11) 
N=c1[nH]n(-c2ccc(S(=O)(=O)Nc3ccccc3)cc2)c2nc(-c3ccco3)nn12

>  <score_type>  (11) 
oracle

>  <origin>  (11) 
adgpu

>  <m_score__min__energy>  (11) 
-10.43

>  <m_primary>  (11) 
energy

$$$$
11:0
     RDKit          3D

 22 22  0  0  0  0  0  0  0  0999 V2000
   -3.0620   20.7630  -33.4470 C   0  0  0  0  0  0  0  0  0  0  0  0
   -4.4830   20.6730  -33.4580 O   0  0  0  0  0  0  0  0  0  0  0  0
   -5.3440   21.4980  -32.7140 C   0  0  0  0  0  0  0  0  0  0  0  0
   -4.8600   22.5910  -31.9710 C   0  0  0  0  0  0  0  0  0  0  0  0
   -5.7350   23.4110  -31.2400 C   0  0  0  0  0  0  0  0  0  0  0  0
   -5.2000   24.5560  -30.4620 C   0  0  0  0  0  0  0  0  0  0  0  0
   -5.7260   24.8960  -29.1760 N   0  0  0  0  0  0  0  0  0  0  0  0
   -4.2700   25.2590  -30.9440 O   0  0  0  0  0  0  0  0  0  0  0  0
   -7.1060   23.1140  -31.2420 C   0  0  0  0  0  0  0  0  0  0  0  0
   -7.6020   22.0320  -31.9740 C   0  0  0  0  0  0  0  0  0  0  0  0
   -9.3340   21.7230  -31.9230 Cl  0  0  0  0  0  0  0  0  0  0  0  0
   -6.7240   21.2170  -32.7190 C   0  0  0  0  0  0  0  0  0  0  0  0
   -7.2240   20.1040  -33.4750 N   0  0  0  0  0  0  0  0  0  0  0  0
   -2.7041   20.7857  -32.4071 H   0  0  0  0  0  0  0  0  0  0  0  0
   -2.6353   19.8901  -33.9627 H   0  0  0  0  0  0  0  0  0  0  0  0
   -2.7488   21.6828  -33.9627 H   0  0  0  0  0  0  0  0  0  0  0  0
   -3.7812   22.8060  -31.9627 H   0  0  0  0  0  0  0  0  0  0  0  0
   -6.5920   24.4530  -28.8010 H   0  0  0  0  0  0  0  0  0  0  0  0
   -5.2910   25.6690  -28.6240 H   0  0  0  0  0  0  0  0  0  0  0  0
   -7.7987   23.7402  -30.6605 H   0  0  0  0  0  0  0  0  0  0  0  0
   -8.2180   20.0510  -33.7890 H   0  0  0  0  0  0  0  0  0  0  0  0
   -6.6040   19.3060  -33.7390 H   0  0  0  0  0  0  0  0  0  0  0  0
  1  2  1  0
  2  3  1  0
  3  4  2  0
  4  5  1  0
  5  6  1  0
  6  7  1  0
  6  8  2  0
  5  9  2  0
  9 10  1  0
 10 11  1  0
 10 12  2  0
 12 13  1  0
 12  3  1  0
  1 14  1  0
  1 15  1  0
  1 16  1  0
  4 17  1  0
  7 18  1  0
  7 19  1  0
  9 20  1  0
 13 21  1  0
 13 22  1  0
M  END
>  <UniqueID>  (12) 
12

>  <SMILES>  (12) 
COc1cc(C(N)=O)cc(Cl)c1N

>  <Energy>  (12) 
22.48709600657181

>  <Genealogy>  (12) 
COc1cc(C(N)=O)cc(Cl)c1N (3D coordinates assigned)
COc1cc(C(N)=O)cc(Cl)c1N (optimized conformer: 22.48709600657181 kcal/mol)

>  <smiles>  (12) 
COc1cc(C(N)=O)cc(Cl)c1N

>  <score_type>  (12) 
oracle

>  <origin>  (12) 
adgpu

>  <m_score__min__energy>  (12) 
-6.2699999999999996

>  <m_primary>  (12) 
energy

$$$$
12:0
     RDKit          3D

 34 35  0  0  0  0  0  0  0  0999 V2000
   -3.9120   24.1790  -27.1280 C   0  0  0  0  0  0  0  0  0  0  0  0
   -3.0330   23.7060  -28.2820 C   0  0  0  0  0  0  0  0  0  0  0  0
   -2.7180   24.8270  -29.2360 C   0  0  0  0  0  0  0  0  0  0  0  0
   -1.7400   25.5860  -28.9990 O   0  0  0  0  0  0  0  0  0  0  0  0
   -3.4860   25.0440  -30.4280 N   0  0  0  0  0  0  0  0  0  0  0  0
   -4.8350   24.6170  -30.6620 C   0  0  0  0  0  0  0  0  0  0  0  0
   -5.8670   25.1900  -29.9090 C   0  0  0  0  0  0  0  0  0  0  0  0
   -7.1870   24.7640  -30.0830 C   0  0  0  0  0  0  0  0  0  0  0  0
   -7.4840   23.7570  -31.0040 C   0  0  0  0  0  0  0  0  0  0  0  0
   -6.4630   23.1700  -31.7620 C   0  0  0  0  0  0  0  0  0  0  0  0
   -6.7940   22.1130  -32.6740 N   0  0  0  0  0  0  0  0  0  0  0  0
   -7.4920   20.9050  -32.3420 C   0  0  0  0  0  0  0  0  0  0  0  0
   -8.5410   20.9870  -31.6490 O   0  0  0  0  0  0  0  0  0  0  0  0
   -7.0450   19.5800  -32.8320 C   0  0  0  0  0  0  0  0  0  0  0  0
   -7.5770   18.4040  -32.2740 C   0  0  0  0  0  0  0  0  0  0  0  0
   -7.1660   17.1520  -32.7410 C   0  0  0  0  0  0  0  0  0  0  0  0
   -6.2310   17.0610  -33.7740 C   0  0  0  0  0  0  0  0  0  0  0  0
   -5.7070   18.2230  -34.3450 C   0  0  0  0  0  0  0  0  0  0  0  0
   -6.1120   19.4780  -33.8800 C   0  0  0  0  0  0  0  0  0  0  0  0
   -5.1330   23.5830  -31.5670 C   0  0  0  0  0  0  0  0  0  0  0  0
   -3.4325   23.9210  -26.1722 H   0  0  0  0  0  0  0  0  0  0  0  0
   -4.0430   25.2694  -27.1899 H   0  0  0  0  0  0  0  0  0  0  0  0
   -4.8942   23.6876  -27.1899 H   0  0  0  0  0  0  0  0  0  0  0  0
   -2.0915   23.3096  -27.8740 H   0  0  0  0  0  0  0  0  0  0  0  0
   -3.5807   22.9284  -28.8346 H   0  0  0  0  0  0  0  0  0  0  0  0
   -5.6381   25.9788  -29.1773 H   0  0  0  0  0  0  0  0  0  0  0  0
   -7.9939   25.2231  -29.4930 H   0  0  0  0  0  0  0  0  0  0  0  0
   -8.5241   23.4235  -31.1346 H   0  0  0  0  0  0  0  0  0  0  0  0
   -8.3204   18.4695  -31.4659 H   0  0  0  0  0  0  0  0  0  0  0  0
   -7.5802   16.2364  -32.2936 H   0  0  0  0  0  0  0  0  0  0  0  0
   -5.9073   16.0747  -34.1379 H   0  0  0  0  0  0  0  0  0  0  0  0
   -4.9742   18.1507  -35.1622 H   0  0  0  0  0  0  0  0  0  0  0  0
   -5.6991   20.3900  -34.3359 H   0  0  0  0  0  0  0  0  0  0  0  0
   -4.3211   23.0943  -32.1257 H   0  0  0  0  0  0  0  0  0  0  0  0
  1  2  1  0
  2  3  1  0
  3  4  2  0
  3  5  1  0
  5  6  1  0
  6  7  2  0
  7  8  1  0
  8  9  2  0
  9 10  1  0
 10 11  1  0
 11 12  1  0
 12 13  2  0
 12 14  1  0
 14 15  2  0
 15 16  1  0
 16 17  2  0
 17 18  1  0
 18 19  2  0
 10 20  2  0
 20  6  1  0
 19 14  1  0
  1 21  1  0
  1 22  1  0
  1 23  1  0
  2 24  1  0
  2 25  1  0
  7 26  1  0
  8 27  1  0
  9 28  1  0
 15 29  1  0
 16 30  1  0
 17 31  1  0
 18 32  1  0
 19 33  1  0
 20 34  1  0
M  CHG  2   5  -1  11  -1
M  END
>  <UniqueID>  (13) 
13

>  <SMILES>  (13) 
CCC(=O)[N-]c1cccc([N-]C(=O)c2ccccc2)c1

>  <Energy>  (13) 
40.15283898539178

>  <Genealogy>  (13) 
CCC(=O)[N-]c1cccc([N-]C(=O)c2ccccc2)c1 (protonated)
CCC(=O)[N-]c1cccc([N-]C(=O)c2ccccc2)c1 (3D coordinates assigned)
CCC(=O)[N-]c1cccc([N-]C(=O)c2ccccc2)c1 (optimized conformer: 40.15283898539178 kcal/mol)

>  <smiles>  (13) 
CCC(=O)Nc1cccc(NC(=O)c2ccccc2)c1

>  <score_type>  (13) 
oracle

>  <origin>  (13) 
adgpu

>  <m_score__min__energy>  (13) 
-9.5600000000000005

>  <m_primary>  (13) 
energy

$$$$
13:0
     RDKit          3D

 32 34  0  0  0  0  0  0  0  0999 V2000
   -1.8508   27.8060  -25.7211 H   0  0  0  0  0  0  0  0  0  0  0  0
   -1.5280   26.7720  -25.5300 C   0  0  0  0  0  0  0  0  0  0  0  0
   -1.7770   25.8020  -26.4490 N   0  0  0  0  0  0  0  0  0  0  0  0
   -1.3790   24.5120  -26.2640 C   0  0  0  0  0  0  0  0  0  0  0  0
   -1.6980   23.4870  -27.2170 N   0  0  0  0  0  0  0  0  0  0  0  0
   -2.3420   23.6130  -28.3420 C   0  0  0  0  0  0  0  0  0  0  0  0
   -2.7260   22.3020  -29.3220 S   0  0  0  0  0  0  0  0  0  0  0  0
   -3.4460   23.2630  -30.5060 C   0  0  0  0  0  0  0  0  0  0  0  0
   -4.0900   22.7570  -31.7630 C   0  0  0  0  0  0  0  0  0  0  0  0
   -4.0763   23.5534  -32.5217 H   0  0  0  0  0  0  0  0  0  0  0  0
   -3.5292   21.8806  -32.1198 H   0  0  0  0  0  0  0  0  0  0  0  0
   -5.5180   22.3460  -31.5020 C   0  0  0  0  0  0  0  0  0  0  0  0
   -6.3150   23.1360  -30.6530 C   0  0  0  0  0  0  0  0  0  0  0  0
   -5.8974   24.0518  -30.2092 H   0  0  0  0  0  0  0  0  0  0  0  0
   -7.6320   22.7670  -30.3690 C   0  0  0  0  0  0  0  0  0  0  0  0
   -8.2482   23.3946  -29.7084 H   0  0  0  0  0  0  0  0  0  0  0  0
   -8.1670   21.6020  -30.9230 C   0  0  0  0  0  0  0  0  0  0  0  0
   -9.2054   21.3144  -30.7016 H   0  0  0  0  0  0  0  0  0  0  0  0
   -7.3840   20.8020  -31.7580 C   0  0  0  0  0  0  0  0  0  0  0  0
   -7.8080   19.8833  -32.1897 H   0  0  0  0  0  0  0  0  0  0  0  0
   -6.0630   21.1620  -32.0490 C   0  0  0  0  0  0  0  0  0  0  0  0
   -5.0490   20.0010  -33.1920 Br  0  0  0  0  0  0  0  0  0  0  0  0
   -3.3600   24.5910  -30.0920 C   0  0  0  0  0  0  0  0  0  0  0  0
   -3.8610   25.6520  -30.8370 O   0  0  0  0  0  0  0  0  0  0  0  0
   -2.7400   24.7840  -28.8980 N   0  0  0  0  0  0  0  0  0  0  0  0
   -2.5730   25.7360  -28.5090 H   0  0  0  0  0  0  0  0  0  0  0  0
   -0.7310   24.1580  -25.0740 C   0  0  0  0  0  0  0  0  0  0  0  0
   -0.4336   23.1142  -24.8952 H   0  0  0  0  0  0  0  0  0  0  0  0
   -0.4650   25.1370  -24.1170 C   0  0  0  0  0  0  0  0  0  0  0  0
    0.0567   24.8707  -23.1859 H   0  0  0  0  0  0  0  0  0  0  0  0
   -0.8630   26.4570  -24.3440 C   0  0  0  0  0  0  0  0  0  0  0  0
   -0.6549   27.2378  -23.5977 H   0  0  0  0  0  0  0  0  0  0  0  0
  1  2  1  0
  2  3  2  0
  3  4  1  0
  4  5  1  0
  5  6  2  0
  6  7  1  0
  7  8  1  0
  8  9  1  0
  9 10  1  0
  9 11  1  0
  9 12  1  0
 12 13  2  0
 13 14  1  0
 13 15  1  0
 15 16  1  0
 15 17  2  0
 17 18  1  0
 17 19  1  0
 19 20  1  0
 19 21  2  0
 21 22  1  0
  8 23  2  0
 23 24  1  0
 23 25  1  0
 25 26  1  0
  4 27  2  0
 27 28  1  0
 27 29  1  0
 29 30  1  0
 29 31  2  0
 31 32  1  0
 31  2  1  0
 25  6  1  0
 21 12  1  0
M  CHG  1  24  -1
M  END
>  <UniqueID>  (14) 
14

>  <SMILES>  (14) 
[O-]c1[nH]/c(=N\c2ccccn2)sc1Cc1ccccc1Br

>  <Energy>  (14) 
71.35417300920433

>  <Genealogy>  (14) 
[O-]c1[nH]c(=Nc2ccccn2)sc1Cc1ccccc1Br (protonated)
[O-]c1[nH]/c(=N\c2ccccn2)sc1Cc1ccccc1Br (cis-trans isomerization)
[O-]c1[nH]/c(=N\c2ccccn2)sc1Cc1ccccc1Br (3D coordinates assigned)
[O-]c1[nH]/c(=N\c2ccccn2)sc1Cc1ccccc1Br (optimized conformer: 71.35417300920433 kcal/mol)

>  <smiles>  (14) 
Oc1[nH]c(=Nc2ccccn2)sc1Cc1ccccc1Br

>  <score_type>  (14) 
oracle

>  <origin>  (14) 
adgpu

>  <m_score__min__energy>  (14) 
-10.57

>  <m_primary>  (14) 
energy

$$$$
14:0
     RDKit          3D

 38 41  0  0  0  0  0  0  0  0999 V2000
   -1.9980   25.6810  -28.9660 O   0  0  0  0  0  0  0  0  0  0  0  0
   -2.4970   24.5670  -29.6290 C   0  0  0  0  0  0  0  0  0  0  0  0
   -3.7530   24.6200  -30.2380 C   0  0  0  0  0  0  0  0  0  0  0  0
   -4.2580   23.4990  -30.9050 C   0  0  0  0  0  0  0  0  0  0  0  0
   -3.5070   22.3100  -30.9720 C   0  0  0  0  0  0  0  0  0  0  0  0
   -4.0400   21.1190  -31.6800 C   0  0  0  0  0  0  0  0  0  0  0  0
   -3.1830   20.2860  -32.4170 C   0  0  0  0  0  0  0  0  0  0  0  0
   -3.6970   19.1600  -33.0810 C   0  0  0  0  0  0  0  0  0  0  0  0
   -2.8260   18.2560  -33.8760 C   0  0  0  0  0  0  0  0  0  0  0  0
   -1.4600   18.5570  -34.0310 C   0  0  0  0  0  0  0  0  0  0  0  0
   -0.6290   17.7200  -34.7810 C   0  0  0  0  0  0  0  0  0  0  0  0
   -1.1520   16.5790  -35.3930 C   0  0  0  0  0  0  0  0  0  0  0  0
   -2.5070   16.2740  -35.2580 C   0  0  0  0  0  0  0  0  0  0  0  0
   -3.3440   17.1060  -34.5080 C   0  0  0  0  0  0  0  0  0  0  0  0
   -5.0330   18.9050  -33.0130 N   0  0  0  0  0  0  0  0  0  0  0  0
   -5.8970   19.6870  -32.3130 C   0  0  0  0  0  0  0  0  0  0  0  0
   -7.3270   19.3200  -32.2970 C   0  0  0  0  0  0  0  0  0  0  0  0
   -8.3770   20.0050  -32.8840 C   0  0  0  0  0  0  0  0  0  0  0  0
   -9.5080   19.2730  -32.5970 C   0  0  0  0  0  0  0  0  0  0  0  0
   -9.0860   18.1900  -31.8550 C   0  0  0  0  0  0  0  0  0  0  0  0
   -7.7840   18.2460  -31.6940 O   0  0  0  0  0  0  0  0  0  0  0  0
   -5.4080   20.8100  -31.6280 C   0  0  0  0  0  0  0  0  0  0  0  0
   -2.2430   22.2700  -30.3550 C   0  0  0  0  0  0  0  0  0  0  0  0
   -1.7420   23.3920  -29.6880 C   0  0  0  0  0  0  0  0  0  0  0  0
   -4.3462   25.5453  -30.1929 H   0  0  0  0  0  0  0  0  0  0  0  0
   -5.2488   23.5467  -31.3805 H   0  0  0  0  0  0  0  0  0  0  0  0
   -2.1087   20.5153  -32.4744 H   0  0  0  0  0  0  0  0  0  0  0  0
   -1.0429   19.4583  -33.5581 H   0  0  0  0  0  0  0  0  0  0  0  0
    0.4389   17.9605  -34.8893 H   0  0  0  0  0  0  0  0  0  0  0  0
   -0.4960   15.9207  -35.9814 H   0  0  0  0  0  0  0  0  0  0  0  0
   -2.9179   15.3763  -35.7431 H   0  0  0  0  0  0  0  0  0  0  0  0
   -4.4122   16.8625  -34.4102 H   0  0  0  0  0  0  0  0  0  0  0  0
   -8.3200   20.9402  -33.4603 H   0  0  0  0  0  0  0  0  0  0  0  0
  -10.5399   19.5055  -32.8989 H   0  0  0  0  0  0  0  0  0  0  0  0
   -9.7403   17.3997  -31.4584 H   0  0  0  0  0  0  0  0  0  0  0  0
   -6.0954   21.4466  -31.0516 H   0  0  0  0  0  0  0  0  0  0  0  0
   -1.6441   21.3483  -30.3978 H   0  0  0  0  0  0  0  0  0  0  0  0
   -0.7526   23.3501  -29.2091 H   0  0  0  0  0  0  0  0  0  0  0  0
  1  2  1  0
  2  3  2  0
  3  4  1  0
  4  5  2  0
  5  6  1  0
  6  7  2  0
  7  8  1  0
  8  9  1  0
  9 10  2  0
 10 11  1  0
 11 12  2  0
 12 13  1  0
 13 14  2  0
  8 15  2  0
 15 16  1  0
 16 17  1  0
 17 18  2  0
 18 19  1  0
 19 20  2  0
 20 21  1  0
 16 22  2  0
  5 23  1  0
 23 24  2  0
 24  2  1  0
 22  6  1  0
 14  9  1  0
 21 17  1  0
  3 25  1  0
  4 26  1  0
  7 27  1  0
 10 28  1  0
 11 29  1  0
 12 30  1  0
 13 31  1  0
 14 32  1  0
 18 33  1  0
 19 34  1  0
 20 35  1  0
 22 36  1  0
 23 37  1  0
 24 38  1  0
M  CHG  1   1  -1
M  END
>  <UniqueID>  (15) 
15

>  <SMILES>  (15) 
[O-]c1ccc(-c2cc(-c3ccccc3)nc(-c3ccco3)c2)cc1

>  <Energy>  (15) 
78.98825044523781

>  <Genealogy>  (15) 
[O-]c1ccc(-c2cc(-c3ccccc3)nc(-c3ccco3)c2)cc1 (protonated)
[O-]c1ccc(-c2cc(-c3ccccc3)nc(-c3ccco3)c2)cc1 (3D coordinates assigned)
[O-]c1ccc(-c2cc(-c3ccccc3)nc(-c3ccco3)c2)cc1 (optimized conformer: 78.98825044523781 kcal/mol)

>  <smiles>  (15) 
Oc1ccc(-c2cc(-c3ccccc3)nc(-c3ccco3)c2)cc1

>  <score_type>  (15) 
oracle

>  <origin>  (15) 
adgpu

>  <m_score__min__energy>  (15) 
-9.6500000000000004

>  <m_primary>  (15) 
energy

$$$$
15:0
     RDKit          3D

 43 46  0  0  1  0  0  0  0  0999 V2000
   -1.2110   22.7690  -27.1430 O   0  0  0  0  0  0  0  0  0  0  0  0
   -0.4480   22.6240  -28.4200 S   0  0  0  0  0  0  0  0  0  0  0  0
    0.2980   23.9050  -28.7500 O   0  0  0  0  0  0  0  0  0  0  0  0
    0.5860   21.2530  -28.4410 N   0  0  0  0  0  0  0  0  0  0  0  0
    0.2470   20.0850  -28.0100 C   0  0  0  0  0  0  0  0  0  0  0  0
   -1.0330   19.8910  -27.4880 C   0  0  0  0  0  0  0  0  0  0  0  0
   -1.4070   18.6610  -27.0270 C   0  0  0  0  0  0  0  0  0  0  0  0
   -0.5380   17.6110  -27.0720 N   0  0  0  0  0  0  0  0  0  0  0  0
    0.7120   17.8060  -27.5830 C   0  0  0  0  0  0  0  0  0  0  0  0
    1.0780   19.0210  -28.0370 N   0  0  0  0  0  0  0  0  0  0  0  0
   -1.6190   22.4310  -29.7290 C   0  0  0  0  0  0  0  0  0  0  0  0
   -1.7040   21.2580  -30.4570 C   0  0  0  0  0  0  0  0  0  0  0  0
   -2.6390   21.1670  -31.4690 C   0  0  0  0  0  0  0  0  0  0  0  0
   -2.6840   19.9890  -32.1760 F   0  0  0  0  0  0  0  0  0  0  0  0
   -3.4950   22.2210  -31.7750 C   0  0  0  0  0  0  0  0  0  0  0  0
   -4.4250   22.1320  -32.7800 O   0  0  0  0  0  0  0  0  0  0  0  0
   -5.4820   21.2600  -32.6650 C   0  0  0  0  0  0  0  0  0  0  0  0
   -5.6080   20.0700  -33.3290 C   0  0  0  0  0  0  0  0  0  0  0  0
   -6.7000   19.2320  -33.1730 C   0  0  0  0  0  0  0  0  0  0  0  0
   -7.7190   19.6000  -32.3110 C   0  0  0  0  0  0  0  0  0  0  0  0
   -9.1280   18.5730  -32.0760 Cl  0  0  0  0  0  0  0  0  0  0  0  0
   -7.6160   20.7860  -31.6340 C   0  0  0  0  0  0  0  0  0  0  0  0
   -6.5100   21.6280  -31.7970 C   0  0  0  0  0  0  0  0  0  0  0  0
   -6.4460   22.8750  -31.0580 C   0  0  0  0  0  0  0  0  0  0  0  0
   -6.4770   24.1270  -31.6740 C   0  0  0  0  0  0  0  0  0  0  0  0
   -6.4010   25.0550  -30.7060 N   0  0  0  0  0  0  0  0  0  0  0  0
   -6.3230   24.4550  -29.5130 N   0  0  0  0  0  0  0  0  0  0  0  0
   -6.3490   23.1050  -29.7020 C   0  0  0  0  0  0  0  0  0  0  0  0
   -3.4150   23.3920  -31.0520 C   0  0  0  0  0  0  0  0  0  0  0  0
   -2.4710   23.4980  -30.0250 C   0  0  0  0  0  0  0  0  0  0  0  0
   -2.3680   24.6360  -29.2970 F   0  0  0  0  0  0  0  0  0  0  0  0
   -1.7422   20.7309  -27.4478 H   0  0  0  0  0  0  0  0  0  0  0  0
   -2.4171   18.5162  -26.6162 H   0  0  0  0  0  0  0  0  0  0  0  0
   -0.8320   16.6600  -26.7140 H   0  0  0  0  0  0  0  0  0  0  0  0
    1.4237   16.9683  -27.6246 H   0  0  0  0  0  0  0  0  0  0  0  0
   -1.0378   20.4117  -30.2335 H   0  0  0  0  0  0  0  0  0  0  0  0
   -4.8061   19.7652  -34.0175 H   0  0  0  0  0  0  0  0  0  0  0  0
   -6.7569   18.2841  -33.7282 H   0  0  0  0  0  0  0  0  0  0  0  0
   -8.4212   21.0837  -30.9462 H   0  0  0  0  0  0  0  0  0  0  0  0
   -6.5503   24.3187  -32.7547 H   0  0  0  0  0  0  0  0  0  0  0  0
   -6.2540   24.9490  -28.5840 H   0  0  0  0  0  0  0  0  0  0  0  0
   -6.3012   22.3380  -28.9150 H   0  0  0  0  0  0  0  0  0  0  0  0
   -4.0858   24.2335  -31.2800 H   0  0  0  0  0  0  0  0  0  0  0  0
  1  2  2  0
  2  3  2  0
  2  4  1  0
  4  5  2  0
  5  6  1  0
  6  7  2  0
  7  8  1  0
  8  9  1  0
  9 10  2  0
  2 11  1  0
 11 12  2  0
 12 13  1  0
 13 14  1  0
 13 15  2  0
 15 16  1  0
 16 17  1  0
 17 18  2  0
 18 19  1  0
 19 20  2  0
 20 21  1  0
 20 22  1  0
 22 23  2  0
 23 24  1  0
 24 25  1  0
 25 26  2  0
 26 27  1  0
 27 28  1  0
 15 29  1  0
 29 30  2  0
 30 31  1  0
 10  5  1  0
 30 11  1  0
 23 17  1  0
 28 24  2  0
  6 32  1  0
  7 33  1  0
  8 34  1  0
  9 35  1  0
 12 36  1  0
 18 37  1  0
 19 38  1  0
 22 39  1  0
 25 40  1  0
 27 41  1  0
 28 42  1  0
 29 43  1  0
M  END
>  <smiles>  (16) 
O=S(=O)(N=c1cc[nH]cn1)c1cc(F)c(Oc2ccc(Cl)cc2-c2cn[nH]c2)cc1F

>  <score_type>  (16) 
oracle

>  <origin>  (16) 
adgpu

>  <m_score__min__energy>  (16) 
-9.25

>  <m_primary>  (16) 
energy

$$$$
16:0
     RDKit          3D

 39 42  0  0  0  0  0  0  0  0999 V2000
   -8.3670   19.3790  -30.8710 O   0  0  0  0  0  0  0  0  0  0  0  0
   -8.0460   20.2660  -32.0410 S   0  0  0  0  0  0  0  0  0  0  0  0
   -9.2750   21.0470  -32.4120 O   0  0  0  0  0  0  0  0  0  0  0  0
   -7.5710   19.2820  -33.3890 N   0  0  0  0  0  0  0  0  0  0  0  0
   -6.8120   18.2320  -33.2960 C   0  0  0  0  0  0  0  0  0  0  0  0
   -6.4690   17.4870  -34.3660 N   0  0  0  0  0  0  0  0  0  0  0  0
   -5.6750   16.4360  -34.0310 C   0  0  0  0  0  0  0  0  0  0  0  0
   -5.3780   16.3400  -32.6750 C   0  0  0  0  0  0  0  0  0  0  0  0
   -6.1390   17.6140  -31.8790 S   0  0  0  0  0  0  0  0  0  0  0  0
   -6.7290   21.3470  -31.5920 C   0  0  0  0  0  0  0  0  0  0  0  0
   -5.4170   20.8710  -31.5760 C   0  0  0  0  0  0  0  0  0  0  0  0
   -4.3600   21.7160  -31.2360 C   0  0  0  0  0  0  0  0  0  0  0  0
   -4.5960   23.0550  -30.8460 C   0  0  0  0  0  0  0  0  0  0  0  0
   -3.5670   23.9690  -30.4480 C   0  0  0  0  0  0  0  0  0  0  0  0
   -2.3560   23.6280  -30.0930 N   0  0  0  0  0  0  0  0  0  0  0  0
   -1.8210   22.3460  -29.7370 C   0  0  0  0  0  0  0  0  0  0  0  0
   -2.2000   21.7550  -28.5250 C   0  0  0  0  0  0  0  0  0  0  0  0
   -1.7340   20.4810  -28.1860 C   0  0  0  0  0  0  0  0  0  0  0  0
   -0.9080   19.7790  -29.0710 C   0  0  0  0  0  0  0  0  0  0  0  0
   -0.4590   18.5430  -28.7430 F   0  0  0  0  0  0  0  0  0  0  0  0
   -0.5580   20.3470  -30.3000 C   0  0  0  0  0  0  0  0  0  0  0  0
   -1.0230   21.6210  -30.6410 C   0  0  0  0  0  0  0  0  0  0  0  0
   -3.8640   25.2950  -30.3840 N   0  0  0  0  0  0  0  0  0  0  0  0
   -5.1140   25.7860  -30.5690 C   0  0  0  0  0  0  0  0  0  0  0  0
   -6.1720   24.9210  -30.8160 C   0  0  0  0  0  0  0  0  0  0  0  0
   -5.9220   23.5550  -30.9720 C   0  0  0  0  0  0  0  0  0  0  0  0
   -6.9780   22.6910  -31.3060 C   0  0  0  0  0  0  0  0  0  0  0  0
   -6.7770   17.6890  -35.3450 H   0  0  0  0  0  0  0  0  0  0  0  0
   -5.2969   15.7178  -34.7734 H   0  0  0  0  0  0  0  0  0  0  0  0
   -4.7541   15.5659  -32.2044 H   0  0  0  0  0  0  0  0  0  0  0  0
   -5.2146   19.8209  -31.8336 H   0  0  0  0  0  0  0  0  0  0  0  0
   -3.3285   21.3355  -31.2718 H   0  0  0  0  0  0  0  0  0  0  0  0
   -2.8669   22.2953  -27.8371 H   0  0  0  0  0  0  0  0  0  0  0  0
   -2.0168   20.0304  -27.2232 H   0  0  0  0  0  0  0  0  0  0  0  0
    0.0838   19.7910  -30.9993 H   0  0  0  0  0  0  0  0  0  0  0  0
   -0.7645   22.0569  -31.6173 H   0  0  0  0  0  0  0  0  0  0  0  0
   -5.2904   26.8708  -30.5234 H   0  0  0  0  0  0  0  0  0  0  0  0
   -7.1991   25.3082  -30.8883 H   0  0  0  0  0  0  0  0  0  0  0  0
   -8.0079   23.0756  -31.3425 H   0  0  0  0  0  0  0  0  0  0  0  0
  1  2  2  0
  2  3  2  0
  2  4  1  0
  4  5  2  3
  5  6  1  0
  6  7  1  0
  7  8  2  0
  8  9  1  0
  2 10  1  0
 10 11  2  0
 11 12  1  0
 12 13  2  0
 13 14  1  0
 14 15  2  3
 15 16  1  0
 16 17  2  0
 17 18  1  0
 18 19  2  0
 19 20  1  0
 19 21  1  0
 21 22  2  0
 14 23  1  0
 23 24  1  0
 24 25  2  0
 25 26  1  0
 26 27  2  0
  9  5  1  0
 27 10  1  0
 26 13  1  0
 22 16  1  0
  6 28  1  0
  7 29  1  0
  8 30  1  0
 11 31  1  0
 12 32  1  0
 17 33  1  0
 18 34  1  0
 21 35  1  0
 22 36  1  0
 24 37  1  0
 25 38  1  0
 27 39  1  0
M  CHG  1  23  -1
M  END
>  <UniqueID>  (17) 
16

>  <SMILES>  (17) 
O=S(=O)(N=c1[nH]ccs1)c1ccc2c(=Nc3ccc(F)cc3)[n-]ccc2c1

>  <Energy>  (17) 
101.08737780053465

>  <Genealogy>  (17) 
O=S(=O)(N=c1[nH]ccs1)c1ccc2c(=Nc3ccc(F)cc3)[n-]ccc2c1 (protonated)
O=S(=O)(N=c1[nH]ccs1)c1ccc2c(=Nc3ccc(F)cc3)[n-]ccc2c1 (3D coordinates assigned)
O=S(=O)(N=c1[nH]ccs1)c1ccc2c(=Nc3ccc(F)cc3)[n-]ccc2c1 (optimized conformer: 101.08737780053465 kcal/mol)

>  <smiles>  (17) 
O=S(=O)(N=c1[nH]ccs1)c1ccc2c(=Nc3ccc(F)cc3)[nH]ccc2c1

>  <score_type>  (17) 
oracle

>  <origin>  (17) 
adgpu

>  <m_score__min__energy>  (17) 
-10.630000000000001

>  <m_primary>  (17) 
energy

$$$$
17:0
     RDKit          3D

 34 36  0  0  0  0  0  0  0  0999 V2000
   -9.3920   19.0120  -32.3390 C   0  0  0  0  0  0  0  0  0  0  0  0
   -9.1670   20.3990  -32.5720 O   0  0  0  0  0  0  0  0  0  0  0  0
   -7.9750   21.0710  -32.2590 C   0  0  0  0  0  0  0  0  0  0  0  0
   -6.7070   20.5500  -32.5830 C   0  0  0  0  0  0  0  0  0  0  0  0
   -5.5460   21.2550  -32.2520 C   0  0  0  0  0  0  0  0  0  0  0  0
   -5.6390   22.4880  -31.5920 C   0  0  0  0  0  0  0  0  0  0  0  0
   -4.5010   23.2200  -31.2460 C   0  0  0  0  0  0  0  0  0  0  0  0
   -4.6420   24.4400  -30.5690 C   0  0  0  0  0  0  0  0  0  0  0  0
   -3.5050   25.2360  -30.1980 N   0  0  0  0  0  0  0  0  0  0  0  0
   -2.4590   24.8480  -29.2970 C   0  0  0  0  0  0  0  0  0  0  0  0
   -1.5960   25.7060  -28.9720 O   0  0  0  0  0  0  0  0  0  0  0  0
   -2.3960   23.4920  -28.7020 C   0  0  0  0  0  0  0  0  0  0  0  0
   -3.5210   22.9560  -28.0490 C   0  0  0  0  0  0  0  0  0  0  0  0
   -3.4680   21.6780  -27.4830 C   0  0  0  0  0  0  0  0  0  0  0  0
   -2.2970   20.9190  -27.5710 C   0  0  0  0  0  0  0  0  0  0  0  0
   -2.2330   19.3180  -26.8580 Cl  0  0  0  0  0  0  0  0  0  0  0  0
   -1.1800   21.4370  -28.2320 C   0  0  0  0  0  0  0  0  0  0  0  0
   -1.2280   22.7140  -28.8000 C   0  0  0  0  0  0  0  0  0  0  0  0
   -5.9380   24.9080  -30.2990 C   0  0  0  0  0  0  0  0  0  0  0  0
   -6.1030   26.0110  -29.7170 O   0  0  0  0  0  0  0  0  0  0  0  0
   -7.0020   24.1890  -30.6470 O   0  0  0  0  0  0  0  0  0  0  0  0
   -6.9050   23.0160  -31.2680 C   0  0  0  0  0  0  0  0  0  0  0  0
   -8.0630   22.3050  -31.6020 C   0  0  0  0  0  0  0  0  0  0  0  0
   -9.4228   18.8224  -31.2559 H   0  0  0  0  0  0  0  0  0  0  0  0
  -10.3501   18.7150  -32.7906 H   0  0  0  0  0  0  0  0  0  0  0  0
   -8.5770   18.4274  -32.7906 H   0  0  0  0  0  0  0  0  0  0  0  0
   -6.6298   19.5821  -33.0999 H   0  0  0  0  0  0  0  0  0  0  0  0
   -4.5595   20.8420  -32.5095 H   0  0  0  0  0  0  0  0  0  0  0  0
   -3.5005   22.8420  -31.5029 H   0  0  0  0  0  0  0  0  0  0  0  0
   -4.4475   23.5453  -27.9832 H   0  0  0  0  0  0  0  0  0  0  0  0
   -4.3495   21.2691  -26.9675 H   0  0  0  0  0  0  0  0  0  0  0  0
   -0.2601   20.8384  -28.3058 H   0  0  0  0  0  0  0  0  0  0  0  0
   -0.3479   23.1122  -29.3261 H   0  0  0  0  0  0  0  0  0  0  0  0
   -9.0499   22.7183  -31.3467 H   0  0  0  0  0  0  0  0  0  0  0  0
  1  2  1  0
  2  3  1  0
  3  4  2  0
  4  5  1  0
  5  6  2  0
  6  7  1  0
  7  8  2  0
  8  9  1  0
  9 10  1  0
 10 11  2  0
 10 12  1  0
 12 13  2  0
 13 14  1  0
 14 15  2  0
 15 16  1  0
 15 17  1  0
 17 18  2  0
  8 19  1  0
 19 20  2  0
 19 21  1  0
 21 22  1  0
 22 23  2  0
 23  3  1  0
 22  6  1  0
 18 12  1  0
  1 24  1  0
  1 25  1  0
  1 26  1  0
  4 27  1  0
  5 28  1  0
  7 29  1  0
 13 30  1  0
 14 31  1  0
 17 32  1  0
 18 33  1  0
 23 34  1  0
M  CHG  1   9  -1
M  END
>  <UniqueID>  (18) 
17

>  <SMILES>  (18) 
COc1ccc2cc([N-]C(=O)c3ccc(Cl)cc3)c(=O)oc2c1

>  <Energy>  (18) 
47.147004627114185

>  <Genealogy>  (18) 
COc1ccc2cc([N-]C(=O)c3ccc(Cl)cc3)c(=O)oc2c1 (protonated)
COc1ccc2cc([N-]C(=O)c3ccc(Cl)cc3)c(=O)oc2c1 (3D coordinates assigned)
COc1ccc2cc([N-]C(=O)c3ccc(Cl)cc3)c(=O)oc2c1 (optimized conformer: 47.147004627114185 kcal/mol)

>  <smiles>  (18) 
COc1ccc2cc(NC(=O)c3ccc(Cl)cc3)c(=O)oc2c1

>  <score_type>  (18) 
oracle

>  <origin>  (18) 
adgpu

>  <m_score__min__energy>  (18) 
-9.9499999999999993

>  <m_primary>  (18) 
energy

$$$$
18:0
     RDKit          3D

 38 41  0  0  0  0  0  0  0  0999 V2000
   -3.4890   25.3010  -30.4770 O   0  0  0  0  0  0  0  0  0  0  0  0
   -4.7190   24.6630  -30.3580 C   0  0  0  0  0  0  0  0  0  0  0  0
   -5.8700   25.4400  -30.1850 C   0  0  0  0  0  0  0  0  0  0  0  0
   -7.1180   24.8300  -30.0510 C   0  0  0  0  0  0  0  0  0  0  0  0
   -7.2210   23.4390  -30.0930 C   0  0  0  0  0  0  0  0  0  0  0  0
   -6.0770   22.6560  -30.2680 C   0  0  0  0  0  0  0  0  0  0  0  0
   -4.8110   23.2550  -30.3930 C   0  0  0  0  0  0  0  0  0  0  0  0
   -3.5970   22.4290  -30.5950 C   0  0  0  0  0  0  0  0  0  0  0  0
   -2.7710   22.0710  -29.5910 N   0  0  0  0  0  0  0  0  0  0  0  0
   -1.8590   21.2770  -30.1920 C   0  0  0  0  0  0  0  0  0  0  0  0
   -0.7280   20.6440  -29.4840 C   0  0  0  0  0  0  0  0  0  0  0  0
   -0.0500   21.3280  -28.4600 C   0  0  0  0  0  0  0  0  0  0  0  0
    1.0210   20.7210  -27.7940 C   0  0  0  0  0  0  0  0  0  0  0  0
    1.4220   19.4290  -28.1440 C   0  0  0  0  0  0  0  0  0  0  0  0
    0.7540   18.7420  -29.1610 C   0  0  0  0  0  0  0  0  0  0  0  0
   -0.3170   19.3440  -29.8300 C   0  0  0  0  0  0  0  0  0  0  0  0
   -2.0880   21.1270  -31.4770 O   0  0  0  0  0  0  0  0  0  0  0  0
   -3.1560   21.8270  -31.7620 C   0  0  0  0  0  0  0  0  0  0  0  0
   -3.8860   21.8940  -33.3990 S   0  0  0  0  0  0  0  0  0  0  0  0
   -5.3100   20.9240  -32.9020 C   0  0  0  0  0  0  0  0  0  0  0  0
   -5.1390   19.6190  -32.4280 C   0  0  0  0  0  0  0  0  0  0  0  0
   -6.2590   18.8780  -32.0480 C   0  0  0  0  0  0  0  0  0  0  0  0
   -7.5320   19.4460  -32.1420 C   0  0  0  0  0  0  0  0  0  0  0  0
   -8.9500   18.5270  -31.6710 Cl  0  0  0  0  0  0  0  0  0  0  0  0
   -7.6620   20.7540  -32.6150 C   0  0  0  0  0  0  0  0  0  0  0  0
   -6.5580   21.4590  -32.9800 N   0  0  0  0  0  0  0  0  0  0  0  0
   -5.7906   26.5367  -30.1545 H   0  0  0  0  0  0  0  0  0  0  0  0
   -8.0195   25.4450  -29.9124 H   0  0  0  0  0  0  0  0  0  0  0  0
   -8.2047   22.9580  -29.9881 H   0  0  0  0  0  0  0  0  0  0  0  0
   -6.1677   21.5605  -30.3084 H   0  0  0  0  0  0  0  0  0  0  0  0
   -0.3626   22.3450  -28.1808 H   0  0  0  0  0  0  0  0  0  0  0  0
    1.5478   21.2618  -26.9940 H   0  0  0  0  0  0  0  0  0  0  0  0
    2.2633   18.9529  -27.6191 H   0  0  0  0  0  0  0  0  0  0  0  0
    1.0711   17.7253  -29.4362 H   0  0  0  0  0  0  0  0  0  0  0  0
   -0.8397   18.7987  -30.6296 H   0  0  0  0  0  0  0  0  0  0  0  0
   -4.1324   19.1815  -32.3555 H   0  0  0  0  0  0  0  0  0  0  0  0
   -6.1398   17.8498  -31.6756 H   0  0  0  0  0  0  0  0  0  0  0  0
   -8.6582   21.2140  -32.6923 H   0  0  0  0  0  0  0  0  0  0  0  0
  1  2  1  0
  2  3  2  0
  3  4  1  0
  4  5  2  0
  5  6  1  0
  6  7  2  0
  7  8  1  0
  8  9  1  0
  9 10  2  0
 10 11  1  0
 11 12  2  0
 12 13  1  0
 13 14  2  0
 14 15  1  0
 15 16  2  0
 10 17  1  0
 17 18  1  0
 18 19  1  0
 19 20  1  0
 20 21  2  0
 21 22  1  0
 22 23  2  0
 23 24  1  0
 23 25  1  0
 25 26  2  0
  7  2  1  0
 18  8  2  0
 26 20  1  0
 16 11  1  0
  3 27  1  0
  4 28  1  0
  5 29  1  0
  6 30  1  0
 12 31  1  0
 13 32  1  0
 14 33  1  0
 15 34  1  0
 16 35  1  0
 21 36  1  0
 22 37  1  0
 25 38  1  0
M  CHG  1   1  -1
M  END
>  <UniqueID>  (19) 
18

>  <SMILES>  (19) 
[O-]c1ccccc1-c1nc(-c2ccccc2)oc1Sc1ccc(Cl)cn1

>  <Energy>  (19) 
75.86353534616552

>  <Genealogy>  (19) 
[O-]c1ccccc1-c1nc(-c2ccccc2)oc1Sc1ccc(Cl)cn1 (protonated)
[O-]c1ccccc1-c1nc(-c2ccccc2)oc1Sc1ccc(Cl)cn1 (3D coordinates assigned)
[O-]c1ccccc1-c1nc(-c2ccccc2)oc1Sc1ccc(Cl)cn1 (optimized conformer: 75.86353534616552 kcal/mol)

>  <smiles>  (19) 
Oc1ccccc1-c1nc(-c2ccccc2)oc1Sc1ccc(Cl)cn1

>  <score_type>  (19) 
oracle

>  <origin>  (19) 
adgpu

>  <m_score__min__energy>  (19) 
-11.56

>  <m_primary>  (19) 
energy

$$$$
19:0
     RDKit          3D

 31 32  0  0  0  0  0  0  0  0999 V2000
   -6.4650   16.7570  -34.2200 C   0  0  0  0  0  0  0  0  0  0  0  0
   -6.4180   18.1600  -34.4620 O   0  0  0  0  0  0  0  0  0  0  0  0
   -5.7920   19.0930  -33.6200 C   0  0  0  0  0  0  0  0  0  0  0  0
   -4.3970   19.1110  -33.4380 C   0  0  0  0  0  0  0  0  0  0  0  0
   -3.8030   20.0510  -32.5940 C   0  0  0  0  0  0  0  0  0  0  0  0
   -4.5870   20.9950  -31.9120 C   0  0  0  0  0  0  0  0  0  0  0  0
   -3.9540   21.9950  -31.0150 C   0  0  0  0  0  0  0  0  0  0  0  0
   -3.1060   21.5830  -29.9710 C   0  0  0  0  0  0  0  0  0  0  0  0
   -2.4990   22.5260  -29.1270 C   0  0  0  0  0  0  0  0  0  0  0  0
   -1.6240   22.0740  -27.9950 C   0  0  0  0  0  0  0  0  0  0  0  0
   -2.7690   23.8900  -29.3090 C   0  0  0  0  0  0  0  0  0  0  0  0
   -3.6100   24.3090  -30.3420 C   0  0  0  0  0  0  0  0  0  0  0  0
   -3.8680   25.6620  -30.5200 O   0  0  0  0  0  0  0  0  0  0  0  0
   -4.1970   23.3690  -31.1930 C   0  0  0  0  0  0  0  0  0  0  0  0
   -5.9800   20.9780  -32.0930 C   0  0  0  0  0  0  0  0  0  0  0  0
   -6.5850   20.0370  -32.9410 C   0  0  0  0  0  0  0  0  0  0  0  0
   -8.0070   20.0500  -33.1060 N   0  0  0  0  0  0  0  0  0  0  0  0
   -6.4712   16.5720  -33.1357 H   0  0  0  0  0  0  0  0  0  0  0  0
   -7.3777   16.3379  -34.6687 H   0  0  0  0  0  0  0  0  0  0  0  0
   -5.5824   16.2777  -34.6687 H   0  0  0  0  0  0  0  0  0  0  0  0
   -3.7689   18.3780  -33.9654 H   0  0  0  0  0  0  0  0  0  0  0  0
   -2.7109   20.0520  -32.4622 H   0  0  0  0  0  0  0  0  0  0  0  0
   -2.9167   20.5108  -29.8145 H   0  0  0  0  0  0  0  0  0  0  0  0
   -2.1053   22.3226  -27.0377 H   0  0  0  0  0  0  0  0  0  0  0  0
   -1.4748   20.9860  -28.0587 H   0  0  0  0  0  0  0  0  0  0  0  0
   -0.6504   22.5820  -28.0587 H   0  0  0  0  0  0  0  0  0  0  0  0
   -2.3166   24.6327  -28.6354 H   0  0  0  0  0  0  0  0  0  0  0  0
   -4.8541   23.7060  -32.0083 H   0  0  0  0  0  0  0  0  0  0  0  0
   -6.6050   21.7119  -31.5631 H   0  0  0  0  0  0  0  0  0  0  0  0
   -8.4780   19.4600  -33.8290 H   0  0  0  0  0  0  0  0  0  0  0  0
   -8.6090   20.6530  -32.5020 H   0  0  0  0  0  0  0  0  0  0  0  0
  1  2  1  0
  2  3  1  0
  3  4  2  0
  4  5  1  0
  5  6  2  0
  6  7  1  0
  7  8  2  0
  8  9  1  0
  9 10  1  0
  9 11  2  0
 11 12  1  0
 12 13  1  0
 12 14  2  0
  6 15  1  0
 15 16  2  0
 16 17  1  0
 16  3  1  0
 14  7  1  0
  1 18  1  0
  1 19  1  0
  1 20  1  0
  4 21  1  0
  5 22  1  0
  8 23  1  0
 10 24  1  0
 10 25  1  0
 10 26  1  0
 11 27  1  0
 14 28  1  0
 15 29  1  0
 17 30  1  0
 17 31  1  0
M  CHG  1  13  -1
M  END
>  <UniqueID>  (20) 
19

>  <SMILES>  (20) 
COc1ccc(-c2cc(C)cc([O-])c2)cc1N

>  <Energy>  (20) 
35.1244220035015

>  <Genealogy>  (20) 
COc1ccc(-c2cc(C)cc([O-])c2)cc1N (protonated)
COc1ccc(-c2cc(C)cc([O-])c2)cc1N (3D coordinates assigned)
COc1ccc(-c2cc(C)cc([O-])c2)cc1N (optimized conformer: 35.1244220035015 kcal/mol)

>  <smiles>  (20) 
COc1ccc(-c2cc(C)cc(O)c2)cc1N

>  <score_type>  (20) 
oracle

>  <origin>  (20) 
adgpu

>  <m_score__min__energy>  (20) 
-8.7200000000000006

>  <m_primary>  (20) 
energy

$$$$
20:0
     RDKit          3D

 49 52  0  0  0  0  0  0  0  0999 V2000
   -0.8853   18.9440  -34.7376 H   0  0  0  0  0  0  0  0  0  0  0  0
   -1.4510   19.6310  -34.0910 C   0  0  0  0  0  0  0  0  0  0  0  0
   -0.7920   20.6720  -33.4340 C   0  0  0  0  0  0  0  0  0  0  0  0
    0.2922   20.8047  -33.5640 H   0  0  0  0  0  0  0  0  0  0  0  0
   -1.5090   21.5460  -32.6110 C   0  0  0  0  0  0  0  0  0  0  0  0
   -0.9850   22.3641  -32.0952 H   0  0  0  0  0  0  0  0  0  0  0  0
   -2.8970   21.3860  -32.4380 C   0  0  0  0  0  0  0  0  0  0  0  0
   -3.6670   22.3120  -31.5700 C   0  0  0  0  0  0  0  0  0  0  0  0
   -3.0530   22.9200  -30.4630 C   0  0  0  0  0  0  0  0  0  0  0  0
   -1.9929   22.7228  -30.2455 H   0  0  0  0  0  0  0  0  0  0  0  0
   -3.7900   23.7780  -29.6350 C   0  0  0  0  0  0  0  0  0  0  0  0
   -3.1520   24.4260  -28.4610 C   0  0  0  0  0  0  0  0  0  0  0  0
   -1.8400   24.9270  -28.5460 C   0  0  0  0  0  0  0  0  0  0  0  0
   -1.2824   24.8379  -29.4900 H   0  0  0  0  0  0  0  0  0  0  0  0
   -1.2390   25.5370  -27.4410 C   0  0  0  0  0  0  0  0  0  0  0  0
   -0.2088   25.9150  -27.5171 H   0  0  0  0  0  0  0  0  0  0  0  0
   -1.9440   25.6690  -26.2360 C   0  0  0  0  0  0  0  0  0  0  0  0
   -1.2840   26.2890  -25.0400 C   0  0  0  0  0  0  0  0  0  0  0  0
   -1.7253   25.8744  -24.1216 H   0  0  0  0  0  0  0  0  0  0  0  0
   -0.2064   26.0690  -25.0607 H   0  0  0  0  0  0  0  0  0  0  0  0
   -1.4363   27.3782  -25.0607 H   0  0  0  0  0  0  0  0  0  0  0  0
   -3.2450   25.1560  -26.1390 C   0  0  0  0  0  0  0  0  0  0  0  0
   -3.7945   25.2333  -25.1892 H   0  0  0  0  0  0  0  0  0  0  0  0
   -3.8470   24.5470  -27.2430 C   0  0  0  0  0  0  0  0  0  0  0  0
   -4.8728   24.1588  -27.1596 H   0  0  0  0  0  0  0  0  0  0  0  0
   -5.1420   24.0030  -29.9280 C   0  0  0  0  0  0  0  0  0  0  0  0
   -5.7383   24.6698  -29.2879 H   0  0  0  0  0  0  0  0  0  0  0  0
   -5.7350   23.3820  -31.0320 C   0  0  0  0  0  0  0  0  0  0  0  0
   -7.0010   23.6000  -31.2630 N   0  0  0  0  0  0  0  0  0  0  0  0
   -7.8130   23.0270  -32.3370 C   0  0  0  0  0  0  0  0  0  0  0  0
   -8.8401   23.4126  -32.2569 H   0  0  0  0  0  0  0  0  0  0  0  0
   -7.3700   23.3117  -33.3028 H   0  0  0  0  0  0  0  0  0  0  0  0
   -7.8420   21.5210  -32.2450 C   0  0  0  0  0  0  0  0  0  0  0  0
   -8.6990   20.8870  -31.3280 C   0  0  0  0  0  0  0  0  0  0  0  0
   -9.3523   21.4902  -30.6804 H   0  0  0  0  0  0  0  0  0  0  0  0
   -8.7230   19.4910  -31.2370 C   0  0  0  0  0  0  0  0  0  0  0  0
   -9.3918   18.9991  -30.5154 H   0  0  0  0  0  0  0  0  0  0  0  0
   -7.8990   18.7210  -32.0610 C   0  0  0  0  0  0  0  0  0  0  0  0
   -7.9157   17.6239  -31.9836 H   0  0  0  0  0  0  0  0  0  0  0  0
   -7.0530   19.3430  -32.9840 C   0  0  0  0  0  0  0  0  0  0  0  0
   -6.4073   18.7348  -33.6345 H   0  0  0  0  0  0  0  0  0  0  0  0
   -7.0270   20.7380  -33.0810 C   0  0  0  0  0  0  0  0  0  0  0  0
   -6.3665   21.2242  -33.8140 H   0  0  0  0  0  0  0  0  0  0  0  0
   -4.9820   22.5650  -31.8330 N   0  0  0  0  0  0  0  0  0  0  0  0
   -5.4020   22.1370  -32.6850 H   0  0  0  0  0  0  0  0  0  0  0  0
   -3.5490   20.3330  -33.1060 C   0  0  0  0  0  0  0  0  0  0  0  0
   -4.6331   20.1948  -32.9808 H   0  0  0  0  0  0  0  0  0  0  0  0
   -2.8280   19.4610  -33.9280 C   0  0  0  0  0  0  0  0  0  0  0  0
   -3.3456   18.6406  -34.4466 H   0  0  0  0  0  0  0  0  0  0  0  0
  1  2  1  0
  2  3  2  0
  3  4  1  0
  3  5  1  0
  5  6  1  0
  5  7  2  0
  7  8  1  0
  8  9  2  0
  9 10  1  0
  9 11  1  0
 11 12  1  0
 12 13  2  0
 13 14  1  0
 13 15  1  0
 15 16  1  0
 15 17  2  0
 17 18  1  0
 18 19  1  0
 18 20  1  0
 18 21  1  0
 17 22  1  0
 22 23  1  0
 22 24  2  0
 24 25  1  0
 11 26  2  0
 26 27  1  0
 26 28  1  0
 28 29  2  0
 29 30  1  0
 30 31  1  0
 30 32  1  0
 30 33  1  0
 33 34  2  0
 34 35  1  0
 34 36  1  0
 36 37  1  0
 36 38  2  0
 38 39  1  0
 38 40  1  0
 40 41  1  0
 40 42  2  0
 42 43  1  0
 28 44  1  0
 44 45  1  0
  7 46  1  0
 46 47  1  0
 46 48  2  0
 48 49  1  0
 48  2  1  0
 44  8  1  0
 24 12  1  0
 42 33  1  0
M  END
>  <UniqueID>  (21) 
20

>  <SMILES>  (21) 
Cc1ccc(-c2cc(-c3ccccc3)[nH]/c(=N\Cc3ccccc3)c2)cc1

>  <Energy>  (21) 
63.66245034981436

>  <Genealogy>  (21) 
Cc1ccc(-c2cc(-c3ccccc3)[nH]/c(=N\Cc3ccccc3)c2)cc1 (cis-trans isomerization)
Cc1ccc(-c2cc(-c3ccccc3)[nH]/c(=N\Cc3ccccc3)c2)cc1 (3D coordinates assigned)
Cc1ccc(-c2cc(-c3ccccc3)[nH]/c(=N\Cc3ccccc3)c2)cc1 (optimized conformer: 63.66245034981436 kcal/mol)

>  <smiles>  (21) 
Cc1ccc(-c2cc(-c3ccccc3)[nH]c(=NCc3ccccc3)c2)cc1

>  <score_type>  (21) 
oracle

>  <origin>  (21) 
adgpu

>  <m_score__min__energy>  (21) 
-9.3100000000000005

>  <m_primary>  (21) 
energy

$$$$
21:0
     RDKit          3D

 34 35  0  0  0  0  0  0  0  0999 V2000
   -3.1870   20.9720  -33.1850 C   0  0  0  0  0  0  0  0  0  0  0  0
   -4.3080   19.9860  -33.3190 C   0  0  0  0  0  0  0  0  0  0  0  0
   -4.1580   18.8510  -34.1310 C   0  0  0  0  0  0  0  0  0  0  0  0
   -5.2190   17.9580  -34.2960 C   0  0  0  0  0  0  0  0  0  0  0  0
   -6.4420   18.1970  -33.6650 C   0  0  0  0  0  0  0  0  0  0  0  0
   -6.6100   19.3350  -32.8620 C   0  0  0  0  0  0  0  0  0  0  0  0
   -8.1640   19.6770  -32.1100 S   0  0  0  0  0  0  0  0  0  0  0  0
   -9.1800   20.0440  -33.1550 O   0  0  0  0  0  0  0  0  0  0  0  0
   -8.6440   18.4480  -31.3890 O   0  0  0  0  0  0  0  0  0  0  0  0
   -7.9810   20.9720  -30.9680 N   0  0  0  0  0  0  0  0  0  0  0  0
   -8.7430   22.1390  -31.4090 C   0  0  0  0  0  0  0  0  0  0  0  0
   -7.8600   23.3920  -31.3690 C   0  0  0  0  0  0  0  0  0  0  0  0
   -6.5660   23.2430  -32.1860 C   0  0  0  0  0  0  0  0  0  0  0  0
   -5.3850   23.8660  -31.5060 C   0  0  0  0  0  0  0  0  0  0  0  0
   -5.2870   25.1680  -31.0750 C   0  0  0  0  0  0  0  0  0  0  0  0
   -4.0900   25.3430  -30.4910 N   0  0  0  0  0  0  0  0  0  0  0  0
   -3.4960   24.1340  -30.5880 C   0  0  0  0  0  0  0  0  0  0  0  0
   -4.2560   23.2030  -31.2010 N   0  0  0  0  0  0  0  0  0  0  0  0
   -5.5430   20.2290  -32.6960 C   0  0  0  0  0  0  0  0  0  0  0  0
   -2.9824   21.1520  -32.1193 H   0  0  0  0  0  0  0  0  0  0  0  0
   -2.2848   20.5694  -33.6687 H   0  0  0  0  0  0  0  0  0  0  0  0
   -3.4712   21.9182  -33.6687 H   0  0  0  0  0  0  0  0  0  0  0  0
   -3.2007   18.6641  -34.6396 H   0  0  0  0  0  0  0  0  0  0  0  0
   -5.0912   17.0643  -34.9244 H   0  0  0  0  0  0  0  0  0  0  0  0
   -7.2753   17.4913  -33.7980 H   0  0  0  0  0  0  0  0  0  0  0  0
   -9.0957   21.9754  -32.4380 H   0  0  0  0  0  0  0  0  0  0  0  0
   -9.6018   22.2827  -30.7369 H   0  0  0  0  0  0  0  0  0  0  0  0
   -8.4343   24.2383  -31.7738 H   0  0  0  0  0  0  0  0  0  0  0  0
   -7.5696   23.5558  -30.3208 H   0  0  0  0  0  0  0  0  0  0  0  0
   -6.3635   22.1720  -32.3345 H   0  0  0  0  0  0  0  0  0  0  0  0
   -6.7133   23.7625  -33.1443 H   0  0  0  0  0  0  0  0  0  0  0  0
   -6.0621   25.9401  -31.1897 H   0  0  0  0  0  0  0  0  0  0  0  0
   -2.4865   23.9276  -30.2030 H   0  0  0  0  0  0  0  0  0  0  0  0
   -5.6739   21.1266  -32.0738 H   0  0  0  0  0  0  0  0  0  0  0  0
  1  2  1  0
  2  3  2  0
  3  4  1  0
  4  5  2  0
  5  6  1  0
  6  7  1  0
  7  8  2  0
  7  9  2  0
  7 10  1  0
 10 11  1  0
 11 12  1  0
 12 13  1  0
 13 14  1  0
 14 15  2  0
 15 16  1  0
 16 17  1  0
 17 18  2  0
  6 19  2  0
 19  2  1  0
 18 14  1  0
  1 20  1  0
  1 21  1  0
  1 22  1  0
  3 23  1  0
  4 24  1  0
  5 25  1  0
 11 26  1  0
 11 27  1  0
 12 28  1  0
 12 29  1  0
 13 30  1  0
 13 31  1  0
 15 32  1  0
 17 33  1  0
 19 34  1  0
M  CHG  2  10  -1  16  -1
M  END
>  <UniqueID>  (22) 
21

>  <SMILES>  (22) 
Cc1cccc(S(=O)(=O)[N-]CCCc2c[n-]cn2)c1

>  <Energy>  (22) 
52.60558140650078

>  <Genealogy>  (22) 
Cc1cccc(S(=O)(=O)[N-]CCCc2c[n-]cn2)c1 (protonated)
Cc1cccc(S(=O)(=O)[N-]CCCc2c[n-]cn2)c1 (3D coordinates assigned)
Cc1cccc(S(=O)(=O)[N-]CCCc2c[n-]cn2)c1 (optimized conformer: 52.60558140650078 kcal/mol)

>  <smiles>  (22) 
Cc1cccc(S(=O)(=O)NCCCc2c[nH]cn2)c1

>  <score_type>  (22) 
oracle

>  <origin>  (22) 
adgpu

>  <m_score__min__energy>  (22) 
-8.9499999999999993

>  <m_primary>  (22) 
energy

$$$$
22:0
     RDKit          3D

 57 60  0  0  1  0  0  0  0  0999 V2000
   -3.8360   18.6820  -33.7500 C   0  0  0  0  0  0  0  0  0  0  0  0
   -5.2570   19.0670  -33.3840 C   0  0  0  0  0  0  0  0  0  0  0  0
   -5.5660   18.7210  -31.9430 C   0  0  0  0  0  0  0  0  0  0  0  0
   -6.1560   18.1700  -34.2350 C   0  0  0  0  0  0  0  0  0  0  0  0
   -5.5500   20.4470  -33.6450 N   0  0  0  0  0  0  0  0  0  0  0  0
   -6.3830   21.1310  -32.7050 C   0  0  0  0  0  0  0  0  0  0  0  0
   -6.2790   22.2600  -31.9060 C   0  0  0  0  0  0  0  0  0  0  0  0
   -5.2700   23.2370  -31.6830 N   0  0  0  0  0  0  0  0  0  0  0  0
   -4.5660   23.2770  -30.6150 C   0  0  0  0  0  0  0  0  0  0  0  0
   -4.7590   22.3570  -29.6190 C   0  0  0  0  0  0  0  0  0  0  0  0
   -4.0020   22.3950  -28.4630 C   0  0  0  0  0  0  0  0  0  0  0  0
   -3.0640   23.3590  -28.3350 N   0  0  0  0  0  0  0  0  0  0  0  0
   -2.8860   24.2560  -29.3230 C   0  0  0  0  0  0  0  0  0  0  0  0
   -1.9820   25.1570  -29.1590 N   0  0  0  0  0  0  0  0  0  0  0  0
   -1.1580   25.2890  -28.0310 C   0  0  0  0  0  0  0  0  0  0  0  0
   -1.2660   26.3340  -27.1390 C   0  0  0  0  0  0  0  0  0  0  0  0
   -0.4220   26.4280  -26.0250 C   0  0  0  0  0  0  0  0  0  0  0  0
    0.5520   25.4870  -25.7690 C   0  0  0  0  0  0  0  0  0  0  0  0
    1.4140   25.5930  -24.6420 N   0  0  0  0  0  0  0  0  0  0  0  0
    1.3180   26.7190  -23.7080 C   0  0  0  0  0  0  0  0  0  0  0  0
    2.6840   27.2110  -23.3630 C   0  0  0  0  0  0  0  0  0  0  0  0
    3.6220   26.2390  -23.1160 O   0  0  0  0  0  0  0  0  0  0  0  0
    3.7490   25.3330  -24.1670 C   0  0  0  0  0  0  0  0  0  0  0  0
    2.4260   24.6050  -24.3260 C   0  0  0  0  0  0  0  0  0  0  0  0
    0.6570   24.4440  -26.6650 C   0  0  0  0  0  0  0  0  0  0  0  0
   -0.1870   24.3490  -27.7800 C   0  0  0  0  0  0  0  0  0  0  0  0
   -3.6270   24.2260  -30.4630 N   0  0  0  0  0  0  0  0  0  0  0  0
   -7.5570   22.0460  -31.4170 C   0  0  0  0  0  0  0  0  0  0  0  0
   -8.3400   22.5950  -30.6040 O   0  0  0  0  0  0  0  0  0  0  0  0
   -7.6610   20.9250  -32.2100 C   0  0  0  0  0  0  0  0  0  0  0  0
   -8.5820   20.0650  -32.3900 O   0  0  0  0  0  0  0  0  0  0  0  0
   -3.2510   18.5235  -32.8320 H   0  0  0  0  0  0  0  0  0  0  0  0
   -3.8482   17.7548  -34.3417 H   0  0  0  0  0  0  0  0  0  0  0  0
   -3.3784   19.4886  -34.3417 H   0  0  0  0  0  0  0  0  0  0  0  0
   -4.9833   19.3735  -31.2762 H   0  0  0  0  0  0  0  0  0  0  0  0
   -6.6395   18.8673  -31.7529 H   0  0  0  0  0  0  0  0  0  0  0  0
   -5.2997   17.6708  -31.7529 H   0  0  0  0  0  0  0  0  0  0  0  0
   -6.7803   17.5471  -33.5776 H   0  0  0  0  0  0  0  0  0  0  0  0
   -6.8017   18.7945  -34.8699 H   0  0  0  0  0  0  0  0  0  0  0  0
   -5.5329   17.5229  -34.8699 H   0  0  0  0  0  0  0  0  0  0  0  0
   -5.1650   20.9380  -34.4960 H   0  0  0  0  0  0  0  0  0  0  0  0
   -5.5261   21.5780  -29.7405 H   0  0  0  0  0  0  0  0  0  0  0  0
   -4.1600   21.6558  -27.6639 H   0  0  0  0  0  0  0  0  0  0  0  0
   -2.4670   23.4200  -27.4680 H   0  0  0  0  0  0  0  0  0  0  0  0
   -2.0291   27.1086  -27.3049 H   0  0  0  0  0  0  0  0  0  0  0  0
   -0.5399   27.2766  -25.3351 H   0  0  0  0  0  0  0  0  0  0  0  0
    0.7446   27.5329  -24.1757 H   0  0  0  0  0  0  0  0  0  0  0  0
    0.8107   26.3861  -22.7905 H   0  0  0  0  0  0  0  0  0  0  0  0
    3.0448   27.8233  -24.2026 H   0  0  0  0  0  0  0  0  0  0  0  0
    2.5733   27.7674  -22.4206 H   0  0  0  0  0  0  0  0  0  0  0  0
    3.9924   25.8707  -25.0952 H   0  0  0  0  0  0  0  0  0  0  0  0
    4.5554   24.6153  -23.9556 H   0  0  0  0  0  0  0  0  0  0  0  0
    2.4987   23.8696  -25.1408 H   0  0  0  0  0  0  0  0  0  0  0  0
    2.1667   24.0709  -23.4000 H   0  0  0  0  0  0  0  0  0  0  0  0
    1.4203   23.6691  -26.5010 H   0  0  0  0  0  0  0  0  0  0  0  0
   -0.0694   23.5014  -28.4712 H   0  0  0  0  0  0  0  0  0  0  0  0
   -3.4830   24.9280  -31.2300 H   0  0  0  0  0  0  0  0  0  0  0  0
  1  2  1  0
  2  3  1  0
  2  4  1  0
  2  5  1  0
  5  6  1  0
  6  7  2  0
  7  8  1  0
  8  9  2  0
  9 10  1  0
 10 11  2  0
 11 12  1  0
 12 13  1  0
 13 14  2  0
 14 15  1  0
 15 16  2  0
 16 17  1  0
 17 18  2  0
 18 19  1  0
 19 20  1  0
 20 21  1  0
 21 22  1  0
 22 23  1  0
 23 24  1  0
 18 25  1  0
 25 26  2  0
 13 27  1  0
  7 28  1  0
 28 29  2  0
 28 30  1  0
 30 31  2  0
 30  6  1  0
 27  9  1  0
 26 15  1  0
 24 19  1  0
  1 32  1  0
  1 33  1  0
  1 34  1  0
  3 35  1  0
  3 36  1  0
  3 37  1  0
  4 38  1  0
  4 39  1  0
  4 40  1  0
  5 41  1  0
 10 42  1  0
 11 43  1  0
 12 44  1  0
 16 45  1  0
 17 46  1  0
 20 47  1  0
 20 48  1  0
 21 49  1  0
 21 50  1  0
 23 51  1  0
 23 52  1  0
 24 53  1  0
 24 54  1  0
 25 55  1  0
 26 56  1  0
 27 57  1  0
M  END
>  <smiles>  (23) 
CC(C)(C)Nc1c(N=c2cc[nH]c(=Nc3ccc(N4CCOCC4)cc3)[nH]2)c(=O)c1=O

>  <score_type>  (23) 
oracle

>  <origin>  (23) 
adgpu

>  <m_score__min__energy>  (23) 
-9.75

>  <m_primary>  (23) 
energy

$$$$
23:0
     RDKit          3D

 34 35  0  0  0  0  0  0  0  0999 V2000
   -5.2440   24.9230  -30.2010 C   0  0  0  0  0  0  0  0  0  0  0  0
   -3.8610   25.2940  -30.4810 N   0  0  0  0  0  0  0  0  0  0  0  0
   -2.8050   24.5150  -29.3410 S   0  0  0  0  0  0  0  0  0  0  0  0
   -1.6470   25.4270  -29.0400 O   0  0  0  0  0  0  0  0  0  0  0  0
   -3.5510   24.2610  -28.0630 O   0  0  0  0  0  0  0  0  0  0  0  0
   -2.2250   22.9720  -29.9900 C   0  0  0  0  0  0  0  0  0  0  0  0
   -3.0000   22.3070  -30.9550 C   0  0  0  0  0  0  0  0  0  0  0  0
   -2.5860   21.0810  -31.4890 C   0  0  0  0  0  0  0  0  0  0  0  0
   -3.5610   20.2760  -32.7170 S   0  0  0  0  0  0  0  0  0  0  0  0
   -3.1170   20.7160  -34.0840 O   0  0  0  0  0  0  0  0  0  0  0  0
   -3.3890   18.7840  -32.6280 O   0  0  0  0  0  0  0  0  0  0  0  0
   -5.2530   20.6810  -32.4590 C   0  0  0  0  0  0  0  0  0  0  0  0
   -5.6580   22.0200  -32.3550 C   0  0  0  0  0  0  0  0  0  0  0  0
   -7.0030   22.3300  -32.1300 C   0  0  0  0  0  0  0  0  0  0  0  0
   -7.9470   21.3070  -32.0040 C   0  0  0  0  0  0  0  0  0  0  0  0
   -7.5470   19.9700  -32.0990 C   0  0  0  0  0  0  0  0  0  0  0  0
   -8.7300   18.6860  -31.9330 Cl  0  0  0  0  0  0  0  0  0  0  0  0
   -6.2020   19.6570  -32.3250 C   0  0  0  0  0  0  0  0  0  0  0  0
   -1.3770   20.5160  -31.0660 C   0  0  0  0  0  0  0  0  0  0  0  0
   -0.9430   19.3400  -31.5860 F   0  0  0  0  0  0  0  0  0  0  0  0
   -0.5990   21.1650  -30.1040 C   0  0  0  0  0  0  0  0  0  0  0  0
   -1.0110   22.3880  -29.5560 C   0  0  0  0  0  0  0  0  0  0  0  0
   -0.1810   23.0130  -28.5650 N   0  0  0  0  0  0  0  0  0  0  0  0
   -5.3993   24.8813  -29.1128 H   0  0  0  0  0  0  0  0  0  0  0  0
   -5.9204   25.6715  -30.6395 H   0  0  0  0  0  0  0  0  0  0  0  0
   -5.4550   23.9365  -30.6395 H   0  0  0  0  0  0  0  0  0  0  0  0
   -3.9448   22.7558  -31.2955 H   0  0  0  0  0  0  0  0  0  0  0  0
   -4.9168   22.8271  -32.4505 H   0  0  0  0  0  0  0  0  0  0  0  0
   -7.3186   23.3809  -32.0520 H   0  0  0  0  0  0  0  0  0  0  0  0
   -9.0048   21.5534  -31.8301 H   0  0  0  0  0  0  0  0  0  0  0  0
   -5.8882   18.6052  -32.3977 H   0  0  0  0  0  0  0  0  0  0  0  0
    0.3470   20.7116  -29.7730 H   0  0  0  0  0  0  0  0  0  0  0  0
    0.7570   22.6410  -28.3030 H   0  0  0  0  0  0  0  0  0  0  0  0
   -0.5020   23.8780  -28.0770 H   0  0  0  0  0  0  0  0  0  0  0  0
  1  2  1  0
  2  3  1  0
  3  4  2  0
  3  5  2  0
  3  6  1  0
  6  7  2  0
  7  8  1  0
  8  9  1  0
  9 10  2  0
  9 11  2  0
  9 12  1  0
 12 13  2  0
 13 14  1  0
 14 15  2  0
 15 16  1  0
 16 17  1  0
 16 18  2  0
  8 19  2  0
 19 20  1  0
 19 21  1  0
 21 22  2  0
 22 23  1  0
 22  6  1  0
 18 12  1  0
  1 24  1  0
  1 25  1  0
  1 26  1  0
  7 27  1  0
 13 28  1  0
 14 29  1  0
 15 30  1  0
 18 31  1  0
 21 32  1  0
 23 33  1  0
 23 34  1  0
M  CHG  1   2  -1
M  END
>  <UniqueID>  (24) 
22

>  <SMILES>  (24) 
C[N-]S(=O)(=O)c1cc(S(=O)(=O)c2cccc(Cl)c2)c(F)cc1N

>  <Energy>  (24) 
36.03531722786613

>  <Genealogy>  (24) 
C[N-]S(=O)(=O)c1cc(S(=O)(=O)c2cccc(Cl)c2)c(F)cc1N (protonated)
C[N-]S(=O)(=O)c1cc(S(=O)(=O)c2cccc(Cl)c2)c(F)cc1N (3D coordinates assigned)
C[N-]S(=O)(=O)c1cc(S(=O)(=O)c2cccc(Cl)c2)c(F)cc1N (optimized conformer: 36.03531722786613 kcal/mol)

>  <smiles>  (24) 
CNS(=O)(=O)c1cc(S(=O)(=O)c2cccc(Cl)c2)c(F)cc1N

>  <score_type>  (24) 
oracle

>  <origin>  (24) 
adgpu

>  <m_score__min__energy>  (24) 
-9.4100000000000001

>  <m_primary>  (24) 
energy

$$$$
24:0
     RDKit          3D

 34 36  0  0  0  0  0  0  0  0999 V2000
   -7.2370   17.1610  -33.0670 C   0  0  0  0  0  0  0  0  0  0  0  0
   -7.8560   18.4570  -32.7140 C   0  0  0  0  0  0  0  0  0  0  0  0
   -8.9080   18.8990  -32.3880 N   0  0  0  0  0  0  0  0  0  0  0  0
   -9.1460   20.1500  -32.1370 N   0  0  0  0  0  0  0  0  0  0  0  0
   -8.3780   21.0220  -32.1900 C   0  0  0  0  0  0  0  0  0  0  0  0
   -8.2460   22.7830  -31.9490 S   0  0  0  0  0  0  0  0  0  0  0  0
   -6.8160   23.1880  -30.9380 C   0  0  0  0  0  0  0  0  0  0  0  0
   -5.9250   24.1370  -31.3180 N   0  0  0  0  0  0  0  0  0  0  0  0
   -4.8500   24.4190  -30.5240 C   0  0  0  0  0  0  0  0  0  0  0  0
   -3.9870   25.3280  -30.8780 N   0  0  0  0  0  0  0  0  0  0  0  0
   -4.7040   23.7170  -29.3440 C   0  0  0  0  0  0  0  0  0  0  0  0
   -3.3430   24.0250  -28.2690 S   0  0  0  0  0  0  0  0  0  0  0  0
   -2.3490   24.8980  -28.9680 O   0  0  0  0  0  0  0  0  0  0  0  0
   -3.8070   24.7950  -27.0480 O   0  0  0  0  0  0  0  0  0  0  0  0
   -2.6150   22.5560  -27.7140 C   0  0  0  0  0  0  0  0  0  0  0  0
   -3.0360   21.2940  -28.0700 C   0  0  0  0  0  0  0  0  0  0  0  0
   -2.3880   20.1630  -27.5740 C   0  0  0  0  0  0  0  0  0  0  0  0
   -1.3060   20.3150  -26.7110 C   0  0  0  0  0  0  0  0  0  0  0  0
   -0.8730   21.5760  -26.3460 C   0  0  0  0  0  0  0  0  0  0  0  0
   -1.5250   22.6710  -26.8460 C   0  0  0  0  0  0  0  0  0  0  0  0
   -5.6210   22.7510  -28.9700 C   0  0  0  0  0  0  0  0  0  0  0  0
   -6.6730   22.5030  -29.7870 N   0  0  0  0  0  0  0  0  0  0  0  0
   -6.8290   20.0350  -32.7220 S   0  0  0  0  0  0  0  0  0  0  0  0
   -6.9769   16.6163  -32.1474 H   0  0  0  0  0  0  0  0  0  0  0  0
   -7.9473   16.5643  -33.6581 H   0  0  0  0  0  0  0  0  0  0  0  0
   -6.3264   17.3385  -33.6581 H   0  0  0  0  0  0  0  0  0  0  0  0
   -4.1590   25.8190  -31.7820 H   0  0  0  0  0  0  0  0  0  0  0  0
   -3.8912   21.1770  -28.7518 H   0  0  0  0  0  0  0  0  0  0  0  0
   -2.7293   19.1579  -27.8626 H   0  0  0  0  0  0  0  0  0  0  0  0
   -0.7923   19.4257  -26.3170 H   0  0  0  0  0  0  0  0  0  0  0  0
   -0.0181   21.6977  -25.6646 H   0  0  0  0  0  0  0  0  0  0  0  0
   -1.1800   23.6742  -26.5553 H   0  0  0  0  0  0  0  0  0  0  0  0
   -5.4985   22.1956  -28.0285 H   0  0  0  0  0  0  0  0  0  0  0  0
   -7.3840   21.7670  -29.5130 H   0  0  0  0  0  0  0  0  0  0  0  0
  1  2  1  0
  2  3  2  0
  3  4  1  0
  4  5  2  0
  5  6  1  0
  6  7  1  0
  7  8  2  0
  8  9  1  0
  9 10  2  3
  9 11  1  0
 11 12  1  0
 12 13  2  0
 12 14  2  0
 12 15  1  0
 15 16  2  0
 16 17  1  0
 17 18  2  0
 18 19  1  0
 19 20  2  0
 11 21  2  0
 21 22  1  0
  5 23  1  0
 23  2  1  0
 22  7  1  0
 20 15  1  0
  1 24  1  0
  1 25  1  0
  1 26  1  0
 10 27  1  0
 16 28  1  0
 17 29  1  0
 18 30  1  0
 19 31  1  0
 20 32  1  0
 21 33  1  0
 22 34  1  0
M  END
>  <smiles>  (25) 
Cc1nnc(Sc2nc(=N)c(S(=O)(=O)c3ccccc3)c[nH]2)s1

>  <score_type>  (25) 
oracle

>  <origin>  (25) 
adgpu

>  <m_score__min__energy>  (25) 
-9.0399999999999991

>  <m_primary>  (25) 
energy

$$$$
25:0
     RDKit          3D

 54 57  0  0  0  0  0  0  0  0999 V2000
   -6.7420   17.0090  -32.8700 C   0  0  0  0  0  0  0  0  0  0  0  0
   -7.2550   18.2380  -32.1110 C   0  0  0  0  0  0  0  0  0  0  0  0
   -7.4550   19.4050  -33.0120 N   0  0  0  0  0  0  0  0  0  0  0  0
   -7.4550   20.6970  -32.2570 C   0  0  0  0  0  0  0  0  0  0  0  0
   -6.2930   21.6460  -32.6070 C   0  0  0  0  0  0  0  0  0  0  0  0
   -5.0470   20.8910  -32.7850 N   0  0  0  0  0  0  0  0  0  0  0  0
   -3.7960   21.3670  -32.2500 C   0  0  0  0  0  0  0  0  0  0  0  0
   -3.7780   22.1070  -31.1080 N   0  0  0  0  0  0  0  0  0  0  0  0
   -2.6180   22.5630  -30.5630 C   0  0  0  0  0  0  0  0  0  0  0  0
   -2.6700   23.3580  -29.3090 C   0  0  0  0  0  0  0  0  0  0  0  0
   -1.5620   24.1410  -28.9320 C   0  0  0  0  0  0  0  0  0  0  0  0
   -1.5960   24.9000  -27.7580 C   0  0  0  0  0  0  0  0  0  0  0  0
   -2.7370   24.8930  -26.9520 C   0  0  0  0  0  0  0  0  0  0  0  0
   -3.8490   24.1360  -27.3230 C   0  0  0  0  0  0  0  0  0  0  0  0
   -3.8210   23.3740  -28.4950 C   0  0  0  0  0  0  0  0  0  0  0  0
   -1.4070   22.2740  -31.2100 C   0  0  0  0  0  0  0  0  0  0  0  0
   -1.4320   21.5310  -32.3960 C   0  0  0  0  0  0  0  0  0  0  0  0
   -0.2220   21.1820  -33.0870 N   0  0  0  0  0  0  0  0  0  0  0  0
    0.1640   21.7970  -34.1940 N   0  0  0  0  0  0  0  0  0  0  0  0
    1.3390   21.2580  -34.5710 C   0  0  0  0  0  0  0  0  0  0  0  0
    2.0700   21.6370  -35.8150 C   0  0  0  0  0  0  0  0  0  0  0  0
    1.7120   20.2640  -33.6870 C   0  0  0  0  0  0  0  0  0  0  0  0
    0.7060   20.2590  -32.7420 C   0  0  0  0  0  0  0  0  0  0  0  0
    0.6830   19.3870  -31.5220 C   0  0  0  0  0  0  0  0  0  0  0  0
   -2.6220   21.0810  -32.8740 N   0  0  0  0  0  0  0  0  0  0  0  0
   -5.0570   19.7010  -33.6440 C   0  0  0  0  0  0  0  0  0  0  0  0
   -6.4780   19.3840  -34.1280 C   0  0  0  0  0  0  0  0  0  0  0  0
   -6.4215   16.2411  -32.1505 H   0  0  0  0  0  0  0  0  0  0  0  0
   -7.5470   16.6060  -33.5021 H   0  0  0  0  0  0  0  0  0  0  0  0
   -5.8894   17.2979  -33.5021 H   0  0  0  0  0  0  0  0  0  0  0  0
   -8.2150   17.9872  -31.6361 H   0  0  0  0  0  0  0  0  0  0  0  0
   -6.5000   18.5136  -31.3599 H   0  0  0  0  0  0  0  0  0  0  0  0
   -8.3970   19.2970  -33.4610 H   0  0  0  0  0  0  0  0  0  0  0  0
   -8.3997   21.2186  -32.4701 H   0  0  0  0  0  0  0  0  0  0  0  0
   -7.3350   20.4367  -31.1950 H   0  0  0  0  0  0  0  0  0  0  0  0
   -6.5295   22.1789  -33.5398 H   0  0  0  0  0  0  0  0  0  0  0  0
   -6.1594   22.3629  -31.7835 H   0  0  0  0  0  0  0  0  0  0  0  0
   -0.6630   24.1557  -29.5657 H   0  0  0  0  0  0  0  0  0  0  0  0
   -0.7230   25.5035  -27.4687 H   0  0  0  0  0  0  0  0  0  0  0  0
   -2.7589   25.4843  -26.0247 H   0  0  0  0  0  0  0  0  0  0  0  0
   -4.7499   24.1388  -26.6918 H   0  0  0  0  0  0  0  0  0  0  0  0
   -4.7028   22.7832  -28.7838 H   0  0  0  0  0  0  0  0  0  0  0  0
   -0.4525   22.6260  -30.7916 H   0  0  0  0  0  0  0  0  0  0  0  0
    3.0174   22.1282  -35.5483 H   0  0  0  0  0  0  0  0  0  0  0  0
    2.2792   20.7338  -36.4070 H   0  0  0  0  0  0  0  0  0  0  0  0
    1.4524   22.3285  -36.4070 H   0  0  0  0  0  0  0  0  0  0  0  0
    2.6055   19.6236  -33.7271 H   0  0  0  0  0  0  0  0  0  0  0  0
    0.6996   20.0171  -30.6205 H   0  0  0  0  0  0  0  0  0  0  0  0
   -0.2316   18.7758  -31.5253 H   0  0  0  0  0  0  0  0  0  0  0  0
    1.5641   18.7285  -31.5253 H   0  0  0  0  0  0  0  0  0  0  0  0
   -4.4118   19.8817  -34.5164 H   0  0  0  0  0  0  0  0  0  0  0  0
   -4.6863   18.8450  -33.0611 H   0  0  0  0  0  0  0  0  0  0  0  0
   -6.7753   20.1335  -34.8762 H   0  0  0  0  0  0  0  0  0  0  0  0
   -6.4750   18.3733  -34.5622 H   0  0  0  0  0  0  0  0  0  0  0  0
  1  2  1  0
  2  3  1  0
  3  4  1  0
  4  5  1  0
  5  6  1  0
  6  7  1  0
  7  8  2  0
  8  9  1  0
  9 10  1  0
 10 11  2  0
 11 12  1  0
 12 13  2  0
 13 14  1  0
 14 15  2  0
  9 16  2  0
 16 17  1  0
 17 18  1  0
 18 19  1  0
 19 20  2  0
 20 21  1  0
 20 22  1  0
 22 23  2  0
 23 24  1  0
 17 25  2  0
  6 26  1  0
 26 27  1  0
 27  3  1  0
 25  7  1  0
 15 10  1  0
 23 18  1  0
  1 28  1  0
  1 29  1  0
  1 30  1  0
  2 31  1  0
  2 32  1  0
  3 33  1  0
  4 34  1  0
  4 35  1  0
  5 36  1  0
  5 37  1  0
 11 38  1  0
 12 39  1  0
 13 40  1  0
 14 41  1  0
 15 42  1  0
 16 43  1  0
 21 44  1  0
 21 45  1  0
 21 46  1  0
 22 47  1  0
 24 48  1  0
 24 49  1  0
 24 50  1  0
 26 51  1  0
 26 52  1  0
 27 53  1  0
 27 54  1  0
M  CHG  1   3   1
M  END
>  <UniqueID>  (26) 
23

>  <SMILES>  (26) 
CC[NH+]1CCN(c2nc(-c3ccccc3)cc(-n3nc(C)cc3C)n2)CC1

>  <Energy>  (26) 
101.31133684956208

>  <Genealogy>  (26) 
CC[NH+]1CCN(c2nc(-c3ccccc3)cc(-n3nc(C)cc3C)n2)CC1 (protonated)
CC[NH+]1CCN(c2nc(-c3ccccc3)cc(-n3nc(C)cc3C)n2)CC1 (3D coordinates assigned)
CC[NH+]1CCN(c2nc(-c3ccccc3)cc(-n3nc(C)cc3C)n2)CC1 (nonaromatic ring conformer: 101.31133684956208 kcal/mol)

>  <smiles>  (26) 
CCN1CCN(c2nc(-c3ccccc3)cc(-n3nc(C)cc3C)n2)CC1

>  <score_type>  (26) 
oracle

>  <origin>  (26) 
adgpu

>  <m_score__min__energy>  (26) 
-7.2300000000000004

>  <m_primary>  (26) 
energy

$$$$
26:0
     RDKit          3D

 26 27  0  0  0  0  0  0  0  0999 V2000
   -3.8990   25.3220  -30.7620 O   0  0  0  0  0  0  0  0  0  0  0  0
   -5.0070   24.4780  -30.8000 C   0  0  0  0  0  0  0  0  0  0  0  0
   -5.8300   24.4680  -31.9310 C   0  0  0  0  0  0  0  0  0  0  0  0
   -6.9450   23.6270  -31.9840 C   0  0  0  0  0  0  0  0  0  0  0  0
   -7.2530   22.7920  -30.8970 C   0  0  0  0  0  0  0  0  0  0  0  0
   -8.4310   21.8580  -30.9670 C   0  0  0  0  0  0  0  0  0  0  0  0
   -8.0350   20.5710  -31.6360 C   0  0  0  0  0  0  0  0  0  0  0  0
   -8.7530   19.3890  -31.3830 C   0  0  0  0  0  0  0  0  0  0  0  0
   -8.4060   18.2010  -32.0330 C   0  0  0  0  0  0  0  0  0  0  0  0
   -7.3470   18.1850  -32.9460 C   0  0  0  0  0  0  0  0  0  0  0  0
   -6.6360   19.3580  -33.2130 C   0  0  0  0  0  0  0  0  0  0  0  0
   -6.9800   20.5490  -32.5650 C   0  0  0  0  0  0  0  0  0  0  0  0
   -6.4190   22.7960  -29.7670 C   0  0  0  0  0  0  0  0  0  0  0  0
   -5.3040   23.6380  -29.7180 C   0  0  0  0  0  0  0  0  0  0  0  0
   -3.4720   25.6710  -31.6110 H   0  0  0  0  0  0  0  0  0  0  0  0
   -5.5986   25.1249  -32.7824 H   0  0  0  0  0  0  0  0  0  0  0  0
   -7.5835   23.6189  -32.8797 H   0  0  0  0  0  0  0  0  0  0  0  0
   -8.7856   21.6436  -29.9480 H   0  0  0  0  0  0  0  0  0  0  0  0
   -9.2321   22.3343  -31.5513 H   0  0  0  0  0  0  0  0  0  0  0  0
   -9.5912   19.3990  -30.6707 H   0  0  0  0  0  0  0  0  0  0  0  0
   -8.9668   17.2776  -31.8260 H   0  0  0  0  0  0  0  0  0  0  0  0
   -7.0735   17.2486  -33.4543 H   0  0  0  0  0  0  0  0  0  0  0  0
   -5.8049   19.3448  -33.9335 H   0  0  0  0  0  0  0  0  0  0  0  0
   -6.4228   21.4720  -32.7832 H   0  0  0  0  0  0  0  0  0  0  0  0
   -6.6439   22.1343  -28.9175 H   0  0  0  0  0  0  0  0  0  0  0  0
   -4.6579   23.6413  -28.8277 H   0  0  0  0  0  0  0  0  0  0  0  0
  1  2  1  0
  2  3  2  0
  3  4  1  0
  4  5  2  0
  5  6  1  0
  6  7  1  0
  7  8  2  0
  8  9  1  0
  9 10  2  0
 10 11  1  0
 11 12  2  0
  5 13  1  0
 13 14  2  0
 14  2  1  0
 12  7  1  0
  1 15  1  0
  3 16  1  0
  4 17  1  0
  6 18  1  0
  6 19  1  0
  8 20  1  0
  9 21  1  0
 10 22  1  0
 11 23  1  0
 12 24  1  0
 13 25  1  0
 14 26  1  0
M  END
>  <UniqueID>  (27) 
24

>  <SMILES>  (27) 
Oc1ccc(Cc2ccccc2)cc1

>  <Energy>  (27) 
24.726829183792233

>  <Genealogy>  (27) 
Oc1ccc(Cc2ccccc2)cc1 (3D coordinates assigned)
Oc1ccc(Cc2ccccc2)cc1 (optimized conformer: 24.726829183792233 kcal/mol)

>  <smiles>  (27) 
Oc1ccc(Cc2ccccc2)cc1

>  <score_type>  (27) 
oracle

>  <origin>  (27) 
adgpu

>  <m_score__min__energy>  (27) 
-7.8300000000000001

>  <m_primary>  (27) 
energy

$$$$
27:0
     RDKit          3D

 41 43  0  0  1  0  0  0  0  0999 V2000
   -0.4330   21.2040  -31.1140 O   0  0  0  0  0  0  0  0  0  0  0  0
   -1.6270   20.8320  -31.3760 C   0  0  0  0  0  0  0  0  0  0  0  0
   -2.6350   21.3480  -30.5340 N   0  0  0  0  0  0  0  0  0  0  0  0
   -2.3430   22.2320  -29.4540 C   0  0  0  0  0  0  0  0  0  0  0  0
   -1.4990   21.7420  -28.4700 C   0  0  0  0  0  0  0  0  0  0  0  0
   -1.1820   22.5560  -27.4010 C   0  0  0  0  0  0  0  0  0  0  0  0
   -1.7000   23.8480  -27.3080 C   0  0  0  0  0  0  0  0  0  0  0  0
   -2.5390   24.3190  -28.2970 C   0  0  0  0  0  0  0  0  0  0  0  0
   -2.8620   23.5070  -29.3760 C   0  0  0  0  0  0  0  0  0  0  0  0
   -3.7470   23.9710  -30.4400 C   0  0  0  0  0  0  0  0  0  0  0  0
   -3.8370   25.3490  -30.7030 O   0  0  0  0  0  0  0  0  0  0  0  0
   -4.4630   23.1980  -31.1680 N   0  0  0  0  0  0  0  0  0  0  0  0
   -5.2920   23.6860  -32.1730 O   0  0  0  0  0  0  0  0  0  0  0  0
   -1.9030   19.9280  -32.4840 C   0  0  0  0  0  0  0  0  0  0  0  0
   -0.9220   19.3950  -33.2930 C   0  0  0  0  0  0  0  0  0  0  0  0
   -1.2950   18.5360  -34.3310 C   0  0  0  0  0  0  0  0  0  0  0  0
   -2.5980   18.2280  -34.5450 N   0  0  0  0  0  0  0  0  0  0  0  0
   -3.5740   18.7340  -33.7730 C   0  0  0  0  0  0  0  0  0  0  0  0
   -5.2650   18.2900  -34.1060 S   0  0  0  0  0  0  0  0  0  0  0  0
   -6.4110   19.3010  -33.2100 C   0  0  0  0  0  0  0  0  0  0  0  0
   -7.5370   18.6720  -32.6790 C   0  0  0  0  0  0  0  0  0  0  0  0
   -8.4870   19.3760  -31.9650 C   0  0  0  0  0  0  0  0  0  0  0  0
   -8.3170   20.7320  -31.7740 C   0  0  0  0  0  0  0  0  0  0  0  0
   -9.5180   21.6600  -30.8640 Cl  0  0  0  0  0  0  0  0  0  0  0  0
   -7.1980   21.3600  -32.3010 C   0  0  0  0  0  0  0  0  0  0  0  0
   -6.2500   20.6510  -33.0160 C   0  0  0  0  0  0  0  0  0  0  0  0
   -3.2130   19.5820  -32.7460 C   0  0  0  0  0  0  0  0  0  0  0  0
   -3.6360   21.0930  -30.6810 H   0  0  0  0  0  0  0  0  0  0  0  0
   -1.0893   20.7235  -28.5395 H   0  0  0  0  0  0  0  0  0  0  0  0
   -0.5126   22.1812  -26.6127 H   0  0  0  0  0  0  0  0  0  0  0  0
   -1.4411   24.4875  -26.4513 H   0  0  0  0  0  0  0  0  0  0  0  0
   -2.9515   25.3366  -28.2307 H   0  0  0  0  0  0  0  0  0  0  0  0
   -4.2450   25.6680  -31.5940 H   0  0  0  0  0  0  0  0  0  0  0  0
   -5.1480   24.6560  -32.4440 H   0  0  0  0  0  0  0  0  0  0  0  0
    0.1367   19.6416  -33.1245 H   0  0  0  0  0  0  0  0  0  0  0  0
   -0.5212   18.1043  -34.9827 H   0  0  0  0  0  0  0  0  0  0  0  0
   -7.6715   17.5911  -32.8323 H   0  0  0  0  0  0  0  0  0  0  0  0
   -9.3683   18.8620  -31.5537 H   0  0  0  0  0  0  0  0  0  0  0  0
   -7.0623   22.4408  -32.1475 H   0  0  0  0  0  0  0  0  0  0  0  0
   -5.3700   21.1666  -33.4279 H   0  0  0  0  0  0  0  0  0  0  0  0
   -4.0048   20.0009  -32.1076 H   0  0  0  0  0  0  0  0  0  0  0  0
  1  2  2  0
  2  3  1  0
  3  4  1  0
  4  5  2  0
  5  6  1  0
  6  7  2  0
  7  8  1  0
  8  9  2  0
  9 10  1  0
 10 11  1  0
 10 12  2  0
 12 13  1  0
  2 14  1  0
 14 15  2  0
 15 16  1  0
 16 17  2  0
 17 18  1  0
 18 19  1  0
 19 20  1  0
 20 21  2  0
 21 22  1  0
 22 23  2  0
 23 24  1  0
 23 25  1  0
 25 26  2  0
 18 27  2  0
  9  4  1  0
 27 14  1  0
 26 20  1  0
  3 28  1  0
  5 29  1  0
  6 30  1  0
  7 31  1  0
  8 32  1  0
 11 33  1  0
 13 34  1  0
 15 35  1  0
 16 36  1  0
 21 37  1  0
 22 38  1  0
 25 39  1  0
 26 40  1  0
 27 41  1  0
M  END
>  <smiles>  (28) 
O=C(Nc1ccccc1C(O)=NO)c1ccnc(Sc2ccc(Cl)cc2)c1

>  <score_type>  (28) 
oracle

>  <origin>  (28) 
adgpu

>  <m_score__min__energy>  (28) 
-10

>  <m_primary>  (28) 
energy

$$$$
28:0
     RDKit          3D

 40 42  0  0  0  0  0  0  0  0999 V2000
   -1.2310   26.0430  -30.0470 H   0  0  0  0  0  0  0  0  0  0  0  0
   -1.2990   25.9590  -29.0080 N   0  0  0  0  0  0  0  0  0  0  0  0
   -1.7360   24.3240  -28.6600 S   0  0  0  0  0  0  0  0  0  0  0  0
   -0.7780   23.3910  -29.3440 O   0  0  0  0  0  0  0  0  0  0  0  0
   -1.6640   24.0890  -27.1770 O   0  0  0  0  0  0  0  0  0  0  0  0
   -3.3720   24.0230  -29.2320 C   0  0  0  0  0  0  0  0  0  0  0  0
   -3.9810   24.9120  -30.1280 C   0  0  0  0  0  0  0  0  0  0  0  0
   -3.4311   25.7967  -30.4814 H   0  0  0  0  0  0  0  0  0  0  0  0
   -5.2850   24.6780  -30.5740 C   0  0  0  0  0  0  0  0  0  0  0  0
   -5.7629   25.3877  -31.2653 H   0  0  0  0  0  0  0  0  0  0  0  0
   -5.9880   23.5400  -30.1430 C   0  0  0  0  0  0  0  0  0  0  0  0
   -7.3460   23.3080  -30.5440 N   0  0  0  0  0  0  0  0  0  0  0  0
   -7.8140   22.2760  -31.1910 C   0  0  0  0  0  0  0  0  0  0  0  0
   -9.1540   22.2920  -31.5930 C   0  0  0  0  0  0  0  0  0  0  0  0
   -9.7896   23.1592  -31.3605 H   0  0  0  0  0  0  0  0  0  0  0  0
   -9.6800   21.2070  -32.2880 C   0  0  0  0  0  0  0  0  0  0  0  0
  -10.7304   21.2190  -32.6142 H   0  0  0  0  0  0  0  0  0  0  0  0
   -8.8750   20.1060  -32.5700 C   0  0  0  0  0  0  0  0  0  0  0  0
   -9.2833   19.2503  -33.1277 H   0  0  0  0  0  0  0  0  0  0  0  0
   -7.5390   20.0950  -32.1380 C   0  0  0  0  0  0  0  0  0  0  0  0
   -6.6690   18.9250  -32.4220 C   0  0  0  0  0  0  0  0  0  0  0  0
   -6.5710   17.8670  -31.5020 C   0  0  0  0  0  0  0  0  0  0  0  0
   -7.1422   17.9041  -30.5626 H   0  0  0  0  0  0  0  0  0  0  0  0
   -5.7740   16.7980  -31.7670 N   0  0  0  0  0  0  0  0  0  0  0  0
   -5.0500   16.7060  -32.9170 C   0  0  0  0  0  0  0  0  0  0  0  0
   -4.2400   15.5960  -33.1680 O   0  0  0  0  0  0  0  0  0  0  0  0
   -4.2660   14.4250  -32.3590 C   0  0  0  0  0  0  0  0  0  0  0  0
   -4.2596   14.7126  -31.2973 H   0  0  0  0  0  0  0  0  0  0  0  0
   -5.1772   13.8487  -32.5773 H   0  0  0  0  0  0  0  0  0  0  0  0
   -3.3813   13.8088  -32.5773 H   0  0  0  0  0  0  0  0  0  0  0  0
   -5.1160   17.7340  -33.8600 C   0  0  0  0  0  0  0  0  0  0  0  0
   -4.5345   17.6699  -34.7916 H   0  0  0  0  0  0  0  0  0  0  0  0
   -5.9260   18.8440  -33.6110 C   0  0  0  0  0  0  0  0  0  0  0  0
   -5.9823   19.6579  -34.3489 H   0  0  0  0  0  0  0  0  0  0  0  0
   -7.0450   21.1700  -31.4510 N   0  0  0  0  0  0  0  0  0  0  0  0
   -6.0750   21.1060  -31.0730 H   0  0  0  0  0  0  0  0  0  0  0  0
   -5.3940   22.6780  -29.2130 C   0  0  0  0  0  0  0  0  0  0  0  0
   -5.9564   21.8128  -28.8321 H   0  0  0  0  0  0  0  0  0  0  0  0
   -4.0900   22.9110  -28.7660 C   0  0  0  0  0  0  0  0  0  0  0  0
   -3.6254   22.2205  -28.0468 H   0  0  0  0  0  0  0  0  0  0  0  0
  1  2  1  0
  2  3  1  0
  3  4  2  0
  3  5  2  0
  3  6  1  0
  6  7  2  0
  7  8  1  0
  7  9  1  0
  9 10  1  0
  9 11  2  0
 11 12  1  0
 12 13  2  0
 13 14  1  0
 14 15  1  0
 14 16  2  0
 16 17  1  0
 16 18  1  0
 18 19  1  0
 18 20  2  0
 20 21  1  0
 21 22  2  0
 22 23  1  0
 22 24  1  0
 24 25  2  0
 25 26  1  0
 26 27  1  0
 27 28  1  0
 27 29  1  0
 27 30  1  0
 25 31  1  0
 31 32  1  0
 31 33  2  0
 33 34  1  0
 20 35  1  0
 35 36  1  0
 11 37  1  0
 37 38  1  0
 37 39  2  0
 39 40  1  0
 39  6  1  0
 35 13  1  0
 33 21  1  0
M  CHG  1   2  -1
M  END
>  <UniqueID>  (29) 
25

>  <SMILES>  (29) 
COc1ccc(-c2ccc/c(=N/c3ccc(S([NH-])(=O)=O)cc3)[nH]2)cn1

>  <Energy>  (29) 
55.02655436559497

>  <Genealogy>  (29) 
COc1ccc(-c2cccc(=Nc3ccc(S([NH-])(=O)=O)cc3)[nH]2)cn1 (protonated)
COc1ccc(-c2ccc/c(=N/c3ccc(S([NH-])(=O)=O)cc3)[nH]2)cn1 (cis-trans isomerization)
COc1ccc(-c2ccc/c(=N/c3ccc(S([NH-])(=O)=O)cc3)[nH]2)cn1 (3D coordinates assigned)
COc1ccc(-c2ccc/c(=N/c3ccc(S([NH-])(=O)=O)cc3)[nH]2)cn1 (optimized conformer: 55.02655436559497 kcal/mol)

>  <smiles>  (29) 
COc1ccc(-c2cccc(=Nc3ccc(S(N)(=O)=O)cc3)[nH]2)cn1

>  <score_type>  (29) 
oracle

>  <origin>  (29) 
adgpu

>  <m_score__min__energy>  (29) 
-10.48

>  <m_primary>  (29) 
energy

$$$$
29:0
     RDKit          3D

 29 30  0  0  0  0  0  0  0  0999 V2000
   -5.4140   24.3130  -30.7770 C   0  0  0  0  0  0  0  0  0  0  0  0
   -6.3450   23.2220  -31.2140 C   0  0  0  0  0  0  0  0  0  0  0  0
   -6.0130   22.4060  -32.3070 C   0  0  0  0  0  0  0  0  0  0  0  0
   -6.8620   21.3650  -32.6930 C   0  0  0  0  0  0  0  0  0  0  0  0
   -8.0430   21.1120  -31.9780 C   0  0  0  0  0  0  0  0  0  0  0  0
   -8.9730   20.0160  -32.4150 C   0  0  0  0  0  0  0  0  0  0  0  0
   -8.7380   18.5600  -31.3470 S   0  0  0  0  0  0  0  0  0  0  0  0
   -7.2780   18.0130  -32.2270 C   0  0  0  0  0  0  0  0  0  0  0  0
   -7.0310   18.3320  -33.4480 N   0  0  0  0  0  0  0  0  0  0  0  0
   -5.7780   17.7330  -33.8850 C   0  0  0  0  0  0  0  0  0  0  0  0
   -5.2740   16.9500  -32.6590 C   0  0  0  0  0  0  0  0  0  0  0  0
   -6.2900   17.1870  -31.6490 N   0  0  0  0  0  0  0  0  0  0  0  0
   -8.3730   21.9270  -30.8840 C   0  0  0  0  0  0  0  0  0  0  0  0
   -7.5230   22.9660  -30.4970 C   0  0  0  0  0  0  0  0  0  0  0  0
   -5.3825   24.3499  -29.6781 H   0  0  0  0  0  0  0  0  0  0  0  0
   -4.4050   24.1118  -31.1662 H   0  0  0  0  0  0  0  0  0  0  0  0
   -5.7714   25.2778  -31.1662 H   0  0  0  0  0  0  0  0  0  0  0  0
   -5.0806   22.5867  -32.8620 H   0  0  0  0  0  0  0  0  0  0  0  0
   -6.6034   20.7411  -33.5612 H   0  0  0  0  0  0  0  0  0  0  0  0
  -10.0133   20.3646  -32.3363 H   0  0  0  0  0  0  0  0  0  0  0  0
   -8.7556   19.7446  -33.4586 H   0  0  0  0  0  0  0  0  0  0  0  0
   -7.6480   18.9330  -34.0390 H   0  0  0  0  0  0  0  0  0  0  0  0
   -5.9469   17.0562  -34.7355 H   0  0  0  0  0  0  0  0  0  0  0  0
   -5.0523   18.4858  -34.2266 H   0  0  0  0  0  0  0  0  0  0  0  0
   -5.1920   15.8770  -32.8870 H   0  0  0  0  0  0  0  0  0  0  0  0
   -4.2724   17.2693  -32.3351 H   0  0  0  0  0  0  0  0  0  0  0  0
   -6.2960   16.8080  -30.6770 H   0  0  0  0  0  0  0  0  0  0  0  0
   -9.3053   21.7468  -30.3287 H   0  0  0  0  0  0  0  0  0  0  0  0
   -7.7789   23.5865  -29.6255 H   0  0  0  0  0  0  0  0  0  0  0  0
  1  2  1  0
  2  3  2  0
  3  4  1  0
  4  5  2  0
  5  6  1  0
  6  7  1  0
  7  8  1  0
  8  9  2  0
  9 10  1  0
 10 11  1  0
 11 12  1  0
  5 13  1  0
 13 14  2  0
 14  2  1  0
 12  8  1  0
  1 15  1  0
  1 16  1  0
  1 17  1  0
  3 18  1  0
  4 19  1  0
  6 20  1  0
  6 21  1  0
  9 22  1  0
 10 23  1  0
 10 24  1  0
 11 25  1  0
 11 26  1  0
 12 27  1  0
 13 28  1  0
 14 29  1  0
M  CHG  1   9   1
M  END
>  <UniqueID>  (30) 
26

>  <SMILES>  (30) 
Cc1ccc(CSC2=[NH+]CCN2)cc1

>  <Energy>  (30) 
33.32494535558862

>  <Genealogy>  (30) 
Cc1ccc(CSC2=[NH+]CCN2)cc1 (protonated)
Cc1ccc(CSC2=[NH+]CCN2)cc1 (3D coordinates assigned)
Cc1ccc(CSC2=[NH+]CCN2)cc1 (nonaromatic ring conformer: 33.32494535558862 kcal/mol)

>  <smiles>  (30) 
Cc1ccc(CSC2=NCCN2)cc1

>  <score_type>  (30) 
oracle

>  <origin>  (30) 
adgpu

>  <m_score__min__energy>  (30) 
-5.7800000000000002

>  <m_primary>  (30) 
energy

$$$$
30:0
     RDKit          3D

 44 46  0  0  0  0  0  0  0  0999 V2000
   -3.8700   25.0800  -30.4690 O   0  0  0  0  0  0  0  0  0  0  0  0
   -4.2420   24.0130  -29.9060 C   0  0  0  0  0  0  0  0  0  0  0  0
   -4.0060   23.8300  -28.5000 N   0  0  0  0  0  0  0  0  0  0  0  0
   -2.9960   24.5390  -27.7610 C   0  0  0  0  0  0  0  0  0  0  0  0
   -3.2020   24.9280  -26.4230 C   0  0  0  0  0  0  0  0  0  0  0  0
   -2.2140   25.6400  -25.7360 C   0  0  0  0  0  0  0  0  0  0  0  0
   -1.0200   25.9810  -26.3770 C   0  0  0  0  0  0  0  0  0  0  0  0
   -0.8150   25.6170  -27.7110 C   0  0  0  0  0  0  0  0  0  0  0  0
   -1.8010   24.9050  -28.4030 C   0  0  0  0  0  0  0  0  0  0  0  0
   -4.9630   22.9860  -30.6960 C   0  0  0  0  0  0  0  0  0  0  0  0
   -6.3220   22.7240  -30.4440 C   0  0  0  0  0  0  0  0  0  0  0  0
   -7.0090   21.7590  -31.1880 C   0  0  0  0  0  0  0  0  0  0  0  0
   -6.3520   21.0460  -32.1970 C   0  0  0  0  0  0  0  0  0  0  0  0
   -7.2310   19.8290  -33.1170 S   0  0  0  0  0  0  0  0  0  0  0  0
   -6.8530   19.9150  -34.5700 O   0  0  0  0  0  0  0  0  0  0  0  0
   -8.7050   20.0950  -32.9760 O   0  0  0  0  0  0  0  0  0  0  0  0
   -6.8380   18.2440  -32.4880 N   0  0  0  0  0  0  0  0  0  0  0  0
   -5.4450   18.1790  -31.9760 C   0  0  0  0  0  0  0  0  0  0  0  0
   -4.5460   17.1790  -32.7250 C   0  0  0  0  0  0  0  0  0  0  0  0
   -4.7560   17.2970  -34.2330 C   0  0  0  0  0  0  0  0  0  0  0  0
   -6.2270   17.0730  -34.6280 C   0  0  0  0  0  0  0  0  0  0  0  0
   -7.1980   17.1700  -33.4360 C   0  0  0  0  0  0  0  0  0  0  0  0
   -5.0030   21.3110  -32.4650 C   0  0  0  0  0  0  0  0  0  0  0  0
   -4.3130   22.2740  -31.7220 C   0  0  0  0  0  0  0  0  0  0  0  0
   -4.6760   23.2350  -27.9630 H   0  0  0  0  0  0  0  0  0  0  0  0
   -4.1439   24.6706  -25.9165 H   0  0  0  0  0  0  0  0  0  0  0  0
   -2.3770   25.9325  -24.6882 H   0  0  0  0  0  0  0  0  0  0  0  0
   -0.2418   26.5356  -25.8321 H   0  0  0  0  0  0  0  0  0  0  0  0
    0.1225   25.8906  -28.2173 H   0  0  0  0  0  0  0  0  0  0  0  0
   -1.6396   24.6302  -29.4558 H   0  0  0  0  0  0  0  0  0  0  0  0
   -6.8484   23.2823  -29.6558 H   0  0  0  0  0  0  0  0  0  0  0  0
   -8.0704   21.5598  -30.9790 H   0  0  0  0  0  0  0  0  0  0  0  0
   -4.9973   19.1798  -32.0649 H   0  0  0  0  0  0  0  0  0  0  0  0
   -5.5060   17.8318  -30.9340 H   0  0  0  0  0  0  0  0  0  0  0  0
   -3.4929   17.3912  -32.4884 H   0  0  0  0  0  0  0  0  0  0  0  0
   -4.8075   16.1586  -32.4080 H   0  0  0  0  0  0  0  0  0  0  0  0
   -4.4502   18.3028  -34.5568 H   0  0  0  0  0  0  0  0  0  0  0  0
   -4.1499   16.5207  -34.7230 H   0  0  0  0  0  0  0  0  0  0  0  0
   -6.5089   17.8334  -35.3711 H   0  0  0  0  0  0  0  0  0  0  0  0
   -6.3051   16.0523  -35.0305 H   0  0  0  0  0  0  0  0  0  0  0  0
   -8.2091   17.3667  -33.8219 H   0  0  0  0  0  0  0  0  0  0  0  0
   -7.1469   16.2165  -32.8899 H   0  0  0  0  0  0  0  0  0  0  0  0
   -4.4843   20.7595  -33.2630 H   0  0  0  0  0  0  0  0  0  0  0  0
   -3.2542   22.4768  -31.9409 H   0  0  0  0  0  0  0  0  0  0  0  0
  1  2  2  0
  2  3  1  0
  3  4  1  0
  4  5  2  0
  5  6  1  0
  6  7  2  0
  7  8  1  0
  8  9  2  0
  2 10  1  0
 10 11  2  0
 11 12  1  0
 12 13  2  0
 13 14  1  0
 14 15  2  0
 14 16  2  0
 14 17  1  0
 17 18  1  0
 18 19  1  0
 19 20  1  0
 20 21  1  0
 21 22  1  0
 13 23  1  0
 23 24  2  0
  9  4  1  0
 24 10  1  0
 22 17  1  0
  3 25  1  0
  5 26  1  0
  6 27  1  0
  7 28  1  0
  8 29  1  0
  9 30  1  0
 11 31  1  0
 12 32  1  0
 18 33  1  0
 18 34  1  0
 19 35  1  0
 19 36  1  0
 20 37  1  0
 20 38  1  0
 21 39  1  0
 21 40  1  0
 22 41  1  0
 22 42  1  0
 23 43  1  0
 24 44  1  0
M  END
>  <UniqueID>  (31) 
27

>  <SMILES>  (31) 
O=C(Nc1ccccc1)c1ccc(S(=O)(=O)N2CCCCC2)cc1

>  <Energy>  (31) 
57.92524917531871

>  <Genealogy>  (31) 
O=C(Nc1ccccc1)c1ccc(S(=O)(=O)N2CCCCC2)cc1 (3D coordinates assigned)
O=C(Nc1ccccc1)c1ccc(S(=O)(=O)N2CCCCC2)cc1 (nonaromatic ring conformer: 57.92524917531871 kcal/mol)

>  <smiles>  (31) 
O=C(Nc1ccccc1)c1ccc(S(=O)(=O)N2CCCCC2)cc1

>  <score_type>  (31) 
oracle

>  <origin>  (31) 
adgpu

>  <m_score__min__energy>  (31) 
-8.8900000000000006

>  <m_primary>  (31) 
energy

$$$$
31:0
     RDKit          3D

 28 29  0  0  0  0  0  0  0  0999 V2000
   -9.4710   21.3490  -32.2590 N   0  0  0  0  0  0  0  0  0  0  0  0
   -8.5100   21.9150  -31.9540 C   0  0  0  0  0  0  0  0  0  0  0  0
   -7.3130   22.6210  -31.5760 C   0  0  0  0  0  0  0  0  0  0  0  0
   -7.3990   23.7880  -30.8070 C   0  0  0  0  0  0  0  0  0  0  0  0
   -6.2370   24.4730  -30.4370 C   0  0  0  0  0  0  0  0  0  0  0  0
   -4.9750   24.0020  -30.8480 C   0  0  0  0  0  0  0  0  0  0  0  0
   -3.7570   24.6600  -30.4720 N   0  0  0  0  0  0  0  0  0  0  0  0
   -3.1130   24.5960  -29.1940 C   0  0  0  0  0  0  0  0  0  0  0  0
   -3.6680   24.0020  -28.2290 O   0  0  0  0  0  0  0  0  0  0  0  0
   -1.8780   25.2980  -28.9990 N   0  0  0  0  0  0  0  0  0  0  0  0
   -1.0470   25.1660  -27.8330 C   0  0  0  0  0  0  0  0  0  0  0  0
    0.1020   24.3520  -27.8370 C   0  0  0  0  0  0  0  0  0  0  0  0
    0.9050   24.2610  -26.6960 C   0  0  0  0  0  0  0  0  0  0  0  0
    0.5800   24.9900  -25.5490 C   0  0  0  0  0  0  0  0  0  0  0  0
   -0.5450   25.8190  -25.5430 C   0  0  0  0  0  0  0  0  0  0  0  0
   -0.9450   26.7440  -24.1070 Cl  0  0  0  0  0  0  0  0  0  0  0  0
   -1.3510   25.9120  -26.6840 C   0  0  0  0  0  0  0  0  0  0  0  0
   -4.8970   22.8200  -31.5960 C   0  0  0  0  0  0  0  0  0  0  0  0
   -6.0590   22.1350  -31.9650 C   0  0  0  0  0  0  0  0  0  0  0  0
   -8.3828   24.1670  -30.4931 H   0  0  0  0  0  0  0  0  0  0  0  0
   -6.3091   25.3827  -29.8229 H   0  0  0  0  0  0  0  0  0  0  0  0
   -1.6090   26.0050  -29.7200 H   0  0  0  0  0  0  0  0  0  0  0  0
    0.3689   23.7855  -28.7413 H   0  0  0  0  0  0  0  0  0  0  0  0
    1.7946   23.6141  -26.7013 H   0  0  0  0  0  0  0  0  0  0  0  0
    1.2098   24.9113  -24.6506 H   0  0  0  0  0  0  0  0  0  0  0  0
   -2.2290   26.5747  -26.6797 H   0  0  0  0  0  0  0  0  0  0  0  0
   -3.9139   22.4276  -31.8954 H   0  0  0  0  0  0  0  0  0  0  0  0
   -5.9877   21.2135  -32.5614 H   0  0  0  0  0  0  0  0  0  0  0  0
  1  2  3  0
  2  3  1  0
  3  4  2  0
  4  5  1  0
  5  6  2  0
  6  7  1  0
  7  8  1  0
  8  9  2  0
  8 10  1  0
 10 11  1  0
 11 12  2  0
 12 13  1  0
 13 14  2  0
 14 15  1  0
 15 16  1  0
 15 17  2  0
  6 18  1  0
 18 19  2  0
 19  3  1  0
 17 11  1  0
  4 20  1  0
  5 21  1  0
 10 22  1  0
 12 23  1  0
 13 24  1  0
 14 25  1  0
 17 26  1  0
 18 27  1  0
 19 28  1  0
M  CHG  1   7  -1
M  END
>  <UniqueID>  (32) 
28

>  <SMILES>  (32) 
N#Cc1ccc([N-]C(=O)Nc2cccc(Cl)c2)cc1

>  <Energy>  (32) 
34.4556827108133

>  <Genealogy>  (32) 
N#Cc1ccc([N-]C(=O)Nc2cccc(Cl)c2)cc1 (protonated)
N#Cc1ccc([N-]C(=O)Nc2cccc(Cl)c2)cc1 (3D coordinates assigned)
N#Cc1ccc([N-]C(=O)Nc2cccc(Cl)c2)cc1 (optimized conformer: 34.4556827108133 kcal/mol)

>  <smiles>  (32) 
N#Cc1ccc(NC(=O)Nc2cccc(Cl)c2)cc1

>  <score_type>  (32) 
oracle

>  <origin>  (32) 
adgpu

>  <m_score__min__energy>  (32) 
-9.0199999999999996

>  <m_primary>  (32) 
energy

$$$$
32:0
     RDKit          3D

 37 41  0  0  0  0  0  0  0  0999 V2000
   -0.7680   27.8310  -23.8040 F   0  0  0  0  0  0  0  0  0  0  0  0
   -0.8780   27.3750  -25.0750 C   0  0  0  0  0  0  0  0  0  0  0  0
   -0.3380   28.1310  -26.1430 C   0  0  0  0  0  0  0  0  0  0  0  0
   -0.4470   27.6690  -27.4680 C   0  0  0  0  0  0  0  0  0  0  0  0
   -1.0970   26.4550  -27.6780 C   0  0  0  0  0  0  0  0  0  0  0  0
   -1.3140   25.8300  -28.8440 N   0  0  0  0  0  0  0  0  0  0  0  0
   -1.9810   24.7070  -28.4620 C   0  0  0  0  0  0  0  0  0  0  0  0
   -2.4430   23.6810  -29.4230 C   0  0  0  0  0  0  0  0  0  0  0  0
   -1.6370   22.5720  -29.7240 C   0  0  0  0  0  0  0  0  0  0  0  0
   -2.0730   21.6040  -30.6330 C   0  0  0  0  0  0  0  0  0  0  0  0
   -3.3270   21.7200  -31.2600 C   0  0  0  0  0  0  0  0  0  0  0  0
   -3.7700   20.6800  -32.2230 C   0  0  0  0  0  0  0  0  0  0  0  0
   -5.0750   20.5210  -32.5810 N   0  0  0  0  0  0  0  0  0  0  0  0
   -5.0310   19.4980  -33.4520 C   0  0  0  0  0  0  0  0  0  0  0  0
   -6.0940   18.9130  -34.1360 C   0  0  0  0  0  0  0  0  0  0  0  0
   -5.8010   17.8460  -35.0070 C   0  0  0  0  0  0  0  0  0  0  0  0
   -4.4700   17.3970  -35.1690 C   0  0  0  0  0  0  0  0  0  0  0  0
   -3.4210   18.0130  -34.4600 C   0  0  0  0  0  0  0  0  0  0  0  0
   -3.7500   19.0650  -33.6080 C   0  0  0  0  0  0  0  0  0  0  0  0
   -2.9360   19.7990  -32.8390 N   0  0  0  0  0  0  0  0  0  0  0  0
   -4.1310   22.8350  -30.9590 C   0  0  0  0  0  0  0  0  0  0  0  0
   -3.6940   23.8030  -30.0500 C   0  0  0  0  0  0  0  0  0  0  0  0
   -2.1860   24.6090  -27.1200 N   0  0  0  0  0  0  0  0  0  0  0  0
   -1.6170   25.7290  -26.6520 C   0  0  0  0  0  0  0  0  0  0  0  0
   -1.5290   26.1530  -25.3280 C   0  0  0  0  0  0  0  0  0  0  0  0
    0.1696   29.0847  -25.9363 H   0  0  0  0  0  0  0  0  0  0  0  0
   -0.0335   28.2462  -28.3081 H   0  0  0  0  0  0  0  0  0  0  0  0
   -0.6547   22.4639  -29.2408 H   0  0  0  0  0  0  0  0  0  0  0  0
   -1.4286   20.7421  -30.8606 H   0  0  0  0  0  0  0  0  0  0  0  0
   -7.1251   19.2715  -34.0007 H   0  0  0  0  0  0  0  0  0  0  0  0
   -6.6135   17.3582  -35.5655 H   0  0  0  0  0  0  0  0  0  0  0  0
   -4.2531   16.5626  -35.8521 H   0  0  0  0  0  0  0  0  0  0  0  0
   -2.3802   17.6761  -34.5746 H   0  0  0  0  0  0  0  0  0  0  0  0
   -1.9000   19.7030  -32.7600 H   0  0  0  0  0  0  0  0  0  0  0  0
   -5.1123   22.9459  -31.4434 H   0  0  0  0  0  0  0  0  0  0  0  0
   -4.3353   24.6676  -29.8238 H   0  0  0  0  0  0  0  0  0  0  0  0
   -1.9534   25.5538  -24.5089 H   0  0  0  0  0  0  0  0  0  0  0  0
  1  2  1  0
  2  3  2  0
  3  4  1  0
  4  5  2  0
  5  6  1  0
  6  7  1  0
  7  8  1  0
  8  9  2  0
  9 10  1  0
 10 11  2  0
 11 12  1  0
 12 13  2  0
 13 14  1  0
 14 15  2  0
 15 16  1  0
 16 17  2  0
 17 18  1  0
 18 19  2  0
 19 20  1  0
 11 21  1  0
 21 22  2  0
  7 23  2  0
 23 24  1  0
 24 25  2  0
 25  2  1  0
 24  5  1  0
 22  8  1  0
 20 12  1  0
 19 14  1  0
  3 26  1  0
  4 27  1  0
  9 28  1  0
 10 29  1  0
 15 30  1  0
 16 31  1  0
 17 32  1  0
 18 33  1  0
 20 34  1  0
 21 35  1  0
 22 36  1  0
 25 37  1  0
M  CHG  1   6  -1
M  END
>  <UniqueID>  (33) 
29

>  <SMILES>  (33) 
Fc1ccc2[n-]c(-c3ccc(-c4nc5ccccc5[nH]4)cc3)nc2c1

>  <Energy>  (33) 
117.60720425697964

>  <Genealogy>  (33) 
Fc1ccc2[n-]c(-c3ccc(-c4nc5ccccc5[nH]4)cc3)nc2c1 (protonated)
Fc1ccc2[n-]c(-c3ccc(-c4nc5ccccc5[nH]4)cc3)nc2c1 (3D coordinates assigned)
Fc1ccc2[n-]c(-c3ccc(-c4nc5ccccc5[nH]4)cc3)nc2c1 (optimized conformer: 117.60720425697964 kcal/mol)

>  <smiles>  (33) 
Fc1ccc2[nH]c(-c3ccc(-c4nc5ccccc5[nH]4)cc3)nc2c1

>  <score_type>  (33) 
oracle

>  <origin>  (33) 
adgpu

>  <m_score__min__energy>  (33) 
-8.1400000000000006

>  <m_primary>  (33) 
energy

$$$$
33:0
     RDKit          3D

 27 28  0  0  0  0  0  0  0  0999 V2000
   -9.1010   19.6360  -32.2920 C   0  0  0  0  0  0  0  0  0  0  0  0
   -7.7010   19.9060  -32.7430 C   0  0  0  0  0  0  0  0  0  0  0  0
   -6.9780   19.0200  -33.4600 N   0  0  0  0  0  0  0  0  0  0  0  0
   -5.7780   19.6180  -33.6130 C   0  0  0  0  0  0  0  0  0  0  0  0
   -5.7860   20.8420  -32.9820 C   0  0  0  0  0  0  0  0  0  0  0  0
   -6.9980   21.0150  -32.4340 N   0  0  0  0  0  0  0  0  0  0  0  0
   -7.5180   22.3810  -31.5000 S   0  0  0  0  0  0  0  0  0  0  0  0
   -8.3060   23.3220  -32.3680 O   0  0  0  0  0  0  0  0  0  0  0  0
   -8.3960   21.9010  -30.3790 O   0  0  0  0  0  0  0  0  0  0  0  0
   -6.1120   23.2310  -30.8710 C   0  0  0  0  0  0  0  0  0  0  0  0
   -5.0780   22.5080  -30.2640 C   0  0  0  0  0  0  0  0  0  0  0  0
   -3.9620   23.1730  -29.7480 C   0  0  0  0  0  0  0  0  0  0  0  0
   -3.8700   24.5700  -29.8350 C   0  0  0  0  0  0  0  0  0  0  0  0
   -2.7300   25.2510  -29.3060 N   0  0  0  0  0  0  0  0  0  0  0  0
   -4.9050   25.2940  -30.4440 C   0  0  0  0  0  0  0  0  0  0  0  0
   -6.0210   24.6270  -30.9610 C   0  0  0  0  0  0  0  0  0  0  0  0
   -9.1372   19.6290  -31.1926 H   0  0  0  0  0  0  0  0  0  0  0  0
   -9.7679   20.4221  -32.6758 H   0  0  0  0  0  0  0  0  0  0  0  0
   -9.4277   18.6583  -32.6758 H   0  0  0  0  0  0  0  0  0  0  0  0
   -4.9231   19.1923  -34.1589 H   0  0  0  0  0  0  0  0  0  0  0  0
   -4.9471   21.5520  -32.9356 H   0  0  0  0  0  0  0  0  0  0  0  0
   -5.1441   21.4123  -30.1929 H   0  0  0  0  0  0  0  0  0  0  0  0
   -3.1533   22.5989  -29.2722 H   0  0  0  0  0  0  0  0  0  0  0  0
   -2.0180   25.6730  -29.9430 H   0  0  0  0  0  0  0  0  0  0  0  0
   -2.5880   25.3360  -28.2760 H   0  0  0  0  0  0  0  0  0  0  0  0
   -4.8393   26.3897  -30.5155 H   0  0  0  0  0  0  0  0  0  0  0  0
   -6.8292   25.1996  -31.4394 H   0  0  0  0  0  0  0  0  0  0  0  0
  1  2  1  0
  2  3  2  0
  3  4  1  0
  4  5  2  0
  5  6  1  0
  6  7  1  0
  7  8  2  0
  7  9  2  0
  7 10  1  0
 10 11  2  0
 11 12  1  0
 12 13  2  0
 13 14  1  0
 13 15  1  0
 15 16  2  0
  6  2  1  0
 16 10  1  0
  1 17  1  0
  1 18  1  0
  1 19  1  0
  4 20  1  0
  5 21  1  0
 11 22  1  0
 12 23  1  0
 14 24  1  0
 14 25  1  0
 15 26  1  0
 16 27  1  0
M  END
>  <UniqueID>  (34) 
30

>  <SMILES>  (34) 
Cc1nccn1S(=O)(=O)c1ccc(N)cc1

>  <Energy>  (34) 
55.85106747802449

>  <Genealogy>  (34) 
Cc1nccn1S(=O)(=O)c1ccc(N)cc1 (3D coordinates assigned)
Cc1nccn1S(=O)(=O)c1ccc(N)cc1 (optimized conformer: 55.85106747802449 kcal/mol)

>  <smiles>  (34) 
Cc1nccn1S(=O)(=O)c1ccc(N)cc1

>  <score_type>  (34) 
oracle

>  <origin>  (34) 
adgpu

>  <m_score__min__energy>  (34) 
-7.2599999999999998

>  <m_primary>  (34) 
energy

$$$$
34:0
     RDKit          3D

 26 27  0  0  0  0  0  0  0  0999 V2000
   -3.9120   25.6680  -30.8560 O   0  0  0  0  0  0  0  0  0  0  0  0
   -4.6380   24.4340  -30.3970 S   0  0  0  0  0  0  0  0  0  0  0  0
   -5.9220   24.8120  -29.7140 O   0  0  0  0  0  0  0  0  0  0  0  0
   -4.9930   23.4300  -31.7660 N   0  0  0  0  0  0  0  0  0  0  0  0
   -6.1530   22.5990  -31.9030 C   0  0  0  0  0  0  0  0  0  0  0  0
   -7.4460   23.0620  -31.5960 C   0  0  0  0  0  0  0  0  0  0  0  0
   -8.5490   22.2150  -31.7450 C   0  0  0  0  0  0  0  0  0  0  0  0
   -8.3750   20.9060  -32.2000 C   0  0  0  0  0  0  0  0  0  0  0  0
   -9.4520   20.0940  -32.3410 F   0  0  0  0  0  0  0  0  0  0  0  0
   -7.0910   20.4380  -32.5070 C   0  0  0  0  0  0  0  0  0  0  0  0
   -6.8580   18.7950  -33.0790 Cl  0  0  0  0  0  0  0  0  0  0  0  0
   -5.9870   21.2850  -32.3580 C   0  0  0  0  0  0  0  0  0  0  0  0
   -3.6160   23.5620  -29.2560 C   0  0  0  0  0  0  0  0  0  0  0  0
   -4.0110   22.3110  -28.7570 C   0  0  0  0  0  0  0  0  0  0  0  0
   -3.1940   21.6220  -27.8550 C   0  0  0  0  0  0  0  0  0  0  0  0
   -1.9780   22.1770  -27.4480 C   0  0  0  0  0  0  0  0  0  0  0  0
   -1.5760   23.4210  -27.9420 C   0  0  0  0  0  0  0  0  0  0  0  0
   -2.3900   24.1130  -28.8450 C   0  0  0  0  0  0  0  0  0  0  0  0
   -1.9830   25.3180  -29.3190 F   0  0  0  0  0  0  0  0  0  0  0  0
   -7.5895   24.0922  -31.2381 H   0  0  0  0  0  0  0  0  0  0  0  0
   -9.5576   22.5813  -31.5029 H   0  0  0  0  0  0  0  0  0  0  0  0
   -4.9798   20.9153  -32.6005 H   0  0  0  0  0  0  0  0  0  0  0  0
   -4.9670   21.8707  -29.0767 H   0  0  0  0  0  0  0  0  0  0  0  0
   -3.5089   20.6426  -27.4657 H   0  0  0  0  0  0  0  0  0  0  0  0
   -1.3365   21.6343  -26.7381 H   0  0  0  0  0  0  0  0  0  0  0  0
   -0.6184   23.8565  -27.6204 H   0  0  0  0  0  0  0  0  0  0  0  0
  1  2  2  0
  2  3  2  0
  2  4  1  0
  4  5  1  0
  5  6  2  0
  6  7  1  0
  7  8  2  0
  8  9  1  0
  8 10  1  0
 10 11  1  0
 10 12  2  0
  2 13  1  0
 13 14  2  0
 14 15  1  0
 15 16  2  0
 16 17  1  0
 17 18  2  0
 18 19  1  0
 12  5  1  0
 18 13  1  0
  6 20  1  0
  7 21  1  0
 12 22  1  0
 14 23  1  0
 15 24  1  0
 16 25  1  0
 17 26  1  0
M  CHG  1   4  -1
M  END
>  <UniqueID>  (35) 
31

>  <SMILES>  (35) 
O=S(=O)([N-]c1ccc(F)c(Cl)c1)c1ccccc1F

>  <Energy>  (35) 
31.744126416964992

>  <Genealogy>  (35) 
O=S(=O)([N-]c1ccc(F)c(Cl)c1)c1ccccc1F (protonated)
O=S(=O)([N-]c1ccc(F)c(Cl)c1)c1ccccc1F (3D coordinates assigned)
O=S(=O)([N-]c1ccc(F)c(Cl)c1)c1ccccc1F (optimized conformer: 31.744126416964992 kcal/mol)

>  <smiles>  (35) 
O=S(=O)(Nc1ccc(F)c(Cl)c1)c1ccccc1F

>  <score_type>  (35) 
oracle

>  <origin>  (35) 
adgpu

>  <m_score__min__energy>  (35) 
-8.3599999999999994

>  <m_primary>  (35) 
energy

$$$$
35:0
     RDKit          3D

 32 34  0  0  0  0  0  0  0  0999 V2000
   -3.8920   25.6640  -30.7980 O   0  0  0  0  0  0  0  0  0  0  0  0
   -5.0150   24.8420  -30.7570 C   0  0  0  0  0  0  0  0  0  0  0  0
   -6.0200   25.0860  -29.7930 C   0  0  0  0  0  0  0  0  0  0  0  0
   -7.1650   24.2710  -29.7300 C   0  0  0  0  0  0  0  0  0  0  0  0
   -7.2720   23.2250  -30.6460 C   0  0  0  0  0  0  0  0  0  0  0  0
   -8.2730   22.3380  -30.7590 N   0  0  0  0  0  0  0  0  0  0  0  0
   -7.9270   21.5300  -31.7880 C   0  0  0  0  0  0  0  0  0  0  0  0
   -8.7660   20.3830  -32.2650 C   0  0  0  0  0  0  0  0  0  0  0  0
   -8.1370   19.1090  -31.9190 N   0  0  0  0  0  0  0  0  0  0  0  0
   -7.0900   18.4820  -32.6850 C   0  0  0  0  0  0  0  0  0  0  0  0
   -6.6610   17.1660  -32.4240 C   0  0  0  0  0  0  0  0  0  0  0  0
   -5.6440   16.5870  -33.1920 C   0  0  0  0  0  0  0  0  0  0  0  0
   -5.0450   17.3140  -34.2240 C   0  0  0  0  0  0  0  0  0  0  0  0
   -3.7700   16.5860  -35.1850 Cl  0  0  0  0  0  0  0  0  0  0  0  0
   -5.4590   18.6220  -34.4870 C   0  0  0  0  0  0  0  0  0  0  0  0
   -6.4750   19.2030  -33.7230 C   0  0  0  0  0  0  0  0  0  0  0  0
   -6.6970   21.8990  -32.3270 C   0  0  0  0  0  0  0  0  0  0  0  0
   -6.2990   22.9860  -31.5820 C   0  0  0  0  0  0  0  0  0  0  0  0
   -5.1530   23.7750  -31.6700 C   0  0  0  0  0  0  0  0  0  0  0  0
   -3.2640   25.6630  -31.5940 H   0  0  0  0  0  0  0  0  0  0  0  0
   -5.9056   25.9207  -29.0858 H   0  0  0  0  0  0  0  0  0  0  0  0
   -7.9508   24.4530  -28.9821 H   0  0  0  0  0  0  0  0  0  0  0  0
   -9.1380   22.2860  -30.1760 H   0  0  0  0  0  0  0  0  0  0  0  0
   -9.7571   20.4378  -31.7909 H   0  0  0  0  0  0  0  0  0  0  0  0
   -8.8646   20.4453  -33.3588 H   0  0  0  0  0  0  0  0  0  0  0  0
   -8.4570   18.6430  -31.0390 H   0  0  0  0  0  0  0  0  0  0  0  0
   -7.1280   16.5898  -31.6117 H   0  0  0  0  0  0  0  0  0  0  0  0
   -5.3159   15.5581  -32.9828 H   0  0  0  0  0  0  0  0  0  0  0  0
   -4.9846   19.1957  -35.2968 H   0  0  0  0  0  0  0  0  0  0  0  0
   -6.7960   20.2333  -33.9359 H   0  0  0  0  0  0  0  0  0  0  0  0
   -6.1616   21.4261  -33.1635 H   0  0  0  0  0  0  0  0  0  0  0  0
   -4.3810   23.5722  -32.4270 H   0  0  0  0  0  0  0  0  0  0  0  0
  1  2  1  0
  2  3  2  0
  3  4  1  0
  4  5  2  0
  5  6  1  0
  6  7  1  0
  7  8  1  0
  8  9  1  0
  9 10  1  0
 10 11  2  0
 11 12  1  0
 12 13  2  0
 13 14  1  0
 13 15  1  0
 15 16  2  0
  7 17  2  0
 17 18  1  0
 18 19  2  0
 19  2  1  0
 18  5  1  0
 16 10  1  0
  1 20  1  0
  3 21  1  0
  4 22  1  0
  6 23  1  0
  8 24  1  0
  8 25  1  0
  9 26  1  0
 11 27  1  0
 12 28  1  0
 15 29  1  0
 16 30  1  0
 17 31  1  0
 19 32  1  0
M  END
>  <UniqueID>  (36) 
32

>  <SMILES>  (36) 
Oc1ccc2[nH]c(CNc3ccc(Cl)cc3)cc2c1

>  <Energy>  (36) 
64.8745121390173

>  <Genealogy>  (36) 
Oc1ccc2[nH]c(CNc3ccc(Cl)cc3)cc2c1 (3D coordinates assigned)
Oc1ccc2[nH]c(CNc3ccc(Cl)cc3)cc2c1 (optimized conformer: 64.8745121390173 kcal/mol)

>  <smiles>  (36) 
Oc1ccc2[nH]c(CNc3ccc(Cl)cc3)cc2c1

>  <score_type>  (36) 
oracle

>  <origin>  (36) 
adgpu

>  <m_score__min__energy>  (36) 
-9.0600000000000005

>  <m_primary>  (36) 
energy

$$$$
36:0
     RDKit          3D

 42 44  0  0  0  0  0  0  0  0999 V2000
   -0.1930   21.5840  -28.1880 C   0  0  0  0  0  0  0  0  0  0  0  0
   -0.5460   22.7510  -28.9240 O   0  0  0  0  0  0  0  0  0  0  0  0
   -1.7040   22.8940  -29.7050 C   0  0  0  0  0  0  0  0  0  0  0  0
   -2.1820   21.8240  -30.4870 C   0  0  0  0  0  0  0  0  0  0  0  0
   -3.3350   21.9610  -31.2710 C   0  0  0  0  0  0  0  0  0  0  0  0
   -3.8330   20.8230  -32.0860 C   0  0  0  0  0  0  0  0  0  0  0  0
   -5.0890   20.2650  -31.8060 C   0  0  0  0  0  0  0  0  0  0  0  0
   -5.5840   19.1850  -32.5610 C   0  0  0  0  0  0  0  0  0  0  0  0
   -6.8530   18.5900  -32.3160 C   0  0  0  0  0  0  0  0  0  0  0  0
   -7.7630   19.0870  -31.3220 N   0  0  0  0  0  0  0  0  0  0  0  0
   -7.2500   17.4820  -33.0820 C   0  0  0  0  0  0  0  0  0  0  0  0
   -6.4300   16.9770  -34.0880 C   0  0  0  0  0  0  0  0  0  0  0  0
   -5.1960   17.5670  -34.3490 C   0  0  0  0  0  0  0  0  0  0  0  0
   -4.7610   18.6650  -33.5940 C   0  0  0  0  0  0  0  0  0  0  0  0
   -3.5470   19.2280  -33.8550 N   0  0  0  0  0  0  0  0  0  0  0  0
   -3.0740   20.2850  -33.1400 C   0  0  0  0  0  0  0  0  0  0  0  0
   -1.9560   20.7850  -33.4440 O   0  0  0  0  0  0  0  0  0  0  0  0
   -4.0270   23.1770  -31.2630 C   0  0  0  0  0  0  0  0  0  0  0  0
   -3.5710   24.2570  -30.4900 C   0  0  0  0  0  0  0  0  0  0  0  0
   -4.2460   25.4890  -30.4680 O   0  0  0  0  0  0  0  0  0  0  0  0
   -5.6560   25.6380  -30.3360 C   0  0  0  0  0  0  0  0  0  0  0  0
   -2.4100   24.1230  -29.7100 C   0  0  0  0  0  0  0  0  0  0  0  0
   -2.0170   25.2540  -28.9660 O   0  0  0  0  0  0  0  0  0  0  0  0
   -1.6580   25.2810  -27.5880 C   0  0  0  0  0  0  0  0  0  0  0  0
   -0.2573   21.7966  -27.1106 H   0  0  0  0  0  0  0  0  0  0  0  0
   -0.8842   20.7670  -28.4424 H   0  0  0  0  0  0  0  0  0  0  0  0
    0.8352   21.2871  -28.4424 H   0  0  0  0  0  0  0  0  0  0  0  0
   -1.6415   20.8660  -30.4819 H   0  0  0  0  0  0  0  0  0  0  0  0
   -5.6952   20.6768  -30.9856 H   0  0  0  0  0  0  0  0  0  0  0  0
   -7.7030   20.0800  -31.0070 H   0  0  0  0  0  0  0  0  0  0  0  0
   -8.4350   18.4800  -30.8080 H   0  0  0  0  0  0  0  0  0  0  0  0
   -8.2221   17.0064  -32.8847 H   0  0  0  0  0  0  0  0  0  0  0  0
   -6.7583   16.1090  -34.6785 H   0  0  0  0  0  0  0  0  0  0  0  0
   -4.5587   17.1691  -35.1525 H   0  0  0  0  0  0  0  0  0  0  0  0
   -2.9540   18.8450  -34.6270 H   0  0  0  0  0  0  0  0  0  0  0  0
   -4.9383   23.2882  -31.8689 H   0  0  0  0  0  0  0  0  0  0  0  0
   -5.9235   25.6663  -29.2694 H   0  0  0  0  0  0  0  0  0  0  0  0
   -5.9725   26.5746  -30.8183 H   0  0  0  0  0  0  0  0  0  0  0  0
   -6.1613   24.7882  -30.8183 H   0  0  0  0  0  0  0  0  0  0  0  0
   -2.5662   25.2127  -26.9711 H   0  0  0  0  0  0  0  0  0  0  0  0
   -0.9979   24.4300  -27.3643 H   0  0  0  0  0  0  0  0  0  0  0  0
   -1.1326   26.2212  -27.3643 H   0  0  0  0  0  0  0  0  0  0  0  0
  1  2  1  0
  2  3  1  0
  3  4  2  0
  4  5  1  0
  5  6  1  0
  6  7  2  0
  7  8  1  0
  8  9  2  0
  9 10  1  0
  9 11  1  0
 11 12  2  0
 12 13  1  0
 13 14  2  0
 14 15  1  0
 15 16  1  0
 16 17  2  0
  5 18  2  0
 18 19  1  0
 19 20  1  0
 20 21  1  0
 19 22  2  0
 22 23  1  0
 23 24  1  0
 22  3  1  0
 16  6  1  0
 14  8  1  0
  1 25  1  0
  1 26  1  0
  1 27  1  0
  4 28  1  0
  7 29  1  0
 10 30  1  0
 10 31  1  0
 11 32  1  0
 12 33  1  0
 13 34  1  0
 15 35  1  0
 18 36  1  0
 21 37  1  0
 21 38  1  0
 21 39  1  0
 24 40  1  0
 24 41  1  0
 24 42  1  0
M  END
>  <UniqueID>  (37) 
33

>  <SMILES>  (37) 
COc1cc(-c2cc3c(N)cccc3[nH]c2=O)cc(OC)c1OC

>  <Energy>  (37) 
59.168529228120576

>  <Genealogy>  (37) 
COc1cc(-c2cc3c(N)cccc3[nH]c2=O)cc(OC)c1OC (3D coordinates assigned)
COc1cc(-c2cc3c(N)cccc3[nH]c2=O)cc(OC)c1OC (optimized conformer: 59.168529228120576 kcal/mol)

>  <smiles>  (37) 
COc1cc(-c2cc3c(N)cccc3[nH]c2=O)cc(OC)c1OC

>  <score_type>  (37) 
oracle

>  <origin>  (37) 
adgpu

>  <m_score__min__energy>  (37) 
-7.2999999999999998

>  <m_primary>  (37) 
energy

$$$$
37:0
     RDKit          3D

 32 35  0  0  0  0  0  0  0  0999 V2000
   -9.1510   19.7190  -32.3320 C   0  0  0  0  0  0  0  0  0  0  0  0
   -7.8100   19.3420  -32.3850 C   0  0  0  0  0  0  0  0  0  0  0  0
   -6.8070   20.2580  -32.0510 C   0  0  0  0  0  0  0  0  0  0  0  0
   -7.1360   21.5710  -31.6580 C   0  0  0  0  0  0  0  0  0  0  0  0
   -6.0730   22.5550  -31.3000 C   0  0  0  0  0  0  0  0  0  0  0  0
   -5.4730   22.7080  -30.0600 C   0  0  0  0  0  0  0  0  0  0  0  0
   -4.5680   23.7340  -30.2410 C   0  0  0  0  0  0  0  0  0  0  0  0
   -3.6740   24.2800  -29.2130 C   0  0  0  0  0  0  0  0  0  0  0  0
   -3.8500   24.1530  -27.8380 C   0  0  0  0  0  0  0  0  0  0  0  0
   -2.7750   24.8170  -27.2970 C   0  0  0  0  0  0  0  0  0  0  0  0
   -2.4080   25.0300  -25.9700 C   0  0  0  0  0  0  0  0  0  0  0  0
   -1.2300   25.7610  -25.7280 C   0  0  0  0  0  0  0  0  0  0  0  0
   -0.4590   26.2540  -26.8040 C   0  0  0  0  0  0  0  0  0  0  0  0
   -0.8590   26.0210  -28.1330 C   0  0  0  0  0  0  0  0  0  0  0  0
   -2.0290   25.2950  -28.3410 C   0  0  0  0  0  0  0  0  0  0  0  0
   -2.5770   24.9670  -29.4860 O   0  0  0  0  0  0  0  0  0  0  0  0
   -4.6180   24.1740  -31.5110 N   0  0  0  0  0  0  0  0  0  0  0  0
   -5.5300   23.4570  -32.1470 N   0  0  0  0  0  0  0  0  0  0  0  0
   -8.4980   21.9360  -31.6110 C   0  0  0  0  0  0  0  0  0  0  0  0
   -9.4950   21.0150  -31.9460 C   0  0  0  0  0  0  0  0  0  0  0  0
   -9.9371   18.9956  -32.5942 H   0  0  0  0  0  0  0  0  0  0  0  0
   -7.5396   18.3205  -32.6906 H   0  0  0  0  0  0  0  0  0  0  0  0
   -5.7517   19.9508  -32.0955 H   0  0  0  0  0  0  0  0  0  0  0  0
   -5.6730   22.1399  -29.1395 H   0  0  0  0  0  0  0  0  0  0  0  0
   -4.6637   23.6386  -27.3058 H   0  0  0  0  0  0  0  0  0  0  0  0
   -3.0172   24.6407  -25.1410 H   0  0  0  0  0  0  0  0  0  0  0  0
   -0.9073   25.9498  -24.6935 H   0  0  0  0  0  0  0  0  0  0  0  0
    0.4600   26.8237  -26.6018 H   0  0  0  0  0  0  0  0  0  0  0  0
   -0.2672   26.3998  -28.9793 H   0  0  0  0  0  0  0  0  0  0  0  0
   -5.7610   23.6030  -33.1520 H   0  0  0  0  0  0  0  0  0  0  0  0
   -8.7783   22.9555  -31.3077 H   0  0  0  0  0  0  0  0  0  0  0  0
  -10.5532   21.3127  -31.9052 H   0  0  0  0  0  0  0  0  0  0  0  0
  1  2  2  0
  2  3  1  0
  3  4  2  0
  4  5  1  0
  5  6  2  0
  6  7  1  0
  7  8  1  0
  8  9  2  0
  9 10  1  0
 10 11  2  0
 11 12  1  0
 12 13  2  0
 13 14  1  0
 14 15  2  0
 15 16  1  0
  7 17  2  0
 17 18  1  0
  4 19  1  0
 19 20  2  0
 20  1  1  0
 18  5  1  0
 16  8  1  0
 15 10  1  0
  1 21  1  0
  2 22  1  0
  3 23  1  0
  6 24  1  0
  9 25  1  0
 11 26  1  0
 12 27  1  0
 13 28  1  0
 14 29  1  0
 18 30  1  0
 19 31  1  0
 20 32  1  0
M  END
>  <UniqueID>  (38) 
34

>  <SMILES>  (38) 
c1ccc(-c2cc(-c3cc4ccccc4o3)n[nH]2)cc1

>  <Energy>  (38) 
101.96798266854293

>  <Genealogy>  (38) 
c1ccc(-c2cc(-c3cc4ccccc4o3)n[nH]2)cc1 (3D coordinates assigned)
c1ccc(-c2cc(-c3cc4ccccc4o3)n[nH]2)cc1 (optimized conformer: 101.96798266854293 kcal/mol)

>  <smiles>  (38) 
c1ccc(-c2cc(-c3cc4ccccc4o3)n[nH]2)cc1

>  <score_type>  (38) 
oracle

>  <origin>  (38) 
adgpu

>  <m_score__min__energy>  (38) 
-8.9900000000000002

>  <m_primary>  (38) 
energy

$$$$
38:0
     RDKit          3D

 39 42  0  0  0  0  0  0  0  0999 V2000
   -2.7830   20.7240  -32.4380 C   0  0  0  0  0  0  0  0  0  0  0  0
   -3.3950   21.5740  -33.3570 C   0  0  0  0  0  0  0  0  0  0  0  0
   -4.5770   22.1640  -33.0480 N   0  0  0  0  0  0  0  0  0  0  0  0
   -5.1890   21.9410  -31.8510 C   0  0  0  0  0  0  0  0  0  0  0  0
   -6.4270   22.6070  -31.5260 N   0  0  0  0  0  0  0  0  0  0  0  0
   -7.0080   22.5480  -30.1840 C   0  0  0  0  0  0  0  0  0  0  0  0
   -8.4050   21.9180  -30.2510 C   0  0  0  0  0  0  0  0  0  0  0  0
   -9.1330   22.2260  -31.5060 N   0  0  0  0  0  0  0  0  0  0  0  0
   -9.5310   21.0550  -32.3220 C   0  0  0  0  0  0  0  0  0  0  0  0
   -8.6920   19.8310  -32.0760 C   0  0  0  0  0  0  0  0  0  0  0  0
   -8.9590   18.9210  -31.1070 N   0  0  0  0  0  0  0  0  0  0  0  0
   -8.0610   17.9760  -31.1910 O   0  0  0  0  0  0  0  0  0  0  0  0
   -7.2210   18.2340  -32.1620 C   0  0  0  0  0  0  0  0  0  0  0  0
   -6.1260   17.4850  -32.5810 C   0  0  0  0  0  0  0  0  0  0  0  0
   -5.3590   17.9920  -33.6470 C   0  0  0  0  0  0  0  0  0  0  0  0
   -5.6960   19.2270  -34.2470 C   0  0  0  0  0  0  0  0  0  0  0  0
   -6.8100   19.9610  -33.7960 C   0  0  0  0  0  0  0  0  0  0  0  0
   -7.5640   19.4150  -32.7570 C   0  0  0  0  0  0  0  0  0  0  0  0
   -8.6630   23.4150  -32.2520 C   0  0  0  0  0  0  0  0  0  0  0  0
   -7.1490   23.3830  -32.5420 C   0  0  0  0  0  0  0  0  0  0  0  0
   -4.6000   21.1090  -30.9470 N   0  0  0  0  0  0  0  0  0  0  0  0
   -3.4170   20.5000  -31.2180 C   0  0  0  0  0  0  0  0  0  0  0  0
   -1.8222   20.2414  -32.6703 H   0  0  0  0  0  0  0  0  0  0  0  0
   -2.9209   21.7662  -34.3308 H   0  0  0  0  0  0  0  0  0  0  0  0
   -6.3634   21.9390  -29.5332 H   0  0  0  0  0  0  0  0  0  0  0  0
   -7.0877   23.5669  -29.7771 H   0  0  0  0  0  0  0  0  0  0  0  0
   -8.2989   20.8262  -30.1689 H   0  0  0  0  0  0  0  0  0  0  0  0
   -8.9919   22.3434  -29.4236 H   0  0  0  0  0  0  0  0  0  0  0  0
  -10.5780   20.8103  -32.0900 H   0  0  0  0  0  0  0  0  0  0  0  0
   -9.3880   21.3352  -33.3761 H   0  0  0  0  0  0  0  0  0  0  0  0
   -5.8689   16.5313  -32.0969 H   0  0  0  0  0  0  0  0  0  0  0  0
   -4.4922   17.4238  -34.0154 H   0  0  0  0  0  0  0  0  0  0  0  0
   -5.0832   19.6177  -35.0727 H   0  0  0  0  0  0  0  0  0  0  0  0
   -7.0757   20.9288  -34.2462 H   0  0  0  0  0  0  0  0  0  0  0  0
   -9.2025   23.4643  -33.2093 H   0  0  0  0  0  0  0  0  0  0  0  0
   -8.8598   24.2968  -31.6246 H   0  0  0  0  0  0  0  0  0  0  0  0
   -6.9827   22.9245  -33.5280 H   0  0  0  0  0  0  0  0  0  0  0  0
   -6.7703   24.4156  -32.5238 H   0  0  0  0  0  0  0  0  0  0  0  0
   -2.9597   19.8303  -30.4748 H   0  0  0  0  0  0  0  0  0  0  0  0
  1  2  2  0
  2  3  1  0
  3  4  2  0
  4  5  1  0
  5  6  1  0
  6  7  1  0
  7  8  1  0
  8  9  1  0
  9 10  1  0
 10 11  2  0
 11 12  1  0
 12 13  1  0
 13 14  2  0
 14 15  1  0
 15 16  2  0
 16 17  1  0
 17 18  2  0
  8 19  1  0
 19 20  1  0
  4 21  1  0
 21 22  2  0
 22  1  1  0
 20  5  1  0
 18 10  1  0
 18 13  1  0
  1 23  1  0
  2 24  1  0
  6 25  1  0
  6 26  1  0
  7 27  1  0
  7 28  1  0
  9 29  1  0
  9 30  1  0
 14 31  1  0
 15 32  1  0
 16 33  1  0
 17 34  1  0
 19 35  1  0
 19 36  1  0
 20 37  1  0
 20 38  1  0
 22 39  1  0
M  END
>  <UniqueID>  (39) 
35

>  <SMILES>  (39) 
c1cnc(N2CCN(Cc3noc4ccccc34)CC2)nc1

>  <Energy>  (39) 
92.88592682806983

>  <Genealogy>  (39) 
c1cnc(N2CCN(Cc3noc4ccccc34)CC2)nc1 (3D coordinates assigned)
c1cnc(N2CCN(Cc3noc4ccccc34)CC2)nc1 (nonaromatic ring conformer: 92.88592682806983 kcal/mol)

>  <smiles>  (39) 
c1cnc(N2CCN(Cc3noc4ccccc34)CC2)nc1

>  <score_type>  (39) 
oracle

>  <origin>  (39) 
adgpu

>  <m_score__min__energy>  (39) 
-7.75

>  <m_primary>  (39) 
energy

$$$$
39:0
     RDKit          3D

 30 32  0  0  0  0  0  0  0  0999 V2000
   -9.3390   20.0670  -32.3370 C   0  0  0  0  0  0  0  0  0  0  0  0
   -8.2320   20.9970  -31.9380 C   0  0  0  0  0  0  0  0  0  0  0  0
   -6.9780   20.9090  -32.5610 C   0  0  0  0  0  0  0  0  0  0  0  0
   -5.9330   21.7500  -32.1650 C   0  0  0  0  0  0  0  0  0  0  0  0
   -6.1220   22.6820  -31.1300 C   0  0  0  0  0  0  0  0  0  0  0  0
   -5.0180   23.5710  -30.7090 C   0  0  0  0  0  0  0  0  0  0  0  0
   -4.9530   24.8840  -31.0140 N   0  0  0  0  0  0  0  0  0  0  0  0
   -3.8500   25.2990  -30.4690 O   0  0  0  0  0  0  0  0  0  0  0  0
   -3.2590   24.3040  -29.8570 C   0  0  0  0  0  0  0  0  0  0  0  0
   -1.9830   24.4260  -29.1330 C   0  0  0  0  0  0  0  0  0  0  0  0
   -1.6740   25.4000  -28.2070 C   0  0  0  0  0  0  0  0  0  0  0  0
   -0.3850   25.1260  -27.7910 C   0  0  0  0  0  0  0  0  0  0  0  0
    0.0690   24.0620  -28.4150 O   0  0  0  0  0  0  0  0  0  0  0  0
   -0.8630   23.6170  -29.2270 C   0  0  0  0  0  0  0  0  0  0  0  0
   -0.6920   22.4150  -30.0990 C   0  0  0  0  0  0  0  0  0  0  0  0
   -3.9610   23.1620  -29.9760 N   0  0  0  0  0  0  0  0  0  0  0  0
   -7.3740   22.7530  -30.4960 C   0  0  0  0  0  0  0  0  0  0  0  0
   -8.4180   21.9130  -30.8930 C   0  0  0  0  0  0  0  0  0  0  0  0
   -9.8209   19.6622  -31.4348 H   0  0  0  0  0  0  0  0  0  0  0  0
  -10.0817   20.6161  -32.9344 H   0  0  0  0  0  0  0  0  0  0  0  0
   -8.9263   19.2407  -32.9344 H   0  0  0  0  0  0  0  0  0  0  0  0
   -6.8160   20.1753  -33.3644 H   0  0  0  0  0  0  0  0  0  0  0  0
   -4.9566   21.6816  -32.6670 H   0  0  0  0  0  0  0  0  0  0  0  0
   -2.3197   26.2241  -27.8695 H   0  0  0  0  0  0  0  0  0  0  0  0
    0.1773   25.7111  -27.0484 H   0  0  0  0  0  0  0  0  0  0  0  0
   -0.5648   21.5212  -29.4706 H   0  0  0  0  0  0  0  0  0  0  0  0
   -1.5819   22.2931  -30.7341 H   0  0  0  0  0  0  0  0  0  0  0  0
    0.1965   22.5461  -30.7341 H   0  0  0  0  0  0  0  0  0  0  0  0
   -7.5335   23.4748  -29.6814 H   0  0  0  0  0  0  0  0  0  0  0  0
   -9.3908   21.9708  -30.3829 H   0  0  0  0  0  0  0  0  0  0  0  0
  1  2  1  0
  2  3  2  0
  3  4  1  0
  4  5  2  0
  5  6  1  0
  6  7  2  0
  7  8  1  0
  8  9  1  0
  9 10  1  0
 10 11  1  0
 11 12  2  0
 12 13  1  0
 13 14  1  0
 14 15  1  0
  9 16  2  0
  5 17  1  0
 17 18  2  0
 18  2  1  0
 16  6  1  0
 14 10  2  0
  1 19  1  0
  1 20  1  0
  1 21  1  0
  3 22  1  0
  4 23  1  0
 11 24  1  0
 12 25  1  0
 15 26  1  0
 15 27  1  0
 15 28  1  0
 17 29  1  0
 18 30  1  0
M  END
>  <UniqueID>  (40) 
36

>  <SMILES>  (40) 
Cc1ccc(-c2noc(-c3ccoc3C)n2)cc1

>  <Energy>  (40) 
89.77794232586248

>  <Genealogy>  (40) 
Cc1ccc(-c2noc(-c3ccoc3C)n2)cc1 (3D coordinates assigned)
Cc1ccc(-c2noc(-c3ccoc3C)n2)cc1 (optimized conformer: 89.77794232586248 kcal/mol)

>  <smiles>  (40) 
Cc1ccc(-c2noc(-c3ccoc3C)n2)cc1

>  <score_type>  (40) 
oracle

>  <origin>  (40) 
adgpu

>  <m_score__min__energy>  (40) 
-7.9000000000000004

>  <m_primary>  (40) 
energy

$$$$
40:0
     RDKit          3D

 50 53  0  0  0  0  0  0  0  0999 V2000
   -3.9284   21.9999  -28.6222 H   0  0  0  0  0  0  0  0  0  0  0  0
   -3.4270   21.5250  -27.7660 C   0  0  0  0  0  0  0  0  0  0  0  0
   -3.9370   20.7305  -27.2014 H   0  0  0  0  0  0  0  0  0  0  0  0
   -2.1960   21.9140  -27.4110 C   0  0  0  0  0  0  0  0  0  0  0  0
   -1.4450   22.9950  -27.9090 C   0  0  0  0  0  0  0  0  0  0  0  0
   -1.7070   23.8110  -28.9540 C   0  0  0  0  0  0  0  0  0  0  0  0
   -1.1700   24.7703  -28.9911 H   0  0  0  0  0  0  0  0  0  0  0  0
   -2.6500   23.5240  -30.0460 C   0  0  0  0  0  0  0  0  0  0  0  0
   -2.7920   22.3110  -30.6060 N   0  0  0  0  0  0  0  0  0  0  0  0
   -3.8330   22.4620  -31.4590 C   0  0  0  0  0  0  0  0  0  0  0  0
   -4.3410   21.3680  -32.3170 C   0  0  0  0  0  0  0  0  0  0  0  0
   -5.7240   21.1430  -32.4420 C   0  0  0  0  0  0  0  0  0  0  0  0
   -6.4336   21.7842  -31.8986 H   0  0  0  0  0  0  0  0  0  0  0  0
   -6.2020   20.1090  -33.2530 C   0  0  0  0  0  0  0  0  0  0  0  0
   -7.2850   19.9410  -33.3469 H   0  0  0  0  0  0  0  0  0  0  0  0
   -5.3060   19.2880  -33.9450 C   0  0  0  0  0  0  0  0  0  0  0  0
   -5.9210   17.9580  -34.9790 S   0  0  0  0  0  0  0  0  0  0  0  0
   -5.1280   16.6940  -33.9860 C   0  0  0  0  0  0  0  0  0  0  0  0
   -5.6370   16.3730  -32.7210 C   0  0  0  0  0  0  0  0  0  0  0  0
   -6.5223   16.8995  -32.3350 H   0  0  0  0  0  0  0  0  0  0  0  0
   -5.0200   15.3830  -31.9480 C   0  0  0  0  0  0  0  0  0  0  0  0
   -5.4219   15.1299  -30.9558 H   0  0  0  0  0  0  0  0  0  0  0  0
   -3.8920   14.7150  -32.4370 C   0  0  0  0  0  0  0  0  0  0  0  0
   -3.4077   13.9361  -31.8297 H   0  0  0  0  0  0  0  0  0  0  0  0
   -3.3800   15.0380  -33.6990 C   0  0  0  0  0  0  0  0  0  0  0  0
   -2.4922   14.5139  -34.0826 H   0  0  0  0  0  0  0  0  0  0  0  0
   -3.9960   16.0260  -34.4720 C   0  0  0  0  0  0  0  0  0  0  0  0
   -3.5918   16.2796  -35.4631 H   0  0  0  0  0  0  0  0  0  0  0  0
   -3.9300   19.5070  -33.8300 C   0  0  0  0  0  0  0  0  0  0  0  0
   -3.2247   18.8646  -34.3777 H   0  0  0  0  0  0  0  0  0  0  0  0
   -3.4480   20.5400  -33.0210 C   0  0  0  0  0  0  0  0  0  0  0  0
   -2.3641   20.7064  -32.9344 H   0  0  0  0  0  0  0  0  0  0  0  0
   -4.3760   23.7020  -31.4410 N   0  0  0  0  0  0  0  0  0  0  0  0
   -3.6300   24.3530  -30.5370 C   0  0  0  0  0  0  0  0  0  0  0  0
   -3.8580   25.6680  -30.1490 O   0  0  0  0  0  0  0  0  0  0  0  0
   -0.3340   23.0920  -27.0590 C   0  0  0  0  0  0  0  0  0  0  0  0
    0.8140   24.0220  -27.1050 C   0  0  0  0  0  0  0  0  0  0  0  0
    1.0990   24.6490  -28.1610 O   0  0  0  0  0  0  0  0  0  0  0  0
    1.6110   24.1740  -25.9630 O   0  0  0  0  0  0  0  0  0  0  0  0
    1.3670   25.1540  -24.9570 C   0  0  0  0  0  0  0  0  0  0  0  0
    2.0153   24.9521  -24.0916 H   0  0  0  0  0  0  0  0  0  0  0  0
    1.5839   26.1490  -25.3729 H   0  0  0  0  0  0  0  0  0  0  0  0
   -0.0900   25.1170  -24.5100 C   0  0  0  0  0  0  0  0  0  0  0  0
   -0.1364   25.1158  -23.4110 H   0  0  0  0  0  0  0  0  0  0  0  0
   -0.6152   26.0021  -24.8982 H   0  0  0  0  0  0  0  0  0  0  0  0
   -0.5696   24.2064  -24.8982 H   0  0  0  0  0  0  0  0  0  0  0  0
   -0.4410   22.0640  -26.1430 C   0  0  0  0  0  0  0  0  0  0  0  0
    0.2851   21.8583  -25.3427 H   0  0  0  0  0  0  0  0  0  0  0  0
   -1.5550   21.3520  -26.3670 N   0  0  0  0  0  0  0  0  0  0  0  0
   -1.8850   20.5440  -25.7920 H   0  0  0  0  0  0  0  0  0  0  0  0
  1  2  1  0
  2  3  1  0
  2  4  2  0
  4  5  1  0
  5  6  2  0
  6  7  1  0
  6  8  1  0
  8  9  1  0
  9 10  1  0
 10 11  1  0
 11 12  2  0
 12 13  1  0
 12 14  1  0
 14 15  1  0
 14 16  2  0
 16 17  1  0
 17 18  1  0
 18 19  2  0
 19 20  1  0
 19 21  1  0
 21 22  1  0
 21 23  2  0
 23 24  1  0
 23 25  1  0
 25 26  1  0
 25 27  2  0
 27 28  1  0
 16 29  1  0
 29 30  1  0
 29 31  2  0
 31 32  1  0
 10 33  2  0
 33 34  1  0
 34 35  1  0
  5 36  1  0
 36 37  1  0
 37 38  2  0
 37 39  1  0
 39 40  1  0
 40 41  1  0
 40 42  1  0
 40 43  1  0
 43 44  1  0
 43 45  1  0
 43 46  1  0
 36 47  2  0
 47 48  1  0
 47 49  1  0
 49 50  1  0
 49  4  1  0
 34  8  2  0
 31 11  1  0
 27 18  1  0
M  CHG  2   9  -1  35  -1
M  END
>  <UniqueID>  (41) 
37

>  <SMILES>  (41) 
C=c1[nH]cc(C(=O)OCC)/c1=C/c1[n-]c(-c2ccc(Sc3ccccc3)cc2)nc1[O-]

>  <Energy>  (41) 
116.92502739222009

>  <Genealogy>  (41) 
C=c1[nH]cc(C(=O)OCC)c1=Cc1[n-]c(-c2ccc(Sc3ccccc3)cc2)nc1[O-] (protonated)
C=c1[nH]cc(C(=O)OCC)/c1=C/c1[n-]c(-c2ccc(Sc3ccccc3)cc2)nc1[O-] (cis-trans isomerization)
C=c1[nH]cc(C(=O)OCC)/c1=C/c1[n-]c(-c2ccc(Sc3ccccc3)cc2)nc1[O-] (3D coordinates assigned)
C=c1[nH]cc(C(=O)OCC)/c1=C/c1[n-]c(-c2ccc(Sc3ccccc3)cc2)nc1[O-] (optimized conformer: 116.92502739222009 kcal/mol)

>  <smiles>  (41) 
C=c1[nH]cc(C(=O)OCC)c1=Cc1[nH]c(-c2ccc(Sc3ccccc3)cc2)nc1O

>  <score_type>  (41) 
oracle

>  <origin>  (41) 
adgpu

>  <m_score__min__energy>  (41) 
-13.24

>  <m_primary>  (41) 
energy

$$$$
41:0
     RDKit          3D

 48 50  0  0  0  0  0  0  0  0999 V2000
   -6.6100   16.0860  -33.9200 C   0  0  0  0  0  0  0  0  0  0  0  0
   -5.2950   16.8090  -33.9760 C   0  0  0  0  0  0  0  0  0  0  0  0
   -4.0960   16.0760  -34.0430 C   0  0  0  0  0  0  0  0  0  0  0  0
   -2.8710   16.7350  -34.1490 C   0  0  0  0  0  0  0  0  0  0  0  0
   -2.8290   18.1280  -34.1900 C   0  0  0  0  0  0  0  0  0  0  0  0
   -4.0130   18.8680  -34.1360 C   0  0  0  0  0  0  0  0  0  0  0  0
   -5.2540   18.2190  -34.0420 C   0  0  0  0  0  0  0  0  0  0  0  0
   -6.4790   18.9650  -33.9910 N   0  0  0  0  0  0  0  0  0  0  0  0
   -7.4730   19.1430  -32.5800 S   0  0  0  0  0  0  0  0  0  0  0  0
   -8.8970   18.8510  -32.9550 O   0  0  0  0  0  0  0  0  0  0  0  0
   -7.0590   18.1780  -31.5060 O   0  0  0  0  0  0  0  0  0  0  0  0
   -7.3490   20.8030  -32.0070 C   0  0  0  0  0  0  0  0  0  0  0  0
   -6.2940   21.6300  -32.4160 C   0  0  0  0  0  0  0  0  0  0  0  0
   -6.1510   22.9040  -31.8630 C   0  0  0  0  0  0  0  0  0  0  0  0
   -7.0510   23.3240  -30.8800 C   0  0  0  0  0  0  0  0  0  0  0  0
   -6.8240   24.8890  -30.0320 S   0  0  0  0  0  0  0  0  0  0  0  0
   -5.2210   24.4730  -29.2390 C   0  0  0  0  0  0  0  0  0  0  0  0
   -4.0290   24.9320  -30.0260 C   0  0  0  0  0  0  0  0  0  0  0  0
   -4.1820   25.3150  -31.2180 O   0  0  0  0  0  0  0  0  0  0  0  0
   -2.7280   24.9220  -29.4350 N   0  0  0  0  0  0  0  0  0  0  0  0
   -2.1460   23.7140  -28.8700 C   0  0  0  0  0  0  0  0  0  0  0  0
   -2.3750   22.5600  -29.7940 C   0  0  0  0  0  0  0  0  0  0  0  0
   -3.5170   21.7560  -29.6570 C   0  0  0  0  0  0  0  0  0  0  0  0
   -3.7330   20.6900  -30.5340 C   0  0  0  0  0  0  0  0  0  0  0  0
   -2.8160   20.4240  -31.5530 C   0  0  0  0  0  0  0  0  0  0  0  0
   -1.6880   21.2300  -31.7070 C   0  0  0  0  0  0  0  0  0  0  0  0
   -1.4730   22.3020  -30.8380 C   0  0  0  0  0  0  0  0  0  0  0  0
   -8.0810   22.5170  -30.5140 N   0  0  0  0  0  0  0  0  0  0  0  0
   -8.2580   21.2880  -31.0610 C   0  0  0  0  0  0  0  0  0  0  0  0
   -6.8972   15.9281  -32.8700 H   0  0  0  0  0  0  0  0  0  0  0  0
   -7.3807   16.6872  -34.4245 H   0  0  0  0  0  0  0  0  0  0  0  0
   -6.5153   15.1131  -34.4245 H   0  0  0  0  0  0  0  0  0  0  0  0
   -4.1246   14.9768  -34.0116 H   0  0  0  0  0  0  0  0  0  0  0  0
   -1.9376   16.1552  -34.2003 H   0  0  0  0  0  0  0  0  0  0  0  0
   -1.8614   18.6457  -34.2650 H   0  0  0  0  0  0  0  0  0  0  0  0
   -3.9723   19.9668  -34.1674 H   0  0  0  0  0  0  0  0  0  0  0  0
   -5.5787   21.2754  -33.1727 H   0  0  0  0  0  0  0  0  0  0  0  0
   -5.3404   23.5685  -32.1968 H   0  0  0  0  0  0  0  0  0  0  0  0
   -5.1886   24.9490  -28.2479 H   0  0  0  0  0  0  0  0  0  0  0  0
   -5.1653   23.3762  -29.1760 H   0  0  0  0  0  0  0  0  0  0  0  0
   -1.0648   23.8606  -28.7302 H   0  0  0  0  0  0  0  0  0  0  0  0
   -2.6202   23.5020  -27.9004 H   0  0  0  0  0  0  0  0  0  0  0  0
   -4.2433   21.9654  -28.8578 H   0  0  0  0  0  0  0  0  0  0  0  0
   -4.6271   20.0591  -30.4216 H   0  0  0  0  0  0  0  0  0  0  0  0
   -2.9834   19.5776  -32.2353 H   0  0  0  0  0  0  0  0  0  0  0  0
   -0.9683   21.0214  -32.5123 H   0  0  0  0  0  0  0  0  0  0  0  0
   -0.5924   22.9473  -30.9724 H   0  0  0  0  0  0  0  0  0  0  0  0
   -9.1181   20.6718  -30.7599 H   0  0  0  0  0  0  0  0  0  0  0  0
  1  2  1  0
  2  3  2  0
  3  4  1  0
  4  5  2  0
  5  6  1  0
  6  7  2  0
  7  8  1  0
  8  9  1  0
  9 10  2  0
  9 11  2  0
  9 12  1  0
 12 13  2  0
 13 14  1  0
 14 15  2  0
 15 16  1  0
 16 17  1  0
 17 18  1  0
 18 19  2  0
 18 20  1  0
 20 21  1  0
 21 22  1  0
 22 23  2  0
 23 24  1  0
 24 25  2  0
 25 26  1  0
 26 27  2  0
 15 28  1  0
 28 29  2  0
  7  2  1  0
 29 12  1  0
 27 22  1  0
  1 30  1  0
  1 31  1  0
  1 32  1  0
  3 33  1  0
  4 34  1  0
  5 35  1  0
  6 36  1  0
 13 37  1  0
 14 38  1  0
 17 39  1  0
 17 40  1  0
 21 41  1  0
 21 42  1  0
 23 43  1  0
 24 44  1  0
 25 45  1  0
 26 46  1  0
 27 47  1  0
 29 48  1  0
M  CHG  2   8  -1  20  -1
M  END
>  <UniqueID>  (42) 
38

>  <SMILES>  (42) 
Cc1ccccc1[N-]S(=O)(=O)c1ccc(SCC(=O)[N-]Cc2ccccc2)nc1

>  <Energy>  (42) 
46.44325244602086

>  <Genealogy>  (42) 
Cc1ccccc1[N-]S(=O)(=O)c1ccc(SCC(=O)[N-]Cc2ccccc2)nc1 (protonated)
Cc1ccccc1[N-]S(=O)(=O)c1ccc(SCC(=O)[N-]Cc2ccccc2)nc1 (3D coordinates assigned)
Cc1ccccc1[N-]S(=O)(=O)c1ccc(SCC(=O)[N-]Cc2ccccc2)nc1 (optimized conformer: 46.44325244602086 kcal/mol)

>  <smiles>  (42) 
Cc1ccccc1NS(=O)(=O)c1ccc(SCC(=O)NCc2ccccc2)nc1

>  <score_type>  (42) 
oracle

>  <origin>  (42) 
adgpu

>  <m_score__min__energy>  (42) 
-11.19

>  <m_primary>  (42) 
energy

$$$$
42:0
     RDKit          3D

 45 47  0  0  0  0  0  0  0  0999 V2000
   -4.6750   25.8740  -29.7210 H   0  0  0  0  0  0  0  0  0  0  0  0
   -3.9090   25.2750  -30.1040 N   0  0  0  0  0  0  0  0  0  0  0  0
   -4.1620   24.1780  -30.7410 C   0  0  0  0  0  0  0  0  0  0  0  0
   -3.1410   23.4260  -31.2210 N   0  0  0  0  0  0  0  0  0  0  0  0
   -3.3930   22.2720  -31.8930 C   0  0  0  0  0  0  0  0  0  0  0  0
   -2.2790   21.4430  -32.4130 C   0  0  0  0  0  0  0  0  0  0  0  0
   -2.4700   20.5940  -33.5210 C   0  0  0  0  0  0  0  0  0  0  0  0
   -3.4568   20.5406  -34.0041 H   0  0  0  0  0  0  0  0  0  0  0  0
   -1.4150   19.8190  -34.0110 C   0  0  0  0  0  0  0  0  0  0  0  0
   -1.5751   19.1591  -34.8764 H   0  0  0  0  0  0  0  0  0  0  0  0
   -0.1580   19.8800  -33.4050 C   0  0  0  0  0  0  0  0  0  0  0  0
    0.6706   19.2696  -33.7934 H   0  0  0  0  0  0  0  0  0  0  0  0
    0.0460   20.7170  -32.3050 C   0  0  0  0  0  0  0  0  0  0  0  0
    1.0362   20.7655  -31.8283 H   0  0  0  0  0  0  0  0  0  0  0  0
   -1.0060   21.4930  -31.8090 C   0  0  0  0  0  0  0  0  0  0  0  0
   -0.8392   22.1476  -30.9408 H   0  0  0  0  0  0  0  0  0  0  0  0
   -4.6810   21.8800  -32.0770 N   0  0  0  0  0  0  0  0  0  0  0  0
   -5.7130   22.6250  -31.6000 C   0  0  0  0  0  0  0  0  0  0  0  0
   -7.1110   22.1700  -31.7920 C   0  0  0  0  0  0  0  0  0  0  0  0
   -8.1630   23.1000  -31.9020 C   0  0  0  0  0  0  0  0  0  0  0  0
   -7.9450   24.1778  -31.8721 H   0  0  0  0  0  0  0  0  0  0  0  0
   -9.4830   22.6620  -32.0490 C   0  0  0  0  0  0  0  0  0  0  0  0
  -10.2975   23.3953  -32.1435 H   0  0  0  0  0  0  0  0  0  0  0  0
   -9.7690   21.2950  -32.0760 C   0  0  0  0  0  0  0  0  0  0  0  0
  -10.8083   20.9533  -32.1903 H   0  0  0  0  0  0  0  0  0  0  0  0
   -8.7360   20.3610  -31.9580 C   0  0  0  0  0  0  0  0  0  0  0  0
   -9.1040   18.6020  -31.9670 S   0  0  0  0  0  0  0  0  0  0  0  0
   -7.3950   18.0570  -31.5870 C   0  0  0  0  0  0  0  0  0  0  0  0
   -6.8271   18.9140  -31.1959 H   0  0  0  0  0  0  0  0  0  0  0  0
   -7.4525   17.2474  -30.8446 H   0  0  0  0  0  0  0  0  0  0  0  0
   -6.6790   17.5130  -32.8290 C   0  0  0  0  0  0  0  0  0  0  0  0
   -6.2362   16.5359  -32.5859 H   0  0  0  0  0  0  0  0  0  0  0  0
   -7.4184   17.4203  -33.6381 H   0  0  0  0  0  0  0  0  0  0  0  0
   -5.6070   18.4250  -33.2860 N   0  0  0  0  0  0  0  0  0  0  0  0
   -6.0840   19.2610  -34.3980 C   0  0  0  0  0  0  0  0  0  0  0  0
   -6.5915   20.1505  -33.9965 H   0  0  0  0  0  0  0  0  0  0  0  0
   -5.2285   19.5740  -35.0146 H   0  0  0  0  0  0  0  0  0  0  0  0
   -6.7887   18.6838  -35.0146 H   0  0  0  0  0  0  0  0  0  0  0  0
   -4.4110   17.6780  -33.7090 C   0  0  0  0  0  0  0  0  0  0  0  0
   -3.8604   17.3341  -32.8210 H   0  0  0  0  0  0  0  0  0  0  0  0
   -4.7153   16.8091  -34.3110 H   0  0  0  0  0  0  0  0  0  0  0  0
   -3.7637   18.3326  -34.3110 H   0  0  0  0  0  0  0  0  0  0  0  0
   -7.4110   20.7970  -31.8460 C   0  0  0  0  0  0  0  0  0  0  0  0
   -6.5966   20.0590  -31.7998 H   0  0  0  0  0  0  0  0  0  0  0  0
   -5.4450   23.7760  -30.9290 N   0  0  0  0  0  0  0  0  0  0  0  0
  1  2  1  0
  2  3  2  0
  3  4  1  0
  4  5  2  0
  5  6  1  0
  6  7  2  0
  7  8  1  0
  7  9  1  0
  9 10  1  0
  9 11  2  0
 11 12  1  0
 11 13  1  0
 13 14  1  0
 13 15  2  0
 15 16  1  0
  5 17  1  0
 17 18  2  0
 18 19  1  0
 19 20  2  0
 20 21  1  0
 20 22  1  0
 22 23  1  0
 22 24  2  0
 24 25  1  0
 24 26  1  0
 26 27  1  0
 27 28  1  0
 28 29  1  0
 28 30  1  0
 28 31  1  0
 31 32  1  0
 31 33  1  0
 31 34  1  0
 34 35  1  0
 35 36  1  0
 35 37  1  0
 35 38  1  0
 34 39  1  0
 39 40  1  0
 39 41  1  0
 39 42  1  0
 26 43  2  0
 43 44  1  0
 18 45  1  0
 45  3  1  0
 15  6  1  0
 43 19  1  0
M  CHG  1  45  -1
M  END
>  <UniqueID>  (43) 
39

>  <SMILES>  (43) 
[H]/N=c1/nc(-c2ccccc2)nc(-c2cccc(SCCN(C)C)c2)[n-]1

>  <Energy>  (43) 
43.52700527467028

>  <Genealogy>  (43) 
CN(C)CCSc1cccc(-c2nc(-c3ccccc3)nc(=N)[n-]2)c1 (protonated)
[H]/N=c1/nc(-c2ccccc2)nc(-c2cccc(SCCN(C)C)c2)[n-]1 (cis-trans isomerization)
[H]/N=c1/nc(-c2ccccc2)nc(-c2cccc(SCCN(C)C)c2)[n-]1 (3D coordinates assigned)
[H]/N=c1/nc(-c2ccccc2)nc(-c2cccc(SCCN(C)C)c2)[n-]1 (optimized conformer: 43.52700527467028 kcal/mol)

>  <smiles>  (43) 
CN(C)CCSc1cccc(-c2nc(-c3ccccc3)nc(=N)[nH]2)c1

>  <score_type>  (43) 
oracle

>  <origin>  (43) 
adgpu

>  <m_score__min__energy>  (43) 
-9.9399999999999995

>  <m_primary>  (43) 
energy

$$$$
43:0
     RDKit          3D

 28 29  0  0  0  0  0  0  0  0999 V2000
   -5.9590   22.7750  -28.4670 H   0  0  0  0  0  0  0  0  0  0  0  0
   -4.9470   22.7280  -28.2170 N   0  0  0  0  0  0  0  0  0  0  0  0
   -4.0520   23.4760  -28.7820 C   0  0  0  0  0  0  0  0  0  0  0  0
   -2.7410   23.4120  -28.4600 N   0  0  0  0  0  0  0  0  0  0  0  0
   -2.2200   24.3380  -29.2970 C   0  0  0  0  0  0  0  0  0  0  0  0
   -0.9600   24.6240  -29.3500 N   0  0  0  0  0  0  0  0  0  0  0  0
   -0.2710   24.1440  -28.7290 H   0  0  0  0  0  0  0  0  0  0  0  0
   -3.1450   24.9240  -30.0760 N   0  0  0  0  0  0  0  0  0  0  0  0
   -2.9930   25.6530  -30.8090 H   0  0  0  0  0  0  0  0  0  0  0  0
   -4.3060   24.3870  -29.7470 N   0  0  0  0  0  0  0  0  0  0  0  0
   -5.5750   24.7000  -30.4070 C   0  0  0  0  0  0  0  0  0  0  0  0
   -6.2759   25.1166  -29.6686 H   0  0  0  0  0  0  0  0  0  0  0  0
   -5.3933   25.4333  -31.2065 H   0  0  0  0  0  0  0  0  0  0  0  0
   -6.1680   23.4530  -31.0080 C   0  0  0  0  0  0  0  0  0  0  0  0
   -7.3560   22.9070  -30.4990 C   0  0  0  0  0  0  0  0  0  0  0  0
   -7.8695   23.3995  -29.6601 H   0  0  0  0  0  0  0  0  0  0  0  0
   -7.8900   21.7400  -31.0530 C   0  0  0  0  0  0  0  0  0  0  0  0
   -8.8231   21.3215  -30.6479 H   0  0  0  0  0  0  0  0  0  0  0  0
   -7.2480   21.1000  -32.1180 C   0  0  0  0  0  0  0  0  0  0  0  0
   -7.8230   19.9300  -32.6370 O   0  0  0  0  0  0  0  0  0  0  0  0
   -7.3370   18.6160  -32.3850 C   0  0  0  0  0  0  0  0  0  0  0  0
   -7.2755   18.4497  -31.2994 H   0  0  0  0  0  0  0  0  0  0  0  0
   -8.0223   17.8799  -32.8304 H   0  0  0  0  0  0  0  0  0  0  0  0
   -6.3376   18.5030  -32.8304 H   0  0  0  0  0  0  0  0  0  0  0  0
   -6.0550   21.6460  -32.6300 C   0  0  0  0  0  0  0  0  0  0  0  0
   -5.5417   21.1521  -33.4682 H   0  0  0  0  0  0  0  0  0  0  0  0
   -5.5210   22.8130  -32.0770 C   0  0  0  0  0  0  0  0  0  0  0  0
   -4.5882   23.2326  -32.4817 H   0  0  0  0  0  0  0  0  0  0  0  0
  1  2  1  0
  2  3  2  0
  3  4  1  0
  4  5  1  0
  5  6  2  0
  6  7  1  0
  5  8  1  0
  8  9  1  0
  8 10  1  0
 10 11  1  0
 11 12  1  0
 11 13  1  0
 11 14  1  0
 14 15  2  0
 15 16  1  0
 15 17  1  0
 17 18  1  0
 17 19  2  0
 19 20  1  0
 20 21  1  0
 21 22  1  0
 21 23  1  0
 21 24  1  0
 19 25  1  0
 25 26  1  0
 25 27  2  0
 27 28  1  0
 10  3  1  0
 27 14  1  0
M  CHG  1   4  -1
M  END
>  <UniqueID>  (44) 
40

>  <SMILES>  (44) 
[H]/N=c1/[n-]/c(=N\[H])[nH]n1Cc1ccc(OC)cc1

>  <Energy>  (44) 
62.35614694840321

>  <Genealogy>  (44) 
COc1ccc(Cn2[nH]c(=N)[n-]c2=N)cc1 (protonated)
[H]/N=c1/[n-]/c(=N\[H])[nH]n1Cc1ccc(OC)cc1 (cis-trans isomerization)
[H]/N=c1/[n-]/c(=N\[H])[nH]n1Cc1ccc(OC)cc1 (3D coordinates assigned)
[H]/N=c1/[n-]/c(=N\[H])[nH]n1Cc1ccc(OC)cc1 (optimized conformer: 62.35614694840321 kcal/mol)

>  <smiles>  (44) 
COc1ccc(Cn2[nH]c(=N)[nH]c2=N)cc1

>  <score_type>  (44) 
oracle

>  <origin>  (44) 
adgpu

>  <m_score__min__energy>  (44) 
-6.5999999999999996

>  <m_primary>  (44) 
energy

$$$$
44:0
     RDKit          3D

 31 33  0  0  0  0  0  0  0  0999 V2000
   -3.1630   16.2320  -35.3540 C   0  0  0  0  0  0  0  0  0  0  0  0
   -4.3260   17.0100  -35.6140 O   0  0  0  0  0  0  0  0  0  0  0  0
   -5.2830   17.3520  -34.6470 C   0  0  0  0  0  0  0  0  0  0  0  0
   -6.2750   16.4520  -34.2180 C   0  0  0  0  0  0  0  0  0  0  0  0
   -7.2030   16.8390  -33.2480 C   0  0  0  0  0  0  0  0  0  0  0  0
   -7.1520   18.1220  -32.6980 C   0  0  0  0  0  0  0  0  0  0  0  0
   -6.1680   19.0370  -33.1150 C   0  0  0  0  0  0  0  0  0  0  0  0
   -6.1120   20.4020  -32.5320 C   0  0  0  0  0  0  0  0  0  0  0  0
   -7.2520   20.9740  -31.9430 C   0  0  0  0  0  0  0  0  0  0  0  0
   -7.1990   22.2590  -31.3940 C   0  0  0  0  0  0  0  0  0  0  0  0
   -6.0050   22.9970  -31.4240 C   0  0  0  0  0  0  0  0  0  0  0  0
   -5.9500   24.3560  -30.8440 C   0  0  0  0  0  0  0  0  0  0  0  0
   -5.0680   25.3080  -31.2130 N   0  0  0  0  0  0  0  0  0  0  0  0
   -5.3600   26.3550  -30.4590 N   0  0  0  0  0  0  0  0  0  0  0  0
   -6.3730   26.0490  -29.6670 N   0  0  0  0  0  0  0  0  0  0  0  0
   -6.7720   24.8060  -29.8760 N   0  0  0  0  0  0  0  0  0  0  0  0
   -4.8650   22.4270  -32.0130 C   0  0  0  0  0  0  0  0  0  0  0  0
   -4.9180   21.1420  -32.5610 C   0  0  0  0  0  0  0  0  0  0  0  0
   -5.2370   18.6370  -34.0920 C   0  0  0  0  0  0  0  0  0  0  0  0
   -3.0208   16.1369  -34.2674 H   0  0  0  0  0  0  0  0  0  0  0  0
   -3.2840   15.2324  -35.7968 H   0  0  0  0  0  0  0  0  0  0  0  0
   -2.2852   16.7254  -35.7968 H   0  0  0  0  0  0  0  0  0  0  0  0
   -6.3203   15.4403  -34.6475 H   0  0  0  0  0  0  0  0  0  0  0  0
   -7.9766   16.1308  -32.9162 H   0  0  0  0  0  0  0  0  0  0  0  0
   -7.8857   18.4188  -31.9341 H   0  0  0  0  0  0  0  0  0  0  0  0
   -8.1938   20.4065  -31.9134 H   0  0  0  0  0  0  0  0  0  0  0  0
   -8.0990   22.6946  -30.9355 H   0  0  0  0  0  0  0  0  0  0  0  0
   -6.8000   26.6990  -28.9710 H   0  0  0  0  0  0  0  0  0  0  0  0
   -3.9237   22.9954  -32.0435 H   0  0  0  0  0  0  0  0  0  0  0  0
   -4.0175   20.7066  -33.0187 H   0  0  0  0  0  0  0  0  0  0  0  0
   -4.4623   19.3437  -34.4243 H   0  0  0  0  0  0  0  0  0  0  0  0
  1  2  1  0
  2  3  1  0
  3  4  2  0
  4  5  1  0
  5  6  2  0
  6  7  1  0
  7  8  1  0
  8  9  2  0
  9 10  1  0
 10 11  2  0
 11 12  1  0
 12 13  1  0
 13 14  2  0
 14 15  1  0
 15 16  1  0
 11 17  1  0
 17 18  2  0
  7 19  2  0
 19  3  1  0
 18  8  1  0
 16 12  2  0
  1 20  1  0
  1 21  1  0
  1 22  1  0
  4 23  1  0
  5 24  1  0
  6 25  1  0
  9 26  1  0
 10 27  1  0
 15 28  1  0
 17 29  1  0
 18 30  1  0
 19 31  1  0
M  END
>  <UniqueID>  (45) 
41

>  <SMILES>  (45) 
COc1cccc(-c2ccc(-c3nn[nH]n3)cc2)c1

>  <Energy>  (45) 
77.01757736075544

>  <Genealogy>  (45) 
COc1cccc(-c2ccc(-c3nn[nH]n3)cc2)c1 (3D coordinates assigned)
COc1cccc(-c2ccc(-c3nn[nH]n3)cc2)c1 (optimized conformer: 77.01757736075544 kcal/mol)

>  <smiles>  (45) 
COc1cccc(-c2ccc(-c3nn[nH]n3)cc2)c1

>  <score_type>  (45) 
oracle

>  <origin>  (45) 
adgpu

>  <m_score__min__energy>  (45) 
-7.96

>  <m_primary>  (45) 
energy

$$$$
45:0
     RDKit          3D

 44 46  0  0  0  0  0  0  0  0999 V2000
    1.4060   21.3650  -34.8940 C   0  0  0  0  0  0  0  0  0  0  0  0
    0.8880   21.3850  -33.5680 O   0  0  0  0  0  0  0  0  0  0  0  0
   -0.4650   21.2130  -33.2440 C   0  0  0  0  0  0  0  0  0  0  0  0
   -0.8860   21.5320  -31.9490 C   0  0  0  0  0  0  0  0  0  0  0  0
   -2.2250   21.3770  -31.5770 C   0  0  0  0  0  0  0  0  0  0  0  0
   -3.1640   20.8830  -32.4930 C   0  0  0  0  0  0  0  0  0  0  0  0
   -4.5390   20.7570  -32.0930 N   0  0  0  0  0  0  0  0  0  0  0  0
   -5.5700   20.1940  -32.9200 C   0  0  0  0  0  0  0  0  0  0  0  0
   -5.2830   19.5920  -33.9880 O   0  0  0  0  0  0  0  0  0  0  0  0
   -6.9750   20.2620  -32.4900 C   0  0  0  0  0  0  0  0  0  0  0  0
   -7.7640   19.1100  -32.2730 C   0  0  0  0  0  0  0  0  0  0  0  0
   -7.2520   17.7040  -32.3760 C   0  0  0  0  0  0  0  0  0  0  0  0
   -9.0830   19.3940  -31.9290 C   0  0  0  0  0  0  0  0  0  0  0  0
   -9.2830   21.0610  -31.9150 S   0  0  0  0  0  0  0  0  0  0  0  0
   -7.7020   21.4490  -32.3260 C   0  0  0  0  0  0  0  0  0  0  0  0
   -7.2260   22.8030  -32.4070 N   0  0  0  0  0  0  0  0  0  0  0  0
   -7.2890   23.7560  -31.2990 C   0  0  0  0  0  0  0  0  0  0  0  0
   -5.9310   23.9270  -30.6730 C   0  0  0  0  0  0  0  0  0  0  0  0
   -5.4210   22.9590  -29.7960 C   0  0  0  0  0  0  0  0  0  0  0  0
   -4.1450   23.1150  -29.2510 C   0  0  0  0  0  0  0  0  0  0  0  0
   -3.3840   24.2330  -29.5990 C   0  0  0  0  0  0  0  0  0  0  0  0
   -3.8850   25.1540  -30.4650 N   0  0  0  0  0  0  0  0  0  0  0  0
   -5.1250   25.0250  -31.0080 C   0  0  0  0  0  0  0  0  0  0  0  0
   -2.7490   20.5820  -33.8030 C   0  0  0  0  0  0  0  0  0  0  0  0
   -1.4100   20.7380  -34.1740 C   0  0  0  0  0  0  0  0  0  0  0  0
    2.5046   21.3226  -34.8579 H   0  0  0  0  0  0  0  0  0  0  0  0
    1.0222   20.4810  -35.4243 H   0  0  0  0  0  0  0  0  0  0  0  0
    1.0915   22.2760  -35.4243 H   0  0  0  0  0  0  0  0  0  0  0  0
   -0.1570   21.9083  -31.2163 H   0  0  0  0  0  0  0  0  0  0  0  0
   -2.5436   21.6445  -30.5587 H   0  0  0  0  0  0  0  0  0  0  0  0
   -4.7910   21.0400  -31.1200 H   0  0  0  0  0  0  0  0  0  0  0  0
   -7.1025   17.2934  -31.3665 H   0  0  0  0  0  0  0  0  0  0  0  0
   -7.9829   17.0864  -32.9185 H   0  0  0  0  0  0  0  0  0  0  0  0
   -6.2951   17.7011  -32.9185 H   0  0  0  0  0  0  0  0  0  0  0  0
   -9.8627   18.6513  -31.7043 H   0  0  0  0  0  0  0  0  0  0  0  0
   -6.9520   23.1500  -33.3560 H   0  0  0  0  0  0  0  0  0  0  0  0
   -7.6383   24.7281  -31.6771 H   0  0  0  0  0  0  0  0  0  0  0  0
   -7.9854   23.3723  -30.5389 H   0  0  0  0  0  0  0  0  0  0  0  0
   -6.0258   22.0773  -29.5375 H   0  0  0  0  0  0  0  0  0  0  0  0
   -3.7431   22.3646  -28.5543 H   0  0  0  0  0  0  0  0  0  0  0  0
   -2.3791   24.3687  -29.1725 H   0  0  0  0  0  0  0  0  0  0  0  0
   -5.4971   25.7839  -31.7120 H   0  0  0  0  0  0  0  0  0  0  0  0
   -3.4822   20.2218  -34.5397 H   0  0  0  0  0  0  0  0  0  0  0  0
   -1.0930   20.4885  -35.1974 H   0  0  0  0  0  0  0  0  0  0  0  0
  1  2  1  0
  2  3  1  0
  3  4  2  0
  4  5  1  0
  5  6  2  0
  6  7  1  0
  7  8  1  0
  8  9  2  0
  8 10  1  0
 10 11  1  0
 11 12  1  0
 11 13  2  0
 13 14  1  0
 14 15  1  0
 15 16  1  0
 16 17  1  0
 17 18  1  0
 18 19  2  0
 19 20  1  0
 20 21  2  0
 21 22  1  0
 22 23  2  0
  6 24  1  0
 24 25  2  0
 25  3  1  0
 15 10  2  0
 23 18  1  0
  1 26  1  0
  1 27  1  0
  1 28  1  0
  4 29  1  0
  5 30  1  0
  7 31  1  0
 12 32  1  0
 12 33  1  0
 12 34  1  0
 13 35  1  0
 16 36  1  0
 17 37  1  0
 17 38  1  0
 19 39  1  0
 20 40  1  0
 21 41  1  0
 23 42  1  0
 24 43  1  0
 25 44  1  0
M  END
>  <UniqueID>  (46) 
42

>  <SMILES>  (46) 
COc1ccc(NC(=O)c2c(C)csc2NCc2cccnc2)cc1

>  <Energy>  (46) 
81.78364495769998

>  <Genealogy>  (46) 
COc1ccc(NC(=O)c2c(C)csc2NCc2cccnc2)cc1 (3D coordinates assigned)
COc1ccc(NC(=O)c2c(C)csc2NCc2cccnc2)cc1 (optimized conformer: 81.78364495769998 kcal/mol)

>  <smiles>  (46) 
COc1ccc(NC(=O)c2c(C)csc2NCc2cccnc2)cc1

>  <score_type>  (46) 
oracle

>  <origin>  (46) 
adgpu

>  <m_score__min__energy>  (46) 
-8.4900000000000002

>  <m_primary>  (46) 
energy

$$$$
46:0
     RDKit          3D

 29 30  0  0  0  0  0  0  0  0999 V2000
   -8.5540   22.3460  -31.6070 C   0  0  0  0  0  0  0  0  0  0  0  0
   -7.2470   23.0330  -31.3460 C   0  0  0  0  0  0  0  0  0  0  0  0
   -7.1980   24.1730  -30.5300 C   0  0  0  0  0  0  0  0  0  0  0  0
   -5.9750   24.7920  -30.2570 C   0  0  0  0  0  0  0  0  0  0  0  0
   -4.7840   24.2750  -30.7830 C   0  0  0  0  0  0  0  0  0  0  0  0
   -3.5530   24.9430  -30.4760 N   0  0  0  0  0  0  0  0  0  0  0  0
   -2.5140   24.5600  -29.1420 S   0  0  0  0  0  0  0  0  0  0  0  0
   -1.4890   25.6420  -28.9560 O   0  0  0  0  0  0  0  0  0  0  0  0
   -3.3400   24.4340  -27.8920 O   0  0  0  0  0  0  0  0  0  0  0  0
   -1.6880   23.0350  -29.4810 C   0  0  0  0  0  0  0  0  0  0  0  0
   -1.8360   22.4290  -30.7390 C   0  0  0  0  0  0  0  0  0  0  0  0
   -1.1880   21.2230  -31.0260 C   0  0  0  0  0  0  0  0  0  0  0  0
   -1.3800   20.4760  -32.6020 Cl  0  0  0  0  0  0  0  0  0  0  0  0
   -0.3860   20.6130  -30.0580 C   0  0  0  0  0  0  0  0  0  0  0  0
   -0.2320   21.2070  -28.8040 C   0  0  0  0  0  0  0  0  0  0  0  0
   -0.8760   22.4130  -28.5070 C   0  0  0  0  0  0  0  0  0  0  0  0
   -0.6430   23.1120  -26.9080 Cl  0  0  0  0  0  0  0  0  0  0  0  0
   -4.8310   23.1230  -31.5880 C   0  0  0  0  0  0  0  0  0  0  0  0
   -6.0540   22.5030  -31.8600 C   0  0  0  0  0  0  0  0  0  0  0  0
   -9.0334   22.0940  -30.6496 H   0  0  0  0  0  0  0  0  0  0  0  0
   -9.2116   23.0150  -32.1815 H   0  0  0  0  0  0  0  0  0  0  0  0
   -8.3758   21.4250  -32.1815 H   0  0  0  0  0  0  0  0  0  0  0  0
   -8.1259   24.5814  -30.1032 H   0  0  0  0  0  0  0  0  0  0  0  0
   -5.9475   25.6916  -29.6246 H   0  0  0  0  0  0  0  0  0  0  0  0
   -2.4660   22.9060  -31.5042 H   0  0  0  0  0  0  0  0  0  0  0  0
    0.1240   19.6649  -30.2839 H   0  0  0  0  0  0  0  0  0  0  0  0
    0.3999   20.7236  -28.0444 H   0  0  0  0  0  0  0  0  0  0  0  0
   -3.9017   22.7081  -32.0053 H   0  0  0  0  0  0  0  0  0  0  0  0
   -6.0811   21.5949  -32.4802 H   0  0  0  0  0  0  0  0  0  0  0  0
  1  2  1  0
  2  3  2  0
  3  4  1  0
  4  5  2  0
  5  6  1  0
  6  7  1  0
  7  8  2  0
  7  9  2  0
  7 10  1  0
 10 11  2  0
 11 12  1  0
 12 13  1  0
 12 14  2  0
 14 15  1  0
 15 16  2  0
 16 17  1  0
  5 18  1  0
 18 19  2  0
 19  2  1  0
 16 10  1  0
  1 20  1  0
  1 21  1  0
  1 22  1  0
  3 23  1  0
  4 24  1  0
 11 25  1  0
 14 26  1  0
 15 27  1  0
 18 28  1  0
 19 29  1  0
M  CHG  1   6  -1
M  END
>  <UniqueID>  (47) 
43

>  <SMILES>  (47) 
Cc1ccc([N-]S(=O)(=O)c2cc(Cl)ccc2Cl)cc1

>  <Energy>  (47) 
34.23409417721703

>  <Genealogy>  (47) 
Cc1ccc([N-]S(=O)(=O)c2cc(Cl)ccc2Cl)cc1 (protonated)
Cc1ccc([N-]S(=O)(=O)c2cc(Cl)ccc2Cl)cc1 (3D coordinates assigned)
Cc1ccc([N-]S(=O)(=O)c2cc(Cl)ccc2Cl)cc1 (optimized conformer: 34.23409417721703 kcal/mol)

>  <smiles>  (47) 
Cc1ccc(NS(=O)(=O)c2cc(Cl)ccc2Cl)cc1

>  <score_type>  (47) 
oracle

>  <origin>  (47) 
adgpu

>  <m_score__min__energy>  (47) 
-8.7799999999999994

>  <m_primary>  (47) 
energy

$$$$
47:0
     RDKit          3D

 42 44  0  0  0  0  0  0  0  0999 V2000
   -5.7510   25.2600  -29.5040 C   0  0  0  0  0  0  0  0  0  0  0  0
   -4.4990   24.4360  -29.5730 C   0  0  0  0  0  0  0  0  0  0  0  0
   -3.5300   24.5390  -28.5650 C   0  0  0  0  0  0  0  0  0  0  0  0
   -2.3840   23.7430  -28.6090 C   0  0  0  0  0  0  0  0  0  0  0  0
   -2.2020   22.8290  -29.6500 C   0  0  0  0  0  0  0  0  0  0  0  0
   -3.1700   22.6980  -30.6640 C   0  0  0  0  0  0  0  0  0  0  0  0
   -2.9970   21.7490  -31.7430 N   0  0  0  0  0  0  0  0  0  0  0  0
   -1.6820   21.5430  -32.3570 C   0  0  0  0  0  0  0  0  0  0  0  0
   -4.1470   21.1200  -32.3390 C   0  0  0  0  0  0  0  0  0  0  0  0
   -4.6170   21.5780  -33.4620 N   0  0  0  0  0  0  0  0  0  0  0  0
   -4.7380   19.9740  -31.7010 N   0  0  0  0  0  0  0  0  0  0  0  0
   -6.0870   19.5320  -31.9350 C   0  0  0  0  0  0  0  0  0  0  0  0
   -6.3220   18.2070  -32.3410 C   0  0  0  0  0  0  0  0  0  0  0  0
   -7.6150   17.7680  -32.6240 C   0  0  0  0  0  0  0  0  0  0  0  0
   -8.6940   18.6450  -32.5190 C   0  0  0  0  0  0  0  0  0  0  0  0
   -8.4870   19.9740  -32.1270 C   0  0  0  0  0  0  0  0  0  0  0  0
   -9.5750   20.8550  -32.0220 C   0  0  0  0  0  0  0  0  0  0  0  0
   -9.3730   22.1770  -31.6230 C   0  0  0  0  0  0  0  0  0  0  0  0
   -8.0890   22.6300  -31.3190 C   0  0  0  0  0  0  0  0  0  0  0  0
   -6.9950   21.7660  -31.4190 C   0  0  0  0  0  0  0  0  0  0  0  0
   -7.1760   20.4300  -31.8320 C   0  0  0  0  0  0  0  0  0  0  0  0
   -4.3230   23.5040  -30.6070 C   0  0  0  0  0  0  0  0  0  0  0  0
   -6.0171   25.4351  -28.4511 H   0  0  0  0  0  0  0  0  0  0  0  0
   -5.5831   26.2247  -30.0051 H   0  0  0  0  0  0  0  0  0  0  0  0
   -6.5706   24.7242  -30.0051 H   0  0  0  0  0  0  0  0  0  0  0  0
   -3.6731   25.2490  -27.7371 H   0  0  0  0  0  0  0  0  0  0  0  0
   -1.6217   23.8357  -27.8214 H   0  0  0  0  0  0  0  0  0  0  0  0
   -1.2953   22.2068  -29.6776 H   0  0  0  0  0  0  0  0  0  0  0  0
   -0.9239   21.4242  -31.5689 H   0  0  0  0  0  0  0  0  0  0  0  0
   -1.7067   20.6378  -32.9814 H   0  0  0  0  0  0  0  0  0  0  0  0
   -1.4286   22.4124  -32.9814 H   0  0  0  0  0  0  0  0  0  0  0  0
   -5.4180   21.1210  -33.9510 H   0  0  0  0  0  0  0  0  0  0  0  0
   -4.1750   22.4020  -33.9280 H   0  0  0  0  0  0  0  0  0  0  0  0
   -4.2050   19.5010  -30.9380 H   0  0  0  0  0  0  0  0  0  0  0  0
   -5.4772   17.5091  -32.4365 H   0  0  0  0  0  0  0  0  0  0  0  0
   -7.7845   16.7255  -32.9314 H   0  0  0  0  0  0  0  0  0  0  0  0
   -9.7111   18.2922  -32.7447 H   0  0  0  0  0  0  0  0  0  0  0  0
  -10.5904   20.5020  -32.2551 H   0  0  0  0  0  0  0  0  0  0  0  0
  -10.2288   22.8639  -31.5480 H   0  0  0  0  0  0  0  0  0  0  0  0
   -7.9370   23.6715  -30.9993 H   0  0  0  0  0  0  0  0  0  0  0  0
   -5.9865   22.1305  -31.1740 H   0  0  0  0  0  0  0  0  0  0  0  0
   -5.0958   23.4017  -31.3831 H   0  0  0  0  0  0  0  0  0  0  0  0
  1  2  1  0
  2  3  2  0
  3  4  1  0
  4  5  2  0
  5  6  1  0
  6  7  1  0
  7  8  1  0
  7  9  1  0
  9 10  2  0
  9 11  1  0
 11 12  1  0
 12 13  2  0
 13 14  1  0
 14 15  2  0
 15 16  1  0
 16 17  2  0
 17 18  1  0
 18 19  2  0
 19 20  1  0
 20 21  2  0
  6 22  2  0
 22  2  1  0
 21 12  1  0
 21 16  1  0
  1 23  1  0
  1 24  1  0
  1 25  1  0
  3 26  1  0
  4 27  1  0
  5 28  1  0
  8 29  1  0
  8 30  1  0
  8 31  1  0
 10 32  1  0
 10 33  1  0
 11 34  1  0
 13 35  1  0
 14 36  1  0
 15 37  1  0
 17 38  1  0
 18 39  1  0
 19 40  1  0
 20 41  1  0
 22 42  1  0
M  CHG  1  10   1
M  END
>  <UniqueID>  (48) 
44

>  <SMILES>  (48) 
Cc1cccc(N(C)C(=[NH2+])Nc2cccc3ccccc23)c1

>  <Energy>  (48) 
60.475966861573504

>  <Genealogy>  (48) 
Cc1cccc(N(C)C(=[NH2+])Nc2cccc3ccccc23)c1 (protonated)
Cc1cccc(N(C)C(=[NH2+])Nc2cccc3ccccc23)c1 (3D coordinates assigned)
Cc1cccc(N(C)C(=[NH2+])Nc2cccc3ccccc23)c1 (optimized conformer: 60.475966861573504 kcal/mol)

>  <smiles>  (48) 
Cc1cccc(N(C)C(=N)Nc2cccc3ccccc23)c1

>  <score_type>  (48) 
oracle

>  <origin>  (48) 
adgpu

>  <m_score__min__energy>  (48) 
-7.8300000000000001

>  <m_primary>  (48) 
energy

$$$$
48:0
     RDKit          3D

 34 36  0  0  0  0  0  0  0  0999 V2000
   -7.1710   18.3100  -31.7470 C   0  0  0  0  0  0  0  0  0  0  0  0
   -6.3590   18.2060  -33.0000 C   0  0  0  0  0  0  0  0  0  0  0  0
   -6.7480   17.4390  -34.0430 N   0  0  0  0  0  0  0  0  0  0  0  0
   -5.7510   17.5620  -34.9390 C   0  0  0  0  0  0  0  0  0  0  0  0
   -4.7770   18.3910  -34.4340 C   0  0  0  0  0  0  0  0  0  0  0  0
   -5.1620   18.8060  -33.2140 N   0  0  0  0  0  0  0  0  0  0  0  0
   -4.4070   19.6910  -32.3680 C   0  0  0  0  0  0  0  0  0  0  0  0
   -4.8660   20.1310  -31.1720 N   0  0  0  0  0  0  0  0  0  0  0  0
   -4.0080   20.9260  -30.5360 N   0  0  0  0  0  0  0  0  0  0  0  0
   -2.8590   21.1210  -31.2170 C   0  0  0  0  0  0  0  0  0  0  0  0
   -1.5160   22.1490  -30.6270 S   0  0  0  0  0  0  0  0  0  0  0  0
   -2.5070   22.9810  -29.3370 C   0  0  0  0  0  0  0  0  0  0  0  0
   -2.7160   24.4200  -29.6820 C   0  0  0  0  0  0  0  0  0  0  0  0
   -1.8960   25.2860  -29.2720 O   0  0  0  0  0  0  0  0  0  0  0  0
   -3.8560   24.8000  -30.4620 N   0  0  0  0  0  0  0  0  0  0  0  0
   -5.0350   24.0160  -30.6960 C   0  0  0  0  0  0  0  0  0  0  0  0
   -6.0460   23.8770  -29.7270 C   0  0  0  0  0  0  0  0  0  0  0  0
   -7.2060   23.1530  -30.0170 C   0  0  0  0  0  0  0  0  0  0  0  0
   -7.3740   22.5740  -31.2800 C   0  0  0  0  0  0  0  0  0  0  0  0
   -8.9700   21.6060  -31.6810 Br  0  0  0  0  0  0  0  0  0  0  0  0
   -6.3810   22.7240  -32.2530 C   0  0  0  0  0  0  0  0  0  0  0  0
   -5.2200   23.4470  -31.9630 C   0  0  0  0  0  0  0  0  0  0  0  0
   -2.8530   20.2770  -32.6720 S   0  0  0  0  0  0  0  0  0  0  0  0
   -6.5087   18.2252  -30.8728 H   0  0  0  0  0  0  0  0  0  0  0  0
   -7.6864   19.2815  -31.7237 H   0  0  0  0  0  0  0  0  0  0  0  0
   -7.9146   17.4998  -31.7237 H   0  0  0  0  0  0  0  0  0  0  0  0
   -5.7201   17.0740  -35.9244 H   0  0  0  0  0  0  0  0  0  0  0  0
   -3.8414   18.6679  -34.9419 H   0  0  0  0  0  0  0  0  0  0  0  0
   -3.4844   22.4832  -29.2545 H   0  0  0  0  0  0  0  0  0  0  0  0
   -1.9675   22.9200  -28.3803 H   0  0  0  0  0  0  0  0  0  0  0  0
   -5.9228   24.3402  -28.7369 H   0  0  0  0  0  0  0  0  0  0  0  0
   -7.9877   23.0382  -29.2516 H   0  0  0  0  0  0  0  0  0  0  0  0
   -6.5134   22.2728  -33.2474 H   0  0  0  0  0  0  0  0  0  0  0  0
   -4.4462   23.5700  -32.7351 H   0  0  0  0  0  0  0  0  0  0  0  0
  1  2  1  0
  2  3  2  0
  3  4  1  0
  4  5  2  0
  5  6  1  0
  6  7  1  0
  7  8  2  0
  8  9  1  0
  9 10  2  0
 10 11  1  0
 11 12  1  0
 12 13  1  0
 13 14  2  0
 13 15  1  0
 15 16  1  0
 16 17  2  0
 17 18  1  0
 18 19  2  0
 19 20  1  0
 19 21  1  0
 21 22  2  0
 10 23  1  0
  6  2  1  0
 23  7  1  0
 22 16  1  0
  1 24  1  0
  1 25  1  0
  1 26  1  0
  4 27  1  0
  5 28  1  0
 12 29  1  0
 12 30  1  0
 17 31  1  0
 18 32  1  0
 21 33  1  0
 22 34  1  0
M  CHG  1  15  -1
M  END
>  <UniqueID>  (49) 
45

>  <SMILES>  (49) 
Cc1nccn1-c1nnc(SCC(=O)[N-]c2ccc(Br)cc2)s1

>  <Energy>  (49) 
96.90267187459628

>  <Genealogy>  (49) 
Cc1nccn1-c1nnc(SCC(=O)[N-]c2ccc(Br)cc2)s1 (protonated)
Cc1nccn1-c1nnc(SCC(=O)[N-]c2ccc(Br)cc2)s1 (3D coordinates assigned)
Cc1nccn1-c1nnc(SCC(=O)[N-]c2ccc(Br)cc2)s1 (optimized conformer: 96.90267187459628 kcal/mol)

>  <smiles>  (49) 
Cc1nccn1-c1nnc(SCC(=O)Nc2ccc(Br)cc2)s1

>  <score_type>  (49) 
oracle

>  <origin>  (49) 
adgpu

>  <m_score__min__energy>  (49) 
-10.42

>  <m_primary>  (49) 
energy

$$$$
49:0
     RDKit          3D

 34 36  0  0  0  0  0  0  0  0999 V2000
   -7.8645   23.3492  -32.7881 H   0  0  0  0  0  0  0  0  0  0  0  0
   -6.9810   23.2670  -32.1380 C   0  0  0  0  0  0  0  0  0  0  0  0
   -6.0910   24.5520  -31.5100 S   0  0  0  0  0  0  0  0  0  0  0  0
   -5.0030   23.5530  -30.7160 C   0  0  0  0  0  0  0  0  0  0  0  0
   -4.0300   24.0000  -29.9760 N   0  0  0  0  0  0  0  0  0  0  0  0
   -3.0230   23.2090  -29.3290 C   0  0  0  0  0  0  0  0  0  0  0  0
   -1.6790   23.6210  -29.2930 C   0  0  0  0  0  0  0  0  0  0  0  0
   -1.3763   24.5488  -29.8005 H   0  0  0  0  0  0  0  0  0  0  0  0
   -0.7270   22.8560  -28.6150 C   0  0  0  0  0  0  0  0  0  0  0  0
    0.3265   23.1724  -28.6059 H   0  0  0  0  0  0  0  0  0  0  0  0
   -1.1110   21.6890  -27.9480 C   0  0  0  0  0  0  0  0  0  0  0  0
   -0.3582   21.0816  -27.4242 H   0  0  0  0  0  0  0  0  0  0  0  0
   -2.4530   21.2940  -27.9470 C   0  0  0  0  0  0  0  0  0  0  0  0
   -2.9490   19.8050  -27.0780 S   0  0  0  0  0  0  0  0  0  0  0  0
   -1.2760   19.0900  -27.0990 C   0  0  0  0  0  0  0  0  0  0  0  0
   -0.9279   18.9412  -26.0662 H   0  0  0  0  0  0  0  0  0  0  0  0
   -1.2973   18.1224  -27.6217 H   0  0  0  0  0  0  0  0  0  0  0  0
   -0.5914   19.7741  -27.6217 H   0  0  0  0  0  0  0  0  0  0  0  0
   -3.4070   22.0570  -28.6300 C   0  0  0  0  0  0  0  0  0  0  0  0
   -4.4634   21.7508  -28.6180 H   0  0  0  0  0  0  0  0  0  0  0  0
   -5.3070   22.2450  -30.8950 N   0  0  0  0  0  0  0  0  0  0  0  0
   -4.7980   21.4460  -30.4580 H   0  0  0  0  0  0  0  0  0  0  0  0
   -6.4010   22.0800  -31.6890 C   0  0  0  0  0  0  0  0  0  0  0  0
   -6.9450   20.7450  -32.0130 C   0  0  0  0  0  0  0  0  0  0  0  0
   -8.2720   20.4060  -31.6650 C   0  0  0  0  0  0  0  0  0  0  0  0
   -9.3510   21.5570  -30.8820 Cl  0  0  0  0  0  0  0  0  0  0  0  0
   -8.7760   19.1390  -31.9790 C   0  0  0  0  0  0  0  0  0  0  0  0
   -9.8092   18.8781  -31.7062 H   0  0  0  0  0  0  0  0  0  0  0  0
   -7.9740   18.2040  -32.6370 C   0  0  0  0  0  0  0  0  0  0  0  0
   -8.3757   17.2093  -32.8801 H   0  0  0  0  0  0  0  0  0  0  0  0
   -6.6640   18.5310  -32.9860 C   0  0  0  0  0  0  0  0  0  0  0  0
   -6.0362   17.7916  -33.5049 H   0  0  0  0  0  0  0  0  0  0  0  0
   -6.1430   19.7920  -32.6810 C   0  0  0  0  0  0  0  0  0  0  0  0
   -4.4660   20.1250  -33.1040 Cl  0  0  0  0  0  0  0  0  0  0  0  0
  1  2  1  0
  2  3  1  0
  3  4  1  0
  4  5  2  0
  5  6  1  0
  6  7  2  0
  7  8  1  0
  7  9  1  0
  9 10  1  0
  9 11  2  0
 11 12  1  0
 11 13  1  0
 13 14  1  0
 14 15  1  0
 15 16  1  0
 15 17  1  0
 15 18  1  0
 13 19  2  0
 19 20  1  0
  4 21  1  0
 21 22  1  0
 21 23  1  0
 23 24  1  0
 24 25  2  0
 25 26  1  0
 25 27  1  0
 27 28  1  0
 27 29  2  0
 29 30  1  0
 29 31  1  0
 31 32  1  0
 31 33  2  0
 33 34  1  0
 23  2  2  0
 33 24  1  0
 19  6  1  0
M  END
>  <UniqueID>  (50) 
46

>  <SMILES>  (50) 
CSc1cccc(/N=c2\[nH]c(-c3c(Cl)cccc3Cl)cs2)c1

>  <Energy>  (50) 
77.34655828376287

>  <Genealogy>  (50) 
CSc1cccc(/N=c2\[nH]c(-c3c(Cl)cccc3Cl)cs2)c1 (cis-trans isomerization)
CSc1cccc(/N=c2\[nH]c(-c3c(Cl)cccc3Cl)cs2)c1 (3D coordinates assigned)
CSc1cccc(/N=c2\[nH]c(-c3c(Cl)cccc3Cl)cs2)c1 (optimized conformer: 77.34655828376287 kcal/mol)

>  <smiles>  (50) 
CSc1cccc(N=c2[nH]c(-c3c(Cl)cccc3Cl)cs2)c1

>  <score_type>  (50) 
oracle

>  <origin>  (50) 
adgpu

>  <m_score__min__energy>  (50) 
-8.3599999999999994

>  <m_primary>  (50) 
energy

$$$$
