0:0
     RDKit          3D

 56 59  0  0  0  0  0  0  0  0999 V2000
   -6.4480   17.3490  -31.8360 C   0  0  0  0  0  0  0  0  0  0  0  0
   -7.2210   18.0890  -32.8470 N   0  0  0  0  0  0  0  0  0  0  0  0
   -6.4310   19.1560  -33.5080 C   0  0  0  0  0  0  0  0  0  0  0  0
   -6.8490   20.5790  -33.0930 C   0  0  0  0  0  0  0  0  0  0  0  0
   -7.1910   20.6200  -31.6620 N   0  0  0  0  0  0  0  0  0  0  0  0
   -7.4990   22.2670  -31.1680 S   0  0  0  0  0  0  0  0  0  0  0  0
   -8.4170   22.2760  -29.9770 O   0  0  0  0  0  0  0  0  0  0  0  0
   -8.1570   23.0300  -32.2840 O   0  0  0  0  0  0  0  0  0  0  0  0
   -5.9840   23.0500  -30.7220 C   0  0  0  0  0  0  0  0  0  0  0  0
   -5.9770   24.0530  -29.7450 C   0  0  0  0  0  0  0  0  0  0  0  0
   -4.7750   24.6530  -29.3610 C   0  0  0  0  0  0  0  0  0  0  0  0
   -3.5670   24.2620  -29.9480 C   0  0  0  0  0  0  0  0  0  0  0  0
   -2.3800   24.8670  -29.5080 O   0  0  0  0  0  0  0  0  0  0  0  0
   -1.8790   24.8360  -28.1980 C   0  0  0  0  0  0  0  0  0  0  0  0
   -1.6150   26.0270  -27.4980 C   0  0  0  0  0  0  0  0  0  0  0  0
   -1.1170   25.9880  -26.1940 C   0  0  0  0  0  0  0  0  0  0  0  0
   -0.8870   24.7630  -25.5710 C   0  0  0  0  0  0  0  0  0  0  0  0
   -1.1670   23.5730  -26.2440 C   0  0  0  0  0  0  0  0  0  0  0  0
   -1.6800   23.5910  -27.5570 C   0  0  0  0  0  0  0  0  0  0  0  0
   -1.9610   22.2830  -28.2860 C   0  0  1  0  0  0  0  0  0  0  0  0
   -0.8740   21.2440  -28.0510 C   0  0  0  0  0  0  0  0  0  0  0  0
   -1.6290   19.9360  -27.9590 C   0  0  0  0  0  0  0  0  0  0  0  0
   -2.9570   20.2350  -27.4290 N   0  0  0  0  0  0  0  0  0  0  0  0
   -3.2670   21.6060  -27.8430 C   0  0  0  0  0  0  0  0  0  0  0  0
   -3.5720   23.2400  -30.9150 C   0  0  0  0  0  0  0  0  0  0  0  0
   -4.7750   22.6430  -31.3040 C   0  0  0  0  0  0  0  0  0  0  0  0
   -8.3590   19.7620  -31.3490 C   0  0  0  0  0  0  0  0  0  0  0  0
   -8.5130   18.5640  -32.3130 C   0  0  0  0  0  0  0  0  0  0  0  0
   -6.7699   17.6572  -30.8303 H   0  0  0  0  0  0  0  0  0  0  0  0
   -6.6193   16.2697  -31.9611 H   0  0  0  0  0  0  0  0  0  0  0  0
   -5.3771   17.5672  -31.9611 H   0  0  0  0  0  0  0  0  0  0  0  0
   -5.3712   19.0153  -33.2489 H   0  0  0  0  0  0  0  0  0  0  0  0
   -6.6123   19.0688  -34.5895 H   0  0  0  0  0  0  0  0  0  0  0  0
   -6.0164   21.2715  -33.2860 H   0  0  0  0  0  0  0  0  0  0  0  0
   -7.7322   20.8748  -33.6781 H   0  0  0  0  0  0  0  0  0  0  0  0
   -6.3630   20.2930  -31.1110 H   0  0  0  0  0  0  0  0  0  0  0  0
   -6.9213   24.3698  -29.2781 H   0  0  0  0  0  0  0  0  0  0  0  0
   -4.7787   25.4388  -28.5912 H   0  0  0  0  0  0  0  0  0  0  0  0
   -1.8023   26.9970  -27.9817 H   0  0  0  0  0  0  0  0  0  0  0  0
   -0.9061   26.9252  -25.6581 H   0  0  0  0  0  0  0  0  0  0  0  0
   -0.4844   24.7340  -24.5478 H   0  0  0  0  0  0  0  0  0  0  0  0
   -0.9854   22.6100  -25.7443 H   0  0  0  0  0  0  0  0  0  0  0  0
   -2.0167   22.5865  -29.3418 H   0  0  0  0  0  0  0  0  0  0  0  0
   -0.1626   21.2263  -28.8898 H   0  0  0  0  0  0  0  0  0  0  0  0
   -0.2780   21.4522  -27.1502 H   0  0  0  0  0  0  0  0  0  0  0  0
   -1.7160   19.4810  -28.9567 H   0  0  0  0  0  0  0  0  0  0  0  0
   -1.1001   19.2272  -27.3049 H   0  0  0  0  0  0  0  0  0  0  0  0
   -2.8920   20.2220  -26.3820 H   0  0  0  0  0  0  0  0  0  0  0  0
   -3.9800   21.5894  -28.6804 H   0  0  0  0  0  0  0  0  0  0  0  0
   -3.7174   22.1616  -27.0073 H   0  0  0  0  0  0  0  0  0  0  0  0
   -2.6253   22.9092  -31.3670 H   0  0  0  0  0  0  0  0  0  0  0  0
   -4.7730   21.8521  -32.0685 H   0  0  0  0  0  0  0  0  0  0  0  0
   -8.2434   19.3744  -30.3260 H   0  0  0  0  0  0  0  0  0  0  0  0
   -9.2592   20.3849  -31.4569 H   0  0  0  0  0  0  0  0  0  0  0  0
   -8.9948   17.7367  -31.7712 H   0  0  0  0  0  0  0  0  0  0  0  0
   -9.1198   18.9015  -33.1662 H   0  0  0  0  0  0  0  0  0  0  0  0
  1  2  1  0
  2  3  1  0
  3  4  1  0
  4  5  1  0
  5  6  1  0
  6  7  2  0
  6  8  2  0
  6  9  1  0
  9 10  2  0
 10 11  1  0
 11 12  2  0
 12 13  1  0
 13 14  1  0
 14 15  2  0
 15 16  1  0
 16 17  2  0
 17 18  1  0
 18 19  2  0
 19 20  1  0
 20 21  1  0
 21 22  1  0
 22 23  1  0
 23 24  1  0
 12 25  1  0
 25 26  2  0
  5 27  1  0
 27 28  1  0
 28  2  1  0
 26  9  1  0
 19 14  1  0
 24 20  1  0
  1 29  1  0
  1 30  1  0
  1 31  1  0
  3 32  1  0
  3 33  1  0
  4 34  1  0
  4 35  1  0
  5 36  1  0
 10 37  1  0
 11 38  1  0
 15 39  1  0
 16 40  1  0
 17 41  1  0
 18 42  1  0
 20 43  1  6
 21 44  1  0
 21 45  1  0
 22 46  1  0
 22 47  1  0
 23 48  1  0
 24 49  1  0
 24 50  1  0
 25 51  1  0
 26 52  1  0
 27 53  1  0
 27 54  1  0
 28 55  1  0
 28 56  1  0
M  CHG  1   5   1
M  END
>  <UniqueID>  (1) 
1

>  <SMILES>  (1) 
CN1CC[NH+](S(=O)(=O)c2ccc(Oc3ccccc3[C@H]3CCNC3)cc2)CC1

>  <Energy>  (1) 
77.17162131056453

>  <Genealogy>  (1) 
CN1CC[NH+](S(=O)(=O)c2ccc(Oc3ccccc3C3CCNC3)cc2)CC1 (protonated)
CN1CC[NH+](S(=O)(=O)c2ccc(Oc3ccccc3[C@H]3CCNC3)cc2)CC1 (chirality)
CN1CC[NH+](S(=O)(=O)c2ccc(Oc3ccccc3[C@H]3CCNC3)cc2)CC1 (3D coordinates assigned)
CN1CC[NH+](S(=O)(=O)c2ccc(Oc3ccccc3[C@H]3CCNC3)cc2)CC1 (nonaromatic ring conformer: 77.17162131056453 kcal/mol)

>  <smiles>  (1) 
CN1CCN(S(=O)(=O)c2ccc(Oc3ccccc3C3CCNC3)cc2)CC1

>  <score_type>  (1) 
oracle

>  <origin>  (1) 
adgpu

>  <m_score__min__energy>  (1) 
-8.8699999999999992

>  <m_primary>  (1) 
energy

$$$$
1:0
     RDKit          3D

 42 43  0  0  0  0  0  0  0  0999 V2000
   -3.8650   25.2250  -30.5730 N   0  0  0  0  0  0  0  0  0  0  0  0
   -5.2520   24.3000  -30.1190 S   0  0  0  0  0  0  0  0  0  0  0  0
   -6.4610   25.1920  -30.1010 O   0  0  0  0  0  0  0  0  0  0  0  0
   -5.0490   23.7330  -28.7430 O   0  0  0  0  0  0  0  0  0  0  0  0
   -5.4830   22.9870  -31.2690 C   0  0  0  0  0  0  0  0  0  0  0  0
   -4.4170   22.5420  -32.0630 C   0  0  0  0  0  0  0  0  0  0  0  0
   -4.6050   21.4920  -32.9650 C   0  0  0  0  0  0  0  0  0  0  0  0
   -5.8550   20.8750  -33.0740 C   0  0  0  0  0  0  0  0  0  0  0  0
   -6.9270   21.3040  -32.2760 C   0  0  0  0  0  0  0  0  0  0  0  0
   -8.2870   20.6690  -32.4240 C   0  0  0  0  0  0  0  0  0  0  0  0
   -8.3020   19.2130  -31.9360 C   0  0  0  0  0  0  0  0  0  0  0  0
   -6.9740   18.8030  -31.2840 C   0  0  0  0  0  0  0  0  0  0  0  0
   -6.5250   17.4120  -31.7560 C   0  0  0  0  0  0  0  0  0  0  0  0
   -7.2110   17.0020  -33.0760 C   0  0  0  0  0  0  0  0  0  0  0  0
   -6.2170   16.6930  -34.2090 C   0  0  0  0  0  0  0  0  0  0  0  0
   -5.3870   17.8860  -34.5960 C   0  0  0  0  0  0  0  0  0  0  0  0
   -5.9080   18.7990  -35.2900 O   0  0  0  0  0  0  0  0  0  0  0  0
   -3.9690   17.9860  -34.2110 C   0  0  0  0  0  0  0  0  0  0  0  0
   -3.1770   16.9560  -33.7630 C   0  0  0  0  0  0  0  0  0  0  0  0
   -1.9470   17.4320  -33.5050 N   0  0  0  0  0  0  0  0  0  0  0  0
   -2.0330   18.7460  -33.8030 C   0  0  0  0  0  0  0  0  0  0  0  0
   -3.2540   19.1250  -34.2380 N   0  0  0  0  0  0  0  0  0  0  0  0
   -6.7340   22.3670  -31.3770 C   0  0  0  0  0  0  0  0  0  0  0  0
   -3.4880   25.6560  -29.6990 H   0  0  0  0  0  0  0  0  0  0  0  0
   -3.4304   23.0206  -31.9756 H   0  0  0  0  0  0  0  0  0  0  0  0
   -3.7677   21.1498  -33.5910 H   0  0  0  0  0  0  0  0  0  0  0  0
   -5.9988   20.0504  -33.7877 H   0  0  0  0  0  0  0  0  0  0  0  0
   -9.0143   21.2476  -31.8356 H   0  0  0  0  0  0  0  0  0  0  0  0
   -8.5464   20.6702  -33.4930 H   0  0  0  0  0  0  0  0  0  0  0  0
   -9.1094   19.0956  -31.1982 H   0  0  0  0  0  0  0  0  0  0  0  0
   -8.4606   18.5664  -32.8116 H   0  0  0  0  0  0  0  0  0  0  0  0
   -6.2014   19.5387  -31.5519 H   0  0  0  0  0  0  0  0  0  0  0  0
   -7.1189   18.7692  -30.1941 H   0  0  0  0  0  0  0  0  0  0  0  0
   -5.4359   17.4233  -31.9100 H   0  0  0  0  0  0  0  0  0  0  0  0
   -6.8092   16.6822  -30.9836 H   0  0  0  0  0  0  0  0  0  0  0  0
   -7.8179   16.1037  -32.8895 H   0  0  0  0  0  0  0  0  0  0  0  0
   -7.8228   17.8555  -33.4036 H   0  0  0  0  0  0  0  0  0  0  0  0
   -5.5438   15.8891  -33.8767 H   0  0  0  0  0  0  0  0  0  0  0  0
   -6.8021   16.3956  -35.0917 H   0  0  0  0  0  0  0  0  0  0  0  0
   -3.4978   15.9115  -33.6362 H   0  0  0  0  0  0  0  0  0  0  0  0
   -1.1878   19.4426  -33.7010 H   0  0  0  0  0  0  0  0  0  0  0  0
   -7.5714   22.7143  -30.7540 H   0  0  0  0  0  0  0  0  0  0  0  0
  1  2  1  0
  2  3  2  0
  2  4  2  0
  2  5  1  0
  5  6  2  0
  6  7  1  0
  7  8  2  0
  8  9  1  0
  9 10  1  0
 10 11  1  0
 11 12  1  0
 12 13  1  0
 13 14  1  0
 14 15  1  0
 15 16  1  0
 16 17  2  0
 16 18  1  0
 18 19  2  0
 19 20  1  0
 20 21  1  0
 21 22  2  0
  9 23  2  0
 23  5  1  0
 22 18  1  0
  1 24  1  0
  6 25  1  0
  7 26  1  0
  8 27  1  0
 10 28  1  0
 10 29  1  0
 11 30  1  0
 11 31  1  0
 12 32  1  0
 12 33  1  0
 13 34  1  0
 13 35  1  0
 14 36  1  0
 14 37  1  0
 15 38  1  0
 15 39  1  0
 19 40  1  0
 21 41  1  0
 23 42  1  0
M  CHG  2   1  -1  20  -1
M  END
>  <UniqueID>  (2) 
2

>  <SMILES>  (2) 
[NH-]S(=O)(=O)c1cccc(CCCCCCC(=O)c2c[n-]cn2)c1

>  <Energy>  (2) 
55.972672998506155

>  <Genealogy>  (2) 
[NH-]S(=O)(=O)c1cccc(CCCCCCC(=O)c2c[n-]cn2)c1 (protonated)
[NH-]S(=O)(=O)c1cccc(CCCCCCC(=O)c2c[n-]cn2)c1 (3D coordinates assigned)
[NH-]S(=O)(=O)c1cccc(CCCCCCC(=O)c2c[n-]cn2)c1 (optimized conformer: 55.972672998506155 kcal/mol)

>  <smiles>  (2) 
NS(=O)(=O)c1cccc(CCCCCCC(=O)c2c[nH]cn2)c1

>  <score_type>  (2) 
oracle

>  <origin>  (2) 
adgpu

>  <m_score__min__energy>  (2) 
-10.630000000000001

>  <m_primary>  (2) 
energy

$$$$
2:0
     RDKit          3D

 47 50  0  0  0  0  0  0  0  0999 V2000
   -0.4430   19.3170  -29.1310 C   0  0  0  0  0  0  0  0  0  0  0  0
   -0.2700   19.9230  -27.7990 N   0  0  0  0  0  0  0  0  0  0  0  0
   -1.4070   19.6530  -26.8980 C   0  0  0  0  0  0  0  0  0  0  0  0
   -2.7090   20.3070  -27.3840 C   0  0  0  0  0  0  0  0  0  0  0  0
   -2.4980   21.7200  -27.8600 C   0  0  0  0  0  0  0  0  0  0  0  0
   -3.6160   22.5370  -28.0860 C   0  0  0  0  0  0  0  0  0  0  0  0
   -3.4650   23.8520  -28.5620 C   0  0  0  0  0  0  0  0  0  0  0  0
   -4.6050   24.7080  -28.7630 N   0  0  0  0  0  0  0  0  0  0  0  0
   -5.4920   24.7850  -30.2530 S   0  0  0  0  0  0  0  0  0  0  0  0
   -4.7560   25.6730  -31.2180 O   0  0  0  0  0  0  0  0  0  0  0  0
   -6.8530   25.3650  -29.9940 O   0  0  0  0  0  0  0  0  0  0  0  0
   -5.6850   23.1660  -30.9180 C   0  0  0  0  0  0  0  0  0  0  0  0
   -4.5980   22.5180  -31.5120 C   0  0  0  0  0  0  0  0  0  0  0  0
   -4.7600   21.2500  -32.0740 C   0  0  0  0  0  0  0  0  0  0  0  0
   -6.0210   20.6270  -32.0300 C   0  0  0  0  0  0  0  0  0  0  0  0
   -6.2510   19.2860  -32.6230 C   0  0  0  0  0  0  0  0  0  0  0  0
   -5.6680   18.9520  -33.8580 C   0  0  0  0  0  0  0  0  0  0  0  0
   -5.8850   17.6930  -34.4220 C   0  0  0  0  0  0  0  0  0  0  0  0
   -6.6950   16.7740  -33.7530 C   0  0  0  0  0  0  0  0  0  0  0  0
   -6.9000   15.6350  -34.2460 O   0  0  0  0  0  0  0  0  0  0  0  0
   -7.2650   17.1100  -32.5670 N   0  0  0  0  0  0  0  0  0  0  0  0
   -7.0680   18.3270  -31.9930 C   0  0  0  0  0  0  0  0  0  0  0  0
   -7.0630   21.2870  -31.4470 N   0  0  0  0  0  0  0  0  0  0  0  0
   -6.9260   22.5210  -30.8940 C   0  0  0  0  0  0  0  0  0  0  0  0
   -2.1730   24.3280  -28.8460 C   0  0  0  0  0  0  0  0  0  0  0  0
   -1.9860   25.6220  -29.3210 O   0  0  0  0  0  0  0  0  0  0  0  0
   -1.0580   23.5100  -28.6450 C   0  0  0  0  0  0  0  0  0  0  0  0
   -1.2110   22.2020  -28.1640 C   0  0  0  0  0  0  0  0  0  0  0  0
    0.0190   21.3680  -27.8830 C   0  0  0  0  0  0  0  0  0  0  0  0
   -0.7434   18.2648  -29.0189 H   0  0  0  0  0  0  0  0  0  0  0  0
   -1.2210   19.8635  -29.6842 H   0  0  0  0  0  0  0  0  0  0  0  0
    0.5063   19.3704  -29.6842 H   0  0  0  0  0  0  0  0  0  0  0  0
   -1.5593   18.5652  -26.8380 H   0  0  0  0  0  0  0  0  0  0  0  0
   -1.1639   20.0815  -25.9145 H   0  0  0  0  0  0  0  0  0  0  0  0
   -3.1151   19.7112  -28.2147 H   0  0  0  0  0  0  0  0  0  0  0  0
   -3.4059   20.3398  -26.5336 H   0  0  0  0  0  0  0  0  0  0  0  0
   -4.6242   22.1439  -27.8883 H   0  0  0  0  0  0  0  0  0  0  0  0
   -5.0080   25.2280  -27.9520 H   0  0  0  0  0  0  0  0  0  0  0  0
   -3.6134   23.0078  -31.5367 H   0  0  0  0  0  0  0  0  0  0  0  0
   -3.9075   20.7415  -32.5480 H   0  0  0  0  0  0  0  0  0  0  0  0
   -5.0381   19.6857  -34.3824 H   0  0  0  0  0  0  0  0  0  0  0  0
   -5.4221   17.4282  -35.3841 H   0  0  0  0  0  0  0  0  0  0  0  0
   -7.5489   18.5636  -31.0324 H   0  0  0  0  0  0  0  0  0  0  0  0
   -7.7920   23.0130  -30.4271 H   0  0  0  0  0  0  0  0  0  0  0  0
   -0.0518   23.8956  -28.8660 H   0  0  0  0  0  0  0  0  0  0  0  0
    0.7466   21.5334  -28.6912 H   0  0  0  0  0  0  0  0  0  0  0  0
    0.4126   21.6819  -26.9050 H   0  0  0  0  0  0  0  0  0  0  0  0
  1  2  1  0
  2  3  1  0
  3  4  1  0
  4  5  1  0
  5  6  2  0
  6  7  1  0
  7  8  1  0
  8  9  1  0
  9 10  2  0
  9 11  2  0
  9 12  1  0
 12 13  2  0
 13 14  1  0
 14 15  2  0
 15 16  1  0
 16 17  1  0
 17 18  2  0
 18 19  1  0
 19 20  2  0
 19 21  1  0
 21 22  1  0
 15 23  1  0
 23 24  2  0
  7 25  2  0
 25 26  1  0
 25 27  1  0
 27 28  2  0
 28 29  1  0
 29  2  1  0
 28  5  1  0
 24 12  1  0
 22 16  2  0
  1 30  1  0
  1 31  1  0
  1 32  1  0
  3 33  1  0
  3 34  1  0
  4 35  1  0
  4 36  1  0
  6 37  1  0
  8 38  1  0
 13 39  1  0
 14 40  1  0
 17 41  1  0
 18 42  1  0
 22 43  1  0
 24 44  1  0
 27 45  1  0
 29 46  1  0
 29 47  1  0
M  CHG  2  21  -1  26  -1
M  END
>  <UniqueID>  (3) 
3

>  <SMILES>  (3) 
CN1CCc2cc(NS(=O)(=O)c3ccc(-c4ccc(=O)[n-]c4)nc3)c([O-])cc2C1

>  <Energy>  (3) 
64.66231416155448

>  <Genealogy>  (3) 
CN1CCc2cc(NS(=O)(=O)c3ccc(-c4ccc(=O)[n-]c4)nc3)c([O-])cc2C1 (protonated)
CN1CCc2cc(NS(=O)(=O)c3ccc(-c4ccc(=O)[n-]c4)nc3)c([O-])cc2C1 (3D coordinates assigned)
CN1CCc2cc(NS(=O)(=O)c3ccc(-c4ccc(=O)[n-]c4)nc3)c([O-])cc2C1 (nonaromatic ring conformer: 64.66231416155448 kcal/mol)

>  <smiles>  (3) 
CN1CCc2cc(NS(=O)(=O)c3ccc(-c4ccc(=O)[nH]c4)nc3)c(O)cc2C1

>  <score_type>  (3) 
oracle

>  <origin>  (3) 
adgpu

>  <m_score__min__energy>  (3) 
-13.49

>  <m_primary>  (3) 
energy

$$$$
3:0
     RDKit          3D

 43 45  0  0  0  0  0  0  0  0999 V2000
   -3.6730   23.0090  -31.7150 O   0  0  0  0  0  0  0  0  0  0  0  0
   -3.7890   23.7500  -30.4140 S   0  0  0  0  0  0  0  0  0  0  0  0
   -3.8140   25.2290  -30.6940 O   0  0  0  0  0  0  0  0  0  0  0  0
   -5.2630   23.2630  -29.6200 N   0  0  0  0  0  0  0  0  0  0  0  0
   -6.4230   24.0290  -30.0840 C   0  0  0  0  0  0  0  0  0  0  0  0
   -6.6450   23.8550  -31.5910 C   0  0  0  0  0  0  0  0  0  0  0  0
   -7.3210   22.5420  -31.8780 C   0  0  0  0  0  0  0  0  0  0  0  0
   -8.6950   22.3820  -31.6340 C   0  0  0  0  0  0  0  0  0  0  0  0
   -9.3140   21.1510  -31.8740 C   0  0  0  0  0  0  0  0  0  0  0  0
   -8.5660   20.0720  -32.3490 C   0  0  0  0  0  0  0  0  0  0  0  0
   -7.1960   20.2190  -32.5820 C   0  0  0  0  0  0  0  0  0  0  0  0
   -6.5720   21.4480  -32.3440 C   0  0  0  0  0  0  0  0  0  0  0  0
   -2.3930   23.3470  -29.4080 C   0  0  0  0  0  0  0  0  0  0  0  0
   -2.1590   22.0090  -29.0570 C   0  0  0  0  0  0  0  0  0  0  0  0
   -1.0730   21.6630  -28.2350 C   0  0  0  0  0  0  0  0  0  0  0  0
   -0.8440   20.2480  -27.8580 C   0  0  0  0  0  0  0  0  0  0  0  0
   -1.7880   19.5810  -27.0570 C   0  0  0  0  0  0  0  0  0  0  0  0
   -1.5930   18.2450  -26.6960 C   0  0  0  0  0  0  0  0  0  0  0  0
   -0.4550   17.5620  -27.1270 C   0  0  0  0  0  0  0  0  0  0  0  0
    0.4940   18.2140  -27.9160 C   0  0  0  0  0  0  0  0  0  0  0  0
    0.3120   19.5570  -28.2810 C   0  0  0  0  0  0  0  0  0  0  0  0
    1.2830   20.2060  -29.0420 O   0  0  0  0  0  0  0  0  0  0  0  0
   -0.2020   22.6720  -27.7920 C   0  0  0  0  0  0  0  0  0  0  0  0
   -0.4180   24.0020  -28.1580 C   0  0  0  0  0  0  0  0  0  0  0  0
   -1.5070   24.3440  -28.9650 C   0  0  0  0  0  0  0  0  0  0  0  0
   -1.6940   25.6740  -29.3230 O   0  0  0  0  0  0  0  0  0  0  0  0
   -7.3185   23.6812  -29.5483 H   0  0  0  0  0  0  0  0  0  0  0  0
   -6.2358   25.0942  -29.8835 H   0  0  0  0  0  0  0  0  0  0  0  0
   -7.2774   24.6757  -31.9605 H   0  0  0  0  0  0  0  0  0  0  0  0
   -5.6687   23.8696  -32.0975 H   0  0  0  0  0  0  0  0  0  0  0  0
   -9.2862   23.2277  -31.2529 H   0  0  0  0  0  0  0  0  0  0  0  0
  -10.3917   21.0327  -31.6883 H   0  0  0  0  0  0  0  0  0  0  0  0
   -9.0554   19.1056  -32.5399 H   0  0  0  0  0  0  0  0  0  0  0  0
   -6.6075   19.3670  -32.9531 H   0  0  0  0  0  0  0  0  0  0  0  0
   -5.4921   21.5585  -32.5221 H   0  0  0  0  0  0  0  0  0  0  0  0
   -2.8324   21.2228  -29.4290 H   0  0  0  0  0  0  0  0  0  0  0  0
   -2.6861   20.1145  -26.7122 H   0  0  0  0  0  0  0  0  0  0  0  0
   -2.3380   17.7309  -26.0709 H   0  0  0  0  0  0  0  0  0  0  0  0
   -0.3058   16.5093  -26.8448 H   0  0  0  0  0  0  0  0  0  0  0  0
    1.3897   17.6721  -28.2537 H   0  0  0  0  0  0  0  0  0  0  0  0
    1.0350   20.8000  -29.8260 H   0  0  0  0  0  0  0  0  0  0  0  0
    0.6551   22.4129  -27.1531 H   0  0  0  0  0  0  0  0  0  0  0  0
    0.2721   24.7845  -27.8096 H   0  0  0  0  0  0  0  0  0  0  0  0
  1  2  2  0
  2  3  2  0
  2  4  1  0
  4  5  1  0
  5  6  1  0
  6  7  1  0
  7  8  2  0
  8  9  1  0
  9 10  2  0
 10 11  1  0
 11 12  2  0
  2 13  1  0
 13 14  2  0
 14 15  1  0
 15 16  1  0
 16 17  2  0
 17 18  1  0
 18 19  2  0
 19 20  1  0
 20 21  2  0
 21 22  1  0
 15 23  2  0
 23 24  1  0
 24 25  2  0
 25 26  1  0
 12  7  1  0
 25 13  1  0
 21 16  1  0
  5 27  1  0
  5 28  1  0
  6 29  1  0
  6 30  1  0
  8 31  1  0
  9 32  1  0
 10 33  1  0
 11 34  1  0
 12 35  1  0
 14 36  1  0
 17 37  1  0
 18 38  1  0
 19 39  1  0
 20 40  1  0
 22 41  1  0
 23 42  1  0
 24 43  1  0
M  CHG  2   4  -1  26  -1
M  END
>  <UniqueID>  (4) 
4

>  <SMILES>  (4) 
O=S(=O)([N-]CCc1ccccc1)c1cc(-c2ccccc2O)ccc1[O-]

>  <Energy>  (4) 
49.88108874569443

>  <Genealogy>  (4) 
O=S(=O)([N-]CCc1ccccc1)c1cc(-c2ccccc2O)ccc1[O-] (protonated)
O=S(=O)([N-]CCc1ccccc1)c1cc(-c2ccccc2O)ccc1[O-] (3D coordinates assigned)
O=S(=O)([N-]CCc1ccccc1)c1cc(-c2ccccc2O)ccc1[O-] (optimized conformer: 49.88108874569443 kcal/mol)

>  <smiles>  (4) 
O=S(=O)(NCCc1ccccc1)c1cc(-c2ccccc2O)ccc1O

>  <score_type>  (4) 
oracle

>  <origin>  (4) 
adgpu

>  <m_score__min__energy>  (4) 
-12.4

>  <m_primary>  (4) 
energy

$$$$
4:0
     RDKit          3D

 51 54  0  0  1  0  0  0  0  0999 V2000
   -9.6620   20.7670  -32.3060 N   0  0  0  0  0  0  0  0  0  0  0  0
   -8.7140   21.3890  -32.0120 C   0  0  0  0  0  0  0  0  0  0  0  0
   -7.5500   22.1420  -31.6750 C   0  0  0  0  0  0  0  0  0  0  0  0
   -7.6950   23.4450  -31.2190 C   0  0  0  0  0  0  0  0  0  0  0  0
   -6.5720   24.1990  -30.8840 C   0  0  0  0  0  0  0  0  0  0  0  0
   -5.3000   23.6690  -30.9970 C   0  0  0  0  0  0  0  0  0  0  0  0
   -4.1230   24.3890  -30.6700 N   0  0  0  0  0  0  0  0  0  0  0  0
   -3.6860   24.5140  -29.4610 C   0  0  0  0  0  0  0  0  0  0  0  0
   -4.3800   23.9340  -28.4630 N   0  0  0  0  0  0  0  0  0  0  0  0
   -3.9050   24.0780  -27.2110 C   0  0  0  0  0  0  0  0  0  0  0  0
   -2.7580   24.7810  -26.9100 C   0  0  0  0  0  0  0  0  0  0  0  0
   -2.0730   25.3640  -27.9770 C   0  0  0  0  0  0  0  0  0  0  0  0
   -0.9780   26.0440  -27.7470 N   0  0  0  0  0  0  0  0  0  0  0  0
   -0.4870   26.1850  -26.4050 C   0  0  0  0  0  0  0  0  0  0  0  0
   -0.5350   27.3920  -25.7330 C   0  0  0  0  0  0  0  0  0  0  0  0
   -0.0880   27.5500  -24.4940 N   0  0  0  0  0  0  0  0  0  0  0  0
    0.4350   26.4950  -23.8590 C   0  0  0  0  0  0  0  0  0  0  0  0
    0.5300   25.2330  -24.4450 C   0  0  0  0  0  0  0  0  0  0  0  0
    0.0510   25.1020  -25.7510 C   0  0  0  0  0  0  0  0  0  0  0  0
    0.1250   23.8400  -26.3940 N   0  0  0  0  0  0  0  0  0  0  0  0
   -0.0660   22.5990  -25.6330 C   0  0  0  0  0  0  0  0  0  0  0  0
   -1.2370   21.8560  -26.2840 C   0  0  0  0  0  0  0  0  0  0  0  0
   -0.7590   21.4480  -27.6660 C   0  0  0  0  0  0  0  0  0  0  0  0
   -0.5880   22.7310  -28.4630 C   0  0  2  0  0  0  0  0  0  0  0  0
   -0.1250   22.3990  -29.7760 N   0  0  0  0  0  0  0  0  0  0  0  0
    0.3870   23.6770  -27.8110 C   0  0  0  0  0  0  0  0  0  0  0  0
   -2.5440   25.2230  -29.2260 N   0  0  0  0  0  0  0  0  0  0  0  0
   -5.1430   22.3750  -31.4480 C   0  0  0  0  0  0  0  0  0  0  0  0
   -6.2680   21.6580  -31.7700 C   0  0  0  0  0  0  0  0  0  0  0  0
   -8.6991   23.8836  -31.1218 H   0  0  0  0  0  0  0  0  0  0  0  0
   -6.6994   25.2308  -30.5245 H   0  0  0  0  0  0  0  0  0  0  0  0
   -5.2550   23.3880  -28.6250 H   0  0  0  0  0  0  0  0  0  0  0  0
   -4.4614   23.6102  -26.3854 H   0  0  0  0  0  0  0  0  0  0  0  0
   -2.3987   24.8781  -25.8749 H   0  0  0  0  0  0  0  0  0  0  0  0
   -0.9642   28.2628  -26.2501 H   0  0  0  0  0  0  0  0  0  0  0  0
    0.8055   26.6285  -22.8319 H   0  0  0  0  0  0  0  0  0  0  0  0
    0.9627   24.3790  -23.9033 H   0  0  0  0  0  0  0  0  0  0  0  0
    0.8446   21.9836  -25.6776 H   0  0  0  0  0  0  0  0  0  0  0  0
   -0.2743   22.8134  -24.5744 H   0  0  0  0  0  0  0  0  0  0  0  0
   -1.5009   20.9665  -25.6931 H   0  0  0  0  0  0  0  0  0  0  0  0
   -2.1346   22.4895  -26.3394 H   0  0  0  0  0  0  0  0  0  0  0  0
    0.2007   20.9154  -27.5937 H   0  0  0  0  0  0  0  0  0  0  0  0
   -1.4790   20.7726  -28.1513 H   0  0  0  0  0  0  0  0  0  0  0  0
   -1.5622   23.2399  -28.5080 H   0  0  0  0  0  0  0  0  0  0  0  0
   -0.8180   22.5530  -30.5150 H   0  0  0  0  0  0  0  0  0  0  0  0
    0.2280   21.4310  -29.7870 H   0  0  0  0  0  0  0  0  0  0  0  0
    1.4052   23.2814  -27.9401 H   0  0  0  0  0  0  0  0  0  0  0  0
    0.2769   24.6606  -28.2910 H   0  0  0  0  0  0  0  0  0  0  0  0
   -2.0070   25.6720  -30.0010 H   0  0  0  0  0  0  0  0  0  0  0  0
   -4.1422   21.9294  -31.5470 H   0  0  0  0  0  0  0  0  0  0  0  0
   -6.1341   20.6266  -32.1282 H   0  0  0  0  0  0  0  0  0  0  0  0
  1  2  3  0
  2  3  1  0
  3  4  2  0
  4  5  1  0
  5  6  2  0
  6  7  1  0
  7  8  2  0
  8  9  1  0
  9 10  1  0
 10 11  2  0
 11 12  1  0
 12 13  2  0
 13 14  1  0
 14 15  2  0
 15 16  1  0
 16 17  2  0
 17 18  1  0
 18 19  2  0
 19 20  1  0
 20 21  1  0
 21 22  1  0
 22 23  1  0
 23 24  1  0
 24 25  1  0
 24 26  1  0
 12 27  1  0
  6 28  1  0
 28 29  2  0
 29  3  1  0
 27  8  1  0
 19 14  1  0
 26 20  1  0
  4 30  1  0
  5 31  1  0
  9 32  1  0
 10 33  1  0
 11 34  1  0
 15 35  1  0
 17 36  1  0
 18 37  1  0
 21 38  1  0
 21 39  1  0
 22 40  1  0
 22 41  1  0
 23 42  1  0
 23 43  1  0
 24 44  1  6
 25 45  1  0
 25 46  1  0
 26 47  1  0
 26 48  1  0
 27 49  1  0
 28 50  1  0
 29 51  1  0
M  END
>  <smiles>  (5) 
N#Cc1ccc(N=c2[nH]ccc(=Nc3cnccc3N3CCCC(N)C3)[nH]2)cc1

>  <score_type>  (5) 
oracle

>  <origin>  (5) 
adgpu

>  <m_score__min__energy>  (5) 
-9.9900000000000002

>  <m_primary>  (5) 
energy

$$$$
5:0
     RDKit          3D

 56 59  0  0  0  0  0  0  0  0999 V2000
   -0.8470   21.2900  -34.3530 C   0  0  0  0  0  0  0  0  0  0  0  0
   -0.3230   20.6410  -33.1080 C   0  0  0  0  0  0  0  0  0  0  0  0
   -1.0690   20.6580  -31.9220 C   0  0  0  0  0  0  0  0  0  0  0  0
   -0.5850   20.0250  -30.7730 C   0  0  0  0  0  0  0  0  0  0  0  0
    0.6580   19.3660  -30.7860 C   0  0  0  0  0  0  0  0  0  0  0  0
    1.1120   18.6110  -29.5390 C   0  0  0  0  0  0  0  0  0  0  0  0
   -0.0310   17.8450  -28.8140 C   0  0  0  0  0  0  0  0  0  0  0  0
   -0.4860   18.4980  -27.4910 C   0  0  0  0  0  0  0  0  0  0  0  0
   -0.3650   19.9640  -27.5430 N   0  0  0  0  0  0  0  0  0  0  0  0
   -1.4610   20.8030  -27.1210 C   0  0  0  0  0  0  0  0  0  0  0  0
   -2.3860   20.3330  -26.4030 O   0  0  0  0  0  0  0  0  0  0  0  0
   -1.5490   22.2020  -27.5600 C   0  0  0  0  0  0  0  0  0  0  0  0
   -0.7990   23.1960  -26.9210 C   0  0  0  0  0  0  0  0  0  0  0  0
   -0.8240   24.5080  -27.4010 C   0  0  0  0  0  0  0  0  0  0  0  0
   -1.5810   24.8310  -28.5350 C   0  0  0  0  0  0  0  0  0  0  0  0
   -1.6100   26.1520  -28.9660 O   0  0  0  0  0  0  0  0  0  0  0  0
   -2.3170   23.8280  -29.1980 C   0  0  0  0  0  0  0  0  0  0  0  0
   -3.0760   24.0810  -30.3880 N   0  0  0  0  0  0  0  0  0  0  0  0
   -4.7740   24.4310  -30.4330 S   0  0  0  0  0  0  0  0  0  0  0  0
   -5.0080   25.6900  -31.2190 O   0  0  0  0  0  0  0  0  0  0  0  0
   -5.3000   24.5870  -29.0340 O   0  0  0  0  0  0  0  0  0  0  0  0
   -5.6010   23.1110  -31.2340 C   0  0  0  0  0  0  0  0  0  0  0  0
   -5.0270   22.2340  -32.1420 C   0  0  0  0  0  0  0  0  0  0  0  0
   -5.9230   21.2650  -32.6080 C   0  0  0  0  0  0  0  0  0  0  0  0
   -7.1910   21.3820  -32.0490 C   0  0  0  0  0  0  0  0  0  0  0  0
   -8.3730   20.5360  -32.3840 C   0  0  0  0  0  0  0  0  0  0  0  0
   -7.2140   22.7000  -31.0030 S   0  0  0  0  0  0  0  0  0  0  0  0
   -2.3230   22.5270  -28.6810 C   0  0  0  0  0  0  0  0  0  0  0  0
    0.9090   20.5770  -27.9530 C   0  0  0  0  0  0  0  0  0  0  0  0
    1.8630   19.5500  -28.5760 C   0  0  0  0  0  0  0  0  0  0  0  0
    1.3930   19.3400  -31.9890 C   0  0  0  0  0  0  0  0  0  0  0  0
    0.9060   19.9690  -33.1370 C   0  0  0  0  0  0  0  0  0  0  0  0
   -1.5165   22.1192  -34.0804 H   0  0  0  0  0  0  0  0  0  0  0  0
   -0.0058   21.6778  -34.9462 H   0  0  0  0  0  0  0  0  0  0  0  0
   -1.4034   20.5494  -34.9462 H   0  0  0  0  0  0  0  0  0  0  0  0
   -2.0410   21.1723  -31.8947 H   0  0  0  0  0  0  0  0  0  0  0  0
   -1.1822   20.0424  -29.8494 H   0  0  0  0  0  0  0  0  0  0  0  0
    1.8058   17.8322  -29.8886 H   0  0  0  0  0  0  0  0  0  0  0  0
   -0.8969   17.7951  -29.4905 H   0  0  0  0  0  0  0  0  0  0  0  0
    0.3653   16.8513  -28.5579 H   0  0  0  0  0  0  0  0  0  0  0  0
   -1.5371   18.2326  -27.3044 H   0  0  0  0  0  0  0  0  0  0  0  0
    0.1612   18.1269  -26.6827 H   0  0  0  0  0  0  0  0  0  0  0  0
   -0.1896   22.9442  -26.0405 H   0  0  0  0  0  0  0  0  0  0  0  0
   -0.2470   25.2905  -26.8865 H   0  0  0  0  0  0  0  0  0  0  0  0
   -3.9765   22.2937  -32.4627 H   0  0  0  0  0  0  0  0  0  0  0  0
   -5.6521   20.4907  -33.3409 H   0  0  0  0  0  0  0  0  0  0  0  0
   -8.8529   20.1925  -31.4557 H   0  0  0  0  0  0  0  0  0  0  0  0
   -9.0916   21.1262  -32.9716 H   0  0  0  0  0  0  0  0  0  0  0  0
   -8.0461   19.6655  -32.9716 H   0  0  0  0  0  0  0  0  0  0  0  0
   -2.9412   21.7531  -29.1595 H   0  0  0  0  0  0  0  0  0  0  0  0
    0.7029   21.3652  -28.6921 H   0  0  0  0  0  0  0  0  0  0  0  0
    1.3924   20.9914  -27.0560 H   0  0  0  0  0  0  0  0  0  0  0  0
    2.6497   20.0810  -29.1320 H   0  0  0  0  0  0  0  0  0  0  0  0
    2.3023   18.9454  -27.7689 H   0  0  0  0  0  0  0  0  0  0  0  0
    2.3609   18.8184  -32.0238 H   0  0  0  0  0  0  0  0  0  0  0  0
    1.4902   19.9366  -34.0685 H   0  0  0  0  0  0  0  0  0  0  0  0
  1  2  1  0
  2  3  2  0
  3  4  1  0
  4  5  2  0
  5  6  1  0
  6  7  1  0
  7  8  1  0
  8  9  1  0
  9 10  1  0
 10 11  2  0
 10 12  1  0
 12 13  2  0
 13 14  1  0
 14 15  2  0
 15 16  1  0
 15 17  1  0
 17 18  1  0
 18 19  1  0
 19 20  2  0
 19 21  2  0
 19 22  1  0
 22 23  2  0
 23 24  1  0
 24 25  2  0
 25 26  1  0
 25 27  1  0
 17 28  2  0
  9 29  1  0
 29 30  1  0
  5 31  1  0
 31 32  2  0
 32  2  1  0
 30  6  1  0
 28 12  1  0
 27 22  1  0
  1 33  1  0
  1 34  1  0
  1 35  1  0
  3 36  1  0
  4 37  1  0
  6 38  1  0
  7 39  1  0
  7 40  1  0
  8 41  1  0
  8 42  1  0
 13 43  1  0
 14 44  1  0
 23 45  1  0
 24 46  1  0
 26 47  1  0
 26 48  1  0
 26 49  1  0
 28 50  1  0
 29 51  1  0
 29 52  1  0
 30 53  1  0
 30 54  1  0
 31 55  1  0
 32 56  1  0
M  CHG  2  16  -1  18  -1
M  END
>  <UniqueID>  (6) 
5

>  <SMILES>  (6) 
Cc1ccc(C2CCN(C(=O)c3ccc([O-])c([N-]S(=O)(=O)c4ccc(C)s4)c3)CC2)cc1

>  <Energy>  (6) 
99.14941580389309

>  <Genealogy>  (6) 
Cc1ccc(C2CCN(C(=O)c3ccc([O-])c([N-]S(=O)(=O)c4ccc(C)s4)c3)CC2)cc1 (protonated)
Cc1ccc(C2CCN(C(=O)c3ccc([O-])c([N-]S(=O)(=O)c4ccc(C)s4)c3)CC2)cc1 (3D coordinates assigned)
Cc1ccc(C2CCN(C(=O)c3ccc([O-])c([N-]S(=O)(=O)c4ccc(C)s4)c3)CC2)cc1 (nonaromatic ring conformer: 99.14941580389309 kcal/mol)

>  <smiles>  (6) 
Cc1ccc(C2CCN(C(=O)c3ccc(O)c(NS(=O)(=O)c4ccc(C)s4)c3)CC2)cc1

>  <score_type>  (6) 
oracle

>  <origin>  (6) 
adgpu

>  <m_score__min__energy>  (6) 
-14.119999999999999

>  <m_primary>  (6) 
energy

$$$$
6:0
     RDKit          3D

 71 75  0  0  0  0  0  0  0  0999 V2000
   -2.3090   25.0970  -29.2590 O   0  0  0  0  0  0  0  0  0  0  0  0
   -3.1100   24.2720  -28.7430 C   0  0  0  0  0  0  0  0  0  0  0  0
   -2.8240   23.7060  -27.4530 N   0  0  0  0  0  0  0  0  0  0  0  0
   -1.6840   24.0880  -26.6680 C   0  0  0  0  0  0  0  0  0  0  0  0
   -1.5920   25.3850  -26.1380 C   0  0  0  0  0  0  0  0  0  0  0  0
   -0.5210   25.7440  -25.3080 C   0  0  0  0  0  0  0  0  0  0  0  0
   -0.4180   27.3780  -24.6410 S   0  0  0  0  0  0  0  0  0  0  0  0
   -1.2120   27.4360  -23.3650 O   0  0  0  0  0  0  0  0  0  0  0  0
    1.0170   27.6810  -24.3100 O   0  0  0  0  0  0  0  0  0  0  0  0
   -1.0180   28.5970  -25.7400 N   0  0  0  0  0  0  0  0  0  0  0  0
   -0.1930   28.7080  -26.9400 C   0  0  0  0  0  0  0  0  0  0  0  0
   -0.4050   30.1150  -27.4740 C   0  0  0  0  0  0  0  0  0  0  0  0
   -0.9080   30.9230  -26.2860 C   0  0  0  0  0  0  0  0  0  0  0  0
   -1.0170   29.9290  -25.1380 C   0  0  0  0  0  0  0  0  0  0  0  0
    0.4710   24.8000  -25.0170 C   0  0  0  0  0  0  0  0  0  0  0  0
    0.3850   23.5050  -25.5320 C   0  0  0  0  0  0  0  0  0  0  0  0
   -0.6880   23.1400  -26.3570 C   0  0  0  0  0  0  0  0  0  0  0  0
   -0.7410   21.8140  -26.9020 N   0  0  0  0  0  0  0  0  0  0  0  0
   -1.5510   20.7490  -26.3340 C   0  0  0  0  0  0  0  0  0  0  0  0
   -1.2340   19.5150  -27.1660 C   0  0  0  0  0  0  0  0  0  0  0  0
   -0.5780   20.0280  -28.4470 C   0  0  0  0  0  0  0  0  0  0  0  0
   -0.0770   21.4330  -28.1330 C   0  0  0  0  0  0  0  0  0  0  0  0
   -4.2980   23.8340  -29.5100 C   0  0  0  0  0  0  0  0  0  0  0  0
   -5.5530   24.4330  -29.3040 C   0  0  0  0  0  0  0  0  0  0  0  0
   -6.6790   23.9710  -29.9910 C   0  0  0  0  0  0  0  0  0  0  0  0
   -6.5720   22.8950  -30.8820 C   0  0  0  0  0  0  0  0  0  0  0  0
   -8.0070   22.2640  -31.6880 S   0  0  0  0  0  0  0  0  0  0  0  0
   -9.0440   21.9190  -30.6570 O   0  0  0  0  0  0  0  0  0  0  0  0
   -8.5800   23.3380  -32.5730 O   0  0  0  0  0  0  0  0  0  0  0  0
   -7.6580   20.8470  -32.6560 N   0  0  0  0  0  0  0  0  0  0  0  0
   -6.5730   20.0090  -32.0920 C   0  0  0  0  0  0  0  0  0  0  0  0
   -6.9610   18.5360  -31.9020 C   0  0  0  0  0  0  0  0  0  0  0  0
   -8.3240   18.4400  -31.2280 C   0  0  0  0  0  0  0  0  0  0  0  0
   -9.4150   19.1130  -32.0720 C   0  0  0  0  0  0  0  0  0  0  0  0
   -8.8730   20.1310  -33.0980 C   0  0  0  0  0  0  0  0  0  0  0  0
   -5.3150   22.3280  -31.1290 C   0  0  0  0  0  0  0  0  0  0  0  0
   -4.1860   22.7940  -30.4490 C   0  0  0  0  0  0  0  0  0  0  0  0
   -3.3550   22.8570  -27.1530 H   0  0  0  0  0  0  0  0  0  0  0  0
   -2.3683   26.1269  -26.3766 H   0  0  0  0  0  0  0  0  0  0  0  0
    0.8666   28.5511  -26.6897 H   0  0  0  0  0  0  0  0  0  0  0  0
   -0.4704   27.9503  -27.6877 H   0  0  0  0  0  0  0  0  0  0  0  0
    0.5412   30.5311  -27.8503 H   0  0  0  0  0  0  0  0  0  0  0  0
   -1.1161   30.1328  -28.3131 H   0  0  0  0  0  0  0  0  0  0  0  0
   -0.1961   31.7233  -26.0358 H   0  0  0  0  0  0  0  0  0  0  0  0
   -1.8718   31.4082  -26.4999 H   0  0  0  0  0  0  0  0  0  0  0  0
   -0.1590   30.0381  -24.4583 H   0  0  0  0  0  0  0  0  0  0  0  0
   -1.9306   30.0999  -24.5496 H   0  0  0  0  0  0  0  0  0  0  0  0
    1.3225   25.0799  -24.3794 H   0  0  0  0  0  0  0  0  0  0  0  0
    1.1636   22.7670  -25.2890 H   0  0  0  0  0  0  0  0  0  0  0  0
   -1.2837   20.5821  -25.2801 H   0  0  0  0  0  0  0  0  0  0  0  0
   -2.6232   20.9936  -26.3558 H   0  0  0  0  0  0  0  0  0  0  0  0
   -0.5438   18.8538  -26.6215 H   0  0  0  0  0  0  0  0  0  0  0  0
   -2.1409   18.9317  -27.3834 H   0  0  0  0  0  0  0  0  0  0  0  0
    0.2624   19.3780  -28.7321 H   0  0  0  0  0  0  0  0  0  0  0  0
   -1.2878   20.0333  -29.2873 H   0  0  0  0  0  0  0  0  0  0  0  0
    1.0145   21.4305  -27.9964 H   0  0  0  0  0  0  0  0  0  0  0  0
   -0.2957   22.1366  -28.9497 H   0  0  0  0  0  0  0  0  0  0  0  0
   -5.6494   25.2707  -28.5976 H   0  0  0  0  0  0  0  0  0  0  0  0
   -7.6541   24.4545  -29.8314 H   0  0  0  0  0  0  0  0  0  0  0  0
   -5.7101   20.0550  -32.7727 H   0  0  0  0  0  0  0  0  0  0  0  0
   -6.3447   20.4108  -31.0938 H   0  0  0  0  0  0  0  0  0  0  0  0
   -7.0040   18.0409  -32.8834 H   0  0  0  0  0  0  0  0  0  0  0  0
   -6.2089   18.0429  -31.2686 H   0  0  0  0  0  0  0  0  0  0  0  0
   -8.5813   17.3794  -31.0904 H   0  0  0  0  0  0  0  0  0  0  0  0
   -8.2680   18.9571  -30.2587 H   0  0  0  0  0  0  0  0  0  0  0  0
   -9.9634   18.3305  -32.6170 H   0  0  0  0  0  0  0  0  0  0  0  0
  -10.0576   19.6723  -31.3761 H   0  0  0  0  0  0  0  0  0  0  0  0
   -8.6371   19.5920  -34.0274 H   0  0  0  0  0  0  0  0  0  0  0  0
   -9.6565   20.8911  -33.2338 H   0  0  0  0  0  0  0  0  0  0  0  0
   -5.2160   21.5129  -31.8609 H   0  0  0  0  0  0  0  0  0  0  0  0
   -3.2028   22.3436  -30.6502 H   0  0  0  0  0  0  0  0  0  0  0  0
  1  2  2  0
  2  3  1  0
  3  4  1  0
  4  5  2  0
  5  6  1  0
  6  7  1  0
  7  8  2  0
  7  9  2  0
  7 10  1  0
 10 11  1  0
 11 12  1  0
 12 13  1  0
 13 14  1  0
  6 15  2  0
 15 16  1  0
 16 17  2  0
 17 18  1  0
 18 19  1  0
 19 20  1  0
 20 21  1  0
 21 22  1  0
  2 23  1  0
 23 24  2  0
 24 25  1  0
 25 26  2  0
 26 27  1  0
 27 28  2  0
 27 29  2  0
 27 30  1  0
 30 31  1  0
 31 32  1  0
 32 33  1  0
 33 34  1  0
 34 35  1  0
 26 36  1  0
 36 37  2  0
 17  4  1  0
 22 18  1  0
 37 23  1  0
 14 10  1  0
 35 30  1  0
  3 38  1  0
  5 39  1  0
 11 40  1  0
 11 41  1  0
 12 42  1  0
 12 43  1  0
 13 44  1  0
 13 45  1  0
 14 46  1  0
 14 47  1  0
 15 48  1  0
 16 49  1  0
 19 50  1  0
 19 51  1  0
 20 52  1  0
 20 53  1  0
 21 54  1  0
 21 55  1  0
 22 56  1  0
 22 57  1  0
 24 58  1  0
 25 59  1  0
 31 60  1  0
 31 61  1  0
 32 62  1  0
 32 63  1  0
 33 64  1  0
 33 65  1  0
 34 66  1  0
 34 67  1  0
 35 68  1  0
 35 69  1  0
 36 70  1  0
 37 71  1  0
M  END
>  <UniqueID>  (7) 
6

>  <SMILES>  (7) 
O=C(Nc1cc(S(=O)(=O)N2CCCC2)ccc1N1CCCC1)c1ccc(S(=O)(=O)N2CCCCC2)cc1

>  <Energy>  (7) 
92.49044044151402

>  <Genealogy>  (7) 
O=C(Nc1cc(S(=O)(=O)N2CCCC2)ccc1N1CCCC1)c1ccc(S(=O)(=O)N2CCCCC2)cc1 (3D coordinates assigned)
O=C(Nc1cc(S(=O)(=O)N2CCCC2)ccc1N1CCCC1)c1ccc(S(=O)(=O)N2CCCCC2)cc1 (nonaromatic ring conformer: 92.49044044151402 kcal/mol)

>  <smiles>  (7) 
O=C(Nc1cc(S(=O)(=O)N2CCCC2)ccc1N1CCCC1)c1ccc(S(=O)(=O)N2CCCCC2)cc1

>  <score_type>  (7) 
oracle

>  <origin>  (7) 
adgpu

>  <m_score__min__energy>  (7) 
-11.49

>  <m_primary>  (7) 
energy

$$$$
7:0
     RDKit          3D

 59 63  0  0  0  0  0  0  0  0999 V2000
   -3.8710   25.6650  -30.9610 O   0  0  0  0  0  0  0  0  0  0  0  0
   -4.8910   24.9890  -30.6620 C   0  0  0  0  0  0  0  0  0  0  0  0
   -5.9570   25.6050  -30.0150 O   0  0  0  0  0  0  0  0  0  0  0  0
   -4.9770   23.5650  -31.0480 C   0  0  0  0  0  0  0  0  0  0  0  0
   -3.7930   22.7970  -31.0900 C   0  0  0  0  0  0  0  0  0  0  0  0
   -2.5340   23.4250  -30.7880 N   0  0  0  0  0  0  0  0  0  0  0  0
   -2.0230   23.9450  -29.2140 S   0  0  0  0  0  0  0  0  0  0  0  0
   -3.0310   24.9250  -28.6800 O   0  0  0  0  0  0  0  0  0  0  0  0
   -0.6710   24.5940  -29.3240 O   0  0  0  0  0  0  0  0  0  0  0  0
   -1.9160   22.5620  -28.1080 C   0  0  0  0  0  0  0  0  0  0  0  0
   -2.4020   21.3190  -28.5470 C   0  0  0  0  0  0  0  0  0  0  0  0
   -2.3750   20.2040  -27.7120 C   0  0  0  0  0  0  0  0  0  0  0  0
   -1.8640   20.3080  -26.4210 C   0  0  0  0  0  0  0  0  0  0  0  0
   -1.3670   21.5320  -25.9540 C   0  0  0  0  0  0  0  0  0  0  0  0
   -0.8610   21.6270  -24.6540 C   0  0  0  0  0  0  0  0  0  0  0  0
   -0.3680   22.8360  -24.1700 C   0  0  0  0  0  0  0  0  0  0  0  0
   -0.3530   23.9970  -24.9740 C   0  0  0  0  0  0  0  0  0  0  0  0
    0.1620   25.2680  -24.4580 N   0  0  0  0  0  0  0  0  0  0  0  0
   -0.8030   26.3250  -24.0720 C   0  0  0  0  0  0  0  0  0  0  0  0
   -0.1560   27.6520  -23.6680 C   0  0  0  0  0  0  0  0  0  0  0  0
    1.0490   27.4260  -22.8740 N   0  0  0  0  0  0  0  0  0  0  0  0
    2.0620   26.7900  -23.7130 C   0  0  0  0  0  0  0  0  0  0  0  0
    1.6140   25.4020  -24.1950 C   0  0  0  0  0  0  0  0  0  0  0  0
   -0.8500   23.8850  -26.2960 C   0  0  0  0  0  0  0  0  0  0  0  0
   -1.3770   22.6730  -26.7950 C   0  0  0  0  0  0  0  0  0  0  0  0
   -3.8570   21.4450  -31.4520 C   0  0  0  0  0  0  0  0  0  0  0  0
   -5.0780   20.8510  -31.7550 C   0  0  0  0  0  0  0  0  0  0  0  0
   -6.2670   21.5870  -31.6940 C   0  0  0  0  0  0  0  0  0  0  0  0
   -6.2250   22.9680  -31.3740 C   0  0  0  0  0  0  0  0  0  0  0  0
   -7.5170   23.7610  -31.2320 C   0  0  0  0  0  0  0  0  0  0  0  0
   -8.7200   23.0940  -31.9050 C   0  0  0  0  0  0  0  0  0  0  0  0
   -8.7890   21.6160  -31.5370 C   0  0  0  0  0  0  0  0  0  0  0  0
   -7.5550   20.8910  -32.0700 C   0  0  0  0  0  0  0  0  0  0  0  0
   -2.8096   21.2248  -29.5643 H   0  0  0  0  0  0  0  0  0  0  0  0
   -2.7586   19.2386  -28.0738 H   0  0  0  0  0  0  0  0  0  0  0  0
   -1.8504   19.4253  -25.7648 H   0  0  0  0  0  0  0  0  0  0  0  0
   -0.8523   20.7375  -24.0069 H   0  0  0  0  0  0  0  0  0  0  0  0
    0.0174   22.8878  -23.1410 H   0  0  0  0  0  0  0  0  0  0  0  0
   -1.4687   26.5127  -24.9274 H   0  0  0  0  0  0  0  0  0  0  0  0
   -1.3392   25.9536  -23.1862 H   0  0  0  0  0  0  0  0  0  0  0  0
    0.1112   28.2131  -24.5756 H   0  0  0  0  0  0  0  0  0  0  0  0
   -0.8745   28.2218  -23.0605 H   0  0  0  0  0  0  0  0  0  0  0  0
    0.8350   26.8300  -22.0400 H   0  0  0  0  0  0  0  0  0  0  0  0
    1.4150   28.3490  -22.5450 H   0  0  0  0  0  0  0  0  0  0  0  0
    2.2501   27.4277  -24.5894 H   0  0  0  0  0  0  0  0  0  0  0  0
    2.9747   26.6651  -23.1118 H   0  0  0  0  0  0  0  0  0  0  0  0
    2.1519   25.1747  -25.1272 H   0  0  0  0  0  0  0  0  0  0  0  0
    1.8434   24.7039  -23.3764 H   0  0  0  0  0  0  0  0  0  0  0  0
   -0.8248   24.7671  -26.9527 H   0  0  0  0  0  0  0  0  0  0  0  0
   -2.9341   20.8482  -31.4970 H   0  0  0  0  0  0  0  0  0  0  0  0
   -5.1094   19.7906  -32.0459 H   0  0  0  0  0  0  0  0  0  0  0  0
   -7.7379   23.8779  -30.1608 H   0  0  0  0  0  0  0  0  0  0  0  0
   -7.3603   24.7274  -31.7335 H   0  0  0  0  0  0  0  0  0  0  0  0
   -9.6425   23.5927  -31.5730 H   0  0  0  0  0  0  0  0  0  0  0  0
   -8.6108   23.1833  -32.9959 H   0  0  0  0  0  0  0  0  0  0  0  0
   -8.8280   21.5138  -30.4425 H   0  0  0  0  0  0  0  0  0  0  0  0
   -9.6913   21.1727  -31.9835 H   0  0  0  0  0  0  0  0  0  0  0  0
   -7.5388   19.8717  -31.6567 H   0  0  0  0  0  0  0  0  0  0  0  0
   -7.6214   20.8813  -33.1680 H   0  0  0  0  0  0  0  0  0  0  0  0
  1  2  2  0
  2  3  1  0
  2  4  1  0
  4  5  2  0
  5  6  1  0
  6  7  1  0
  7  8  2  0
  7  9  2  0
  7 10  1  0
 10 11  2  0
 11 12  1  0
 12 13  2  0
 13 14  1  0
 14 15  2  0
 15 16  1  0
 16 17  2  0
 17 18  1  0
 18 19  1  0
 19 20  1  0
 20 21  1  0
 21 22  1  0
 22 23  1  0
 17 24  1  0
 24 25  2  0
  5 26  1  0
 26 27  2  0
 27 28  1  0
 28 29  2  0
 29 30  1  0
 30 31  1  0
 31 32  1  0
 32 33  1  0
 29  4  1  0
 25 10  1  0
 33 28  1  0
 25 14  1  0
 23 18  1  0
 11 34  1  0
 12 35  1  0
 13 36  1  0
 15 37  1  0
 16 38  1  0
 19 39  1  0
 19 40  1  0
 20 41  1  0
 20 42  1  0
 21 43  1  0
 21 44  1  0
 22 45  1  0
 22 46  1  0
 23 47  1  0
 23 48  1  0
 24 49  1  0
 26 50  1  0
 27 51  1  0
 30 52  1  0
 30 53  1  0
 31 54  1  0
 31 55  1  0
 32 56  1  0
 32 57  1  0
 33 58  1  0
 33 59  1  0
M  CHG  3   3  -1   6  -1  21   1
M  END
>  <UniqueID>  (8) 
7

>  <SMILES>  (8) 
O=C([O-])c1c([N-]S(=O)(=O)c2cccc3ccc(N4CC[NH2+]CC4)cc23)ccc2c1CCCC2

>  <Energy>  (8) 
89.76021675193375

>  <Genealogy>  (8) 
O=C([O-])c1c([N-]S(=O)(=O)c2cccc3ccc(N4CC[NH2+]CC4)cc23)ccc2c1CCCC2 (protonated)
O=C([O-])c1c([N-]S(=O)(=O)c2cccc3ccc(N4CC[NH2+]CC4)cc23)ccc2c1CCCC2 (3D coordinates assigned)
O=C([O-])c1c([N-]S(=O)(=O)c2cccc3ccc(N4CC[NH2+]CC4)cc23)ccc2c1CCCC2 (nonaromatic ring conformer: 89.76021675193375 kcal/mol)

>  <smiles>  (8) 
O=C(O)c1c(NS(=O)(=O)c2cccc3ccc(N4CCNCC4)cc23)ccc2c1CCCC2

>  <score_type>  (8) 
oracle

>  <origin>  (8) 
adgpu

>  <m_score__min__energy>  (8) 
-14.130000000000001

>  <m_primary>  (8) 
energy

$$$$
8:0
     RDKit          3D

 56 59  0  0  0  0  0  0  0  0999 V2000
   -3.6380   17.4350  -34.0390 O   0  0  0  0  0  0  0  0  0  0  0  0
   -3.4660   18.5060  -33.3950 C   0  0  0  0  0  0  0  0  0  0  0  0
   -4.4610   19.5020  -33.4260 C   0  0  0  0  0  0  0  0  0  0  0  0
   -5.7550   19.3020  -34.1780 C   0  0  0  0  0  0  0  0  0  0  0  0
   -6.9220   19.3520  -33.2290 C   0  0  0  0  0  0  0  0  0  0  0  0
   -7.4310   18.1700  -32.6660 C   0  0  0  0  0  0  0  0  0  0  0  0
   -8.4930   18.2240  -31.7560 C   0  0  0  0  0  0  0  0  0  0  0  0
   -9.0480   19.4560  -31.3990 C   0  0  0  0  0  0  0  0  0  0  0  0
   -8.5410   20.6370  -31.9480 C   0  0  0  0  0  0  0  0  0  0  0  0
   -7.4800   20.5870  -32.8570 C   0  0  0  0  0  0  0  0  0  0  0  0
   -4.2630   20.6790  -32.6970 C   0  0  0  0  0  0  0  0  0  0  0  0
   -3.0860   20.8710  -31.9640 C   0  0  0  0  0  0  0  0  0  0  0  0
   -2.8820   22.1160  -31.1820 C   0  0  0  0  0  0  0  0  0  0  0  0
   -3.8770   23.1090  -31.1710 C   0  0  0  0  0  0  0  0  0  0  0  0
   -3.7020   24.2830  -30.4340 C   0  0  0  0  0  0  0  0  0  0  0  0
   -4.6750   25.2280  -30.4290 F   0  0  0  0  0  0  0  0  0  0  0  0
   -2.5280   24.4810  -29.7020 C   0  0  0  0  0  0  0  0  0  0  0  0
   -2.3500   25.6480  -28.9690 O   0  0  0  0  0  0  0  0  0  0  0  0
   -1.5290   23.5040  -29.7080 C   0  0  0  0  0  0  0  0  0  0  0  0
   -1.6990   22.3260  -30.4440 C   0  0  0  0  0  0  0  0  0  0  0  0
   -0.6950   21.4120  -30.4580 F   0  0  0  0  0  0  0  0  0  0  0  0
   -2.1210   19.8560  -31.9670 C   0  0  0  0  0  0  0  0  0  0  0  0
   -2.3150   18.7000  -32.6720 N   0  0  0  0  0  0  0  0  0  0  0  0
   -1.2520   17.6790  -32.6680 C   0  0  0  0  0  0  0  0  0  0  0  0
    0.1150   18.2850  -32.3220 C   0  0  0  0  0  0  0  0  0  0  0  0
    0.6970   18.9650  -33.5030 N   0  0  0  0  0  0  0  0  0  0  0  0
    0.9330   20.4180  -33.2760 C   0  0  0  0  0  0  0  0  0  0  0  0
   -0.1010   21.3080  -33.9770 C   0  0  0  0  0  0  0  0  0  0  0  0
   -0.0940   21.0720  -35.4960 C   0  0  0  0  0  0  0  0  0  0  0  0
    0.2820   19.6280  -35.8700 C   0  0  0  0  0  0  0  0  0  0  0  0
   -0.0680   18.6590  -34.7360 C   0  0  0  0  0  0  0  0  0  0  0  0
   -5.8644   20.0970  -34.9303 H   0  0  0  0  0  0  0  0  0  0  0  0
   -5.7352   18.3185  -34.6703 H   0  0  0  0  0  0  0  0  0  0  0  0
   -6.9936   17.1990  -32.9412 H   0  0  0  0  0  0  0  0  0  0  0  0
   -8.8914   17.2955  -31.3212 H   0  0  0  0  0  0  0  0  0  0  0  0
   -9.8843   19.4961  -30.6856 H   0  0  0  0  0  0  0  0  0  0  0  0
   -8.9770   21.6064  -31.6647 H   0  0  0  0  0  0  0  0  0  0  0  0
   -7.0800   21.5189  -33.2831 H   0  0  0  0  0  0  0  0  0  0  0  0
   -5.0379   21.4597  -32.6996 H   0  0  0  0  0  0  0  0  0  0  0  0
   -4.8017   22.9604  -31.7479 H   0  0  0  0  0  0  0  0  0  0  0  0
   -0.6053   23.6615  -29.1319 H   0  0  0  0  0  0  0  0  0  0  0  0
   -1.1922   19.9906  -31.3932 H   0  0  0  0  0  0  0  0  0  0  0  0
   -1.4998   16.9091  -31.9224 H   0  0  0  0  0  0  0  0  0  0  0  0
   -1.1895   17.2447  -33.6767 H   0  0  0  0  0  0  0  0  0  0  0  0
   -0.0085   19.0152  -31.5086 H   0  0  0  0  0  0  0  0  0  0  0  0
    0.7923   17.4771  -32.0079 H   0  0  0  0  0  0  0  0  0  0  0  0
    0.8905   20.6156  -32.1947 H   0  0  0  0  0  0  0  0  0  0  0  0
    1.9188   20.6620  -33.6987 H   0  0  0  0  0  0  0  0  0  0  0  0
   -1.1012   21.0766  -33.5819 H   0  0  0  0  0  0  0  0  0  0  0  0
    0.1560   22.3603  -33.7854 H   0  0  0  0  0  0  0  0  0  0  0  0
   -1.0979   21.2878  -35.8904 H   0  0  0  0  0  0  0  0  0  0  0  0
    0.6657   21.7371  -35.9324 H   0  0  0  0  0  0  0  0  0  0  0  0
   -0.2692   19.3358  -36.7760 H   0  0  0  0  0  0  0  0  0  0  0  0
    1.3666   19.5828  -36.0478 H   0  0  0  0  0  0  0  0  0  0  0  0
   -1.1433   18.7376  -34.5180 H   0  0  0  0  0  0  0  0  0  0  0  0
    0.1930   17.6407  -35.0598 H   0  0  0  0  0  0  0  0  0  0  0  0
  1  2  2  0
  2  3  1  0
  3  4  1  0
  4  5  1  0
  5  6  2  0
  6  7  1  0
  7  8  2  0
  8  9  1  0
  9 10  2  0
  3 11  2  0
 11 12  1  0
 12 13  1  0
 13 14  2  0
 14 15  1  0
 15 16  1  0
 15 17  2  0
 17 18  1  0
 17 19  1  0
 19 20  2  0
 20 21  1  0
 12 22  2  0
 22 23  1  0
 23 24  1  0
 24 25  1  0
 25 26  1  0
 26 27  1  0
 27 28  1  0
 28 29  1  0
 29 30  1  0
 30 31  1  0
 23  2  1  0
 31 26  1  0
 10  5  1  0
 20 13  1  0
  4 32  1  0
  4 33  1  0
  6 34  1  0
  7 35  1  0
  8 36  1  0
  9 37  1  0
 10 38  1  0
 11 39  1  0
 14 40  1  0
 19 41  1  0
 22 42  1  0
 24 43  1  0
 24 44  1  0
 25 45  1  0
 25 46  1  0
 27 47  1  0
 27 48  1  0
 28 49  1  0
 28 50  1  0
 29 51  1  0
 29 52  1  0
 30 53  1  0
 30 54  1  0
 31 55  1  0
 31 56  1  0
M  CHG  1  18  -1
M  END
>  <UniqueID>  (9) 
8

>  <SMILES>  (9) 
O=c1c(Cc2ccccc2)cc(-c2cc(F)c([O-])cc2F)cn1CCN1CCCCC1

>  <Energy>  (9) 
72.62990802013654

>  <Genealogy>  (9) 
O=c1c(Cc2ccccc2)cc(-c2cc(F)c([O-])cc2F)cn1CCN1CCCCC1 (protonated)
O=c1c(Cc2ccccc2)cc(-c2cc(F)c([O-])cc2F)cn1CCN1CCCCC1 (3D coordinates assigned)
O=c1c(Cc2ccccc2)cc(-c2cc(F)c([O-])cc2F)cn1CCN1CCCCC1 (nonaromatic ring conformer: 72.62990802013654 kcal/mol)

>  <smiles>  (9) 
O=c1c(Cc2ccccc2)cc(-c2cc(F)c(O)cc2F)cn1CCN1CCCCC1

>  <score_type>  (9) 
oracle

>  <origin>  (9) 
adgpu

>  <m_score__min__energy>  (9) 
-10.960000000000001

>  <m_primary>  (9) 
energy

$$$$
9:0
     RDKit          3D

 62 65  0  0  0  0  0  0  0  0999 V2000
   -3.6910   23.8600  -27.1940 O   0  0  0  0  0  0  0  0  0  0  0  0
   -2.9580   24.4480  -28.0340 C   0  0  0  0  0  0  0  0  0  0  0  0
   -3.5030   24.8430  -29.3050 N   0  0  0  0  0  0  0  0  0  0  0  0
   -4.6880   24.2660  -29.8790 C   0  0  0  0  0  0  0  0  0  0  0  0
   -5.2320   23.1040  -29.3140 C   0  0  0  0  0  0  0  0  0  0  0  0
   -6.3920   22.5320  -29.8440 C   0  0  0  0  0  0  0  0  0  0  0  0
   -7.0310   23.1210  -30.9440 C   0  0  0  0  0  0  0  0  0  0  0  0
   -8.4800   22.3840  -31.6320 S   0  0  0  0  0  0  0  0  0  0  0  0
   -9.3560   21.8820  -30.5190 O   0  0  0  0  0  0  0  0  0  0  0  0
   -9.2510   23.4260  -32.3950 O   0  0  0  0  0  0  0  0  0  0  0  0
   -8.0800   21.0560  -32.6950 N   0  0  0  0  0  0  0  0  0  0  0  0
   -6.6700   20.6500  -32.5030 C   0  0  0  0  0  0  0  0  0  0  0  0
   -6.4060   19.2560  -33.0830 C   0  0  0  0  0  0  0  0  0  0  0  0
   -7.2510   18.1900  -32.3620 C   0  0  0  0  0  0  0  0  0  0  0  0
   -8.5460   18.7640  -31.7590 C   0  0  0  0  0  0  0  0  0  0  0  0
   -9.0650   19.9510  -32.5840 C   0  0  0  0  0  0  0  0  0  0  0  0
   -6.5090   24.3010  -31.4930 C   0  0  0  0  0  0  0  0  0  0  0  0
   -5.3480   24.8720  -30.9630 C   0  0  0  0  0  0  0  0  0  0  0  0
   -1.5540   24.7690  -27.6780 C   0  0  0  0  0  0  0  0  0  0  0  0
   -0.5880   23.7500  -27.6240 C   0  0  0  0  0  0  0  0  0  0  0  0
    0.7370   24.0450  -27.2870 C   0  0  0  0  0  0  0  0  0  0  0  0
    1.1160   25.3620  -26.9960 C   0  0  0  0  0  0  0  0  0  0  0  0
    2.7900   25.7300  -26.5840 S   0  0  0  0  0  0  0  0  0  0  0  0
    3.5680   24.4440  -26.5670 O   0  0  0  0  0  0  0  0  0  0  0  0
    3.3770   26.5990  -27.6620 O   0  0  0  0  0  0  0  0  0  0  0  0
    2.9780   26.5110  -25.0260 N   0  0  0  0  0  0  0  0  0  0  0  0
    2.1880   25.8920  -23.9410 C   0  0  0  0  0  0  0  0  0  0  0  0
    0.7660   26.4620  -23.8150 C   0  0  0  0  0  0  0  0  0  0  0  0
    0.7860   27.9870  -23.7580 C   0  0  0  0  0  0  0  0  0  0  0  0
    1.5080   28.5450  -24.9790 C   0  0  0  0  0  0  0  0  0  0  0  0
    2.9310   27.9870  -25.0660 C   0  0  0  0  0  0  0  0  0  0  0  0
    0.1650   26.3870  -27.0820 C   0  0  0  0  0  0  0  0  0  0  0  0
   -1.1610   26.0930  -27.4130 C   0  0  0  0  0  0  0  0  0  0  0  0
   -3.0840   25.6720  -29.7820 H   0  0  0  0  0  0  0  0  0  0  0  0
   -4.7418   22.6385  -28.4462 H   0  0  0  0  0  0  0  0  0  0  0  0
   -6.8051   21.6161  -29.3962 H   0  0  0  0  0  0  0  0  0  0  0  0
   -6.0163   21.3771  -33.0070 H   0  0  0  0  0  0  0  0  0  0  0  0
   -6.4618   20.6211  -31.4233 H   0  0  0  0  0  0  0  0  0  0  0  0
   -6.6636   19.2565  -34.1524 H   0  0  0  0  0  0  0  0  0  0  0  0
   -5.3422   19.0137  -32.9433 H   0  0  0  0  0  0  0  0  0  0  0  0
   -7.5176   17.4047  -33.0847 H   0  0  0  0  0  0  0  0  0  0  0  0
   -6.6468   17.7929  -31.5330 H   0  0  0  0  0  0  0  0  0  0  0  0
   -9.3136   17.9762  -31.7418 H   0  0  0  0  0  0  0  0  0  0  0  0
   -8.3289   19.1168  -30.7400 H   0  0  0  0  0  0  0  0  0  0  0  0
   -9.3076   19.5949  -33.5961 H   0  0  0  0  0  0  0  0  0  0  0  0
   -9.9494   20.3499  -32.0656 H   0  0  0  0  0  0  0  0  0  0  0  0
   -7.0151   24.7795  -32.3444 H   0  0  0  0  0  0  0  0  0  0  0  0
   -4.9484   25.8007  -31.3964 H   0  0  0  0  0  0  0  0  0  0  0  0
   -0.8760   22.7124  -27.8485 H   0  0  0  0  0  0  0  0  0  0  0  0
    1.4849   23.2393  -27.2503 H   0  0  0  0  0  0  0  0  0  0  0  0
    2.1140   24.8121  -24.1369 H   0  0  0  0  0  0  0  0  0  0  0  0
    2.7086   26.1104  -22.9970 H   0  0  0  0  0  0  0  0  0  0  0  0
    0.1732   26.1432  -24.6850 H   0  0  0  0  0  0  0  0  0  0  0  0
    0.3206   26.0843  -22.8828 H   0  0  0  0  0  0  0  0  0  0  0  0
   -0.2471   28.3645  -23.7416 H   0  0  0  0  0  0  0  0  0  0  0  0
    1.3148   28.3074  -22.8482 H   0  0  0  0  0  0  0  0  0  0  0  0
    0.9535   28.2640  -25.8865 H   0  0  0  0  0  0  0  0  0  0  0  0
    1.5616   29.6400  -24.8893 H   0  0  0  0  0  0  0  0  0  0  0  0
    3.3830   28.3262  -26.0097 H   0  0  0  0  0  0  0  0  0  0  0  0
    3.4825   28.3567  -24.1890 H   0  0  0  0  0  0  0  0  0  0  0  0
    0.4630   27.4280  -26.8882 H   0  0  0  0  0  0  0  0  0  0  0  0
   -1.9027   26.9036  -27.4666 H   0  0  0  0  0  0  0  0  0  0  0  0
  1  2  2  0
  2  3  1  0
  3  4  1  0
  4  5  2  0
  5  6  1  0
  6  7  2  0
  7  8  1  0
  8  9  2  0
  8 10  2  0
  8 11  1  0
 11 12  1  0
 12 13  1  0
 13 14  1  0
 14 15  1  0
 15 16  1  0
  7 17  1  0
 17 18  2  0
  2 19  1  0
 19 20  2  0
 20 21  1  0
 21 22  2  0
 22 23  1  0
 23 24  2  0
 23 25  2  0
 23 26  1  0
 26 27  1  0
 27 28  1  0
 28 29  1  0
 29 30  1  0
 30 31  1  0
 22 32  1  0
 32 33  2  0
 18  4  1  0
 33 19  1  0
 16 11  1  0
 31 26  1  0
  3 34  1  0
  5 35  1  0
  6 36  1  0
 12 37  1  0
 12 38  1  0
 13 39  1  0
 13 40  1  0
 14 41  1  0
 14 42  1  0
 15 43  1  0
 15 44  1  0
 16 45  1  0
 16 46  1  0
 17 47  1  0
 18 48  1  0
 20 49  1  0
 21 50  1  0
 27 51  1  0
 27 52  1  0
 28 53  1  0
 28 54  1  0
 29 55  1  0
 29 56  1  0
 30 57  1  0
 30 58  1  0
 31 59  1  0
 31 60  1  0
 32 61  1  0
 33 62  1  0
M  END
>  <UniqueID>  (10) 
9

>  <SMILES>  (10) 
O=C(Nc1ccc(S(=O)(=O)N2CCCCC2)cc1)c1ccc(S(=O)(=O)N2CCCCC2)cc1

>  <Energy>  (10) 
75.0010608004518

>  <Genealogy>  (10) 
O=C(Nc1ccc(S(=O)(=O)N2CCCCC2)cc1)c1ccc(S(=O)(=O)N2CCCCC2)cc1 (3D coordinates assigned)
O=C(Nc1ccc(S(=O)(=O)N2CCCCC2)cc1)c1ccc(S(=O)(=O)N2CCCCC2)cc1 (nonaromatic ring conformer: 75.0010608004518 kcal/mol)

>  <smiles>  (10) 
O=C(Nc1ccc(S(=O)(=O)N2CCCCC2)cc1)c1ccc(S(=O)(=O)N2CCCCC2)cc1

>  <score_type>  (10) 
oracle

>  <origin>  (10) 
adgpu

>  <m_score__min__energy>  (10) 
-10.4

>  <m_primary>  (10) 
energy

$$$$
10:0
     RDKit          3D

 58 61  0  0  0  0  0  0  0  0999 V2000
   -8.2270   18.8720  -32.5610 C   0  0  0  0  0  0  0  0  0  0  0  0
   -6.8330   18.7940  -33.0980 C   0  0  0  0  0  0  0  0  0  0  0  0
   -6.4340   17.6970  -33.8720 C   0  0  0  0  0  0  0  0  0  0  0  0
   -5.1260   17.6440  -34.3590 C   0  0  0  0  0  0  0  0  0  0  0  0
   -4.2350   18.6810  -34.0760 C   0  0  0  0  0  0  0  0  0  0  0  0
   -4.6710   19.7690  -33.3070 C   0  0  0  0  0  0  0  0  0  0  0  0
   -3.7250   20.8790  -32.9570 C   0  0  0  0  0  0  0  0  0  0  0  0
   -4.4630   22.1120  -32.6830 N   0  0  0  0  0  0  0  0  0  0  0  0
   -4.4340   22.7690  -31.4010 C   0  0  0  0  0  0  0  0  0  0  0  0
   -3.2110   23.1220  -30.8030 C   0  0  0  0  0  0  0  0  0  0  0  0
   -3.1840   23.8120  -29.5840 C   0  0  0  0  0  0  0  0  0  0  0  0
   -1.6470   24.2830  -28.8640 S   0  0  0  0  0  0  0  0  0  0  0  0
   -1.2810   25.6700  -29.3170 O   0  0  0  0  0  0  0  0  0  0  0  0
   -0.5740   23.3330  -29.3190 O   0  0  0  0  0  0  0  0  0  0  0  0
   -1.7800   24.2230  -27.1270 N   0  0  0  0  0  0  0  0  0  0  0  0
   -0.6260   23.5620  -26.5140 C   0  0  0  0  0  0  0  0  0  0  0  0
   -0.4900   24.1360  -25.1090 C   0  0  0  0  0  0  0  0  0  0  0  0
   -1.2780   25.4380  -25.1230 C   0  0  0  0  0  0  0  0  0  0  0  0
   -1.8320   25.5620  -26.5360 C   0  0  0  0  0  0  0  0  0  0  0  0
   -4.3860   24.1660  -28.9620 C   0  0  0  0  0  0  0  0  0  0  0  0
   -5.6060   23.8140  -29.5410 C   0  0  0  0  0  0  0  0  0  0  0  0
   -5.6410   23.1090  -30.7500 C   0  0  0  0  0  0  0  0  0  0  0  0
   -6.9130   22.7120  -31.2830 N   0  0  0  0  0  0  0  0  0  0  0  0
   -7.5440   21.4660  -30.8440 C   0  0  0  0  0  0  0  0  0  0  0  0
   -9.0650   21.6350  -30.8590 C   0  0  0  0  0  0  0  0  0  0  0  0
   -9.5050   22.1210  -32.1150 O   0  0  0  0  0  0  0  0  0  0  0  0
   -9.0050   23.4300  -32.3260 C   0  0  0  0  0  0  0  0  0  0  0  0
   -7.4770   23.4200  -32.4330 C   0  0  0  0  0  0  0  0  0  0  0  0
   -5.9470   19.7930  -32.8340 N   0  0  0  0  0  0  0  0  0  0  0  0
   -8.1970   18.8703  -31.4614 H   0  0  0  0  0  0  0  0  0  0  0  0
   -8.7044   19.7983  -32.9134 H   0  0  0  0  0  0  0  0  0  0  0  0
   -8.8047   18.0048  -32.9134 H   0  0  0  0  0  0  0  0  0  0  0  0
   -7.1431   16.8859  -34.0940 H   0  0  0  0  0  0  0  0  0  0  0  0
   -4.7983   16.7863  -34.9648 H   0  0  0  0  0  0  0  0  0  0  0  0
   -3.2020   18.6447  -34.4524 H   0  0  0  0  0  0  0  0  0  0  0  0
   -3.1487   20.5957  -32.0639 H   0  0  0  0  0  0  0  0  0  0  0  0
   -3.0472   21.0506  -33.8062 H   0  0  0  0  0  0  0  0  0  0  0  0
   -5.0400   22.5310  -33.4460 H   0  0  0  0  0  0  0  0  0  0  0  0
   -2.2658   22.8535  -31.2975 H   0  0  0  0  0  0  0  0  0  0  0  0
   -2.6530   23.7000  -26.8750 H   0  0  0  0  0  0  0  0  0  0  0  0
   -0.7925   22.4758  -26.4656 H   0  0  0  0  0  0  0  0  0  0  0  0
    0.2876   23.7333  -27.1023 H   0  0  0  0  0  0  0  0  0  0  0  0
   -0.9100   23.4405  -24.3674 H   0  0  0  0  0  0  0  0  0  0  0  0
    0.5628   24.2994  -24.8353 H   0  0  0  0  0  0  0  0  0  0  0  0
   -2.0977   25.3993  -24.3905 H   0  0  0  0  0  0  0  0  0  0  0  0
   -0.6488   26.2992  -24.8539 H   0  0  0  0  0  0  0  0  0  0  0  0
   -2.8706   25.9230  -26.5057 H   0  0  0  0  0  0  0  0  0  0  0  0
   -1.2462   26.2796  -27.1293 H   0  0  0  0  0  0  0  0  0  0  0  0
   -4.3695   24.7234  -28.0138 H   0  0  0  0  0  0  0  0  0  0  0  0
   -6.5469   24.0925  -29.0439 H   0  0  0  0  0  0  0  0  0  0  0  0
   -7.2585   20.6502  -31.5244 H   0  0  0  0  0  0  0  0  0  0  0  0
   -7.2107   21.2244  -29.8239 H   0  0  0  0  0  0  0  0  0  0  0  0
   -9.5380   20.6613  -30.6633 H   0  0  0  0  0  0  0  0  0  0  0  0
   -9.3467   22.3607  -30.0819 H   0  0  0  0  0  0  0  0  0  0  0  0
   -9.4288   23.8316  -33.2582 H   0  0  0  0  0  0  0  0  0  0  0  0
   -9.2936   24.0589  -31.4709 H   0  0  0  0  0  0  0  0  0  0  0  0
   -7.1775   22.9102  -33.3606 H   0  0  0  0  0  0  0  0  0  0  0  0
   -7.1032   24.4545  -32.4466 H   0  0  0  0  0  0  0  0  0  0  0  0
  1  2  1  0
  2  3  2  0
  3  4  1  0
  4  5  2  0
  5  6  1  0
  6  7  1  0
  7  8  1  0
  8  9  1  0
  9 10  2  0
 10 11  1  0
 11 12  1  0
 12 13  2  0
 12 14  2  0
 12 15  1  0
 15 16  1  0
 16 17  1  0
 17 18  1  0
 18 19  1  0
 11 20  2  0
 20 21  1  0
 21 22  2  0
 22 23  1  0
 23 24  1  0
 24 25  1  0
 25 26  1  0
 26 27  1  0
 27 28  1  0
  6 29  2  0
 29  2  1  0
 22  9  1  0
 28 23  1  0
 19 15  1  0
  1 30  1  0
  1 31  1  0
  1 32  1  0
  3 33  1  0
  4 34  1  0
  5 35  1  0
  7 36  1  0
  7 37  1  0
  8 38  1  0
 10 39  1  0
 15 40  1  0
 16 41  1  0
 16 42  1  0
 17 43  1  0
 17 44  1  0
 18 45  1  0
 18 46  1  0
 19 47  1  0
 19 48  1  0
 20 49  1  0
 21 50  1  0
 24 51  1  0
 24 52  1  0
 25 53  1  0
 25 54  1  0
 27 55  1  0
 27 56  1  0
 28 57  1  0
 28 58  1  0
M  CHG  1  15   1
M  END
>  <UniqueID>  (11) 
10

>  <SMILES>  (11) 
Cc1cccc(CNc2cc(S(=O)(=O)[NH+]3CCCC3)ccc2N2CCOCC2)n1

>  <Energy>  (11) 
65.80656876276329

>  <Genealogy>  (11) 
Cc1cccc(CNc2cc(S(=O)(=O)[NH+]3CCCC3)ccc2N2CCOCC2)n1 (protonated)
Cc1cccc(CNc2cc(S(=O)(=O)[NH+]3CCCC3)ccc2N2CCOCC2)n1 (3D coordinates assigned)
Cc1cccc(CNc2cc(S(=O)(=O)[NH+]3CCCC3)ccc2N2CCOCC2)n1 (nonaromatic ring conformer: 65.80656876276329 kcal/mol)

>  <smiles>  (11) 
Cc1cccc(CNc2cc(S(=O)(=O)N3CCCC3)ccc2N2CCOCC2)n1

>  <score_type>  (11) 
oracle

>  <origin>  (11) 
adgpu

>  <m_score__min__energy>  (11) 
-8.6099999999999994

>  <m_primary>  (11) 
energy

$$$$
11:0
     RDKit          3D

 75 78  0  0  0  0  0  0  0  0999 V2000
   -0.3930   25.3290  -36.5740 C   0  0  0  0  0  0  0  0  0  0  0  0
    0.9820   24.7540  -36.3780 C   0  0  0  0  0  0  0  0  0  0  0  0
    2.1010   25.5230  -36.7390 C   0  0  0  0  0  0  0  0  0  0  0  0
    3.3910   25.0050  -36.5970 C   0  0  0  0  0  0  0  0  0  0  0  0
    3.5770   23.7160  -36.0940 C   0  0  0  0  0  0  0  0  0  0  0  0
    2.4730   22.9470  -35.7140 C   0  0  0  0  0  0  0  0  0  0  0  0
    1.1760   23.4660  -35.8240 C   0  0  0  0  0  0  0  0  0  0  0  0
    0.0720   22.6620  -35.3860 N   0  0  0  0  0  0  0  0  0  0  0  0
    0.1180   21.2290  -35.4000 C   0  0  0  0  0  0  0  0  0  0  0  0
    1.1570   20.6250  -35.7820 O   0  0  0  0  0  0  0  0  0  0  0  0
   -1.0900   20.4390  -34.9990 C   0  0  0  0  0  0  0  0  0  0  0  0
   -0.7530   19.4830  -33.9250 N   0  0  0  0  0  0  0  0  0  0  0  0
    0.2080   20.0740  -32.9700 C   0  0  0  0  0  0  0  0  0  0  0  0
   -0.3500   21.3860  -32.4030 C   0  0  0  0  0  0  0  0  0  0  0  0
   -0.2510   21.4210  -30.8980 C   0  0  0  0  0  0  0  0  0  0  0  0
    0.0530   20.2530  -30.1800 C   0  0  0  0  0  0  0  0  0  0  0  0
    0.1090   20.2800  -28.7860 C   0  0  0  0  0  0  0  0  0  0  0  0
   -0.1300   21.4700  -28.0940 C   0  0  0  0  0  0  0  0  0  0  0  0
   -0.0680   21.4800  -26.7040 O   0  0  0  0  0  0  0  0  0  0  0  0
   -0.4270   22.6490  -28.7950 C   0  0  0  0  0  0  0  0  0  0  0  0
   -0.6570   23.8570  -28.0550 N   0  0  0  0  0  0  0  0  0  0  0  0
   -1.9170   25.0020  -28.3820 S   0  0  0  0  0  0  0  0  0  0  0  0
   -3.1090   24.9440  -27.0650 C   0  0  0  0  0  0  0  0  0  0  0  0
   -2.5990   24.6620  -29.6770 O   0  0  0  0  0  0  0  0  0  0  0  0
   -1.3410   26.3890  -28.4530 O   0  0  0  0  0  0  0  0  0  0  0  0
   -0.4980   22.6140  -30.2000 C   0  0  0  0  0  0  0  0  0  0  0  0
   -2.1980   18.9490  -33.0910 S   0  0  0  0  0  0  0  0  0  0  0  0
   -3.1010   18.2300  -34.0530 O   0  0  0  0  0  0  0  0  0  0  0  0
   -1.8260   17.9810  -32.0020 O   0  0  0  0  0  0  0  0  0  0  0  0
   -3.0720   20.3090  -32.3830 C   0  0  0  0  0  0  0  0  0  0  0  0
   -3.6340   21.2920  -33.2080 C   0  0  0  0  0  0  0  0  0  0  0  0
   -4.3490   22.3560  -32.6480 C   0  0  0  0  0  0  0  0  0  0  0  0
   -4.5100   22.4420  -31.2600 C   0  0  0  0  0  0  0  0  0  0  0  0
   -5.4100   23.7840  -30.5590 S   0  0  0  0  0  0  0  0  0  0  0  0
   -5.0940   23.8740  -29.0910 O   0  0  0  0  0  0  0  0  0  0  0  0
   -4.9970   25.0730  -31.2160 O   0  0  0  0  0  0  0  0  0  0  0  0
   -7.1190   23.5070  -30.7700 N   0  0  0  0  0  0  0  0  0  0  0  0
   -7.5750   22.3640  -29.9800 C   0  0  0  0  0  0  0  0  0  0  0  0
   -8.8170   21.8410  -30.6750 C   0  0  0  0  0  0  0  0  0  0  0  0
   -8.6650   22.2680  -32.1270 C   0  0  0  0  0  0  0  0  0  0  0  0
   -7.4390   23.1740  -32.1590 C   0  0  0  0  0  0  0  0  0  0  0  0
   -3.9350   21.4670  -30.4330 C   0  0  0  0  0  0  0  0  0  0  0  0
   -3.2200   20.4060  -30.9940 C   0  0  0  0  0  0  0  0  0  0  0  0
   -0.8531   25.5214  -35.5936 H   0  0  0  0  0  0  0  0  0  0  0  0
   -0.3195   26.2718  -37.1359 H   0  0  0  0  0  0  0  0  0  0  0  0
   -1.0125   24.6146  -37.1359 H   0  0  0  0  0  0  0  0  0  0  0  0
    1.9608   26.5393  -37.1359 H   0  0  0  0  0  0  0  0  0  0  0  0
    4.2616   25.6140  -36.8821 H   0  0  0  0  0  0  0  0  0  0  0  0
    4.5928   23.3052  -35.9966 H   0  0  0  0  0  0  0  0  0  0  0  0
    2.6234   21.9286  -35.3264 H   0  0  0  0  0  0  0  0  0  0  0  0
   -0.8610   23.1220  -35.2960 H   0  0  0  0  0  0  0  0  0  0  0  0
   -1.8689   21.1273  -34.6390 H   0  0  0  0  0  0  0  0  0  0  0  0
   -1.4525   19.8775  -35.8727 H   0  0  0  0  0  0  0  0  0  0  0  0
    0.3831   19.3669  -32.1457 H   0  0  0  0  0  0  0  0  0  0  0  0
    1.1533   20.2814  -33.4929 H   0  0  0  0  0  0  0  0  0  0  0  0
    0.2226   22.2280  -32.8191 H   0  0  0  0  0  0  0  0  0  0  0  0
   -1.4114   21.4602  -32.6821 H   0  0  0  0  0  0  0  0  0  0  0  0
    0.2476   19.3137  -30.7183 H   0  0  0  0  0  0  0  0  0  0  0  0
    0.3423   19.3603  -28.2294 H   0  0  0  0  0  0  0  0  0  0  0  0
   -2.5873   24.9694  -26.0969 H   0  0  0  0  0  0  0  0  0  0  0  0
   -3.7824   25.8104  -27.1415 H   0  0  0  0  0  0  0  0  0  0  0  0
   -3.6951   24.0163  -27.1415 H   0  0  0  0  0  0  0  0  0  0  0  0
   -0.7492   23.5292  -30.7562 H   0  0  0  0  0  0  0  0  0  0  0  0
   -3.5127   21.2270  -34.2994 H   0  0  0  0  0  0  0  0  0  0  0  0
   -4.7858   23.1269  -33.2998 H   0  0  0  0  0  0  0  0  0  0  0  0
   -6.7979   21.5860  -29.9504 H   0  0  0  0  0  0  0  0  0  0  0  0
   -7.7881   22.6535  -28.9404 H   0  0  0  0  0  0  0  0  0  0  0  0
   -8.8706   20.7450  -30.5979 H   0  0  0  0  0  0  0  0  0  0  0  0
   -9.7397   22.2340  -30.2232 H   0  0  0  0  0  0  0  0  0  0  0  0
   -8.5112   21.3902  -32.7718 H   0  0  0  0  0  0  0  0  0  0  0  0
   -9.5634   22.7839  -32.4968 H   0  0  0  0  0  0  0  0  0  0  0  0
   -6.5930   22.6490  -32.6265 H   0  0  0  0  0  0  0  0  0  0  0  0
   -7.6369   24.0831  -32.7459 H   0  0  0  0  0  0  0  0  0  0  0  0
   -4.0469   21.5374  -29.3410 H   0  0  0  0  0  0  0  0  0  0  0  0
   -2.7710   19.6429  -30.3412 H   0  0  0  0  0  0  0  0  0  0  0  0
  1  2  1  0
  2  3  2  0
  3  4  1  0
  4  5  2  0
  5  6  1  0
  6  7  2  0
  7  8  1  0
  8  9  1  0
  9 10  2  0
  9 11  1  0
 11 12  1  0
 12 13  1  0
 13 14  1  0
 14 15  1  0
 15 16  2  0
 16 17  1  0
 17 18  2  0
 18 19  1  0
 18 20  1  0
 20 21  1  0
 21 22  1  0
 22 23  1  0
 22 24  2  0
 22 25  2  0
 20 26  2  0
 12 27  1  0
 27 28  2  0
 27 29  2  0
 27 30  1  0
 30 31  2  0
 31 32  1  0
 32 33  2  0
 33 34  1  0
 34 35  2  0
 34 36  2  0
 34 37  1  0
 37 38  1  0
 38 39  1  0
 39 40  1  0
 40 41  1  0
 33 42  1  0
 42 43  2  0
  7  2  1  0
 26 15  1  0
 43 30  1  0
 41 37  1  0
  1 44  1  0
  1 45  1  0
  1 46  1  0
  3 47  1  0
  4 48  1  0
  5 49  1  0
  6 50  1  0
  8 51  1  0
 11 52  1  0
 11 53  1  0
 13 54  1  0
 13 55  1  0
 14 56  1  0
 14 57  1  0
 16 58  1  0
 17 59  1  0
 23 60  1  0
 23 61  1  0
 23 62  1  0
 26 63  1  0
 31 64  1  0
 32 65  1  0
 38 66  1  0
 38 67  1  0
 39 68  1  0
 39 69  1  0
 40 70  1  0
 40 71  1  0
 41 72  1  0
 41 73  1  0
 42 74  1  0
 43 75  1  0
M  CHG  2  19  -1  21  -1
M  END
>  <UniqueID>  (12) 
11

>  <SMILES>  (12) 
Cc1ccccc1NC(=O)CN(CCc1ccc([O-])c([N-]S(C)(=O)=O)c1)S(=O)(=O)c1ccc(S(=O)(=O)N2CCCC2)cc1

>  <Energy>  (12) 
78.86025191269202

>  <Genealogy>  (12) 
Cc1ccccc1NC(=O)CN(CCc1ccc([O-])c([N-]S(C)(=O)=O)c1)S(=O)(=O)c1ccc(S(=O)(=O)N2CCCC2)cc1 (protonated)
Cc1ccccc1NC(=O)CN(CCc1ccc([O-])c([N-]S(C)(=O)=O)c1)S(=O)(=O)c1ccc(S(=O)(=O)N2CCCC2)cc1 (3D coordinates assigned)
Cc1ccccc1NC(=O)CN(CCc1ccc([O-])c([N-]S(C)(=O)=O)c1)S(=O)(=O)c1ccc(S(=O)(=O)N2CCCC2)cc1 (nonaromatic ring conformer: 78.86025191269202 kcal/mol)

>  <smiles>  (12) 
Cc1ccccc1NC(=O)CN(CCc1ccc(O)c(NS(C)(=O)=O)c1)S(=O)(=O)c1ccc(S(=O)(=O)N2CCCC2)cc1

>  <score_type>  (12) 
oracle

>  <origin>  (12) 
adgpu

>  <m_score__min__energy>  (12) 
-15.18

>  <m_primary>  (12) 
energy

$$$$
12:0
     RDKit          3D

 48 51  0  0  0  0  0  0  0  0999 V2000
   -2.3570   18.8310  -26.3290 C   0  0  0  0  0  0  0  0  0  0  0  0
   -1.8120   20.0820  -26.8740 N   0  0  0  0  0  0  0  0  0  0  0  0
   -1.2430   20.9030  -25.7890 C   0  0  0  0  0  0  0  0  0  0  0  0
   -0.4770   22.0860  -26.3850 C   0  0  0  0  0  0  0  0  0  0  0  0
   -1.2880   22.8040  -27.4310 C   0  0  0  0  0  0  0  0  0  0  0  0
   -0.8940   24.0820  -27.8530 C   0  0  0  0  0  0  0  0  0  0  0  0
   -1.6200   24.7610  -28.8360 C   0  0  0  0  0  0  0  0  0  0  0  0
   -1.2250   26.0410  -29.2110 O   0  0  0  0  0  0  0  0  0  0  0  0
   -2.7470   24.1620  -29.4240 C   0  0  0  0  0  0  0  0  0  0  0  0
   -3.5290   24.8870  -30.3880 N   0  0  0  0  0  0  0  0  0  0  0  0
   -5.2330   24.6190  -30.5850 S   0  0  0  0  0  0  0  0  0  0  0  0
   -5.9020   24.6380  -29.2390 O   0  0  0  0  0  0  0  0  0  0  0  0
   -5.8200   25.7130  -31.4320 O   0  0  0  0  0  0  0  0  0  0  0  0
   -5.4960   23.0430  -31.3270 C   0  0  0  0  0  0  0  0  0  0  0  0
   -4.4280   22.3960  -31.9870 C   0  0  0  0  0  0  0  0  0  0  0  0
   -4.6390   21.1810  -32.6590 C   0  0  0  0  0  0  0  0  0  0  0  0
   -5.9240   20.6390  -32.6660 C   0  0  0  0  0  0  0  0  0  0  0  0
   -6.9590   21.2620  -32.0300 C   0  0  0  0  0  0  0  0  0  0  0  0
   -6.7790   22.4650  -31.3420 C   0  0  0  0  0  0  0  0  0  0  0  0
   -8.1710   20.5550  -32.2110 N   0  0  0  0  0  0  0  0  0  0  0  0
   -9.4840   20.9740  -31.7310 C   0  0  0  0  0  0  0  0  0  0  0  0
   -7.9130   19.3710  -33.0280 C   0  0  0  0  0  0  0  0  0  0  0  0
   -6.3950   19.3960  -33.3400 C   0  0  0  0  0  0  0  0  0  0  0  0
   -3.1050   22.8590  -29.0420 C   0  0  0  0  0  0  0  0  0  0  0  0
   -2.3860   22.1760  -28.0510 C   0  0  0  0  0  0  0  0  0  0  0  0
   -2.8750   20.8300  -27.5750 C   0  0  0  0  0  0  0  0  0  0  0  0
   -2.3394   18.8715  -25.2299 H   0  0  0  0  0  0  0  0  0  0  0  0
   -3.3932   18.7012  -26.6746 H   0  0  0  0  0  0  0  0  0  0  0  0
   -1.7464   17.9838  -26.6746 H   0  0  0  0  0  0  0  0  0  0  0  0
   -2.0557   21.2783  -25.1497 H   0  0  0  0  0  0  0  0  0  0  0  0
   -0.5553   20.2885  -25.1895 H   0  0  0  0  0  0  0  0  0  0  0  0
   -0.2288   22.7925  -25.5792 H   0  0  0  0  0  0  0  0  0  0  0  0
    0.4344   21.6984  -26.8638 H   0  0  0  0  0  0  0  0  0  0  0  0
   -0.0063   24.5541  -27.4068 H   0  0  0  0  0  0  0  0  0  0  0  0
   -3.1270   25.7350  -30.8450 H   0  0  0  0  0  0  0  0  0  0  0  0
   -3.4246   22.8466  -31.9746 H   0  0  0  0  0  0  0  0  0  0  0  0
   -3.8096   20.6685  -33.1683 H   0  0  0  0  0  0  0  0  0  0  0  0
   -7.6204   22.9488  -30.8243 H   0  0  0  0  0  0  0  0  0  0  0  0
   -9.4889   20.9756  -30.6310 H   0  0  0  0  0  0  0  0  0  0  0  0
   -9.7033   21.9868  -32.1001 H   0  0  0  0  0  0  0  0  0  0  0  0
  -10.2494   20.2755  -32.1001 H   0  0  0  0  0  0  0  0  0  0  0  0
   -8.1750   18.4581  -32.4730 H   0  0  0  0  0  0  0  0  0  0  0  0
   -8.5156   19.3749  -33.9482 H   0  0  0  0  0  0  0  0  0  0  0  0
   -5.8933   18.5092  -32.9254 H   0  0  0  0  0  0  0  0  0  0  0  0
   -6.1781   19.3837  -34.4183 H   0  0  0  0  0  0  0  0  0  0  0  0
   -3.9613   22.3675  -29.5269 H   0  0  0  0  0  0  0  0  0  0  0  0
   -3.7194   20.9802  -26.8862 H   0  0  0  0  0  0  0  0  0  0  0  0
   -3.1842   20.2457  -28.4542 H   0  0  0  0  0  0  0  0  0  0  0  0
  1  2  1  0
  2  3  1  0
  3  4  1  0
  4  5  1  0
  5  6  2  0
  6  7  1  0
  7  8  1  0
  7  9  2  0
  9 10  1  0
 10 11  1  0
 11 12  2  0
 11 13  2  0
 11 14  1  0
 14 15  2  0
 15 16  1  0
 16 17  2  0
 17 18  1  0
 18 19  2  0
 18 20  1  0
 20 21  1  0
 20 22  1  0
 22 23  1  0
  9 24  1  0
 24 25  2  0
 25 26  1  0
 26  2  1  0
 25  5  1  0
 19 14  1  0
 23 17  1  0
  1 27  1  0
  1 28  1  0
  1 29  1  0
  3 30  1  0
  3 31  1  0
  4 32  1  0
  4 33  1  0
  6 34  1  0
 10 35  1  0
 15 36  1  0
 16 37  1  0
 19 38  1  0
 21 39  1  0
 21 40  1  0
 21 41  1  0
 22 42  1  0
 22 43  1  0
 23 44  1  0
 23 45  1  0
 24 46  1  0
 26 47  1  0
 26 48  1  0
M  CHG  1   8  -1
M  END
>  <UniqueID>  (13) 
12

>  <SMILES>  (13) 
CN1CCc2cc([O-])c(NS(=O)(=O)c3ccc4c(c3)N(C)CC4)cc2C1

>  <Energy>  (13) 
67.31834610759469

>  <Genealogy>  (13) 
CN1CCc2cc([O-])c(NS(=O)(=O)c3ccc4c(c3)N(C)CC4)cc2C1 (protonated)
CN1CCc2cc([O-])c(NS(=O)(=O)c3ccc4c(c3)N(C)CC4)cc2C1 (3D coordinates assigned)
CN1CCc2cc([O-])c(NS(=O)(=O)c3ccc4c(c3)N(C)CC4)cc2C1 (nonaromatic ring conformer: 67.31834610759469 kcal/mol)

>  <smiles>  (13) 
CN1CCc2cc(O)c(NS(=O)(=O)c3ccc4c(c3)N(C)CC4)cc2C1

>  <score_type>  (13) 
oracle

>  <origin>  (13) 
adgpu

>  <m_score__min__energy>  (13) 
-13.27

>  <m_primary>  (13) 
energy

$$$$
13:0
     RDKit          3D

 51 54  0  0  0  0  0  0  0  0999 V2000
   -0.0600   16.9950  -33.8260 O   0  0  0  0  0  0  0  0  0  0  0  0
   -0.4870   18.1410  -33.5330 C   0  0  0  0  0  0  0  0  0  0  0  0
   -1.7790   18.5430  -34.0130 N   0  0  0  0  0  0  0  0  0  0  0  0
   -2.6430   19.5080  -33.3980 C   0  0  0  0  0  0  0  0  0  0  0  0
   -2.6660   20.8480  -33.8220 C   0  0  0  0  0  0  0  0  0  0  0  0
   -3.6000   21.7380  -33.2850 C   0  0  0  0  0  0  0  0  0  0  0  0
   -4.5100   21.3040  -32.3130 C   0  0  0  0  0  0  0  0  0  0  0  0
   -5.7130   22.4200  -31.6720 S   0  0  0  0  0  0  0  0  0  0  0  0
   -5.3040   23.8370  -31.9700 O   0  0  0  0  0  0  0  0  0  0  0  0
   -5.7830   22.2480  -30.1800 O   0  0  0  0  0  0  0  0  0  0  0  0
   -7.2760   22.0860  -32.3760 N   0  0  0  0  0  0  0  0  0  0  0  0
   -8.3300   22.2270  -31.3530 C   0  0  0  0  0  0  0  0  0  0  0  0
   -9.5960   21.4640  -31.7720 C   0  0  0  0  0  0  0  0  0  0  0  0
   -9.4010   20.0680  -31.9620 O   0  0  0  0  0  0  0  0  0  0  0  0
   -8.0500   19.7080  -32.2200 C   0  0  0  0  0  0  0  0  0  0  0  0
   -7.2890   20.7630  -33.0400 C   0  0  0  0  0  0  0  0  0  0  0  0
   -4.4460   19.9840  -31.8450 C   0  0  0  0  0  0  0  0  0  0  0  0
   -3.5090   19.0950  -32.3780 C   0  0  0  0  0  0  0  0  0  0  0  0
    0.3340   19.0010  -32.7270 N   0  0  0  0  0  0  0  0  0  0  0  0
   -0.0290   19.5430  -31.4520 C   0  0  0  0  0  0  0  0  0  0  0  0
   -0.1070   18.8160  -30.2820 C   0  0  0  0  0  0  0  0  0  0  0  0
   -0.6920   19.6690  -29.3610 C   0  0  0  0  0  0  0  0  0  0  0  0
   -0.9910   19.3330  -28.0440 O   0  0  0  0  0  0  0  0  0  0  0  0
   -0.9450   20.8800  -29.9070 N   0  0  0  0  0  0  0  0  0  0  0  0
   -1.6530   21.9740  -29.2990 C   0  0  0  0  0  0  0  0  0  0  0  0
   -2.7190   21.7260  -28.4190 C   0  0  0  0  0  0  0  0  0  0  0  0
   -3.4300   22.7890  -27.8540 C   0  0  0  0  0  0  0  0  0  0  0  0
   -3.0800   24.1070  -28.1610 C   0  0  0  0  0  0  0  0  0  0  0  0
   -2.0200   24.3640  -29.0370 C   0  0  0  0  0  0  0  0  0  0  0  0
   -1.6730   25.6740  -29.3420 O   0  0  0  0  0  0  0  0  0  0  0  0
   -1.3100   23.3010  -29.6070 C   0  0  0  0  0  0  0  0  0  0  0  0
   -0.5240   20.8060  -31.1860 C   0  0  0  0  0  0  0  0  0  0  0  0
   -0.6180   21.8480  -32.1020 O   0  0  0  0  0  0  0  0  0  0  0  0
   -1.9472   21.1968  -34.5781 H   0  0  0  0  0  0  0  0  0  0  0  0
   -3.6205   22.7833  -33.6270 H   0  0  0  0  0  0  0  0  0  0  0  0
   -7.9634   21.8223  -30.3981 H   0  0  0  0  0  0  0  0  0  0  0  0
   -8.5782   23.2931  -31.2443 H   0  0  0  0  0  0  0  0  0  0  0  0
  -10.3567   21.6024  -30.9896 H   0  0  0  0  0  0  0  0  0  0  0  0
   -9.9044   21.8747  -32.7448 H   0  0  0  0  0  0  0  0  0  0  0  0
   -7.5339   19.5737  -31.2579 H   0  0  0  0  0  0  0  0  0  0  0  0
   -8.0656   18.7815  -32.8128 H   0  0  0  0  0  0  0  0  0  0  0  0
   -6.2511   20.4248  -33.1759 H   0  0  0  0  0  0  0  0  0  0  0  0
   -7.8036   20.8753  -34.0057 H   0  0  0  0  0  0  0  0  0  0  0  0
   -5.1350   19.6474  -31.0564 H   0  0  0  0  0  0  0  0  0  0  0  0
   -3.4513   18.0656  -31.9945 H   0  0  0  0  0  0  0  0  0  0  0  0
    0.2245   17.7804  -30.1161 H   0  0  0  0  0  0  0  0  0  0  0  0
   -1.5290   18.5020  -27.8290 H   0  0  0  0  0  0  0  0  0  0  0  0
   -2.9959   20.6902  -28.1730 H   0  0  0  0  0  0  0  0  0  0  0  0
   -4.2655   22.5880  -27.1673 H   0  0  0  0  0  0  0  0  0  0  0  0
   -3.6383   24.9425  -27.7136 H   0  0  0  0  0  0  0  0  0  0  0  0
   -0.4799   23.5055  -30.2991 H   0  0  0  0  0  0  0  0  0  0  0  0
  1  2  2  0
  2  3  1  0
  3  4  1  0
  4  5  2  0
  5  6  1  0
  6  7  2  0
  7  8  1  0
  8  9  2  0
  8 10  2  0
  8 11  1  0
 11 12  1  0
 12 13  1  0
 13 14  1  0
 14 15  1  0
 15 16  1  0
  7 17  1  0
 17 18  2  0
  2 19  1  0
 19 20  1  0
 20 21  1  0
 21 22  2  0
 22 23  1  0
 22 24  1  0
 24 25  1  0
 25 26  2  0
 26 27  1  0
 27 28  2  0
 28 29  1  0
 29 30  1  0
 29 31  2  0
 24 32  1  0
 32 33  1  0
 18  4  1  0
 32 20  2  0
 16 11  1  0
 31 25  1  0
  5 34  1  0
  6 35  1  0
 12 36  1  0
 12 37  1  0
 13 38  1  0
 13 39  1  0
 15 40  1  0
 15 41  1  0
 16 42  1  0
 16 43  1  0
 17 44  1  0
 18 45  1  0
 21 46  1  0
 23 47  1  0
 26 48  1  0
 27 49  1  0
 28 50  1  0
 31 51  1  0
M  CHG  4   3  -1  19  -1  30  -1  33  -1
M  END
>  <UniqueID>  (14) 
13

>  <SMILES>  (14) 
O=C([N-]c1ccc(S(=O)(=O)N2CCOCC2)cc1)[N-]c1cc(O)n(-c2cccc([O-])c2)c1[O-]

>  <Energy>  (14) 
106.76178728102094

>  <Genealogy>  (14) 
O=C([N-]c1ccc(S(=O)(=O)N2CCOCC2)cc1)[N-]c1cc(O)n(-c2cccc([O-])c2)c1[O-] (protonated)
O=C([N-]c1ccc(S(=O)(=O)N2CCOCC2)cc1)[N-]c1cc(O)n(-c2cccc([O-])c2)c1[O-] (3D coordinates assigned)
O=C([N-]c1ccc(S(=O)(=O)N2CCOCC2)cc1)[N-]c1cc(O)n(-c2cccc([O-])c2)c1[O-] (nonaromatic ring conformer: 106.76178728102094 kcal/mol)

>  <smiles>  (14) 
O=C(Nc1ccc(S(=O)(=O)N2CCOCC2)cc1)Nc1cc(O)n(-c2cccc(O)c2)c1O

>  <score_type>  (14) 
oracle

>  <origin>  (14) 
adgpu

>  <m_score__min__energy>  (14) 
-15.029999999999999

>  <m_primary>  (14) 
energy

$$$$
14:0
     RDKit          3D

 65 69  0  0  0  0  0  0  0  0999 V2000
   -4.4730   25.3020  -29.7200 N   0  0  0  0  0  0  0  0  0  0  0  0
   -4.6140   24.2450  -30.4710 C   0  0  0  0  0  0  0  0  0  0  0  0
   -5.8510   23.7950  -30.8230 N   0  0  0  0  0  0  0  0  0  0  0  0
   -5.9820   22.6890  -31.6080 C   0  0  0  0  0  0  0  0  0  0  0  0
   -7.2000   22.3140  -31.9060 N   0  0  0  0  0  0  0  0  0  0  0  0
   -4.8720   22.0080  -32.0610 C   0  0  0  0  0  0  0  0  0  0  0  0
   -5.0140   20.8900  -32.8550 C   0  0  0  0  0  0  0  0  0  0  0  0
   -3.8800   20.2190  -33.2990 C   0  0  0  0  0  0  0  0  0  0  0  0
   -2.6410   20.6990  -32.9280 C   0  0  0  0  0  0  0  0  0  0  0  0
   -1.1400   19.9470  -33.4190 S   0  0  0  0  0  0  0  0  0  0  0  0
   -1.3220   18.9740  -34.5480 O   0  0  0  0  0  0  0  0  0  0  0  0
   -0.1470   20.9940  -33.9010 O   0  0  0  0  0  0  0  0  0  0  0  0
   -0.3770   19.1360  -32.0620 C   0  0  0  0  0  0  0  0  0  0  0  0
    0.3800   18.0180  -32.3580 C   0  0  0  0  0  0  0  0  0  0  0  0
    1.0030   17.3460  -31.3200 C   0  0  0  0  0  0  0  0  0  0  0  0
    0.8550   17.8020  -30.0060 C   0  0  0  0  0  0  0  0  0  0  0  0
    0.0910   18.9270  -29.7170 C   0  0  0  0  0  0  0  0  0  0  0  0
   -0.0510   19.4370  -28.0530 S   0  0  0  0  0  0  0  0  0  0  0  0
    1.2820   19.8480  -27.5180 O   0  0  0  0  0  0  0  0  0  0  0  0
   -0.5680   18.2480  -27.2760 O   0  0  0  0  0  0  0  0  0  0  0  0
   -1.2040   20.7340  -27.9120 C   0  0  0  0  0  0  0  0  0  0  0  0
   -0.7670   22.0380  -28.0420 C   0  0  0  0  0  0  0  0  0  0  0  0
   -1.6080   23.1250  -27.9460 C   0  0  0  0  0  0  0  0  0  0  0  0
   -1.0530   24.7770  -28.1100 S   0  0  0  0  0  0  0  0  0  0  0  0
   -1.6280   25.3800  -29.3460 O   0  0  0  0  0  0  0  0  0  0  0  0
    0.4520   24.7370  -28.2170 O   0  0  0  0  0  0  0  0  0  0  0  0
   -1.4700   25.6230  -26.6720 N   0  0  0  0  0  0  0  0  0  0  0  0
   -1.0350   26.9660  -26.6470 C   0  0  0  0  0  0  0  0  0  0  0  0
   -0.5480   27.5490  -25.3870 C   0  0  0  0  0  0  0  0  0  0  0  0
   -0.8700   26.7750  -24.1330 C   0  0  0  0  0  0  0  0  0  0  0  0
   -0.4640   25.3290  -24.4370 C   0  0  0  0  0  0  0  0  0  0  0  0
   -1.4360   24.8550  -25.4860 C   0  0  0  0  0  0  0  0  0  0  0  0
   -2.9590   22.8930  -27.7070 C   0  0  0  0  0  0  0  0  0  0  0  0
   -3.4240   21.5980  -27.5740 C   0  0  0  0  0  0  0  0  0  0  0  0
   -2.5450   20.5400  -27.6780 C   0  0  0  0  0  0  0  0  0  0  0  0
   -3.0350   19.2710  -27.5410 O   0  0  0  0  0  0  0  0  0  0  0  0
   -0.5190   19.5820  -30.7650 C   0  0  0  0  0  0  0  0  0  0  0  0
   -2.5230   21.8350  -32.1200 C   0  0  0  0  0  0  0  0  0  0  0  0
   -3.6420   22.5080  -31.6750 C   0  0  0  0  0  0  0  0  0  0  0  0
   -3.5130   23.6000  -30.8990 N   0  0  0  0  0  0  0  0  0  0  0  0
   -5.3430   25.7950  -29.3950 H   0  0  0  0  0  0  0  0  0  0  0  0
   -6.6510   24.3350  -30.4620 H   0  0  0  0  0  0  0  0  0  0  0  0
   -7.9650   22.8990  -31.5120 H   0  0  0  0  0  0  0  0  0  0  0  0
   -6.0157   20.5319  -33.1349 H   0  0  0  0  0  0  0  0  0  0  0  0
   -3.9689   19.3243  -33.9327 H   0  0  0  0  0  0  0  0  0  0  0  0
    0.4852   17.6696  -33.3960 H   0  0  0  0  0  0  0  0  0  0  0  0
    1.6134   16.4549  -31.5284 H   0  0  0  0  0  0  0  0  0  0  0  0
    1.3517   17.2611  -29.1871 H   0  0  0  0  0  0  0  0  0  0  0  0
    0.3018   22.2167  -28.2309 H   0  0  0  0  0  0  0  0  0  0  0  0
   -0.2152   27.0498  -27.3756 H   0  0  0  0  0  0  0  0  0  0  0  0
   -1.9513   27.5370  -26.8573 H   0  0  0  0  0  0  0  0  0  0  0  0
    0.5463   27.6362  -25.4572 H   0  0  0  0  0  0  0  0  0  0  0  0
   -1.0702   28.5116  -25.2840 H   0  0  0  0  0  0  0  0  0  0  0  0
   -0.2952   27.1658  -23.2804 H   0  0  0  0  0  0  0  0  0  0  0  0
   -1.9332   26.8550  -23.8625 H   0  0  0  0  0  0  0  0  0  0  0  0
    0.5661   25.2907  -24.8209 H   0  0  0  0  0  0  0  0  0  0  0  0
   -0.4920   24.6974  -23.5368 H   0  0  0  0  0  0  0  0  0  0  0  0
   -1.1664   23.8236  -25.7572 H   0  0  0  0  0  0  0  0  0  0  0  0
   -2.4358   24.9469  -25.0365 H   0  0  0  0  0  0  0  0  0  0  0  0
   -3.6565   23.7395  -27.6240 H   0  0  0  0  0  0  0  0  0  0  0  0
   -4.4917   21.4118  -27.3858 H   0  0  0  0  0  0  0  0  0  0  0  0
   -2.5010   18.4750  -27.2280 H   0  0  0  0  0  0  0  0  0  0  0  0
   -1.1290   20.4749  -30.5635 H   0  0  0  0  0  0  0  0  0  0  0  0
   -1.5239   22.1967  -31.8355 H   0  0  0  0  0  0  0  0  0  0  0  0
   -2.5400   23.9250  -30.6430 H   0  0  0  0  0  0  0  0  0  0  0  0
  1  2  2  3
  2  3  1  0
  3  4  1  0
  4  5  2  3
  4  6  1  0
  6  7  2  0
  7  8  1  0
  8  9  2  0
  9 10  1  0
 10 11  2  0
 10 12  2  0
 10 13  1  0
 13 14  2  0
 14 15  1  0
 15 16  2  0
 16 17  1  0
 17 18  1  0
 18 19  2  0
 18 20  2  0
 18 21  1  0
 21 22  2  0
 22 23  1  0
 23 24  1  0
 24 25  2  0
 24 26  2  0
 24 27  1  0
 27 28  1  0
 28 29  1  0
 29 30  1  0
 30 31  1  0
 31 32  1  0
 23 33  2  0
 33 34  1  0
 34 35  2  0
 35 36  1  0
 17 37  2  0
  9 38  1  0
 38 39  2  0
 39 40  1  0
 40  2  1  0
 39  6  1  0
 37 13  1  0
 35 21  1  0
 32 27  1  0
  1 41  1  0
  3 42  1  0
  5 43  1  0
  7 44  1  0
  8 45  1  0
 14 46  1  0
 15 47  1  0
 16 48  1  0
 22 49  1  0
 28 50  1  0
 28 51  1  0
 29 52  1  0
 29 53  1  0
 30 54  1  0
 30 55  1  0
 31 56  1  0
 31 57  1  0
 32 58  1  0
 32 59  1  0
 33 60  1  0
 34 61  1  0
 36 62  1  0
 37 63  1  0
 38 64  1  0
 40 65  1  0
M  END
>  <smiles>  (15) 
N=c1[nH]c(=N)c2ccc(S(=O)(=O)c3cccc(S(=O)(=O)c4cc(S(=O)(=O)N5CCCCC5)ccc4O)c3)cc2[nH]1

>  <score_type>  (15) 
oracle

>  <origin>  (15) 
adgpu

>  <m_score__min__energy>  (15) 
-11.5

>  <m_primary>  (15) 
energy

$$$$
15:0
     RDKit          3D

 51 54  0  0  0  0  0  0  0  0999 V2000
    1.5820   18.8520  -34.7640 O   0  0  0  0  0  0  0  0  0  0  0  0
    0.8290   19.2830  -33.8480 C   0  0  0  0  0  0  0  0  0  0  0  0
   -0.4170   19.9020  -34.1840 N   0  0  0  0  0  0  0  0  0  0  0  0
   -0.8730   21.1670  -33.6150 C   0  0  0  0  0  0  0  0  0  0  0  0
   -2.2820   21.0310  -33.0390 C   0  0  0  0  0  0  0  0  0  0  0  0
   -2.8650   19.7680  -33.4770 N   0  0  0  0  0  0  0  0  0  0  0  0
   -4.0890   19.3030  -33.4870 C   0  0  0  0  0  0  0  0  0  0  0  0
   -4.2300   18.0280  -34.0510 C   0  0  0  0  0  0  0  0  0  0  0  0
   -5.4810   17.4400  -34.1910 C   0  0  0  0  0  0  0  0  0  0  0  0
   -6.5860   18.0960  -33.7770 N   0  0  0  0  0  0  0  0  0  0  0  0
   -6.5250   19.3240  -33.2030 C   0  0  0  0  0  0  0  0  0  0  0  0
   -7.7200   19.9250  -32.7930 C   0  0  0  0  0  0  0  0  0  0  0  0
   -7.7060   21.1710  -32.1730 C   0  0  0  0  0  0  0  0  0  0  0  0
   -9.2090   21.9150  -31.6560 Cl  0  0  0  0  0  0  0  0  0  0  0  0
   -6.4940   21.8180  -31.9480 C   0  0  0  0  0  0  0  0  0  0  0  0
   -5.2910   21.2350  -32.3550 C   0  0  0  0  0  0  0  0  0  0  0  0
   -5.2680   19.9790  -33.0130 C   0  0  0  0  0  0  0  0  0  0  0  0
    1.2320   19.1380  -32.4300 C   0  0  0  0  0  0  0  0  0  0  0  0
    2.4680   18.5560  -32.0910 C   0  0  0  0  0  0  0  0  0  0  0  0
    2.8450   18.4240  -30.7520 C   0  0  0  0  0  0  0  0  0  0  0  0
    1.9990   18.8720  -29.7360 C   0  0  0  0  0  0  0  0  0  0  0  0
    0.7670   19.4560  -30.0550 C   0  0  0  0  0  0  0  0  0  0  0  0
   -0.3020   20.0080  -28.7700 S   0  0  0  0  0  0  0  0  0  0  0  0
   -1.7240   19.6640  -29.1190 O   0  0  0  0  0  0  0  0  0  0  0  0
    0.0880   19.3360  -27.4830 O   0  0  0  0  0  0  0  0  0  0  0  0
   -0.1590   21.7280  -28.6070 N   0  0  0  0  0  0  0  0  0  0  0  0
   -1.1170   22.6850  -29.0800 C   0  0  0  0  0  0  0  0  0  0  0  0
   -2.0590   22.3690  -30.0780 C   0  0  0  0  0  0  0  0  0  0  0  0
   -2.9740   23.3350  -30.5110 C   0  0  0  0  0  0  0  0  0  0  0  0
   -2.9570   24.6180  -29.9550 C   0  0  0  0  0  0  0  0  0  0  0  0
   -3.8640   25.5760  -30.3880 O   0  0  0  0  0  0  0  0  0  0  0  0
   -2.0240   24.9360  -28.9630 C   0  0  0  0  0  0  0  0  0  0  0  0
   -1.1100   23.9710  -28.5270 C   0  0  0  0  0  0  0  0  0  0  0  0
    0.3840   19.5820  -31.3970 C   0  0  0  0  0  0  0  0  0  0  0  0
   -0.1840   21.4700  -32.8129 H   0  0  0  0  0  0  0  0  0  0  0  0
   -0.8916   21.9241  -34.4128 H   0  0  0  0  0  0  0  0  0  0  0  0
   -2.2327   21.0509  -31.9403 H   0  0  0  0  0  0  0  0  0  0  0  0
   -2.9054   21.8655  -33.3926 H   0  0  0  0  0  0  0  0  0  0  0  0
   -3.3356   17.4838  -34.3884 H   0  0  0  0  0  0  0  0  0  0  0  0
   -5.5712   16.4396  -34.6393 H   0  0  0  0  0  0  0  0  0  0  0  0
   -8.6769   19.4094  -32.9618 H   0  0  0  0  0  0  0  0  0  0  0  0
   -6.4832   22.7965  -31.4456 H   0  0  0  0  0  0  0  0  0  0  0  0
   -4.3441   21.7602  -32.1613 H   0  0  0  0  0  0  0  0  0  0  0  0
    3.1417   18.2027  -32.8856 H   0  0  0  0  0  0  0  0  0  0  0  0
    3.8119   17.9654  -30.4976 H   0  0  0  0  0  0  0  0  0  0  0  0
    2.3006   18.7661  -28.6835 H   0  0  0  0  0  0  0  0  0  0  0  0
   -2.0755   21.3609  -30.5179 H   0  0  0  0  0  0  0  0  0  0  0  0
   -3.7085   23.0846  -31.2906 H   0  0  0  0  0  0  0  0  0  0  0  0
   -2.0089   25.9451  -28.5255 H   0  0  0  0  0  0  0  0  0  0  0  0
   -0.3804   24.2245  -27.7438 H   0  0  0  0  0  0  0  0  0  0  0  0
   -0.5883   20.0320  -31.6460 H   0  0  0  0  0  0  0  0  0  0  0  0
  1  2  2  0
  2  3  1  0
  3  4  1  0
  4  5  1  0
  5  6  1  0
  6  7  2  3
  7  8  1  0
  8  9  2  0
  9 10  1  0
 10 11  1  0
 11 12  2  0
 12 13  1  0
 13 14  1  0
 13 15  2  0
 15 16  1  0
 16 17  2  0
  2 18  1  0
 18 19  2  0
 19 20  1  0
 20 21  2  0
 21 22  1  0
 22 23  1  0
 23 24  2  0
 23 25  2  0
 23 26  1  0
 26 27  1  0
 27 28  2  0
 28 29  1  0
 29 30  2  0
 30 31  1  0
 30 32  1  0
 32 33  2  0
 22 34  2  0
 17  7  1  0
 34 18  1  0
 17 11  1  0
 33 27  1  0
  4 35  1  0
  4 36  1  0
  5 37  1  0
  5 38  1  0
  8 39  1  0
  9 40  1  0
 12 41  1  0
 15 42  1  0
 16 43  1  0
 19 44  1  0
 20 45  1  0
 21 46  1  0
 28 47  1  0
 29 48  1  0
 32 49  1  0
 33 50  1  0
 34 51  1  0
M  CHG  4   3  -1  10  -1  26  -1  31  -1
M  END
>  <UniqueID>  (16) 
14

>  <SMILES>  (16) 
O=C([N-]CCN=c1cc[n-]c2cc(Cl)ccc12)c1cccc(S(=O)(=O)[N-]c2ccc([O-])cc2)c1

>  <Energy>  (16) 
74.90169773570103

>  <Genealogy>  (16) 
O=C([N-]CCN=c1cc[n-]c2cc(Cl)ccc12)c1cccc(S(=O)(=O)[N-]c2ccc([O-])cc2)c1 (protonated)
O=C([N-]CCN=c1cc[n-]c2cc(Cl)ccc12)c1cccc(S(=O)(=O)[N-]c2ccc([O-])cc2)c1 (3D coordinates assigned)
O=C([N-]CCN=c1cc[n-]c2cc(Cl)ccc12)c1cccc(S(=O)(=O)[N-]c2ccc([O-])cc2)c1 (optimized conformer: 74.90169773570103 kcal/mol)

>  <smiles>  (16) 
O=C(NCCN=c1cc[nH]c2cc(Cl)ccc12)c1cccc(S(=O)(=O)Nc2ccc(O)cc2)c1

>  <score_type>  (16) 
oracle

>  <origin>  (16) 
adgpu

>  <m_score__min__energy>  (16) 
-12.68

>  <m_primary>  (16) 
energy

$$$$
16:0
     RDKit          3D

 69 73  0  0  0  0  0  0  0  0999 V2000
   -2.4160   22.2300  -32.0330 O   0  0  0  0  0  0  0  0  0  0  0  0
   -3.4500   21.8950  -31.3940 C   0  0  0  0  0  0  0  0  0  0  0  0
   -3.5650   22.1710  -29.9870 N   0  0  0  0  0  0  0  0  0  0  0  0
   -2.4990   22.6870  -29.1730 C   0  0  0  0  0  0  0  0  0  0  0  0
   -2.2150   22.1490  -27.9060 C   0  0  0  0  0  0  0  0  0  0  0  0
   -1.1480   22.6460  -27.1520 C   0  0  0  0  0  0  0  0  0  0  0  0
   -0.3450   23.6770  -27.6590 C   0  0  0  0  0  0  0  0  0  0  0  0
    1.0320   24.2720  -26.7360 S   0  0  0  0  0  0  0  0  0  0  0  0
    2.1640   24.6090  -27.6680 O   0  0  0  0  0  0  0  0  0  0  0  0
    1.4900   23.1900  -25.7980 O   0  0  0  0  0  0  0  0  0  0  0  0
    0.5690   25.6860  -25.8200 N   0  0  0  0  0  0  0  0  0  0  0  0
    0.2080   25.2980  -24.4430 C   0  0  0  0  0  0  0  0  0  0  0  0
   -0.6600   26.3830  -23.7830 C   0  0  0  0  0  0  0  0  0  0  0  0
   -1.8770   26.6550  -24.4670 O   0  0  0  0  0  0  0  0  0  0  0  0
   -1.8730   26.2520  -25.8290 C   0  0  0  0  0  0  0  0  0  0  0  0
   -0.5050   26.4390  -26.5080 C   0  0  0  0  0  0  0  0  0  0  0  0
   -0.6110   24.1970  -28.9310 C   0  0  0  0  0  0  0  0  0  0  0  0
   -1.6780   23.7020  -29.6850 C   0  0  0  0  0  0  0  0  0  0  0  0
   -4.5460   21.2110  -32.1100 C   0  0  0  0  0  0  0  0  0  0  0  0
   -4.2750   19.9850  -32.7410 C   0  0  0  0  0  0  0  0  0  0  0  0
   -5.2670   19.3250  -33.4770 C   0  0  0  0  0  0  0  0  0  0  0  0
   -4.9270   17.7910  -34.2720 S   0  0  0  0  0  0  0  0  0  0  0  0
   -5.3500   17.8980  -35.7110 O   0  0  0  0  0  0  0  0  0  0  0  0
   -3.4500   17.5040  -34.2270 O   0  0  0  0  0  0  0  0  0  0  0  0
   -5.8220   16.5090  -33.4840 N   0  0  0  0  0  0  0  0  0  0  0  0
   -7.2280   16.8950  -33.3080 C   0  0  0  0  0  0  0  0  0  0  0  0
   -7.3910   17.4780  -31.9110 C   0  0  0  0  0  0  0  0  0  0  0  0
   -6.1210   17.1220  -31.1650 C   0  0  0  0  0  0  0  0  0  0  0  0
   -5.3060   16.2790  -32.1310 C   0  0  0  0  0  0  0  0  0  0  0  0
   -6.5450   19.8830  -33.5690 C   0  0  0  0  0  0  0  0  0  0  0  0
   -6.8340   21.0900  -32.9300 C   0  0  0  0  0  0  0  0  0  0  0  0
   -5.8470   21.7630  -32.1930 C   0  0  0  0  0  0  0  0  0  0  0  0
   -6.1990   22.9620  -31.4800 N   0  0  0  0  0  0  0  0  0  0  0  0
   -5.4450   24.1990  -31.5930 C   0  0  0  0  0  0  0  0  0  0  0  0
   -6.1420   25.1850  -30.6660 C   0  0  0  0  0  0  0  0  0  0  0  0
   -7.0070   24.3450  -29.7290 C   0  0  0  0  0  0  0  0  0  0  0  0
   -7.1870   22.9960  -30.4150 C   0  0  0  0  0  0  0  0  0  0  0  0
   -4.4440   21.8880  -29.5020 H   0  0  0  0  0  0  0  0  0  0  0  0
   -2.8351   21.3332  -27.5060 H   0  0  0  0  0  0  0  0  0  0  0  0
   -0.9377   22.2265  -26.1571 H   0  0  0  0  0  0  0  0  0  0  0  0
   -0.3538   24.3526  -24.4696 H   0  0  0  0  0  0  0  0  0  0  0  0
    1.1304   25.1770  -23.8560 H   0  0  0  0  0  0  0  0  0  0  0  0
   -0.9045   26.0548  -22.7620 H   0  0  0  0  0  0  0  0  0  0  0  0
   -0.0723   27.3126  -23.8038 H   0  0  0  0  0  0  0  0  0  0  0  0
   -2.1472   25.1880  -25.8804 H   0  0  0  0  0  0  0  0  0  0  0  0
   -2.5944   26.8885  -26.3623 H   0  0  0  0  0  0  0  0  0  0  0  0
   -0.5745   26.0866  -27.5477 H   0  0  0  0  0  0  0  0  0  0  0  0
   -0.2494   27.5080  -26.4637 H   0  0  0  0  0  0  0  0  0  0  0  0
    0.0225   24.9986  -29.3386 H   0  0  0  0  0  0  0  0  0  0  0  0
   -1.8753   24.1112  -30.6868 H   0  0  0  0  0  0  0  0  0  0  0  0
   -3.2731   19.5390  -32.6560 H   0  0  0  0  0  0  0  0  0  0  0  0
   -7.5041   17.6485  -34.0603 H   0  0  0  0  0  0  0  0  0  0  0  0
   -7.8807   16.0183  -33.4319 H   0  0  0  0  0  0  0  0  0  0  0  0
   -7.5113   18.5702  -31.9632 H   0  0  0  0  0  0  0  0  0  0  0  0
   -8.2828   17.0778  -31.4065 H   0  0  0  0  0  0  0  0  0  0  0  0
   -5.5690   18.0326  -30.8892 H   0  0  0  0  0  0  0  0  0  0  0  0
   -6.3341   16.5814  -30.2310 H   0  0  0  0  0  0  0  0  0  0  0  0
   -4.2473   16.5732  -32.0808 H   0  0  0  0  0  0  0  0  0  0  0  0
   -5.3866   15.2138  -31.8685 H   0  0  0  0  0  0  0  0  0  0  0  0
   -7.3266   19.3688  -34.1475 H   0  0  0  0  0  0  0  0  0  0  0  0
   -7.8447   21.5177  -33.0047 H   0  0  0  0  0  0  0  0  0  0  0  0
   -4.4029   24.0445  -31.2767 H   0  0  0  0  0  0  0  0  0  0  0  0
   -5.4138   24.5651  -32.6298 H   0  0  0  0  0  0  0  0  0  0  0  0
   -5.4001   25.7577  -30.0901 H   0  0  0  0  0  0  0  0  0  0  0  0
   -6.7472   25.9093  -31.2309 H   0  0  0  0  0  0  0  0  0  0  0  0
   -6.5047   24.2159  -28.7590 H   0  0  0  0  0  0  0  0  0  0  0  0
   -7.9754   24.8291  -29.5344 H   0  0  0  0  0  0  0  0  0  0  0  0
   -7.0112   22.1767  -29.7023 H   0  0  0  0  0  0  0  0  0  0  0  0
   -8.2082   22.8713  -30.8042 H   0  0  0  0  0  0  0  0  0  0  0  0
  1  2  2  0
  2  3  1  0
  3  4  1  0
  4  5  2  0
  5  6  1  0
  6  7  2  0
  7  8  1  0
  8  9  2  0
  8 10  2  0
  8 11  1  0
 11 12  1  0
 12 13  1  0
 13 14  1  0
 14 15  1  0
 15 16  1  0
  7 17  1  0
 17 18  2  0
  2 19  1  0
 19 20  2  0
 20 21  1  0
 21 22  1  0
 22 23  2  0
 22 24  2  0
 22 25  1  0
 25 26  1  0
 26 27  1  0
 27 28  1  0
 28 29  1  0
 21 30  2  0
 30 31  1  0
 31 32  2  0
 32 33  1  0
 33 34  1  0
 34 35  1  0
 35 36  1  0
 36 37  1  0
 18  4  1  0
 32 19  1  0
 37 33  1  0
 16 11  1  0
 29 25  1  0
  3 38  1  0
  5 39  1  0
  6 40  1  0
 12 41  1  0
 12 42  1  0
 13 43  1  0
 13 44  1  0
 15 45  1  0
 15 46  1  0
 16 47  1  0
 16 48  1  0
 17 49  1  0
 18 50  1  0
 20 51  1  0
 26 52  1  0
 26 53  1  0
 27 54  1  0
 27 55  1  0
 28 56  1  0
 28 57  1  0
 29 58  1  0
 29 59  1  0
 30 60  1  0
 31 61  1  0
 34 62  1  0
 34 63  1  0
 35 64  1  0
 35 65  1  0
 36 66  1  0
 36 67  1  0
 37 68  1  0
 37 69  1  0
M  END
>  <UniqueID>  (17) 
15

>  <SMILES>  (17) 
O=C(Nc1ccc(S(=O)(=O)N2CCOCC2)cc1)c1cc(S(=O)(=O)N2CCCC2)ccc1N1CCCC1

>  <Energy>  (17) 
97.51563204204975

>  <Genealogy>  (17) 
O=C(Nc1ccc(S(=O)(=O)N2CCOCC2)cc1)c1cc(S(=O)(=O)N2CCCC2)ccc1N1CCCC1 (3D coordinates assigned)
O=C(Nc1ccc(S(=O)(=O)N2CCOCC2)cc1)c1cc(S(=O)(=O)N2CCCC2)ccc1N1CCCC1 (nonaromatic ring conformer: 97.51563204204975 kcal/mol)

>  <smiles>  (17) 
O=C(Nc1ccc(S(=O)(=O)N2CCOCC2)cc1)c1cc(S(=O)(=O)N2CCCC2)ccc1N1CCCC1

>  <score_type>  (17) 
oracle

>  <origin>  (17) 
adgpu

>  <m_score__min__energy>  (17) 
-10.27

>  <m_primary>  (17) 
energy

$$$$
17:0
     RDKit          3D

 67 71  0  0  0  0  0  0  0  0999 V2000
   -3.2180   21.0710  -33.8320 O   0  0  0  0  0  0  0  0  0  0  0  0
   -2.6260   20.6880  -32.7880 C   0  0  0  0  0  0  0  0  0  0  0  0
   -2.2220   19.3160  -32.6650 N   0  0  0  0  0  0  0  0  0  0  0  0
   -3.0130   18.2060  -33.1230 C   0  0  0  0  0  0  0  0  0  0  0  0
   -2.3710   16.9900  -33.4530 C   0  0  0  0  0  0  0  0  0  0  0  0
   -3.1220   15.8700  -33.8410 C   0  0  0  0  0  0  0  0  0  0  0  0
   -4.5110   15.9780  -33.8970 C   0  0  0  0  0  0  0  0  0  0  0  0
   -5.1450   17.1480  -33.5710 C   0  0  0  0  0  0  0  0  0  0  0  0
   -4.4230   18.2760  -33.1730 C   0  0  0  0  0  0  0  0  0  0  0  0
   -6.6190   17.0330  -33.6690 C   0  0  0  0  0  0  0  0  0  0  0  0
   -6.8490   15.5780  -34.1240 C   0  0  0  0  0  0  0  0  0  0  0  0
   -5.4670   14.9010  -34.2390 C   0  0  0  0  0  0  0  0  0  0  0  0
   -2.3570   21.6430  -31.6810 C   0  0  0  0  0  0  0  0  0  0  0  0
   -3.2650   22.6980  -31.4790 C   0  0  0  0  0  0  0  0  0  0  0  0
   -3.0410   23.6660  -30.4880 C   0  0  0  0  0  0  0  0  0  0  0  0
   -3.9780   24.7220  -30.2340 N   0  0  0  0  0  0  0  0  0  0  0  0
   -5.6930   24.6130  -30.4710 S   0  0  0  0  0  0  0  0  0  0  0  0
   -6.0110   24.5860  -31.9410 O   0  0  0  0  0  0  0  0  0  0  0  0
   -6.3390   25.8220  -29.8530 O   0  0  0  0  0  0  0  0  0  0  0  0
   -6.3170   23.1420  -29.6670 C   0  0  0  0  0  0  0  0  0  0  0  0
   -7.0260   22.2510  -30.6510 C   0  0  0  0  0  0  0  0  0  0  0  0
   -8.3490   22.5390  -31.0300 C   0  0  0  0  0  0  0  0  0  0  0  0
   -9.0200   21.7160  -31.9400 C   0  0  0  0  0  0  0  0  0  0  0  0
   -8.3720   20.6060  -32.4890 C   0  0  0  0  0  0  0  0  0  0  0  0
   -7.0500   20.3200  -32.1320 C   0  0  0  0  0  0  0  0  0  0  0  0
   -6.3730   21.1400  -31.2210 C   0  0  0  0  0  0  0  0  0  0  0  0
   -5.0890   20.8450  -30.8870 F   0  0  0  0  0  0  0  0  0  0  0  0
   -1.8740   23.6050  -29.7230 C   0  0  0  0  0  0  0  0  0  0  0  0
   -0.9590   22.5690  -29.9120 C   0  0  0  0  0  0  0  0  0  0  0  0
   -1.1990   21.5670  -30.8640 C   0  0  0  0  0  0  0  0  0  0  0  0
   -0.2450   20.4420  -30.9450 C   0  0  0  0  0  0  0  0  0  0  0  0
    0.5230   20.3710  -31.9430 O   0  0  0  0  0  0  0  0  0  0  0  0
   -0.1640   19.4430  -29.9070 N   0  0  0  0  0  0  0  0  0  0  0  0
   -0.6280   19.7270  -28.5390 C   0  0  0  0  0  0  0  0  0  0  0  0
    0.3940   19.2180  -27.5140 C   0  0  0  0  0  0  0  0  0  0  0  0
    0.9140   17.7910  -27.8070 C   0  0  0  0  0  0  0  0  0  0  0  0
    0.2800   17.1560  -29.0490 C   0  0  0  0  0  0  0  0  0  0  0  0
    0.3600   18.1100  -30.2450 C   0  0  0  0  0  0  0  0  0  0  0  0
   -1.3230   19.1130  -32.1650 H   0  0  0  0  0  0  0  0  0  0  0  0
   -1.2742   16.9216  -33.4052 H   0  0  0  0  0  0  0  0  0  0  0  0
   -2.6236   14.9233  -34.0965 H   0  0  0  0  0  0  0  0  0  0  0  0
   -4.9452   19.2056  -32.9024 H   0  0  0  0  0  0  0  0  0  0  0  0
   -7.0915   17.2169  -32.6928 H   0  0  0  0  0  0  0  0  0  0  0  0
   -7.0563   17.7677  -34.3611 H   0  0  0  0  0  0  0  0  0  0  0  0
   -7.4664   15.0469  -33.3846 H   0  0  0  0  0  0  0  0  0  0  0  0
   -7.3726   15.5539  -35.0911 H   0  0  0  0  0  0  0  0  0  0  0  0
   -5.3819   14.0633  -33.5312 H   0  0  0  0  0  0  0  0  0  0  0  0
   -5.2859   14.4753  -35.2370 H   0  0  0  0  0  0  0  0  0  0  0  0
   -4.1650   22.7654  -32.1078 H   0  0  0  0  0  0  0  0  0  0  0  0
   -5.4755   22.5900  -29.2229 H   0  0  0  0  0  0  0  0  0  0  0  0
   -7.0325   23.4443  -28.8881 H   0  0  0  0  0  0  0  0  0  0  0  0
   -8.8595   23.4173  -30.6080 H   0  0  0  0  0  0  0  0  0  0  0  0
  -10.0584   21.9424  -32.2239 H   0  0  0  0  0  0  0  0  0  0  0  0
   -8.9017   19.9571  -33.2020 H   0  0  0  0  0  0  0  0  0  0  0  0
   -6.5407   19.4481  -32.5684 H   0  0  0  0  0  0  0  0  0  0  0  0
   -1.6751   24.3787  -28.9668 H   0  0  0  0  0  0  0  0  0  0  0  0
   -0.0400   22.5375  -29.3084 H   0  0  0  0  0  0  0  0  0  0  0  0
   -0.7547   20.8128  -28.4168 H   0  0  0  0  0  0  0  0  0  0  0  0
   -1.5872   19.2148  -28.3728 H   0  0  0  0  0  0  0  0  0  0  0  0
    1.2524   19.9058  -27.5092 H   0  0  0  0  0  0  0  0  0  0  0  0
   -0.1193   19.1787  -26.5419 H   0  0  0  0  0  0  0  0  0  0  0  0
    2.0025   17.8405  -27.9577 H   0  0  0  0  0  0  0  0  0  0  0  0
    0.6419   17.1628  -26.9460 H   0  0  0  0  0  0  0  0  0  0  0  0
    0.8150   16.2262  -29.2923 H   0  0  0  0  0  0  0  0  0  0  0  0
   -0.7780   16.9429  -28.8365 H   0  0  0  0  0  0  0  0  0  0  0  0
    1.4109   18.2071  -30.5553 H   0  0  0  0  0  0  0  0  0  0  0  0
   -0.2518   17.6948  -31.0595 H   0  0  0  0  0  0  0  0  0  0  0  0
  1  2  2  0
  2  3  1  0
  3  4  1  0
  4  5  2  0
  5  6  1  0
  6  7  2  0
  7  8  1  0
  8  9  2  0
  8 10  1  0
 10 11  1  0
 11 12  1  0
  2 13  1  0
 13 14  2  0
 14 15  1  0
 15 16  1  0
 16 17  1  0
 17 18  2  0
 17 19  2  0
 17 20  1  0
 20 21  1  0
 21 22  2  0
 22 23  1  0
 23 24  2  0
 24 25  1  0
 25 26  2  0
 26 27  1  0
 15 28  2  0
 28 29  1  0
 29 30  2  0
 30 31  1  0
 31 32  2  0
 31 33  1  0
 33 34  1  0
 34 35  1  0
 35 36  1  0
 36 37  1  0
 37 38  1  0
  9  4  1  0
 30 13  1  0
 38 33  1  0
 12  7  1  0
 26 21  1  0
  3 39  1  0
  5 40  1  0
  6 41  1  0
  9 42  1  0
 10 43  1  0
 10 44  1  0
 11 45  1  0
 11 46  1  0
 12 47  1  0
 12 48  1  0
 14 49  1  0
 20 50  1  0
 20 51  1  0
 22 52  1  0
 23 53  1  0
 24 54  1  0
 25 55  1  0
 28 56  1  0
 29 57  1  0
 34 58  1  0
 34 59  1  0
 35 60  1  0
 35 61  1  0
 36 62  1  0
 36 63  1  0
 37 64  1  0
 37 65  1  0
 38 66  1  0
 38 67  1  0
M  CHG  1  16  -1
M  END
>  <UniqueID>  (18) 
16

>  <SMILES>  (18) 
O=C(Nc1ccc2c(c1)CCC2)c1cc([N-]S(=O)(=O)Cc2ccccc2F)ccc1C(=O)N1CCCCC1

>  <Energy>  (18) 
92.04999800046492

>  <Genealogy>  (18) 
O=C(Nc1ccc2c(c1)CCC2)c1cc([N-]S(=O)(=O)Cc2ccccc2F)ccc1C(=O)N1CCCCC1 (protonated)
O=C(Nc1ccc2c(c1)CCC2)c1cc([N-]S(=O)(=O)Cc2ccccc2F)ccc1C(=O)N1CCCCC1 (3D coordinates assigned)
O=C(Nc1ccc2c(c1)CCC2)c1cc([N-]S(=O)(=O)Cc2ccccc2F)ccc1C(=O)N1CCCCC1 (nonaromatic ring conformer: 92.04999800046492 kcal/mol)

>  <smiles>  (18) 
O=C(Nc1ccc2c(c1)CCC2)c1cc(NS(=O)(=O)Cc2ccccc2F)ccc1C(=O)N1CCCCC1

>  <score_type>  (18) 
oracle

>  <origin>  (18) 
adgpu

>  <m_score__min__energy>  (18) 
-12.42

>  <m_primary>  (18) 
energy

$$$$
18:0
     RDKit          3D

 70 74  0  0  0  0  0  0  0  0999 V2000
   -0.1330   18.6230  -31.5000 C   0  0  0  0  0  0  0  0  0  0  0  0
   -1.4490   18.5540  -32.1510 N   0  0  0  0  0  0  0  0  0  0  0  0
   -1.5610   17.3250  -32.9540 C   0  0  0  0  0  0  0  0  0  0  0  0
   -3.0220   17.1270  -33.3660 C   0  0  0  0  0  0  0  0  0  0  0  0
   -3.6690   18.4130  -33.6440 N   0  0  0  0  0  0  0  0  0  0  0  0
   -5.0830   18.4340  -33.8900 C   0  0  0  0  0  0  0  0  0  0  0  0
   -5.5720   17.6100  -34.7080 O   0  0  0  0  0  0  0  0  0  0  0  0
   -5.9740   19.3880  -33.1830 C   0  0  0  0  0  0  0  0  0  0  0  0
   -7.3370   19.1160  -33.0260 C   0  0  0  0  0  0  0  0  0  0  0  0
   -8.1750   20.0300  -32.3910 C   0  0  0  0  0  0  0  0  0  0  0  0
   -7.6850   21.2620  -31.9140 C   0  0  0  0  0  0  0  0  0  0  0  0
   -8.6530   22.2210  -31.2450 C   0  0  0  0  0  0  0  0  0  0  0  0
   -8.3600   22.3110  -29.8980 F   0  0  0  0  0  0  0  0  0  0  0  0
   -9.9640   21.7960  -31.3680 F   0  0  0  0  0  0  0  0  0  0  0  0
   -8.5720   23.4710  -31.8260 F   0  0  0  0  0  0  0  0  0  0  0  0
   -6.2940   21.5380  -32.0530 C   0  0  0  0  0  0  0  0  0  0  0  0
   -5.5180   23.0470  -31.5220 S   0  0  0  0  0  0  0  0  0  0  0  0
   -6.0960   23.4570  -30.1950 O   0  0  0  0  0  0  0  0  0  0  0  0
   -5.7650   24.1740  -32.4810 O   0  0  0  0  0  0  0  0  0  0  0  0
   -3.8210   22.7470  -31.3080 N   0  0  0  0  0  0  0  0  0  0  0  0
   -3.0410   23.1330  -30.1700 C   0  0  0  0  0  0  0  0  0  0  0  0
   -2.2050   22.2130  -29.5050 C   0  0  0  0  0  0  0  0  0  0  0  0
   -1.4820   22.6480  -28.3910 C   0  0  0  0  0  0  0  0  0  0  0  0
   -1.5180   23.9600  -27.9800 C   0  0  0  0  0  0  0  0  0  0  0  0
   -2.3080   24.9000  -28.6460 C   0  0  0  0  0  0  0  0  0  0  0  0
   -3.0750   24.4820  -29.7480 C   0  0  0  0  0  0  0  0  0  0  0  0
   -3.8770   25.3980  -30.4280 O   0  0  0  0  0  0  0  0  0  0  0  0
   -0.5820   24.1710  -26.8270 C   0  0  0  0  0  0  0  0  0  0  0  0
    0.5280   25.1710  -27.1810 C   0  0  0  0  0  0  0  0  0  0  0  0
   -1.3410   24.5910  -25.5620 C   0  0  0  0  0  0  0  0  0  0  0  0
   -0.0130   22.7790  -26.6710 C   0  0  0  0  0  0  0  0  0  0  0  0
   -0.5390   21.9250  -27.5500 C   0  0  0  0  0  0  0  0  0  0  0  0
   -0.2300   20.4800  -27.6060 C   0  0  0  0  0  0  0  0  0  0  0  0
   -1.1370   19.5390  -27.0860 C   0  0  0  0  0  0  0  0  0  0  0  0
   -0.8460   18.1730  -27.1420 C   0  0  0  0  0  0  0  0  0  0  0  0
    0.3450   17.7330  -27.7230 C   0  0  0  0  0  0  0  0  0  0  0  0
    1.2480   18.6600  -28.2520 C   0  0  0  0  0  0  0  0  0  0  0  0
    0.9620   20.0270  -28.1980 C   0  0  0  0  0  0  0  0  0  0  0  0
   -5.4680   20.6020  -32.6960 C   0  0  0  0  0  0  0  0  0  0  0  0
   -2.8510   19.5870  -33.9750 C   0  0  0  0  0  0  0  0  0  0  0  0
   -1.6690   19.7510  -32.9930 C   0  0  0  0  0  0  0  0  0  0  0  0
   -0.2634   18.6162  -30.4078 H   0  0  0  0  0  0  0  0  0  0  0  0
    0.4717   17.7553  -31.8025 H   0  0  0  0  0  0  0  0  0  0  0  0
    0.3776   19.5491  -31.8025 H   0  0  0  0  0  0  0  0  0  0  0  0
   -0.9336   17.4141  -33.8531 H   0  0  0  0  0  0  0  0  0  0  0  0
   -1.2233   16.4626  -32.3605 H   0  0  0  0  0  0  0  0  0  0  0  0
   -3.0590   16.5028  -34.2710 H   0  0  0  0  0  0  0  0  0  0  0  0
   -3.5562   16.6380  -32.5380 H   0  0  0  0  0  0  0  0  0  0  0  0
   -7.7513   18.1712  -33.4076 H   0  0  0  0  0  0  0  0  0  0  0  0
   -9.2393   19.7853  -32.2595 H   0  0  0  0  0  0  0  0  0  0  0  0
   -2.1234   21.1737  -29.8559 H   0  0  0  0  0  0  0  0  0  0  0  0
   -2.3297   25.9486  -28.3143 H   0  0  0  0  0  0  0  0  0  0  0  0
   -4.7660   25.1280  -30.8300 H   0  0  0  0  0  0  0  0  0  0  0  0
    0.9707   25.5699  -26.2564 H   0  0  0  0  0  0  0  0  0  0  0  0
    1.3054   24.6625  -27.7701 H   0  0  0  0  0  0  0  0  0  0  0  0
    0.1031   25.9971  -27.7701 H   0  0  0  0  0  0  0  0  0  0  0  0
   -0.7741   24.2773  -24.6731 H   0  0  0  0  0  0  0  0  0  0  0  0
   -1.4618   25.6843  -25.5529 H   0  0  0  0  0  0  0  0  0  0  0  0
   -2.3315   24.1126  -25.5529 H   0  0  0  0  0  0  0  0  0  0  0  0
    0.7442   22.5036  -25.9221 H   0  0  0  0  0  0  0  0  0  0  0  0
   -2.0798   19.8797  -26.6331 H   0  0  0  0  0  0  0  0  0  0  0  0
   -1.5568   17.4430  -26.7274 H   0  0  0  0  0  0  0  0  0  0  0  0
    0.5727   16.6576  -27.7645 H   0  0  0  0  0  0  0  0  0  0  0  0
    2.1852   18.3129  -28.7115 H   0  0  0  0  0  0  0  0  0  0  0  0
    1.6731   20.7520  -28.6208 H   0  0  0  0  0  0  0  0  0  0  0  0
   -4.3984   20.8263  -32.8207 H   0  0  0  0  0  0  0  0  0  0  0  0
   -2.4547   19.4702  -34.9945 H   0  0  0  0  0  0  0  0  0  0  0  0
   -3.4868   20.4816  -33.9011 H   0  0  0  0  0  0  0  0  0  0  0  0
   -0.7549   19.9446  -33.5734 H   0  0  0  0  0  0  0  0  0  0  0  0
   -1.9121   20.5871  -32.3208 H   0  0  0  0  0  0  0  0  0  0  0  0
  1  2  1  0
  2  3  1  0
  3  4  1  0
  4  5  1  0
  5  6  1  0
  6  7  2  0
  6  8  1  0
  8  9  2  0
  9 10  1  0
 10 11  2  0
 11 12  1  0
 12 13  1  0
 12 14  1  0
 12 15  1  0
 11 16  1  0
 16 17  1  0
 17 18  2  0
 17 19  2  0
 17 20  1  0
 20 21  1  0
 21 22  2  0
 22 23  1  0
 23 24  2  0
 24 25  1  0
 25 26  2  0
 26 27  1  0
 24 28  1  0
 28 29  1  0
 28 30  1  0
 28 31  1  0
 31 32  2  0
 32 33  1  0
 33 34  2  0
 34 35  1  0
 35 36  2  0
 36 37  1  0
 37 38  2  0
 16 39  2  0
  5 40  1  0
 40 41  1  0
 41  2  1  0
 39  8  1  0
 26 21  1  0
 38 33  1  0
 32 23  1  0
  1 42  1  0
  1 43  1  0
  1 44  1  0
  3 45  1  0
  3 46  1  0
  4 47  1  0
  4 48  1  0
  9 49  1  0
 10 50  1  0
 22 51  1  0
 25 52  1  0
 27 53  1  0
 29 54  1  0
 29 55  1  0
 29 56  1  0
 30 57  1  0
 30 58  1  0
 30 59  1  0
 31 60  1  0
 34 61  1  0
 35 62  1  0
 36 63  1  0
 37 64  1  0
 38 65  1  0
 39 66  1  0
 40 67  1  0
 40 68  1  0
 41 69  1  0
 41 70  1  0
M  CHG  1  20  -1
M  END
>  <UniqueID>  (19) 
17

>  <SMILES>  (19) 
CN1CCN(C(=O)c2ccc(C(F)(F)F)c(S(=O)(=O)[N-]c3cc4c(cc3O)C(C)(C)C=C4c3ccccc3)c2)CC1

>  <Energy>  (19) 
115.4131106353992

>  <Genealogy>  (19) 
CN1CCN(C(=O)c2ccc(C(F)(F)F)c(S(=O)(=O)[N-]c3cc4c(cc3O)C(C)(C)C=C4c3ccccc3)c2)CC1 (protonated)
CN1CCN(C(=O)c2ccc(C(F)(F)F)c(S(=O)(=O)[N-]c3cc4c(cc3O)C(C)(C)C=C4c3ccccc3)c2)CC1 (3D coordinates assigned)
CN1CCN(C(=O)c2ccc(C(F)(F)F)c(S(=O)(=O)[N-]c3cc4c(cc3O)C(C)(C)C=C4c3ccccc3)c2)CC1 (nonaromatic ring conformer: 115.4131106353992 kcal/mol)

>  <smiles>  (19) 
CN1CCN(C(=O)c2ccc(C(F)(F)F)c(S(=O)(=O)Nc3cc4c(cc3O)C(C)(C)C=C4c3ccccc3)c2)CC1

>  <score_type>  (19) 
oracle

>  <origin>  (19) 
adgpu

>  <m_score__min__energy>  (19) 
-12.56

>  <m_primary>  (19) 
energy

$$$$
19:0
     RDKit          3D

 47 50  0  0  0  0  0  0  0  0999 V2000
   -9.2590   21.3500  -30.2150 O   0  0  0  0  0  0  0  0  0  0  0  0
   -8.3340   21.7920  -30.9480 C   0  0  0  0  0  0  0  0  0  0  0  0
   -7.9930   23.1840  -30.9380 N   0  0  0  0  0  0  0  0  0  0  0  0
   -6.7060   23.7470  -30.6450 C   0  0  0  0  0  0  0  0  0  0  0  0
   -6.5160   25.1320  -30.4860 C   0  0  0  0  0  0  0  0  0  0  0  0
   -5.2500   25.6360  -30.1820 C   0  0  0  0  0  0  0  0  0  0  0  0
   -4.1660   24.7700  -30.0160 C   0  0  0  0  0  0  0  0  0  0  0  0
   -2.9120   25.2950  -29.7210 O   0  0  0  0  0  0  0  0  0  0  0  0
   -4.3500   23.3840  -30.1450 C   0  0  0  0  0  0  0  0  0  0  0  0
   -2.9830   22.2840  -29.9430 S   0  0  0  0  0  0  0  0  0  0  0  0
   -3.3370   21.1900  -28.9720 O   0  0  0  0  0  0  0  0  0  0  0  0
   -1.8140   23.0540  -29.3960 O   0  0  0  0  0  0  0  0  0  0  0  0
   -2.5640   21.6020  -31.4940 N   0  0  0  0  0  0  0  0  0  0  0  0
   -2.4760   20.1430  -31.4270 C   0  0  0  0  0  0  0  0  0  0  0  0
   -2.7880   19.6280  -32.8240 C   0  0  0  0  0  0  0  0  0  0  0  0
   -3.5230   20.7640  -33.5180 C   0  0  0  0  0  0  0  0  0  0  0  0
   -3.5910   21.8870  -32.4950 C   0  0  0  0  0  0  0  0  0  0  0  0
   -5.6220   22.8810  -30.4540 C   0  0  0  0  0  0  0  0  0  0  0  0
   -7.6320   20.8860  -31.8630 C   0  0  0  0  0  0  0  0  0  0  0  0
   -7.2580   19.5850  -31.5950 C   0  0  0  0  0  0  0  0  0  0  0  0
   -6.6410   19.1700  -32.7580 C   0  0  0  0  0  0  0  0  0  0  0  0
   -5.9960   17.8560  -32.9820 C   0  0  0  0  0  0  0  0  0  0  0  0
   -5.7410   17.0270  -31.8720 C   0  0  0  0  0  0  0  0  0  0  0  0
   -5.0720   15.8120  -32.0300 C   0  0  0  0  0  0  0  0  0  0  0  0
   -4.6470   15.4060  -33.2940 C   0  0  0  0  0  0  0  0  0  0  0  0
   -4.9050   16.2080  -34.4080 C   0  0  0  0  0  0  0  0  0  0  0  0
   -5.5920   17.4200  -34.2700 C   0  0  0  0  0  0  0  0  0  0  0  0
   -5.8810   18.1400  -35.4310 O   0  0  0  0  0  0  0  0  0  0  0  0
   -6.6370   20.1800  -33.6520 N   0  0  0  0  0  0  0  0  0  0  0  0
   -7.2460   21.2240  -33.1080 N   0  0  0  0  0  0  0  0  0  0  0  0
   -7.3670   25.8194  -30.6015 H   0  0  0  0  0  0  0  0  0  0  0  0
   -5.1051   26.7209  -30.0725 H   0  0  0  0  0  0  0  0  0  0  0  0
   -1.4633   19.8366  -31.1262 H   0  0  0  0  0  0  0  0  0  0  0  0
   -3.1792   19.7352  -30.6859 H   0  0  0  0  0  0  0  0  0  0  0  0
   -1.8592   19.3855  -33.3612 H   0  0  0  0  0  0  0  0  0  0  0  0
   -3.3901   18.7078  -32.7959 H   0  0  0  0  0  0  0  0  0  0  0  0
   -2.9706   21.0905  -34.4115 H   0  0  0  0  0  0  0  0  0  0  0  0
   -4.5241   20.4573  -33.8552 H   0  0  0  0  0  0  0  0  0  0  0  0
   -3.3912   22.8543  -32.9792 H   0  0  0  0  0  0  0  0  0  0  0  0
   -4.5885   21.9451  -32.0350 H   0  0  0  0  0  0  0  0  0  0  0  0
   -5.7699   21.7950  -30.5473 H   0  0  0  0  0  0  0  0  0  0  0  0
   -7.4151   19.0117  -30.6694 H   0  0  0  0  0  0  0  0  0  0  0  0
   -6.0723   17.3401  -30.8709 H   0  0  0  0  0  0  0  0  0  0  0  0
   -4.8798   15.1736  -31.1551 H   0  0  0  0  0  0  0  0  0  0  0  0
   -4.1086   14.4543  -33.4140 H   0  0  0  0  0  0  0  0  0  0  0  0
   -4.5653   15.8844  -35.4029 H   0  0  0  0  0  0  0  0  0  0  0  0
   -6.4790   18.9550  -35.4470 H   0  0  0  0  0  0  0  0  0  0  0  0
  1  2  2  0
  2  3  1  0
  3  4  1  0
  4  5  2  0
  5  6  1  0
  6  7  2  0
  7  8  1  0
  7  9  1  0
  9 10  1  0
 10 11  2  0
 10 12  2  0
 10 13  1  0
 13 14  1  0
 14 15  1  0
 15 16  1  0
 16 17  1  0
  9 18  2  0
  2 19  1  0
 19 20  1  0
 20 21  2  0
 21 22  1  0
 22 23  2  0
 23 24  1  0
 24 25  2  0
 25 26  1  0
 26 27  2  0
 27 28  1  0
 21 29  1  0
 29 30  1  0
 18  4  1  0
 30 19  2  0
 17 13  1  0
 27 22  1  0
  5 31  1  0
  6 32  1  0
 14 33  1  0
 14 34  1  0
 15 35  1  0
 15 36  1  0
 16 37  1  0
 16 38  1  0
 17 39  1  0
 17 40  1  0
 18 41  1  0
 20 42  1  0
 23 43  1  0
 24 44  1  0
 25 45  1  0
 26 46  1  0
 28 47  1  0
M  CHG  3   3  -1   8  -1  29  -1
M  END
>  <UniqueID>  (20) 
18

>  <SMILES>  (20) 
O=C([N-]c1ccc([O-])c(S(=O)(=O)N2CCCC2)c1)c1cc(-c2ccccc2O)[n-]n1

>  <Energy>  (20) 
89.57283368473065

>  <Genealogy>  (20) 
O=C([N-]c1ccc([O-])c(S(=O)(=O)N2CCCC2)c1)c1cc(-c2ccccc2O)[n-]n1 (protonated)
O=C([N-]c1ccc([O-])c(S(=O)(=O)N2CCCC2)c1)c1cc(-c2ccccc2O)[n-]n1 (3D coordinates assigned)
O=C([N-]c1ccc([O-])c(S(=O)(=O)N2CCCC2)c1)c1cc(-c2ccccc2O)[n-]n1 (nonaromatic ring conformer: 89.57283368473065 kcal/mol)

>  <smiles>  (20) 
O=C(Nc1ccc(O)c(S(=O)(=O)N2CCCC2)c1)c1cc(-c2ccccc2O)[nH]n1

>  <score_type>  (20) 
oracle

>  <origin>  (20) 
adgpu

>  <m_score__min__energy>  (20) 
-12.359999999999999

>  <m_primary>  (20) 
energy

$$$$
20:0
     RDKit          3D

 73 77  0  0  0  0  0  0  0  0999 V2000
   -8.1530   20.1500  -33.0770 O   0  0  0  0  0  0  0  0  0  0  0  0
   -7.0180   20.4420  -32.6100 C   0  0  0  0  0  0  0  0  0  0  0  0
   -5.8500   19.6140  -32.9930 C   0  0  0  0  0  0  0  0  0  0  0  0
   -5.9340   18.2150  -33.0100 C   0  0  0  0  0  0  0  0  0  0  0  0
   -4.8320   17.4450  -33.3830 C   0  0  0  0  0  0  0  0  0  0  0  0
   -3.6370   18.0600  -33.7810 C   0  0  0  0  0  0  0  0  0  0  0  0
   -2.5240   17.2480  -34.1780 N   0  0  0  0  0  0  0  0  0  0  0  0
   -1.2070   17.3700  -33.5820 C   0  0  0  0  0  0  0  0  0  0  0  0
   -0.3250   16.3910  -34.3430 C   0  0  0  0  0  0  0  0  0  0  0  0
   -1.0770   16.0650  -35.6330 C   0  0  0  0  0  0  0  0  0  0  0  0
   -2.5350   16.4210  -35.3700 C   0  0  0  0  0  0  0  0  0  0  0  0
   -3.5570   19.4660  -33.8200 C   0  0  0  0  0  0  0  0  0  0  0  0
   -2.3450   20.1150  -34.2310 N   0  0  0  0  0  0  0  0  0  0  0  0
   -1.4830   21.1870  -33.1710 S   0  0  0  0  0  0  0  0  0  0  0  0
   -0.3990   21.8700  -33.9560 O   0  0  0  0  0  0  0  0  0  0  0  0
   -2.4340   22.2350  -32.6730 O   0  0  0  0  0  0  0  0  0  0  0  0
   -0.7130   20.2960  -31.8450 C   0  0  0  0  0  0  0  0  0  0  0  0
    0.5490   19.7340  -32.0970 C   0  0  0  0  0  0  0  0  0  0  0  0
    1.2320   19.0370  -31.0980 C   0  0  0  0  0  0  0  0  0  0  0  0
    0.6730   18.9090  -29.8280 C   0  0  0  0  0  0  0  0  0  0  0  0
   -0.5690   19.4810  -29.5510 C   0  0  0  0  0  0  0  0  0  0  0  0
   -1.2770   20.1720  -30.5470 C   0  0  0  0  0  0  0  0  0  0  0  0
   -2.5630   20.7880  -30.1690 C   0  0  0  0  0  0  0  0  0  0  0  0
   -3.6210   20.2970  -30.6470 O   0  0  0  0  0  0  0  0  0  0  0  0
   -2.6360   21.9410  -29.3010 N   0  0  0  0  0  0  0  0  0  0  0  0
   -1.4260   22.6680  -28.8870 C   0  0  0  0  0  0  0  0  0  0  0  0
   -1.6980   24.1750  -28.8610 C   0  0  0  0  0  0  0  0  0  0  0  0
   -2.9420   24.5510  -28.0270 C   0  0  0  0  0  0  0  0  0  0  0  0
   -3.7900   23.3430  -27.6040 C   0  0  0  0  0  0  0  0  0  0  0  0
   -3.9410   22.3340  -28.7490 C   0  0  0  0  0  0  0  0  0  0  0  0
   -4.6560   20.2310  -33.4000 C   0  0  0  0  0  0  0  0  0  0  0  0
   -6.8940   21.5610  -31.7120 N   0  0  0  0  0  0  0  0  0  0  0  0
   -8.0330   21.9100  -30.8480 C   0  0  0  0  0  0  0  0  0  0  0  0
   -7.5950   22.8510  -29.7200 C   0  0  0  0  0  0  0  0  0  0  0  0
   -6.9090   24.1220  -30.2560 C   0  0  0  0  0  0  0  0  0  0  0  0
   -6.1550   23.9070  -31.5850 C   0  0  0  0  0  0  0  0  0  0  0  0
   -5.7240   22.4510  -31.7780 C   0  0  0  0  0  0  0  0  0  0  0  0
   -6.8752   17.7208  -32.7273 H   0  0  0  0  0  0  0  0  0  0  0  0
   -4.9014   16.3473  -33.3646 H   0  0  0  0  0  0  0  0  0  0  0  0
   -0.8278   18.3965  -33.6940 H   0  0  0  0  0  0  0  0  0  0  0  0
   -1.2246   17.1511  -32.5041 H   0  0  0  0  0  0  0  0  0  0  0  0
    0.6474   16.8510  -34.5728 H   0  0  0  0  0  0  0  0  0  0  0  0
   -0.1245   15.4849  -33.7524 H   0  0  0  0  0  0  0  0  0  0  0  0
   -0.6819   16.6631  -36.4674 H   0  0  0  0  0  0  0  0  0  0  0  0
   -0.9640   15.0062  -35.9089 H   0  0  0  0  0  0  0  0  0  0  0  0
   -2.9539   16.9785  -36.2207 H   0  0  0  0  0  0  0  0  0  0  0  0
   -3.1565   15.5231  -35.2376 H   0  0  0  0  0  0  0  0  0  0  0  0
   -2.1640   20.2190  -35.2540 H   0  0  0  0  0  0  0  0  0  0  0  0
    1.0046   19.8440  -33.0922 H   0  0  0  0  0  0  0  0  0  0  0  0
    2.2128   18.5883  -31.3140 H   0  0  0  0  0  0  0  0  0  0  0  0
    1.2112   18.3567  -29.0435 H   0  0  0  0  0  0  0  0  0  0  0  0
   -0.9977   19.3896  -28.5421 H   0  0  0  0  0  0  0  0  0  0  0  0
   -1.1280   22.3351  -27.8818 H   0  0  0  0  0  0  0  0  0  0  0  0
   -0.6192   22.4610  -29.6054 H   0  0  0  0  0  0  0  0  0  0  0  0
   -0.8216   24.6817  -28.4306 H   0  0  0  0  0  0  0  0  0  0  0  0
   -1.8891   24.4920  -29.8968 H   0  0  0  0  0  0  0  0  0  0  0  0
   -2.6064   25.0745  -27.1196 H   0  0  0  0  0  0  0  0  0  0  0  0
   -3.5778   25.1823  -28.6651 H   0  0  0  0  0  0  0  0  0  0  0  0
   -3.3041   22.8461  -26.7514 H   0  0  0  0  0  0  0  0  0  0  0  0
   -4.7916   23.7041  -27.3277 H   0  0  0  0  0  0  0  0  0  0  0  0
   -4.4524   21.4372  -28.3692 H   0  0  0  0  0  0  0  0  0  0  0  0
   -4.5244   22.8094  -29.5513 H   0  0  0  0  0  0  0  0  0  0  0  0
   -4.5812   21.3284  -33.3895 H   0  0  0  0  0  0  0  0  0  0  0  0
   -8.8049   22.4079  -31.4532 H   0  0  0  0  0  0  0  0  0  0  0  0
   -8.4314   20.9871  -30.4013 H   0  0  0  0  0  0  0  0  0  0  0  0
   -8.4819   23.1451  -29.1395 H   0  0  0  0  0  0  0  0  0  0  0  0
   -6.8676   22.3128  -29.0945 H   0  0  0  0  0  0  0  0  0  0  0  0
   -7.6788   24.8916  -30.4142 H   0  0  0  0  0  0  0  0  0  0  0  0
   -6.1613   24.4235  -29.5076 H   0  0  0  0  0  0  0  0  0  0  0  0
   -6.8150   24.1940  -32.4169 H   0  0  0  0  0  0  0  0  0  0  0  0
   -5.2467   24.5270  -31.5613 H   0  0  0  0  0  0  0  0  0  0  0  0
   -5.2401   22.3425  -32.7599 H   0  0  0  0  0  0  0  0  0  0  0  0
   -5.0192   22.1767  -30.9792 H   0  0  0  0  0  0  0  0  0  0  0  0
  1  2  2  0
  2  3  1  0
  3  4  2  0
  4  5  1  0
  5  6  2  0
  6  7  1  0
  7  8  1  0
  8  9  1  0
  9 10  1  0
 10 11  1  0
  6 12  1  0
 12 13  1  0
 13 14  1  0
 14 15  2  0
 14 16  2  0
 14 17  1  0
 17 18  2  0
 18 19  1  0
 19 20  2  0
 20 21  1  0
 21 22  2  0
 22 23  1  0
 23 24  2  0
 23 25  1  0
 25 26  1  0
 26 27  1  0
 27 28  1  0
 28 29  1  0
 29 30  1  0
 12 31  2  0
  2 32  1  0
 32 33  1  0
 33 34  1  0
 34 35  1  0
 35 36  1  0
 36 37  1  0
 31  3  1  0
 37 32  1  0
 11  7  1  0
 22 17  1  0
 30 25  1  0
  4 38  1  0
  5 39  1  0
  8 40  1  0
  8 41  1  0
  9 42  1  0
  9 43  1  0
 10 44  1  0
 10 45  1  0
 11 46  1  0
 11 47  1  0
 13 48  1  0
 18 49  1  0
 19 50  1  0
 20 51  1  0
 21 52  1  0
 26 53  1  0
 26 54  1  0
 27 55  1  0
 27 56  1  0
 28 57  1  0
 28 58  1  0
 29 59  1  0
 29 60  1  0
 30 61  1  0
 30 62  1  0
 31 63  1  0
 33 64  1  0
 33 65  1  0
 34 66  1  0
 34 67  1  0
 35 68  1  0
 35 69  1  0
 36 70  1  0
 36 71  1  0
 37 72  1  0
 37 73  1  0
M  END
>  <UniqueID>  (21) 
19

>  <SMILES>  (21) 
O=C(c1ccc(N2CCCC2)c(NS(=O)(=O)c2ccccc2C(=O)N2CCCCC2)c1)N1CCCCC1

>  <Energy>  (21) 
98.97730364876259

>  <Genealogy>  (21) 
O=C(c1ccc(N2CCCC2)c(NS(=O)(=O)c2ccccc2C(=O)N2CCCCC2)c1)N1CCCCC1 (3D coordinates assigned)
O=C(c1ccc(N2CCCC2)c(NS(=O)(=O)c2ccccc2C(=O)N2CCCCC2)c1)N1CCCCC1 (nonaromatic ring conformer: 98.97730364876259 kcal/mol)

>  <smiles>  (21) 
O=C(c1ccc(N2CCCC2)c(NS(=O)(=O)c2ccccc2C(=O)N2CCCCC2)c1)N1CCCCC1

>  <score_type>  (21) 
oracle

>  <origin>  (21) 
adgpu

>  <m_score__min__energy>  (21) 
-11.359999999999999

>  <m_primary>  (21) 
energy

$$$$
21:0
     RDKit          3D

 43 46  0  0  0  0  0  0  0  0999 V2000
   -1.2900   20.7860  -25.5920 C   0  0  0  0  0  0  0  0  0  0  0  0
   -0.5110   20.5120  -26.8110 N   0  0  0  0  0  0  0  0  0  0  0  0
   -1.2830   19.7670  -27.8240 C   0  0  0  0  0  0  0  0  0  0  0  0
   -2.4660   20.5750  -28.3750 C   0  0  0  0  0  0  0  0  0  0  0  0
   -2.1020   22.0090  -28.6570 C   0  0  0  0  0  0  0  0  0  0  0  0
   -2.9990   22.8090  -29.3820 C   0  0  0  0  0  0  0  0  0  0  0  0
   -2.7280   24.1710  -29.6030 C   0  0  0  0  0  0  0  0  0  0  0  0
   -3.6400   25.0200  -30.3140 N   0  0  0  0  0  0  0  0  0  0  0  0
   -5.2930   24.6330  -30.6730 S   0  0  0  0  0  0  0  0  0  0  0  0
   -6.0790   24.5980  -29.3930 O   0  0  0  0  0  0  0  0  0  0  0  0
   -5.8600   25.6960  -31.5710 O   0  0  0  0  0  0  0  0  0  0  0  0
   -5.3960   23.0540  -31.4480 C   0  0  0  0  0  0  0  0  0  0  0  0
   -6.6280   22.3890  -31.5290 C   0  0  0  0  0  0  0  0  0  0  0  0
   -6.7170   21.1480  -32.1670 C   0  0  0  0  0  0  0  0  0  0  0  0
   -5.5750   20.5730  -32.7350 C   0  0  0  0  0  0  0  0  0  0  0  0
   -4.3430   21.2340  -32.6580 C   0  0  0  0  0  0  0  0  0  0  0  0
   -4.2500   22.4640  -32.0020 C   0  0  0  0  0  0  0  0  0  0  0  0
   -3.2010   20.6500  -33.2220 O   0  0  0  0  0  0  0  0  0  0  0  0
   -3.2610   19.5900  -34.1800 C   0  0  0  0  0  0  0  0  0  0  0  0
   -4.4890   18.7420  -33.9960 C   0  0  0  0  0  0  0  0  0  0  0  0
   -4.5280   17.5750  -34.4650 O   0  0  0  0  0  0  0  0  0  0  0  0
   -5.6440   19.2910  -33.3600 N   0  0  0  0  0  0  0  0  0  0  0  0
   -1.5420   24.7230  -29.1030 C   0  0  0  0  0  0  0  0  0  0  0  0
   -1.2460   26.0640  -29.3250 O   0  0  0  0  0  0  0  0  0  0  0  0
   -0.6470   23.9330  -28.3760 C   0  0  0  0  0  0  0  0  0  0  0  0
   -0.9300   22.5830  -28.1270 C   0  0  0  0  0  0  0  0  0  0  0  0
    0.0780   21.7410  -27.3810 C   0  0  0  0  0  0  0  0  0  0  0  0
   -0.6740   20.5693  -24.7068 H   0  0  0  0  0  0  0  0  0  0  0  0
   -1.5910   21.8439  -25.5793 H   0  0  0  0  0  0  0  0  0  0  0  0
   -2.1870   20.1494  -25.5793 H   0  0  0  0  0  0  0  0  0  0  0  0
   -0.6136   19.5089  -28.6578 H   0  0  0  0  0  0  0  0  0  0  0  0
   -1.6904   18.8680  -27.3383 H   0  0  0  0  0  0  0  0  0  0  0  0
   -2.8080   20.1072  -29.3100 H   0  0  0  0  0  0  0  0  0  0  0  0
   -3.2568   20.5745  -27.6104 H   0  0  0  0  0  0  0  0  0  0  0  0
   -3.9233   22.3660  -29.7813 H   0  0  0  0  0  0  0  0  0  0  0  0
   -7.5272   22.8451  -31.0892 H   0  0  0  0  0  0  0  0  0  0  0  0
   -7.6830   20.6248  -32.2222 H   0  0  0  0  0  0  0  0  0  0  0  0
   -3.2770   22.9705  -31.9198 H   0  0  0  0  0  0  0  0  0  0  0  0
   -3.2756   20.0236  -35.1908 H   0  0  0  0  0  0  0  0  0  0  0  0
   -2.3780   18.9496  -34.0381 H   0  0  0  0  0  0  0  0  0  0  0  0
    0.2865   24.3741  -27.9964 H   0  0  0  0  0  0  0  0  0  0  0  0
    0.8809   21.4557  -28.0767 H   0  0  0  0  0  0  0  0  0  0  0  0
    0.4581   22.3447  -26.5437 H   0  0  0  0  0  0  0  0  0  0  0  0
  1  2  1  0
  2  3  1  0
  3  4  1  0
  4  5  1  0
  5  6  2  0
  6  7  1  0
  7  8  1  0
  8  9  1  0
  9 10  2  0
  9 11  2  0
  9 12  1  0
 12 13  2  0
 13 14  1  0
 14 15  2  0
 15 16  1  0
 16 17  2  0
 16 18  1  0
 18 19  1  0
 19 20  1  0
 20 21  2  0
 20 22  1  0
  7 23  2  0
 23 24  1  0
 23 25  1  0
 25 26  2  0
 26 27  1  0
 27  2  1  0
 26  5  1  0
 17 12  1  0
 22 15  1  0
  1 28  1  0
  1 29  1  0
  1 30  1  0
  3 31  1  0
  3 32  1  0
  4 33  1  0
  4 34  1  0
  6 35  1  0
 13 36  1  0
 14 37  1  0
 17 38  1  0
 19 39  1  0
 19 40  1  0
 25 41  1  0
 27 42  1  0
 27 43  1  0
M  CHG  3   8  -1  22  -1  24  -1
M  END
>  <UniqueID>  (22) 
20

>  <SMILES>  (22) 
CN1CCc2cc([N-]S(=O)(=O)c3ccc4c(c3)OCC(=O)[N-]4)c([O-])cc2C1

>  <Energy>  (22) 
56.15844211750358

>  <Genealogy>  (22) 
CN1CCc2cc([N-]S(=O)(=O)c3ccc4c(c3)OCC(=O)[N-]4)c([O-])cc2C1 (protonated)
CN1CCc2cc([N-]S(=O)(=O)c3ccc4c(c3)OCC(=O)[N-]4)c([O-])cc2C1 (3D coordinates assigned)
CN1CCc2cc([N-]S(=O)(=O)c3ccc4c(c3)OCC(=O)[N-]4)c([O-])cc2C1 (nonaromatic ring conformer: 56.15844211750358 kcal/mol)

>  <smiles>  (22) 
CN1CCc2cc(NS(=O)(=O)c3ccc4c(c3)OCC(=O)N4)c(O)cc2C1

>  <score_type>  (22) 
oracle

>  <origin>  (22) 
adgpu

>  <m_score__min__energy>  (22) 
-13.390000000000001

>  <m_primary>  (22) 
energy

$$$$
22:0
     RDKit          3D

 42 44  0  0  0  0  0  0  0  0999 V2000
   -7.0020   22.9520  -32.6940 N   0  0  0  0  0  0  0  0  0  0  0  0
   -5.8650   23.0340  -31.8260 C   0  0  0  0  0  0  0  0  0  0  0  0
   -5.8170   23.9690  -30.9220 N   0  0  0  0  0  0  0  0  0  0  0  0
   -4.7610   22.0520  -31.9610 C   0  0  0  0  0  0  0  0  0  0  0  0
   -5.0290   20.6730  -32.0540 C   0  0  0  0  0  0  0  0  0  0  0  0
   -3.9810   19.7550  -32.1700 C   0  0  0  0  0  0  0  0  0  0  0  0
   -2.6530   20.1920  -32.1800 C   0  0  0  0  0  0  0  0  0  0  0  0
   -1.6030   19.2210  -32.3020 N   0  0  0  0  0  0  0  0  0  0  0  0
   -0.7950   18.7100  -31.2320 C   0  0  0  0  0  0  0  0  0  0  0  0
   -0.4700   17.4930  -31.2520 O   0  0  0  0  0  0  0  0  0  0  0  0
   -0.3810   19.5540  -30.0850 C   0  0  0  0  0  0  0  0  0  0  0  0
    0.9510   19.5350  -29.6420 C   0  0  0  0  0  0  0  0  0  0  0  0
    1.3480   20.3240  -28.5620 C   0  0  0  0  0  0  0  0  0  0  0  0
    0.4220   21.1430  -27.9030 C   0  0  0  0  0  0  0  0  0  0  0  0
    0.8320   21.9270  -26.8250 O   0  0  0  0  0  0  0  0  0  0  0  0
   -0.9180   21.1700  -28.3330 C   0  0  0  0  0  0  0  0  0  0  0  0
   -1.9480   22.0130  -27.6220 C   0  0  0  0  0  0  0  0  0  0  0  0
   -2.1730   23.2980  -28.3610 C   0  0  0  0  0  0  0  0  0  0  0  0
   -1.2600   24.3180  -28.5720 C   0  0  0  0  0  0  0  0  0  0  0  0
    0.0360   24.3410  -28.0710 O   0  0  0  0  0  0  0  0  0  0  0  0
   -1.7730   25.3070  -29.3350 N   0  0  0  0  0  0  0  0  0  0  0  0
   -3.0280   24.9030  -29.6160 C   0  0  0  0  0  0  0  0  0  0  0  0
   -3.9140   25.6380  -30.3920 O   0  0  0  0  0  0  0  0  0  0  0  0
   -3.3030   23.6820  -29.0430 C   0  0  0  0  0  0  0  0  0  0  0  0
   -4.4960   22.9770  -29.1410 O   0  0  0  0  0  0  0  0  0  0  0  0
   -1.3130   20.3600  -29.4100 C   0  0  0  0  0  0  0  0  0  0  0  0
   -2.3820   21.5690  -32.1140 C   0  0  0  0  0  0  0  0  0  0  0  0
   -3.4260   22.4890  -31.9960 C   0  0  0  0  0  0  0  0  0  0  0  0
   -7.0280   22.2690  -33.4830 H   0  0  0  0  0  0  0  0  0  0  0  0
   -7.8080   23.6070  -32.5830 H   0  0  0  0  0  0  0  0  0  0  0  0
   -6.5920   24.6610  -30.8290 H   0  0  0  0  0  0  0  0  0  0  0  0
   -5.0230   24.0400  -30.2480 H   0  0  0  0  0  0  0  0  0  0  0  0
   -6.0692   20.3157  -32.0353 H   0  0  0  0  0  0  0  0  0  0  0  0
   -4.2029   18.6809  -32.2540 H   0  0  0  0  0  0  0  0  0  0  0  0
    1.6866   18.8938  -30.1498 H   0  0  0  0  0  0  0  0  0  0  0  0
    2.3951   20.3028  -28.2257 H   0  0  0  0  0  0  0  0  0  0  0  0
    0.7030   22.9330  -26.8180 H   0  0  0  0  0  0  0  0  0  0  0  0
   -2.8953   21.4567  -27.5657 H   0  0  0  0  0  0  0  0  0  0  0  0
   -1.5836   22.2428  -26.6099 H   0  0  0  0  0  0  0  0  0  0  0  0
   -2.3657   20.3565  -29.7292 H   0  0  0  0  0  0  0  0  0  0  0  0
   -1.3418   21.9244  -32.1555 H   0  0  0  0  0  0  0  0  0  0  0  0
   -3.2016   23.5638  -31.9300 H   0  0  0  0  0  0  0  0  0  0  0  0
  1  2  1  0
  2  3  2  0
  2  4  1  0
  4  5  2  0
  5  6  1  0
  6  7  2  0
  7  8  1  0
  8  9  1  0
  9 10  2  0
  9 11  1  0
 11 12  2  0
 12 13  1  0
 13 14  2  0
 14 15  1  0
 14 16  1  0
 16 17  1  0
 17 18  1  0
 18 19  2  0
 19 20  1  0
 19 21  1  0
 21 22  1  0
 22 23  1  0
 22 24  2  0
 24 25  1  0
 16 26  2  0
  7 27  1  0
 27 28  2  0
 28  4  1  0
 26 11  1  0
 24 18  1  0
  1 29  1  0
  1 30  1  0
  3 31  1  0
  3 32  1  0
  5 33  1  0
  6 34  1  0
 12 35  1  0
 13 36  1  0
 15 37  1  0
 17 38  1  0
 17 39  1  0
 26 40  1  0
 27 41  1  0
 28 42  1  0
M  CHG  6   3   1   8  -1  20  -1  21  -1  23  -1  25  -1
M  END
>  <UniqueID>  (23) 
21

>  <SMILES>  (23) 
NC(=[NH2+])c1ccc([N-]C(=O)c2ccc(O)c(Cc3c([O-])[n-]c([O-])c3[O-])c2)cc1

>  <Energy>  (23) 
80.38528769190984

>  <Genealogy>  (23) 
NC(=[NH2+])c1ccc([N-]C(=O)c2ccc(O)c(Cc3c([O-])[n-]c([O-])c3[O-])c2)cc1 (protonated)
NC(=[NH2+])c1ccc([N-]C(=O)c2ccc(O)c(Cc3c([O-])[n-]c([O-])c3[O-])c2)cc1 (3D coordinates assigned)
NC(=[NH2+])c1ccc([N-]C(=O)c2ccc(O)c(Cc3c([O-])[n-]c([O-])c3[O-])c2)cc1 (optimized conformer: 80.38528769190984 kcal/mol)

>  <smiles>  (23) 
N=C(N)c1ccc(NC(=O)c2ccc(O)c(Cc3c(O)[nH]c(O)c3O)c2)cc1

>  <score_type>  (23) 
oracle

>  <origin>  (23) 
adgpu

>  <m_score__min__energy>  (23) 
-10.619999999999999

>  <m_primary>  (23) 
energy

$$$$
23:0
     RDKit          3D

 77 81  0  0  0  0  0  0  0  0999 V2000
    0.6128   21.2397  -28.5519 H   0  0  0  0  0  0  0  0  0  0  0  0
   -0.3850   21.5820  -28.2400 C   0  0  0  0  0  0  0  0  0  0  0  0
   -0.5760   22.0160  -26.8430 C   0  0  0  0  0  0  0  0  0  0  0  0
   -1.6000   21.6000  -26.2370 O   0  0  0  0  0  0  0  0  0  0  0  0
    0.3280   22.9240  -26.1730 N   0  0  0  0  0  0  0  0  0  0  0  0
    0.3010   23.0350  -24.7140 C   0  0  0  0  0  0  0  0  0  0  0  0
   -0.2193   22.1651  -24.2867 H   0  0  0  0  0  0  0  0  0  0  0  0
    1.3286   23.0664  -24.3227 H   0  0  0  0  0  0  0  0  0  0  0  0
   -0.4410   24.3180  -24.3300 C   0  0  0  0  0  0  0  0  0  0  0  0
   -1.5210   24.1481  -24.4512 H   0  0  0  0  0  0  0  0  0  0  0  0
   -0.1769   24.5520  -23.2881 H   0  0  0  0  0  0  0  0  0  0  0  0
   -0.0490   25.4850  -25.1610 N   0  0  0  0  0  0  0  0  0  0  0  0
   -1.1730   26.2800  -25.7070 C   0  0  0  0  0  0  0  0  0  0  0  0
   -1.8238   26.5808  -24.8727 H   0  0  0  0  0  0  0  0  0  0  0  0
   -0.7342   27.1439  -26.2277 H   0  0  0  0  0  0  0  0  0  0  0  0
   -2.0090   25.5300  -26.7190 C   0  0  0  0  0  0  0  0  0  0  0  0
   -3.2180   24.9170  -26.3450 C   0  0  0  0  0  0  0  0  0  0  0  0
   -3.5833   25.0135  -25.3119 H   0  0  0  0  0  0  0  0  0  0  0  0
   -3.9580   24.1860  -27.2780 C   0  0  0  0  0  0  0  0  0  0  0  0
   -4.8973   23.7003  -26.9749 H   0  0  0  0  0  0  0  0  0  0  0  0
   -3.5070   24.0710  -28.5950 C   0  0  0  0  0  0  0  0  0  0  0  0
   -4.0850   23.4850  -29.3248 H   0  0  0  0  0  0  0  0  0  0  0  0
   -2.3220   24.7000  -28.9860 C   0  0  0  0  0  0  0  0  0  0  0  0
   -1.9732   24.6181  -30.0260 H   0  0  0  0  0  0  0  0  0  0  0  0
   -1.5800   25.4330  -28.0560 C   0  0  0  0  0  0  0  0  0  0  0  0
   -0.6546   25.9375  -28.3709 H   0  0  0  0  0  0  0  0  0  0  0  0
    1.1050   25.2930  -26.0700 C   0  0  0  0  0  0  0  0  0  0  0  0
    1.1641   26.1558  -26.7498 H   0  0  0  0  0  0  0  0  0  0  0  0
    2.0062   25.2022  -25.4459 H   0  0  0  0  0  0  0  0  0  0  0  0
    0.9940   24.0050  -26.9160 C   0  0  0  0  0  0  0  0  0  0  0  0
    0.4137   24.2237  -27.8245 H   0  0  0  0  0  0  0  0  0  0  0  0
    2.0111   23.6717  -27.1698 H   0  0  0  0  0  0  0  0  0  0  0  0
   -1.3720   21.5860  -29.1460 C   0  0  0  0  0  0  0  0  0  0  0  0
   -2.3744   21.9065  -28.8258 H   0  0  0  0  0  0  0  0  0  0  0  0
   -1.1800   21.1800  -30.5580 C   0  0  0  0  0  0  0  0  0  0  0  0
   -2.0960   21.5270  -31.5700 C   0  0  0  0  0  0  0  0  0  0  0  0
   -2.9755   22.1402  -31.3242 H   0  0  0  0  0  0  0  0  0  0  0  0
   -1.8950   21.0980  -32.8820 C   0  0  0  0  0  0  0  0  0  0  0  0
   -2.6105   21.3878  -33.6657 H   0  0  0  0  0  0  0  0  0  0  0  0
   -0.7870   20.2990  -33.2120 C   0  0  0  0  0  0  0  0  0  0  0  0
   -0.5900   19.8200  -34.5980 C   0  0  0  0  0  0  0  0  0  0  0  0
   -0.2210   20.6280  -35.4910 O   0  0  0  0  0  0  0  0  0  0  0  0
   -0.8500   18.4570  -34.9610 N   0  0  0  0  0  0  0  0  0  0  0  0
   -1.8950   17.6570  -34.3940 C   0  0  0  0  0  0  0  0  0  0  0  0
   -1.6020   16.5100  -33.6380 C   0  0  0  0  0  0  0  0  0  0  0  0
   -0.5573   16.1920  -33.5062 H   0  0  0  0  0  0  0  0  0  0  0  0
   -2.6340   15.7720  -33.0530 C   0  0  0  0  0  0  0  0  0  0  0  0
   -2.4013   14.8708  -32.4668 H   0  0  0  0  0  0  0  0  0  0  0  0
   -3.9620   16.1780  -33.2120 C   0  0  0  0  0  0  0  0  0  0  0  0
   -4.7715   15.6048  -32.7365 H   0  0  0  0  0  0  0  0  0  0  0  0
   -4.2650   17.3140  -33.9760 C   0  0  0  0  0  0  0  0  0  0  0  0
   -5.9270   17.8910  -34.0660 S   0  0  0  0  0  0  0  0  0  0  0  0
   -6.1030   18.7520  -35.2870 O   0  0  0  0  0  0  0  0  0  0  0  0
   -6.8480   16.7080  -34.1770 O   0  0  0  0  0  0  0  0  0  0  0  0
   -6.3080   18.8050  -32.6250 N   0  0  0  0  0  0  0  0  0  0  0  0
   -5.4590   18.7550  -32.0120 H   0  0  0  0  0  0  0  0  0  0  0  0
   -6.5250   20.2300  -32.9790 C   0  0  0  0  0  0  0  0  0  0  0  0
   -5.5480   20.7145  -33.1229 H   0  0  0  0  0  0  0  0  0  0  0  0
   -7.1228   20.2673  -33.9016 H   0  0  0  0  0  0  0  0  0  0  0  0
   -7.2920   20.9750  -31.8820 C   0  0  0  0  0  0  0  0  0  0  0  0
   -6.7249   20.9114  -30.9416 H   0  0  0  0  0  0  0  0  0  0  0  0
   -7.4128   22.0232  -32.1928 H   0  0  0  0  0  0  0  0  0  0  0  0
   -8.6900   20.3670  -31.6670 C   0  0  0  0  0  0  0  0  0  0  0  0
   -8.9370   20.4225  -30.5965 H   0  0  0  0  0  0  0  0  0  0  0  0
   -9.4003   20.9425  -32.2788 H   0  0  0  0  0  0  0  0  0  0  0  0
   -8.7740   18.8980  -32.1160 C   0  0  0  0  0  0  0  0  0  0  0  0
   -9.5614   18.3897  -31.5401 H   0  0  0  0  0  0  0  0  0  0  0  0
   -9.0066   18.8715  -33.1908 H   0  0  0  0  0  0  0  0  0  0  0  0
   -7.4380   18.1780  -31.8850 C   0  0  0  0  0  0  0  0  0  0  0  0
   -7.2086   18.1997  -30.8094 H   0  0  0  0  0  0  0  0  0  0  0  0
   -7.5477   17.1492  -32.2586 H   0  0  0  0  0  0  0  0  0  0  0  0
   -3.2290   18.0400  -34.5810 C   0  0  0  0  0  0  0  0  0  0  0  0
   -3.4652   18.9143  -35.2053 H   0  0  0  0  0  0  0  0  0  0  0  0
    0.1330   19.9630  -32.2070 C   0  0  0  0  0  0  0  0  0  0  0  0
    1.0186   19.3599  -32.4561 H   0  0  0  0  0  0  0  0  0  0  0  0
   -0.0690   20.3900  -30.8910 C   0  0  0  0  0  0  0  0  0  0  0  0
    0.6499   20.1039  -30.1091 H   0  0  0  0  0  0  0  0  0  0  0  0
  1  2  1  0
  2  3  1  0
  3  4  2  0
  3  5  1  0
  5  6  1  0
  6  7  1  0
  6  8  1  0
  6  9  1  0
  9 10  1  0
  9 11  1  0
  9 12  1  0
 12 13  1  0
 13 14  1  0
 13 15  1  0
 13 16  1  0
 16 17  2  0
 17 18  1  0
 17 19  1  0
 19 20  1  0
 19 21  2  0
 21 22  1  0
 21 23  1  0
 23 24  1  0
 23 25  2  0
 25 26  1  0
 12 27  1  0
 27 28  1  0
 27 29  1  0
 27 30  1  0
 30 31  1  0
 30 32  1  0
  2 33  2  0
 33 34  1  0
 33 35  1  0
 35 36  2  0
 36 37  1  0
 36 38  1  0
 38 39  1  0
 38 40  2  0
 40 41  1  0
 41 42  2  0
 41 43  1  0
 43 44  1  0
 44 45  2  0
 45 46  1  0
 45 47  1  0
 47 48  1  0
 47 49  2  0
 49 50  1  0
 49 51  1  0
 51 52  1  0
 52 53  2  0
 52 54  2  0
 52 55  1  0
 55 56  1  0
 55 57  1  0
 57 58  1  0
 57 59  1  0
 57 60  1  0
 60 61  1  0
 60 62  1  0
 60 63  1  0
 63 64  1  0
 63 65  1  0
 63 66  1  0
 66 67  1  0
 66 68  1  0
 66 69  1  0
 69 70  1  0
 69 71  1  0
 51 72  2  0
 72 73  1  0
 40 74  1  0
 74 75  1  0
 74 76  2  0
 76 77  1  0
 30  5  1  0
 76 35  1  0
 25 16  1  0
 72 44  1  0
 69 55  1  0
M  CHG  2  43  -1  55   1
M  END
>  <UniqueID>  (24) 
22

>  <SMILES>  (24) 
O=C([N-]c1cccc(S(=O)(=O)[NH+]2CCCCC2)c1)c1ccc(/C=C/C(=O)N2CCN(Cc3ccccc3)CC2)cc1

>  <Energy>  (24) 
109.8842668560484

>  <Genealogy>  (24) 
O=C([N-]c1cccc(S(=O)(=O)[NH+]2CCCCC2)c1)c1ccc(C=CC(=O)N2CCN(Cc3ccccc3)CC2)cc1 (protonated)
O=C([N-]c1cccc(S(=O)(=O)[NH+]2CCCCC2)c1)c1ccc(/C=C/C(=O)N2CCN(Cc3ccccc3)CC2)cc1 (cis-trans isomerization)
O=C([N-]c1cccc(S(=O)(=O)[NH+]2CCCCC2)c1)c1ccc(/C=C/C(=O)N2CCN(Cc3ccccc3)CC2)cc1 (3D coordinates assigned)
O=C([N-]c1cccc(S(=O)(=O)[NH+]2CCCCC2)c1)c1ccc(/C=C/C(=O)N2CCN(Cc3ccccc3)CC2)cc1 (nonaromatic ring conformer: 109.8842668560484 kcal/mol)

>  <smiles>  (24) 
O=C(Nc1cccc(S(=O)(=O)N2CCCCC2)c1)c1ccc(C=CC(=O)N2CCN(Cc3ccccc3)CC2)cc1

>  <score_type>  (24) 
oracle

>  <origin>  (24) 
adgpu

>  <m_score__min__energy>  (24) 
-12.08

>  <m_primary>  (24) 
energy

$$$$
24:0
     RDKit          3D

 56 60  0  0  0  0  0  0  0  0999 V2000
    3.0380   28.3970  -39.4160 O   0  0  0  0  0  0  0  0  0  0  0  0
    2.0370   27.9930  -38.7640 C   0  0  0  0  0  0  0  0  0  0  0  0
    0.8910   28.7800  -38.7320 O   0  0  0  0  0  0  0  0  0  0  0  0
    2.0790   26.7020  -38.0460 C   0  0  0  0  0  0  0  0  0  0  0  0
    3.1510   26.3800  -37.1980 C   0  0  0  0  0  0  0  0  0  0  0  0
    3.1770   25.1560  -36.5270 C   0  0  0  0  0  0  0  0  0  0  0  0
    2.1170   24.2510  -36.6980 C   0  0  0  0  0  0  0  0  0  0  0  0
    2.1010   22.9710  -36.0410 N   0  0  0  0  0  0  0  0  0  0  0  0
    3.1300   22.1350  -36.0760 N   0  0  0  0  0  0  0  0  0  0  0  0
    2.7730   21.0240  -35.4020 C   0  0  0  0  0  0  0  0  0  0  0  0
    3.5960   19.9140  -35.2430 O   0  0  0  0  0  0  0  0  0  0  0  0
    1.4860   21.1430  -34.9170 C   0  0  0  0  0  0  0  0  0  0  0  0
    0.6650   20.1030  -34.2160 C   0  0  0  0  0  0  0  0  0  0  0  0
   -0.4130   20.7580  -33.3980 C   0  0  0  0  0  0  0  0  0  0  0  0
   -1.7320   20.8160  -33.8790 C   0  0  0  0  0  0  0  0  0  0  0  0
   -2.7400   21.3940  -33.1020 C   0  0  0  0  0  0  0  0  0  0  0  0
   -2.4460   21.9110  -31.8330 C   0  0  0  0  0  0  0  0  0  0  0  0
   -3.7180   22.6540  -30.8610 S   0  0  0  0  0  0  0  0  0  0  0  0
   -3.5430   24.1470  -30.8710 O   0  0  0  0  0  0  0  0  0  0  0  0
   -3.5920   22.1820  -29.4400 O   0  0  0  0  0  0  0  0  0  0  0  0
   -5.3060   22.2500  -31.4680 N   0  0  0  0  0  0  0  0  0  0  0  0
   -6.3390   22.8760  -30.6280 C   0  0  0  0  0  0  0  0  0  0  0  0
   -7.7060   22.7210  -31.2970 C   0  0  0  0  0  0  0  0  0  0  0  0
   -7.9460   21.3050  -31.7580 C   0  0  0  0  0  0  0  0  0  0  0  0
   -9.2430   20.9080  -32.1180 C   0  0  0  0  0  0  0  0  0  0  0  0
   -9.4770   19.6150  -32.5930 C   0  0  0  0  0  0  0  0  0  0  0  0
   -8.4200   18.7130  -32.7190 C   0  0  0  0  0  0  0  0  0  0  0  0
   -7.1220   19.1020  -32.3770 C   0  0  0  0  0  0  0  0  0  0  0  0
   -6.8720   20.4020  -31.9140 C   0  0  0  0  0  0  0  0  0  0  0  0
   -5.4770   20.7860  -31.4820 C   0  0  0  0  0  0  0  0  0  0  0  0
   -1.1330   21.8430  -31.3470 C   0  0  0  0  0  0  0  0  0  0  0  0
   -0.1240   21.2660  -32.1220 C   0  0  0  0  0  0  0  0  0  0  0  0
    1.0880   22.3850  -35.3640 C   0  0  0  0  0  0  0  0  0  0  0  0
   -0.0620   22.8760  -35.2150 O   0  0  0  0  0  0  0  0  0  0  0  0
    1.0960   24.5760  -37.5370 N   0  0  0  0  0  0  0  0  0  0  0  0
    1.0500   25.7610  -38.2020 C   0  0  0  0  0  0  0  0  0  0  0  0
    3.9748   27.0961  -37.0617 H   0  0  0  0  0  0  0  0  0  0  0  0
    4.0215   24.9024  -35.8693 H   0  0  0  0  0  0  0  0  0  0  0  0
    4.4530   19.8280  -35.7750 H   0  0  0  0  0  0  0  0  0  0  0  0
    0.2028   19.4406  -34.9628 H   0  0  0  0  0  0  0  0  0  0  0  0
    1.3172   19.5196  -33.5495 H   0  0  0  0  0  0  0  0  0  0  0  0
   -1.9722   20.4050  -34.8707 H   0  0  0  0  0  0  0  0  0  0  0  0
   -3.7687   21.4433  -33.4884 H   0  0  0  0  0  0  0  0  0  0  0  0
   -6.3558   22.3871  -29.6427 H   0  0  0  0  0  0  0  0  0  0  0  0
   -6.1114   23.9450  -30.5041 H   0  0  0  0  0  0  0  0  0  0  0  0
   -8.4890   22.9983  -30.5758 H   0  0  0  0  0  0  0  0  0  0  0  0
   -7.7314   23.3771  -32.1795 H   0  0  0  0  0  0  0  0  0  0  0  0
  -10.0786   21.6175  -32.0259 H   0  0  0  0  0  0  0  0  0  0  0  0
  -10.4967   19.3075  -32.8682 H   0  0  0  0  0  0  0  0  0  0  0  0
   -8.6086   17.6941  -33.0881 H   0  0  0  0  0  0  0  0  0  0  0  0
   -6.2928   18.3854  -32.4714 H   0  0  0  0  0  0  0  0  0  0  0  0
   -5.2942   20.3940  -30.4706 H   0  0  0  0  0  0  0  0  0  0  0  0
   -4.7608   20.3591  -32.1995 H   0  0  0  0  0  0  0  0  0  0  0  0
   -0.8961   22.2457  -30.3511 H   0  0  0  0  0  0  0  0  0  0  0  0
    0.9023   21.2095  -31.7301 H   0  0  0  0  0  0  0  0  0  0  0  0
    0.2015   25.9832  -38.8659 H   0  0  0  0  0  0  0  0  0  0  0  0
  1  2  2  0
  2  3  1  0
  2  4  1  0
  4  5  2  0
  5  6  1  0
  6  7  2  0
  7  8  1  0
  8  9  1  0
  9 10  1  0
 10 11  1  0
 10 12  2  0
 12 13  1  0
 13 14  1  0
 14 15  2  0
 15 16  1  0
 16 17  2  0
 17 18  1  0
 18 19  2  0
 18 20  2  0
 18 21  1  0
 21 22  1  0
 22 23  1  0
 23 24  1  0
 24 25  2  0
 25 26  1  0
 26 27  2  0
 27 28  1  0
 28 29  2  0
 29 30  1  0
 17 31  1  0
 31 32  2  0
 12 33  1  0
 33 34  2  0
  7 35  1  0
 35 36  2  0
 36  4  1  0
 33  8  1  0
 32 14  1  0
 30 21  1  0
 29 24  1  0
  5 37  1  0
  6 38  1  0
 11 39  1  0
 13 40  1  0
 13 41  1  0
 15 42  1  0
 16 43  1  0
 22 44  1  0
 22 45  1  0
 23 46  1  0
 23 47  1  0
 25 48  1  0
 26 49  1  0
 27 50  1  0
 28 51  1  0
 30 52  1  0
 30 53  1  0
 31 54  1  0
 32 55  1  0
 36 56  1  0
M  CHG  2   3  -1   9  -1
M  END
>  <UniqueID>  (25) 
23

>  <SMILES>  (25) 
O=C([O-])c1ccc(-n2[n-]c(O)c(Cc3ccc(S(=O)(=O)N4CCc5ccccc5C4)cc3)c2=O)nc1

>  <Energy>  (25) 
98.35697483832804

>  <Genealogy>  (25) 
O=C([O-])c1ccc(-n2[n-]c(O)c(Cc3ccc(S(=O)(=O)N4CCc5ccccc5C4)cc3)c2=O)nc1 (protonated)
O=C([O-])c1ccc(-n2[n-]c(O)c(Cc3ccc(S(=O)(=O)N4CCc5ccccc5C4)cc3)c2=O)nc1 (3D coordinates assigned)
O=C([O-])c1ccc(-n2[n-]c(O)c(Cc3ccc(S(=O)(=O)N4CCc5ccccc5C4)cc3)c2=O)nc1 (nonaromatic ring conformer: 98.35697483832804 kcal/mol)

>  <smiles>  (25) 
O=C(O)c1ccc(-n2[nH]c(O)c(Cc3ccc(S(=O)(=O)N4CCc5ccccc5C4)cc3)c2=O)nc1

>  <score_type>  (25) 
oracle

>  <origin>  (25) 
adgpu

>  <m_score__min__energy>  (25) 
-12.35

>  <m_primary>  (25) 
energy

$$$$
25:0
     RDKit          3D

 51 53  0  0  0  0  0  0  0  0999 V2000
   -0.4590   26.4060  -23.9390 C   0  0  0  0  0  0  0  0  0  0  0  0
   -0.4820   26.5590  -25.7100 S   0  0  0  0  0  0  0  0  0  0  0  0
   -1.1430   27.8540  -26.0930 O   0  0  0  0  0  0  0  0  0  0  0  0
    0.9260   26.5620  -26.2330 O   0  0  0  0  0  0  0  0  0  0  0  0
   -1.3720   25.2070  -26.4020 C   0  0  0  0  0  0  0  0  0  0  0  0
   -0.7020   24.0290  -26.7540 C   0  0  0  0  0  0  0  0  0  0  0  0
   -1.4090   22.9500  -27.2920 C   0  0  0  0  0  0  0  0  0  0  0  0
   -2.8000   23.0320  -27.4670 C   0  0  0  0  0  0  0  0  0  0  0  0
   -3.5570   21.8870  -28.0810 C   0  0  0  0  0  0  0  0  0  0  0  0
   -2.7480   21.2710  -29.1350 N   0  0  0  0  0  0  0  0  0  0  0  0
   -2.7300   22.2920  -30.5410 S   0  0  0  0  0  0  0  0  0  0  0  0
   -2.5760   21.4330  -31.7640 O   0  0  0  0  0  0  0  0  0  0  0  0
   -1.5550   23.2280  -30.4760 O   0  0  0  0  0  0  0  0  0  0  0  0
   -4.2430   23.1990  -30.6640 C   0  0  0  0  0  0  0  0  0  0  0  0
   -5.4260   22.5100  -30.9670 C   0  0  0  0  0  0  0  0  0  0  0  0
   -6.6460   23.1940  -31.0670 C   0  0  0  0  0  0  0  0  0  0  0  0
   -8.1310   22.3150  -31.4480 S   0  0  0  0  0  0  0  0  0  0  0  0
   -9.0290   23.2030  -32.2630 O   0  0  0  0  0  0  0  0  0  0  0  0
   -8.8440   21.9810  -30.1680 O   0  0  0  0  0  0  0  0  0  0  0  0
   -7.8360   20.8380  -32.3360 N   0  0  0  0  0  0  0  0  0  0  0  0
   -9.0410   20.0220  -32.4620 C   0  0  0  0  0  0  0  0  0  0  0  0
   -8.5690   18.5880  -32.6500 C   0  0  0  0  0  0  0  0  0  0  0  0
   -7.1390   18.5630  -32.1300 C   0  0  0  0  0  0  0  0  0  0  0  0
   -6.8530   19.9850  -31.6720 C   0  0  0  0  0  0  0  0  0  0  0  0
   -6.6820   24.5750  -30.8360 C   0  0  0  0  0  0  0  0  0  0  0  0
   -5.5100   25.2670  -30.5220 C   0  0  0  0  0  0  0  0  0  0  0  0
   -4.2920   24.5860  -30.4320 C   0  0  0  0  0  0  0  0  0  0  0  0
   -3.1440   25.2970  -30.1010 O   0  0  0  0  0  0  0  0  0  0  0  0
   -3.4680   24.2160  -27.1220 C   0  0  0  0  0  0  0  0  0  0  0  0
   -2.7590   25.2950  -26.5840 C   0  0  0  0  0  0  0  0  0  0  0  0
   -0.6078   27.3961  -23.4835 H   0  0  0  0  0  0  0  0  0  0  0  0
   -1.2656   25.7301  -23.6189 H   0  0  0  0  0  0  0  0  0  0  0  0
    0.5107   25.9971  -23.6189 H   0  0  0  0  0  0  0  0  0  0  0  0
    0.3854   23.9524  -26.6065 H   0  0  0  0  0  0  0  0  0  0  0  0
   -0.8738   22.0330  -27.5795 H   0  0  0  0  0  0  0  0  0  0  0  0
   -3.7801   21.1386  -27.3064 H   0  0  0  0  0  0  0  0  0  0  0  0
   -4.4966   22.2610  -28.5137 H   0  0  0  0  0  0  0  0  0  0  0  0
   -3.2100   20.3750  -29.4180 H   0  0  0  0  0  0  0  0  0  0  0  0
   -5.3967   21.4222  -31.1278 H   0  0  0  0  0  0  0  0  0  0  0  0
   -9.6538   20.1049  -31.5523 H   0  0  0  0  0  0  0  0  0  0  0  0
   -9.6607   20.3528  -33.3085 H   0  0  0  0  0  0  0  0  0  0  0  0
   -9.2005   17.8960  -32.0735 H   0  0  0  0  0  0  0  0  0  0  0  0
   -8.6278   18.2721  -33.7020 H   0  0  0  0  0  0  0  0  0  0  0  0
   -7.0476   17.8613  -31.2878 H   0  0  0  0  0  0  0  0  0  0  0  0
   -6.4284   18.2299  -32.9007 H   0  0  0  0  0  0  0  0  0  0  0  0
   -6.9590   20.0614  -30.5798 H   0  0  0  0  0  0  0  0  0  0  0  0
   -5.8264   20.2870  -31.9266 H   0  0  0  0  0  0  0  0  0  0  0  0
   -7.6370   25.1168  -30.9021 H   0  0  0  0  0  0  0  0  0  0  0  0
   -5.5453   26.3521  -30.3448 H   0  0  0  0  0  0  0  0  0  0  0  0
   -4.5543   24.2964  -27.2752 H   0  0  0  0  0  0  0  0  0  0  0  0
   -3.2916   26.2155  -26.3028 H   0  0  0  0  0  0  0  0  0  0  0  0
  1  2  1  0
  2  3  2  0
  2  4  2  0
  2  5  1  0
  5  6  2  0
  6  7  1  0
  7  8  2  0
  8  9  1  0
  9 10  1  0
 10 11  1  0
 11 12  2  0
 11 13  2  0
 11 14  1  0
 14 15  2  0
 15 16  1  0
 16 17  1  0
 17 18  2  0
 17 19  2  0
 17 20  1  0
 20 21  1  0
 21 22  1  0
 22 23  1  0
 23 24  1  0
 16 25  2  0
 25 26  1  0
 26 27  2  0
 27 28  1  0
  8 29  1  0
 29 30  2  0
 30  5  1  0
 27 14  1  0
 24 20  1  0
  1 31  1  0
  1 32  1  0
  1 33  1  0
  6 34  1  0
  7 35  1  0
  9 36  1  0
  9 37  1  0
 10 38  1  0
 15 39  1  0
 21 40  1  0
 21 41  1  0
 22 42  1  0
 22 43  1  0
 23 44  1  0
 23 45  1  0
 24 46  1  0
 24 47  1  0
 25 48  1  0
 26 49  1  0
 29 50  1  0
 30 51  1  0
M  CHG  1  28  -1
M  END
>  <UniqueID>  (26) 
24

>  <SMILES>  (26) 
CS(=O)(=O)c1ccc(CNS(=O)(=O)c2cc(S(=O)(=O)N3CCCC3)ccc2[O-])cc1

>  <Energy>  (26) 
48.18210709262625

>  <Genealogy>  (26) 
CS(=O)(=O)c1ccc(CNS(=O)(=O)c2cc(S(=O)(=O)N3CCCC3)ccc2[O-])cc1 (protonated)
CS(=O)(=O)c1ccc(CNS(=O)(=O)c2cc(S(=O)(=O)N3CCCC3)ccc2[O-])cc1 (3D coordinates assigned)
CS(=O)(=O)c1ccc(CNS(=O)(=O)c2cc(S(=O)(=O)N3CCCC3)ccc2[O-])cc1 (nonaromatic ring conformer: 48.18210709262625 kcal/mol)

>  <smiles>  (26) 
CS(=O)(=O)c1ccc(CNS(=O)(=O)c2cc(S(=O)(=O)N3CCCC3)ccc2O)cc1

>  <score_type>  (26) 
oracle

>  <origin>  (26) 
adgpu

>  <m_score__min__energy>  (26) 
-12.859999999999999

>  <m_primary>  (26) 
energy

$$$$
26:0
     RDKit          3D

 41 43  0  0  0  0  0  0  0  0999 V2000
   -2.0390   20.9020  -31.9070 C   0  0  0  0  0  0  0  0  0  0  0  0
   -2.8720   20.6000  -33.1130 C   0  0  0  0  0  0  0  0  0  0  0  0
   -2.3350   20.5990  -34.2530 O   0  0  0  0  0  0  0  0  0  0  0  0
   -4.2760   20.3190  -32.9830 N   0  0  0  0  0  0  0  0  0  0  0  0
   -4.7560   18.9480  -33.2000 C   0  0  0  0  0  0  0  0  0  0  0  0
   -6.0950   18.9800  -33.9490 C   0  0  0  0  0  0  0  0  0  0  0  0
   -7.0150   19.8580  -33.2970 O   0  0  0  0  0  0  0  0  0  0  0  0
   -6.6000   21.0560  -32.7020 C   0  0  0  0  0  0  0  0  0  0  0  0
   -7.5530   21.9720  -32.2450 C   0  0  0  0  0  0  0  0  0  0  0  0
   -7.1460   23.1460  -31.6060 C   0  0  0  0  0  0  0  0  0  0  0  0
   -5.7820   23.4070  -31.4100 C   0  0  0  0  0  0  0  0  0  0  0  0
   -5.2730   24.8380  -30.5120 S   0  0  0  0  0  0  0  0  0  0  0  0
   -5.8280   24.8050  -29.1160 O   0  0  0  0  0  0  0  0  0  0  0  0
   -5.8000   26.0630  -31.2030 O   0  0  0  0  0  0  0  0  0  0  0  0
   -3.5430   24.9440  -30.4200 N   0  0  0  0  0  0  0  0  0  0  0  0
   -2.7330   24.2230  -29.4790 C   0  0  0  0  0  0  0  0  0  0  0  0
   -3.0510   22.9080  -29.0900 C   0  0  0  0  0  0  0  0  0  0  0  0
   -2.2430   22.2260  -28.1650 C   0  0  0  0  0  0  0  0  0  0  0  0
   -2.5550   20.8070  -27.7850 C   0  0  0  0  0  0  0  0  0  0  0  0
   -1.1030   22.8610  -27.6390 C   0  0  0  0  0  0  0  0  0  0  0  0
   -0.7720   24.1590  -28.0380 C   0  0  0  0  0  0  0  0  0  0  0  0
   -1.5780   24.8380  -28.9580 C   0  0  0  0  0  0  0  0  0  0  0  0
   -1.2380   26.1330  -29.3420 O   0  0  0  0  0  0  0  0  0  0  0  0
   -4.8230   22.4960  -31.8800 C   0  0  0  0  0  0  0  0  0  0  0  0
   -5.2260   21.3180  -32.5420 C   0  0  0  0  0  0  0  0  0  0  0  0
   -2.6206   20.6911  -30.9975 H   0  0  0  0  0  0  0  0  0  0  0  0
   -1.1359   20.2741  -31.9185 H   0  0  0  0  0  0  0  0  0  0  0  0
   -1.7482   21.9628  -31.9185 H   0  0  0  0  0  0  0  0  0  0  0  0
   -4.0171   18.3922  -33.7959 H   0  0  0  0  0  0  0  0  0  0  0  0
   -4.8949   18.4530  -32.2275 H   0  0  0  0  0  0  0  0  0  0  0  0
   -5.9258   19.3324  -34.9772 H   0  0  0  0  0  0  0  0  0  0  0  0
   -6.5198   17.9654  -33.9596 H   0  0  0  0  0  0  0  0  0  0  0  0
   -8.6243   21.7679  -32.3888 H   0  0  0  0  0  0  0  0  0  0  0  0
   -7.8981   23.8681  -31.2554 H   0  0  0  0  0  0  0  0  0  0  0  0
   -3.9370   22.4117  -29.5126 H   0  0  0  0  0  0  0  0  0  0  0  0
   -2.5748   20.7168  -26.6889 H   0  0  0  0  0  0  0  0  0  0  0  0
   -3.5365   20.5253  -28.1939 H   0  0  0  0  0  0  0  0  0  0  0  0
   -1.7822   20.1395  -28.1939 H   0  0  0  0  0  0  0  0  0  0  0  0
   -0.4695   22.3337  -26.9106 H   0  0  0  0  0  0  0  0  0  0  0  0
    0.1241   24.6476  -27.6278 H   0  0  0  0  0  0  0  0  0  0  0  0
   -3.7527   22.7019  -31.7313 H   0  0  0  0  0  0  0  0  0  0  0  0
  1  2  1  0
  2  3  2  0
  2  4  1  0
  4  5  1  0
  5  6  1  0
  6  7  1  0
  7  8  1  0
  8  9  2  0
  9 10  1  0
 10 11  2  0
 11 12  1  0
 12 13  2  0
 12 14  2  0
 12 15  1  0
 15 16  1  0
 16 17  2  0
 17 18  1  0
 18 19  1  0
 18 20  2  0
 20 21  1  0
 21 22  2  0
 22 23  1  0
 11 24  1  0
 24 25  2  0
 25  4  1  0
 25  8  1  0
 22 16  1  0
  1 26  1  0
  1 27  1  0
  1 28  1  0
  5 29  1  0
  5 30  1  0
  6 31  1  0
  6 32  1  0
  9 33  1  0
 10 34  1  0
 17 35  1  0
 19 36  1  0
 19 37  1  0
 19 38  1  0
 20 39  1  0
 21 40  1  0
 24 41  1  0
M  CHG  2  15  -1  23  -1
M  END
>  <UniqueID>  (27) 
25

>  <SMILES>  (27) 
CC(=O)N1CCOc2ccc(S(=O)(=O)[N-]c3cc(C)ccc3[O-])cc21

>  <Energy>  (27) 
52.98819537309518

>  <Genealogy>  (27) 
CC(=O)N1CCOc2ccc(S(=O)(=O)[N-]c3cc(C)ccc3[O-])cc21 (protonated)
CC(=O)N1CCOc2ccc(S(=O)(=O)[N-]c3cc(C)ccc3[O-])cc21 (3D coordinates assigned)
CC(=O)N1CCOc2ccc(S(=O)(=O)[N-]c3cc(C)ccc3[O-])cc21 (nonaromatic ring conformer: 52.98819537309518 kcal/mol)

>  <smiles>  (27) 
CC(=O)N1CCOc2ccc(S(=O)(=O)Nc3cc(C)ccc3O)cc21

>  <score_type>  (27) 
oracle

>  <origin>  (27) 
adgpu

>  <m_score__min__energy>  (27) 
-13.359999999999999

>  <m_primary>  (27) 
energy

$$$$
27:0
     RDKit          3D

 50 52  0  0  0  0  0  0  0  0999 V2000
   -2.6100   24.5030  -29.3540 C   0  0  0  0  0  0  0  0  0  0  0  0
   -4.0320   24.5920  -29.6680 N   0  0  0  0  0  0  0  0  0  0  0  0
   -4.6500   23.7840  -30.4750 C   0  0  0  0  0  0  0  0  0  0  0  0
   -3.9910   22.7730  -31.0950 N   0  0  0  0  0  0  0  0  0  0  0  0
   -4.6160   21.9160  -31.9460 C   0  0  0  0  0  0  0  0  0  0  0  0
   -3.7870   20.8320  -32.5880 C   0  0  0  0  0  0  0  0  0  0  0  0
   -4.2870   20.5330  -33.8420 F   0  0  0  0  0  0  0  0  0  0  0  0
   -2.4680   21.2390  -32.6930 F   0  0  0  0  0  0  0  0  0  0  0  0
   -3.8260   19.6790  -31.8240 F   0  0  0  0  0  0  0  0  0  0  0  0
   -6.0060   22.0720  -32.1910 C   0  0  0  0  0  0  0  0  0  0  0  0
   -6.6610   23.1520  -31.5530 C   0  0  0  0  0  0  0  0  0  0  0  0
   -5.9710   23.9620  -30.7070 N   0  0  0  0  0  0  0  0  0  0  0  0
   -8.1350   23.3910  -31.7310 C   0  0  0  0  0  0  0  0  0  0  0  0
   -8.9730   22.2170  -31.1980 C   0  0  0  0  0  0  0  0  0  0  0  0
   -9.1720   21.0890  -32.2230 C   0  0  0  0  0  0  0  0  0  0  0  0
   -7.8950   20.4270  -32.5480 N   0  0  0  0  0  0  0  0  0  0  0  0
   -7.6910   19.0280  -32.2400 C   0  0  0  0  0  0  0  0  0  0  0  0
   -8.4740   18.4350  -31.4490 O   0  0  0  0  0  0  0  0  0  0  0  0
   -6.5780   18.2600  -32.8290 C   0  0  0  0  0  0  0  0  0  0  0  0
   -6.3190   18.4030  -34.1990 C   0  0  0  0  0  0  0  0  0  0  0  0
   -5.2650   17.7090  -34.7960 C   0  0  0  0  0  0  0  0  0  0  0  0
   -4.4680   16.8490  -34.0340 C   0  0  0  0  0  0  0  0  0  0  0  0
   -3.1330   15.9830  -34.7850 S   0  0  0  0  0  0  0  0  0  0  0  0
   -1.6170   16.8590  -34.4790 C   0  0  0  0  0  0  0  0  0  0  0  0
   -3.0390   14.5990  -34.2100 O   0  0  0  0  0  0  0  0  0  0  0  0
   -3.3600   15.8760  -36.2660 O   0  0  0  0  0  0  0  0  0  0  0  0
   -4.7280   16.6910  -32.6680 C   0  0  0  0  0  0  0  0  0  0  0  0
   -5.7740   17.3960  -32.0490 C   0  0  0  0  0  0  0  0  0  0  0  0
   -6.0560   17.1290  -30.5940 C   0  0  0  0  0  0  0  0  0  0  0  0
   -6.7740   21.1730  -33.1620 C   0  0  0  0  0  0  0  0  0  0  0  0
   -2.4754   24.4946  -28.2623 H   0  0  0  0  0  0  0  0  0  0  0  0
   -2.1973   23.5773  -29.7815 H   0  0  0  0  0  0  0  0  0  0  0  0
   -2.0851   25.3701  -29.7815 H   0  0  0  0  0  0  0  0  0  0  0  0
   -8.4157   24.3047  -31.1867 H   0  0  0  0  0  0  0  0  0  0  0  0
   -8.3369   23.4939  -32.8074 H   0  0  0  0  0  0  0  0  0  0  0  0
   -8.4658   21.7998  -30.3156 H   0  0  0  0  0  0  0  0  0  0  0  0
   -9.9700   22.6147  -30.9577 H   0  0  0  0  0  0  0  0  0  0  0  0
   -9.8654   20.3441  -31.8055 H   0  0  0  0  0  0  0  0  0  0  0  0
   -9.5799   21.5273  -33.1458 H   0  0  0  0  0  0  0  0  0  0  0  0
   -6.9505   19.0666  -34.8080 H   0  0  0  0  0  0  0  0  0  0  0  0
   -5.0608   17.8391  -35.8690 H   0  0  0  0  0  0  0  0  0  0  0  0
   -1.4589   16.9504  -33.3943 H   0  0  0  0  0  0  0  0  0  0  0  0
   -0.7776   16.3067  -34.9267 H   0  0  0  0  0  0  0  0  0  0  0  0
   -1.6763   17.8620  -34.9267 H   0  0  0  0  0  0  0  0  0  0  0  0
   -4.1062   16.0069  -32.0719 H   0  0  0  0  0  0  0  0  0  0  0  0
   -5.3970   17.7529  -29.9723 H   0  0  0  0  0  0  0  0  0  0  0  0
   -7.1060   17.3717  -30.3735 H   0  0  0  0  0  0  0  0  0  0  0  0
   -5.8710   16.0673  -30.3735 H   0  0  0  0  0  0  0  0  0  0  0  0
   -6.0683   20.4445  -33.5878 H   0  0  0  0  0  0  0  0  0  0  0  0
   -7.2161   21.8357  -33.9205 H   0  0  0  0  0  0  0  0  0  0  0  0
  1  2  1  0
  2  3  2  3
  3  4  1  0
  4  5  2  0
  5  6  1  0
  6  7  1  0
  6  8  1  0
  6  9  1  0
  5 10  1  0
 10 11  2  0
 11 12  1  0
 11 13  1  0
 13 14  1  0
 14 15  1  0
 15 16  1  0
 16 17  1  0
 17 18  2  0
 17 19  1  0
 19 20  2  0
 20 21  1  0
 21 22  2  0
 22 23  1  0
 23 24  1  0
 23 25  2  0
 23 26  2  0
 22 27  1  0
 27 28  2  0
 28 29  1  0
 16 30  1  0
 12  3  1  0
 28 19  1  0
 30 10  1  0
  1 31  1  0
  1 32  1  0
  1 33  1  0
 13 34  1  0
 13 35  1  0
 14 36  1  0
 14 37  1  0
 15 38  1  0
 15 39  1  0
 20 40  1  0
 21 41  1  0
 24 42  1  0
 24 43  1  0
 24 44  1  0
 27 45  1  0
 29 46  1  0
 29 47  1  0
 29 48  1  0
 30 49  1  0
 30 50  1  0
M  CHG  1  12  -1
M  END
>  <UniqueID>  (28) 
26

>  <SMILES>  (28) 
CN=c1nc(C(F)(F)F)c2c([n-]1)CCCN(C(=O)c1ccc(S(C)(=O)=O)cc1C)C2

>  <Energy>  (28) 
63.39535388719564

>  <Genealogy>  (28) 
CN=c1nc(C(F)(F)F)c2c([n-]1)CCCN(C(=O)c1ccc(S(C)(=O)=O)cc1C)C2 (protonated)
CN=c1nc(C(F)(F)F)c2c([n-]1)CCCN(C(=O)c1ccc(S(C)(=O)=O)cc1C)C2 (3D coordinates assigned)
CN=c1nc(C(F)(F)F)c2c([n-]1)CCCN(C(=O)c1ccc(S(C)(=O)=O)cc1C)C2 (nonaromatic ring conformer: 63.39535388719564 kcal/mol)

>  <smiles>  (28) 
CN=c1nc(C(F)(F)F)c2c([nH]1)CCCN(C(=O)c1ccc(S(C)(=O)=O)cc1C)C2

>  <score_type>  (28) 
oracle

>  <origin>  (28) 
adgpu

>  <m_score__min__energy>  (28) 
-7.3899999999999997

>  <m_primary>  (28) 
energy

$$$$
28:0
     RDKit          3D

 56 59  0  0  0  0  0  0  0  0999 V2000
   -0.8640   19.4550  -27.9150 C   0  0  0  0  0  0  0  0  0  0  0  0
   -1.8630   20.0500  -27.0130 N   0  0  0  0  0  0  0  0  0  0  0  0
   -1.2500   20.8690  -25.9470 C   0  0  0  0  0  0  0  0  0  0  0  0
   -0.5160   22.0990  -26.5020 C   0  0  0  0  0  0  0  0  0  0  0  0
   -1.3130   22.8090  -27.5630 C   0  0  0  0  0  0  0  0  0  0  0  0
   -0.9200   24.0910  -27.9800 C   0  0  0  0  0  0  0  0  0  0  0  0
   -1.6480   24.7750  -28.9570 C   0  0  0  0  0  0  0  0  0  0  0  0
   -1.2610   26.0590  -29.3350 O   0  0  0  0  0  0  0  0  0  0  0  0
   -2.7790   24.1820  -29.5340 C   0  0  0  0  0  0  0  0  0  0  0  0
   -3.5800   24.9480  -30.4450 N   0  0  0  0  0  0  0  0  0  0  0  0
   -5.3020   25.1550  -30.2890 S   0  0  0  0  0  0  0  0  0  0  0  0
   -5.6400   25.3160  -28.8290 O   0  0  0  0  0  0  0  0  0  0  0  0
   -5.7340   26.3950  -31.0300 O   0  0  0  0  0  0  0  0  0  0  0  0
   -6.1630   23.7410  -30.9000 C   0  0  0  0  0  0  0  0  0  0  0  0
   -5.7570   23.1090  -32.0830 C   0  0  0  0  0  0  0  0  0  0  0  0
   -6.3560   21.9100  -32.4800 C   0  0  0  0  0  0  0  0  0  0  0  0
   -7.3760   21.3390  -31.7060 C   0  0  0  0  0  0  0  0  0  0  0  0
   -8.0940   19.7960  -32.1740 S   0  0  0  0  0  0  0  0  0  0  0  0
   -9.0930   20.0300  -33.2730 O   0  0  0  0  0  0  0  0  0  0  0  0
   -8.8270   19.2130  -30.9970 O   0  0  0  0  0  0  0  0  0  0  0  0
   -6.8830   18.6610  -32.7220 N   0  0  0  0  0  0  0  0  0  0  0  0
   -5.7540   18.5600  -31.7640 C   0  0  0  0  0  0  0  0  0  0  0  0
   -4.4980   19.3020  -32.2400 C   0  0  0  0  0  0  0  0  0  0  0  0
   -4.0200   18.7660  -33.6020 C   0  0  0  0  0  0  0  0  0  0  0  0
   -5.1760   18.2720  -34.4880 C   0  0  0  0  0  0  0  0  0  0  0  0
   -6.4880   18.9650  -34.1150 C   0  0  0  0  0  0  0  0  0  0  0  0
   -7.8020   21.9880  -30.5400 C   0  0  0  0  0  0  0  0  0  0  0  0
   -7.2000   23.1830  -30.1400 C   0  0  0  0  0  0  0  0  0  0  0  0
   -3.1190   22.8640  -29.1910 C   0  0  0  0  0  0  0  0  0  0  0  0
   -2.4020   22.1760  -28.2010 C   0  0  0  0  0  0  0  0  0  0  0  0
   -2.8860   20.8150  -27.7520 C   0  0  0  0  0  0  0  0  0  0  0  0
   -0.0690   18.9815  -27.3203 H   0  0  0  0  0  0  0  0  0  0  0  0
   -1.3477   18.6977  -28.5495 H   0  0  0  0  0  0  0  0  0  0  0  0
   -0.4286   20.2410  -28.5495 H   0  0  0  0  0  0  0  0  0  0  0  0
   -2.0418   21.2089  -25.2633 H   0  0  0  0  0  0  0  0  0  0  0  0
   -0.5097   20.2431  -25.4272 H   0  0  0  0  0  0  0  0  0  0  0  0
   -0.3242   22.7993  -25.6756 H   0  0  0  0  0  0  0  0  0  0  0  0
    0.4218   21.7527  -26.9608 H   0  0  0  0  0  0  0  0  0  0  0  0
   -0.0312   24.5609  -27.5336 H   0  0  0  0  0  0  0  0  0  0  0  0
   -4.9650   23.5575  -32.7007 H   0  0  0  0  0  0  0  0  0  0  0  0
   -6.0256   21.4123  -33.4037 H   0  0  0  0  0  0  0  0  0  0  0  0
   -6.0710   18.9883  -30.8017 H   0  0  0  0  0  0  0  0  0  0  0  0
   -5.4933   17.4953  -31.6725 H   0  0  0  0  0  0  0  0  0  0  0  0
   -4.7285   20.3732  -32.3364 H   0  0  0  0  0  0  0  0  0  0  0  0
   -3.6979   19.1435  -31.5020 H   0  0  0  0  0  0  0  0  0  0  0  0
   -3.4918   19.5728  -34.1312 H   0  0  0  0  0  0  0  0  0  0  0  0
   -3.3621   17.9063  -33.4068 H   0  0  0  0  0  0  0  0  0  0  0  0
   -4.9409   18.4895  -35.5403 H   0  0  0  0  0  0  0  0  0  0  0  0
   -5.2961   17.1892  -34.3356 H   0  0  0  0  0  0  0  0  0  0  0  0
   -6.3611   20.0524  -34.2216 H   0  0  0  0  0  0  0  0  0  0  0  0
   -7.2771   18.5959  -34.7866 H   0  0  0  0  0  0  0  0  0  0  0  0
   -8.6137   21.5548  -29.9372 H   0  0  0  0  0  0  0  0  0  0  0  0
   -7.5412   23.6885  -29.2245 H   0  0  0  0  0  0  0  0  0  0  0  0
   -3.9554   22.3661  -29.7033 H   0  0  0  0  0  0  0  0  0  0  0  0
   -3.7599   20.9527  -27.0983 H   0  0  0  0  0  0  0  0  0  0  0  0
   -3.1339   20.2408  -28.6569 H   0  0  0  0  0  0  0  0  0  0  0  0
  1  2  1  0
  2  3  1  0
  3  4  1  0
  4  5  1  0
  5  6  2  0
  6  7  1  0
  7  8  1  0
  7  9  2  0
  9 10  1  0
 10 11  1  0
 11 12  2  0
 11 13  2  0
 11 14  1  0
 14 15  2  0
 15 16  1  0
 16 17  2  0
 17 18  1  0
 18 19  2  0
 18 20  2  0
 18 21  1  0
 21 22  1  0
 22 23  1  0
 23 24  1  0
 24 25  1  0
 25 26  1  0
 17 27  1  0
 27 28  2  0
  9 29  1  0
 29 30  2  0
 30 31  1  0
 31  2  1  0
 30  5  1  0
 28 14  1  0
 26 21  1  0
  1 32  1  0
  1 33  1  0
  1 34  1  0
  3 35  1  0
  3 36  1  0
  4 37  1  0
  4 38  1  0
  6 39  1  0
 15 40  1  0
 16 41  1  0
 22 42  1  0
 22 43  1  0
 23 44  1  0
 23 45  1  0
 24 46  1  0
 24 47  1  0
 25 48  1  0
 25 49  1  0
 26 50  1  0
 26 51  1  0
 27 52  1  0
 28 53  1  0
 29 54  1  0
 31 55  1  0
 31 56  1  0
M  CHG  2   8  -1  10  -1
M  END
>  <UniqueID>  (29) 
27

>  <SMILES>  (29) 
CN1CCc2cc([O-])c([N-]S(=O)(=O)c3ccc(S(=O)(=O)N4CCCCC4)cc3)cc2C1

>  <Energy>  (29) 
73.76229085809676

>  <Genealogy>  (29) 
CN1CCc2cc([O-])c([N-]S(=O)(=O)c3ccc(S(=O)(=O)N4CCCCC4)cc3)cc2C1 (protonated)
CN1CCc2cc([O-])c([N-]S(=O)(=O)c3ccc(S(=O)(=O)N4CCCCC4)cc3)cc2C1 (3D coordinates assigned)
CN1CCc2cc([O-])c([N-]S(=O)(=O)c3ccc(S(=O)(=O)N4CCCCC4)cc3)cc2C1 (nonaromatic ring conformer: 73.76229085809676 kcal/mol)

>  <smiles>  (29) 
CN1CCc2cc(O)c(NS(=O)(=O)c3ccc(S(=O)(=O)N4CCCCC4)cc3)cc2C1

>  <score_type>  (29) 
oracle

>  <origin>  (29) 
adgpu

>  <m_score__min__energy>  (29) 
-16.219999999999999

>  <m_primary>  (29) 
energy

$$$$
29:0
     RDKit          3D

 51 54  0  0  0  0  0  0  0  0999 V2000
   -1.6140   20.2340  -26.0870 C   0  0  0  0  0  0  0  0  0  0  0  0
   -0.4910   20.1640  -27.0380 N   0  0  0  0  0  0  0  0  0  0  0  0
   -0.8230   19.3890  -28.2530 C   0  0  0  0  0  0  0  0  0  0  0  0
   -1.9300   20.0500  -29.0890 C   0  0  0  0  0  0  0  0  0  0  0  0
   -1.7710   21.5460  -29.1890 C   0  0  0  0  0  0  0  0  0  0  0  0
   -2.6100   22.2620  -30.0570 C   0  0  0  0  0  0  0  0  0  0  0  0
   -2.5910   23.6680  -30.0770 C   0  0  0  0  0  0  0  0  0  0  0  0
   -3.5450   24.4230  -30.8350 N   0  0  0  0  0  0  0  0  0  0  0  0
   -5.1910   24.7070  -30.3570 S   0  0  0  0  0  0  0  0  0  0  0  0
   -5.2820   24.6720  -28.8580 O   0  0  0  0  0  0  0  0  0  0  0  0
   -5.6240   26.0620  -30.8490 O   0  0  0  0  0  0  0  0  0  0  0  0
   -6.2320   23.4400  -31.0050 C   0  0  0  0  0  0  0  0  0  0  0  0
   -7.6220   23.6120  -31.0570 C   0  0  0  0  0  0  0  0  0  0  0  0
   -8.4270   22.6410  -31.6580 C   0  0  0  0  0  0  0  0  0  0  0  0
   -7.8500   21.4950  -32.2110 C   0  0  0  0  0  0  0  0  0  0  0  0
   -6.4630   21.3110  -32.1570 C   0  0  0  0  0  0  0  0  0  0  0  0
   -5.7480   19.8640  -32.8610 S   0  0  0  0  0  0  0  0  0  0  0  0
   -6.0770   18.6730  -32.0060 O   0  0  0  0  0  0  0  0  0  0  0  0
   -6.2970   19.6240  -34.2400 O   0  0  0  0  0  0  0  0  0  0  0  0
   -4.0060   20.0840  -32.9590 C   0  0  0  0  0  0  0  0  0  0  0  0
   -3.4720   21.3120  -33.3750 C   0  0  0  0  0  0  0  0  0  0  0  0
   -2.0850   21.4960  -33.4200 C   0  0  0  0  0  0  0  0  0  0  0  0
   -1.2270   20.4580  -33.0400 C   0  0  0  0  0  0  0  0  0  0  0  0
   -1.7540   19.2350  -32.6190 C   0  0  0  0  0  0  0  0  0  0  0  0
   -3.1400   19.0470  -32.5780 C   0  0  0  0  0  0  0  0  0  0  0  0
   -5.6580   22.2800  -31.5430 C   0  0  0  0  0  0  0  0  0  0  0  0
   -1.6580   24.3510  -29.2870 C   0  0  0  0  0  0  0  0  0  0  0  0
   -1.5910   25.7390  -29.3290 O   0  0  0  0  0  0  0  0  0  0  0  0
   -0.8070   23.6450  -28.4330 C   0  0  0  0  0  0  0  0  0  0  0  0
   -0.8880   22.2460  -28.3430 C   0  0  0  0  0  0  0  0  0  0  0  0
    0.0210   21.5050  -27.3880 C   0  0  0  0  0  0  0  0  0  0  0  0
   -1.2253   20.2098  -25.0582 H   0  0  0  0  0  0  0  0  0  0  0  0
   -2.1717   21.1687  -26.2463 H   0  0  0  0  0  0  0  0  0  0  0  0
   -2.2835   19.3758  -26.2463 H   0  0  0  0  0  0  0  0  0  0  0  0
    0.0815   19.3001  -28.8727 H   0  0  0  0  0  0  0  0  0  0  0  0
   -1.1911   18.4038  -27.9306 H   0  0  0  0  0  0  0  0  0  0  0  0
   -1.9057   19.6252  -30.1034 H   0  0  0  0  0  0  0  0  0  0  0  0
   -2.8882   19.8512  -28.5868 H   0  0  0  0  0  0  0  0  0  0  0  0
   -3.2897   21.7175  -30.7289 H   0  0  0  0  0  0  0  0  0  0  0  0
   -8.0801   24.5133  -30.6237 H   0  0  0  0  0  0  0  0  0  0  0  0
   -9.5176   22.7791  -31.6959 H   0  0  0  0  0  0  0  0  0  0  0  0
   -8.4864   20.7361  -32.6896 H   0  0  0  0  0  0  0  0  0  0  0  0
   -4.1443   22.1324  -33.6666 H   0  0  0  0  0  0  0  0  0  0  0  0
   -1.6691   22.4578  -33.7545 H   0  0  0  0  0  0  0  0  0  0  0  0
   -0.1374   20.6052  -33.0729 H   0  0  0  0  0  0  0  0  0  0  0  0
   -1.0794   18.4194  -32.3196 H   0  0  0  0  0  0  0  0  0  0  0  0
   -3.5525   18.0829  -32.2459 H   0  0  0  0  0  0  0  0  0  0  0  0
   -4.5700   22.1294  -31.4830 H   0  0  0  0  0  0  0  0  0  0  0  0
   -0.0680   24.1891  -27.8266 H   0  0  0  0  0  0  0  0  0  0  0  0
    1.0090   21.3927  -27.8583 H   0  0  0  0  0  0  0  0  0  0  0  0
    0.0767   22.0921  -26.4594 H   0  0  0  0  0  0  0  0  0  0  0  0
  1  2  1  0
  2  3  1  0
  3  4  1  0
  4  5  1  0
  5  6  2  0
  6  7  1  0
  7  8  1  0
  8  9  1  0
  9 10  2  0
  9 11  2  0
  9 12  1  0
 12 13  2  0
 13 14  1  0
 14 15  2  0
 15 16  1  0
 16 17  1  0
 17 18  2  0
 17 19  2  0
 17 20  1  0
 20 21  2  0
 21 22  1  0
 22 23  2  0
 23 24  1  0
 24 25  2  0
 16 26  2  0
  7 27  2  0
 27 28  1  0
 27 29  1  0
 29 30  2  0
 30 31  1  0
 31  2  1  0
 30  5  1  0
 26 12  1  0
 25 20  1  0
  1 32  1  0
  1 33  1  0
  1 34  1  0
  3 35  1  0
  3 36  1  0
  4 37  1  0
  4 38  1  0
  6 39  1  0
 13 40  1  0
 14 41  1  0
 15 42  1  0
 21 43  1  0
 22 44  1  0
 23 45  1  0
 24 46  1  0
 25 47  1  0
 26 48  1  0
 29 49  1  0
 31 50  1  0
 31 51  1  0
M  CHG  2   8  -1  28  -1
M  END
>  <UniqueID>  (30) 
28

>  <SMILES>  (30) 
CN1CCc2cc([N-]S(=O)(=O)c3cccc(S(=O)(=O)c4ccccc4)c3)c([O-])cc2C1

>  <Energy>  (30) 
65.01697112794265

>  <Genealogy>  (30) 
CN1CCc2cc([N-]S(=O)(=O)c3cccc(S(=O)(=O)c4ccccc4)c3)c([O-])cc2C1 (protonated)
CN1CCc2cc([N-]S(=O)(=O)c3cccc(S(=O)(=O)c4ccccc4)c3)c([O-])cc2C1 (3D coordinates assigned)
CN1CCc2cc([N-]S(=O)(=O)c3cccc(S(=O)(=O)c4ccccc4)c3)c([O-])cc2C1 (nonaromatic ring conformer: 65.01697112794265 kcal/mol)

>  <smiles>  (30) 
CN1CCc2cc(NS(=O)(=O)c3cccc(S(=O)(=O)c4ccccc4)c3)c(O)cc2C1

>  <score_type>  (30) 
oracle

>  <origin>  (30) 
adgpu

>  <m_score__min__energy>  (30) 
-14.91

>  <m_primary>  (30) 
energy

$$$$
30:0
     RDKit          3D

 52 55  0  0  0  0  0  0  0  0999 V2000
   -8.4960   19.7080  -31.7040 C   0  0  0  0  0  0  0  0  0  0  0  0
   -7.7570   21.0210  -31.6960 C   0  0  0  0  0  0  0  0  0  0  0  0
   -8.5150   22.1940  -31.5760 C   0  0  0  0  0  0  0  0  0  0  0  0
   -7.9030   23.4420  -31.5570 C   0  0  0  0  0  0  0  0  0  0  0  0
   -6.5140   23.5540  -31.6760 C   0  0  0  0  0  0  0  0  0  0  0  0
   -5.8770   24.8420  -31.6780 N   0  0  0  0  0  0  0  0  0  0  0  0
   -5.1320   25.4140  -30.5940 C   0  0  0  0  0  0  0  0  0  0  0  0
   -5.7340   26.1090  -29.7370 O   0  0  0  0  0  0  0  0  0  0  0  0
   -3.7180   25.2170  -30.4640 N   0  0  0  0  0  0  0  0  0  0  0  0
   -3.0930   24.3820  -29.4800 C   0  0  0  0  0  0  0  0  0  0  0  0
   -2.2160   24.9230  -28.5080 C   0  0  0  0  0  0  0  0  0  0  0  0
   -1.6120   24.0880  -27.5550 C   0  0  0  0  0  0  0  0  0  0  0  0
   -1.9100   22.7280  -27.5780 C   0  0  0  0  0  0  0  0  0  0  0  0
   -2.7440   22.2020  -28.5220 C   0  0  0  0  0  0  0  0  0  0  0  0
   -3.3420   22.9980  -29.4980 C   0  0  0  0  0  0  0  0  0  0  0  0
   -2.9010   20.8100  -28.3600 N   0  0  0  0  0  0  0  0  0  0  0  0
   -2.1080   20.3810  -27.2120 C   0  0  0  0  0  0  0  0  0  0  0  0
   -1.4200   21.6580  -26.6640 C   0  0  0  0  0  0  0  0  0  0  0  0
   -5.7270   22.3870  -31.7420 C   0  0  0  0  0  0  0  0  0  0  0  0
   -4.3360   22.4890  -31.7990 O   0  0  0  0  0  0  0  0  0  0  0  0
   -6.3370   21.1090  -31.7560 C   0  0  0  0  0  0  0  0  0  0  0  0
   -5.2930   19.6590  -31.8600 S   0  0  0  0  0  0  0  0  0  0  0  0
   -5.9640   18.4710  -31.2310 O   0  0  0  0  0  0  0  0  0  0  0  0
   -4.0350   19.9060  -31.0710 O   0  0  0  0  0  0  0  0  0  0  0  0
   -4.8830   19.2450  -33.5140 N   0  0  0  0  0  0  0  0  0  0  0  0
   -6.0620   18.8550  -34.3180 C   0  0  0  0  0  0  0  0  0  0  0  0
   -6.0980   17.3420  -34.5860 C   0  0  0  0  0  0  0  0  0  0  0  0
   -4.9460   16.8650  -35.2680 O   0  0  0  0  0  0  0  0  0  0  0  0
   -3.7510   17.5610  -34.9330 C   0  0  0  0  0  0  0  0  0  0  0  0
   -3.7950   18.2510  -33.5600 C   0  0  0  0  0  0  0  0  0  0  0  0
   -8.6785   19.3837  -30.6689 H   0  0  0  0  0  0  0  0  0  0  0  0
   -9.4572   19.8314  -32.2245 H   0  0  0  0  0  0  0  0  0  0  0  0
   -7.8918   18.9503  -32.2245 H   0  0  0  0  0  0  0  0  0  0  0  0
   -9.6100   22.1260  -31.4957 H   0  0  0  0  0  0  0  0  0  0  0  0
   -8.5161   24.3487  -31.4475 H   0  0  0  0  0  0  0  0  0  0  0  0
   -2.0072   26.0030  -28.5000 H   0  0  0  0  0  0  0  0  0  0  0  0
   -0.9185   24.4989  -26.8065 H   0  0  0  0  0  0  0  0  0  0  0  0
   -3.9937   22.5536  -30.2647 H   0  0  0  0  0  0  0  0  0  0  0  0
   -3.4930   20.1890  -28.9570 H   0  0  0  0  0  0  0  0  0  0  0  0
   -2.7579   19.9376  -26.4432 H   0  0  0  0  0  0  0  0  0  0  0  0
   -1.3695   19.6169  -27.4964 H   0  0  0  0  0  0  0  0  0  0  0  0
   -1.7252   21.8558  -25.6259 H   0  0  0  0  0  0  0  0  0  0  0  0
   -0.3230   21.5803  -26.6399 H   0  0  0  0  0  0  0  0  0  0  0  0
   -3.8410   23.3590  -31.6440 H   0  0  0  0  0  0  0  0  0  0  0  0
   -6.9740   19.1416  -33.7739 H   0  0  0  0  0  0  0  0  0  0  0  0
   -5.9996   19.3715  -35.2872 H   0  0  0  0  0  0  0  0  0  0  0  0
   -6.1749   16.8182  -33.6218 H   0  0  0  0  0  0  0  0  0  0  0  0
   -6.9650   17.1461  -35.2340 H   0  0  0  0  0  0  0  0  0  0  0  0
   -2.9196   16.8407  -34.9320 H   0  0  0  0  0  0  0  0  0  0  0  0
   -3.6225   18.3540  -35.6844 H   0  0  0  0  0  0  0  0  0  0  0  0
   -3.9637   17.4939  -32.7800 H   0  0  0  0  0  0  0  0  0  0  0  0
   -2.8374   18.7649  -33.3903 H   0  0  0  0  0  0  0  0  0  0  0  0
  1  2  1  0
  2  3  2  0
  3  4  1  0
  4  5  2  0
  5  6  1  0
  6  7  1  0
  7  8  2  0
  7  9  1  0
  9 10  1  0
 10 11  2  0
 11 12  1  0
 12 13  2  0
 13 14  1  0
 14 15  2  0
 14 16  1  0
 16 17  1  0
 17 18  1  0
  5 19  1  0
 19 20  1  0
 19 21  2  0
 21 22  1  0
 22 23  2  0
 22 24  2  0
 22 25  1  0
 25 26  1  0
 26 27  1  0
 27 28  1  0
 28 29  1  0
 29 30  1  0
 21  2  1  0
 30 25  1  0
 15 10  1  0
 18 13  1  0
  1 31  1  0
  1 32  1  0
  1 33  1  0
  3 34  1  0
  4 35  1  0
 11 36  1  0
 12 37  1  0
 15 38  1  0
 16 39  1  0
 17 40  1  0
 17 41  1  0
 18 42  1  0
 18 43  1  0
 20 44  1  0
 26 45  1  0
 26 46  1  0
 27 47  1  0
 27 48  1  0
 29 49  1  0
 29 50  1  0
 30 51  1  0
 30 52  1  0
M  CHG  2   6  -1   9  -1
M  END
>  <UniqueID>  (31) 
29

>  <SMILES>  (31) 
Cc1ccc([N-]C(=O)[N-]c2ccc3c(c2)NCC3)c(O)c1S(=O)(=O)N1CCOCC1

>  <Energy>  (31) 
90.84637529060119

>  <Genealogy>  (31) 
Cc1ccc([N-]C(=O)[N-]c2ccc3c(c2)NCC3)c(O)c1S(=O)(=O)N1CCOCC1 (protonated)
Cc1ccc([N-]C(=O)[N-]c2ccc3c(c2)NCC3)c(O)c1S(=O)(=O)N1CCOCC1 (3D coordinates assigned)
Cc1ccc([N-]C(=O)[N-]c2ccc3c(c2)NCC3)c(O)c1S(=O)(=O)N1CCOCC1 (nonaromatic ring conformer: 90.84637529060119 kcal/mol)

>  <smiles>  (31) 
Cc1ccc(NC(=O)Nc2ccc3c(c2)NCC3)c(O)c1S(=O)(=O)N1CCOCC1

>  <score_type>  (31) 
oracle

>  <origin>  (31) 
adgpu

>  <m_score__min__energy>  (31) 
-12.949999999999999

>  <m_primary>  (31) 
energy

$$$$
31:0
     RDKit          3D

 47 50  0  0  0  0  0  0  0  0999 V2000
   -6.4860   17.4630  -30.8550 C   0  0  0  0  0  0  0  0  0  0  0  0
   -6.8070   18.4450  -31.8870 N   0  0  0  0  0  0  0  0  0  0  0  0
   -7.7290   19.3810  -31.7250 N   0  0  0  0  0  0  0  0  0  0  0  0
   -7.7480   20.1390  -32.8400 C   0  0  0  0  0  0  0  0  0  0  0  0
   -6.8070   19.6700  -33.7370 C   0  0  0  0  0  0  0  0  0  0  0  0
   -6.2390   18.5820  -33.1060 C   0  0  0  0  0  0  0  0  0  0  0  0
   -5.1580   17.7420  -33.6640 C   0  0  0  0  0  0  0  0  0  0  0  0
   -5.2850   16.3450  -33.6210 C   0  0  0  0  0  0  0  0  0  0  0  0
   -4.2710   15.5150  -34.1280 C   0  0  0  0  0  0  0  0  0  0  0  0
   -4.4460   14.0170  -34.1310 C   0  0  0  0  0  0  0  0  0  0  0  0
   -4.3190   13.5040  -32.8520 F   0  0  0  0  0  0  0  0  0  0  0  0
   -5.6990   13.6770  -34.6120 F   0  0  0  0  0  0  0  0  0  0  0  0
   -3.4820   13.4490  -34.9420 F   0  0  0  0  0  0  0  0  0  0  0  0
   -3.1350   16.1040  -34.7080 C   0  0  0  0  0  0  0  0  0  0  0  0
   -2.9940   17.4920  -34.7350 C   0  0  0  0  0  0  0  0  0  0  0  0
   -4.0010   18.3220  -34.2170 C   0  0  0  0  0  0  0  0  0  0  0  0
   -3.8430   19.7160  -34.1790 O   0  0  0  0  0  0  0  0  0  0  0  0
   -3.3520   20.4510  -33.0870 C   0  0  0  0  0  0  0  0  0  0  0  0
   -4.1760   20.7900  -31.9990 C   0  0  0  0  0  0  0  0  0  0  0  0
   -3.6580   21.4940  -30.9100 C   0  0  0  0  0  0  0  0  0  0  0  0
   -2.3060   21.8600  -30.8880 C   0  0  0  0  0  0  0  0  0  0  0  0
   -1.6270   22.7100  -29.5040 S   0  0  0  0  0  0  0  0  0  0  0  0
   -1.9240   21.9270  -28.2560 O   0  0  0  0  0  0  0  0  0  0  0  0
   -0.1380   22.8580  -29.6430 O   0  0  0  0  0  0  0  0  0  0  0  0
   -2.3460   24.2810  -29.3820 N   0  0  0  0  0  0  0  0  0  0  0  0
   -3.7100   24.5240  -29.7250 C   0  0  0  0  0  0  0  0  0  0  0  0
   -4.7620   23.9880  -28.9950 C   0  0  0  0  0  0  0  0  0  0  0  0
   -6.1880   24.5000  -29.7220 S   0  0  0  0  0  0  0  0  0  0  0  0
   -5.4090   25.3770  -30.9260 C   0  0  0  0  0  0  0  0  0  0  0  0
   -4.0680   25.2920  -30.7910 N   0  0  0  0  0  0  0  0  0  0  0  0
   -1.4770   21.5110  -31.9600 C   0  0  0  0  0  0  0  0  0  0  0  0
   -1.9920   20.8040  -33.0540 C   0  0  0  0  0  0  0  0  0  0  0  0
   -1.1190   20.4460  -34.1430 C   0  0  0  0  0  0  0  0  0  0  0  0
   -0.4170   20.1570  -35.0170 N   0  0  0  0  0  0  0  0  0  0  0  0
   -6.6331   17.9131  -29.8621 H   0  0  0  0  0  0  0  0  0  0  0  0
   -7.1452   16.5890  -30.9627 H   0  0  0  0  0  0  0  0  0  0  0  0
   -5.4378   17.1472  -30.9627 H   0  0  0  0  0  0  0  0  0  0  0  0
   -8.4115   20.9997  -33.0098 H   0  0  0  0  0  0  0  0  0  0  0  0
   -6.5650   20.0736  -34.7313 H   0  0  0  0  0  0  0  0  0  0  0  0
   -6.1890   15.8945  -33.1853 H   0  0  0  0  0  0  0  0  0  0  0  0
   -2.3514   15.4667  -35.1438 H   0  0  0  0  0  0  0  0  0  0  0  0
   -2.0862   17.9397  -35.1658 H   0  0  0  0  0  0  0  0  0  0  0  0
   -5.2366   20.4984  -32.0059 H   0  0  0  0  0  0  0  0  0  0  0  0
   -4.3129   21.7617  -30.0677 H   0  0  0  0  0  0  0  0  0  0  0  0
   -4.6778   23.3467  -28.1052 H   0  0  0  0  0  0  0  0  0  0  0  0
   -5.9222   25.9436  -31.7170 H   0  0  0  0  0  0  0  0  0  0  0  0
   -0.4141   21.7937  -31.9434 H   0  0  0  0  0  0  0  0  0  0  0  0
  1  2  1  0
  2  3  1  0
  3  4  2  0
  4  5  1  0
  5  6  2  0
  6  7  1  0
  7  8  2  0
  8  9  1  0
  9 10  1  0
 10 11  1  0
 10 12  1  0
 10 13  1  0
  9 14  2  0
 14 15  1  0
 15 16  2  0
 16 17  1  0
 17 18  1  0
 18 19  2  0
 19 20  1  0
 20 21  2  0
 21 22  1  0
 22 23  2  0
 22 24  2  0
 22 25  1  0
 25 26  1  0
 26 27  2  0
 27 28  1  0
 28 29  1  0
 29 30  2  0
 21 31  1  0
 31 32  2  0
 32 33  1  0
 33 34  3  0
  6  2  1  0
 16  7  1  0
 32 18  1  0
 30 26  1  0
  1 35  1  0
  1 36  1  0
  1 37  1  0
  4 38  1  0
  5 39  1  0
  8 40  1  0
 14 41  1  0
 15 42  1  0
 19 43  1  0
 20 44  1  0
 27 45  1  0
 29 46  1  0
 31 47  1  0
M  CHG  1  25  -1
M  END
>  <UniqueID>  (32) 
30

>  <SMILES>  (32) 
Cn1nccc1-c1cc(C(F)(F)F)ccc1Oc1ccc(S(=O)(=O)[N-]c2cscn2)cc1C#N

>  <Energy>  (32) 
123.17650334136917

>  <Genealogy>  (32) 
Cn1nccc1-c1cc(C(F)(F)F)ccc1Oc1ccc(S(=O)(=O)[N-]c2cscn2)cc1C#N (protonated)
Cn1nccc1-c1cc(C(F)(F)F)ccc1Oc1ccc(S(=O)(=O)[N-]c2cscn2)cc1C#N (3D coordinates assigned)
Cn1nccc1-c1cc(C(F)(F)F)ccc1Oc1ccc(S(=O)(=O)[N-]c2cscn2)cc1C#N (optimized conformer: 123.17650334136917 kcal/mol)

>  <smiles>  (32) 
Cn1nccc1-c1cc(C(F)(F)F)ccc1Oc1ccc(S(=O)(=O)Nc2cscn2)cc1C#N

>  <score_type>  (32) 
oracle

>  <origin>  (32) 
adgpu

>  <m_score__min__energy>  (32) 
-9.8300000000000001

>  <m_primary>  (32) 
energy

$$$$
32:0
     RDKit          3D

 54 57  0  0  0  0  0  0  0  0999 V2000
   -3.1290   20.6290  -28.8760 O   0  0  0  0  0  0  0  0  0  0  0  0
   -2.9120   21.8620  -29.0140 C   0  0  0  0  0  0  0  0  0  0  0  0
   -3.8830   22.8490  -28.4420 C   0  0  0  0  0  0  0  0  0  0  0  0
   -4.2970   23.8240  -29.5010 C   0  0  0  0  0  0  0  0  0  0  0  0
   -5.5090   23.8600  -30.1550 C   0  0  0  0  0  0  0  0  0  0  0  0
   -5.4700   24.9800  -30.9660 C   0  0  0  0  0  0  0  0  0  0  0  0
   -4.3000   25.6400  -30.8330 N   0  0  0  0  0  0  0  0  0  0  0  0
   -3.5960   24.9300  -29.9310 C   0  0  0  0  0  0  0  0  0  0  0  0
   -2.3270   25.2930  -29.4960 O   0  0  0  0  0  0  0  0  0  0  0  0
   -1.7920   22.3230  -29.7830 N   0  0  0  0  0  0  0  0  0  0  0  0
   -0.8240   21.4300  -30.3510 C   0  0  0  0  0  0  0  0  0  0  0  0
   -0.6510   21.4210  -31.7410 C   0  0  0  0  0  0  0  0  0  0  0  0
    0.2530   20.5350  -32.3430 C   0  0  0  0  0  0  0  0  0  0  0  0
    0.4270   20.5000  -34.0950 S   0  0  0  0  0  0  0  0  0  0  0  0
    1.7520   19.8850  -34.4480 O   0  0  0  0  0  0  0  0  0  0  0  0
    0.3930   21.9050  -34.6350 O   0  0  0  0  0  0  0  0  0  0  0  0
   -0.8610   19.5450  -34.7830 N   0  0  0  0  0  0  0  0  0  0  0  0
   -0.6190   18.1140  -34.6020 C   0  0  0  0  0  0  0  0  0  0  0  0
   -1.9850   17.4420  -34.5910 C   0  0  0  0  0  0  0  0  0  0  0  0
   -2.9760   18.5520  -34.2710 C   0  0  0  0  0  0  0  0  0  0  0  0
   -2.1350   19.8100  -34.1150 C   0  0  0  0  0  0  0  0  0  0  0  0
    0.9890   19.6520  -31.5470 C   0  0  0  0  0  0  0  0  0  0  0  0
    0.8470   19.6720  -30.1580 C   0  0  0  0  0  0  0  0  0  0  0  0
   -0.0490   20.5640  -29.5450 C   0  0  0  0  0  0  0  0  0  0  0  0
   -0.0970   20.6310  -28.1080 N   0  0  0  0  0  0  0  0  0  0  0  0
   -0.9170   19.6740  -27.3570 C   0  0  0  0  0  0  0  0  0  0  0  0
   -1.2980   20.2640  -25.9980 C   0  0  0  0  0  0  0  0  0  0  0  0
   -1.6200   21.6300  -26.1570 O   0  0  0  0  0  0  0  0  0  0  0  0
   -0.4500   22.3970  -26.4000 C   0  0  0  0  0  0  0  0  0  0  0  0
    0.5410   21.7410  -27.3900 C   0  0  0  0  0  0  0  0  0  0  0  0
   -4.7699   22.3153  -28.0699 H   0  0  0  0  0  0  0  0  0  0  0  0
   -3.4039   23.3927  -27.6145 H   0  0  0  0  0  0  0  0  0  0  0  0
   -6.3382   23.1444  -30.0531 H   0  0  0  0  0  0  0  0  0  0  0  0
   -6.2869   25.2924  -31.6331 H   0  0  0  0  0  0  0  0  0  0  0  0
   -1.7840   23.3190  -30.0950 H   0  0  0  0  0  0  0  0  0  0  0  0
   -1.2304   22.1162  -32.3663 H   0  0  0  0  0  0  0  0  0  0  0  0
   -0.0103   17.7238  -35.4310 H   0  0  0  0  0  0  0  0  0  0  0  0
   -0.0721   17.9183  -33.6678 H   0  0  0  0  0  0  0  0  0  0  0  0
   -2.2052   17.0005  -35.5742 H   0  0  0  0  0  0  0  0  0  0  0  0
   -2.0339   16.6243  -33.8568 H   0  0  0  0  0  0  0  0  0  0  0  0
   -3.6988   18.6713  -35.0916 H   0  0  0  0  0  0  0  0  0  0  0  0
   -3.5575   18.3328  -33.3633 H   0  0  0  0  0  0  0  0  0  0  0  0
   -2.6404   20.6656  -34.5867 H   0  0  0  0  0  0  0  0  0  0  0  0
   -1.9833   20.0573  -33.0540 H   0  0  0  0  0  0  0  0  0  0  0  0
    1.6825   18.9389  -32.0167 H   0  0  0  0  0  0  0  0  0  0  0  0
    1.4413   18.9840  -29.5388 H   0  0  0  0  0  0  0  0  0  0  0  0
   -1.8313   19.4520  -27.9269 H   0  0  0  0  0  0  0  0  0  0  0  0
   -0.3410   18.7500  -27.2005 H   0  0  0  0  0  0  0  0  0  0  0  0
   -2.1683   19.7257  -25.5944 H   0  0  0  0  0  0  0  0  0  0  0  0
   -0.4524   20.1629  -25.3017 H   0  0  0  0  0  0  0  0  0  0  0  0
   -0.7546   23.3710  -26.8106 H   0  0  0  0  0  0  0  0  0  0  0  0
    0.0757   22.4870  -25.4379 H   0  0  0  0  0  0  0  0  0  0  0  0
    0.8767   22.4951  -28.1170 H   0  0  0  0  0  0  0  0  0  0  0  0
    1.3975   21.3478  -26.8227 H   0  0  0  0  0  0  0  0  0  0  0  0
  1  2  2  0
  2  3  1  0
  3  4  1  0
  4  5  1  0
  5  6  2  0
  6  7  1  0
  7  8  1  0
  8  9  1  0
  2 10  1  0
 10 11  1  0
 11 12  2  0
 12 13  1  0
 13 14  1  0
 14 15  2  0
 14 16  2  0
 14 17  1  0
 17 18  1  0
 18 19  1  0
 19 20  1  0
 20 21  1  0
 13 22  2  0
 22 23  1  0
 23 24  2  0
 24 25  1  0
 25 26  1  0
 26 27  1  0
 27 28  1  0
 28 29  1  0
 29 30  1  0
  8  4  2  0
 24 11  1  0
 30 25  1  0
 21 17  1  0
  3 31  1  0
  3 32  1  0
  5 33  1  0
  6 34  1  0
 10 35  1  0
 12 36  1  0
 18 37  1  0
 18 38  1  0
 19 39  1  0
 19 40  1  0
 20 41  1  0
 20 42  1  0
 21 43  1  0
 21 44  1  0
 22 45  1  0
 23 46  1  0
 26 47  1  0
 26 48  1  0
 27 49  1  0
 27 50  1  0
 29 51  1  0
 29 52  1  0
 30 53  1  0
 30 54  1  0
M  CHG  2   7  -1   9  -1
M  END
>  <UniqueID>  (33) 
31

>  <SMILES>  (33) 
O=C(Cc1cc[n-]c1[O-])Nc1cc(S(=O)(=O)N2CCCC2)ccc1N1CCOCC1

>  <Energy>  (33) 
95.1960768209953

>  <Genealogy>  (33) 
O=C(Cc1cc[n-]c1[O-])Nc1cc(S(=O)(=O)N2CCCC2)ccc1N1CCOCC1 (protonated)
O=C(Cc1cc[n-]c1[O-])Nc1cc(S(=O)(=O)N2CCCC2)ccc1N1CCOCC1 (3D coordinates assigned)
O=C(Cc1cc[n-]c1[O-])Nc1cc(S(=O)(=O)N2CCCC2)ccc1N1CCOCC1 (nonaromatic ring conformer: 95.1960768209953 kcal/mol)

>  <smiles>  (33) 
O=C(Cc1cc[nH]c1O)Nc1cc(S(=O)(=O)N2CCCC2)ccc1N1CCOCC1

>  <score_type>  (33) 
oracle

>  <origin>  (33) 
adgpu

>  <m_score__min__energy>  (33) 
-13.15

>  <m_primary>  (33) 
energy

$$$$
33:0
     RDKit          3D

 47 50  0  0  0  0  0  0  0  0999 V2000
   -8.8930   18.2040  -31.5060 C   0  0  0  0  0  0  0  0  0  0  0  0
   -8.8170   19.3530  -32.4620 C   0  0  0  0  0  0  0  0  0  0  0  0
   -9.8410   19.6510  -33.1330 O   0  0  0  0  0  0  0  0  0  0  0  0
   -7.6040   20.0990  -32.6620 N   0  0  0  0  0  0  0  0  0  0  0  0
   -6.5140   19.6300  -33.5190 C   0  0  0  0  0  0  0  0  0  0  0  0
   -5.3360   20.6070  -33.2920 C   0  0  0  0  0  0  0  0  0  0  0  0
   -5.9050   21.6220  -32.3660 C   0  0  0  0  0  0  0  0  0  0  0  0
   -5.2920   22.7870  -31.9030 C   0  0  0  0  0  0  0  0  0  0  0  0
   -6.0300   23.6550  -31.0780 C   0  0  0  0  0  0  0  0  0  0  0  0
   -5.2980   25.1250  -30.4400 S   0  0  0  0  0  0  0  0  0  0  0  0
   -5.7380   26.3300  -31.2240 O   0  0  0  0  0  0  0  0  0  0  0  0
   -5.7250   25.2960  -29.0100 O   0  0  0  0  0  0  0  0  0  0  0  0
   -3.5700   24.9970  -30.5080 N   0  0  0  0  0  0  0  0  0  0  0  0
   -2.7660   24.1730  -29.6510 C   0  0  0  0  0  0  0  0  0  0  0  0
   -3.1050   22.8350  -29.3730 C   0  0  0  0  0  0  0  0  0  0  0  0
   -2.3080   22.0670  -28.5130 C   0  0  0  0  0  0  0  0  0  0  0  0
   -1.1520   22.6240  -27.9470 C   0  0  0  0  0  0  0  0  0  0  0  0
   -0.8020   23.9490  -28.2350 C   0  0  0  0  0  0  0  0  0  0  0  0
   -1.6090   24.7220  -29.0780 C   0  0  0  0  0  0  0  0  0  0  0  0
   -1.2540   26.0380  -29.3460 O   0  0  0  0  0  0  0  0  0  0  0  0
   -0.2990   21.7590  -27.0640 C   0  0  0  0  0  0  0  0  0  0  0  0
   -1.1890   20.9710  -26.0930 C   0  0  0  0  0  0  0  0  0  0  0  0
   -2.3560   20.2170  -26.7850 C   0  0  0  0  0  0  0  0  0  0  0  0
   -2.6150   20.6140  -28.2550 C   0  0  0  0  0  0  0  0  0  0  0  0
   -7.3680   23.3490  -30.7590 C   0  0  0  0  0  0  0  0  0  0  0  0
   -7.9650   22.1760  -31.2480 C   0  0  0  0  0  0  0  0  0  0  0  0
   -7.1940   21.3070  -32.0290 C   0  0  0  0  0  0  0  0  0  0  0  0
   -8.8679   18.5835  -30.4739 H   0  0  0  0  0  0  0  0  0  0  0  0
   -9.8297   17.6513  -31.6708 H   0  0  0  0  0  0  0  0  0  0  0  0
   -8.0373   17.5327  -31.6708 H   0  0  0  0  0  0  0  0  0  0  0  0
   -6.2210   18.6076  -33.2382 H   0  0  0  0  0  0  0  0  0  0  0  0
   -6.8170   19.6060  -34.5762 H   0  0  0  0  0  0  0  0  0  0  0  0
   -4.4796   20.0914  -32.8330 H   0  0  0  0  0  0  0  0  0  0  0  0
   -4.9537   21.0439  -34.2263 H   0  0  0  0  0  0  0  0  0  0  0  0
   -4.2530   23.0217  -32.1775 H   0  0  0  0  0  0  0  0  0  0  0  0
   -3.9997   22.3902  -29.8330 H   0  0  0  0  0  0  0  0  0  0  0  0
    0.1092   24.3833  -27.7978 H   0  0  0  0  0  0  0  0  0  0  0  0
    0.2750   21.0561  -27.6857 H   0  0  0  0  0  0  0  0  0  0  0  0
    0.3913   22.3946  -26.4900 H   0  0  0  0  0  0  0  0  0  0  0  0
   -0.5627   20.2344  -25.5684 H   0  0  0  0  0  0  0  0  0  0  0  0
   -1.6417   21.7026  -25.4076 H   0  0  0  0  0  0  0  0  0  0  0  0
   -2.1295   19.1409  -26.7579 H   0  0  0  0  0  0  0  0  0  0  0  0
   -3.2664   20.4883  -26.2304 H   0  0  0  0  0  0  0  0  0  0  0  0
   -1.9794   19.9962  -28.9064 H   0  0  0  0  0  0  0  0  0  0  0  0
   -3.6820   20.4507  -28.4668 H   0  0  0  0  0  0  0  0  0  0  0  0
   -7.9484   24.0334  -30.1229 H   0  0  0  0  0  0  0  0  0  0  0  0
   -9.0164   21.9448  -31.0221 H   0  0  0  0  0  0  0  0  0  0  0  0
  1  2  1  0
  2  3  2  0
  2  4  1  0
  4  5  1  0
  5  6  1  0
  6  7  1  0
  7  8  2  0
  8  9  1  0
  9 10  1  0
 10 11  2  0
 10 12  2  0
 10 13  1  0
 13 14  1  0
 14 15  2  0
 15 16  1  0
 16 17  2  0
 17 18  1  0
 18 19  2  0
 19 20  1  0
 17 21  1  0
 21 22  1  0
 22 23  1  0
 23 24  1  0
  9 25  2  0
 25 26  1  0
 26 27  2  0
 27  4  1  0
 27  7  1  0
 19 14  1  0
 24 16  1  0
  1 28  1  0
  1 29  1  0
  1 30  1  0
  5 31  1  0
  5 32  1  0
  6 33  1  0
  6 34  1  0
  8 35  1  0
 15 36  1  0
 18 37  1  0
 21 38  1  0
 21 39  1  0
 22 40  1  0
 22 41  1  0
 23 42  1  0
 23 43  1  0
 24 44  1  0
 24 45  1  0
 25 46  1  0
 26 47  1  0
M  CHG  2  13  -1  20  -1
M  END
>  <UniqueID>  (34) 
32

>  <SMILES>  (34) 
CC(=O)N1CCc2cc(S(=O)(=O)[N-]c3cc4c(cc3[O-])CCCC4)ccc21

>  <Energy>  (34) 
73.79333282841719

>  <Genealogy>  (34) 
CC(=O)N1CCc2cc(S(=O)(=O)[N-]c3cc4c(cc3[O-])CCCC4)ccc21 (protonated)
CC(=O)N1CCc2cc(S(=O)(=O)[N-]c3cc4c(cc3[O-])CCCC4)ccc21 (3D coordinates assigned)
CC(=O)N1CCc2cc(S(=O)(=O)[N-]c3cc4c(cc3[O-])CCCC4)ccc21 (nonaromatic ring conformer: 73.79333282841719 kcal/mol)

>  <smiles>  (34) 
CC(=O)N1CCc2cc(S(=O)(=O)Nc3cc4c(cc3O)CCCC4)ccc21

>  <score_type>  (34) 
oracle

>  <origin>  (34) 
adgpu

>  <m_score__min__energy>  (34) 
-15.1

>  <m_primary>  (34) 
energy

$$$$
34:0
     RDKit          3D

 69 74  0  0  0  0  0  0  0  0999 V2000
   -6.2260   18.4510  -31.5980 O   0  0  0  0  0  0  0  0  0  0  0  0
   -6.5110   19.5710  -32.5600 S   0  0  0  0  0  0  0  0  0  0  0  0
   -7.9210   19.4240  -33.0610 O   0  0  0  0  0  0  0  0  0  0  0  0
   -6.3670   21.1190  -31.7290 C   0  0  0  0  0  0  0  0  0  0  0  0
   -7.5050   21.9060  -31.5230 C   0  0  0  0  0  0  0  0  0  0  0  0
   -7.3990   23.1390  -30.8760 C   0  0  0  0  0  0  0  0  0  0  0  0
   -6.1550   23.6090  -30.4410 C   0  0  0  0  0  0  0  0  0  0  0  0
   -6.1060   24.8740  -29.8490 O   0  0  0  0  0  0  0  0  0  0  0  0
   -4.9980   22.8170  -30.6380 C   0  0  0  0  0  0  0  0  0  0  0  0
   -3.6660   23.2420  -30.1560 C   0  0  0  0  0  0  0  0  0  0  0  0
   -2.7180   22.4020  -29.7080 N   0  0  0  0  0  0  0  0  0  0  0  0
   -1.6800   23.2140  -29.4040 C   0  0  0  0  0  0  0  0  0  0  0  0
   -0.4200   22.7130  -28.7780 C   0  0  0  0  0  0  0  0  0  0  0  0
   -0.3000   21.2360  -29.0000 C   0  0  0  0  0  0  0  0  0  0  0  0
   -0.2510   20.2370  -28.0350 C   0  0  0  0  0  0  0  0  0  0  0  0
   -0.2330   20.4640  -26.6650 O   0  0  0  0  0  0  0  0  0  0  0  0
   -0.2280   18.9980  -28.5780 N   0  0  0  0  0  0  0  0  0  0  0  0
   -0.2770   19.2220  -29.9060 C   0  0  0  0  0  0  0  0  0  0  0  0
   -0.2880   18.2580  -30.9110 C   0  0  0  0  0  0  0  0  0  0  0  0
   -0.3510   18.6960  -32.2470 C   0  0  0  0  0  0  0  0  0  0  0  0
   -0.4060   20.0780  -32.5530 C   0  0  0  0  0  0  0  0  0  0  0  0
   -0.4330   20.6160  -34.2350 S   0  0  0  0  0  0  0  0  0  0  0  0
   -1.8220   21.0730  -34.5850 O   0  0  0  0  0  0  0  0  0  0  0  0
   -0.0830   19.4600  -35.1310 O   0  0  0  0  0  0  0  0  0  0  0  0
    0.6970   21.9240  -34.5070 N   0  0  0  0  0  0  0  0  0  0  0  0
    2.0870   21.4310  -34.6280 C   0  0  0  0  0  0  0  0  0  0  0  0
    2.5570   21.3880  -36.0950 C   0  0  0  0  0  0  0  0  0  0  0  0
    2.4920   22.6480  -36.7510 O   0  0  0  0  0  0  0  0  0  0  0  0
    1.4640   23.4990  -36.2630 C   0  0  0  0  0  0  0  0  0  0  0  0
    0.2710   22.7430  -35.6590 C   0  0  0  0  0  0  0  0  0  0  0  0
   -0.4090   21.0270  -31.5110 C   0  0  0  0  0  0  0  0  0  0  0  0
   -0.3300   20.5610  -30.2000 C   0  0  0  0  0  0  0  0  0  0  0  0
   -1.9200   24.5240  -29.6280 N   0  0  0  0  0  0  0  0  0  0  0  0
   -3.1710   24.5250  -30.1130 C   0  0  0  0  0  0  0  0  0  0  0  0
   -3.8540   25.6780  -30.4840 O   0  0  0  0  0  0  0  0  0  0  0  0
   -5.1190   21.5760  -31.2890 C   0  0  0  0  0  0  0  0  0  0  0  0
   -5.3820   19.5320  -33.8970 N   0  0  0  0  0  0  0  0  0  0  0  0
   -3.9740   19.4200  -33.4360 C   0  0  0  0  0  0  0  0  0  0  0  0
   -3.2580   18.1430  -33.9060 C   0  0  0  0  0  0  0  0  0  0  0  0
   -4.1640   16.9250  -33.7280 C   0  0  0  0  0  0  0  0  0  0  0  0
   -5.5030   17.0890  -34.4690 C   0  0  0  0  0  0  0  0  0  0  0  0
   -5.7760   18.5370  -34.9150 C   0  0  0  0  0  0  0  0  0  0  0  0
   -8.4865   21.5525  -31.8718 H   0  0  0  0  0  0  0  0  0  0  0  0
   -8.3009   23.7457  -30.7070 H   0  0  0  0  0  0  0  0  0  0  0  0
   -5.2460   25.3800  -29.6880 H   0  0  0  0  0  0  0  0  0  0  0  0
    0.4423   23.2226  -29.2328 H   0  0  0  0  0  0  0  0  0  0  0  0
   -0.4424   22.9190  -27.6977 H   0  0  0  0  0  0  0  0  0  0  0  0
   -0.2486   17.1859  -30.6678 H   0  0  0  0  0  0  0  0  0  0  0  0
   -0.3576   17.9574  -33.0621 H   0  0  0  0  0  0  0  0  0  0  0  0
    2.7518   22.0995  -34.0612 H   0  0  0  0  0  0  0  0  0  0  0  0
    2.1206   20.4062  -34.2296 H   0  0  0  0  0  0  0  0  0  0  0  0
    3.5998   21.0385  -36.1159 H   0  0  0  0  0  0  0  0  0  0  0  0
    1.8774   20.7096  -36.6316 H   0  0  0  0  0  0  0  0  0  0  0  0
    1.8917   24.1501  -35.4864 H   0  0  0  0  0  0  0  0  0  0  0  0
    1.0818   24.0674  -37.1237 H   0  0  0  0  0  0  0  0  0  0  0  0
   -0.4844   23.4695  -35.3251 H   0  0  0  0  0  0  0  0  0  0  0  0
   -0.1500   22.0779  -36.4274 H   0  0  0  0  0  0  0  0  0  0  0  0
   -0.4719   22.1039  -31.7262 H   0  0  0  0  0  0  0  0  0  0  0  0
   -4.2239   20.9583  -31.4541 H   0  0  0  0  0  0  0  0  0  0  0  0
   -3.4161   20.2884  -33.8163 H   0  0  0  0  0  0  0  0  0  0  0  0
   -4.0028   19.3807  -32.3371 H   0  0  0  0  0  0  0  0  0  0  0  0
   -2.9947   18.2460  -34.9690 H   0  0  0  0  0  0  0  0  0  0  0  0
   -2.3494   18.0018  -33.3022 H   0  0  0  0  0  0  0  0  0  0  0  0
   -3.6469   16.0373  -34.1212 H   0  0  0  0  0  0  0  0  0  0  0  0
   -4.3806   16.8167  -32.6550 H   0  0  0  0  0  0  0  0  0  0  0  0
   -5.4902   16.4451  -35.3607 H   0  0  0  0  0  0  0  0  0  0  0  0
   -6.3017   16.8071  -33.7671 H   0  0  0  0  0  0  0  0  0  0  0  0
   -5.2093   18.7338  -35.8370 H   0  0  0  0  0  0  0  0  0  0  0  0
   -6.8599   18.6364  -35.0740 H   0  0  0  0  0  0  0  0  0  0  0  0
  1  2  2  0
  2  3  2  0
  2  4  1  0
  4  5  2  0
  5  6  1  0
  6  7  2  0
  7  8  1  0
  7  9  1  0
  9 10  1  0
 10 11  1  0
 11 12  1  0
 12 13  1  0
 13 14  1  0
 14 15  2  0
 15 16  1  0
 15 17  1  0
 17 18  1  0
 18 19  2  0
 19 20  1  0
 20 21  2  0
 21 22  1  0
 22 23  2  0
 22 24  2  0
 22 25  1  0
 25 26  1  0
 26 27  1  0
 27 28  1  0
 28 29  1  0
 29 30  1  0
 21 31  1  0
 31 32  2  0
 12 33  2  0
 33 34  1  0
 34 35  1  0
  9 36  2  0
  2 37  1  0
 37 38  1  0
 38 39  1  0
 39 40  1  0
 40 41  1  0
 41 42  1  0
 36  4  1  0
 42 37  1  0
 34 10  2  0
 32 14  1  0
 32 18  1  0
 30 25  1  0
  5 43  1  0
  6 44  1  0
  8 45  1  0
 13 46  1  0
 13 47  1  0
 19 48  1  0
 20 49  1  0
 26 50  1  0
 26 51  1  0
 27 52  1  0
 27 53  1  0
 29 54  1  0
 29 55  1  0
 30 56  1  0
 30 57  1  0
 31 58  1  0
 36 59  1  0
 38 60  1  0
 38 61  1  0
 39 62  1  0
 39 63  1  0
 40 64  1  0
 40 65  1  0
 41 66  1  0
 41 67  1  0
 42 68  1  0
 42 69  1  0
M  CHG  4  11  -1  16  -1  17  -1  35  -1
M  END
>  <UniqueID>  (35) 
33

>  <SMILES>  (35) 
O=S(=O)(c1ccc(O)c(-c2[n-]c(Cc3c([O-])[n-]c4ccc(S(=O)(=O)N5CCOCC5)cc34)nc2[O-])c1)N1CCCCC1

>  <Energy>  (35) 
157.6214646157619

>  <Genealogy>  (35) 
O=S(=O)(c1ccc(O)c(-c2[n-]c(Cc3c([O-])[n-]c4ccc(S(=O)(=O)N5CCOCC5)cc34)nc2[O-])c1)N1CCCCC1 (protonated)
O=S(=O)(c1ccc(O)c(-c2[n-]c(Cc3c([O-])[n-]c4ccc(S(=O)(=O)N5CCOCC5)cc34)nc2[O-])c1)N1CCCCC1 (3D coordinates assigned)
O=S(=O)(c1ccc(O)c(-c2[n-]c(Cc3c([O-])[n-]c4ccc(S(=O)(=O)N5CCOCC5)cc34)nc2[O-])c1)N1CCCCC1 (nonaromatic ring conformer: 157.6214646157619 kcal/mol)

>  <smiles>  (35) 
O=S(=O)(c1ccc(O)c(-c2[nH]c(Cc3c(O)[nH]c4ccc(S(=O)(=O)N5CCOCC5)cc34)nc2O)c1)N1CCCCC1

>  <score_type>  (35) 
oracle

>  <origin>  (35) 
adgpu

>  <m_score__min__energy>  (35) 
-14.460000000000001

>  <m_primary>  (35) 
energy

$$$$
35:0
     RDKit          3D

 31 32  0  0  0  0  0  0  0  0999 V2000
   -6.4010   24.8810  -30.0770 C   0  0  0  0  0  0  0  0  0  0  0  0
   -5.3670   25.9320  -30.4430 C   0  0  0  0  0  0  0  0  0  0  0  0
   -4.0780   25.3310  -30.5110 O   0  0  0  0  0  0  0  0  0  0  0  0
   -3.8890   23.9460  -30.5000 C   0  0  0  0  0  0  0  0  0  0  0  0
   -3.4180   23.3250  -29.3430 C   0  0  0  0  0  0  0  0  0  0  0  0
   -3.2390   21.9410  -29.3540 C   0  0  0  0  0  0  0  0  0  0  0  0
   -2.6480   21.1130  -27.9280 Cl  0  0  0  0  0  0  0  0  0  0  0  0
   -3.5220   21.2290  -30.4770 N   0  0  0  0  0  0  0  0  0  0  0  0
   -3.9820   21.8480  -31.5960 C   0  0  0  0  0  0  0  0  0  0  0  0
   -4.3530   20.8900  -33.0580 S   0  0  0  0  0  0  0  0  0  0  0  0
   -5.3130   19.6430  -32.1390 C   0  0  0  0  0  0  0  0  0  0  0  0
   -6.7530   20.0610  -32.0840 C   0  0  0  0  0  0  0  0  0  0  0  0
   -7.7720   19.1330  -32.3580 C   0  0  0  0  0  0  0  0  0  0  0  0
   -9.1120   19.5320  -32.3370 C   0  0  0  0  0  0  0  0  0  0  0  0
   -9.4440   20.8600  -32.0540 C   0  0  0  0  0  0  0  0  0  0  0  0
   -8.4350   21.7920  -31.7950 C   0  0  0  0  0  0  0  0  0  0  0  0
   -7.0930   21.3970  -31.8140 C   0  0  0  0  0  0  0  0  0  0  0  0
   -4.1620   23.1950  -31.6040 N   0  0  0  0  0  0  0  0  0  0  0  0
   -6.4753   24.8054  -28.9821 H   0  0  0  0  0  0  0  0  0  0  0  0
   -7.3784   25.1681  -30.4919 H   0  0  0  0  0  0  0  0  0  0  0  0
   -6.0980   23.9084  -30.4919 H   0  0  0  0  0  0  0  0  0  0  0  0
   -5.6192   26.3688  -31.4205 H   0  0  0  0  0  0  0  0  0  0  0  0
   -5.3619   26.7215  -29.6770 H   0  0  0  0  0  0  0  0  0  0  0  0
   -3.1926   23.9135  -28.4414 H   0  0  0  0  0  0  0  0  0  0  0  0
   -5.2326   18.6707  -32.6472 H   0  0  0  0  0  0  0  0  0  0  0  0
   -4.9172   19.5561  -31.1164 H   0  0  0  0  0  0  0  0  0  0  0  0
   -7.5146   18.0890  -32.5898 H   0  0  0  0  0  0  0  0  0  0  0  0
   -9.9063   18.7995  -32.5435 H   0  0  0  0  0  0  0  0  0  0  0  0
  -10.4988   21.1715  -32.0351 H   0  0  0  0  0  0  0  0  0  0  0  0
   -8.6965   22.8377  -31.5759 H   0  0  0  0  0  0  0  0  0  0  0  0
   -6.3015   22.1350  -31.6169 H   0  0  0  0  0  0  0  0  0  0  0  0
  1  2  1  0
  2  3  1  0
  3  4  1  0
  4  5  2  0
  5  6  1  0
  6  7  1  0
  6  8  2  0
  8  9  1  0
  9 10  1  0
 10 11  1  0
 11 12  1  0
 12 13  2  0
 13 14  1  0
 14 15  2  0
 15 16  1  0
 16 17  2  0
  9 18  2  0
 18  4  1  0
 17 12  1  0
  1 19  1  0
  1 20  1  0
  1 21  1  0
  2 22  1  0
  2 23  1  0
  5 24  1  0
 11 25  1  0
 11 26  1  0
 13 27  1  0
 14 28  1  0
 15 29  1  0
 16 30  1  0
 17 31  1  0
M  END
>  <UniqueID>  (36) 
34

>  <SMILES>  (36) 
CCOc1cc(Cl)nc(SCc2ccccc2)n1

>  <Energy>  (36) 
22.466748415670327

>  <Genealogy>  (36) 
CCOc1cc(Cl)nc(SCc2ccccc2)n1 (3D coordinates assigned)
CCOc1cc(Cl)nc(SCc2ccccc2)n1 (optimized conformer: 22.466748415670327 kcal/mol)

>  <smiles>  (36) 
CCOc1cc(Cl)nc(SCc2ccccc2)n1

>  <score_type>  (36) 
oracle

>  <origin>  (36) 
adgpu

>  <m_score__min__energy>  (36) 
-7.4199999999999999

>  <m_primary>  (36) 
energy

$$$$
36:0
     RDKit          3D

 63 66  0  0  0  0  0  0  0  0999 V2000
   -4.5710   13.7660  -33.8460 C   0  0  0  0  0  0  0  0  0  0  0  0
   -4.9660   15.1620  -33.6050 N   0  0  0  0  0  0  0  0  0  0  0  0
   -4.9470   15.4610  -32.1540 C   0  0  0  0  0  0  0  0  0  0  0  0
   -5.7890   16.7000  -31.7760 C   0  0  0  0  0  0  0  0  0  0  0  0
   -6.0570   17.5410  -32.9460 N   0  0  0  0  0  0  0  0  0  0  0  0
   -5.9200   18.9640  -32.8510 C   0  0  0  0  0  0  0  0  0  0  0  0
   -6.9380   19.7020  -32.2320 C   0  0  0  0  0  0  0  0  0  0  0  0
   -6.8530   21.0970  -32.1440 C   0  0  0  0  0  0  0  0  0  0  0  0
   -8.1290   21.9950  -31.3280 S   0  0  0  0  0  0  0  0  0  0  0  0
   -9.2260   21.0390  -30.9530 O   0  0  0  0  0  0  0  0  0  0  0  0
   -8.7120   23.0480  -32.2310 O   0  0  0  0  0  0  0  0  0  0  0  0
   -7.4920   22.7270  -29.8900 N   0  0  0  0  0  0  0  0  0  0  0  0
   -6.2180   23.3900  -29.8490 C   0  0  0  0  0  0  0  0  0  0  0  0
   -6.0690   24.7180  -30.2860 C   0  0  0  0  0  0  0  0  0  0  0  0
   -4.8240   25.3470  -30.2240 C   0  0  0  0  0  0  0  0  0  0  0  0
   -3.7150   24.6620  -29.7200 C   0  0  0  0  0  0  0  0  0  0  0  0
   -2.4770   25.2920  -29.7010 O   0  0  0  0  0  0  0  0  0  0  0  0
   -3.8520   23.3380  -29.2610 C   0  0  0  0  0  0  0  0  0  0  0  0
   -2.7290   22.6250  -28.7170 N   0  0  0  0  0  0  0  0  0  0  0  0
   -1.8820   21.8050  -29.5860 C   0  0  0  0  0  0  0  0  0  0  0  0
   -1.7590   20.3690  -29.0350 C   0  0  0  0  0  0  0  0  0  0  0  0
   -1.8250   20.2750  -27.5520 N   0  0  0  0  0  0  0  0  0  0  0  0
   -3.1080   19.7160  -27.0960 C   0  0  0  0  0  0  0  0  0  0  0  0
   -1.5000   21.5460  -26.8680 C   0  0  0  0  0  0  0  0  0  0  0  0
   -2.4540   22.6770  -27.2790 C   0  0  0  0  0  0  0  0  0  0  0  0
   -5.1060   22.7120  -29.3270 C   0  0  0  0  0  0  0  0  0  0  0  0
   -5.7380   21.7570  -32.6750 C   0  0  0  0  0  0  0  0  0  0  0  0
   -4.7120   21.0260  -33.2810 C   0  0  0  0  0  0  0  0  0  0  0  0
   -4.7900   19.6280  -33.3720 C   0  0  0  0  0  0  0  0  0  0  0  0
   -3.7190   18.8960  -33.9800 N   0  0  0  0  0  0  0  0  0  0  0  0
   -6.5200   16.9450  -34.2010 C   0  0  0  0  0  0  0  0  0  0  0  0
   -6.2860   15.4340  -34.2000 C   0  0  0  0  0  0  0  0  0  0  0  0
   -4.4263   13.2544  -32.8830 H   0  0  0  0  0  0  0  0  0  0  0  0
   -5.3599   13.2552  -34.4176 H   0  0  0  0  0  0  0  0  0  0  0  0
   -3.6314   13.7442  -34.4176 H   0  0  0  0  0  0  0  0  0  0  0  0
   -5.3445   14.5899  -31.6125 H   0  0  0  0  0  0  0  0  0  0  0  0
   -3.9044   15.6785  -31.8791 H   0  0  0  0  0  0  0  0  0  0  0  0
   -6.7459   16.3657  -31.3486 H   0  0  0  0  0  0  0  0  0  0  0  0
   -5.2216   17.2944  -31.0447 H   0  0  0  0  0  0  0  0  0  0  0  0
   -7.8110   19.1811  -31.8118 H   0  0  0  0  0  0  0  0  0  0  0  0
   -7.9670   22.4950  -28.9880 H   0  0  0  0  0  0  0  0  0  0  0  0
   -6.9387   25.2649  -30.6792 H   0  0  0  0  0  0  0  0  0  0  0  0
   -4.7157   26.3846  -30.5728 H   0  0  0  0  0  0  0  0  0  0  0  0
   -2.3258   21.7685  -30.5918 H   0  0  0  0  0  0  0  0  0  0  0  0
   -0.8787   22.2543  -29.6261 H   0  0  0  0  0  0  0  0  0  0  0  0
   -2.5784   19.7674  -29.4552 H   0  0  0  0  0  0  0  0  0  0  0  0
   -0.7648   20.0023  -29.3301 H   0  0  0  0  0  0  0  0  0  0  0  0
   -3.1331   19.7051  -25.9963 H   0  0  0  0  0  0  0  0  0  0  0  0
   -3.9336   20.3360  -27.4754 H   0  0  0  0  0  0  0  0  0  0  0  0
   -3.2161   18.6892  -27.4754 H   0  0  0  0  0  0  0  0  0  0  0  0
   -1.5753   21.3944  -25.7811 H   0  0  0  0  0  0  0  0  0  0  0  0
   -0.4798   21.8381  -27.1576 H   0  0  0  0  0  0  0  0  0  0  0  0
   -3.3992   22.5709  -26.7265 H   0  0  0  0  0  0  0  0  0  0  0  0
   -1.9810   23.6419  -27.0439 H   0  0  0  0  0  0  0  0  0  0  0  0
   -5.2185   21.6791  -28.9658 H   0  0  0  0  0  0  0  0  0  0  0  0
   -5.6693   22.8532  -32.6152 H   0  0  0  0  0  0  0  0  0  0  0  0
   -3.8362   21.5512  -33.6899 H   0  0  0  0  0  0  0  0  0  0  0  0
   -3.7700   17.8670  -34.1130 H   0  0  0  0  0  0  0  0  0  0  0  0
   -2.8490   19.3860  -34.2840 H   0  0  0  0  0  0  0  0  0  0  0  0
   -7.5953   17.1439  -34.3202 H   0  0  0  0  0  0  0  0  0  0  0  0
   -5.9552   17.3899  -35.0335 H   0  0  0  0  0  0  0  0  0  0  0  0
   -7.0688   14.9384  -33.6070 H   0  0  0  0  0  0  0  0  0  0  0  0
   -6.3202   15.0483  -35.2296 H   0  0  0  0  0  0  0  0  0  0  0  0
  1  2  1  0
  2  3  1  0
  3  4  1  0
  4  5  1  0
  5  6  1  0
  6  7  2  0
  7  8  1  0
  8  9  1  0
  9 10  2  0
  9 11  2  0
  9 12  1  0
 12 13  1  0
 13 14  2  0
 14 15  1  0
 15 16  2  0
 16 17  1  0
 16 18  1  0
 18 19  1  0
 19 20  1  0
 20 21  1  0
 21 22  1  0
 22 23  1  0
 22 24  1  0
 24 25  1  0
 18 26  2  0
  8 27  2  0
 27 28  1  0
 28 29  2  0
 29 30  1  0
  5 31  1  0
 31 32  1  0
 32  2  1  0
 29  6  1  0
 26 13  1  0
 25 19  1  0
  1 33  1  0
  1 34  1  0
  1 35  1  0
  3 36  1  0
  3 37  1  0
  4 38  1  0
  4 39  1  0
  7 40  1  0
 12 41  1  0
 14 42  1  0
 15 43  1  0
 20 44  1  0
 20 45  1  0
 21 46  1  0
 21 47  1  0
 23 48  1  0
 23 49  1  0
 23 50  1  0
 24 51  1  0
 24 52  1  0
 25 53  1  0
 25 54  1  0
 26 55  1  0
 27 56  1  0
 28 57  1  0
 30 58  1  0
 30 59  1  0
 31 60  1  0
 31 61  1  0
 32 62  1  0
 32 63  1  0
M  CHG  1  17  -1
M  END
>  <UniqueID>  (37) 
35

>  <SMILES>  (37) 
CN1CCN(c2cc(S(=O)(=O)Nc3ccc([O-])c(N4CCN(C)CC4)c3)ccc2N)CC1

>  <Energy>  (37) 
90.7577087374006

>  <Genealogy>  (37) 
CN1CCN(c2cc(S(=O)(=O)Nc3ccc([O-])c(N4CCN(C)CC4)c3)ccc2N)CC1 (protonated)
CN1CCN(c2cc(S(=O)(=O)Nc3ccc([O-])c(N4CCN(C)CC4)c3)ccc2N)CC1 (3D coordinates assigned)
CN1CCN(c2cc(S(=O)(=O)Nc3ccc([O-])c(N4CCN(C)CC4)c3)ccc2N)CC1 (nonaromatic ring conformer: 90.7577087374006 kcal/mol)

>  <smiles>  (37) 
CN1CCN(c2cc(S(=O)(=O)Nc3ccc(O)c(N4CCN(C)CC4)c3)ccc2N)CC1

>  <score_type>  (37) 
oracle

>  <origin>  (37) 
adgpu

>  <m_score__min__energy>  (37) 
-12.640000000000001

>  <m_primary>  (37) 
energy

$$$$
37:0
     RDKit          3D

 41 43  0  0  0  0  0  0  0  0999 V2000
   -2.7060   20.0110  -27.4220 C   0  0  0  0  0  0  0  0  0  0  0  0
   -2.6220   21.3880  -28.0120 C   0  0  0  0  0  0  0  0  0  0  0  0
   -1.3890   21.9040  -28.4340 C   0  0  0  0  0  0  0  0  0  0  0  0
   -1.3090   23.1990  -28.9490 C   0  0  0  0  0  0  0  0  0  0  0  0
   -2.4530   24.0000  -29.0250 C   0  0  0  0  0  0  0  0  0  0  0  0
   -2.3450   25.2890  -29.5320 O   0  0  0  0  0  0  0  0  0  0  0  0
   -3.6940   23.5090  -28.5780 C   0  0  0  0  0  0  0  0  0  0  0  0
   -4.8610   24.3500  -28.6350 N   0  0  0  0  0  0  0  0  0  0  0  0
   -5.5920   24.8570  -30.1260 S   0  0  0  0  0  0  0  0  0  0  0  0
   -6.7840   25.7210  -29.8290 O   0  0  0  0  0  0  0  0  0  0  0  0
   -4.5960   25.6570  -30.9190 O   0  0  0  0  0  0  0  0  0  0  0  0
   -6.1300   23.4420  -31.0290 C   0  0  0  0  0  0  0  0  0  0  0  0
   -7.4830   23.0910  -31.0120 C   0  0  0  0  0  0  0  0  0  0  0  0
   -7.9190   21.9420  -31.6720 C   0  0  0  0  0  0  0  0  0  0  0  0
   -7.0030   21.1230  -32.3460 C   0  0  0  0  0  0  0  0  0  0  0  0
   -5.6390   21.4810  -32.3970 C   0  0  0  0  0  0  0  0  0  0  0  0
   -5.2110   22.6420  -31.7220 C   0  0  0  0  0  0  0  0  0  0  0  0
   -4.7050   20.6270  -33.1030 N   0  0  0  0  0  0  0  0  0  0  0  0
   -3.3660   21.1050  -33.4690 C   0  0  0  0  0  0  0  0  0  0  0  0
   -5.0900   19.2670  -33.3900 C   0  0  0  0  0  0  0  0  0  0  0  0
   -4.2740   18.4650  -33.9210 O   0  0  0  0  0  0  0  0  0  0  0  0
   -6.4510   18.7710  -32.9940 C   0  0  0  0  0  0  0  0  0  0  0  0
   -7.4810   19.8980  -33.0820 C   0  0  0  0  0  0  0  0  0  0  0  0
   -3.7680   22.1940  -28.0810 C   0  0  0  0  0  0  0  0  0  0  0  0
   -2.7017   20.0815  -26.3243 H   0  0  0  0  0  0  0  0  0  0  0  0
   -3.6354   19.5257  -27.7546 H   0  0  0  0  0  0  0  0  0  0  0  0
   -1.8425   19.4163  -27.7546 H   0  0  0  0  0  0  0  0  0  0  0  0
   -0.4817   21.2866  -28.3591 H   0  0  0  0  0  0  0  0  0  0  0  0
   -0.3419   23.5912  -29.2966 H   0  0  0  0  0  0  0  0  0  0  0  0
   -5.3880   24.5590  -27.7600 H   0  0  0  0  0  0  0  0  0  0  0  0
   -8.2065   23.7231  -30.4762 H   0  0  0  0  0  0  0  0  0  0  0  0
   -8.9867   21.6776  -31.6634 H   0  0  0  0  0  0  0  0  0  0  0  0
   -4.1475   22.9224  -31.7392 H   0  0  0  0  0  0  0  0  0  0  0  0
   -2.7881   21.3113  -32.5561 H   0  0  0  0  0  0  0  0  0  0  0  0
   -2.8514   20.3351  -34.0626 H   0  0  0  0  0  0  0  0  0  0  0  0
   -3.4553   22.0268  -34.0626 H   0  0  0  0  0  0  0  0  0  0  0  0
   -6.7491   17.9553  -33.6691 H   0  0  0  0  0  0  0  0  0  0  0  0
   -6.4086   18.4095  -31.9560 H   0  0  0  0  0  0  0  0  0  0  0  0
   -7.6449   20.1542  -34.1391 H   0  0  0  0  0  0  0  0  0  0  0  0
   -8.4181   19.5541  -32.6199 H   0  0  0  0  0  0  0  0  0  0  0  0
   -4.7353   21.7940  -27.7430 H   0  0  0  0  0  0  0  0  0  0  0  0
  1  2  1  0
  2  3  2  0
  3  4  1  0
  4  5  2  0
  5  6  1  0
  5  7  1  0
  7  8  1  0
  8  9  1  0
  9 10  2  0
  9 11  2  0
  9 12  1  0
 12 13  2  0
 13 14  1  0
 14 15  2  0
 15 16  1  0
 16 17  2  0
 16 18  1  0
 18 19  1  0
 18 20  1  0
 20 21  2  0
 20 22  1  0
 22 23  1  0
  7 24  2  0
 24  2  1  0
 17 12  1  0
 23 15  1  0
  1 25  1  0
  1 26  1  0
  1 27  1  0
  3 28  1  0
  4 29  1  0
  8 30  1  0
 13 31  1  0
 14 32  1  0
 17 33  1  0
 19 34  1  0
 19 35  1  0
 19 36  1  0
 22 37  1  0
 22 38  1  0
 23 39  1  0
 23 40  1  0
 24 41  1  0
M  CHG  1   6  -1
M  END
>  <UniqueID>  (38) 
36

>  <SMILES>  (38) 
Cc1ccc([O-])c(NS(=O)(=O)c2ccc3c(c2)N(C)C(=O)CC3)c1

>  <Energy>  (38) 
47.516315731010344

>  <Genealogy>  (38) 
Cc1ccc([O-])c(NS(=O)(=O)c2ccc3c(c2)N(C)C(=O)CC3)c1 (protonated)
Cc1ccc([O-])c(NS(=O)(=O)c2ccc3c(c2)N(C)C(=O)CC3)c1 (3D coordinates assigned)
Cc1ccc([O-])c(NS(=O)(=O)c2ccc3c(c2)N(C)C(=O)CC3)c1 (nonaromatic ring conformer: 47.516315731010344 kcal/mol)

>  <smiles>  (38) 
Cc1ccc(O)c(NS(=O)(=O)c2ccc3c(c2)N(C)C(=O)CC3)c1

>  <score_type>  (38) 
oracle

>  <origin>  (38) 
adgpu

>  <m_score__min__energy>  (38) 
-13.25

>  <m_primary>  (38) 
energy

$$$$
38:0
     RDKit          3D

 33 34  0  0  0  0  0  0  0  0999 V2000
   -9.1870   18.9410  -32.6780 C   0  0  0  0  0  0  0  0  0  0  0  0
   -8.4000   20.1520  -32.2690 C   0  0  0  0  0  0  0  0  0  0  0  0
   -8.9940   21.1430  -31.4760 C   0  0  0  0  0  0  0  0  0  0  0  0
   -8.2520   22.2460  -31.0570 C   0  0  0  0  0  0  0  0  0  0  0  0
   -6.9050   22.3690  -31.4120 C   0  0  0  0  0  0  0  0  0  0  0  0
   -6.2230   23.4280  -30.9890 O   0  0  0  0  0  0  0  0  0  0  0  0
   -4.9410   23.6150  -31.2740 C   0  0  0  0  0  0  0  0  0  0  0  0
   -4.3500   24.6380  -30.8410 O   0  0  0  0  0  0  0  0  0  0  0  0
   -4.2470   22.6850  -32.0460 C   0  0  0  0  0  0  0  0  0  0  0  0
   -4.9080   21.5460  -32.5320 C   0  0  0  0  0  0  0  0  0  0  0  0
   -4.0990   20.5650  -33.3660 C   0  0  0  0  0  0  0  0  0  0  0  0
   -2.8290   21.1510  -33.8400 N   0  0  0  0  0  0  0  0  0  0  0  0
   -1.7070   20.9750  -32.8970 C   0  0  0  0  0  0  0  0  0  0  0  0
   -0.3410   21.1670  -33.5710 C   0  0  0  0  0  0  0  0  0  0  0  0
   -0.5090   21.4000  -34.9430 O   0  0  0  0  0  0  0  0  0  0  0  0
   -6.2800   21.3740  -32.2060 C   0  0  0  0  0  0  0  0  0  0  0  0
   -7.0460   20.2630  -32.6210 C   0  0  0  0  0  0  0  0  0  0  0  0
   -9.5332   18.4082  -31.7801 H   0  0  0  0  0  0  0  0  0  0  0  0
  -10.0553   19.2531  -33.2768 H   0  0  0  0  0  0  0  0  0  0  0  0
   -8.5492   18.2742  -33.2768 H   0  0  0  0  0  0  0  0  0  0  0  0
  -10.0502   21.0500  -31.1830 H   0  0  0  0  0  0  0  0  0  0  0  0
   -8.7289   23.0245  -30.4433 H   0  0  0  0  0  0  0  0  0  0  0  0
   -3.1826   22.8434  -32.2742 H   0  0  0  0  0  0  0  0  0  0  0  0
   -3.8738   19.6801  -32.7526 H   0  0  0  0  0  0  0  0  0  0  0  0
   -4.6982   20.2979  -34.2490 H   0  0  0  0  0  0  0  0  0  0  0  0
   -2.9650   22.1740  -34.0110 H   0  0  0  0  0  0  0  0  0  0  0  0
   -2.5820   20.7200  -34.7620 H   0  0  0  0  0  0  0  0  0  0  0  0
   -1.8078   21.7118  -32.0865 H   0  0  0  0  0  0  0  0  0  0  0  0
   -1.7499   19.9451  -32.5129 H   0  0  0  0  0  0  0  0  0  0  0  0
    0.1714   22.0274  -33.1160 H   0  0  0  0  0  0  0  0  0  0  0  0
    0.2603   20.2565  -33.4316 H   0  0  0  0  0  0  0  0  0  0  0  0
   -0.8600   22.3240  -35.0320 H   0  0  0  0  0  0  0  0  0  0  0  0
   -6.5759   19.4749  -33.2275 H   0  0  0  0  0  0  0  0  0  0  0  0
  1  2  1  0
  2  3  2  0
  3  4  1  0
  4  5  2  0
  5  6  1  0
  6  7  1  0
  7  8  2  0
  7  9  1  0
  9 10  2  0
 10 11  1  0
 11 12  1  0
 12 13  1  0
 13 14  1  0
 14 15  1  0
 10 16  1  0
 16 17  2  0
 17  2  1  0
 16  5  1  0
  1 18  1  0
  1 19  1  0
  1 20  1  0
  3 21  1  0
  4 22  1  0
  9 23  1  0
 11 24  1  0
 11 25  1  0
 12 26  1  0
 12 27  1  0
 13 28  1  0
 13 29  1  0
 14 30  1  0
 14 31  1  0
 15 32  1  0
 17 33  1  0
M  CHG  1  12   1
M  END
>  <UniqueID>  (39) 
37

>  <SMILES>  (39) 
Cc1ccc2oc(=O)cc(C[NH2+]CCO)c2c1

>  <Energy>  (39) 
38.550176258162644

>  <Genealogy>  (39) 
Cc1ccc2oc(=O)cc(C[NH2+]CCO)c2c1 (protonated)
Cc1ccc2oc(=O)cc(C[NH2+]CCO)c2c1 (3D coordinates assigned)
Cc1ccc2oc(=O)cc(C[NH2+]CCO)c2c1 (optimized conformer: 38.550176258162644 kcal/mol)

>  <smiles>  (39) 
Cc1ccc2oc(=O)cc(CNCCO)c2c1

>  <score_type>  (39) 
oracle

>  <origin>  (39) 
adgpu

>  <m_score__min__energy>  (39) 
-6.5599999999999996

>  <m_primary>  (39) 
energy

$$$$
39:0
     RDKit          3D

 37 39  0  0  0  0  0  0  0  0999 V2000
   -2.2520   20.4470  -27.1110 C   0  0  0  0  0  0  0  0  0  0  0  0
   -2.1250   21.8110  -27.7220 C   0  0  0  0  0  0  0  0  0  0  0  0
   -0.9690   22.5750  -27.5120 C   0  0  0  0  0  0  0  0  0  0  0  0
   -0.8640   23.8570  -28.0560 C   0  0  0  0  0  0  0  0  0  0  0  0
   -1.9180   24.3940  -28.8010 C   0  0  0  0  0  0  0  0  0  0  0  0
   -1.7880   25.6690  -29.3430 O   0  0  0  0  0  0  0  0  0  0  0  0
   -3.0940   23.6480  -28.9970 C   0  0  0  0  0  0  0  0  0  0  0  0
   -4.4280   24.3110  -29.9410 S   0  0  0  0  0  0  0  0  0  0  0  0
   -3.9090   25.3770  -30.8650 O   0  0  0  0  0  0  0  0  0  0  0  0
   -5.4550   24.9330  -29.0370 O   0  0  0  0  0  0  0  0  0  0  0  0
   -5.1800   23.0130  -30.8610 C   0  0  0  0  0  0  0  0  0  0  0  0
   -4.4440   22.3340  -31.8540 C   0  0  0  0  0  0  0  0  0  0  0  0
   -5.0410   21.3120  -32.6080 C   0  0  0  0  0  0  0  0  0  0  0  0
   -6.3730   21.0030  -32.3410 C   0  0  0  0  0  0  0  0  0  0  0  0
   -7.1050   20.0660  -32.9790 N   0  0  0  0  0  0  0  0  0  0  0  0
   -8.3180   20.1580  -32.3810 C   0  0  0  0  0  0  0  0  0  0  0  0
   -9.4890   19.3120  -32.7600 C   0  0  0  0  0  0  0  0  0  0  0  0
   -8.2930   21.1350  -31.3930 C   0  0  0  0  0  0  0  0  0  0  0  0
   -9.4310   21.5910  -30.5310 C   0  0  0  0  0  0  0  0  0  0  0  0
   -7.0580   21.6630  -31.3910 N   0  0  0  0  0  0  0  0  0  0  0  0
   -6.5220   22.6610  -30.6390 C   0  0  0  0  0  0  0  0  0  0  0  0
   -3.1910   22.3580  -28.4550 C   0  0  0  0  0  0  0  0  0  0  0  0
   -2.2439   20.5342  -26.0145 H   0  0  0  0  0  0  0  0  0  0  0  0
   -3.1969   19.9865  -27.4352 H   0  0  0  0  0  0  0  0  0  0  0  0
   -1.4084   19.8200  -27.4352 H   0  0  0  0  0  0  0  0  0  0  0  0
   -0.1410   22.1632  -26.9163 H   0  0  0  0  0  0  0  0  0  0  0  0
    0.0513   24.4463  -27.8977 H   0  0  0  0  0  0  0  0  0  0  0  0
   -3.3947   22.6074  -32.0388 H   0  0  0  0  0  0  0  0  0  0  0  0
   -4.4765   20.7733  -33.3834 H   0  0  0  0  0  0  0  0  0  0  0  0
   -9.9898   18.9502  -31.8499 H   0  0  0  0  0  0  0  0  0  0  0  0
  -10.1958   19.9094  -33.3546 H   0  0  0  0  0  0  0  0  0  0  0  0
   -9.1439   18.4533  -33.3546 H   0  0  0  0  0  0  0  0  0  0  0  0
   -9.1557   21.4807  -29.4717 H   0  0  0  0  0  0  0  0  0  0  0  0
   -9.6522   22.6472  -30.7443 H   0  0  0  0  0  0  0  0  0  0  0  0
  -10.3203   20.9798  -30.7443 H   0  0  0  0  0  0  0  0  0  0  0  0
   -7.1230   23.1790  -29.8771 H   0  0  0  0  0  0  0  0  0  0  0  0
   -4.1087   21.7704  -28.6051 H   0  0  0  0  0  0  0  0  0  0  0  0
  1  2  1  0
  2  3  2  0
  3  4  1  0
  4  5  2  0
  5  6  1  0
  5  7  1  0
  7  8  1  0
  8  9  2  0
  8 10  2  0
  8 11  1  0
 11 12  1  0
 12 13  2  0
 13 14  1  0
 14 15  2  0
 15 16  1  0
 16 17  1  0
 16 18  2  0
 18 19  1  0
 18 20  1  0
 20 21  1  0
  7 22  2  0
 22  2  1  0
 21 11  2  0
 20 14  1  0
  1 23  1  0
  1 24  1  0
  1 25  1  0
  3 26  1  0
  4 27  1  0
 12 28  1  0
 13 29  1  0
 17 30  1  0
 17 31  1  0
 17 32  1  0
 19 33  1  0
 19 34  1  0
 19 35  1  0
 21 36  1  0
 22 37  1  0
M  CHG  1   6  -1
M  END
>  <UniqueID>  (40) 
38

>  <SMILES>  (40) 
Cc1ccc([O-])c(S(=O)(=O)c2ccc3nc(C)c(C)n3c2)c1

>  <Energy>  (40) 
74.03358552603133

>  <Genealogy>  (40) 
Cc1ccc([O-])c(S(=O)(=O)c2ccc3nc(C)c(C)n3c2)c1 (protonated)
Cc1ccc([O-])c(S(=O)(=O)c2ccc3nc(C)c(C)n3c2)c1 (3D coordinates assigned)
Cc1ccc([O-])c(S(=O)(=O)c2ccc3nc(C)c(C)n3c2)c1 (optimized conformer: 74.03358552603133 kcal/mol)

>  <smiles>  (40) 
Cc1ccc(O)c(S(=O)(=O)c2ccc3nc(C)c(C)n3c2)c1

>  <score_type>  (40) 
oracle

>  <origin>  (40) 
adgpu

>  <m_score__min__energy>  (40) 
-12.32

>  <m_primary>  (40) 
energy

$$$$
40:0
     RDKit          3D

 60 63  0  0  0  0  0  0  0  0999 V2000
    1.5710   19.3280  -28.2890 C   0  0  0  0  0  0  0  0  0  0  0  0
    0.1120   19.6620  -28.3880 C   0  0  0  0  0  0  0  0  0  0  0  0
   -0.7580   19.3320  -27.3390 C   0  0  0  0  0  0  0  0  0  0  0  0
   -2.1330   19.5900  -27.4480 C   0  0  0  0  0  0  0  0  0  0  0  0
   -3.0580   19.2750  -26.3110 C   0  0  0  0  0  0  0  0  0  0  0  0
   -2.6320   20.1960  -28.6090 C   0  0  0  0  0  0  0  0  0  0  0  0
   -1.7730   20.5130  -29.6680 C   0  0  0  0  0  0  0  0  0  0  0  0
   -2.4350   21.2110  -31.1430 S   0  0  0  0  0  0  0  0  0  0  0  0
   -3.2250   20.1870  -31.9090 O   0  0  0  0  0  0  0  0  0  0  0  0
   -1.2960   21.6850  -32.0010 O   0  0  0  0  0  0  0  0  0  0  0  0
   -3.4980   22.5490  -30.7100 C   0  0  0  0  0  0  0  0  0  0  0  0
   -3.1800   23.7160  -30.0120 C   0  0  0  0  0  0  0  0  0  0  0  0
   -1.8420   24.1440  -29.5820 C   0  0  0  0  0  0  0  0  0  0  0  0
   -0.8780   23.3440  -29.7000 O   0  0  0  0  0  0  0  0  0  0  0  0
   -1.6130   25.4270  -28.9850 N   0  0  0  0  0  0  0  0  0  0  0  0
   -1.6000   25.7000  -27.5490 C   0  0  0  0  0  0  0  0  0  0  0  0
   -0.2340   25.3890  -26.9120 C   0  0  0  0  0  0  0  0  0  0  0  0
    0.1030   26.2970  -25.7040 C   0  0  1  0  0  0  0  0  0  0  0  0
   -1.1040   26.4010  -24.7550 C   0  0  0  0  0  0  0  0  0  0  0  0
   -0.8170   27.3730  -23.5970 C   0  0  0  0  0  0  0  0  0  0  0  0
    0.6710   27.3990  -23.2020 C   0  0  0  0  0  0  0  0  0  0  0  0
    1.3160   26.1090  -23.4800 N   0  0  0  0  0  0  0  0  0  0  0  0
    1.3590   25.8030  -24.9260 C   0  0  0  0  0  0  0  0  0  0  0  0
   -4.2990   24.4270  -29.7380 N   0  0  0  0  0  0  0  0  0  0  0  0
   -5.3180   23.7290  -30.2670 C   0  0  0  0  0  0  0  0  0  0  0  0
   -6.6720   24.0570  -30.2310 C   0  0  0  0  0  0  0  0  0  0  0  0
   -7.5810   23.1670  -30.8310 C   0  0  0  0  0  0  0  0  0  0  0  0
   -7.1220   21.9780  -31.4430 C   0  0  0  0  0  0  0  0  0  0  0  0
   -8.2680   20.8750  -32.1810 Cl  0  0  0  0  0  0  0  0  0  0  0  0
   -5.7480   21.6740  -31.4630 C   0  0  0  0  0  0  0  0  0  0  0  0
   -4.8700   22.5780  -30.8650 C   0  0  0  0  0  0  0  0  0  0  0  0
   -0.4020   20.2390  -29.5580 C   0  0  0  0  0  0  0  0  0  0  0  0
    1.8609   19.2616  -27.2300 H   0  0  0  0  0  0  0  0  0  0  0  0
    1.7606   18.3632  -28.7822 H   0  0  0  0  0  0  0  0  0  0  0  0
    2.1614   20.1142  -28.7822 H   0  0  0  0  0  0  0  0  0  0  0  0
   -0.3600   18.8678  -26.4246 H   0  0  0  0  0  0  0  0  0  0  0  0
   -2.5397   19.4515  -25.3570 H   0  0  0  0  0  0  0  0  0  0  0  0
   -3.9460   19.9214  -26.3709 H   0  0  0  0  0  0  0  0  0  0  0  0
   -3.3670   18.2210  -26.3709 H   0  0  0  0  0  0  0  0  0  0  0  0
   -3.7052   20.4239  -28.6886 H   0  0  0  0  0  0  0  0  0  0  0  0
   -1.8324   26.7631  -27.3881 H   0  0  0  0  0  0  0  0  0  0  0  0
   -2.3504   25.0507  -27.0743 H   0  0  0  0  0  0  0  0  0  0  0  0
   -0.2383   24.3431  -26.5714 H   0  0  0  0  0  0  0  0  0  0  0  0
    0.5316   25.5734  -27.6800 H   0  0  0  0  0  0  0  0  0  0  0  0
    0.3365   27.2944  -26.1047 H   0  0  0  0  0  0  0  0  0  0  0  0
   -1.9752   26.7633  -25.3204 H   0  0  0  0  0  0  0  0  0  0  0  0
   -1.3034   25.4048  -24.3333 H   0  0  0  0  0  0  0  0  0  0  0  0
   -1.1180   28.3855  -23.9039 H   0  0  0  0  0  0  0  0  0  0  0  0
   -1.3883   27.0280  -22.7226 H   0  0  0  0  0  0  0  0  0  0  0  0
    1.1811   28.1865  -23.7761 H   0  0  0  0  0  0  0  0  0  0  0  0
    0.7418   27.5989  -22.1226 H   0  0  0  0  0  0  0  0  0  0  0  0
    2.2960   26.1350  -23.1120 H   0  0  0  0  0  0  0  0  0  0  0  0
    0.8050   25.3470  -22.9720 H   0  0  0  0  0  0  0  0  0  0  0  0
    2.2480   26.2860  -25.3577 H   0  0  0  0  0  0  0  0  0  0  0  0
    1.3898   24.7078  -25.0239 H   0  0  0  0  0  0  0  0  0  0  0  0
   -4.3580   25.3350  -29.2240 H   0  0  0  0  0  0  0  0  0  0  0  0
   -7.0189   24.9827  -29.7486 H   0  0  0  0  0  0  0  0  0  0  0  0
   -8.6565   23.3977  -30.8240 H   0  0  0  0  0  0  0  0  0  0  0  0
   -5.3780   20.7522  -31.9355 H   0  0  0  0  0  0  0  0  0  0  0  0
    0.2730   20.4778  -30.3931 H   0  0  0  0  0  0  0  0  0  0  0  0
  1  2  1  0
  2  3  2  0
  3  4  1  0
  4  5  1  0
  4  6  2  0
  6  7  1  0
  7  8  1  0
  8  9  2  0
  8 10  2  0
  8 11  1  0
 11 12  2  0
 12 13  1  0
 13 14  2  0
 13 15  1  0
 15 16  1  0
 16 17  1  0
 17 18  1  0
 18 19  1  0
 19 20  1  0
 20 21  1  0
 21 22  1  0
 22 23  1  0
 12 24  1  0
 24 25  1  0
 25 26  2  0
 26 27  1  0
 27 28  2  0
 28 29  1  0
 28 30  1  0
 30 31  2  0
  7 32  2  0
 32  2  1  0
 31 11  1  0
 23 18  1  0
 31 25  1  0
  1 33  1  0
  1 34  1  0
  1 35  1  0
  3 36  1  0
  5 37  1  0
  5 38  1  0
  5 39  1  0
  6 40  1  0
 16 41  1  0
 16 42  1  0
 17 43  1  0
 17 44  1  0
 18 45  1  6
 19 46  1  0
 19 47  1  0
 20 48  1  0
 20 49  1  0
 21 50  1  0
 21 51  1  0
 22 52  1  0
 22 53  1  0
 23 54  1  0
 23 55  1  0
 24 56  1  0
 26 57  1  0
 27 58  1  0
 30 59  1  0
 32 60  1  0
M  CHG  2  15  -1  22   1
M  END
>  <UniqueID>  (41) 
39

>  <SMILES>  (41) 
Cc1cc(C)cc(S(=O)(=O)c2c(C(=O)[N-]CC[C@H]3CCC[NH2+]C3)[nH]c3ccc(Cl)cc23)c1

>  <Energy>  (41) 
101.27832743522384

>  <Genealogy>  (41) 
Cc1cc(C)cc(S(=O)(=O)c2c(C(=O)[N-]CCC3CCC[NH2+]C3)[nH]c3ccc(Cl)cc23)c1 (protonated)
Cc1cc(C)cc(S(=O)(=O)c2c(C(=O)[N-]CC[C@H]3CCC[NH2+]C3)[nH]c3ccc(Cl)cc23)c1 (chirality)
Cc1cc(C)cc(S(=O)(=O)c2c(C(=O)[N-]CC[C@H]3CCC[NH2+]C3)[nH]c3ccc(Cl)cc23)c1 (3D coordinates assigned)
Cc1cc(C)cc(S(=O)(=O)c2c(C(=O)[N-]CC[C@H]3CCC[NH2+]C3)[nH]c3ccc(Cl)cc23)c1 (nonaromatic ring conformer: 101.27832743522384 kcal/mol)

>  <smiles>  (41) 
Cc1cc(C)cc(S(=O)(=O)c2c(C(=O)NCCC3CCCNC3)[nH]c3ccc(Cl)cc23)c1

>  <score_type>  (41) 
oracle

>  <origin>  (41) 
adgpu

>  <m_score__min__energy>  (41) 
-12.470000000000001

>  <m_primary>  (41) 
energy

$$$$
41:0
     RDKit          3D

 60 63  0  0  0  0  0  0  0  0999 V2000
   -0.5890   19.1650  -27.4280 C   0  0  0  0  0  0  0  0  0  0  0  0
   -1.6000   20.2110  -26.9440 C   0  0  0  0  0  0  0  0  0  0  0  0
   -0.9290   21.5930  -26.7420 C   0  0  0  0  0  0  0  0  0  0  0  0
   -1.1720   22.5090  -27.9440 C   0  0  0  0  0  0  0  0  0  0  0  0
   -2.6140   22.7850  -28.1310 N   0  0  0  0  0  0  0  0  0  0  0  0
   -2.9060   23.4270  -29.7310 S   0  0  0  0  0  0  0  0  0  0  0  0
   -1.9010   22.8480  -30.6880 O   0  0  0  0  0  0  0  0  0  0  0  0
   -2.7250   24.9200  -29.7150 O   0  0  0  0  0  0  0  0  0  0  0  0
   -4.5340   23.0440  -30.2950 C   0  0  0  0  0  0  0  0  0  0  0  0
   -5.6540   23.6030  -29.6630 C   0  0  0  0  0  0  0  0  0  0  0  0
   -6.9420   23.2820  -30.0990 C   0  0  0  0  0  0  0  0  0  0  0  0
   -7.1240   22.4080  -31.1800 C   0  0  0  0  0  0  0  0  0  0  0  0
   -8.7500   21.9870  -31.7020 S   0  0  0  0  0  0  0  0  0  0  0  0
   -9.5460   21.4690  -30.5360 O   0  0  0  0  0  0  0  0  0  0  0  0
   -9.4440   23.2010  -32.2510 O   0  0  0  0  0  0  0  0  0  0  0  0
   -8.6550   20.7840  -32.9400 N   0  0  0  0  0  0  0  0  0  0  0  0
   -7.7780   19.6670  -32.8080 C   0  0  0  0  0  0  0  0  0  0  0  0
   -6.7460   19.4880  -33.7340 C   0  0  0  0  0  0  0  0  0  0  0  0
   -5.8540   18.4120  -33.6070 C   0  0  0  0  0  0  0  0  0  0  0  0
   -6.0310   17.4800  -32.5640 C   0  0  0  0  0  0  0  0  0  0  0  0
   -7.0680   17.6650  -31.6370 C   0  0  0  0  0  0  0  0  0  0  0  0
   -7.9450   18.7500  -31.7590 C   0  0  0  0  0  0  0  0  0  0  0  0
   -8.9870   18.9180  -30.8470 O   0  0  0  0  0  0  0  0  0  0  0  0
   -5.0690   16.3370  -32.3680 C   0  0  0  0  0  0  0  0  0  0  0  0
   -4.1830   16.1000  -33.6010 C   0  0  0  0  0  0  0  0  0  0  0  0
   -3.6730   17.3570  -34.1800 N   0  0  0  0  0  0  0  0  0  0  0  0
   -2.7630   18.0740  -33.2690 C   0  0  0  0  0  0  0  0  0  0  0  0
   -4.7770   18.2170  -34.6480 C   0  0  0  0  0  0  0  0  0  0  0  0
   -6.0050   21.8490  -31.8130 C   0  0  0  0  0  0  0  0  0  0  0  0
   -4.7180   22.1690  -31.3760 C   0  0  0  0  0  0  0  0  0  0  0  0
   -3.5100   21.6420  -27.8240 C   0  0  0  0  0  0  0  0  0  0  0  0
   -2.8030   20.2830  -27.9130 C   0  0  0  0  0  0  0  0  0  0  0  0
   -0.1197   18.6794  -26.5597 H   0  0  0  0  0  0  0  0  0  0  0  0
   -1.1068   18.4084  -28.0358 H   0  0  0  0  0  0  0  0  0  0  0  0
    0.1848   19.6567  -28.0358 H   0  0  0  0  0  0  0  0  0  0  0  0
   -1.9812   19.9005  -25.9600 H   0  0  0  0  0  0  0  0  0  0  0  0
   -1.3463   22.0659  -25.8407 H   0  0  0  0  0  0  0  0  0  0  0  0
    0.1551   21.4407  -26.6345 H   0  0  0  0  0  0  0  0  0  0  0  0
   -0.6439   23.4601  -27.7815 H   0  0  0  0  0  0  0  0  0  0  0  0
   -0.7970   22.0029  -28.8458 H   0  0  0  0  0  0  0  0  0  0  0  0
   -5.5180   24.2971  -28.8205 H   0  0  0  0  0  0  0  0  0  0  0  0
   -7.8163   23.7165  -29.5923 H   0  0  0  0  0  0  0  0  0  0  0  0
   -6.6323   20.1958  -34.5683 H   0  0  0  0  0  0  0  0  0  0  0  0
   -7.1930   16.9525  -30.8083 H   0  0  0  0  0  0  0  0  0  0  0  0
   -9.5150   19.7820  -30.8000 H   0  0  0  0  0  0  0  0  0  0  0  0
   -4.4230   16.5625  -31.5067 H   0  0  0  0  0  0  0  0  0  0  0  0
   -5.6608   15.4252  -32.1996 H   0  0  0  0  0  0  0  0  0  0  0  0
   -3.3274   15.4749  -33.3057 H   0  0  0  0  0  0  0  0  0  0  0  0
   -4.8000   15.6058  -34.3659 H   0  0  0  0  0  0  0  0  0  0  0  0
   -3.0401   17.8556  -32.2271 H   0  0  0  0  0  0  0  0  0  0  0  0
   -1.7290   17.7453  -33.4500 H   0  0  0  0  0  0  0  0  0  0  0  0
   -2.8407   19.1562  -33.4500 H   0  0  0  0  0  0  0  0  0  0  0  0
   -4.3655   19.2014  -34.9155 H   0  0  0  0  0  0  0  0  0  0  0  0
   -5.2402   17.7176  -35.5117 H   0  0  0  0  0  0  0  0  0  0  0  0
   -6.1413   21.1562  -32.6565 H   0  0  0  0  0  0  0  0  0  0  0  0
   -3.8440   21.7328  -31.8819 H   0  0  0  0  0  0  0  0  0  0  0  0
   -3.9005   21.7674  -26.8033 H   0  0  0  0  0  0  0  0  0  0  0  0
   -4.3136   21.6438  -28.5752 H   0  0  0  0  0  0  0  0  0  0  0  0
   -3.5191   19.4889  -27.6548 H   0  0  0  0  0  0  0  0  0  0  0  0
   -2.4302   20.1521  -28.9396 H   0  0  0  0  0  0  0  0  0  0  0  0
  1  2  1  0
  2  3  1  0
  3  4  1  0
  4  5  1  0
  5  6  1  0
  6  7  2  0
  6  8  2  0
  6  9  1  0
  9 10  2  0
 10 11  1  0
 11 12  2  0
 12 13  1  0
 13 14  2  0
 13 15  2  0
 13 16  1  0
 16 17  1  0
 17 18  2  0
 18 19  1  0
 19 20  2  0
 20 21  1  0
 21 22  2  0
 22 23  1  0
 20 24  1  0
 24 25  1  0
 25 26  1  0
 26 27  1  0
 26 28  1  0
 12 29  1  0
 29 30  2  0
  5 31  1  0
 31 32  1  0
 32  2  1  0
 30  9  1  0
 22 17  1  0
 28 19  1  0
  1 33  1  0
  1 34  1  0
  1 35  1  0
  2 36  1  0
  3 37  1  0
  3 38  1  0
  4 39  1  0
  4 40  1  0
 10 41  1  0
 11 42  1  0
 18 43  1  0
 21 44  1  0
 23 45  1  0
 24 46  1  0
 24 47  1  0
 25 48  1  0
 25 49  1  0
 27 50  1  0
 27 51  1  0
 27 52  1  0
 28 53  1  0
 28 54  1  0
 29 55  1  0
 30 56  1  0
 31 57  1  0
 31 58  1  0
 32 59  1  0
 32 60  1  0
M  CHG  1  16  -1
M  END
>  <UniqueID>  (42) 
40

>  <SMILES>  (42) 
CC1CCN(S(=O)(=O)c2ccc(S(=O)(=O)[N-]c3cc4c(cc3O)CCN(C)C4)cc2)CC1

>  <Energy>  (42) 
76.69554572690679

>  <Genealogy>  (42) 
CC1CCN(S(=O)(=O)c2ccc(S(=O)(=O)[N-]c3cc4c(cc3O)CCN(C)C4)cc2)CC1 (protonated)
CC1CCN(S(=O)(=O)c2ccc(S(=O)(=O)[N-]c3cc4c(cc3O)CCN(C)C4)cc2)CC1 (3D coordinates assigned)
CC1CCN(S(=O)(=O)c2ccc(S(=O)(=O)[N-]c3cc4c(cc3O)CCN(C)C4)cc2)CC1 (nonaromatic ring conformer: 76.69554572690679 kcal/mol)

>  <smiles>  (42) 
CC1CCN(S(=O)(=O)c2ccc(S(=O)(=O)Nc3cc4c(cc3O)CCN(C)C4)cc2)CC1

>  <score_type>  (42) 
oracle

>  <origin>  (42) 
adgpu

>  <m_score__min__energy>  (42) 
-14

>  <m_primary>  (42) 
energy

$$$$
42:0
     RDKit          3D

 41 43  0  0  0  0  0  0  0  0999 V2000
   -5.8150   18.8070  -34.1230 C   0  0  0  0  0  0  0  0  0  0  0  0
   -6.8910   19.2620  -33.1820 C   0  0  0  0  0  0  0  0  0  0  0  0
   -7.7200   18.3240  -32.5520 C   0  0  0  0  0  0  0  0  0  0  0  0
   -8.6970   18.7440  -31.6480 C   0  0  0  0  0  0  0  0  0  0  0  0
   -8.8470   20.1030  -31.3570 C   0  0  0  0  0  0  0  0  0  0  0  0
   -8.0130   21.0590  -31.9650 C   0  0  0  0  0  0  0  0  0  0  0  0
   -8.1660   22.4990  -31.6470 C   0  0  0  0  0  0  0  0  0  0  0  0
   -8.9420   23.2110  -32.3430 O   0  0  0  0  0  0  0  0  0  0  0  0
   -7.4310   23.0710  -30.5520 N   0  0  0  0  0  0  0  0  0  0  0  0
   -6.1410   23.2310  -30.4530 C   0  0  0  0  0  0  0  0  0  0  0  0
   -5.5680   23.7870  -29.3640 N   0  0  0  0  0  0  0  0  0  0  0  0
   -4.2090   23.8680  -29.4680 C   0  0  0  0  0  0  0  0  0  0  0  0
   -3.3610   24.4390  -28.3940 C   0  0  0  0  0  0  0  0  0  0  0  0
   -3.8470   24.5510  -27.0770 C   0  0  0  0  0  0  0  0  0  0  0  0
   -3.0440   25.0880  -26.0680 C   0  0  0  0  0  0  0  0  0  0  0  0
   -1.7430   25.5210  -26.3540 C   0  0  0  0  0  0  0  0  0  0  0  0
   -0.7400   26.2150  -25.0840 S   0  0  0  0  0  0  0  0  0  0  0  0
    0.2180   27.5540  -25.7560 C   0  0  0  0  0  0  0  0  0  0  0  0
    0.1820   25.1640  -24.5320 O   0  0  0  0  0  0  0  0  0  0  0  0
   -1.6090   26.7270  -23.9710 O   0  0  0  0  0  0  0  0  0  0  0  0
   -1.2550   25.4230  -27.6630 C   0  0  0  0  0  0  0  0  0  0  0  0
   -2.0560   24.8840  -28.6740 C   0  0  0  0  0  0  0  0  0  0  0  0
   -3.6950   23.3650  -30.6670 C   0  0  0  0  0  0  0  0  0  0  0  0
   -4.9810   22.8090  -31.6000 S   0  0  0  0  0  0  0  0  0  0  0  0
   -7.0300   20.6250  -32.8740 C   0  0  0  0  0  0  0  0  0  0  0  0
   -4.9528   18.4424  -33.5453 H   0  0  0  0  0  0  0  0  0  0  0  0
   -6.2014   17.9952  -34.7568 H   0  0  0  0  0  0  0  0  0  0  0  0
   -5.5018   19.6497  -34.7568 H   0  0  0  0  0  0  0  0  0  0  0  0
   -7.6003   17.2526  -32.7708 H   0  0  0  0  0  0  0  0  0  0  0  0
   -9.3506   18.0038  -31.1633 H   0  0  0  0  0  0  0  0  0  0  0  0
   -9.6226   20.4272  -30.6476 H   0  0  0  0  0  0  0  0  0  0  0  0
   -6.1180   24.1370  -28.5490 H   0  0  0  0  0  0  0  0  0  0  0  0
   -4.8668   24.2130  -26.8410 H   0  0  0  0  0  0  0  0  0  0  0  0
   -3.4355   25.1713  -25.0434 H   0  0  0  0  0  0  0  0  0  0  0  0
    0.6436   28.1488  -24.9344 H   0  0  0  0  0  0  0  0  0  0  0  0
    1.0320   27.1481  -26.3747 H   0  0  0  0  0  0  0  0  0  0  0  0
   -0.4289   28.1933  -26.3747 H   0  0  0  0  0  0  0  0  0  0  0  0
   -0.2380   25.7713  -27.8964 H   0  0  0  0  0  0  0  0  0  0  0  0
   -1.6622   24.8071  -29.6982 H   0  0  0  0  0  0  0  0  0  0  0  0
   -2.6328   23.3374  -30.9517 H   0  0  0  0  0  0  0  0  0  0  0  0
   -6.3639   21.3609  -33.3480 H   0  0  0  0  0  0  0  0  0  0  0  0
  1  2  1  0
  2  3  2  0
  3  4  1  0
  4  5  2  0
  5  6  1  0
  6  7  1  0
  7  8  2  0
  7  9  1  0
  9 10  2  3
 10 11  1  0
 11 12  1  0
 12 13  1  0
 13 14  2  0
 14 15  1  0
 15 16  2  0
 16 17  1  0
 17 18  1  0
 17 19  2  0
 17 20  2  0
 16 21  1  0
 21 22  2  0
 12 23  2  0
 23 24  1  0
  6 25  2  0
 25  2  1  0
 24 10  1  0
 22 13  1  0
  1 26  1  0
  1 27  1  0
  1 28  1  0
  3 29  1  0
  4 30  1  0
  5 31  1  0
 11 32  1  0
 14 33  1  0
 15 34  1  0
 18 35  1  0
 18 36  1  0
 18 37  1  0
 21 38  1  0
 22 39  1  0
 23 40  1  0
 25 41  1  0
M  END
>  <UniqueID>  (43) 
41

>  <SMILES>  (43) 
Cc1cccc(C(=O)N=c2[nH]c(-c3ccc(S(C)(=O)=O)cc3)cs2)c1

>  <Energy>  (43) 
77.504559300913

>  <Genealogy>  (43) 
Cc1cccc(C(=O)N=c2[nH]c(-c3ccc(S(C)(=O)=O)cc3)cs2)c1 (3D coordinates assigned)
Cc1cccc(C(=O)N=c2[nH]c(-c3ccc(S(C)(=O)=O)cc3)cs2)c1 (optimized conformer: 77.504559300913 kcal/mol)

>  <smiles>  (43) 
Cc1cccc(C(=O)N=c2[nH]c(-c3ccc(S(C)(=O)=O)cc3)cs2)c1

>  <score_type>  (43) 
oracle

>  <origin>  (43) 
adgpu

>  <m_score__min__energy>  (43) 
-9.2799999999999994

>  <m_primary>  (43) 
energy

$$$$
43:0
     RDKit          3D

 52 55  0  0  0  0  0  0  0  0999 V2000
   -7.0680   25.3520  -29.5230 C   0  0  0  0  0  0  0  0  0  0  0  0
   -6.3200   24.2450  -30.1400 N   0  0  0  0  0  0  0  0  0  0  0  0
   -6.9530   22.9340  -29.8500 C   0  0  0  0  0  0  0  0  0  0  0  0
   -7.8310   22.4360  -31.0120 C   0  0  0  0  0  0  0  0  0  0  0  0
   -7.0850   22.3340  -32.2900 N   0  0  0  0  0  0  0  0  0  0  0  0
   -6.6490   20.6770  -32.6360 S   0  0  0  0  0  0  0  0  0  0  0  0
   -6.8020   20.4150  -34.1110 O   0  0  0  0  0  0  0  0  0  0  0  0
   -7.5450   19.7410  -31.8730 O   0  0  0  0  0  0  0  0  0  0  0  0
   -4.9830   20.3880  -32.1460 C   0  0  0  0  0  0  0  0  0  0  0  0
   -4.0600   19.8360  -33.0440 C   0  0  0  0  0  0  0  0  0  0  0  0
   -2.7380   19.6170  -32.6470 C   0  0  0  0  0  0  0  0  0  0  0  0
   -2.3200   19.9560  -31.3490 C   0  0  0  0  0  0  0  0  0  0  0  0
   -0.9310   19.7160  -30.9030 C   0  0  0  0  0  0  0  0  0  0  0  0
   -0.0950   18.9370  -31.5610 O   0  0  0  0  0  0  0  0  0  0  0  0
    1.0630   18.9220  -30.9430 C   0  0  0  0  0  0  0  0  0  0  0  0
    0.9810   19.7170  -29.8260 C   0  0  0  0  0  0  0  0  0  0  0  0
    1.9890   19.9070  -28.8880 O   0  0  0  0  0  0  0  0  0  0  0  0
   -0.2930   20.2450  -29.7840 C   0  0  0  0  0  0  0  0  0  0  0  0
   -0.8820   21.0340  -28.6820 C   0  0  0  0  0  0  0  0  0  0  0  0
   -1.3040   20.4280  -27.6610 O   0  0  0  0  0  0  0  0  0  0  0  0
   -0.9710   22.5140  -28.7370 C   0  0  0  0  0  0  0  0  0  0  0  0
   -2.0410   23.1300  -29.4070 C   0  0  0  0  0  0  0  0  0  0  0  0
   -2.1300   24.5240  -29.4730 C   0  0  0  0  0  0  0  0  0  0  0  0
   -3.2020   25.1180  -30.1310 O   0  0  0  0  0  0  0  0  0  0  0  0
   -1.1440   25.3180  -28.8790 C   0  0  0  0  0  0  0  0  0  0  0  0
   -1.2360   26.7040  -28.9430 O   0  0  0  0  0  0  0  0  0  0  0  0
   -0.0620   24.7180  -28.2220 C   0  0  0  0  0  0  0  0  0  0  0  0
    0.9210   25.5160  -27.6390 O   0  0  0  0  0  0  0  0  0  0  0  0
    0.0250   23.3210  -28.1550 C   0  0  0  0  0  0  0  0  0  0  0  0
   -3.2570   20.4790  -30.4430 C   0  0  0  0  0  0  0  0  0  0  0  0
   -4.5780   20.6990  -30.8410 C   0  0  0  0  0  0  0  0  0  0  0  0
   -5.8850   23.1940  -32.3520 C   0  0  0  0  0  0  0  0  0  0  0  0
   -6.1110   24.5000  -31.5840 C   0  0  0  0  0  0  0  0  0  0  0  0
   -7.0109   25.2675  -28.4277 H   0  0  0  0  0  0  0  0  0  0  0  0
   -6.6319   26.3108  -29.8400 H   0  0  0  0  0  0  0  0  0  0  0  0
   -8.1203   25.3051  -29.8400 H   0  0  0  0  0  0  0  0  0  0  0  0
   -6.1615   22.1934  -29.6628 H   0  0  0  0  0  0  0  0  0  0  0  0
   -7.6016   23.0621  -28.9708 H   0  0  0  0  0  0  0  0  0  0  0  0
   -8.2252   21.4419  -30.7543 H   0  0  0  0  0  0  0  0  0  0  0  0
   -8.6385   23.1689  -31.1561 H   0  0  0  0  0  0  0  0  0  0  0  0
   -4.3767   19.5743  -34.0644 H   0  0  0  0  0  0  0  0  0  0  0  0
   -2.0204   19.1766  -33.3549 H   0  0  0  0  0  0  0  0  0  0  0  0
    1.9538   18.3638  -31.2669 H   0  0  0  0  0  0  0  0  0  0  0  0
   -2.8152   22.5108  -29.8836 H   0  0  0  0  0  0  0  0  0  0  0  0
    0.8400   26.5270  -27.6170 H   0  0  0  0  0  0  0  0  0  0  0  0
    0.8782   22.8513  -27.6437 H   0  0  0  0  0  0  0  0  0  0  0  0
   -2.9490   20.7168  -29.4141 H   0  0  0  0  0  0  0  0  0  0  0  0
   -5.3028   21.1179  -30.1274 H   0  0  0  0  0  0  0  0  0  0  0  0
   -5.0335   22.6574  -31.9081 H   0  0  0  0  0  0  0  0  0  0  0  0
   -5.6786   23.4356  -33.4051 H   0  0  0  0  0  0  0  0  0  0  0  0
   -5.2303   25.1469  -31.7100 H   0  0  0  0  0  0  0  0  0  0  0  0
   -7.0120   24.9874  -31.9848 H   0  0  0  0  0  0  0  0  0  0  0  0
  1  2  1  0
  2  3  1  0
  3  4  1  0
  4  5  1  0
  5  6  1  0
  6  7  2  0
  6  8  2  0
  6  9  1  0
  9 10  2  0
 10 11  1  0
 11 12  2  0
 12 13  1  0
 13 14  1  0
 14 15  1  0
 15 16  2  0
 16 17  1  0
 16 18  1  0
 18 19  1  0
 19 20  2  0
 19 21  1  0
 21 22  2  0
 22 23  1  0
 23 24  1  0
 23 25  2  0
 25 26  1  0
 25 27  1  0
 27 28  1  0
 27 29  2  0
 12 30  1  0
 30 31  2  0
  5 32  1  0
 32 33  1  0
 33  2  1  0
 31  9  1  0
 18 13  2  0
 29 21  1  0
  1 34  1  0
  1 35  1  0
  1 36  1  0
  3 37  1  0
  3 38  1  0
  4 39  1  0
  4 40  1  0
 10 41  1  0
 11 42  1  0
 15 43  1  0
 22 44  1  0
 28 45  1  0
 29 46  1  0
 30 47  1  0
 31 48  1  0
 32 49  1  0
 32 50  1  0
 33 51  1  0
 33 52  1  0
M  CHG  3  17  -1  24  -1  26  -1
M  END
>  <UniqueID>  (44) 
42

>  <SMILES>  (44) 
CN1CCN(S(=O)(=O)c2ccc(-c3occ([O-])c3C(=O)c3cc([O-])c([O-])c(O)c3)cc2)CC1

>  <Energy>  (44) 
103.97400011884443

>  <Genealogy>  (44) 
CN1CCN(S(=O)(=O)c2ccc(-c3occ([O-])c3C(=O)c3cc([O-])c([O-])c(O)c3)cc2)CC1 (protonated)
CN1CCN(S(=O)(=O)c2ccc(-c3occ([O-])c3C(=O)c3cc([O-])c([O-])c(O)c3)cc2)CC1 (3D coordinates assigned)
CN1CCN(S(=O)(=O)c2ccc(-c3occ([O-])c3C(=O)c3cc([O-])c([O-])c(O)c3)cc2)CC1 (nonaromatic ring conformer: 103.97400011884443 kcal/mol)

>  <smiles>  (44) 
CN1CCN(S(=O)(=O)c2ccc(-c3occ(O)c3C(=O)c3cc(O)c(O)c(O)c3)cc2)CC1

>  <score_type>  (44) 
oracle

>  <origin>  (44) 
adgpu

>  <m_score__min__energy>  (44) 
-14.31

>  <m_primary>  (44) 
energy

$$$$
44:0
     RDKit          3D

 49 52  0  0  0  0  0  0  0  0999 V2000
   -0.4130   18.9430  -28.9150 C   0  0  0  0  0  0  0  0  0  0  0  0
   -0.1560   19.6840  -27.6680 N   0  0  0  0  0  0  0  0  0  0  0  0
   -1.1960   19.4550  -26.6460 C   0  0  0  0  0  0  0  0  0  0  0  0
   -2.5650   19.9930  -27.0800 C   0  0  0  0  0  0  0  0  0  0  0  0
   -2.4680   21.3750  -27.6750 C   0  0  0  0  0  0  0  0  0  0  0  0
   -3.6380   22.1280  -27.8410 C   0  0  0  0  0  0  0  0  0  0  0  0
   -3.5900   23.4200  -28.3920 C   0  0  0  0  0  0  0  0  0  0  0  0
   -4.7720   24.2220  -28.5380 N   0  0  0  0  0  0  0  0  0  0  0  0
   -5.5070   24.6710  -30.0430 S   0  0  0  0  0  0  0  0  0  0  0  0
   -4.5290   25.4820  -30.8450 O   0  0  0  0  0  0  0  0  0  0  0  0
   -6.7230   25.5160  -29.7790 O   0  0  0  0  0  0  0  0  0  0  0  0
   -5.9250   23.2200  -30.9500 C   0  0  0  0  0  0  0  0  0  0  0  0
   -4.9890   22.5990  -31.7870 C   0  0  0  0  0  0  0  0  0  0  0  0
   -5.3420   21.4610  -32.5190 C   0  0  0  0  0  0  0  0  0  0  0  0
   -6.6410   20.9250  -32.4170 C   0  0  0  0  0  0  0  0  0  0  0  0
   -7.5790   21.5630  -31.5840 C   0  0  0  0  0  0  0  0  0  0  0  0
   -7.2180   22.6950  -30.8490 C   0  0  0  0  0  0  0  0  0  0  0  0
   -8.8790   21.0570  -31.4900 O   0  0  0  0  0  0  0  0  0  0  0  0
   -9.3700   20.0870  -32.4130 C   0  0  0  0  0  0  0  0  0  0  0  0
   -8.2840   19.0530  -32.7250 C   0  0  0  0  0  0  0  0  0  0  0  0
   -7.0420   19.7300  -33.1270 N   0  0  0  0  0  0  0  0  0  0  0  0
   -6.2210   19.1670  -34.2040 C   0  0  0  0  0  0  0  0  0  0  0  0
   -2.3490   23.9480  -28.7950 C   0  0  0  0  0  0  0  0  0  0  0  0
   -2.2460   25.2300  -29.3350 O   0  0  0  0  0  0  0  0  0  0  0  0
   -1.1850   23.1850  -28.6560 C   0  0  0  0  0  0  0  0  0  0  0  0
   -1.2350   21.8920  -28.1140 C   0  0  0  0  0  0  0  0  0  0  0  0
    0.0540   21.1270  -27.9130 C   0  0  0  0  0  0  0  0  0  0  0  0
   -0.7646   17.9291  -28.6732 H   0  0  0  0  0  0  0  0  0  0  0  0
   -1.1817   19.4676  -29.5015 H   0  0  0  0  0  0  0  0  0  0  0  0
    0.5154   18.8790  -29.5015 H   0  0  0  0  0  0  0  0  0  0  0  0
   -1.2820   18.3735  -26.4646 H   0  0  0  0  0  0  0  0  0  0  0  0
   -0.8964   19.9921  -25.7340 H   0  0  0  0  0  0  0  0  0  0  0  0
   -2.9917   19.3124  -27.8314 H   0  0  0  0  0  0  0  0  0  0  0  0
   -3.2045   20.0525  -26.1869 H   0  0  0  0  0  0  0  0  0  0  0  0
   -4.6057   21.7028  -27.5364 H   0  0  0  0  0  0  0  0  0  0  0  0
   -3.9714   23.0085  -31.8688 H   0  0  0  0  0  0  0  0  0  0  0  0
   -4.6022   20.9822  -33.1774 H   0  0  0  0  0  0  0  0  0  0  0  0
   -7.9539   23.1758  -30.1877 H   0  0  0  0  0  0  0  0  0  0  0  0
  -10.2410   19.5776  -31.9751 H   0  0  0  0  0  0  0  0  0  0  0  0
   -9.6596   20.5943  -33.3451 H   0  0  0  0  0  0  0  0  0  0  0  0
   -8.0929   18.4444  -31.8288 H   0  0  0  0  0  0  0  0  0  0  0  0
   -8.6259   18.4092  -33.5488 H   0  0  0  0  0  0  0  0  0  0  0  0
   -5.3877   18.5955  -33.7693 H   0  0  0  0  0  0  0  0  0  0  0  0
   -6.8377   18.5009  -34.8252 H   0  0  0  0  0  0  0  0  0  0  0  0
   -5.8218   19.9823  -34.8252 H   0  0  0  0  0  0  0  0  0  0  0  0
   -3.0180   25.6780  -29.8160 H   0  0  0  0  0  0  0  0  0  0  0  0
   -0.2192   23.6036  -28.9754 H   0  0  0  0  0  0  0  0  0  0  0  0
    0.6728   21.2418  -28.8152 H   0  0  0  0  0  0  0  0  0  0  0  0
    0.5439   21.5419  -27.0197 H   0  0  0  0  0  0  0  0  0  0  0  0
  1  2  1  0
  2  3  1  0
  3  4  1  0
  4  5  1  0
  5  6  2  0
  6  7  1  0
  7  8  1  0
  8  9  1  0
  9 10  2  0
  9 11  2  0
  9 12  1  0
 12 13  2  0
 13 14  1  0
 14 15  2  0
 15 16  1  0
 16 17  2  0
 16 18  1  0
 18 19  1  0
 19 20  1  0
 20 21  1  0
 21 22  1  0
  7 23  2  0
 23 24  1  0
 23 25  1  0
 25 26  2  0
 26 27  1  0
 27  2  1  0
 26  5  1  0
 17 12  1  0
 21 15  1  0
  1 28  1  0
  1 29  1  0
  1 30  1  0
  3 31  1  0
  3 32  1  0
  4 33  1  0
  4 34  1  0
  6 35  1  0
 13 36  1  0
 14 37  1  0
 17 38  1  0
 19 39  1  0
 19 40  1  0
 20 41  1  0
 20 42  1  0
 22 43  1  0
 22 44  1  0
 22 45  1  0
 24 46  1  0
 25 47  1  0
 27 48  1  0
 27 49  1  0
M  CHG  1   8  -1
M  END
>  <UniqueID>  (45) 
43

>  <SMILES>  (45) 
CN1CCc2cc([N-]S(=O)(=O)c3ccc4c(c3)OCCN4C)c(O)cc2C1

>  <Energy>  (45) 
61.00353076668193

>  <Genealogy>  (45) 
CN1CCc2cc([N-]S(=O)(=O)c3ccc4c(c3)OCCN4C)c(O)cc2C1 (protonated)
CN1CCc2cc([N-]S(=O)(=O)c3ccc4c(c3)OCCN4C)c(O)cc2C1 (3D coordinates assigned)
CN1CCc2cc([N-]S(=O)(=O)c3ccc4c(c3)OCCN4C)c(O)cc2C1 (nonaromatic ring conformer: 61.00353076668193 kcal/mol)

>  <smiles>  (45) 
CN1CCc2cc(NS(=O)(=O)c3ccc4c(c3)OCCN4C)c(O)cc2C1

>  <score_type>  (45) 
oracle

>  <origin>  (45) 
adgpu

>  <m_score__min__energy>  (45) 
-12.35

>  <m_primary>  (45) 
energy

$$$$
45:0
     RDKit          3D

 42 45  0  0  0  0  0  0  0  0999 V2000
   -0.4250   22.6000  -30.2600 O   0  0  0  0  0  0  0  0  0  0  0  0
   -0.4310   22.9760  -28.8060 S   0  0  0  0  0  0  0  0  0  0  0  0
   -0.0500   21.7690  -27.9940 O   0  0  0  0  0  0  0  0  0  0  0  0
    0.7130   24.2660  -28.5450 N   0  0  0  0  0  0  0  0  0  0  0  0
    1.2010   24.2830  -27.1640 C   0  0  0  0  0  0  0  0  0  0  0  0
    0.3390   25.1460  -26.2880 C   0  0  0  0  0  0  0  0  0  0  0  0
    0.2210   24.8850  -24.9150 C   0  0  0  0  0  0  0  0  0  0  0  0
   -0.5660   25.7260  -24.1260 C   0  0  0  0  0  0  0  0  0  0  0  0
   -1.2210   26.8120  -24.7040 C   0  0  0  0  0  0  0  0  0  0  0  0
   -1.0890   27.0370  -26.0750 C   0  0  0  0  0  0  0  0  0  0  0  0
   -0.3190   26.2090  -26.8300 N   0  0  0  0  0  0  0  0  0  0  0  0
   -2.0460   23.5270  -28.3730 C   0  0  0  0  0  0  0  0  0  0  0  0
   -2.3810   23.8040  -27.0390 C   0  0  0  0  0  0  0  0  0  0  0  0
   -3.6470   24.3040  -26.7240 C   0  0  0  0  0  0  0  0  0  0  0  0
   -4.5880   24.5230  -27.7350 C   0  0  0  0  0  0  0  0  0  0  0  0
   -4.2690   24.2280  -29.0680 C   0  0  0  0  0  0  0  0  0  0  0  0
   -5.4430   24.5060  -30.3480 S   0  0  0  0  0  0  0  0  0  0  0  0
   -4.9880   25.6470  -31.2160 O   0  0  0  0  0  0  0  0  0  0  0  0
   -6.7700   24.8810  -29.7500 O   0  0  0  0  0  0  0  0  0  0  0  0
   -5.6080   23.0430  -31.3220 C   0  0  0  0  0  0  0  0  0  0  0  0
   -4.4820   22.4920  -31.9570 C   0  0  0  0  0  0  0  0  0  0  0  0
   -4.5910   21.3240  -32.7280 C   0  0  0  0  0  0  0  0  0  0  0  0
   -5.8240   20.6780  -32.8730 C   0  0  0  0  0  0  0  0  0  0  0  0
   -6.9480   21.2050  -32.2380 C   0  0  0  0  0  0  0  0  0  0  0  0
   -8.1720   20.6260  -32.3170 N   0  0  0  0  0  0  0  0  0  0  0  0
   -9.0490   21.6700  -31.3820 S   0  0  0  0  0  0  0  0  0  0  0  0
   -7.9870   22.8270  -30.8680 N   0  0  0  0  0  0  0  0  0  0  0  0
   -6.8450   22.3920  -31.4570 C   0  0  0  0  0  0  0  0  0  0  0  0
   -2.9950   23.7340  -29.3820 C   0  0  0  0  0  0  0  0  0  0  0  0
    1.1962   23.2559  -26.7702 H   0  0  0  0  0  0  0  0  0  0  0  0
    2.2200   24.6973  -27.1624 H   0  0  0  0  0  0  0  0  0  0  0  0
    0.7426   24.0274  -24.4650 H   0  0  0  0  0  0  0  0  0  0  0  0
   -0.6691   25.5315  -23.0483 H   0  0  0  0  0  0  0  0  0  0  0  0
   -1.8350   27.4841  -24.0866 H   0  0  0  0  0  0  0  0  0  0  0  0
   -1.6084   27.8850  -26.5452 H   0  0  0  0  0  0  0  0  0  0  0  0
   -1.6459   23.6273  -26.2400 H   0  0  0  0  0  0  0  0  0  0  0  0
   -3.9043   24.5260  -25.6778 H   0  0  0  0  0  0  0  0  0  0  0  0
   -5.5798   24.9272  -27.4841 H   0  0  0  0  0  0  0  0  0  0  0  0
   -3.5031   22.9820  -31.8486 H   0  0  0  0  0  0  0  0  0  0  0  0
   -3.6989   20.9126  -33.2229 H   0  0  0  0  0  0  0  0  0  0  0  0
   -5.9055   19.7649  -33.4810 H   0  0  0  0  0  0  0  0  0  0  0  0
   -2.7392   23.5075  -30.4276 H   0  0  0  0  0  0  0  0  0  0  0  0
  1  2  2  0
  2  3  2  0
  2  4  1  0
  4  5  1  0
  5  6  1  0
  6  7  2  0
  7  8  1  0
  8  9  2  0
  9 10  1  0
 10 11  2  0
  2 12  1  0
 12 13  2  0
 13 14  1  0
 14 15  2  0
 15 16  1  0
 16 17  1  0
 17 18  2  0
 17 19  2  0
 17 20  1  0
 20 21  2  0
 21 22  1  0
 22 23  2  0
 23 24  1  0
 24 25  2  0
 25 26  1  0
 26 27  1  0
 27 28  2  0
 16 29  2  0
 11  6  1  0
 29 12  1  0
 28 20  1  0
 28 24  1  0
  5 30  1  0
  5 31  1  0
  7 32  1  0
  8 33  1  0
  9 34  1  0
 10 35  1  0
 13 36  1  0
 14 37  1  0
 15 38  1  0
 21 39  1  0
 22 40  1  0
 23 41  1  0
 29 42  1  0
M  CHG  1   4  -1
M  END
>  <UniqueID>  (46) 
44

>  <SMILES>  (46) 
O=S(=O)([N-]Cc1ccccn1)c1cccc(S(=O)(=O)c2cccc3nsnc23)c1

>  <Energy>  (46) 
79.65965018988096

>  <Genealogy>  (46) 
O=S(=O)([N-]Cc1ccccn1)c1cccc(S(=O)(=O)c2cccc3nsnc23)c1 (protonated)
O=S(=O)([N-]Cc1ccccn1)c1cccc(S(=O)(=O)c2cccc3nsnc23)c1 (3D coordinates assigned)
O=S(=O)([N-]Cc1ccccn1)c1cccc(S(=O)(=O)c2cccc3nsnc23)c1 (optimized conformer: 79.65965018988096 kcal/mol)

>  <smiles>  (46) 
O=S(=O)(NCc1ccccn1)c1cccc(S(=O)(=O)c2cccc3nsnc23)c1

>  <score_type>  (46) 
oracle

>  <origin>  (46) 
adgpu

>  <m_score__min__energy>  (46) 
-11.34

>  <m_primary>  (46) 
energy

$$$$
46:0
     RDKit          3D

 50 54  0  0  0  0  0  0  0  0999 V2000
   -8.8590   19.4180  -32.6790 O   0  0  0  0  0  0  0  0  0  0  0  0
   -7.7690   20.0420  -32.7100 C   0  0  0  0  0  0  0  0  0  0  0  0
   -6.5370   19.6420  -33.3810 C   0  0  0  0  0  0  0  0  0  0  0  0
   -6.2870   18.4990  -33.9390 N   0  0  0  0  0  0  0  0  0  0  0  0
   -4.9550   18.2330  -34.4920 C   0  0  0  0  0  0  0  0  0  0  0  0
   -3.8520   18.8680  -33.6180 C   0  0  0  0  0  0  0  0  0  0  0  0
   -4.1030   20.3730  -33.4150 C   0  0  0  0  0  0  0  0  0  0  0  0
   -5.5180   20.6040  -33.1350 N   0  0  0  0  0  0  0  0  0  0  0  0
   -6.1240   21.5950  -32.3030 C   0  0  0  0  0  0  0  0  0  0  0  0
   -5.5090   22.7130  -31.7350 C   0  0  0  0  0  0  0  0  0  0  0  0
   -6.2630   23.5240  -30.8620 C   0  0  0  0  0  0  0  0  0  0  0  0
   -5.4920   24.8600  -30.0060 S   0  0  0  0  0  0  0  0  0  0  0  0
   -6.5370   25.8680  -29.6160 O   0  0  0  0  0  0  0  0  0  0  0  0
   -4.4770   25.5430  -30.8830 O   0  0  0  0  0  0  0  0  0  0  0  0
   -4.7370   24.2420  -28.5690 N   0  0  0  0  0  0  0  0  0  0  0  0
   -3.6120   23.3570  -28.5960 C   0  0  0  0  0  0  0  0  0  0  0  0
   -3.7200   22.0290  -28.1530 C   0  0  0  0  0  0  0  0  0  0  0  0
   -2.5910   21.2010  -28.0920 C   0  0  0  0  0  0  0  0  0  0  0  0
   -1.3410   21.7040  -28.5010 C   0  0  0  0  0  0  0  0  0  0  0  0
   -1.2440   23.0100  -29.0050 C   0  0  0  0  0  0  0  0  0  0  0  0
   -2.3760   23.8350  -29.0510 C   0  0  0  0  0  0  0  0  0  0  0  0
   -2.2730   25.1400  -29.5280 O   0  0  0  0  0  0  0  0  0  0  0  0
   -0.1210   20.8370  -28.3900 C   0  0  0  0  0  0  0  0  0  0  0  0
   -0.2160   19.9990  -27.1140 C   0  0  0  0  0  0  0  0  0  0  0  0
   -1.4440   19.0810  -27.1540 C   0  0  0  0  0  0  0  0  0  0  0  0
   -2.7480   19.7640  -27.6400 C   0  0  0  0  0  0  0  0  0  0  0  0
   -7.6140   23.2030  -30.5910 C   0  0  0  0  0  0  0  0  0  0  0  0
   -8.2180   22.0800  -31.1830 C   0  0  0  0  0  0  0  0  0  0  0  0
   -7.4490   21.2940  -32.0370 C   0  0  0  0  0  0  0  0  0  0  0  0
   -7.0320   17.7690  -34.0050 H   0  0  0  0  0  0  0  0  0  0  0  0
   -4.7956   17.1455  -34.5373 H   0  0  0  0  0  0  0  0  0  0  0  0
   -4.9004   18.6746  -35.4980 H   0  0  0  0  0  0  0  0  0  0  0  0
   -3.8400   18.3703  -32.6371 H   0  0  0  0  0  0  0  0  0  0  0  0
   -2.8858   18.7408  -34.1281 H   0  0  0  0  0  0  0  0  0  0  0  0
   -3.4995   20.7333  -32.5688 H   0  0  0  0  0  0  0  0  0  0  0  0
   -3.8197   20.9156  -34.3290 H   0  0  0  0  0  0  0  0  0  0  0  0
   -4.4606   22.9553  -31.9634 H   0  0  0  0  0  0  0  0  0  0  0  0
   -4.7012   21.6343  -27.8506 H   0  0  0  0  0  0  0  0  0  0  0  0
   -0.2758   23.3877  -29.3654 H   0  0  0  0  0  0  0  0  0  0  0  0
   -3.0940   25.6920  -29.7440 H   0  0  0  0  0  0  0  0  0  0  0  0
   -0.0614   20.1716  -29.2639 H   0  0  0  0  0  0  0  0  0  0  0  0
    0.7794   21.4678  -28.3525 H   0  0  0  0  0  0  0  0  0  0  0  0
    0.6909   19.3838  -27.0185 H   0  0  0  0  0  0  0  0  0  0  0  0
   -0.3116   20.6775  -26.2535 H   0  0  0  0  0  0  0  0  0  0  0  0
   -1.2233   18.2429  -27.8313 H   0  0  0  0  0  0  0  0  0  0  0  0
   -1.6278   18.7628  -26.1172 H   0  0  0  0  0  0  0  0  0  0  0  0
   -3.1426   19.1820  -28.4859 H   0  0  0  0  0  0  0  0  0  0  0  0
   -3.4230   19.7881  -26.7718 H   0  0  0  0  0  0  0  0  0  0  0  0
   -8.1982   23.8390  -29.9097 H   0  0  0  0  0  0  0  0  0  0  0  0
   -9.2691   21.8292  -30.9772 H   0  0  0  0  0  0  0  0  0  0  0  0
  1  2  2  0
  2  3  1  0
  3  4  2  0
  4  5  1  0
  5  6  1  0
  6  7  1  0
  7  8  1  0
  8  9  1  0
  9 10  2  0
 10 11  1  0
 11 12  1  0
 12 13  2  0
 12 14  2  0
 12 15  1  0
 15 16  1  0
 16 17  2  0
 17 18  1  0
 18 19  2  0
 19 20  1  0
 20 21  2  0
 21 22  1  0
 19 23  1  0
 23 24  1  0
 24 25  1  0
 25 26  1  0
 11 27  2  0
 27 28  1  0
 28 29  2  0
 29  2  1  0
  8  3  1  0
 29  9  1  0
 21 16  1  0
 26 18  1  0
  4 30  1  0
  5 31  1  0
  5 32  1  0
  6 33  1  0
  6 34  1  0
  7 35  1  0
  7 36  1  0
 10 37  1  0
 17 38  1  0
 20 39  1  0
 22 40  1  0
 23 41  1  0
 23 42  1  0
 24 43  1  0
 24 44  1  0
 25 45  1  0
 25 46  1  0
 26 47  1  0
 26 48  1  0
 27 49  1  0
 28 50  1  0
M  CHG  2   4   1  15  -1
M  END
>  <UniqueID>  (47) 
45

>  <SMILES>  (47) 
O=C1C2=[NH+]CCCN2c2cc(S(=O)(=O)[N-]c3cc4c(cc3O)CCCC4)ccc21

>  <Energy>  (47) 
94.01768218541537

>  <Genealogy>  (47) 
O=C1C2=[NH+]CCCN2c2cc(S(=O)(=O)[N-]c3cc4c(cc3O)CCCC4)ccc21 (protonated)
O=C1C2=[NH+]CCCN2c2cc(S(=O)(=O)[N-]c3cc4c(cc3O)CCCC4)ccc21 (3D coordinates assigned)
O=C1C2=[NH+]CCCN2c2cc(S(=O)(=O)[N-]c3cc4c(cc3O)CCCC4)ccc21 (nonaromatic ring conformer: 94.01768218541537 kcal/mol)

>  <smiles>  (47) 
O=C1C2=NCCCN2c2cc(S(=O)(=O)Nc3cc4c(cc3O)CCCC4)ccc21

>  <score_type>  (47) 
oracle

>  <origin>  (47) 
adgpu

>  <m_score__min__energy>  (47) 
-12.050000000000001

>  <m_primary>  (47) 
energy

$$$$
47:0
     RDKit          3D

 52 54  0  0  0  0  0  0  0  0999 V2000
   -9.3920   21.1880  -31.8630 C   0  0  0  0  0  0  0  0  0  0  0  0
   -8.0700   20.5540  -32.2100 C   0  0  0  0  0  0  0  0  0  0  0  0
   -8.0550   19.2310  -32.6790 C   0  0  0  0  0  0  0  0  0  0  0  0
   -6.8510   18.5920  -33.0160 C   0  0  0  0  0  0  0  0  0  0  0  0
   -6.9020   17.1660  -33.5000 C   0  0  0  0  0  0  0  0  0  0  0  0
   -5.6370   19.3090  -32.9220 C   0  0  0  0  0  0  0  0  0  0  0  0
   -4.0770   18.5950  -33.3740 S   0  0  0  0  0  0  0  0  0  0  0  0
   -3.9740   17.2340  -32.7430 O   0  0  0  0  0  0  0  0  0  0  0  0
   -3.9770   18.4550  -34.8690 O   0  0  0  0  0  0  0  0  0  0  0  0
   -2.7640   19.5950  -32.7990 N   0  0  0  0  0  0  0  0  0  0  0  0
   -2.6890   20.8620  -33.5300 C   0  0  0  0  0  0  0  0  0  0  0  0
   -1.2330   21.3040  -33.4890 C   0  0  0  0  0  0  0  0  0  0  0  0
   -0.4420   20.0550  -33.1320 C   0  0  0  0  0  0  0  0  0  0  0  0
   -1.4730   18.9440  -33.0190 C   0  0  0  0  0  0  0  0  0  0  0  0
   -5.6500   20.6160  -32.4170 C   0  0  0  0  0  0  0  0  0  0  0  0
   -6.8500   21.2500  -32.0600 C   0  0  0  0  0  0  0  0  0  0  0  0
   -6.7840   22.9110  -31.4420 S   0  0  0  0  0  0  0  0  0  0  0  0
   -7.6720   23.7870  -32.2810 O   0  0  0  0  0  0  0  0  0  0  0  0
   -7.2900   22.9590  -30.0280 O   0  0  0  0  0  0  0  0  0  0  0  0
   -5.1400   23.4670  -31.4490 N   0  0  0  0  0  0  0  0  0  0  0  0
   -4.5280   24.2960  -30.4560 C   0  0  0  0  0  0  0  0  0  0  0  0
   -3.8720   25.3040  -30.8320 O   0  0  0  0  0  0  0  0  0  0  0  0
   -4.7010   24.0390  -29.0550 N   0  0  0  0  0  0  0  0  0  0  0  0
   -3.7610   24.4510  -28.0490 C   0  0  0  0  0  0  0  0  0  0  0  0
   -2.3880   24.4490  -28.3450 C   0  0  0  0  0  0  0  0  0  0  0  0
   -1.4550   24.8620  -27.3890 C   0  0  0  0  0  0  0  0  0  0  0  0
   -1.8850   25.2940  -26.1290 C   0  0  0  0  0  0  0  0  0  0  0  0
   -0.9250   25.7190  -25.1450 C   0  0  0  0  0  0  0  0  0  0  0  0
   -0.1520   26.0610  -24.3540 N   0  0  0  0  0  0  0  0  0  0  0  0
   -3.2530   25.3170  -25.8320 C   0  0  0  0  0  0  0  0  0  0  0  0
   -4.1870   24.9040  -26.7870 C   0  0  0  0  0  0  0  0  0  0  0  0
   -9.4984   21.2390  -30.7693 H   0  0  0  0  0  0  0  0  0  0  0  0
   -9.4330   22.2038  -32.2832 H   0  0  0  0  0  0  0  0  0  0  0  0
  -10.2098   20.5841  -32.2832 H   0  0  0  0  0  0  0  0  0  0  0  0
   -9.0040   18.6848  -32.7845 H   0  0  0  0  0  0  0  0  0  0  0  0
   -6.9263   16.4861  -32.6356 H   0  0  0  0  0  0  0  0  0  0  0  0
   -7.8060   17.0175  -34.1088 H   0  0  0  0  0  0  0  0  0  0  0  0
   -6.0109   16.9533  -34.1088 H   0  0  0  0  0  0  0  0  0  0  0  0
   -3.0127   20.7187  -34.5715 H   0  0  0  0  0  0  0  0  0  0  0  0
   -3.3458   21.6197  -33.0777 H   0  0  0  0  0  0  0  0  0  0  0  0
   -0.9202   21.6903  -34.4703 H   0  0  0  0  0  0  0  0  0  0  0  0
   -1.0712   22.1128  -32.7612 H   0  0  0  0  0  0  0  0  0  0  0  0
    0.2887   19.8234  -33.9210 H   0  0  0  0  0  0  0  0  0  0  0  0
    0.1260   20.1829  -32.1987 H   0  0  0  0  0  0  0  0  0  0  0  0
   -1.4985   18.3537  -33.9468 H   0  0  0  0  0  0  0  0  0  0  0  0
   -1.2286   18.2574  -32.1950 H   0  0  0  0  0  0  0  0  0  0  0  0
   -4.6994   21.1566  -32.2979 H   0  0  0  0  0  0  0  0  0  0  0  0
   -5.6250   23.6710  -28.7390 H   0  0  0  0  0  0  0  0  0  0  0  0
   -2.0440   24.1199  -29.3367 H   0  0  0  0  0  0  0  0  0  0  0  0
   -0.3813   24.8474  -27.6275 H   0  0  0  0  0  0  0  0  0  0  0  0
   -3.5940   25.6610  -24.8444 H   0  0  0  0  0  0  0  0  0  0  0  0
   -5.2608   24.9334  -26.5503 H   0  0  0  0  0  0  0  0  0  0  0  0
  1  2  1  0
  2  3  2  0
  3  4  1  0
  4  5  1  0
  4  6  2  0
  6  7  1  0
  7  8  2  0
  7  9  2  0
  7 10  1  0
 10 11  1  0
 11 12  1  0
 12 13  1  0
 13 14  1  0
  6 15  1  0
 15 16  2  0
 16 17  1  0
 17 18  2  0
 17 19  2  0
 17 20  1  0
 20 21  1  0
 21 22  2  0
 21 23  1  0
 23 24  1  0
 24 25  2  0
 25 26  1  0
 26 27  2  0
 27 28  1  0
 28 29  3  0
 27 30  1  0
 30 31  2  0
 16  2  1  0
 31 24  1  0
 14 10  1  0
  1 32  1  0
  1 33  1  0
  1 34  1  0
  3 35  1  0
  5 36  1  0
  5 37  1  0
  5 38  1  0
 11 39  1  0
 11 40  1  0
 12 41  1  0
 12 42  1  0
 13 43  1  0
 13 44  1  0
 14 45  1  0
 14 46  1  0
 15 47  1  0
 23 48  1  0
 25 49  1  0
 26 50  1  0
 30 51  1  0
 31 52  1  0
M  CHG  1  20  -1
M  END
>  <UniqueID>  (48) 
46

>  <SMILES>  (48) 
Cc1cc(C)c(S(=O)(=O)N2CCCC2)cc1S(=O)(=O)[N-]C(=O)Nc1ccc(C#N)cc1

>  <Energy>  (48) 
64.94519532935075

>  <Genealogy>  (48) 
Cc1cc(C)c(S(=O)(=O)N2CCCC2)cc1S(=O)(=O)[N-]C(=O)Nc1ccc(C#N)cc1 (protonated)
Cc1cc(C)c(S(=O)(=O)N2CCCC2)cc1S(=O)(=O)[N-]C(=O)Nc1ccc(C#N)cc1 (3D coordinates assigned)
Cc1cc(C)c(S(=O)(=O)N2CCCC2)cc1S(=O)(=O)[N-]C(=O)Nc1ccc(C#N)cc1 (nonaromatic ring conformer: 64.94519532935075 kcal/mol)

>  <smiles>  (48) 
Cc1cc(C)c(S(=O)(=O)N2CCCC2)cc1S(=O)(=O)NC(=O)Nc1ccc(C#N)cc1

>  <score_type>  (48) 
oracle

>  <origin>  (48) 
adgpu

>  <m_score__min__energy>  (48) 
-12.220000000000001

>  <m_primary>  (48) 
energy

$$$$
48:0
     RDKit          3D

 63 67  0  0  0  0  0  0  0  0999 V2000
    0.8910   19.6410  -36.5590 C   0  0  0  0  0  0  0  0  0  0  0  0
    0.1360   19.8150  -35.3260 N   0  0  0  0  0  0  0  0  0  0  0  0
   -0.1370   18.7930  -34.3610 C   0  0  0  0  0  0  0  0  0  0  0  0
   -0.0460   17.5570  -34.5910 O   0  0  0  0  0  0  0  0  0  0  0  0
   -0.4760   19.3970  -33.0750 C   0  0  0  0  0  0  0  0  0  0  0  0
   -0.8130   18.8140  -31.8550 C   0  0  0  0  0  0  0  0  0  0  0  0
   -1.0470   19.6660  -30.7590 C   0  0  0  0  0  0  0  0  0  0  0  0
   -0.9330   21.0720  -30.8990 C   0  0  0  0  0  0  0  0  0  0  0  0
   -1.2270   22.1120  -29.5080 S   0  0  0  0  0  0  0  0  0  0  0  0
   -1.8860   21.3180  -28.4120 O   0  0  0  0  0  0  0  0  0  0  0  0
    0.0880   22.6320  -28.9950 O   0  0  0  0  0  0  0  0  0  0  0  0
   -2.2730   23.4110  -29.9960 N   0  0  0  0  0  0  0  0  0  0  0  0
   -3.5550   23.2750  -30.6270 C   0  0  0  0  0  0  0  0  0  0  0  0
   -4.0310   22.0330  -31.0830 C   0  0  0  0  0  0  0  0  0  0  0  0
   -5.2960   21.9280  -31.6910 C   0  0  0  0  0  0  0  0  0  0  0  0
   -5.8060   20.6050  -32.1260 C   0  0  0  0  0  0  0  0  0  0  0  0
   -6.6370   19.9950  -31.3930 O   0  0  0  0  0  0  0  0  0  0  0  0
   -5.4070   20.0160  -33.3800 N   0  0  0  0  0  0  0  0  0  0  0  0
   -4.0120   20.0670  -33.8380 C   0  0  0  0  0  0  0  0  0  0  0  0
   -3.4760   18.6440  -34.0330 C   0  0  0  0  0  0  0  0  0  0  0  0
   -4.4120   17.8300  -34.9530 C   0  0  0  0  0  0  0  0  0  0  0  0
   -3.8740   16.4090  -35.2480 C   0  0  0  0  0  0  0  0  0  0  0  0
   -3.8250   15.5020  -34.0420 C   0  0  0  0  0  0  0  0  0  0  0  0
   -2.5920   15.1750  -33.4510 C   0  0  0  0  0  0  0  0  0  0  0  0
   -2.5450   14.3470  -32.3250 C   0  0  0  0  0  0  0  0  0  0  0  0
   -3.7250   13.8230  -31.7910 C   0  0  0  0  0  0  0  0  0  0  0  0
   -3.6730   13.0050  -30.7090 F   0  0  0  0  0  0  0  0  0  0  0  0
   -4.9560   14.1370  -32.3740 C   0  0  0  0  0  0  0  0  0  0  0  0
   -5.0110   14.9830  -33.4880 C   0  0  0  0  0  0  0  0  0  0  0  0
   -5.8440   17.8110  -34.3760 C   0  0  0  0  0  0  0  0  0  0  0  0
   -6.3630   19.2400  -34.1810 C   0  0  0  0  0  0  0  0  0  0  0  0
   -6.0800   23.0840  -31.8380 C   0  0  0  0  0  0  0  0  0  0  0  0
   -5.5940   24.3250  -31.4220 C   0  0  0  0  0  0  0  0  0  0  0  0
   -4.3330   24.4250  -30.8310 C   0  0  0  0  0  0  0  0  0  0  0  0
   -3.8610   25.6690  -30.4310 O   0  0  0  0  0  0  0  0  0  0  0  0
   -0.6000   21.6350  -32.1500 C   0  0  0  0  0  0  0  0  0  0  0  0
   -0.3770   20.7670  -33.2190 C   0  0  0  0  0  0  0  0  0  0  0  0
    0.0150   21.0410  -34.5960 C   0  0  0  0  0  0  0  0  0  0  0  0
    0.2460   22.1830  -35.0810 O   0  0  0  0  0  0  0  0  0  0  0  0
    1.9368   19.4000  -36.3177 H   0  0  0  0  0  0  0  0  0  0  0  0
    0.4516   18.8206  -37.1454 H   0  0  0  0  0  0  0  0  0  0  0  0
    0.8550   20.5710  -37.1454 H   0  0  0  0  0  0  0  0  0  0  0  0
   -0.8937   17.7219  -31.7515 H   0  0  0  0  0  0  0  0  0  0  0  0
   -1.3211   19.2364  -29.7842 H   0  0  0  0  0  0  0  0  0  0  0  0
   -3.4083   21.1342  -30.9633 H   0  0  0  0  0  0  0  0  0  0  0  0
   -3.9610   20.6103  -34.7931 H   0  0  0  0  0  0  0  0  0  0  0  0
   -3.4012   20.5845  -33.0836 H   0  0  0  0  0  0  0  0  0  0  0  0
   -2.4759   18.6940  -34.4884 H   0  0  0  0  0  0  0  0  0  0  0  0
   -3.4243   18.1479  -33.0526 H   0  0  0  0  0  0  0  0  0  0  0  0
   -4.4448   18.3356  -35.9294 H   0  0  0  0  0  0  0  0  0  0  0  0
   -4.5248   15.9438  -36.0030 H   0  0  0  0  0  0  0  0  0  0  0  0
   -2.8370   16.5297  -35.5945 H   0  0  0  0  0  0  0  0  0  0  0  0
   -1.6589   15.5727  -33.8767 H   0  0  0  0  0  0  0  0  0  0  0  0
   -1.5777   14.1079  -31.8591 H   0  0  0  0  0  0  0  0  0  0  0  0
   -5.8836   13.7184  -31.9565 H   0  0  0  0  0  0  0  0  0  0  0  0
   -5.9833   15.2430  -33.9318 H   0  0  0  0  0  0  0  0  0  0  0  0
   -6.5076   17.2766  -35.0718 H   0  0  0  0  0  0  0  0  0  0  0  0
   -5.8280   17.3021  -33.4009 H   0  0  0  0  0  0  0  0  0  0  0  0
   -6.4890   19.7191  -35.1631 H   0  0  0  0  0  0  0  0  0  0  0  0
   -7.3293   19.2051  -33.6566 H   0  0  0  0  0  0  0  0  0  0  0  0
   -7.0831   23.0112  -32.2836 H   0  0  0  0  0  0  0  0  0  0  0  0
   -6.2071   25.2277  -31.5604 H   0  0  0  0  0  0  0  0  0  0  0  0
   -0.5189   22.7245  -32.2779 H   0  0  0  0  0  0  0  0  0  0  0  0
  1  2  1  0
  2  3  1  0
  3  4  2  0
  3  5  1  0
  5  6  2  0
  6  7  1  0
  7  8  2  0
  8  9  1  0
  9 10  2  0
  9 11  2  0
  9 12  1  0
 12 13  1  0
 13 14  2  0
 14 15  1  0
 15 16  1  0
 16 17  2  0
 16 18  1  0
 18 19  1  0
 19 20  1  0
 20 21  1  0
 21 22  1  0
 22 23  1  0
 23 24  2  0
 24 25  1  0
 25 26  2  0
 26 27  1  0
 26 28  1  0
 28 29  2  0
 21 30  1  0
 30 31  1  0
 15 32  2  0
 32 33  1  0
 33 34  2  0
 34 35  1  0
  8 36  1  0
 36 37  2  0
 37 38  1  0
 38 39  2  0
 38  2  1  0
 37  5  1  0
 34 13  1  0
 31 18  1  0
 29 23  1  0
  1 40  1  0
  1 41  1  0
  1 42  1  0
  6 43  1  0
  7 44  1  0
 14 45  1  0
 19 46  1  0
 19 47  1  0
 20 48  1  0
 20 49  1  0
 21 50  1  0
 22 51  1  0
 22 52  1  0
 24 53  1  0
 25 54  1  0
 28 55  1  0
 29 56  1  0
 30 57  1  0
 30 58  1  0
 31 59  1  0
 31 60  1  0
 32 61  1  0
 33 62  1  0
 36 63  1  0
M  CHG  2  12  -1  35  -1
M  END
>  <UniqueID>  (49) 
47

>  <SMILES>  (49) 
CN1C(=O)c2ccc(S(=O)(=O)[N-]c3cc(C(=O)N4CCC(Cc5ccc(F)cc5)CC4)ccc3[O-])cc2C1=O

>  <Energy>  (49) 
108.4406960521634

>  <Genealogy>  (49) 
CN1C(=O)c2ccc(S(=O)(=O)[N-]c3cc(C(=O)N4CCC(Cc5ccc(F)cc5)CC4)ccc3[O-])cc2C1=O (protonated)
CN1C(=O)c2ccc(S(=O)(=O)[N-]c3cc(C(=O)N4CCC(Cc5ccc(F)cc5)CC4)ccc3[O-])cc2C1=O (3D coordinates assigned)
CN1C(=O)c2ccc(S(=O)(=O)[N-]c3cc(C(=O)N4CCC(Cc5ccc(F)cc5)CC4)ccc3[O-])cc2C1=O (nonaromatic ring conformer: 108.4406960521634 kcal/mol)

>  <smiles>  (49) 
CN1C(=O)c2ccc(S(=O)(=O)Nc3cc(C(=O)N4CCC(Cc5ccc(F)cc5)CC4)ccc3O)cc2C1=O

>  <score_type>  (49) 
oracle

>  <origin>  (49) 
adgpu

>  <m_score__min__energy>  (49) 
-15.18

>  <m_primary>  (49) 
energy

$$$$
49:0
     RDKit          3D

 72 76  0  0  0  0  0  0  0  0999 V2000
   -3.4590   20.5740  -33.8490 O   0  0  0  0  0  0  0  0  0  0  0  0
   -2.9370   19.4440  -33.6360 C   0  0  0  0  0  0  0  0  0  0  0  0
   -1.5350   19.3790  -33.1670 C   0  0  0  0  0  0  0  0  0  0  0  0
   -0.4930   19.9100  -33.9450 C   0  0  0  0  0  0  0  0  0  0  0  0
    0.8300   19.8350  -33.5020 C   0  0  0  0  0  0  0  0  0  0  0  0
    1.1280   19.2470  -32.2650 C   0  0  0  0  0  0  0  0  0  0  0  0
    2.4470   19.1690  -31.8220 O   0  0  0  0  0  0  0  0  0  0  0  0
    0.0910   18.7490  -31.4640 C   0  0  0  0  0  0  0  0  0  0  0  0
    0.3870   18.1690  -30.1960 N   0  0  0  0  0  0  0  0  0  0  0  0
    0.6650   19.1610  -28.8070 S   0  0  0  0  0  0  0  0  0  0  0  0
    0.3670   18.3900  -27.5510 O   0  0  0  0  0  0  0  0  0  0  0  0
    2.1100   19.5760  -28.7800 O   0  0  0  0  0  0  0  0  0  0  0  0
   -0.3750   20.5780  -28.9040 C   0  0  0  0  0  0  0  0  0  0  0  0
   -1.3620   20.8090  -27.9350 C   0  0  0  0  0  0  0  0  0  0  0  0
   -2.1370   21.9710  -27.9850 C   0  0  0  0  0  0  0  0  0  0  0  0
   -1.9340   22.9160  -29.0020 C   0  0  0  0  0  0  0  0  0  0  0  0
   -2.8660   24.4170  -29.0270 S   0  0  0  0  0  0  0  0  0  0  0  0
   -3.7370   24.4690  -27.8000 O   0  0  0  0  0  0  0  0  0  0  0  0
   -1.9170   25.5810  -28.9700 O   0  0  0  0  0  0  0  0  0  0  0  0
   -3.8720   24.5770  -30.4450 N   0  0  0  0  0  0  0  0  0  0  0  0
   -4.0530   23.3070  -31.1400 C   0  0  0  0  0  0  0  0  0  0  0  0
   -5.3500   23.4320  -31.9240 C   0  0  0  0  0  0  0  0  0  0  0  0
   -6.1230   24.5530  -31.2420 C   0  0  0  0  0  0  0  0  0  0  0  0
   -5.2210   25.0330  -30.1130 C   0  0  0  0  0  0  0  0  0  0  0  0
   -0.9460   22.6820  -29.9690 C   0  0  0  0  0  0  0  0  0  0  0  0
   -0.1720   21.5190  -29.9220 C   0  0  0  0  0  0  0  0  0  0  0  0
   -1.2350   18.8200  -31.9130 C   0  0  0  0  0  0  0  0  0  0  0  0
   -3.7100   18.2500  -33.8680 N   0  0  0  0  0  0  0  0  0  0  0  0
   -4.7060   18.2150  -34.9480 C   0  0  0  0  0  0  0  0  0  0  0  0
   -6.0950   17.9310  -34.3640 C   0  0  0  0  0  0  0  0  0  0  0  0
   -6.1240   16.6980  -33.4070 C   0  0  0  0  0  0  0  0  0  0  0  0
   -6.8100   17.0700  -32.0690 C   0  0  0  0  0  0  0  0  0  0  0  0
   -7.3770   18.4680  -32.0710 C   0  0  0  0  0  0  0  0  0  0  0  0
   -8.7340   18.6820  -32.3600 C   0  0  0  0  0  0  0  0  0  0  0  0
   -9.2630   19.9770  -32.3400 C   0  0  0  0  0  0  0  0  0  0  0  0
   -8.4430   21.0650  -32.0250 C   0  0  0  0  0  0  0  0  0  0  0  0
   -7.0930   20.8610  -31.7330 C   0  0  0  0  0  0  0  0  0  0  0  0
   -6.5590   19.5690  -31.7560 C   0  0  0  0  0  0  0  0  0  0  0  0
   -4.7180   16.0790  -33.1980 C   0  0  0  0  0  0  0  0  0  0  0  0
   -3.6610   17.1470  -32.8930 C   0  0  0  0  0  0  0  0  0  0  0  0
   -0.7200   20.3880  -34.9093 H   0  0  0  0  0  0  0  0  0  0  0  0
    1.6407   20.2389  -34.1263 H   0  0  0  0  0  0  0  0  0  0  0  0
    2.6730   19.0330  -30.8430 H   0  0  0  0  0  0  0  0  0  0  0  0
   -1.5267   20.0738  -27.1335 H   0  0  0  0  0  0  0  0  0  0  0  0
   -2.9105   22.1457  -27.2227 H   0  0  0  0  0  0  0  0  0  0  0  0
   -3.2108   23.1231  -31.8233 H   0  0  0  0  0  0  0  0  0  0  0  0
   -4.0924   22.4656  -30.4326 H   0  0  0  0  0  0  0  0  0  0  0  0
   -5.1431   23.6892  -32.9733 H   0  0  0  0  0  0  0  0  0  0  0  0
   -5.9166   22.4892  -31.9340 H   0  0  0  0  0  0  0  0  0  0  0  0
   -6.3218   25.3706  -31.9506 H   0  0  0  0  0  0  0  0  0  0  0  0
   -7.0997   24.2104  -30.8695 H   0  0  0  0  0  0  0  0  0  0  0  0
   -5.2464   26.1306  -30.0454 H   0  0  0  0  0  0  0  0  0  0  0  0
   -5.5500   24.6359  -29.1414 H   0  0  0  0  0  0  0  0  0  0  0  0
   -0.7790   23.4180  -30.7693 H   0  0  0  0  0  0  0  0  0  0  0  0
    0.5988   21.3420  -30.6866 H   0  0  0  0  0  0  0  0  0  0  0  0
   -2.0472   18.4351  -31.2788 H   0  0  0  0  0  0  0  0  0  0  0  0
   -4.7186   19.1859  -35.4648 H   0  0  0  0  0  0  0  0  0  0  0  0
   -4.4418   17.4196  -35.6604 H   0  0  0  0  0  0  0  0  0  0  0  0
   -6.4247   18.8170  -33.8015 H   0  0  0  0  0  0  0  0  0  0  0  0
   -6.7622   17.7030  -35.2083 H   0  0  0  0  0  0  0  0  0  0  0  0
   -6.7253   15.9121  -33.8874 H   0  0  0  0  0  0  0  0  0  0  0  0
   -7.6288   16.3590  -31.8844 H   0  0  0  0  0  0  0  0  0  0  0  0
   -6.0442   17.0246  -31.2806 H   0  0  0  0  0  0  0  0  0  0  0  0
   -9.3838   17.8283  -32.6031 H   0  0  0  0  0  0  0  0  0  0  0  0
  -10.3258   20.1396  -32.5725 H   0  0  0  0  0  0  0  0  0  0  0  0
   -8.8617   22.0820  -32.0073 H   0  0  0  0  0  0  0  0  0  0  0  0
   -6.4490   21.7175  -31.4846 H   0  0  0  0  0  0  0  0  0  0  0  0
   -5.4946   19.4124  -31.5268 H   0  0  0  0  0  0  0  0  0  0  0  0
   -4.7624   15.3724  -32.3561 H   0  0  0  0  0  0  0  0  0  0  0  0
   -4.4285   15.5700  -34.1292 H   0  0  0  0  0  0  0  0  0  0  0  0
   -3.8421   17.5517  -31.8863 H   0  0  0  0  0  0  0  0  0  0  0  0
   -2.6684   16.6769  -32.9538 H   0  0  0  0  0  0  0  0  0  0  0  0
  1  2  2  0
  2  3  1  0
  3  4  2  0
  4  5  1  0
  5  6  2  0
  6  7  1  0
  6  8  1  0
  8  9  1  0
  9 10  1  0
 10 11  2  0
 10 12  2  0
 10 13  1  0
 13 14  2  0
 14 15  1  0
 15 16  2  0
 16 17  1  0
 17 18  2  0
 17 19  2  0
 17 20  1  0
 20 21  1  0
 21 22  1  0
 22 23  1  0
 23 24  1  0
 16 25  1  0
 25 26  2  0
  8 27  2  0
  2 28  1  0
 28 29  1  0
 29 30  1  0
 30 31  1  0
 31 32  1  0
 32 33  1  0
 33 34  2  0
 34 35  1  0
 35 36  2  0
 36 37  1  0
 37 38  2  0
 31 39  1  0
 39 40  1  0
 27  3  1  0
 40 28  1  0
 26 13  1  0
 38 33  1  0
 24 20  1  0
  4 41  1  0
  5 42  1  0
  7 43  1  0
 14 44  1  0
 15 45  1  0
 21 46  1  0
 21 47  1  0
 22 48  1  0
 22 49  1  0
 23 50  1  0
 23 51  1  0
 24 52  1  0
 24 53  1  0
 25 54  1  0
 26 55  1  0
 27 56  1  0
 29 57  1  0
 29 58  1  0
 30 59  1  0
 30 60  1  0
 31 61  1  0
 32 62  1  0
 32 63  1  0
 34 64  1  0
 35 65  1  0
 36 66  1  0
 37 67  1  0
 38 68  1  0
 39 69  1  0
 39 70  1  0
 40 71  1  0
 40 72  1  0
M  CHG  1   9  -1
M  END
>  <UniqueID>  (50) 
48

>  <SMILES>  (50) 
O=C(c1ccc(O)c([N-]S(=O)(=O)c2ccc(S(=O)(=O)N3CCCC3)cc2)c1)N1CCC(Cc2ccccc2)CC1

>  <Energy>  (50) 
93.4432256393119

>  <Genealogy>  (50) 
O=C(c1ccc(O)c([N-]S(=O)(=O)c2ccc(S(=O)(=O)N3CCCC3)cc2)c1)N1CCC(Cc2ccccc2)CC1 (protonated)
O=C(c1ccc(O)c([N-]S(=O)(=O)c2ccc(S(=O)(=O)N3CCCC3)cc2)c1)N1CCC(Cc2ccccc2)CC1 (3D coordinates assigned)
O=C(c1ccc(O)c([N-]S(=O)(=O)c2ccc(S(=O)(=O)N3CCCC3)cc2)c1)N1CCC(Cc2ccccc2)CC1 (nonaromatic ring conformer: 93.4432256393119 kcal/mol)

>  <smiles>  (50) 
O=C(c1ccc(O)c(NS(=O)(=O)c2ccc(S(=O)(=O)N3CCCC3)cc2)c1)N1CCC(Cc2ccccc2)CC1

>  <score_type>  (50) 
oracle

>  <origin>  (50) 
adgpu

>  <m_score__min__energy>  (50) 
-13.380000000000001

>  <m_primary>  (50) 
energy

$$$$
