0:0
     RDKit          3D

 67 72  0  0  0  0  0  0  0  0999 V2000
   -5.8316   25.9063  -30.7646 H   0  0  0  0  0  0  0  0  0  0  0  0
   -5.1720   25.0260  -30.7610 C   0  0  0  0  0  0  0  0  0  0  0  0
   -3.9480   25.1040  -30.1860 N   0  0  0  0  0  0  0  0  0  0  0  0
   -3.1200   24.0340  -30.1060 C   0  0  0  0  0  0  0  0  0  0  0  0
   -1.8920   24.1750  -29.4480 C   0  0  0  0  0  0  0  0  0  0  0  0
   -1.5841   25.1618  -29.0720 H   0  0  0  0  0  0  0  0  0  0  0  0
   -1.0570   23.0740  -29.2660 C   0  0  0  0  0  0  0  0  0  0  0  0
   -0.0755   23.2034  -28.7865 H   0  0  0  0  0  0  0  0  0  0  0  0
   -1.4650   21.8000  -29.6930 C   0  0  0  0  0  0  0  0  0  0  0  0
   -0.5870   20.6150  -29.4980 C   0  0  0  0  0  0  0  0  0  0  0  0
    0.2340   20.5130  -28.3610 C   0  0  0  0  0  0  0  0  0  0  0  0
    0.2796   21.3451  -27.6430 H   0  0  0  0  0  0  0  0  0  0  0  0
    0.9920   19.3610  -28.1380 C   0  0  0  0  0  0  0  0  0  0  0  0
    1.6225   19.2858  -27.2398 H   0  0  0  0  0  0  0  0  0  0  0  0
    0.9530   18.3070  -29.0480 C   0  0  0  0  0  0  0  0  0  0  0  0
    1.5312   17.3918  -28.8529 H   0  0  0  0  0  0  0  0  0  0  0  0
    0.1810   18.4100  -30.2080 C   0  0  0  0  0  0  0  0  0  0  0  0
    0.2020   17.3320  -31.1470 N   0  0  0  0  0  0  0  0  0  0  0  0
    1.2040   17.3010  -32.5670 S   0  0  0  0  0  0  0  0  0  0  0  0
    0.9680   16.0540  -33.3680 O   0  0  0  0  0  0  0  0  0  0  0  0
    2.6390   17.3110  -32.1200 O   0  0  0  0  0  0  0  0  0  0  0  0
    0.8840   18.7260  -33.5560 C   0  0  0  0  0  0  0  0  0  0  0  0
    0.9700   20.0140  -33.0030 C   0  0  0  0  0  0  0  0  0  0  0  0
    1.2467   20.1395  -31.9458 H   0  0  0  0  0  0  0  0  0  0  0  0
    0.7050   21.1370  -33.7920 C   0  0  0  0  0  0  0  0  0  0  0  0
    0.7712   22.1438  -33.3538 H   0  0  0  0  0  0  0  0  0  0  0  0
    0.3560   20.9830  -35.1370 C   0  0  0  0  0  0  0  0  0  0  0  0
    0.1460   21.8680  -35.7556 H   0  0  0  0  0  0  0  0  0  0  0  0
    0.2740   19.7060  -35.6950 C   0  0  0  0  0  0  0  0  0  0  0  0
   -0.0016   19.5853  -36.7530 H   0  0  0  0  0  0  0  0  0  0  0  0
    0.5420   18.5800  -34.9100 C   0  0  0  0  0  0  0  0  0  0  0  0
    0.4846   17.5757  -35.3552 H   0  0  0  0  0  0  0  0  0  0  0  0
   -0.6030   19.5560  -30.4210 C   0  0  0  0  0  0  0  0  0  0  0  0
   -1.2351   19.6248  -31.3186 H   0  0  0  0  0  0  0  0  0  0  0  0
   -2.7110   21.6580  -30.3310 C   0  0  0  0  0  0  0  0  0  0  0  0
   -3.0681   20.6516  -30.5948 H   0  0  0  0  0  0  0  0  0  0  0  0
   -3.5150   22.7800  -30.6410 C   0  0  0  0  0  0  0  0  0  0  0  0
   -4.7450   22.7140  -31.3790 C   0  0  0  0  0  0  0  0  0  0  0  0
   -5.1140   21.6980  -32.1250 N   0  0  0  0  0  0  0  0  0  0  0  0
   -4.3470   20.5770  -32.5850 C   0  0  0  0  0  0  0  0  0  0  0  0
   -4.7490   19.2640  -32.2940 C   0  0  0  0  0  0  0  0  0  0  0  0
   -5.6129   19.0872  -31.6364 H   0  0  0  0  0  0  0  0  0  0  0  0
   -4.0540   18.1820  -32.8380 C   0  0  0  0  0  0  0  0  0  0  0  0
   -4.3842   17.1550  -32.6229 H   0  0  0  0  0  0  0  0  0  0  0  0
   -2.9320   18.4000  -33.6610 C   0  0  0  0  0  0  0  0  0  0  0  0
   -2.2510   17.3510  -34.2950 O   0  0  0  0  0  0  0  0  0  0  0  0
   -2.8820   16.1830  -34.8100 C   0  0  0  0  0  0  0  0  0  0  0  0
   -3.8535   16.4534  -35.2495 H   0  0  0  0  0  0  0  0  0  0  0  0
   -2.2453   15.7307  -35.5846 H   0  0  0  0  0  0  0  0  0  0  0  0
   -3.0920   15.2010  -33.6940 C   0  0  0  0  0  0  0  0  0  0  0  0
   -1.9940   14.6190  -33.0400 C   0  0  0  0  0  0  0  0  0  0  0  0
   -0.9709   14.8760  -33.3518 H   0  0  0  0  0  0  0  0  0  0  0  0
   -2.1970   13.7140  -31.9940 C   0  0  0  0  0  0  0  0  0  0  0  0
   -1.3341   13.2550  -31.4893 H   0  0  0  0  0  0  0  0  0  0  0  0
   -3.4950   13.3920  -31.5890 C   0  0  0  0  0  0  0  0  0  0  0  0
   -3.6533   12.6760  -30.7691 H   0  0  0  0  0  0  0  0  0  0  0  0
   -4.5920   13.9790  -32.2250 C   0  0  0  0  0  0  0  0  0  0  0  0
   -5.6132   13.7293  -31.9013 H   0  0  0  0  0  0  0  0  0  0  0  0
   -4.3930   14.8830  -33.2720 C   0  0  0  0  0  0  0  0  0  0  0  0
   -5.2586   15.3471  -33.7673 H   0  0  0  0  0  0  0  0  0  0  0  0
   -2.4840   19.7110  -33.8710 C   0  0  0  0  0  0  0  0  0  0  0  0
   -1.5763   19.8891  -34.4662 H   0  0  0  0  0  0  0  0  0  0  0  0
   -3.1830   20.7950  -33.3290 C   0  0  0  0  0  0  0  0  0  0  0  0
   -2.8166   21.8199  -33.4882 H   0  0  0  0  0  0  0  0  0  0  0  0
   -5.6010   23.8350  -31.3490 C   0  0  0  0  0  0  0  0  0  0  0  0
   -6.8960   23.8130  -31.9930 C   0  0  0  0  0  0  0  0  0  0  0  0
   -7.9330   23.7970  -32.5090 N   0  0  0  0  0  0  0  0  0  0  0  0
  1  2  1  0
  2  3  1  0
  3  4  1  0
  4  5  2  0
  5  6  1  0
  5  7  1  0
  7  8  1  0
  7  9  2  0
  9 10  1  0
 10 11  2  0
 11 12  1  0
 11 13  1  0
 13 14  1  0
 13 15  2  0
 15 16  1  0
 15 17  1  0
 17 18  1  0
 18 19  1  0
 19 20  2  0
 19 21  2  0
 19 22  1  0
 22 23  2  0
 23 24  1  0
 23 25  1  0
 25 26  1  0
 25 27  2  0
 27 28  1  0
 27 29  1  0
 29 30  1  0
 29 31  2  0
 31 32  1  0
 17 33  2  0
 33 34  1  0
  9 35  1  0
 35 36  1  0
 35 37  2  0
 37 38  1  0
 38 39  2  0
 39 40  1  0
 40 41  2  0
 41 42  1  0
 41 43  1  0
 43 44  1  0
 43 45  2  0
 45 46  1  0
 46 47  1  0
 47 48  1  0
 47 49  1  0
 47 50  1  0
 50 51  2  0
 51 52  1  0
 51 53  1  0
 53 54  1  0
 53 55  2  0
 55 56  1  0
 55 57  1  0
 57 58  1  0
 57 59  2  0
 59 60  1  0
 45 61  1  0
 61 62  1  0
 61 63  2  0
 63 64  1  0
 38 65  1  0
 65 66  1  0
 66 67  3  0
 65  2  2  0
 37  4  1  0
 63 40  1  0
 33 10  1  0
 59 50  1  0
 31 22  1  0
M  CHG  2   3  -1  18  -1
M  END
>  <UniqueID>  (1) 
1

>  <SMILES>  (1) 
N#Cc1c[n-]c2ccc(-c3cccc([N-]S(=O)(=O)c4ccccc4)c3)cc2/c1=N\c1ccc(OCc2ccccc2)cc1

>  <Energy>  (1) 
111.22688368737133

>  <Genealogy>  (1) 
N#Cc1c[n-]c2ccc(-c3cccc([N-]S(=O)(=O)c4ccccc4)c3)cc2c1=Nc1ccc(OCc2ccccc2)cc1 (protonated)
N#Cc1c[n-]c2ccc(-c3cccc([N-]S(=O)(=O)c4ccccc4)c3)cc2/c1=N\c1ccc(OCc2ccccc2)cc1 (cis-trans isomerization)
N#Cc1c[n-]c2ccc(-c3cccc([N-]S(=O)(=O)c4ccccc4)c3)cc2/c1=N\c1ccc(OCc2ccccc2)cc1 (3D coordinates assigned)
N#Cc1c[n-]c2ccc(-c3cccc([N-]S(=O)(=O)c4ccccc4)c3)cc2/c1=N\c1ccc(OCc2ccccc2)cc1 (optimized conformer: 111.22688368737133 kcal/mol)

>  <smiles>  (1) 
N#Cc1c[nH]c2ccc(-c3cccc(NS(=O)(=O)c4ccccc4)c3)cc2c1=Nc1ccc(OCc2ccccc2)cc1

>  <score_type>  (1) 
oracle

>  <origin>  (1) 
adgpu

>  <m_score__min__energy>  (1) 
-12.140000000000001

>  <m_primary>  (1) 
energy

$$$$
1:0
     RDKit          3D

 49 51  0  0  0  0  0  0  0  0999 V2000
   -3.5880   16.6310  -35.2980 C   0  0  0  0  0  0  0  0  0  0  0  0
   -2.2210   16.7960  -34.6410 C   0  0  0  0  0  0  0  0  0  0  0  0
   -1.7810   18.1510  -34.7200 O   0  0  0  0  0  0  0  0  0  0  0  0
   -2.1770   19.1900  -33.8620 C   0  0  0  0  0  0  0  0  0  0  0  0
   -3.2520   19.0690  -32.9600 C   0  0  0  0  0  0  0  0  0  0  0  0
   -3.6010   20.1390  -32.1320 C   0  0  0  0  0  0  0  0  0  0  0  0
   -2.9010   21.3510  -32.2000 C   0  0  0  0  0  0  0  0  0  0  0  0
   -3.2660   22.4290  -31.3190 N   0  0  0  0  0  0  0  0  0  0  0  0
   -4.5770   23.0210  -31.2660 C   0  0  0  0  0  0  0  0  0  0  0  0
   -5.7080   22.2820  -31.6560 C   0  0  0  0  0  0  0  0  0  0  0  0
   -6.9820   22.8490  -31.5850 C   0  0  0  0  0  0  0  0  0  0  0  0
   -7.1400   24.1550  -31.1220 C   0  0  0  0  0  0  0  0  0  0  0  0
   -6.0270   24.8940  -30.7130 C   0  0  0  0  0  0  0  0  0  0  0  0
   -4.7400   24.3250  -30.7560 C   0  0  0  0  0  0  0  0  0  0  0  0
   -3.5740   25.0730  -30.3750 N   0  0  0  0  0  0  0  0  0  0  0  0
   -2.6200   24.7310  -29.3610 C   0  0  0  0  0  0  0  0  0  0  0  0
   -2.6000   23.5740  -28.8660 O   0  0  0  0  0  0  0  0  0  0  0  0
   -1.6030   25.6640  -28.9810 N   0  0  0  0  0  0  0  0  0  0  0  0
   -0.9890   25.7590  -27.6870 C   0  0  0  0  0  0  0  0  0  0  0  0
   -0.8680   26.9860  -27.0120 C   0  0  0  0  0  0  0  0  0  0  0  0
   -0.2770   27.0350  -25.7470 C   0  0  0  0  0  0  0  0  0  0  0  0
    0.1810   25.8640  -25.1400 C   0  0  0  0  0  0  0  0  0  0  0  0
    0.0430   24.6300  -25.7850 C   0  0  0  0  0  0  0  0  0  0  0  0
    0.5070   23.4800  -25.1290 O   0  0  0  0  0  0  0  0  0  0  0  0
   -0.1920   22.8150  -24.0820 C   0  0  0  0  0  0  0  0  0  0  0  0
   -0.5540   24.5830  -27.0610 C   0  0  0  0  0  0  0  0  0  0  0  0
   -1.8190   21.4670  -33.0890 C   0  0  0  0  0  0  0  0  0  0  0  0
   -1.4680   20.3960  -33.9160 C   0  0  0  0  0  0  0  0  0  0  0  0
   -4.3599   16.5378  -34.5199 H   0  0  0  0  0  0  0  0  0  0  0  0
   -3.8025   17.5098  -35.9239 H   0  0  0  0  0  0  0  0  0  0  0  0
   -3.5872   15.7264  -35.9239 H   0  0  0  0  0  0  0  0  0  0  0  0
   -2.2910   16.5007  -33.5837 H   0  0  0  0  0  0  0  0  0  0  0  0
   -1.4967   16.1588  -35.1694 H   0  0  0  0  0  0  0  0  0  0  0  0
   -3.8193   18.1280  -32.9072 H   0  0  0  0  0  0  0  0  0  0  0  0
   -4.4326   20.0290  -31.4205 H   0  0  0  0  0  0  0  0  0  0  0  0
   -2.5310   22.8050  -30.6770 H   0  0  0  0  0  0  0  0  0  0  0  0
   -5.5883   21.2507  -32.0193 H   0  0  0  0  0  0  0  0  0  0  0  0
   -7.8615   22.2653  -31.8944 H   0  0  0  0  0  0  0  0  0  0  0  0
   -8.1431   24.6043  -31.0787 H   0  0  0  0  0  0  0  0  0  0  0  0
   -6.1571   25.9261  -30.3554 H   0  0  0  0  0  0  0  0  0  0  0  0
   -1.2393   27.9093  -27.4806 H   0  0  0  0  0  0  0  0  0  0  0  0
   -0.1722   27.9990  -25.2277 H   0  0  0  0  0  0  0  0  0  0  0  0
    0.6536   25.9119  -24.1478 H   0  0  0  0  0  0  0  0  0  0  0  0
    0.1805   23.1694  -23.1096 H   0  0  0  0  0  0  0  0  0  0  0  0
   -1.2674   23.0316  -24.1637 H   0  0  0  0  0  0  0  0  0  0  0  0
   -0.0292   21.7302  -24.1637 H   0  0  0  0  0  0  0  0  0  0  0  0
   -0.6795   23.6157  -27.5694 H   0  0  0  0  0  0  0  0  0  0  0  0
   -1.2457   22.4047  -33.1344 H   0  0  0  0  0  0  0  0  0  0  0  0
   -0.6263   20.5019  -34.6162 H   0  0  0  0  0  0  0  0  0  0  0  0
  1  2  1  0
  2  3  1  0
  3  4  1  0
  4  5  2  0
  5  6  1  0
  6  7  2  0
  7  8  1  0
  8  9  1  0
  9 10  2  0
 10 11  1  0
 11 12  2  0
 12 13  1  0
 13 14  2  0
 14 15  1  0
 15 16  1  0
 16 17  2  0
 16 18  1  0
 18 19  1  0
 19 20  2  0
 20 21  1  0
 21 22  2  0
 22 23  1  0
 23 24  1  0
 24 25  1  0
 23 26  2  0
  7 27  1  0
 27 28  2  0
 28  4  1  0
 14  9  1  0
 26 19  1  0
  1 29  1  0
  1 30  1  0
  1 31  1  0
  2 32  1  0
  2 33  1  0
  5 34  1  0
  6 35  1  0
  8 36  1  0
 10 37  1  0
 11 38  1  0
 12 39  1  0
 13 40  1  0
 20 41  1  0
 21 42  1  0
 22 43  1  0
 25 44  1  0
 25 45  1  0
 25 46  1  0
 26 47  1  0
 27 48  1  0
 28 49  1  0
M  CHG  2  15  -1  18  -1
M  END
>  <UniqueID>  (2) 
2

>  <SMILES>  (2) 
CCOc1ccc(Nc2ccccc2[N-]C(=O)[N-]c2cccc(OC)c2)cc1

>  <Energy>  (2) 
60.95999196632638

>  <Genealogy>  (2) 
CCOc1ccc(Nc2ccccc2[N-]C(=O)[N-]c2cccc(OC)c2)cc1 (protonated)
CCOc1ccc(Nc2ccccc2[N-]C(=O)[N-]c2cccc(OC)c2)cc1 (3D coordinates assigned)
CCOc1ccc(Nc2ccccc2[N-]C(=O)[N-]c2cccc(OC)c2)cc1 (optimized conformer: 60.95999196632638 kcal/mol)

>  <smiles>  (2) 
CCOc1ccc(Nc2ccccc2NC(=O)Nc2cccc(OC)c2)cc1

>  <score_type>  (2) 
oracle

>  <origin>  (2) 
adgpu

>  <m_score__min__energy>  (2) 
-10.25

>  <m_primary>  (2) 
energy

$$$$
2:0
     RDKit          3D

 35 37  0  0  0  0  0  0  0  0999 V2000
   -9.3310   18.9210  -32.3310 C   0  0  0  0  0  0  0  0  0  0  0  0
   -8.4330   20.1220  -32.3580 C   0  0  0  0  0  0  0  0  0  0  0  0
   -7.0870   19.9900  -32.7310 C   0  0  0  0  0  0  0  0  0  0  0  0
   -6.2390   21.1020  -32.7220 C   0  0  0  0  0  0  0  0  0  0  0  0
   -6.7200   22.3620  -32.3200 C   0  0  0  0  0  0  0  0  0  0  0  0
   -5.8740   23.5270  -32.2900 N   0  0  0  0  0  0  0  0  0  0  0  0
   -5.1860   24.1880  -30.8400 S   0  0  0  0  0  0  0  0  0  0  0  0
   -6.2850   24.7440  -29.9800 O   0  0  0  0  0  0  0  0  0  0  0  0
   -4.2420   25.2980  -31.2070 O   0  0  0  0  0  0  0  0  0  0  0  0
   -4.3470   22.9280  -29.9400 C   0  0  0  0  0  0  0  0  0  0  0  0
   -4.2480   23.0130  -28.5460 C   0  0  0  0  0  0  0  0  0  0  0  0
   -3.5960   22.0100  -27.8230 C   0  0  0  0  0  0  0  0  0  0  0  0
   -3.0290   20.9050  -28.4850 C   0  0  0  0  0  0  0  0  0  0  0  0
   -2.3540   19.8600  -27.7550 N   0  0  0  0  0  0  0  0  0  0  0  0
   -1.0870   19.4210  -27.8790 C   0  0  0  0  0  0  0  0  0  0  0  0
   -0.8620   18.4270  -27.0000 N   0  0  0  0  0  0  0  0  0  0  0  0
   -2.0040   18.2710  -26.3460 N   0  0  0  0  0  0  0  0  0  0  0  0
   -2.9040   19.1320  -26.7980 N   0  0  0  0  0  0  0  0  0  0  0  0
   -3.1280   20.8310  -29.8860 C   0  0  0  0  0  0  0  0  0  0  0  0
   -3.7810   21.8350  -30.6080 C   0  0  0  0  0  0  0  0  0  0  0  0
   -8.0640   22.4850  -31.9370 C   0  0  0  0  0  0  0  0  0  0  0  0
   -8.9130   21.3740  -31.9480 C   0  0  0  0  0  0  0  0  0  0  0  0
   -9.5394   18.6423  -31.2875 H   0  0  0  0  0  0  0  0  0  0  0  0
  -10.2754   19.1577  -32.8429 H   0  0  0  0  0  0  0  0  0  0  0  0
   -8.8368   18.0821  -32.8429 H   0  0  0  0  0  0  0  0  0  0  0  0
   -6.6966   19.0067  -33.0321 H   0  0  0  0  0  0  0  0  0  0  0  0
   -5.1892   20.9911  -33.0312 H   0  0  0  0  0  0  0  0  0  0  0  0
   -5.7120   24.0590  -33.1740 H   0  0  0  0  0  0  0  0  0  0  0  0
   -4.6852   23.8729  -28.0174 H   0  0  0  0  0  0  0  0  0  0  0  0
   -3.5255   22.0849  -26.7278 H   0  0  0  0  0  0  0  0  0  0  0  0
   -0.3474   19.8154  -28.5914 H   0  0  0  0  0  0  0  0  0  0  0  0
   -2.6876   19.9753  -30.4189 H   0  0  0  0  0  0  0  0  0  0  0  0
   -3.8503   21.7660  -31.7036 H   0  0  0  0  0  0  0  0  0  0  0  0
   -8.4538   23.4651  -31.6250 H   0  0  0  0  0  0  0  0  0  0  0  0
   -9.9616   21.4826  -31.6338 H   0  0  0  0  0  0  0  0  0  0  0  0
  1  2  1  0
  2  3  2  0
  3  4  1  0
  4  5  2  0
  5  6  1  0
  6  7  1  0
  7  8  2  0
  7  9  2  0
  7 10  1  0
 10 11  2  0
 11 12  1  0
 12 13  2  0
 13 14  1  0
 14 15  1  0
 15 16  2  0
 16 17  1  0
 17 18  2  0
 13 19  1  0
 19 20  2  0
  5 21  1  0
 21 22  2  0
 22  2  1  0
 20 10  1  0
 18 14  1  0
  1 23  1  0
  1 24  1  0
  1 25  1  0
  3 26  1  0
  4 27  1  0
  6 28  1  0
 11 29  1  0
 12 30  1  0
 15 31  1  0
 19 32  1  0
 20 33  1  0
 21 34  1  0
 22 35  1  0
M  END
>  <UniqueID>  (3) 
3

>  <SMILES>  (3) 
Cc1ccc(NS(=O)(=O)c2ccc(-n3cnnn3)cc2)cc1

>  <Energy>  (3) 
81.10241135919469

>  <Genealogy>  (3) 
Cc1ccc(NS(=O)(=O)c2ccc(-n3cnnn3)cc2)cc1 (3D coordinates assigned)
Cc1ccc(NS(=O)(=O)c2ccc(-n3cnnn3)cc2)cc1 (optimized conformer: 81.10241135919469 kcal/mol)

>  <smiles>  (3) 
Cc1ccc(NS(=O)(=O)c2ccc(-n3cnnn3)cc2)cc1

>  <score_type>  (3) 
oracle

>  <origin>  (3) 
adgpu

>  <m_score__min__energy>  (3) 
-8.9600000000000009

>  <m_primary>  (3) 
energy

$$$$
3:0
     RDKit          3D

 49 52  0  0  0  0  0  0  0  0999 V2000
    1.9430   27.3070  -23.6130 N   0  0  0  0  0  0  0  0  0  0  0  0
    0.2440   27.4370  -23.8950 S   0  0  0  0  0  0  0  0  0  0  0  0
   -0.0780   28.8230  -24.3760 O   0  0  0  0  0  0  0  0  0  0  0  0
   -0.4990   27.1870  -22.6110 O   0  0  0  0  0  0  0  0  0  0  0  0
   -0.2450   26.2550  -25.1050 C   0  0  0  0  0  0  0  0  0  0  0  0
   -0.7240   26.6800  -26.3500 C   0  0  0  0  0  0  0  0  0  0  0  0
   -1.1230   25.7440  -27.3090 C   0  0  0  0  0  0  0  0  0  0  0  0
   -1.0630   24.3680  -27.0270 C   0  0  0  0  0  0  0  0  0  0  0  0
   -1.4430   23.3840  -28.0040 N   0  0  0  0  0  0  0  0  0  0  0  0
   -2.1440   23.6940  -29.2210 C   0  0  0  0  0  0  0  0  0  0  0  0
   -2.7450   24.7950  -29.3440 O   0  0  0  0  0  0  0  0  0  0  0  0
   -2.2090   22.7210  -30.3230 C   0  0  0  0  0  0  0  0  0  0  0  0
   -3.3260   22.0200  -30.7430 C   0  0  0  0  0  0  0  0  0  0  0  0
   -2.8650   21.2210  -31.7720 C   0  0  0  0  0  0  0  0  0  0  0  0
   -3.6720   20.1980  -32.4720 C   0  0  0  0  0  0  0  0  0  0  0  0
   -3.1370   18.9310  -32.7510 C   0  0  0  0  0  0  0  0  0  0  0  0
   -3.9110   17.9690  -33.4050 C   0  0  0  0  0  0  0  0  0  0  0  0
   -5.2280   18.2510  -33.7770 C   0  0  0  0  0  0  0  0  0  0  0  0
   -6.1520   16.9990  -34.5980 Cl  0  0  0  0  0  0  0  0  0  0  0  0
   -5.7850   19.5140  -33.4850 C   0  0  0  0  0  0  0  0  0  0  0  0
   -7.1340   19.8350  -33.8460 N   0  0  0  0  0  0  0  0  0  0  0  0
   -5.0010   20.4760  -32.8280 C   0  0  0  0  0  0  0  0  0  0  0  0
   -1.5420   21.4620  -31.9470 N   0  0  0  0  0  0  0  0  0  0  0  0
   -0.6690   20.9250  -32.9540 C   0  0  0  0  0  0  0  0  0  0  0  0
    0.2810   19.9380  -32.6340 C   0  0  0  0  0  0  0  0  0  0  0  0
    1.1150   19.4140  -33.6270 C   0  0  0  0  0  0  0  0  0  0  0  0
    0.9980   19.8580  -34.9480 C   0  0  0  0  0  0  0  0  0  0  0  0
    2.1380   19.1400  -36.3010 Br  0  0  0  0  0  0  0  0  0  0  0  0
    0.0410   20.8230  -35.2770 C   0  0  0  0  0  0  0  0  0  0  0  0
   -0.7940   21.3490  -34.2870 C   0  0  0  0  0  0  0  0  0  0  0  0
   -1.1420   22.3650  -31.0650 N   0  0  0  0  0  0  0  0  0  0  0  0
   -0.5670   23.9470  -25.7840 C   0  0  0  0  0  0  0  0  0  0  0  0
   -0.1690   24.8850  -24.8260 C   0  0  0  0  0  0  0  0  0  0  0  0
    2.0680   27.0870  -22.5990 H   0  0  0  0  0  0  0  0  0  0  0  0
   -0.7867   27.7550  -26.5747 H   0  0  0  0  0  0  0  0  0  0  0  0
   -1.4858   26.0861  -28.2895 H   0  0  0  0  0  0  0  0  0  0  0  0
   -1.2900   22.3780  -27.7670 H   0  0  0  0  0  0  0  0  0  0  0  0
   -4.3502   22.0844  -30.3469 H   0  0  0  0  0  0  0  0  0  0  0  0
   -2.1047   18.6944  -32.4538 H   0  0  0  0  0  0  0  0  0  0  0  0
   -3.4802   16.9819  -33.6288 H   0  0  0  0  0  0  0  0  0  0  0  0
   -7.8890   19.8370  -33.1260 H   0  0  0  0  0  0  0  0  0  0  0  0
   -7.4010   20.0730  -34.8260 H   0  0  0  0  0  0  0  0  0  0  0  0
   -5.4334   21.4589  -32.5895 H   0  0  0  0  0  0  0  0  0  0  0  0
    0.3683   19.5769  -31.5986 H   0  0  0  0  0  0  0  0  0  0  0  0
    1.8643   18.6513  -33.3685 H   0  0  0  0  0  0  0  0  0  0  0  0
   -0.0549   21.1688  -36.3168 H   0  0  0  0  0  0  0  0  0  0  0  0
   -1.5531   22.0991  -34.5535 H   0  0  0  0  0  0  0  0  0  0  0  0
   -0.4907   22.8724  -25.5615 H   0  0  0  0  0  0  0  0  0  0  0  0
    0.2053   24.5450  -23.8491 H   0  0  0  0  0  0  0  0  0  0  0  0
  1  2  1  0
  2  3  2  0
  2  4  2  0
  2  5  1  0
  5  6  2  0
  6  7  1  0
  7  8  2  0
  8  9  1  0
  9 10  1  0
 10 11  2  0
 10 12  1  0
 12 13  1  0
 13 14  2  0
 14 15  1  0
 15 16  2  0
 16 17  1  0
 17 18  2  0
 18 19  1  0
 18 20  1  0
 20 21  1  0
 20 22  2  0
 14 23  1  0
 23 24  1  0
 24 25  2  0
 25 26  1  0
 26 27  2  0
 27 28  1  0
 27 29  1  0
 29 30  2  0
 23 31  1  0
  8 32  1  0
 32 33  2  0
 33  5  1  0
 31 12  2  0
 22 15  1  0
 30 24  1  0
  1 34  1  0
  6 35  1  0
  7 36  1  0
  9 37  1  0
 13 38  1  0
 16 39  1  0
 17 40  1  0
 21 41  1  0
 21 42  1  0
 22 43  1  0
 25 44  1  0
 26 45  1  0
 29 46  1  0
 30 47  1  0
 32 48  1  0
 33 49  1  0
M  CHG  1   1  -1
M  END
>  <UniqueID>  (4) 
4

>  <SMILES>  (4) 
[NH-]S(=O)(=O)c1ccc(NC(=O)c2cc(-c3ccc(Cl)c(N)c3)n(-c3ccc(Br)cc3)n2)cc1

>  <Energy>  (4) 
95.7562717822639

>  <Genealogy>  (4) 
[NH-]S(=O)(=O)c1ccc(NC(=O)c2cc(-c3ccc(Cl)c(N)c3)n(-c3ccc(Br)cc3)n2)cc1 (protonated)
[NH-]S(=O)(=O)c1ccc(NC(=O)c2cc(-c3ccc(Cl)c(N)c3)n(-c3ccc(Br)cc3)n2)cc1 (3D coordinates assigned)
[NH-]S(=O)(=O)c1ccc(NC(=O)c2cc(-c3ccc(Cl)c(N)c3)n(-c3ccc(Br)cc3)n2)cc1 (optimized conformer: 95.7562717822639 kcal/mol)

>  <smiles>  (4) 
Nc1cc(-c2cc(C(=O)Nc3ccc(S(N)(=O)=O)cc3)nn2-c2ccc(Br)cc2)ccc1Cl

>  <score_type>  (4) 
oracle

>  <origin>  (4) 
adgpu

>  <m_score__min__energy>  (4) 
-8.3900000000000006

>  <m_primary>  (4) 
energy

$$$$
4:0
     RDKit          3D

 58 61  0  0  0  0  0  0  0  0999 V2000
   -0.5400   21.4020  -31.3210 C   0  0  0  0  0  0  0  0  0  0  0  0
   -0.1590   21.2840  -29.9540 O   0  0  0  0  0  0  0  0  0  0  0  0
   -0.9900   20.7860  -28.9360 C   0  0  0  0  0  0  0  0  0  0  0  0
   -0.8940   19.4570  -28.4770 C   0  0  0  0  0  0  0  0  0  0  0  0
   -1.7550   18.9910  -27.4800 C   0  0  0  0  0  0  0  0  0  0  0  0
   -2.7190   19.8390  -26.9340 C   0  0  0  0  0  0  0  0  0  0  0  0
   -2.8220   21.1580  -27.3770 C   0  0  0  0  0  0  0  0  0  0  0  0
   -1.9540   21.6390  -28.3680 C   0  0  0  0  0  0  0  0  0  0  0  0
   -2.0950   23.0320  -28.8350 C   0  0  0  0  0  0  0  0  0  0  0  0
   -1.2670   24.0950  -28.4710 C   0  0  0  0  0  0  0  0  0  0  0  0
   -0.0700   24.0270  -27.6010 C   0  0  0  0  0  0  0  0  0  0  0  0
    1.0710   24.2050  -28.1040 O   0  0  0  0  0  0  0  0  0  0  0  0
   -0.1590   23.6530  -26.1450 C   0  0  0  0  0  0  0  0  0  0  0  0
   -0.5760   24.8580  -25.2760 C   0  0  0  0  0  0  0  0  0  0  0  0
   -1.9940   25.3410  -25.6210 C   0  0  0  0  0  0  0  0  0  0  0  0
    0.4250   26.0070  -25.4500 C   0  0  0  0  0  0  0  0  0  0  0  0
   -1.8530   25.2250  -29.0200 C   0  0  0  0  0  0  0  0  0  0  0  0
   -1.3760   26.5290  -28.9670 O   0  0  0  0  0  0  0  0  0  0  0  0
   -2.9970   24.8210  -29.6650 C   0  0  0  0  0  0  0  0  0  0  0  0
   -3.8640   25.6590  -30.3570 O   0  0  0  0  0  0  0  0  0  0  0  0
   -3.1550   23.4860  -29.5510 N   0  0  0  0  0  0  0  0  0  0  0  0
   -4.2490   22.7120  -30.0740 C   0  0  0  0  0  0  0  0  0  0  0  0
   -4.0010   21.5870  -30.8740 C   0  0  0  0  0  0  0  0  0  0  0  0
   -5.0630   20.8440  -31.3980 C   0  0  0  0  0  0  0  0  0  0  0  0
   -6.3940   21.2120  -31.1290 C   0  0  0  0  0  0  0  0  0  0  0  0
   -7.5220   20.4270  -31.6890 C   0  0  0  0  0  0  0  0  0  0  0  0
   -8.7530   21.0480  -31.9770 C   0  0  0  0  0  0  0  0  0  0  0  0
   -9.8140   20.3070  -32.5050 C   0  0  0  0  0  0  0  0  0  0  0  0
   -9.6600   18.9400  -32.7510 C   0  0  0  0  0  0  0  0  0  0  0  0
   -8.4460   18.3120  -32.4700 C   0  0  0  0  0  0  0  0  0  0  0  0
   -7.3800   19.0480  -31.9420 C   0  0  0  0  0  0  0  0  0  0  0  0
   -6.6360   22.3360  -30.3200 C   0  0  0  0  0  0  0  0  0  0  0  0
   -5.5740   23.0770  -29.7960 C   0  0  0  0  0  0  0  0  0  0  0  0
   -1.5891   21.7269  -31.3825 H   0  0  0  0  0  0  0  0  0  0  0  0
    0.1031   22.1431  -31.8182 H   0  0  0  0  0  0  0  0  0  0  0  0
   -0.4283   20.4272  -31.8182 H   0  0  0  0  0  0  0  0  0  0  0  0
   -0.1375   18.7832  -28.9057 H   0  0  0  0  0  0  0  0  0  0  0  0
   -1.6726   17.9532  -27.1248 H   0  0  0  0  0  0  0  0  0  0  0  0
   -3.3988   19.4672  -26.1532 H   0  0  0  0  0  0  0  0  0  0  0  0
   -3.5862   21.8226  -26.9477 H   0  0  0  0  0  0  0  0  0  0  0  0
   -0.9037   22.8522  -26.0266 H   0  0  0  0  0  0  0  0  0  0  0  0
    0.8344   23.3161  -25.8139 H   0  0  0  0  0  0  0  0  0  0  0  0
   -0.5765   24.5290  -24.2264 H   0  0  0  0  0  0  0  0  0  0  0  0
   -2.5526   25.5313  -24.6927 H   0  0  0  0  0  0  0  0  0  0  0  0
   -1.9325   26.2689  -26.2086 H   0  0  0  0  0  0  0  0  0  0  0  0
   -2.5117   24.5685  -26.2086 H   0  0  0  0  0  0  0  0  0  0  0  0
    0.7416   26.3704  -24.4612 H   0  0  0  0  0  0  0  0  0  0  0  0
    1.3029   25.6474  -26.0068 H   0  0  0  0  0  0  0  0  0  0  0  0
   -0.0515   26.8273  -26.0068 H   0  0  0  0  0  0  0  0  0  0  0  0
   -2.9649   21.2876  -31.0904 H   0  0  0  0  0  0  0  0  0  0  0  0
   -4.8563   19.9646  -32.0257 H   0  0  0  0  0  0  0  0  0  0  0  0
   -8.8802   22.1236  -31.7850 H   0  0  0  0  0  0  0  0  0  0  0  0
  -10.7716   20.8006  -32.7272 H   0  0  0  0  0  0  0  0  0  0  0  0
  -10.4963   18.3587  -33.1664 H   0  0  0  0  0  0  0  0  0  0  0  0
   -8.3270   17.2358  -32.6641 H   0  0  0  0  0  0  0  0  0  0  0  0
   -6.4253   18.5474  -31.7230 H   0  0  0  0  0  0  0  0  0  0  0  0
   -7.6710   22.6347  -30.0976 H   0  0  0  0  0  0  0  0  0  0  0  0
   -5.7784   23.9520  -29.1615 H   0  0  0  0  0  0  0  0  0  0  0  0
  1  2  1  0
  2  3  1  0
  3  4  2  0
  4  5  1  0
  5  6  2  0
  6  7  1  0
  7  8  2  0
  8  9  1  0
  9 10  2  0
 10 11  1  0
 11 12  2  0
 11 13  1  0
 13 14  1  0
 14 15  1  0
 14 16  1  0
 10 17  1  0
 17 18  1  0
 17 19  2  0
 19 20  1  0
 19 21  1  0
 21 22  1  0
 22 23  2  0
 23 24  1  0
 24 25  2  0
 25 26  1  0
 26 27  2  0
 27 28  1  0
 28 29  2  0
 29 30  1  0
 30 31  2  0
 25 32  1  0
 32 33  2  0
  8  3  1  0
 21  9  1  0
 33 22  1  0
 31 26  1  0
  1 34  1  0
  1 35  1  0
  1 36  1  0
  4 37  1  0
  5 38  1  0
  6 39  1  0
  7 40  1  0
 13 41  1  0
 13 42  1  0
 14 43  1  0
 15 44  1  0
 15 45  1  0
 15 46  1  0
 16 47  1  0
 16 48  1  0
 16 49  1  0
 23 50  1  0
 24 51  1  0
 27 52  1  0
 28 53  1  0
 29 54  1  0
 30 55  1  0
 31 56  1  0
 32 57  1  0
 33 58  1  0
M  CHG  2  18  -1  20  -1
M  END
>  <UniqueID>  (5) 
5

>  <SMILES>  (5) 
COc1ccccc1-c1c(C(=O)CC(C)C)c([O-])c([O-])n1-c1ccc(-c2ccccc2)cc1

>  <Energy>  (5) 
104.45623647821117

>  <Genealogy>  (5) 
COc1ccccc1-c1c(C(=O)CC(C)C)c([O-])c([O-])n1-c1ccc(-c2ccccc2)cc1 (protonated)
COc1ccccc1-c1c(C(=O)CC(C)C)c([O-])c([O-])n1-c1ccc(-c2ccccc2)cc1 (3D coordinates assigned)
COc1ccccc1-c1c(C(=O)CC(C)C)c([O-])c([O-])n1-c1ccc(-c2ccccc2)cc1 (optimized conformer: 104.45623647821117 kcal/mol)

>  <smiles>  (5) 
COc1ccccc1-c1c(C(=O)CC(C)C)c(O)c(O)n1-c1ccc(-c2ccccc2)cc1

>  <score_type>  (5) 
oracle

>  <origin>  (5) 
adgpu

>  <m_score__min__energy>  (5) 
-15.390000000000001

>  <m_primary>  (5) 
energy

$$$$
5:0
     RDKit          3D

 59 62  0  0  0  0  0  0  0  0999 V2000
   -4.1240   24.5530  -26.3800 C   0  0  0  0  0  0  0  0  0  0  0  0
   -2.8000   25.1670  -26.7490 C   0  0  0  0  0  0  0  0  0  0  0  0
   -2.0670   25.8470  -25.7650 C   0  0  0  0  0  0  0  0  0  0  0  0
   -0.8520   26.4610  -26.0820 C   0  0  0  0  0  0  0  0  0  0  0  0
    0.0820   27.3110  -24.8540 S   0  0  0  0  0  0  0  0  0  0  0  0
    0.1240   28.7730  -25.1970 O   0  0  0  0  0  0  0  0  0  0  0  0
   -0.5680   27.1550  -23.5060 O   0  0  0  0  0  0  0  0  0  0  0  0
    1.7030   26.6860  -24.8060 N   0  0  0  0  0  0  0  0  0  0  0  0
    1.7180   25.3980  -24.1100 C   0  0  0  0  0  0  0  0  0  0  0  0
    1.1060   24.3430  -24.9880 C   0  0  0  0  0  0  0  0  0  0  0  0
    1.6220   24.1070  -26.2730 C   0  0  0  0  0  0  0  0  0  0  0  0
    1.0750   23.1020  -27.0790 C   0  0  0  0  0  0  0  0  0  0  0  0
    0.0180   22.3220  -26.6040 C   0  0  0  0  0  0  0  0  0  0  0  0
   -0.4900   22.5410  -25.3200 C   0  0  0  0  0  0  0  0  0  0  0  0
    0.0530   23.5430  -24.5110 C   0  0  0  0  0  0  0  0  0  0  0  0
   -0.3710   26.3730  -27.3900 C   0  0  0  0  0  0  0  0  0  0  0  0
   -1.0740   25.6920  -28.3310 N   0  0  0  0  0  0  0  0  0  0  0  0
   -2.2570   25.0760  -28.0550 C   0  0  0  0  0  0  0  0  0  0  0  0
   -2.9310   24.3440  -29.1480 C   0  0  0  0  0  0  0  0  0  0  0  0
   -2.3710   23.1550  -29.6380 C   0  0  0  0  0  0  0  0  0  0  0  0
   -3.0120   22.4380  -30.6520 C   0  0  0  0  0  0  0  0  0  0  0  0
   -4.2310   22.8900  -31.1800 C   0  0  0  0  0  0  0  0  0  0  0  0
   -4.9050   22.1330  -32.2070 N   0  0  0  0  0  0  0  0  0  0  0  0
   -4.1090   21.4360  -33.2200 C   0  0  0  0  0  0  0  0  0  0  0  0
   -6.3270   22.2750  -32.4090 C   0  0  0  0  0  0  0  0  0  0  0  0
   -6.8010   23.4050  -32.7130 O   0  0  0  0  0  0  0  0  0  0  0  0
   -7.2460   21.1180  -32.2810 C   0  0  0  0  0  0  0  0  0  0  0  0
   -6.7540   19.8050  -32.3990 C   0  0  0  0  0  0  0  0  0  0  0  0
   -7.6160   18.7120  -32.2760 C   0  0  0  0  0  0  0  0  0  0  0  0
   -8.9770   18.9160  -32.0420 C   0  0  0  0  0  0  0  0  0  0  0  0
   -9.8110   17.8530  -31.9230 F   0  0  0  0  0  0  0  0  0  0  0  0
   -9.4800   20.2150  -31.9350 C   0  0  0  0  0  0  0  0  0  0  0  0
   -8.6230   21.3140  -32.0570 C   0  0  0  0  0  0  0  0  0  0  0  0
   -9.1360   22.5640  -31.9280 F   0  0  0  0  0  0  0  0  0  0  0  0
   -4.8000   24.0700  -30.6750 C   0  0  0  0  0  0  0  0  0  0  0  0
   -4.1600   24.7880  -29.6620 C   0  0  0  0  0  0  0  0  0  0  0  0
   -4.2159   24.5104  -25.2847 H   0  0  0  0  0  0  0  0  0  0  0  0
   -4.9397   25.1648  -26.7928 H   0  0  0  0  0  0  0  0  0  0  0  0
   -4.1839   23.5352  -26.7928 H   0  0  0  0  0  0  0  0  0  0  0  0
   -2.4515   25.8974  -24.7356 H   0  0  0  0  0  0  0  0  0  0  0  0
    2.2710   27.3650  -24.2460 H   0  0  0  0  0  0  0  0  0  0  0  0
    2.7563   25.1212  -23.8746 H   0  0  0  0  0  0  0  0  0  0  0  0
    1.1383   25.4794  -23.1787 H   0  0  0  0  0  0  0  0  0  0  0  0
    2.4592   24.7144  -26.6473 H   0  0  0  0  0  0  0  0  0  0  0  0
    1.4778   22.9262  -28.0874 H   0  0  0  0  0  0  0  0  0  0  0  0
   -0.4146   21.5357  -27.2400 H   0  0  0  0  0  0  0  0  0  0  0  0
   -1.3193   21.9230  -24.9455 H   0  0  0  0  0  0  0  0  0  0  0  0
   -0.3446   23.7061  -23.4984 H   0  0  0  0  0  0  0  0  0  0  0  0
    0.5798   26.8566  -27.6586 H   0  0  0  0  0  0  0  0  0  0  0  0
   -1.4223   22.7849  -29.2220 H   0  0  0  0  0  0  0  0  0  0  0  0
   -2.5581   21.5136  -31.0386 H   0  0  0  0  0  0  0  0  0  0  0  0
   -3.3702   20.7890  -32.7245 H   0  0  0  0  0  0  0  0  0  0  0  0
   -4.7712   20.8221  -33.8481 H   0  0  0  0  0  0  0  0  0  0  0  0
   -3.5879   22.1735  -33.8481 H   0  0  0  0  0  0  0  0  0  0  0  0
   -5.6836   19.6378  -32.5894 H   0  0  0  0  0  0  0  0  0  0  0  0
   -7.2213   17.6890  -32.3637 H   0  0  0  0  0  0  0  0  0  0  0  0
  -10.5533   20.3741  -31.7542 H   0  0  0  0  0  0  0  0  0  0  0  0
   -5.7567   24.4317  -31.0800 H   0  0  0  0  0  0  0  0  0  0  0  0
   -4.6206   25.7048  -29.2654 H   0  0  0  0  0  0  0  0  0  0  0  0
  1  2  1  0
  2  3  2  0
  3  4  1  0
  4  5  1  0
  5  6  2  0
  5  7  2  0
  5  8  1  0
  8  9  1  0
  9 10  1  0
 10 11  2  0
 11 12  1  0
 12 13  2  0
 13 14  1  0
 14 15  2  0
  4 16  2  0
 16 17  1  0
 17 18  2  0
 18 19  1  0
 19 20  2  0
 20 21  1  0
 21 22  2  0
 22 23  1  0
 23 24  1  0
 23 25  1  0
 25 26  2  0
 25 27  1  0
 27 28  2  0
 28 29  1  0
 29 30  2  0
 30 31  1  0
 30 32  1  0
 32 33  2  0
 33 34  1  0
 22 35  1  0
 35 36  2  0
 18  2  1  0
 36 19  1  0
 15 10  1  0
 33 27  1  0
  1 37  1  0
  1 38  1  0
  1 39  1  0
  3 40  1  0
  8 41  1  0
  9 42  1  0
  9 43  1  0
 11 44  1  0
 12 45  1  0
 13 46  1  0
 14 47  1  0
 15 48  1  0
 16 49  1  0
 20 50  1  0
 21 51  1  0
 24 52  1  0
 24 53  1  0
 24 54  1  0
 28 55  1  0
 29 56  1  0
 32 57  1  0
 35 58  1  0
 36 59  1  0
M  END
>  <UniqueID>  (6) 
6

>  <SMILES>  (6) 
Cc1cc(S(=O)(=O)NCc2ccccc2)cnc1-c1ccc(N(C)C(=O)c2ccc(F)cc2F)cc1

>  <Energy>  (6) 
77.14747380418194

>  <Genealogy>  (6) 
Cc1cc(S(=O)(=O)NCc2ccccc2)cnc1-c1ccc(N(C)C(=O)c2ccc(F)cc2F)cc1 (3D coordinates assigned)
Cc1cc(S(=O)(=O)NCc2ccccc2)cnc1-c1ccc(N(C)C(=O)c2ccc(F)cc2F)cc1 (optimized conformer: 77.14747380418194 kcal/mol)

>  <smiles>  (6) 
Cc1cc(S(=O)(=O)NCc2ccccc2)cnc1-c1ccc(N(C)C(=O)c2ccc(F)cc2F)cc1

>  <score_type>  (6) 
oracle

>  <origin>  (6) 
adgpu

>  <m_score__min__energy>  (6) 
-10.41

>  <m_primary>  (6) 
energy

$$$$
6:0
     RDKit          3D

 29 30  0  0  0  0  0  0  0  0999 V2000
   -6.1220   25.6710  -29.4520 C   0  0  0  0  0  0  0  0  0  0  0  0
   -5.4530   24.8570  -30.5140 C   0  0  0  0  0  0  0  0  0  0  0  0
   -4.2640   25.1140  -30.8400 O   0  0  0  0  0  0  0  0  0  0  0  0
   -6.1740   23.7610  -31.1800 C   0  0  0  0  0  0  0  0  0  0  0  0
   -7.4900   23.7760  -31.5800 C   0  0  0  0  0  0  0  0  0  0  0  0
   -7.7430   22.6140  -32.1290 O   0  0  0  0  0  0  0  0  0  0  0  0
   -6.6400   21.8990  -32.0790 C   0  0  0  0  0  0  0  0  0  0  0  0
   -6.5050   20.5120  -32.6050 C   0  0  0  0  0  0  0  0  0  0  0  0
   -5.3530   20.1900  -33.3490 C   0  0  0  0  0  0  0  0  0  0  0  0
   -5.1710   18.9120  -33.8750 C   0  0  0  0  0  0  0  0  0  0  0  0
   -6.1400   17.9240  -33.6820 C   0  0  0  0  0  0  0  0  0  0  0  0
   -5.9240   16.5380  -34.2170 C   0  0  0  0  0  0  0  0  0  0  0  0
   -7.2810   18.2180  -32.9250 C   0  0  0  0  0  0  0  0  0  0  0  0
   -7.4820   19.5020  -32.3850 C   0  0  0  0  0  0  0  0  0  0  0  0
   -8.7330   19.7510  -31.5820 C   0  0  0  0  0  0  0  0  0  0  0  0
   -5.6240   22.5720  -31.4940 N   0  0  0  0  0  0  0  0  0  0  0  0
   -5.8185   25.3017  -28.4613 H   0  0  0  0  0  0  0  0  0  0  0  0
   -5.8258   26.7252  -29.5569 H   0  0  0  0  0  0  0  0  0  0  0  0
   -7.2136   25.5846  -29.5569 H   0  0  0  0  0  0  0  0  0  0  0  0
   -8.1984   24.6091  -31.4609 H   0  0  0  0  0  0  0  0  0  0  0  0
   -4.5849   20.9592  -33.5176 H   0  0  0  0  0  0  0  0  0  0  0  0
   -4.2594   18.6800  -34.4452 H   0  0  0  0  0  0  0  0  0  0  0  0
   -5.8143   15.8343  -33.3787 H   0  0  0  0  0  0  0  0  0  0  0  0
   -6.7871   16.2438  -34.8322 H   0  0  0  0  0  0  0  0  0  0  0  0
   -5.0123   16.5204  -34.8322 H   0  0  0  0  0  0  0  0  0  0  0  0
   -8.0316   17.4333  -32.7498 H   0  0  0  0  0  0  0  0  0  0  0  0
   -8.4954   19.7037  -30.5090 H   0  0  0  0  0  0  0  0  0  0  0  0
   -9.1329   20.7464  -31.8255 H   0  0  0  0  0  0  0  0  0  0  0  0
   -9.4836   18.9846  -31.8255 H   0  0  0  0  0  0  0  0  0  0  0  0
  1  2  1  0
  2  3  2  0
  2  4  1  0
  4  5  2  0
  5  6  1  0
  6  7  1  0
  7  8  1  0
  8  9  2  0
  9 10  1  0
 10 11  2  0
 11 12  1  0
 11 13  1  0
 13 14  2  0
 14 15  1  0
  7 16  2  0
 16  4  1  0
 14  8  1  0
  1 17  1  0
  1 18  1  0
  1 19  1  0
  5 20  1  0
  9 21  1  0
 10 22  1  0
 12 23  1  0
 12 24  1  0
 12 25  1  0
 13 26  1  0
 15 27  1  0
 15 28  1  0
 15 29  1  0
M  END
>  <UniqueID>  (7) 
7

>  <SMILES>  (7) 
CC(=O)c1coc(-c2ccc(C)cc2C)n1

>  <Energy>  (7) 
58.7594460951397

>  <Genealogy>  (7) 
CC(=O)c1coc(-c2ccc(C)cc2C)n1 (3D coordinates assigned)
CC(=O)c1coc(-c2ccc(C)cc2C)n1 (optimized conformer: 58.7594460951397 kcal/mol)

>  <smiles>  (7) 
CC(=O)c1coc(-c2ccc(C)cc2C)n1

>  <score_type>  (7) 
oracle

>  <origin>  (7) 
adgpu

>  <m_score__min__energy>  (7) 
-7.3499999999999996

>  <m_primary>  (7) 
energy

$$$$
7:0
     RDKit          3D

 37 39  0  0  0  0  0  0  0  0999 V2000
   -1.3626   22.0077  -30.7524 H   0  0  0  0  0  0  0  0  0  0  0  0
   -1.0730   22.0970  -29.6950 C   0  0  0  0  0  0  0  0  0  0  0  0
   -0.1550   23.0270  -29.3170 N   0  0  0  0  0  0  0  0  0  0  0  0
    0.2260   23.1710  -28.0180 C   0  0  0  0  0  0  0  0  0  0  0  0
    1.4170   24.4380  -27.5790 S   0  0  0  0  0  0  0  0  0  0  0  0
    0.2120   25.4920  -26.6950 C   0  0  0  0  0  0  0  0  0  0  0  0
    0.7244   26.0170  -25.8753 H   0  0  0  0  0  0  0  0  0  0  0  0
   -0.5907   24.8541  -26.2966 H   0  0  0  0  0  0  0  0  0  0  0  0
   -0.3890   26.4980  -27.6220 C   0  0  0  0  0  0  0  0  0  0  0  0
   -0.1220   27.7210  -27.4700 O   0  0  0  0  0  0  0  0  0  0  0  0
   -1.2360   26.0440  -28.6910 N   0  0  0  0  0  0  0  0  0  0  0  0
   -2.2690   25.2590  -28.6000 C   0  0  0  0  0  0  0  0  0  0  0  0
   -2.9950   24.9090  -29.6810 N   0  0  0  0  0  0  0  0  0  0  0  0
   -4.0550   24.1150  -29.3600 C   0  0  0  0  0  0  0  0  0  0  0  0
   -4.9860   23.6110  -30.4030 C   0  0  0  0  0  0  0  0  0  0  0  0
   -6.2360   24.2350  -30.5820 C   0  0  0  0  0  0  0  0  0  0  0  0
   -6.5161   25.0872  -29.9454 H   0  0  0  0  0  0  0  0  0  0  0  0
   -7.1230   23.7810  -31.5610 C   0  0  0  0  0  0  0  0  0  0  0  0
   -8.0933   24.2814  -31.6956 H   0  0  0  0  0  0  0  0  0  0  0  0
   -6.7830   22.6950  -32.3690 C   0  0  0  0  0  0  0  0  0  0  0  0
   -7.4799   22.3508  -33.1474 H   0  0  0  0  0  0  0  0  0  0  0  0
   -5.5560   22.0420  -32.1910 C   0  0  0  0  0  0  0  0  0  0  0  0
   -5.1770   20.8940  -33.0790 C   0  0  0  0  0  0  0  0  0  0  0  0
   -4.8919   20.0304  -32.4602 H   0  0  0  0  0  0  0  0  0  0  0  0
   -6.0335   20.6233  -33.7140 H   0  0  0  0  0  0  0  0  0  0  0  0
   -4.3277   21.1864  -33.7140 H   0  0  0  0  0  0  0  0  0  0  0  0
   -4.6560   22.5100  -31.2190 C   0  0  0  0  0  0  0  0  0  0  0  0
   -3.6833   22.0119  -31.0934 H   0  0  0  0  0  0  0  0  0  0  0  0
   -4.1680   23.8300  -27.9930 C   0  0  0  0  0  0  0  0  0  0  0  0
   -4.9458   23.2076  -27.5264 H   0  0  0  0  0  0  0  0  0  0  0  0
   -2.9100   24.6030  -27.1880 S   0  0  0  0  0  0  0  0  0  0  0  0
   -0.3210   22.3400  -27.0350 C   0  0  0  0  0  0  0  0  0  0  0  0
   -0.0105   22.4420  -25.9847 H   0  0  0  0  0  0  0  0  0  0  0  0
   -1.2660   21.3790  -27.4020 C   0  0  0  0  0  0  0  0  0  0  0  0
   -1.7082   20.7214  -26.6391 H   0  0  0  0  0  0  0  0  0  0  0  0
   -1.6480   21.2550  -28.7390 C   0  0  0  0  0  0  0  0  0  0  0  0
   -2.3934   20.5029  -29.0368 H   0  0  0  0  0  0  0  0  0  0  0  0
  1  2  1  0
  2  3  2  0
  3  4  1  0
  4  5  1  0
  5  6  1  0
  6  7  1  0
  6  8  1  0
  6  9  1  0
  9 10  2  0
  9 11  1  0
 11 12  2  0
 12 13  1  0
 13 14  1  0
 14 15  1  0
 15 16  2  0
 16 17  1  0
 16 18  1  0
 18 19  1  0
 18 20  2  0
 20 21  1  0
 20 22  1  0
 22 23  1  0
 23 24  1  0
 23 25  1  0
 23 26  1  0
 22 27  2  0
 27 28  1  0
 14 29  2  0
 29 30  1  0
 29 31  1  0
  4 32  2  0
 32 33  1  0
 32 34  1  0
 34 35  1  0
 34 36  2  0
 36 37  1  0
 36  2  1  0
 31 12  1  0
 27 15  1  0
M  CHG  1  13  -1
M  END
>  <UniqueID>  (8) 
8

>  <SMILES>  (8) 
Cc1cccc(-c2cs/c(=N\C(=O)CSc3ccccn3)[n-]2)c1

>  <Energy>  (8) 
69.24642891577234

>  <Genealogy>  (8) 
Cc1cccc(-c2csc(=NC(=O)CSc3ccccn3)[n-]2)c1 (protonated)
Cc1cccc(-c2cs/c(=N\C(=O)CSc3ccccn3)[n-]2)c1 (cis-trans isomerization)
Cc1cccc(-c2cs/c(=N\C(=O)CSc3ccccn3)[n-]2)c1 (3D coordinates assigned)
Cc1cccc(-c2cs/c(=N\C(=O)CSc3ccccn3)[n-]2)c1 (optimized conformer: 69.24642891577234 kcal/mol)

>  <smiles>  (8) 
Cc1cccc(-c2csc(=NC(=O)CSc3ccccn3)[nH]2)c1

>  <score_type>  (8) 
oracle

>  <origin>  (8) 
adgpu

>  <m_score__min__energy>  (8) 
-9.6099999999999994

>  <m_primary>  (8) 
energy

$$$$
8:0
     RDKit          3D

 48 50  0  0  0  0  0  0  0  0999 V2000
   -3.7210   15.1360  -33.5970 C   0  0  0  0  0  0  0  0  0  0  0  0
   -3.9690   16.6180  -33.6920 C   0  0  0  0  0  0  0  0  0  0  0  0
   -2.8670   17.4860  -33.6680 C   0  0  0  0  0  0  0  0  0  0  0  0
   -3.0480   18.8630  -33.7420 C   0  0  0  0  0  0  0  0  0  0  0  0
   -4.3300   19.3970  -33.8260 C   0  0  0  0  0  0  0  0  0  0  0  0
   -5.4540   18.5570  -33.8600 C   0  0  0  0  0  0  0  0  0  0  0  0
   -6.7700   19.1350  -33.8980 N   0  0  0  0  0  0  0  0  0  0  0  0
   -7.6160   19.5910  -32.4560 S   0  0  0  0  0  0  0  0  0  0  0  0
   -9.0950   19.5790  -32.7190 O   0  0  0  0  0  0  0  0  0  0  0  0
   -7.3130   18.6110  -31.3580 O   0  0  0  0  0  0  0  0  0  0  0  0
   -7.1390   21.2220  -31.9910 C   0  0  0  0  0  0  0  0  0  0  0  0
   -8.1220   22.1990  -31.7960 C   0  0  0  0  0  0  0  0  0  0  0  0
   -7.7580   23.5050  -31.4650 C   0  0  0  0  0  0  0  0  0  0  0  0
   -6.4110   23.8440  -31.3210 C   0  0  0  0  0  0  0  0  0  0  0  0
   -5.4140   22.8670  -31.4980 C   0  0  0  0  0  0  0  0  0  0  0  0
   -4.0180   23.1800  -31.3940 N   0  0  0  0  0  0  0  0  0  0  0  0
   -3.4130   24.0450  -30.4240 C   0  0  0  0  0  0  0  0  0  0  0  0
   -3.6200   25.2880  -30.4660 O   0  0  0  0  0  0  0  0  0  0  0  0
   -2.6270   23.4610  -29.3150 C   0  0  0  0  0  0  0  0  0  0  0  0
   -2.9720   22.1790  -28.8480 C   0  0  0  0  0  0  0  0  0  0  0  0
   -2.2970   21.6090  -27.7680 C   0  0  0  0  0  0  0  0  0  0  0  0
   -1.2670   22.3090  -27.1390 C   0  0  0  0  0  0  0  0  0  0  0  0
   -0.8990   23.5750  -27.5980 C   0  0  0  0  0  0  0  0  0  0  0  0
   -1.5560   24.1580  -28.6930 C   0  0  0  0  0  0  0  0  0  0  0  0
   -1.0810   25.4170  -29.1890 N   0  0  0  0  0  0  0  0  0  0  0  0
   -5.7860   21.5630  -31.8540 C   0  0  0  0  0  0  0  0  0  0  0  0
   -5.2780   17.1510  -33.8320 C   0  0  0  0  0  0  0  0  0  0  0  0
   -6.4810   16.2400  -33.9190 C   0  0  0  0  0  0  0  0  0  0  0  0
   -3.6714   14.8396  -32.5388 H   0  0  0  0  0  0  0  0  0  0  0  0
   -4.5410   14.5946  -34.0914 H   0  0  0  0  0  0  0  0  0  0  0  0
   -2.7694   14.8910  -34.0914 H   0  0  0  0  0  0  0  0  0  0  0  0
   -1.8502   17.0736  -33.5899 H   0  0  0  0  0  0  0  0  0  0  0  0
   -2.1748   19.5320  -33.7341 H   0  0  0  0  0  0  0  0  0  0  0  0
   -4.4640   20.4881  -33.8662 H   0  0  0  0  0  0  0  0  0  0  0  0
   -7.1930   19.4120  -34.8110 H   0  0  0  0  0  0  0  0  0  0  0  0
   -9.1848   21.9367  -31.9040 H   0  0  0  0  0  0  0  0  0  0  0  0
   -8.5346   24.2698  -31.3171 H   0  0  0  0  0  0  0  0  0  0  0  0
   -6.1288   24.8768  -31.0687 H   0  0  0  0  0  0  0  0  0  0  0  0
   -3.7822   21.6205  -29.3395 H   0  0  0  0  0  0  0  0  0  0  0  0
   -2.5773   20.6066  -27.4121 H   0  0  0  0  0  0  0  0  0  0  0  0
   -0.7442   21.8627  -26.2802 H   0  0  0  0  0  0  0  0  0  0  0  0
   -0.0863   24.1211  -27.0967 H   0  0  0  0  0  0  0  0  0  0  0  0
   -1.6150   25.9740  -29.8910 H   0  0  0  0  0  0  0  0  0  0  0  0
   -0.1160   25.7450  -28.9580 H   0  0  0  0  0  0  0  0  0  0  0  0
   -5.0108   20.8020  -32.0271 H   0  0  0  0  0  0  0  0  0  0  0  0
   -6.8204   15.9830  -32.9047 H   0  0  0  0  0  0  0  0  0  0  0  0
   -7.2912   16.7530  -34.4578 H   0  0  0  0  0  0  0  0  0  0  0  0
   -6.2068   15.3210  -34.4578 H   0  0  0  0  0  0  0  0  0  0  0  0
  1  2  1  0
  2  3  2  0
  3  4  1  0
  4  5  2  0
  5  6  1  0
  6  7  1  0
  7  8  1  0
  8  9  2  0
  8 10  2  0
  8 11  1  0
 11 12  2  0
 12 13  1  0
 13 14  2  0
 14 15  1  0
 15 16  1  0
 16 17  1  0
 17 18  2  0
 17 19  1  0
 19 20  2  0
 20 21  1  0
 21 22  2  0
 22 23  1  0
 23 24  2  0
 24 25  1  0
 15 26  2  0
  6 27  2  0
 27 28  1  0
 27  2  1  0
 26 11  1  0
 24 19  1  0
  1 29  1  0
  1 30  1  0
  1 31  1  0
  3 32  1  0
  4 33  1  0
  5 34  1  0
  7 35  1  0
 12 36  1  0
 13 37  1  0
 14 38  1  0
 20 39  1  0
 21 40  1  0
 22 41  1  0
 23 42  1  0
 25 43  1  0
 25 44  1  0
 26 45  1  0
 28 46  1  0
 28 47  1  0
 28 48  1  0
M  CHG  1  16  -1
M  END
>  <UniqueID>  (9) 
9

>  <SMILES>  (9) 
Cc1cccc(NS(=O)(=O)c2cccc([N-]C(=O)c3ccccc3N)c2)c1C

>  <Energy>  (9) 
65.11223333491135

>  <Genealogy>  (9) 
Cc1cccc(NS(=O)(=O)c2cccc([N-]C(=O)c3ccccc3N)c2)c1C (protonated)
Cc1cccc(NS(=O)(=O)c2cccc([N-]C(=O)c3ccccc3N)c2)c1C (3D coordinates assigned)
Cc1cccc(NS(=O)(=O)c2cccc([N-]C(=O)c3ccccc3N)c2)c1C (optimized conformer: 65.11223333491135 kcal/mol)

>  <smiles>  (9) 
Cc1cccc(NS(=O)(=O)c2cccc(NC(=O)c3ccccc3N)c2)c1C

>  <score_type>  (9) 
oracle

>  <origin>  (9) 
adgpu

>  <m_score__min__energy>  (9) 
-11.33

>  <m_primary>  (9) 
energy

$$$$
9:0
     RDKit          3D

 45 47  0  0  0  0  0  0  0  0999 V2000
   -1.4530   23.7970  -28.8820 C   0  0  0  0  0  0  0  0  0  0  0  0
   -2.1970   23.7650  -30.0950 O   0  0  0  0  0  0  0  0  0  0  0  0
   -3.5990   23.7870  -30.1720 C   0  0  0  0  0  0  0  0  0  0  0  0
   -4.3500   24.8860  -29.7100 C   0  0  0  0  0  0  0  0  0  0  0  0
   -5.7460   24.8620  -29.7650 C   0  0  0  0  0  0  0  0  0  0  0  0
   -6.4070   23.7430  -30.2760 C   0  0  0  0  0  0  0  0  0  0  0  0
   -5.6750   22.6490  -30.7400 C   0  0  0  0  0  0  0  0  0  0  0  0
   -4.2710   22.6660  -30.7020 C   0  0  0  0  0  0  0  0  0  0  0  0
   -3.5360   21.5330  -31.1960 N   0  0  0  0  0  0  0  0  0  0  0  0
   -2.4750   20.9730  -30.4070 C   0  0  0  0  0  0  0  0  0  0  0  0
   -2.7280   20.5650  -29.0900 C   0  0  0  0  0  0  0  0  0  0  0  0
   -1.7030   20.0270  -28.3060 C   0  0  0  0  0  0  0  0  0  0  0  0
   -0.4160   19.8950  -28.8330 C   0  0  0  0  0  0  0  0  0  0  0  0
    0.8680   19.2190  -27.8470 Cl  0  0  0  0  0  0  0  0  0  0  0  0
   -0.1510   20.3040  -30.1430 C   0  0  0  0  0  0  0  0  0  0  0  0
   -1.1730   20.8460  -30.9330 C   0  0  0  0  0  0  0  0  0  0  0  0
   -0.8770   21.2430  -32.2880 C   0  0  0  0  0  0  0  0  0  0  0  0
   -0.6390   21.5600  -33.3740 N   0  0  0  0  0  0  0  0  0  0  0  0
   -4.0190   20.7450  -32.6710 S   0  0  0  0  0  0  0  0  0  0  0  0
   -2.9960   19.7040  -33.0330 O   0  0  0  0  0  0  0  0  0  0  0  0
   -4.0940   21.7400  -33.7930 O   0  0  0  0  0  0  0  0  0  0  0  0
   -5.5970   19.9910  -32.4560 C   0  0  0  0  0  0  0  0  0  0  0  0
   -6.7460   20.6360  -32.9330 C   0  0  0  0  0  0  0  0  0  0  0  0
   -8.0060   20.0610  -32.7440 C   0  0  0  0  0  0  0  0  0  0  0  0
   -8.1290   18.8230  -32.0940 C   0  0  0  0  0  0  0  0  0  0  0  0
   -9.4820   18.2250  -31.8480 C   0  0  0  0  0  0  0  0  0  0  0  0
   -6.9770   18.1810  -31.6140 C   0  0  0  0  0  0  0  0  0  0  0  0
   -5.7180   18.7580  -31.8010 C   0  0  0  0  0  0  0  0  0  0  0  0
   -2.1443   23.7673  -28.0269 H   0  0  0  0  0  0  0  0  0  0  0  0
   -0.7812   22.9269  -28.8408 H   0  0  0  0  0  0  0  0  0  0  0  0
   -0.8584   24.7216  -28.8408 H   0  0  0  0  0  0  0  0  0  0  0  0
   -3.8341   25.7684  -29.3035 H   0  0  0  0  0  0  0  0  0  0  0  0
   -6.3249   25.7254  -29.4054 H   0  0  0  0  0  0  0  0  0  0  0  0
   -7.5062   23.7238  -30.3129 H   0  0  0  0  0  0  0  0  0  0  0  0
   -6.2006   21.7684  -31.1378 H   0  0  0  0  0  0  0  0  0  0  0  0
   -3.7396   20.6688  -28.6706 H   0  0  0  0  0  0  0  0  0  0  0  0
   -1.9100   19.7076  -27.2740 H   0  0  0  0  0  0  0  0  0  0  0  0
    0.8636   20.1999  -30.5551 H   0  0  0  0  0  0  0  0  0  0  0  0
   -6.6561   21.5984  -33.4581 H   0  0  0  0  0  0  0  0  0  0  0  0
   -8.9051   20.5810  -33.1062 H   0  0  0  0  0  0  0  0  0  0  0  0
   -9.6572   18.1476  -30.7648 H   0  0  0  0  0  0  0  0  0  0  0  0
  -10.2537   18.8659  -32.2994 H   0  0  0  0  0  0  0  0  0  0  0  0
   -9.5276   17.2229  -32.2994 H   0  0  0  0  0  0  0  0  0  0  0  0
   -7.0655   17.2190  -31.0880 H   0  0  0  0  0  0  0  0  0  0  0  0
   -4.8187   18.2425  -31.4327 H   0  0  0  0  0  0  0  0  0  0  0  0
  1  2  1  0
  2  3  1  0
  3  4  2  0
  4  5  1  0
  5  6  2  0
  6  7  1  0
  7  8  2  0
  8  9  1  0
  9 10  1  0
 10 11  2  0
 11 12  1  0
 12 13  2  0
 13 14  1  0
 13 15  1  0
 15 16  2  0
 16 17  1  0
 17 18  3  0
  9 19  1  0
 19 20  2  0
 19 21  2  0
 19 22  1  0
 22 23  2  0
 23 24  1  0
 24 25  2  0
 25 26  1  0
 25 27  1  0
 27 28  2  0
  8  3  1  0
 16 10  1  0
 28 22  1  0
  1 29  1  0
  1 30  1  0
  1 31  1  0
  4 32  1  0
  5 33  1  0
  6 34  1  0
  7 35  1  0
 11 36  1  0
 12 37  1  0
 15 38  1  0
 23 39  1  0
 24 40  1  0
 26 41  1  0
 26 42  1  0
 26 43  1  0
 27 44  1  0
 28 45  1  0
M  END
>  <UniqueID>  (10) 
10

>  <SMILES>  (10) 
COc1ccccc1N(c1ccc(Cl)cc1C#N)S(=O)(=O)c1ccc(C)cc1

>  <Energy>  (10) 
56.400060544662416

>  <Genealogy>  (10) 
COc1ccccc1N(c1ccc(Cl)cc1C#N)S(=O)(=O)c1ccc(C)cc1 (3D coordinates assigned)
COc1ccccc1N(c1ccc(Cl)cc1C#N)S(=O)(=O)c1ccc(C)cc1 (optimized conformer: 56.400060544662416 kcal/mol)

>  <smiles>  (10) 
COc1ccccc1N(c1ccc(Cl)cc1C#N)S(=O)(=O)c1ccc(C)cc1

>  <score_type>  (10) 
oracle

>  <origin>  (10) 
adgpu

>  <m_score__min__energy>  (10) 
-8.1500000000000004

>  <m_primary>  (10) 
energy

$$$$
10:0
     RDKit          3D

 28 30  0  0  0  0  0  0  0  0999 V2000
   -3.8380   25.3110  -30.8240 O   0  0  0  0  0  0  0  0  0  0  0  0
   -3.3050   24.4410  -29.8720 C   0  0  0  0  0  0  0  0  0  0  0  0
   -2.3350   24.9420  -28.9940 C   0  0  0  0  0  0  0  0  0  0  0  0
   -1.8250   24.1440  -27.9690 C   0  0  0  0  0  0  0  0  0  0  0  0
   -2.2810   22.8350  -27.8110 C   0  0  0  0  0  0  0  0  0  0  0  0
   -3.2320   22.3130  -28.6920 C   0  0  0  0  0  0  0  0  0  0  0  0
   -3.7370   23.0970  -29.7450 C   0  0  0  0  0  0  0  0  0  0  0  0
   -4.6820   22.4720  -30.6940 C   0  0  0  0  0  0  0  0  0  0  0  0
   -5.5850   23.1300  -31.5120 C   0  0  0  0  0  0  0  0  0  0  0  0
   -6.1610   22.1320  -32.2690 C   0  0  0  0  0  0  0  0  0  0  0  0
   -5.6040   20.9560  -31.9150 N   0  0  0  0  0  0  0  0  0  0  0  0
   -5.9090   19.6720  -32.4710 C   0  0  0  0  0  0  0  0  0  0  0  0
   -5.5510   19.3830  -33.7530 N   0  0  0  0  0  0  0  0  0  0  0  0
   -5.8290   18.1730  -34.3020 C   0  0  0  0  0  0  0  0  0  0  0  0
   -6.4920   17.2040  -33.5500 C   0  0  0  0  0  0  0  0  0  0  0  0
   -6.8640   15.6330  -34.2370 Cl  0  0  0  0  0  0  0  0  0  0  0  0
   -6.8540   17.5130  -32.2390 C   0  0  0  0  0  0  0  0  0  0  0  0
   -6.5570   18.7350  -31.7260 N   0  0  0  0  0  0  0  0  0  0  0  0
   -4.6990   21.1520  -30.9700 N   0  0  0  0  0  0  0  0  0  0  0  0
   -3.3030   25.6770  -31.6000 H   0  0  0  0  0  0  0  0  0  0  0  0
   -1.9722   25.9735  -29.1136 H   0  0  0  0  0  0  0  0  0  0  0  0
   -1.0633   24.5472  -27.2855 H   0  0  0  0  0  0  0  0  0  0  0  0
   -1.8914   22.2129  -26.9918 H   0  0  0  0  0  0  0  0  0  0  0  0
   -3.5885   21.2807  -28.5609 H   0  0  0  0  0  0  0  0  0  0  0  0
   -5.7959   24.2089  -31.5495 H   0  0  0  0  0  0  0  0  0  0  0  0
   -6.9416   22.2712  -33.0315 H   0  0  0  0  0  0  0  0  0  0  0  0
   -5.5316   17.9573  -35.3388 H   0  0  0  0  0  0  0  0  0  0  0  0
   -7.3788   16.7688  -31.6220 H   0  0  0  0  0  0  0  0  0  0  0  0
  1  2  1  0
  2  3  2  0
  3  4  1  0
  4  5  2  0
  5  6  1  0
  6  7  2  0
  7  8  1  0
  8  9  1  0
  9 10  2  0
 10 11  1  0
 11 12  1  0
 12 13  2  0
 13 14  1  0
 14 15  2  0
 15 16  1  0
 15 17  1  0
 17 18  2  0
 11 19  1  0
  7  2  1  0
 19  8  2  0
 18 12  1  0
  1 20  1  0
  3 21  1  0
  4 22  1  0
  5 23  1  0
  6 24  1  0
  9 25  1  0
 10 26  1  0
 14 27  1  0
 17 28  1  0
M  END
>  <UniqueID>  (11) 
11

>  <SMILES>  (11) 
Oc1ccccc1-c1ccn(-c2ncc(Cl)cn2)n1

>  <Energy>  (11) 
67.80194356425628

>  <Genealogy>  (11) 
Oc1ccccc1-c1ccn(-c2ncc(Cl)cn2)n1 (3D coordinates assigned)
Oc1ccccc1-c1ccn(-c2ncc(Cl)cn2)n1 (optimized conformer: 67.80194356425628 kcal/mol)

>  <smiles>  (11) 
Oc1ccccc1-c1ccn(-c2ncc(Cl)cn2)n1

>  <score_type>  (11) 
oracle

>  <origin>  (11) 
adgpu

>  <m_score__min__energy>  (11) 
-7.3899999999999997

>  <m_primary>  (11) 
energy

$$$$
11:0
     RDKit          3D

 33 35  0  0  0  0  0  0  0  0999 V2000
   -6.8730   23.7950  -31.9560 C   0  0  0  0  0  0  0  0  0  0  0  0
   -5.5220   23.9540  -31.3390 C   0  0  0  0  0  0  0  0  0  0  0  0
   -4.9870   25.1440  -30.9990 N   0  0  0  0  0  0  0  0  0  0  0  0
   -3.8130   24.9010  -30.4900 O   0  0  0  0  0  0  0  0  0  0  0  0
   -3.5540   23.6140  -30.4790 C   0  0  0  0  0  0  0  0  0  0  0  0
   -2.2870   23.0160  -29.9610 C   0  0  0  0  0  0  0  0  0  0  0  0
   -4.6250   22.9450  -31.0410 C   0  0  0  0  0  0  0  0  0  0  0  0
   -4.8140   21.4630  -31.1990 C   0  0  0  0  0  0  0  0  0  0  0  0
   -5.2580   21.1450  -32.5170 O   0  0  0  0  0  0  0  0  0  0  0  0
   -5.4280   19.8500  -33.0340 C   0  0  0  0  0  0  0  0  0  0  0  0
   -4.3500   19.1270  -33.5870 C   0  0  0  0  0  0  0  0  0  0  0  0
   -4.5340   17.8240  -34.0490 C   0  0  0  0  0  0  0  0  0  0  0  0
   -5.7880   17.2220  -33.9660 C   0  0  0  0  0  0  0  0  0  0  0  0
   -6.8670   17.9270  -33.4290 C   0  0  0  0  0  0  0  0  0  0  0  0
   -6.7050   19.2470  -32.9750 C   0  0  0  0  0  0  0  0  0  0  0  0
   -7.8390   19.9390  -32.4200 N   0  0  0  0  0  0  0  0  0  0  0  0
   -7.9330   20.6080  -31.2550 C   0  0  0  0  0  0  0  0  0  0  0  0
   -9.1600   21.1490  -31.1410 N   0  0  0  0  0  0  0  0  0  0  0  0
   -9.8000   20.8030  -32.2500 N   0  0  0  0  0  0  0  0  0  0  0  0
   -9.0050   20.0810  -33.0240 N   0  0  0  0  0  0  0  0  0  0  0  0
   -7.6301   23.7059  -31.1630 H   0  0  0  0  0  0  0  0  0  0  0  0
   -7.0969   24.6730  -32.5797 H   0  0  0  0  0  0  0  0  0  0  0  0
   -6.8869   22.8890  -32.5797 H   0  0  0  0  0  0  0  0  0  0  0  0
   -2.3012   23.0227  -28.8611 H   0  0  0  0  0  0  0  0  0  0  0  0
   -2.1967   21.9802  -30.3202 H   0  0  0  0  0  0  0  0  0  0  0  0
   -1.4300   23.6047  -30.3202 H   0  0  0  0  0  0  0  0  0  0  0  0
   -3.8568   20.9554  -31.0089 H   0  0  0  0  0  0  0  0  0  0  0  0
   -5.5759   21.1268  -30.4803 H   0  0  0  0  0  0  0  0  0  0  0  0
   -3.3566   19.5947  -33.6543 H   0  0  0  0  0  0  0  0  0  0  0  0
   -3.6870   17.2701  -34.4800 H   0  0  0  0  0  0  0  0  0  0  0  0
   -5.9279   16.1912  -34.3236 H   0  0  0  0  0  0  0  0  0  0  0  0
   -7.8532   17.4446  -33.3607 H   0  0  0  0  0  0  0  0  0  0  0  0
   -7.1290   20.6985  -30.5098 H   0  0  0  0  0  0  0  0  0  0  0  0
  1  2  1  0
  2  3  2  0
  3  4  1  0
  4  5  1  0
  5  6  1  0
  5  7  2  0
  7  8  1  0
  8  9  1  0
  9 10  1  0
 10 11  2  0
 11 12  1  0
 12 13  2  0
 13 14  1  0
 14 15  2  0
 15 16  1  0
 16 17  1  0
 17 18  2  0
 18 19  1  0
 19 20  2  0
  7  2  1  0
 15 10  1  0
 20 16  1  0
  1 21  1  0
  1 22  1  0
  1 23  1  0
  6 24  1  0
  6 25  1  0
  6 26  1  0
  8 27  1  0
  8 28  1  0
 11 29  1  0
 12 30  1  0
 13 31  1  0
 14 32  1  0
 17 33  1  0
M  END
>  <UniqueID>  (12) 
12

>  <SMILES>  (12) 
Cc1noc(C)c1COc1ccccc1-n1cnnn1

>  <Energy>  (12) 
106.2137300151008

>  <Genealogy>  (12) 
Cc1noc(C)c1COc1ccccc1-n1cnnn1 (3D coordinates assigned)
Cc1noc(C)c1COc1ccccc1-n1cnnn1 (optimized conformer: 106.2137300151008 kcal/mol)

>  <smiles>  (12) 
Cc1noc(C)c1COc1ccccc1-n1cnnn1

>  <score_type>  (12) 
oracle

>  <origin>  (12) 
adgpu

>  <m_score__min__energy>  (12) 
-8.3499999999999996

>  <m_primary>  (12) 
energy

$$$$
12:0
     RDKit          3D

 54 57  0  0  0  0  0  0  0  0999 V2000
   -6.8530   14.2020  -34.5740 C   0  0  0  0  0  0  0  0  0  0  0  0
   -5.4330   14.1290  -34.6650 O   0  0  0  0  0  0  0  0  0  0  0  0
   -4.5690   15.2350  -34.6060 C   0  0  0  0  0  0  0  0  0  0  0  0
   -4.9390   16.4310  -33.9680 C   0  0  0  0  0  0  0  0  0  0  0  0
   -4.0590   17.5220  -33.9210 C   0  0  0  0  0  0  0  0  0  0  0  0
   -4.4400   18.7910  -33.2540 C   0  0  0  0  0  0  0  0  0  0  0  0
   -3.5860   19.7840  -32.7940 C   0  0  0  0  0  0  0  0  0  0  0  0
   -4.4220   20.7310  -32.2330 C   0  0  0  0  0  0  0  0  0  0  0  0
   -3.9630   21.9290  -31.4980 C   0  0  0  0  0  0  0  0  0  0  0  0
   -2.7950   21.8720  -30.7210 C   0  0  0  0  0  0  0  0  0  0  0  0
   -2.3610   22.9960  -30.0140 C   0  0  0  0  0  0  0  0  0  0  0  0
   -3.0950   24.1860  -30.0650 C   0  0  0  0  0  0  0  0  0  0  0  0
   -2.6490   25.2970  -29.3580 O   0  0  0  0  0  0  0  0  0  0  0  0
   -4.2760   24.2490  -30.8230 C   0  0  0  0  0  0  0  0  0  0  0  0
   -5.0320   25.4190  -30.8840 O   0  0  0  0  0  0  0  0  0  0  0  0
   -4.7070   23.1210  -31.5300 C   0  0  0  0  0  0  0  0  0  0  0  0
   -5.7030   20.3160  -32.3780 N   0  0  0  0  0  0  0  0  0  0  0  0
   -6.9100   21.0150  -32.0250 C   0  0  0  0  0  0  0  0  0  0  0  0
   -7.8750   20.3830  -31.2250 C   0  0  0  0  0  0  0  0  0  0  0  0
   -9.0610   21.0460  -30.8930 C   0  0  0  0  0  0  0  0  0  0  0  0
   -9.2960   22.3400  -31.3660 C   0  0  0  0  0  0  0  0  0  0  0  0
   -8.3500   22.9690  -32.1790 C   0  0  0  0  0  0  0  0  0  0  0  0
   -7.1640   22.3080  -32.5150 C   0  0  0  0  0  0  0  0  0  0  0  0
   -5.7160   19.1420  -32.9890 N   0  0  0  0  0  0  0  0  0  0  0  0
   -2.7950   17.4000  -34.5180 C   0  0  0  0  0  0  0  0  0  0  0  0
   -2.4040   16.2110  -35.1640 C   0  0  0  0  0  0  0  0  0  0  0  0
   -1.1340   16.0980  -35.7540 O   0  0  0  0  0  0  0  0  0  0  0  0
   -0.2620   14.9810  -35.6160 C   0  0  0  0  0  0  0  0  0  0  0  0
   -3.3070   15.1190  -35.2110 C   0  0  0  0  0  0  0  0  0  0  0  0
   -3.0190   13.8920  -35.8380 O   0  0  0  0  0  0  0  0  0  0  0  0
   -3.4800   13.4590  -37.1140 C   0  0  0  0  0  0  0  0  0  0  0  0
   -2.7690   14.2290  -38.1740 C   0  0  0  0  0  0  0  0  0  0  0  0
   -1.5360   14.0550  -38.3660 O   0  0  0  0  0  0  0  0  0  0  0  0
   -3.4760   15.1030  -38.9900 O   0  0  0  0  0  0  0  0  0  0  0  0
   -7.1523   14.2174  -33.5156 H   0  0  0  0  0  0  0  0  0  0  0  0
   -7.2054   15.1194  -35.0681 H   0  0  0  0  0  0  0  0  0  0  0  0
   -7.2976   13.3255  -35.0681 H   0  0  0  0  0  0  0  0  0  0  0  0
   -5.9310   16.5126  -33.4997 H   0  0  0  0  0  0  0  0  0  0  0  0
   -2.4884   19.8112  -32.8610 H   0  0  0  0  0  0  0  0  0  0  0  0
   -2.2182   20.9368  -30.6686 H   0  0  0  0  0  0  0  0  0  0  0  0
   -1.4395   22.9453  -29.4155 H   0  0  0  0  0  0  0  0  0  0  0  0
   -4.9940   26.1220  -30.1560 H   0  0  0  0  0  0  0  0  0  0  0  0
   -5.6366   23.1676  -32.1162 H   0  0  0  0  0  0  0  0  0  0  0  0
   -7.6976   19.3615  -30.8575 H   0  0  0  0  0  0  0  0  0  0  0  0
   -9.8096   20.5484  -30.2589 H   0  0  0  0  0  0  0  0  0  0  0  0
  -10.2258   22.8631  -31.0981 H   0  0  0  0  0  0  0  0  0  0  0  0
   -8.5380   23.9854  -32.5554 H   0  0  0  0  0  0  0  0  0  0  0  0
   -6.4270   22.8019  -33.1653 H   0  0  0  0  0  0  0  0  0  0  0  0
   -2.0964   18.2488  -34.4808 H   0  0  0  0  0  0  0  0  0  0  0  0
   -0.0993   14.7726  -34.5483 H   0  0  0  0  0  0  0  0  0  0  0  0
   -0.7145   14.1010  -36.0966 H   0  0  0  0  0  0  0  0  0  0  0  0
    0.7015   15.2064  -36.0966 H   0  0  0  0  0  0  0  0  0  0  0  0
   -3.2728   12.3856  -37.2362 H   0  0  0  0  0  0  0  0  0  0  0  0
   -4.5638   13.6291  -37.1949 H   0  0  0  0  0  0  0  0  0  0  0  0
  1  2  1  0
  2  3  1  0
  3  4  2  0
  4  5  1  0
  5  6  1  0
  6  7  1  0
  7  8  2  0
  8  9  1  0
  9 10  2  0
 10 11  1  0
 11 12  2  0
 12 13  1  0
 12 14  1  0
 14 15  1  0
 14 16  2  0
  8 17  1  0
 17 18  1  0
 18 19  2  0
 19 20  1  0
 20 21  2  0
 21 22  1  0
 22 23  2  0
 17 24  1  0
  5 25  2  0
 25 26  1  0
 26 27  1  0
 27 28  1  0
 26 29  2  0
 29 30  1  0
 30 31  1  0
 31 32  1  0
 32 33  2  0
 32 34  1  0
 29  3  1  0
 24  6  2  0
 16  9  1  0
 23 18  1  0
  1 35  1  0
  1 36  1  0
  1 37  1  0
  4 38  1  0
  7 39  1  0
 10 40  1  0
 11 41  1  0
 15 42  1  0
 16 43  1  0
 19 44  1  0
 20 45  1  0
 21 46  1  0
 22 47  1  0
 23 48  1  0
 25 49  1  0
 28 50  1  0
 28 51  1  0
 28 52  1  0
 31 53  1  0
 31 54  1  0
M  CHG  2  13  -1  34  -1
M  END
>  <UniqueID>  (13) 
13

>  <SMILES>  (13) 
COc1cc(-c2cc(-c3ccc([O-])c(O)c3)n(-c3ccccc3)n2)cc(OC)c1OCC(=O)[O-]

>  <Energy>  (13) 
99.67088050502353

>  <Genealogy>  (13) 
COc1cc(-c2cc(-c3ccc([O-])c(O)c3)n(-c3ccccc3)n2)cc(OC)c1OCC(=O)[O-] (protonated)
COc1cc(-c2cc(-c3ccc([O-])c(O)c3)n(-c3ccccc3)n2)cc(OC)c1OCC(=O)[O-] (3D coordinates assigned)
COc1cc(-c2cc(-c3ccc([O-])c(O)c3)n(-c3ccccc3)n2)cc(OC)c1OCC(=O)[O-] (optimized conformer: 99.67088050502353 kcal/mol)

>  <smiles>  (13) 
COc1cc(-c2cc(-c3ccc(O)c(O)c3)n(-c3ccccc3)n2)cc(OC)c1OCC(=O)O

>  <score_type>  (13) 
oracle

>  <origin>  (13) 
adgpu

>  <m_score__min__energy>  (13) 
-9.5299999999999994

>  <m_primary>  (13) 
energy

$$$$
13:0
     RDKit          3D

 45 47  0  0  0  0  0  0  0  0999 V2000
   -2.5146   15.7376  -33.0064 H   0  0  0  0  0  0  0  0  0  0  0  0
   -3.1320   16.6170  -33.2420 C   0  0  0  0  0  0  0  0  0  0  0  0
   -2.5290   17.8650  -33.4230 C   0  0  0  0  0  0  0  0  0  0  0  0
   -1.4389   17.9670  -33.3172 H   0  0  0  0  0  0  0  0  0  0  0  0
   -3.3080   18.9880  -33.7390 C   0  0  0  0  0  0  0  0  0  0  0  0
   -2.6590   20.3300  -33.9060 C   0  0  0  0  0  0  0  0  0  0  0  0
   -2.4501   20.7620  -32.9162 H   0  0  0  0  0  0  0  0  0  0  0  0
   -1.7169   20.2150  -34.4621 H   0  0  0  0  0  0  0  0  0  0  0  0
   -3.3340   20.9971  -34.4621 H   0  0  0  0  0  0  0  0  0  0  0  0
   -4.7030   18.8550  -33.8420 C   0  0  0  0  0  0  0  0  0  0  0  0
   -5.3203   19.7353  -34.0744 H   0  0  0  0  0  0  0  0  0  0  0  0
   -5.3140   17.6050  -33.6500 C   0  0  0  0  0  0  0  0  0  0  0  0
   -6.7990   17.4530  -33.8240 C   0  0  0  0  0  0  0  0  0  0  0  0
   -7.0964   16.4318  -33.5435 H   0  0  0  0  0  0  0  0  0  0  0  0
   -7.0615   17.6413  -34.8755 H   0  0  0  0  0  0  0  0  0  0  0  0
   -7.5160   18.4340  -32.9550 C   0  0  0  0  0  0  0  0  0  0  0  0
   -8.2800   18.0780  -31.8990 N   0  0  0  0  0  0  0  0  0  0  0  0
   -8.7640   19.1230  -31.2300 N   0  0  0  0  0  0  0  0  0  0  0  0
   -9.3780   19.0120  -30.3920 H   0  0  0  0  0  0  0  0  0  0  0  0
   -8.3850   20.3160  -31.7330 C   0  0  0  0  0  0  0  0  0  0  0  0
   -8.7580   21.4460  -31.2030 N   0  0  0  0  0  0  0  0  0  0  0  0
   -8.4340   22.7760  -31.6440 C   0  0  0  0  0  0  0  0  0  0  0  0
   -9.2330   23.4240  -32.3750 O   0  0  0  0  0  0  0  0  0  0  0  0
   -7.1540   23.3990  -31.2230 C   0  0  0  0  0  0  0  0  0  0  0  0
   -7.1510   24.5600  -30.4330 C   0  0  0  0  0  0  0  0  0  0  0  0
   -8.1052   25.0111  -30.1231 H   0  0  0  0  0  0  0  0  0  0  0  0
   -5.9490   25.1460  -30.0380 C   0  0  0  0  0  0  0  0  0  0  0  0
   -5.9625   26.0531  -29.4159 H   0  0  0  0  0  0  0  0  0  0  0  0
   -4.7190   24.5860  -30.4290 C   0  0  0  0  0  0  0  0  0  0  0  0
   -3.4910   25.1520  -30.0550 O   0  0  0  0  0  0  0  0  0  0  0  0
   -2.5890   24.5780  -29.1160 C   0  0  0  0  0  0  0  0  0  0  0  0
   -2.9340   24.7975  -28.0948 H   0  0  0  0  0  0  0  0  0  0  0  0
   -2.5501   23.4886  -29.2637 H   0  0  0  0  0  0  0  0  0  0  0  0
   -1.5857   25.0041  -29.2637 H   0  0  0  0  0  0  0  0  0  0  0  0
   -4.7070   23.4270  -31.2180 C   0  0  0  0  0  0  0  0  0  0  0  0
   -3.4650   22.8910  -31.5930 O   0  0  0  0  0  0  0  0  0  0  0  0
   -2.8510   21.7620  -30.9790 C   0  0  0  0  0  0  0  0  0  0  0  0
   -2.9065   21.8641  -29.8852 H   0  0  0  0  0  0  0  0  0  0  0  0
   -3.3751   20.8459  -31.2888 H   0  0  0  0  0  0  0  0  0  0  0  0
   -1.7971   21.7041  -31.2888 H   0  0  0  0  0  0  0  0  0  0  0  0
   -5.9250   22.8350  -31.6090 C   0  0  0  0  0  0  0  0  0  0  0  0
   -5.9140   21.9221  -32.2226 H   0  0  0  0  0  0  0  0  0  0  0  0
   -7.3890   20.1110  -33.0840 S   0  0  0  0  0  0  0  0  0  0  0  0
   -4.5190   16.4850  -33.3600 C   0  0  0  0  0  0  0  0  0  0  0  0
   -4.9890   15.4997  -33.2251 H   0  0  0  0  0  0  0  0  0  0  0  0
  1  2  1  0
  2  3  2  0
  3  4  1  0
  3  5  1  0
  5  6  1  0
  6  7  1  0
  6  8  1  0
  6  9  1  0
  5 10  2  0
 10 11  1  0
 10 12  1  0
 12 13  1  0
 13 14  1  0
 13 15  1  0
 13 16  1  0
 16 17  2  0
 17 18  1  0
 18 19  1  0
 18 20  1  0
 20 21  2  0
 21 22  1  0
 22 23  2  0
 22 24  1  0
 24 25  2  0
 25 26  1  0
 25 27  1  0
 27 28  1  0
 27 29  2  0
 29 30  1  0
 30 31  1  0
 31 32  1  0
 31 33  1  0
 31 34  1  0
 29 35  1  0
 35 36  1  0
 36 37  1  0
 37 38  1  0
 37 39  1  0
 37 40  1  0
 35 41  2  0
 41 42  1  0
 20 43  1  0
 12 44  2  0
 44 45  1  0
 44  2  1  0
 43 16  1  0
 41 24  1  0
M  END
>  <UniqueID>  (14) 
14

>  <SMILES>  (14) 
COc1ccc(C(=O)/N=c2/[nH]nc(Cc3cccc(C)c3)s2)cc1OC

>  <Energy>  (14) 
81.45369398444683

>  <Genealogy>  (14) 
COc1ccc(C(=O)/N=c2/[nH]nc(Cc3cccc(C)c3)s2)cc1OC (cis-trans isomerization)
COc1ccc(C(=O)/N=c2/[nH]nc(Cc3cccc(C)c3)s2)cc1OC (3D coordinates assigned)
COc1ccc(C(=O)/N=c2/[nH]nc(Cc3cccc(C)c3)s2)cc1OC (optimized conformer: 81.45369398444683 kcal/mol)

>  <smiles>  (14) 
COc1ccc(C(=O)N=c2[nH]nc(Cc3cccc(C)c3)s2)cc1OC

>  <score_type>  (14) 
oracle

>  <origin>  (14) 
adgpu

>  <m_score__min__energy>  (14) 
-9.0399999999999991

>  <m_primary>  (14) 
energy

$$$$
14:0
     RDKit          3D

 38 40  0  0  0  0  0  0  0  0999 V2000
   -8.3300   18.8590  -32.3780 C   0  0  0  0  0  0  0  0  0  0  0  0
   -7.9980   20.1130  -32.9650 O   0  0  0  0  0  0  0  0  0  0  0  0
   -7.2910   21.1360  -32.3130 C   0  0  0  0  0  0  0  0  0  0  0  0
   -5.9050   21.3150  -32.4960 C   0  0  0  0  0  0  0  0  0  0  0  0
   -5.2300   22.3400  -31.8310 C   0  0  0  0  0  0  0  0  0  0  0  0
   -5.9250   23.2060  -30.9800 C   0  0  0  0  0  0  0  0  0  0  0  0
   -5.0660   24.4790  -30.1200 S   0  0  0  0  0  0  0  0  0  0  0  0
   -4.2680   25.3080  -31.0860 O   0  0  0  0  0  0  0  0  0  0  0  0
   -6.0510   25.3820  -29.4310 O   0  0  0  0  0  0  0  0  0  0  0  0
   -3.9920   23.7420  -28.9360 C   0  0  0  0  0  0  0  0  0  0  0  0
   -3.7850   22.3570  -28.9360 C   0  0  0  0  0  0  0  0  0  0  0  0
   -2.9040   21.7810  -28.0180 C   0  0  0  0  0  0  0  0  0  0  0  0
   -2.2220   22.5760  -27.0910 C   0  0  0  0  0  0  0  0  0  0  0  0
   -2.4520   23.9680  -27.0700 C   0  0  0  0  0  0  0  0  0  0  0  0
   -3.3170   24.5450  -28.0080 C   0  0  0  0  0  0  0  0  0  0  0  0
   -1.6770   25.0330  -25.8430 S   0  0  0  0  0  0  0  0  0  0  0  0
   -0.1400   24.0690  -25.7650 C   0  0  0  0  0  0  0  0  0  0  0  0
   -0.4820   22.6600  -25.2920 C   0  0  0  0  0  0  0  0  0  0  0  0
   -1.2720   21.9670  -26.2580 O   0  0  0  0  0  0  0  0  0  0  0  0
   -7.3000   23.0320  -30.7860 C   0  0  0  0  0  0  0  0  0  0  0  0
   -7.9890   22.0050  -31.4520 C   0  0  0  0  0  0  0  0  0  0  0  0
   -9.4650   21.8240  -31.2330 C   0  0  0  0  0  0  0  0  0  0  0  0
   -8.3061   18.9494  -31.2820 H   0  0  0  0  0  0  0  0  0  0  0  0
   -9.3384   18.5593  -32.6993 H   0  0  0  0  0  0  0  0  0  0  0  0
   -7.6020   18.0995  -32.6993 H   0  0  0  0  0  0  0  0  0  0  0  0
   -5.3514   20.6423  -33.1675 H   0  0  0  0  0  0  0  0  0  0  0  0
   -4.1472   22.4673  -31.9767 H   0  0  0  0  0  0  0  0  0  0  0  0
   -4.3169   21.7220  -29.6598 H   0  0  0  0  0  0  0  0  0  0  0  0
   -2.7451   20.6926  -28.0241 H   0  0  0  0  0  0  0  0  0  0  0  0
   -3.4671   25.6347  -28.0160 H   0  0  0  0  0  0  0  0  0  0  0  0
    0.3223   24.0247  -26.7622 H   0  0  0  0  0  0  0  0  0  0  0  0
    0.5685   24.5411  -25.0685 H   0  0  0  0  0  0  0  0  0  0  0  0
    0.4509   22.1017  -25.1247 H   0  0  0  0  0  0  0  0  0  0  0  0
   -1.0613   22.7372  -24.3601 H   0  0  0  0  0  0  0  0  0  0  0  0
   -7.8451   23.7043  -30.1071 H   0  0  0  0  0  0  0  0  0  0  0  0
   -9.6751   21.7982  -30.1536 H   0  0  0  0  0  0  0  0  0  0  0  0
  -10.0094   22.6621  -31.6926 H   0  0  0  0  0  0  0  0  0  0  0  0
   -9.7907   20.8792  -31.6926 H   0  0  0  0  0  0  0  0  0  0  0  0
  1  2  1  0
  2  3  1  0
  3  4  2  0
  4  5  1  0
  5  6  2  0
  6  7  1  0
  7  8  2  0
  7  9  2  0
  7 10  1  0
 10 11  2  0
 11 12  1  0
 12 13  2  0
 13 14  1  0
 14 15  2  0
 14 16  1  0
 16 17  1  0
 17 18  1  0
 18 19  1  0
  6 20  1  0
 20 21  2  0
 21 22  1  0
 21  3  1  0
 15 10  1  0
 19 13  1  0
  1 23  1  0
  1 24  1  0
  1 25  1  0
  4 26  1  0
  5 27  1  0
 11 28  1  0
 12 29  1  0
 15 30  1  0
 17 31  1  0
 17 32  1  0
 18 33  1  0
 18 34  1  0
 20 35  1  0
 22 36  1  0
 22 37  1  0
 22 38  1  0
M  END
>  <UniqueID>  (15) 
15

>  <SMILES>  (15) 
COc1ccc(S(=O)(=O)c2ccc3c(c2)SCCO3)cc1C

>  <Energy>  (15) 
45.400509731129524

>  <Genealogy>  (15) 
COc1ccc(S(=O)(=O)c2ccc3c(c2)SCCO3)cc1C (3D coordinates assigned)
COc1ccc(S(=O)(=O)c2ccc3c(c2)SCCO3)cc1C (nonaromatic ring conformer: 45.400509731129524 kcal/mol)

>  <smiles>  (15) 
COc1ccc(S(=O)(=O)c2ccc3c(c2)SCCO3)cc1C

>  <score_type>  (15) 
oracle

>  <origin>  (15) 
adgpu

>  <m_score__min__energy>  (15) 
-9.3399999999999999

>  <m_primary>  (15) 
energy

$$$$
15:0
     RDKit          3D

 53 55  0  0  0  0  0  0  0  0999 V2000
   -9.0620   19.0080  -32.3400 C   0  0  0  0  0  0  0  0  0  0  0  0
   -7.5700   18.6940  -32.2600 C   0  0  0  0  0  0  0  0  0  0  0  0
   -6.7810   19.7050  -32.9830 N   0  0  0  0  0  0  0  0  0  0  0  0
   -6.1290   19.3020  -34.2440 C   0  0  0  0  0  0  0  0  0  0  0  0
   -5.8840   17.7920  -34.3050 C   0  0  0  0  0  0  0  0  0  0  0  0
   -6.3750   20.9100  -32.2900 C   0  0  0  0  0  0  0  0  0  0  0  0
   -7.3510   21.7860  -31.7790 C   0  0  0  0  0  0  0  0  0  0  0  0
   -6.9880   22.9970  -31.1910 C   0  0  0  0  0  0  0  0  0  0  0  0
   -5.6440   23.3730  -31.1220 C   0  0  0  0  0  0  0  0  0  0  0  0
   -5.2100   24.9220  -30.4030 S   0  0  0  0  0  0  0  0  0  0  0  0
   -5.8150   24.9990  -29.0290 O   0  0  0  0  0  0  0  0  0  0  0  0
   -5.7470   26.0660  -31.2200 O   0  0  0  0  0  0  0  0  0  0  0  0
   -3.4850   25.0530  -30.2670 N   0  0  0  0  0  0  0  0  0  0  0  0
   -2.6850   24.5450  -29.1880 C   0  0  0  0  0  0  0  0  0  0  0  0
   -3.2820   23.6790  -28.2630 C   0  0  0  0  0  0  0  0  0  0  0  0
   -2.5460   23.1760  -27.1850 C   0  0  0  0  0  0  0  0  0  0  0  0
   -1.2010   23.5280  -27.0310 C   0  0  0  0  0  0  0  0  0  0  0  0
   -0.5960   24.3920  -27.9470 C   0  0  0  0  0  0  0  0  0  0  0  0
   -1.3320   24.9010  -29.0230 C   0  0  0  0  0  0  0  0  0  0  0  0
   -4.6600   22.5150  -31.6260 C   0  0  0  0  0  0  0  0  0  0  0  0
   -5.0070   21.2740  -32.1730 C   0  0  0  0  0  0  0  0  0  0  0  0
   -3.9460   20.4310  -32.6430 N   0  0  0  0  0  0  0  0  0  0  0  0
   -2.5540   20.7430  -32.5340 C   0  0  0  0  0  0  0  0  0  0  0  0
   -1.9120   21.0910  -33.5610 O   0  0  0  0  0  0  0  0  0  0  0  0
   -1.8620   20.6230  -31.2330 C   0  0  0  0  0  0  0  0  0  0  0  0
   -0.4600   20.5430  -31.1760 C   0  0  0  0  0  0  0  0  0  0  0  0
    0.1950   20.4350  -29.9450 C   0  0  0  0  0  0  0  0  0  0  0  0
   -0.5420   20.4010  -28.7590 C   0  0  0  0  0  0  0  0  0  0  0  0
   -1.9360   20.4740  -28.8030 C   0  0  0  0  0  0  0  0  0  0  0  0
   -2.5950   20.5920  -30.0320 C   0  0  0  0  0  0  0  0  0  0  0  0
   -9.4735   19.0946  -31.3235 H   0  0  0  0  0  0  0  0  0  0  0  0
   -9.2088   19.9567  -32.8770 H   0  0  0  0  0  0  0  0  0  0  0  0
   -9.5787   18.1989  -32.8770 H   0  0  0  0  0  0  0  0  0  0  0  0
   -7.2604   18.6827  -31.2045 H   0  0  0  0  0  0  0  0  0  0  0  0
   -7.3921   17.7122  -32.7230 H   0  0  0  0  0  0  0  0  0  0  0  0
   -6.7747   19.5915  -35.0862 H   0  0  0  0  0  0  0  0  0  0  0  0
   -5.1535   19.8073  -34.2991 H   0  0  0  0  0  0  0  0  0  0  0  0
   -5.8187   17.3896  -33.2833 H   0  0  0  0  0  0  0  0  0  0  0  0
   -6.7152   17.3069  -34.8377 H   0  0  0  0  0  0  0  0  0  0  0  0
   -4.9421   17.5946  -34.8377 H   0  0  0  0  0  0  0  0  0  0  0  0
   -8.4142   21.5116  -31.8444 H   0  0  0  0  0  0  0  0  0  0  0  0
   -7.7635   23.6597  -30.7794 H   0  0  0  0  0  0  0  0  0  0  0  0
   -4.3370   23.3925  -28.3851 H   0  0  0  0  0  0  0  0  0  0  0  0
   -3.0251   22.5035  -26.4582 H   0  0  0  0  0  0  0  0  0  0  0  0
   -0.6198   23.1245  -26.1887 H   0  0  0  0  0  0  0  0  0  0  0  0
    0.4603   24.6726  -27.8224 H   0  0  0  0  0  0  0  0  0  0  0  0
   -0.8525   25.5813  -29.7422 H   0  0  0  0  0  0  0  0  0  0  0  0
   -3.6033   22.8188  -31.5920 H   0  0  0  0  0  0  0  0  0  0  0  0
    0.1264   20.5655  -32.1064 H   0  0  0  0  0  0  0  0  0  0  0  0
    1.2929   20.3767  -29.9108 H   0  0  0  0  0  0  0  0  0  0  0  0
   -0.0252   20.3168  -27.7916 H   0  0  0  0  0  0  0  0  0  0  0  0
   -2.5172   20.4387  -27.8697 H   0  0  0  0  0  0  0  0  0  0  0  0
   -3.6925   20.6609  -30.0594 H   0  0  0  0  0  0  0  0  0  0  0  0
  1  2  1  0
  2  3  1  0
  3  4  1  0
  4  5  1  0
  3  6  1  0
  6  7  2  0
  7  8  1  0
  8  9  2  0
  9 10  1  0
 10 11  2  0
 10 12  2  0
 10 13  1  0
 13 14  1  0
 14 15  2  0
 15 16  1  0
 16 17  2  0
 17 18  1  0
 18 19  2  0
  9 20  1  0
 20 21  2  0
 21 22  1  0
 22 23  1  0
 23 24  2  0
 23 25  1  0
 25 26  2  0
 26 27  1  0
 27 28  2  0
 28 29  1  0
 29 30  2  0
 21  6  1  0
 30 25  1  0
 19 14  1  0
  1 31  1  0
  1 32  1  0
  1 33  1  0
  2 34  1  0
  2 35  1  0
  4 36  1  0
  4 37  1  0
  5 38  1  0
  5 39  1  0
  5 40  1  0
  7 41  1  0
  8 42  1  0
 15 43  1  0
 16 44  1  0
 17 45  1  0
 18 46  1  0
 19 47  1  0
 20 48  1  0
 26 49  1  0
 27 50  1  0
 28 51  1  0
 29 52  1  0
 30 53  1  0
M  CHG  2  13  -1  22  -1
M  END
>  <UniqueID>  (16) 
16

>  <SMILES>  (16) 
CCN(CC)c1ccc(S(=O)(=O)[N-]c2ccccc2)cc1[N-]C(=O)c1ccccc1

>  <Energy>  (16) 
65.02463389871113

>  <Genealogy>  (16) 
CCN(CC)c1ccc(S(=O)(=O)[N-]c2ccccc2)cc1[N-]C(=O)c1ccccc1 (protonated)
CCN(CC)c1ccc(S(=O)(=O)[N-]c2ccccc2)cc1[N-]C(=O)c1ccccc1 (3D coordinates assigned)
CCN(CC)c1ccc(S(=O)(=O)[N-]c2ccccc2)cc1[N-]C(=O)c1ccccc1 (optimized conformer: 65.02463389871113 kcal/mol)

>  <smiles>  (16) 
CCN(CC)c1ccc(S(=O)(=O)Nc2ccccc2)cc1NC(=O)c1ccccc1

>  <score_type>  (16) 
oracle

>  <origin>  (16) 
adgpu

>  <m_score__min__energy>  (16) 
-10.83

>  <m_primary>  (16) 
energy

$$$$
16:0
     RDKit          3D

 47 49  0  0  0  0  0  0  0  0999 V2000
   -3.4880   17.6080  -34.2050 C   0  0  0  0  0  0  0  0  0  0  0  0
   -4.8050   18.1020  -33.6870 C   0  0  0  0  0  0  0  0  0  0  0  0
   -5.5390   17.3370  -32.7670 C   0  0  0  0  0  0  0  0  0  0  0  0
   -6.7850   17.7820  -32.3160 C   0  0  0  0  0  0  0  0  0  0  0  0
   -7.3180   18.9870  -32.7920 C   0  0  0  0  0  0  0  0  0  0  0  0
   -8.8940   19.5460  -32.2440 S   0  0  0  0  0  0  0  0  0  0  0  0
   -9.0790   19.1420  -30.8080 O   0  0  0  0  0  0  0  0  0  0  0  0
   -9.9940   18.9350  -33.0670 O   0  0  0  0  0  0  0  0  0  0  0  0
   -8.9860   21.2750  -32.3690 N   0  0  0  0  0  0  0  0  0  0  0  0
   -8.0700   22.1810  -31.7280 C   0  0  0  0  0  0  0  0  0  0  0  0
   -7.2460   22.9940  -32.5220 C   0  0  0  0  0  0  0  0  0  0  0  0
   -6.3380   23.8790  -31.9330 C   0  0  0  0  0  0  0  0  0  0  0  0
   -6.2440   23.9680  -30.5400 C   0  0  0  0  0  0  0  0  0  0  0  0
   -5.0650   25.0540  -29.8120 S   0  0  0  0  0  0  0  0  0  0  0  0
   -5.4460   26.4720  -30.1330 O   0  0  0  0  0  0  0  0  0  0  0  0
   -5.0300   24.8870  -28.3180 O   0  0  0  0  0  0  0  0  0  0  0  0
   -3.4900   24.7250  -30.4570 N   0  0  0  0  0  0  0  0  0  0  0  0
   -2.8240   23.4550  -30.4020 C   0  0  0  0  0  0  0  0  0  0  0  0
   -2.1970   23.0790  -29.2090 C   0  0  0  0  0  0  0  0  0  0  0  0
   -1.5100   21.8660  -29.1240 C   0  0  0  0  0  0  0  0  0  0  0  0
   -1.4450   21.0150  -30.2300 C   0  0  0  0  0  0  0  0  0  0  0  0
   -2.0920   21.3620  -31.4290 C   0  0  0  0  0  0  0  0  0  0  0  0
   -2.0220   20.4740  -32.6460 C   0  0  0  0  0  0  0  0  0  0  0  0
   -2.1390   19.1540  -32.2530 F   0  0  0  0  0  0  0  0  0  0  0  0
   -3.0340   20.7640  -33.5460 F   0  0  0  0  0  0  0  0  0  0  0  0
   -0.8080   20.6490  -33.2850 F   0  0  0  0  0  0  0  0  0  0  0  0
   -2.7740   22.5880  -31.5090 C   0  0  0  0  0  0  0  0  0  0  0  0
   -7.0700   23.1690  -29.7390 C   0  0  0  0  0  0  0  0  0  0  0  0
   -7.9740   22.2790  -30.3260 C   0  0  0  0  0  0  0  0  0  0  0  0
   -6.5930   19.7450  -33.7210 C   0  0  0  0  0  0  0  0  0  0  0  0
   -5.3480   19.3020  -34.1730 C   0  0  0  0  0  0  0  0  0  0  0  0
   -2.8303   17.3613  -33.3585 H   0  0  0  0  0  0  0  0  0  0  0  0
   -3.6491   16.7092  -34.8183 H   0  0  0  0  0  0  0  0  0  0  0  0
   -3.0182   18.3910  -34.8183 H   0  0  0  0  0  0  0  0  0  0  0  0
   -5.1320   16.3834  -32.3995 H   0  0  0  0  0  0  0  0  0  0  0  0
   -7.3489   17.1841  -31.5849 H   0  0  0  0  0  0  0  0  0  0  0  0
   -9.7550   21.6650  -32.9590 H   0  0  0  0  0  0  0  0  0  0  0  0
   -7.3154   22.9342  -33.6182 H   0  0  0  0  0  0  0  0  0  0  0  0
   -5.6953   24.5075  -32.5670 H   0  0  0  0  0  0  0  0  0  0  0  0
   -2.2454   23.7426  -28.3330 H   0  0  0  0  0  0  0  0  0  0  0  0
   -1.0182   21.5796  -28.1826 H   0  0  0  0  0  0  0  0  0  0  0  0
   -0.8857   20.0702  -30.1625 H   0  0  0  0  0  0  0  0  0  0  0  0
   -3.2738   22.8728  -32.4466 H   0  0  0  0  0  0  0  0  0  0  0  0
   -7.0070   23.2423  -28.6433 H   0  0  0  0  0  0  0  0  0  0  0  0
   -8.6145   21.6512  -29.6891 H   0  0  0  0  0  0  0  0  0  0  0  0
   -7.0062   20.6930  -34.0959 H   0  0  0  0  0  0  0  0  0  0  0  0
   -4.7907   19.8956  -34.9126 H   0  0  0  0  0  0  0  0  0  0  0  0
  1  2  1  0
  2  3  2  0
  3  4  1  0
  4  5  2  0
  5  6  1  0
  6  7  2  0
  6  8  2  0
  6  9  1  0
  9 10  1  0
 10 11  2  0
 11 12  1  0
 12 13  2  0
 13 14  1  0
 14 15  2  0
 14 16  2  0
 14 17  1  0
 17 18  1  0
 18 19  2  0
 19 20  1  0
 20 21  2  0
 21 22  1  0
 22 23  1  0
 23 24  1  0
 23 25  1  0
 23 26  1  0
 22 27  2  0
 13 28  1  0
 28 29  2  0
  5 30  1  0
 30 31  2  0
 31  2  1  0
 29 10  1  0
 27 18  1  0
  1 32  1  0
  1 33  1  0
  1 34  1  0
  3 35  1  0
  4 36  1  0
  9 37  1  0
 11 38  1  0
 12 39  1  0
 19 40  1  0
 20 41  1  0
 21 42  1  0
 27 43  1  0
 28 44  1  0
 29 45  1  0
 30 46  1  0
 31 47  1  0
M  CHG  1  17  -1
M  END
>  <UniqueID>  (17) 
17

>  <SMILES>  (17) 
Cc1ccc(S(=O)(=O)Nc2ccc(S(=O)(=O)[N-]c3cccc(C(F)(F)F)c3)cc2)cc1

>  <Energy>  (17) 
54.69353855646532

>  <Genealogy>  (17) 
Cc1ccc(S(=O)(=O)Nc2ccc(S(=O)(=O)[N-]c3cccc(C(F)(F)F)c3)cc2)cc1 (protonated)
Cc1ccc(S(=O)(=O)Nc2ccc(S(=O)(=O)[N-]c3cccc(C(F)(F)F)c3)cc2)cc1 (3D coordinates assigned)
Cc1ccc(S(=O)(=O)Nc2ccc(S(=O)(=O)[N-]c3cccc(C(F)(F)F)c3)cc2)cc1 (optimized conformer: 54.69353855646532 kcal/mol)

>  <smiles>  (17) 
Cc1ccc(S(=O)(=O)Nc2ccc(S(=O)(=O)Nc3cccc(C(F)(F)F)c3)cc2)cc1

>  <score_type>  (17) 
oracle

>  <origin>  (17) 
adgpu

>  <m_score__min__energy>  (17) 
-10.82

>  <m_primary>  (17) 
energy

$$$$
17:0
     RDKit          3D

 69 73  0  0  0  0  0  0  0  0999 V2000
   -6.7461   18.6186  -30.1521 H   0  0  0  0  0  0  0  0  0  0  0  0
   -6.3890   18.4030  -31.1700 C   0  0  0  0  0  0  0  0  0  0  0  0
   -5.7260   17.2470  -31.4220 N   0  0  0  0  0  0  0  0  0  0  0  0
   -5.2570   16.9290  -32.6600 C   0  0  0  0  0  0  0  0  0  0  0  0
   -4.6730   15.6300  -32.8700 N   0  0  0  0  0  0  0  0  0  0  0  0
   -4.9850   14.4910  -32.0160 C   0  0  0  0  0  0  0  0  0  0  0  0
   -5.2121   14.8293  -30.9942 H   0  0  0  0  0  0  0  0  0  0  0  0
   -5.8665   13.9423  -32.3792 H   0  0  0  0  0  0  0  0  0  0  0  0
   -3.7400   13.6160  -32.0200 C   0  0  0  0  0  0  0  0  0  0  0  0
   -3.1539   13.7785  -31.1035 H   0  0  0  0  0  0  0  0  0  0  0  0
   -3.9950   12.5465  -32.0541 H   0  0  0  0  0  0  0  0  0  0  0  0
   -2.9400   14.0440  -33.2460 C   0  0  1  0  0  0  0  0  0  0  0  0
   -1.8561   14.0079  -33.0617 H   0  0  0  0  0  0  0  0  0  0  0  0
   -3.2190   13.1970  -34.3060 F   0  0  0  0  0  0  0  0  0  0  0  0
   -3.4110   15.4560  -33.5730 C   0  0  0  0  0  0  0  0  0  0  0  0
   -2.6744   16.1950  -33.2248 H   0  0  0  0  0  0  0  0  0  0  0  0
   -3.5301   15.6004  -34.6570 H   0  0  0  0  0  0  0  0  0  0  0  0
   -5.4280   17.8510  -33.7160 C   0  0  0  0  0  0  0  0  0  0  0  0
   -4.8930   17.6090  -35.0330 C   0  0  0  0  0  0  0  0  0  0  0  0
   -4.4610   17.4190  -36.0910 N   0  0  0  0  0  0  0  0  0  0  0  0
   -6.1230   19.0430  -33.4760 C   0  0  0  0  0  0  0  0  0  0  0  0
   -6.2778   19.7615  -34.2944 H   0  0  0  0  0  0  0  0  0  0  0  0
   -6.6210   19.3230  -32.1990 C   0  0  0  0  0  0  0  0  0  0  0  0
   -7.5450   20.4490  -31.9620 C   0  0  0  0  0  0  0  0  0  0  0  0
   -7.0380   21.5370  -31.3340 N   0  0  0  0  0  0  0  0  0  0  0  0
   -7.7930   22.6270  -31.0350 C   0  0  0  0  0  0  0  0  0  0  0  0
   -7.2700   23.6300  -30.3900 N   0  0  0  0  0  0  0  0  0  0  0  0
   -5.8830   23.6550  -30.0130 C   0  0  0  0  0  0  0  0  0  0  0  0
   -4.9660   24.4440  -30.7250 C   0  0  0  0  0  0  0  0  0  0  0  0
   -5.3309   25.2262  -31.4069 H   0  0  0  0  0  0  0  0  0  0  0  0
   -3.5930   24.2410  -30.5720 C   0  0  0  0  0  0  0  0  0  0  0  0
   -2.8820   24.8616  -31.1371 H   0  0  0  0  0  0  0  0  0  0  0  0
   -3.1140   23.2470  -29.6990 C   0  0  0  0  0  0  0  0  0  0  0  0
   -1.6880   22.8550  -29.7400 C   0  0  0  0  0  0  0  0  0  0  0  0
   -0.7910   23.7110  -29.5150 O   0  0  0  0  0  0  0  0  0  0  0  0
   -1.3090   21.5310  -30.1330 N   0  0  0  0  0  0  0  0  0  0  0  0
   -1.3160   21.1030  -31.5010 C   0  0  0  0  0  0  0  0  0  0  0  0
   -0.1170   21.1510  -32.2280 C   0  0  0  0  0  0  0  0  0  0  0  0
    0.8044   21.4960  -31.7361 H   0  0  0  0  0  0  0  0  0  0  0  0
   -0.0810   20.7620  -33.5810 C   0  0  0  0  0  0  0  0  0  0  0  0
    1.1210   20.8630  -34.3660 N   0  0  0  0  0  0  0  0  0  0  0  0
    1.8970   20.1910  -34.1640 H   0  0  0  0  0  0  0  0  0  0  0  0
    1.3770   21.8860  -35.3460 C   0  0  0  0  0  0  0  0  0  0  0  0
    0.7100   22.9590  -35.3500 O   0  0  0  0  0  0  0  0  0  0  0  0
    2.5040   21.7260  -36.3190 C   0  0  0  0  0  0  0  0  0  0  0  0
    3.4471   21.5921  -35.7689 H   0  0  0  0  0  0  0  0  0  0  0  0
    2.3201   20.8450  -36.9514 H   0  0  0  0  0  0  0  0  0  0  0  0
    2.5726   22.6234  -36.9514 H   0  0  0  0  0  0  0  0  0  0  0  0
   -1.2670   20.3490  -34.2030 C   0  0  0  0  0  0  0  0  0  0  0  0
   -1.2584   20.0800  -35.2696 H   0  0  0  0  0  0  0  0  0  0  0  0
   -2.4600   20.2760  -33.4800 C   0  0  0  0  0  0  0  0  0  0  0  0
   -3.3813   19.9439  -33.9809 H   0  0  0  0  0  0  0  0  0  0  0  0
   -2.4940   20.6220  -32.1220 C   0  0  0  0  0  0  0  0  0  0  0  0
   -3.7960   20.4930  -31.3730 C   0  0  0  0  0  0  0  0  0  0  0  0
   -3.5999   20.5124  -30.2908 H   0  0  0  0  0  0  0  0  0  0  0  0
   -4.4576   21.3300  -31.6409 H   0  0  0  0  0  0  0  0  0  0  0  0
   -4.2805   19.5425  -31.6409 H   0  0  0  0  0  0  0  0  0  0  0  0
   -4.0350   22.5370  -28.9040 C   0  0  0  0  0  0  0  0  0  0  0  0
   -3.6713   21.8147  -28.1584 H   0  0  0  0  0  0  0  0  0  0  0  0
   -5.4120   22.7460  -29.0580 C   0  0  0  0  0  0  0  0  0  0  0  0
   -6.1246   22.1946  -28.4271 H   0  0  0  0  0  0  0  0  0  0  0  0
   -9.1090   22.6380  -31.3690 N   0  0  0  0  0  0  0  0  0  0  0  0
   -9.6750   21.5790  -32.0100 C   0  0  0  0  0  0  0  0  0  0  0  0
  -10.7429   21.6069  -32.2725 H   0  0  0  0  0  0  0  0  0  0  0  0
   -8.9050   20.4500  -32.3390 C   0  0  0  0  0  0  0  0  0  0  0  0
   -9.5440   19.2950  -33.0610 C   0  0  0  0  0  0  0  0  0  0  0  0
   -9.9407   18.5780  -32.3271 H   0  0  0  0  0  0  0  0  0  0  0  0
  -10.3652   19.6660  -33.6919 H   0  0  0  0  0  0  0  0  0  0  0  0
   -8.7934   18.7965  -33.6919 H   0  0  0  0  0  0  0  0  0  0  0  0
  1  2  1  0
  2  3  2  0
  3  4  1  0
  4  5  1  0
  5  6  1  0
  6  7  1  0
  6  8  1  0
  6  9  1  0
  9 10  1  0
  9 11  1  0
  9 12  1  0
 12 13  1  1
 12 14  1  0
 12 15  1  0
 15 16  1  0
 15 17  1  0
  4 18  2  0
 18 19  1  0
 19 20  3  0
 18 21  1  0
 21 22  1  0
 21 23  2  0
 23 24  1  0
 24 25  2  0
 25 26  1  0
 26 27  2  0
 27 28  1  0
 28 29  2  0
 29 30  1  0
 29 31  1  0
 31 32  1  0
 31 33  2  0
 33 34  1  0
 34 35  2  0
 34 36  1  0
 36 37  1  0
 37 38  2  0
 38 39  1  0
 38 40  1  0
 40 41  1  0
 41 42  1  0
 41 43  1  0
 43 44  2  0
 43 45  1  0
 45 46  1  0
 45 47  1  0
 45 48  1  0
 40 49  2  0
 49 50  1  0
 49 51  1  0
 51 52  1  0
 51 53  2  0
 53 54  1  0
 54 55  1  0
 54 56  1  0
 54 57  1  0
 33 58  1  0
 58 59  1  0
 58 60  2  0
 60 61  1  0
 26 62  1  0
 62 63  1  0
 63 64  1  0
 63 65  2  0
 65 66  1  0
 66 67  1  0
 66 68  1  0
 66 69  1  0
 23  2  1  0
 65 24  1  0
 15  5  1  0
 60 28  1  0
 53 37  1  0
M  CHG  2  36  -1  62  -1
M  END
>  <UniqueID>  (18) 
18

>  <SMILES>  (18) 
CC(=O)Nc1ccc(C)c([N-]C(=O)c2ccc(/N=c3\nc(-c4cnc(N5CC[C@@H](F)C5)c(C#N)c4)c(C)c[n-]3)cc2)c1

>  <Energy>  (18) 
107.89534429062518

>  <Genealogy>  (18) 
CC(=O)Nc1ccc(C)c([N-]C(=O)c2ccc(N=c3nc(-c4cnc(N5CCC(F)C5)c(C#N)c4)c(C)c[n-]3)cc2)c1 (protonated)
CC(=O)Nc1ccc(C)c([N-]C(=O)c2ccc(N=c3nc(-c4cnc(N5CC[C@@H](F)C5)c(C#N)c4)c(C)c[n-]3)cc2)c1 (chirality)
CC(=O)Nc1ccc(C)c([N-]C(=O)c2ccc(/N=c3\nc(-c4cnc(N5CC[C@@H](F)C5)c(C#N)c4)c(C)c[n-]3)cc2)c1 (cis-trans isomerization)
CC(=O)Nc1ccc(C)c([N-]C(=O)c2ccc(/N=c3\nc(-c4cnc(N5CC[C@@H](F)C5)c(C#N)c4)c(C)c[n-]3)cc2)c1 (3D coordinates assigned)
CC(=O)Nc1ccc(C)c([N-]C(=O)c2ccc(/N=c3\nc(-c4cnc(N5CC[C@@H](F)C5)c(C#N)c4)c(C)c[n-]3)cc2)c1 (nonaromatic ring conformer: 107.89534429062518 kcal/mol)

>  <smiles>  (18) 
CC(=O)Nc1ccc(C)c(NC(=O)c2ccc(N=c3nc(-c4cnc(N5CCC(F)C5)c(C#N)c4)c(C)c[nH]3)cc2)c1

>  <score_type>  (18) 
oracle

>  <origin>  (18) 
adgpu

>  <m_score__min__energy>  (18) 
-13.41

>  <m_primary>  (18) 
energy

$$$$
18:0
     RDKit          3D

 27 29  0  0  0  0  0  0  0  0999 V2000
   -6.8800   25.2750  -30.4540 O   0  0  0  0  0  0  0  0  0  0  0  0
   -6.3770   24.1270  -30.5890 C   0  0  0  0  0  0  0  0  0  0  0  0
   -7.1880   23.0630  -30.9870 C   0  0  0  0  0  0  0  0  0  0  0  0
   -6.6250   21.7780  -31.1390 C   0  0  0  0  0  0  0  0  0  0  0  0
   -7.4220   20.5840  -31.5610 C   0  0  0  0  0  0  0  0  0  0  0  0
   -8.7820   20.6640  -31.9380 C   0  0  0  0  0  0  0  0  0  0  0  0
   -9.4830   19.5180  -32.3260 C   0  0  0  0  0  0  0  0  0  0  0  0
   -8.8460   18.2770  -32.3450 C   0  0  0  0  0  0  0  0  0  0  0  0
   -7.5040   18.1790  -31.9770 C   0  0  0  0  0  0  0  0  0  0  0  0
   -6.7970   19.3190  -31.5880 C   0  0  0  0  0  0  0  0  0  0  0  0
   -5.3240   21.6120  -30.8960 O   0  0  0  0  0  0  0  0  0  0  0  0
   -4.5160   22.5940  -30.5150 C   0  0  0  0  0  0  0  0  0  0  0  0
   -3.1620   22.3280  -30.2820 C   0  0  0  0  0  0  0  0  0  0  0  0
   -2.3020   23.3540  -29.8810 C   0  0  0  0  0  0  0  0  0  0  0  0
   -2.7910   24.6540  -29.7110 C   0  0  0  0  0  0  0  0  0  0  0  0
   -1.9330   25.6710  -29.3110 O   0  0  0  0  0  0  0  0  0  0  0  0
   -4.1430   24.9320  -29.9400 C   0  0  0  0  0  0  0  0  0  0  0  0
   -5.0150   23.9040  -30.3450 C   0  0  0  0  0  0  0  0  0  0  0  0
   -8.2586   23.2250  -31.1808 H   0  0  0  0  0  0  0  0  0  0  0  0
   -9.2940   21.6375  -31.9260 H   0  0  0  0  0  0  0  0  0  0  0  0
  -10.5409   19.5953  -32.6174 H   0  0  0  0  0  0  0  0  0  0  0  0
   -9.4009   17.3774  -32.6496 H   0  0  0  0  0  0  0  0  0  0  0  0
   -7.0010   17.2009  -31.9932 H   0  0  0  0  0  0  0  0  0  0  0  0
   -5.7394   19.2297  -31.2990 H   0  0  0  0  0  0  0  0  0  0  0  0
   -2.7732   21.3076  -30.4150 H   0  0  0  0  0  0  0  0  0  0  0  0
   -1.2387   23.1392  -29.6987 H   0  0  0  0  0  0  0  0  0  0  0  0
   -4.5247   25.9546  -29.8034 H   0  0  0  0  0  0  0  0  0  0  0  0
  1  2  2  0
  2  3  1  0
  3  4  2  0
  4  5  1  0
  5  6  2  0
  6  7  1  0
  7  8  2  0
  8  9  1  0
  9 10  2  0
  4 11  1  0
 11 12  1  0
 12 13  2  0
 13 14  1  0
 14 15  2  0
 15 16  1  0
 15 17  1  0
 17 18  2  0
 18  2  1  0
 10  5  1  0
 18 12  1  0
  3 19  1  0
  6 20  1  0
  7 21  1  0
  8 22  1  0
  9 23  1  0
 10 24  1  0
 13 25  1  0
 14 26  1  0
 17 27  1  0
M  CHG  1  16  -1
M  END
>  <UniqueID>  (19) 
19

>  <SMILES>  (19) 
O=c1cc(-c2ccccc2)oc2ccc([O-])cc12

>  <Energy>  (19) 
39.504987676568796

>  <Genealogy>  (19) 
O=c1cc(-c2ccccc2)oc2ccc([O-])cc12 (protonated)
O=c1cc(-c2ccccc2)oc2ccc([O-])cc12 (3D coordinates assigned)
O=c1cc(-c2ccccc2)oc2ccc([O-])cc12 (optimized conformer: 39.504987676568796 kcal/mol)

>  <smiles>  (19) 
O=c1cc(-c2ccccc2)oc2ccc(O)cc12

>  <score_type>  (19) 
oracle

>  <origin>  (19) 
adgpu

>  <m_score__min__energy>  (19) 
-9.8800000000000008

>  <m_primary>  (19) 
energy

$$$$
19:0
     RDKit          3D

 38 40  0  0  0  0  0  0  0  0999 V2000
   -2.8260   21.7240  -30.5490 H   0  0  0  0  0  0  0  0  0  0  0  0
   -2.6990   22.7460  -30.3720 N   0  0  0  0  0  0  0  0  0  0  0  0
   -3.5970   23.6150  -30.7100 C   0  0  0  0  0  0  0  0  0  0  0  0
   -3.4980   24.9280  -30.4550 N   0  0  0  0  0  0  0  0  0  0  0  0
   -4.6280   25.4340  -30.8690 O   0  0  0  0  0  0  0  0  0  0  0  0
   -5.4540   24.5540  -31.3680 N   0  0  0  0  0  0  0  0  0  0  0  0
   -4.8150   23.3740  -31.3000 C   0  0  0  0  0  0  0  0  0  0  0  0
   -5.4050   22.0850  -31.6950 C   0  0  0  0  0  0  0  0  0  0  0  0
   -4.6310   21.0180  -31.9980 N   0  0  0  0  0  0  0  0  0  0  0  0
   -5.5260   20.0550  -32.2630 C   0  0  0  0  0  0  0  0  0  0  0  0
   -5.2360   18.7420  -32.6080 C   0  0  0  0  0  0  0  0  0  0  0  0
   -4.1932   18.4081  -32.7129 H   0  0  0  0  0  0  0  0  0  0  0  0
   -6.3040   17.8420  -32.8220 C   0  0  0  0  0  0  0  0  0  0  0  0
   -6.0450   16.4600  -33.1810 N   0  0  0  0  0  0  0  0  0  0  0  0
   -4.9830   15.7010  -32.5090 C   0  0  0  0  0  0  0  0  0  0  0  0
   -5.1040   15.7875  -31.4191 H   0  0  0  0  0  0  0  0  0  0  0  0
   -5.0469   14.6427  -32.8022 H   0  0  0  0  0  0  0  0  0  0  0  0
   -4.0024   16.1041  -32.8022 H   0  0  0  0  0  0  0  0  0  0  0  0
   -6.8430   15.7960  -34.2190 C   0  0  0  0  0  0  0  0  0  0  0  0
   -7.6060   15.1611  -33.7449 H   0  0  0  0  0  0  0  0  0  0  0  0
   -7.3349   16.5551  -34.8449 H   0  0  0  0  0  0  0  0  0  0  0  0
   -6.1860   15.1743  -34.8449 H   0  0  0  0  0  0  0  0  0  0  0  0
   -7.6340   18.3210  -32.6830 C   0  0  0  0  0  0  0  0  0  0  0  0
   -8.4717   17.6289  -32.8541 H   0  0  0  0  0  0  0  0  0  0  0  0
   -7.9120   19.6620  -32.3310 C   0  0  0  0  0  0  0  0  0  0  0  0
   -9.3450   20.1160  -32.2820 C   0  0  0  0  0  0  0  0  0  0  0  0
   -9.6621   20.2165  -31.2335 H   0  0  0  0  0  0  0  0  0  0  0  0
   -9.4392   21.0880  -32.7883 H   0  0  0  0  0  0  0  0  0  0  0  0
   -9.9817   19.3756  -32.7883 H   0  0  0  0  0  0  0  0  0  0  0  0
   -6.8070   20.5180  -32.1150 C   0  0  0  0  0  0  0  0  0  0  0  0
   -6.7440   21.8240  -31.7450 N   0  0  0  0  0  0  0  0  0  0  0  0
   -7.7990   22.6810  -31.1870 C   0  0  0  0  0  0  0  0  0  0  0  0
   -8.5260   22.0559  -30.6478 H   0  0  0  0  0  0  0  0  0  0  0  0
   -7.3412   23.4078  -30.4998 H   0  0  0  0  0  0  0  0  0  0  0  0
   -8.5160   23.4380  -32.3010 C   0  0  0  0  0  0  0  0  0  0  0  0
   -9.2090   24.1696  -31.8600 H   0  0  0  0  0  0  0  0  0  0  0  0
   -7.7759   23.9627  -32.9230 H   0  0  0  0  0  0  0  0  0  0  0  0
   -9.0800   22.7274  -32.9230 H   0  0  0  0  0  0  0  0  0  0  0  0
  1  2  1  0
  2  3  2  0
  3  4  1  0
  4  5  1  0
  5  6  1  0
  6  7  2  0
  7  8  1  0
  8  9  2  0
  9 10  1  0
 10 11  2  0
 11 12  1  0
 11 13  1  0
 13 14  1  0
 14 15  1  0
 15 16  1  0
 15 17  1  0
 15 18  1  0
 14 19  1  0
 19 20  1  0
 19 21  1  0
 19 22  1  0
 13 23  2  0
 23 24  1  0
 23 25  1  0
 25 26  1  0
 26 27  1  0
 26 28  1  0
 26 29  1  0
 25 30  2  0
 30 31  1  0
 31 32  1  0
 32 33  1  0
 32 34  1  0
 32 35  1  0
 35 36  1  0
 35 37  1  0
 35 38  1  0
  7  3  1  0
 31  8  1  0
 30 10  1  0
M  CHG  1   4  -1
M  END
>  <UniqueID>  (20) 
20

>  <SMILES>  (20) 
[H]/N=c1/[n-]onc1-c1nc2cc(N(C)C)cc(C)c2n1CC

>  <Energy>  (20) 
121.75623261730387

>  <Genealogy>  (20) 
CCn1c(-c2no[n-]c2=N)nc2cc(N(C)C)cc(C)c21 (protonated)
[H]/N=c1/[n-]onc1-c1nc2cc(N(C)C)cc(C)c2n1CC (cis-trans isomerization)
[H]/N=c1/[n-]onc1-c1nc2cc(N(C)C)cc(C)c2n1CC (3D coordinates assigned)
[H]/N=c1/[n-]onc1-c1nc2cc(N(C)C)cc(C)c2n1CC (optimized conformer: 121.75623261730387 kcal/mol)

>  <smiles>  (20) 
CCn1c(-c2no[nH]c2=N)nc2cc(N(C)C)cc(C)c21

>  <score_type>  (20) 
oracle

>  <origin>  (20) 
adgpu

>  <m_score__min__energy>  (20) 
-9.5199999999999996

>  <m_primary>  (20) 
energy

$$$$
20:0
     RDKit          3D

 56 58  0  0  0  0  0  0  0  0999 V2000
    0.9430   21.1850  -26.7490 H   0  0  0  0  0  0  0  0  0  0  0  0
    0.9200   22.1950  -26.7550 O   0  0  0  0  0  0  0  0  0  0  0  0
    0.0860   22.9820  -27.5610 C   0  0  0  0  0  0  0  0  0  0  0  0
    0.0560   24.3920  -27.4150 C   0  0  0  0  0  0  0  0  0  0  0  0
    0.9440   25.0760  -26.5510 C   0  0  0  0  0  0  0  0  0  0  0  0
    1.7053   24.5086  -25.9956 H   0  0  0  0  0  0  0  0  0  0  0  0
    0.8670   26.4610  -26.3940 C   0  0  0  0  0  0  0  0  0  0  0  0
    1.5617   26.9753  -25.7136 H   0  0  0  0  0  0  0  0  0  0  0  0
   -0.0850   27.1920  -27.0950 C   0  0  0  0  0  0  0  0  0  0  0  0
   -0.1524   28.2813  -26.9572 H   0  0  0  0  0  0  0  0  0  0  0  0
   -0.9530   26.5470  -27.9710 C   0  0  0  0  0  0  0  0  0  0  0  0
   -1.6993   27.1330  -28.5274 H   0  0  0  0  0  0  0  0  0  0  0  0
   -0.8860   25.1500  -28.1530 C   0  0  0  0  0  0  0  0  0  0  0  0
   -1.7460   24.5170  -29.0660 C   0  0  0  0  0  0  0  0  0  0  0  0
   -2.7110   25.2880  -29.7100 O   0  0  0  0  0  0  0  0  0  0  0  0
   -1.6470   23.1260  -29.3110 C   0  0  0  0  0  0  0  0  0  0  0  0
   -2.4520   22.4820  -30.2960 C   0  0  0  0  0  0  0  0  0  0  0  0
   -3.2900   23.2230  -31.1980 N   0  0  0  0  0  0  0  0  0  0  0  0
   -3.0350   24.2110  -31.4290 H   0  0  0  0  0  0  0  0  0  0  0  0
   -4.4620   22.6360  -31.8490 C   0  0  0  0  0  0  0  0  0  0  0  0
   -4.6499   23.1617  -32.7968 H   0  0  0  0  0  0  0  0  0  0  0  0
   -4.2660   21.5700  -32.0367 H   0  0  0  0  0  0  0  0  0  0  0  0
   -5.7010   22.7600  -30.9490 C   0  0  0  0  0  0  0  0  0  0  0  0
   -6.5273   23.1836  -31.5387 H   0  0  0  0  0  0  0  0  0  0  0  0
   -5.9518   21.7559  -30.5763 H   0  0  0  0  0  0  0  0  0  0  0  0
   -5.4530   23.6300  -29.7830 N   0  0  0  0  0  0  0  0  0  0  0  0
   -4.4510   23.9250  -29.7110 H   0  0  0  0  0  0  0  0  0  0  0  0
   -6.3370   24.8080  -29.7330 C   0  0  0  0  0  0  0  0  0  0  0  0
   -7.2992   24.5447  -30.1966 H   0  0  0  0  0  0  0  0  0  0  0  0
   -6.4548   25.0875  -28.6757 H   0  0  0  0  0  0  0  0  0  0  0  0
   -5.7550   26.0240  -30.4690 C   0  0  0  0  0  0  0  0  0  0  0  0
   -6.5065   26.4149  -31.1708 H   0  0  0  0  0  0  0  0  0  0  0  0
   -5.4890   26.7918  -29.7276 H   0  0  0  0  0  0  0  0  0  0  0  0
   -4.6010   25.6670  -31.1820 O   0  0  0  0  0  0  0  0  0  0  0  0
   -4.0770   25.0590  -30.6000 H   0  0  0  0  0  0  0  0  0  0  0  0
   -2.3890   21.0940  -30.4470 C   0  0  0  0  0  0  0  0  0  0  0  0
   -3.0197   20.6015  -31.2018 H   0  0  0  0  0  0  0  0  0  0  0  0
   -1.5450   20.3310  -29.6610 C   0  0  0  0  0  0  0  0  0  0  0  0
   -1.5141   19.2400  -29.7982 H   0  0  0  0  0  0  0  0  0  0  0  0
   -0.7320   20.9270  -28.6960 C   0  0  0  0  0  0  0  0  0  0  0  0
    0.1560   20.0820  -27.9470 N   0  0  0  0  0  0  0  0  0  0  0  0
    1.1760   19.4380  -28.4370 C   0  0  0  0  0  0  0  0  0  0  0  0
    1.8323   18.8849  -27.7490 H   0  0  0  0  0  0  0  0  0  0  0  0
    1.4940   19.4210  -29.9190 C   0  0  0  0  0  0  0  0  0  0  0  0
    2.5796   19.5496  -30.0413 H   0  0  0  0  0  0  0  0  0  0  0  0
    0.9165   20.2370  -30.3778 H   0  0  0  0  0  0  0  0  0  0  0  0
    1.0930   18.1740  -30.6060 N   0  0  0  0  0  0  0  0  0  0  0  0
    0.4050   18.4240  -31.8830 C   0  0  0  0  0  0  0  0  0  0  0  0
   -0.6120   18.7936  -31.6853 H   0  0  0  0  0  0  0  0  0  0  0  0
    0.9632   19.1768  -32.4590 H   0  0  0  0  0  0  0  0  0  0  0  0
    0.3497   17.4885  -32.4590 H   0  0  0  0  0  0  0  0  0  0  0  0
    0.3130   17.2740  -29.7420 C   0  0  0  0  0  0  0  0  0  0  0  0
    0.5175   17.5099  -28.6872 H   0  0  0  0  0  0  0  0  0  0  0  0
   -0.7595   17.4078  -29.9464 H   0  0  0  0  0  0  0  0  0  0  0  0
    0.5979   16.2314  -29.9464 H   0  0  0  0  0  0  0  0  0  0  0  0
   -0.7470   22.3430  -28.5220 C   0  0  0  0  0  0  0  0  0  0  0  0
  1  2  1  0
  2  3  1  0
  3  4  2  0
  4  5  1  0
  5  6  1  0
  5  7  2  0
  7  8  1  0
  7  9  1  0
  9 10  1  0
  9 11  2  0
 11 12  1  0
 11 13  1  0
 13 14  2  0
 14 15  1  0
 14 16  1  0
 16 17  2  0
 17 18  1  0
 18 19  1  0
 18 20  1  0
 20 21  1  0
 20 22  1  0
 20 23  1  0
 23 24  1  0
 23 25  1  0
 23 26  1  0
 26 27  1  0
 26 28  1  0
 28 29  1  0
 28 30  1  0
 28 31  1  0
 31 32  1  0
 31 33  1  0
 31 34  1  0
 34 35  1  0
 17 36  1  0
 36 37  1  0
 36 38  2  0
 38 39  1  0
 38 40  1  0
 40 41  1  0
 41 42  2  0
 42 43  1  0
 42 44  1  0
 44 45  1  0
 44 46  1  0
 44 47  1  0
 47 48  1  0
 48 49  1  0
 48 50  1  0
 48 51  1  0
 47 52  1  0
 52 53  1  0
 52 54  1  0
 52 55  1  0
 40 56  2  0
 56  3  1  0
 13  4  1  0
 56 16  1  0
M  CHG  1  15  -1
M  END
>  <UniqueID>  (21) 
21

>  <SMILES>  (21) 
CN(C)C/C=N\c1ccc(NCCNCCO)c2c([O-])c3ccccc3c(O)c12

>  <Energy>  (21) 
90.18694586821408

>  <Genealogy>  (21) 
CN(C)CC=Nc1ccc(NCCNCCO)c2c([O-])c3ccccc3c(O)c12 (protonated)
CN(C)C/C=N\c1ccc(NCCNCCO)c2c([O-])c3ccccc3c(O)c12 (cis-trans isomerization)
CN(C)C/C=N\c1ccc(NCCNCCO)c2c([O-])c3ccccc3c(O)c12 (3D coordinates assigned)
CN(C)C/C=N\c1ccc(NCCNCCO)c2c([O-])c3ccccc3c(O)c12 (optimized conformer: 90.18694586821408 kcal/mol)

>  <smiles>  (21) 
CN(C)CC=Nc1ccc(NCCNCCO)c2c(O)c3ccccc3c(O)c12

>  <score_type>  (21) 
oracle

>  <origin>  (21) 
adgpu

>  <m_score__min__energy>  (21) 
-9.2300000000000004

>  <m_primary>  (21) 
energy

$$$$
21:0
     RDKit          3D

 54 57  0  0  0  0  0  0  0  0999 V2000
   -5.5730   26.0330  -30.4510 O   0  0  0  0  0  0  0  0  0  0  0  0
   -4.8620   24.9930  -30.4770 C   0  0  0  0  0  0  0  0  0  0  0  0
   -4.9900   24.1030  -31.5970 N   0  0  0  0  0  0  0  0  0  0  0  0
   -4.9420   22.6730  -31.5310 C   0  0  0  0  0  0  0  0  0  0  0  0
   -6.0830   21.9550  -31.9130 C   0  0  0  0  0  0  0  0  0  0  0  0
   -6.1040   20.5590  -31.8310 C   0  0  0  0  0  0  0  0  0  0  0  0
   -7.5530   19.6760  -32.3050 S   0  0  0  0  0  0  0  0  0  0  0  0
   -8.1620   19.0160  -31.0980 O   0  0  0  0  0  0  0  0  0  0  0  0
   -8.5480   20.6510  -32.8700 O   0  0  0  0  0  0  0  0  0  0  0  0
   -7.1550   18.4740  -33.5120 N   0  0  0  0  0  0  0  0  0  0  0  0
   -6.9310   17.1480  -32.8880 C   0  0  0  0  0  0  0  0  0  0  0  0
   -5.4310   16.8220  -32.7540 C   0  0  0  0  0  0  0  0  0  0  0  0
   -4.7490   16.8050  -34.0010 O   0  0  0  0  0  0  0  0  0  0  0  0
   -5.2630   17.7350  -34.9470 C   0  0  0  0  0  0  0  0  0  0  0  0
   -6.0000   18.9300  -34.3170 C   0  0  0  0  0  0  0  0  0  0  0  0
   -4.9630   19.8740  -31.4060 C   0  0  0  0  0  0  0  0  0  0  0  0
   -3.8080   20.5770  -31.0600 C   0  0  0  0  0  0  0  0  0  0  0  0
   -3.7720   21.9820  -31.1370 C   0  0  0  0  0  0  0  0  0  0  0  0
   -2.5470   22.6950  -30.8750 N   0  0  0  0  0  0  0  0  0  0  0  0
   -1.2820   22.0250  -30.5630 C   0  0  0  0  0  0  0  0  0  0  0  0
   -1.1970   21.7400  -29.0870 C   0  0  0  0  0  0  0  0  0  0  0  0
   -0.1700   22.2960  -28.3060 C   0  0  0  0  0  0  0  0  0  0  0  0
   -0.0800   21.9900  -26.9420 C   0  0  0  0  0  0  0  0  0  0  0  0
   -1.0040   21.1200  -26.3540 C   0  0  0  0  0  0  0  0  0  0  0  0
   -2.0210   20.5550  -27.1290 C   0  0  0  0  0  0  0  0  0  0  0  0
   -2.1160   20.8580  -28.4900 C   0  0  0  0  0  0  0  0  0  0  0  0
   -3.9290   24.7470  -29.3570 C   0  0  0  0  0  0  0  0  0  0  0  0
   -4.1810   24.0420  -28.1910 C   0  0  0  0  0  0  0  0  0  0  0  0
   -3.0140   24.1000  -27.4620 C   0  0  0  0  0  0  0  0  0  0  0  0
   -2.1260   24.8410  -28.2160 C   0  0  0  0  0  0  0  0  0  0  0  0
   -2.7000   25.2150  -29.3350 O   0  0  0  0  0  0  0  0  0  0  0  0
   -6.9691   22.4935  -32.2802 H   0  0  0  0  0  0  0  0  0  0  0  0
   -7.9870   18.4010  -34.1460 H   0  0  0  0  0  0  0  0  0  0  0  0
   -7.3865   17.1447  -31.8867 H   0  0  0  0  0  0  0  0  0  0  0  0
   -7.3892   16.3852  -33.5347 H   0  0  0  0  0  0  0  0  0  0  0  0
   -4.9640   17.5820  -32.1103 H   0  0  0  0  0  0  0  0  0  0  0  0
   -5.3526   15.8125  -32.3243 H   0  0  0  0  0  0  0  0  0  0  0  0
   -4.4229   18.1222  -35.5423 H   0  0  0  0  0  0  0  0  0  0  0  0
   -6.0011   17.1926  -35.5561 H   0  0  0  0  0  0  0  0  0  0  0  0
   -5.3036   19.4808  -33.6677 H   0  0  0  0  0  0  0  0  0  0  0  0
   -6.3691   19.5801  -35.1240 H   0  0  0  0  0  0  0  0  0  0  0  0
   -4.9750   18.7758  -31.3438 H   0  0  0  0  0  0  0  0  0  0  0  0
   -2.9165   20.0273  -30.7236 H   0  0  0  0  0  0  0  0  0  0  0  0
   -2.5380   23.7390  -30.9190 H   0  0  0  0  0  0  0  0  0  0  0  0
   -1.2248   21.0782  -31.1201 H   0  0  0  0  0  0  0  0  0  0  0  0
   -0.4470   22.6804  -30.8515 H   0  0  0  0  0  0  0  0  0  0  0  0
    0.5648   22.9728  -28.7664 H   0  0  0  0  0  0  0  0  0  0  0  0
    0.7196   22.4351  -26.3316 H   0  0  0  0  0  0  0  0  0  0  0  0
   -0.9305   20.8807  -25.2829 H   0  0  0  0  0  0  0  0  0  0  0  0
   -2.7478   19.8707  -26.6668 H   0  0  0  0  0  0  0  0  0  0  0  0
   -2.9132   20.4046  -29.0973 H   0  0  0  0  0  0  0  0  0  0  0  0
   -5.1179   23.5405  -27.9069 H   0  0  0  0  0  0  0  0  0  0  0  0
   -2.8270   23.6471  -26.4772 H   0  0  0  0  0  0  0  0  0  0  0  0
   -1.0934   25.0815  -27.9229 H   0  0  0  0  0  0  0  0  0  0  0  0
  1  2  2  0
  2  3  1  0
  3  4  1  0
  4  5  2  0
  5  6  1  0
  6  7  1  0
  7  8  2  0
  7  9  2  0
  7 10  1  0
 10 11  1  0
 11 12  1  0
 12 13  1  0
 13 14  1  0
 14 15  1  0
  6 16  2  0
 16 17  1  0
 17 18  2  0
 18 19  1  0
 19 20  1  0
 20 21  1  0
 21 22  2  0
 22 23  1  0
 23 24  2  0
 24 25  1  0
 25 26  2  0
  2 27  1  0
 27 28  2  0
 28 29  1  0
 29 30  2  0
 30 31  1  0
 18  4  1  0
 26 21  1  0
 31 27  1  0
 15 10  1  0
  5 32  1  0
 10 33  1  0
 11 34  1  0
 11 35  1  0
 12 36  1  0
 12 37  1  0
 14 38  1  0
 14 39  1  0
 15 40  1  0
 15 41  1  0
 16 42  1  0
 17 43  1  0
 19 44  1  0
 20 45  1  0
 20 46  1  0
 22 47  1  0
 23 48  1  0
 24 49  1  0
 25 50  1  0
 26 51  1  0
 28 52  1  0
 29 53  1  0
 30 54  1  0
M  CHG  2   3  -1  10   1
M  END
>  <UniqueID>  (22) 
22

>  <SMILES>  (22) 
O=C([N-]c1cc(S(=O)(=O)[NH+]2CCOCC2)ccc1NCc1ccccc1)c1ccco1

>  <Energy>  (22) 
105.07612479993995

>  <Genealogy>  (22) 
O=C([N-]c1cc(S(=O)(=O)[NH+]2CCOCC2)ccc1NCc1ccccc1)c1ccco1 (protonated)
O=C([N-]c1cc(S(=O)(=O)[NH+]2CCOCC2)ccc1NCc1ccccc1)c1ccco1 (3D coordinates assigned)
O=C([N-]c1cc(S(=O)(=O)[NH+]2CCOCC2)ccc1NCc1ccccc1)c1ccco1 (nonaromatic ring conformer: 105.07612479993995 kcal/mol)

>  <smiles>  (22) 
O=C(Nc1cc(S(=O)(=O)N2CCOCC2)ccc1NCc1ccccc1)c1ccco1

>  <score_type>  (22) 
oracle

>  <origin>  (22) 
adgpu

>  <m_score__min__energy>  (22) 
-10.130000000000001

>  <m_primary>  (22) 
energy

$$$$
22:0
     RDKit          3D

 49 51  0  0  0  0  0  0  0  0999 V2000
   -3.5440   25.9680  -31.2160 H   0  0  0  0  0  0  0  0  0  0  0  0
   -3.8630   25.2940  -30.4830 N   0  0  0  0  0  0  0  0  0  0  0  0
   -3.2490   24.0150  -30.3460 C   0  0  0  0  0  0  0  0  0  0  0  0
   -2.0300   23.9450  -30.0420 O   0  0  0  0  0  0  0  0  0  0  0  0
   -4.0280   22.7990  -30.6370 C   0  0  0  0  0  0  0  0  0  0  0  0
   -5.0850   22.7470  -31.5250 C   0  0  0  0  0  0  0  0  0  0  0  0
   -5.5351   23.6105  -32.0367 H   0  0  0  0  0  0  0  0  0  0  0  0
   -5.4740   21.4630  -31.6610 N   0  0  0  0  0  0  0  0  0  0  0  0
   -6.5290   20.9810  -32.5610 C   0  0  1  0  0  0  0  0  0  0  0  0
   -6.9813   21.8366  -33.0838 H   0  0  0  0  0  0  0  0  0  0  0  0
   -5.9240   20.0570  -33.6370 C   0  0  0  0  0  0  0  0  0  0  0  0
   -6.6752   19.8989  -34.4249 H   0  0  0  0  0  0  0  0  0  0  0  0
   -5.0198   20.5512  -34.0221 H   0  0  0  0  0  0  0  0  0  0  0  0
   -5.4960   18.6830  -33.0850 C   0  0  0  0  0  0  0  0  0  0  0  0
   -5.4308   17.9768  -33.9259 H   0  0  0  0  0  0  0  0  0  0  0  0
   -4.5296   18.8283  -32.5801 H   0  0  0  0  0  0  0  0  0  0  0  0
   -6.4660   18.1020  -32.0370 C   0  0  0  0  0  0  0  0  0  0  0  0
   -6.6116   17.0320  -32.2466 H   0  0  0  0  0  0  0  0  0  0  0  0
   -6.0203   18.2639  -31.0445 H   0  0  0  0  0  0  0  0  0  0  0  0
   -7.8320   18.7950  -32.0510 C   0  0  0  0  0  0  0  0  0  0  0  0
   -8.2915   18.6669  -33.0422 H   0  0  0  0  0  0  0  0  0  0  0  0
   -8.4657   18.3419  -31.2744 H   0  0  0  0  0  0  0  0  0  0  0  0
   -7.6840   20.3000  -31.7530 C   0  0  2  0  0  0  0  0  0  0  0  0
   -7.4054   20.4027  -30.6938 H   0  0  0  0  0  0  0  0  0  0  0  0
   -8.9710   20.9720  -32.0050 C   0  0  0  0  0  0  0  0  0  0  0  0
   -9.9830   21.4990  -32.2000 N   0  0  0  0  0  0  0  0  0  0  0  0
   -4.7210   20.6800  -30.9030 N   0  0  0  0  0  0  0  0  0  0  0  0
   -3.8420   21.4650  -30.2530 C   0  0  0  0  0  0  0  0  0  0  0  0
   -3.0150   20.9750  -29.3740 N   0  0  0  0  0  0  0  0  0  0  0  0
   -2.1470   21.7050  -28.4960 C   0  0  0  0  0  0  0  0  0  0  0  0
   -0.7660   21.4280  -28.5010 C   0  0  0  0  0  0  0  0  0  0  0  0
   -0.1950   20.4160  -29.4570 C   0  0  0  0  0  0  0  0  0  0  0  0
    0.2679   19.5955  -28.8891 H   0  0  0  0  0  0  0  0  0  0  0  0
   -1.0000   20.0150  -30.0904 H   0  0  0  0  0  0  0  0  0  0  0  0
    0.5645   20.8977  -30.0904 H   0  0  0  0  0  0  0  0  0  0  0  0
    0.0890   22.1420  -27.6480 C   0  0  0  0  0  0  0  0  0  0  0  0
    1.1684   21.9304  -27.6575 H   0  0  0  0  0  0  0  0  0  0  0  0
   -0.4180   23.1220  -26.7840 C   0  0  0  0  0  0  0  0  0  0  0  0
    0.5000   23.8600  -25.8560 C   0  0  0  0  0  0  0  0  0  0  0  0
    0.2243   23.6383  -24.8145 H   0  0  0  0  0  0  0  0  0  0  0  0
    1.5373   23.5415  -26.0364 H   0  0  0  0  0  0  0  0  0  0  0  0
    0.4118   24.9415  -26.0364 H   0  0  0  0  0  0  0  0  0  0  0  0
   -1.7980   23.3510  -26.7350 C   0  0  0  0  0  0  0  0  0  0  0  0
   -2.2012   24.0994  -26.0369 H   0  0  0  0  0  0  0  0  0  0  0  0
   -2.6730   22.6350  -27.5680 C   0  0  0  0  0  0  0  0  0  0  0  0
   -4.1530   22.8960  -27.4690 C   0  0  0  0  0  0  0  0  0  0  0  0
   -4.4462   22.9477  -26.4100 H   0  0  0  0  0  0  0  0  0  0  0  0
   -4.3909   23.8500  -27.9623 H   0  0  0  0  0  0  0  0  0  0  0  0
   -4.7029   22.0810  -27.9623 H   0  0  0  0  0  0  0  0  0  0  0  0
  1  2  1  0
  2  3  1  0
  3  4  2  0
  3  5  1  0
  5  6  2  0
  6  7  1  0
  6  8  1  0
  8  9  1  0
  9 10  1  6
  9 11  1  0
 11 12  1  0
 11 13  1  0
 11 14  1  0
 14 15  1  0
 14 16  1  0
 14 17  1  0
 17 18  1  0
 17 19  1  0
 17 20  1  0
 20 21  1  0
 20 22  1  0
 20 23  1  0
 23 24  1  1
 23 25  1  0
 25 26  3  0
  8 27  1  0
 27 28  1  0
 28 29  2  0
 29 30  1  0
 30 31  2  0
 31 32  1  0
 32 33  1  0
 32 34  1  0
 32 35  1  0
 31 36  1  0
 36 37  1  0
 36 38  2  0
 38 39  1  0
 39 40  1  0
 39 41  1  0
 39 42  1  0
 38 43  1  0
 43 44  1  0
 43 45  2  0
 45 46  1  0
 46 47  1  0
 46 48  1  0
 46 49  1  0
 28  5  1  0
 45 30  1  0
 23  9  1  0
M  CHG  2   2  -1  27  -1
M  END
>  <UniqueID>  (23) 
23

>  <SMILES>  (23) 
Cc1cc(C)c(/N=c2/[n-]n([C@H]3CCCC[C@@H]3C#N)cc2C([NH-])=O)c(C)c1

>  <Energy>  (23) 
96.68533795100618

>  <Genealogy>  (23) 
Cc1cc(C)c(N=c2[n-]n(C3CCCCC3C#N)cc2C([NH-])=O)c(C)c1 (protonated)
Cc1cc(C)c(N=c2[n-]n([C@H]3CCCC[C@@H]3C#N)cc2C([NH-])=O)c(C)c1 (chirality)
Cc1cc(C)c(/N=c2/[n-]n([C@H]3CCCC[C@@H]3C#N)cc2C([NH-])=O)c(C)c1 (cis-trans isomerization)
Cc1cc(C)c(/N=c2/[n-]n([C@H]3CCCC[C@@H]3C#N)cc2C([NH-])=O)c(C)c1 (3D coordinates assigned)
Cc1cc(C)c(/N=c2/[n-]n([C@H]3CCCC[C@@H]3C#N)cc2C([NH-])=O)c(C)c1 (nonaromatic ring conformer: 96.68533795100618 kcal/mol)

>  <smiles>  (23) 
Cc1cc(C)c(N=c2[nH]n(C3CCCCC3C#N)cc2C(N)=O)c(C)c1

>  <score_type>  (23) 
oracle

>  <origin>  (23) 
adgpu

>  <m_score__min__energy>  (23) 
-11

>  <m_primary>  (23) 
energy

$$$$
23:0
     RDKit          3D

 82 86  0  0  0  0  0  0  0  0999 V2000
   -1.1330   20.0900  -28.7810 C   0  0  0  0  0  0  0  0  0  0  0  0
   -1.7670   21.0560  -29.4420 C   0  0  0  0  0  0  0  0  0  0  0  0
   -1.0700   21.9870  -30.3420 C   0  0  0  0  0  0  0  0  0  0  0  0
   -0.9240   23.1880  -29.9830 O   0  0  0  0  0  0  0  0  0  0  0  0
   -0.5920   21.5530  -31.6240 N   0  0  0  0  0  0  0  0  0  0  0  0
   -1.0570   20.3680  -32.2850 C   0  0  0  0  0  0  0  0  0  0  0  0
   -2.3910   20.3260  -32.7090 C   0  0  0  0  0  0  0  0  0  0  0  0
   -2.8640   19.2430  -33.4620 C   0  0  0  0  0  0  0  0  0  0  0  0
   -4.2220   19.2110  -33.9200 N   0  0  0  0  0  0  0  0  0  0  0  0
   -5.3260   19.6760  -33.1170 C   0  0  0  0  0  0  0  0  0  0  0  0
   -5.1940   20.8840  -32.4240 C   0  0  0  0  0  0  0  0  0  0  0  0
   -6.2540   21.3920  -31.6580 C   0  0  0  0  0  0  0  0  0  0  0  0
   -6.1240   22.6790  -30.9220 C   0  0  0  0  0  0  0  0  0  0  0  0
   -7.0920   23.6900  -31.0770 C   0  0  0  0  0  0  0  0  0  0  0  0
   -6.9460   24.9160  -30.4320 C   0  0  0  0  0  0  0  0  0  0  0  0
   -5.8480   25.1470  -29.6030 C   0  0  0  0  0  0  0  0  0  0  0  0
   -4.8930   24.1450  -29.3970 C   0  0  0  0  0  0  0  0  0  0  0  0
   -3.7780   24.4040  -28.5290 N   0  0  0  0  0  0  0  0  0  0  0  0
   -3.2300   23.4250  -27.6290 C   0  0  0  0  0  0  0  0  0  0  0  0
   -3.7800   22.2970  -27.5060 O   0  0  0  0  0  0  0  0  0  0  0  0
   -2.0550   23.7550  -26.7940 C   0  0  0  0  0  0  0  0  0  0  0  0
   -0.9430   22.9020  -26.7570 C   0  0  0  0  0  0  0  0  0  0  0  0
    0.1800   23.2370  -25.9990 C   0  0  0  0  0  0  0  0  0  0  0  0
    0.2230   24.4380  -25.2730 C   0  0  0  0  0  0  0  0  0  0  0  0
    1.4760   24.8050  -24.5140 C   0  0  0  0  0  0  0  0  0  0  0  0
    2.1540   25.9490  -25.1640 N   0  0  0  0  0  0  0  0  0  0  0  0
    1.9970   25.9310  -26.6440 C   0  0  0  0  0  0  0  0  0  0  0  0
    3.3250   26.0420  -27.4150 C   0  0  0  0  0  0  0  0  0  0  0  0
    4.3390   25.0880  -26.9160 N   0  0  0  0  0  0  0  0  0  0  0  0
    4.1360   23.7390  -27.4730 C   0  0  0  0  0  0  0  0  0  0  0  0
    4.4660   25.0580  -25.4340 C   0  0  0  0  0  0  0  0  0  0  0  0
    3.5600   26.0770  -24.7240 C   0  0  0  0  0  0  0  0  0  0  0  0
   -0.9000   25.2960  -25.2960 C   0  0  0  0  0  0  0  0  0  0  0  0
   -0.9040   26.5520  -24.5790 C   0  0  0  0  0  0  0  0  0  0  0  0
   -0.9040   27.5580  -24.0050 N   0  0  0  0  0  0  0  0  0  0  0  0
   -2.0340   24.9420  -26.0390 C   0  0  0  0  0  0  0  0  0  0  0  0
   -5.0200   22.9220  -30.0790 C   0  0  0  0  0  0  0  0  0  0  0  0
   -7.4510   20.6620  -31.6140 C   0  0  0  0  0  0  0  0  0  0  0  0
   -7.5780   19.4710  -32.2710 N   0  0  0  0  0  0  0  0  0  0  0  0
   -8.8630   18.7630  -32.2170 C   0  0  0  0  0  0  0  0  0  0  0  0
   -6.5490   18.9780  -33.0330 C   0  0  0  0  0  0  0  0  0  0  0  0
   -6.7080   17.9050  -33.6770 O   0  0  0  0  0  0  0  0  0  0  0  0
   -2.0220   18.1560  -33.7170 C   0  0  0  0  0  0  0  0  0  0  0  0
   -0.7070   18.1570  -33.2450 C   0  0  0  0  0  0  0  0  0  0  0  0
   -0.2160   19.2500  -32.5080 C   0  0  0  0  0  0  0  0  0  0  0  0
    1.1930   19.1960  -31.9810 C   0  0  0  0  0  0  0  0  0  0  0  0
   -1.6958   19.4164  -28.1180 H   0  0  0  0  0  0  0  0  0  0  0  0
   -0.0463   19.9654  -28.8977 H   0  0  0  0  0  0  0  0  0  0  0  0
   -2.8539   21.1619  -29.3099 H   0  0  0  0  0  0  0  0  0  0  0  0
   -3.0726   21.1493  -32.4490 H   0  0  0  0  0  0  0  0  0  0  0  0
   -4.3450   19.2280  -34.9570 H   0  0  0  0  0  0  0  0  0  0  0  0
   -4.2479   21.4422  -32.4803 H   0  0  0  0  0  0  0  0  0  0  0  0
   -7.9712   23.5100  -31.7131 H   0  0  0  0  0  0  0  0  0  0  0  0
   -7.6990   25.7047  -30.5768 H   0  0  0  0  0  0  0  0  0  0  0  0
   -5.7322   26.1226  -29.1083 H   0  0  0  0  0  0  0  0  0  0  0  0
   -3.4860   25.3980  -28.4020 H   0  0  0  0  0  0  0  0  0  0  0  0
   -0.9557   21.9626  -27.3291 H   0  0  0  0  0  0  0  0  0  0  0  0
    1.0407   22.5527  -25.9701 H   0  0  0  0  0  0  0  0  0  0  0  0
    1.2083   25.0799  -23.4831 H   0  0  0  0  0  0  0  0  0  0  0  0
    2.1571   23.9413  -24.5090 H   0  0  0  0  0  0  0  0  0  0  0  0
    1.5093   24.9871  -26.9288 H   0  0  0  0  0  0  0  0  0  0  0  0
    1.3983   26.8141  -26.9117 H   0  0  0  0  0  0  0  0  0  0  0  0
    3.1361   25.8348  -28.4787 H   0  0  0  0  0  0  0  0  0  0  0  0
    3.7169   27.0596  -27.2703 H   0  0  0  0  0  0  0  0  0  0  0  0
    4.0272   23.0157  -26.6515 H   0  0  0  0  0  0  0  0  0  0  0  0
    3.2265   23.7308  -28.0917 H   0  0  0  0  0  0  0  0  0  0  0  0
    5.0028   23.4635  -28.0917 H   0  0  0  0  0  0  0  0  0  0  0  0
    4.2009   24.0503  -25.0814 H   0  0  0  0  0  0  0  0  0  0  0  0
    5.5057   25.3226  -25.1913 H   0  0  0  0  0  0  0  0  0  0  0  0
    3.6120   25.9066  -23.6385 H   0  0  0  0  0  0  0  0  0  0  0  0
    3.9112   27.0880  -24.9782 H   0  0  0  0  0  0  0  0  0  0  0  0
   -2.9165   25.5986  -26.0319 H   0  0  0  0  0  0  0  0  0  0  0  0
   -4.2500   22.1465  -29.9536 H   0  0  0  0  0  0  0  0  0  0  0  0
   -8.3028   21.0557  -31.0401 H   0  0  0  0  0  0  0  0  0  0  0  0
   -9.1505   18.6046  -31.1671 H   0  0  0  0  0  0  0  0  0  0  0  0
   -9.6341   19.3636  -32.7217 H   0  0  0  0  0  0  0  0  0  0  0  0
   -8.7672   17.7903  -32.7217 H   0  0  0  0  0  0  0  0  0  0  0  0
   -2.3967   17.2962  -34.2918 H   0  0  0  0  0  0  0  0  0  0  0  0
   -0.0516   17.2979  -33.4509 H   0  0  0  0  0  0  0  0  0  0  0  0
    1.1734   19.1968  -30.8812 H   0  0  0  0  0  0  0  0  0  0  0  0
    1.6832   18.2784  -32.3384 H   0  0  0  0  0  0  0  0  0  0  0  0
    1.7520   20.0734  -32.3384 H   0  0  0  0  0  0  0  0  0  0  0  0
  1  2  2  0
  2  3  1  0
  3  4  2  0
  3  5  1  0
  5  6  1  0
  6  7  2  0
  7  8  1  0
  8  9  1  0
  9 10  1  0
 10 11  2  0
 11 12  1  0
 12 13  1  0
 13 14  2  0
 14 15  1  0
 15 16  2  0
 16 17  1  0
 17 18  1  0
 18 19  1  0
 19 20  2  0
 19 21  1  0
 21 22  2  0
 22 23  1  0
 23 24  2  0
 24 25  1  0
 25 26  1  0
 26 27  1  0
 27 28  1  0
 28 29  1  0
 29 30  1  0
 29 31  1  0
 31 32  1  0
 24 33  1  0
 33 34  1  0
 34 35  3  0
 33 36  2  0
 17 37  2  0
 12 38  2  0
 38 39  1  0
 39 40  1  0
 39 41  1  0
 41 42  2  0
  8 43  2  0
 43 44  1  0
 44 45  2  0
 45 46  1  0
 45  6  1  0
 41 10  1  0
 37 13  1  0
 36 21  1  0
 32 26  1  0
  1 47  1  0
  1 48  1  0
  2 49  1  0
  7 50  1  0
  9 51  1  0
 11 52  1  0
 14 53  1  0
 15 54  1  0
 16 55  1  0
 18 56  1  0
 22 57  1  0
 23 58  1  0
 25 59  1  0
 25 60  1  0
 27 61  1  0
 27 62  1  0
 28 63  1  0
 28 64  1  0
 30 65  1  0
 30 66  1  0
 30 67  1  0
 31 68  1  0
 31 69  1  0
 32 70  1  0
 32 71  1  0
 36 72  1  0
 37 73  1  0
 38 74  1  0
 40 75  1  0
 40 76  1  0
 40 77  1  0
 43 78  1  0
 44 79  1  0
 46 80  1  0
 46 81  1  0
 46 82  1  0
M  CHG  1   5  -1
M  END
>  <UniqueID>  (24) 
24

>  <SMILES>  (24) 
C=CC(=O)[N-]c1cc(Nc2cc(-c3cccc(NC(=O)c4ccc(CN5CCN(C)CC5)c(C#N)c4)c3)cn(C)c2=O)ccc1C

>  <Energy>  (24) 
131.97689293676956

>  <Genealogy>  (24) 
C=CC(=O)[N-]c1cc(Nc2cc(-c3cccc(NC(=O)c4ccc(CN5CCN(C)CC5)c(C#N)c4)c3)cn(C)c2=O)ccc1C (protonated)
C=CC(=O)[N-]c1cc(Nc2cc(-c3cccc(NC(=O)c4ccc(CN5CCN(C)CC5)c(C#N)c4)c3)cn(C)c2=O)ccc1C (3D coordinates assigned)
C=CC(=O)[N-]c1cc(Nc2cc(-c3cccc(NC(=O)c4ccc(CN5CCN(C)CC5)c(C#N)c4)c3)cn(C)c2=O)ccc1C (nonaromatic ring conformer: 131.97689293676956 kcal/mol)

>  <smiles>  (24) 
C=CC(=O)Nc1cc(Nc2cc(-c3cccc(NC(=O)c4ccc(CN5CCN(C)CC5)c(C#N)c4)c3)cn(C)c2=O)ccc1C

>  <score_type>  (24) 
oracle

>  <origin>  (24) 
adgpu

>  <m_score__min__energy>  (24) 
-12.630000000000001

>  <m_primary>  (24) 
energy

$$$$
24:0
     RDKit          3D

 53 58  0  0  0  0  0  0  0  0999 V2000
   -9.4270   21.5440  -30.4730 O   0  0  0  0  0  0  0  0  0  0  0  0
   -8.7580   22.0850  -31.7070 S   0  0  0  0  0  0  0  0  0  0  0  0
   -9.6560   23.1190  -32.3270 O   0  0  0  0  0  0  0  0  0  0  0  0
   -8.5260   20.7850  -32.8370 N   0  0  0  0  0  0  0  0  0  0  0  0
   -7.5860   19.7220  -32.6550 C   0  0  0  0  0  0  0  0  0  0  0  0
   -7.7110   18.8110  -31.5920 C   0  0  0  0  0  0  0  0  0  0  0  0
   -6.7780   17.7820  -31.4370 C   0  0  0  0  0  0  0  0  0  0  0  0
   -5.6970   17.6770  -32.3200 C   0  0  0  0  0  0  0  0  0  0  0  0
   -5.5450   18.6070  -33.3540 C   0  0  0  0  0  0  0  0  0  0  0  0
   -6.4850   19.6310  -33.5160 C   0  0  0  0  0  0  0  0  0  0  0  0
   -7.2370   22.8460  -31.2430 C   0  0  0  0  0  0  0  0  0  0  0  0
   -7.2320   23.9990  -30.4460 C   0  0  0  0  0  0  0  0  0  0  0  0
   -6.0250   24.6210  -30.1160 C   0  0  0  0  0  0  0  0  0  0  0  0
   -4.8060   24.0870  -30.5570 C   0  0  0  0  0  0  0  0  0  0  0  0
   -3.5870   24.7600  -30.1990 N   0  0  0  0  0  0  0  0  0  0  0  0
   -2.5820   24.2440  -29.5530 C   0  0  0  0  0  0  0  0  0  0  0  0
   -2.6340   22.9700  -29.0730 N   0  0  0  0  0  0  0  0  0  0  0  0
   -1.6040   22.4470  -28.3600 C   0  0  0  0  0  0  0  0  0  0  0  0
   -0.4800   23.2330  -28.0840 C   0  0  0  0  0  0  0  0  0  0  0  0
   -0.4270   24.5250  -28.6030 C   0  0  0  0  0  0  0  0  0  0  0  0
   -1.4790   25.0070  -29.3180 N   0  0  0  0  0  0  0  0  0  0  0  0
    0.7850   22.6050  -26.9700 S   0  0  0  0  0  0  0  0  0  0  0  0
    0.8320   20.9980  -27.7700 C   0  0  0  0  0  0  0  0  0  0  0  0
    2.0610   20.4210  -28.1030 C   0  0  0  0  0  0  0  0  0  0  0  0
    2.0990   19.1880  -28.7590 C   0  0  0  0  0  0  0  0  0  0  0  0
    0.9100   18.5520  -29.1220 C   0  0  0  0  0  0  0  0  0  0  0  0
   -0.3200   19.1390  -28.8180 C   0  0  0  0  0  0  0  0  0  0  0  0
   -0.3760   20.3440  -28.0950 C   0  0  0  0  0  0  0  0  0  0  0  0
   -1.6230   21.0690  -27.9640 N   0  0  0  0  0  0  0  0  0  0  0  0
   -2.7500   20.6470  -27.1130 C   0  0  0  0  0  0  0  0  0  0  0  0
   -3.1030   19.1820  -27.2970 C   0  0  0  0  0  0  0  0  0  0  0  0
   -2.4940   19.6580  -25.9840 C   0  0  0  0  0  0  0  0  0  0  0  0
   -4.8140   22.9490  -31.3850 C   0  0  0  0  0  0  0  0  0  0  0  0
   -6.0230   22.3280  -31.7170 C   0  0  0  0  0  0  0  0  0  0  0  0
   -8.5446   18.9081  -30.8808 H   0  0  0  0  0  0  0  0  0  0  0  0
   -6.8933   17.0540  -30.6204 H   0  0  0  0  0  0  0  0  0  0  0  0
   -4.9668   16.8630  -32.2009 H   0  0  0  0  0  0  0  0  0  0  0  0
   -4.6875   18.5334  -34.0390 H   0  0  0  0  0  0  0  0  0  0  0  0
   -6.3586   20.3677  -34.3231 H   0  0  0  0  0  0  0  0  0  0  0  0
   -8.1816   24.4157  -30.0790 H   0  0  0  0  0  0  0  0  0  0  0  0
   -6.0313   25.5362  -29.5058 H   0  0  0  0  0  0  0  0  0  0  0  0
    0.4611   25.1520  -28.4354 H   0  0  0  0  0  0  0  0  0  0  0  0
    2.9981   20.9377  -27.8486 H   0  0  0  0  0  0  0  0  0  0  0  0
    3.0663   18.7179  -28.9897 H   0  0  0  0  0  0  0  0  0  0  0  0
    0.9424   17.5867  -29.6485 H   0  0  0  0  0  0  0  0  0  0  0  0
   -1.2518   18.6554  -29.1464 H   0  0  0  0  0  0  0  0  0  0  0  0
   -3.2628   21.6197  -27.1444 H   0  0  0  0  0  0  0  0  0  0  0  0
   -4.1575   18.8709  -27.3331 H   0  0  0  0  0  0  0  0  0  0  0  0
   -2.8490   18.4081  -28.0363 H   0  0  0  0  0  0  0  0  0  0  0  0
   -3.1086   19.6920  -25.0723 H   0  0  0  0  0  0  0  0  0  0  0  0
   -1.6187   19.3721  -25.3823 H   0  0  0  0  0  0  0  0  0  0  0  0
   -3.8665   22.5464  -31.7725 H   0  0  0  0  0  0  0  0  0  0  0  0
   -6.0213   21.4300  -32.3523 H   0  0  0  0  0  0  0  0  0  0  0  0
  1  2  2  0
  2  3  2  0
  2  4  1  0
  4  5  1  0
  5  6  2  0
  6  7  1  0
  7  8  2  0
  8  9  1  0
  9 10  2  0
  2 11  1  0
 11 12  2  0
 12 13  1  0
 13 14  2  0
 14 15  1  0
 15 16  2  3
 16 17  1  0
 17 18  2  0
 18 19  1  0
 19 20  2  0
 20 21  1  0
 19 22  1  0
 22 23  1  0
 23 24  2  0
 24 25  1  0
 25 26  2  0
 26 27  1  0
 27 28  2  0
 28 29  1  0
 29 30  1  0
 30 31  1  0
 31 32  1  0
 14 33  1  0
 33 34  2  0
 10  5  1  0
 34 11  1  0
 21 16  1  0
 28 23  1  0
 32 30  1  0
 29 18  1  0
  6 35  1  0
  7 36  1  0
  8 37  1  0
  9 38  1  0
 10 39  1  0
 12 40  1  0
 13 41  1  0
 20 42  1  0
 24 43  1  0
 25 44  1  0
 26 45  1  0
 27 46  1  0
 30 47  1  0
 31 48  1  0
 31 49  1  0
 32 50  1  0
 32 51  1  0
 33 52  1  0
 34 53  1  0
M  CHG  2   4  -1  21  -1
M  END
>  <UniqueID>  (25) 
25

>  <SMILES>  (25) 
O=S(=O)([N-]c1ccccc1)c1ccc(N=c2nc3c(c[n-]2)Sc2ccccc2N3C2CC2)cc1

>  <Energy>  (25) 
366.0333509935591

>  <Genealogy>  (25) 
O=S(=O)([N-]c1ccccc1)c1ccc(N=c2nc3c(c[n-]2)Sc2ccccc2N3C2CC2)cc1 (protonated)
O=S(=O)([N-]c1ccccc1)c1ccc(N=c2nc3c(c[n-]2)Sc2ccccc2N3C2CC2)cc1 (3D coordinates assigned)
O=S(=O)([N-]c1ccccc1)c1ccc(N=c2nc3c(c[n-]2)Sc2ccccc2N3C2CC2)cc1 (nonaromatic ring conformer: 366.0333509935591 kcal/mol)

>  <smiles>  (25) 
O=S(=O)(Nc1ccccc1)c1ccc(N=c2nc3c(c[nH]2)Sc2ccccc2N3C2CC2)cc1

>  <score_type>  (25) 
oracle

>  <origin>  (25) 
adgpu

>  <m_score__min__energy>  (25) 
-11.82

>  <m_primary>  (25) 
energy

$$$$
25:0
     RDKit          3D

 27 28  0  0  0  0  0  0  0  0999 V2000
   -3.8690   26.0730  -30.0860 H   0  0  0  0  0  0  0  0  0  0  0  0
   -3.8610   25.3140  -30.8030 N   0  0  0  0  0  0  0  0  0  0  0  0
   -4.2020   23.8350  -29.9750 S   0  0  0  0  0  0  0  0  0  0  0  0
   -2.9350   23.0420  -29.8210 O   0  0  0  0  0  0  0  0  0  0  0  0
   -4.7470   24.1440  -28.6080 O   0  0  0  0  0  0  0  0  0  0  0  0
   -5.3800   22.9040  -30.8940 C   0  0  0  0  0  0  0  0  0  0  0  0
   -6.7500   23.1310  -30.7200 C   0  0  0  0  0  0  0  0  0  0  0  0
   -7.0932   23.8940  -30.0059 H   0  0  0  0  0  0  0  0  0  0  0  0
   -7.6830   22.3910  -31.4510 C   0  0  0  0  0  0  0  0  0  0  0  0
   -8.7583   22.5707  -31.3045 H   0  0  0  0  0  0  0  0  0  0  0  0
   -7.2590   21.4230  -32.3680 C   0  0  0  0  0  0  0  0  0  0  0  0
   -8.2250   20.6620  -33.0270 O   0  0  0  0  0  0  0  0  0  0  0  0
   -7.9910   19.8930  -33.6420 H   0  0  0  0  0  0  0  0  0  0  0  0
   -5.8760   21.2260  -32.5840 C   0  0  0  0  0  0  0  0  0  0  0  0
   -5.3870   20.2750  -33.5420 N   0  0  0  0  0  0  0  0  0  0  0  0
   -5.7150   19.0160  -33.5700 C   0  0  0  0  0  0  0  0  0  0  0  0
   -6.6190   18.5060  -32.6850 N   0  0  0  0  0  0  0  0  0  0  0  0
   -6.9820   17.1960  -32.7030 C   0  0  0  0  0  0  0  0  0  0  0  0
   -7.7104   16.8171  -31.9710 H   0  0  0  0  0  0  0  0  0  0  0  0
   -6.4300   16.3310  -33.6510 C   0  0  0  0  0  0  0  0  0  0  0  0
   -6.7186   15.2697  -33.6706 H   0  0  0  0  0  0  0  0  0  0  0  0
   -5.5080   16.8290  -34.5730 C   0  0  0  0  0  0  0  0  0  0  0  0
   -5.0664   16.1604  -35.3266 H   0  0  0  0  0  0  0  0  0  0  0  0
   -5.1470   18.1780  -34.5370 C   0  0  0  0  0  0  0  0  0  0  0  0
   -4.4229   18.5782  -35.2619 H   0  0  0  0  0  0  0  0  0  0  0  0
   -4.9480   21.9520  -31.8250 C   0  0  0  0  0  0  0  0  0  0  0  0
   -3.8715   21.7723  -31.9620 H   0  0  0  0  0  0  0  0  0  0  0  0
  1  2  1  0
  2  3  1  0
  3  4  2  0
  3  5  2  0
  3  6  1  0
  6  7  2  0
  7  8  1  0
  7  9  1  0
  9 10  1  0
  9 11  2  0
 11 12  1  0
 12 13  1  0
 11 14  1  0
 14 15  1  0
 15 16  2  0
 16 17  1  0
 17 18  1  0
 18 19  1  0
 18 20  2  0
 20 21  1  0
 20 22  1  0
 22 23  1  0
 22 24  2  0
 24 25  1  0
 14 26  2  0
 26 27  1  0
 26  6  1  0
 24 16  1  0
M  CHG  2   2  -1  17  -1
M  END
>  <UniqueID>  (26) 
26

>  <SMILES>  (26) 
[NH-]S(=O)(=O)c1ccc(O)c(/N=c2/cccc[n-]2)c1

>  <Energy>  (26) 
36.97963177088331

>  <Genealogy>  (26) 
[NH-]S(=O)(=O)c1ccc(O)c(N=c2cccc[n-]2)c1 (protonated)
[NH-]S(=O)(=O)c1ccc(O)c(/N=c2/cccc[n-]2)c1 (cis-trans isomerization)
[NH-]S(=O)(=O)c1ccc(O)c(/N=c2/cccc[n-]2)c1 (3D coordinates assigned)
[NH-]S(=O)(=O)c1ccc(O)c(/N=c2/cccc[n-]2)c1 (optimized conformer: 36.97963177088331 kcal/mol)

>  <smiles>  (26) 
NS(=O)(=O)c1ccc(O)c(N=c2cccc[nH]2)c1

>  <score_type>  (26) 
oracle

>  <origin>  (26) 
adgpu

>  <m_score__min__energy>  (26) 
-9.0700000000000003

>  <m_primary>  (26) 
energy

$$$$
26:0
     RDKit          3D

 36 38  0  0  0  0  0  0  0  0999 V2000
   -3.7470   16.4820  -33.2090 C   0  0  0  0  0  0  0  0  0  0  0  0
   -3.7090   17.8880  -34.2960 S   0  0  0  0  0  0  0  0  0  0  0  0
   -2.2830   18.2290  -34.6280 O   0  0  0  0  0  0  0  0  0  0  0  0
   -4.4340   17.5580  -35.5710 O   0  0  0  0  0  0  0  0  0  0  0  0
   -4.4830   19.2580  -33.5080 C   0  0  0  0  0  0  0  0  0  0  0  0
   -5.8390   19.1990  -33.1630 C   0  0  0  0  0  0  0  0  0  0  0  0
   -6.4580   20.2910  -32.5490 C   0  0  0  0  0  0  0  0  0  0  0  0
   -5.7260   21.4560  -32.2650 C   0  0  0  0  0  0  0  0  0  0  0  0
   -6.3880   22.6110  -31.6210 C   0  0  0  0  0  0  0  0  0  0  0  0
   -7.6780   23.0470  -31.8810 C   0  0  0  0  0  0  0  0  0  0  0  0
   -7.9290   24.1340  -31.1860 O   0  0  0  0  0  0  0  0  0  0  0  0
   -6.8640   24.4310  -30.4800 C   0  0  0  0  0  0  0  0  0  0  0  0
   -6.7930   25.5100  -29.6060 O   0  0  0  0  0  0  0  0  0  0  0  0
   -5.8560   23.5130  -30.7050 C   0  0  0  0  0  0  0  0  0  0  0  0
   -4.5450   23.4650  -30.0210 C   0  0  0  0  0  0  0  0  0  0  0  0
   -4.1230   22.2930  -29.3680 C   0  0  0  0  0  0  0  0  0  0  0  0
   -2.8850   22.2520  -28.7210 C   0  0  0  0  0  0  0  0  0  0  0  0
   -2.0610   23.3810  -28.7130 C   0  0  0  0  0  0  0  0  0  0  0  0
   -2.4760   24.5530  -29.3520 C   0  0  0  0  0  0  0  0  0  0  0  0
   -1.6560   25.6750  -29.3430 O   0  0  0  0  0  0  0  0  0  0  0  0
   -3.7140   24.5980  -30.0010 C   0  0  0  0  0  0  0  0  0  0  0  0
   -4.3720   21.5190  -32.6370 C   0  0  0  0  0  0  0  0  0  0  0  0
   -3.7540   20.4260  -33.2500 C   0  0  0  0  0  0  0  0  0  0  0  0
   -3.7377   16.8259  -32.1642 H   0  0  0  0  0  0  0  0  0  0  0  0
   -4.6612   15.8993  -33.3951 H   0  0  0  0  0  0  0  0  0  0  0  0
   -2.8656   15.8507  -33.3951 H   0  0  0  0  0  0  0  0  0  0  0  0
   -6.4193   18.2892  -33.3763 H   0  0  0  0  0  0  0  0  0  0  0  0
   -7.5249   20.2381  -32.2864 H   0  0  0  0  0  0  0  0  0  0  0  0
   -8.3854   22.5568  -32.5661 H   0  0  0  0  0  0  0  0  0  0  0  0
   -6.6300   25.3600  -28.6170 H   0  0  0  0  0  0  0  0  0  0  0  0
   -4.7708   21.4040  -29.3665 H   0  0  0  0  0  0  0  0  0  0  0  0
   -2.5586   21.3301  -28.2174 H   0  0  0  0  0  0  0  0  0  0  0  0
   -1.0864   23.3473  -28.2041 H   0  0  0  0  0  0  0  0  0  0  0  0
   -4.0386   25.5242  -30.4979 H   0  0  0  0  0  0  0  0  0  0  0  0
   -3.7948   22.4353  -32.4442 H   0  0  0  0  0  0  0  0  0  0  0  0
   -2.6920   20.4829  -33.5308 H   0  0  0  0  0  0  0  0  0  0  0  0
  1  2  1  0
  2  3  2  0
  2  4  2  0
  2  5  1  0
  5  6  2  0
  6  7  1  0
  7  8  2  0
  8  9  1  0
  9 10  2  0
 10 11  1  0
 11 12  1  0
 12 13  1  0
 12 14  2  0
 14 15  1  0
 15 16  2  0
 16 17  1  0
 17 18  2  0
 18 19  1  0
 19 20  1  0
 19 21  2  0
  8 22  1  0
 22 23  2  0
 23  5  1  0
 14  9  1  0
 21 15  1  0
  1 24  1  0
  1 25  1  0
  1 26  1  0
  6 27  1  0
  7 28  1  0
 10 29  1  0
 13 30  1  0
 16 31  1  0
 17 32  1  0
 18 33  1  0
 21 34  1  0
 22 35  1  0
 23 36  1  0
M  CHG  1  20  -1
M  END
>  <UniqueID>  (27) 
27

>  <SMILES>  (27) 
CS(=O)(=O)c1ccc(-c2coc(O)c2-c2cccc([O-])c2)cc1

>  <Energy>  (27) 
71.31585525443316

>  <Genealogy>  (27) 
CS(=O)(=O)c1ccc(-c2coc(O)c2-c2cccc([O-])c2)cc1 (protonated)
CS(=O)(=O)c1ccc(-c2coc(O)c2-c2cccc([O-])c2)cc1 (3D coordinates assigned)
CS(=O)(=O)c1ccc(-c2coc(O)c2-c2cccc([O-])c2)cc1 (optimized conformer: 71.31585525443316 kcal/mol)

>  <smiles>  (27) 
CS(=O)(=O)c1ccc(-c2coc(O)c2-c2cccc(O)c2)cc1

>  <score_type>  (27) 
oracle

>  <origin>  (27) 
adgpu

>  <m_score__min__energy>  (27) 
-10.35

>  <m_primary>  (27) 
energy

$$$$
27:0
     RDKit          3D

 42 44  0  0  0  0  0  0  0  0999 V2000
   -7.6320   17.3670  -32.6190 C   0  0  0  0  0  0  0  0  0  0  0  0
   -9.1230   18.1770  -31.9590 S   0  0  0  0  0  0  0  0  0  0  0  0
   -8.3960   19.8160  -32.0030 C   0  0  0  0  0  0  0  0  0  0  0  0
   -9.0300   20.8800  -31.3540 C   0  0  0  0  0  0  0  0  0  0  0  0
   -8.4680   22.1600  -31.3910 C   0  0  0  0  0  0  0  0  0  0  0  0
   -7.2640   22.3850  -32.0790 C   0  0  0  0  0  0  0  0  0  0  0  0
   -6.6640   23.7650  -32.1430 C   0  0  0  0  0  0  0  0  0  0  0  0
   -5.7360   23.9750  -31.0230 N   0  0  0  0  0  0  0  0  0  0  0  0
   -5.9720   24.6930  -29.8970 C   0  0  0  0  0  0  0  0  0  0  0  0
   -7.2330   25.4500  -29.6070 C   0  0  0  0  0  0  0  0  0  0  0  0
   -4.8780   24.6460  -29.0520 C   0  0  0  0  0  0  0  0  0  0  0  0
   -3.9470   23.8510  -29.6870 C   0  0  0  0  0  0  0  0  0  0  0  0
   -2.6580   23.5020  -29.1600 N   0  0  0  0  0  0  0  0  0  0  0  0
   -1.6140   24.3330  -28.9760 C   0  0  0  0  0  0  0  0  0  0  0  0
   -1.6130   25.6760  -29.3340 O   0  0  0  0  0  0  0  0  0  0  0  0
   -0.5490   23.6730  -28.3970 C   0  0  0  0  0  0  0  0  0  0  0  0
   -0.9690   22.3680  -28.2010 C   0  0  0  0  0  0  0  0  0  0  0  0
   -2.2680   22.3080  -28.6700 C   0  0  0  0  0  0  0  0  0  0  0  0
   -3.0870   21.1840  -28.6100 O   0  0  0  0  0  0  0  0  0  0  0  0
   -4.4840   23.4680  -30.9060 C   0  0  0  0  0  0  0  0  0  0  0  0
   -3.8000   22.6330  -31.9510 C   0  0  0  0  0  0  0  0  0  0  0  0
   -6.6270   21.3090  -32.7190 C   0  0  0  0  0  0  0  0  0  0  0  0
   -7.1920   20.0310  -32.6800 C   0  0  0  0  0  0  0  0  0  0  0  0
   -7.0014   17.0244  -31.7854 H   0  0  0  0  0  0  0  0  0  0  0  0
   -7.9256   16.5044  -33.2352 H   0  0  0  0  0  0  0  0  0  0  0  0
   -7.0682   18.0828  -33.2352 H   0  0  0  0  0  0  0  0  0  0  0  0
   -9.9727   20.7098  -30.8133 H   0  0  0  0  0  0  0  0  0  0  0  0
   -8.9707   22.9940  -30.8794 H   0  0  0  0  0  0  0  0  0  0  0  0
   -6.1185   23.8790  -33.0914 H   0  0  0  0  0  0  0  0  0  0  0  0
   -7.4727   24.5079  -32.0792 H   0  0  0  0  0  0  0  0  0  0  0  0
   -7.3694   25.5319  -28.5186 H   0  0  0  0  0  0  0  0  0  0  0  0
   -7.1652   26.4568  -30.0448 H   0  0  0  0  0  0  0  0  0  0  0  0
   -8.0897   24.9167  -30.0448 H   0  0  0  0  0  0  0  0  0  0  0  0
   -4.7723   25.1406  -28.0752 H   0  0  0  0  0  0  0  0  0  0  0  0
    0.4336   24.0973  -28.1429 H   0  0  0  0  0  0  0  0  0  0  0  0
   -0.3865   21.5452  -27.7609 H   0  0  0  0  0  0  0  0  0  0  0  0
   -2.6910   20.2530  -28.5750 H   0  0  0  0  0  0  0  0  0  0  0  0
   -3.1759   21.8712  -31.4609 H   0  0  0  0  0  0  0  0  0  0  0  0
   -4.5564   22.1391  -32.5786 H   0  0  0  0  0  0  0  0  0  0  0  0
   -3.1668   23.2774  -32.5786 H   0  0  0  0  0  0  0  0  0  0  0  0
   -5.6795   21.4728  -33.2532 H   0  0  0  0  0  0  0  0  0  0  0  0
   -6.6881   19.1926  -33.1832 H   0  0  0  0  0  0  0  0  0  0  0  0
  1  2  1  0
  2  3  1  0
  3  4  2  0
  4  5  1  0
  5  6  2  0
  6  7  1  0
  7  8  1  0
  8  9  1  0
  9 10  1  0
  9 11  2  0
 11 12  1  0
 12 13  1  0
 13 14  1  0
 14 15  1  0
 14 16  2  0
 16 17  1  0
 17 18  2  0
 18 19  1  0
 12 20  2  0
 20 21  1  0
  6 22  1  0
 22 23  2  0
 23  3  1  0
 20  8  1  0
 18 13  1  0
  1 24  1  0
  1 25  1  0
  1 26  1  0
  4 27  1  0
  5 28  1  0
  7 29  1  0
  7 30  1  0
 10 31  1  0
 10 32  1  0
 10 33  1  0
 11 34  1  0
 16 35  1  0
 17 36  1  0
 19 37  1  0
 21 38  1  0
 21 39  1  0
 21 40  1  0
 22 41  1  0
 23 42  1  0
M  CHG  1  15  -1
M  END
>  <UniqueID>  (28) 
28

>  <SMILES>  (28) 
CSc1ccc(Cn2c(C)cc(-n3c([O-])ccc3O)c2C)cc1

>  <Energy>  (28) 
96.30379262605209

>  <Genealogy>  (28) 
CSc1ccc(Cn2c(C)cc(-n3c([O-])ccc3O)c2C)cc1 (protonated)
CSc1ccc(Cn2c(C)cc(-n3c([O-])ccc3O)c2C)cc1 (3D coordinates assigned)
CSc1ccc(Cn2c(C)cc(-n3c([O-])ccc3O)c2C)cc1 (optimized conformer: 96.30379262605209 kcal/mol)

>  <smiles>  (28) 
CSc1ccc(Cn2c(C)cc(-n3c(O)ccc3O)c2C)cc1

>  <score_type>  (28) 
oracle

>  <origin>  (28) 
adgpu

>  <m_score__min__energy>  (28) 
-10.83

>  <m_primary>  (28) 
energy

$$$$
28:0
     RDKit          3D

 49 51  0  0  0  0  0  0  0  0999 V2000
    1.6090   24.9810  -26.9750 C   0  0  0  0  0  0  0  0  0  0  0  0
    0.9350   24.6360  -28.1810 O   0  0  0  0  0  0  0  0  0  0  0  0
   -0.4320   24.3320  -28.2660 C   0  0  0  0  0  0  0  0  0  0  0  0
   -1.3820   24.8700  -27.3760 C   0  0  0  0  0  0  0  0  0  0  0  0
   -2.7330   24.5350  -27.5020 C   0  0  0  0  0  0  0  0  0  0  0  0
   -3.1550   23.6560  -28.5100 C   0  0  0  0  0  0  0  0  0  0  0  0
   -4.6120   23.3240  -28.6670 C   0  0  0  0  0  0  0  0  0  0  0  0
   -5.3440   24.3260  -29.9500 S   0  0  0  0  0  0  0  0  0  0  0  0
   -6.1040   25.4630  -29.3250 O   0  0  0  0  0  0  0  0  0  0  0  0
   -4.2770   24.8810  -30.8500 O   0  0  0  0  0  0  0  0  0  0  0  0
   -6.4400   23.3380  -30.8920 C   0  0  0  0  0  0  0  0  0  0  0  0
   -6.0830   22.0730  -31.2330 N   0  0  0  0  0  0  0  0  0  0  0  0
   -6.9170   21.2760  -31.9520 C   0  0  0  0  0  0  0  0  0  0  0  0
   -6.5020   19.8940  -32.2830 C   0  0  0  0  0  0  0  0  0  0  0  0
   -7.3610   18.7980  -32.0110 C   0  0  0  0  0  0  0  0  0  0  0  0
   -8.7190   18.9910  -31.3870 C   0  0  0  0  0  0  0  0  0  0  0  0
   -6.9350   17.4940  -32.3100 C   0  0  0  0  0  0  0  0  0  0  0  0
   -5.6980   17.2670  -32.9220 C   0  0  0  0  0  0  0  0  0  0  0  0
   -5.2460   15.8650  -33.2150 C   0  0  0  0  0  0  0  0  0  0  0  0
   -4.8550   18.3480  -33.2000 C   0  0  0  0  0  0  0  0  0  0  0  0
   -5.2390   19.6600  -32.8830 C   0  0  0  0  0  0  0  0  0  0  0  0
   -4.2980   20.7930  -33.2030 C   0  0  0  0  0  0  0  0  0  0  0  0
   -8.1700   21.7620  -32.3420 C   0  0  0  0  0  0  0  0  0  0  0  0
   -8.5180   23.0670  -31.9860 C   0  0  0  0  0  0  0  0  0  0  0  0
   -9.6350   23.5380  -32.3230 O   0  0  0  0  0  0  0  0  0  0  0  0
   -7.6510   23.8280  -31.2700 N   0  0  0  0  0  0  0  0  0  0  0  0
   -2.2100   23.1290  -29.4030 C   0  0  0  0  0  0  0  0  0  0  0  0
   -0.8580   23.4640  -29.2770 C   0  0  0  0  0  0  0  0  0  0  0  0
    1.0007   24.6696  -26.1130 H   0  0  0  0  0  0  0  0  0  0  0  0
    2.5827   24.4704  -26.9402 H   0  0  0  0  0  0  0  0  0  0  0  0
    1.7642   26.0694  -26.9402 H   0  0  0  0  0  0  0  0  0  0  0  0
   -1.0595   25.5562  -26.5790 H   0  0  0  0  0  0  0  0  0  0  0  0
   -3.4697   24.9633  -26.8064 H   0  0  0  0  0  0  0  0  0  0  0  0
   -4.7150   22.2618  -28.9336 H   0  0  0  0  0  0  0  0  0  0  0  0
   -5.1285   23.5272  -27.7173 H   0  0  0  0  0  0  0  0  0  0  0  0
   -8.6242   18.9775  -30.2912 H   0  0  0  0  0  0  0  0  0  0  0  0
   -9.1356   19.9574  -31.7072 H   0  0  0  0  0  0  0  0  0  0  0  0
   -9.3884   18.1790  -31.7072 H   0  0  0  0  0  0  0  0  0  0  0  0
   -7.5821   16.6404  -32.0599 H   0  0  0  0  0  0  0  0  0  0  0  0
   -5.0736   15.3302  -32.2694 H   0  0  0  0  0  0  0  0  0  0  0  0
   -6.0215   15.3434  -33.7951 H   0  0  0  0  0  0  0  0  0  0  0  0
   -4.3119   15.8946  -33.7951 H   0  0  0  0  0  0  0  0  0  0  0  0
   -3.8785   18.1674  -33.6732 H   0  0  0  0  0  0  0  0  0  0  0  0
   -3.9284   21.2380  -32.2674 H   0  0  0  0  0  0  0  0  0  0  0  0
   -3.4485   20.4101  -33.7876 H   0  0  0  0  0  0  0  0  0  0  0  0
   -4.8303   21.5578  -33.7876 H   0  0  0  0  0  0  0  0  0  0  0  0
   -8.8647   21.1309  -32.9156 H   0  0  0  0  0  0  0  0  0  0  0  0
   -2.5337   22.4497  -30.2054 H   0  0  0  0  0  0  0  0  0  0  0  0
   -0.1236   23.0415  -29.9786 H   0  0  0  0  0  0  0  0  0  0  0  0
  1  2  1  0
  2  3  1  0
  3  4  2  0
  4  5  1  0
  5  6  2  0
  6  7  1  0
  7  8  1  0
  8  9  2  0
  8 10  2  0
  8 11  1  0
 11 12  2  0
 12 13  1  0
 13 14  1  0
 14 15  2  0
 15 16  1  0
 15 17  1  0
 17 18  2  0
 18 19  1  0
 18 20  1  0
 20 21  2  0
 21 22  1  0
 13 23  2  0
 23 24  1  0
 24 25  2  0
 24 26  1  0
  6 27  1  0
 27 28  2  0
 28  3  1  0
 26 11  1  0
 21 14  1  0
  1 29  1  0
  1 30  1  0
  1 31  1  0
  4 32  1  0
  5 33  1  0
  7 34  1  0
  7 35  1  0
 16 36  1  0
 16 37  1  0
 16 38  1  0
 17 39  1  0
 19 40  1  0
 19 41  1  0
 19 42  1  0
 20 43  1  0
 22 44  1  0
 22 45  1  0
 22 46  1  0
 23 47  1  0
 27 48  1  0
 28 49  1  0
M  CHG  1  26  -1
M  END
>  <UniqueID>  (29) 
29

>  <SMILES>  (29) 
COc1ccc(CS(=O)(=O)c2nc(-c3c(C)cc(C)cc3C)cc(=O)[n-]2)cc1

>  <Energy>  (29) 
54.858821561264314

>  <Genealogy>  (29) 
COc1ccc(CS(=O)(=O)c2nc(-c3c(C)cc(C)cc3C)cc(=O)[n-]2)cc1 (protonated)
COc1ccc(CS(=O)(=O)c2nc(-c3c(C)cc(C)cc3C)cc(=O)[n-]2)cc1 (3D coordinates assigned)
COc1ccc(CS(=O)(=O)c2nc(-c3c(C)cc(C)cc3C)cc(=O)[n-]2)cc1 (optimized conformer: 54.858821561264314 kcal/mol)

>  <smiles>  (29) 
COc1ccc(CS(=O)(=O)c2nc(-c3c(C)cc(C)cc3C)cc(=O)[nH]2)cc1

>  <score_type>  (29) 
oracle

>  <origin>  (29) 
adgpu

>  <m_score__min__energy>  (29) 
-10.449999999999999

>  <m_primary>  (29) 
energy

$$$$
29:0
     RDKit          3D

 31 32  0  0  0  0  0  0  0  0999 V2000
   -1.6450   22.2810  -30.5700 C   0  0  0  0  0  0  0  0  0  0  0  0
   -2.6570   23.0940  -29.7510 C   0  0  0  0  0  0  0  0  0  0  0  0
   -2.8350   22.5140  -28.3420 C   0  0  0  0  0  0  0  0  0  0  0  0
   -3.9940   23.2360  -30.4800 C   0  0  0  0  0  0  0  0  0  0  0  0
   -4.5310   24.4960  -30.8090 C   0  0  0  0  0  0  0  0  0  0  0  0
   -3.8610   25.6690  -30.4810 O   0  0  0  0  0  0  0  0  0  0  0  0
   -5.7200   24.5830  -31.4560 N   0  0  0  0  0  0  0  0  0  0  0  0
   -6.4230   23.4740  -31.8020 C   0  0  0  0  0  0  0  0  0  0  0  0
   -7.5330   23.6070  -32.3880 O   0  0  0  0  0  0  0  0  0  0  0  0
   -5.9370   22.2290  -31.5050 N   0  0  0  0  0  0  0  0  0  0  0  0
   -6.6910   21.0560  -31.8780 C   0  0  0  0  0  0  0  0  0  0  0  0
   -7.9710   20.8360  -31.3440 C   0  0  0  0  0  0  0  0  0  0  0  0
   -8.7000   19.7000  -31.7070 C   0  0  0  0  0  0  0  0  0  0  0  0
   -8.1560   18.7760  -32.6040 C   0  0  0  0  0  0  0  0  0  0  0  0
   -6.8820   18.9880  -33.1400 C   0  0  0  0  0  0  0  0  0  0  0  0
   -6.1500   20.1230  -32.7790 C   0  0  0  0  0  0  0  0  0  0  0  0
   -4.7370   22.0960  -30.8550 C   0  0  0  0  0  0  0  0  0  0  0  0
   -4.2890   20.9430  -30.5990 O   0  0  0  0  0  0  0  0  0  0  0  0
   -0.9718   21.7402  -29.8885 H   0  0  0  0  0  0  0  0  0  0  0  0
   -2.1814   21.5599  -31.2042 H   0  0  0  0  0  0  0  0  0  0  0  0
   -1.0564   22.9603  -31.2042 H   0  0  0  0  0  0  0  0  0  0  0  0
   -2.2454   24.1077  -29.6369 H   0  0  0  0  0  0  0  0  0  0  0  0
   -2.5981   23.2860  -27.5951 H   0  0  0  0  0  0  0  0  0  0  0  0
   -3.8759   22.1836  -28.2103 H   0  0  0  0  0  0  0  0  0  0  0  0
   -2.1587   21.6566  -28.2103 H   0  0  0  0  0  0  0  0  0  0  0  0
   -6.1030   25.5270  -31.6890 H   0  0  0  0  0  0  0  0  0  0  0  0
   -8.4017   21.5606  -30.6372 H   0  0  0  0  0  0  0  0  0  0  0  0
   -9.7026   19.5329  -31.2865 H   0  0  0  0  0  0  0  0  0  0  0  0
   -8.7303   17.8819  -32.8882 H   0  0  0  0  0  0  0  0  0  0  0  0
   -6.4553   18.2609  -33.8465 H   0  0  0  0  0  0  0  0  0  0  0  0
   -5.1476   20.2863  -33.2015 H   0  0  0  0  0  0  0  0  0  0  0  0
  1  2  1  0
  2  3  1  0
  2  4  1  0
  4  5  2  0
  5  6  1  0
  5  7  1  0
  7  8  1  0
  8  9  2  0
  8 10  1  0
 10 11  1  0
 11 12  2  0
 12 13  1  0
 13 14  2  0
 14 15  1  0
 15 16  2  0
 10 17  1  0
 17 18  2  0
 17  4  1  0
 16 11  1  0
  1 19  1  0
  1 20  1  0
  1 21  1  0
  2 22  1  0
  3 23  1  0
  3 24  1  0
  3 25  1  0
  7 26  1  0
 12 27  1  0
 13 28  1  0
 14 29  1  0
 15 30  1  0
 16 31  1  0
M  CHG  1   6  -1
M  END
>  <UniqueID>  (30) 
30

>  <SMILES>  (30) 
CC(C)c1c([O-])[nH]c(=O)n(-c2ccccc2)c1=O

>  <Energy>  (30) 
42.10139667234458

>  <Genealogy>  (30) 
CC(C)c1c([O-])[nH]c(=O)n(-c2ccccc2)c1=O (protonated)
CC(C)c1c([O-])[nH]c(=O)n(-c2ccccc2)c1=O (3D coordinates assigned)
CC(C)c1c([O-])[nH]c(=O)n(-c2ccccc2)c1=O (optimized conformer: 42.10139667234458 kcal/mol)

>  <smiles>  (30) 
CC(C)c1c(O)[nH]c(=O)n(-c2ccccc2)c1=O

>  <score_type>  (30) 
oracle

>  <origin>  (30) 
adgpu

>  <m_score__min__energy>  (30) 
-9.6300000000000008

>  <m_primary>  (30) 
energy

$$$$
30:0
     RDKit          3D

 43 45  0  0  0  0  0  0  0  0999 V2000
   -6.3780   17.6190  -32.6670 C   0  0  0  0  0  0  0  0  0  0  0  0
   -6.6150   18.9050  -33.3980 C   0  0  0  0  0  0  0  0  0  0  0  0
   -6.0940   19.0670  -34.5350 O   0  0  0  0  0  0  0  0  0  0  0  0
   -7.4720   19.9250  -32.8550 N   0  0  0  0  0  0  0  0  0  0  0  0
   -8.8950   19.5750  -32.6990 C   0  0  0  0  0  0  0  0  0  0  0  0
   -9.7460   20.7780  -32.2840 C   0  0  0  0  0  0  0  0  0  0  0  0
   -9.1260   21.4770  -31.0760 C   0  0  0  0  0  0  0  0  0  0  0  0
   -7.7240   21.9130  -31.3980 C   0  0  0  0  0  0  0  0  0  0  0  0
   -7.1950   23.0700  -30.8040 C   0  0  0  0  0  0  0  0  0  0  0  0
   -5.9000   23.4970  -31.1180 C   0  0  0  0  0  0  0  0  0  0  0  0
   -5.2190   24.9360  -30.3630 S   0  0  0  0  0  0  0  0  0  0  0  0
   -5.6300   25.0130  -28.9180 O   0  0  0  0  0  0  0  0  0  0  0  0
   -5.7380   26.1530  -31.0720 O   0  0  0  0  0  0  0  0  0  0  0  0
   -3.4860   24.9030  -30.4770 N   0  0  0  0  0  0  0  0  0  0  0  0
   -2.9430   23.9480  -29.5140 C   0  0  0  0  0  0  0  0  0  0  0  0
   -2.3840   24.6970  -28.3410 C   0  0  0  0  0  0  0  0  0  0  0  0
   -3.0050   24.6120  -27.0840 C   0  0  0  0  0  0  0  0  0  0  0  0
   -2.5030   25.3390  -26.0000 C   0  0  0  0  0  0  0  0  0  0  0  0
   -1.3850   26.1630  -26.1660 C   0  0  0  0  0  0  0  0  0  0  0  0
   -0.7720   26.2650  -27.4180 C   0  0  0  0  0  0  0  0  0  0  0  0
   -1.2720   25.5400  -28.5040 C   0  0  0  0  0  0  0  0  0  0  0  0
   -5.1300   22.7630  -32.0260 C   0  0  0  0  0  0  0  0  0  0  0  0
   -5.6430   21.6000  -32.6070 C   0  0  0  0  0  0  0  0  0  0  0  0
   -6.9310   21.1390  -32.2720 C   0  0  0  0  0  0  0  0  0  0  0  0
   -6.4117   17.8019  -31.5828 H   0  0  0  0  0  0  0  0  0  0  0  0
   -7.1574   16.8926  -32.9407 H   0  0  0  0  0  0  0  0  0  0  0  0
   -5.3909   17.2182  -32.9407 H   0  0  0  0  0  0  0  0  0  0  0  0
   -9.2717   19.1889  -33.6577 H   0  0  0  0  0  0  0  0  0  0  0  0
   -8.9707   18.8184  -31.9041 H   0  0  0  0  0  0  0  0  0  0  0  0
   -9.8044   21.4873  -33.1227 H   0  0  0  0  0  0  0  0  0  0  0  0
  -10.7532   20.4270  -32.0152 H   0  0  0  0  0  0  0  0  0  0  0  0
   -9.7306   22.3581  -30.8150 H   0  0  0  0  0  0  0  0  0  0  0  0
   -9.1007   20.7773  -30.2276 H   0  0  0  0  0  0  0  0  0  0  0  0
   -7.8018   23.6438  -30.0880 H   0  0  0  0  0  0  0  0  0  0  0  0
   -3.7425   23.2737  -29.1733 H   0  0  0  0  0  0  0  0  0  0  0  0
   -2.1469   23.3556  -29.9886 H   0  0  0  0  0  0  0  0  0  0  0  0
   -3.8893   23.9713  -26.9518 H   0  0  0  0  0  0  0  0  0  0  0  0
   -2.9879   25.2628  -25.0156 H   0  0  0  0  0  0  0  0  0  0  0  0
   -0.9883   26.7307  -25.3114 H   0  0  0  0  0  0  0  0  0  0  0  0
    0.1047   26.9163  -27.5491 H   0  0  0  0  0  0  0  0  0  0  0  0
   -0.7927   25.6300  -29.4900 H   0  0  0  0  0  0  0  0  0  0  0  0
   -4.1161   23.1026  -32.2840 H   0  0  0  0  0  0  0  0  0  0  0  0
   -5.0352   21.0395  -33.3326 H   0  0  0  0  0  0  0  0  0  0  0  0
  1  2  1  0
  2  3  2  0
  2  4  1  0
  4  5  1  0
  5  6  1  0
  6  7  1  0
  7  8  1  0
  8  9  2  0
  9 10  1  0
 10 11  1  0
 11 12  2  0
 11 13  2  0
 11 14  1  0
 14 15  1  0
 15 16  1  0
 16 17  2  0
 17 18  1  0
 18 19  2  0
 19 20  1  0
 20 21  2  0
 10 22  2  0
 22 23  1  0
 23 24  2  0
 24  4  1  0
 24  8  1  0
 21 16  1  0
  1 25  1  0
  1 26  1  0
  1 27  1  0
  5 28  1  0
  5 29  1  0
  6 30  1  0
  6 31  1  0
  7 32  1  0
  7 33  1  0
  9 34  1  0
 15 35  1  0
 15 36  1  0
 17 37  1  0
 18 38  1  0
 19 39  1  0
 20 40  1  0
 21 41  1  0
 22 42  1  0
 23 43  1  0
M  CHG  1  14  -1
M  END
>  <UniqueID>  (31) 
31

>  <SMILES>  (31) 
CC(=O)N1CCCc2cc(S(=O)(=O)[N-]Cc3ccccc3)ccc21

>  <Energy>  (31) 
47.58879149153798

>  <Genealogy>  (31) 
CC(=O)N1CCCc2cc(S(=O)(=O)[N-]Cc3ccccc3)ccc21 (protonated)
CC(=O)N1CCCc2cc(S(=O)(=O)[N-]Cc3ccccc3)ccc21 (3D coordinates assigned)
CC(=O)N1CCCc2cc(S(=O)(=O)[N-]Cc3ccccc3)ccc21 (nonaromatic ring conformer: 47.58879149153798 kcal/mol)

>  <smiles>  (31) 
CC(=O)N1CCCc2cc(S(=O)(=O)NCc3ccccc3)ccc21

>  <score_type>  (31) 
oracle

>  <origin>  (31) 
adgpu

>  <m_score__min__energy>  (31) 
-11.09

>  <m_primary>  (31) 
energy

$$$$
31:0
     RDKit          3D

 42 44  0  0  0  0  0  0  0  0999 V2000
   -6.1650   14.5180  -34.2030 C   0  0  0  0  0  0  0  0  0  0  0  0
   -6.8610   15.7490  -34.3530 O   0  0  0  0  0  0  0  0  0  0  0  0
   -6.4990   16.9480  -33.7170 C   0  0  0  0  0  0  0  0  0  0  0  0
   -7.2700   17.3870  -32.6400 C   0  0  0  0  0  0  0  0  0  0  0  0
   -6.9470   18.5700  -31.9720 C   0  0  0  0  0  0  0  0  0  0  0  0
   -5.8480   19.3410  -32.3760 C   0  0  0  0  0  0  0  0  0  0  0  0
   -5.5380   20.5280  -31.6360 N   0  0  0  0  0  0  0  0  0  0  0  0
   -4.2040   20.8060  -31.1820 C   0  0  0  0  0  0  0  0  0  0  0  0
   -3.3220   19.9060  -31.2360 O   0  0  0  0  0  0  0  0  0  0  0  0
   -3.8390   22.1420  -30.6730 C   0  0  0  0  0  0  0  0  0  0  0  0
   -4.2160   23.3520  -31.2280 C   0  0  0  0  0  0  0  0  0  0  0  0
   -3.7300   24.3190  -30.3780 C   0  0  0  0  0  0  0  0  0  0  0  0
   -3.8720   25.6850  -30.5830 O   0  0  0  0  0  0  0  0  0  0  0  0
   -3.0820   23.7660  -29.3290 N   0  0  0  0  0  0  0  0  0  0  0  0
   -2.4850   24.4440  -28.2040 C   0  0  0  0  0  0  0  0  0  0  0  0
   -1.1750   24.9560  -28.2820 C   0  0  0  0  0  0  0  0  0  0  0  0
   -0.6120   25.6290  -27.1930 C   0  0  0  0  0  0  0  0  0  0  0  0
   -1.3420   25.7910  -26.0140 C   0  0  0  0  0  0  0  0  0  0  0  0
   -2.6440   25.2910  -25.9270 C   0  0  0  0  0  0  0  0  0  0  0  0
   -3.2160   24.6280  -27.0150 C   0  0  0  0  0  0  0  0  0  0  0  0
   -3.1390   22.4300  -29.5120 C   0  0  0  0  0  0  0  0  0  0  0  0
   -5.0630   18.9140  -33.4800 C   0  0  0  0  0  0  0  0  0  0  0  0
   -3.9370   19.6000  -33.9740 O   0  0  0  0  0  0  0  0  0  0  0  0
   -2.6040   19.1030  -34.0180 C   0  0  0  0  0  0  0  0  0  0  0  0
   -5.3950   17.7160  -34.1260 C   0  0  0  0  0  0  0  0  0  0  0  0
   -6.0394   14.2958  -33.1330 H   0  0  0  0  0  0  0  0  0  0  0  0
   -6.7405   13.7109  -34.6800 H   0  0  0  0  0  0  0  0  0  0  0  0
   -5.1768   14.5950  -34.6800 H   0  0  0  0  0  0  0  0  0  0  0  0
   -8.1391   16.7965  -32.3146 H   0  0  0  0  0  0  0  0  0  0  0  0
   -7.5606   18.9000  -31.1208 H   0  0  0  0  0  0  0  0  0  0  0  0
   -6.3160   21.1780  -31.3950 H   0  0  0  0  0  0  0  0  0  0  0  0
   -4.7858   23.5085  -32.1558 H   0  0  0  0  0  0  0  0  0  0  0  0
   -0.5913   24.8257  -29.2052 H   0  0  0  0  0  0  0  0  0  0  0  0
    0.4090   26.0319  -27.2656 H   0  0  0  0  0  0  0  0  0  0  0  0
   -0.8931   26.3113  -25.1551 H   0  0  0  0  0  0  0  0  0  0  0  0
   -3.2201   25.4200  -24.9988 H   0  0  0  0  0  0  0  0  0  0  0  0
   -4.2453   24.2468  -26.9424 H   0  0  0  0  0  0  0  0  0  0  0  0
   -2.6957   21.6809  -28.8395 H   0  0  0  0  0  0  0  0  0  0  0  0
   -2.2306   18.9638  -32.9927 H   0  0  0  0  0  0  0  0  0  0  0  0
   -2.5894   18.1390  -34.5476 H   0  0  0  0  0  0  0  0  0  0  0  0
   -1.9619   19.8221  -34.5476 H   0  0  0  0  0  0  0  0  0  0  0  0
   -4.7799   17.3697  -34.9696 H   0  0  0  0  0  0  0  0  0  0  0  0
  1  2  1  0
  2  3  1  0
  3  4  2  0
  4  5  1  0
  5  6  2  0
  6  7  1  0
  7  8  1  0
  8  9  2  0
  8 10  1  0
 10 11  1  0
 11 12  2  0
 12 13  1  0
 12 14  1  0
 14 15  1  0
 15 16  2  0
 16 17  1  0
 17 18  2  0
 18 19  1  0
 19 20  2  0
 14 21  1  0
  6 22  1  0
 22 23  1  0
 23 24  1  0
 22 25  2  0
 25  3  1  0
 21 10  2  0
 20 15  1  0
  1 26  1  0
  1 27  1  0
  1 28  1  0
  4 29  1  0
  5 30  1  0
  7 31  1  0
 11 32  1  0
 16 33  1  0
 17 34  1  0
 18 35  1  0
 19 36  1  0
 20 37  1  0
 21 38  1  0
 24 39  1  0
 24 40  1  0
 24 41  1  0
 25 42  1  0
M  CHG  1  13  -1
M  END
>  <UniqueID>  (32) 
32

>  <SMILES>  (32) 
COc1ccc(NC(=O)c2cc([O-])n(-c3ccccc3)c2)c(OC)c1

>  <Energy>  (32) 
85.95823630222947

>  <Genealogy>  (32) 
COc1ccc(NC(=O)c2cc([O-])n(-c3ccccc3)c2)c(OC)c1 (protonated)
COc1ccc(NC(=O)c2cc([O-])n(-c3ccccc3)c2)c(OC)c1 (3D coordinates assigned)
COc1ccc(NC(=O)c2cc([O-])n(-c3ccccc3)c2)c(OC)c1 (optimized conformer: 85.95823630222947 kcal/mol)

>  <smiles>  (32) 
COc1ccc(NC(=O)c2cc(O)n(-c3ccccc3)c2)c(OC)c1

>  <score_type>  (32) 
oracle

>  <origin>  (32) 
adgpu

>  <m_score__min__energy>  (32) 
-9.5999999999999996

>  <m_primary>  (32) 
energy

$$$$
32:0
     RDKit          3D

 42 44  0  0  0  0  0  0  0  0999 V2000
   -0.8890   26.6010  -27.7630 C   0  0  0  0  0  0  0  0  0  0  0  0
   -1.3170   25.9080  -28.9720 N   0  0  0  0  0  0  0  0  0  0  0  0
   -1.6410   24.5130  -29.0220 C   0  0  0  0  0  0  0  0  0  0  0  0
   -0.8420   23.6810  -28.5200 O   0  0  0  0  0  0  0  0  0  0  0  0
   -2.8610   24.0220  -29.6810 C   0  0  0  0  0  0  0  0  0  0  0  0
   -2.8580   23.4570  -30.8750 O   0  0  0  0  0  0  0  0  0  0  0  0
   -4.0950   23.1250  -31.1590 C   0  0  0  0  0  0  0  0  0  0  0  0
   -4.5640   22.4990  -32.3100 C   0  0  0  0  0  0  0  0  0  0  0  0
   -5.9410   22.2190  -32.3930 C   0  0  0  0  0  0  0  0  0  0  0  0
   -6.8110   22.5640  -31.3310 C   0  0  0  0  0  0  0  0  0  0  0  0
   -8.5290   22.1910  -31.4260 S   0  0  0  0  0  0  0  0  0  0  0  0
   -9.2950   23.3460  -32.0050 O   0  0  0  0  0  0  0  0  0  0  0  0
   -9.0430   21.9080  -30.0420 O   0  0  0  0  0  0  0  0  0  0  0  0
   -8.7700   20.7920  -32.4210 N   0  0  0  0  0  0  0  0  0  0  0  0
   -7.8530   19.6960  -32.5350 C   0  0  0  0  0  0  0  0  0  0  0  0
   -7.8350   18.6350  -31.6110 C   0  0  0  0  0  0  0  0  0  0  0  0
   -6.9230   17.5860  -31.7590 C   0  0  0  0  0  0  0  0  0  0  0  0
   -6.0160   17.5770  -32.8360 C   0  0  0  0  0  0  0  0  0  0  0  0
   -5.0840   16.5460  -33.0270 O   0  0  0  0  0  0  0  0  0  0  0  0
   -4.3480   16.3430  -34.2290 C   0  0  0  0  0  0  0  0  0  0  0  0
   -6.0380   18.6340  -33.7530 C   0  0  0  0  0  0  0  0  0  0  0  0
   -6.9500   19.6840  -33.6050 C   0  0  0  0  0  0  0  0  0  0  0  0
   -6.3030   23.1980  -30.1790 C   0  0  0  0  0  0  0  0  0  0  0  0
   -4.9360   23.4690  -30.1330 C   0  0  0  0  0  0  0  0  0  0  0  0
   -4.1550   24.0490  -29.1590 C   0  0  0  0  0  0  0  0  0  0  0  0
   -4.6020   24.4840  -27.7960 C   0  0  0  0  0  0  0  0  0  0  0  0
   -1.2333   26.0435  -26.8794 H   0  0  0  0  0  0  0  0  0  0  0  0
    0.2088   26.6693  -27.7486 H   0  0  0  0  0  0  0  0  0  0  0  0
   -1.3195   27.6131  -27.7486 H   0  0  0  0  0  0  0  0  0  0  0  0
   -3.8802   22.2314  -33.1291 H   0  0  0  0  0  0  0  0  0  0  0  0
   -6.3445   21.7279  -33.2908 H   0  0  0  0  0  0  0  0  0  0  0  0
   -8.5419   18.6310  -30.7682 H   0  0  0  0  0  0  0  0  0  0  0  0
   -6.9138   16.7626  -31.0297 H   0  0  0  0  0  0  0  0  0  0  0  0
   -3.3146   16.0580  -33.9825 H   0  0  0  0  0  0  0  0  0  0  0  0
   -4.8192   15.5413  -34.8165 H   0  0  0  0  0  0  0  0  0  0  0  0
   -4.3416   17.2729  -34.8165 H   0  0  0  0  0  0  0  0  0  0  0  0
   -5.3324   18.6390  -34.5969 H   0  0  0  0  0  0  0  0  0  0  0  0
   -6.9579   20.5069  -34.3350 H   0  0  0  0  0  0  0  0  0  0  0  0
   -6.9640   23.4703  -29.3430 H   0  0  0  0  0  0  0  0  0  0  0  0
   -4.0355   23.9327  -27.0310 H   0  0  0  0  0  0  0  0  0  0  0  0
   -4.4229   25.5629  -27.6784 H   0  0  0  0  0  0  0  0  0  0  0  0
   -5.6757   24.2756  -27.6784 H   0  0  0  0  0  0  0  0  0  0  0  0
  1  2  1  0
  2  3  1  0
  3  4  2  0
  3  5  1  0
  5  6  1  0
  6  7  1  0
  7  8  2  0
  8  9  1  0
  9 10  2  0
 10 11  1  0
 11 12  2  0
 11 13  2  0
 11 14  1  0
 14 15  1  0
 15 16  2  0
 16 17  1  0
 17 18  2  0
 18 19  1  0
 19 20  1  0
 18 21  1  0
 21 22  2  0
 10 23  1  0
 23 24  2  0
 24 25  1  0
 25 26  1  0
 25  5  2  0
 24  7  1  0
 22 15  1  0
  1 27  1  0
  1 28  1  0
  1 29  1  0
  8 30  1  0
  9 31  1  0
 16 32  1  0
 17 33  1  0
 20 34  1  0
 20 35  1  0
 20 36  1  0
 21 37  1  0
 22 38  1  0
 23 39  1  0
 26 40  1  0
 26 41  1  0
 26 42  1  0
M  CHG  2   2  -1  14  -1
M  END
>  <UniqueID>  (33) 
33

>  <SMILES>  (33) 
C[N-]C(=O)c1oc2ccc(S(=O)(=O)[N-]c3ccc(OC)cc3)cc2c1C

>  <Energy>  (33) 
83.5005120895027

>  <Genealogy>  (33) 
C[N-]C(=O)c1oc2ccc(S(=O)(=O)[N-]c3ccc(OC)cc3)cc2c1C (protonated)
C[N-]C(=O)c1oc2ccc(S(=O)(=O)[N-]c3ccc(OC)cc3)cc2c1C (3D coordinates assigned)
C[N-]C(=O)c1oc2ccc(S(=O)(=O)[N-]c3ccc(OC)cc3)cc2c1C (optimized conformer: 83.5005120895027 kcal/mol)

>  <smiles>  (33) 
CNC(=O)c1oc2ccc(S(=O)(=O)Nc3ccc(OC)cc3)cc2c1C

>  <score_type>  (33) 
oracle

>  <origin>  (33) 
adgpu

>  <m_score__min__energy>  (33) 
-10.57

>  <m_primary>  (33) 
energy

$$$$
33:0
     RDKit          3D

 52 56  0  0  0  0  0  0  0  0999 V2000
   -4.4479   22.4067  -33.7113 H   0  0  0  0  0  0  0  0  0  0  0  0
   -4.1120   21.7430  -32.9010 C   0  0  0  0  0  0  0  0  0  0  0  0
   -2.9970   22.0230  -32.2890 N   0  0  0  0  0  0  0  0  0  0  0  0
   -2.4150   21.1990  -31.3020 N   0  0  0  0  0  0  0  0  0  0  0  0
   -1.3380   20.4110  -31.6190 C   0  0  0  0  0  0  0  0  0  0  0  0
   -0.7810   20.3650  -32.9900 C   0  0  0  0  0  0  0  0  0  0  0  0
   -0.8800   19.1820  -33.7440 C   0  0  0  0  0  0  0  0  0  0  0  0
   -1.3593   18.2931  -33.3079 H   0  0  0  0  0  0  0  0  0  0  0  0
   -0.3720   19.1310  -35.0450 C   0  0  0  0  0  0  0  0  0  0  0  0
   -0.4451   18.2004  -35.6270 H   0  0  0  0  0  0  0  0  0  0  0  0
    0.2290   20.2610  -35.6080 C   0  0  0  0  0  0  0  0  0  0  0  0
    0.6308   20.2183  -36.6311 H   0  0  0  0  0  0  0  0  0  0  0  0
    0.3190   21.4440  -34.8710 C   0  0  0  0  0  0  0  0  0  0  0  0
    0.7890   22.3335  -35.3159 H   0  0  0  0  0  0  0  0  0  0  0  0
   -0.1870   21.5000  -33.5690 C   0  0  0  0  0  0  0  0  0  0  0  0
   -0.1201   22.4361  -32.9952 H   0  0  0  0  0  0  0  0  0  0  0  0
   -0.7160   19.6900  -30.6470 N   0  0  0  0  0  0  0  0  0  0  0  0
   -1.1600   19.6930  -29.3670 C   0  0  0  0  0  0  0  0  0  0  0  0
   -0.4930   18.9400  -28.3940 C   0  0  0  0  0  0  0  0  0  0  0  0
    0.3980   18.3552  -28.6663 H   0  0  0  0  0  0  0  0  0  0  0  0
   -0.9590   18.9310  -27.0760 C   0  0  0  0  0  0  0  0  0  0  0  0
   -0.4339   18.3382  -26.3125 H   0  0  0  0  0  0  0  0  0  0  0  0
   -2.0900   19.6730  -26.7260 C   0  0  0  0  0  0  0  0  0  0  0  0
   -2.4535   19.6627  -25.6879 H   0  0  0  0  0  0  0  0  0  0  0  0
   -2.7610   20.4290  -27.6930 C   0  0  0  0  0  0  0  0  0  0  0  0
   -3.6515   21.0116  -27.4144 H   0  0  0  0  0  0  0  0  0  0  0  0
   -2.2980   20.4450  -29.0220 C   0  0  0  0  0  0  0  0  0  0  0  0
   -2.9240   21.1970  -30.0290 C   0  0  0  0  0  0  0  0  0  0  0  0
   -3.9560   21.8730  -29.7620 O   0  0  0  0  0  0  0  0  0  0  0  0
   -4.9480   20.5700  -32.5540 C   0  0  0  0  0  0  0  0  0  0  0  0
   -4.4450   19.2780  -32.7980 C   0  0  0  0  0  0  0  0  0  0  0  0
   -3.4455   19.1573  -33.2413 H   0  0  0  0  0  0  0  0  0  0  0  0
   -5.2020   18.1490  -32.4830 C   0  0  0  0  0  0  0  0  0  0  0  0
   -4.8015   17.1449  -32.6863 H   0  0  0  0  0  0  0  0  0  0  0  0
   -6.4650   18.2920  -31.9110 C   0  0  0  0  0  0  0  0  0  0  0  0
   -7.0608   17.4005  -31.6656 H   0  0  0  0  0  0  0  0  0  0  0  0
   -6.9750   19.5650  -31.6490 C   0  0  0  0  0  0  0  0  0  0  0  0
   -7.9727   19.6688  -31.1975 H   0  0  0  0  0  0  0  0  0  0  0  0
   -6.2270   20.7170  -31.9560 C   0  0  0  0  0  0  0  0  0  0  0  0
   -6.8310   22.0740  -31.6420 C   0  0  0  0  0  0  0  0  0  0  0  0
   -6.4904   22.7985  -32.3964 H   0  0  0  0  0  0  0  0  0  0  0  0
   -7.9262   21.9726  -31.6574 H   0  0  0  0  0  0  0  0  0  0  0  0
   -6.4350   22.5530  -30.3090 N   0  0  0  0  0  0  0  0  0  0  0  0
   -7.2740   22.5670  -29.6840 H   0  0  0  0  0  0  0  0  0  0  0  0
   -5.7160   21.9220  -29.8830 H   0  0  0  0  0  0  0  0  0  0  0  0
   -5.9170   23.8620  -30.3950 N   0  0  0  0  0  0  0  0  0  0  0  0
   -4.7080   24.2370  -30.8450 C   0  0  0  0  0  0  0  0  0  0  0  0
   -3.9300   23.5470  -31.2037 H   0  0  0  0  0  0  0  0  0  0  0  0
   -4.5830   25.5770  -30.7950 N   0  0  0  0  0  0  0  0  0  0  0  0
   -5.7230   26.0610  -30.3140 N   0  0  0  0  0  0  0  0  0  0  0  0
   -6.5330   25.0110  -30.0740 C   0  0  0  0  0  0  0  0  0  0  0  0
   -7.5543   25.0849  -29.6720 H   0  0  0  0  0  0  0  0  0  0  0  0
  1  2  1  0
  2  3  2  0
  3  4  1  0
  4  5  1  0
  5  6  1  0
  6  7  2  0
  7  8  1  0
  7  9  1  0
  9 10  1  0
  9 11  2  0
 11 12  1  0
 11 13  1  0
 13 14  1  0
 13 15  2  0
 15 16  1  0
  5 17  2  0
 17 18  1  0
 18 19  2  0
 19 20  1  0
 19 21  1  0
 21 22  1  0
 21 23  2  0
 23 24  1  0
 23 25  1  0
 25 26  1  0
 25 27  2  0
 27 28  1  0
 28 29  2  0
  2 30  1  0
 30 31  2  0
 31 32  1  0
 31 33  1  0
 33 34  1  0
 33 35  2  0
 35 36  1  0
 35 37  1  0
 37 38  1  0
 37 39  2  0
 39 40  1  0
 40 41  1  0
 40 42  1  0
 40 43  1  0
 43 44  1  0
 43 45  1  0
 43 46  1  0
 46 47  1  0
 47 48  1  0
 47 49  2  0
 49 50  1  0
 50 51  2  0
 51 52  1  0
 28  4  1  0
 39 30  1  0
 51 46  1  0
 15  6  1  0
 27 18  1  0
M  CHG  1  43   1
M  END
>  <UniqueID>  (34) 
34

>  <SMILES>  (34) 
O=c1c2ccccc2nc(-c2ccccc2)n1/N=C\c1ccccc1C[NH2+]n1cnnc1

>  <Energy>  (34) 
118.53529639197421

>  <Genealogy>  (34) 
O=c1c2ccccc2nc(-c2ccccc2)n1N=Cc1ccccc1C[NH2+]n1cnnc1 (protonated)
O=c1c2ccccc2nc(-c2ccccc2)n1/N=C\c1ccccc1C[NH2+]n1cnnc1 (cis-trans isomerization)
O=c1c2ccccc2nc(-c2ccccc2)n1/N=C\c1ccccc1C[NH2+]n1cnnc1 (3D coordinates assigned)
O=c1c2ccccc2nc(-c2ccccc2)n1/N=C\c1ccccc1C[NH2+]n1cnnc1 (optimized conformer: 118.53529639197421 kcal/mol)

>  <smiles>  (34) 
O=c1c2ccccc2nc(-c2ccccc2)n1N=Cc1ccccc1CNn1cnnc1

>  <score_type>  (34) 
oracle

>  <origin>  (34) 
adgpu

>  <m_score__min__energy>  (34) 
-7.9800000000000004

>  <m_primary>  (34) 
energy

$$$$
34:0
     RDKit          3D

 25 26  0  0  0  0  0  0  0  0999 V2000
   -7.0160   22.4810  -32.7090 O   0  0  0  0  0  0  0  0  0  0  0  0
   -6.8300   21.4290  -31.6500 S   0  0  0  0  0  0  0  0  0  0  0  0
   -7.9650   21.5190  -30.6700 O   0  0  0  0  0  0  0  0  0  0  0  0
   -5.3350   21.7200  -30.8130 N   0  0  0  0  0  0  0  0  0  0  0  0
   -4.7730   22.8780  -30.6100 C   0  0  0  0  0  0  0  0  0  0  0  0
   -5.3360   24.0890  -31.0600 C   0  0  0  0  0  0  0  0  0  0  0  0
   -4.6700   25.2920  -30.8110 C   0  0  0  0  0  0  0  0  0  0  0  0
   -3.4890   25.2930  -30.1380 N   0  0  0  0  0  0  0  0  0  0  0  0
   -2.9240   24.1410  -29.6910 C   0  0  0  0  0  0  0  0  0  0  0  0
   -3.5550   22.9160  -29.9180 C   0  0  0  0  0  0  0  0  0  0  0  0
   -6.8250   19.8200  -32.3650 C   0  0  0  0  0  0  0  0  0  0  0  0
   -7.5330   18.7780  -31.7510 C   0  0  0  0  0  0  0  0  0  0  0  0
   -7.5250   17.4960  -32.3110 C   0  0  0  0  0  0  0  0  0  0  0  0
   -6.8120   17.2510  -33.4890 C   0  0  0  0  0  0  0  0  0  0  0  0
   -6.8010   15.6430  -34.1910 Cl  0  0  0  0  0  0  0  0  0  0  0  0
   -6.1080   18.2900  -34.1080 C   0  0  0  0  0  0  0  0  0  0  0  0
   -6.1150   19.5710  -33.5490 C   0  0  0  0  0  0  0  0  0  0  0  0
   -6.2925   24.0873  -31.6032 H   0  0  0  0  0  0  0  0  0  0  0  0
   -5.1027   26.2409  -31.1606 H   0  0  0  0  0  0  0  0  0  0  0  0
   -1.9673   24.1733  -29.1490 H   0  0  0  0  0  0  0  0  0  0  0  0
   -3.0974   21.9840  -29.5548 H   0  0  0  0  0  0  0  0  0  0  0  0
   -8.0967   18.9687  -30.8259 H   0  0  0  0  0  0  0  0  0  0  0  0
   -8.0798   16.6802  -31.8245 H   0  0  0  0  0  0  0  0  0  0  0  0
   -5.5485   18.0983  -35.0355 H   0  0  0  0  0  0  0  0  0  0  0  0
   -5.5622   20.3862  -34.0388 H   0  0  0  0  0  0  0  0  0  0  0  0
  1  2  2  0
  2  3  2  0
  2  4  1  0
  4  5  2  3
  5  6  1  0
  6  7  2  0
  7  8  1  0
  8  9  1  0
  9 10  2  0
  2 11  1  0
 11 12  2  0
 12 13  1  0
 13 14  2  0
 14 15  1  0
 14 16  1  0
 16 17  2  0
 10  5  1  0
 17 11  1  0
  6 18  1  0
  7 19  1  0
  9 20  1  0
 10 21  1  0
 12 22  1  0
 13 23  1  0
 16 24  1  0
 17 25  1  0
M  CHG  1   8  -1
M  END
>  <UniqueID>  (35) 
35

>  <SMILES>  (35) 
O=S(=O)(N=c1cc[n-]cc1)c1ccc(Cl)cc1

>  <Energy>  (35) 
31.898322992537206

>  <Genealogy>  (35) 
O=S(=O)(N=c1cc[n-]cc1)c1ccc(Cl)cc1 (protonated)
O=S(=O)(N=c1cc[n-]cc1)c1ccc(Cl)cc1 (3D coordinates assigned)
O=S(=O)(N=c1cc[n-]cc1)c1ccc(Cl)cc1 (optimized conformer: 31.898322992537206 kcal/mol)

>  <smiles>  (35) 
O=S(=O)(N=c1cc[nH]cc1)c1ccc(Cl)cc1

>  <score_type>  (35) 
oracle

>  <origin>  (35) 
adgpu

>  <m_score__min__energy>  (35) 
-8.8200000000000003

>  <m_primary>  (35) 
energy

$$$$
35:0
     RDKit          3D

 45 47  0  0  0  0  0  0  0  0999 V2000
   -2.5900   19.1030  -34.0230 C   0  0  0  0  0  0  0  0  0  0  0  0
   -3.9480   19.5050  -34.1560 O   0  0  0  0  0  0  0  0  0  0  0  0
   -5.0530   18.7540  -33.7210 C   0  0  0  0  0  0  0  0  0  0  0  0
   -5.4080   17.5360  -34.3380 C   0  0  0  0  0  0  0  0  0  0  0  0
   -6.4930   16.7930  -33.8650 C   0  0  0  0  0  0  0  0  0  0  0  0
   -7.2330   17.2510  -32.7730 C   0  0  0  0  0  0  0  0  0  0  0  0
   -6.8960   18.4580  -32.1520 C   0  0  0  0  0  0  0  0  0  0  0  0
   -5.8160   19.2230  -32.6250 C   0  0  0  0  0  0  0  0  0  0  0  0
   -5.4840   20.5040  -31.9580 C   0  0  0  0  0  0  0  0  0  0  0  0
   -4.1460   20.8610  -31.7270 C   0  0  0  0  0  0  0  0  0  0  0  0
   -3.8330   22.0630  -31.0870 C   0  0  0  0  0  0  0  0  0  0  0  0
   -4.8560   22.9210  -30.6660 C   0  0  0  0  0  0  0  0  0  0  0  0
   -4.4890   24.3970  -29.7790 S   0  0  0  0  0  0  0  0  0  0  0  0
   -5.7740   25.1240  -29.4950 O   0  0  0  0  0  0  0  0  0  0  0  0
   -3.5950   25.3040  -30.5790 O   0  0  0  0  0  0  0  0  0  0  0  0
   -3.7280   23.9820  -28.2750 N   0  0  0  0  0  0  0  0  0  0  0  0
   -2.9020   22.8290  -28.0530 C   0  0  0  0  0  0  0  0  0  0  0  0
   -3.4510   21.5280  -28.0550 C   0  0  0  0  0  0  0  0  0  0  0  0
   -2.6350   20.4140  -27.8480 C   0  0  0  0  0  0  0  0  0  0  0  0
   -1.2670   20.5790  -27.6330 C   0  0  0  0  0  0  0  0  0  0  0  0
   -0.7090   21.8610  -27.6330 C   0  0  0  0  0  0  0  0  0  0  0  0
   -1.5180   22.9900  -27.8410 C   0  0  0  0  0  0  0  0  0  0  0  0
   -0.7860   24.6020  -27.8290 S   0  0  0  0  0  0  0  0  0  0  0  0
   -1.6140   25.6380  -28.9430 N   0  0  0  0  0  0  0  0  0  0  0  0
   -0.8790   25.2070  -26.4530 O   0  0  0  0  0  0  0  0  0  0  0  0
    0.6620   24.4930  -28.2240 O   0  0  0  0  0  0  0  0  0  0  0  0
   -6.1930   22.5740  -30.9060 C   0  0  0  0  0  0  0  0  0  0  0  0
   -6.5060   21.3780  -31.5550 C   0  0  0  0  0  0  0  0  0  0  0  0
   -2.3329   19.0269  -32.9562 H   0  0  0  0  0  0  0  0  0  0  0  0
   -2.4484   18.1244  -34.5050 H   0  0  0  0  0  0  0  0  0  0  0  0
   -1.9385   19.8468  -34.5050 H   0  0  0  0  0  0  0  0  0  0  0  0
   -4.8271   17.1688  -35.1969 H   0  0  0  0  0  0  0  0  0  0  0  0
   -6.7646   15.8457  -34.3538 H   0  0  0  0  0  0  0  0  0  0  0  0
   -8.0832   16.6609  -32.4002 H   0  0  0  0  0  0  0  0  0  0  0  0
   -7.4794   18.8105  -31.2887 H   0  0  0  0  0  0  0  0  0  0  0  0
   -3.3379   20.1893  -32.0523 H   0  0  0  0  0  0  0  0  0  0  0  0
   -2.7815   22.3355  -30.9137 H   0  0  0  0  0  0  0  0  0  0  0  0
   -4.5298   21.3911  -28.2209 H   0  0  0  0  0  0  0  0  0  0  0  0
   -3.0719   19.4045  -27.8545 H   0  0  0  0  0  0  0  0  0  0  0  0
   -0.6270   19.7006  -27.4634 H   0  0  0  0  0  0  0  0  0  0  0  0
    0.3715   21.9862  -27.4689 H   0  0  0  0  0  0  0  0  0  0  0  0
   -2.6210   25.6430  -28.6640 H   0  0  0  0  0  0  0  0  0  0  0  0
   -1.5600   25.1880  -29.8810 H   0  0  0  0  0  0  0  0  0  0  0  0
   -6.9998   23.2476  -30.5813 H   0  0  0  0  0  0  0  0  0  0  0  0
   -7.5571   21.1197  -31.7512 H   0  0  0  0  0  0  0  0  0  0  0  0
  1  2  1  0
  2  3  1  0
  3  4  2  0
  4  5  1  0
  5  6  2  0
  6  7  1  0
  7  8  2  0
  8  9  1  0
  9 10  2  0
 10 11  1  0
 11 12  2  0
 12 13  1  0
 13 14  2  0
 13 15  2  0
 13 16  1  0
 16 17  1  0
 17 18  2  0
 18 19  1  0
 19 20  2  0
 20 21  1  0
 21 22  2  0
 22 23  1  0
 23 24  1  0
 23 25  2  0
 23 26  2  0
 12 27  1  0
 27 28  2  0
  8  3  1  0
 28  9  1  0
 22 17  1  0
  1 29  1  0
  1 30  1  0
  1 31  1  0
  4 32  1  0
  5 33  1  0
  6 34  1  0
  7 35  1  0
 10 36  1  0
 11 37  1  0
 18 38  1  0
 19 39  1  0
 20 40  1  0
 21 41  1  0
 24 42  1  0
 24 43  1  0
 27 44  1  0
 28 45  1  0
M  CHG  1  16  -1
M  END
>  <UniqueID>  (36) 
36

>  <SMILES>  (36) 
COc1ccccc1-c1ccc(S(=O)(=O)[N-]c2ccccc2S(N)(=O)=O)cc1

>  <Energy>  (36) 
56.63733206382456

>  <Genealogy>  (36) 
COc1ccccc1-c1ccc(S(=O)(=O)[N-]c2ccccc2S(N)(=O)=O)cc1 (protonated)
COc1ccccc1-c1ccc(S(=O)(=O)[N-]c2ccccc2S(N)(=O)=O)cc1 (3D coordinates assigned)
COc1ccccc1-c1ccc(S(=O)(=O)[N-]c2ccccc2S(N)(=O)=O)cc1 (optimized conformer: 56.63733206382456 kcal/mol)

>  <smiles>  (36) 
COc1ccccc1-c1ccc(S(=O)(=O)Nc2ccccc2S(N)(=O)=O)cc1

>  <score_type>  (36) 
oracle

>  <origin>  (36) 
adgpu

>  <m_score__min__energy>  (36) 
-9.9299999999999997

>  <m_primary>  (36) 
energy

$$$$
36:0
     RDKit          3D

 34 35  0  0  0  0  0  0  0  0999 V2000
   -3.3560   23.1960  -31.0880 H   0  0  0  0  0  0  0  0  0  0  0  0
   -3.8370   23.0460  -31.9680 O   0  0  0  0  0  0  0  0  0  0  0  0
   -5.0320   22.3320  -32.0350 C   0  0  0  0  0  0  0  0  0  0  0  0
   -5.0210   20.9710  -32.3760 C   0  0  0  0  0  0  0  0  0  0  0  0
   -4.0654   20.4674  -32.5840 H   0  0  0  0  0  0  0  0  0  0  0  0
   -6.2150   20.2520  -32.4530 C   0  0  0  0  0  0  0  0  0  0  0  0
   -6.1978   19.1830  -32.7118 H   0  0  0  0  0  0  0  0  0  0  0  0
   -7.4330   20.8910  -32.2010 C   0  0  0  0  0  0  0  0  0  0  0  0
   -9.0680   19.9130  -32.3260 Br  0  0  0  0  0  0  0  0  0  0  0  0
   -7.4540   22.2480  -31.8640 C   0  0  0  0  0  0  0  0  0  0  0  0
   -8.4152   22.7520  -31.6847 H   0  0  0  0  0  0  0  0  0  0  0  0
   -6.2540   22.9720  -31.7530 C   0  0  0  0  0  0  0  0  0  0  0  0
   -6.2740   24.4180  -31.4440 C   0  0  0  0  0  0  0  0  0  0  0  0
   -6.9450   25.0530  -32.0412 H   0  0  0  0  0  0  0  0  0  0  0  0
   -5.5400   25.0190  -30.4940 C   0  0  0  0  0  0  0  0  0  0  0  0
   -5.7634   26.0744  -30.2790 H   0  0  0  0  0  0  0  0  0  0  0  0
   -4.4590   24.3860  -29.7130 C   0  0  0  0  0  0  0  0  0  0  0  0
   -4.6880   23.3910  -28.9750 O   0  0  0  0  0  0  0  0  0  0  0  0
   -3.1350   24.9260  -29.8160 N   0  0  0  0  0  0  0  0  0  0  0  0
   -1.9980   24.5590  -29.0200 C   0  0  0  0  0  0  0  0  0  0  0  0
   -1.6390   25.2840  -27.8670 C   0  0  0  0  0  0  0  0  0  0  0  0
   -2.2275   26.1642  -27.5686 H   0  0  0  0  0  0  0  0  0  0  0  0
   -0.5400   24.8910  -27.1010 C   0  0  0  0  0  0  0  0  0  0  0  0
   -0.2576   25.4697  -26.2092 H   0  0  0  0  0  0  0  0  0  0  0  0
    0.2010   23.7660  -27.4640 C   0  0  0  0  0  0  0  0  0  0  0  0
    1.0707   23.4631  -26.8625 H   0  0  0  0  0  0  0  0  0  0  0  0
   -0.1610   23.0240  -28.5910 C   0  0  0  0  0  0  0  0  0  0  0  0
    0.4211   22.1331  -28.8693 H   0  0  0  0  0  0  0  0  0  0  0  0
   -1.2670   23.4100  -29.3730 C   0  0  0  0  0  0  0  0  0  0  0  0
   -1.6650   22.6850  -30.5080 O   0  0  0  0  0  0  0  0  0  0  0  0
   -1.5900   21.2680  -30.6280 C   0  0  0  0  0  0  0  0  0  0  0  0
   -1.5661   20.8159  -29.6255 H   0  0  0  0  0  0  0  0  0  0  0  0
   -2.4699   20.8993  -31.1756 H   0  0  0  0  0  0  0  0  0  0  0  0
   -0.6761   20.9943  -31.1756 H   0  0  0  0  0  0  0  0  0  0  0  0
  1  2  1  0
  2  3  1  0
  3  4  2  0
  4  5  1  0
  4  6  1  0
  6  7  1  0
  6  8  2  0
  8  9  1  0
  8 10  1  0
 10 11  1  0
 10 12  2  0
 12 13  1  0
 13 14  1  0
 13 15  2  0
 15 16  1  0
 15 17  1  0
 17 18  2  0
 17 19  1  0
 19 20  1  0
 20 21  2  0
 21 22  1  0
 21 23  1  0
 23 24  1  0
 23 25  2  0
 25 26  1  0
 25 27  1  0
 27 28  1  0
 27 29  2  0
 29 30  1  0
 30 31  1  0
 31 32  1  0
 31 33  1  0
 31 34  1  0
 12  3  1  0
 29 20  1  0
M  CHG  1  19  -1
M  END
>  <UniqueID>  (37) 
37

>  <SMILES>  (37) 
COc1ccccc1[N-]C(=O)/C=C\c1cc(Br)ccc1O

>  <Energy>  (37) 
45.220117022522984

>  <Genealogy>  (37) 
COc1ccccc1[N-]C(=O)C=Cc1cc(Br)ccc1O (protonated)
COc1ccccc1[N-]C(=O)/C=C\c1cc(Br)ccc1O (cis-trans isomerization)
COc1ccccc1[N-]C(=O)/C=C\c1cc(Br)ccc1O (3D coordinates assigned)
COc1ccccc1[N-]C(=O)/C=C\c1cc(Br)ccc1O (optimized conformer: 45.220117022522984 kcal/mol)

>  <smiles>  (37) 
COc1ccccc1NC(=O)C=Cc1cc(Br)ccc1O

>  <score_type>  (37) 
oracle

>  <origin>  (37) 
adgpu

>  <m_score__min__energy>  (37) 
-9.2100000000000009

>  <m_primary>  (37) 
energy

$$$$
37:0
     RDKit          3D

 29 30  0  0  0  0  0  0  0  0999 V2000
   -9.0670   22.2800  -31.6030 C   0  0  0  0  0  0  0  0  0  0  0  0
   -7.5860   22.4580  -31.7030 C   0  0  0  0  0  0  0  0  0  0  0  0
   -6.9730   23.6000  -31.1670 C   0  0  0  0  0  0  0  0  0  0  0  0
   -5.5790   23.7560  -31.2690 C   0  0  0  0  0  0  0  0  0  0  0  0
   -4.9120   24.9540  -30.7110 C   0  0  0  0  0  0  0  0  0  0  0  0
   -5.5920   25.9780  -30.4200 O   0  0  0  0  0  0  0  0  0  0  0  0
   -3.4960   24.9580  -30.4960 N   0  0  0  0  0  0  0  0  0  0  0  0
   -2.8100   24.0300  -29.6040 C   0  0  0  0  0  0  0  0  0  0  0  0
   -2.8850   24.5200  -28.1840 C   0  0  0  0  0  0  0  0  0  0  0  0
   -1.7580   25.0920  -27.5760 C   0  0  0  0  0  0  0  0  0  0  0  0
   -1.8470   25.5600  -26.2640 C   0  0  0  0  0  0  0  0  0  0  0  0
   -3.0210   25.4670  -25.5840 N   0  0  0  0  0  0  0  0  0  0  0  0
   -4.1300   24.9220  -26.1510 C   0  0  0  0  0  0  0  0  0  0  0  0
   -4.0850   24.4400  -27.4610 C   0  0  0  0  0  0  0  0  0  0  0  0
   -4.8320   22.7530  -31.9110 C   0  0  0  0  0  0  0  0  0  0  0  0
   -5.4820   21.6320  -32.4310 C   0  0  0  0  0  0  0  0  0  0  0  0
   -6.8300   21.5100  -32.3180 N   0  0  0  0  0  0  0  0  0  0  0  0
   -9.3614   22.2446  -30.5437 H   0  0  0  0  0  0  0  0  0  0  0  0
   -9.5718   23.1239  -32.0959 H   0  0  0  0  0  0  0  0  0  0  0  0
   -9.3575   21.3405  -32.0959 H   0  0  0  0  0  0  0  0  0  0  0  0
   -7.5800   24.3704  -30.6689 H   0  0  0  0  0  0  0  0  0  0  0  0
   -3.2869   23.0411  -29.6724 H   0  0  0  0  0  0  0  0  0  0  0  0
   -1.7538   23.9602  -29.9034 H   0  0  0  0  0  0  0  0  0  0  0  0
   -0.8105   25.1713  -28.1292 H   0  0  0  0  0  0  0  0  0  0  0  0
   -0.9656   26.0050  -25.7791 H   0  0  0  0  0  0  0  0  0  0  0  0
   -5.0658   24.8605  -25.5761 H   0  0  0  0  0  0  0  0  0  0  0  0
   -4.9823   24.0015  -27.9220 H   0  0  0  0  0  0  0  0  0  0  0  0
   -3.7403   22.8509  -32.0033 H   0  0  0  0  0  0  0  0  0  0  0  0
   -4.9005   20.8452  -32.9338 H   0  0  0  0  0  0  0  0  0  0  0  0
  1  2  1  0
  2  3  2  0
  3  4  1  0
  4  5  1  0
  5  6  2  0
  5  7  1  0
  7  8  1  0
  8  9  1  0
  9 10  2  0
 10 11  1  0
 11 12  2  0
 12 13  1  0
 13 14  2  0
  4 15  2  0
 15 16  1  0
 16 17  2  0
 17  2  1  0
 14  9  1  0
  1 18  1  0
  1 19  1  0
  1 20  1  0
  3 21  1  0
  8 22  1  0
  8 23  1  0
 10 24  1  0
 11 25  1  0
 13 26  1  0
 14 27  1  0
 15 28  1  0
 16 29  1  0
M  CHG  1   7  -1
M  END
>  <UniqueID>  (38) 
38

>  <SMILES>  (38) 
Cc1cc(C(=O)[N-]Cc2ccncc2)ccn1

>  <Energy>  (38) 
28.29097369768224

>  <Genealogy>  (38) 
Cc1cc(C(=O)[N-]Cc2ccncc2)ccn1 (protonated)
Cc1cc(C(=O)[N-]Cc2ccncc2)ccn1 (3D coordinates assigned)
Cc1cc(C(=O)[N-]Cc2ccncc2)ccn1 (optimized conformer: 28.29097369768224 kcal/mol)

>  <smiles>  (38) 
Cc1cc(C(=O)NCc2ccncc2)ccn1

>  <score_type>  (38) 
oracle

>  <origin>  (38) 
adgpu

>  <m_score__min__energy>  (38) 
-7.8700000000000001

>  <m_primary>  (38) 
energy

$$$$
38:0
     RDKit          3D

 39 41  0  0  0  0  0  0  0  0999 V2000
   -3.8950   25.2000  -30.8330 O   0  0  0  0  0  0  0  0  0  0  0  0
   -4.2410   24.1030  -30.3190 C   0  0  0  0  0  0  0  0  0  0  0  0
   -4.0190   23.9020  -28.9170 N   0  0  0  0  0  0  0  0  0  0  0  0
   -3.0260   24.5580  -28.1150 C   0  0  0  0  0  0  0  0  0  0  0  0
   -1.7660   24.9020  -28.6350 C   0  0  0  0  0  0  0  0  0  0  0  0
   -0.8170   25.5290  -27.8230 C   0  0  0  0  0  0  0  0  0  0  0  0
   -1.1020   25.8060  -26.4760 C   0  0  0  0  0  0  0  0  0  0  0  0
   -0.1290   26.4680  -25.6440 N   0  0  0  0  0  0  0  0  0  0  0  0
   -0.5340   27.4980  -24.6790 C   0  0  0  0  0  0  0  0  0  0  0  0
    0.0550   27.1980  -23.2850 C   0  0  0  0  0  0  0  0  0  0  0  0
    1.2950   26.3930  -23.3280 N   0  0  0  0  0  0  0  0  0  0  0  0
    2.0800   26.6260  -24.5490 C   0  0  0  0  0  0  0  0  0  0  0  0
    1.2970   26.1480  -25.7800 C   0  0  0  0  0  0  0  0  0  0  0  0
   -2.3570   25.4460  -25.9570 C   0  0  0  0  0  0  0  0  0  0  0  0
   -3.3060   24.8170  -26.7690 C   0  0  0  0  0  0  0  0  0  0  0  0
   -4.8120   23.0440  -31.1850 C   0  0  0  0  0  0  0  0  0  0  0  0
   -6.1900   22.9790  -31.4440 C   0  0  0  0  0  0  0  0  0  0  0  0
   -6.7050   21.9710  -32.2600 C   0  0  0  0  0  0  0  0  0  0  0  0
   -5.8370   21.0220  -32.8040 C   0  0  0  0  0  0  0  0  0  0  0  0
   -6.4570   19.7450  -33.8320 Cl  0  0  0  0  0  0  0  0  0  0  0  0
   -4.5070   21.0830  -32.5340 N   0  0  0  0  0  0  0  0  0  0  0  0
   -3.9810   22.0570  -31.7430 C   0  0  0  0  0  0  0  0  0  0  0  0
   -1.5262   24.6769  -29.6847 H   0  0  0  0  0  0  0  0  0  0  0  0
    0.1610   25.8078  -28.2423 H   0  0  0  0  0  0  0  0  0  0  0  0
   -0.1700   28.4777  -25.0220 H   0  0  0  0  0  0  0  0  0  0  0  0
   -1.6316   27.5038  -24.6064 H   0  0  0  0  0  0  0  0  0  0  0  0
    0.2777   28.1539  -22.7883 H   0  0  0  0  0  0  0  0  0  0  0  0
   -0.6946   26.6076  -22.7378 H   0  0  0  0  0  0  0  0  0  0  0  0
    1.0530   25.3760  -23.2630 H   0  0  0  0  0  0  0  0  0  0  0  0
    1.8860   26.6330  -22.4970 H   0  0  0  0  0  0  0  0  0  0  0  0
    2.2900   27.7013  -24.6466 H   0  0  0  0  0  0  0  0  0  0  0  0
    3.0235   26.0644  -24.4826 H   0  0  0  0  0  0  0  0  0  0  0  0
    1.6949   26.6457  -26.6767 H   0  0  0  0  0  0  0  0  0  0  0  0
    1.4079   25.0572  -25.8681 H   0  0  0  0  0  0  0  0  0  0  0  0
   -2.5947   25.6604  -24.9046 H   0  0  0  0  0  0  0  0  0  0  0  0
   -4.2786   24.5241  -26.3468 H   0  0  0  0  0  0  0  0  0  0  0  0
   -6.8664   23.7254  -31.0021 H   0  0  0  0  0  0  0  0  0  0  0  0
   -7.7833   21.9244  -32.4725 H   0  0  0  0  0  0  0  0  0  0  0  0
   -2.9002   22.0722  -31.5391 H   0  0  0  0  0  0  0  0  0  0  0  0
  1  2  2  0
  2  3  1  0
  3  4  1  0
  4  5  2  0
  5  6  1  0
  6  7  2  0
  7  8  1  0
  8  9  1  0
  9 10  1  0
 10 11  1  0
 11 12  1  0
 12 13  1  0
  7 14  1  0
 14 15  2  0
  2 16  1  0
 16 17  2  0
 17 18  1  0
 18 19  2  0
 19 20  1  0
 19 21  1  0
 21 22  2  0
 15  4  1  0
 22 16  1  0
 13  8  1  0
  5 23  1  0
  6 24  1  0
  9 25  1  0
  9 26  1  0
 10 27  1  0
 10 28  1  0
 11 29  1  0
 11 30  1  0
 12 31  1  0
 12 32  1  0
 13 33  1  0
 13 34  1  0
 14 35  1  0
 15 36  1  0
 17 37  1  0
 18 38  1  0
 22 39  1  0
M  CHG  2   3  -1  11   1
M  END
>  <UniqueID>  (39) 
39

>  <SMILES>  (39) 
O=C([N-]c1ccc(N2CC[NH2+]CC2)cc1)c1ccc(Cl)nc1

>  <Energy>  (39) 
56.16678873712726

>  <Genealogy>  (39) 
O=C([N-]c1ccc(N2CC[NH2+]CC2)cc1)c1ccc(Cl)nc1 (protonated)
O=C([N-]c1ccc(N2CC[NH2+]CC2)cc1)c1ccc(Cl)nc1 (3D coordinates assigned)
O=C([N-]c1ccc(N2CC[NH2+]CC2)cc1)c1ccc(Cl)nc1 (nonaromatic ring conformer: 56.16678873712726 kcal/mol)

>  <smiles>  (39) 
O=C(Nc1ccc(N2CCNCC2)cc1)c1ccc(Cl)nc1

>  <score_type>  (39) 
oracle

>  <origin>  (39) 
adgpu

>  <m_score__min__energy>  (39) 
-10.300000000000001

>  <m_primary>  (39) 
energy

$$$$
39:0
     RDKit          3D

 41 43  0  0  0  0  0  0  0  0999 V2000
   -3.5320   25.2250  -30.1350 O   0  0  0  0  0  0  0  0  0  0  0  0
   -3.9260   24.2450  -29.4450 C   0  0  0  0  0  0  0  0  0  0  0  0
   -3.4620   24.0880  -28.0910 N   0  0  0  0  0  0  0  0  0  0  0  0
   -2.4650   24.9300  -27.4840 C   0  0  0  0  0  0  0  0  0  0  0  0
   -1.2880   25.2820  -28.1660 C   0  0  0  0  0  0  0  0  0  0  0  0
   -0.3220   26.0790  -27.5450 C   0  0  0  0  0  0  0  0  0  0  0  0
   -0.5110   26.5240  -26.2230 C   0  0  0  0  0  0  0  0  0  0  0  0
    0.4250   27.3280  -25.5540 O   0  0  0  0  0  0  0  0  0  0  0  0
    0.1220   28.1860  -24.4570 C   0  0  0  0  0  0  0  0  0  0  0  0
   -0.2970   27.4340  -23.3740 F   0  0  0  0  0  0  0  0  0  0  0  0
   -0.8920   29.0480  -24.8250 F   0  0  0  0  0  0  0  0  0  0  0  0
   -1.6740   26.1520  -25.5390 C   0  0  0  0  0  0  0  0  0  0  0  0
   -2.6390   25.3550  -26.1600 C   0  0  0  0  0  0  0  0  0  0  0  0
   -4.8730   23.2780  -30.0530 C   0  0  0  0  0  0  0  0  0  0  0  0
   -6.2560   23.4850  -29.9410 C   0  0  0  0  0  0  0  0  0  0  0  0
   -7.1550   22.5800  -30.5070 C   0  0  0  0  0  0  0  0  0  0  0  0
   -6.6690   21.4510  -31.1840 C   0  0  0  0  0  0  0  0  0  0  0  0
   -7.5610   20.4920  -31.7840 N   0  0  0  0  0  0  0  0  0  0  0  0
   -8.8600   20.8160  -32.3540 C   0  0  0  0  0  0  0  0  0  0  0  0
   -9.4940   19.4800  -32.7180 C   0  0  0  0  0  0  0  0  0  0  0  0
   -8.3580   18.4620  -32.7180 C   0  0  0  0  0  0  0  0  0  0  0  0
   -7.2460   19.0780  -31.8790 C   0  0  0  0  0  0  0  0  0  0  0  0
   -5.3230   21.2610  -31.2690 N   0  0  0  0  0  0  0  0  0  0  0  0
   -4.4260   22.1300  -30.7290 C   0  0  0  0  0  0  0  0  0  0  0  0
   -3.8960   23.3600  -27.4820 H   0  0  0  0  0  0  0  0  0  0  0  0
   -1.1258   24.9282  -29.1948 H   0  0  0  0  0  0  0  0  0  0  0  0
    0.5901   26.3597  -28.0920 H   0  0  0  0  0  0  0  0  0  0  0  0
    1.0219   28.7549  -24.1805 H   0  0  0  0  0  0  0  0  0  0  0  0
   -1.8296   26.4899  -24.5038 H   0  0  0  0  0  0  0  0  0  0  0  0
   -3.5418   25.0590  -25.6057 H   0  0  0  0  0  0  0  0  0  0  0  0
   -6.6345   24.3668  -29.4033 H   0  0  0  0  0  0  0  0  0  0  0  0
   -8.2384   22.7507  -30.4229 H   0  0  0  0  0  0  0  0  0  0  0  0
   -9.4806   21.3472  -31.6173 H   0  0  0  0  0  0  0  0  0  0  0  0
   -8.7665   21.4737  -33.2307 H   0  0  0  0  0  0  0  0  0  0  0  0
  -10.2555   19.2030  -31.9741 H   0  0  0  0  0  0  0  0  0  0  0  0
   -9.9950   19.5248  -33.6963 H   0  0  0  0  0  0  0  0  0  0  0  0
   -8.6936   17.5141  -32.2720 H   0  0  0  0  0  0  0  0  0  0  0  0
   -8.0165   18.2376  -33.7393 H   0  0  0  0  0  0  0  0  0  0  0  0
   -7.2237   18.6222  -30.8781 H   0  0  0  0  0  0  0  0  0  0  0  0
   -6.2573   18.9124  -32.3319 H   0  0  0  0  0  0  0  0  0  0  0  0
   -3.3477   21.9333  -30.8219 H   0  0  0  0  0  0  0  0  0  0  0  0
  1  2  2  0
  2  3  1  0
  3  4  1  0
  4  5  2  0
  5  6  1  0
  6  7  2  0
  7  8  1  0
  8  9  1  0
  9 10  1  0
  9 11  1  0
  7 12  1  0
 12 13  2  0
  2 14  1  0
 14 15  2  0
 15 16  1  0
 16 17  2  0
 17 18  1  0
 18 19  1  0
 19 20  1  0
 20 21  1  0
 21 22  1  0
 17 23  1  0
 23 24  2  0
 13  4  1  0
 24 14  1  0
 22 18  1  0
  3 25  1  0
  5 26  1  0
  6 27  1  0
  9 28  1  0
 12 29  1  0
 13 30  1  0
 15 31  1  0
 16 32  1  0
 19 33  1  0
 19 34  1  0
 20 35  1  0
 20 36  1  0
 21 37  1  0
 21 38  1  0
 22 39  1  0
 22 40  1  0
 24 41  1  0
M  END
>  <UniqueID>  (40) 
40

>  <SMILES>  (40) 
O=C(Nc1ccc(OC(F)F)cc1)c1ccc(N2CCCC2)nc1

>  <Energy>  (40) 
49.45258595519588

>  <Genealogy>  (40) 
O=C(Nc1ccc(OC(F)F)cc1)c1ccc(N2CCCC2)nc1 (3D coordinates assigned)
O=C(Nc1ccc(OC(F)F)cc1)c1ccc(N2CCCC2)nc1 (nonaromatic ring conformer: 49.45258595519588 kcal/mol)

>  <smiles>  (40) 
O=C(Nc1ccc(OC(F)F)cc1)c1ccc(N2CCCC2)nc1

>  <score_type>  (40) 
oracle

>  <origin>  (40) 
adgpu

>  <m_score__min__energy>  (40) 
-6.7000000000000002

>  <m_primary>  (40) 
energy

$$$$
40:0
     RDKit          3D

 64 67  0  0  0  0  0  0  0  0999 V2000
   -2.4146   20.1370  -34.8290 H   0  0  0  0  0  0  0  0  0  0  0  0
   -2.1790   20.5350  -33.8310 C   0  0  0  0  0  0  0  0  0  0  0  0
   -2.8692   21.2386  -33.3425 H   0  0  0  0  0  0  0  0  0  0  0  0
   -1.0580   20.1650  -33.2140 C   0  0  0  0  0  0  0  0  0  0  0  0
   -0.3833   19.4604  -33.7222 H   0  0  0  0  0  0  0  0  0  0  0  0
   -0.6860   20.6620  -31.8780 C   0  0  0  0  0  0  0  0  0  0  0  0
   -0.8100   21.8910  -31.6300 O   0  0  0  0  0  0  0  0  0  0  0  0
   -0.1470   19.7700  -30.8900 N   0  0  0  0  0  0  0  0  0  0  0  0
   -0.5580   19.6710  -29.5180 C   0  0  0  0  0  0  0  0  0  0  0  0
   -0.3740   18.4940  -28.7710 C   0  0  0  0  0  0  0  0  0  0  0  0
    0.0723   17.6074  -29.2450 H   0  0  0  0  0  0  0  0  0  0  0  0
   -0.7570   18.4480  -27.4270 C   0  0  0  0  0  0  0  0  0  0  0  0
   -0.6176   17.5227  -26.8488 H   0  0  0  0  0  0  0  0  0  0  0  0
   -1.3160   19.5730  -26.8160 C   0  0  0  0  0  0  0  0  0  0  0  0
   -1.6146   19.5318  -25.7581 H   0  0  0  0  0  0  0  0  0  0  0  0
   -1.4980   20.7600  -27.5520 C   0  0  0  0  0  0  0  0  0  0  0  0
   -2.0550   21.9160  -26.9820 O   0  0  0  0  0  0  0  0  0  0  0  0
   -2.0550   23.1680  -27.6050 C   0  0  0  0  0  0  0  0  0  0  0  0
   -2.8270   23.3470  -28.7080 N   0  0  0  0  0  0  0  0  0  0  0  0
   -2.8470   24.5280  -29.3810 C   0  0  0  0  0  0  0  0  0  0  0  0
   -3.5510   24.6730  -30.4650 N   0  0  0  0  0  0  0  0  0  0  0  0
   -4.4510   23.7110  -31.0450 C   0  0  0  0  0  0  0  0  0  0  0  0
   -4.0110   22.4290  -31.4230 C   0  0  0  0  0  0  0  0  0  0  0  0
   -2.9542   22.1533  -31.2921 H   0  0  0  0  0  0  0  0  0  0  0  0
   -4.9070   21.5050  -31.9630 C   0  0  0  0  0  0  0  0  0  0  0  0
   -4.5482   20.5110  -32.2684 H   0  0  0  0  0  0  0  0  0  0  0  0
   -6.2600   21.8340  -32.1190 C   0  0  0  0  0  0  0  0  0  0  0  0
   -7.1800   20.8900  -32.7050 N   0  0  0  0  0  0  0  0  0  0  0  0
   -8.5880   20.8840  -32.2770 C   0  0  0  0  0  0  0  0  0  0  0  0
   -8.6660   21.3791  -31.2978 H   0  0  0  0  0  0  0  0  0  0  0  0
   -9.1810   21.4177  -33.0343 H   0  0  0  0  0  0  0  0  0  0  0  0
   -9.1330   19.4570  -32.1580 C   0  0  0  0  0  0  0  0  0  0  0  0
  -10.0087   19.4783  -31.4927 H   0  0  0  0  0  0  0  0  0  0  0  0
   -9.3760   19.1292  -33.1795 H   0  0  0  0  0  0  0  0  0  0  0  0
   -8.1290   18.4340  -31.5980 C   0  0  0  0  0  0  0  0  0  0  0  0
   -7.4412   18.9545  -30.9154 H   0  0  0  0  0  0  0  0  0  0  0  0
   -8.7062   17.6537  -31.0803 H   0  0  0  0  0  0  0  0  0  0  0  0
   -7.3360   17.7730  -32.6520 N   0  0  0  0  0  0  0  0  0  0  0  0
   -6.8790   16.9330  -32.2190 H   0  0  0  0  0  0  0  0  0  0  0  0
   -7.9880   17.4040  -33.3860 H   0  0  0  0  0  0  0  0  0  0  0  0
   -6.2800   18.5940  -33.3060 C   0  0  0  0  0  0  0  0  0  0  0  0
   -5.4564   18.7109  -32.5863 H   0  0  0  0  0  0  0  0  0  0  0  0
   -6.0176   18.0465  -34.2233 H   0  0  0  0  0  0  0  0  0  0  0  0
   -6.6890   20.0090  -33.7830 C   0  0  0  0  0  0  0  0  0  0  0  0
   -5.8115   20.4848  -34.2452 H   0  0  0  0  0  0  0  0  0  0  0  0
   -7.5221   19.8772  -34.4891 H   0  0  0  0  0  0  0  0  0  0  0  0
   -6.7060   23.1050  -31.7180 C   0  0  0  0  0  0  0  0  0  0  0  0
   -7.7668   23.3715  -31.8350 H   0  0  0  0  0  0  0  0  0  0  0  0
   -5.8090   24.0410  -31.1680 C   0  0  0  0  0  0  0  0  0  0  0  0
   -6.2300   25.3120  -30.7400 O   0  0  0  0  0  0  0  0  0  0  0  0
   -6.4500   25.6740  -29.3800 C   0  0  0  0  0  0  0  0  0  0  0  0
   -5.9924   24.9210  -28.7215 H   0  0  0  0  0  0  0  0  0  0  0  0
   -5.9962   26.6567  -29.1841 H   0  0  0  0  0  0  0  0  0  0  0  0
   -7.5313   25.7238  -29.1841 H   0  0  0  0  0  0  0  0  0  0  0  0
   -2.0680   25.5510  -28.9530 N   0  0  0  0  0  0  0  0  0  0  0  0
   -1.2920   25.4340  -27.8440 C   0  0  0  0  0  0  0  0  0  0  0  0
   -0.6696   26.2809  -27.5194 H   0  0  0  0  0  0  0  0  0  0  0  0
   -1.2810   24.2380  -27.1110 C   0  0  0  0  0  0  0  0  0  0  0  0
   -0.4070   24.1010  -25.8840 C   0  0  0  0  0  0  0  0  0  0  0  0
   -0.8300   23.0160  -25.1380 F   0  0  0  0  0  0  0  0  0  0  0  0
   -0.4750   25.2440  -25.1060 F   0  0  0  0  0  0  0  0  0  0  0  0
    0.9170   23.9070  -26.2400 F   0  0  0  0  0  0  0  0  0  0  0  0
   -1.1010   20.8020  -28.8940 C   0  0  0  0  0  0  0  0  0  0  0  0
   -1.2168   21.7346  -29.4657 H   0  0  0  0  0  0  0  0  0  0  0  0
  1  2  1  0
  2  3  1  0
  2  4  2  0
  4  5  1  0
  4  6  1  0
  6  7  2  0
  6  8  1  0
  8  9  1  0
  9 10  2  0
 10 11  1  0
 10 12  1  0
 12 13  1  0
 12 14  2  0
 14 15  1  0
 14 16  1  0
 16 17  1  0
 17 18  1  0
 18 19  2  0
 19 20  1  0
 20 21  2  0
 21 22  1  0
 22 23  2  0
 23 24  1  0
 23 25  1  0
 25 26  1  0
 25 27  2  0
 27 28  1  0
 28 29  1  0
 29 30  1  0
 29 31  1  0
 29 32  1  0
 32 33  1  0
 32 34  1  0
 32 35  1  0
 35 36  1  0
 35 37  1  0
 35 38  1  0
 38 39  1  0
 38 40  1  0
 38 41  1  0
 41 42  1  0
 41 43  1  0
 41 44  1  0
 44 45  1  0
 44 46  1  0
 27 47  1  0
 47 48  1  0
 47 49  2  0
 49 50  1  0
 50 51  1  0
 51 52  1  0
 51 53  1  0
 51 54  1  0
 20 55  1  0
 55 56  1  0
 56 57  1  0
 56 58  2  0
 58 59  1  0
 59 60  1  0
 59 61  1  0
 59 62  1  0
 16 63  2  0
 63 64  1  0
 63  9  1  0
 58 18  1  0
 49 22  1  0
 44 28  1  0
M  CHG  3   8  -1  38   1  55  -1
M  END
>  <UniqueID>  (41) 
41

>  <SMILES>  (41) 
C=CC(=O)[N-]c1cccc(Oc2n/c(=N\c3ccc(N4CCC[NH2+]CC4)cc3OC)[n-]cc2C(F)(F)F)c1

>  <Energy>  (41) 
100.97838607736115

>  <Genealogy>  (41) 
C=CC(=O)[N-]c1cccc(Oc2nc(=Nc3ccc(N4CCC[NH2+]CC4)cc3OC)[n-]cc2C(F)(F)F)c1 (protonated)
C=CC(=O)[N-]c1cccc(Oc2n/c(=N\c3ccc(N4CCC[NH2+]CC4)cc3OC)[n-]cc2C(F)(F)F)c1 (cis-trans isomerization)
C=CC(=O)[N-]c1cccc(Oc2n/c(=N\c3ccc(N4CCC[NH2+]CC4)cc3OC)[n-]cc2C(F)(F)F)c1 (3D coordinates assigned)
C=CC(=O)[N-]c1cccc(Oc2n/c(=N\c3ccc(N4CCC[NH2+]CC4)cc3OC)[n-]cc2C(F)(F)F)c1 (nonaromatic ring conformer: 100.97838607736115 kcal/mol)

>  <smiles>  (41) 
C=CC(=O)Nc1cccc(Oc2nc(=Nc3ccc(N4CCCNCC4)cc3OC)[nH]cc2C(F)(F)F)c1

>  <score_type>  (41) 
oracle

>  <origin>  (41) 
adgpu

>  <m_score__min__energy>  (41) 
-8.5700000000000003

>  <m_primary>  (41) 
energy

$$$$
41:0
     RDKit          3D

 44 46  0  0  0  0  0  0  0  0999 V2000
   -5.3610   25.6660  -30.7230 C   0  0  0  0  0  0  0  0  0  0  0  0
   -4.0410   25.1510  -30.5860 O   0  0  0  0  0  0  0  0  0  0  0  0
   -3.7110   23.9900  -29.8690 C   0  0  0  0  0  0  0  0  0  0  0  0
   -3.3470   24.0290  -28.5080 C   0  0  0  0  0  0  0  0  0  0  0  0
   -3.0280   22.8500  -27.8280 C   0  0  0  0  0  0  0  0  0  0  0  0
   -3.0640   21.6240  -28.4950 C   0  0  0  0  0  0  0  0  0  0  0  0
   -3.4210   21.5740  -29.8430 C   0  0  0  0  0  0  0  0  0  0  0  0
   -3.7520   22.7490  -30.5290 C   0  0  0  0  0  0  0  0  0  0  0  0
   -4.2320   22.6500  -32.2610 S   0  0  0  0  0  0  0  0  0  0  0  0
   -5.2170   21.1190  -32.0710 C   0  0  0  0  0  0  0  0  0  0  0  0
   -6.7030   21.4050  -32.0770 C   0  0  0  0  0  0  0  0  0  0  0  0
   -7.1340   22.7110  -31.7750 C   0  0  0  0  0  0  0  0  0  0  0  0
   -8.4930   23.0060  -31.6630 C   0  0  0  0  0  0  0  0  0  0  0  0
   -9.4440   22.0030  -31.8420 C   0  0  0  0  0  0  0  0  0  0  0  0
   -9.0390   20.7020  -32.1440 C   0  0  0  0  0  0  0  0  0  0  0  0
   -7.6760   20.3880  -32.2790 C   0  0  0  0  0  0  0  0  0  0  0  0
   -7.3100   18.9910  -32.5960 C   0  0  0  0  0  0  0  0  0  0  0  0
   -7.6130   18.0760  -31.7840 O   0  0  0  0  0  0  0  0  0  0  0  0
   -6.7020   18.6650  -33.8550 N   0  0  0  0  0  0  0  0  0  0  0  0
   -5.9560   17.4600  -34.0990 C   0  0  0  0  0  0  0  0  0  0  0  0
   -6.5120   16.1890  -33.8570 C   0  0  0  0  0  0  0  0  0  0  0  0
   -5.7540   15.0340  -34.0780 C   0  0  0  0  0  0  0  0  0  0  0  0
   -4.4350   15.1370  -34.5280 C   0  0  0  0  0  0  0  0  0  0  0  0
   -3.7010   14.0160  -34.7400 F   0  0  0  0  0  0  0  0  0  0  0  0
   -3.8690   16.3950  -34.7510 C   0  0  0  0  0  0  0  0  0  0  0  0
   -4.6230   17.5510  -34.5310 C   0  0  0  0  0  0  0  0  0  0  0  0
   -5.7940   25.8349  -29.7260 H   0  0  0  0  0  0  0  0  0  0  0  0
   -5.3281   26.6172  -31.2744 H   0  0  0  0  0  0  0  0  0  0  0  0
   -5.9810   24.9438  -31.2744 H   0  0  0  0  0  0  0  0  0  0  0  0
   -3.3137   24.9923  -27.9780 H   0  0  0  0  0  0  0  0  0  0  0  0
   -2.7480   22.8883  -26.7649 H   0  0  0  0  0  0  0  0  0  0  0  0
   -2.8110   20.6979  -27.9581 H   0  0  0  0  0  0  0  0  0  0  0  0
   -3.4425   20.6080  -30.3687 H   0  0  0  0  0  0  0  0  0  0  0  0
   -4.9817   20.4383  -32.9024 H   0  0  0  0  0  0  0  0  0  0  0  0
   -4.9594   20.6635  -31.1034 H   0  0  0  0  0  0  0  0  0  0  0  0
   -6.3906   23.5079  -31.6256 H   0  0  0  0  0  0  0  0  0  0  0  0
   -8.8146   24.0325  -31.4329 H   0  0  0  0  0  0  0  0  0  0  0  0
  -10.5145   22.2369  -31.7452 H   0  0  0  0  0  0  0  0  0  0  0  0
   -9.7948   19.9140  -32.2778 H   0  0  0  0  0  0  0  0  0  0  0  0
   -6.8760   19.3120  -34.6580 H   0  0  0  0  0  0  0  0  0  0  0  0
   -7.5464   16.1040  -33.4927 H   0  0  0  0  0  0  0  0  0  0  0  0
   -6.1969   14.0435  -33.8973 H   0  0  0  0  0  0  0  0  0  0  0  0
   -2.8290   16.4755  -35.1000 H   0  0  0  0  0  0  0  0  0  0  0  0
   -4.1691   18.5390  -34.6974 H   0  0  0  0  0  0  0  0  0  0  0  0
  1  2  1  0
  2  3  1  0
  3  4  2  0
  4  5  1  0
  5  6  2  0
  6  7  1  0
  7  8  2  0
  8  9  1  0
  9 10  1  0
 10 11  1  0
 11 12  2  0
 12 13  1  0
 13 14  2  0
 14 15  1  0
 15 16  2  0
 16 17  1  0
 17 18  2  0
 17 19  1  0
 19 20  1  0
 20 21  2  0
 21 22  1  0
 22 23  2  0
 23 24  1  0
 23 25  1  0
 25 26  2  0
  8  3  1  0
 16 11  1  0
 26 20  1  0
  1 27  1  0
  1 28  1  0
  1 29  1  0
  4 30  1  0
  5 31  1  0
  6 32  1  0
  7 33  1  0
 10 34  1  0
 10 35  1  0
 12 36  1  0
 13 37  1  0
 14 38  1  0
 15 39  1  0
 19 40  1  0
 21 41  1  0
 22 42  1  0
 25 43  1  0
 26 44  1  0
M  END
>  <UniqueID>  (42) 
42

>  <SMILES>  (42) 
COc1ccccc1SCc1ccccc1C(=O)Nc1ccc(F)cc1

>  <Energy>  (42) 
50.34382699209207

>  <Genealogy>  (42) 
COc1ccccc1SCc1ccccc1C(=O)Nc1ccc(F)cc1 (3D coordinates assigned)
COc1ccccc1SCc1ccccc1C(=O)Nc1ccc(F)cc1 (optimized conformer: 50.34382699209207 kcal/mol)

>  <smiles>  (42) 
COc1ccccc1SCc1ccccc1C(=O)Nc1ccc(F)cc1

>  <score_type>  (42) 
oracle

>  <origin>  (42) 
adgpu

>  <m_score__min__energy>  (42) 
-9.5099999999999998

>  <m_primary>  (42) 
energy

$$$$
42:0
     RDKit          3D

 56 59  0  0  0  0  0  0  0  0999 V2000
   -9.2630   19.6220  -33.2570 N   0  0  0  0  0  0  0  0  0  0  0  0
   -7.6950   19.4850  -32.5400 S   0  0  0  0  0  0  0  0  0  0  0  0
   -6.6840   19.1450  -33.5970 O   0  0  0  0  0  0  0  0  0  0  0  0
   -7.7130   18.3840  -31.5170 O   0  0  0  0  0  0  0  0  0  0  0  0
   -7.2600   21.0110  -31.7770 C   0  0  0  0  0  0  0  0  0  0  0  0
   -6.2790   21.8270  -32.3580 C   0  0  0  0  0  0  0  0  0  0  0  0
   -5.9480   23.0530  -31.7740 C   0  0  0  0  0  0  0  0  0  0  0  0
   -6.6000   23.4820  -30.6080 C   0  0  0  0  0  0  0  0  0  0  0  0
   -6.2440   24.8040  -29.9800 C   0  0  0  0  0  0  0  0  0  0  0  0
   -5.2470   25.5720  -30.8500 C   0  0  0  0  0  0  0  0  0  0  0  0
   -3.8840   25.3040  -30.4050 N   0  0  0  0  0  0  0  0  0  0  0  0
   -3.3310   23.9870  -30.3180 C   0  0  0  0  0  0  0  0  0  0  0  0
   -3.1290   23.3180  -31.3690 O   0  0  0  0  0  0  0  0  0  0  0  0
   -2.9580   23.4320  -28.9620 C   0  0  0  0  0  0  0  0  0  0  0  0
   -3.4620   21.9870  -28.7540 C   0  0  0  0  0  0  0  0  0  0  0  0
   -2.6430   20.9340  -29.5400 C   0  0  0  0  0  0  0  0  0  0  0  0
   -1.4190   21.5060  -30.1310 N   0  0  0  0  0  0  0  0  0  0  0  0
   -0.4280   20.2380  -30.8100 S   0  0  0  0  0  0  0  0  0  0  0  0
   -1.1840   18.9390  -30.7730 O   0  0  0  0  0  0  0  0  0  0  0  0
    0.8120   20.0790  -29.9760 O   0  0  0  0  0  0  0  0  0  0  0  0
    0.0310   20.5910  -32.4770 C   0  0  0  0  0  0  0  0  0  0  0  0
   -0.8550   21.3050  -33.3260 C   0  0  0  0  0  0  0  0  0  0  0  0
   -0.4950   21.5950  -34.6560 C   0  0  0  0  0  0  0  0  0  0  0  0
    0.7480   21.1540  -35.1000 C   0  0  0  0  0  0  0  0  0  0  0  0
    1.2970   21.3160  -36.3150 N   0  0  0  0  0  0  0  0  0  0  0  0
    2.4920   20.7300  -36.2860 N   0  0  0  0  0  0  0  0  0  0  0  0
    2.7030   20.2000  -35.0580 C   0  0  0  0  0  0  0  0  0  0  0  0
    1.5990   20.4640  -34.2870 C   0  0  0  0  0  0  0  0  0  0  0  0
    1.2840   20.1630  -32.9660 C   0  0  0  0  0  0  0  0  0  0  0  0
   -0.6630   22.2660  -29.1250 C   0  0  0  0  0  0  0  0  0  0  0  0
   -1.4350   23.5330  -28.7100 C   0  0  0  0  0  0  0  0  0  0  0  0
   -7.5700   22.6550  -30.0180 C   0  0  0  0  0  0  0  0  0  0  0  0
   -7.9030   21.4300  -30.6040 C   0  0  0  0  0  0  0  0  0  0  0  0
   -9.1380   20.1170  -34.1700 H   0  0  0  0  0  0  0  0  0  0  0  0
   -9.5850   18.6530  -33.4790 H   0  0  0  0  0  0  0  0  0  0  0  0
   -5.7683   21.5014  -33.2762 H   0  0  0  0  0  0  0  0  0  0  0  0
   -5.1722   23.6849  -32.2310 H   0  0  0  0  0  0  0  0  0  0  0  0
   -7.1579   25.4050  -29.8638 H   0  0  0  0  0  0  0  0  0  0  0  0
   -5.7813   24.6140  -29.0003 H   0  0  0  0  0  0  0  0  0  0  0  0
   -5.3572   25.2538  -31.8972 H   0  0  0  0  0  0  0  0  0  0  0  0
   -5.4489   26.6498  -30.7635 H   0  0  0  0  0  0  0  0  0  0  0  0
   -3.4699   24.0581  -28.2164 H   0  0  0  0  0  0  0  0  0  0  0  0
   -3.4020   21.7471  -27.6822 H   0  0  0  0  0  0  0  0  0  0  0  0
   -4.4946   21.9445  -29.1309 H   0  0  0  0  0  0  0  0  0  0  0  0
   -2.3590   20.1224  -28.8540 H   0  0  0  0  0  0  0  0  0  0  0  0
   -3.2724   20.5625  -30.3621 H   0  0  0  0  0  0  0  0  0  0  0  0
   -1.8314   21.6346  -32.9413 H   0  0  0  0  0  0  0  0  0  0  0  0
   -1.1726   22.1507  -35.3209 H   0  0  0  0  0  0  0  0  0  0  0  0
    3.6016   19.6538  -34.7352 H   0  0  0  0  0  0  0  0  0  0  0  0
    1.9868   19.6107  -32.3249 H   0  0  0  0  0  0  0  0  0  0  0  0
   -0.5030   21.6337  -28.2392 H   0  0  0  0  0  0  0  0  0  0  0  0
    0.3028   22.5651  -29.5583 H   0  0  0  0  0  0  0  0  0  0  0  0
   -1.2696   23.7066  -27.6365 H   0  0  0  0  0  0  0  0  0  0  0  0
   -1.0570   24.3614  -29.3271 H   0  0  0  0  0  0  0  0  0  0  0  0
   -8.0698   22.9725  -29.0910 H   0  0  0  0  0  0  0  0  0  0  0  0
   -8.6721   20.7929  -30.1430 H   0  0  0  0  0  0  0  0  0  0  0  0
  1  2  1  0
  2  3  2  0
  2  4  2  0
  2  5  1  0
  5  6  2  0
  6  7  1  0
  7  8  2  0
  8  9  1  0
  9 10  1  0
 10 11  1  0
 11 12  1  0
 12 13  2  0
 12 14  1  0
 14 15  1  0
 15 16  1  0
 16 17  1  0
 17 18  1  0
 18 19  2  0
 18 20  2  0
 18 21  1  0
 21 22  2  0
 22 23  1  0
 23 24  2  0
 24 25  1  0
 25 26  1  0
 26 27  2  0
 27 28  1  0
 28 29  2  0
 17 30  1  0
 30 31  1  0
  8 32  1  0
 32 33  2  0
 33  5  1  0
 31 14  1  0
 29 21  1  0
 28 24  1  0
  1 34  1  0
  1 35  1  0
  6 36  1  0
  7 37  1  0
  9 38  1  0
  9 39  1  0
 10 40  1  0
 10 41  1  0
 14 42  1  0
 15 43  1  0
 15 44  1  0
 16 45  1  0
 16 46  1  0
 22 47  1  0
 23 48  1  0
 27 49  1  0
 29 50  1  0
 30 51  1  0
 30 52  1  0
 31 53  1  0
 31 54  1  0
 32 55  1  0
 33 56  1  0
M  CHG  2  11  -1  25  -1
M  END
>  <UniqueID>  (43) 
43

>  <SMILES>  (43) 
NS(=O)(=O)c1ccc(CC[N-]C(=O)C2CCN(S(=O)(=O)c3ccc4[n-]ncc4c3)CC2)cc1

>  <Energy>  (43) 
96.17657402525835

>  <Genealogy>  (43) 
NS(=O)(=O)c1ccc(CC[N-]C(=O)C2CCN(S(=O)(=O)c3ccc4[n-]ncc4c3)CC2)cc1 (protonated)
NS(=O)(=O)c1ccc(CC[N-]C(=O)C2CCN(S(=O)(=O)c3ccc4[n-]ncc4c3)CC2)cc1 (3D coordinates assigned)
NS(=O)(=O)c1ccc(CC[N-]C(=O)C2CCN(S(=O)(=O)c3ccc4[n-]ncc4c3)CC2)cc1 (nonaromatic ring conformer: 96.17657402525835 kcal/mol)

>  <smiles>  (43) 
NS(=O)(=O)c1ccc(CCNC(=O)C2CCN(S(=O)(=O)c3ccc4[nH]ncc4c3)CC2)cc1

>  <score_type>  (43) 
oracle

>  <origin>  (43) 
adgpu

>  <m_score__min__energy>  (43) 
-11.699999999999999

>  <m_primary>  (43) 
energy

$$$$
43:0
     RDKit          3D

 28 29  0  0  0  0  0  0  0  0999 V2000
   -9.2272   21.6040  -30.2879 H   0  0  0  0  0  0  0  0  0  0  0  0
   -8.2330   21.8420  -30.6940 C   0  0  0  0  0  0  0  0  0  0  0  0
   -7.4380   22.7440  -30.0600 N   0  0  0  0  0  0  0  0  0  0  0  0
   -6.1960   23.0720  -30.5140 C   0  0  0  0  0  0  0  0  0  0  0  0
   -5.5110   23.9550  -29.8420 N   0  0  0  0  0  0  0  0  0  0  0  0
   -4.1590   24.4040  -30.0480 C   0  0  0  0  0  0  0  0  0  0  0  0
   -3.9230   25.3570  -30.8370 O   0  0  0  0  0  0  0  0  0  0  0  0
   -3.0340   23.6750  -29.3990 C   0  0  0  0  0  0  0  0  0  0  0  0
   -3.1720   22.3050  -29.0990 C   0  0  0  0  0  0  0  0  0  0  0  0
   -4.1106   21.7892  -29.3498 H   0  0  0  0  0  0  0  0  0  0  0  0
   -2.1370   21.5890  -28.4880 C   0  0  0  0  0  0  0  0  0  0  0  0
   -2.3380   20.2270  -28.2180 O   0  0  0  0  0  0  0  0  0  0  0  0
   -2.9340   19.7220  -27.0280 C   0  0  0  0  0  0  0  0  0  0  0  0
   -2.4261   20.1524  -26.1524 H   0  0  0  0  0  0  0  0  0  0  0  0
   -3.9989   19.9969  -27.0060 H   0  0  0  0  0  0  0  0  0  0  0  0
   -2.8376   18.6264  -27.0060 H   0  0  0  0  0  0  0  0  0  0  0  0
   -0.9390   22.2500  -28.1670 C   0  0  0  0  0  0  0  0  0  0  0  0
   -0.1184   21.6963  -27.6874 H   0  0  0  0  0  0  0  0  0  0  0  0
   -0.7880   23.6060  -28.4550 C   0  0  0  0  0  0  0  0  0  0  0  0
    0.1527   24.1162  -28.2005 H   0  0  0  0  0  0  0  0  0  0  0  0
   -1.8230   24.3230  -29.0650 C   0  0  0  0  0  0  0  0  0  0  0  0
   -1.6280   25.6740  -29.3290 O   0  0  0  0  0  0  0  0  0  0  0  0
   -5.7270   22.4720  -31.7030 C   0  0  0  0  0  0  0  0  0  0  0  0
   -4.7373   22.7360  -32.1039 H   0  0  0  0  0  0  0  0  0  0  0  0
   -6.5290   21.5410  -32.3660 C   0  0  0  0  0  0  0  0  0  0  0  0
   -6.1677   21.0620  -33.2880 H   0  0  0  0  0  0  0  0  0  0  0  0
   -7.7880   21.2180  -31.8600 C   0  0  0  0  0  0  0  0  0  0  0  0
   -8.8080   20.0530  -32.6870 Cl  0  0  0  0  0  0  0  0  0  0  0  0
  1  2  1  0
  2  3  1  0
  3  4  1  0
  4  5  2  0
  5  6  1  0
  6  7  2  0
  6  8  1  0
  8  9  2  0
  9 10  1  0
  9 11  1  0
 11 12  1  0
 12 13  1  0
 13 14  1  0
 13 15  1  0
 13 16  1  0
 11 17  2  0
 17 18  1  0
 17 19  1  0
 19 20  1  0
 19 21  2  0
 21 22  1  0
  4 23  1  0
 23 24  1  0
 23 25  2  0
 25 26  1  0
 25 27  1  0
 27 28  1  0
 27  2  2  0
 21  8  1  0
M  CHG  2   3  -1  22  -1
M  END
>  <UniqueID>  (44) 
44

>  <SMILES>  (44) 
COc1ccc([O-])c(C(=O)/N=c2\ccc(Cl)c[n-]2)c1

>  <Energy>  (44) 
39.16543532765655

>  <Genealogy>  (44) 
COc1ccc([O-])c(C(=O)N=c2ccc(Cl)c[n-]2)c1 (protonated)
COc1ccc([O-])c(C(=O)/N=c2\ccc(Cl)c[n-]2)c1 (cis-trans isomerization)
COc1ccc([O-])c(C(=O)/N=c2\ccc(Cl)c[n-]2)c1 (3D coordinates assigned)
COc1ccc([O-])c(C(=O)/N=c2\ccc(Cl)c[n-]2)c1 (optimized conformer: 39.16543532765655 kcal/mol)

>  <smiles>  (44) 
COc1ccc(O)c(C(=O)N=c2ccc(Cl)c[nH]2)c1

>  <score_type>  (44) 
oracle

>  <origin>  (44) 
adgpu

>  <m_score__min__energy>  (44) 
-10.76

>  <m_primary>  (44) 
energy

$$$$
44:0
     RDKit          3D

 42 45  0  0  0  0  0  0  0  0999 V2000
   -3.5920   17.1280  -35.5510 O   0  0  0  0  0  0  0  0  0  0  0  0
   -3.6290   17.5790  -34.3770 C   0  0  0  0  0  0  0  0  0  0  0  0
   -2.3970   17.7440  -33.6630 N   0  0  0  0  0  0  0  0  0  0  0  0
   -1.4660   19.2080  -33.6140 S   0  0  0  0  0  0  0  0  0  0  0  0
   -1.9160   20.1100  -34.7290 O   0  0  0  0  0  0  0  0  0  0  0  0
   -0.0090   18.8950  -33.8140 O   0  0  0  0  0  0  0  0  0  0  0  0
   -1.7220   20.0440  -32.0850 C   0  0  0  0  0  0  0  0  0  0  0  0
   -1.0390   19.6180  -30.9390 C   0  0  0  0  0  0  0  0  0  0  0  0
   -1.2310   20.2770  -29.7220 C   0  0  0  0  0  0  0  0  0  0  0  0
   -2.0900   21.3760  -29.6470 C   0  0  0  0  0  0  0  0  0  0  0  0
   -2.7490   21.8380  -30.7970 C   0  0  0  0  0  0  0  0  0  0  0  0
   -3.6650   22.9980  -30.7370 C   0  0  0  0  0  0  0  0  0  0  0  0
   -3.1270   24.2150  -30.4640 N   0  0  0  0  0  0  0  0  0  0  0  0
   -3.8660   25.3230  -30.4000 N   0  0  0  0  0  0  0  0  0  0  0  0
   -5.2060   25.2980  -30.6010 C   0  0  0  0  0  0  0  0  0  0  0  0
   -5.8590   26.3740  -30.5340 O   0  0  0  0  0  0  0  0  0  0  0  0
   -5.8440   24.0760  -30.8700 C   0  0  0  0  0  0  0  0  0  0  0  0
   -7.2370   24.0050  -31.0580 C   0  0  0  0  0  0  0  0  0  0  0  0
   -7.8560   22.7760  -31.2870 C   0  0  0  0  0  0  0  0  0  0  0  0
   -7.0970   21.6070  -31.3250 C   0  0  0  0  0  0  0  0  0  0  0  0
   -5.7120   21.6600  -31.1470 C   0  0  0  0  0  0  0  0  0  0  0  0
   -5.0640   22.8950  -30.9330 C   0  0  0  0  0  0  0  0  0  0  0  0
   -2.5850   21.1470  -32.0080 C   0  0  0  0  0  0  0  0  0  0  0  0
   -4.9340   17.9220  -33.7820 C   0  0  0  0  0  0  0  0  0  0  0  0
   -5.5610   17.0500  -32.8770 C   0  0  0  0  0  0  0  0  0  0  0  0
   -6.8000   17.3820  -32.3200 C   0  0  0  0  0  0  0  0  0  0  0  0
   -7.4310   18.5770  -32.6790 C   0  0  0  0  0  0  0  0  0  0  0  0
   -8.9850   18.9930  -31.9770 Cl  0  0  0  0  0  0  0  0  0  0  0  0
   -6.8280   19.4340  -33.6040 C   0  0  0  0  0  0  0  0  0  0  0  0
   -5.5850   19.1090  -34.1550 C   0  0  0  0  0  0  0  0  0  0  0  0
   -0.3498   18.7626  -30.9971 H   0  0  0  0  0  0  0  0  0  0  0  0
   -0.7045   19.9296  -28.8208 H   0  0  0  0  0  0  0  0  0  0  0  0
   -2.2506   21.8812  -28.6832 H   0  0  0  0  0  0  0  0  0  0  0  0
   -7.8410   24.9237  -31.0242 H   0  0  0  0  0  0  0  0  0  0  0  0
   -8.9446   22.7291  -31.4378 H   0  0  0  0  0  0  0  0  0  0  0  0
   -7.5906   20.6389  -31.4958 H   0  0  0  0  0  0  0  0  0  0  0  0
   -5.1224   20.7318  -31.1739 H   0  0  0  0  0  0  0  0  0  0  0  0
   -3.1368   21.4727  -32.9021 H   0  0  0  0  0  0  0  0  0  0  0  0
   -5.0751   16.1013  -32.6050 H   0  0  0  0  0  0  0  0  0  0  0  0
   -7.2784   16.7027  -31.5991 H   0  0  0  0  0  0  0  0  0  0  0  0
   -7.3325   20.3659  -33.8990 H   0  0  0  0  0  0  0  0  0  0  0  0
   -5.1150   19.7858  -34.8837 H   0  0  0  0  0  0  0  0  0  0  0  0
  1  2  2  0
  2  3  1  0
  3  4  1  0
  4  5  2  0
  4  6  2  0
  4  7  1  0
  7  8  2  0
  8  9  1  0
  9 10  2  0
 10 11  1  0
 11 12  1  0
 12 13  2  0
 13 14  1  0
 14 15  1  0
 15 16  2  0
 15 17  1  0
 17 18  2  0
 18 19  1  0
 19 20  2  0
 20 21  1  0
 21 22  2  0
 11 23  2  0
  2 24  1  0
 24 25  2  0
 25 26  1  0
 26 27  2  0
 27 28  1  0
 27 29  1  0
 29 30  2  0
 23  7  1  0
 30 24  1  0
 22 12  1  0
 22 17  1  0
  8 31  1  0
  9 32  1  0
 10 33  1  0
 18 34  1  0
 19 35  1  0
 20 36  1  0
 21 37  1  0
 23 38  1  0
 25 39  1  0
 26 40  1  0
 29 41  1  0
 30 42  1  0
M  CHG  2   3  -1  14  -1
M  END
>  <UniqueID>  (45) 
45

>  <SMILES>  (45) 
O=C([N-]S(=O)(=O)c1cccc(-c2n[n-]c(=O)c3ccccc23)c1)c1ccc(Cl)cc1

>  <Energy>  (45) 
63.14247786968776

>  <Genealogy>  (45) 
O=C([N-]S(=O)(=O)c1cccc(-c2n[n-]c(=O)c3ccccc23)c1)c1ccc(Cl)cc1 (protonated)
O=C([N-]S(=O)(=O)c1cccc(-c2n[n-]c(=O)c3ccccc23)c1)c1ccc(Cl)cc1 (3D coordinates assigned)
O=C([N-]S(=O)(=O)c1cccc(-c2n[n-]c(=O)c3ccccc23)c1)c1ccc(Cl)cc1 (optimized conformer: 63.14247786968776 kcal/mol)

>  <smiles>  (45) 
O=C(NS(=O)(=O)c1cccc(-c2n[nH]c(=O)c3ccccc23)c1)c1ccc(Cl)cc1

>  <score_type>  (45) 
oracle

>  <origin>  (45) 
adgpu

>  <m_score__min__energy>  (45) 
-12.58

>  <m_primary>  (45) 
energy

$$$$
45:0
     RDKit          3D

 53 56  0  0  0  0  0  0  0  0999 V2000
   -0.6410   26.8060  -23.0760 C   0  0  0  0  0  0  0  0  0  0  0  0
   -0.7350   26.3480  -24.5010 C   0  0  0  0  0  0  0  0  0  0  0  0
   -0.7550   27.2850  -25.5440 C   0  0  0  0  0  0  0  0  0  0  0  0
   -0.8840   26.8640  -26.8700 C   0  0  0  0  0  0  0  0  0  0  0  0
   -1.0060   25.4960  -27.1770 C   0  0  0  0  0  0  0  0  0  0  0  0
   -1.1510   25.0500  -28.5840 C   0  0  0  0  0  0  0  0  0  0  0  0
   -0.2140   24.4160  -29.1420 O   0  0  0  0  0  0  0  0  0  0  0  0
   -2.3740   25.2960  -29.2910 N   0  0  0  0  0  0  0  0  0  0  0  0
   -3.2290   24.3070  -29.8850 C   0  0  0  0  0  0  0  0  0  0  0  0
   -4.5380   24.6680  -30.2250 C   0  0  0  0  0  0  0  0  0  0  0  0
   -5.3940   23.7440  -30.8310 C   0  0  0  0  0  0  0  0  0  0  0  0
   -4.9480   22.4430  -31.1230 C   0  0  0  0  0  0  0  0  0  0  0  0
   -5.8540   21.4620  -31.7760 C   0  0  0  0  0  0  0  0  0  0  0  0
   -7.2480   21.6540  -31.7550 C   0  0  0  0  0  0  0  0  0  0  0  0
   -8.0980   20.7280  -32.3650 C   0  0  0  0  0  0  0  0  0  0  0  0
   -7.5710   19.6050  -33.0050 C   0  0  0  0  0  0  0  0  0  0  0  0
   -6.1860   19.4040  -33.0410 C   0  0  0  0  0  0  0  0  0  0  0  0
   -5.5250   17.9920  -33.8620 S   0  0  0  0  0  0  0  0  0  0  0  0
   -5.3360   16.8560  -32.8960 O   0  0  0  0  0  0  0  0  0  0  0  0
   -6.4810   17.5660  -34.9400 O   0  0  0  0  0  0  0  0  0  0  0  0
   -3.9970   18.3830  -34.5830 N   0  0  0  0  0  0  0  0  0  0  0  0
   -2.8890   18.9920  -33.9020 C   0  0  0  0  0  0  0  0  0  0  0  0
   -2.5550   20.3460  -34.1010 C   0  0  0  0  0  0  0  0  0  0  0  0
   -1.4650   20.9100  -33.4340 C   0  0  0  0  0  0  0  0  0  0  0  0
   -0.7000   20.1340  -32.5610 C   0  0  0  0  0  0  0  0  0  0  0  0
   -1.0260   18.7930  -32.3520 C   0  0  0  0  0  0  0  0  0  0  0  0
   -2.1140   18.2170  -33.0160 C   0  0  0  0  0  0  0  0  0  0  0  0
   -2.4070   16.8730  -32.7820 O   0  0  0  0  0  0  0  0  0  0  0  0
   -5.3320   20.3260  -32.4240 C   0  0  0  0  0  0  0  0  0  0  0  0
   -3.6260   22.0900  -30.8010 C   0  0  0  0  0  0  0  0  0  0  0  0
   -2.7720   23.0150  -30.1940 C   0  0  0  0  0  0  0  0  0  0  0  0
   -1.0010   24.5610  -26.1260 C   0  0  0  0  0  0  0  0  0  0  0  0
   -0.8730   24.9850  -24.8000 C   0  0  0  0  0  0  0  0  0  0  0  0
   -0.8161   25.9527  -22.4043 H   0  0  0  0  0  0  0  0  0  0  0  0
    0.3608   27.2200  -22.8893 H   0  0  0  0  0  0  0  0  0  0  0  0
   -1.3988   27.5812  -22.8893 H   0  0  0  0  0  0  0  0  0  0  0  0
   -0.6686   28.3578  -25.3169 H   0  0  0  0  0  0  0  0  0  0  0  0
   -0.8903   27.6077  -27.6804 H   0  0  0  0  0  0  0  0  0  0  0  0
   -4.8957   25.6865  -30.0137 H   0  0  0  0  0  0  0  0  0  0  0  0
   -6.4243   24.0369  -31.0813 H   0  0  0  0  0  0  0  0  0  0  0  0
   -7.6708   22.5382  -31.2555 H   0  0  0  0  0  0  0  0  0  0  0  0
   -9.1865   20.8845  -32.3408 H   0  0  0  0  0  0  0  0  0  0  0  0
   -8.2445   18.8774  -33.4814 H   0  0  0  0  0  0  0  0  0  0  0  0
   -3.1560   20.9626  -34.7855 H   0  0  0  0  0  0  0  0  0  0  0  0
   -1.2089   21.9673  -33.5968 H   0  0  0  0  0  0  0  0  0  0  0  0
    0.1593   20.5793  -32.0381 H   0  0  0  0  0  0  0  0  0  0  0  0
   -0.4235   18.1854  -31.6608 H   0  0  0  0  0  0  0  0  0  0  0  0
   -3.2420   16.4280  -33.1430 H   0  0  0  0  0  0  0  0  0  0  0  0
   -4.2446   20.1617  -32.4456 H   0  0  0  0  0  0  0  0  0  0  0  0
   -3.2607   21.0777  -31.0286 H   0  0  0  0  0  0  0  0  0  0  0  0
   -1.7364   22.7298  -29.9569 H   0  0  0  0  0  0  0  0  0  0  0  0
   -1.0985   23.4883  -26.3491 H   0  0  0  0  0  0  0  0  0  0  0  0
   -0.8806   24.2449  -23.9863 H   0  0  0  0  0  0  0  0  0  0  0  0
  1  2  1  0
  2  3  2  0
  3  4  1  0
  4  5  2  0
  5  6  1  0
  6  7  2  0
  6  8  1  0
  8  9  1  0
  9 10  2  0
 10 11  1  0
 11 12  2  0
 12 13  1  0
 13 14  2  0
 14 15  1  0
 15 16  2  0
 16 17  1  0
 17 18  1  0
 18 19  2  0
 18 20  2  0
 18 21  1  0
 21 22  1  0
 22 23  2  0
 23 24  1  0
 24 25  2  0
 25 26  1  0
 26 27  2  0
 27 28  1  0
 17 29  2  0
 12 30  1  0
 30 31  2  0
  5 32  1  0
 32 33  2  0
 33  2  1  0
 31  9  1  0
 29 13  1  0
 27 22  1  0
  1 34  1  0
  1 35  1  0
  1 36  1  0
  3 37  1  0
  4 38  1  0
 10 39  1  0
 11 40  1  0
 14 41  1  0
 15 42  1  0
 16 43  1  0
 23 44  1  0
 24 45  1  0
 25 46  1  0
 26 47  1  0
 28 48  1  0
 29 49  1  0
 30 50  1  0
 31 51  1  0
 32 52  1  0
 33 53  1  0
M  CHG  2   8  -1  21  -1
M  END
>  <UniqueID>  (46) 
46

>  <SMILES>  (46) 
Cc1ccc(C(=O)[N-]c2ccc(-c3cccc(S(=O)(=O)[N-]c4ccccc4O)c3)cc2)cc1

>  <Energy>  (46) 
70.09799653744147

>  <Genealogy>  (46) 
Cc1ccc(C(=O)[N-]c2ccc(-c3cccc(S(=O)(=O)[N-]c4ccccc4O)c3)cc2)cc1 (protonated)
Cc1ccc(C(=O)[N-]c2ccc(-c3cccc(S(=O)(=O)[N-]c4ccccc4O)c3)cc2)cc1 (3D coordinates assigned)
Cc1ccc(C(=O)[N-]c2ccc(-c3cccc(S(=O)(=O)[N-]c4ccccc4O)c3)cc2)cc1 (optimized conformer: 70.09799653744147 kcal/mol)

>  <smiles>  (46) 
Cc1ccc(C(=O)Nc2ccc(-c3cccc(S(=O)(=O)Nc4ccccc4O)c3)cc2)cc1

>  <score_type>  (46) 
oracle

>  <origin>  (46) 
adgpu

>  <m_score__min__energy>  (46) 
-11.77

>  <m_primary>  (46) 
energy

$$$$
46:0
     RDKit          3D

 63 65  0  0  0  0  0  0  0  0999 V2000
   -9.4850   21.3200  -32.0310 C   0  0  0  0  0  0  0  0  0  0  0  0
   -8.4050   22.2340  -31.5310 C   0  0  0  0  0  0  0  0  0  0  0  0
   -7.7280   23.0860  -32.4170 C   0  0  0  0  0  0  0  0  0  0  0  0
   -6.6990   23.9120  -31.9540 C   0  0  0  0  0  0  0  0  0  0  0  0
   -6.3300   23.8900  -30.6010 C   0  0  0  0  0  0  0  0  0  0  0  0
   -5.0520   24.9450  -29.9960 S   0  0  0  0  0  0  0  0  0  0  0  0
   -5.3600   26.3510  -30.4250 O   0  0  0  0  0  0  0  0  0  0  0  0
   -5.0090   24.9090  -28.4940 O   0  0  0  0  0  0  0  0  0  0  0  0
   -3.5150   24.4730  -30.6810 N   0  0  0  0  0  0  0  0  0  0  0  0
   -3.1660   23.0430  -30.5840 C   0  0  1  0  0  0  0  0  0  0  0  0
   -3.8990   22.3310  -29.4190 C   0  0  0  0  0  0  0  0  0  0  0  0
   -3.0560   22.1980  -28.1230 C   0  0  0  0  0  0  0  0  0  0  0  0
   -2.2270   23.4730  -27.9070 C   0  0  0  0  0  0  0  0  0  0  0  0
   -2.1190   20.9800  -28.1610 C   0  0  0  0  0  0  0  0  0  0  0  0
   -3.3340   22.2980  -31.8960 C   0  0  0  0  0  0  0  0  0  0  0  0
   -4.4840   21.9370  -32.2560 O   0  0  0  0  0  0  0  0  0  0  0  0
   -2.2180   21.9120  -32.7140 N   0  0  0  0  0  0  0  0  0  0  0  0
   -1.9320   20.6280  -33.2820 C   0  0  0  0  0  0  0  0  0  0  0  0
   -0.6480   20.2840  -33.7380 C   0  0  0  0  0  0  0  0  0  0  0  0
   -0.4160   19.0320  -34.3120 C   0  0  0  0  0  0  0  0  0  0  0  0
   -1.4650   18.1210  -34.4550 C   0  0  0  0  0  0  0  0  0  0  0  0
   -2.7580   18.4660  -34.0410 C   0  0  0  0  0  0  0  0  0  0  0  0
   -4.0920   17.3270  -34.2510 S   0  0  0  0  0  0  0  0  0  0  0  0
   -4.2690   17.0450  -35.7180 O   0  0  0  0  0  0  0  0  0  0  0  0
   -3.7500   16.0320  -33.5670 O   0  0  0  0  0  0  0  0  0  0  0  0
   -5.5880   17.9510  -33.5990 N   0  0  0  0  0  0  0  0  0  0  0  0
   -5.8550   19.3000  -34.1150 C   0  0  0  0  0  0  0  0  0  0  0  0
   -7.1670   19.8480  -33.5170 C   0  0  0  0  0  0  0  0  0  0  0  0
   -7.7340   18.9540  -32.5740 O   0  0  0  0  0  0  0  0  0  0  0  0
   -6.7930   18.6720  -31.5560 C   0  0  0  0  0  0  0  0  0  0  0  0
   -5.5400   17.9710  -32.1270 C   0  0  0  0  0  0  0  0  0  0  0  0
   -2.9870   19.7230  -33.4630 C   0  0  0  0  0  0  0  0  0  0  0  0
   -6.9830   23.0170  -29.7220 C   0  0  0  0  0  0  0  0  0  0  0  0
   -8.0150   22.1930  -30.1830 C   0  0  0  0  0  0  0  0  0  0  0  0
  -10.0127   20.8734  -31.1753 H   0  0  0  0  0  0  0  0  0  0  0  0
  -10.1972   21.8939  -32.6421 H   0  0  0  0  0  0  0  0  0  0  0  0
   -9.0368   20.5227  -32.6421 H   0  0  0  0  0  0  0  0  0  0  0  0
   -8.0080   23.1042  -33.4806 H   0  0  0  0  0  0  0  0  0  0  0  0
   -6.1770   24.5815  -32.6535 H   0  0  0  0  0  0  0  0  0  0  0  0
   -2.0914   23.0179  -30.3505 H   0  0  0  0  0  0  0  0  0  0  0  0
   -4.8078   22.9037  -29.1820 H   0  0  0  0  0  0  0  0  0  0  0  0
   -4.1164   21.3083  -29.7607 H   0  0  0  0  0  0  0  0  0  0  0  0
   -3.7587   22.0549  -27.2889 H   0  0  0  0  0  0  0  0  0  0  0  0
   -2.1086   23.6551  -26.8287 H   0  0  0  0  0  0  0  0  0  0  0  0
   -1.2364   23.3489  -28.3688 H   0  0  0  0  0  0  0  0  0  0  0  0
   -2.7423   24.3281  -28.3688 H   0  0  0  0  0  0  0  0  0  0  0  0
   -1.8799   20.6692  -27.1333 H   0  0  0  0  0  0  0  0  0  0  0  0
   -2.6152   20.1520  -28.6885 H   0  0  0  0  0  0  0  0  0  0  0  0
   -1.1914   21.2473  -28.6885 H   0  0  0  0  0  0  0  0  0  0  0  0
    0.1781   21.0040  -33.6424 H   0  0  0  0  0  0  0  0  0  0  0  0
    0.5949   18.7629  -34.6521 H   0  0  0  0  0  0  0  0  0  0  0  0
   -1.2754   17.1303  -34.8938 H   0  0  0  0  0  0  0  0  0  0  0  0
   -5.0239   19.9658  -33.8393 H   0  0  0  0  0  0  0  0  0  0  0  0
   -5.9510   19.2535  -35.2098 H   0  0  0  0  0  0  0  0  0  0  0  0
   -6.9572   20.8053  -33.0175 H   0  0  0  0  0  0  0  0  0  0  0  0
   -7.8871   19.9778  -34.3384 H   0  0  0  0  0  0  0  0  0  0  0  0
   -6.4892   19.6149  -31.0779 H   0  0  0  0  0  0  0  0  0  0  0  0
   -7.2643   17.9986  -30.8250 H   0  0  0  0  0  0  0  0  0  0  0  0
   -4.6408   18.5143  -31.8012 H   0  0  0  0  0  0  0  0  0  0  0  0
   -5.5111   16.9355  -31.7571 H   0  0  0  0  0  0  0  0  0  0  0  0
   -4.0038   20.0013  -33.1488 H   0  0  0  0  0  0  0  0  0  0  0  0
   -6.6830   22.9791  -28.6644 H   0  0  0  0  0  0  0  0  0  0  0  0
   -8.5231   21.5100  -29.4864 H   0  0  0  0  0  0  0  0  0  0  0  0
  1  2  1  0
  2  3  2  0
  3  4  1  0
  4  5  2  0
  5  6  1  0
  6  7  2  0
  6  8  2  0
  6  9  1  0
  9 10  1  0
 10 11  1  0
 11 12  1  0
 12 13  1  0
 12 14  1  0
 10 15  1  0
 15 16  2  0
 15 17  1  0
 17 18  1  0
 18 19  2  0
 19 20  1  0
 20 21  2  0
 21 22  1  0
 22 23  1  0
 23 24  2  0
 23 25  2  0
 23 26  1  0
 26 27  1  0
 27 28  1  0
 28 29  1  0
 29 30  1  0
 30 31  1  0
 22 32  2  0
  5 33  1  0
 33 34  2  0
 34  2  1  0
 32 18  1  0
 31 26  1  0
  1 35  1  0
  1 36  1  0
  1 37  1  0
  3 38  1  0
  4 39  1  0
 10 40  1  1
 11 41  1  0
 11 42  1  0
 12 43  1  0
 13 44  1  0
 13 45  1  0
 13 46  1  0
 14 47  1  0
 14 48  1  0
 14 49  1  0
 19 50  1  0
 20 51  1  0
 21 52  1  0
 27 53  1  0
 27 54  1  0
 28 55  1  0
 28 56  1  0
 30 57  1  0
 30 58  1  0
 31 59  1  0
 31 60  1  0
 32 61  1  0
 33 62  1  0
 34 63  1  0
M  CHG  2   9  -1  17  -1
M  END
>  <UniqueID>  (47) 
47

>  <SMILES>  (47) 
Cc1ccc(S(=O)(=O)[N-][C@@H](CC(C)C)C(=O)[N-]c2cccc(S(=O)(=O)N3CCOCC3)c2)cc1

>  <Energy>  (47) 
74.25832306082464

>  <Genealogy>  (47) 
Cc1ccc(S(=O)(=O)[N-]C(CC(C)C)C(=O)[N-]c2cccc(S(=O)(=O)N3CCOCC3)c2)cc1 (protonated)
Cc1ccc(S(=O)(=O)[N-][C@@H](CC(C)C)C(=O)[N-]c2cccc(S(=O)(=O)N3CCOCC3)c2)cc1 (chirality)
Cc1ccc(S(=O)(=O)[N-][C@@H](CC(C)C)C(=O)[N-]c2cccc(S(=O)(=O)N3CCOCC3)c2)cc1 (3D coordinates assigned)
Cc1ccc(S(=O)(=O)[N-][C@@H](CC(C)C)C(=O)[N-]c2cccc(S(=O)(=O)N3CCOCC3)c2)cc1 (nonaromatic ring conformer: 74.25832306082464 kcal/mol)

>  <smiles>  (47) 
Cc1ccc(S(=O)(=O)NC(CC(C)C)C(=O)Nc2cccc(S(=O)(=O)N3CCOCC3)c2)cc1

>  <score_type>  (47) 
oracle

>  <origin>  (47) 
adgpu

>  <m_score__min__energy>  (47) 
-12.44

>  <m_primary>  (47) 
energy

$$$$
47:0
     RDKit          3D

 57 62  0  0  0  0  0  0  0  0999 V2000
   -3.6330   23.0060  -27.2110 O   0  0  0  0  0  0  0  0  0  0  0  0
   -3.6740   22.6150  -28.4080 C   0  0  0  0  0  0  0  0  0  0  0  0
   -3.4250   21.2300  -28.6800 N   0  0  0  0  0  0  0  0  0  0  0  0
   -2.2020   20.4850  -28.5250 C   0  0  0  0  0  0  0  0  0  0  0  0
   -1.9500   19.7100  -27.3810 C   0  0  0  0  0  0  0  0  0  0  0  0
   -0.7290   19.0550  -27.2190 C   0  0  0  0  0  0  0  0  0  0  0  0
    0.2710   19.1480  -28.2060 C   0  0  0  0  0  0  0  0  0  0  0  0
    1.6340   18.4830  -28.0930 C   0  0  0  0  0  0  0  0  0  0  0  0
    2.8610   19.3750  -28.2160 C   0  0  0  0  0  0  0  0  0  0  0  0
    2.4880   18.4310  -29.3520 C   0  0  0  0  0  0  0  0  0  0  0  0
    0.0010   19.8880  -29.3670 C   0  0  0  0  0  0  0  0  0  0  0  0
   -1.2330   20.5320  -29.5470 C   0  0  0  0  0  0  0  0  0  0  0  0
   -1.4760   21.2750  -30.7970 C   0  0  0  0  0  0  0  0  0  0  0  0
   -0.6110   22.0910  -31.2160 O   0  0  0  0  0  0  0  0  0  0  0  0
   -2.6560   21.0470  -31.5690 N   0  0  0  0  0  0  0  0  0  0  0  0
   -3.7570   20.0670  -31.6350 C   0  0  0  0  0  0  0  0  0  0  0  0
   -4.3780   20.6100  -32.8790 C   0  0  0  0  0  0  0  0  0  0  0  0
   -3.2560   21.5920  -32.8000 C   0  0  0  0  0  0  0  0  0  0  0  0
   -4.1390   23.5470  -29.4560 C   0  0  0  0  0  0  0  0  0  0  0  0
   -5.2560   23.1810  -30.1410 N   0  0  0  0  0  0  0  0  0  0  0  0
   -5.8800   23.9930  -31.0310 C   0  0  0  0  0  0  0  0  0  0  0  0
   -7.0990   23.4430  -31.7420 C   0  0  0  0  0  0  0  0  0  0  0  0
   -7.9970   22.5020  -30.9520 C   0  0  0  0  0  0  0  0  0  0  0  0
   -7.1130   21.9560  -32.0670 C   0  0  0  0  0  0  0  0  0  0  0  0
   -5.3710   25.2860  -31.2170 C   0  0  0  0  0  0  0  0  0  0  0  0
   -4.2510   25.6640  -30.5510 N   0  0  0  0  0  0  0  0  0  0  0  0
   -3.5860   24.8380  -29.7010 C   0  0  0  0  0  0  0  0  0  0  0  0
   -2.4720   25.2890  -29.1860 N   0  0  0  0  0  0  0  0  0  0  0  0
   -1.4500   24.6000  -28.4530 C   0  0  0  0  0  0  0  0  0  0  0  0
   -1.3880   24.7170  -27.0620 C   0  0  0  0  0  0  0  0  0  0  0  0
   -0.3880   24.1090  -26.3740 N   0  0  0  0  0  0  0  0  0  0  0  0
    0.5770   23.4040  -27.0220 C   0  0  0  0  0  0  0  0  0  0  0  0
    0.5620   23.3160  -28.3770 N   0  0  0  0  0  0  0  0  0  0  0  0
   -0.4210   23.9090  -29.1030 C   0  0  0  0  0  0  0  0  0  0  0  0
   -2.7237   19.6186  -26.6045 H   0  0  0  0  0  0  0  0  0  0  0  0
   -0.5457   18.4604  -26.3119 H   0  0  0  0  0  0  0  0  0  0  0  0
    1.2819   17.7435  -27.3587 H   0  0  0  0  0  0  0  0  0  0  0  0
    2.7410   20.4612  -28.3416 H   0  0  0  0  0  0  0  0  0  0  0  0
    3.7633   19.5448  -27.6101 H   0  0  0  0  0  0  0  0  0  0  0  0
    2.0986   18.8354  -30.2979 H   0  0  0  0  0  0  0  0  0  0  0  0
    3.0092   17.6366  -29.9064 H   0  0  0  0  0  0  0  0  0  0  0  0
    0.7699   19.9648  -30.1499 H   0  0  0  0  0  0  0  0  0  0  0  0
   -3.3991   19.0338  -31.7552 H   0  0  0  0  0  0  0  0  0  0  0  0
   -4.4035   19.9795  -30.7494 H   0  0  0  0  0  0  0  0  0  0  0  0
   -4.3608   19.9387  -33.7502 H   0  0  0  0  0  0  0  0  0  0  0  0
   -5.4375   20.8934  -32.9635 H   0  0  0  0  0  0  0  0  0  0  0  0
   -2.5785   21.5328  -33.6646 H   0  0  0  0  0  0  0  0  0  0  0  0
   -3.5239   22.6589  -32.7964 H   0  0  0  0  0  0  0  0  0  0  0  0
   -7.2528   24.3650  -32.3219 H   0  0  0  0  0  0  0  0  0  0  0  0
   -7.7637   22.2712  -29.9021 H   0  0  0  0  0  0  0  0  0  0  0  0
   -9.0719   22.4629  -30.7216 H   0  0  0  0  0  0  0  0  0  0  0  0
   -6.2415   21.3311  -31.8221 H   0  0  0  0  0  0  0  0  0  0  0  0
   -7.2852   21.3595  -32.9751 H   0  0  0  0  0  0  0  0  0  0  0  0
   -5.8754   25.9881  -31.8972 H   0  0  0  0  0  0  0  0  0  0  0  0
   -2.1492   25.3016  -26.5246 H   0  0  0  0  0  0  0  0  0  0  0  0
    1.3711   22.9041  -26.4479 H   0  0  0  0  0  0  0  0  0  0  0  0
   -0.4083   23.8462  -30.2011 H   0  0  0  0  0  0  0  0  0  0  0  0
  1  2  2  0
  2  3  1  0
  3  4  1  0
  4  5  2  0
  5  6  1  0
  6  7  2  0
  7  8  1  0
  8  9  1  0
  9 10  1  0
  7 11  1  0
 11 12  2  0
 12 13  1  0
 13 14  2  0
 13 15  1  0
 15 16  1  0
 16 17  1  0
 17 18  1  0
  2 19  1  0
 19 20  2  0
 20 21  1  0
 21 22  1  0
 22 23  1  0
 23 24  1  0
 21 25  2  0
 25 26  1  0
 26 27  1  0
 27 28  2  3
 28 29  1  0
 29 30  2  0
 30 31  1  0
 31 32  2  0
 32 33  1  0
 33 34  2  0
 12  4  1  0
 18 15  1  0
 27 19  1  0
 34 29  1  0
 10  8  1  0
 24 22  1  0
  5 35  1  0
  6 36  1  0
  8 37  1  0
  9 38  1  0
  9 39  1  0
 10 40  1  0
 10 41  1  0
 11 42  1  0
 16 43  1  0
 16 44  1  0
 17 45  1  0
 17 46  1  0
 18 47  1  0
 18 48  1  0
 22 49  1  0
 23 50  1  0
 23 51  1  0
 24 52  1  0
 24 53  1  0
 25 54  1  0
 30 55  1  0
 32 56  1  0
 34 57  1  0
M  CHG  2   3  -1  26  -1
M  END
>  <UniqueID>  (48) 
48

>  <SMILES>  (48) 
O=C([N-]c1ccc(C2CC2)cc1C(=O)N1CCC1)c1nc(C2CC2)c[n-]c1=Nc1cncnc1

>  <Energy>  (48) 
672.282280361478

>  <Genealogy>  (48) 
O=C([N-]c1ccc(C2CC2)cc1C(=O)N1CCC1)c1nc(C2CC2)c[n-]c1=Nc1cncnc1 (protonated)
O=C([N-]c1ccc(C2CC2)cc1C(=O)N1CCC1)c1nc(C2CC2)c[n-]c1=Nc1cncnc1 (3D coordinates assigned)
O=C([N-]c1ccc(C2CC2)cc1C(=O)N1CCC1)c1nc(C2CC2)c[n-]c1=Nc1cncnc1 (nonaromatic ring conformer: 672.282280361478 kcal/mol)

>  <smiles>  (48) 
O=C(Nc1ccc(C2CC2)cc1C(=O)N1CCC1)c1nc(C2CC2)c[nH]c1=Nc1cncnc1

>  <score_type>  (48) 
oracle

>  <origin>  (48) 
adgpu

>  <m_score__min__energy>  (48) 
-10.52

>  <m_primary>  (48) 
energy

$$$$
48:0
     RDKit          3D

 30 32  0  0  0  0  0  0  0  0999 V2000
   -9.9359   18.0060  -31.7858 H   0  0  0  0  0  0  0  0  0  0  0  0
   -9.0610   18.6710  -31.8340 C   0  0  0  0  0  0  0  0  0  0  0  0
   -9.0920   19.9740  -31.6730 O   0  0  0  0  0  0  0  0  0  0  0  0
   -7.8700   20.4390  -31.7980 C   0  0  0  0  0  0  0  0  0  0  0  0
   -7.5200   21.8570  -31.6800 C   0  0  0  0  0  0  0  0  0  0  0  0
   -7.2290   22.6580  -32.7230 N   0  0  0  0  0  0  0  0  0  0  0  0
   -6.9670   23.8510  -32.2110 N   0  0  0  0  0  0  0  0  0  0  0  0
   -7.1110   23.7260  -30.8800 C   0  0  0  0  0  0  0  0  0  0  0  0
   -6.8610   25.0610  -29.7160 S   0  0  0  0  0  0  0  0  0  0  0  0
   -5.3050   24.3590  -29.0730 C   0  0  0  0  0  0  0  0  0  0  0  0
   -5.4823   23.3216  -28.7531 H   0  0  0  0  0  0  0  0  0  0  0  0
   -4.9675   24.9693  -28.2224 H   0  0  0  0  0  0  0  0  0  0  0  0
   -4.2360   24.3730  -30.1310 C   0  0  0  0  0  0  0  0  0  0  0  0
   -3.1310   24.9240  -29.8850 O   0  0  0  0  0  0  0  0  0  0  0  0
   -4.4430   23.8010  -31.4310 N   0  0  0  0  0  0  0  0  0  0  0  0
   -4.0220   22.6450  -31.8590 C   0  0  0  0  0  0  0  0  0  0  0  0
   -3.0000   21.5760  -31.0400 S   0  0  0  0  0  0  0  0  0  0  0  0
   -3.0090   20.5210  -32.3560 C   0  0  0  0  0  0  0  0  0  0  0  0
   -2.2190   19.2600  -32.4410 C   0  0  0  0  0  0  0  0  0  0  0  0
   -1.9933   18.8997  -31.4265 H   0  0  0  0  0  0  0  0  0  0  0  0
   -2.8015   18.4980  -32.9796 H   0  0  0  0  0  0  0  0  0  0  0  0
   -1.2792   19.4517  -32.9796 H   0  0  0  0  0  0  0  0  0  0  0  0
   -3.7450   21.0120  -33.3780 N   0  0  0  0  0  0  0  0  0  0  0  0
   -4.3070   22.1850  -33.0960 N   0  0  0  0  0  0  0  0  0  0  0  0
   -4.9030   22.6960  -33.7850 H   0  0  0  0  0  0  0  0  0  0  0  0
   -7.4500   22.5050  -30.5440 O   0  0  0  0  0  0  0  0  0  0  0  0
   -6.9920   19.4040  -32.0490 C   0  0  0  0  0  0  0  0  0  0  0  0
   -5.9045   19.4753  -32.1985 H   0  0  0  0  0  0  0  0  0  0  0  0
   -7.7640   18.2620  -32.0730 C   0  0  0  0  0  0  0  0  0  0  0  0
   -7.4168   17.2329  -32.2473 H   0  0  0  0  0  0  0  0  0  0  0  0
  1  2  1  0
  2  3  1  0
  3  4  1  0
  4  5  1  0
  5  6  2  0
  6  7  1  0
  7  8  2  0
  8  9  1  0
  9 10  1  0
 10 11  1  0
 10 12  1  0
 10 13  1  0
 13 14  2  0
 13 15  1  0
 15 16  2  0
 16 17  1  0
 17 18  1  0
 18 19  1  0
 19 20  1  0
 19 21  1  0
 19 22  1  0
 18 23  2  0
 23 24  1  0
 24 25  1  0
  8 26  1  0
  4 27  2  0
 27 28  1  0
 27 29  1  0
 29 30  1  0
 29  2  2  0
 26  5  1  0
 24 16  1  0
M  END
>  <UniqueID>  (49) 
49

>  <SMILES>  (49) 
Cc1n[nH]/c(=N/C(=O)CSc2nnc(-c3ccco3)o2)s1

>  <Energy>  (49) 
126.14598036806989

>  <Genealogy>  (49) 
Cc1n[nH]/c(=N/C(=O)CSc2nnc(-c3ccco3)o2)s1 (cis-trans isomerization)
Cc1n[nH]/c(=N/C(=O)CSc2nnc(-c3ccco3)o2)s1 (3D coordinates assigned)
Cc1n[nH]/c(=N/C(=O)CSc2nnc(-c3ccco3)o2)s1 (optimized conformer: 126.14598036806989 kcal/mol)

>  <smiles>  (49) 
Cc1n[nH]c(=NC(=O)CSc2nnc(-c3ccco3)o2)s1

>  <score_type>  (49) 
oracle

>  <origin>  (49) 
adgpu

>  <m_score__min__energy>  (49) 
-8.1999999999999993

>  <m_primary>  (49) 
energy

$$$$
49:0
     RDKit          3D

 42 44  0  0  0  0  0  0  0  0999 V2000
   -7.3500   22.6360  -30.0970 C   0  0  0  0  0  0  0  0  0  0  0  0
   -7.9660   23.1740  -31.3210 N   0  0  0  0  0  0  0  0  0  0  0  0
   -8.9390   22.2070  -31.8910 C   0  0  0  0  0  0  0  0  0  0  0  0
   -8.7620   20.8240  -31.2520 C   0  0  0  0  0  0  0  0  0  0  0  0
   -7.9770   19.9040  -32.1430 C   0  0  0  0  0  0  0  0  0  0  0  0
   -7.9540   18.5220  -31.9050 C   0  0  0  0  0  0  0  0  0  0  0  0
   -7.1750   17.6990  -32.7190 C   0  0  0  0  0  0  0  0  0  0  0  0
   -6.4280   18.2570  -33.7580 C   0  0  0  0  0  0  0  0  0  0  0  0
   -6.4720   19.6380  -33.9660 C   0  0  0  0  0  0  0  0  0  0  0  0
   -7.2350   20.4240  -33.1600 N   0  0  0  0  0  0  0  0  0  0  0  0
   -6.9160   23.5650  -32.2850 C   0  0  0  0  0  0  0  0  0  0  0  0
   -5.6730   24.0250  -31.5760 C   0  0  0  0  0  0  0  0  0  0  0  0
   -5.4870   25.2650  -31.0020 C   0  0  0  0  0  0  0  0  0  0  0  0
   -4.2330   25.3470  -30.5210 N   0  0  0  0  0  0  0  0  0  0  0  0
   -3.6080   24.2070  -30.7700 N   0  0  0  0  0  0  0  0  0  0  0  0
   -4.4580   23.3740  -31.4050 C   0  0  0  0  0  0  0  0  0  0  0  0
   -4.0530   22.0310  -31.8840 C   0  0  0  0  0  0  0  0  0  0  0  0
   -4.5870   20.8550  -31.3280 C   0  0  0  0  0  0  0  0  0  0  0  0
   -4.1730   19.6030  -31.7890 C   0  0  0  0  0  0  0  0  0  0  0  0
   -3.2160   19.5070  -32.8010 C   0  0  0  0  0  0  0  0  0  0  0  0
   -2.6630   20.6660  -33.3520 C   0  0  0  0  0  0  0  0  0  0  0  0
   -1.7040   20.5580  -34.3570 O   0  0  0  0  0  0  0  0  0  0  0  0
   -3.0750   21.9230  -32.8900 C   0  0  0  0  0  0  0  0  0  0  0  0
   -7.8460   23.0692  -29.2159 H   0  0  0  0  0  0  0  0  0  0  0  0
   -7.4626   21.5419  -30.0802 H   0  0  0  0  0  0  0  0  0  0  0  0
   -6.2810   22.8948  -30.0802 H   0  0  0  0  0  0  0  0  0  0  0  0
   -9.9608   22.5662  -31.6986 H   0  0  0  0  0  0  0  0  0  0  0  0
   -8.7631   22.1229  -32.9736 H   0  0  0  0  0  0  0  0  0  0  0  0
   -8.2293   20.9370  -30.2963 H   0  0  0  0  0  0  0  0  0  0  0  0
   -9.7586   20.3857  -31.0945 H   0  0  0  0  0  0  0  0  0  0  0  0
   -8.5450   18.0906  -31.0837 H   0  0  0  0  0  0  0  0  0  0  0  0
   -7.1495   16.6135  -32.5426 H   0  0  0  0  0  0  0  0  0  0  0  0
   -5.8115   17.6165  -34.4058 H   0  0  0  0  0  0  0  0  0  0  0  0
   -5.8891   20.0898  -34.7822 H   0  0  0  0  0  0  0  0  0  0  0  0
   -6.6691   22.6996  -32.9176 H   0  0  0  0  0  0  0  0  0  0  0  0
   -7.2963   24.3961  -32.8971 H   0  0  0  0  0  0  0  0  0  0  0  0
   -6.2440   26.0611  -30.9462 H   0  0  0  0  0  0  0  0  0  0  0  0
   -5.3356   20.9214  -30.5248 H   0  0  0  0  0  0  0  0  0  0  0  0
   -4.6027   18.6891  -31.3529 H   0  0  0  0  0  0  0  0  0  0  0  0
   -2.8973   18.5190  -33.1646 H   0  0  0  0  0  0  0  0  0  0  0  0
   -1.5850   21.2820  -35.0560 H   0  0  0  0  0  0  0  0  0  0  0  0
   -2.6299   22.8336  -33.3175 H   0  0  0  0  0  0  0  0  0  0  0  0
  1  2  1  0
  2  3  1  0
  3  4  1  0
  4  5  1  0
  5  6  2  0
  6  7  1  0
  7  8  2  0
  8  9  1  0
  9 10  2  0
  2 11  1  0
 11 12  1  0
 12 13  1  0
 13 14  2  0
 14 15  1  0
 15 16  1  0
 16 17  1  0
 17 18  2  0
 18 19  1  0
 19 20  2  0
 20 21  1  0
 21 22  1  0
 21 23  2  0
 10  5  1  0
 16 12  2  0
 23 17  1  0
  1 24  1  0
  1 25  1  0
  1 26  1  0
  3 27  1  0
  3 28  1  0
  4 29  1  0
  4 30  1  0
  6 31  1  0
  7 32  1  0
  8 33  1  0
  9 34  1  0
 11 35  1  0
 11 36  1  0
 13 37  1  0
 18 38  1  0
 19 39  1  0
 20 40  1  0
 22 41  1  0
 23 42  1  0
M  CHG  1  15  -1
M  END
>  <UniqueID>  (50) 
50

>  <SMILES>  (50) 
CN(CCc1ccccn1)Cc1cn[n-]c1-c1cccc(O)c1

>  <Energy>  (50) 
75.82659979394762

>  <Genealogy>  (50) 
CN(CCc1ccccn1)Cc1cn[n-]c1-c1cccc(O)c1 (protonated)
CN(CCc1ccccn1)Cc1cn[n-]c1-c1cccc(O)c1 (3D coordinates assigned)
CN(CCc1ccccn1)Cc1cn[n-]c1-c1cccc(O)c1 (optimized conformer: 75.82659979394762 kcal/mol)

>  <smiles>  (50) 
CN(CCc1ccccn1)Cc1cn[nH]c1-c1cccc(O)c1

>  <score_type>  (50) 
oracle

>  <origin>  (50) 
adgpu

>  <m_score__min__energy>  (50) 
-9.9100000000000001

>  <m_primary>  (50) 
energy

$$$$
