0:0
     RDKit          3D

 32 33  0  0  0  0  0  0  0  0999 V2000
   -0.8590   26.8250  -27.9930 C   0  0  0  0  0  0  0  0  0  0  0  0
   -1.5400   25.9890  -28.9220 O   0  0  0  0  0  0  0  0  0  0  0  0
   -2.0310   24.7060  -28.6310 C   0  0  0  0  0  0  0  0  0  0  0  0
   -1.4980   23.9310  -27.5800 C   0  0  0  0  0  0  0  0  0  0  0  0
   -2.0490   22.6850  -27.2700 C   0  0  0  0  0  0  0  0  0  0  0  0
   -3.1380   22.2010  -27.9950 C   0  0  0  0  0  0  0  0  0  0  0  0
   -3.6680   22.9540  -29.0440 C   0  0  0  0  0  0  0  0  0  0  0  0
   -3.1050   24.1890  -29.3900 C   0  0  0  0  0  0  0  0  0  0  0  0
   -3.6880   24.9250  -30.4730 N   0  0  0  0  0  0  0  0  0  0  0  0
   -5.0740   24.8980  -30.8440 C   0  0  0  0  0  0  0  0  0  0  0  0
   -5.7840   25.9290  -30.6860 O   0  0  0  0  0  0  0  0  0  0  0  0
   -5.6390   23.7130  -31.4390 N   0  0  0  0  0  0  0  0  0  0  0  0
   -7.0980   23.6210  -31.6310 C   0  0  0  0  0  0  0  0  0  0  0  0
   -7.5660   22.1710  -31.5450 C   0  0  0  0  0  0  0  0  0  0  0  0
   -6.8300   21.3660  -32.5080 N   0  0  0  0  0  0  0  0  0  0  0  0
   -5.4300   21.5780  -32.6910 C   0  0  0  0  0  0  0  0  0  0  0  0
   -4.7810   20.8320  -33.4710 O   0  0  0  0  0  0  0  0  0  0  0  0
   -4.7210   22.6710  -31.9410 C   0  0  0  0  0  0  0  0  0  0  0  0
   -1.1111   26.5155  -26.9680 H   0  0  0  0  0  0  0  0  0  0  0  0
    0.2266   26.7356  -28.1465 H   0  0  0  0  0  0  0  0  0  0  0  0
   -1.1661   27.8700  -28.1465 H   0  0  0  0  0  0  0  0  0  0  0  0
   -0.6431   24.3099  -27.0007 H   0  0  0  0  0  0  0  0  0  0  0  0
   -1.6232   22.0845  -26.4526 H   0  0  0  0  0  0  0  0  0  0  0  0
   -3.5790   21.2261  -27.7401 H   0  0  0  0  0  0  0  0  0  0  0  0
   -4.5354   22.5742  -29.6038 H   0  0  0  0  0  0  0  0  0  0  0  0
   -7.6022   24.2095  -30.8503 H   0  0  0  0  0  0  0  0  0  0  0  0
   -7.3477   24.0133  -32.6279 H   0  0  0  0  0  0  0  0  0  0  0  0
   -7.3841   21.7865  -30.5306 H   0  0  0  0  0  0  0  0  0  0  0  0
   -8.6416   22.1189  -31.7694 H   0  0  0  0  0  0  0  0  0  0  0  0
   -7.3350   20.6690  -33.0990 H   0  0  0  0  0  0  0  0  0  0  0  0
   -4.1949   22.2245  -31.0843 H   0  0  0  0  0  0  0  0  0  0  0  0
   -4.0251   23.1545  -32.6423 H   0  0  0  0  0  0  0  0  0  0  0  0
  1  2  1  0
  2  3  1  0
  3  4  2  0
  4  5  1  0
  5  6  2  0
  6  7  1  0
  7  8  2  0
  8  9  1  0
  9 10  1  0
 10 11  2  0
 10 12  1  0
 12 13  1  0
 13 14  1  0
 14 15  1  0
 15 16  1  0
 16 17  2  0
 16 18  1  0
  8  3  1  0
 18 12  1  0
  1 19  1  0
  1 20  1  0
  1 21  1  0
  4 22  1  0
  5 23  1  0
  6 24  1  0
  7 25  1  0
 13 26  1  0
 13 27  1  0
 14 28  1  0
 14 29  1  0
 15 30  1  0
 18 31  1  0
 18 32  1  0
M  CHG  1   9  -1
M  END
>  <UniqueID>  (1) 
1

>  <SMILES>  (1) 
COc1ccccc1[N-]C(=O)N1CCNC(=O)C1

>  <Energy>  (1) 
34.78530795613229

>  <Genealogy>  (1) 
COc1ccccc1[N-]C(=O)N1CCNC(=O)C1 (protonated)
COc1ccccc1[N-]C(=O)N1CCNC(=O)C1 (3D coordinates assigned)
COc1ccccc1[N-]C(=O)N1CCNC(=O)C1 (nonaromatic ring conformer: 34.78530795613229 kcal/mol)

>  <smiles>  (1) 
COc1ccccc1NC(=O)N1CCNC(=O)C1

>  <score_type>  (1) 
oracle

>  <origin>  (1) 
adgpu

>  <m_score__min__energy>  (1) 
-7.4699999999999998

>  <m_primary>  (1) 
energy

$$$$
1:0
     RDKit          3D

 49 51  0  0  0  0  0  0  0  0999 V2000
   -8.7860   18.4360  -31.6200 C   0  0  0  0  0  0  0  0  0  0  0  0
   -9.1040   19.7740  -31.2470 O   0  0  0  0  0  0  0  0  0  0  0  0
   -8.2440   20.8680  -31.4210 C   0  0  0  0  0  0  0  0  0  0  0  0
   -6.8560   20.7160  -31.6130 C   0  0  0  0  0  0  0  0  0  0  0  0
   -6.0400   21.8390  -31.7820 C   0  0  0  0  0  0  0  0  0  0  0  0
   -6.5930   23.1290  -31.7500 C   0  0  0  0  0  0  0  0  0  0  0  0
   -5.7200   24.3340  -31.9700 C   0  0  0  0  0  0  0  0  0  0  0  0
   -5.3960   24.9760  -30.6600 C   0  0  0  0  0  0  0  0  0  0  0  0
   -6.3310   25.3630  -29.9070 O   0  0  0  0  0  0  0  0  0  0  0  0
   -4.0310   25.0510  -30.2300 N   0  0  0  0  0  0  0  0  0  0  0  0
   -3.4260   24.2330  -29.2200 C   0  0  0  0  0  0  0  0  0  0  0  0
   -2.1270   24.5470  -28.8010 C   0  0  0  0  0  0  0  0  0  0  0  0
   -1.4800   23.7700  -27.8310 C   0  0  0  0  0  0  0  0  0  0  0  0
    0.1780   24.1440  -27.3520 S   0  0  0  0  0  0  0  0  0  0  0  0
    0.8080   22.9160  -26.7530 O   0  0  0  0  0  0  0  0  0  0  0  0
    0.9710   24.5250  -28.5710 O   0  0  0  0  0  0  0  0  0  0  0  0
    0.2380   25.4580  -26.1990 N   0  0  0  0  0  0  0  0  0  0  0  0
    0.1930   24.9390  -24.8190 C   0  0  0  0  0  0  0  0  0  0  0  0
   -0.2710   26.0330  -23.8440 C   0  0  0  0  0  0  0  0  0  0  0  0
   -1.5710   26.5420  -24.1220 O   0  0  0  0  0  0  0  0  0  0  0  0
   -1.9720   26.3850  -25.4750 C   0  0  0  0  0  0  0  0  0  0  0  0
   -0.8030   26.4730  -26.4720 C   0  0  0  0  0  0  0  0  0  0  0  0
   -2.1560   22.6910  -27.2500 C   0  0  0  0  0  0  0  0  0  0  0  0
   -3.4680   22.3960  -27.6280 C   0  0  0  0  0  0  0  0  0  0  0  0
   -4.1160   23.1710  -28.6010 C   0  0  0  0  0  0  0  0  0  0  0  0
   -5.4460   22.9060  -28.9220 O   0  0  0  0  0  0  0  0  0  0  0  0
   -7.9770   23.2790  -31.5720 C   0  0  0  0  0  0  0  0  0  0  0  0
   -8.7920   22.1560  -31.4050 C   0  0  0  0  0  0  0  0  0  0  0  0
   -8.6414   17.8276  -30.7150 H   0  0  0  0  0  0  0  0  0  0  0  0
   -9.6094   18.0161  -32.2164 H   0  0  0  0  0  0  0  0  0  0  0  0
   -7.8618   18.4314  -32.2164 H   0  0  0  0  0  0  0  0  0  0  0  0
   -6.4126   19.7095  -31.6300 H   0  0  0  0  0  0  0  0  0  0  0  0
   -4.9591   21.7109  -31.9409 H   0  0  0  0  0  0  0  0  0  0  0  0
   -4.7876   24.0231  -32.4639 H   0  0  0  0  0  0  0  0  0  0  0  0
   -6.2548   25.0566  -32.6039 H   0  0  0  0  0  0  0  0  0  0  0  0
   -1.6089   25.4132  -29.2383 H   0  0  0  0  0  0  0  0  0  0  0  0
   -0.5087   24.0931  -24.7737 H   0  0  0  0  0  0  0  0  0  0  0  0
    1.2027   24.6119  -24.5302 H   0  0  0  0  0  0  0  0  0  0  0  0
   -0.2742   25.6121  -22.8277 H   0  0  0  0  0  0  0  0  0  0  0  0
    0.4300   26.8738  -23.9516 H   0  0  0  0  0  0  0  0  0  0  0  0
   -2.4510   25.4009  -25.5850 H   0  0  0  0  0  0  0  0  0  0  0  0
   -2.6608   27.2104  -25.7079 H   0  0  0  0  0  0  0  0  0  0  0  0
   -1.1918   26.3178  -27.4892 H   0  0  0  0  0  0  0  0  0  0  0  0
   -0.3430   27.4668  -26.3682 H   0  0  0  0  0  0  0  0  0  0  0  0
   -1.6521   22.0727  -26.4926 H   0  0  0  0  0  0  0  0  0  0  0  0
   -3.9956   21.5517  -27.1602 H   0  0  0  0  0  0  0  0  0  0  0  0
   -6.1790   23.5890  -28.7660 H   0  0  0  0  0  0  0  0  0  0  0  0
   -8.4222   24.2848  -31.5639 H   0  0  0  0  0  0  0  0  0  0  0  0
   -9.8746   22.2855  -31.2596 H   0  0  0  0  0  0  0  0  0  0  0  0
  1  2  1  0
  2  3  1  0
  3  4  2  0
  4  5  1  0
  5  6  2  0
  6  7  1  0
  7  8  1  0
  8  9  2  0
  8 10  1  0
 10 11  1  0
 11 12  2  0
 12 13  1  0
 13 14  1  0
 14 15  2  0
 14 16  2  0
 14 17  1  0
 17 18  1  0
 18 19  1  0
 19 20  1  0
 20 21  1  0
 21 22  1  0
 13 23  2  0
 23 24  1  0
 24 25  2  0
 25 26  1  0
  6 27  1  0
 27 28  2  0
 28  3  1  0
 25 11  1  0
 22 17  1  0
  1 29  1  0
  1 30  1  0
  1 31  1  0
  4 32  1  0
  5 33  1  0
  7 34  1  0
  7 35  1  0
 12 36  1  0
 18 37  1  0
 18 38  1  0
 19 39  1  0
 19 40  1  0
 21 41  1  0
 21 42  1  0
 22 43  1  0
 22 44  1  0
 23 45  1  0
 24 46  1  0
 26 47  1  0
 27 48  1  0
 28 49  1  0
M  CHG  1  10  -1
M  END
>  <UniqueID>  (2) 
2

>  <SMILES>  (2) 
COc1ccc(CC(=O)[N-]c2cc(S(=O)(=O)N3CCOCC3)ccc2O)cc1

>  <Energy>  (2) 
64.23154903282558

>  <Genealogy>  (2) 
COc1ccc(CC(=O)[N-]c2cc(S(=O)(=O)N3CCOCC3)ccc2O)cc1 (protonated)
COc1ccc(CC(=O)[N-]c2cc(S(=O)(=O)N3CCOCC3)ccc2O)cc1 (3D coordinates assigned)
COc1ccc(CC(=O)[N-]c2cc(S(=O)(=O)N3CCOCC3)ccc2O)cc1 (nonaromatic ring conformer: 64.23154903282558 kcal/mol)

>  <smiles>  (2) 
COc1ccc(CC(=O)Nc2cc(S(=O)(=O)N3CCOCC3)ccc2O)cc1

>  <score_type>  (2) 
oracle

>  <origin>  (2) 
adgpu

>  <m_score__min__energy>  (2) 
-10.529999999999999

>  <m_primary>  (2) 
energy

$$$$
2:0
     RDKit          3D

 41 43  0  0  0  0  0  0  0  0999 V2000
   -5.7640   18.2390  -31.5820 C   0  0  0  0  0  0  0  0  0  0  0  0
   -5.8400   19.6600  -31.9180 N   0  0  0  0  0  0  0  0  0  0  0  0
   -7.1040   20.3480  -31.8750 C   0  0  0  0  0  0  0  0  0  0  0  0
   -7.1930   21.6450  -31.3360 C   0  0  0  0  0  0  0  0  0  0  0  0
   -8.4190   22.3150  -31.3030 C   0  0  0  0  0  0  0  0  0  0  0  0
   -9.5670   21.7000  -31.8080 C   0  0  0  0  0  0  0  0  0  0  0  0
   -9.4910   20.4160  -32.3510 C   0  0  0  0  0  0  0  0  0  0  0  0
   -8.2660   19.7420  -32.3880 C   0  0  0  0  0  0  0  0  0  0  0  0
   -4.3970   20.4890  -32.4300 S   0  0  0  0  0  0  0  0  0  0  0  0
   -3.2790   19.4910  -32.5540 O   0  0  0  0  0  0  0  0  0  0  0  0
   -4.6210   21.1490  -33.7610 O   0  0  0  0  0  0  0  0  0  0  0  0
   -3.9860   21.7390  -31.2590 C   0  0  0  0  0  0  0  0  0  0  0  0
   -4.4410   23.0530  -31.4240 C   0  0  0  0  0  0  0  0  0  0  0  0
   -4.1040   24.0360  -30.4880 C   0  0  0  0  0  0  0  0  0  0  0  0
   -3.2980   23.7200  -29.3830 C   0  0  0  0  0  0  0  0  0  0  0  0
   -2.9830   24.7440  -28.4230 N   0  0  0  0  0  0  0  0  0  0  0  0
   -1.6450   25.1740  -28.1220 C   0  0  0  0  0  0  0  0  0  0  0  0
   -0.6990   24.9040  -28.9110 O   0  0  0  0  0  0  0  0  0  0  0  0
   -1.3590   25.9690  -26.9170 C   0  0  0  0  0  0  0  0  0  0  0  0
   -1.7220   25.6620  -25.6180 C   0  0  0  0  0  0  0  0  0  0  0  0
   -1.2310   26.6900  -24.8420 C   0  0  0  0  0  0  0  0  0  0  0  0
   -0.5990   27.5570  -25.7100 C   0  0  0  0  0  0  0  0  0  0  0  0
   -0.6920   27.1000  -26.9370 O   0  0  0  0  0  0  0  0  0  0  0  0
   -2.8650   22.3930  -29.2090 C   0  0  0  0  0  0  0  0  0  0  0  0
   -3.2040   21.4120  -30.1450 C   0  0  0  0  0  0  0  0  0  0  0  0
   -5.7577   18.1206  -30.4884 H   0  0  0  0  0  0  0  0  0  0  0  0
   -6.6354   17.7157  -32.0024 H   0  0  0  0  0  0  0  0  0  0  0  0
   -4.8417   17.8116  -32.0024 H   0  0  0  0  0  0  0  0  0  0  0  0
   -6.2918   22.1345  -30.9382 H   0  0  0  0  0  0  0  0  0  0  0  0
   -8.4800   23.3281  -30.8788 H   0  0  0  0  0  0  0  0  0  0  0  0
  -10.5317   22.2277  -31.7778 H   0  0  0  0  0  0  0  0  0  0  0  0
  -10.3956   19.9339  -32.7502 H   0  0  0  0  0  0  0  0  0  0  0  0
   -8.2105   18.7322  -32.8207 H   0  0  0  0  0  0  0  0  0  0  0  0
   -5.0650   23.3127  -32.2919 H   0  0  0  0  0  0  0  0  0  0  0  0
   -4.4731   25.0640  -30.6186 H   0  0  0  0  0  0  0  0  0  0  0  0
   -3.7780   25.2710  -27.9990 H   0  0  0  0  0  0  0  0  0  0  0  0
   -2.2851   24.7812  -25.2757 H   0  0  0  0  0  0  0  0  0  0  0  0
   -1.3241   26.7976  -23.7512 H   0  0  0  0  0  0  0  0  0  0  0  0
   -0.0939   28.4895  -25.4179 H   0  0  0  0  0  0  0  0  0  0  0  0
   -2.2568   22.1261  -28.3322 H   0  0  0  0  0  0  0  0  0  0  0  0
   -2.8547   20.3783  -30.0056 H   0  0  0  0  0  0  0  0  0  0  0  0
  1  2  1  0
  2  3  1  0
  3  4  2  0
  4  5  1  0
  5  6  2  0
  6  7  1  0
  7  8  2  0
  2  9  1  0
  9 10  2  0
  9 11  2  0
  9 12  1  0
 12 13  2  0
 13 14  1  0
 14 15  2  0
 15 16  1  0
 16 17  1  0
 17 18  2  0
 17 19  1  0
 19 20  2  0
 20 21  1  0
 21 22  2  0
 22 23  1  0
 15 24  1  0
 24 25  2  0
  8  3  1  0
 25 12  1  0
 23 19  1  0
  1 26  1  0
  1 27  1  0
  1 28  1  0
  4 29  1  0
  5 30  1  0
  6 31  1  0
  7 32  1  0
  8 33  1  0
 13 34  1  0
 14 35  1  0
 16 36  1  0
 20 37  1  0
 21 38  1  0
 22 39  1  0
 24 40  1  0
 25 41  1  0
M  END
>  <UniqueID>  (3) 
3

>  <SMILES>  (3) 
CN(c1ccccc1)S(=O)(=O)c1ccc(NC(=O)c2ccco2)cc1

>  <Energy>  (3) 
76.88856302688303

>  <Genealogy>  (3) 
CN(c1ccccc1)S(=O)(=O)c1ccc(NC(=O)c2ccco2)cc1 (3D coordinates assigned)
CN(c1ccccc1)S(=O)(=O)c1ccc(NC(=O)c2ccco2)cc1 (optimized conformer: 76.88856302688303 kcal/mol)

>  <smiles>  (3) 
CN(c1ccccc1)S(=O)(=O)c1ccc(NC(=O)c2ccco2)cc1

>  <score_type>  (3) 
oracle

>  <origin>  (3) 
adgpu

>  <m_score__min__energy>  (3) 
-8.75

>  <m_primary>  (3) 
energy

$$$$
3:0
     RDKit          3D

 46 49  0  0  0  0  0  0  0  0999 V2000
   -3.8740   25.5920  -30.4990 O   0  0  0  0  0  0  0  0  0  0  0  0
   -4.6340   24.4730  -30.8310 C   0  0  0  0  0  0  0  0  0  0  0  0
   -4.0150   23.2720  -31.1980 C   0  0  0  0  0  0  0  0  0  0  0  0
   -4.7880   22.1550  -31.5290 C   0  0  0  0  0  0  0  0  0  0  0  0
   -6.1940   22.2240  -31.5050 C   0  0  0  0  0  0  0  0  0  0  0  0
   -6.9980   21.0250  -31.8540 C   0  0  0  0  0  0  0  0  0  0  0  0
   -8.3990   21.0130  -31.7400 C   0  0  0  0  0  0  0  0  0  0  0  0
   -9.1070   19.8640  -32.0980 C   0  0  0  0  0  0  0  0  0  0  0  0
   -8.4260   18.7390  -32.5610 C   0  0  0  0  0  0  0  0  0  0  0  0
   -7.0270   18.7710  -32.6590 C   0  0  0  0  0  0  0  0  0  0  0  0
   -6.2860   17.6420  -33.1590 N   0  0  0  0  0  0  0  0  0  0  0  0
   -6.1300   17.4030  -34.6000 C   0  0  0  0  0  0  0  0  0  0  0  0
   -4.6720   17.0580  -34.9020 C   0  0  0  0  0  0  0  0  0  0  0  0
   -4.1710   16.0060  -34.0010 N   0  0  0  0  0  0  0  0  0  0  0  0
   -2.9270   15.3420  -34.3140 C   0  0  0  0  0  0  0  0  0  0  0  0
   -2.2750   14.5540  -33.3470 C   0  0  0  0  0  0  0  0  0  0  0  0
   -1.0680   13.9150  -33.6490 C   0  0  0  0  0  0  0  0  0  0  0  0
   -0.4970   14.0580  -34.9160 C   0  0  0  0  0  0  0  0  0  0  0  0
   -1.1310   14.8400  -35.8840 C   0  0  0  0  0  0  0  0  0  0  0  0
   -0.4090   15.0250  -37.4720 Cl  0  0  0  0  0  0  0  0  0  0  0  0
   -2.3390   15.4800  -35.5860 C   0  0  0  0  0  0  0  0  0  0  0  0
   -5.0170   15.5110  -32.9030 C   0  0  0  0  0  0  0  0  0  0  0  0
   -5.7380   16.6710  -32.2000 C   0  0  0  0  0  0  0  0  0  0  0  0
   -6.3630   19.9110  -32.3170 N   0  0  0  0  0  0  0  0  0  0  0  0
   -6.8060   23.4350  -31.1240 C   0  0  0  0  0  0  0  0  0  0  0  0
   -6.0290   24.5490  -30.7920 C   0  0  0  0  0  0  0  0  0  0  0  0
   -2.9200   25.6980  -30.8220 H   0  0  0  0  0  0  0  0  0  0  0  0
   -2.9173   23.2070  -31.2260 H   0  0  0  0  0  0  0  0  0  0  0  0
   -4.2932   21.2138  -31.8107 H   0  0  0  0  0  0  0  0  0  0  0  0
   -8.9331   21.9014  -31.3718 H   0  0  0  0  0  0  0  0  0  0  0  0
  -10.2037   19.8464  -32.0146 H   0  0  0  0  0  0  0  0  0  0  0  0
   -8.9813   17.8336  -32.8472 H   0  0  0  0  0  0  0  0  0  0  0  0
   -6.7760   16.5667  -34.9054 H   0  0  0  0  0  0  0  0  0  0  0  0
   -6.4164   18.3080  -35.1559 H   0  0  0  0  0  0  0  0  0  0  0  0
   -4.5955   16.7055  -35.9412 H   0  0  0  0  0  0  0  0  0  0  0  0
   -4.0638   17.9620  -34.7507 H   0  0  0  0  0  0  0  0  0  0  0  0
   -2.7179   14.4399  -32.3466 H   0  0  0  0  0  0  0  0  0  0  0  0
   -0.5675   13.2988  -32.8876 H   0  0  0  0  0  0  0  0  0  0  0  0
    0.4523   13.5545  -35.1513 H   0  0  0  0  0  0  0  0  0  0  0  0
   -2.8334   16.0960  -36.3516 H   0  0  0  0  0  0  0  0  0  0  0  0
   -5.7658   14.8159  -33.3107 H   0  0  0  0  0  0  0  0  0  0  0  0
   -4.3766   14.9994  -32.1694 H   0  0  0  0  0  0  0  0  0  0  0  0
   -6.5628   16.2631  -31.5972 H   0  0  0  0  0  0  0  0  0  0  0  0
   -5.0044   17.1941  -31.5690 H   0  0  0  0  0  0  0  0  0  0  0  0
   -7.9032   23.5043  -31.0875 H   0  0  0  0  0  0  0  0  0  0  0  0
   -6.5180   25.4897  -30.4987 H   0  0  0  0  0  0  0  0  0  0  0  0
  1  2  1  0
  2  3  2  0
  3  4  1  0
  4  5  2  0
  5  6  1  0
  6  7  2  0
  7  8  1  0
  8  9  2  0
  9 10  1  0
 10 11  1  0
 11 12  1  0
 12 13  1  0
 13 14  1  0
 14 15  1  0
 15 16  2  0
 16 17  1  0
 17 18  2  0
 18 19  1  0
 19 20  1  0
 19 21  2  0
 14 22  1  0
 22 23  1  0
 10 24  2  0
  5 25  1  0
 25 26  2  0
 26  2  1  0
 24  6  1  0
 23 11  1  0
 21 15  1  0
  1 27  1  0
  3 28  1  0
  4 29  1  0
  7 30  1  0
  8 31  1  0
  9 32  1  0
 12 33  1  0
 12 34  1  0
 13 35  1  0
 13 36  1  0
 16 37  1  0
 17 38  1  0
 18 39  1  0
 21 40  1  0
 22 41  1  0
 22 42  1  0
 23 43  1  0
 23 44  1  0
 25 45  1  0
 26 46  1  0
M  END
>  <UniqueID>  (4) 
4

>  <SMILES>  (4) 
Oc1ccc(-c2cccc(N3CCN(c4cccc(Cl)c4)CC3)n2)cc1

>  <Energy>  (4) 
60.79854403747524

>  <Genealogy>  (4) 
Oc1ccc(-c2cccc(N3CCN(c4cccc(Cl)c4)CC3)n2)cc1 (3D coordinates assigned)
Oc1ccc(-c2cccc(N3CCN(c4cccc(Cl)c4)CC3)n2)cc1 (nonaromatic ring conformer: 60.79854403747524 kcal/mol)

>  <smiles>  (4) 
Oc1ccc(-c2cccc(N3CCN(c4cccc(Cl)c4)CC3)n2)cc1

>  <score_type>  (4) 
oracle

>  <origin>  (4) 
adgpu

>  <m_score__min__energy>  (4) 
-9.4299999999999997

>  <m_primary>  (4) 
energy

$$$$
4:0
     RDKit          3D

 38 40  0  0  0  0  0  0  0  0999 V2000
   -4.2360   22.6780  -27.9610 C   0  0  0  0  0  0  0  0  0  0  0  0
   -3.2160   23.7560  -28.1390 C   0  0  0  0  0  0  0  0  0  0  0  0
   -2.2810   24.0570  -27.2170 N   0  0  0  0  0  0  0  0  0  0  0  0
   -1.5940   25.0700  -27.7840 C   0  0  0  0  0  0  0  0  0  0  0  0
   -2.0560   25.3910  -28.9730 O   0  0  0  0  0  0  0  0  0  0  0  0
   -3.0630   24.5930  -29.2270 C   0  0  0  0  0  0  0  0  0  0  0  0
   -3.8670   24.6360  -30.4660 C   0  0  0  0  0  0  0  0  0  0  0  0
   -4.5950   25.6350  -30.7050 O   0  0  0  0  0  0  0  0  0  0  0  0
   -3.7800   23.5970  -31.4480 N   0  0  0  0  0  0  0  0  0  0  0  0
   -4.8230   22.6680  -31.7670 C   0  0  0  0  0  0  0  0  0  0  0  0
   -6.1690   22.8140  -31.4820 C   0  0  0  0  0  0  0  0  0  0  0  0
   -6.8200   24.0280  -30.8910 C   0  0  0  0  0  0  0  0  0  0  0  0
   -6.8180   21.6940  -31.8860 N   0  0  0  0  0  0  0  0  0  0  0  0
   -8.2640   21.4660  -31.8060 C   0  0  0  0  0  0  0  0  0  0  0  0
   -5.9260   20.8270  -32.3610 N   0  0  0  0  0  0  0  0  0  0  0  0
   -6.2060   19.4980  -32.8380 C   0  0  0  0  0  0  0  0  0  0  0  0
   -5.7880   19.0980  -34.1170 C   0  0  0  0  0  0  0  0  0  0  0  0
   -6.0750   17.8100  -34.5800 C   0  0  0  0  0  0  0  0  0  0  0  0
   -6.7860   16.9180  -33.7740 C   0  0  0  0  0  0  0  0  0  0  0  0
   -7.2150   17.3130  -32.5030 C   0  0  0  0  0  0  0  0  0  0  0  0
   -6.9300   18.6000  -32.0370 C   0  0  0  0  0  0  0  0  0  0  0  0
   -4.7050   21.3970  -32.2910 C   0  0  0  0  0  0  0  0  0  0  0  0
   -3.6290   20.8180  -32.6050 O   0  0  0  0  0  0  0  0  0  0  0  0
   -4.4013   22.5033  -26.8876 H   0  0  0  0  0  0  0  0  0  0  0  0
   -5.1811   22.9860  -28.4322 H   0  0  0  0  0  0  0  0  0  0  0  0
   -3.8763   21.7514  -28.4322 H   0  0  0  0  0  0  0  0  0  0  0  0
   -0.7410   25.5725  -27.3046 H   0  0  0  0  0  0  0  0  0  0  0  0
   -6.7860   23.9646  -29.7934 H   0  0  0  0  0  0  0  0  0  0  0  0
   -6.2843   24.9296  -31.2230 H   0  0  0  0  0  0  0  0  0  0  0  0
   -7.8674   24.0807  -31.2230 H   0  0  0  0  0  0  0  0  0  0  0  0
   -8.5697   21.4178  -30.7504 H   0  0  0  0  0  0  0  0  0  0  0  0
   -8.7935   22.2918  -32.3038 H   0  0  0  0  0  0  0  0  0  0  0  0
   -8.5137   20.5174  -32.3038 H   0  0  0  0  0  0  0  0  0  0  0  0
   -5.2330   19.7998  -34.7570 H   0  0  0  0  0  0  0  0  0  0  0  0
   -5.7403   17.4989  -35.5806 H   0  0  0  0  0  0  0  0  0  0  0  0
   -7.0086   15.9045  -34.1391 H   0  0  0  0  0  0  0  0  0  0  0  0
   -7.7769   16.6108  -31.8696 H   0  0  0  0  0  0  0  0  0  0  0  0
   -7.2741   18.9103  -31.0394 H   0  0  0  0  0  0  0  0  0  0  0  0
  1  2  1  0
  2  3  1  0
  3  4  2  0
  4  5  1  0
  5  6  1  0
  6  7  1  0
  7  8  2  0
  7  9  1  0
  9 10  1  0
 10 11  2  0
 11 12  1  0
 11 13  1  0
 13 14  1  0
 13 15  1  0
 15 16  1  0
 16 17  2  0
 17 18  1  0
 18 19  2  0
 19 20  1  0
 20 21  2  0
 15 22  1  0
 22 23  2  0
  6  2  2  0
 22 10  1  0
 21 16  1  0
  1 24  1  0
  1 25  1  0
  1 26  1  0
  4 27  1  0
 12 28  1  0
 12 29  1  0
 12 30  1  0
 14 31  1  0
 14 32  1  0
 14 33  1  0
 17 34  1  0
 18 35  1  0
 19 36  1  0
 20 37  1  0
 21 38  1  0
M  CHG  1   9  -1
M  END
>  <UniqueID>  (5) 
5

>  <SMILES>  (5) 
Cc1ncoc1C(=O)[N-]c1c(C)n(C)n(-c2ccccc2)c1=O

>  <Energy>  (5) 
113.98461859578359

>  <Genealogy>  (5) 
Cc1ncoc1C(=O)[N-]c1c(C)n(C)n(-c2ccccc2)c1=O (protonated)
Cc1ncoc1C(=O)[N-]c1c(C)n(C)n(-c2ccccc2)c1=O (3D coordinates assigned)
Cc1ncoc1C(=O)[N-]c1c(C)n(C)n(-c2ccccc2)c1=O (optimized conformer: 113.98461859578359 kcal/mol)

>  <smiles>  (5) 
Cc1ncoc1C(=O)Nc1c(C)n(C)n(-c2ccccc2)c1=O

>  <score_type>  (5) 
oracle

>  <origin>  (5) 
adgpu

>  <m_score__min__energy>  (5) 
-9.2699999999999996

>  <m_primary>  (5) 
energy

$$$$
5:0
     RDKit          3D

 29 30  0  0  0  0  0  0  0  0999 V2000
   -6.7700   18.6010  -33.3770 C   0  0  0  0  0  0  0  0  0  0  0  0
   -7.2960   19.8520  -32.7400 C   0  0  0  0  0  0  0  0  0  0  0  0
   -8.6720   20.0130  -32.5280 C   0  0  0  0  0  0  0  0  0  0  0  0
   -9.1630   21.1910  -31.9620 C   0  0  0  0  0  0  0  0  0  0  0  0
   -8.2860   22.2250  -31.6210 C   0  0  0  0  0  0  0  0  0  0  0  0
   -6.9070   22.0950  -31.8580 C   0  0  0  0  0  0  0  0  0  0  0  0
   -5.9860   23.2010  -31.5060 C   0  0  0  0  0  0  0  0  0  0  0  0
   -5.3740   23.8100  -32.4230 O   0  0  0  0  0  0  0  0  0  0  0  0
   -5.8020   23.6380  -30.1520 N   0  0  0  0  0  0  0  0  0  0  0  0
   -4.5590   23.6780  -29.4340 C   0  0  0  0  0  0  0  0  0  0  0  0
   -4.2380   22.6910  -28.4830 C   0  0  0  0  0  0  0  0  0  0  0  0
   -3.0200   22.7380  -27.8020 C   0  0  0  0  0  0  0  0  0  0  0  0
   -2.1040   23.7550  -28.0730 C   0  0  0  0  0  0  0  0  0  0  0  0
   -2.4010   24.7280  -29.0320 C   0  0  0  0  0  0  0  0  0  0  0  0
   -1.4780   25.7310  -29.3020 O   0  0  0  0  0  0  0  0  0  0  0  0
   -3.6220   24.6920  -29.7200 C   0  0  0  0  0  0  0  0  0  0  0  0
   -3.8900   25.6740  -30.6750 O   0  0  0  0  0  0  0  0  0  0  0  0
   -6.4190   20.8980  -32.4110 C   0  0  0  0  0  0  0  0  0  0  0  0
   -6.4705   17.8888  -32.5940 H   0  0  0  0  0  0  0  0  0  0  0  0
   -7.5547   18.1500  -34.0022 H   0  0  0  0  0  0  0  0  0  0  0  0
   -5.8988   18.8463  -34.0022 H   0  0  0  0  0  0  0  0  0  0  0  0
   -9.3676   19.2084  -32.8086 H   0  0  0  0  0  0  0  0  0  0  0  0
  -10.2424   21.3059  -31.7839 H   0  0  0  0  0  0  0  0  0  0  0  0
   -8.6778   23.1459  -31.1644 H   0  0  0  0  0  0  0  0  0  0  0  0
   -4.9502   21.8788  -28.2754 H   0  0  0  0  0  0  0  0  0  0  0  0
   -2.7820   21.9713  -27.0500 H   0  0  0  0  0  0  0  0  0  0  0  0
   -1.1472   23.7913  -27.5316 H   0  0  0  0  0  0  0  0  0  0  0  0
   -4.2300   25.4510  -31.6020 H   0  0  0  0  0  0  0  0  0  0  0  0
   -5.3397   20.7798  -32.5876 H   0  0  0  0  0  0  0  0  0  0  0  0
  1  2  1  0
  2  3  2  0
  3  4  1  0
  4  5  2  0
  5  6  1  0
  6  7  1  0
  7  8  2  0
  7  9  1  0
  9 10  1  0
 10 11  2  0
 11 12  1  0
 12 13  2  0
 13 14  1  0
 14 15  1  0
 14 16  2  0
 16 17  1  0
  6 18  2  0
 18  2  1  0
 16 10  1  0
  1 19  1  0
  1 20  1  0
  1 21  1  0
  3 22  1  0
  4 23  1  0
  5 24  1  0
 11 25  1  0
 12 26  1  0
 13 27  1  0
 17 28  1  0
 18 29  1  0
M  CHG  2   9  -1  15  -1
M  END
>  <UniqueID>  (6) 
6

>  <SMILES>  (6) 
Cc1cccc(C(=O)[N-]c2cccc([O-])c2O)c1

>  <Energy>  (6) 
36.28767247425783

>  <Genealogy>  (6) 
Cc1cccc(C(=O)[N-]c2cccc([O-])c2O)c1 (protonated)
Cc1cccc(C(=O)[N-]c2cccc([O-])c2O)c1 (3D coordinates assigned)
Cc1cccc(C(=O)[N-]c2cccc([O-])c2O)c1 (optimized conformer: 36.28767247425783 kcal/mol)

>  <smiles>  (6) 
Cc1cccc(C(=O)Nc2cccc(O)c2O)c1

>  <score_type>  (6) 
oracle

>  <origin>  (6) 
adgpu

>  <m_score__min__energy>  (6) 
-11.81

>  <m_primary>  (6) 
energy

$$$$
6:0
     RDKit          3D

 38 40  0  0  0  0  0  0  0  0999 V2000
   -2.7070   20.9920  -27.8140 C   0  0  0  0  0  0  0  0  0  0  0  0
   -2.3770   22.4240  -28.1140 C   0  0  0  0  0  0  0  0  0  0  0  0
   -1.4420   23.1130  -27.3270 C   0  0  0  0  0  0  0  0  0  0  0  0
   -1.1700   24.4610  -27.5770 C   0  0  0  0  0  0  0  0  0  0  0  0
   -1.8310   25.1310  -28.6100 C   0  0  0  0  0  0  0  0  0  0  0  0
   -2.7660   24.4500  -29.4100 C   0  0  0  0  0  0  0  0  0  0  0  0
   -3.4840   25.1150  -30.4580 N   0  0  0  0  0  0  0  0  0  0  0  0
   -4.9070   25.2590  -30.5470 C   0  0  0  0  0  0  0  0  0  0  0  0
   -5.3980   26.4170  -30.5940 O   0  0  0  0  0  0  0  0  0  0  0  0
   -5.8120   24.0930  -30.5270 C   0  0  0  0  0  0  0  0  0  0  0  0
   -5.7630   23.0170  -31.3890 C   0  0  0  0  0  0  0  0  0  0  0  0
   -6.8240   22.2130  -30.9950 C   0  0  0  0  0  0  0  0  0  0  0  0
   -7.2300   20.9150  -31.5870 C   0  0  0  0  0  0  0  0  0  0  0  0
   -8.4440   20.2980  -31.2310 C   0  0  0  0  0  0  0  0  0  0  0  0
   -8.8140   19.0790  -31.8070 C   0  0  0  0  0  0  0  0  0  0  0  0
   -7.9790   18.4600  -32.7390 C   0  0  0  0  0  0  0  0  0  0  0  0
   -6.7580   19.0490  -33.0930 C   0  0  0  0  0  0  0  0  0  0  0  0
   -5.8800   18.4040  -34.1230 C   0  0  0  0  0  0  0  0  0  0  0  0
   -6.3960   20.2820  -32.5280 C   0  0  0  0  0  0  0  0  0  0  0  0
   -7.4690   22.7980  -29.9620 N   0  0  0  0  0  0  0  0  0  0  0  0
   -6.8530   23.9350  -29.6880 N   0  0  0  0  0  0  0  0  0  0  0  0
   -3.0520   23.1060  -29.1380 C   0  0  0  0  0  0  0  0  0  0  0  0
   -2.7411   20.8441  -26.7245 H   0  0  0  0  0  0  0  0  0  0  0  0
   -3.6862   20.7425  -28.2487 H   0  0  0  0  0  0  0  0  0  0  0  0
   -1.9358   20.3392  -28.2487 H   0  0  0  0  0  0  0  0  0  0  0  0
   -0.9214   22.5908  -26.5108 H   0  0  0  0  0  0  0  0  0  0  0  0
   -0.4338   24.9959  -26.9591 H   0  0  0  0  0  0  0  0  0  0  0  0
   -1.6194   26.1940  -28.7979 H   0  0  0  0  0  0  0  0  0  0  0  0
   -5.0460   22.8370  -32.2036 H   0  0  0  0  0  0  0  0  0  0  0  0
   -9.1058   20.7779  -30.4950 H   0  0  0  0  0  0  0  0  0  0  0  0
   -9.7662   18.6060  -31.5249 H   0  0  0  0  0  0  0  0  0  0  0  0
   -8.2807   17.5065  -33.1970 H   0  0  0  0  0  0  0  0  0  0  0  0
   -5.0911   17.8244  -33.6213 H   0  0  0  0  0  0  0  0  0  0  0  0
   -6.4841   17.7333  -34.7517 H   0  0  0  0  0  0  0  0  0  0  0  0
   -5.4206   19.1810  -34.7517 H   0  0  0  0  0  0  0  0  0  0  0  0
   -5.4500   20.7589  -32.8239 H   0  0  0  0  0  0  0  0  0  0  0  0
   -7.1660   24.5990  -28.9450 H   0  0  0  0  0  0  0  0  0  0  0  0
   -3.8132   22.5800  -29.7329 H   0  0  0  0  0  0  0  0  0  0  0  0
  1  2  1  0
  2  3  2  0
  3  4  1  0
  4  5  2  0
  5  6  1  0
  6  7  1  0
  7  8  1  0
  8  9  2  0
  8 10  1  0
 10 11  2  0
 11 12  1  0
 12 13  1  0
 13 14  2  0
 14 15  1  0
 15 16  2  0
 16 17  1  0
 17 18  1  0
 17 19  2  0
 12 20  2  0
 20 21  1  0
  6 22  2  0
 22  2  1  0
 21 10  1  0
 19 13  1  0
  1 23  1  0
  1 24  1  0
  1 25  1  0
  3 26  1  0
  4 27  1  0
  5 28  1  0
 11 29  1  0
 14 30  1  0
 15 31  1  0
 16 32  1  0
 18 33  1  0
 18 34  1  0
 18 35  1  0
 19 36  1  0
 21 37  1  0
 22 38  1  0
M  CHG  1   7  -1
M  END
>  <UniqueID>  (7) 
7

>  <SMILES>  (7) 
Cc1cccc([N-]C(=O)c2cc(-c3cccc(C)c3)n[nH]2)c1

>  <Energy>  (7) 
75.05107443724994

>  <Genealogy>  (7) 
Cc1cccc([N-]C(=O)c2cc(-c3cccc(C)c3)n[nH]2)c1 (protonated)
Cc1cccc([N-]C(=O)c2cc(-c3cccc(C)c3)n[nH]2)c1 (3D coordinates assigned)
Cc1cccc([N-]C(=O)c2cc(-c3cccc(C)c3)n[nH]2)c1 (optimized conformer: 75.05107443724994 kcal/mol)

>  <smiles>  (7) 
Cc1cccc(NC(=O)c2cc(-c3cccc(C)c3)n[nH]2)c1

>  <score_type>  (7) 
oracle

>  <origin>  (7) 
adgpu

>  <m_score__min__energy>  (7) 
-10.470000000000001

>  <m_primary>  (7) 
energy

$$$$
7:0
     RDKit          3D

 39 40  0  0  0  0  0  0  0  0999 V2000
   -9.0950   18.7850  -31.9190 C   0  0  0  0  0  0  0  0  0  0  0  0
   -7.8230   19.4960  -32.2790 C   0  0  0  0  0  0  0  0  0  0  0  0
   -6.8030   18.8180  -32.9430 C   0  0  0  0  0  0  0  0  0  0  0  0
   -5.6310   19.4940  -33.3150 C   0  0  0  0  0  0  0  0  0  0  0  0
   -4.5640   18.7030  -34.0350 C   0  0  0  0  0  0  0  0  0  0  0  0
   -5.4730   20.8330  -33.0060 N   0  0  0  0  0  0  0  0  0  0  0  0
   -4.2270   21.5430  -33.3790 C   0  0  0  0  0  0  0  0  0  0  0  0
   -3.3100   21.6970  -32.2010 C   0  0  0  0  0  0  0  0  0  0  0  0
   -2.4450   20.8100  -31.9760 O   0  0  0  0  0  0  0  0  0  0  0  0
   -3.3670   22.8840  -31.3970 N   0  0  0  0  0  0  0  0  0  0  0  0
   -3.2700   22.9610  -29.9660 C   0  0  0  0  0  0  0  0  0  0  0  0
   -2.5200   22.0140  -29.2430 C   0  0  0  0  0  0  0  0  0  0  0  0
   -2.4140   22.1040  -27.8540 C   0  0  0  0  0  0  0  0  0  0  0  0
   -3.0610   23.1300  -27.1680 C   0  0  0  0  0  0  0  0  0  0  0  0
   -3.8320   24.0590  -27.8660 C   0  0  0  0  0  0  0  0  0  0  0  0
   -3.9630   23.9800  -29.2660 C   0  0  0  0  0  0  0  0  0  0  0  0
   -4.7850   24.9440  -29.9590 N   0  0  0  0  0  0  0  0  0  0  0  0
   -4.2910   25.6720  -30.8440 O   0  0  0  0  0  0  0  0  0  0  0  0
   -6.0950   25.1540  -29.5920 O   0  0  0  0  0  0  0  0  0  0  0  0
   -6.5070   21.5270  -32.4030 C   0  0  0  0  0  0  0  0  0  0  0  0
   -6.4130   23.0070  -32.1030 C   0  0  0  0  0  0  0  0  0  0  0  0
   -7.6820   20.8580  -32.0290 C   0  0  0  0  0  0  0  0  0  0  0  0
   -9.1886   18.7327  -30.8242 H   0  0  0  0  0  0  0  0  0  0  0  0
   -9.9525   19.3346  -32.3345 H   0  0  0  0  0  0  0  0  0  0  0  0
   -9.0761   17.7667  -32.3345 H   0  0  0  0  0  0  0  0  0  0  0  0
   -6.9168   17.7491  -33.1764 H   0  0  0  0  0  0  0  0  0  0  0  0
   -3.9080   18.2167  -33.2980 H   0  0  0  0  0  0  0  0  0  0  0  0
   -5.0384   17.9367  -34.6656 H   0  0  0  0  0  0  0  0  0  0  0  0
   -3.9687   19.3797  -34.6656 H   0  0  0  0  0  0  0  0  0  0  0  0
   -3.7096   20.9700  -34.1626 H   0  0  0  0  0  0  0  0  0  0  0  0
   -4.4958   22.5462  -33.7415 H   0  0  0  0  0  0  0  0  0  0  0  0
   -2.0134   21.1965  -29.7770 H   0  0  0  0  0  0  0  0  0  0  0  0
   -1.8185   21.3635  -27.2998 H   0  0  0  0  0  0  0  0  0  0  0  0
   -2.9635   23.2072  -26.0751 H   0  0  0  0  0  0  0  0  0  0  0  0
   -4.3438   24.8629  -27.3167 H   0  0  0  0  0  0  0  0  0  0  0  0
   -6.4033   23.1604  -31.0138 H   0  0  0  0  0  0  0  0  0  0  0  0
   -5.4874   23.4113  -32.5385 H   0  0  0  0  0  0  0  0  0  0  0  0
   -7.2800   23.5252  -32.5385 H   0  0  0  0  0  0  0  0  0  0  0  0
   -8.4948   21.4118  -31.5364 H   0  0  0  0  0  0  0  0  0  0  0  0
  1  2  1  0
  2  3  2  0
  3  4  1  0
  4  5  1  0
  4  6  2  0
  6  7  1  0
  7  8  1  0
  8  9  2  0
  8 10  1  0
 10 11  1  0
 11 12  2  0
 12 13  1  0
 13 14  2  0
 14 15  1  0
 15 16  2  0
 16 17  1  0
 17 18  2  0
 17 19  1  0
  6 20  1  0
 20 21  1  0
 20 22  2  0
 22  2  1  0
 16 11  1  0
  1 23  1  0
  1 24  1  0
  1 25  1  0
  3 26  1  0
  5 27  1  0
  5 28  1  0
  5 29  1  0
  7 30  1  0
  7 31  1  0
 12 32  1  0
 13 33  1  0
 14 34  1  0
 15 35  1  0
 21 36  1  0
 21 37  1  0
 21 38  1  0
 22 39  1  0
M  CHG  4   6   1  10  -1  17   1  19  -1
M  END
>  <UniqueID>  (8) 
8

>  <SMILES>  (8) 
Cc1cc(C)[n+](CC(=O)[N-]c2ccccc2[N+](=O)[O-])c(C)c1

>  <Energy>  (8) 
49.51045446434596

>  <Genealogy>  (8) 
Cc1cc(C)[n+](CC(=O)[N-]c2ccccc2[N+](=O)[O-])c(C)c1 (protonated)
Cc1cc(C)[n+](CC(=O)[N-]c2ccccc2[N+](=O)[O-])c(C)c1 (3D coordinates assigned)
Cc1cc(C)[n+](CC(=O)[N-]c2ccccc2[N+](=O)[O-])c(C)c1 (optimized conformer: 49.51045446434596 kcal/mol)

>  <smiles>  (8) 
Cc1cc(C)[n+](CC(=O)Nc2ccccc2[N+](=O)[O-])c(C)c1

>  <score_type>  (8) 
oracle

>  <origin>  (8) 
adgpu

>  <m_score__min__energy>  (8) 
-8

>  <m_primary>  (8) 
energy

$$$$
8:0
     RDKit          3D

 52 54  0  0  0  0  0  0  0  0999 V2000
   -2.0110   26.3230  -26.0120 C   0  0  0  0  0  0  0  0  0  0  0  0
   -2.1580   25.0300  -26.8220 C   0  0  2  0  0  0  0  0  0  0  0  0
   -1.3870   25.1200  -28.1460 C   0  0  0  0  0  0  0  0  0  0  0  0
   -1.5070   23.8180  -28.9780 C   0  0  1  0  0  0  0  0  0  0  0  0
   -0.1860   23.0370  -28.9830 C   0  0  0  0  0  0  0  0  0  0  0  0
   -2.6590   22.9070  -28.4900 C   0  0  0  0  0  0  0  0  0  0  0  0
   -3.8700   23.6660  -28.1200 N   0  0  0  0  0  0  0  0  0  0  0  0
   -4.7210   24.2870  -29.5190 S   0  0  0  0  0  0  0  0  0  0  0  0
   -5.7700   25.2640  -29.0640 O   0  0  0  0  0  0  0  0  0  0  0  0
   -3.7720   25.0090  -30.4330 O   0  0  0  0  0  0  0  0  0  0  0  0
   -5.5200   22.9840  -30.3960 C   0  0  0  0  0  0  0  0  0  0  0  0
   -4.8880   21.7400  -30.5230 C   0  0  0  0  0  0  0  0  0  0  0  0
   -5.5030   20.7080  -31.2370 C   0  0  0  0  0  0  0  0  0  0  0  0
   -6.7520   20.9130  -31.8370 C   0  0  0  0  0  0  0  0  0  0  0  0
   -7.5210   19.5960  -32.7210 S   0  0  0  0  0  0  0  0  0  0  0  0
   -8.8540   20.0750  -33.2230 O   0  0  0  0  0  0  0  0  0  0  0  0
   -7.7450   18.4240  -31.8050 O   0  0  0  0  0  0  0  0  0  0  0  0
   -6.5140   19.1210  -34.0720 N   0  0  0  0  0  0  0  0  0  0  0  0
   -6.4830   17.6610  -34.2180 C   0  0  0  0  0  0  0  0  0  0  0  0
   -5.2660   17.1480  -33.4580 C   0  0  0  0  0  0  0  0  0  0  0  0
   -4.3830   18.3620  -33.2290 C   0  0  0  0  0  0  0  0  0  0  0  0
   -5.1200   19.5320  -33.8660 C   0  0  0  0  0  0  0  0  0  0  0  0
   -7.3840   22.1580  -31.7120 C   0  0  0  0  0  0  0  0  0  0  0  0
   -6.7700   23.1900  -30.9980 C   0  0  0  0  0  0  0  0  0  0  0  0
   -3.6490   24.7150  -27.0920 C   0  0  0  0  0  0  0  0  0  0  0  0
   -2.0377   26.0878  -24.9378 H   0  0  0  0  0  0  0  0  0  0  0  0
   -1.0525   26.8031  -26.2585 H   0  0  0  0  0  0  0  0  0  0  0  0
   -2.8373   27.0060  -26.2585 H   0  0  0  0  0  0  0  0  0  0  0  0
   -1.7299   24.2109  -26.2256 H   0  0  0  0  0  0  0  0  0  0  0  0
   -1.7903   25.9565  -28.7356 H   0  0  0  0  0  0  0  0  0  0  0  0
   -0.3239   25.2753  -27.9100 H   0  0  0  0  0  0  0  0  0  0  0  0
   -1.7419   24.1299  -30.0064 H   0  0  0  0  0  0  0  0  0  0  0  0
    0.1325   22.8487  -27.9471 H   0  0  0  0  0  0  0  0  0  0  0  0
   -0.3289   22.0781  -29.5027 H   0  0  0  0  0  0  0  0  0  0  0  0
    0.5853   23.6244  -29.5027 H   0  0  0  0  0  0  0  0  0  0  0  0
   -2.9171   22.2043  -29.2960 H   0  0  0  0  0  0  0  0  0  0  0  0
   -2.3081   22.3827  -27.5889 H   0  0  0  0  0  0  0  0  0  0  0  0
   -3.9043   21.5751  -30.0591 H   0  0  0  0  0  0  0  0  0  0  0  0
   -5.0046   19.7316  -31.3281 H   0  0  0  0  0  0  0  0  0  0  0  0
   -6.8980   19.5630  -34.9410 H   0  0  0  0  0  0  0  0  0  0  0  0
   -7.4000   17.2224  -33.7977 H   0  0  0  0  0  0  0  0  0  0  0  0
   -6.4222   17.3800  -35.2798 H   0  0  0  0  0  0  0  0  0  0  0  0
   -5.5712   16.7089  -32.4967 H   0  0  0  0  0  0  0  0  0  0  0  0
   -4.7386   16.3623  -34.0188 H   0  0  0  0  0  0  0  0  0  0  0  0
   -4.2431   18.5371  -32.1521 H   0  0  0  0  0  0  0  0  0  0  0  0
   -3.3827   18.2253  -33.6658 H   0  0  0  0  0  0  0  0  0  0  0  0
   -5.0816   20.4066  -33.2000 H   0  0  0  0  0  0  0  0  0  0  0  0
   -4.6533   19.8066  -34.8235 H   0  0  0  0  0  0  0  0  0  0  0  0
   -8.3668   22.3230  -32.1777 H   0  0  0  0  0  0  0  0  0  0  0  0
   -7.2681   24.1666  -30.9077 H   0  0  0  0  0  0  0  0  0  0  0  0
   -4.1418   25.6388  -27.4294 H   0  0  0  0  0  0  0  0  0  0  0  0
   -4.0677   24.3301  -26.1505 H   0  0  0  0  0  0  0  0  0  0  0  0
  1  2  1  0
  2  3  1  0
  3  4  1  0
  4  5  1  0
  4  6  1  0
  6  7  1  0
  7  8  1  0
  8  9  2  0
  8 10  2  0
  8 11  1  0
 11 12  2  0
 12 13  1  0
 13 14  2  0
 14 15  1  0
 15 16  2  0
 15 17  2  0
 15 18  1  0
 18 19  1  0
 19 20  1  0
 20 21  1  0
 21 22  1  0
 14 23  1  0
 23 24  2  0
  7 25  1  0
 25  2  1  0
 24 11  1  0
 22 18  1  0
  1 26  1  0
  1 27  1  0
  1 28  1  0
  2 29  1  1
  3 30  1  0
  3 31  1  0
  4 32  1  6
  5 33  1  0
  5 34  1  0
  5 35  1  0
  6 36  1  0
  6 37  1  0
 12 38  1  0
 13 39  1  0
 18 40  1  0
 19 41  1  0
 19 42  1  0
 20 43  1  0
 20 44  1  0
 21 45  1  0
 21 46  1  0
 22 47  1  0
 22 48  1  0
 23 49  1  0
 24 50  1  0
 25 51  1  0
 25 52  1  0
M  CHG  1  18   1
M  END
>  <UniqueID>  (9) 
9

>  <SMILES>  (9) 
C[C@@H]1C[C@@H](C)CN(S(=O)(=O)c2ccc(S(=O)(=O)[NH+]3CCCC3)cc2)C1

>  <Energy>  (9) 
57.18891000116495

>  <Genealogy>  (9) 
CC1CC(C)CN(S(=O)(=O)c2ccc(S(=O)(=O)[NH+]3CCCC3)cc2)C1 (protonated)
C[C@@H]1C[C@@H](C)CN(S(=O)(=O)c2ccc(S(=O)(=O)[NH+]3CCCC3)cc2)C1 (chirality)
C[C@@H]1C[C@@H](C)CN(S(=O)(=O)c2ccc(S(=O)(=O)[NH+]3CCCC3)cc2)C1 (3D coordinates assigned)
C[C@@H]1C[C@@H](C)CN(S(=O)(=O)c2ccc(S(=O)(=O)[NH+]3CCCC3)cc2)C1 (nonaromatic ring conformer: 57.18891000116495 kcal/mol)

>  <smiles>  (9) 
CC1CC(C)CN(S(=O)(=O)c2ccc(S(=O)(=O)N3CCCC3)cc2)C1

>  <score_type>  (9) 
oracle

>  <origin>  (9) 
adgpu

>  <m_score__min__energy>  (9) 
-9.3900000000000006

>  <m_primary>  (9) 
energy

$$$$
9:0
     RDKit          3D

 57 60  0  0  0  0  0  0  0  0999 V2000
   -0.5730   26.8220  -24.7620 C   0  0  0  0  0  0  0  0  0  0  0  0
   -1.3330   26.1490  -25.8650 C   0  0  0  0  0  0  0  0  0  0  0  0
   -0.7620   26.0120  -27.1390 C   0  0  0  0  0  0  0  0  0  0  0  0
   -1.4580   25.3500  -28.1550 C   0  0  0  0  0  0  0  0  0  0  0  0
   -2.7250   24.8070  -27.9060 C   0  0  0  0  0  0  0  0  0  0  0  0
   -3.6020   24.0150  -29.2130 S   0  0  0  0  0  0  0  0  0  0  0  0
   -5.0540   23.8970  -28.8410 O   0  0  0  0  0  0  0  0  0  0  0  0
   -3.5090   24.8260  -30.4760 O   0  0  0  0  0  0  0  0  0  0  0  0
   -2.9260   22.4310  -29.4690 N   0  0  0  0  0  0  0  0  0  0  0  0
   -2.4500   21.6260  -28.3720 C   0  0  0  0  0  0  0  0  0  0  0  0
   -3.1010   20.4310  -28.0150 C   0  0  0  0  0  0  0  0  0  0  0  0
   -2.6260   19.6620  -26.9460 C   0  0  0  0  0  0  0  0  0  0  0  0
   -1.5040   20.0790  -26.2230 C   0  0  0  0  0  0  0  0  0  0  0  0
   -0.8450   21.2570  -26.5770 C   0  0  0  0  0  0  0  0  0  0  0  0
   -1.3110   22.0260  -27.6490 C   0  0  0  0  0  0  0  0  0  0  0  0
   -3.0030   21.8710  -30.7860 C   0  0  0  0  0  0  0  0  0  0  0  0
   -1.8650   21.8240  -31.6000 C   0  0  0  0  0  0  0  0  0  0  0  0
   -1.9550   21.3210  -32.8990 C   0  0  0  0  0  0  0  0  0  0  0  0
   -3.1820   20.8660  -33.3930 C   0  0  0  0  0  0  0  0  0  0  0  0
   -4.3270   20.8830  -32.5780 C   0  0  0  0  0  0  0  0  0  0  0  0
   -5.6370   20.4340  -33.1020 C   0  0  0  0  0  0  0  0  0  0  0  0
   -5.6600   19.6980  -34.1280 O   0  0  0  0  0  0  0  0  0  0  0  0
   -6.8790   20.8070  -32.4680 N   0  0  0  0  0  0  0  0  0  0  0  0
   -8.0490   19.9250  -32.6170 C   0  0  0  0  0  0  0  0  0  0  0  0
   -9.0840   20.1940  -31.5180 C   0  0  0  0  0  0  0  0  0  0  0  0
   -9.5080   21.6760  -31.4560 C   0  0  0  0  0  0  0  0  0  0  0  0
   -8.4380   22.6530  -31.9800 C   0  0  0  0  0  0  0  0  0  0  0  0
   -7.0200   22.1040  -31.7900 C   0  0  0  0  0  0  0  0  0  0  0  0
   -4.2300   21.3980  -31.2750 C   0  0  0  0  0  0  0  0  0  0  0  0
   -3.2890   24.9240  -26.6290 C   0  0  0  0  0  0  0  0  0  0  0  0
   -2.5940   25.5870  -25.6120 C   0  0  0  0  0  0  0  0  0  0  0  0
   -0.9584   26.4807  -23.7899 H   0  0  0  0  0  0  0  0  0  0  0  0
    0.4940   26.5672  -24.8434 H   0  0  0  0  0  0  0  0  0  0  0  0
   -0.6969   27.9120  -24.8434 H   0  0  0  0  0  0  0  0  0  0  0  0
    0.2369   26.4269  -27.3394 H   0  0  0  0  0  0  0  0  0  0  0  0
   -1.0085   25.2552  -29.1545 H   0  0  0  0  0  0  0  0  0  0  0  0
   -3.9862   20.0998  -28.5777 H   0  0  0  0  0  0  0  0  0  0  0  0
   -3.1370   18.7267  -26.6739 H   0  0  0  0  0  0  0  0  0  0  0  0
   -1.1411   19.4787  -25.3757 H   0  0  0  0  0  0  0  0  0  0  0  0
    0.0418   21.5814  -26.0127 H   0  0  0  0  0  0  0  0  0  0  0  0
   -0.7833   22.9498  -27.9286 H   0  0  0  0  0  0  0  0  0  0  0  0
   -0.8991   22.1837  -31.2157 H   0  0  0  0  0  0  0  0  0  0  0  0
   -1.0588   21.2823  -33.5357 H   0  0  0  0  0  0  0  0  0  0  0  0
   -3.2512   20.4927  -34.4254 H   0  0  0  0  0  0  0  0  0  0  0  0
   -8.5119   20.1043  -33.5986 H   0  0  0  0  0  0  0  0  0  0  0  0
   -7.7133   18.8808  -32.5340 H   0  0  0  0  0  0  0  0  0  0  0  0
   -9.9752   19.5800  -31.7148 H   0  0  0  0  0  0  0  0  0  0  0  0
   -8.6215   19.9380  -30.5533 H   0  0  0  0  0  0  0  0  0  0  0  0
  -10.4180   21.8017  -32.0610 H   0  0  0  0  0  0  0  0  0  0  0  0
   -9.6699   21.9181  -30.3953 H   0  0  0  0  0  0  0  0  0  0  0  0
   -8.6108   22.8279  -33.0522 H   0  0  0  0  0  0  0  0  0  0  0  0
   -8.5208   23.5883  -31.4069 H   0  0  0  0  0  0  0  0  0  0  0  0
   -6.2958   22.8154  -32.2137 H   0  0  0  0  0  0  0  0  0  0  0  0
   -6.8304   21.9679  -30.7150 H   0  0  0  0  0  0  0  0  0  0  0  0
   -5.1227   21.4308  -30.6331 H   0  0  0  0  0  0  0  0  0  0  0  0
   -4.2806   24.4935  -26.4255 H   0  0  0  0  0  0  0  0  0  0  0  0
   -3.0380   25.6683  -24.6089 H   0  0  0  0  0  0  0  0  0  0  0  0
  1  2  1  0
  2  3  2  0
  3  4  1  0
  4  5  2  0
  5  6  1  0
  6  7  2  0
  6  8  2  0
  6  9  1  0
  9 10  1  0
 10 11  2  0
 11 12  1  0
 12 13  2  0
 13 14  1  0
 14 15  2  0
  9 16  1  0
 16 17  2  0
 17 18  1  0
 18 19  2  0
 19 20  1  0
 20 21  1  0
 21 22  2  0
 21 23  1  0
 23 24  1  0
 24 25  1  0
 25 26  1  0
 26 27  1  0
 27 28  1  0
 20 29  2  0
  5 30  1  0
 30 31  2  0
 31  2  1  0
 15 10  1  0
 29 16  1  0
 28 23  1  0
  1 32  1  0
  1 33  1  0
  1 34  1  0
  3 35  1  0
  4 36  1  0
 11 37  1  0
 12 38  1  0
 13 39  1  0
 14 40  1  0
 15 41  1  0
 17 42  1  0
 18 43  1  0
 19 44  1  0
 24 45  1  0
 24 46  1  0
 25 47  1  0
 25 48  1  0
 26 49  1  0
 26 50  1  0
 27 51  1  0
 27 52  1  0
 28 53  1  0
 28 54  1  0
 29 55  1  0
 30 56  1  0
 31 57  1  0
M  END
>  <UniqueID>  (10) 
10

>  <SMILES>  (10) 
Cc1ccc(S(=O)(=O)N(c2ccccc2)c2cccc(C(=O)N3CCCCC3)c2)cc1

>  <Energy>  (10) 
75.57333480969294

>  <Genealogy>  (10) 
Cc1ccc(S(=O)(=O)N(c2ccccc2)c2cccc(C(=O)N3CCCCC3)c2)cc1 (3D coordinates assigned)
Cc1ccc(S(=O)(=O)N(c2ccccc2)c2cccc(C(=O)N3CCCCC3)c2)cc1 (nonaromatic ring conformer: 75.57333480969294 kcal/mol)

>  <smiles>  (10) 
Cc1ccc(S(=O)(=O)N(c2ccccc2)c2cccc(C(=O)N3CCCCC3)c2)cc1

>  <score_type>  (10) 
oracle

>  <origin>  (10) 
adgpu

>  <m_score__min__energy>  (10) 
-10.67

>  <m_primary>  (10) 
energy

$$$$
10:0
     RDKit          3D

 51 53  0  0  0  0  0  0  0  0999 V2000
   -2.0730   19.9710  -27.4430 C   0  0  0  0  0  0  0  0  0  0  0  0
   -2.7940   21.0440  -28.2050 C   0  0  0  0  0  0  0  0  0  0  0  0
   -3.4920   22.0450  -27.5230 C   0  0  0  0  0  0  0  0  0  0  0  0
   -4.1270   23.0680  -28.2290 C   0  0  0  0  0  0  0  0  0  0  0  0
   -4.0650   23.1170  -29.6310 C   0  0  0  0  0  0  0  0  0  0  0  0
   -4.8800   24.4430  -30.4760 S   0  0  0  0  0  0  0  0  0  0  0  0
   -5.9300   25.0290  -29.5750 O   0  0  0  0  0  0  0  0  0  0  0  0
   -3.8860   25.5100  -30.8410 O   0  0  0  0  0  0  0  0  0  0  0  0
   -5.6070   23.8360  -31.9270 N   0  0  0  0  0  0  0  0  0  0  0  0
   -6.7320   22.9490  -31.9820 C   0  0  0  0  0  0  0  0  0  0  0  0
   -8.0570   23.4140  -31.8910 C   0  0  0  0  0  0  0  0  0  0  0  0
   -9.1220   22.5100  -31.9400 C   0  0  0  0  0  0  0  0  0  0  0  0
   -8.8790   21.1430  -32.0830 C   0  0  0  0  0  0  0  0  0  0  0  0
   -7.5630   20.6700  -32.1830 C   0  0  0  0  0  0  0  0  0  0  0  0
   -7.2360   18.9450  -32.3360 S   0  0  0  0  0  0  0  0  0  0  0  0
   -8.5430   18.2080  -32.2380 O   0  0  0  0  0  0  0  0  0  0  0  0
   -6.3550   18.4910  -31.2050 O   0  0  0  0  0  0  0  0  0  0  0  0
   -6.4850   18.5900  -33.8790 N   0  0  0  0  0  0  0  0  0  0  0  0
   -6.4110   17.1210  -34.1240 C   0  0  0  0  0  0  0  0  0  0  0  0
   -4.9770   16.5650  -34.2020 C   0  0  0  0  0  0  0  0  0  0  0  0
   -4.1040   17.1580  -33.0990 C   0  0  0  0  0  0  0  0  0  0  0  0
   -4.0750   18.6970  -33.1520 C   0  0  0  0  0  0  0  0  0  0  0  0
   -5.1900   19.2930  -34.0320 C   0  0  0  0  0  0  0  0  0  0  0  0
   -6.4950   21.5760  -32.1280 C   0  0  0  0  0  0  0  0  0  0  0  0
   -3.3600   22.1060  -30.3300 C   0  0  0  0  0  0  0  0  0  0  0  0
   -3.2350   22.1150  -31.8310 C   0  0  0  0  0  0  0  0  0  0  0  0
   -2.7150   21.0890  -29.6040 C   0  0  0  0  0  0  0  0  0  0  0  0
   -2.1905   20.1459  -26.3634 H   0  0  0  0  0  0  0  0  0  0  0  0
   -2.4954   18.9893  -27.7035 H   0  0  0  0  0  0  0  0  0  0  0  0
   -1.0045   19.9912  -27.7035 H   0  0  0  0  0  0  0  0  0  0  0  0
   -3.5410   22.0263  -26.4243 H   0  0  0  0  0  0  0  0  0  0  0  0
   -4.6819   23.8440  -27.6814 H   0  0  0  0  0  0  0  0  0  0  0  0
   -8.2549   24.4905  -31.7811 H   0  0  0  0  0  0  0  0  0  0  0  0
  -10.1561   22.8775  -31.8655 H   0  0  0  0  0  0  0  0  0  0  0  0
   -9.7210   20.4360  -32.1173 H   0  0  0  0  0  0  0  0  0  0  0  0
   -7.1290   18.9980  -34.5980 H   0  0  0  0  0  0  0  0  0  0  0  0
   -6.9358   16.6078  -33.3047 H   0  0  0  0  0  0  0  0  0  0  0  0
   -6.8735   16.9408  -35.1056 H   0  0  0  0  0  0  0  0  0  0  0  0
   -5.0078   15.4713  -34.0885 H   0  0  0  0  0  0  0  0  0  0  0  0
   -4.5462   16.8373  -35.1768 H   0  0  0  0  0  0  0  0  0  0  0  0
   -4.5022   16.8436  -32.1230 H   0  0  0  0  0  0  0  0  0  0  0  0
   -3.0766   16.7932  -33.2453 H   0  0  0  0  0  0  0  0  0  0  0  0
   -4.1915   19.0847  -32.1292 H   0  0  0  0  0  0  0  0  0  0  0  0
   -3.1133   18.9915  -33.5973 H   0  0  0  0  0  0  0  0  0  0  0  0
   -5.3290   20.3484  -33.7549 H   0  0  0  0  0  0  0  0  0  0  0  0
   -4.8768   19.1821  -35.0806 H   0  0  0  0  0  0  0  0  0  0  0  0
   -5.4617   21.2057  -32.2001 H   0  0  0  0  0  0  0  0  0  0  0  0
   -2.1737   22.1914  -32.1101 H   0  0  0  0  0  0  0  0  0  0  0  0
   -3.6555   21.1843  -32.2395 H   0  0  0  0  0  0  0  0  0  0  0  0
   -3.7845   22.9759  -32.2395 H   0  0  0  0  0  0  0  0  0  0  0  0
   -2.1412   20.3190  -30.1406 H   0  0  0  0  0  0  0  0  0  0  0  0
  1  2  1  0
  2  3  2  0
  3  4  1  0
  4  5  2  0
  5  6  1  0
  6  7  2  0
  6  8  2  0
  6  9  1  0
  9 10  1  0
 10 11  2  0
 11 12  1  0
 12 13  2  0
 13 14  1  0
 14 15  1  0
 15 16  2  0
 15 17  2  0
 15 18  1  0
 18 19  1  0
 19 20  1  0
 20 21  1  0
 21 22  1  0
 22 23  1  0
 14 24  2  0
  5 25  1  0
 25 26  1  0
 25 27  2  0
 27  2  1  0
 24 10  1  0
 23 18  1  0
  1 28  1  0
  1 29  1  0
  1 30  1  0
  3 31  1  0
  4 32  1  0
 11 33  1  0
 12 34  1  0
 13 35  1  0
 18 36  1  0
 19 37  1  0
 19 38  1  0
 20 39  1  0
 20 40  1  0
 21 41  1  0
 21 42  1  0
 22 43  1  0
 22 44  1  0
 23 45  1  0
 23 46  1  0
 24 47  1  0
 26 48  1  0
 26 49  1  0
 26 50  1  0
 27 51  1  0
M  CHG  2   9  -1  18   1
M  END
>  <UniqueID>  (11) 
11

>  <SMILES>  (11) 
Cc1ccc(S(=O)(=O)[N-]c2cccc(S(=O)(=O)[NH+]3CCCCC3)c2)c(C)c1

>  <Energy>  (11) 
63.2534098923

>  <Genealogy>  (11) 
Cc1ccc(S(=O)(=O)[N-]c2cccc(S(=O)(=O)[NH+]3CCCCC3)c2)c(C)c1 (protonated)
Cc1ccc(S(=O)(=O)[N-]c2cccc(S(=O)(=O)[NH+]3CCCCC3)c2)c(C)c1 (3D coordinates assigned)
Cc1ccc(S(=O)(=O)[N-]c2cccc(S(=O)(=O)[NH+]3CCCCC3)c2)c(C)c1 (nonaromatic ring conformer: 63.2534098923 kcal/mol)

>  <smiles>  (11) 
Cc1ccc(S(=O)(=O)Nc2cccc(S(=O)(=O)N3CCCCC3)c2)c(C)c1

>  <score_type>  (11) 
oracle

>  <origin>  (11) 
adgpu

>  <m_score__min__energy>  (11) 
-10.869999999999999

>  <m_primary>  (11) 
energy

$$$$
11:0
     RDKit          3D

 42 44  0  0  0  0  0  0  0  0999 V2000
   -0.7320   20.7860  -32.0670 C   0  0  0  0  0  0  0  0  0  0  0  0
   -1.6360   20.8610  -33.1620 O   0  0  0  0  0  0  0  0  0  0  0  0
   -2.9900   20.4880  -33.1100 C   0  0  0  0  0  0  0  0  0  0  0  0
   -3.4890   19.3970  -33.8480 C   0  0  0  0  0  0  0  0  0  0  0  0
   -4.8270   19.0140  -33.7250 C   0  0  0  0  0  0  0  0  0  0  0  0
   -5.6780   19.7100  -32.8650 C   0  0  0  0  0  0  0  0  0  0  0  0
   -5.1970   20.7990  -32.1350 C   0  0  0  0  0  0  0  0  0  0  0  0
   -3.8650   21.2080  -32.2680 C   0  0  0  0  0  0  0  0  0  0  0  0
   -3.4230   22.3010  -31.5130 O   0  0  0  0  0  0  0  0  0  0  0  0
   -3.3310   22.2960  -30.1170 C   0  0  0  0  0  0  0  0  0  0  0  0
   -2.8140   21.2180  -29.4700 N   0  0  0  0  0  0  0  0  0  0  0  0
   -2.7010   21.1960  -28.1200 C   0  0  0  0  0  0  0  0  0  0  0  0
   -2.0520   19.7820  -27.3200 Cl  0  0  0  0  0  0  0  0  0  0  0  0
   -3.0920   22.2700  -27.3890 N   0  0  0  0  0  0  0  0  0  0  0  0
   -3.6050   23.3810  -27.9810 C   0  0  0  0  0  0  0  0  0  0  0  0
   -4.0230   24.5250  -27.1050 C   0  0  0  0  0  0  0  0  0  0  0  0
   -3.7650   23.4090  -29.3810 C   0  0  0  0  0  0  0  0  0  0  0  0
   -4.5410   24.8000  -30.2310 S   0  0  0  0  0  0  0  0  0  0  0  0
   -6.0050   23.8570  -30.6730 C   0  0  0  0  0  0  0  0  0  0  0  0
   -6.6560   23.0680  -29.7170 C   0  0  0  0  0  0  0  0  0  0  0  0
   -7.7670   22.2990  -30.0790 C   0  0  0  0  0  0  0  0  0  0  0  0
   -8.2370   22.3150  -31.4010 C   0  0  0  0  0  0  0  0  0  0  0  0
   -9.4410   21.5060  -31.7830 C   0  0  0  0  0  0  0  0  0  0  0  0
   -7.6160   23.1460  -32.3430 C   0  0  0  0  0  0  0  0  0  0  0  0
   -6.5060   23.9150  -31.9800 C   0  0  0  0  0  0  0  0  0  0  0  0
   -1.2948   20.8327  -31.1230 H   0  0  0  0  0  0  0  0  0  0  0  0
   -0.1752   19.8386  -32.1154 H   0  0  0  0  0  0  0  0  0  0  0  0
   -0.0267   21.6287  -32.1154 H   0  0  0  0  0  0  0  0  0  0  0  0
   -2.8216   18.8435  -34.5249 H   0  0  0  0  0  0  0  0  0  0  0  0
   -5.2103   18.1627  -34.3067 H   0  0  0  0  0  0  0  0  0  0  0  0
   -6.7285   19.4004  -32.7622 H   0  0  0  0  0  0  0  0  0  0  0  0
   -5.8689   21.3386  -31.4514 H   0  0  0  0  0  0  0  0  0  0  0  0
   -3.9173   24.2358  -26.0490 H   0  0  0  0  0  0  0  0  0  0  0  0
   -3.3855   25.3972  -27.3119 H   0  0  0  0  0  0  0  0  0  0  0  0
   -5.0727   24.7807  -27.3119 H   0  0  0  0  0  0  0  0  0  0  0  0
   -6.2929   23.0528  -28.6788 H   0  0  0  0  0  0  0  0  0  0  0  0
   -8.2740   21.6795  -29.3246 H   0  0  0  0  0  0  0  0  0  0  0  0
   -9.9545   21.1609  -30.8735 H   0  0  0  0  0  0  0  0  0  0  0  0
  -10.1266   22.1274  -32.3778 H   0  0  0  0  0  0  0  0  0  0  0  0
   -9.1248   20.6364  -32.3778 H   0  0  0  0  0  0  0  0  0  0  0  0
   -8.0030   23.1935  -33.3716 H   0  0  0  0  0  0  0  0  0  0  0  0
   -6.0246   24.5677  -32.7231 H   0  0  0  0  0  0  0  0  0  0  0  0
  1  2  1  0
  2  3  1  0
  3  4  2  0
  4  5  1  0
  5  6  2  0
  6  7  1  0
  7  8  2  0
  8  9  1  0
  9 10  1  0
 10 11  2  0
 11 12  1  0
 12 13  1  0
 12 14  2  0
 14 15  1  0
 15 16  1  0
 15 17  2  0
 17 18  1  0
 18 19  1  0
 19 20  2  0
 20 21  1  0
 21 22  2  0
 22 23  1  0
 22 24  1  0
 24 25  2  0
  8  3  1  0
 17 10  1  0
 25 19  1  0
  1 26  1  0
  1 27  1  0
  1 28  1  0
  4 29  1  0
  5 30  1  0
  6 31  1  0
  7 32  1  0
 16 33  1  0
 16 34  1  0
 16 35  1  0
 20 36  1  0
 21 37  1  0
 23 38  1  0
 23 39  1  0
 23 40  1  0
 24 41  1  0
 25 42  1  0
M  END
>  <UniqueID>  (12) 
12

>  <SMILES>  (12) 
COc1ccccc1Oc1nc(Cl)nc(C)c1Sc1ccc(C)cc1

>  <Energy>  (12) 
43.63761336771735

>  <Genealogy>  (12) 
COc1ccccc1Oc1nc(Cl)nc(C)c1Sc1ccc(C)cc1 (3D coordinates assigned)
COc1ccccc1Oc1nc(Cl)nc(C)c1Sc1ccc(C)cc1 (optimized conformer: 43.63761336771735 kcal/mol)

>  <smiles>  (12) 
COc1ccccc1Oc1nc(Cl)nc(C)c1Sc1ccc(C)cc1

>  <score_type>  (12) 
oracle

>  <origin>  (12) 
adgpu

>  <m_score__min__energy>  (12) 
-8.3000000000000007

>  <m_primary>  (12) 
energy

$$$$
12:0
     RDKit          3D

 43 45  0  0  0  0  0  0  0  0999 V2000
   -2.7600   20.3970  -27.4950 C   0  0  0  0  0  0  0  0  0  0  0  0
   -2.4990   21.8040  -27.9440 C   0  0  0  0  0  0  0  0  0  0  0  0
   -1.3000   22.4430  -27.6010 C   0  0  0  0  0  0  0  0  0  0  0  0
   -1.0370   23.7370  -28.0530 C   0  0  0  0  0  0  0  0  0  0  0  0
   -1.9650   24.4050  -28.8590 C   0  0  0  0  0  0  0  0  0  0  0  0
   -1.6560   25.6770  -29.3300 O   0  0  0  0  0  0  0  0  0  0  0  0
   -3.1800   23.7790  -29.2040 C   0  0  0  0  0  0  0  0  0  0  0  0
   -4.1950   24.4670  -30.0370 C   0  0  0  0  0  0  0  0  0  0  0  0
   -3.8220   25.3370  -30.8670 O   0  0  0  0  0  0  0  0  0  0  0  0
   -5.5980   24.1940  -29.9100 N   0  0  0  0  0  0  0  0  0  0  0  0
   -6.2810   23.0400  -30.4210 C   0  0  0  0  0  0  0  0  0  0  0  0
   -7.6410   22.8070  -30.1490 C   0  0  0  0  0  0  0  0  0  0  0  0
   -8.2810   21.6810  -30.6740 C   0  0  0  0  0  0  0  0  0  0  0  0
   -7.5700   20.7710  -31.4700 C   0  0  0  0  0  0  0  0  0  0  0  0
   -8.3860   19.3600  -32.1530 S   0  0  0  0  0  0  0  0  0  0  0  0
   -9.0700   18.6060  -31.0470 O   0  0  0  0  0  0  0  0  0  0  0  0
   -9.4380   19.8240  -33.1200 O   0  0  0  0  0  0  0  0  0  0  0  0
   -7.2870   18.2820  -32.9820 N   0  0  0  0  0  0  0  0  0  0  0  0
   -6.3650   17.6220  -32.0600 C   0  0  0  0  0  0  0  0  0  0  0  0
   -5.1330   17.2580  -32.8740 C   0  0  0  0  0  0  0  0  0  0  0  0
   -5.1830   18.1520  -34.1030 C   0  0  0  0  0  0  0  0  0  0  0  0
   -6.4430   18.9880  -33.9420 C   0  0  0  0  0  0  0  0  0  0  0  0
   -6.2040   20.9810  -31.7020 C   0  0  0  0  0  0  0  0  0  0  0  0
   -5.5640   22.1070  -31.1770 C   0  0  0  0  0  0  0  0  0  0  0  0
   -3.4260   22.4680  -28.7630 C   0  0  0  0  0  0  0  0  0  0  0  0
   -2.7672   20.3583  -26.3957 H   0  0  0  0  0  0  0  0  0  0  0  0
   -3.7352   20.0642  -27.8800 H   0  0  0  0  0  0  0  0  0  0  0  0
   -1.9690   19.7366  -27.8800 H   0  0  0  0  0  0  0  0  0  0  0  0
   -0.5626   21.9223  -26.9725 H   0  0  0  0  0  0  0  0  0  0  0  0
   -0.0960   24.2338  -27.7743 H   0  0  0  0  0  0  0  0  0  0  0  0
   -8.2031   23.5136  -29.5207 H   0  0  0  0  0  0  0  0  0  0  0  0
   -9.3464   21.5077  -30.4621 H   0  0  0  0  0  0  0  0  0  0  0  0
   -6.0924   18.3040  -31.2411 H   0  0  0  0  0  0  0  0  0  0  0  0
   -6.8228   16.7298  -31.6079 H   0  0  0  0  0  0  0  0  0  0  0  0
   -4.2180   17.4509  -32.2946 H   0  0  0  0  0  0  0  0  0  0  0  0
   -5.1211   16.1917  -33.1438 H   0  0  0  0  0  0  0  0  0  0  0  0
   -4.2944   18.7990  -34.1449 H   0  0  0  0  0  0  0  0  0  0  0  0
   -5.1959   17.5671  -35.0345 H   0  0  0  0  0  0  0  0  0  0  0  0
   -6.1895   19.9886  -33.5618 H   0  0  0  0  0  0  0  0  0  0  0  0
   -6.9590   19.1206  -34.9044 H   0  0  0  0  0  0  0  0  0  0  0  0
   -5.6327   20.2560  -32.3003 H   0  0  0  0  0  0  0  0  0  0  0  0
   -4.4901   22.2604  -31.3594 H   0  0  0  0  0  0  0  0  0  0  0  0
   -4.3532   21.9572  -29.0621 H   0  0  0  0  0  0  0  0  0  0  0  0
  1  2  1  0
  2  3  2  0
  3  4  1  0
  4  5  2  0
  5  6  1  0
  5  7  1  0
  7  8  1  0
  8  9  2  0
  8 10  1  0
 10 11  1  0
 11 12  2  0
 12 13  1  0
 13 14  2  0
 14 15  1  0
 15 16  2  0
 15 17  2  0
 15 18  1  0
 18 19  1  0
 19 20  1  0
 20 21  1  0
 21 22  1  0
 14 23  1  0
 23 24  2  0
  7 25  2  0
 25  2  1  0
 24 11  1  0
 22 18  1  0
  1 26  1  0
  1 27  1  0
  1 28  1  0
  3 29  1  0
  4 30  1  0
 12 31  1  0
 13 32  1  0
 19 33  1  0
 19 34  1  0
 20 35  1  0
 20 36  1  0
 21 37  1  0
 21 38  1  0
 22 39  1  0
 22 40  1  0
 23 41  1  0
 24 42  1  0
 25 43  1  0
M  CHG  2   6  -1  10  -1
M  END
>  <UniqueID>  (13) 
13

>  <SMILES>  (13) 
Cc1ccc([O-])c(C(=O)[N-]c2ccc(S(=O)(=O)N3CCCC3)cc2)c1

>  <Energy>  (13) 
52.670653030923134

>  <Genealogy>  (13) 
Cc1ccc([O-])c(C(=O)[N-]c2ccc(S(=O)(=O)N3CCCC3)cc2)c1 (protonated)
Cc1ccc([O-])c(C(=O)[N-]c2ccc(S(=O)(=O)N3CCCC3)cc2)c1 (3D coordinates assigned)
Cc1ccc([O-])c(C(=O)[N-]c2ccc(S(=O)(=O)N3CCCC3)cc2)c1 (nonaromatic ring conformer: 52.670653030923134 kcal/mol)

>  <smiles>  (13) 
Cc1ccc(O)c(C(=O)Nc2ccc(S(=O)(=O)N3CCCC3)cc2)c1

>  <score_type>  (13) 
oracle

>  <origin>  (13) 
adgpu

>  <m_score__min__energy>  (13) 
-13.43

>  <m_primary>  (13) 
energy

$$$$
13:0
     RDKit          3D

 57 60  0  0  0  0  0  0  0  0999 V2000
   -4.2450   24.7570  -30.7230 O   0  0  0  0  0  0  0  0  0  0  0  0
   -4.1850   23.5750  -30.2860 C   0  0  0  0  0  0  0  0  0  0  0  0
   -3.1850   23.2260  -29.3140 N   0  0  0  0  0  0  0  0  0  0  0  0
   -2.5300   24.1820  -28.4640 C   0  0  0  0  0  0  0  0  0  0  0  0
   -1.4340   24.9370  -28.9190 C   0  0  0  0  0  0  0  0  0  0  0  0
   -0.8250   25.8750  -28.0780 C   0  0  0  0  0  0  0  0  0  0  0  0
   -1.3120   26.0830  -26.7820 C   0  0  0  0  0  0  0  0  0  0  0  0
   -0.5170   27.2460  -25.7250 S   0  0  0  0  0  0  0  0  0  0  0  0
   -0.3630   28.5460  -26.4640 O   0  0  0  0  0  0  0  0  0  0  0  0
   -1.3570   27.4860  -24.5000 O   0  0  0  0  0  0  0  0  0  0  0  0
    1.0570   26.6460  -25.2600 N   0  0  0  0  0  0  0  0  0  0  0  0
    1.9290   26.5490  -26.4470 C   0  0  0  0  0  0  0  0  0  0  0  0
    3.0950   25.5810  -26.1860 C   0  0  0  0  0  0  0  0  0  0  0  0
    2.6910   24.2540  -25.8680 O   0  0  0  0  0  0  0  0  0  0  0  0
    1.3610   24.1600  -25.3810 C   0  0  0  0  0  0  0  0  0  0  0  0
    0.9440   25.3680  -24.5210 C   0  0  0  0  0  0  0  0  0  0  0  0
   -2.4140   25.3440  -26.3300 C   0  0  0  0  0  0  0  0  0  0  0  0
   -3.0240   24.4060  -27.1700 C   0  0  0  0  0  0  0  0  0  0  0  0
   -5.1140   22.5520  -30.8240 C   0  0  0  0  0  0  0  0  0  0  0  0
   -6.4800   22.8390  -31.0060 C   0  0  0  0  0  0  0  0  0  0  0  0
   -7.3470   21.8690  -31.5170 C   0  0  0  0  0  0  0  0  0  0  0  0
   -6.8660   20.5960  -31.8520 C   0  0  0  0  0  0  0  0  0  0  0  0
   -7.9640   19.3730  -32.5030 S   0  0  0  0  0  0  0  0  0  0  0  0
   -8.9800   20.0450  -33.3840 O   0  0  0  0  0  0  0  0  0  0  0  0
   -8.6970   18.7180  -31.3660 O   0  0  0  0  0  0  0  0  0  0  0  0
   -7.1370   18.1420  -33.4290 N   0  0  0  0  0  0  0  0  0  0  0  0
   -6.1070   18.7080  -34.2990 C   0  0  0  0  0  0  0  0  0  0  0  0
   -5.0870   17.6030  -34.5310 C   0  0  0  0  0  0  0  0  0  0  0  0
   -5.3160   16.5990  -33.4110 C   0  0  0  0  0  0  0  0  0  0  0  0
   -6.4410   17.1850  -32.5720 C   0  0  0  0  0  0  0  0  0  0  0  0
   -5.5050   20.3110  -31.6940 C   0  0  0  0  0  0  0  0  0  0  0  0
   -4.6350   21.2800  -31.1840 C   0  0  0  0  0  0  0  0  0  0  0  0
   -2.8320   22.2420  -29.3060 H   0  0  0  0  0  0  0  0  0  0  0  0
   -1.0539   24.7894  -29.9406 H   0  0  0  0  0  0  0  0  0  0  0  0
    0.0403   26.4516  -28.4368 H   0  0  0  0  0  0  0  0  0  0  0  0
    1.3389   26.1822  -27.2998 H   0  0  0  0  0  0  0  0  0  0  0  0
    2.3388   27.5457  -26.6677 H   0  0  0  0  0  0  0  0  0  0  0  0
    3.7214   25.5438  -27.0894 H   0  0  0  0  0  0  0  0  0  0  0  0
    3.6353   25.9660  -25.3086 H   0  0  0  0  0  0  0  0  0  0  0  0
    0.6779   24.0900  -26.2404 H   0  0  0  0  0  0  0  0  0  0  0  0
    1.3097   23.2680  -24.7393 H   0  0  0  0  0  0  0  0  0  0  0  0
   -0.1006   25.2333  -24.2038 H   0  0  0  0  0  0  0  0  0  0  0  0
    1.6218   25.4169  -23.6560 H   0  0  0  0  0  0  0  0  0  0  0  0
   -2.8002   25.5019  -25.3122 H   0  0  0  0  0  0  0  0  0  0  0  0
   -3.8972   23.8400  -26.8133 H   0  0  0  0  0  0  0  0  0  0  0  0
   -6.8682   23.8343  -30.7441 H   0  0  0  0  0  0  0  0  0  0  0  0
   -8.4120   22.1059  -31.6569 H   0  0  0  0  0  0  0  0  0  0  0  0
   -6.5487   19.0251  -35.2552 H   0  0  0  0  0  0  0  0  0  0  0  0
   -5.6400   19.5926  -33.8414 H   0  0  0  0  0  0  0  0  0  0  0  0
   -5.2485   17.1298  -35.5108 H   0  0  0  0  0  0  0  0  0  0  0  0
   -4.0574   17.9901  -34.5287 H   0  0  0  0  0  0  0  0  0  0  0  0
   -5.6107   15.6225  -33.8229 H   0  0  0  0  0  0  0  0  0  0  0  0
   -4.4053   16.4316  -32.8171 H   0  0  0  0  0  0  0  0  0  0  0  0
   -7.1302   16.3901  -32.2508 H   0  0  0  0  0  0  0  0  0  0  0  0
   -6.0517   17.6705  -31.6649 H   0  0  0  0  0  0  0  0  0  0  0  0
   -5.1176   19.3198  -31.9723 H   0  0  0  0  0  0  0  0  0  0  0  0
   -3.5672   21.0451  -31.0635 H   0  0  0  0  0  0  0  0  0  0  0  0
  1  2  2  0
  2  3  1  0
  3  4  1  0
  4  5  2  0
  5  6  1  0
  6  7  2  0
  7  8  1  0
  8  9  2  0
  8 10  2  0
  8 11  1  0
 11 12  1  0
 12 13  1  0
 13 14  1  0
 14 15  1  0
 15 16  1  0
  7 17  1  0
 17 18  2  0
  2 19  1  0
 19 20  2  0
 20 21  1  0
 21 22  2  0
 22 23  1  0
 23 24  2  0
 23 25  2  0
 23 26  1  0
 26 27  1  0
 27 28  1  0
 28 29  1  0
 29 30  1  0
 22 31  1  0
 31 32  2  0
 18  4  1  0
 32 19  1  0
 16 11  1  0
 30 26  1  0
  3 33  1  0
  5 34  1  0
  6 35  1  0
 12 36  1  0
 12 37  1  0
 13 38  1  0
 13 39  1  0
 15 40  1  0
 15 41  1  0
 16 42  1  0
 16 43  1  0
 17 44  1  0
 18 45  1  0
 20 46  1  0
 21 47  1  0
 27 48  1  0
 27 49  1  0
 28 50  1  0
 28 51  1  0
 29 52  1  0
 29 53  1  0
 30 54  1  0
 30 55  1  0
 31 56  1  0
 32 57  1  0
M  END
>  <UniqueID>  (14) 
14

>  <SMILES>  (14) 
O=C(Nc1ccc(S(=O)(=O)N2CCOCC2)cc1)c1ccc(S(=O)(=O)N2CCCC2)cc1

>  <Energy>  (14) 
77.90373879921219

>  <Genealogy>  (14) 
O=C(Nc1ccc(S(=O)(=O)N2CCOCC2)cc1)c1ccc(S(=O)(=O)N2CCCC2)cc1 (3D coordinates assigned)
O=C(Nc1ccc(S(=O)(=O)N2CCOCC2)cc1)c1ccc(S(=O)(=O)N2CCCC2)cc1 (nonaromatic ring conformer: 77.90373879921219 kcal/mol)

>  <smiles>  (14) 
O=C(Nc1ccc(S(=O)(=O)N2CCOCC2)cc1)c1ccc(S(=O)(=O)N2CCCC2)cc1

>  <score_type>  (14) 
oracle

>  <origin>  (14) 
adgpu

>  <m_score__min__energy>  (14) 
-10.06

>  <m_primary>  (14) 
energy

$$$$
14:0
     RDKit          3D

 35 36  0  0  0  0  0  0  0  0999 V2000
   -1.5790   25.8250  -28.9680 N   0  0  0  0  0  0  0  0  0  0  0  0
   -2.4850   24.5560  -28.2230 S   0  0  0  0  0  0  0  0  0  0  0  0
   -2.8890   24.9710  -26.8370 O   0  0  0  0  0  0  0  0  0  0  0  0
   -1.6340   23.3200  -28.1280 O   0  0  0  0  0  0  0  0  0  0  0  0
   -3.9190   24.2200  -29.1870 C   0  0  0  0  0  0  0  0  0  0  0  0
   -4.3360   25.1280  -30.1690 C   0  0  0  0  0  0  0  0  0  0  0  0
   -5.4840   24.8690  -30.9240 C   0  0  0  0  0  0  0  0  0  0  0  0
   -6.2280   23.7000  -30.7030 C   0  0  0  0  0  0  0  0  0  0  0  0
   -7.4910   23.4350  -31.4780 C   0  0  0  0  0  0  0  0  0  0  0  0
   -7.2140   22.5590  -32.6170 N   0  0  0  0  0  0  0  0  0  0  0  0
   -7.1990   21.1190  -32.5300 C   0  0  0  0  0  0  0  0  0  0  0  0
   -8.4060   20.4030  -32.4160 C   0  0  0  0  0  0  0  0  0  0  0  0
   -8.4040   19.0090  -32.3450 C   0  0  0  0  0  0  0  0  0  0  0  0
   -7.2000   18.3080  -32.3930 C   0  0  0  0  0  0  0  0  0  0  0  0
   -5.9950   18.9990  -32.5130 C   0  0  0  0  0  0  0  0  0  0  0  0
   -5.9760   20.4020  -32.5800 C   0  0  0  0  0  0  0  0  0  0  0  0
   -4.4180   21.2330  -32.6860 S   0  0  0  0  0  0  0  0  0  0  0  0
   -3.4280   20.4640  -33.8750 N   0  0  0  0  0  0  0  0  0  0  0  0
   -3.7340   21.1940  -31.3490 O   0  0  0  0  0  0  0  0  0  0  0  0
   -4.6190   22.6680  -33.0880 O   0  0  0  0  0  0  0  0  0  0  0  0
   -5.8120   22.7970  -29.7120 C   0  0  0  0  0  0  0  0  0  0  0  0
   -4.6650   23.0570  -28.9590 C   0  0  0  0  0  0  0  0  0  0  0  0
   -1.6100   25.6570  -29.9980 H   0  0  0  0  0  0  0  0  0  0  0  0
   -3.7586   26.0473  -30.3466 H   0  0  0  0  0  0  0  0  0  0  0  0
   -5.8054   25.5850  -31.6948 H   0  0  0  0  0  0  0  0  0  0  0  0
   -8.2265   22.9511  -30.8186 H   0  0  0  0  0  0  0  0  0  0  0  0
   -7.8894   24.3904  -31.8502 H   0  0  0  0  0  0  0  0  0  0  0  0
   -6.9450   23.0210  -33.5120 H   0  0  0  0  0  0  0  0  0  0  0  0
   -9.3609   20.9481  -32.3825 H   0  0  0  0  0  0  0  0  0  0  0  0
   -9.3541   18.4626  -32.2510 H   0  0  0  0  0  0  0  0  0  0  0  0
   -7.2006   17.2095  -32.3362 H   0  0  0  0  0  0  0  0  0  0  0  0
   -5.0489   18.4395  -32.5557 H   0  0  0  0  0  0  0  0  0  0  0  0
   -3.1640   21.1940  -34.5730 H   0  0  0  0  0  0  0  0  0  0  0  0
   -6.3920   21.8807  -29.5278 H   0  0  0  0  0  0  0  0  0  0  0  0
   -4.3461   22.3451  -28.1834 H   0  0  0  0  0  0  0  0  0  0  0  0
  1  2  1  0
  2  3  2  0
  2  4  2  0
  2  5  1  0
  5  6  2  0
  6  7  1  0
  7  8  2  0
  8  9  1  0
  9 10  1  0
 10 11  1  0
 11 12  2  0
 12 13  1  0
 13 14  2  0
 14 15  1  0
 15 16  2  0
 16 17  1  0
 17 18  1  0
 17 19  2  0
 17 20  2  0
  8 21  1  0
 21 22  2  0
 22  5  1  0
 16 11  1  0
  1 23  1  0
  6 24  1  0
  7 25  1  0
  9 26  1  0
  9 27  1  0
 10 28  1  0
 12 29  1  0
 13 30  1  0
 14 31  1  0
 15 32  1  0
 18 33  1  0
 21 34  1  0
 22 35  1  0
M  CHG  2   1  -1  18  -1
M  END
>  <UniqueID>  (15) 
15

>  <SMILES>  (15) 
[NH-]S(=O)(=O)c1ccc(CNc2ccccc2S([NH-])(=O)=O)cc1

>  <Energy>  (15) 
36.43355880087707

>  <Genealogy>  (15) 
[NH-]S(=O)(=O)c1ccc(CNc2ccccc2S([NH-])(=O)=O)cc1 (protonated)
[NH-]S(=O)(=O)c1ccc(CNc2ccccc2S([NH-])(=O)=O)cc1 (3D coordinates assigned)
[NH-]S(=O)(=O)c1ccc(CNc2ccccc2S([NH-])(=O)=O)cc1 (optimized conformer: 36.43355880087707 kcal/mol)

>  <smiles>  (15) 
NS(=O)(=O)c1ccc(CNc2ccccc2S(N)(=O)=O)cc1

>  <score_type>  (15) 
oracle

>  <origin>  (15) 
adgpu

>  <m_score__min__energy>  (15) 
-10.57

>  <m_primary>  (15) 
energy

$$$$
15:0
     RDKit          3D

 50 52  0  0  0  0  0  0  0  0999 V2000
   -6.1450   25.6400  -29.9000 C   0  0  0  0  0  0  0  0  0  0  0  0
   -4.9080   24.9660  -30.4050 C   0  0  0  0  0  0  0  0  0  0  0  0
   -3.9610   25.6710  -30.8420 O   0  0  0  0  0  0  0  0  0  0  0  0
   -4.7820   23.5340  -30.4300 N   0  0  0  0  0  0  0  0  0  0  0  0
   -3.8460   22.7690  -31.2070 C   0  0  0  0  0  0  0  0  0  0  0  0
   -2.5980   22.4560  -30.6460 C   0  0  0  0  0  0  0  0  0  0  0  0
   -1.6690   21.6950  -31.3640 C   0  0  0  0  0  0  0  0  0  0  0  0
   -1.9820   21.2300  -32.6550 C   0  0  0  0  0  0  0  0  0  0  0  0
   -0.7840   20.3430  -33.5980 S   0  0  0  0  0  0  0  0  0  0  0  0
   -0.9970   20.5720  -35.0750 O   0  0  0  0  0  0  0  0  0  0  0  0
    0.5850   20.8580  -33.2260 O   0  0  0  0  0  0  0  0  0  0  0  0
   -0.8460   18.6360  -33.2840 N   0  0  0  0  0  0  0  0  0  0  0  0
   -1.9640   17.7850  -33.5710 C   0  0  0  0  0  0  0  0  0  0  0  0
   -1.7590   16.4010  -33.6300 C   0  0  0  0  0  0  0  0  0  0  0  0
   -2.8190   15.5400  -33.9290 C   0  0  0  0  0  0  0  0  0  0  0  0
   -4.1040   16.0500  -34.1180 C   0  0  0  0  0  0  0  0  0  0  0  0
   -4.3390   17.4290  -33.9910 C   0  0  0  0  0  0  0  0  0  0  0  0
   -5.9810   18.0720  -34.0950 S   0  0  0  0  0  0  0  0  0  0  0  0
   -6.9680   16.9350  -34.2010 O   0  0  0  0  0  0  0  0  0  0  0  0
   -6.1060   18.9110  -35.3420 O   0  0  0  0  0  0  0  0  0  0  0  0
   -6.3690   19.0680  -32.7100 N   0  0  0  0  0  0  0  0  0  0  0  0
   -6.8100   20.4150  -33.1420 C   0  0  0  0  0  0  0  0  0  0  0  0
   -7.5710   21.1420  -32.0260 C   0  0  0  0  0  0  0  0  0  0  0  0
   -8.8480   20.3810  -31.6400 C   0  0  0  0  0  0  0  0  0  0  0  0
   -8.7450   18.8660  -31.9040 C   0  0  0  0  0  0  0  0  0  0  0  0
   -7.2940   18.3740  -31.7800 C   0  0  0  0  0  0  0  0  0  0  0  0
   -3.2650   18.2950  -33.7400 C   0  0  0  0  0  0  0  0  0  0  0  0
   -3.2440   21.5100  -33.2080 C   0  0  0  0  0  0  0  0  0  0  0  0
   -4.1750   22.2680  -32.4850 C   0  0  0  0  0  0  0  0  0  0  0  0
   -6.1408   25.6377  -28.8000 H   0  0  0  0  0  0  0  0  0  0  0  0
   -6.1720   26.6775  -30.2644 H   0  0  0  0  0  0  0  0  0  0  0  0
   -7.0315   25.1002  -30.2644 H   0  0  0  0  0  0  0  0  0  0  0  0
   -2.3487   22.8113  -29.6353 H   0  0  0  0  0  0  0  0  0  0  0  0
   -0.6913   21.4595  -30.9183 H   0  0  0  0  0  0  0  0  0  0  0  0
   -0.7572   15.9885  -33.4398 H   0  0  0  0  0  0  0  0  0  0  0  0
   -2.6397   14.4582  -34.0155 H   0  0  0  0  0  0  0  0  0  0  0  0
   -4.9335   15.3717  -34.3666 H   0  0  0  0  0  0  0  0  0  0  0  0
   -5.9263   21.0091  -33.4177 H   0  0  0  0  0  0  0  0  0  0  0  0
   -7.4866   20.2976  -34.0014 H   0  0  0  0  0  0  0  0  0  0  0  0
   -6.9209   21.2240  -31.1425 H   0  0  0  0  0  0  0  0  0  0  0  0
   -7.8561   22.1399  -32.3907 H   0  0  0  0  0  0  0  0  0  0  0  0
   -9.0403   20.5385  -30.5685 H   0  0  0  0  0  0  0  0  0  0  0  0
   -9.6661   20.7704  -32.2637 H   0  0  0  0  0  0  0  0  0  0  0  0
   -9.3682   18.3317  -31.1718 H   0  0  0  0  0  0  0  0  0  0  0  0
   -9.0919   18.6682  -32.9289 H   0  0  0  0  0  0  0  0  0  0  0  0
   -6.9512   18.5473  -30.7492 H   0  0  0  0  0  0  0  0  0  0  0  0
   -7.2838   17.3052  -32.0397 H   0  0  0  0  0  0  0  0  0  0  0  0
   -3.4402   19.3790  -33.6748 H   0  0  0  0  0  0  0  0  0  0  0  0
   -3.5009   21.1337  -34.2092 H   0  0  0  0  0  0  0  0  0  0  0  0
   -5.1663   22.4734  -32.9152 H   0  0  0  0  0  0  0  0  0  0  0  0
  1  2  1  0
  2  3  2  0
  2  4  1  0
  4  5  1  0
  5  6  2  0
  6  7  1  0
  7  8  2  0
  8  9  1  0
  9 10  2  0
  9 11  2  0
  9 12  1  0
 12 13  1  0
 13 14  2  0
 14 15  1  0
 15 16  2  0
 16 17  1  0
 17 18  1  0
 18 19  2  0
 18 20  2  0
 18 21  1  0
 21 22  1  0
 22 23  1  0
 23 24  1  0
 24 25  1  0
 25 26  1  0
 17 27  2  0
  8 28  1  0
 28 29  2  0
 29  5  1  0
 27 13  1  0
 26 21  1  0
  1 30  1  0
  1 31  1  0
  1 32  1  0
  6 33  1  0
  7 34  1  0
 14 35  1  0
 15 36  1  0
 16 37  1  0
 22 38  1  0
 22 39  1  0
 23 40  1  0
 23 41  1  0
 24 42  1  0
 24 43  1  0
 25 44  1  0
 25 45  1  0
 26 46  1  0
 26 47  1  0
 27 48  1  0
 28 49  1  0
 29 50  1  0
M  CHG  2   4  -1  12  -1
M  END
>  <UniqueID>  (16) 
16

>  <SMILES>  (16) 
CC(=O)[N-]c1ccc(S(=O)(=O)[N-]c2cccc(S(=O)(=O)N3CCCCC3)c2)cc1

>  <Energy>  (16) 
63.36416317596719

>  <Genealogy>  (16) 
CC(=O)[N-]c1ccc(S(=O)(=O)[N-]c2cccc(S(=O)(=O)N3CCCCC3)c2)cc1 (protonated)
CC(=O)[N-]c1ccc(S(=O)(=O)[N-]c2cccc(S(=O)(=O)N3CCCCC3)c2)cc1 (3D coordinates assigned)
CC(=O)[N-]c1ccc(S(=O)(=O)[N-]c2cccc(S(=O)(=O)N3CCCCC3)c2)cc1 (nonaromatic ring conformer: 63.36416317596719 kcal/mol)

>  <smiles>  (16) 
CC(=O)Nc1ccc(S(=O)(=O)Nc2cccc(S(=O)(=O)N3CCCCC3)c2)cc1

>  <score_type>  (16) 
oracle

>  <origin>  (16) 
adgpu

>  <m_score__min__energy>  (16) 
-11.82

>  <m_primary>  (16) 
energy

$$$$
16:0
     RDKit          3D

 62 66  0  0  0  0  0  0  0  0999 V2000
   -1.5930   15.7790  -33.2510 O   0  0  0  0  0  0  0  0  0  0  0  0
   -2.2150   16.6680  -33.8930 C   0  0  0  0  0  0  0  0  0  0  0  0
   -3.5990   16.5040  -34.2370 N   0  0  0  0  0  0  0  0  0  0  0  0
   -4.7450   17.1640  -33.6800 C   0  0  0  0  0  0  0  0  0  0  0  0
   -5.3720   16.7360  -32.4950 C   0  0  0  0  0  0  0  0  0  0  0  0
   -6.4900   17.4180  -32.0040 C   0  0  0  0  0  0  0  0  0  0  0  0
   -6.9790   18.5500  -32.6680 C   0  0  0  0  0  0  0  0  0  0  0  0
   -8.3720   19.4270  -32.0300 S   0  0  0  0  0  0  0  0  0  0  0  0
   -9.0720   18.5680  -31.0150 O   0  0  0  0  0  0  0  0  0  0  0  0
   -9.3370   19.7000  -33.1490 O   0  0  0  0  0  0  0  0  0  0  0  0
   -7.9020   20.9380  -31.2820 N   0  0  0  0  0  0  0  0  0  0  0  0
   -8.6440   22.0640  -31.9040 C   0  0  0  0  0  0  0  0  0  0  0  0
   -7.9680   23.4100  -31.6190 C   0  0  0  0  0  0  0  0  0  0  0  0
   -6.5570   23.4550  -32.2350 C   0  0  0  0  0  0  0  0  0  0  0  0
   -5.9230   22.0570  -32.3780 C   0  0  0  0  0  0  0  0  0  0  0  0
   -6.4200   21.1030  -31.2790 C   0  0  0  0  0  0  0  0  0  0  0  0
   -6.3370   18.9940  -33.8310 C   0  0  0  0  0  0  0  0  0  0  0  0
   -5.2280   18.3080  -34.3270 C   0  0  0  0  0  0  0  0  0  0  0  0
   -1.5070   17.9020  -34.2910 C   0  0  0  0  0  0  0  0  0  0  0  0
   -0.5830   17.8250  -35.3390 C   0  0  0  0  0  0  0  0  0  0  0  0
    0.1500   18.9090  -35.6960 N   0  0  0  0  0  0  0  0  0  0  0  0
    0.0170   20.1120  -35.0840 C   0  0  0  0  0  0  0  0  0  0  0  0
    0.8540   21.1930  -35.5160 N   0  0  0  0  0  0  0  0  0  0  0  0
    2.2990   20.9850  -35.6340 C   0  0  0  0  0  0  0  0  0  0  0  0
    3.0340   22.3180  -35.4570 C   0  0  0  0  0  0  0  0  0  0  0  0
    2.4800   23.3160  -36.2980 O   0  0  0  0  0  0  0  0  0  0  0  0
    1.1550   23.6000  -35.8900 C   0  0  0  0  0  0  0  0  0  0  0  0
    0.2430   22.3870  -36.1030 C   0  0  0  0  0  0  0  0  0  0  0  0
   -0.9250   20.2680  -34.0430 C   0  0  0  0  0  0  0  0  0  0  0  0
   -1.1180   21.5100  -33.4060 C   0  0  0  0  0  0  0  0  0  0  0  0
   -2.0690   21.6470  -32.3970 C   0  0  0  0  0  0  0  0  0  0  0  0
   -2.8480   20.5580  -32.0170 C   0  0  0  0  0  0  0  0  0  0  0  0
   -2.6770   19.3200  -32.6360 C   0  0  0  0  0  0  0  0  0  0  0  0
   -1.7030   19.1480  -33.6440 C   0  0  0  0  0  0  0  0  0  0  0  0
   -4.9814   15.8621  -31.9531 H   0  0  0  0  0  0  0  0  0  0  0  0
   -6.9886   17.0629  -31.0901 H   0  0  0  0  0  0  0  0  0  0  0  0
   -8.2110   20.8740  -30.2820 H   0  0  0  0  0  0  0  0  0  0  0  0
   -8.6839   21.9077  -32.9921 H   0  0  0  0  0  0  0  0  0  0  0  0
   -9.6561   22.0889  -31.4738 H   0  0  0  0  0  0  0  0  0  0  0  0
   -8.5763   24.2178  -32.0518 H   0  0  0  0  0  0  0  0  0  0  0  0
   -7.8813   23.5373  -30.5298 H   0  0  0  0  0  0  0  0  0  0  0  0
   -6.6233   23.9146  -33.2322 H   0  0  0  0  0  0  0  0  0  0  0  0
   -5.9183   24.0407  -31.5576 H   0  0  0  0  0  0  0  0  0  0  0  0
   -6.1899   21.6414  -33.3609 H   0  0  0  0  0  0  0  0  0  0  0  0
   -4.8320   22.1591  -32.2818 H   0  0  0  0  0  0  0  0  0  0  0  0
   -5.9566   20.1174  -31.4335 H   0  0  0  0  0  0  0  0  0  0  0  0
   -6.1380   21.5398  -30.3097 H   0  0  0  0  0  0  0  0  0  0  0  0
   -6.7086   19.8868  -34.3552 H   0  0  0  0  0  0  0  0  0  0  0  0
   -4.7272   18.6701  -35.2370 H   0  0  0  0  0  0  0  0  0  0  0  0
   -0.4497   16.8758  -35.8788 H   0  0  0  0  0  0  0  0  0  0  0  0
    2.6306   20.2798  -34.8577 H   0  0  0  0  0  0  0  0  0  0  0  0
    2.5259   20.5757  -36.6295 H   0  0  0  0  0  0  0  0  0  0  0  0
    2.9471   22.6410  -34.4091 H   0  0  0  0  0  0  0  0  0  0  0  0
    4.0905   22.1759  -35.7285 H   0  0  0  0  0  0  0  0  0  0  0  0
    1.1564   23.8660  -34.8226 H   0  0  0  0  0  0  0  0  0  0  0  0
    0.7735   24.4358  -36.4949 H   0  0  0  0  0  0  0  0  0  0  0  0
   -0.7288   22.5729  -35.6224 H   0  0  0  0  0  0  0  0  0  0  0  0
    0.1006   22.2269  -37.1819 H   0  0  0  0  0  0  0  0  0  0  0  0
   -0.5133   22.3780  -33.7076 H   0  0  0  0  0  0  0  0  0  0  0  0
   -2.2045   22.6186  -31.8993 H   0  0  0  0  0  0  0  0  0  0  0  0
   -3.6021   20.6743  -31.2247 H   0  0  0  0  0  0  0  0  0  0  0  0
   -3.3068   18.4694  -32.3362 H   0  0  0  0  0  0  0  0  0  0  0  0
  1  2  2  0
  2  3  1  0
  3  4  1  0
  4  5  2  0
  5  6  1  0
  6  7  2  0
  7  8  1  0
  8  9  2  0
  8 10  2  0
  8 11  1  0
 11 12  1  0
 12 13  1  0
 13 14  1  0
 14 15  1  0
 15 16  1  0
  7 17  1  0
 17 18  2  0
  2 19  1  0
 19 20  2  0
 20 21  1  0
 21 22  2  0
 22 23  1  0
 23 24  1  0
 24 25  1  0
 25 26  1  0
 26 27  1  0
 27 28  1  0
 22 29  1  0
 29 30  2  0
 30 31  1  0
 31 32  2  0
 32 33  1  0
 33 34  2  0
 18  4  1  0
 34 19  1  0
 16 11  1  0
 28 23  1  0
 34 29  1  0
  5 35  1  0
  6 36  1  0
 11 37  1  0
 12 38  1  0
 12 39  1  0
 13 40  1  0
 13 41  1  0
 14 42  1  0
 14 43  1  0
 15 44  1  0
 15 45  1  0
 16 46  1  0
 16 47  1  0
 17 48  1  0
 18 49  1  0
 20 50  1  0
 24 51  1  0
 24 52  1  0
 25 53  1  0
 25 54  1  0
 27 55  1  0
 27 56  1  0
 28 57  1  0
 28 58  1  0
 30 59  1  0
 31 60  1  0
 32 61  1  0
 33 62  1  0
M  CHG  2   3  -1  11   1
M  END
>  <UniqueID>  (17) 
17

>  <SMILES>  (17) 
O=C([N-]c1ccc(S(=O)(=O)[NH+]2CCCCC2)cc1)c1cnc(N2CCOCC2)c2ccccc12

>  <Energy>  (17) 
94.19663566306335

>  <Genealogy>  (17) 
O=C([N-]c1ccc(S(=O)(=O)[NH+]2CCCCC2)cc1)c1cnc(N2CCOCC2)c2ccccc12 (protonated)
O=C([N-]c1ccc(S(=O)(=O)[NH+]2CCCCC2)cc1)c1cnc(N2CCOCC2)c2ccccc12 (3D coordinates assigned)
O=C([N-]c1ccc(S(=O)(=O)[NH+]2CCCCC2)cc1)c1cnc(N2CCOCC2)c2ccccc12 (nonaromatic ring conformer: 94.19663566306335 kcal/mol)

>  <smiles>  (17) 
O=C(Nc1ccc(S(=O)(=O)N2CCCCC2)cc1)c1cnc(N2CCOCC2)c2ccccc12

>  <score_type>  (17) 
oracle

>  <origin>  (17) 
adgpu

>  <m_score__min__energy>  (17) 
-12.699999999999999

>  <m_primary>  (17) 
energy

$$$$
17:0
     RDKit          3D

 28 29  0  0  0  0  0  0  0  0999 V2000
   -3.8650   26.5500  -30.5840 H   0  0  0  0  0  0  0  0  0  0  0  0
   -4.2370   25.6320  -30.7980 O   0  0  0  0  0  0  0  0  0  0  0  0
   -3.5610   24.4610  -30.4570 C   0  0  0  0  0  0  0  0  0  0  0  0
   -3.9630   23.2510  -31.0340 C   0  0  0  0  0  0  0  0  0  0  0  0
   -4.8015   23.2385  -31.7459 H   0  0  0  0  0  0  0  0  0  0  0  0
   -3.3050   22.0520  -30.7120 C   0  0  0  0  0  0  0  0  0  0  0  0
   -3.7140   20.7630  -31.3080 C   0  0  0  0  0  0  0  0  0  0  0  0
   -2.9764   19.9537  -31.4126 H   0  0  0  0  0  0  0  0  0  0  0  0
   -4.9360   20.5750  -31.7100 N   0  0  0  0  0  0  0  0  0  0  0  0
   -5.4700   19.3730  -32.2940 C   0  0  0  0  0  0  0  0  0  0  0  0
   -6.6880   18.8860  -31.8020 C   0  0  0  0  0  0  0  0  0  0  0  0
   -7.2074   19.4276  -30.9977 H   0  0  0  0  0  0  0  0  0  0  0  0
   -7.2480   17.7180  -32.3250 C   0  0  0  0  0  0  0  0  0  0  0  0
   -8.2082   17.3485  -31.9358 H   0  0  0  0  0  0  0  0  0  0  0  0
   -6.5930   17.0180  -33.3400 C   0  0  0  0  0  0  0  0  0  0  0  0
   -7.0407   16.1018  -33.7525 H   0  0  0  0  0  0  0  0  0  0  0  0
   -5.3660   17.4810  -33.8340 C   0  0  0  0  0  0  0  0  0  0  0  0
   -4.6880   16.7560  -34.8640 N   0  0  0  0  0  0  0  0  0  0  0  0
   -4.5540   17.1760  -35.8120 H   0  0  0  0  0  0  0  0  0  0  0  0
   -4.3170   15.7970  -34.6890 H   0  0  0  0  0  0  0  0  0  0  0  0
   -4.8030   18.6540  -33.3090 C   0  0  0  0  0  0  0  0  0  0  0  0
   -3.8366   19.0152  -33.6905 H   0  0  0  0  0  0  0  0  0  0  0  0
   -2.2360   22.0800  -29.8030 C   0  0  0  0  0  0  0  0  0  0  0  0
   -1.7146   21.1467  -29.5440 H   0  0  0  0  0  0  0  0  0  0  0  0
   -1.8290   23.2870  -29.2240 C   0  0  0  0  0  0  0  0  0  0  0  0
   -0.3680   23.2870  -27.9890 Br  0  0  0  0  0  0  0  0  0  0  0  0
   -2.4900   24.4790  -29.5500 C   0  0  0  0  0  0  0  0  0  0  0  0
   -2.0830   25.6770  -28.9720 O   0  0  0  0  0  0  0  0  0  0  0  0
  1  2  1  0
  2  3  1  0
  3  4  2  0
  4  5  1  0
  4  6  1  0
  6  7  1  0
  7  8  1  0
  7  9  2  0
  9 10  1  0
 10 11  2  0
 11 12  1  0
 11 13  1  0
 13 14  1  0
 13 15  2  0
 15 16  1  0
 15 17  1  0
 17 18  1  0
 18 19  1  0
 18 20  1  0
 17 21  2  0
 21 22  1  0
  6 23  2  0
 23 24  1  0
 23 25  1  0
 25 26  1  0
 25 27  2  0
 27 28  1  0
 27  3  1  0
 21 10  1  0
M  CHG  1  28  -1
M  END
>  <UniqueID>  (18) 
18

>  <SMILES>  (18) 
Nc1cccc(/N=C/c2cc(O)c([O-])c(Br)c2)c1

>  <Energy>  (18) 
31.18874136099946

>  <Genealogy>  (18) 
Nc1cccc(N=Cc2cc(O)c([O-])c(Br)c2)c1 (protonated)
Nc1cccc(/N=C/c2cc(O)c([O-])c(Br)c2)c1 (cis-trans isomerization)
Nc1cccc(/N=C/c2cc(O)c([O-])c(Br)c2)c1 (3D coordinates assigned)
Nc1cccc(/N=C/c2cc(O)c([O-])c(Br)c2)c1 (optimized conformer: 31.18874136099946 kcal/mol)

>  <smiles>  (18) 
Nc1cccc(N=Cc2cc(O)c(O)c(Br)c2)c1

>  <score_type>  (18) 
oracle

>  <origin>  (18) 
adgpu

>  <m_score__min__energy>  (18) 
-10.09

>  <m_primary>  (18) 
energy

$$$$
18:0
     RDKit          3D

 39 41  0  0  0  0  0  0  0  0999 V2000
   -1.2421   20.0981  -29.0129 H   0  0  0  0  0  0  0  0  0  0  0  0
   -1.6700   20.4450  -29.9650 C   0  0  0  0  0  0  0  0  0  0  0  0
   -1.6370   19.6240  -30.9760 N   0  0  0  0  0  0  0  0  0  0  0  0
   -2.0100   19.9470  -32.2930 N   0  0  0  0  0  0  0  0  0  0  0  0
   -3.0810   19.4750  -32.9620 C   0  0  0  0  0  0  0  0  0  0  0  0
   -4.2170   18.7110  -32.3500 C   0  0  0  0  0  0  0  0  0  0  0  0
   -4.3841   19.0677  -31.3229 H   0  0  0  0  0  0  0  0  0  0  0  0
   -3.9659   17.6401  -32.3376 H   0  0  0  0  0  0  0  0  0  0  0  0
   -5.4070   18.9040  -33.1170 O   0  0  0  0  0  0  0  0  0  0  0  0
   -6.5430   19.5990  -32.6770 C   0  0  0  0  0  0  0  0  0  0  0  0
   -7.7800   18.9640  -32.4610 C   0  0  0  0  0  0  0  0  0  0  0  0
   -7.8894   17.8902  -32.6730 H   0  0  0  0  0  0  0  0  0  0  0  0
   -8.8700   19.6930  -31.9780 C   0  0  0  0  0  0  0  0  0  0  0  0
   -9.8313   19.1890  -31.7997 H   0  0  0  0  0  0  0  0  0  0  0  0
   -8.7420   21.0600  -31.7210 C   0  0  0  0  0  0  0  0  0  0  0  0
   -9.5966   21.6252  -31.3206 H   0  0  0  0  0  0  0  0  0  0  0  0
   -7.5270   21.7140  -31.9720 C   0  0  0  0  0  0  0  0  0  0  0  0
   -7.3750   23.1710  -31.6530 C   0  0  0  0  0  0  0  0  0  0  0  0
   -7.3607   23.3079  -30.5616 H   0  0  0  0  0  0  0  0  0  0  0  0
   -6.4331   23.5439  -32.0817 H   0  0  0  0  0  0  0  0  0  0  0  0
   -8.2197   23.7303  -32.0817 H   0  0  0  0  0  0  0  0  0  0  0  0
   -6.4320   20.9760  -32.4480 C   0  0  0  0  0  0  0  0  0  0  0  0
   -5.4765   21.4848  -32.6432 H   0  0  0  0  0  0  0  0  0  0  0  0
   -3.0290   19.8100  -34.2690 N   0  0  0  0  0  0  0  0  0  0  0  0
   -1.8880   20.4630  -34.4410 N   0  0  0  0  0  0  0  0  0  0  0  0
   -1.5380   20.8150  -35.3600 H   0  0  0  0  0  0  0  0  0  0  0  0
   -1.2630   20.5280  -33.2530 C   0  0  0  0  0  0  0  0  0  0  0  0
    0.2710   21.0740  -33.0630 S   0  0  0  0  0  0  0  0  0  0  0  0
   -2.2420   21.8130  -30.0030 C   0  0  0  0  0  0  0  0  0  0  0  0
   -3.3580   22.0510  -30.8230 C   0  0  0  0  0  0  0  0  0  0  0  0
   -3.8070   21.2213  -31.3886 H   0  0  0  0  0  0  0  0  0  0  0  0
   -3.9020   23.3360  -30.9250 C   0  0  0  0  0  0  0  0  0  0  0  0
   -4.7864   23.5092  -31.5558 H   0  0  0  0  0  0  0  0  0  0  0  0
   -3.3240   24.4000  -30.2270 C   0  0  0  0  0  0  0  0  0  0  0  0
   -3.8630   25.6750  -30.3320 O   0  0  0  0  0  0  0  0  0  0  0  0
   -2.2000   24.1790  -29.4270 C   0  0  0  0  0  0  0  0  0  0  0  0
   -1.7416   25.0167  -28.8811 H   0  0  0  0  0  0  0  0  0  0  0  0
   -1.6570   22.8960  -29.3190 C   0  0  0  0  0  0  0  0  0  0  0  0
   -0.7662   22.7308  -28.6952 H   0  0  0  0  0  0  0  0  0  0  0  0
  1  2  1  0
  2  3  2  0
  3  4  1  0
  4  5  1  0
  5  6  1  0
  6  7  1  0
  6  8  1  0
  6  9  1  0
  9 10  1  0
 10 11  2  0
 11 12  1  0
 11 13  1  0
 13 14  1  0
 13 15  2  0
 15 16  1  0
 15 17  1  0
 17 18  1  0
 18 19  1  0
 18 20  1  0
 18 21  1  0
 17 22  2  0
 22 23  1  0
  5 24  2  0
 24 25  1  0
 25 26  1  0
 25 27  1  0
 27 28  2  0
  2 29  1  0
 29 30  2  0
 30 31  1  0
 30 32  1  0
 32 33  1  0
 32 34  2  0
 34 35  1  0
 34 36  1  0
 36 37  1  0
 36 38  2  0
 38 39  1  0
 27  4  1  0
 38 29  1  0
 22 10  1  0
M  CHG  1  35  -1
M  END
>  <UniqueID>  (19) 
19

>  <SMILES>  (19) 
Cc1cccc(OCc2n[nH]c(=S)n2/N=C\c2ccc([O-])cc2)c1

>  <Energy>  (19) 
87.72127809671836

>  <Genealogy>  (19) 
Cc1cccc(OCc2n[nH]c(=S)n2N=Cc2ccc([O-])cc2)c1 (protonated)
Cc1cccc(OCc2n[nH]c(=S)n2/N=C\c2ccc([O-])cc2)c1 (cis-trans isomerization)
Cc1cccc(OCc2n[nH]c(=S)n2/N=C\c2ccc([O-])cc2)c1 (3D coordinates assigned)
Cc1cccc(OCc2n[nH]c(=S)n2/N=C\c2ccc([O-])cc2)c1 (optimized conformer: 87.72127809671836 kcal/mol)

>  <smiles>  (19) 
Cc1cccc(OCc2n[nH]c(=S)n2N=Cc2ccc(O)cc2)c1

>  <score_type>  (19) 
oracle

>  <origin>  (19) 
adgpu

>  <m_score__min__energy>  (19) 
-10.25

>  <m_primary>  (19) 
energy

$$$$
19:0
     RDKit          3D

 32 33  0  0  0  0  0  0  0  0999 V2000
   -3.3780   21.3750  -33.3470 C   0  0  0  0  0  0  0  0  0  0  0  0
   -3.3530   21.3830  -32.0110 C   0  0  0  0  0  0  0  0  0  0  0  0
   -3.3130   22.6680  -31.2320 C   0  0  0  0  0  0  0  0  0  0  0  0
   -4.6690   23.2190  -31.0720 N   0  0  0  0  0  0  0  0  0  0  0  0
   -5.7490   22.4030  -31.2840 C   0  0  0  0  0  0  0  0  0  0  0  0
   -7.0530   22.8840  -31.1190 C   0  0  0  0  0  0  0  0  0  0  0  0
   -8.4290   21.8310  -31.4200 S   0  0  0  0  0  0  0  0  0  0  0  0
   -9.4000   22.5040  -32.3510 O   0  0  0  0  0  0  0  0  0  0  0  0
   -9.1440   21.5450  -30.1290 O   0  0  0  0  0  0  0  0  0  0  0  0
   -7.8570   20.3300  -32.1370 C   0  0  0  0  0  0  0  0  0  0  0  0
   -6.9420   20.3590  -33.1990 C   0  0  0  0  0  0  0  0  0  0  0  0
   -6.4720   19.1650  -33.7540 C   0  0  0  0  0  0  0  0  0  0  0  0
   -6.9090   17.9370  -33.2470 C   0  0  0  0  0  0  0  0  0  0  0  0
   -7.8140   17.9030  -32.1830 C   0  0  0  0  0  0  0  0  0  0  0  0
   -8.2850   19.0970  -31.6250 C   0  0  0  0  0  0  0  0  0  0  0  0
   -7.2450   24.2140  -30.7430 C   0  0  0  0  0  0  0  0  0  0  0  0
   -6.1440   25.0360  -30.5200 C   0  0  0  0  0  0  0  0  0  0  0  0
   -4.8530   24.5230  -30.6830 C   0  0  0  0  0  0  0  0  0  0  0  0
   -3.8640   25.2760  -30.4680 O   0  0  0  0  0  0  0  0  0  0  0  0
   -3.4071   20.4193  -33.8908 H   0  0  0  0  0  0  0  0  0  0  0  0
   -3.3695   22.3241  -33.9029 H   0  0  0  0  0  0  0  0  0  0  0  0
   -3.3619   20.4263  -31.4682 H   0  0  0  0  0  0  0  0  0  0  0  0
   -2.8814   22.4754  -30.2387 H   0  0  0  0  0  0  0  0  0  0  0  0
   -2.6966   23.3960  -31.7798 H   0  0  0  0  0  0  0  0  0  0  0  0
   -5.5894   21.3578  -31.5874 H   0  0  0  0  0  0  0  0  0  0  0  0
   -6.5931   21.3235  -33.5965 H   0  0  0  0  0  0  0  0  0  0  0  0
   -5.7578   19.1914  -34.5902 H   0  0  0  0  0  0  0  0  0  0  0  0
   -6.5403   16.9981  -33.6858 H   0  0  0  0  0  0  0  0  0  0  0  0
   -8.1566   16.9370  -31.7836 H   0  0  0  0  0  0  0  0  0  0  0  0
   -8.9924   19.0680  -30.7831 H   0  0  0  0  0  0  0  0  0  0  0  0
   -8.2635   24.6118  -30.6232 H   0  0  0  0  0  0  0  0  0  0  0  0
   -6.2885   26.0836  -30.2172 H   0  0  0  0  0  0  0  0  0  0  0  0
  1  2  2  0
  2  3  1  0
  3  4  1  0
  4  5  1  0
  5  6  2  0
  6  7  1  0
  7  8  2  0
  7  9  2  0
  7 10  1  0
 10 11  2  0
 11 12  1  0
 12 13  2  0
 13 14  1  0
 14 15  2  0
  6 16  1  0
 16 17  2  0
 17 18  1  0
 18 19  2  0
 18  4  1  0
 15 10  1  0
  1 20  1  0
  1 21  1  0
  2 22  1  0
  3 23  1  0
  3 24  1  0
  5 25  1  0
 11 26  1  0
 12 27  1  0
 13 28  1  0
 14 29  1  0
 15 30  1  0
 16 31  1  0
 17 32  1  0
M  END
>  <UniqueID>  (20) 
20

>  <SMILES>  (20) 
C=CCn1cc(S(=O)(=O)c2ccccc2)ccc1=O

>  <Energy>  (20) 
33.53115986410315

>  <Genealogy>  (20) 
C=CCn1cc(S(=O)(=O)c2ccccc2)ccc1=O (3D coordinates assigned)
C=CCn1cc(S(=O)(=O)c2ccccc2)ccc1=O (optimized conformer: 33.53115986410315 kcal/mol)

>  <smiles>  (20) 
C=CCn1cc(S(=O)(=O)c2ccccc2)ccc1=O

>  <score_type>  (20) 
oracle

>  <origin>  (20) 
adgpu

>  <m_score__min__energy>  (20) 
-8.2400000000000002

>  <m_primary>  (20) 
energy

$$$$
20:0
     RDKit          3D

 57 60  0  0  0  0  0  0  0  0999 V2000
   -7.0030   17.7780  -31.2520 C   0  0  0  0  0  0  0  0  0  0  0  0
   -6.4490   18.3440  -32.4790 N   0  0  0  0  0  0  0  0  0  0  0  0
   -5.5970   17.5460  -33.3180 C   0  0  0  0  0  0  0  0  0  0  0  0
   -4.6050   18.1490  -34.1080 C   0  0  0  0  0  0  0  0  0  0  0  0
   -3.7920   17.3720  -34.9370 C   0  0  0  0  0  0  0  0  0  0  0  0
   -3.9720   15.9850  -35.0000 C   0  0  0  0  0  0  0  0  0  0  0  0
   -3.1590   15.2260  -35.8390 O   0  0  0  0  0  0  0  0  0  0  0  0
   -4.9610   15.3800  -34.2230 C   0  0  0  0  0  0  0  0  0  0  0  0
   -5.7690   16.1570  -33.3870 C   0  0  0  0  0  0  0  0  0  0  0  0
   -6.9720   19.9240  -32.9940 S   0  0  0  0  0  0  0  0  0  0  0  0
   -8.4010   20.1220  -32.5740 O   0  0  0  0  0  0  0  0  0  0  0  0
   -6.8760   20.0440  -34.4910 O   0  0  0  0  0  0  0  0  0  0  0  0
   -5.9430   21.1640  -32.2800 C   0  0  0  0  0  0  0  0  0  0  0  0
   -4.6560   20.8440  -31.8260 C   0  0  0  0  0  0  0  0  0  0  0  0
   -3.8590   21.8220  -31.2250 C   0  0  0  0  0  0  0  0  0  0  0  0
   -4.3410   23.1330  -31.0590 C   0  0  0  0  0  0  0  0  0  0  0  0
   -3.4910   24.1760  -30.4410 C   0  0  0  0  0  0  0  0  0  0  0  0
   -3.8670   25.3770  -30.4420 O   0  0  0  0  0  0  0  0  0  0  0  0
   -2.2750   23.7980  -29.7850 N   0  0  0  0  0  0  0  0  0  0  0  0
   -1.7170   24.3220  -28.5690 C   0  0  0  0  0  0  0  0  0  0  0  0
   -1.4490   25.6930  -28.3950 C   0  0  0  0  0  0  0  0  0  0  0  0
   -0.8830   26.1550  -27.2020 C   0  0  0  0  0  0  0  0  0  0  0  0
   -0.5670   25.2560  -26.1820 C   0  0  0  0  0  0  0  0  0  0  0  0
   -0.8040   23.8890  -26.3550 C   0  0  0  0  0  0  0  0  0  0  0  0
   -1.3740   23.4200  -27.5460 C   0  0  0  0  0  0  0  0  0  0  0  0
   -1.6010   22.0170  -27.7220 N   0  0  0  0  0  0  0  0  0  0  0  0
   -2.9640   21.5060  -27.4990 C   0  0  0  0  0  0  0  0  0  0  0  0
   -3.0390   19.9720  -27.5090 C   0  0  0  0  0  0  0  0  0  0  0  0
   -1.8090   19.3820  -27.1460 O   0  0  0  0  0  0  0  0  0  0  0  0
   -0.8500   19.6900  -28.1320 C   0  0  0  0  0  0  0  0  0  0  0  0
   -0.4530   21.1610  -28.0390 C   0  0  0  0  0  0  0  0  0  0  0  0
   -5.6410   23.4410  -31.5040 C   0  0  0  0  0  0  0  0  0  0  0  0
   -6.4350   22.4630  -32.1080 C   0  0  0  0  0  0  0  0  0  0  0  0
   -6.5326   18.2586  -30.3815 H   0  0  0  0  0  0  0  0  0  0  0  0
   -8.0887   17.9528  -31.2252 H   0  0  0  0  0  0  0  0  0  0  0  0
   -6.8050   16.6963  -31.2252 H   0  0  0  0  0  0  0  0  0  0  0  0
   -4.4672   19.2398  -34.0740 H   0  0  0  0  0  0  0  0  0  0  0  0
   -3.0082   17.8514  -35.5419 H   0  0  0  0  0  0  0  0  0  0  0  0
   -2.7820   15.6090  -36.7000 H   0  0  0  0  0  0  0  0  0  0  0  0
   -5.1051   14.2904  -34.2683 H   0  0  0  0  0  0  0  0  0  0  0  0
   -6.5469   15.6734  -32.7779 H   0  0  0  0  0  0  0  0  0  0  0  0
   -4.2722   19.8198  -31.9432 H   0  0  0  0  0  0  0  0  0  0  0  0
   -2.8470   21.5646  -30.8791 H   0  0  0  0  0  0  0  0  0  0  0  0
   -1.6856   26.4039  -29.2004 H   0  0  0  0  0  0  0  0  0  0  0  0
   -0.6866   27.2289  -27.0675 H   0  0  0  0  0  0  0  0  0  0  0  0
   -0.1311   25.6234  -25.2412 H   0  0  0  0  0  0  0  0  0  0  0  0
   -0.5426   23.1807  -25.5550 H   0  0  0  0  0  0  0  0  0  0  0  0
   -3.3186   21.8679  -26.5227 H   0  0  0  0  0  0  0  0  0  0  0  0
   -3.5916   21.8715  -28.3251 H   0  0  0  0  0  0  0  0  0  0  0  0
   -3.8122   19.6492  -26.7963 H   0  0  0  0  0  0  0  0  0  0  0  0
   -3.2828   19.6495  -28.5320 H   0  0  0  0  0  0  0  0  0  0  0  0
    0.0410   19.0628  -27.9809 H   0  0  0  0  0  0  0  0  0  0  0  0
   -1.2811   19.4964  -29.1253 H   0  0  0  0  0  0  0  0  0  0  0  0
    0.3051   21.2758  -27.2502 H   0  0  0  0  0  0  0  0  0  0  0  0
   -0.0564   21.4702  -29.0173 H   0  0  0  0  0  0  0  0  0  0  0  0
   -6.0346   24.4600  -31.3750 H   0  0  0  0  0  0  0  0  0  0  0  0
   -7.4499   22.7146  -32.4494 H   0  0  0  0  0  0  0  0  0  0  0  0
  1  2  1  0
  2  3  1  0
  3  4  2  0
  4  5  1  0
  5  6  2  0
  6  7  1  0
  6  8  1  0
  8  9  2  0
  2 10  1  0
 10 11  2  0
 10 12  2  0
 10 13  1  0
 13 14  2  0
 14 15  1  0
 15 16  2  0
 16 17  1  0
 17 18  2  0
 17 19  1  0
 19 20  1  0
 20 21  2  0
 21 22  1  0
 22 23  2  0
 23 24  1  0
 24 25  2  0
 25 26  1  0
 26 27  1  0
 27 28  1  0
 28 29  1  0
 29 30  1  0
 30 31  1  0
 16 32  1  0
 32 33  2  0
  9  3  1  0
 33 13  1  0
 25 20  1  0
 31 26  1  0
  1 34  1  0
  1 35  1  0
  1 36  1  0
  4 37  1  0
  5 38  1  0
  7 39  1  0
  8 40  1  0
  9 41  1  0
 14 42  1  0
 15 43  1  0
 21 44  1  0
 22 45  1  0
 23 46  1  0
 24 47  1  0
 27 48  1  0
 27 49  1  0
 28 50  1  0
 28 51  1  0
 30 52  1  0
 30 53  1  0
 31 54  1  0
 31 55  1  0
 32 56  1  0
 33 57  1  0
M  CHG  1  19  -1
M  END
>  <UniqueID>  (21) 
21

>  <SMILES>  (21) 
CN(c1ccc(O)cc1)S(=O)(=O)c1ccc(C(=O)[N-]c2ccccc2N2CCOCC2)cc1

>  <Energy>  (21) 
78.33106744726275

>  <Genealogy>  (21) 
CN(c1ccc(O)cc1)S(=O)(=O)c1ccc(C(=O)[N-]c2ccccc2N2CCOCC2)cc1 (protonated)
CN(c1ccc(O)cc1)S(=O)(=O)c1ccc(C(=O)[N-]c2ccccc2N2CCOCC2)cc1 (3D coordinates assigned)
CN(c1ccc(O)cc1)S(=O)(=O)c1ccc(C(=O)[N-]c2ccccc2N2CCOCC2)cc1 (nonaromatic ring conformer: 78.33106744726275 kcal/mol)

>  <smiles>  (21) 
CN(c1ccc(O)cc1)S(=O)(=O)c1ccc(C(=O)Nc2ccccc2N2CCOCC2)cc1

>  <score_type>  (21) 
oracle

>  <origin>  (21) 
adgpu

>  <m_score__min__energy>  (21) 
-10.550000000000001

>  <m_primary>  (21) 
energy

$$$$
21:0
     RDKit          3D

 60 64  0  0  0  0  0  0  0  0999 V2000
   -9.6401   18.2576  -31.3842 H   0  0  0  0  0  0  0  0  0  0  0  0
   -8.8390   18.9200  -31.7440 C   0  0  0  0  0  0  0  0  0  0  0  0
   -7.6140   18.3810  -32.1290 C   0  0  0  0  0  0  0  0  0  0  0  0
   -7.4492   17.2950  -32.0695 H   0  0  0  0  0  0  0  0  0  0  0  0
   -6.5910   19.2190  -32.5920 C   0  0  0  0  0  0  0  0  0  0  0  0
   -5.4050   18.6250  -33.1310 N   0  0  0  0  0  0  0  0  0  0  0  0
   -4.1550   19.0180  -33.1150 C   0  0  0  0  0  0  0  0  0  0  0  0
   -3.2890   18.4320  -34.0620 C   0  0  0  0  0  0  0  0  0  0  0  0
   -3.7260   17.3430  -34.9090 C   0  0  0  0  0  0  0  0  0  0  0  0
   -4.0770   16.4740  -35.5860 N   0  0  0  0  0  0  0  0  0  0  0  0
   -2.0170   18.9680  -34.2680 C   0  0  0  0  0  0  0  0  0  0  0  0
   -1.3545   18.5255  -35.0265 H   0  0  0  0  0  0  0  0  0  0  0  0
   -1.5920   20.0290  -33.5410 N   0  0  0  0  0  0  0  0  0  0  0  0
   -0.6420   20.4150  -33.7420 H   0  0  0  0  0  0  0  0  0  0  0  0
   -2.3390   20.5480  -32.5270 C   0  0  0  0  0  0  0  0  0  0  0  0
   -1.7970   21.5660  -31.7290 C   0  0  0  0  0  0  0  0  0  0  0  0
   -0.8336   22.0176  -32.0081 H   0  0  0  0  0  0  0  0  0  0  0  0
   -2.4650   22.0180  -30.5790 C   0  0  0  0  0  0  0  0  0  0  0  0
   -1.8500   23.0620  -29.7050 C   0  0  0  0  0  0  0  0  0  0  0  0
   -0.5320   22.9220  -29.2380 C   0  0  0  0  0  0  0  0  0  0  0  0
    0.0445   22.0223  -29.4990 H   0  0  0  0  0  0  0  0  0  0  0  0
    0.0540   23.9110  -28.4470 C   0  0  0  0  0  0  0  0  0  0  0  0
    1.0955   23.7947  -28.1128 H   0  0  0  0  0  0  0  0  0  0  0  0
   -0.6710   25.0510  -28.0740 C   0  0  0  0  0  0  0  0  0  0  0  0
   -0.0350   26.1250  -27.2090 C   0  0  0  0  0  0  0  0  0  0  0  0
    0.9841   25.8015  -26.9505 H   0  0  0  0  0  0  0  0  0  0  0  0
   -0.0500   27.0549  -27.7964 H   0  0  0  0  0  0  0  0  0  0  0  0
   -0.7680   26.4030  -25.9510 N   0  0  0  0  0  0  0  0  0  0  0  0
   -0.9740   27.8400  -25.6520 C   0  0  0  0  0  0  0  0  0  0  0  0
   -0.6929   28.4324  -26.5352 H   0  0  0  0  0  0  0  0  0  0  0  0
   -2.0340   27.9906  -25.3994 H   0  0  0  0  0  0  0  0  0  0  0  0
   -0.1220   28.2970  -24.4510 C   0  0  0  0  0  0  0  0  0  0  0  0
    0.9393   28.1981  -24.7228 H   0  0  0  0  0  0  0  0  0  0  0  0
   -0.4100   29.3364  -24.2348 H   0  0  0  0  0  0  0  0  0  0  0  0
   -0.3500   27.5510  -23.2590 O   0  0  0  0  0  0  0  0  0  0  0  0
   -0.8210   26.2260  -23.4880 C   0  0  0  0  0  0  0  0  0  0  0  0
   -0.5003   25.5905  -22.6494 H   0  0  0  0  0  0  0  0  0  0  0  0
   -1.9167   26.2769  -23.5704 H   0  0  0  0  0  0  0  0  0  0  0  0
   -0.2920   25.6170  -24.7920 C   0  0  0  0  0  0  0  0  0  0  0  0
    0.8079   25.6225  -24.7760 H   0  0  0  0  0  0  0  0  0  0  0  0
   -0.6604   24.5844  -24.8821 H   0  0  0  0  0  0  0  0  0  0  0  0
   -1.9840   25.2040  -28.5470 C   0  0  0  0  0  0  0  0  0  0  0  0
   -2.5584   26.1037  -28.2812 H   0  0  0  0  0  0  0  0  0  0  0  0
   -2.5670   24.2220  -29.3530 C   0  0  0  0  0  0  0  0  0  0  0  0
   -3.5966   24.3566  -29.7162 H   0  0  0  0  0  0  0  0  0  0  0  0
   -3.6970   21.4300  -30.2450 C   0  0  0  0  0  0  0  0  0  0  0  0
   -4.2273   21.7582  -29.3388 H   0  0  0  0  0  0  0  0  0  0  0  0
   -4.2570   20.4340  -31.0490 C   0  0  0  0  0  0  0  0  0  0  0  0
   -5.2040   19.9634  -30.7462 H   0  0  0  0  0  0  0  0  0  0  0  0
   -3.6270   20.0210  -32.2450 C   0  0  0  0  0  0  0  0  0  0  0  0
   -6.8190   20.6040  -32.6840 C   0  0  0  0  0  0  0  0  0  0  0  0
   -6.0333   21.2607  -33.0857 H   0  0  0  0  0  0  0  0  0  0  0  0
   -8.0390   21.1540  -32.2680 C   0  0  0  0  0  0  0  0  0  0  0  0
   -8.1970   22.5420  -32.3350 O   0  0  0  0  0  0  0  0  0  0  0  0
   -7.2490   23.4850  -31.8480 C   0  0  0  0  0  0  0  0  0  0  0  0
   -7.2564   23.4777  -30.7480 H   0  0  0  0  0  0  0  0  0  0  0  0
   -6.2455   23.2164  -32.2098 H   0  0  0  0  0  0  0  0  0  0  0  0
   -7.5123   24.4899  -32.2098 H   0  0  0  0  0  0  0  0  0  0  0  0
   -9.0550   20.3010  -31.8130 C   0  0  0  0  0  0  0  0  0  0  0  0
  -10.0259   20.7193  -31.5090 H   0  0  0  0  0  0  0  0  0  0  0  0
  1  2  1  0
  2  3  2  0
  3  4  1  0
  3  5  1  0
  5  6  1  0
  6  7  2  0
  7  8  1  0
  8  9  1  0
  9 10  3  0
  8 11  2  0
 11 12  1  0
 11 13  1  0
 13 14  1  0
 13 15  1  0
 15 16  2  0
 16 17  1  0
 16 18  1  0
 18 19  1  0
 19 20  2  0
 20 21  1  0
 20 22  1  0
 22 23  1  0
 22 24  2  0
 24 25  1  0
 25 26  1  0
 25 27  1  0
 25 28  1  0
 28 29  1  0
 29 30  1  0
 29 31  1  0
 29 32  1  0
 32 33  1  0
 32 34  1  0
 32 35  1  0
 35 36  1  0
 36 37  1  0
 36 38  1  0
 36 39  1  0
 39 40  1  0
 39 41  1  0
 24 42  1  0
 42 43  1  0
 42 44  2  0
 44 45  1  0
 18 46  2  0
 46 47  1  0
 46 48  1  0
 48 49  1  0
 48 50  2  0
  5 51  2  0
 51 52  1  0
 51 53  1  0
 53 54  1  0
 54 55  1  0
 55 56  1  0
 55 57  1  0
 55 58  1  0
 53 59  2  0
 59 60  1  0
 59  2  1  0
 50  7  1  0
 50 15  1  0
 44 19  1  0
 39 28  1  0
M  END
>  <UniqueID>  (22) 
22

>  <SMILES>  (22) 
COc1cccc(/N=c2/c(C#N)c[nH]c3cc(-c4ccc(CN5CCOCC5)cc4)ccc23)c1

>  <Energy>  (22) 
112.53101201187177

>  <Genealogy>  (22) 
COc1cccc(/N=c2/c(C#N)c[nH]c3cc(-c4ccc(CN5CCOCC5)cc4)ccc23)c1 (cis-trans isomerization)
COc1cccc(/N=c2/c(C#N)c[nH]c3cc(-c4ccc(CN5CCOCC5)cc4)ccc23)c1 (3D coordinates assigned)
COc1cccc(/N=c2/c(C#N)c[nH]c3cc(-c4ccc(CN5CCOCC5)cc4)ccc23)c1 (nonaromatic ring conformer: 112.53101201187177 kcal/mol)

>  <smiles>  (22) 
COc1cccc(N=c2c(C#N)c[nH]c3cc(-c4ccc(CN5CCOCC5)cc4)ccc23)c1

>  <score_type>  (22) 
oracle

>  <origin>  (22) 
adgpu

>  <m_score__min__energy>  (22) 
-8.7899999999999991

>  <m_primary>  (22) 
energy

$$$$
22:0
     RDKit          3D

 46 48  0  0  0  0  0  0  0  0999 V2000
   -9.3769   22.6631  -31.3379 H   0  0  0  0  0  0  0  0  0  0  0  0
   -9.0240   21.6500  -31.5810 C   0  0  0  0  0  0  0  0  0  0  0  0
   -7.7780   21.2160  -31.1210 C   0  0  0  0  0  0  0  0  0  0  0  0
   -7.1508   21.8876  -30.5164 H   0  0  0  0  0  0  0  0  0  0  0  0
   -7.3280   19.9280  -31.4290 C   0  0  0  0  0  0  0  0  0  0  0  0
   -6.3499   19.5866  -31.0591 H   0  0  0  0  0  0  0  0  0  0  0  0
   -8.1210   19.0670  -32.2100 C   0  0  0  0  0  0  0  0  0  0  0  0
   -7.6650   17.6610  -32.4940 C   0  0  0  0  0  0  0  0  0  0  0  0
   -8.4492   17.1319  -33.0554 H   0  0  0  0  0  0  0  0  0  0  0  0
   -7.4725   17.1485  -31.5399 H   0  0  0  0  0  0  0  0  0  0  0  0
   -6.4000   17.6750  -33.3040 C   0  0  0  0  0  0  0  0  0  0  0  0
   -5.5420   18.7220  -33.1810 N   0  0  0  0  0  0  0  0  0  0  0  0
   -4.3840   18.7860  -33.8950 C   0  0  0  0  0  0  0  0  0  0  0  0
   -3.5760   19.7990  -33.7640 N   0  0  0  0  0  0  0  0  0  0  0  0
   -3.7240   20.8760  -32.8230 C   0  0  0  0  0  0  0  0  0  0  0  0
   -2.7200   21.1790  -31.8830 C   0  0  0  0  0  0  0  0  0  0  0  0
   -1.7959   20.5829  -31.8570 H   0  0  0  0  0  0  0  0  0  0  0  0
   -2.8930   22.2330  -30.9840 C   0  0  0  0  0  0  0  0  0  0  0  0
   -2.1107   22.4563  -30.2437 H   0  0  0  0  0  0  0  0  0  0  0  0
   -4.0600   23.0070  -31.0220 C   0  0  0  0  0  0  0  0  0  0  0  0
   -4.3080   24.3130  -29.8660 S   0  0  0  0  0  0  0  0  0  0  0  0
   -4.2370   25.6540  -30.5450 O   0  0  0  0  0  0  0  0  0  0  0  0
   -5.6690   24.1550  -29.2500 O   0  0  0  0  0  0  0  0  0  0  0  0
   -3.1030   24.2370  -28.6190 N   0  0  0  0  0  0  0  0  0  0  0  0
   -2.1440   23.9510  -28.9200 H   0  0  0  0  0  0  0  0  0  0  0  0
   -3.3110   24.5400  -27.3650 C   0  0  0  0  0  0  0  0  0  0  0  0
   -4.6040   24.9300  -26.8840 N   0  0  0  0  0  0  0  0  0  0  0  0
   -5.4590   24.9320  -27.4810 H   0  0  0  0  0  0  0  0  0  0  0  0
   -4.7190   25.2160  -25.8870 H   0  0  0  0  0  0  0  0  0  0  0  0
   -2.2210   24.4830  -26.4400 N   0  0  0  0  0  0  0  0  0  0  0  0
   -1.2680   24.1810  -26.7450 H   0  0  0  0  0  0  0  0  0  0  0  0
   -2.3600   24.7520  -25.4400 H   0  0  0  0  0  0  0  0  0  0  0  0
   -5.0390   22.7370  -31.9870 C   0  0  0  0  0  0  0  0  0  0  0  0
   -5.9464   23.3568  -32.0360 H   0  0  0  0  0  0  0  0  0  0  0  0
   -4.8660   21.6820  -32.8880 C   0  0  0  0  0  0  0  0  0  0  0  0
   -5.6320   21.4844  -33.6523 H   0  0  0  0  0  0  0  0  0  0  0  0
   -4.0880   17.7940  -34.7810 N   0  0  0  0  0  0  0  0  0  0  0  0
   -3.2050   17.8380  -35.3420 H   0  0  0  0  0  0  0  0  0  0  0  0
   -4.9200   16.7300  -34.9410 C   0  0  0  0  0  0  0  0  0  0  0  0
   -4.6622   15.9338  -35.6548 H   0  0  0  0  0  0  0  0  0  0  0  0
   -6.1000   16.6470  -34.2010 C   0  0  0  0  0  0  0  0  0  0  0  0
   -6.7795   15.7904  -34.3214 H   0  0  0  0  0  0  0  0  0  0  0  0
   -9.3770   19.5090  -32.6600 C   0  0  0  0  0  0  0  0  0  0  0  0
  -10.0117   18.8387  -33.2582 H   0  0  0  0  0  0  0  0  0  0  0  0
   -9.8230   20.7980  -32.3500 C   0  0  0  0  0  0  0  0  0  0  0  0
  -10.8033   21.1419  -32.7115 H   0  0  0  0  0  0  0  0  0  0  0  0
  1  2  1  0
  2  3  2  0
  3  4  1  0
  3  5  1  0
  5  6  1  0
  5  7  2  0
  7  8  1  0
  8  9  1  0
  8 10  1  0
  8 11  1  0
 11 12  2  0
 12 13  1  0
 13 14  2  0
 14 15  1  0
 15 16  2  0
 16 17  1  0
 16 18  1  0
 18 19  1  0
 18 20  2  0
 20 21  1  0
 21 22  2  0
 21 23  2  0
 21 24  1  0
 24 25  1  0
 24 26  2  3
 26 27  1  0
 27 28  1  0
 27 29  1  0
 26 30  1  0
 30 31  1  0
 30 32  1  0
 20 33  1  0
 33 34  1  0
 33 35  2  0
 35 36  1  0
 13 37  1  0
 37 38  1  0
 37 39  1  0
 39 40  1  0
 39 41  2  0
 41 42  1  0
  7 43  1  0
 43 44  1  0
 43 45  2  0
 45 46  1  0
 45  2  1  0
 41 11  1  0
 35 15  1  0
M  CHG  1  24   1
M  END
>  <UniqueID>  (23) 
23

>  <SMILES>  (23) 
NC(N)=[NH+]S(=O)(=O)c1ccc(/N=c2\nc(Cc3ccccc3)cc[nH]2)cc1

>  <Energy>  (23) 
53.24870578044737

>  <Genealogy>  (23) 
NC(N)=[NH+]S(=O)(=O)c1ccc(N=c2nc(Cc3ccccc3)cc[nH]2)cc1 (protonated)
NC(N)=[NH+]S(=O)(=O)c1ccc(/N=c2\nc(Cc3ccccc3)cc[nH]2)cc1 (cis-trans isomerization)
NC(N)=[NH+]S(=O)(=O)c1ccc(/N=c2\nc(Cc3ccccc3)cc[nH]2)cc1 (3D coordinates assigned)
NC(N)=[NH+]S(=O)(=O)c1ccc(/N=c2\nc(Cc3ccccc3)cc[nH]2)cc1 (optimized conformer: 53.24870578044737 kcal/mol)

>  <smiles>  (23) 
NC(N)=NS(=O)(=O)c1ccc(N=c2nc(Cc3ccccc3)cc[nH]2)cc1

>  <score_type>  (23) 
oracle

>  <origin>  (23) 
adgpu

>  <m_score__min__energy>  (23) 
-9.0199999999999996

>  <m_primary>  (23) 
energy

$$$$
23:0
     RDKit          3D

 48 50  0  0  0  0  0  0  0  0999 V2000
   -4.2450   24.0290  -28.5870 O   0  0  0  0  0  0  0  0  0  0  0  0
   -3.3530   24.5800  -29.6620 S   0  0  0  0  0  0  0  0  0  0  0  0
   -4.1810   25.3220  -30.6740 O   0  0  0  0  0  0  0  0  0  0  0  0
   -2.2580   25.6520  -28.9740 O   0  0  0  0  0  0  0  0  0  0  0  0
   -2.4980   23.2560  -30.4520 C   0  0  0  0  0  0  0  0  0  0  0  0
   -1.1910   22.9370  -30.0620 C   0  0  0  0  0  0  0  0  0  0  0  0
   -0.5080   21.8870  -30.6800 C   0  0  0  0  0  0  0  0  0  0  0  0
   -1.1170   21.1580  -31.7080 C   0  0  0  0  0  0  0  0  0  0  0  0
   -0.4280   20.1220  -32.3390 O   0  0  0  0  0  0  0  0  0  0  0  0
   -2.4180   21.4800  -32.1180 C   0  0  0  0  0  0  0  0  0  0  0  0
   -3.0060   20.7610  -33.2070 N   0  0  0  0  0  0  0  0  0  0  0  0
   -2.9190   19.0340  -33.3210 S   0  0  0  0  0  0  0  0  0  0  0  0
   -2.1970   18.4650  -32.1310 O   0  0  0  0  0  0  0  0  0  0  0  0
   -2.1580   18.6670  -34.5630 O   0  0  0  0  0  0  0  0  0  0  0  0
   -4.5490   18.3680  -33.4140 C   0  0  0  0  0  0  0  0  0  0  0  0
   -4.7970   17.1840  -34.1220 C   0  0  0  0  0  0  0  0  0  0  0  0
   -6.0980   16.6860  -34.2240 C   0  0  0  0  0  0  0  0  0  0  0  0
   -7.1610   17.3750  -33.6330 C   0  0  0  0  0  0  0  0  0  0  0  0
   -6.9260   18.5660  -32.9340 C   0  0  0  0  0  0  0  0  0  0  0  0
   -8.2690   19.4590  -32.2170 S   0  0  0  0  0  0  0  0  0  0  0  0
   -9.4860   19.3010  -33.0860 O   0  0  0  0  0  0  0  0  0  0  0  0
   -8.5850   18.8760  -30.8680 O   0  0  0  0  0  0  0  0  0  0  0  0
   -7.8940   21.1540  -32.0340 N   0  0  0  0  0  0  0  0  0  0  0  0
   -7.0410   21.3640  -30.8440 C   0  0  0  0  0  0  0  0  0  0  0  0
   -6.8960   22.8600  -30.4820 C   0  0  0  0  0  0  0  0  0  0  0  0
   -7.3660   23.7700  -31.6210 C   0  0  0  0  0  0  0  0  0  0  0  0
   -8.8160   23.4500  -32.0220 C   0  0  0  0  0  0  0  0  0  0  0  0
   -9.1320   21.9440  -31.9380 C   0  0  0  0  0  0  0  0  0  0  0  0
   -5.6160   19.0520  -32.8180 C   0  0  0  0  0  0  0  0  0  0  0  0
   -3.1210   22.5100  -31.4680 C   0  0  0  0  0  0  0  0  0  0  0  0
   -4.4390   22.7830  -31.8200 O   0  0  0  0  0  0  0  0  0  0  0  0
   -0.7004   23.5159  -29.2656 H   0  0  0  0  0  0  0  0  0  0  0  0
    0.5123   21.6320  -30.3576 H   0  0  0  0  0  0  0  0  0  0  0  0
   -0.8370   19.6060  -33.1100 H   0  0  0  0  0  0  0  0  0  0  0  0
   -3.9647   16.6455  -34.5987 H   0  0  0  0  0  0  0  0  0  0  0  0
   -6.2864   15.7500  -34.7703 H   0  0  0  0  0  0  0  0  0  0  0  0
   -8.1846   16.9810  -33.7170 H   0  0  0  0  0  0  0  0  0  0  0  0
   -7.4892   20.8353  -29.9898 H   0  0  0  0  0  0  0  0  0  0  0  0
   -6.0384   20.9755  -31.0761 H   0  0  0  0  0  0  0  0  0  0  0  0
   -7.4998   23.0697  -29.5867 H   0  0  0  0  0  0  0  0  0  0  0  0
   -5.8311   23.0652  -30.2982 H   0  0  0  0  0  0  0  0  0  0  0  0
   -7.3072   24.8178  -31.2915 H   0  0  0  0  0  0  0  0  0  0  0  0
   -6.7169   23.6023  -32.4931 H   0  0  0  0  0  0  0  0  0  0  0  0
   -9.4962   23.9915  -31.3481 H   0  0  0  0  0  0  0  0  0  0  0  0
   -8.9505   23.7623  -33.0681 H   0  0  0  0  0  0  0  0  0  0  0  0
   -9.6250   21.7301  -30.9782 H   0  0  0  0  0  0  0  0  0  0  0  0
   -9.7949   21.6714  -32.7724 H   0  0  0  0  0  0  0  0  0  0  0  0
   -5.4248   19.9773  -32.2548 H   0  0  0  0  0  0  0  0  0  0  0  0
  1  2  2  0
  2  3  2  0
  2  4  1  0
  2  5  1  0
  5  6  2  0
  6  7  1  0
  7  8  2  0
  8  9  1  0
  8 10  1  0
 10 11  1  0
 11 12  1  0
 12 13  2  0
 12 14  2  0
 12 15  1  0
 15 16  2  0
 16 17  1  0
 17 18  2  0
 18 19  1  0
 19 20  1  0
 20 21  2  0
 20 22  2  0
 20 23  1  0
 23 24  1  0
 24 25  1  0
 25 26  1  0
 26 27  1  0
 27 28  1  0
 19 29  2  0
 10 30  2  0
 30 31  1  0
 30  5  1  0
 29 15  1  0
 28 23  1  0
  6 32  1  0
  7 33  1  0
  9 34  1  0
 16 35  1  0
 17 36  1  0
 18 37  1  0
 24 38  1  0
 24 39  1  0
 25 40  1  0
 25 41  1  0
 26 42  1  0
 26 43  1  0
 27 44  1  0
 27 45  1  0
 28 46  1  0
 28 47  1  0
 29 48  1  0
M  CHG  3   4  -1  11  -1  31  -1
M  END
>  <UniqueID>  (24) 
24

>  <SMILES>  (24) 
O=S(=O)([O-])c1ccc(O)c([N-]S(=O)(=O)c2cccc(S(=O)(=O)N3CCCCC3)c2)c1[O-]

>  <Energy>  (24) 
60.180726663423755

>  <Genealogy>  (24) 
O=S(=O)([O-])c1ccc(O)c([N-]S(=O)(=O)c2cccc(S(=O)(=O)N3CCCCC3)c2)c1[O-] (protonated)
O=S(=O)([O-])c1ccc(O)c([N-]S(=O)(=O)c2cccc(S(=O)(=O)N3CCCCC3)c2)c1[O-] (3D coordinates assigned)
O=S(=O)([O-])c1ccc(O)c([N-]S(=O)(=O)c2cccc(S(=O)(=O)N3CCCCC3)c2)c1[O-] (nonaromatic ring conformer: 60.180726663423755 kcal/mol)

>  <smiles>  (24) 
O=S(=O)(O)c1ccc(O)c(NS(=O)(=O)c2cccc(S(=O)(=O)N3CCCCC3)c2)c1O

>  <score_type>  (24) 
oracle

>  <origin>  (24) 
adgpu

>  <m_score__min__energy>  (24) 
-15.720000000000001

>  <m_primary>  (24) 
energy

$$$$
24:0
     RDKit          3D

 42 44  0  0  0  0  0  0  0  0999 V2000
   -3.1210   24.2470  -27.4600 C   0  0  0  0  0  0  0  0  0  0  0  0
   -3.7040   24.4880  -28.8110 C   0  0  0  0  0  0  0  0  0  0  0  0
   -4.8740   23.9460  -29.3000 C   0  0  0  0  0  0  0  0  0  0  0  0
   -4.9380   24.4640  -30.5810 C   0  0  0  0  0  0  0  0  0  0  0  0
   -5.8720   24.2550  -31.4590 N   0  0  0  0  0  0  0  0  0  0  0  0
   -7.2670   23.2580  -31.1860 S   0  0  0  0  0  0  0  0  0  0  0  0
   -8.4190   23.7980  -31.9850 O   0  0  0  0  0  0  0  0  0  0  0  0
   -7.6200   23.2970  -29.7270 O   0  0  0  0  0  0  0  0  0  0  0  0
   -6.9190   21.5940  -31.6450 C   0  0  0  0  0  0  0  0  0  0  0  0
   -7.9280   20.6230  -31.6100 C   0  0  0  0  0  0  0  0  0  0  0  0
   -7.6500   19.3060  -31.9850 C   0  0  0  0  0  0  0  0  0  0  0  0
   -6.3630   18.9440  -32.4110 C   0  0  0  0  0  0  0  0  0  0  0  0
   -6.0960   17.5780  -32.7730 N   0  0  0  0  0  0  0  0  0  0  0  0
   -5.6710   17.1650  -34.0820 C   0  0  0  0  0  0  0  0  0  0  0  0
   -5.8360   17.9360  -35.0660 O   0  0  0  0  0  0  0  0  0  0  0  0
   -5.0600   15.8290  -34.2830 C   0  0  0  0  0  0  0  0  0  0  0  0
   -5.7900   14.6520  -34.1150 C   0  0  0  0  0  0  0  0  0  0  0  0
   -4.7750   13.3420  -34.3770 S   0  0  0  0  0  0  0  0  0  0  0  0
   -3.3920   14.2340  -34.7080 C   0  0  0  0  0  0  0  0  0  0  0  0
   -2.0670   13.6330  -35.0540 C   0  0  0  0  0  0  0  0  0  0  0  0
   -3.7050   15.5950  -34.6320 C   0  0  0  0  0  0  0  0  0  0  0  0
   -2.7000   16.6860  -34.8860 C   0  0  0  0  0  0  0  0  0  0  0  0
   -5.3460   19.9170  -32.4190 C   0  0  0  0  0  0  0  0  0  0  0  0
   -5.6260   21.2320  -32.0420 C   0  0  0  0  0  0  0  0  0  0  0  0
   -3.8720   25.2490  -30.8230 N   0  0  0  0  0  0  0  0  0  0  0  0
   -3.1520   25.2370  -29.7390 O   0  0  0  0  0  0  0  0  0  0  0  0
   -3.8461   24.5467  -26.6890 H   0  0  0  0  0  0  0  0  0  0  0  0
   -2.8865   23.1782  -27.3472 H   0  0  0  0  0  0  0  0  0  0  0  0
   -2.2003   24.8383  -27.3472 H   0  0  0  0  0  0  0  0  0  0  0  0
   -5.5807   23.2699  -28.7965 H   0  0  0  0  0  0  0  0  0  0  0  0
   -8.9426   20.8982  -31.2862 H   0  0  0  0  0  0  0  0  0  0  0  0
   -8.4458   18.5476  -31.9460 H   0  0  0  0  0  0  0  0  0  0  0  0
   -6.3280   16.8350  -32.0750 H   0  0  0  0  0  0  0  0  0  0  0  0
   -6.8568   14.5926  -33.8535 H   0  0  0  0  0  0  0  0  0  0  0  0
   -1.5236   13.3865  -34.1299 H   0  0  0  0  0  0  0  0  0  0  0  0
   -2.2224   12.7173  -35.6433 H   0  0  0  0  0  0  0  0  0  0  0  0
   -1.4804   14.3531  -35.6433 H   0  0  0  0  0  0  0  0  0  0  0  0
   -2.3365   17.0806  -33.9257 H   0  0  0  0  0  0  0  0  0  0  0  0
   -1.8538   16.2789  -35.4590 H   0  0  0  0  0  0  0  0  0  0  0  0
   -3.1750   17.4960  -35.4590 H   0  0  0  0  0  0  0  0  0  0  0  0
   -4.3259   19.6402  -32.7236 H   0  0  0  0  0  0  0  0  0  0  0  0
   -4.8266   21.9875  -32.0570 H   0  0  0  0  0  0  0  0  0  0  0  0
  1  2  1  0
  2  3  2  0
  3  4  1  0
  4  5  2  3
  5  6  1  0
  6  7  2  0
  6  8  2  0
  6  9  1  0
  9 10  2  0
 10 11  1  0
 11 12  2  0
 12 13  1  0
 13 14  1  0
 14 15  2  0
 14 16  1  0
 16 17  2  0
 17 18  1  0
 18 19  1  0
 19 20  1  0
 19 21  2  0
 21 22  1  0
 12 23  1  0
 23 24  2  0
  4 25  1  0
 25 26  1  0
 26  2  1  0
 24  9  1  0
 21 16  1  0
  1 27  1  0
  1 28  1  0
  1 29  1  0
  3 30  1  0
 10 31  1  0
 11 32  1  0
 13 33  1  0
 17 34  1  0
 20 35  1  0
 20 36  1  0
 20 37  1  0
 22 38  1  0
 22 39  1  0
 22 40  1  0
 23 41  1  0
 24 42  1  0
M  CHG  1  25  -1
M  END
>  <UniqueID>  (25) 
25

>  <SMILES>  (25) 
Cc1cc(=NS(=O)(=O)c2ccc(NC(=O)c3csc(C)c3C)cc2)[n-]o1

>  <Energy>  (25) 
107.21108210527471

>  <Genealogy>  (25) 
Cc1cc(=NS(=O)(=O)c2ccc(NC(=O)c3csc(C)c3C)cc2)[n-]o1 (protonated)
Cc1cc(=NS(=O)(=O)c2ccc(NC(=O)c3csc(C)c3C)cc2)[n-]o1 (3D coordinates assigned)
Cc1cc(=NS(=O)(=O)c2ccc(NC(=O)c3csc(C)c3C)cc2)[n-]o1 (optimized conformer: 107.21108210527471 kcal/mol)

>  <smiles>  (25) 
Cc1cc(=NS(=O)(=O)c2ccc(NC(=O)c3csc(C)c3C)cc2)[nH]o1

>  <score_type>  (25) 
oracle

>  <origin>  (25) 
adgpu

>  <m_score__min__energy>  (25) 
-10.720000000000001

>  <m_primary>  (25) 
energy

$$$$
25:0
     RDKit          3D

 56 60  0  0  0  0  0  0  0  0999 V2000
    0.0570   30.2907  -24.8538 H   0  0  0  0  0  0  0  0  0  0  0  0
   -0.2300   29.3730  -25.3880 C   0  0  0  0  0  0  0  0  0  0  0  0
   -0.0540   29.1020  -27.0420 S   0  0  0  0  0  0  0  0  0  0  0  0
   -0.6980   27.5510  -27.0300 C   0  0  0  0  0  0  0  0  0  0  0  0
   -1.0460   27.2180  -25.7330 C   0  0  0  0  0  0  0  0  0  0  0  0
   -0.7990   28.2420  -24.8110 C   0  0  0  0  0  0  0  0  0  0  0  0
   -1.0313   28.1607  -23.7389 H   0  0  0  0  0  0  0  0  0  0  0  0
   -1.7120   25.9180  -25.4080 C   0  0  0  0  0  0  0  0  0  0  0  0
   -2.8027   26.0608  -25.4009 H   0  0  0  0  0  0  0  0  0  0  0  0
   -1.3701   25.5781  -24.4193 H   0  0  0  0  0  0  0  0  0  0  0  0
   -1.3470   24.8560  -26.4550 C   0  0  0  0  0  0  0  0  0  0  0  0
   -1.9957   23.9781  -26.3187 H   0  0  0  0  0  0  0  0  0  0  0  0
   -0.2912   24.5783  -26.3205 H   0  0  0  0  0  0  0  0  0  0  0  0
   -1.5260   25.3820  -27.8250 N   0  0  0  0  0  0  0  0  0  0  0  0
   -2.0950   24.5500  -28.8590 C   0  0  0  0  0  0  0  0  0  0  0  0
   -1.4690   23.4090  -29.2530 N   0  0  0  0  0  0  0  0  0  0  0  0
   -2.0060   22.6270  -30.2270 C   0  0  0  0  0  0  0  0  0  0  0  0
   -1.4110   21.5380  -30.6160 N   0  0  0  0  0  0  0  0  0  0  0  0
   -0.1430   21.0390  -30.0830 C   0  0  0  0  0  0  0  0  0  0  0  0
    0.4440   20.5991  -30.9027 H   0  0  0  0  0  0  0  0  0  0  0  0
    0.4019   21.8793  -29.6280 H   0  0  0  0  0  0  0  0  0  0  0  0
   -0.3790   19.9900  -29.0270 C   0  0  0  0  0  0  0  0  0  0  0  0
   -1.4360   20.1330  -28.1110 C   0  0  0  0  0  0  0  0  0  0  0  0
   -2.0868   21.0185  -28.1593 H   0  0  0  0  0  0  0  0  0  0  0  0
   -1.6630   19.1540  -27.1390 C   0  0  0  0  0  0  0  0  0  0  0  0
   -2.4961   19.2667  -26.4296 H   0  0  0  0  0  0  0  0  0  0  0  0
   -0.8320   18.0320  -27.0680 C   0  0  0  0  0  0  0  0  0  0  0  0
   -1.0144   17.2604  -26.3055 H   0  0  0  0  0  0  0  0  0  0  0  0
    0.2290   17.8900  -27.9640 C   0  0  0  0  0  0  0  0  0  0  0  0
    0.8843   17.0085  -27.9040 H   0  0  0  0  0  0  0  0  0  0  0  0
    0.4600   18.8670  -28.9380 C   0  0  0  0  0  0  0  0  0  0  0  0
    1.3020   18.7554  -29.6370 H   0  0  0  0  0  0  0  0  0  0  0  0
   -3.1770   22.9870  -30.8050 N   0  0  0  0  0  0  0  0  0  0  0  0
   -3.8190   24.1200  -30.4120 C   0  0  0  0  0  0  0  0  0  0  0  0
   -4.9370   24.4880  -30.9660 N   0  0  0  0  0  0  0  0  0  0  0  0
   -5.6690   23.7500  -31.9590 C   0  0  0  0  0  0  0  0  0  0  0  0
   -6.6230   24.3220  -32.5500 O   0  0  0  0  0  0  0  0  0  0  0  0
   -5.3780   22.3280  -32.2590 C   0  0  0  0  0  0  0  0  0  0  0  0
   -6.1410   21.3110  -31.6620 C   0  0  0  0  0  0  0  0  0  0  0  0
   -6.9654   21.5733  -30.9826 H   0  0  0  0  0  0  0  0  0  0  0  0
   -5.8590   19.9670  -31.9260 C   0  0  0  0  0  0  0  0  0  0  0  0
   -6.4699   19.1801  -31.4595 H   0  0  0  0  0  0  0  0  0  0  0  0
   -4.8070   19.6140  -32.7780 C   0  0  0  0  0  0  0  0  0  0  0  0
   -4.5620   18.2520  -33.0050 O   0  0  0  0  0  0  0  0  0  0  0  0
   -5.4980   17.3550  -33.5930 C   0  0  0  0  0  0  0  0  0  0  0  0
   -6.0484   16.8276  -32.8000 H   0  0  0  0  0  0  0  0  0  0  0  0
   -6.2059   17.9206  -34.2167 H   0  0  0  0  0  0  0  0  0  0  0  0
   -4.9630   16.6237  -34.2167 H   0  0  0  0  0  0  0  0  0  0  0  0
   -4.0330   20.6290  -33.3700 C   0  0  0  0  0  0  0  0  0  0  0  0
   -3.2037   20.3639  -34.0423 H   0  0  0  0  0  0  0  0  0  0  0  0
   -4.3140   21.9740  -33.1070 C   0  0  0  0  0  0  0  0  0  0  0  0
   -3.6978   22.7605  -33.5672 H   0  0  0  0  0  0  0  0  0  0  0  0
   -3.2700   24.8980  -29.4470 N   0  0  0  0  0  0  0  0  0  0  0  0
   -0.8660   26.6450  -28.2090 C   0  0  0  0  0  0  0  0  0  0  0  0
   -1.4794   27.1537  -28.9673 H   0  0  0  0  0  0  0  0  0  0  0  0
    0.1307   26.4081  -28.6096 H   0  0  0  0  0  0  0  0  0  0  0  0
  1  2  1  0
  2  3  1  0
  3  4  1  0
  4  5  2  0
  5  6  1  0
  6  7  1  0
  5  8  1  0
  8  9  1  0
  8 10  1  0
  8 11  1  0
 11 12  1  0
 11 13  1  0
 11 14  1  0
 14 15  1  0
 15 16  2  0
 16 17  1  0
 17 18  2  0
 18 19  1  0
 19 20  1  0
 19 21  1  0
 19 22  1  0
 22 23  2  0
 23 24  1  0
 23 25  1  0
 25 26  1  0
 25 27  2  0
 27 28  1  0
 27 29  1  0
 29 30  1  0
 29 31  2  0
 31 32  1  0
 17 33  1  0
 33 34  1  0
 34 35  2  3
 35 36  1  0
 36 37  2  0
 36 38  1  0
 38 39  2  0
 39 40  1  0
 39 41  1  0
 41 42  1  0
 41 43  2  0
 43 44  1  0
 44 45  1  0
 45 46  1  0
 45 47  1  0
 45 48  1  0
 43 49  1  0
 49 50  1  0
 49 51  2  0
 51 52  1  0
 34 53  1  0
 14 54  1  0
 54 55  1  0
 54 56  1  0
  6  2  2  0
 53 15  1  0
 54  4  1  0
 31 22  1  0
 51 38  1  0
M  CHG  2  33  -1  53  -1
M  END
>  <UniqueID>  (26) 
26

>  <SMILES>  (26) 
COc1ccc(C(=O)N=c2[n-]c(N3CCc4ccsc4C3)n/c(=N\Cc3ccccc3)[n-]2)cc1

>  <Energy>  (26) 
95.65546620698366

>  <Genealogy>  (26) 
COc1ccc(C(=O)N=c2[n-]c(N3CCc4ccsc4C3)nc(=NCc3ccccc3)[n-]2)cc1 (protonated)
COc1ccc(C(=O)N=c2[n-]c(N3CCc4ccsc4C3)n/c(=N\Cc3ccccc3)[n-]2)cc1 (cis-trans isomerization)
COc1ccc(C(=O)N=c2[n-]c(N3CCc4ccsc4C3)n/c(=N\Cc3ccccc3)[n-]2)cc1 (3D coordinates assigned)
COc1ccc(C(=O)N=c2[n-]c(N3CCc4ccsc4C3)n/c(=N\Cc3ccccc3)[n-]2)cc1 (nonaromatic ring conformer: 95.65546620698366 kcal/mol)

>  <smiles>  (26) 
COc1ccc(C(=O)N=c2[nH]c(N3CCc4ccsc4C3)nc(=NCc3ccccc3)[nH]2)cc1

>  <score_type>  (26) 
oracle

>  <origin>  (26) 
adgpu

>  <m_score__min__energy>  (26) 
-11.779999999999999

>  <m_primary>  (26) 
energy

$$$$
26:0
     RDKit          3D

 54 56  0  0  0  0  0  0  0  0999 V2000
   -9.7540   20.3840  -32.3170 C   0  0  0  0  0  0  0  0  0  0  0  0
   -8.5030   21.2150  -32.2010 C   0  0  0  0  0  0  0  0  0  0  0  0
   -8.6370   22.6110  -32.2830 C   0  0  0  0  0  0  0  0  0  0  0  0
   -7.5310   23.4450  -32.1540 C   0  0  0  0  0  0  0  0  0  0  0  0
   -6.2640   22.9060  -31.9130 C   0  0  0  0  0  0  0  0  0  0  0  0
   -5.1260   23.7690  -31.7680 N   0  0  0  0  0  0  0  0  0  0  0  0
   -5.0470   24.8560  -30.8390 C   0  0  0  0  0  0  0  0  0  0  0  0
   -6.1100   25.3500  -30.3830 O   0  0  0  0  0  0  0  0  0  0  0  0
   -3.7720   25.2960  -30.3510 N   0  0  0  0  0  0  0  0  0  0  0  0
   -2.7770   24.4790  -29.7210 C   0  0  0  0  0  0  0  0  0  0  0  0
   -2.8720   23.0910  -29.8610 C   0  0  0  0  0  0  0  0  0  0  0  0
   -1.9220   22.2470  -29.2720 C   0  0  0  0  0  0  0  0  0  0  0  0
   -2.0860   20.5010  -29.4340 S   0  0  0  0  0  0  0  0  0  0  0  0
   -0.5090   19.7300  -29.1470 C   0  0  0  0  0  0  0  0  0  0  0  0
   -3.0850   19.9940  -28.4310 O   0  0  0  0  0  0  0  0  0  0  0  0
   -2.5680   20.1470  -30.8160 O   0  0  0  0  0  0  0  0  0  0  0  0
   -0.8610   22.8000  -28.5410 C   0  0  0  0  0  0  0  0  0  0  0  0
   -0.7380   24.1860  -28.4270 C   0  0  0  0  0  0  0  0  0  0  0  0
   -1.6790   25.0300  -29.0280 C   0  0  0  0  0  0  0  0  0  0  0  0
   -1.4930   26.4050  -28.9590 O   0  0  0  0  0  0  0  0  0  0  0  0
   -6.1110   21.5140  -31.7830 C   0  0  0  0  0  0  0  0  0  0  0  0
   -4.8550   20.9770  -31.4930 O   0  0  0  0  0  0  0  0  0  0  0  0
   -7.2170   20.6480  -31.9680 C   0  0  0  0  0  0  0  0  0  0  0  0
   -6.9340   18.8820  -31.9550 S   0  0  0  0  0  0  0  0  0  0  0  0
   -5.9920   18.5530  -30.8310 O   0  0  0  0  0  0  0  0  0  0  0  0
   -8.2100   18.1360  -31.6810 O   0  0  0  0  0  0  0  0  0  0  0  0
   -6.2260   18.2430  -33.4940 C   0  0  0  0  0  0  0  0  0  0  0  0
   -5.3090   17.0150  -33.2800 C   0  0  0  0  0  0  0  0  0  0  0  0
   -3.8070   17.3690  -33.2430 C   0  0  0  0  0  0  0  0  0  0  0  0
   -3.6100   18.7520  -32.8020 N   0  0  0  0  0  0  0  0  0  0  0  0
   -4.1170   19.7030  -33.8030 C   0  0  0  0  0  0  0  0  0  0  0  0
   -5.5220   19.3320  -34.3260 C   0  0  0  0  0  0  0  0  0  0  0  0
  -10.1250   20.1375  -31.3112 H   0  0  0  0  0  0  0  0  0  0  0  0
  -10.5222   20.9519  -32.8622 H   0  0  0  0  0  0  0  0  0  0  0  0
   -9.5283   19.4557  -32.8622 H   0  0  0  0  0  0  0  0  0  0  0  0
   -9.6309   23.0511  -32.4517 H   0  0  0  0  0  0  0  0  0  0  0  0
   -7.6542   24.5345  -32.2421 H   0  0  0  0  0  0  0  0  0  0  0  0
   -3.7011   22.6576  -30.4395 H   0  0  0  0  0  0  0  0  0  0  0  0
   -0.3342   19.6446  -28.0643 H   0  0  0  0  0  0  0  0  0  0  0  0
   -0.5032   18.7274  -29.5996 H   0  0  0  0  0  0  0  0  0  0  0  0
    0.2857   20.3412  -29.5996 H   0  0  0  0  0  0  0  0  0  0  0  0
   -0.1249   22.1413  -28.0569 H   0  0  0  0  0  0  0  0  0  0  0  0
    0.1021   24.6166  -27.8624 H   0  0  0  0  0  0  0  0  0  0  0  0
   -4.6890   19.9840  -31.3870 H   0  0  0  0  0  0  0  0  0  0  0  0
   -7.0884   17.8944  -34.0811 H   0  0  0  0  0  0  0  0  0  0  0  0
   -5.5789   16.5408  -32.3248 H   0  0  0  0  0  0  0  0  0  0  0  0
   -5.4626   16.3425  -34.1368 H   0  0  0  0  0  0  0  0  0  0  0  0
   -3.2937   16.6912  -32.5451 H   0  0  0  0  0  0  0  0  0  0  0  0
   -3.3935   17.2594  -34.2564 H   0  0  0  0  0  0  0  0  0  0  0  0
   -2.5830   18.9170  -32.6850 H   0  0  0  0  0  0  0  0  0  0  0  0
   -4.1653   20.7021  -33.3453 H   0  0  0  0  0  0  0  0  0  0  0  0
   -3.4283   19.6787  -34.6604 H   0  0  0  0  0  0  0  0  0  0  0  0
   -6.1472   20.2370  -34.3133 H   0  0  0  0  0  0  0  0  0  0  0  0
   -5.3903   18.9264  -35.3400 H   0  0  0  0  0  0  0  0  0  0  0  0
  1  2  1  0
  2  3  2  0
  3  4  1  0
  4  5  2  0
  5  6  1  0
  6  7  1  0
  7  8  2  0
  7  9  1  0
  9 10  1  0
 10 11  2  0
 11 12  1  0
 12 13  1  0
 13 14  1  0
 13 15  2  0
 13 16  2  0
 12 17  2  0
 17 18  1  0
 18 19  2  0
 19 20  1  0
  5 21  1  0
 21 22  1  0
 21 23  2  0
 23 24  1  0
 24 25  2  0
 24 26  2  0
 24 27  1  0
 27 28  1  0
 28 29  1  0
 29 30  1  0
 30 31  1  0
 31 32  1  0
 23  2  1  0
 32 27  1  0
 19 10  1  0
  1 33  1  0
  1 34  1  0
  1 35  1  0
  3 36  1  0
  4 37  1  0
 11 38  1  0
 14 39  1  0
 14 40  1  0
 14 41  1  0
 17 42  1  0
 18 43  1  0
 22 44  1  0
 27 45  1  0
 28 46  1  0
 28 47  1  0
 29 48  1  0
 29 49  1  0
 30 50  1  0
 31 51  1  0
 31 52  1  0
 32 53  1  0
 32 54  1  0
M  CHG  3   6  -1   9  -1  20  -1
M  END
>  <UniqueID>  (27) 
27

>  <SMILES>  (27) 
Cc1ccc([N-]C(=O)[N-]c2cc(S(C)(=O)=O)ccc2[O-])c(O)c1S(=O)(=O)C1CCNCC1

>  <Energy>  (27) 
69.2133047545624

>  <Genealogy>  (27) 
Cc1ccc([N-]C(=O)[N-]c2cc(S(C)(=O)=O)ccc2[O-])c(O)c1S(=O)(=O)C1CCNCC1 (protonated)
Cc1ccc([N-]C(=O)[N-]c2cc(S(C)(=O)=O)ccc2[O-])c(O)c1S(=O)(=O)C1CCNCC1 (3D coordinates assigned)
Cc1ccc([N-]C(=O)[N-]c2cc(S(C)(=O)=O)ccc2[O-])c(O)c1S(=O)(=O)C1CCNCC1 (nonaromatic ring conformer: 69.2133047545624 kcal/mol)

>  <smiles>  (27) 
Cc1ccc(NC(=O)Nc2cc(S(C)(=O)=O)ccc2O)c(O)c1S(=O)(=O)C1CCNCC1

>  <score_type>  (27) 
oracle

>  <origin>  (27) 
adgpu

>  <m_score__min__energy>  (27) 
-15.23

>  <m_primary>  (27) 
energy

$$$$
27:0
     RDKit          3D

 48 50  0  0  0  0  0  0  0  0999 V2000
   -6.0910   25.2850  -29.6490 C   0  0  0  0  0  0  0  0  0  0  0  0
   -5.0640   24.9820  -30.6910 C   0  0  0  0  0  0  0  0  0  0  0  0
   -3.8580   25.3040  -30.4900 O   0  0  0  0  0  0  0  0  0  0  0  0
   -5.4460   24.2440  -31.8610 N   0  0  0  0  0  0  0  0  0  0  0  0
   -6.4260   23.1970  -31.9230 C   0  0  0  0  0  0  0  0  0  0  0  0
   -7.7570   23.3910  -31.5060 C   0  0  0  0  0  0  0  0  0  0  0  0
   -8.6740   22.3360  -31.5650 C   0  0  0  0  0  0  0  0  0  0  0  0
   -8.2740   21.0820  -32.0350 C   0  0  0  0  0  0  0  0  0  0  0  0
   -6.9480   20.8760  -32.4420 C   0  0  0  0  0  0  0  0  0  0  0  0
   -6.4350   19.3160  -33.0900 S   0  0  0  0  0  0  0  0  0  0  0  0
   -6.2800   19.3790  -34.5850 O   0  0  0  0  0  0  0  0  0  0  0  0
   -7.4620   18.2790  -32.7410 O   0  0  0  0  0  0  0  0  0  0  0  0
   -4.9160   18.8890  -32.3730 N   0  0  0  0  0  0  0  0  0  0  0  0
   -3.8260   19.8090  -32.2660 C   0  0  0  0  0  0  0  0  0  0  0  0
   -3.0580   20.1690  -33.3870 C   0  0  0  0  0  0  0  0  0  0  0  0
   -2.0530   21.1320  -33.2700 C   0  0  0  0  0  0  0  0  0  0  0  0
   -1.8240   21.7600  -32.0430 C   0  0  0  0  0  0  0  0  0  0  0  0
   -2.5870   21.4110  -30.9200 C   0  0  0  0  0  0  0  0  0  0  0  0
   -2.4120   22.3370  -29.4330 S   0  0  0  0  0  0  0  0  0  0  0  0
   -1.7670   23.6670  -29.7210 O   0  0  0  0  0  0  0  0  0  0  0  0
   -3.7750   22.5740  -28.8430 O   0  0  0  0  0  0  0  0  0  0  0  0
   -1.4250   21.4260  -28.3110 N   0  0  0  0  0  0  0  0  0  0  0  0
   -2.1780   21.0910  -27.0790 C   0  0  0  0  0  0  0  0  0  0  0  0
   -2.6670   19.6310  -27.0800 C   0  0  0  0  0  0  0  0  0  0  0  0
   -1.6210   18.6770  -27.2100 O   0  0  0  0  0  0  0  0  0  0  0  0
   -0.5020   19.1510  -27.9500 C   0  0  0  0  0  0  0  0  0  0  0  0
   -0.8570   20.2400  -28.9790 C   0  0  0  0  0  0  0  0  0  0  0  0
   -3.5690   20.4150  -31.0310 C   0  0  0  0  0  0  0  0  0  0  0  0
   -6.0250   21.9310  -32.3640 C   0  0  0  0  0  0  0  0  0  0  0  0
   -5.6493   25.1547  -28.6500 H   0  0  0  0  0  0  0  0  0  0  0  0
   -6.4357   26.3231  -29.7649 H   0  0  0  0  0  0  0  0  0  0  0  0
   -6.9441   24.6003  -29.7649 H   0  0  0  0  0  0  0  0  0  0  0  0
   -8.0767   24.3751  -31.1327 H   0  0  0  0  0  0  0  0  0  0  0  0
   -9.7131   22.4940  -31.2405 H   0  0  0  0  0  0  0  0  0  0  0  0
   -8.9994   20.2566  -32.0856 H   0  0  0  0  0  0  0  0  0  0  0  0
   -3.2490   19.6910  -34.3591 H   0  0  0  0  0  0  0  0  0  0  0  0
   -1.4410   21.3963  -34.1450 H   0  0  0  0  0  0  0  0  0  0  0  0
   -1.0431   22.5301  -31.9581 H   0  0  0  0  0  0  0  0  0  0  0  0
   -1.5224   21.2452  -26.2093 H   0  0  0  0  0  0  0  0  0  0  0  0
   -3.0614   21.7448  -27.0328 H   0  0  0  0  0  0  0  0  0  0  0  0
   -3.1944   19.4410  -26.1336 H   0  0  0  0  0  0  0  0  0  0  0  0
   -3.3207   19.5120  -27.9566 H   0  0  0  0  0  0  0  0  0  0  0  0
    0.2310   19.5669  -27.2430 H   0  0  0  0  0  0  0  0  0  0  0  0
   -0.1027   18.2945  -28.5130 H   0  0  0  0  0  0  0  0  0  0  0  0
    0.0534   20.5334  -29.5223 H   0  0  0  0  0  0  0  0  0  0  0  0
   -1.6054   19.8357  -29.6765 H   0  0  0  0  0  0  0  0  0  0  0  0
   -4.1401   20.1087  -30.1422 H   0  0  0  0  0  0  0  0  0  0  0  0
   -4.9771   21.7609  -32.6522 H   0  0  0  0  0  0  0  0  0  0  0  0
  1  2  1  0
  2  3  2  0
  2  4  1  0
  4  5  1  0
  5  6  2  0
  6  7  1  0
  7  8  2  0
  8  9  1  0
  9 10  1  0
 10 11  2  0
 10 12  2  0
 10 13  1  0
 13 14  1  0
 14 15  2  0
 15 16  1  0
 16 17  2  0
 17 18  1  0
 18 19  1  0
 19 20  2  0
 19 21  2  0
 19 22  1  0
 22 23  1  0
 23 24  1  0
 24 25  1  0
 25 26  1  0
 26 27  1  0
 18 28  2  0
  9 29  2  0
 29  5  1  0
 28 14  1  0
 27 22  1  0
  1 30  1  0
  1 31  1  0
  1 32  1  0
  6 33  1  0
  7 34  1  0
  8 35  1  0
 15 36  1  0
 16 37  1  0
 17 38  1  0
 23 39  1  0
 23 40  1  0
 24 41  1  0
 24 42  1  0
 26 43  1  0
 26 44  1  0
 27 45  1  0
 27 46  1  0
 28 47  1  0
 29 48  1  0
M  CHG  2   4  -1  13  -1
M  END
>  <UniqueID>  (28) 
28

>  <SMILES>  (28) 
CC(=O)[N-]c1cccc(S(=O)(=O)[N-]c2cccc(S(=O)(=O)N3CCOCC3)c2)c1

>  <Energy>  (28) 
65.64619782879915

>  <Genealogy>  (28) 
CC(=O)[N-]c1cccc(S(=O)(=O)[N-]c2cccc(S(=O)(=O)N3CCOCC3)c2)c1 (protonated)
CC(=O)[N-]c1cccc(S(=O)(=O)[N-]c2cccc(S(=O)(=O)N3CCOCC3)c2)c1 (3D coordinates assigned)
CC(=O)[N-]c1cccc(S(=O)(=O)[N-]c2cccc(S(=O)(=O)N3CCOCC3)c2)c1 (nonaromatic ring conformer: 65.64619782879915 kcal/mol)

>  <smiles>  (28) 
CC(=O)Nc1cccc(S(=O)(=O)Nc2cccc(S(=O)(=O)N3CCOCC3)c2)c1

>  <score_type>  (28) 
oracle

>  <origin>  (28) 
adgpu

>  <m_score__min__energy>  (28) 
-11.42

>  <m_primary>  (28) 
energy

$$$$
28:0
     RDKit          3D

 42 44  0  0  0  0  0  0  0  0999 V2000
   -6.6736   12.9378  -35.0146 H   0  0  0  0  0  0  0  0  0  0  0  0
   -6.1870   13.6040  -34.2870 C   0  0  0  0  0  0  0  0  0  0  0  0
   -6.5510   14.9510  -34.2250 C   0  0  0  0  0  0  0  0  0  0  0  0
   -7.3274   15.3411  -34.8995 H   0  0  0  0  0  0  0  0  0  0  0  0
   -5.9270   15.8100  -33.3020 C   0  0  0  0  0  0  0  0  0  0  0  0
   -6.2590   17.2030  -33.2110 N   0  0  0  0  0  0  0  0  0  0  0  0
   -5.4420   18.4820  -34.0510 S   0  0  0  0  0  0  0  0  0  0  0  0
   -4.0020   18.0980  -34.2460 O   0  0  0  0  0  0  0  0  0  0  0  0
   -6.0840   18.6770  -35.3950 O   0  0  0  0  0  0  0  0  0  0  0  0
   -5.5690   19.9800  -33.1350 C   0  0  0  0  0  0  0  0  0  0  0  0
   -6.7440   20.2700  -32.4290 C   0  0  0  0  0  0  0  0  0  0  0  0
   -7.5877   19.5647  -32.4549 H   0  0  0  0  0  0  0  0  0  0  0  0
   -6.8470   21.4530  -31.6920 C   0  0  0  0  0  0  0  0  0  0  0  0
   -7.7711   21.6751  -31.1383 H   0  0  0  0  0  0  0  0  0  0  0  0
   -5.7760   22.3580  -31.6560 C   0  0  0  0  0  0  0  0  0  0  0  0
   -5.8890   23.8550  -30.7390 S   0  0  0  0  0  0  0  0  0  0  0  0
   -7.3370   24.1530  -30.4670 O   0  0  0  0  0  0  0  0  0  0  0  0
   -5.2870   24.9890  -31.5220 O   0  0  0  0  0  0  0  0  0  0  0  0
   -5.0310   23.6640  -29.2460 N   0  0  0  0  0  0  0  0  0  0  0  0
   -3.8600   24.1760  -29.0310 C   0  0  0  0  0  0  0  0  0  0  0  0
   -3.1740   24.9130  -29.9270 N   0  0  0  0  0  0  0  0  0  0  0  0
   -2.0590   25.2480  -29.3420 O   0  0  0  0  0  0  0  0  0  0  0  0
   -1.9990   24.7590  -28.1230 C   0  0  0  0  0  0  0  0  0  0  0  0
   -0.8680   24.9830  -27.1770 C   0  0  0  0  0  0  0  0  0  0  0  0
   -1.2352   24.9103  -26.1427 H   0  0  0  0  0  0  0  0  0  0  0  0
   -0.0928   24.2209  -27.3453 H   0  0  0  0  0  0  0  0  0  0  0  0
   -0.4418   25.9830  -27.3453 H   0  0  0  0  0  0  0  0  0  0  0  0
   -3.1530   24.0490  -27.8590 C   0  0  0  0  0  0  0  0  0  0  0  0
   -3.4362   23.5149  -26.9400 H   0  0  0  0  0  0  0  0  0  0  0  0
   -4.6060   22.0710  -32.3710 C   0  0  0  0  0  0  0  0  0  0  0  0
   -3.7649   22.7797  -32.3523 H   0  0  0  0  0  0  0  0  0  0  0  0
   -4.5030   20.8880  -33.1080 C   0  0  0  0  0  0  0  0  0  0  0  0
   -3.5821   20.6694  -33.6685 H   0  0  0  0  0  0  0  0  0  0  0  0
   -4.9460   15.2980  -32.4440 C   0  0  0  0  0  0  0  0  0  0  0  0
   -4.4478   15.9662  -31.7261 H   0  0  0  0  0  0  0  0  0  0  0  0
   -4.5920   13.9400  -32.4910 C   0  0  0  0  0  0  0  0  0  0  0  0
   -3.5130   13.4030  -31.5980 C   0  0  0  0  0  0  0  0  0  0  0  0
   -3.8020   13.5468  -30.5464 H   0  0  0  0  0  0  0  0  0  0  0  0
   -3.3730   12.3301  -31.7964 H   0  0  0  0  0  0  0  0  0  0  0  0
   -2.5727   13.9383  -31.7964 H   0  0  0  0  0  0  0  0  0  0  0  0
   -5.2080   13.1000  -33.4290 C   0  0  0  0  0  0  0  0  0  0  0  0
   -4.9190   12.0403  -33.4892 H   0  0  0  0  0  0  0  0  0  0  0  0
  1  2  1  0
  2  3  2  0
  3  4  1  0
  3  5  1  0
  5  6  1  0
  6  7  1  0
  7  8  2  0
  7  9  2  0
  7 10  1  0
 10 11  2  0
 11 12  1  0
 11 13  1  0
 13 14  1  0
 13 15  2  0
 15 16  1  0
 16 17  2  0
 16 18  2  0
 16 19  1  0
 19 20  2  0
 20 21  1  0
 21 22  1  0
 22 23  1  0
 23 24  1  0
 24 25  1  0
 24 26  1  0
 24 27  1  0
 23 28  2  0
 28 29  1  0
 15 30  1  0
 30 31  1  0
 30 32  2  0
 32 33  1  0
  5 34  2  0
 34 35  1  0
 34 36  1  0
 36 37  1  0
 37 38  1  0
 37 39  1  0
 37 40  1  0
 36 41  2  0
 41 42  1  0
 41  2  1  0
 32 10  1  0
 28 20  1  0
M  CHG  2   6  -1  21  -1
M  END
>  <UniqueID>  (29) 
29

>  <SMILES>  (29) 
Cc1cccc([N-]S(=O)(=O)c2ccc(S(=O)(=O)/N=c3/cc(C)o[n-]3)cc2)c1

>  <Energy>  (29) 
79.81279051478705

>  <Genealogy>  (29) 
Cc1cccc([N-]S(=O)(=O)c2ccc(S(=O)(=O)N=c3cc(C)o[n-]3)cc2)c1 (protonated)
Cc1cccc([N-]S(=O)(=O)c2ccc(S(=O)(=O)/N=c3/cc(C)o[n-]3)cc2)c1 (cis-trans isomerization)
Cc1cccc([N-]S(=O)(=O)c2ccc(S(=O)(=O)/N=c3/cc(C)o[n-]3)cc2)c1 (3D coordinates assigned)
Cc1cccc([N-]S(=O)(=O)c2ccc(S(=O)(=O)/N=c3/cc(C)o[n-]3)cc2)c1 (optimized conformer: 79.81279051478705 kcal/mol)

>  <smiles>  (29) 
Cc1cccc(NS(=O)(=O)c2ccc(S(=O)(=O)N=c3cc(C)o[nH]3)cc2)c1

>  <score_type>  (29) 
oracle

>  <origin>  (29) 
adgpu

>  <m_score__min__energy>  (29) 
-11.199999999999999

>  <m_primary>  (29) 
energy

$$$$
29:0
     RDKit          3D

 37 39  0  0  0  0  0  0  0  0999 V2000
   -8.3400   22.5760  -30.8020 O   0  0  0  0  0  0  0  0  0  0  0  0
   -7.2090   22.5050  -31.7910 S   0  0  0  0  0  0  0  0  0  0  0  0
   -7.4050   23.6040  -32.8000 O   0  0  0  0  0  0  0  0  0  0  0  0
   -5.6800   22.7590  -30.9450 C   0  0  0  0  0  0  0  0  0  0  0  0
   -5.6720   23.0930  -29.5840 C   0  0  0  0  0  0  0  0  0  0  0  0
   -4.4620   23.2760  -28.9100 C   0  0  0  0  0  0  0  0  0  0  0  0
   -3.2410   23.1310  -29.5890 C   0  0  0  0  0  0  0  0  0  0  0  0
   -1.9940   23.3130  -28.8930 N   0  0  0  0  0  0  0  0  0  0  0  0
   -1.2900   24.4580  -28.7670 C   0  0  0  0  0  0  0  0  0  0  0  0
   -1.6630   25.6730  -29.3310 O   0  0  0  0  0  0  0  0  0  0  0  0
   -0.1410   24.2570  -28.0310 C   0  0  0  0  0  0  0  0  0  0  0  0
   -0.1360   22.9180  -27.6860 C   0  0  0  0  0  0  0  0  0  0  0  0
   -1.2850   22.3760  -28.2310 C   0  0  0  0  0  0  0  0  0  0  0  0
   -1.6810   21.0480  -28.0970 O   0  0  0  0  0  0  0  0  0  0  0  0
   -3.2530   22.8060  -30.9550 C   0  0  0  0  0  0  0  0  0  0  0  0
   -4.4640   22.6250  -31.6280 C   0  0  0  0  0  0  0  0  0  0  0  0
   -7.2500   20.9560  -32.6020 N   0  0  0  0  0  0  0  0  0  0  0  0
   -6.2860   20.0260  -31.9850 C   0  0  0  0  0  0  0  0  0  0  0  0
   -6.6510   18.5700  -32.3140 C   0  0  0  0  0  0  0  0  0  0  0  0
   -7.9400   18.1770  -31.8540 O   0  0  0  0  0  0  0  0  0  0  0  0
   -8.8370   19.2620  -31.6650 C   0  0  0  0  0  0  0  0  0  0  0  0
   -8.6220   20.4100  -32.6690 C   0  0  0  0  0  0  0  0  0  0  0  0
   -6.6229   23.2116  -29.0439 H   0  0  0  0  0  0  0  0  0  0  0  0
   -4.4655   23.5352  -27.8410 H   0  0  0  0  0  0  0  0  0  0  0  0
    0.6179   25.0097  -27.7710 H   0  0  0  0  0  0  0  0  0  0  0  0
    0.6283   22.3904  -27.0966 H   0  0  0  0  0  0  0  0  0  0  0  0
   -1.1360   20.3950  -27.5470 H   0  0  0  0  0  0  0  0  0  0  0  0
   -2.3033   22.6932  -31.4985 H   0  0  0  0  0  0  0  0  0  0  0  0
   -4.4627   22.3760  -32.6995 H   0  0  0  0  0  0  0  0  0  0  0  0
   -5.2785   20.2418  -32.3702 H   0  0  0  0  0  0  0  0  0  0  0  0
   -6.3134   20.1600  -30.8935 H   0  0  0  0  0  0  0  0  0  0  0  0
   -6.6206   18.4443  -33.4064 H   0  0  0  0  0  0  0  0  0  0  0  0
   -5.9201   17.9337  -31.7934 H   0  0  0  0  0  0  0  0  0  0  0  0
   -9.8656   18.8885  -31.7763 H   0  0  0  0  0  0  0  0  0  0  0  0
   -8.6509   19.6682  -30.6598 H   0  0  0  0  0  0  0  0  0  0  0  0
   -8.8040   20.0312  -33.6856 H   0  0  0  0  0  0  0  0  0  0  0  0
   -9.3220   21.2193  -32.4140 H   0  0  0  0  0  0  0  0  0  0  0  0
  1  2  2  0
  2  3  2  0
  2  4  1  0
  4  5  2  0
  5  6  1  0
  6  7  2  0
  7  8  1  0
  8  9  1  0
  9 10  1  0
  9 11  2  0
 11 12  1  0
 12 13  2  0
 13 14  1  0
  7 15  1  0
 15 16  2  0
  2 17  1  0
 17 18  1  0
 18 19  1  0
 19 20  1  0
 20 21  1  0
 21 22  1  0
 16  4  1  0
 22 17  1  0
 13  8  1  0
  5 23  1  0
  6 24  1  0
 11 25  1  0
 12 26  1  0
 14 27  1  0
 15 28  1  0
 16 29  1  0
 18 30  1  0
 18 31  1  0
 19 32  1  0
 19 33  1  0
 21 34  1  0
 21 35  1  0
 22 36  1  0
 22 37  1  0
M  CHG  1  10  -1
M  END
>  <UniqueID>  (30) 
30

>  <SMILES>  (30) 
O=S(=O)(c1ccc(-n2c([O-])ccc2O)cc1)N1CCOCC1

>  <Energy>  (30) 
82.62635531903169

>  <Genealogy>  (30) 
O=S(=O)(c1ccc(-n2c([O-])ccc2O)cc1)N1CCOCC1 (protonated)
O=S(=O)(c1ccc(-n2c([O-])ccc2O)cc1)N1CCOCC1 (3D coordinates assigned)
O=S(=O)(c1ccc(-n2c([O-])ccc2O)cc1)N1CCOCC1 (nonaromatic ring conformer: 82.62635531903169 kcal/mol)

>  <smiles>  (30) 
O=S(=O)(c1ccc(-n2c(O)ccc2O)cc1)N1CCOCC1

>  <score_type>  (30) 
oracle

>  <origin>  (30) 
adgpu

>  <m_score__min__energy>  (30) 
-9.7699999999999996

>  <m_primary>  (30) 
energy

$$$$
30:0
     RDKit          3D

 57 59  0  0  0  0  0  0  0  0999 V2000
   -0.1530   22.6920  -24.0800 C   0  0  0  0  0  0  0  0  0  0  0  0
    0.5080   23.6990  -25.0110 C   0  0  0  0  0  0  0  0  0  0  0  0
    0.7650   23.0880  -26.2720 O   0  0  0  0  0  0  0  0  0  0  0  0
    0.4020   23.6750  -27.4910 C   0  0  0  0  0  0  0  0  0  0  0  0
    1.2830   24.2200  -28.2140 O   0  0  0  0  0  0  0  0  0  0  0  0
   -0.9720   23.6470  -27.9250 N   0  0  0  0  0  0  0  0  0  0  0  0
   -1.2990   24.0200  -29.3100 C   0  0  0  0  0  0  0  0  0  0  0  0
   -2.7740   23.7510  -29.6330 C   0  0  0  0  0  0  0  0  0  0  0  0
   -3.6950   24.3850  -28.5740 C   0  0  0  0  0  0  0  0  0  0  0  0
   -5.0850   23.9810  -28.8610 N   0  0  0  0  0  0  0  0  0  0  0  0
   -5.5410   24.3530  -30.5040 S   0  0  0  0  0  0  0  0  0  0  0  0
   -6.9030   24.9920  -30.4920 O   0  0  0  0  0  0  0  0  0  0  0  0
   -4.5490   25.3110  -31.1020 O   0  0  0  0  0  0  0  0  0  0  0  0
   -5.6120   22.8750  -31.4780 C   0  0  0  0  0  0  0  0  0  0  0  0
   -4.4110   22.2170  -31.7920 C   0  0  0  0  0  0  0  0  0  0  0  0
   -4.4120   21.0500  -32.5650 C   0  0  0  0  0  0  0  0  0  0  0  0
   -2.8960   20.2500  -32.9720 S   0  0  0  0  0  0  0  0  0  0  0  0
   -3.1590   18.8170  -33.3380 O   0  0  0  0  0  0  0  0  0  0  0  0
   -2.2680   20.9430  -34.1470 O   0  0  0  0  0  0  0  0  0  0  0  0
   -1.7990   20.2820  -31.5930 C   0  0  0  0  0  0  0  0  0  0  0  0
   -2.2930   20.4700  -30.2920 C   0  0  0  0  0  0  0  0  0  0  0  0
   -1.4200   20.4520  -29.2000 C   0  0  0  0  0  0  0  0  0  0  0  0
   -0.0520   20.2490  -29.4010 C   0  0  0  0  0  0  0  0  0  0  0  0
    0.4440   20.0580  -30.6940 C   0  0  0  0  0  0  0  0  0  0  0  0
   -0.4270   20.0690  -31.7880 C   0  0  0  0  0  0  0  0  0  0  0  0
   -5.6240   20.5360  -33.0380 C   0  0  0  0  0  0  0  0  0  0  0  0
   -6.8280   21.1680  -32.7220 C   0  0  0  0  0  0  0  0  0  0  0  0
   -6.8390   22.3270  -31.9230 C   0  0  0  0  0  0  0  0  0  0  0  0
   -8.1610   22.9770  -31.6110 C   0  0  0  0  0  0  0  0  0  0  0  0
   -3.2690   24.0280  -27.1170 C   0  0  0  0  0  0  0  0  0  0  0  0
   -2.0230   23.1330  -27.0380 C   0  0  0  0  0  0  0  0  0  0  0  0
    0.0358   22.9797  -23.0352 H   0  0  0  0  0  0  0  0  0  0  0  0
   -1.2371   22.6772  -24.2661 H   0  0  0  0  0  0  0  0  0  0  0  0
    0.2646   21.6915  -24.2661 H   0  0  0  0  0  0  0  0  0  0  0  0
   -0.1605   24.5611  -25.1516 H   0  0  0  0  0  0  0  0  0  0  0  0
    1.4569   24.0367  -24.5689 H   0  0  0  0  0  0  0  0  0  0  0  0
   -1.0925   25.0914  -29.4496 H   0  0  0  0  0  0  0  0  0  0  0  0
   -0.6816   23.4101  -29.9859 H   0  0  0  0  0  0  0  0  0  0  0  0
   -3.0105   24.1792  -30.6182 H   0  0  0  0  0  0  0  0  0  0  0  0
   -2.9396   22.6635  -29.6359 H   0  0  0  0  0  0  0  0  0  0  0  0
   -3.6103   25.4800  -28.6365 H   0  0  0  0  0  0  0  0  0  0  0  0
   -5.7510   24.4600  -28.2100 H   0  0  0  0  0  0  0  0  0  0  0  0
   -3.4572   22.6243  -31.4255 H   0  0  0  0  0  0  0  0  0  0  0  0
   -3.3692   20.6318  -30.1317 H   0  0  0  0  0  0  0  0  0  0  0  0
   -1.8102   20.5977  -28.1819 H   0  0  0  0  0  0  0  0  0  0  0  0
    0.6346   20.2395  -28.5417 H   0  0  0  0  0  0  0  0  0  0  0  0
    1.5210   19.8988  -30.8511 H   0  0  0  0  0  0  0  0  0  0  0  0
   -0.0350   19.9102  -32.8034 H   0  0  0  0  0  0  0  0  0  0  0  0
   -5.6284   19.6299  -33.6616 H   0  0  0  0  0  0  0  0  0  0  0  0
   -7.7756   20.7571  -33.1003 H   0  0  0  0  0  0  0  0  0  0  0  0
   -8.2901   23.0405  -30.5204 H   0  0  0  0  0  0  0  0  0  0  0  0
   -8.1830   23.9887  -32.0423 H   0  0  0  0  0  0  0  0  0  0  0  0
   -8.9756   22.3767  -32.0423 H   0  0  0  0  0  0  0  0  0  0  0  0
   -3.0590   24.9635  -26.5778 H   0  0  0  0  0  0  0  0  0  0  0  0
   -4.0994   23.4620  -26.6696 H   0  0  0  0  0  0  0  0  0  0  0  0
   -1.6505   23.1195  -26.0031 H   0  0  0  0  0  0  0  0  0  0  0  0
   -2.2924   22.1143  -27.3537 H   0  0  0  0  0  0  0  0  0  0  0  0
  1  2  1  0
  2  3  1  0
  3  4  1  0
  4  5  2  0
  4  6  1  0
  6  7  1  0
  7  8  1  0
  8  9  1  0
  9 10  1  0
 10 11  1  0
 11 12  2  0
 11 13  2  0
 11 14  1  0
 14 15  2  0
 15 16  1  0
 16 17  1  0
 17 18  2  0
 17 19  2  0
 17 20  1  0
 20 21  2  0
 21 22  1  0
 22 23  2  0
 23 24  1  0
 24 25  2  0
 16 26  2  0
 26 27  1  0
 27 28  2  0
 28 29  1  0
  9 30  1  0
 30 31  1  0
 31  6  1  0
 28 14  1  0
 25 20  1  0
  1 32  1  0
  1 33  1  0
  1 34  1  0
  2 35  1  0
  2 36  1  0
  7 37  1  0
  7 38  1  0
  8 39  1  0
  8 40  1  0
  9 41  1  0
 10 42  1  0
 15 43  1  0
 21 44  1  0
 22 45  1  0
 23 46  1  0
 24 47  1  0
 25 48  1  0
 26 49  1  0
 27 50  1  0
 29 51  1  0
 29 52  1  0
 29 53  1  0
 30 54  1  0
 30 55  1  0
 31 56  1  0
 31 57  1  0
M  END
>  <UniqueID>  (31) 
31

>  <SMILES>  (31) 
CCOC(=O)N1CCC(NS(=O)(=O)c2cc(S(=O)(=O)c3ccccc3)ccc2C)CC1

>  <Energy>  (31) 
56.234888848727714

>  <Genealogy>  (31) 
CCOC(=O)N1CCC(NS(=O)(=O)c2cc(S(=O)(=O)c3ccccc3)ccc2C)CC1 (3D coordinates assigned)
CCOC(=O)N1CCC(NS(=O)(=O)c2cc(S(=O)(=O)c3ccccc3)ccc2C)CC1 (nonaromatic ring conformer: 56.234888848727714 kcal/mol)

>  <smiles>  (31) 
CCOC(=O)N1CCC(NS(=O)(=O)c2cc(S(=O)(=O)c3ccccc3)ccc2C)CC1

>  <score_type>  (31) 
oracle

>  <origin>  (31) 
adgpu

>  <m_score__min__energy>  (31) 
-10.35

>  <m_primary>  (31) 
energy

$$$$
31:0
     RDKit          3D

 19 20  0  0  0  0  0  0  0  0999 V2000
   -7.2030   19.3780  -33.4110 O   0  0  0  0  0  0  0  0  0  0  0  0
   -7.1900   20.4320  -32.7210 C   0  0  0  0  0  0  0  0  0  0  0  0
   -8.3960   20.8490  -31.9860 C   0  0  0  0  0  0  0  0  0  0  0  0
   -8.4000   21.9650  -31.2480 C   0  0  0  0  0  0  0  0  0  0  0  0
   -7.1990   22.8290  -31.1390 C   0  0  0  0  0  0  0  0  0  0  0  0
   -7.2410   23.9910  -30.3560 C   0  0  0  0  0  0  0  0  0  0  0  0
   -6.1160   24.8100  -30.2470 C   0  0  0  0  0  0  0  0  0  0  0  0
   -4.9340   24.4790  -30.9180 C   0  0  0  0  0  0  0  0  0  0  0  0
   -3.8210   25.3070  -30.7970 O   0  0  0  0  0  0  0  0  0  0  0  0
   -4.8800   23.3190  -31.7020 C   0  0  0  0  0  0  0  0  0  0  0  0
   -6.0070   22.4880  -31.8180 C   0  0  0  0  0  0  0  0  0  0  0  0
   -5.9760   21.2590  -32.6410 C   0  0  0  0  0  0  0  0  0  0  0  0
   -4.9340   20.9190  -33.2630 O   0  0  0  0  0  0  0  0  0  0  0  0
   -9.3064   20.2343  -32.0445 H   0  0  0  0  0  0  0  0  0  0  0  0
   -9.3160   22.2487  -30.7090 H   0  0  0  0  0  0  0  0  0  0  0  0
   -8.1660   24.2590  -29.8244 H   0  0  0  0  0  0  0  0  0  0  0  0
   -6.1591   25.7200  -29.6306 H   0  0  0  0  0  0  0  0  0  0  0  0
   -3.3360   25.6630  -31.6120 H   0  0  0  0  0  0  0  0  0  0  0  0
   -3.9507   23.0576  -32.2293 H   0  0  0  0  0  0  0  0  0  0  0  0
  1  2  2  0
  2  3  1  0
  3  4  2  0
  4  5  1  0
  5  6  2  0
  6  7  1  0
  7  8  2  0
  8  9  1  0
  8 10  1  0
 10 11  2  0
 11 12  1  0
 12 13  2  0
 12  2  1  0
 11  5  1  0
  3 14  1  0
  4 15  1  0
  6 16  1  0
  7 17  1  0
  9 18  1  0
 10 19  1  0
M  END
>  <UniqueID>  (32) 
32

>  <SMILES>  (32) 
O=C1C=Cc2ccc(O)cc2C1=O

>  <Energy>  (32) 
19.777589698421895

>  <Genealogy>  (32) 
O=C1C=Cc2ccc(O)cc2C1=O (3D coordinates assigned)
O=C1C=Cc2ccc(O)cc2C1=O (nonaromatic ring conformer: 19.777589698421895 kcal/mol)

>  <smiles>  (32) 
O=C1C=Cc2ccc(O)cc2C1=O

>  <score_type>  (32) 
oracle

>  <origin>  (32) 
adgpu

>  <m_score__min__energy>  (32) 
-7.4800000000000004

>  <m_primary>  (32) 
energy

$$$$
32:0
     RDKit          3D

 44 46  0  0  0  0  0  0  0  0999 V2000
   -4.6650   14.7980  -32.0500 N   0  0  0  0  0  0  0  0  0  0  0  0
   -5.1900   15.4390  -33.5680 S   0  0  0  0  0  0  0  0  0  0  0  0
   -4.0070   15.6130  -34.4800 O   0  0  0  0  0  0  0  0  0  0  0  0
   -6.1550   14.4820  -34.2070 O   0  0  0  0  0  0  0  0  0  0  0  0
   -5.9690   16.9950  -33.3080 C   0  0  0  0  0  0  0  0  0  0  0  0
   -6.8590   17.1630  -32.2390 C   0  0  0  0  0  0  0  0  0  0  0  0
   -7.4890   18.3950  -32.0340 C   0  0  0  0  0  0  0  0  0  0  0  0
   -7.2490   19.4690  -32.9090 C   0  0  0  0  0  0  0  0  0  0  0  0
   -7.8650   20.7520  -32.7020 N   0  0  0  0  0  0  0  0  0  0  0  0
   -7.2000   21.8900  -32.1290 C   0  0  0  0  0  0  0  0  0  0  0  0
   -7.9240   22.9970  -31.6650 C   0  0  0  0  0  0  0  0  0  0  0  0
   -7.2590   24.1130  -31.1560 C   0  0  0  0  0  0  0  0  0  0  0  0
   -5.8530   24.1510  -31.0970 C   0  0  0  0  0  0  0  0  0  0  0  0
   -5.1960   25.3160  -30.5560 N   0  0  0  0  0  0  0  0  0  0  0  0
   -5.7930   26.0570  -29.7460 O   0  0  0  0  0  0  0  0  0  0  0  0
   -3.8780   25.5870  -30.8430 O   0  0  0  0  0  0  0  0  0  0  0  0
   -5.1150   23.0390  -31.5710 C   0  0  0  0  0  0  0  0  0  0  0  0
   -3.6800   23.0890  -31.5930 N   0  0  0  0  0  0  0  0  0  0  0  0
   -2.7940   22.6900  -30.5390 C   0  0  0  0  0  0  0  0  0  0  0  0
   -2.0630   21.6710  -30.6800 O   0  0  0  0  0  0  0  0  0  0  0  0
   -2.7720   23.4430  -29.2630 C   0  0  0  0  0  0  0  0  0  0  0  0
   -3.8630   23.3770  -28.3740 C   0  0  0  0  0  0  0  0  0  0  0  0
   -3.8390   24.0890  -27.1710 C   0  0  0  0  0  0  0  0  0  0  0  0
   -2.7320   24.8730  -26.8420 C   0  0  0  0  0  0  0  0  0  0  0  0
   -1.6440   24.9480  -27.7140 C   0  0  0  0  0  0  0  0  0  0  0  0
   -1.6610   24.2370  -28.9190 C   0  0  0  0  0  0  0  0  0  0  0  0
   -5.8010   21.9310  -32.1060 C   0  0  0  0  0  0  0  0  0  0  0  0
   -6.3460   19.3010  -33.9680 C   0  0  0  0  0  0  0  0  0  0  0  0
   -5.7170   18.0690  -34.1720 C   0  0  0  0  0  0  0  0  0  0  0  0
   -5.2430   15.2560  -31.3090 H   0  0  0  0  0  0  0  0  0  0  0  0
   -3.6820   15.1190  -31.9070 H   0  0  0  0  0  0  0  0  0  0  0  0
   -7.0630   16.3231  -31.5585 H   0  0  0  0  0  0  0  0  0  0  0  0
   -8.1754   18.5241  -31.1842 H   0  0  0  0  0  0  0  0  0  0  0  0
   -8.8650   20.8640  -32.9870 H   0  0  0  0  0  0  0  0  0  0  0  0
   -9.0233   22.9858  -31.7024 H   0  0  0  0  0  0  0  0  0  0  0  0
   -7.8409   24.9743  -30.7961 H   0  0  0  0  0  0  0  0  0  0  0  0
   -4.7388   22.7617  -28.6279 H   0  0  0  0  0  0  0  0  0  0  0  0
   -4.6946   24.0312  -26.4821 H   0  0  0  0  0  0  0  0  0  0  0  0
   -2.7167   25.4323  -25.8949 H   0  0  0  0  0  0  0  0  0  0  0  0
   -0.7726   25.5667  -27.4534 H   0  0  0  0  0  0  0  0  0  0  0  0
   -0.8010   24.2987  -29.6020 H   0  0  0  0  0  0  0  0  0  0  0  0
   -5.2281   21.0844  -32.5122 H   0  0  0  0  0  0  0  0  0  0  0  0
   -6.1311   20.1431  -34.6423 H   0  0  0  0  0  0  0  0  0  0  0  0
   -5.0212   17.9423  -35.0145 H   0  0  0  0  0  0  0  0  0  0  0  0
  1  2  1  0
  2  3  2  0
  2  4  2  0
  2  5  1  0
  5  6  2  0
  6  7  1  0
  7  8  2  0
  8  9  1  0
  9 10  1  0
 10 11  2  0
 11 12  1  0
 12 13  2  0
 13 14  1  0
 14 15  2  0
 14 16  1  0
 13 17  1  0
 17 18  1  0
 18 19  1  0
 19 20  2  0
 19 21  1  0
 21 22  2  0
 22 23  1  0
 23 24  2  0
 24 25  1  0
 25 26  2  0
 17 27  2  0
  8 28  1  0
 28 29  2  0
 29  5  1  0
 27 10  1  0
 26 21  1  0
  1 30  1  0
  1 31  1  0
  6 32  1  0
  7 33  1  0
  9 34  1  0
 11 35  1  0
 12 36  1  0
 22 37  1  0
 23 38  1  0
 24 39  1  0
 25 40  1  0
 26 41  1  0
 27 42  1  0
 28 43  1  0
 29 44  1  0
M  CHG  3  14   1  16  -1  18  -1
M  END
>  <UniqueID>  (33) 
33

>  <SMILES>  (33) 
NS(=O)(=O)c1ccc(Nc2ccc([N+](=O)[O-])c([N-]C(=O)c3ccccc3)c2)cc1

>  <Energy>  (33) 
59.0089026564107

>  <Genealogy>  (33) 
NS(=O)(=O)c1ccc(Nc2ccc([N+](=O)[O-])c([N-]C(=O)c3ccccc3)c2)cc1 (protonated)
NS(=O)(=O)c1ccc(Nc2ccc([N+](=O)[O-])c([N-]C(=O)c3ccccc3)c2)cc1 (3D coordinates assigned)
NS(=O)(=O)c1ccc(Nc2ccc([N+](=O)[O-])c([N-]C(=O)c3ccccc3)c2)cc1 (optimized conformer: 59.0089026564107 kcal/mol)

>  <smiles>  (33) 
NS(=O)(=O)c1ccc(Nc2ccc([N+](=O)[O-])c(NC(=O)c3ccccc3)c2)cc1

>  <score_type>  (33) 
oracle

>  <origin>  (33) 
adgpu

>  <m_score__min__energy>  (33) 
-10.539999999999999

>  <m_primary>  (33) 
energy

$$$$
33:0
     RDKit          3D

 53 55  0  0  0  0  0  0  0  0999 V2000
   -0.8890   26.1810  -27.8260 C   0  0  0  0  0  0  0  0  0  0  0  0
   -1.3670   25.6950  -29.0740 O   0  0  0  0  0  0  0  0  0  0  0  0
   -1.8920   24.4090  -29.2360 C   0  0  0  0  0  0  0  0  0  0  0  0
   -1.2160   23.3300  -28.7490 N   0  0  0  0  0  0  0  0  0  0  0  0
   -1.6490   22.0490  -28.9180 C   0  0  0  0  0  0  0  0  0  0  0  0
   -0.8710   20.9550  -28.3860 N   0  0  0  0  0  0  0  0  0  0  0  0
    0.5050   21.1840  -27.9330 C   0  0  0  0  0  0  0  0  0  0  0  0
    1.3410   19.9280  -28.1950 C   0  0  0  0  0  0  0  0  0  0  0  0
    0.8020   18.7330  -27.5060 N   0  0  0  0  0  0  0  0  0  0  0  0
    1.2290   17.2810  -28.3830 S   0  0  0  0  0  0  0  0  0  0  0  0
    1.1400   15.8610  -27.3120 C   0  0  0  0  0  0  0  0  0  0  0  0
    2.6230   17.3990  -28.9310 O   0  0  0  0  0  0  0  0  0  0  0  0
    0.2660   17.0780  -29.5200 O   0  0  0  0  0  0  0  0  0  0  0  0
   -0.6530   18.7760  -27.2280 C   0  0  0  0  0  0  0  0  0  0  0  0
   -1.4450   19.6080  -28.2480 C   0  0  0  0  0  0  0  0  0  0  0  0
   -2.8330   21.8240  -29.6410 C   0  0  0  0  0  0  0  0  0  0  0  0
   -3.5460   22.9080  -30.1510 C   0  0  0  0  0  0  0  0  0  0  0  0
   -3.1010   24.2140  -29.9280 C   0  0  0  0  0  0  0  0  0  0  0  0
   -3.8560   25.3050  -30.4740 N   0  0  0  0  0  0  0  0  0  0  0  0
   -5.2470   25.2660  -30.8090 C   0  0  0  0  0  0  0  0  0  0  0  0
   -6.0900   25.8710  -30.0940 O   0  0  0  0  0  0  0  0  0  0  0  0
   -5.6600   24.5270  -31.9650 N   0  0  0  0  0  0  0  0  0  0  0  0
   -6.3890   23.2900  -31.9820 C   0  0  0  0  0  0  0  0  0  0  0  0
   -5.6980   22.1120  -32.2970 C   0  0  0  0  0  0  0  0  0  0  0  0
   -6.3600   20.8800  -32.2990 C   0  0  0  0  0  0  0  0  0  0  0  0
   -7.7180   20.8130  -31.9760 C   0  0  0  0  0  0  0  0  0  0  0  0
   -8.5740   19.2340  -31.9960 S   0  0  0  0  0  0  0  0  0  0  0  0
   -7.1790   18.3030  -32.7140 C   0  0  0  0  0  0  0  0  0  0  0  0
   -7.6050   17.0290  -33.0270 F   0  0  0  0  0  0  0  0  0  0  0  0
   -6.1420   18.2210  -31.8040 F   0  0  0  0  0  0  0  0  0  0  0  0
   -6.7360   18.9250  -33.8660 F   0  0  0  0  0  0  0  0  0  0  0  0
   -8.4130   21.9830  -31.6480 C   0  0  0  0  0  0  0  0  0  0  0  0
   -7.7510   23.2150  -31.6350 C   0  0  0  0  0  0  0  0  0  0  0  0
   -1.4040   25.6574  -27.0071 H   0  0  0  0  0  0  0  0  0  0  0  0
    0.1937   26.0010  -27.7528 H   0  0  0  0  0  0  0  0  0  0  0  0
   -1.0870   27.2606  -27.7528 H   0  0  0  0  0  0  0  0  0  0  0  0
    0.9361   22.0335  -28.4830 H   0  0  0  0  0  0  0  0  0  0  0  0
    0.5054   21.4083  -26.8561 H   0  0  0  0  0  0  0  0  0  0  0  0
    1.3561   19.7340  -29.2776 H   0  0  0  0  0  0  0  0  0  0  0  0
    2.3520   20.1120  -27.8025 H   0  0  0  0  0  0  0  0  0  0  0  0
    1.1607   16.1911  -26.2629 H   0  0  0  0  0  0  0  0  0  0  0  0
    0.2058   15.3136  -27.5058 H   0  0  0  0  0  0  0  0  0  0  0  0
    1.9986   15.2012  -27.5058 H   0  0  0  0  0  0  0  0  0  0  0  0
   -1.0410   17.7468  -27.2412 H   0  0  0  0  0  0  0  0  0  0  0  0
   -0.7820   19.2566  -26.2470 H   0  0  0  0  0  0  0  0  0  0  0  0
   -1.4165   19.1027  -29.2246 H   0  0  0  0  0  0  0  0  0  0  0  0
   -2.4823   19.7027  -27.8943 H   0  0  0  0  0  0  0  0  0  0  0  0
   -3.1952   20.7981  -29.8036 H   0  0  0  0  0  0  0  0  0  0  0  0
   -4.4638   22.7345  -30.7320 H   0  0  0  0  0  0  0  0  0  0  0  0
   -4.6271   22.1568  -32.5445 H   0  0  0  0  0  0  0  0  0  0  0  0
   -5.8107   19.9621  -32.5553 H   0  0  0  0  0  0  0  0  0  0  0  0
   -9.4834   21.9333  -31.3996 H   0  0  0  0  0  0  0  0  0  0  0  0
   -8.2962   24.1277  -31.3528 H   0  0  0  0  0  0  0  0  0  0  0  0
  1  2  1  0
  2  3  1  0
  3  4  2  0
  4  5  1  0
  5  6  1  0
  6  7  1  0
  7  8  1  0
  8  9  1  0
  9 10  1  0
 10 11  1  0
 10 12  2  0
 10 13  2  0
  9 14  1  0
 14 15  1  0
  5 16  2  0
 16 17  1  0
 17 18  2  0
 18 19  1  0
 19 20  1  0
 20 21  2  0
 20 22  1  0
 22 23  1  0
 23 24  2  0
 24 25  1  0
 25 26  2  0
 26 27  1  0
 27 28  1  0
 28 29  1  0
 28 30  1  0
 28 31  1  0
 26 32  1  0
 32 33  2  0
 18  3  1  0
 33 23  1  0
 15  6  1  0
  1 34  1  0
  1 35  1  0
  1 36  1  0
  7 37  1  0
  7 38  1  0
  8 39  1  0
  8 40  1  0
 11 41  1  0
 11 42  1  0
 11 43  1  0
 14 44  1  0
 14 45  1  0
 15 46  1  0
 15 47  1  0
 16 48  1  0
 17 49  1  0
 24 50  1  0
 25 51  1  0
 32 52  1  0
 33 53  1  0
M  CHG  2  19  -1  22  -1
M  END
>  <UniqueID>  (34) 
34

>  <SMILES>  (34) 
COc1nc(N2CCN(S(C)(=O)=O)CC2)ccc1[N-]C(=O)[N-]c1ccc(SC(F)(F)F)cc1

>  <Energy>  (34) 
60.27028557244905

>  <Genealogy>  (34) 
COc1nc(N2CCN(S(C)(=O)=O)CC2)ccc1[N-]C(=O)[N-]c1ccc(SC(F)(F)F)cc1 (protonated)
COc1nc(N2CCN(S(C)(=O)=O)CC2)ccc1[N-]C(=O)[N-]c1ccc(SC(F)(F)F)cc1 (3D coordinates assigned)
COc1nc(N2CCN(S(C)(=O)=O)CC2)ccc1[N-]C(=O)[N-]c1ccc(SC(F)(F)F)cc1 (nonaromatic ring conformer: 60.27028557244905 kcal/mol)

>  <smiles>  (34) 
COc1nc(N2CCN(S(C)(=O)=O)CC2)ccc1NC(=O)Nc1ccc(SC(F)(F)F)cc1

>  <score_type>  (34) 
oracle

>  <origin>  (34) 
adgpu

>  <m_score__min__energy>  (34) 
-11.41

>  <m_primary>  (34) 
energy

$$$$
34:0
     RDKit          3D

 44 46  0  0  0  0  0  0  0  0999 V2000
   -9.5030   19.8780  -32.5670 C   0  0  0  0  0  0  0  0  0  0  0  0
   -8.0820   19.9080  -32.2110 N   0  0  0  0  0  0  0  0  0  0  0  0
   -7.4460   21.1540  -31.8470 C   0  0  0  0  0  0  0  0  0  0  0  0
   -7.7880   21.8150  -30.6510 C   0  0  0  0  0  0  0  0  0  0  0  0
   -7.1760   23.0220  -30.3030 C   0  0  0  0  0  0  0  0  0  0  0  0
   -6.2130   23.5890  -31.1430 C   0  0  0  0  0  0  0  0  0  0  0  0
   -5.5780   24.8300  -30.7810 C   0  0  0  0  0  0  0  0  0  0  0  0
   -5.0680   25.8270  -30.4900 N   0  0  0  0  0  0  0  0  0  0  0  0
   -5.8660   22.9460  -32.3360 C   0  0  0  0  0  0  0  0  0  0  0  0
   -6.4800   21.7400  -32.6880 C   0  0  0  0  0  0  0  0  0  0  0  0
   -7.1780   18.4180  -32.2240 S   0  0  0  0  0  0  0  0  0  0  0  0
   -7.8920   17.4200  -33.0940 O   0  0  0  0  0  0  0  0  0  0  0  0
   -7.0940   17.8530  -30.8340 O   0  0  0  0  0  0  0  0  0  0  0  0
   -5.5500   18.7080  -32.8320 C   0  0  0  0  0  0  0  0  0  0  0  0
   -5.1780   18.2770  -34.1120 C   0  0  0  0  0  0  0  0  0  0  0  0
   -3.8850   18.5170  -34.5890 C   0  0  0  0  0  0  0  0  0  0  0  0
   -2.9410   19.1860  -33.7880 C   0  0  0  0  0  0  0  0  0  0  0  0
   -1.5680   19.4480  -34.2840 C   0  0  0  0  0  0  0  0  0  0  0  0
   -0.7770   18.4800  -34.4580 O   0  0  0  0  0  0  0  0  0  0  0  0
   -1.1450   20.7820  -34.6160 N   0  0  0  0  0  0  0  0  0  0  0  0
    0.2330   21.1780  -34.7260 C   0  0  0  0  0  0  0  0  0  0  0  0
    1.2350   20.3700  -34.1690 C   0  0  0  0  0  0  0  0  0  0  0  0
    2.5770   20.7350  -34.2880 C   0  0  0  0  0  0  0  0  0  0  0  0
    2.9090   21.9020  -34.9770 C   0  0  0  0  0  0  0  0  0  0  0  0
    1.9320   22.6660  -35.5330 N   0  0  0  0  0  0  0  0  0  0  0  0
    0.6170   22.3320  -35.4290 C   0  0  0  0  0  0  0  0  0  0  0  0
   -3.3260   19.6230  -32.5070 C   0  0  0  0  0  0  0  0  0  0  0  0
   -4.6180   19.3820  -32.0340 C   0  0  0  0  0  0  0  0  0  0  0  0
  -10.1105   19.8652  -31.6501 H   0  0  0  0  0  0  0  0  0  0  0  0
   -9.7516   20.7711  -33.1591 H   0  0  0  0  0  0  0  0  0  0  0  0
   -9.7137   18.9752  -33.1591 H   0  0  0  0  0  0  0  0  0  0  0  0
   -8.5448   21.3764  -29.9840 H   0  0  0  0  0  0  0  0  0  0  0  0
   -7.4526   23.5273  -29.3659 H   0  0  0  0  0  0  0  0  0  0  0  0
   -5.1085   23.3901  -32.9986 H   0  0  0  0  0  0  0  0  0  0  0  0
   -6.2059   21.2441  -33.6309 H   0  0  0  0  0  0  0  0  0  0  0  0
   -5.9057   17.7476  -34.7447 H   0  0  0  0  0  0  0  0  0  0  0  0
   -3.6041   18.1802  -35.5978 H   0  0  0  0  0  0  0  0  0  0  0  0
   -1.8750   21.4700  -34.9090 H   0  0  0  0  0  0  0  0  0  0  0  0
    0.9626   19.4465  -33.6371 H   0  0  0  0  0  0  0  0  0  0  0  0
    3.3647   20.1091  -33.8432 H   0  0  0  0  0  0  0  0  0  0  0  0
    3.9626   22.2040  -35.0703 H   0  0  0  0  0  0  0  0  0  0  0  0
   -0.1484   22.9682  -35.8973 H   0  0  0  0  0  0  0  0  0  0  0  0
   -2.6039   20.1586  -31.8732 H   0  0  0  0  0  0  0  0  0  0  0  0
   -4.9048   19.7238  -31.0286 H   0  0  0  0  0  0  0  0  0  0  0  0
  1  2  1  0
  2  3  1  0
  3  4  2  0
  4  5  1  0
  5  6  2  0
  6  7  1  0
  7  8  3  0
  6  9  1  0
  9 10  2  0
  2 11  1  0
 11 12  2  0
 11 13  2  0
 11 14  1  0
 14 15  2  0
 15 16  1  0
 16 17  2  0
 17 18  1  0
 18 19  2  0
 18 20  1  0
 20 21  1  0
 21 22  2  0
 22 23  1  0
 23 24  2  0
 24 25  1  0
 25 26  2  0
 17 27  1  0
 27 28  2  0
 10  3  1  0
 28 14  1  0
 26 21  1  0
  1 29  1  0
  1 30  1  0
  1 31  1  0
  4 32  1  0
  5 33  1  0
  9 34  1  0
 10 35  1  0
 15 36  1  0
 16 37  1  0
 20 38  1  0
 22 39  1  0
 23 40  1  0
 24 41  1  0
 26 42  1  0
 27 43  1  0
 28 44  1  0
M  END
>  <UniqueID>  (35) 
35

>  <SMILES>  (35) 
CN(c1ccc(C#N)cc1)S(=O)(=O)c1ccc(C(=O)Nc2cccnc2)cc1

>  <Energy>  (35) 
56.621098309971366

>  <Genealogy>  (35) 
CN(c1ccc(C#N)cc1)S(=O)(=O)c1ccc(C(=O)Nc2cccnc2)cc1 (3D coordinates assigned)
CN(c1ccc(C#N)cc1)S(=O)(=O)c1ccc(C(=O)Nc2cccnc2)cc1 (optimized conformer: 56.621098309971366 kcal/mol)

>  <smiles>  (35) 
CN(c1ccc(C#N)cc1)S(=O)(=O)c1ccc(C(=O)Nc2cccnc2)cc1

>  <score_type>  (35) 
oracle

>  <origin>  (35) 
adgpu

>  <m_score__min__energy>  (35) 
-9.4700000000000006

>  <m_primary>  (35) 
energy

$$$$
35:0
     RDKit          3D

 53 55  0  0  0  0  0  0  0  0999 V2000
   -4.9730   24.5440  -28.6260 N   0  0  0  0  0  0  0  0  0  0  0  0
   -6.0520   24.9900  -29.8990 S   0  0  0  0  0  0  0  0  0  0  0  0
   -5.3380   25.8940  -30.8660 O   0  0  0  0  0  0  0  0  0  0  0  0
   -7.2260   25.7330  -29.3250 O   0  0  0  0  0  0  0  0  0  0  0  0
   -6.6120   23.5440  -30.7340 C   0  0  0  0  0  0  0  0  0  0  0  0
   -6.0970   23.2110  -31.9940 C   0  0  0  0  0  0  0  0  0  0  0  0
   -6.5260   22.0510  -32.6460 C   0  0  0  0  0  0  0  0  0  0  0  0
   -7.4800   21.2130  -32.0460 C   0  0  0  0  0  0  0  0  0  0  0  0
   -7.9110   19.9430  -32.7320 C   0  0  0  0  0  0  0  0  0  0  0  0
   -6.9170   19.5350  -33.8240 C   0  0  0  0  0  0  0  0  0  0  0  0
   -6.5610   18.1190  -33.7020 N   0  0  0  0  0  0  0  0  0  0  0  0
   -5.4850   17.8510  -32.3610 S   0  0  0  0  0  0  0  0  0  0  0  0
   -4.9230   16.4590  -32.4180 O   0  0  0  0  0  0  0  0  0  0  0  0
   -6.2460   18.0080  -31.0750 O   0  0  0  0  0  0  0  0  0  0  0  0
   -4.1840   19.0380  -32.4100 C   0  0  0  0  0  0  0  0  0  0  0  0
   -3.0770   18.8230  -33.2390 C   0  0  0  0  0  0  0  0  0  0  0  0
   -2.0070   19.7210  -33.2290 C   0  0  0  0  0  0  0  0  0  0  0  0
   -2.0300   20.8300  -32.3790 C   0  0  0  0  0  0  0  0  0  0  0  0
   -3.1350   21.0560  -31.5460 C   0  0  0  0  0  0  0  0  0  0  0  0
   -3.1210   22.4020  -30.4090 S   0  0  0  0  0  0  0  0  0  0  0  0
   -3.5000   23.6620  -31.1370 O   0  0  0  0  0  0  0  0  0  0  0  0
   -4.1160   22.1820  -29.3030 O   0  0  0  0  0  0  0  0  0  0  0  0
   -1.5210   22.5880  -29.7680 N   0  0  0  0  0  0  0  0  0  0  0  0
   -1.2040   22.7830  -28.3810 C   0  0  0  0  0  0  0  0  0  0  0  0
   -0.8730   21.6850  -27.5630 C   0  0  0  0  0  0  0  0  0  0  0  0
   -0.5650   21.8680  -26.2170 C   0  0  0  0  0  0  0  0  0  0  0  0
   -0.5870   23.1440  -25.6620 C   0  0  0  0  0  0  0  0  0  0  0  0
   -0.9350   24.2420  -26.4480 C   0  0  0  0  0  0  0  0  0  0  0  0
   -1.2530   24.0820  -27.8130 C   0  0  0  0  0  0  0  0  0  0  0  0
   -1.6050   25.2860  -28.6170 C   0  0  0  0  0  0  0  0  0  0  0  0
   -0.8950   26.3250  -28.5470 O   0  0  0  0  0  0  0  0  0  0  0  0
   -2.7050   25.2920  -29.4650 O   0  0  0  0  0  0  0  0  0  0  0  0
   -4.2160   20.1630  -31.5730 C   0  0  0  0  0  0  0  0  0  0  0  0
   -7.9830   21.5410  -30.7760 C   0  0  0  0  0  0  0  0  0  0  0  0
   -7.5500   22.7000  -30.1240 C   0  0  0  0  0  0  0  0  0  0  0  0
   -5.3360   23.6540  -28.2160 H   0  0  0  0  0  0  0  0  0  0  0  0
   -4.0550   24.3160  -29.0720 H   0  0  0  0  0  0  0  0  0  0  0  0
   -5.3525   23.8647  -32.4719 H   0  0  0  0  0  0  0  0  0  0  0  0
   -6.1145   21.7936  -33.6331 H   0  0  0  0  0  0  0  0  0  0  0  0
   -7.9748   19.1369  -31.9863 H   0  0  0  0  0  0  0  0  0  0  0  0
   -8.8903   20.1173  -33.2016 H   0  0  0  0  0  0  0  0  0  0  0  0
   -7.3733   19.7083  -34.8098 H   0  0  0  0  0  0  0  0  0  0  0  0
   -6.0041   20.1385  -33.7127 H   0  0  0  0  0  0  0  0  0  0  0  0
   -3.0495   17.9444  -33.9003 H   0  0  0  0  0  0  0  0  0  0  0  0
   -1.1447   19.5549  -33.8914 H   0  0  0  0  0  0  0  0  0  0  0  0
   -1.1793   21.5272  -32.3634 H   0  0  0  0  0  0  0  0  0  0  0  0
   -0.8576   20.6722  -27.9918 H   0  0  0  0  0  0  0  0  0  0  0  0
   -0.3038   21.0019  -25.5912 H   0  0  0  0  0  0  0  0  0  0  0  0
   -0.3296   23.2866  -24.6021 H   0  0  0  0  0  0  0  0  0  0  0  0
   -0.9619   25.2454  -25.9980 H   0  0  0  0  0  0  0  0  0  0  0  0
   -5.0931   20.3457  -30.9348 H   0  0  0  0  0  0  0  0  0  0  0  0
   -8.7205   20.8835  -30.2924 H   0  0  0  0  0  0  0  0  0  0  0  0
   -7.9470   22.9500  -29.1291 H   0  0  0  0  0  0  0  0  0  0  0  0
  1  2  1  0
  2  3  2  0
  2  4  2  0
  2  5  1  0
  5  6  2  0
  6  7  1  0
  7  8  2  0
  8  9  1  0
  9 10  1  0
 10 11  1  0
 11 12  1  0
 12 13  2  0
 12 14  2  0
 12 15  1  0
 15 16  2  0
 16 17  1  0
 17 18  2  0
 18 19  1  0
 19 20  1  0
 20 21  2  0
 20 22  2  0
 20 23  1  0
 23 24  1  0
 24 25  2  0
 25 26  1  0
 26 27  2  0
 27 28  1  0
 28 29  2  0
 29 30  1  0
 30 31  2  0
 30 32  1  0
 19 33  2  0
  8 34  1  0
 34 35  2  0
 35  5  1  0
 33 15  1  0
 29 24  1  0
  1 36  1  0
  1 37  1  0
  6 38  1  0
  7 39  1  0
  9 40  1  0
  9 41  1  0
 10 42  1  0
 10 43  1  0
 16 44  1  0
 17 45  1  0
 18 46  1  0
 25 47  1  0
 26 48  1  0
 27 49  1  0
 28 50  1  0
 33 51  1  0
 34 52  1  0
 35 53  1  0
M  CHG  3  11  -1  23  -1  32  -1
M  END
>  <UniqueID>  (36) 
36

>  <SMILES>  (36) 
NS(=O)(=O)c1ccc(CC[N-]S(=O)(=O)c2cccc(S(=O)(=O)[N-]c3ccccc3C(=O)[O-])c2)cc1

>  <Energy>  (36) 
57.232185074424315

>  <Genealogy>  (36) 
NS(=O)(=O)c1ccc(CC[N-]S(=O)(=O)c2cccc(S(=O)(=O)[N-]c3ccccc3C(=O)[O-])c2)cc1 (protonated)
NS(=O)(=O)c1ccc(CC[N-]S(=O)(=O)c2cccc(S(=O)(=O)[N-]c3ccccc3C(=O)[O-])c2)cc1 (3D coordinates assigned)
NS(=O)(=O)c1ccc(CC[N-]S(=O)(=O)c2cccc(S(=O)(=O)[N-]c3ccccc3C(=O)[O-])c2)cc1 (optimized conformer: 57.232185074424315 kcal/mol)

>  <smiles>  (36) 
NS(=O)(=O)c1ccc(CCNS(=O)(=O)c2cccc(S(=O)(=O)Nc3ccccc3C(=O)O)c2)cc1

>  <score_type>  (36) 
oracle

>  <origin>  (36) 
adgpu

>  <m_score__min__energy>  (36) 
-13.710000000000001

>  <m_primary>  (36) 
energy

$$$$
36:0
     RDKit          3D

 47 50  0  0  0  0  0  0  0  0999 V2000
   -4.2640   15.2550  -34.2150 C   0  0  0  0  0  0  0  0  0  0  0  0
   -5.2670   16.2580  -34.6080 N   0  0  0  0  0  0  0  0  0  0  0  0
   -4.6790   17.6180  -34.5590 C   0  0  0  0  0  0  0  0  0  0  0  0
   -5.7520   18.7080  -34.4880 C   0  0  0  0  0  0  0  0  0  0  0  0
   -6.6070   18.5000  -33.3110 N   0  0  0  0  0  0  0  0  0  0  0  0
   -7.3130   19.6090  -32.7130 C   0  0  0  0  0  0  0  0  0  0  0  0
   -8.7160   19.6250  -32.6570 C   0  0  0  0  0  0  0  0  0  0  0  0
   -9.3700   20.6760  -32.0950 N   0  0  0  0  0  0  0  0  0  0  0  0
   -8.7070   21.7390  -31.5750 C   0  0  0  0  0  0  0  0  0  0  0  0
   -7.3040   21.7810  -31.5970 C   0  0  0  0  0  0  0  0  0  0  0  0
   -6.5680   22.9410  -31.0320 C   0  0  0  0  0  0  0  0  0  0  0  0
   -7.2160   24.1730  -30.8430 C   0  0  0  0  0  0  0  0  0  0  0  0
   -6.5280   25.2580  -30.2990 C   0  0  0  0  0  0  0  0  0  0  0  0
   -5.1850   25.1310  -29.9410 C   0  0  0  0  0  0  0  0  0  0  0  0
   -4.5080   23.9140  -30.1310 C   0  0  0  0  0  0  0  0  0  0  0  0
   -3.0820   23.7930  -29.7330 C   0  0  0  0  0  0  0  0  0  0  0  0
   -2.4030   22.5610  -29.7840 C   0  0  0  0  0  0  0  0  0  0  0  0
   -1.0610   22.4990  -29.4010 C   0  0  0  0  0  0  0  0  0  0  0  0
   -0.4030   23.6540  -28.9770 C   0  0  0  0  0  0  0  0  0  0  0  0
   -1.1000   24.8630  -28.9490 C   0  0  0  0  0  0  0  0  0  0  0  0
   -2.4060   24.9040  -29.3240 N   0  0  0  0  0  0  0  0  0  0  0  0
   -5.2140   22.8200  -30.6700 C   0  0  0  0  0  0  0  0  0  0  0  0
   -6.6130   20.7020  -32.1720 C   0  0  0  0  0  0  0  0  0  0  0  0
   -6.7020   17.1520  -32.7340 C   0  0  0  0  0  0  0  0  0  0  0  0
   -6.5240   16.0970  -33.8340 C   0  0  0  0  0  0  0  0  0  0  0  0
   -4.2099   15.2009  -33.1177 H   0  0  0  0  0  0  0  0  0  0  0  0
   -4.5513   14.2722  -34.6168 H   0  0  0  0  0  0  0  0  0  0  0  0
   -3.2812   15.5423  -34.6168 H   0  0  0  0  0  0  0  0  0  0  0  0
   -4.0364   17.6946  -33.6695 H   0  0  0  0  0  0  0  0  0  0  0  0
   -4.1021   17.7707  -35.4830 H   0  0  0  0  0  0  0  0  0  0  0  0
   -5.2663   19.6923  -34.4153 H   0  0  0  0  0  0  0  0  0  0  0  0
   -6.3719   18.6622  -35.3955 H   0  0  0  0  0  0  0  0  0  0  0  0
   -9.2893   18.7821  -33.0703 H   0  0  0  0  0  0  0  0  0  0  0  0
   -9.2721   22.5731  -31.1334 H   0  0  0  0  0  0  0  0  0  0  0  0
   -8.2733   24.2830  -31.1259 H   0  0  0  0  0  0  0  0  0  0  0  0
   -7.0460   26.2172  -30.1517 H   0  0  0  0  0  0  0  0  0  0  0  0
   -4.6523   25.9899  -29.5068 H   0  0  0  0  0  0  0  0  0  0  0  0
   -2.9251   21.6540  -30.1228 H   0  0  0  0  0  0  0  0  0  0  0  0
   -0.5232   21.5400  -29.4337 H   0  0  0  0  0  0  0  0  0  0  0  0
    0.6521   23.6123  -28.6686 H   0  0  0  0  0  0  0  0  0  0  0  0
   -0.5923   25.7829  -28.6234 H   0  0  0  0  0  0  0  0  0  0  0  0
   -4.6992   21.8580  -30.8096 H   0  0  0  0  0  0  0  0  0  0  0  0
   -5.5134   20.7120  -32.1994 H   0  0  0  0  0  0  0  0  0  0  0  0
   -5.9155   17.0240  -31.9757 H   0  0  0  0  0  0  0  0  0  0  0  0
   -7.6914   17.0266  -32.2699 H   0  0  0  0  0  0  0  0  0  0  0  0
   -6.5198   15.1019  -33.3653 H   0  0  0  0  0  0  0  0  0  0  0  0
   -7.3582   16.2205  -34.5403 H   0  0  0  0  0  0  0  0  0  0  0  0
  1  2  1  0
  2  3  1  0
  3  4  1  0
  4  5  1  0
  5  6  1  0
  6  7  2  0
  7  8  1  0
  8  9  2  0
  9 10  1  0
 10 11  1  0
 11 12  2  0
 12 13  1  0
 13 14  2  0
 14 15  1  0
 15 16  1  0
 16 17  2  0
 17 18  1  0
 18 19  2  0
 19 20  1  0
 20 21  2  0
 15 22  2  0
 10 23  2  0
  5 24  1  0
 24 25  1  0
 25  2  1  0
 23  6  1  0
 22 11  1  0
 21 16  1  0
  1 26  1  0
  1 27  1  0
  1 28  1  0
  3 29  1  0
  3 30  1  0
  4 31  1  0
  4 32  1  0
  7 33  1  0
  9 34  1  0
 12 35  1  0
 13 36  1  0
 14 37  1  0
 17 38  1  0
 18 39  1  0
 19 40  1  0
 20 41  1  0
 22 42  1  0
 23 43  1  0
 24 44  1  0
 24 45  1  0
 25 46  1  0
 25 47  1  0
M  END
>  <UniqueID>  (37) 
37

>  <SMILES>  (37) 
CN1CCN(c2cncc(-c3cccc(-c4ccccn4)c3)c2)CC1

>  <Energy>  (37) 
70.62345212973702

>  <Genealogy>  (37) 
CN1CCN(c2cncc(-c3cccc(-c4ccccn4)c3)c2)CC1 (3D coordinates assigned)
CN1CCN(c2cncc(-c3cccc(-c4ccccn4)c3)c2)CC1 (nonaromatic ring conformer: 70.62345212973702 kcal/mol)

>  <smiles>  (37) 
CN1CCN(c2cncc(-c3cccc(-c4ccccn4)c3)c2)CC1

>  <score_type>  (37) 
oracle

>  <origin>  (37) 
adgpu

>  <m_score__min__energy>  (37) 
-9.1600000000000001

>  <m_primary>  (37) 
energy

$$$$
37:0
     RDKit          3D

 34 36  0  0  0  0  0  0  0  0999 V2000
   -2.8230   20.7630  -33.2340 O   0  0  0  0  0  0  0  0  0  0  0  0
   -2.9200   21.6270  -32.3210 C   0  0  0  0  0  0  0  0  0  0  0  0
   -3.8790   22.6880  -32.4350 N   0  0  0  0  0  0  0  0  0  0  0  0
   -5.1120   22.8110  -31.7110 C   0  0  0  0  0  0  0  0  0  0  0  0
   -6.0220   21.7420  -31.6100 C   0  0  0  0  0  0  0  0  0  0  0  0
   -7.2030   21.8880  -30.8770 C   0  0  0  0  0  0  0  0  0  0  0  0
   -7.4810   23.0920  -30.2280 C   0  0  0  0  0  0  0  0  0  0  0  0
   -6.5730   24.1510  -30.3020 C   0  0  0  0  0  0  0  0  0  0  0  0
   -5.3860   24.0120  -31.0360 C   0  0  0  0  0  0  0  0  0  0  0  0
   -4.4760   25.0670  -31.1050 O   0  0  0  0  0  0  0  0  0  0  0  0
   -2.0040   21.5780  -31.1570 C   0  0  0  0  0  0  0  0  0  0  0  0
   -1.3840   20.3720  -30.7850 C   0  0  0  0  0  0  0  0  0  0  0  0
   -0.5180   20.3300  -29.6910 C   0  0  0  0  0  0  0  0  0  0  0  0
   -0.2580   21.4870  -28.9540 C   0  0  0  0  0  0  0  0  0  0  0  0
   -0.8660   22.7020  -29.3050 C   0  0  0  0  0  0  0  0  0  0  0  0
   -0.6000   23.8950  -28.5450 N   0  0  0  0  0  0  0  0  0  0  0  0
    0.3950   24.0910  -27.6550 C   0  0  0  0  0  0  0  0  0  0  0  0
    1.3640   23.1450  -27.3420 O   0  0  0  0  0  0  0  0  0  0  0  0
    0.3390   25.3620  -27.1180 C   0  0  0  0  0  0  0  0  0  0  0  0
   -0.7460   25.9810  -27.7110 C   0  0  0  0  0  0  0  0  0  0  0  0
   -1.2930   25.0520  -28.5740 C   0  0  0  0  0  0  0  0  0  0  0  0
   -2.4240   25.2690  -29.3520 O   0  0  0  0  0  0  0  0  0  0  0  0
   -1.7370   22.7400  -30.4080 C   0  0  0  0  0  0  0  0  0  0  0  0
   -5.8027   20.7872  -32.1103 H   0  0  0  0  0  0  0  0  0  0  0  0
   -7.9150   21.0521  -30.8114 H   0  0  0  0  0  0  0  0  0  0  0  0
   -8.4149   23.2070  -29.6583 H   0  0  0  0  0  0  0  0  0  0  0  0
   -6.7896   25.0965  -29.7832 H   0  0  0  0  0  0  0  0  0  0  0  0
   -3.4830   24.9020  -31.2270 H   0  0  0  0  0  0  0  0  0  0  0  0
   -1.5827   19.4555  -31.3599 H   0  0  0  0  0  0  0  0  0  0  0  0
   -0.0384   19.3813  -29.4083 H   0  0  0  0  0  0  0  0  0  0  0  0
    0.4267   21.4459  -28.0941 H   0  0  0  0  0  0  0  0  0  0  0  0
    1.0197   25.7945  -26.3699 H   0  0  0  0  0  0  0  0  0  0  0  0
   -1.1016   27.0064  -27.5316 H   0  0  0  0  0  0  0  0  0  0  0  0
   -2.2159   23.6895  -30.6894 H   0  0  0  0  0  0  0  0  0  0  0  0
  1  2  2  0
  2  3  1  0
  3  4  1  0
  4  5  2  0
  5  6  1  0
  6  7  2  0
  7  8  1  0
  8  9  2  0
  9 10  1  0
  2 11  1  0
 11 12  2  0
 12 13  1  0
 13 14  2  0
 14 15  1  0
 15 16  1  0
 16 17  1  0
 17 18  1  0
 17 19  2  0
 19 20  1  0
 20 21  2  0
 21 22  1  0
 15 23  2  0
  9  4  1  0
 23 11  1  0
 21 16  1  0
  5 24  1  0
  6 25  1  0
  7 26  1  0
  8 27  1  0
 10 28  1  0
 12 29  1  0
 13 30  1  0
 14 31  1  0
 19 32  1  0
 20 33  1  0
 23 34  1  0
M  CHG  3   3  -1  18  -1  22  -1
M  END
>  <UniqueID>  (38) 
38

>  <SMILES>  (38) 
O=C([N-]c1ccccc1O)c1cccc(-n2c([O-])ccc2[O-])c1

>  <Energy>  (38) 
74.64116004739613

>  <Genealogy>  (38) 
O=C([N-]c1ccccc1O)c1cccc(-n2c([O-])ccc2[O-])c1 (protonated)
O=C([N-]c1ccccc1O)c1cccc(-n2c([O-])ccc2[O-])c1 (3D coordinates assigned)
O=C([N-]c1ccccc1O)c1cccc(-n2c([O-])ccc2[O-])c1 (optimized conformer: 74.64116004739613 kcal/mol)

>  <smiles>  (38) 
O=C(Nc1ccccc1O)c1cccc(-n2c(O)ccc2O)c1

>  <score_type>  (38) 
oracle

>  <origin>  (38) 
adgpu

>  <m_score__min__energy>  (38) 
-11.48

>  <m_primary>  (38) 
energy

$$$$
38:0
     RDKit          3D

 54 56  0  0  0  0  0  0  0  0999 V2000
    0.2130   24.1950  -24.9280 C   0  0  0  0  0  0  0  0  0  0  0  0
   -0.6410   24.4040  -26.1510 C   0  0  0  0  0  0  0  0  0  0  0  0
   -1.6400   23.4560  -26.4280 C   0  0  0  0  0  0  0  0  0  0  0  0
   -2.4630   23.5910  -27.5420 C   0  0  0  0  0  0  0  0  0  0  0  0
   -2.3010   24.6680  -28.4140 C   0  0  0  0  0  0  0  0  0  0  0  0
   -3.1790   24.7870  -29.5430 N   0  0  0  0  0  0  0  0  0  0  0  0
   -3.5450   23.6690  -30.3690 C   0  0  0  0  0  0  0  0  0  0  0  0
   -3.0080   22.5440  -30.1920 O   0  0  0  0  0  0  0  0  0  0  0  0
   -4.4970   23.8190  -31.4300 N   0  0  0  0  0  0  0  0  0  0  0  0
   -5.6190   22.9610  -31.6780 C   0  0  0  0  0  0  0  0  0  0  0  0
   -6.9270   23.3560  -31.3610 C   0  0  0  0  0  0  0  0  0  0  0  0
   -7.9950   22.4870  -31.5840 C   0  0  0  0  0  0  0  0  0  0  0  0
   -7.7740   21.2090  -32.1090 C   0  0  0  0  0  0  0  0  0  0  0  0
   -9.1700   20.1660  -32.3640 Cl  0  0  0  0  0  0  0  0  0  0  0  0
   -6.4580   20.7850  -32.4070 C   0  0  0  0  0  0  0  0  0  0  0  0
   -6.2010   19.4000  -32.9620 C   0  0  0  0  0  0  0  0  0  0  0  0
   -4.8410   19.2110  -33.1260 F   0  0  0  0  0  0  0  0  0  0  0  0
   -6.8290   19.2660  -34.1860 F   0  0  0  0  0  0  0  0  0  0  0  0
   -6.6770   18.4100  -32.1190 F   0  0  0  0  0  0  0  0  0  0  0  0
   -5.3900   21.6740  -32.1770 C   0  0  0  0  0  0  0  0  0  0  0  0
   -1.3270   25.6430  -28.1410 C   0  0  0  0  0  0  0  0  0  0  0  0
   -1.2390   26.7670  -28.9580 O   0  0  0  0  0  0  0  0  0  0  0  0
   -0.4660   25.5080  -27.0290 C   0  0  0  0  0  0  0  0  0  0  0  0
    0.7600   26.7740  -26.7630 S   0  0  0  0  0  0  0  0  0  0  0  0
    0.8940   27.0130  -25.2840 O   0  0  0  0  0  0  0  0  0  0  0  0
    0.3760   28.0780  -27.4030 O   0  0  0  0  0  0  0  0  0  0  0  0
    2.3410   26.2250  -27.4110 C   0  0  0  0  0  0  0  0  0  0  0  0
    2.3230   24.7080  -27.7020 C   0  0  0  0  0  0  0  0  0  0  0  0
    3.6820   24.0280  -27.4400 C   0  0  0  0  0  0  0  0  0  0  0  0
    4.8300   24.8920  -27.7830 N   0  0  0  0  0  0  0  0  0  0  0  0
    4.9780   25.0600  -29.2390 C   0  0  0  0  0  0  0  0  0  0  0  0
    4.8440   26.1890  -27.0560 C   0  0  0  0  0  0  0  0  0  0  0  0
    3.4820   26.5920  -26.4580 C   0  0  0  0  0  0  0  0  0  0  0  0
   -0.3970   24.3443  -24.0249 H   0  0  0  0  0  0  0  0  0  0  0  0
    0.6164   23.1716  -24.9330 H   0  0  0  0  0  0  0  0  0  0  0  0
    1.0434   24.9164  -24.9330 H   0  0  0  0  0  0  0  0  0  0  0  0
   -1.7734   22.5958  -25.7556 H   0  0  0  0  0  0  0  0  0  0  0  0
   -3.2464   22.8437  -27.7363 H   0  0  0  0  0  0  0  0  0  0  0  0
   -3.6540   25.7050  -29.6900 H   0  0  0  0  0  0  0  0  0  0  0  0
   -7.1110   24.3535  -30.9355 H   0  0  0  0  0  0  0  0  0  0  0  0
   -9.0193   22.8090  -31.3452 H   0  0  0  0  0  0  0  0  0  0  0  0
   -4.3607   21.3517  -32.3929 H   0  0  0  0  0  0  0  0  0  0  0  0
    2.5175   26.7475  -28.3628 H   0  0  0  0  0  0  0  0  0  0  0  0
    1.5654   24.2367  -27.0587 H   0  0  0  0  0  0  0  0  0  0  0  0
    2.0918   24.5806  -28.7698 H   0  0  0  0  0  0  0  0  0  0  0  0
    3.7447   23.7674  -26.3732 H   0  0  0  0  0  0  0  0  0  0  0  0
    3.7353   23.1362  -28.0818 H   0  0  0  0  0  0  0  0  0  0  0  0
    5.6924   25.8710  -29.4438 H   0  0  0  0  0  0  0  0  0  0  0  0
    5.3500   24.1235  -29.6802 H   0  0  0  0  0  0  0  0  0  0  0  0
    4.0021   25.3109  -29.6802 H   0  0  0  0  0  0  0  0  0  0  0  0
    5.5733   26.1169  -26.2357 H   0  0  0  0  0  0  0  0  0  0  0  0
    5.1071   26.9620  -27.7931 H   0  0  0  0  0  0  0  0  0  0  0  0
    3.3375   26.0661  -25.5027 H   0  0  0  0  0  0  0  0  0  0  0  0
    3.4739   27.6806  -26.3002 H   0  0  0  0  0  0  0  0  0  0  0  0
  1  2  1  0
  2  3  2  0
  3  4  1  0
  4  5  2  0
  5  6  1  0
  6  7  1  0
  7  8  2  0
  7  9  1  0
  9 10  1  0
 10 11  2  0
 11 12  1  0
 12 13  2  0
 13 14  1  0
 13 15  1  0
 15 16  1  0
 16 17  1  0
 16 18  1  0
 16 19  1  0
 15 20  2  0
  5 21  1  0
 21 22  1  0
 21 23  2  0
 23 24  1  0
 24 25  2  0
 24 26  2  0
 24 27  1  0
 27 28  1  0
 28 29  1  0
 29 30  1  0
 30 31  1  0
 30 32  1  0
 32 33  1  0
 23  2  1  0
 33 27  1  0
 20 10  1  0
  1 34  1  0
  1 35  1  0
  1 36  1  0
  3 37  1  0
  4 38  1  0
  6 39  1  0
 11 40  1  0
 12 41  1  0
 20 42  1  0
 27 43  1  0
 28 44  1  0
 28 45  1  0
 29 46  1  0
 29 47  1  0
 31 48  1  0
 31 49  1  0
 31 50  1  0
 32 51  1  0
 32 52  1  0
 33 53  1  0
 33 54  1  0
M  CHG  2   9  -1  22  -1
M  END
>  <UniqueID>  (39) 
39

>  <SMILES>  (39) 
Cc1ccc(NC(=O)[N-]c2ccc(Cl)c(C(F)(F)F)c2)c([O-])c1S(=O)(=O)C1CCN(C)CC1

>  <Energy>  (39) 
76.64280991118378

>  <Genealogy>  (39) 
Cc1ccc(NC(=O)[N-]c2ccc(Cl)c(C(F)(F)F)c2)c([O-])c1S(=O)(=O)C1CCN(C)CC1 (protonated)
Cc1ccc(NC(=O)[N-]c2ccc(Cl)c(C(F)(F)F)c2)c([O-])c1S(=O)(=O)C1CCN(C)CC1 (3D coordinates assigned)
Cc1ccc(NC(=O)[N-]c2ccc(Cl)c(C(F)(F)F)c2)c([O-])c1S(=O)(=O)C1CCN(C)CC1 (nonaromatic ring conformer: 76.64280991118378 kcal/mol)

>  <smiles>  (39) 
Cc1ccc(NC(=O)Nc2ccc(Cl)c(C(F)(F)F)c2)c(O)c1S(=O)(=O)C1CCN(C)CC1

>  <score_type>  (39) 
oracle

>  <origin>  (39) 
adgpu

>  <m_score__min__energy>  (39) 
-13.01

>  <m_primary>  (39) 
energy

$$$$
39:0
     RDKit          3D

 47 49  0  0  0  0  0  0  0  0999 V2000
   -1.7120   25.2350  -26.5360 C   0  0  0  0  0  0  0  0  0  0  0  0
   -0.8160   25.1320  -28.0700 S   0  0  0  0  0  0  0  0  0  0  0  0
   -1.2360   26.2610  -28.9700 O   0  0  0  0  0  0  0  0  0  0  0  0
    0.6580   25.2500  -27.8030 O   0  0  0  0  0  0  0  0  0  0  0  0
   -1.1560   23.5860  -28.8410 C   0  0  0  0  0  0  0  0  0  0  0  0
   -0.1510   22.6160  -28.9580 C   0  0  0  0  0  0  0  0  0  0  0  0
   -0.4290   21.3900  -29.5650 C   0  0  0  0  0  0  0  0  0  0  0  0
   -1.7060   21.1310  -30.0710 C   0  0  0  0  0  0  0  0  0  0  0  0
   -2.7120   22.1050  -29.9920 C   0  0  0  0  0  0  0  0  0  0  0  0
   -4.0220   21.8070  -30.5060 N   0  0  0  0  0  0  0  0  0  0  0  0
   -4.9280   22.8050  -31.0140 C   0  0  0  0  0  0  0  0  0  0  0  0
   -4.5460   24.0030  -31.1230 O   0  0  0  0  0  0  0  0  0  0  0  0
   -6.3080   22.4520  -31.4250 C   0  0  0  0  0  0  0  0  0  0  0  0
   -7.3020   23.4360  -31.5750 C   0  0  0  0  0  0  0  0  0  0  0  0
   -8.5980   23.0770  -31.9530 C   0  0  0  0  0  0  0  0  0  0  0  0
   -8.9210   21.7370  -32.1750 C   0  0  0  0  0  0  0  0  0  0  0  0
   -7.9490   20.7430  -32.0100 C   0  0  0  0  0  0  0  0  0  0  0  0
   -8.3650   19.0450  -32.2580 S   0  0  0  0  0  0  0  0  0  0  0  0
   -8.2480   18.3120  -30.9520 O   0  0  0  0  0  0  0  0  0  0  0  0
   -9.7940   18.9490  -32.7160 O   0  0  0  0  0  0  0  0  0  0  0  0
   -7.3250   18.2810  -33.4430 N   0  0  0  0  0  0  0  0  0  0  0  0
   -6.5650   17.1780  -32.8450 C   0  0  0  0  0  0  0  0  0  0  0  0
   -5.1780   17.6910  -32.4870 C   0  0  0  0  0  0  0  0  0  0  0  0
   -5.0180   19.0010  -33.2300 C   0  0  0  0  0  0  0  0  0  0  0  0
   -6.3320   19.2260  -33.9670 C   0  0  0  0  0  0  0  0  0  0  0  0
   -6.6460   21.1040  -31.6400 C   0  0  0  0  0  0  0  0  0  0  0  0
   -2.4340   23.3280  -29.3560 C   0  0  0  0  0  0  0  0  0  0  0  0
   -1.0084   25.1541  -25.6943 H   0  0  0  0  0  0  0  0  0  0  0  0
   -2.2381   26.1995  -26.4827 H   0  0  0  0  0  0  0  0  0  0  0  0
   -2.4433   24.4150  -26.4827 H   0  0  0  0  0  0  0  0  0  0  0  0
    0.8581   22.8211  -28.5710 H   0  0  0  0  0  0  0  0  0  0  0  0
    0.3585   20.6262  -29.6453 H   0  0  0  0  0  0  0  0  0  0  0  0
   -1.9233   20.1572  -30.5341 H   0  0  0  0  0  0  0  0  0  0  0  0
   -4.2930   20.8010  -30.5500 H   0  0  0  0  0  0  0  0  0  0  0  0
   -7.0576   24.4931  -31.3938 H   0  0  0  0  0  0  0  0  0  0  0  0
   -9.3674   23.8534  -32.0763 H   0  0  0  0  0  0  0  0  0  0  0  0
   -9.9413   21.4617  -32.4802 H   0  0  0  0  0  0  0  0  0  0  0  0
   -7.0759   16.8235  -31.9376 H   0  0  0  0  0  0  0  0  0  0  0  0
   -6.4876   16.3423  -33.5561 H   0  0  0  0  0  0  0  0  0  0  0  0
   -5.0981   17.8538  -31.4020 H   0  0  0  0  0  0  0  0  0  0  0  0
   -4.3954   16.9697  -32.7650 H   0  0  0  0  0  0  0  0  0  0  0  0
   -4.8308   19.8220  -32.5222 H   0  0  0  0  0  0  0  0  0  0  0  0
   -4.1655   18.9699  -33.9245 H   0  0  0  0  0  0  0  0  0  0  0  0
   -6.6780   20.2572  -33.8031 H   0  0  0  0  0  0  0  0  0  0  0  0
   -6.1918   19.0670  -35.0464 H   0  0  0  0  0  0  0  0  0  0  0  0
   -5.8797   20.3245  -31.5165 H   0  0  0  0  0  0  0  0  0  0  0  0
   -3.2245   24.0871  -29.2620 H   0  0  0  0  0  0  0  0  0  0  0  0
  1  2  1  0
  2  3  2  0
  2  4  2  0
  2  5  1  0
  5  6  2  0
  6  7  1  0
  7  8  2  0
  8  9  1  0
  9 10  1  0
 10 11  1  0
 11 12  2  0
 11 13  1  0
 13 14  2  0
 14 15  1  0
 15 16  2  0
 16 17  1  0
 17 18  1  0
 18 19  2  0
 18 20  2  0
 18 21  1  0
 21 22  1  0
 22 23  1  0
 23 24  1  0
 24 25  1  0
 17 26  2  0
  9 27  2  0
 27  5  1  0
 26 13  1  0
 25 21  1  0
  1 28  1  0
  1 29  1  0
  1 30  1  0
  6 31  1  0
  7 32  1  0
  8 33  1  0
 10 34  1  0
 14 35  1  0
 15 36  1  0
 16 37  1  0
 22 38  1  0
 22 39  1  0
 23 40  1  0
 23 41  1  0
 24 42  1  0
 24 43  1  0
 25 44  1  0
 25 45  1  0
 26 46  1  0
 27 47  1  0
M  END
>  <UniqueID>  (40) 
40

>  <SMILES>  (40) 
CS(=O)(=O)c1cccc(NC(=O)c2cccc(S(=O)(=O)N3CCCC3)c2)c1

>  <Energy>  (40) 
52.090450431176286

>  <Genealogy>  (40) 
CS(=O)(=O)c1cccc(NC(=O)c2cccc(S(=O)(=O)N3CCCC3)c2)c1 (3D coordinates assigned)
CS(=O)(=O)c1cccc(NC(=O)c2cccc(S(=O)(=O)N3CCCC3)c2)c1 (nonaromatic ring conformer: 52.090450431176286 kcal/mol)

>  <smiles>  (40) 
CS(=O)(=O)c1cccc(NC(=O)c2cccc(S(=O)(=O)N3CCCC3)c2)c1

>  <score_type>  (40) 
oracle

>  <origin>  (40) 
adgpu

>  <m_score__min__energy>  (40) 
-10.34

>  <m_primary>  (40) 
energy

$$$$
40:0
     RDKit          3D

 42 44  0  0  0  0  0  0  0  0999 V2000
   -3.6940   24.9140  -28.9310 N   0  0  0  0  0  0  0  0  0  0  0  0
   -2.4680   24.1600  -28.9210 C   0  0  0  0  0  0  0  0  0  0  0  0
   -2.4940   22.8050  -29.3150 C   0  0  0  0  0  0  0  0  0  0  0  0
   -3.7240   22.1290  -29.6200 N   0  0  0  0  0  0  0  0  0  0  0  0
   -4.5590   22.5220  -30.7210 C   0  0  0  0  0  0  0  0  0  0  0  0
   -4.3150   23.5970  -31.3350 O   0  0  0  0  0  0  0  0  0  0  0  0
   -5.7170   21.6920  -31.1360 C   0  0  0  0  0  0  0  0  0  0  0  0
   -7.0340   22.1470  -30.9570 C   0  0  0  0  0  0  0  0  0  0  0  0
   -8.1190   21.3540  -31.3440 C   0  0  0  0  0  0  0  0  0  0  0  0
   -7.9110   20.0880  -31.9140 C   0  0  0  0  0  0  0  0  0  0  0  0
   -9.0300   19.2750  -32.3110 N   0  0  0  0  0  0  0  0  0  0  0  0
   -9.8890   19.7140  -33.1050 O   0  0  0  0  0  0  0  0  0  0  0  0
   -9.1740   17.9970  -31.8210 O   0  0  0  0  0  0  0  0  0  0  0  0
   -6.5940   19.6270  -32.0830 C   0  0  0  0  0  0  0  0  0  0  0  0
   -5.5100   20.4200  -31.6960 C   0  0  0  0  0  0  0  0  0  0  0  0
   -1.2840   22.1150  -29.4100 C   0  0  0  0  0  0  0  0  0  0  0  0
   -1.2590   20.9100  -29.7760 O   0  0  0  0  0  0  0  0  0  0  0  0
   -0.1270   22.7370  -29.0920 N   0  0  0  0  0  0  0  0  0  0  0  0
   -0.1020   24.0280  -28.6820 C   0  0  0  0  0  0  0  0  0  0  0  0
    1.0130   24.5470  -28.4020 O   0  0  0  0  0  0  0  0  0  0  0  0
   -1.2660   24.7550  -28.5870 N   0  0  0  0  0  0  0  0  0  0  0  0
   -1.2080   26.1770  -28.1760 C   0  0  0  0  0  0  0  0  0  0  0  0
   -1.0250   26.3070  -26.6820 C   0  0  0  0  0  0  0  0  0  0  0  0
   -1.0700   25.1690  -25.8580 C   0  0  0  0  0  0  0  0  0  0  0  0
   -0.9210   25.2950  -24.4730 C   0  0  0  0  0  0  0  0  0  0  0  0
   -0.7390   26.5560  -23.9000 C   0  0  0  0  0  0  0  0  0  0  0  0
   -0.7120   27.6940  -24.7100 C   0  0  0  0  0  0  0  0  0  0  0  0
   -0.8610   27.5730  -26.0940 C   0  0  0  0  0  0  0  0  0  0  0  0
   -4.2370   25.1020  -29.8000 H   0  0  0  0  0  0  0  0  0  0  0  0
   -4.1020   25.2920  -28.0490 H   0  0  0  0  0  0  0  0  0  0  0  0
   -4.1230   21.4930  -28.8940 H   0  0  0  0  0  0  0  0  0  0  0  0
   -7.2133   23.1353  -30.5087 H   0  0  0  0  0  0  0  0  0  0  0  0
   -9.1444   21.7255  -31.2005 H   0  0  0  0  0  0  0  0  0  0  0  0
   -6.4151   18.6349  -32.5231 H   0  0  0  0  0  0  0  0  0  0  0  0
   -4.4849   20.0447  -31.8311 H   0  0  0  0  0  0  0  0  0  0  0  0
   -0.3626   26.6633  -28.6847 H   0  0  0  0  0  0  0  0  0  0  0  0
   -2.1570   26.6588  -28.4538 H   0  0  0  0  0  0  0  0  0  0  0  0
   -1.2230   24.1753  -26.3043 H   0  0  0  0  0  0  0  0  0  0  0  0
   -0.9472   24.4000  -23.8341 H   0  0  0  0  0  0  0  0  0  0  0  0
   -0.6170   26.6529  -22.8111 H   0  0  0  0  0  0  0  0  0  0  0  0
   -0.5732   28.6869  -24.2574 H   0  0  0  0  0  0  0  0  0  0  0  0
   -0.8499   28.4729  -26.7264 H   0  0  0  0  0  0  0  0  0  0  0  0
  1  2  1  0
  2  3  2  0
  3  4  1  0
  4  5  1  0
  5  6  2  0
  5  7  1  0
  7  8  2  0
  8  9  1  0
  9 10  2  0
 10 11  1  0
 11 12  2  0
 11 13  1  0
 10 14  1  0
 14 15  2  0
  3 16  1  0
 16 17  2  0
 16 18  1  0
 18 19  1  0
 19 20  2  0
 19 21  1  0
 21 22  1  0
 22 23  1  0
 23 24  2  0
 24 25  1  0
 25 26  2  0
 26 27  1  0
 27 28  2  0
 21  2  1  0
 28 23  1  0
 15  7  1  0
  1 29  1  0
  1 30  1  0
  4 31  1  0
  8 32  1  0
  9 33  1  0
 14 34  1  0
 15 35  1  0
 22 36  1  0
 22 37  1  0
 24 38  1  0
 25 39  1  0
 26 40  1  0
 27 41  1  0
 28 42  1  0
M  CHG  3  11   1  13  -1  18  -1
M  END
>  <UniqueID>  (41) 
41

>  <SMILES>  (41) 
Nc1c(NC(=O)c2ccc([N+](=O)[O-])cc2)c(=O)[n-]c(=O)n1Cc1ccccc1

>  <Energy>  (41) 
61.09485374821627

>  <Genealogy>  (41) 
Nc1c(NC(=O)c2ccc([N+](=O)[O-])cc2)c(=O)[n-]c(=O)n1Cc1ccccc1 (protonated)
Nc1c(NC(=O)c2ccc([N+](=O)[O-])cc2)c(=O)[n-]c(=O)n1Cc1ccccc1 (3D coordinates assigned)
Nc1c(NC(=O)c2ccc([N+](=O)[O-])cc2)c(=O)[n-]c(=O)n1Cc1ccccc1 (optimized conformer: 61.09485374821627 kcal/mol)

>  <smiles>  (41) 
Nc1c(NC(=O)c2ccc([N+](=O)[O-])cc2)c(=O)[nH]c(=O)n1Cc1ccccc1

>  <score_type>  (41) 
oracle

>  <origin>  (41) 
adgpu

>  <m_score__min__energy>  (41) 
-9.2100000000000009

>  <m_primary>  (41) 
energy

$$$$
41:0
     RDKit          3D

 44 46  0  0  0  0  0  0  0  0999 V2000
   -1.0570   25.5680  -28.9950 O   0  0  0  0  0  0  0  0  0  0  0  0
   -2.3040   24.7480  -28.8250 S   0  0  0  0  0  0  0  0  0  0  0  0
   -2.8240   24.9460  -27.4290 O   0  0  0  0  0  0  0  0  0  0  0  0
   -3.4990   25.2890  -29.9590 N   0  0  0  0  0  0  0  0  0  0  0  0
   -4.5360   24.4700  -30.5160 C   0  0  0  0  0  0  0  0  0  0  0  0
   -5.8650   24.8940  -30.3970 C   0  0  0  0  0  0  0  0  0  0  0  0
   -6.9030   24.1310  -30.9360 C   0  0  0  0  0  0  0  0  0  0  0  0
   -6.6210   22.9350  -31.6020 C   0  0  0  0  0  0  0  0  0  0  0  0
   -5.2960   22.4940  -31.7270 C   0  0  0  0  0  0  0  0  0  0  0  0
   -4.9320   20.9970  -32.5870 S   0  0  0  0  0  0  0  0  0  0  0  0
   -4.1520   20.0840  -31.6820 O   0  0  0  0  0  0  0  0  0  0  0  0
   -4.0750   21.3110  -33.7820 O   0  0  0  0  0  0  0  0  0  0  0  0
   -6.3890   20.1790  -33.1040 N   0  0  0  0  0  0  0  0  0  0  0  0
   -7.2390   19.8480  -31.9390 C   0  0  0  0  0  0  0  0  0  0  0  0
   -8.2670   18.7680  -32.2830 C   0  0  0  0  0  0  0  0  0  0  0  0
   -7.5690   17.4530  -32.6730 C   0  0  0  0  0  0  0  0  0  0  0  0
   -6.1720   17.6770  -33.2800 C   0  0  0  0  0  0  0  0  0  0  0  0
   -6.0830   19.0340  -33.9960 C   0  0  0  0  0  0  0  0  0  0  0  0
   -4.2590   23.2610  -31.1790 C   0  0  0  0  0  0  0  0  0  0  0  0
   -1.9700   23.0360  -29.0710 C   0  0  0  0  0  0  0  0  0  0  0  0
   -1.1030   22.6370  -30.0980 C   0  0  0  0  0  0  0  0  0  0  0  0
   -0.8340   21.2800  -30.3010 C   0  0  0  0  0  0  0  0  0  0  0  0
   -1.4250   20.3170  -29.4770 C   0  0  0  0  0  0  0  0  0  0  0  0
   -2.2860   20.7110  -28.4480 C   0  0  0  0  0  0  0  0  0  0  0  0
   -2.5610   22.0670  -28.2460 C   0  0  0  0  0  0  0  0  0  0  0  0
   -6.0932   25.8350  -29.8751 H   0  0  0  0  0  0  0  0  0  0  0  0
   -7.9441   24.4718  -30.8363 H   0  0  0  0  0  0  0  0  0  0  0  0
   -7.4405   22.3383  -32.0291 H   0  0  0  0  0  0  0  0  0  0  0  0
   -6.5990   19.4847  -31.1214 H   0  0  0  0  0  0  0  0  0  0  0  0
   -7.7810   20.7567  -31.6382 H   0  0  0  0  0  0  0  0  0  0  0  0
   -8.9091   18.5896  -31.4079 H   0  0  0  0  0  0  0  0  0  0  0  0
   -8.8694   19.1137  -33.1360 H   0  0  0  0  0  0  0  0  0  0  0  0
   -7.4653   16.8296  -31.7727 H   0  0  0  0  0  0  0  0  0  0  0  0
   -8.1885   16.9634  -33.4388 H   0  0  0  0  0  0  0  0  0  0  0  0
   -5.4230   17.6472  -32.4750 H   0  0  0  0  0  0  0  0  0  0  0  0
   -5.9836   16.8832  -34.0178 H   0  0  0  0  0  0  0  0  0  0  0  0
   -5.0627   19.1576  -34.3882 H   0  0  0  0  0  0  0  0  0  0  0  0
   -6.8335   19.0325  -34.8002 H   0  0  0  0  0  0  0  0  0  0  0  0
   -3.2189   22.9143  -31.2682 H   0  0  0  0  0  0  0  0  0  0  0  0
   -0.6337   23.3927  -30.7451 H   0  0  0  0  0  0  0  0  0  0  0  0
   -0.1565   20.9695  -31.1100 H   0  0  0  0  0  0  0  0  0  0  0  0
   -1.2126   19.2498  -29.6383 H   0  0  0  0  0  0  0  0  0  0  0  0
   -2.7473   19.9537  -27.7970 H   0  0  0  0  0  0  0  0  0  0  0  0
   -3.2420   22.3747  -27.4388 H   0  0  0  0  0  0  0  0  0  0  0  0
  1  2  2  0
  2  3  2  0
  2  4  1  0
  4  5  1  0
  5  6  2  0
  6  7  1  0
  7  8  2  0
  8  9  1  0
  9 10  1  0
 10 11  2  0
 10 12  2  0
 10 13  1  0
 13 14  1  0
 14 15  1  0
 15 16  1  0
 16 17  1  0
 17 18  1  0
  9 19  2  0
  2 20  1  0
 20 21  2  0
 21 22  1  0
 22 23  2  0
 23 24  1  0
 24 25  2  0
 19  5  1  0
 25 20  1  0
 18 13  1  0
  6 26  1  0
  7 27  1  0
  8 28  1  0
 14 29  1  0
 14 30  1  0
 15 31  1  0
 15 32  1  0
 16 33  1  0
 16 34  1  0
 17 35  1  0
 17 36  1  0
 18 37  1  0
 18 38  1  0
 19 39  1  0
 21 40  1  0
 22 41  1  0
 23 42  1  0
 24 43  1  0
 25 44  1  0
M  CHG  1   4  -1
M  END
>  <UniqueID>  (42) 
42

>  <SMILES>  (42) 
O=S(=O)([N-]c1cccc(S(=O)(=O)N2CCCCC2)c1)c1ccccc1

>  <Energy>  (42) 
51.94198343175982

>  <Genealogy>  (42) 
O=S(=O)([N-]c1cccc(S(=O)(=O)N2CCCCC2)c1)c1ccccc1 (protonated)
O=S(=O)([N-]c1cccc(S(=O)(=O)N2CCCCC2)c1)c1ccccc1 (3D coordinates assigned)
O=S(=O)([N-]c1cccc(S(=O)(=O)N2CCCCC2)c1)c1ccccc1 (nonaromatic ring conformer: 51.94198343175982 kcal/mol)

>  <smiles>  (42) 
O=S(=O)(Nc1cccc(S(=O)(=O)N2CCCCC2)c1)c1ccccc1

>  <score_type>  (42) 
oracle

>  <origin>  (42) 
adgpu

>  <m_score__min__energy>  (42) 
-10.76

>  <m_primary>  (42) 
energy

$$$$
42:0
     RDKit          3D

 43 45  0  0  0  0  0  0  0  0999 V2000
   -4.9805   25.8254  -29.1262 H   0  0  0  0  0  0  0  0  0  0  0  0
   -4.8040   24.9360  -29.7490 C   0  0  0  0  0  0  0  0  0  0  0  0
   -5.8890   24.2450  -30.2970 C   0  0  0  0  0  0  0  0  0  0  0  0
   -6.9146   24.5881  -30.0960 H   0  0  0  0  0  0  0  0  0  0  0  0
   -5.6760   23.1190  -31.1000 C   0  0  0  0  0  0  0  0  0  0  0  0
   -7.0500   22.2530  -31.7840 S   0  0  0  0  0  0  0  0  0  0  0  0
   -8.0540   23.2220  -32.3450 O   0  0  0  0  0  0  0  0  0  0  0  0
   -7.7000   21.4450  -30.6970 O   0  0  0  0  0  0  0  0  0  0  0  0
   -6.5320   21.1760  -33.0460 N   0  0  0  0  0  0  0  0  0  0  0  0
   -6.5600   19.8730  -33.0100 C   0  0  0  0  0  0  0  0  0  0  0  0
   -6.1060   19.1660  -34.1290 C   0  0  0  0  0  0  0  0  0  0  0  0
   -5.7337   19.7073  -35.0112 H   0  0  0  0  0  0  0  0  0  0  0  0
   -6.1280   17.7710  -34.1200 C   0  0  0  0  0  0  0  0  0  0  0  0
   -5.7710   17.2088  -34.9955 H   0  0  0  0  0  0  0  0  0  0  0  0
   -6.6030   17.0910  -33.0000 C   0  0  0  0  0  0  0  0  0  0  0  0
   -6.6223   15.9913  -32.9838 H   0  0  0  0  0  0  0  0  0  0  0  0
   -7.0540   17.8210  -31.8990 C   0  0  0  0  0  0  0  0  0  0  0  0
   -7.4345   17.2943  -31.0114 H   0  0  0  0  0  0  0  0  0  0  0  0
   -7.0250   19.1820  -31.9190 N   0  0  0  0  0  0  0  0  0  0  0  0
   -7.3740   19.6750  -31.0690 H   0  0  0  0  0  0  0  0  0  0  0  0
   -4.3680   22.6820  -31.3430 C   0  0  0  0  0  0  0  0  0  0  0  0
   -4.1946   21.7935  -31.9678 H   0  0  0  0  0  0  0  0  0  0  0  0
   -3.2820   23.3700  -30.7950 C   0  0  0  0  0  0  0  0  0  0  0  0
   -2.2570   23.0246  -30.9952 H   0  0  0  0  0  0  0  0  0  0  0  0
   -3.4950   24.5030  -29.9880 C   0  0  0  0  0  0  0  0  0  0  0  0
   -2.4120   25.2350  -29.3960 N   0  0  0  0  0  0  0  0  0  0  0  0
   -1.5820   24.7860  -27.9410 S   0  0  0  0  0  0  0  0  0  0  0  0
   -2.2820   25.4050  -26.7640 O   0  0  0  0  0  0  0  0  0  0  0  0
   -0.1720   25.3040  -27.9970 O   0  0  0  0  0  0  0  0  0  0  0  0
   -1.6010   23.0360  -27.7570 C   0  0  0  0  0  0  0  0  0  0  0  0
   -0.3920   22.3290  -27.7320 C   0  0  0  0  0  0  0  0  0  0  0  0
    0.5601   22.8692  -27.8404 H   0  0  0  0  0  0  0  0  0  0  0  0
   -0.3890   20.9400  -27.5700 C   0  0  0  0  0  0  0  0  0  0  0  0
    0.5643   20.3917  -27.5452 H   0  0  0  0  0  0  0  0  0  0  0  0
   -1.6010   20.2450  -27.4390 C   0  0  0  0  0  0  0  0  0  0  0  0
   -1.5860   18.7560  -27.2610 C   0  0  0  0  0  0  0  0  0  0  0  0
   -1.5836   18.5150  -26.1877 H   0  0  0  0  0  0  0  0  0  0  0  0
   -2.4798   18.3214  -27.7324 H   0  0  0  0  0  0  0  0  0  0  0  0
   -0.6836   18.3394  -27.7324 H   0  0  0  0  0  0  0  0  0  0  0  0
   -2.8110   20.9550  -27.4650 C   0  0  0  0  0  0  0  0  0  0  0  0
   -3.7643   20.4166  -27.3591 H   0  0  0  0  0  0  0  0  0  0  0  0
   -2.8100   22.3440  -27.6250 C   0  0  0  0  0  0  0  0  0  0  0  0
   -3.7622   22.8943  -27.6472 H   0  0  0  0  0  0  0  0  0  0  0  0
  1  2  1  0
  2  3  2  0
  3  4  1  0
  3  5  1  0
  5  6  1  0
  6  7  2  0
  6  8  2  0
  6  9  1  0
  9 10  2  0
 10 11  1  0
 11 12  1  0
 11 13  2  0
 13 14  1  0
 13 15  1  0
 15 16  1  0
 15 17  2  0
 17 18  1  0
 17 19  1  0
 19 20  1  0
  5 21  2  0
 21 22  1  0
 21 23  1  0
 23 24  1  0
 23 25  2  0
 25 26  1  0
 26 27  1  0
 27 28  2  0
 27 29  2  0
 27 30  1  0
 30 31  2  0
 31 32  1  0
 31 33  1  0
 33 34  1  0
 33 35  2  0
 35 36  1  0
 36 37  1  0
 36 38  1  0
 36 39  1  0
 35 40  1  0
 40 41  1  0
 40 42  2  0
 42 43  1  0
 25  2  1  0
 42 30  1  0
 19 10  1  0
M  CHG  1  26  -1
M  END
>  <UniqueID>  (43) 
43

>  <SMILES>  (43) 
Cc1ccc(S(=O)(=O)[N-]c2ccc(S(=O)(=O)/N=c3/cccc[nH]3)cc2)cc1

>  <Energy>  (43) 
53.053291104185135

>  <Genealogy>  (43) 
Cc1ccc(S(=O)(=O)[N-]c2ccc(S(=O)(=O)N=c3cccc[nH]3)cc2)cc1 (protonated)
Cc1ccc(S(=O)(=O)[N-]c2ccc(S(=O)(=O)/N=c3/cccc[nH]3)cc2)cc1 (cis-trans isomerization)
Cc1ccc(S(=O)(=O)[N-]c2ccc(S(=O)(=O)/N=c3/cccc[nH]3)cc2)cc1 (3D coordinates assigned)
Cc1ccc(S(=O)(=O)[N-]c2ccc(S(=O)(=O)/N=c3/cccc[nH]3)cc2)cc1 (optimized conformer: 53.053291104185135 kcal/mol)

>  <smiles>  (43) 
Cc1ccc(S(=O)(=O)Nc2ccc(S(=O)(=O)N=c3cccc[nH]3)cc2)cc1

>  <score_type>  (43) 
oracle

>  <origin>  (43) 
adgpu

>  <m_score__min__energy>  (43) 
-10.949999999999999

>  <m_primary>  (43) 
energy

$$$$
43:0
     RDKit          3D

 49 52  0  0  0  0  0  0  0  0999 V2000
   -3.8009   26.2927  -30.5940 H   0  0  0  0  0  0  0  0  0  0  0  0
   -4.2450   25.2950  -30.4620 C   0  0  0  0  0  0  0  0  0  0  0  0
   -5.2380   24.8730  -31.2890 N   0  0  0  0  0  0  0  0  0  0  0  0
   -5.8050   23.6450  -31.1640 C   0  0  0  0  0  0  0  0  0  0  0  0
   -6.7630   23.3130  -31.9850 N   0  0  0  0  0  0  0  0  0  0  0  0
   -7.4270   22.0430  -32.0770 C   0  0  0  0  0  0  0  0  0  0  0  0
   -6.7530   20.9000  -32.5460 C   0  0  0  0  0  0  0  0  0  0  0  0
   -5.6861   20.9615  -32.8066 H   0  0  0  0  0  0  0  0  0  0  0  0
   -7.4340   19.6870  -32.6820 C   0  0  0  0  0  0  0  0  0  0  0  0
   -6.8990   18.7922  -33.0328 H   0  0  0  0  0  0  0  0  0  0  0  0
   -8.7960   19.6110  -32.3720 C   0  0  0  0  0  0  0  0  0  0  0  0
   -9.3295   18.6539  -32.4681 H   0  0  0  0  0  0  0  0  0  0  0  0
   -9.4790   20.7520  -31.9400 C   0  0  0  0  0  0  0  0  0  0  0  0
  -10.5524   20.6942  -31.7068 H   0  0  0  0  0  0  0  0  0  0  0  0
   -8.7990   21.9670  -31.8040 C   0  0  0  0  0  0  0  0  0  0  0  0
   -9.3439   22.8665  -31.4814 H   0  0  0  0  0  0  0  0  0  0  0  0
   -5.3590   22.8030  -30.1260 C   0  0  0  0  0  0  0  0  0  0  0  0
   -5.8118   21.8106  -29.9842 H   0  0  0  0  0  0  0  0  0  0  0  0
   -4.3660   23.2260  -29.3020 N   0  0  0  0  0  0  0  0  0  0  0  0
   -3.7910   24.4500  -29.4400 C   0  0  0  0  0  0  0  0  0  0  0  0
   -2.6900   24.8550  -28.5380 C   0  0  0  0  0  0  0  0  0  0  0  0
   -1.6840   25.4470  -29.0090 O   0  0  0  0  0  0  0  0  0  0  0  0
   -2.7000   24.5150  -27.1450 N   0  0  0  0  0  0  0  0  0  0  0  0
   -1.5420   24.3660  -26.3110 C   0  0  0  0  0  0  0  0  0  0  0  0
   -1.2130   25.3370  -25.3490 C   0  0  0  0  0  0  0  0  0  0  0  0
   -1.8524   26.2237  -25.2267 H   0  0  0  0  0  0  0  0  0  0  0  0
   -0.0800   25.1830  -24.5480 C   0  0  0  0  0  0  0  0  0  0  0  0
    0.1700   25.9462  -23.7963 H   0  0  0  0  0  0  0  0  0  0  0  0
    0.7360   24.0600  -24.7010 C   0  0  0  0  0  0  0  0  0  0  0  0
    1.6245   23.9356  -24.0645 H   0  0  0  0  0  0  0  0  0  0  0  0
    0.4250   23.0940  -25.6620 C   0  0  0  0  0  0  0  0  0  0  0  0
    1.0681   22.2090  -25.7769 H   0  0  0  0  0  0  0  0  0  0  0  0
   -0.7040   23.2480  -26.4810 C   0  0  0  0  0  0  0  0  0  0  0  0
   -1.0260   22.2420  -27.4530 N   0  0  0  0  0  0  0  0  0  0  0  0
   -2.0150   21.2100  -27.1250 C   0  0  0  0  0  0  0  0  0  0  0  0
   -1.5939   20.5340  -26.3662 H   0  0  0  0  0  0  0  0  0  0  0  0
   -2.9219   21.6983  -26.7388 H   0  0  0  0  0  0  0  0  0  0  0  0
   -2.3840   20.3990  -28.3730 C   0  0  0  0  0  0  0  0  0  0  0  0
   -1.6041   19.6468  -28.5624 H   0  0  0  0  0  0  0  0  0  0  0  0
   -3.3505   19.9006  -28.2071 H   0  0  0  0  0  0  0  0  0  0  0  0
   -2.4940   21.2900  -29.5370 N   0  0  0  0  0  0  0  0  0  0  0  0
   -2.8520   20.7360  -30.3500 H   0  0  0  0  0  0  0  0  0  0  0  0
   -3.1930   22.0430  -29.3320 H   0  0  0  0  0  0  0  0  0  0  0  0
   -1.2010   21.9020  -29.9070 C   0  0  0  0  0  0  0  0  0  0  0  0
   -0.6873   21.2296  -30.6099 H   0  0  0  0  0  0  0  0  0  0  0  0
   -1.4257   22.8828  -30.3515 H   0  0  0  0  0  0  0  0  0  0  0  0
   -0.2660   22.1560  -28.7040 C   0  0  0  0  0  0  0  0  0  0  0  0
    0.4560   21.3295  -28.6295 H   0  0  0  0  0  0  0  0  0  0  0  0
    0.2550   23.1118  -28.8624 H   0  0  0  0  0  0  0  0  0  0  0  0
  1  2  1  0
  2  3  1  0
  3  4  1  0
  4  5  2  0
  5  6  1  0
  6  7  2  0
  7  8  1  0
  7  9  1  0
  9 10  1  0
  9 11  2  0
 11 12  1  0
 11 13  1  0
 13 14  1  0
 13 15  2  0
 15 16  1  0
  4 17  1  0
 17 18  1  0
 17 19  2  0
 19 20  1  0
 20 21  1  0
 21 22  2  0
 21 23  1  0
 23 24  1  0
 24 25  2  0
 25 26  1  0
 25 27  1  0
 27 28  1  0
 27 29  2  0
 29 30  1  0
 29 31  1  0
 31 32  1  0
 31 33  2  0
 33 34  1  0
 34 35  1  0
 35 36  1  0
 35 37  1  0
 35 38  1  0
 38 39  1  0
 38 40  1  0
 38 41  1  0
 41 42  1  0
 41 43  1  0
 41 44  1  0
 44 45  1  0
 44 46  1  0
 44 47  1  0
 47 48  1  0
 47 49  1  0
 20  2  2  0
 33 24  1  0
 47 34  1  0
 15  6  1  0
M  CHG  3   3  -1  23  -1  41   1
M  END
>  <UniqueID>  (44) 
44

>  <SMILES>  (44) 
O=C([N-]c1ccccc1N1CC[NH2+]CC1)c1c[n-]/c(=N/c2ccccc2)cn1

>  <Energy>  (44) 
78.36320739968484

>  <Genealogy>  (44) 
O=C([N-]c1ccccc1N1CC[NH2+]CC1)c1c[n-]c(=Nc2ccccc2)cn1 (protonated)
O=C([N-]c1ccccc1N1CC[NH2+]CC1)c1c[n-]/c(=N/c2ccccc2)cn1 (cis-trans isomerization)
O=C([N-]c1ccccc1N1CC[NH2+]CC1)c1c[n-]/c(=N/c2ccccc2)cn1 (3D coordinates assigned)
O=C([N-]c1ccccc1N1CC[NH2+]CC1)c1c[n-]/c(=N/c2ccccc2)cn1 (nonaromatic ring conformer: 78.36320739968484 kcal/mol)

>  <smiles>  (44) 
O=C(Nc1ccccc1N1CCNCC1)c1c[nH]c(=Nc2ccccc2)cn1

>  <score_type>  (44) 
oracle

>  <origin>  (44) 
adgpu

>  <m_score__min__energy>  (44) 
-10.67

>  <m_primary>  (44) 
energy

$$$$
44:0
     RDKit          3D

 40 42  0  0  0  0  0  0  0  0999 V2000
   -5.7450   16.2260  -30.8550 N   0  0  0  0  0  0  0  0  0  0  0  0
   -5.8600   16.9600  -32.0780 C   0  0  0  0  0  0  0  0  0  0  0  0
   -5.2970   16.4550  -33.2570 C   0  0  0  0  0  0  0  0  0  0  0  0
   -5.4020   17.1780  -34.4490 C   0  0  0  0  0  0  0  0  0  0  0  0
   -6.0750   18.4020  -34.4710 C   0  0  0  0  0  0  0  0  0  0  0  0
   -6.6650   18.9070  -33.2990 C   0  0  0  0  0  0  0  0  0  0  0  0
   -7.3410   20.1770  -33.2930 N   0  0  0  0  0  0  0  0  0  0  0  0
   -6.8660   21.3460  -32.6040 C   0  0  0  0  0  0  0  0  0  0  0  0
   -7.7880   22.2380  -32.0480 C   0  0  0  0  0  0  0  0  0  0  0  0
   -7.3520   23.3900  -31.3910 C   0  0  0  0  0  0  0  0  0  0  0  0
   -5.9820   23.6890  -31.2980 C   0  0  0  0  0  0  0  0  0  0  0  0
   -5.5630   24.9070  -30.6540 N   0  0  0  0  0  0  0  0  0  0  0  0
   -6.3900   25.6050  -30.0300 O   0  0  0  0  0  0  0  0  0  0  0  0
   -4.2920   25.3990  -30.8420 O   0  0  0  0  0  0  0  0  0  0  0  0
   -5.0430   22.8030  -31.8760 C   0  0  0  0  0  0  0  0  0  0  0  0
   -3.6310   23.0230  -31.7170 N   0  0  0  0  0  0  0  0  0  0  0  0
   -2.6530   21.9680  -31.6800 C   0  0  0  0  0  0  0  0  0  0  0  0
   -2.0090   21.6650  -30.4710 C   0  0  0  0  0  0  0  0  0  0  0  0
   -1.0430   20.6540  -30.4160 C   0  0  0  0  0  0  0  0  0  0  0  0
   -0.7030   19.9490  -31.5740 C   0  0  0  0  0  0  0  0  0  0  0  0
   -1.3240   20.2550  -32.7870 C   0  0  0  0  0  0  0  0  0  0  0  0
   -2.2900   21.2640  -32.8450 C   0  0  0  0  0  0  0  0  0  0  0  0
   -5.4950   21.6400  -32.5240 C   0  0  0  0  0  0  0  0  0  0  0  0
   -6.5350   18.1880  -32.1020 C   0  0  0  0  0  0  0  0  0  0  0  0
   -5.4620   15.2200  -30.8600 H   0  0  0  0  0  0  0  0  0  0  0  0
   -5.9410   16.6820  -29.9360 H   0  0  0  0  0  0  0  0  0  0  0  0
   -4.7717   15.4886  -33.2450 H   0  0  0  0  0  0  0  0  0  0  0  0
   -4.9535   16.7820  -35.3720 H   0  0  0  0  0  0  0  0  0  0  0  0
   -6.1436   18.9728  -35.4088 H   0  0  0  0  0  0  0  0  0  0  0  0
   -8.2350   20.2560  -33.8290 H   0  0  0  0  0  0  0  0  0  0  0  0
   -8.8652   22.0305  -32.1289 H   0  0  0  0  0  0  0  0  0  0  0  0
   -8.0891   24.0714  -30.9410 H   0  0  0  0  0  0  0  0  0  0  0  0
   -3.3050   24.0050  -31.5640 H   0  0  0  0  0  0  0  0  0  0  0  0
   -2.2651   22.2259  -29.5601 H   0  0  0  0  0  0  0  0  0  0  0  0
   -0.5514   20.4142  -29.4616 H   0  0  0  0  0  0  0  0  0  0  0  0
    0.0543   19.1525  -31.5300 H   0  0  0  0  0  0  0  0  0  0  0  0
   -1.0527   19.7014  -33.6980 H   0  0  0  0  0  0  0  0  0  0  0  0
   -2.7687   21.5093  -33.8045 H   0  0  0  0  0  0  0  0  0  0  0  0
   -4.7651   20.9512  -32.9743 H   0  0  0  0  0  0  0  0  0  0  0  0
   -6.9665   18.5913  -31.1740 H   0  0  0  0  0  0  0  0  0  0  0  0
  1  2  1  0
  2  3  2  0
  3  4  1  0
  4  5  2  0
  5  6  1  0
  6  7  1  0
  7  8  1  0
  8  9  2  0
  9 10  1  0
 10 11  2  0
 11 12  1  0
 12 13  2  0
 12 14  1  0
 11 15  1  0
 15 16  1  0
 16 17  1  0
 17 18  2  0
 18 19  1  0
 19 20  2  0
 20 21  1  0
 21 22  2  0
 15 23  2  0
  6 24  2  0
 24  2  1  0
 23  8  1  0
 22 17  1  0
  1 25  1  0
  1 26  1  0
  3 27  1  0
  4 28  1  0
  5 29  1  0
  7 30  1  0
  9 31  1  0
 10 32  1  0
 16 33  1  0
 18 34  1  0
 19 35  1  0
 20 36  1  0
 21 37  1  0
 22 38  1  0
 23 39  1  0
 24 40  1  0
M  CHG  2  12   1  14  -1
M  END
>  <UniqueID>  (45) 
45

>  <SMILES>  (45) 
Nc1cccc(Nc2ccc([N+](=O)[O-])c(Nc3ccccc3)c2)c1

>  <Energy>  (45) 
56.64080767537476

>  <Genealogy>  (45) 
Nc1cccc(Nc2ccc([N+](=O)[O-])c(Nc3ccccc3)c2)c1 (3D coordinates assigned)
Nc1cccc(Nc2ccc([N+](=O)[O-])c(Nc3ccccc3)c2)c1 (optimized conformer: 56.64080767537476 kcal/mol)

>  <smiles>  (45) 
Nc1cccc(Nc2ccc([N+](=O)[O-])c(Nc3ccccc3)c2)c1

>  <score_type>  (45) 
oracle

>  <origin>  (45) 
adgpu

>  <m_score__min__energy>  (45) 
-8.8800000000000008

>  <m_primary>  (45) 
energy

$$$$
45:0
     RDKit          3D

 66 70  0  0  0  0  0  0  0  0999 V2000
   -0.1850   23.3320  -24.4080 C   0  0  0  0  0  0  0  0  0  0  0  0
    0.5720   24.2280  -25.2160 O   0  0  0  0  0  0  0  0  0  0  0  0
    1.6440   25.0070  -24.7510 C   0  0  0  0  0  0  0  0  0  0  0  0
    2.9690   24.5260  -24.7560 C   0  0  0  0  0  0  0  0  0  0  0  0
    4.0130   25.3170  -24.2710 C   0  0  0  0  0  0  0  0  0  0  0  0
    3.7520   26.5960  -23.7640 C   0  0  0  0  0  0  0  0  0  0  0  0
    4.8750   27.4580  -23.2690 C   0  0  0  0  0  0  0  0  0  0  0  0
    2.4380   27.0880  -23.7760 C   0  0  0  0  0  0  0  0  0  0  0  0
    1.3850   26.3040  -24.2700 C   0  0  0  0  0  0  0  0  0  0  0  0
   -0.2570   26.9500  -24.2450 S   0  0  0  0  0  0  0  0  0  0  0  0
   -0.8860   26.6420  -22.9150 O   0  0  0  0  0  0  0  0  0  0  0  0
   -0.2440   28.4400  -24.4530 O   0  0  0  0  0  0  0  0  0  0  0  0
   -1.1990   26.2290  -25.5010 N   0  0  0  0  0  0  0  0  0  0  0  0
   -1.9860   25.6330  -26.5230 C   0  0  0  0  0  0  0  0  0  0  0  0
   -3.2640   25.1490  -26.2240 C   0  0  0  0  0  0  0  0  0  0  0  0
   -4.0360   24.5470  -27.2220 C   0  0  0  0  0  0  0  0  0  0  0  0
   -3.5380   24.4300  -28.5320 C   0  0  0  0  0  0  0  0  0  0  0  0
   -4.3260   23.7520  -29.5810 C   0  0  0  0  0  0  0  0  0  0  0  0
   -3.9270   22.5690  -30.1280 N   0  0  0  0  0  0  0  0  0  0  0  0
   -4.9420   22.2570  -30.9530 C   0  0  0  0  0  0  0  0  0  0  0  0
   -5.0650   21.1210  -31.7500 C   0  0  0  0  0  0  0  0  0  0  0  0
   -6.2490   20.9600  -32.5000 C   0  0  0  0  0  0  0  0  0  0  0  0
   -6.3930   19.7880  -33.3070 N   0  0  0  0  0  0  0  0  0  0  0  0
   -6.5570   18.1740  -32.6920 S   0  0  0  0  0  0  0  0  0  0  0  0
   -6.2620   18.1360  -31.2180 O   0  0  0  0  0  0  0  0  0  0  0  0
   -7.9750   17.7240  -32.8990 O   0  0  0  0  0  0  0  0  0  0  0  0
   -5.4790   17.1010  -33.5870 C   0  0  0  0  0  0  0  0  0  0  0  0
   -4.5140   17.6190  -34.4650 C   0  0  0  0  0  0  0  0  0  0  0  0
   -3.7060   16.7580  -35.2130 C   0  0  0  0  0  0  0  0  0  0  0  0
   -3.8550   15.3670  -35.0960 C   0  0  0  0  0  0  0  0  0  0  0  0
   -2.9860   14.4530  -35.9080 C   0  0  0  0  0  0  0  0  0  0  0  0
   -4.8170   14.8500  -34.2110 C   0  0  0  0  0  0  0  0  0  0  0  0
   -5.6250   15.7130  -33.4650 C   0  0  0  0  0  0  0  0  0  0  0  0
   -7.2570   21.9610  -32.4440 C   0  0  0  0  0  0  0  0  0  0  0  0
   -7.0920   23.1040  -31.6410 C   0  0  0  0  0  0  0  0  0  0  0  0
   -5.9140   23.2120  -30.9010 C   0  0  0  0  0  0  0  0  0  0  0  0
   -5.5300   24.1820  -30.0560 N   0  0  0  0  0  0  0  0  0  0  0  0
   -6.2560   25.4100  -29.7260 C   0  0  0  0  0  0  0  0  0  0  0  0
   -2.2410   24.8960  -28.8170 C   0  0  0  0  0  0  0  0  0  0  0  0
   -1.4730   25.5020  -27.8180 C   0  0  0  0  0  0  0  0  0  0  0  0
   -0.0002   23.5507  -23.3459 H   0  0  0  0  0  0  0  0  0  0  0  0
   -1.2558   23.4563  -24.6270 H   0  0  0  0  0  0  0  0  0  0  0  0
    0.1163   22.2970  -24.6270 H   0  0  0  0  0  0  0  0  0  0  0  0
    3.1825   23.5195  -25.1450 H   0  0  0  0  0  0  0  0  0  0  0  0
    5.0440   24.9339  -24.2873 H   0  0  0  0  0  0  0  0  0  0  0  0
    4.8780   27.4603  -22.1690 H   0  0  0  0  0  0  0  0  0  0  0  0
    5.8322   27.0605  -23.6375 H   0  0  0  0  0  0  0  0  0  0  0  0
    4.7385   28.4854  -23.6375 H   0  0  0  0  0  0  0  0  0  0  0  0
    2.2316   28.0987  -23.3941 H   0  0  0  0  0  0  0  0  0  0  0  0
   -3.6618   25.2422  -25.2027 H   0  0  0  0  0  0  0  0  0  0  0  0
   -5.0382   24.1628  -26.9814 H   0  0  0  0  0  0  0  0  0  0  0  0
   -4.2617   20.3708  -31.7933 H   0  0  0  0  0  0  0  0  0  0  0  0
   -4.3931   18.7078  -34.5648 H   0  0  0  0  0  0  0  0  0  0  0  0
   -2.9500   17.1722  -35.8964 H   0  0  0  0  0  0  0  0  0  0  0  0
   -2.3867   13.8227  -35.2345 H   0  0  0  0  0  0  0  0  0  0  0  0
   -3.6179   13.8142  -36.5425 H   0  0  0  0  0  0  0  0  0  0  0  0
   -2.3161   15.0519  -36.5425 H   0  0  0  0  0  0  0  0  0  0  0  0
   -4.9345   13.7614  -34.1050 H   0  0  0  0  0  0  0  0  0  0  0  0
   -6.3792   15.3002  -32.7788 H   0  0  0  0  0  0  0  0  0  0  0  0
   -8.1766   21.8402  -33.0355 H   0  0  0  0  0  0  0  0  0  0  0  0
   -7.8648   23.8856  -31.5979 H   0  0  0  0  0  0  0  0  0  0  0  0
   -6.3188   25.5163  -28.6330 H   0  0  0  0  0  0  0  0  0  0  0  0
   -5.7241   26.2752  -30.1486 H   0  0  0  0  0  0  0  0  0  0  0  0
   -7.2704   25.3610  -30.1486 H   0  0  0  0  0  0  0  0  0  0  0  0
   -1.8294   24.7829  -29.8308 H   0  0  0  0  0  0  0  0  0  0  0  0
   -0.4649   25.8759  -28.0504 H   0  0  0  0  0  0  0  0  0  0  0  0
  1  2  1  0
  2  3  1  0
  3  4  2  0
  4  5  1  0
  5  6  2  0
  6  7  1  0
  6  8  1  0
  8  9  2  0
  9 10  1  0
 10 11  2  0
 10 12  2  0
 10 13  1  0
 13 14  1  0
 14 15  2  0
 15 16  1  0
 16 17  2  0
 17 18  1  0
 18 19  2  0
 19 20  1  0
 20 21  2  0
 21 22  1  0
 22 23  1  0
 23 24  1  0
 24 25  2  0
 24 26  2  0
 24 27  1  0
 27 28  2  0
 28 29  1  0
 29 30  2  0
 30 31  1  0
 30 32  1  0
 32 33  2  0
 22 34  2  0
 34 35  1  0
 35 36  2  0
 36 37  1  0
 37 38  1  0
 17 39  1  0
 39 40  2  0
  9  3  1  0
 40 14  1  0
 37 18  1  0
 36 20  1  0
 33 27  1  0
  1 41  1  0
  1 42  1  0
  1 43  1  0
  4 44  1  0
  5 45  1  0
  7 46  1  0
  7 47  1  0
  7 48  1  0
  8 49  1  0
 15 50  1  0
 16 51  1  0
 21 52  1  0
 28 53  1  0
 29 54  1  0
 31 55  1  0
 31 56  1  0
 31 57  1  0
 32 58  1  0
 33 59  1  0
 34 60  1  0
 35 61  1  0
 38 62  1  0
 38 63  1  0
 38 64  1  0
 39 65  1  0
 40 66  1  0
M  CHG  2  13  -1  23  -1
M  END
>  <UniqueID>  (46) 
46

>  <SMILES>  (46) 
COc1ccc(C)cc1S(=O)(=O)[N-]c1ccc(-c2nc3cc([N-]S(=O)(=O)c4ccc(C)cc4)ccc3n2C)cc1

>  <Energy>  (46) 
164.5884875135381

>  <Genealogy>  (46) 
COc1ccc(C)cc1S(=O)(=O)[N-]c1ccc(-c2nc3cc([N-]S(=O)(=O)c4ccc(C)cc4)ccc3n2C)cc1 (protonated)
COc1ccc(C)cc1S(=O)(=O)[N-]c1ccc(-c2nc3cc([N-]S(=O)(=O)c4ccc(C)cc4)ccc3n2C)cc1 (3D coordinates assigned)
COc1ccc(C)cc1S(=O)(=O)[N-]c1ccc(-c2nc3cc([N-]S(=O)(=O)c4ccc(C)cc4)ccc3n2C)cc1 (optimized conformer: 164.5884875135381 kcal/mol)

>  <smiles>  (46) 
COc1ccc(C)cc1S(=O)(=O)Nc1ccc(-c2nc3cc(NS(=O)(=O)c4ccc(C)cc4)ccc3n2C)cc1

>  <score_type>  (46) 
oracle

>  <origin>  (46) 
adgpu

>  <m_score__min__energy>  (46) 
-9.5500000000000007

>  <m_primary>  (46) 
energy

$$$$
46:0
     RDKit          3D

 49 51  0  0  0  0  0  0  0  0999 V2000
    4.8060   24.9440  -23.2700 C   0  0  0  0  0  0  0  0  0  0  0  0
    4.7750   24.4180  -24.5930 O   0  0  0  0  0  0  0  0  0  0  0  0
    3.6900   24.5490  -25.4720 C   0  0  0  0  0  0  0  0  0  0  0  0
    3.9540   24.6840  -26.8400 C   0  0  0  0  0  0  0  0  0  0  0  0
    2.9070   24.8170  -27.7570 C   0  0  0  0  0  0  0  0  0  0  0  0
    1.5730   24.8010  -27.3150 C   0  0  0  0  0  0  0  0  0  0  0  0
    0.4680   24.9570  -28.2180 N   0  0  0  0  0  0  0  0  0  0  0  0
   -0.5680   25.9470  -28.1470 C   0  0  0  0  0  0  0  0  0  0  0  0
   -0.3650   27.0480  -27.5710 O   0  0  0  0  0  0  0  0  0  0  0  0
   -1.8540   25.6960  -28.7250 N   0  0  0  0  0  0  0  0  0  0  0  0
   -2.3560   24.4210  -29.1560 C   0  0  0  0  0  0  0  0  0  0  0  0
   -1.8120   23.2230  -28.6790 C   0  0  0  0  0  0  0  0  0  0  0  0
   -2.2910   21.9990  -29.1390 C   0  0  0  0  0  0  0  0  0  0  0  0
   -3.3130   21.9440  -30.0980 C   0  0  0  0  0  0  0  0  0  0  0  0
   -3.7910   20.5920  -30.5620 C   0  0  0  0  0  0  0  0  0  0  0  0
   -3.8780   23.1490  -30.5890 C   0  0  0  0  0  0  0  0  0  0  0  0
   -5.1780   23.1150  -31.8070 S   0  0  0  0  0  0  0  0  0  0  0  0
   -4.6480   22.7170  -33.1580 O   0  0  0  0  0  0  0  0  0  0  0  0
   -5.7690   24.4910  -31.9320 O   0  0  0  0  0  0  0  0  0  0  0  0
   -6.4180   21.9880  -31.3130 N   0  0  0  0  0  0  0  0  0  0  0  0
   -6.6820   21.0250  -32.3990 C   0  0  0  0  0  0  0  0  0  0  0  0
   -8.0620   20.3710  -32.2180 C   0  0  0  0  0  0  0  0  0  0  0  0
   -9.1480   21.2910  -32.2180 O   0  0  0  0  0  0  0  0  0  0  0  0
   -8.7710   22.6230  -31.8970 C   0  0  0  0  0  0  0  0  0  0  0  0
   -7.6360   22.6970  -30.8600 C   0  0  0  0  0  0  0  0  0  0  0  0
   -3.3660   24.3840  -30.1270 C   0  0  0  0  0  0  0  0  0  0  0  0
   -3.8550   25.5860  -30.6260 O   0  0  0  0  0  0  0  0  0  0  0  0
    1.3080   24.6920  -25.9450 C   0  0  0  0  0  0  0  0  0  0  0  0
    2.3540   24.5580  -25.0280 C   0  0  0  0  0  0  0  0  0  0  0  0
    4.7573   24.1176  -22.5456 H   0  0  0  0  0  0  0  0  0  0  0  0
    5.7389   25.5075  -23.1212 H   0  0  0  0  0  0  0  0  0  0  0  0
    3.9457   25.6132  -23.1212 H   0  0  0  0  0  0  0  0  0  0  0  0
    4.9945   24.6855  -27.1968 H   0  0  0  0  0  0  0  0  0  0  0  0
    3.1281   24.9346  -28.8281 H   0  0  0  0  0  0  0  0  0  0  0  0
   -1.0011   23.2484  -27.9362 H   0  0  0  0  0  0  0  0  0  0  0  0
   -1.8631   21.0650  -28.7459 H   0  0  0  0  0  0  0  0  0  0  0  0
   -4.0137   19.9621  -29.6882 H   0  0  0  0  0  0  0  0  0  0  0  0
   -4.7009   20.7130  -31.1682 H   0  0  0  0  0  0  0  0  0  0  0  0
   -3.0073   20.1142  -31.1682 H   0  0  0  0  0  0  0  0  0  0  0  0
   -6.6554   21.5521  -33.3641 H   0  0  0  0  0  0  0  0  0  0  0  0
   -5.9113   20.2405  -32.3729 H   0  0  0  0  0  0  0  0  0  0  0  0
   -8.2155   19.6561  -33.0398 H   0  0  0  0  0  0  0  0  0  0  0  0
   -8.0561   19.8888  -31.2293 H   0  0  0  0  0  0  0  0  0  0  0  0
   -8.4369   23.1236  -32.8177 H   0  0  0  0  0  0  0  0  0  0  0  0
   -9.6504   23.1151  -31.4559 H   0  0  0  0  0  0  0  0  0  0  0  0
   -7.3859   23.7535  -30.6833 H   0  0  0  0  0  0  0  0  0  0  0  0
   -7.9877   22.2095  -29.9388 H   0  0  0  0  0  0  0  0  0  0  0  0
    0.2680   24.7120  -25.5872 H   0  0  0  0  0  0  0  0  0  0  0  0
    2.1326   24.4592  -23.9550 H   0  0  0  0  0  0  0  0  0  0  0  0
  1  2  1  0
  2  3  1  0
  3  4  2  0
  4  5  1  0
  5  6  2  0
  6  7  1  0
  7  8  1  0
  8  9  2  0
  8 10  1  0
 10 11  1  0
 11 12  2  0
 12 13  1  0
 13 14  2  0
 14 15  1  0
 14 16  1  0
 16 17  1  0
 17 18  2  0
 17 19  2  0
 17 20  1  0
 20 21  1  0
 21 22  1  0
 22 23  1  0
 23 24  1  0
 24 25  1  0
 16 26  2  0
 26 27  1  0
  6 28  1  0
 28 29  2  0
 29  3  1  0
 26 11  1  0
 25 20  1  0
  1 30  1  0
  1 31  1  0
  1 32  1  0
  4 33  1  0
  5 34  1  0
 12 35  1  0
 13 36  1  0
 15 37  1  0
 15 38  1  0
 15 39  1  0
 21 40  1  0
 21 41  1  0
 22 42  1  0
 22 43  1  0
 24 44  1  0
 24 45  1  0
 25 46  1  0
 25 47  1  0
 28 48  1  0
 29 49  1  0
M  CHG  3   7  -1  10  -1  27  -1
M  END
>  <UniqueID>  (47) 
47

>  <SMILES>  (47) 
COc1ccc([N-]C(=O)[N-]c2ccc(C)c(S(=O)(=O)N3CCOCC3)c2[O-])cc1

>  <Energy>  (47) 
72.25075822292841

>  <Genealogy>  (47) 
COc1ccc([N-]C(=O)[N-]c2ccc(C)c(S(=O)(=O)N3CCOCC3)c2[O-])cc1 (protonated)
COc1ccc([N-]C(=O)[N-]c2ccc(C)c(S(=O)(=O)N3CCOCC3)c2[O-])cc1 (3D coordinates assigned)
COc1ccc([N-]C(=O)[N-]c2ccc(C)c(S(=O)(=O)N3CCOCC3)c2[O-])cc1 (nonaromatic ring conformer: 72.25075822292841 kcal/mol)

>  <smiles>  (47) 
COc1ccc(NC(=O)Nc2ccc(C)c(S(=O)(=O)N3CCOCC3)c2O)cc1

>  <score_type>  (47) 
oracle

>  <origin>  (47) 
adgpu

>  <m_score__min__energy>  (47) 
-14.73

>  <m_primary>  (47) 
energy

$$$$
47:0
     RDKit          3D

 44 46  0  0  0  0  0  0  0  0999 V2000
   -5.7410   26.1210  -31.1930 O   0  0  0  0  0  0  0  0  0  0  0  0
   -5.2890   24.9720  -30.3370 S   0  0  0  0  0  0  0  0  0  0  0  0
   -5.6410   25.2790  -28.9080 O   0  0  0  0  0  0  0  0  0  0  0  0
   -3.5660   24.7910  -30.4940 N   0  0  0  0  0  0  0  0  0  0  0  0
   -3.0090   24.0350  -29.3710 C   0  0  0  0  0  0  0  0  0  0  0  0
   -2.1310   24.9110  -28.5320 C   0  0  0  0  0  0  0  0  0  0  0  0
   -1.7900   24.6850  -27.2140 C   0  0  0  0  0  0  0  0  0  0  0  0
   -0.9680   25.7320  -26.8610 C   0  0  0  0  0  0  0  0  0  0  0  0
   -0.8710   26.5370  -27.9780 C   0  0  0  0  0  0  0  0  0  0  0  0
   -1.5780   26.0230  -28.9570 O   0  0  0  0  0  0  0  0  0  0  0  0
   -6.1180   23.5090  -30.8680 C   0  0  0  0  0  0  0  0  0  0  0  0
   -5.4270   22.2910  -30.8980 C   0  0  0  0  0  0  0  0  0  0  0  0
   -6.0820   21.1200  -31.2930 C   0  0  0  0  0  0  0  0  0  0  0  0
   -7.4360   21.1570  -31.6530 C   0  0  0  0  0  0  0  0  0  0  0  0
   -8.2550   19.6830  -32.1720 S   0  0  0  0  0  0  0  0  0  0  0  0
   -8.7990   18.9690  -30.9670 O   0  0  0  0  0  0  0  0  0  0  0  0
   -9.4090   20.0370  -33.0690 O   0  0  0  0  0  0  0  0  0  0  0  0
   -7.1570   18.6230  -33.0050 N   0  0  0  0  0  0  0  0  0  0  0  0
   -6.4150   19.3630  -34.0270 C   0  0  0  0  0  0  0  0  0  0  0  0
   -4.9720   18.9410  -34.0020 C   0  0  0  0  0  0  0  0  0  0  0  0
   -3.9900   19.7820  -33.4530 C   0  0  0  0  0  0  0  0  0  0  0  0
   -2.6550   19.3680  -33.4040 C   0  0  0  0  0  0  0  0  0  0  0  0
   -2.2930   18.1100  -33.8920 C   0  0  0  0  0  0  0  0  0  0  0  0
   -3.2670   17.2610  -34.4260 C   0  0  0  0  0  0  0  0  0  0  0  0
   -4.6020   17.6710  -34.4770 C   0  0  0  0  0  0  0  0  0  0  0  0
   -8.1300   22.3730  -31.6090 C   0  0  0  0  0  0  0  0  0  0  0  0
   -7.4730   23.5450  -31.2240 C   0  0  0  0  0  0  0  0  0  0  0  0
   -3.8317   23.6480  -28.7518 H   0  0  0  0  0  0  0  0  0  0  0  0
   -2.4075   23.2031  -29.7661 H   0  0  0  0  0  0  0  0  0  0  0  0
   -2.1080   23.8451  -26.5789 H   0  0  0  0  0  0  0  0  0  0  0  0
   -0.4860   25.8941  -25.8856 H   0  0  0  0  0  0  0  0  0  0  0  0
   -0.2891   27.4685  -28.0385 H   0  0  0  0  0  0  0  0  0  0  0  0
   -4.3660   22.2553  -30.6100 H   0  0  0  0  0  0  0  0  0  0  0  0
   -5.5329   20.1673  -31.3212 H   0  0  0  0  0  0  0  0  0  0  0  0
   -6.4730   18.2710  -32.2950 H   0  0  0  0  0  0  0  0  0  0  0  0
   -6.8426   19.1491  -35.0177 H   0  0  0  0  0  0  0  0  0  0  0  0
   -6.4854   20.4416  -33.8227 H   0  0  0  0  0  0  0  0  0  0  0  0
   -4.2720   20.7700  -33.0601 H   0  0  0  0  0  0  0  0  0  0  0  0
   -1.8888   20.0340  -32.9805 H   0  0  0  0  0  0  0  0  0  0  0  0
   -1.2419   17.7876  -33.8561 H   0  0  0  0  0  0  0  0  0  0  0  0
   -2.9821   16.2690  -34.8065 H   0  0  0  0  0  0  0  0  0  0  0  0
   -5.3665   16.9969  -34.8907 H   0  0  0  0  0  0  0  0  0  0  0  0
   -9.1960   22.4056  -31.8784 H   0  0  0  0  0  0  0  0  0  0  0  0
   -8.0211   24.4984  -31.2004 H   0  0  0  0  0  0  0  0  0  0  0  0
  1  2  2  0
  2  3  2  0
  2  4  1  0
  4  5  1  0
  5  6  1  0
  6  7  2  0
  7  8  1  0
  8  9  2  0
  9 10  1  0
  2 11  1  0
 11 12  2  0
 12 13  1  0
 13 14  2  0
 14 15  1  0
 15 16  2  0
 15 17  2  0
 15 18  1  0
 18 19  1  0
 19 20  1  0
 20 21  2  0
 21 22  1  0
 22 23  2  0
 23 24  1  0
 24 25  2  0
 14 26  1  0
 26 27  2  0
 10  6  1  0
 27 11  1  0
 25 20  1  0
  5 28  1  0
  5 29  1  0
  7 30  1  0
  8 31  1  0
  9 32  1  0
 12 33  1  0
 13 34  1  0
 18 35  1  0
 19 36  1  0
 19 37  1  0
 21 38  1  0
 22 39  1  0
 23 40  1  0
 24 41  1  0
 25 42  1  0
 26 43  1  0
 27 44  1  0
M  CHG  1   4  -1
M  END
>  <UniqueID>  (48) 
48

>  <SMILES>  (48) 
O=S(=O)([N-]Cc1ccco1)c1ccc(S(=O)(=O)NCc2ccccc2)cc1

>  <Energy>  (48) 
63.29023558707583

>  <Genealogy>  (48) 
O=S(=O)([N-]Cc1ccco1)c1ccc(S(=O)(=O)NCc2ccccc2)cc1 (protonated)
O=S(=O)([N-]Cc1ccco1)c1ccc(S(=O)(=O)NCc2ccccc2)cc1 (3D coordinates assigned)
O=S(=O)([N-]Cc1ccco1)c1ccc(S(=O)(=O)NCc2ccccc2)cc1 (optimized conformer: 63.29023558707583 kcal/mol)

>  <smiles>  (48) 
O=S(=O)(NCc1ccccc1)c1ccc(S(=O)(=O)NCc2ccco2)cc1

>  <score_type>  (48) 
oracle

>  <origin>  (48) 
adgpu

>  <m_score__min__energy>  (48) 
-11.51

>  <m_primary>  (48) 
energy

$$$$
48:0
     RDKit          3D

 28 30  0  0  0  0  0  0  0  0999 V2000
   -4.1470   25.6430  -30.7910 O   0  0  0  0  0  0  0  0  0  0  0  0
   -4.2640   24.4050  -30.5890 C   0  0  0  0  0  0  0  0  0  0  0  0
   -5.3400   23.7230  -31.1560 C   0  0  0  0  0  0  0  0  0  0  0  0
   -5.4800   22.3420  -30.9350 C   0  0  0  0  0  0  0  0  0  0  0  0
   -6.6060   21.5660  -31.5130 C   0  0  0  0  0  0  0  0  0  0  0  0
   -7.9260   22.0130  -31.3160 C   0  0  0  0  0  0  0  0  0  0  0  0
   -9.0030   21.2970  -31.8440 C   0  0  0  0  0  0  0  0  0  0  0  0
   -8.7820   20.1230  -32.5660 C   0  0  0  0  0  0  0  0  0  0  0  0
   -9.8660   19.4230  -33.0860 O   0  0  0  0  0  0  0  0  0  0  0  0
   -7.4720   19.6550  -32.7580 C   0  0  0  0  0  0  0  0  0  0  0  0
   -7.2240   18.4780  -33.4660 O   0  0  0  0  0  0  0  0  0  0  0  0
   -6.3940   20.3730  -32.2320 C   0  0  0  0  0  0  0  0  0  0  0  0
   -4.5880   21.7070  -30.1770 O   0  0  0  0  0  0  0  0  0  0  0  0
   -3.5460   22.3130  -29.6150 C   0  0  0  0  0  0  0  0  0  0  0  0
   -2.6580   21.5630  -28.8360 C   0  0  0  0  0  0  0  0  0  0  0  0
   -1.5570   22.1770  -28.2380 C   0  0  0  0  0  0  0  0  0  0  0  0
   -1.3360   23.5450  -28.4130 C   0  0  0  0  0  0  0  0  0  0  0  0
   -2.2130   24.3120  -29.1890 C   0  0  0  0  0  0  0  0  0  0  0  0
   -1.9590   25.6710  -29.3400 O   0  0  0  0  0  0  0  0  0  0  0  0
   -3.3340   23.7000  -29.8000 C   0  0  0  0  0  0  0  0  0  0  0  0
   -6.0745   24.2623  -31.7722 H   0  0  0  0  0  0  0  0  0  0  0  0
   -8.1109   22.9330  -30.7420 H   0  0  0  0  0  0  0  0  0  0  0  0
  -10.0299   21.6600  -31.6901 H   0  0  0  0  0  0  0  0  0  0  0  0
   -7.9700   17.9350  -33.8840 H   0  0  0  0  0  0  0  0  0  0  0  0
   -5.3691   20.0025  -32.3811 H   0  0  0  0  0  0  0  0  0  0  0  0
   -2.8285   20.4855  -28.6945 H   0  0  0  0  0  0  0  0  0  0  0  0
   -0.8615   21.5824  -27.6274 H   0  0  0  0  0  0  0  0  0  0  0  0
   -0.4667   24.0230  -27.9377 H   0  0  0  0  0  0  0  0  0  0  0  0
  1  2  2  0
  2  3  1  0
  3  4  2  0
  4  5  1  0
  5  6  2  0
  6  7  1  0
  7  8  2  0
  8  9  1  0
  8 10  1  0
 10 11  1  0
 10 12  2  0
  4 13  1  0
 13 14  1  0
 14 15  2  0
 15 16  1  0
 16 17  2  0
 17 18  1  0
 18 19  1  0
 18 20  2  0
 20  2  1  0
 12  5  1  0
 20 14  1  0
  3 21  1  0
  6 22  1  0
  7 23  1  0
 11 24  1  0
 12 25  1  0
 15 26  1  0
 16 27  1  0
 17 28  1  0
M  CHG  2   9  -1  19  -1
M  END
>  <UniqueID>  (49) 
49

>  <SMILES>  (49) 
O=c1cc(-c2ccc([O-])c(O)c2)oc2cccc([O-])c12

>  <Energy>  (49) 
41.73160854662931

>  <Genealogy>  (49) 
O=c1cc(-c2ccc([O-])c(O)c2)oc2cccc([O-])c12 (protonated)
O=c1cc(-c2ccc([O-])c(O)c2)oc2cccc([O-])c12 (3D coordinates assigned)
O=c1cc(-c2ccc([O-])c(O)c2)oc2cccc([O-])c12 (optimized conformer: 41.73160854662931 kcal/mol)

>  <smiles>  (49) 
O=c1cc(-c2ccc(O)c(O)c2)oc2cccc(O)c12

>  <score_type>  (49) 
oracle

>  <origin>  (49) 
adgpu

>  <m_score__min__energy>  (49) 
-10.08

>  <m_primary>  (49) 
energy

$$$$
49:0
     RDKit          3D

 53 56  0  0  0  0  0  0  0  0999 V2000
   -1.5400   22.3370  -31.0830 O   0  0  0  0  0  0  0  0  0  0  0  0
   -1.5710   22.7550  -29.8940 C   0  0  0  0  0  0  0  0  0  0  0  0
   -1.4210   24.1630  -29.6640 N   0  0  0  0  0  0  0  0  0  0  0  0
   -1.5020   24.8390  -28.3990 C   0  0  0  0  0  0  0  0  0  0  0  0
   -0.3680   25.4450  -27.8270 C   0  0  0  0  0  0  0  0  0  0  0  0
   -0.4400   26.0260  -26.5590 C   0  0  0  0  0  0  0  0  0  0  0  0
   -1.6320   25.9840  -25.8370 C   0  0  0  0  0  0  0  0  0  0  0  0
   -2.7570   25.3630  -26.3820 C   0  0  0  0  0  0  0  0  0  0  0  0
   -2.7090   24.8020  -27.6660 C   0  0  0  0  0  0  0  0  0  0  0  0
   -3.8810   24.1600  -28.1910 N   0  0  0  0  0  0  0  0  0  0  0  0
   -4.3190   24.3360  -29.5490 C   0  0  0  0  0  0  0  0  0  0  0  0
   -3.8560   25.2870  -30.2370 O   0  0  0  0  0  0  0  0  0  0  0  0
   -5.3370   23.4380  -30.1400 C   0  0  0  0  0  0  0  0  0  0  0  0
   -6.6890   23.5310  -29.7620 C   0  0  0  0  0  0  0  0  0  0  0  0
   -7.6400   22.6720  -30.3180 C   0  0  0  0  0  0  0  0  0  0  0  0
   -7.2580   21.7120  -31.2640 C   0  0  0  0  0  0  0  0  0  0  0  0
   -8.4500   20.6400  -31.9930 S   0  0  0  0  0  0  0  0  0  0  0  0
   -8.7880   19.5530  -31.0120 O   0  0  0  0  0  0  0  0  0  0  0  0
   -9.7060   21.3880  -32.3430 O   0  0  0  0  0  0  0  0  0  0  0  0
   -7.7910   19.9270  -33.4300 N   0  0  0  0  0  0  0  0  0  0  0  0
   -6.8150   18.8780  -33.4590 C   0  0  0  0  0  0  0  0  0  0  0  0
   -6.7810   17.8580  -32.4880 C   0  0  0  0  0  0  0  0  0  0  0  0
   -5.8090   16.8560  -32.5540 C   0  0  0  0  0  0  0  0  0  0  0  0
   -4.8660   16.8610  -33.5850 C   0  0  0  0  0  0  0  0  0  0  0  0
   -4.8970   17.8680  -34.5540 C   0  0  0  0  0  0  0  0  0  0  0  0
   -5.8670   18.8720  -34.4890 C   0  0  0  0  0  0  0  0  0  0  0  0
   -5.9140   21.6070  -31.6360 C   0  0  0  0  0  0  0  0  0  0  0  0
   -4.9590   22.4590  -31.0760 C   0  0  0  0  0  0  0  0  0  0  0  0
   -1.7020   21.7810  -28.7850 C   0  0  0  0  0  0  0  0  0  0  0  0
   -0.7040   21.7010  -27.7970 C   0  0  0  0  0  0  0  0  0  0  0  0
   -0.8280   20.7990  -26.7360 C   0  0  0  0  0  0  0  0  0  0  0  0
   -1.9490   19.9700  -26.6480 C   0  0  0  0  0  0  0  0  0  0  0  0
   -2.9520   20.0480  -27.6170 C   0  0  0  0  0  0  0  0  0  0  0  0
   -2.8330   20.9500  -28.6800 C   0  0  0  0  0  0  0  0  0  0  0  0
    0.5814   25.4612  -28.3823 H   0  0  0  0  0  0  0  0  0  0  0  0
    0.4452   26.5176  -26.1292 H   0  0  0  0  0  0  0  0  0  0  0  0
   -1.6859   26.4404  -24.8376 H   0  0  0  0  0  0  0  0  0  0  0  0
   -3.6887   25.3134  -25.7994 H   0  0  0  0  0  0  0  0  0  0  0  0
   -4.5370   23.7100  -27.5130 H   0  0  0  0  0  0  0  0  0  0  0  0
   -6.9993   24.2851  -29.0237 H   0  0  0  0  0  0  0  0  0  0  0  0
   -8.6936   22.7498  -30.0116 H   0  0  0  0  0  0  0  0  0  0  0  0
   -7.5220   17.8502  -31.6751 H   0  0  0  0  0  0  0  0  0  0  0  0
   -5.7863   16.0621  -31.7930 H   0  0  0  0  0  0  0  0  0  0  0  0
   -4.0999   16.0732  -33.6341 H   0  0  0  0  0  0  0  0  0  0  0  0
   -4.1574   17.8702  -35.3683 H   0  0  0  0  0  0  0  0  0  0  0  0
   -5.8857   19.6633  -35.2528 H   0  0  0  0  0  0  0  0  0  0  0  0
   -5.6074   20.8501  -32.3729 H   0  0  0  0  0  0  0  0  0  0  0  0
   -3.9032   22.3633  -31.3695 H   0  0  0  0  0  0  0  0  0  0  0  0
    0.1801   22.3526  -27.8596 H   0  0  0  0  0  0  0  0  0  0  0  0
   -0.0415   20.7420  -25.9691 H   0  0  0  0  0  0  0  0  0  0  0  0
   -2.0417   19.2563  -25.8161 H   0  0  0  0  0  0  0  0  0  0  0  0
   -3.8372   19.3990  -27.5443 H   0  0  0  0  0  0  0  0  0  0  0  0
   -3.6279   21.0100  -29.4379 H   0  0  0  0  0  0  0  0  0  0  0  0
  1  2  2  0
  2  3  1  0
  3  4  1  0
  4  5  2  0
  5  6  1  0
  6  7  2  0
  7  8  1  0
  8  9  2  0
  9 10  1  0
 10 11  1  0
 11 12  2  0
 11 13  1  0
 13 14  2  0
 14 15  1  0
 15 16  2  0
 16 17  1  0
 17 18  2  0
 17 19  2  0
 17 20  1  0
 20 21  1  0
 21 22  2  0
 22 23  1  0
 23 24  2  0
 24 25  1  0
 25 26  2  0
 16 27  1  0
 27 28  2  0
  2 29  1  0
 29 30  2  0
 30 31  1  0
 31 32  2  0
 32 33  1  0
 33 34  2  0
  9  4  1  0
 28 13  1  0
 34 29  1  0
 26 21  1  0
  5 35  1  0
  6 36  1  0
  7 37  1  0
  8 38  1  0
 10 39  1  0
 14 40  1  0
 15 41  1  0
 22 42  1  0
 23 43  1  0
 24 44  1  0
 25 45  1  0
 26 46  1  0
 27 47  1  0
 28 48  1  0
 30 49  1  0
 31 50  1  0
 32 51  1  0
 33 52  1  0
 34 53  1  0
M  CHG  2   3  -1  20  -1
M  END
>  <UniqueID>  (50) 
50

>  <SMILES>  (50) 
O=C([N-]c1ccccc1NC(=O)c1ccc(S(=O)(=O)[N-]c2ccccc2)cc1)c1ccccc1

>  <Energy>  (50) 
75.05443839037808

>  <Genealogy>  (50) 
O=C([N-]c1ccccc1NC(=O)c1ccc(S(=O)(=O)[N-]c2ccccc2)cc1)c1ccccc1 (protonated)
O=C([N-]c1ccccc1NC(=O)c1ccc(S(=O)(=O)[N-]c2ccccc2)cc1)c1ccccc1 (3D coordinates assigned)
O=C([N-]c1ccccc1NC(=O)c1ccc(S(=O)(=O)[N-]c2ccccc2)cc1)c1ccccc1 (optimized conformer: 75.05443839037808 kcal/mol)

>  <smiles>  (50) 
O=C(Nc1ccccc1NC(=O)c1ccc(S(=O)(=O)Nc2ccccc2)cc1)c1ccccc1

>  <score_type>  (50) 
oracle

>  <origin>  (50) 
adgpu

>  <m_score__min__energy>  (50) 
-11.470000000000001

>  <m_primary>  (50) 
energy

$$$$
