0:0
     RDKit          3D

 39 41  0  0  0  0  0  0  0  0999 V2000
   -8.8970   23.7300  -32.3000 O   0  0  0  0  0  0  0  0  0  0  0  0
   -8.1020   23.0610  -31.5880 C   0  0  0  0  0  0  0  0  0  0  0  0
   -8.5240   21.7800  -31.0980 N   0  0  0  0  0  0  0  0  0  0  0  0
   -9.0980   20.6960  -31.8950 C   0  0  0  0  0  0  0  0  0  0  0  0
   -8.0320   19.7340  -32.3600 C   0  0  0  0  0  0  0  0  0  0  0  0
   -6.8660   20.2170  -32.9790 C   0  0  0  0  0  0  0  0  0  0  0  0
   -5.8580   19.3330  -33.3740 C   0  0  0  0  0  0  0  0  0  0  0  0
   -4.7280   19.8090  -33.9520 F   0  0  0  0  0  0  0  0  0  0  0  0
   -6.0120   17.9600  -33.1690 C   0  0  0  0  0  0  0  0  0  0  0  0
   -7.1760   17.4680  -32.5730 C   0  0  0  0  0  0  0  0  0  0  0  0
   -8.1870   18.3480  -32.1700 C   0  0  0  0  0  0  0  0  0  0  0  0
   -9.3090   17.8510  -31.5910 F   0  0  0  0  0  0  0  0  0  0  0  0
   -6.7940   23.6430  -31.2360 C   0  0  0  0  0  0  0  0  0  0  0  0
   -6.7330   24.9110  -30.6460 C   0  0  0  0  0  0  0  0  0  0  0  0
   -5.5050   25.4480  -30.2570 C   0  0  0  0  0  0  0  0  0  0  0  0
   -4.3250   24.7280  -30.4590 C   0  0  0  0  0  0  0  0  0  0  0  0
   -3.1130   25.2930  -30.0740 O   0  0  0  0  0  0  0  0  0  0  0  0
   -4.3680   23.4560  -31.0650 C   0  0  0  0  0  0  0  0  0  0  0  0
   -3.1350   22.6570  -31.2630 C   0  0  0  0  0  0  0  0  0  0  0  0
   -2.1420   22.6240  -30.2720 C   0  0  0  0  0  0  0  0  0  0  0  0
   -0.9900   21.8550  -30.4530 C   0  0  0  0  0  0  0  0  0  0  0  0
   -0.8130   21.1050  -31.6200 C   0  0  0  0  0  0  0  0  0  0  0  0
    0.3520   20.3510  -31.7610 O   0  0  0  0  0  0  0  0  0  0  0  0
   -1.8090   21.1260  -32.6160 C   0  0  0  0  0  0  0  0  0  0  0  0
   -1.6440   20.2010  -34.1030 Cl  0  0  0  0  0  0  0  0  0  0  0  0
   -2.9630   21.8970  -32.4310 C   0  0  0  0  0  0  0  0  0  0  0  0
   -5.6080   22.9320  -31.4700 C   0  0  0  0  0  0  0  0  0  0  0  0
   -9.8309   20.1502  -31.2826 H   0  0  0  0  0  0  0  0  0  0  0  0
   -9.5808   21.1342  -32.7809 H   0  0  0  0  0  0  0  0  0  0  0  0
   -6.7462   21.2965  -33.1534 H   0  0  0  0  0  0  0  0  0  0  0  0
   -5.2164   17.2656  -33.4770 H   0  0  0  0  0  0  0  0  0  0  0  0
   -7.2982   16.3856  -32.4200 H   0  0  0  0  0  0  0  0  0  0  0  0
   -7.6570   25.4866  -30.4883 H   0  0  0  0  0  0  0  0  0  0  0  0
   -5.4661   26.4428  -29.7892 H   0  0  0  0  0  0  0  0  0  0  0  0
   -2.2714   23.2066  -29.3480 H   0  0  0  0  0  0  0  0  0  0  0  0
   -0.2160   21.8392  -29.6715 H   0  0  0  0  0  0  0  0  0  0  0  0
    0.7570   20.1350  -32.6640 H   0  0  0  0  0  0  0  0  0  0  0  0
   -3.7419   21.9074  -33.2077 H   0  0  0  0  0  0  0  0  0  0  0  0
   -5.6484   21.9556  -31.9750 H   0  0  0  0  0  0  0  0  0  0  0  0
  1  2  2  0
  2  3  1  0
  3  4  1  0
  4  5  1  0
  5  6  2  0
  6  7  1  0
  7  8  1  0
  7  9  2  0
  9 10  1  0
 10 11  2  0
 11 12  1  0
  2 13  1  0
 13 14  2  0
 14 15  1  0
 15 16  2  0
 16 17  1  0
 16 18  1  0
 18 19  1  0
 19 20  2  0
 20 21  1  0
 21 22  2  0
 22 23  1  0
 22 24  1  0
 24 25  1  0
 24 26  2  0
 18 27  2  0
 11  5  1  0
 27 13  1  0
 26 19  1  0
  4 28  1  0
  4 29  1  0
  6 30  1  0
  9 31  1  0
 10 32  1  0
 14 33  1  0
 15 34  1  0
 20 35  1  0
 21 36  1  0
 23 37  1  0
 26 38  1  0
 27 39  1  0
M  CHG  2   3  -1  17  -1
M  END
>  <UniqueID>  (1) 
1

>  <SMILES>  (1) 
O=C([N-]Cc1cc(F)ccc1F)c1ccc([O-])c(-c2ccc(O)c(Cl)c2)c1

>  <Energy>  (1) 
51.293303165309105

>  <Genealogy>  (1) 
O=C([N-]Cc1cc(F)ccc1F)c1ccc([O-])c(-c2ccc(O)c(Cl)c2)c1 (protonated)
O=C([N-]Cc1cc(F)ccc1F)c1ccc([O-])c(-c2ccc(O)c(Cl)c2)c1 (3D coordinates assigned)
O=C([N-]Cc1cc(F)ccc1F)c1ccc([O-])c(-c2ccc(O)c(Cl)c2)c1 (optimized conformer: 51.293303165309105 kcal/mol)

>  <smiles>  (1) 
O=C(NCc1cc(F)ccc1F)c1ccc(O)c(-c2ccc(O)c(Cl)c2)c1

>  <score_type>  (1) 
oracle

>  <origin>  (1) 
adgpu

>  <m_score__min__energy>  (1) 
-11.68

>  <m_primary>  (1) 
energy

$$$$
1:0
     RDKit          3D

 35 37  0  0  0  0  0  0  0  0999 V2000
   -1.5720   22.0450  -29.0450 C   0  0  0  0  0  0  0  0  0  0  0  0
   -1.5060   23.5240  -28.8340 C   0  0  0  0  0  0  0  0  0  0  0  0
   -0.5620   24.1180  -28.0800 N   0  0  0  0  0  0  0  0  0  0  0  0
   -0.8440   25.4320  -28.1950 C   0  0  0  0  0  0  0  0  0  0  0  0
   -1.8880   25.6590  -28.9600 O   0  0  0  0  0  0  0  0  0  0  0  0
   -2.3360   24.4980  -29.3640 C   0  0  0  0  0  0  0  0  0  0  0  0
   -3.5050   24.3390  -30.2490 C   0  0  0  0  0  0  0  0  0  0  0  0
   -3.9570   25.3510  -30.8460 O   0  0  0  0  0  0  0  0  0  0  0  0
   -4.1330   23.0700  -30.4680 N   0  0  0  0  0  0  0  0  0  0  0  0
   -5.4280   22.8590  -31.0500 C   0  0  0  0  0  0  0  0  0  0  0  0
   -6.5380   23.6290  -30.6570 C   0  0  0  0  0  0  0  0  0  0  0  0
   -7.7900   23.4100  -31.2370 C   0  0  0  0  0  0  0  0  0  0  0  0
   -7.9440   22.4310  -32.2200 C   0  0  0  0  0  0  0  0  0  0  0  0
   -6.8450   21.6750  -32.6320 C   0  0  0  0  0  0  0  0  0  0  0  0
   -5.5850   21.8920  -32.0610 C   0  0  0  0  0  0  0  0  0  0  0  0
   -4.1910   20.8990  -32.6110 S   0  0  0  0  0  0  0  0  0  0  0  0
   -5.1970   19.4290  -32.8260 C   0  0  0  0  0  0  0  0  0  0  0  0
   -5.3680   18.8770  -34.1020 C   0  0  0  0  0  0  0  0  0  0  0  0
   -6.1480   17.7290  -34.2700 C   0  0  0  0  0  0  0  0  0  0  0  0
   -6.7630   17.1330  -33.1630 C   0  0  0  0  0  0  0  0  0  0  0  0
   -6.5990   17.6870  -31.8890 C   0  0  0  0  0  0  0  0  0  0  0  0
   -5.8190   18.8350  -31.7210 C   0  0  0  0  0  0  0  0  0  0  0  0
   -1.5947   21.5362  -28.0700 H   0  0  0  0  0  0  0  0  0  0  0  0
   -2.4822   21.7955  -29.6101 H   0  0  0  0  0  0  0  0  0  0  0  0
   -0.6877   21.7154  -29.6101 H   0  0  0  0  0  0  0  0  0  0  0  0
   -0.2638   26.2263  -27.7025 H   0  0  0  0  0  0  0  0  0  0  0  0
   -6.4195   24.4076  -29.8890 H   0  0  0  0  0  0  0  0  0  0  0  0
   -8.6554   24.0098  -30.9186 H   0  0  0  0  0  0  0  0  0  0  0  0
   -8.9320   22.2550  -32.6704 H   0  0  0  0  0  0  0  0  0  0  0  0
   -6.9694   20.9057  -33.4084 H   0  0  0  0  0  0  0  0  0  0  0  0
   -4.8880   19.3473  -34.9729 H   0  0  0  0  0  0  0  0  0  0  0  0
   -6.2783   17.2942  -35.2720 H   0  0  0  0  0  0  0  0  0  0  0  0
   -7.3754   16.2288  -33.2948 H   0  0  0  0  0  0  0  0  0  0  0  0
   -7.0838   17.2193  -31.0193 H   0  0  0  0  0  0  0  0  0  0  0  0
   -5.6937   19.2722  -30.7194 H   0  0  0  0  0  0  0  0  0  0  0  0
  1  2  1  0
  2  3  1  0
  3  4  2  0
  4  5  1  0
  5  6  1  0
  6  7  1  0
  7  8  2  0
  7  9  1  0
  9 10  1  0
 10 11  2  0
 11 12  1  0
 12 13  2  0
 13 14  1  0
 14 15  2  0
 15 16  1  0
 16 17  1  0
 17 18  2  0
 18 19  1  0
 19 20  2  0
 20 21  1  0
 21 22  2  0
  6  2  2  0
 15 10  1  0
 22 17  1  0
  1 23  1  0
  1 24  1  0
  1 25  1  0
  4 26  1  0
 11 27  1  0
 12 28  1  0
 13 29  1  0
 14 30  1  0
 18 31  1  0
 19 32  1  0
 20 33  1  0
 21 34  1  0
 22 35  1  0
M  CHG  1   9  -1
M  END
>  <UniqueID>  (2) 
2

>  <SMILES>  (2) 
Cc1ncoc1C(=O)[N-]c1ccccc1Sc1ccccc1

>  <Energy>  (2) 
68.19523609379678

>  <Genealogy>  (2) 
Cc1ncoc1C(=O)[N-]c1ccccc1Sc1ccccc1 (protonated)
Cc1ncoc1C(=O)[N-]c1ccccc1Sc1ccccc1 (3D coordinates assigned)
Cc1ncoc1C(=O)[N-]c1ccccc1Sc1ccccc1 (optimized conformer: 68.19523609379678 kcal/mol)

>  <smiles>  (2) 
Cc1ncoc1C(=O)Nc1ccccc1Sc1ccccc1

>  <score_type>  (2) 
oracle

>  <origin>  (2) 
adgpu

>  <m_score__min__energy>  (2) 
-9.5999999999999996

>  <m_primary>  (2) 
energy

$$$$
2:0
     RDKit          3D

 35 36  0  0  0  0  0  0  0  0999 V2000
   -0.7100   26.6620  -23.4590 C   0  0  0  0  0  0  0  0  0  0  0  0
   -1.1130   27.0990  -24.8630 C   0  0  0  0  0  0  0  0  0  0  0  0
   -1.1060   25.9280  -25.8080 C   0  0  0  0  0  0  0  0  0  0  0  0
   -0.5660   24.6980  -25.4160 C   0  0  0  0  0  0  0  0  0  0  0  0
   -0.5490   23.6540  -26.2830 N   0  0  0  0  0  0  0  0  0  0  0  0
   -1.0170   23.7570  -27.5590 C   0  0  0  0  0  0  0  0  0  0  0  0
   -1.0470   22.6280  -28.3860 O   0  0  0  0  0  0  0  0  0  0  0  0
   -1.3310   21.3210  -27.9660 C   0  0  0  0  0  0  0  0  0  0  0  0
   -2.6130   20.9340  -27.5310 C   0  0  0  0  0  0  0  0  0  0  0  0
   -2.8450   19.6230  -27.1040 C   0  0  0  0  0  0  0  0  0  0  0  0
   -1.8010   18.6940  -27.0960 C   0  0  0  0  0  0  0  0  0  0  0  0
   -0.5220   19.0770  -27.5070 C   0  0  0  0  0  0  0  0  0  0  0  0
   -0.2870   20.3880  -27.9340 C   0  0  0  0  0  0  0  0  0  0  0  0
   -1.5320   24.9900  -28.0110 C   0  0  0  0  0  0  0  0  0  0  0  0
   -2.0310   25.1940  -29.3420 N   0  0  0  0  0  0  0  0  0  0  0  0
   -3.4980   24.5440  -30.0050 S   0  0  0  0  0  0  0  0  0  0  0  0
   -4.5390   23.9050  -28.7080 C   0  0  0  0  0  0  0  0  0  0  0  0
   -4.2240   25.5940  -30.7980 O   0  0  0  0  0  0  0  0  0  0  0  0
   -3.1430   23.4050  -30.9190 O   0  0  0  0  0  0  0  0  0  0  0  0
   -1.5860   26.0640  -27.1170 C   0  0  0  0  0  0  0  0  0  0  0  0
   -1.2605   27.2590  -22.7170 H   0  0  0  0  0  0  0  0  0  0  0  0
   -0.9496   25.5970  -23.3235 H   0  0  0  0  0  0  0  0  0  0  0  0
    0.3709   26.8148  -23.3235 H   0  0  0  0  0  0  0  0  0  0  0  0
   -2.1243   27.5304  -24.8304 H   0  0  0  0  0  0  0  0  0  0  0  0
   -0.3901   27.8466  -25.2215 H   0  0  0  0  0  0  0  0  0  0  0  0
   -0.1545   24.5770  -24.4031 H   0  0  0  0  0  0  0  0  0  0  0  0
   -3.4346   21.6654  -27.5271 H   0  0  0  0  0  0  0  0  0  0  0  0
   -3.8504   19.3225  -26.7740 H   0  0  0  0  0  0  0  0  0  0  0  0
   -1.9864   17.6612  -26.7661 H   0  0  0  0  0  0  0  0  0  0  0  0
    0.3008   18.3471  -27.4948 H   0  0  0  0  0  0  0  0  0  0  0  0
    0.7240   20.6881  -28.2466 H   0  0  0  0  0  0  0  0  0  0  0  0
   -4.1098   24.1685  -27.7301 H   0  0  0  0  0  0  0  0  0  0  0  0
   -5.5448   24.3415  -28.7966 H   0  0  0  0  0  0  0  0  0  0  0  0
   -4.6051   22.8106  -28.7966 H   0  0  0  0  0  0  0  0  0  0  0  0
   -2.0095   27.0248  -27.4448 H   0  0  0  0  0  0  0  0  0  0  0  0
  1  2  1  0
  2  3  1  0
  3  4  2  0
  4  5  1  0
  5  6  2  0
  6  7  1  0
  7  8  1  0
  8  9  2  0
  9 10  1  0
 10 11  2  0
 11 12  1  0
 12 13  2  0
  6 14  1  0
 14 15  1  0
 15 16  1  0
 16 17  1  0
 16 18  2  0
 16 19  2  0
 14 20  2  0
 20  3  1  0
 13  8  1  0
  1 21  1  0
  1 22  1  0
  1 23  1  0
  2 24  1  0
  2 25  1  0
  4 26  1  0
  9 27  1  0
 10 28  1  0
 11 29  1  0
 12 30  1  0
 13 31  1  0
 17 32  1  0
 17 33  1  0
 17 34  1  0
 20 35  1  0
M  CHG  1  15  -1
M  END
>  <UniqueID>  (3) 
3

>  <SMILES>  (3) 
CCc1cnc(Oc2ccccc2)c([N-]S(C)(=O)=O)c1

>  <Energy>  (3) 
39.044590275916946

>  <Genealogy>  (3) 
CCc1cnc(Oc2ccccc2)c([N-]S(C)(=O)=O)c1 (protonated)
CCc1cnc(Oc2ccccc2)c([N-]S(C)(=O)=O)c1 (3D coordinates assigned)
CCc1cnc(Oc2ccccc2)c([N-]S(C)(=O)=O)c1 (optimized conformer: 39.044590275916946 kcal/mol)

>  <smiles>  (3) 
CCc1cnc(Oc2ccccc2)c(NS(C)(=O)=O)c1

>  <score_type>  (3) 
oracle

>  <origin>  (3) 
adgpu

>  <m_score__min__energy>  (3) 
-8.4199999999999999

>  <m_primary>  (3) 
energy

$$$$
3:0
     RDKit          3D

 51 53  0  0  0  0  0  0  0  0999 V2000
    0.1680   22.8320  -26.4260 C   0  0  0  0  0  0  0  0  0  0  0  0
   -0.7920   23.2720  -27.5000 C   0  0  0  0  0  0  0  0  0  0  0  0
   -0.7110   24.5900  -27.9800 C   0  0  0  0  0  0  0  0  0  0  0  0
   -1.6000   25.0500  -28.9510 C   0  0  0  0  0  0  0  0  0  0  0  0
   -2.6020   24.2140  -29.4480 C   0  0  0  0  0  0  0  0  0  0  0  0
   -3.4820   24.7240  -30.4610 N   0  0  0  0  0  0  0  0  0  0  0  0
   -4.9170   24.7150  -30.4320 C   0  0  0  0  0  0  0  0  0  0  0  0
   -5.5430   25.6500  -29.8650 O   0  0  0  0  0  0  0  0  0  0  0  0
   -5.6650   23.6310  -31.1110 C   0  0  0  0  0  0  0  0  0  0  0  0
   -4.9860   22.5500  -31.6950 C   0  0  0  0  0  0  0  0  0  0  0  0
   -5.6930   21.5260  -32.3250 C   0  0  0  0  0  0  0  0  0  0  0  0
   -7.0900   21.5550  -32.3860 C   0  0  0  0  0  0  0  0  0  0  0  0
   -7.9370   20.1560  -33.1360 S   0  0  0  0  0  0  0  0  0  0  0  0
   -6.7550   18.9700  -32.4930 C   0  0  0  0  0  0  0  0  0  0  0  0
   -6.7510   18.5390  -31.2180 N   0  0  0  0  0  0  0  0  0  0  0  0
   -5.7750   17.6470  -31.1170 N   0  0  0  0  0  0  0  0  0  0  0  0
   -5.2010   17.5450  -32.3320 C   0  0  0  0  0  0  0  0  0  0  0  0
   -5.7870   18.3750  -33.2140 N   0  0  0  0  0  0  0  0  0  0  0  0
   -5.5440   18.4500  -34.6500 C   0  0  0  0  0  0  0  0  0  0  0  0
   -7.7930   22.6480  -31.8280 C   0  0  0  0  0  0  0  0  0  0  0  0
   -9.2280   22.7380  -31.8980 N   0  0  0  0  0  0  0  0  0  0  0  0
   -9.9390   21.9500  -31.2430 O   0  0  0  0  0  0  0  0  0  0  0  0
   -9.8340   23.7940  -32.5400 O   0  0  0  0  0  0  0  0  0  0  0  0
   -7.0690   23.6700  -31.1840 C   0  0  0  0  0  0  0  0  0  0  0  0
   -2.6840   22.8910  -28.9880 C   0  0  0  0  0  0  0  0  0  0  0  0
   -1.8000   22.4150  -28.0050 C   0  0  0  0  0  0  0  0  0  0  0  0
   -1.9760   20.7450  -27.4330 S   0  0  0  0  0  0  0  0  0  0  0  0
   -1.4970   20.6320  -26.0110 O   0  0  0  0  0  0  0  0  0  0  0  0
   -3.4320   20.3710  -27.4780 O   0  0  0  0  0  0  0  0  0  0  0  0
   -1.0520   19.6600  -28.4430 N   0  0  0  0  0  0  0  0  0  0  0  0
   -0.9070   20.2440  -29.7840 C   0  0  0  0  0  0  0  0  0  0  0  0
    0.2690   19.4410  -27.8420 C   0  0  0  0  0  0  0  0  0  0  0  0
   -0.2706   23.0330  -25.4374 H   0  0  0  0  0  0  0  0  0  0  0  0
    0.3636   21.7544  -26.5281 H   0  0  0  0  0  0  0  0  0  0  0  0
    1.1120   23.3873  -26.5281 H   0  0  0  0  0  0  0  0  0  0  0  0
    0.0618   25.2662  -27.5857 H   0  0  0  0  0  0  0  0  0  0  0  0
   -1.5112   26.0794  -29.3283 H   0  0  0  0  0  0  0  0  0  0  0  0
   -3.8874   22.5102  -31.6554 H   0  0  0  0  0  0  0  0  0  0  0  0
   -5.1459   20.6865  -32.7788 H   0  0  0  0  0  0  0  0  0  0  0  0
   -4.3642   16.8722  -32.5710 H   0  0  0  0  0  0  0  0  0  0  0  0
   -4.5071   18.7700  -34.8302 H   0  0  0  0  0  0  0  0  0  0  0  0
   -5.7059   17.4601  -35.1015 H   0  0  0  0  0  0  0  0  0  0  0  0
   -6.2357   19.1765  -35.1015 H   0  0  0  0  0  0  0  0  0  0  0  0
   -7.6108   24.5130  -30.7304 H   0  0  0  0  0  0  0  0  0  0  0  0
   -3.4496   22.2183  -29.4019 H   0  0  0  0  0  0  0  0  0  0  0  0
   -0.6428   21.3080  -29.6940 H   0  0  0  0  0  0  0  0  0  0  0  0
   -0.1132   19.7141  -30.3308 H   0  0  0  0  0  0  0  0  0  0  0  0
   -1.8565   20.1470  -30.3308 H   0  0  0  0  0  0  0  0  0  0  0  0
    0.1801   19.4557  -26.7457 H   0  0  0  0  0  0  0  0  0  0  0  0
    0.6616   18.4655  -28.1649 H   0  0  0  0  0  0  0  0  0  0  0  0
    0.9554   20.2376  -28.1649 H   0  0  0  0  0  0  0  0  0  0  0  0
  1  2  1  0
  2  3  2  0
  3  4  1  0
  4  5  2  0
  5  6  1  0
  6  7  1  0
  7  8  2  0
  7  9  1  0
  9 10  2  0
 10 11  1  0
 11 12  2  0
 12 13  1  0
 13 14  1  0
 14 15  2  0
 15 16  1  0
 16 17  2  0
 17 18  1  0
 18 19  1  0
 12 20  1  0
 20 21  1  0
 21 22  2  0
 21 23  1  0
 20 24  2  0
  5 25  1  0
 25 26  2  0
 26 27  1  0
 27 28  2  0
 27 29  2  0
 27 30  1  0
 30 31  1  0
 30 32  1  0
 26  2  1  0
 24  9  1  0
 18 14  1  0
  1 33  1  0
  1 34  1  0
  1 35  1  0
  3 36  1  0
  4 37  1  0
 10 38  1  0
 11 39  1  0
 17 40  1  0
 19 41  1  0
 19 42  1  0
 19 43  1  0
 24 44  1  0
 25 45  1  0
 31 46  1  0
 31 47  1  0
 31 48  1  0
 32 49  1  0
 32 50  1  0
 32 51  1  0
M  CHG  3   6  -1  21   1  23  -1
M  END
>  <UniqueID>  (4) 
4

>  <SMILES>  (4) 
Cc1ccc([N-]C(=O)c2ccc(Sc3nncn3C)c([N+](=O)[O-])c2)cc1S(=O)(=O)N(C)C

>  <Energy>  (4) 
91.18853509362194

>  <Genealogy>  (4) 
Cc1ccc([N-]C(=O)c2ccc(Sc3nncn3C)c([N+](=O)[O-])c2)cc1S(=O)(=O)N(C)C (protonated)
Cc1ccc([N-]C(=O)c2ccc(Sc3nncn3C)c([N+](=O)[O-])c2)cc1S(=O)(=O)N(C)C (3D coordinates assigned)
Cc1ccc([N-]C(=O)c2ccc(Sc3nncn3C)c([N+](=O)[O-])c2)cc1S(=O)(=O)N(C)C (optimized conformer: 91.18853509362194 kcal/mol)

>  <smiles>  (4) 
Cc1ccc(NC(=O)c2ccc(Sc3nncn3C)c([N+](=O)[O-])c2)cc1S(=O)(=O)N(C)C

>  <score_type>  (4) 
oracle

>  <origin>  (4) 
adgpu

>  <m_score__min__energy>  (4) 
-11.77

>  <m_primary>  (4) 
energy

$$$$
4:0
     RDKit          3D

 64 67  0  0  0  0  0  0  0  0999 V2000
   -1.6590   26.6980  -29.1720 H   0  0  0  0  0  0  0  0  0  0  0  0
   -1.5600   25.6700  -29.0130 N   0  0  0  0  0  0  0  0  0  0  0  0
   -2.4400   24.8310  -29.4540 C   0  0  0  0  0  0  0  0  0  0  0  0
   -3.5270   25.2770  -30.1440 N   0  0  0  0  0  0  0  0  0  0  0  0
   -4.4720   24.4230  -30.6230 C   0  0  0  0  0  0  0  0  0  0  0  0
   -5.3393   24.8152  -31.1743 H   0  0  0  0  0  0  0  0  0  0  0  0
   -4.3400   23.0460  -30.4140 C   0  0  0  0  0  0  0  0  0  0  0  0
   -5.3290   22.1380  -30.9270 C   0  0  0  0  0  0  0  0  0  0  0  0
   -6.1630   21.3870  -31.3650 C   0  0  0  0  0  0  0  0  0  0  0  0
   -7.1510   20.4710  -31.8930 C   0  0  0  0  0  0  0  0  0  0  0  0
   -6.7600   19.2860  -32.5560 C   0  0  0  0  0  0  0  0  0  0  0  0
   -5.3390   18.9510  -32.8130 C   0  0  0  0  0  0  0  0  0  0  0  0
   -4.9280   17.6130  -32.8070 C   0  0  0  0  0  0  0  0  0  0  0  0
   -5.6642   16.8156  -32.6278 H   0  0  0  0  0  0  0  0  0  0  0  0
   -3.5900   17.2850  -33.0270 C   0  0  0  0  0  0  0  0  0  0  0  0
   -3.2830   16.2287  -33.0276 H   0  0  0  0  0  0  0  0  0  0  0  0
   -2.6290   18.2870  -33.2480 C   0  0  0  0  0  0  0  0  0  0  0  0
   -1.2090   17.8660  -33.3930 C   0  0  0  0  0  0  0  0  0  0  0  0
   -0.7200   17.8730  -34.5570 O   0  0  0  0  0  0  0  0  0  0  0  0
   -0.4110   17.4110  -32.2550 N   0  0  1  0  0  0  0  0  0  0  0  0
   -0.8240   17.8920  -31.4250 H   0  0  0  0  0  0  0  0  0  0  0  0
   -0.5630   15.9560  -31.9870 C   0  0  0  0  0  0  0  0  0  0  0  0
   -1.6261   15.6980  -32.1023 H   0  0  0  0  0  0  0  0  0  0  0  0
   -0.1786   15.7913  -30.9696 H   0  0  0  0  0  0  0  0  0  0  0  0
    0.2610   15.0230  -32.9150 C   0  0  0  0  0  0  0  0  0  0  0  0
    0.4293   15.5372  -33.8727 H   0  0  0  0  0  0  0  0  0  0  0  0
   -0.3128   14.0943  -33.0498 H   0  0  0  0  0  0  0  0  0  0  0  0
    1.5710   14.6610  -32.3350 N   0  0  0  0  0  0  0  0  0  0  0  0
    1.4600   13.9370  -31.0480 C   0  0  0  0  0  0  0  0  0  0  0  0
    2.4285   13.4601  -30.8368 H   0  0  0  0  0  0  0  0  0  0  0  0
    1.1756   14.6831  -30.2914 H   0  0  0  0  0  0  0  0  0  0  0  0
    0.3740   12.8510  -31.0230 C   0  0  0  0  0  0  0  0  0  0  0  0
    0.1267   12.6037  -29.9801 H   0  0  0  0  0  0  0  0  0  0  0  0
   -0.5263   13.2209  -31.5355 H   0  0  0  0  0  0  0  0  0  0  0  0
    0.7439   11.9507  -31.5355 H   0  0  0  0  0  0  0  0  0  0  0  0
    2.5400   15.7730  -32.2760 C   0  0  0  0  0  0  0  0  0  0  0  0
    2.7717   16.0883  -33.3041 H   0  0  0  0  0  0  0  0  0  0  0  0
    3.4284   15.4012  -31.7444 H   0  0  0  0  0  0  0  0  0  0  0  0
    2.0240   16.9920  -31.4980 C   0  0  0  0  0  0  0  0  0  0  0  0
    2.8881   17.6171  -31.2286 H   0  0  0  0  0  0  0  0  0  0  0  0
    1.4855   16.5968  -30.6240 H   0  0  0  0  0  0  0  0  0  0  0  0
    1.0160   17.8720  -32.2690 C   0  0  0  0  0  0  0  0  0  0  0  0
    1.3438   17.9175  -33.3180 H   0  0  0  0  0  0  0  0  0  0  0  0
    1.0170   18.8429  -31.7520 H   0  0  0  0  0  0  0  0  0  0  0  0
   -3.0570   19.6320  -33.3340 C   0  0  0  0  0  0  0  0  0  0  0  0
   -1.9870   20.9470  -33.8040 Cl  0  0  0  0  0  0  0  0  0  0  0  0
   -4.4030   19.9510  -33.1140 C   0  0  0  0  0  0  0  0  0  0  0  0
   -4.7301   20.9993  -33.1781 H   0  0  0  0  0  0  0  0  0  0  0  0
   -7.7140   18.4000  -32.9480 N   0  0  0  0  0  0  0  0  0  0  0  0
   -9.0310   18.6380  -32.7370 C   0  0  0  0  0  0  0  0  0  0  0  0
   -9.7806   17.9042  -33.0680 H   0  0  0  0  0  0  0  0  0  0  0  0
   -9.4280   19.7780  -32.1190 N   0  0  0  0  0  0  0  0  0  0  0  0
   -8.5280   20.7060  -31.6980 C   0  0  0  0  0  0  0  0  0  0  0  0
   -9.0430   21.9300  -30.9840 C   0  0  0  0  0  0  0  0  0  0  0  0
  -10.0493   21.7212  -30.5917 H   0  0  0  0  0  0  0  0  0  0  0  0
   -8.3530   22.1737  -30.1628 H   0  0  0  0  0  0  0  0  0  0  0  0
   -9.1140   23.1230  -31.9300 C   0  0  0  0  0  0  0  0  0  0  0  0
   -9.1693   24.0525  -31.3444 H   0  0  0  0  0  0  0  0  0  0  0  0
   -8.2154   23.1421  -32.5642 H   0  0  0  0  0  0  0  0  0  0  0  0
  -10.0085   23.0354  -32.5642 H   0  0  0  0  0  0  0  0  0  0  0  0
   -3.2320   22.5650  -29.7090 C   0  0  0  0  0  0  0  0  0  0  0  0
   -3.1142   21.4850  -29.5364 H   0  0  0  0  0  0  0  0  0  0  0  0
   -2.2760   23.4600  -29.2250 C   0  0  0  0  0  0  0  0  0  0  0  0
   -1.4017   23.0910  -28.6687 H   0  0  0  0  0  0  0  0  0  0  0  0
  1  2  1  0
  2  3  2  0
  3  4  1  0
  4  5  1  0
  5  6  1  0
  5  7  2  0
  7  8  1  0
  8  9  3  0
  9 10  1  0
 10 11  1  0
 11 12  1  0
 12 13  2  0
 13 14  1  0
 13 15  1  0
 15 16  1  0
 15 17  2  0
 17 18  1  0
 18 19  2  0
 18 20  1  0
 20 21  1  1
 20 22  1  0
 22 23  1  0
 22 24  1  0
 22 25  1  0
 25 26  1  0
 25 27  1  0
 25 28  1  0
 28 29  1  0
 29 30  1  0
 29 31  1  0
 29 32  1  0
 32 33  1  0
 32 34  1  0
 32 35  1  0
 28 36  1  0
 36 37  1  0
 36 38  1  0
 36 39  1  0
 39 40  1  0
 39 41  1  0
 39 42  1  0
 42 43  1  0
 42 44  1  0
 17 45  1  0
 45 46  1  0
 45 47  2  0
 47 48  1  0
 11 49  2  0
 49 50  1  0
 50 51  1  0
 50 52  2  0
 52 53  1  0
 53 54  1  0
 54 55  1  0
 54 56  1  0
 54 57  1  0
 57 58  1  0
 57 59  1  0
 57 60  1  0
  7 61  1  0
 61 62  1  0
 61 63  2  0
 63 64  1  0
 63  3  1  0
 53 10  2  0
 47 12  1  0
 42 20  1  0
M  CHG  2   4  -1  20   1
M  END
>  <UniqueID>  (5) 
5

>  <SMILES>  (5) 
[H]/N=c1/ccc(C#Cc2c(CC)ncnc2-c2ccc(C(=O)[N@@H+]3CCCN(CC)CC3)c(Cl)c2)c[n-]1

>  <Energy>  (5) 
98.81841947887071

>  <Genealogy>  (5) 
CCc1ncnc(-c2ccc(C(=O)[NH+]3CCCN(CC)CC3)c(Cl)c2)c1C#Cc1ccc(=N)[n-]c1 (protonated)
CCc1ncnc(-c2ccc(C(=O)[N@@H+]3CCCN(CC)CC3)c(Cl)c2)c1C#Cc1ccc(=N)[n-]c1 (chirality)
[H]/N=c1/ccc(C#Cc2c(CC)ncnc2-c2ccc(C(=O)[N@@H+]3CCCN(CC)CC3)c(Cl)c2)c[n-]1 (cis-trans isomerization)
[H]/N=c1/ccc(C#Cc2c(CC)ncnc2-c2ccc(C(=O)[N@@H+]3CCCN(CC)CC3)c(Cl)c2)c[n-]1 (3D coordinates assigned)
[H]/N=c1/ccc(C#Cc2c(CC)ncnc2-c2ccc(C(=O)[N@@H+]3CCCN(CC)CC3)c(Cl)c2)c[n-]1 (nonaromatic ring conformer: 98.81841947887071 kcal/mol)

>  <smiles>  (5) 
CCc1ncnc(-c2ccc(C(=O)N3CCCN(CC)CC3)c(Cl)c2)c1C#Cc1ccc(=N)[nH]c1

>  <score_type>  (5) 
oracle

>  <origin>  (5) 
adgpu

>  <m_score__min__energy>  (5) 
-9.25

>  <m_primary>  (5) 
energy

$$$$
5:0
     RDKit          3D

 60 64  0  0  0  0  0  0  0  0999 V2000
   -3.9100   25.2720  -30.6720 O   0  0  0  0  0  0  0  0  0  0  0  0
   -3.4900   24.1120  -30.4250 C   0  0  0  0  0  0  0  0  0  0  0  0
   -2.1830   23.9660  -29.8560 N   0  0  0  0  0  0  0  0  0  0  0  0
   -1.8040   24.3330  -28.5210 C   0  0  0  0  0  0  0  0  0  0  0  0
   -1.5970   25.6800  -28.1700 C   0  0  0  0  0  0  0  0  0  0  0  0
   -1.2050   26.0190  -26.8710 C   0  0  0  0  0  0  0  0  0  0  0  0
   -1.0250   25.0230  -25.9100 C   0  0  0  0  0  0  0  0  0  0  0  0
   -1.2200   23.6840  -26.2490 C   0  0  0  0  0  0  0  0  0  0  0  0
   -1.5910   23.3280  -27.5550 C   0  0  0  0  0  0  0  0  0  0  0  0
   -1.7550   21.9410  -27.8860 N   0  0  0  0  0  0  0  0  0  0  0  0
   -0.6690   21.2290  -28.5680 C   0  0  0  0  0  0  0  0  0  0  0  0
   -0.9030   19.7220  -28.5070 C   0  0  0  0  0  0  0  0  0  0  0  0
   -1.3990   19.3820  -27.2310 O   0  0  0  0  0  0  0  0  0  0  0  0
   -2.7540   19.7810  -27.1200 C   0  0  0  0  0  0  0  0  0  0  0  0
   -3.0040   21.2540  -27.5310 C   0  0  0  0  0  0  0  0  0  0  0  0
   -4.3290   22.9390  -30.7740 C   0  0  0  0  0  0  0  0  0  0  0  0
   -3.7380   21.6720  -30.9310 C   0  0  0  0  0  0  0  0  0  0  0  0
   -4.5240   20.5520  -31.2190 C   0  0  0  0  0  0  0  0  0  0  0  0
   -5.9110   20.6810  -31.3770 C   0  0  0  0  0  0  0  0  0  0  0  0
   -6.9010   19.2550  -31.7180 S   0  0  0  0  0  0  0  0  0  0  0  0
   -8.3190   19.5300  -31.2970 O   0  0  0  0  0  0  0  0  0  0  0  0
   -6.3900   18.1180  -30.8790 O   0  0  0  0  0  0  0  0  0  0  0  0
   -6.8800   18.7590  -33.4010 N   0  0  0  0  0  0  0  0  0  0  0  0
   -5.8450   19.4300  -34.2050 C   0  0  0  0  0  0  0  0  0  0  0  0
   -4.4250   18.9730  -33.8510 C   0  0  0  0  0  0  0  0  0  0  0  0
   -4.3300   17.4900  -33.6110 C   0  0  0  0  0  0  0  0  0  0  0  0
   -3.0630   16.8990  -33.4910 C   0  0  0  0  0  0  0  0  0  0  0  0
   -2.9410   15.5350  -33.2110 C   0  0  0  0  0  0  0  0  0  0  0  0
   -4.0850   14.7530  -33.0380 C   0  0  0  0  0  0  0  0  0  0  0  0
   -5.3530   15.3300  -33.1510 C   0  0  0  0  0  0  0  0  0  0  0  0
   -5.4850   16.7020  -33.4210 C   0  0  0  0  0  0  0  0  0  0  0  0
   -6.8640   17.2970  -33.5730 C   0  0  0  0  0  0  0  0  0  0  0  0
   -6.5080   21.9380  -31.2000 C   0  0  0  0  0  0  0  0  0  0  0  0
   -5.7260   23.0570  -30.9000 C   0  0  0  0  0  0  0  0  0  0  0  0
   -1.7442   26.4701  -28.9210 H   0  0  0  0  0  0  0  0  0  0  0  0
   -1.0381   27.0735  -26.6060 H   0  0  0  0  0  0  0  0  0  0  0  0
   -0.7295   25.2938  -24.8856 H   0  0  0  0  0  0  0  0  0  0  0  0
   -1.0821   22.9020  -25.4878 H   0  0  0  0  0  0  0  0  0  0  0  0
   -0.6305   21.5479  -29.6201 H   0  0  0  0  0  0  0  0  0  0  0  0
    0.2822   21.4639  -28.0679 H   0  0  0  0  0  0  0  0  0  0  0  0
   -1.6344   19.4316  -29.2756 H   0  0  0  0  0  0  0  0  0  0  0  0
    0.0440   19.1928  -28.6890 H   0  0  0  0  0  0  0  0  0  0  0  0
   -3.3616   19.1317  -27.7674 H   0  0  0  0  0  0  0  0  0  0  0  0
   -3.0301   19.6914  -26.0590 H   0  0  0  0  0  0  0  0  0  0  0  0
   -3.6792   21.2717  -28.3992 H   0  0  0  0  0  0  0  0  0  0  0  0
   -3.4500   21.7775  -26.6725 H   0  0  0  0  0  0  0  0  0  0  0  0
   -2.6486   21.5615  -30.8263 H   0  0  0  0  0  0  0  0  0  0  0  0
   -4.0514   19.5641  -31.3222 H   0  0  0  0  0  0  0  0  0  0  0  0
   -6.0294   19.2118  -35.2673 H   0  0  0  0  0  0  0  0  0  0  0  0
   -5.9079   20.5072  -33.9915 H   0  0  0  0  0  0  0  0  0  0  0  0
   -3.7537   19.2380  -34.6812 H   0  0  0  0  0  0  0  0  0  0  0  0
   -4.1390   19.4778  -32.9164 H   0  0  0  0  0  0  0  0  0  0  0  0
   -2.1595   17.5134  -33.6182 H   0  0  0  0  0  0  0  0  0  0  0  0
   -1.9441   15.0777  -33.1269 H   0  0  0  0  0  0  0  0  0  0  0  0
   -3.9880   13.6808  -32.8123 H   0  0  0  0  0  0  0  0  0  0  0  0
   -6.2512   14.7070  -33.0280 H   0  0  0  0  0  0  0  0  0  0  0  0
   -7.2404   17.0579  -34.5786 H   0  0  0  0  0  0  0  0  0  0  0  0
   -7.4982   16.8652  -32.7847 H   0  0  0  0  0  0  0  0  0  0  0  0
   -7.5985   22.0437  -31.2979 H   0  0  0  0  0  0  0  0  0  0  0  0
   -6.2058   24.0371  -30.7613 H   0  0  0  0  0  0  0  0  0  0  0  0
  1  2  2  0
  2  3  1  0
  3  4  1  0
  4  5  2  0
  5  6  1  0
  6  7  2  0
  7  8  1  0
  8  9  2  0
  9 10  1  0
 10 11  1  0
 11 12  1  0
 12 13  1  0
 13 14  1  0
 14 15  1  0
  2 16  1  0
 16 17  2  0
 17 18  1  0
 18 19  2  0
 19 20  1  0
 20 21  2  0
 20 22  2  0
 20 23  1  0
 23 24  1  0
 24 25  1  0
 25 26  1  0
 26 27  2  0
 27 28  1  0
 28 29  2  0
 29 30  1  0
 30 31  2  0
 31 32  1  0
 19 33  1  0
 33 34  2  0
  9  4  1  0
 15 10  1  0
 34 16  1  0
 32 23  1  0
 31 26  1  0
  5 35  1  0
  6 36  1  0
  7 37  1  0
  8 38  1  0
 11 39  1  0
 11 40  1  0
 12 41  1  0
 12 42  1  0
 14 43  1  0
 14 44  1  0
 15 45  1  0
 15 46  1  0
 17 47  1  0
 18 48  1  0
 24 49  1  0
 24 50  1  0
 25 51  1  0
 25 52  1  0
 27 53  1  0
 28 54  1  0
 29 55  1  0
 30 56  1  0
 32 57  1  0
 32 58  1  0
 33 59  1  0
 34 60  1  0
M  CHG  1   3  -1
M  END
>  <UniqueID>  (6) 
6

>  <SMILES>  (6) 
O=C([N-]c1ccccc1N1CCOCC1)c1ccc(S(=O)(=O)N2CCc3ccccc3C2)cc1

>  <Energy>  (6) 
85.26385730048978

>  <Genealogy>  (6) 
O=C([N-]c1ccccc1N1CCOCC1)c1ccc(S(=O)(=O)N2CCc3ccccc3C2)cc1 (protonated)
O=C([N-]c1ccccc1N1CCOCC1)c1ccc(S(=O)(=O)N2CCc3ccccc3C2)cc1 (3D coordinates assigned)
O=C([N-]c1ccccc1N1CCOCC1)c1ccc(S(=O)(=O)N2CCc3ccccc3C2)cc1 (nonaromatic ring conformer: 85.26385730048978 kcal/mol)

>  <smiles>  (6) 
O=C(Nc1ccccc1N1CCOCC1)c1ccc(S(=O)(=O)N2CCc3ccccc3C2)cc1

>  <score_type>  (6) 
oracle

>  <origin>  (6) 
adgpu

>  <m_score__min__energy>  (6) 
-10.94

>  <m_primary>  (6) 
energy

$$$$
6:0
     RDKit          3D

 56 59  0  0  0  0  0  0  0  0999 V2000
   -6.2880   25.5900  -30.0130 C   0  0  0  0  0  0  0  0  0  0  0  0
   -4.9380   25.0200  -29.7380 C   0  0  0  0  0  0  0  0  0  0  0  0
   -4.6000   24.2010  -28.6810 C   0  0  0  0  0  0  0  0  0  0  0  0
   -3.2650   23.9570  -28.9060 C   0  0  0  0  0  0  0  0  0  0  0  0
   -2.5100   23.2280  -28.1420 N   0  0  0  0  0  0  0  0  0  0  0  0
   -0.8220   22.9480  -28.4350 S   0  0  0  0  0  0  0  0  0  0  0  0
   -0.1160   22.6020  -27.1530 O   0  0  0  0  0  0  0  0  0  0  0  0
   -0.2120   24.2120  -28.9780 O   0  0  0  0  0  0  0  0  0  0  0  0
   -0.6280   21.6360  -29.5960 C   0  0  0  0  0  0  0  0  0  0  0  0
   -0.9310   21.8330  -30.9520 C   0  0  0  0  0  0  0  0  0  0  0  0
   -0.7920   20.7830  -31.8620 C   0  0  0  0  0  0  0  0  0  0  0  0
   -0.3360   19.5310  -31.4370 C   0  0  0  0  0  0  0  0  0  0  0  0
   -0.2290   18.4700  -32.3990 N   0  0  0  0  0  0  0  0  0  0  0  0
   -0.7420   18.4860  -33.7370 C   0  0  0  0  0  0  0  0  0  0  0  0
    0.0630   18.6550  -34.6910 O   0  0  0  0  0  0  0  0  0  0  0  0
   -2.1750   18.2480  -34.0300 C   0  0  0  0  0  0  0  0  0  0  0  0
   -2.5720   17.1880  -34.8620 C   0  0  0  0  0  0  0  0  0  0  0  0
   -3.9240   16.9830  -35.1450 C   0  0  0  0  0  0  0  0  0  0  0  0
   -4.8920   17.8300  -34.6060 C   0  0  0  0  0  0  0  0  0  0  0  0
   -4.5120   18.8990  -33.7780 C   0  0  0  0  0  0  0  0  0  0  0  0
   -5.5300   19.7750  -33.1650 C   0  0  0  0  0  0  0  0  0  0  0  0
   -6.7370   19.2280  -32.8640 N   0  0  0  0  0  0  0  0  0  0  0  0
   -7.7590   19.9410  -32.3300 C   0  0  0  0  0  0  0  0  0  0  0  0
   -9.0540   19.2260  -32.0650 C   0  0  0  0  0  0  0  0  0  0  0  0
   -7.5860   21.3180  -32.0560 C   0  0  0  0  0  0  0  0  0  0  0  0
   -8.6980   22.1200  -31.5050 C   0  0  0  0  0  0  0  0  0  0  0  0
   -9.4640   21.6320  -30.6330 O   0  0  0  0  0  0  0  0  0  0  0  0
   -8.9210   23.4140  -31.9610 O   0  0  0  0  0  0  0  0  0  0  0  0
   -6.3320   21.9130  -32.3310 C   0  0  0  0  0  0  0  0  0  0  0  0
   -6.0880   23.2600  -32.0440 O   0  0  0  0  0  0  0  0  0  0  0  0
   -5.2880   21.1370  -32.8770 C   0  0  0  0  0  0  0  0  0  0  0  0
   -3.9460   21.7770  -33.1480 C   0  0  0  0  0  0  0  0  0  0  0  0
   -3.1530   19.1000  -33.4900 C   0  0  0  0  0  0  0  0  0  0  0  0
   -0.0510   19.3290  -30.0760 C   0  0  0  0  0  0  0  0  0  0  0  0
   -0.1910   20.3780  -29.1630 C   0  0  0  0  0  0  0  0  0  0  0  0
   -2.8430   24.5890  -30.0180 N   0  0  0  0  0  0  0  0  0  0  0  0
   -3.8790   25.2140  -30.4930 O   0  0  0  0  0  0  0  0  0  0  0  0
   -6.7962   25.8046  -29.0613 H   0  0  0  0  0  0  0  0  0  0  0  0
   -6.1825   26.5204  -30.5903 H   0  0  0  0  0  0  0  0  0  0  0  0
   -6.8812   24.8656  -30.5903 H   0  0  0  0  0  0  0  0  0  0  0  0
   -5.2380   23.8348  -27.8632 H   0  0  0  0  0  0  0  0  0  0  0  0
   -1.2789   22.8172  -31.2990 H   0  0  0  0  0  0  0  0  0  0  0  0
   -1.0431   20.9418  -32.9211 H   0  0  0  0  0  0  0  0  0  0  0  0
   -1.8145   16.5165  -35.2925 H   0  0  0  0  0  0  0  0  0  0  0  0
   -4.2269   16.1497  -35.7960 H   0  0  0  0  0  0  0  0  0  0  0  0
   -5.9556   17.6605  -34.8298 H   0  0  0  0  0  0  0  0  0  0  0  0
   -9.2099   19.1399  -30.9795 H   0  0  0  0  0  0  0  0  0  0  0  0
   -9.8841   19.7936  -32.5108 H   0  0  0  0  0  0  0  0  0  0  0  0
   -9.0159   18.2211  -32.5108 H   0  0  0  0  0  0  0  0  0  0  0  0
   -6.8190   23.9430  -31.8960 H   0  0  0  0  0  0  0  0  0  0  0  0
   -3.4526   22.0123  -32.1935 H   0  0  0  0  0  0  0  0  0  0  0  0
   -3.3177   21.0816  -33.7239 H   0  0  0  0  0  0  0  0  0  0  0  0
   -4.0909   22.7029  -33.7239 H   0  0  0  0  0  0  0  0  0  0  0  0
   -2.8512   19.9315  -32.8361 H   0  0  0  0  0  0  0  0  0  0  0  0
    0.2838   18.3408  -29.7275 H   0  0  0  0  0  0  0  0  0  0  0  0
    0.0429   20.2148  -28.1006 H   0  0  0  0  0  0  0  0  0  0  0  0
  1  2  1  0
  2  3  2  0
  3  4  1  0
  4  5  2  3
  5  6  1  0
  6  7  2  0
  6  8  2  0
  6  9  1  0
  9 10  2  0
 10 11  1  0
 11 12  2  0
 12 13  1  0
 13 14  1  0
 14 15  2  0
 14 16  1  0
 16 17  2  0
 17 18  1  0
 18 19  2  0
 19 20  1  0
 20 21  1  0
 21 22  2  0
 22 23  1  0
 23 24  1  0
 23 25  2  0
 25 26  1  0
 26 27  2  0
 26 28  1  0
 25 29  1  0
 29 30  1  0
 29 31  2  0
 31 32  1  0
 20 33  2  0
 12 34  1  0
 34 35  2  0
  4 36  1  0
 36 37  1  0
 37  2  1  0
 35  9  1  0
 33 16  1  0
 31 21  1  0
  1 38  1  0
  1 39  1  0
  1 40  1  0
  3 41  1  0
 10 42  1  0
 11 43  1  0
 17 44  1  0
 18 45  1  0
 19 46  1  0
 24 47  1  0
 24 48  1  0
 24 49  1  0
 30 50  1  0
 32 51  1  0
 32 52  1  0
 32 53  1  0
 33 54  1  0
 34 55  1  0
 35 56  1  0
M  CHG  3  13  -1  28  -1  36  -1
M  END
>  <UniqueID>  (7) 
7

>  <SMILES>  (7) 
Cc1cc(=NS(=O)(=O)c2ccc([N-]C(=O)c3cccc(-c4nc(C)c(C(=O)[O-])c(O)c4C)c3)cc2)[n-]o1

>  <Energy>  (7) 
116.62942826203479

>  <Genealogy>  (7) 
Cc1cc(=NS(=O)(=O)c2ccc([N-]C(=O)c3cccc(-c4nc(C)c(C(=O)[O-])c(O)c4C)c3)cc2)[n-]o1 (protonated)
Cc1cc(=NS(=O)(=O)c2ccc([N-]C(=O)c3cccc(-c4nc(C)c(C(=O)[O-])c(O)c4C)c3)cc2)[n-]o1 (3D coordinates assigned)
Cc1cc(=NS(=O)(=O)c2ccc([N-]C(=O)c3cccc(-c4nc(C)c(C(=O)[O-])c(O)c4C)c3)cc2)[n-]o1 (optimized conformer: 116.62942826203479 kcal/mol)

>  <smiles>  (7) 
Cc1cc(=NS(=O)(=O)c2ccc(NC(=O)c3cccc(-c4nc(C)c(C(=O)O)c(O)c4C)c3)cc2)[nH]o1

>  <score_type>  (7) 
oracle

>  <origin>  (7) 
adgpu

>  <m_score__min__energy>  (7) 
-13.67

>  <m_primary>  (7) 
energy

$$$$
7:0
     RDKit          3D

 32 33  0  0  0  0  0  0  0  0999 V2000
   -5.0320   19.1990  -31.6770 O   0  0  0  0  0  0  0  0  0  0  0  0
   -4.6280   20.2560  -32.2330 C   0  0  0  0  0  0  0  0  0  0  0  0
   -3.1550   20.5030  -32.3510 C   0  0  0  0  0  0  0  0  0  0  0  0
   -2.7510   22.2450  -31.9820 S   0  0  0  0  0  0  0  0  0  0  0  0
   -2.7550   22.0400  -30.1900 C   0  0  0  0  0  0  0  0  0  0  0  0
   -2.7670   20.7270  -29.6960 C   0  0  0  0  0  0  0  0  0  0  0  0
   -2.7480   20.4840  -28.3240 C   0  0  0  0  0  0  0  0  0  0  0  0
   -2.7120   21.5490  -27.4280 C   0  0  0  0  0  0  0  0  0  0  0  0
   -2.7030   22.8630  -27.9010 C   0  0  0  0  0  0  0  0  0  0  0  0
   -2.7370   23.1340  -29.2820 C   0  0  0  0  0  0  0  0  0  0  0  0
   -2.7490   24.5540  -29.7200 C   0  0  0  0  0  0  0  0  0  0  0  0
   -3.6420   24.9950  -30.4890 O   0  0  0  0  0  0  0  0  0  0  0  0
   -1.7770   25.4340  -29.2550 O   0  0  0  0  0  0  0  0  0  0  0  0
   -5.5650   21.1930  -32.7900 N   0  0  0  0  0  0  0  0  0  0  0  0
   -6.9830   21.1520  -32.5440 C   0  0  0  0  0  0  0  0  0  0  0  0
   -7.7470   20.0400  -32.9480 C   0  0  0  0  0  0  0  0  0  0  0  0
   -9.1190   19.9900  -32.6880 C   0  0  0  0  0  0  0  0  0  0  0  0
   -9.7420   21.0400  -32.0120 C   0  0  0  0  0  0  0  0  0  0  0  0
   -8.9930   22.1380  -31.5870 C   0  0  0  0  0  0  0  0  0  0  0  0
   -7.6180   22.1980  -31.8410 C   0  0  0  0  0  0  0  0  0  0  0  0
   -6.6530   23.7380  -31.2300 Br  0  0  0  0  0  0  0  0  0  0  0  0
   -2.6233   19.8524  -31.6410 H   0  0  0  0  0  0  0  0  0  0  0  0
   -2.8446   20.2827  -33.3831 H   0  0  0  0  0  0  0  0  0  0  0  0
   -2.7916   19.8810  -30.3986 H   0  0  0  0  0  0  0  0  0  0  0  0
   -2.7615   19.4501  -27.9487 H   0  0  0  0  0  0  0  0  0  0  0  0
   -2.6906   21.3551  -26.3454 H   0  0  0  0  0  0  0  0  0  0  0  0
   -2.6689   23.6973  -27.1849 H   0  0  0  0  0  0  0  0  0  0  0  0
   -5.1930   21.9200  -33.4420 H   0  0  0  0  0  0  0  0  0  0  0  0
   -7.2600   19.2045  -33.4722 H   0  0  0  0  0  0  0  0  0  0  0  0
   -9.7089   19.1217  -33.0167 H   0  0  0  0  0  0  0  0  0  0  0  0
  -10.8234   21.0021  -31.8142 H   0  0  0  0  0  0  0  0  0  0  0  0
   -9.4861   22.9612  -31.0492 H   0  0  0  0  0  0  0  0  0  0  0  0
  1  2  2  0
  2  3  1  0
  3  4  1  0
  4  5  1  0
  5  6  2  0
  6  7  1  0
  7  8  2  0
  8  9  1  0
  9 10  2  0
 10 11  1  0
 11 12  2  0
 11 13  1  0
  2 14  1  0
 14 15  1  0
 15 16  2  0
 16 17  1  0
 17 18  2  0
 18 19  1  0
 19 20  2  0
 20 21  1  0
 10  5  1  0
 20 15  1  0
  3 22  1  0
  3 23  1  0
  6 24  1  0
  7 25  1  0
  8 26  1  0
  9 27  1  0
 14 28  1  0
 16 29  1  0
 17 30  1  0
 18 31  1  0
 19 32  1  0
M  CHG  1  13  -1
M  END
>  <UniqueID>  (8) 
8

>  <SMILES>  (8) 
O=C(CSc1ccccc1C(=O)[O-])Nc1ccccc1Br

>  <Energy>  (8) 
35.05943666991576

>  <Genealogy>  (8) 
O=C(CSc1ccccc1C(=O)[O-])Nc1ccccc1Br (protonated)
O=C(CSc1ccccc1C(=O)[O-])Nc1ccccc1Br (3D coordinates assigned)
O=C(CSc1ccccc1C(=O)[O-])Nc1ccccc1Br (optimized conformer: 35.05943666991576 kcal/mol)

>  <smiles>  (8) 
O=C(CSc1ccccc1C(=O)O)Nc1ccccc1Br

>  <score_type>  (8) 
oracle

>  <origin>  (8) 
adgpu

>  <m_score__min__energy>  (8) 
-10.35

>  <m_primary>  (8) 
energy

$$$$
8:0
     RDKit          3D

 53 55  0  0  0  0  0  0  0  0999 V2000
   -5.0270   25.6730  -31.1660 O   0  0  0  0  0  0  0  0  0  0  0  0
   -5.2700   24.4380  -31.2070 C   0  0  0  0  0  0  0  0  0  0  0  0
   -4.1860   23.5310  -31.4390 N   0  0  0  0  0  0  0  0  0  0  0  0
   -3.2970   22.9840  -30.4140 C   0  0  0  0  0  0  0  0  0  0  0  0
   -3.0050   24.0130  -29.3010 C   0  0  1  0  0  0  0  0  0  0  0  0
   -4.2000   24.2170  -28.3710 C   0  0  0  0  0  0  0  0  0  0  0  0
   -3.8800   23.4320  -27.1160 C   0  0  0  0  0  0  0  0  0  0  0  0
   -2.4160   23.0260  -27.2310 C   0  0  0  0  0  0  0  0  0  0  0  0
   -1.8650   23.5730  -28.4810 N   0  0  0  0  0  0  0  0  0  0  0  0
   -0.7810   24.9090  -28.1400 S   0  0  0  0  0  0  0  0  0  0  0  0
    0.6210   24.5240  -28.5230 O   0  0  0  0  0  0  0  0  0  0  0  0
   -1.1750   26.0990  -28.9680 O   0  0  0  0  0  0  0  0  0  0  0  0
   -0.8150   25.3620  -26.4330 C   0  0  0  0  0  0  0  0  0  0  0  0
   -1.2340   26.6440  -26.0480 C   0  0  0  0  0  0  0  0  0  0  0  0
   -1.2430   27.0050  -24.6970 C   0  0  0  0  0  0  0  0  0  0  0  0
   -0.8400   26.0860  -23.7240 C   0  0  0  0  0  0  0  0  0  0  0  0
   -0.4290   24.8050  -24.1010 C   0  0  0  0  0  0  0  0  0  0  0  0
   -0.4190   24.4410  -25.4510 C   0  0  0  0  0  0  0  0  0  0  0  0
   -6.6590   23.9770  -31.0510 C   0  0  0  0  0  0  0  0  0  0  0  0
   -7.2010   24.0080  -29.9140 O   0  0  0  0  0  0  0  0  0  0  0  0
   -7.3700   23.4450  -32.1780 N   0  0  0  0  0  0  0  0  0  0  0  0
   -8.7120   22.8710  -32.0800 C   0  0  0  0  0  0  0  0  0  0  0  0
   -8.7240   21.6340  -31.1710 C   0  0  0  0  0  0  0  0  0  0  0  0
   -8.0590   20.4490  -31.8220 C   0  0  0  0  0  0  0  0  0  0  0  0
   -6.9630   20.6280  -32.6830 C   0  0  0  0  0  0  0  0  0  0  0  0
   -6.3810   19.5260  -33.3170 C   0  0  0  0  0  0  0  0  0  0  0  0
   -6.8840   18.2410  -33.0950 C   0  0  0  0  0  0  0  0  0  0  0  0
   -7.9740   18.0560  -32.2400 C   0  0  0  0  0  0  0  0  0  0  0  0
   -8.5620   19.1550  -31.6070 C   0  0  0  0  0  0  0  0  0  0  0  0
   -3.7725   22.0993  -29.9654 H   0  0  0  0  0  0  0  0  0  0  0  0
   -2.3433   22.7192  -30.8940 H   0  0  0  0  0  0  0  0  0  0  0  0
   -2.7806   24.9627  -29.8087 H   0  0  0  0  0  0  0  0  0  0  0  0
   -4.3246   25.2841  -28.1348 H   0  0  0  0  0  0  0  0  0  0  0  0
   -5.1382   23.8778  -28.8344 H   0  0  0  0  0  0  0  0  0  0  0  0
   -4.0332   24.0584  -26.2248 H   0  0  0  0  0  0  0  0  0  0  0  0
   -4.5333   22.5528  -27.0154 H   0  0  0  0  0  0  0  0  0  0  0  0
   -1.8539   23.4255  -26.3740 H   0  0  0  0  0  0  0  0  0  0  0  0
   -2.3334   21.9291  -27.2366 H   0  0  0  0  0  0  0  0  0  0  0  0
   -1.5565   27.3677  -26.8111 H   0  0  0  0  0  0  0  0  0  0  0  0
   -1.5675   28.0131  -24.3998 H   0  0  0  0  0  0  0  0  0  0  0  0
   -0.8464   26.3713  -22.6617 H   0  0  0  0  0  0  0  0  0  0  0  0
   -0.1129   24.0819  -23.3348 H   0  0  0  0  0  0  0  0  0  0  0  0
   -0.0999   23.4299  -25.7441 H   0  0  0  0  0  0  0  0  0  0  0  0
   -6.8990   23.4280  -33.1110 H   0  0  0  0  0  0  0  0  0  0  0  0
   -9.3957   23.6267  -31.6659 H   0  0  0  0  0  0  0  0  0  0  0  0
   -9.0336   22.5655  -33.0866 H   0  0  0  0  0  0  0  0  0  0  0  0
   -8.1907   21.8729  -30.2390 H   0  0  0  0  0  0  0  0  0  0  0  0
   -9.7728   21.3684  -30.9723 H   0  0  0  0  0  0  0  0  0  0  0  0
   -6.5621   21.6372  -32.8586 H   0  0  0  0  0  0  0  0  0  0  0  0
   -5.5249   19.6708  -33.9924 H   0  0  0  0  0  0  0  0  0  0  0  0
   -6.4222   17.3757  -33.5930 H   0  0  0  0  0  0  0  0  0  0  0  0
   -8.3696   17.0446  -32.0650 H   0  0  0  0  0  0  0  0  0  0  0  0
   -9.4222   19.0060  -30.9377 H   0  0  0  0  0  0  0  0  0  0  0  0
  1  2  2  0
  2  3  1  0
  3  4  1  0
  4  5  1  0
  5  6  1  0
  6  7  1  0
  7  8  1  0
  8  9  1  0
  9 10  1  0
 10 11  2  0
 10 12  2  0
 10 13  1  0
 13 14  2  0
 14 15  1  0
 15 16  2  0
 16 17  1  0
 17 18  2  0
  2 19  1  0
 19 20  2  0
 19 21  1  0
 21 22  1  0
 22 23  1  0
 23 24  1  0
 24 25  2  0
 25 26  1  0
 26 27  2  0
 27 28  1  0
 28 29  2  0
  9  5  1  0
 18 13  1  0
 29 24  1  0
  4 30  1  0
  4 31  1  0
  5 32  1  6
  6 33  1  0
  6 34  1  0
  7 35  1  0
  7 36  1  0
  8 37  1  0
  8 38  1  0
 14 39  1  0
 15 40  1  0
 16 41  1  0
 17 42  1  0
 18 43  1  0
 21 44  1  0
 22 45  1  0
 22 46  1  0
 23 47  1  0
 23 48  1  0
 25 49  1  0
 26 50  1  0
 27 51  1  0
 28 52  1  0
 29 53  1  0
M  CHG  1   3  -1
M  END
>  <UniqueID>  (9) 
9

>  <SMILES>  (9) 
O=C([N-]C[C@H]1CCCN1S(=O)(=O)c1ccccc1)C(=O)NCCc1ccccc1

>  <Energy>  (9) 
50.832333229389356

>  <Genealogy>  (9) 
O=C([N-]CC1CCCN1S(=O)(=O)c1ccccc1)C(=O)NCCc1ccccc1 (protonated)
O=C([N-]C[C@H]1CCCN1S(=O)(=O)c1ccccc1)C(=O)NCCc1ccccc1 (chirality)
O=C([N-]C[C@H]1CCCN1S(=O)(=O)c1ccccc1)C(=O)NCCc1ccccc1 (3D coordinates assigned)
O=C([N-]C[C@H]1CCCN1S(=O)(=O)c1ccccc1)C(=O)NCCc1ccccc1 (nonaromatic ring conformer: 50.832333229389356 kcal/mol)

>  <smiles>  (9) 
O=C(NCCc1ccccc1)C(=O)NCC1CCCN1S(=O)(=O)c1ccccc1

>  <score_type>  (9) 
oracle

>  <origin>  (9) 
adgpu

>  <m_score__min__energy>  (9) 
-11.52

>  <m_primary>  (9) 
energy

$$$$
9:0
     RDKit          3D

 49 51  0  0  0  0  0  0  0  0999 V2000
   -0.8720   26.8030  -27.8900 C   0  0  0  0  0  0  0  0  0  0  0  0
   -1.5170   26.0740  -28.9290 O   0  0  0  0  0  0  0  0  0  0  0  0
   -1.5800   24.6730  -28.9880 C   0  0  0  0  0  0  0  0  0  0  0  0
   -0.6880   23.8530  -28.2650 C   0  0  0  0  0  0  0  0  0  0  0  0
   -0.7900   22.4610  -28.3430 C   0  0  0  0  0  0  0  0  0  0  0  0
   -1.7650   21.8740  -29.1520 C   0  0  0  0  0  0  0  0  0  0  0  0
   -2.6470   22.6770  -29.8770 C   0  0  0  0  0  0  0  0  0  0  0  0
   -2.5760   24.0780  -29.7800 C   0  0  0  0  0  0  0  0  0  0  0  0
   -3.5090   24.9190  -30.4750 N   0  0  0  0  0  0  0  0  0  0  0  0
   -5.2030   25.0140  -30.0980 S   0  0  0  0  0  0  0  0  0  0  0  0
   -5.3760   24.9590  -28.6030 O   0  0  0  0  0  0  0  0  0  0  0  0
   -5.7530   26.3130  -30.6060 O   0  0  0  0  0  0  0  0  0  0  0  0
   -6.0730   23.6550  -30.8030 C   0  0  0  0  0  0  0  0  0  0  0  0
   -5.5430   22.3590  -30.7550 C   0  0  0  0  0  0  0  0  0  0  0  0
   -6.2870   21.2770  -31.2270 C   0  0  0  0  0  0  0  0  0  0  0  0
   -7.5730   21.4720  -31.7610 C   0  0  0  0  0  0  0  0  0  0  0  0
   -8.3910   20.3200  -32.2010 C   0  0  0  0  0  0  0  0  0  0  0  0
   -9.5460   20.5070  -32.6810 O   0  0  0  0  0  0  0  0  0  0  0  0
   -7.8930   18.9880  -32.0540 N   0  0  0  0  0  0  0  0  0  0  0  0
   -7.1470   18.2770  -33.0890 C   0  0  0  0  0  0  0  0  0  0  0  0
   -6.4240   19.2550  -34.0270 C   0  0  0  0  0  0  0  0  0  0  0  0
   -4.9570   19.3590  -33.7020 C   0  0  0  0  0  0  0  0  0  0  0  0
   -4.1710   18.2000  -33.5740 C   0  0  0  0  0  0  0  0  0  0  0  0
   -2.8180   18.3010  -33.2380 C   0  0  0  0  0  0  0  0  0  0  0  0
   -2.2400   19.5550  -33.0320 C   0  0  0  0  0  0  0  0  0  0  0  0
   -3.0160   20.7100  -33.1470 C   0  0  0  0  0  0  0  0  0  0  0  0
   -4.3710   20.6150  -33.4780 C   0  0  0  0  0  0  0  0  0  0  0  0
   -8.0890   22.7770  -31.8280 C   0  0  0  0  0  0  0  0  0  0  0  0
   -7.3410   23.8590  -31.3560 C   0  0  0  0  0  0  0  0  0  0  0  0
   -1.2074   26.4239  -26.9134 H   0  0  0  0  0  0  0  0  0  0  0  0
    0.2175   26.6790  -27.9769 H   0  0  0  0  0  0  0  0  0  0  0  0
   -1.1278   27.8693  -27.9769 H   0  0  0  0  0  0  0  0  0  0  0  0
    0.0908   24.3109  -27.6375 H   0  0  0  0  0  0  0  0  0  0  0  0
   -0.1009   21.8269  -27.7660 H   0  0  0  0  0  0  0  0  0  0  0  0
   -1.8381   20.7784  -29.2180 H   0  0  0  0  0  0  0  0  0  0  0  0
   -3.4017   22.2113  -30.5278 H   0  0  0  0  0  0  0  0  0  0  0  0
   -4.5363   22.1937  -30.3436 H   0  0  0  0  0  0  0  0  0  0  0  0
   -5.8638   20.2627  -31.1809 H   0  0  0  0  0  0  0  0  0  0  0  0
   -6.4029   17.6238  -32.6097 H   0  0  0  0  0  0  0  0  0  0  0  0
   -7.8576   17.6854  -33.6849 H   0  0  0  0  0  0  0  0  0  0  0  0
   -6.5352   18.9029  -35.0632 H   0  0  0  0  0  0  0  0  0  0  0  0
   -6.8747   20.2500  -33.8976 H   0  0  0  0  0  0  0  0  0  0  0  0
   -4.6225   17.2106  -33.7389 H   0  0  0  0  0  0  0  0  0  0  0  0
   -2.2079   17.3914  -33.1358 H   0  0  0  0  0  0  0  0  0  0  0  0
   -1.1724   19.6332  -32.7789 H   0  0  0  0  0  0  0  0  0  0  0  0
   -2.5604   21.6966  -32.9768 H   0  0  0  0  0  0  0  0  0  0  0  0
   -4.9799   21.5272  -33.5632 H   0  0  0  0  0  0  0  0  0  0  0  0
   -9.0883   22.9482  -32.2548 H   0  0  0  0  0  0  0  0  0  0  0  0
   -7.7522   24.8773  -31.4199 H   0  0  0  0  0  0  0  0  0  0  0  0
  1  2  1  0
  2  3  1  0
  3  4  2  0
  4  5  1  0
  5  6  2  0
  6  7  1  0
  7  8  2  0
  8  9  1  0
  9 10  1  0
 10 11  2  0
 10 12  2  0
 10 13  1  0
 13 14  2  0
 14 15  1  0
 15 16  2  0
 16 17  1  0
 17 18  2  0
 17 19  1  0
 19 20  1  0
 20 21  1  0
 21 22  1  0
 22 23  2  0
 23 24  1  0
 24 25  2  0
 25 26  1  0
 26 27  2  0
 16 28  1  0
 28 29  2  0
  8  3  1  0
 29 13  1  0
 27 22  1  0
  1 30  1  0
  1 31  1  0
  1 32  1  0
  4 33  1  0
  5 34  1  0
  6 35  1  0
  7 36  1  0
 14 37  1  0
 15 38  1  0
 20 39  1  0
 20 40  1  0
 21 41  1  0
 21 42  1  0
 23 43  1  0
 24 44  1  0
 25 45  1  0
 26 46  1  0
 27 47  1  0
 28 48  1  0
 29 49  1  0
M  CHG  2   9  -1  19  -1
M  END
>  <UniqueID>  (10) 
10

>  <SMILES>  (10) 
COc1ccccc1[N-]S(=O)(=O)c1ccc(C(=O)[N-]CCc2ccccc2)cc1

>  <Energy>  (10) 
52.12684646617154

>  <Genealogy>  (10) 
COc1ccccc1[N-]S(=O)(=O)c1ccc(C(=O)[N-]CCc2ccccc2)cc1 (protonated)
COc1ccccc1[N-]S(=O)(=O)c1ccc(C(=O)[N-]CCc2ccccc2)cc1 (3D coordinates assigned)
COc1ccccc1[N-]S(=O)(=O)c1ccc(C(=O)[N-]CCc2ccccc2)cc1 (optimized conformer: 52.12684646617154 kcal/mol)

>  <smiles>  (10) 
COc1ccccc1NS(=O)(=O)c1ccc(C(=O)NCCc2ccccc2)cc1

>  <score_type>  (10) 
oracle

>  <origin>  (10) 
adgpu

>  <m_score__min__energy>  (10) 
-11.279999999999999

>  <m_primary>  (10) 
energy

$$$$
10:0
     RDKit          3D

 30 32  0  0  0  0  0  0  0  0999 V2000
   -4.6090   21.4290  -32.7660 C   0  0  0  0  0  0  0  0  0  0  0  0
   -5.9770   21.7210  -32.2230 C   0  0  0  0  0  0  0  0  0  0  0  0
   -7.0090   20.9520  -32.6730 N   0  0  0  0  0  0  0  0  0  0  0  0
   -8.2890   21.1350  -32.2620 C   0  0  0  0  0  0  0  0  0  0  0  0
   -8.5880   22.1390  -31.3480 C   0  0  0  0  0  0  0  0  0  0  0  0
   -7.5630   22.9470  -30.8600 C   0  0  0  0  0  0  0  0  0  0  0  0
   -6.2340   22.7550  -31.2810 C   0  0  0  0  0  0  0  0  0  0  0  0
   -5.1760   23.6420  -30.7210 C   0  0  0  0  0  0  0  0  0  0  0  0
   -4.8360   24.8470  -31.2210 N   0  0  0  0  0  0  0  0  0  0  0  0
   -3.8760   25.2750  -30.4610 O   0  0  0  0  0  0  0  0  0  0  0  0
   -3.6210   24.3880  -29.5320 C   0  0  0  0  0  0  0  0  0  0  0  0
   -2.5850   24.5460  -28.4910 C   0  0  0  0  0  0  0  0  0  0  0  0
   -2.9550   24.7710  -27.1550 C   0  0  0  0  0  0  0  0  0  0  0  0
   -1.9770   24.9220  -26.1680 C   0  0  0  0  0  0  0  0  0  0  0  0
   -0.6230   24.8490  -26.5050 C   0  0  0  0  0  0  0  0  0  0  0  0
   -0.2420   24.6240  -27.8340 C   0  0  0  0  0  0  0  0  0  0  0  0
    1.1050   24.5500  -28.1830 O   0  0  0  0  0  0  0  0  0  0  0  0
   -1.2200   24.4740  -28.8230 C   0  0  0  0  0  0  0  0  0  0  0  0
   -4.4240   23.3120  -29.6480 N   0  0  0  0  0  0  0  0  0  0  0  0
   -3.9077   21.2793  -31.9319 H   0  0  0  0  0  0  0  0  0  0  0  0
   -4.6457   20.5185  -33.3821 H   0  0  0  0  0  0  0  0  0  0  0  0
   -4.2707   22.2752  -33.3821 H   0  0  0  0  0  0  0  0  0  0  0  0
   -9.0898   20.4893  -32.6517 H   0  0  0  0  0  0  0  0  0  0  0  0
   -9.6242   22.2941  -31.0131 H   0  0  0  0  0  0  0  0  0  0  0  0
   -7.7952   23.7436  -30.1378 H   0  0  0  0  0  0  0  0  0  0  0  0
   -4.0196   24.8287  -26.8841 H   0  0  0  0  0  0  0  0  0  0  0  0
   -2.2739   25.0987  -25.1237 H   0  0  0  0  0  0  0  0  0  0  0  0
    0.1444   24.9683  -25.7260 H   0  0  0  0  0  0  0  0  0  0  0  0
    1.8230   24.3730  -27.4900 H   0  0  0  0  0  0  0  0  0  0  0  0
   -0.9197   24.2987  -29.8666 H   0  0  0  0  0  0  0  0  0  0  0  0
  1  2  1  0
  2  3  2  0
  3  4  1  0
  4  5  2  0
  5  6  1  0
  6  7  2  0
  7  8  1  0
  8  9  2  0
  9 10  1  0
 10 11  1  0
 11 12  1  0
 12 13  2  0
 13 14  1  0
 14 15  2  0
 15 16  1  0
 16 17  1  0
 16 18  2  0
 11 19  2  0
  7  2  1  0
 19  8  1  0
 18 12  1  0
  1 20  1  0
  1 21  1  0
  1 22  1  0
  4 23  1  0
  5 24  1  0
  6 25  1  0
 13 26  1  0
 14 27  1  0
 15 28  1  0
 17 29  1  0
 18 30  1  0
M  END
>  <UniqueID>  (11) 
11

>  <SMILES>  (11) 
Cc1ncccc1-c1noc(-c2cccc(O)c2)n1

>  <Energy>  (11) 
69.33490307754576

>  <Genealogy>  (11) 
Cc1ncccc1-c1noc(-c2cccc(O)c2)n1 (3D coordinates assigned)
Cc1ncccc1-c1noc(-c2cccc(O)c2)n1 (optimized conformer: 69.33490307754576 kcal/mol)

>  <smiles>  (11) 
Cc1ncccc1-c1noc(-c2cccc(O)c2)n1

>  <score_type>  (11) 
oracle

>  <origin>  (11) 
adgpu

>  <m_score__min__energy>  (11) 
-8.4800000000000004

>  <m_primary>  (11) 
energy

$$$$
11:0
     RDKit          3D

 24 25  0  0  0  0  0  0  0  0999 V2000
   -8.3090   18.3820  -32.3120 C   0  0  0  0  0  0  0  0  0  0  0  0
   -6.9800   18.5420  -32.7110 C   0  0  0  0  0  0  0  0  0  0  0  0
   -6.4240   19.8220  -32.8060 C   0  0  0  0  0  0  0  0  0  0  0  0
   -7.1970   20.9600  -32.4980 C   0  0  0  0  0  0  0  0  0  0  0  0
   -6.6590   22.2930  -32.5820 N   0  0  0  0  0  0  0  0  0  0  0  0
   -7.2700   23.4720  -31.9660 C   0  0  0  0  0  0  0  0  0  0  0  0
   -6.3020   24.1430  -31.0410 C   0  0  0  0  0  0  0  0  0  0  0  0
   -6.6230   24.8360  -29.8950 C   0  0  0  0  0  0  0  0  0  0  0  0
   -5.4820   25.2960  -29.3610 N   0  0  0  0  0  0  0  0  0  0  0  0
   -4.5030   24.8830  -30.1880 C   0  0  0  0  0  0  0  0  0  0  0  0
   -4.9680   24.1720  -31.2370 N   0  0  0  0  0  0  0  0  0  0  0  0
   -8.5340   20.7840  -32.1010 C   0  0  0  0  0  0  0  0  0  0  0  0
   -9.0850   19.5030  -32.0080 C   0  0  0  0  0  0  0  0  0  0  0  0
   -8.7440   17.3744  -32.2373 H   0  0  0  0  0  0  0  0  0  0  0  0
   -6.3692   17.6593  -32.9511 H   0  0  0  0  0  0  0  0  0  0  0  0
   -5.3774   19.9414  -33.1229 H   0  0  0  0  0  0  0  0  0  0  0  0
   -5.7820   22.4440  -33.1300 H   0  0  0  0  0  0  0  0  0  0  0  0
   -7.5667   24.1794  -32.7544 H   0  0  0  0  0  0  0  0  0  0  0  0
   -8.1512   23.1549  -31.3890 H   0  0  0  0  0  0  0  0  0  0  0  0
   -7.6347   24.9855  -29.4899 H   0  0  0  0  0  0  0  0  0  0  0  0
   -5.3770   25.8600  -28.4890 H   0  0  0  0  0  0  0  0  0  0  0  0
   -3.4372   25.1018  -30.0260 H   0  0  0  0  0  0  0  0  0  0  0  0
   -9.1518   21.6620  -31.8615 H   0  0  0  0  0  0  0  0  0  0  0  0
  -10.1319   19.3773  -31.6948 H   0  0  0  0  0  0  0  0  0  0  0  0
  1  2  2  0
  2  3  1  0
  3  4  2  0
  4  5  1  0
  5  6  1  0
  6  7  1  0
  7  8  2  0
  8  9  1  0
  9 10  1  0
 10 11  2  0
  4 12  1  0
 12 13  2  0
 13  1  1  0
 11  7  1  0
  1 14  1  0
  2 15  1  0
  3 16  1  0
  5 17  1  0
  6 18  1  0
  6 19  1  0
  8 20  1  0
  9 21  1  0
 10 22  1  0
 12 23  1  0
 13 24  1  0
M  END
>  <UniqueID>  (12) 
12

>  <SMILES>  (12) 
c1ccc(NCc2c[nH]cn2)cc1

>  <Energy>  (12) 
51.464567687264825

>  <Genealogy>  (12) 
c1ccc(NCc2c[nH]cn2)cc1 (3D coordinates assigned)
c1ccc(NCc2c[nH]cn2)cc1 (optimized conformer: 51.464567687264825 kcal/mol)

>  <smiles>  (12) 
c1ccc(NCc2c[nH]cn2)cc1

>  <score_type>  (12) 
oracle

>  <origin>  (12) 
adgpu

>  <m_score__min__energy>  (12) 
-6.0700000000000003

>  <m_primary>  (12) 
energy

$$$$
12:0
     RDKit          3D

 53 55  0  0  0  0  0  0  0  0999 V2000
   -3.1410   22.2670  -28.7910 C   0  0  0  0  0  0  0  0  0  0  0  0
   -2.5130   23.2510  -29.7200 C   0  0  0  0  0  0  0  0  0  0  0  0
   -1.8440   24.2150  -29.2550 O   0  0  0  0  0  0  0  0  0  0  0  0
   -2.7440   23.1400  -31.1300 N   0  0  0  0  0  0  0  0  0  0  0  0
   -2.9160   21.8990  -31.8270 C   0  0  0  0  0  0  0  0  0  0  0  0
   -4.2180   21.4530  -32.0830 C   0  0  0  0  0  0  0  0  0  0  0  0
   -4.4460   20.2340  -32.7420 C   0  0  0  0  0  0  0  0  0  0  0  0
   -5.8330   19.7660  -32.9580 C   0  0  0  0  0  0  0  0  0  0  0  0
   -6.2850   19.6930  -34.1330 O   0  0  0  0  0  0  0  0  0  0  0  0
   -6.6900   19.4620  -31.8460 N   0  0  0  0  0  0  0  0  0  0  0  0
   -8.1480   19.4140  -31.9710 C   0  0  0  0  0  0  0  0  0  0  0  0
   -8.7240   20.7880  -32.3570 C   0  0  0  0  0  0  0  0  0  0  0  0
   -7.9570   21.9150  -31.7160 C   0  0  0  0  0  0  0  0  0  0  0  0
   -7.8810   22.0120  -30.3190 C   0  0  0  0  0  0  0  0  0  0  0  0
   -7.1110   23.0160  -29.7230 C   0  0  0  0  0  0  0  0  0  0  0  0
   -6.4050   23.9290  -30.5150 C   0  0  0  0  0  0  0  0  0  0  0  0
   -5.4030   25.1650  -29.7620 S   0  0  0  0  0  0  0  0  0  0  0  0
   -4.1430   25.6250  -30.8520 N   0  0  0  0  0  0  0  0  0  0  0  0
   -6.2390   26.3680  -29.4170 O   0  0  0  0  0  0  0  0  0  0  0  0
   -4.7950   24.6220  -28.4970 O   0  0  0  0  0  0  0  0  0  0  0  0
   -6.4710   23.8300  -31.9110 C   0  0  0  0  0  0  0  0  0  0  0  0
   -7.2450   22.8320  -32.5090 C   0  0  0  0  0  0  0  0  0  0  0  0
   -3.3460   19.4700  -33.1610 C   0  0  0  0  0  0  0  0  0  0  0  0
   -2.0450   19.8940  -32.8850 C   0  0  0  0  0  0  0  0  0  0  0  0
   -1.8190   21.0910  -32.1970 C   0  0  0  0  0  0  0  0  0  0  0  0
   -0.1310   21.5030  -31.7280 S   0  0  0  0  0  0  0  0  0  0  0  0
   -0.1500   20.3980  -30.3150 C   0  0  0  0  0  0  0  0  0  0  0  0
   -0.0410   19.0150  -30.5070 C   0  0  0  0  0  0  0  0  0  0  0  0
   -0.0590   18.1540  -29.4060 C   0  0  0  0  0  0  0  0  0  0  0  0
   -0.2150   18.6690  -28.1150 C   0  0  0  0  0  0  0  0  0  0  0  0
   -0.3310   20.0490  -27.9200 C   0  0  0  0  0  0  0  0  0  0  0  0
   -0.2910   20.9140  -29.0180 C   0  0  0  0  0  0  0  0  0  0  0  0
   -2.9479   22.5695  -27.7512 H   0  0  0  0  0  0  0  0  0  0  0  0
   -4.2262   22.2362  -28.9684 H   0  0  0  0  0  0  0  0  0  0  0  0
   -2.7120   21.2698  -28.9684 H   0  0  0  0  0  0  0  0  0  0  0  0
   -5.0740   22.0656  -31.7637 H   0  0  0  0  0  0  0  0  0  0  0  0
   -6.2920   19.3960  -30.8830 H   0  0  0  0  0  0  0  0  0  0  0  0
   -8.4168   18.6824  -32.7472 H   0  0  0  0  0  0  0  0  0  0  0  0
   -8.5695   19.1230  -30.9976 H   0  0  0  0  0  0  0  0  0  0  0  0
   -8.6753   20.9004  -33.4502 H   0  0  0  0  0  0  0  0  0  0  0  0
   -9.7638   20.8356  -32.0012 H   0  0  0  0  0  0  0  0  0  0  0  0
   -8.4292   21.2956  -29.6895 H   0  0  0  0  0  0  0  0  0  0  0  0
   -7.0600   23.0885  -28.6266 H   0  0  0  0  0  0  0  0  0  0  0  0
   -3.2490   25.2520  -30.4620 H   0  0  0  0  0  0  0  0  0  0  0  0
   -5.9119   24.5400  -32.5381 H   0  0  0  0  0  0  0  0  0  0  0  0
   -7.2975   22.7635  -33.6056 H   0  0  0  0  0  0  0  0  0  0  0  0
   -3.5100   18.5312  -33.7103 H   0  0  0  0  0  0  0  0  0  0  0  0
   -1.1909   19.2822  -33.2110 H   0  0  0  0  0  0  0  0  0  0  0  0
    0.0587   18.6066  -31.5235 H   0  0  0  0  0  0  0  0  0  0  0  0
    0.0497   17.0696  -29.5551 H   0  0  0  0  0  0  0  0  0  0  0  0
   -0.2465   17.9877  -27.2519 H   0  0  0  0  0  0  0  0  0  0  0  0
   -0.4535   20.4534  -26.9044 H   0  0  0  0  0  0  0  0  0  0  0  0
   -0.3702   22.0004  -28.8646 H   0  0  0  0  0  0  0  0  0  0  0  0
  1  2  1  0
  2  3  2  0
  2  4  1  0
  4  5  1  0
  5  6  2  0
  6  7  1  0
  7  8  1  0
  8  9  2  0
  8 10  1  0
 10 11  1  0
 11 12  1  0
 12 13  1  0
 13 14  2  0
 14 15  1  0
 15 16  2  0
 16 17  1  0
 17 18  1  0
 17 19  2  0
 17 20  2  0
 16 21  1  0
 21 22  2  0
  7 23  2  0
 23 24  1  0
 24 25  2  0
 25 26  1  0
 26 27  1  0
 27 28  2  0
 28 29  1  0
 29 30  2  0
 30 31  1  0
 31 32  2  0
 25  5  1  0
 32 27  1  0
 22 13  1  0
  1 33  1  0
  1 34  1  0
  1 35  1  0
  6 36  1  0
 10 37  1  0
 11 38  1  0
 11 39  1  0
 12 40  1  0
 12 41  1  0
 14 42  1  0
 15 43  1  0
 18 44  1  0
 21 45  1  0
 22 46  1  0
 23 47  1  0
 24 48  1  0
 28 49  1  0
 29 50  1  0
 30 51  1  0
 31 52  1  0
 32 53  1  0
M  CHG  2   4  -1  18  -1
M  END
>  <UniqueID>  (13) 
13

>  <SMILES>  (13) 
CC(=O)[N-]c1cc(C(=O)NCCc2ccc(S([NH-])(=O)=O)cc2)ccc1Sc1ccccc1

>  <Energy>  (13) 
51.03434851070532

>  <Genealogy>  (13) 
CC(=O)[N-]c1cc(C(=O)NCCc2ccc(S([NH-])(=O)=O)cc2)ccc1Sc1ccccc1 (protonated)
CC(=O)[N-]c1cc(C(=O)NCCc2ccc(S([NH-])(=O)=O)cc2)ccc1Sc1ccccc1 (3D coordinates assigned)
CC(=O)[N-]c1cc(C(=O)NCCc2ccc(S([NH-])(=O)=O)cc2)ccc1Sc1ccccc1 (optimized conformer: 51.03434851070532 kcal/mol)

>  <smiles>  (13) 
CC(=O)Nc1cc(C(=O)NCCc2ccc(S(N)(=O)=O)cc2)ccc1Sc1ccccc1

>  <score_type>  (13) 
oracle

>  <origin>  (13) 
adgpu

>  <m_score__min__energy>  (13) 
-12.35

>  <m_primary>  (13) 
energy

$$$$
13:0
     RDKit          3D

 45 46  0  0  0  0  0  0  0  0999 V2000
   -4.7360   17.7160  -34.8420 C   0  0  0  0  0  0  0  0  0  0  0  0
   -5.3860   18.4090  -33.6510 C   0  0  0  0  0  0  0  0  0  0  0  0
   -6.8320   18.5060  -33.8560 N   0  0  0  0  0  0  0  0  0  0  0  0
   -7.6310   18.7850  -32.3360 S   0  0  0  0  0  0  0  0  0  0  0  0
   -7.1340   17.7770  -31.3370 O   0  0  0  0  0  0  0  0  0  0  0  0
   -9.1100   18.5960  -32.5200 O   0  0  0  0  0  0  0  0  0  0  0  0
   -7.3420   20.4180  -31.7290 C   0  0  0  0  0  0  0  0  0  0  0  0
   -8.2910   21.0510  -30.9150 C   0  0  0  0  0  0  0  0  0  0  0  0
   -8.0360   22.3210  -30.3910 C   0  0  0  0  0  0  0  0  0  0  0  0
   -6.8170   22.9660  -30.6540 C   0  0  0  0  0  0  0  0  0  0  0  0
   -6.5140   24.3110  -30.0370 C   0  0  0  0  0  0  0  0  0  0  0  0
   -5.1970   24.3160  -29.2480 C   0  0  0  0  0  0  0  0  0  0  0  0
   -4.0560   24.9220  -30.0110 C   0  0  0  0  0  0  0  0  0  0  0  0
   -4.2140   25.2990  -31.2050 O   0  0  0  0  0  0  0  0  0  0  0  0
   -2.8070   25.1390  -29.3450 N   0  0  0  0  0  0  0  0  0  0  0  0
   -1.8530   24.0770  -29.0580 C   0  0  0  0  0  0  0  0  0  0  0  0
   -0.8160   24.5600  -28.0910 C   0  0  0  0  0  0  0  0  0  0  0  0
    0.5100   24.4720  -28.3310 N   0  0  0  0  0  0  0  0  0  0  0  0
    1.0820   25.0010  -27.2290 C   0  0  0  0  0  0  0  0  0  0  0  0
    0.1030   25.3950  -26.3430 C   0  0  0  0  0  0  0  0  0  0  0  0
   -1.0890   25.1110  -26.8890 N   0  0  0  0  0  0  0  0  0  0  0  0
   -2.4010   25.3410  -26.2880 C   0  0  0  0  0  0  0  0  0  0  0  0
   -5.8700   22.3330  -31.4730 C   0  0  0  0  0  0  0  0  0  0  0  0
   -6.1310   21.0680  -32.0080 C   0  0  0  0  0  0  0  0  0  0  0  0
   -4.0249   16.9579  -34.4819 H   0  0  0  0  0  0  0  0  0  0  0  0
   -5.5120   17.2304  -35.4520 H   0  0  0  0  0  0  0  0  0  0  0  0
   -4.2018   18.4593  -35.4520 H   0  0  0  0  0  0  0  0  0  0  0  0
   -5.1856   17.8289  -32.7381 H   0  0  0  0  0  0  0  0  0  0  0  0
   -4.9671   19.4210  -33.5494 H   0  0  0  0  0  0  0  0  0  0  0  0
   -7.0290   19.3290  -34.4710 H   0  0  0  0  0  0  0  0  0  0  0  0
   -9.2412   20.5457  -30.6875 H   0  0  0  0  0  0  0  0  0  0  0  0
   -8.7947   22.8183  -29.7689 H   0  0  0  0  0  0  0  0  0  0  0  0
   -6.4463   25.0597  -30.8401 H   0  0  0  0  0  0  0  0  0  0  0  0
   -7.3254   24.5442  -29.3319 H   0  0  0  0  0  0  0  0  0  0  0  0
   -5.3452   24.8927  -28.3231 H   0  0  0  0  0  0  0  0  0  0  0  0
   -4.9340   23.2679  -29.0422 H   0  0  0  0  0  0  0  0  0  0  0  0
   -2.3851   23.2189  -28.6215 H   0  0  0  0  0  0  0  0  0  0  0  0
   -1.3587   23.7763  -29.9936 H   0  0  0  0  0  0  0  0  0  0  0  0
    2.1647   25.1022  -27.0634 H   0  0  0  0  0  0  0  0  0  0  0  0
    0.2696   25.8607  -25.3605 H   0  0  0  0  0  0  0  0  0  0  0  0
   -2.3101   25.3251  -25.1919 H   0  0  0  0  0  0  0  0  0  0  0  0
   -2.7852   26.3202  -26.6099 H   0  0  0  0  0  0  0  0  0  0  0  0
   -3.0953   24.5509  -26.6099 H   0  0  0  0  0  0  0  0  0  0  0  0
   -4.9168   22.8348  -31.6955 H   0  0  0  0  0  0  0  0  0  0  0  0
   -5.3832   20.5803  -32.6506 H   0  0  0  0  0  0  0  0  0  0  0  0
  1  2  1  0
  2  3  1  0
  3  4  1  0
  4  5  2  0
  4  6  2  0
  4  7  1  0
  7  8  2  0
  8  9  1  0
  9 10  2  0
 10 11  1  0
 11 12  1  0
 12 13  1  0
 13 14  2  0
 13 15  1  0
 15 16  1  0
 16 17  1  0
 17 18  2  0
 18 19  1  0
 19 20  2  0
 20 21  1  0
 21 22  1  0
 10 23  1  0
 23 24  2  0
 24  7  1  0
 21 17  1  0
  1 25  1  0
  1 26  1  0
  1 27  1  0
  2 28  1  0
  2 29  1  0
  3 30  1  0
  8 31  1  0
  9 32  1  0
 11 33  1  0
 11 34  1  0
 12 35  1  0
 12 36  1  0
 16 37  1  0
 16 38  1  0
 19 39  1  0
 20 40  1  0
 22 41  1  0
 22 42  1  0
 22 43  1  0
 23 44  1  0
 24 45  1  0
M  CHG  1  15  -1
M  END
>  <UniqueID>  (14) 
14

>  <SMILES>  (14) 
CCNS(=O)(=O)c1ccc(CCC(=O)[N-]Cc2nccn2C)cc1

>  <Energy>  (14) 
59.38872474184645

>  <Genealogy>  (14) 
CCNS(=O)(=O)c1ccc(CCC(=O)[N-]Cc2nccn2C)cc1 (protonated)
CCNS(=O)(=O)c1ccc(CCC(=O)[N-]Cc2nccn2C)cc1 (3D coordinates assigned)
CCNS(=O)(=O)c1ccc(CCC(=O)[N-]Cc2nccn2C)cc1 (optimized conformer: 59.38872474184645 kcal/mol)

>  <smiles>  (14) 
CCNS(=O)(=O)c1ccc(CCC(=O)NCc2nccn2C)cc1

>  <score_type>  (14) 
oracle

>  <origin>  (14) 
adgpu

>  <m_score__min__energy>  (14) 
-10.48

>  <m_primary>  (14) 
energy

$$$$
14:0
     RDKit          3D

 41 43  0  0  0  0  0  0  0  0999 V2000
   -9.0330   20.8950  -31.8990 C   0  0  0  0  0  0  0  0  0  0  0  0
   -8.3130   21.7920  -31.2200 C   0  0  0  0  0  0  0  0  0  0  0  0
   -7.4110   22.7720  -31.9160 C   0  0  0  0  0  0  0  0  0  0  0  0
   -5.9780   22.3140  -31.8560 C   0  0  0  0  0  0  0  0  0  0  0  0
   -5.5250   21.2870  -32.6970 C   0  0  0  0  0  0  0  0  0  0  0  0
   -4.2030   20.8450  -32.6190 C   0  0  0  0  0  0  0  0  0  0  0  0
   -3.3210   21.4150  -31.6960 C   0  0  0  0  0  0  0  0  0  0  0  0
   -2.0040   20.9700  -31.6520 O   0  0  0  0  0  0  0  0  0  0  0  0
   -3.7640   22.4390  -30.8360 C   0  0  0  0  0  0  0  0  0  0  0  0
   -2.8530   23.0400  -29.8340 C   0  0  0  0  0  0  0  0  0  0  0  0
   -2.0730   22.2100  -29.0120 C   0  0  0  0  0  0  0  0  0  0  0  0
   -1.2210   22.7620  -28.0520 C   0  0  0  0  0  0  0  0  0  0  0  0
   -1.1270   24.1550  -27.8990 C   0  0  0  0  0  0  0  0  0  0  0  0
   -0.2290   24.7360  -26.8720 C   0  0  0  0  0  0  0  0  0  0  0  0
   -0.7580   25.1420  -25.6330 C   0  0  0  0  0  0  0  0  0  0  0  0
    0.0690   25.7030  -24.6480 C   0  0  0  0  0  0  0  0  0  0  0  0
   -0.5140   26.1250  -23.3610 C   0  0  0  0  0  0  0  0  0  0  0  0
   -1.2440   27.1480  -23.2820 O   0  0  0  0  0  0  0  0  0  0  0  0
    1.4410   25.8550  -24.9060 C   0  0  0  0  0  0  0  0  0  0  0  0
    1.9760   25.4460  -26.1300 C   0  0  0  0  0  0  0  0  0  0  0  0
    1.1530   24.8850  -27.1090 C   0  0  0  0  0  0  0  0  0  0  0  0
    1.7200   24.4590  -28.3060 O   0  0  0  0  0  0  0  0  0  0  0  0
   -1.9120   24.9860  -28.7150 C   0  0  0  0  0  0  0  0  0  0  0  0
   -2.7660   24.4370  -29.6780 C   0  0  0  0  0  0  0  0  0  0  0  0
   -3.5140   25.2890  -30.4850 O   0  0  0  0  0  0  0  0  0  0  0  0
   -5.0960   22.8790  -30.9210 C   0  0  0  0  0  0  0  0  0  0  0  0
   -9.6842   20.1909  -31.3603 H   0  0  0  0  0  0  0  0  0  0  0  0
   -8.9748   20.8604  -32.9969 H   0  0  0  0  0  0  0  0  0  0  0  0
   -8.3821   21.8140  -30.1224 H   0  0  0  0  0  0  0  0  0  0  0  0
   -7.7179   22.8601  -32.9687 H   0  0  0  0  0  0  0  0  0  0  0  0
   -7.4917   23.7461  -31.4113 H   0  0  0  0  0  0  0  0  0  0  0  0
   -6.2142   20.8279  -33.4210 H   0  0  0  0  0  0  0  0  0  0  0  0
   -3.8535   20.0441  -33.2872 H   0  0  0  0  0  0  0  0  0  0  0  0
   -2.1334   21.1175  -29.1249 H   0  0  0  0  0  0  0  0  0  0  0  0
   -0.6193   22.1006  -27.4112 H   0  0  0  0  0  0  0  0  0  0  0  0
   -1.8328   25.0181  -25.4342 H   0  0  0  0  0  0  0  0  0  0  0  0
   -0.3078   25.5364  -22.4549 H   0  0  0  0  0  0  0  0  0  0  0  0
    2.0967   26.2976  -24.1417 H   0  0  0  0  0  0  0  0  0  0  0  0
    3.0521   25.5666  -26.3239 H   0  0  0  0  0  0  0  0  0  0  0  0
   -1.8550   26.0781  -28.5960 H   0  0  0  0  0  0  0  0  0  0  0  0
   -5.4510   23.6738  -30.2485 H   0  0  0  0  0  0  0  0  0  0  0  0
  1  2  2  0
  2  3  1  0
  3  4  1  0
  4  5  2  0
  5  6  1  0
  6  7  2  0
  7  8  1  0
  7  9  1  0
  9 10  1  0
 10 11  2  0
 11 12  1  0
 12 13  2  0
 13 14  1  0
 14 15  2  0
 15 16  1  0
 16 17  1  0
 17 18  2  0
 16 19  2  0
 19 20  1  0
 20 21  2  0
 21 22  1  0
 13 23  1  0
 23 24  2  0
 24 25  1  0
  9 26  2  0
 26  4  1  0
 24 10  1  0
 21 14  1  0
  1 27  1  0
  1 28  1  0
  2 29  1  0
  3 30  1  0
  3 31  1  0
  5 32  1  0
  6 33  1  0
 11 34  1  0
 12 35  1  0
 15 36  1  0
 17 37  1  0
 19 38  1  0
 20 39  1  0
 23 40  1  0
 26 41  1  0
M  CHG  3   8  -1  22  -1  25  -1
M  END
>  <UniqueID>  (15) 
15

>  <SMILES>  (15) 
C=CCc1ccc([O-])c(-c2ccc(-c3cc(C=O)ccc3[O-])cc2[O-])c1

>  <Energy>  (15) 
54.66863017151567

>  <Genealogy>  (15) 
C=CCc1ccc([O-])c(-c2ccc(-c3cc(C=O)ccc3[O-])cc2[O-])c1 (protonated)
C=CCc1ccc([O-])c(-c2ccc(-c3cc(C=O)ccc3[O-])cc2[O-])c1 (3D coordinates assigned)
C=CCc1ccc([O-])c(-c2ccc(-c3cc(C=O)ccc3[O-])cc2[O-])c1 (optimized conformer: 54.66863017151567 kcal/mol)

>  <smiles>  (15) 
C=CCc1ccc(O)c(-c2ccc(-c3cc(C=O)ccc3O)cc2O)c1

>  <score_type>  (15) 
oracle

>  <origin>  (15) 
adgpu

>  <m_score__min__energy>  (15) 
-13.16

>  <m_primary>  (15) 
energy

$$$$
15:0
     RDKit          3D

 40 43  0  0  0  0  0  0  0  0999 V2000
    1.2130   14.8500  -34.2930 O   0  0  0  0  0  0  0  0  0  0  0  0
    0.8440   15.8930  -33.4510 C   0  0  0  0  0  0  0  0  0  0  0  0
    1.8250   16.6460  -32.7990 C   0  0  0  0  0  0  0  0  0  0  0  0
    1.4550   17.6960  -31.9530 C   0  0  0  0  0  0  0  0  0  0  0  0
    0.1000   18.0120  -31.7650 C   0  0  0  0  0  0  0  0  0  0  0  0
   -0.2710   19.1120  -30.8520 C   0  0  0  0  0  0  0  0  0  0  0  0
   -1.0500   20.1040  -31.2170 O   0  0  0  0  0  0  0  0  0  0  0  0
   -1.1710   20.9520  -30.2200 C   0  0  0  0  0  0  0  0  0  0  0  0
   -1.9870   22.1880  -30.2950 C   0  0  0  0  0  0  0  0  0  0  0  0
   -3.2040   22.2260  -31.0010 C   0  0  0  0  0  0  0  0  0  0  0  0
   -3.9540   23.4050  -31.0540 C   0  0  0  0  0  0  0  0  0  0  0  0
   -3.5000   24.5570  -30.4060 C   0  0  0  0  0  0  0  0  0  0  0  0
   -4.2520   25.7250  -30.4640 O   0  0  0  0  0  0  0  0  0  0  0  0
   -2.2930   24.5310  -29.7010 C   0  0  0  0  0  0  0  0  0  0  0  0
   -1.8360   25.6740  -29.0540 O   0  0  0  0  0  0  0  0  0  0  0  0
   -1.5400   23.3530  -29.6450 C   0  0  0  0  0  0  0  0  0  0  0  0
   -0.4400   20.5000  -29.1340 C   0  0  0  0  0  0  0  0  0  0  0  0
    0.1300   19.3070  -29.5330 C   0  0  0  0  0  0  0  0  0  0  0  0
    0.9020   18.3990  -28.6570 C   0  0  0  0  0  0  0  0  0  0  0  0
    2.2860   18.5820  -28.4990 C   0  0  0  0  0  0  0  0  0  0  0  0
    3.0200   17.7370  -27.6620 C   0  0  0  0  0  0  0  0  0  0  0  0
    2.3790   16.7080  -26.9630 C   0  0  0  0  0  0  0  0  0  0  0  0
    3.1240   15.8730  -26.1340 O   0  0  0  0  0  0  0  0  0  0  0  0
    0.9970   16.5310  -27.1020 C   0  0  0  0  0  0  0  0  0  0  0  0
    0.2600   17.3750  -27.9380 C   0  0  0  0  0  0  0  0  0  0  0  0
   -0.8810   17.2350  -32.4060 C   0  0  0  0  0  0  0  0  0  0  0  0
   -0.5080   16.1850  -33.2520 C   0  0  0  0  0  0  0  0  0  0  0  0
    2.8890   16.4122  -32.9517 H   0  0  0  0  0  0  0  0  0  0  0  0
    2.2297   18.2776  -31.4319 H   0  0  0  0  0  0  0  0  0  0  0  0
   -3.5672   21.3232  -31.5139 H   0  0  0  0  0  0  0  0  0  0  0  0
   -4.9044   23.4258  -31.6075 H   0  0  0  0  0  0  0  0  0  0  0  0
   -0.5913   23.3376  -29.0885 H   0  0  0  0  0  0  0  0  0  0  0  0
   -0.3350   20.9904  -28.1550 H   0  0  0  0  0  0  0  0  0  0  0  0
    2.7949   19.3952  -29.0373 H   0  0  0  0  0  0  0  0  0  0  0  0
    4.1050   17.8812  -27.5523 H   0  0  0  0  0  0  0  0  0  0  0  0
    2.9410   14.8770  -26.0840 H   0  0  0  0  0  0  0  0  0  0  0  0
    0.4895   15.7251  -26.5515 H   0  0  0  0  0  0  0  0  0  0  0  0
   -0.8272   17.2375  -28.0339 H   0  0  0  0  0  0  0  0  0  0  0  0
   -1.9464   17.4537  -32.2416 H   0  0  0  0  0  0  0  0  0  0  0  0
   -1.2797   15.5888  -33.7610 H   0  0  0  0  0  0  0  0  0  0  0  0
  1  2  1  0
  2  3  2  0
  3  4  1  0
  4  5  2  0
  5  6  1  0
  6  7  1  0
  7  8  1  0
  8  9  1  0
  9 10  2  0
 10 11  1  0
 11 12  2  0
 12 13  1  0
 12 14  1  0
 14 15  1  0
 14 16  2  0
  8 17  2  0
 17 18  1  0
 18 19  1  0
 19 20  2  0
 20 21  1  0
 21 22  2  0
 22 23  1  0
 22 24  1  0
 24 25  2  0
  5 26  1  0
 26 27  2  0
 27  2  1  0
 18  6  2  0
 25 19  1  0
 16  9  1  0
  3 28  1  0
  4 29  1  0
 10 30  1  0
 11 31  1  0
 16 32  1  0
 17 33  1  0
 20 34  1  0
 21 35  1  0
 23 36  1  0
 24 37  1  0
 25 38  1  0
 26 39  1  0
 27 40  1  0
M  CHG  3   1  -1  13  -1  15  -1
M  END
>  <UniqueID>  (16) 
16

>  <SMILES>  (16) 
[O-]c1ccc(-c2oc(-c3ccc([O-])c([O-])c3)cc2-c2ccc(O)cc2)cc1

>  <Energy>  (16) 
80.45522431685413

>  <Genealogy>  (16) 
[O-]c1ccc(-c2oc(-c3ccc([O-])c([O-])c3)cc2-c2ccc(O)cc2)cc1 (protonated)
[O-]c1ccc(-c2oc(-c3ccc([O-])c([O-])c3)cc2-c2ccc(O)cc2)cc1 (3D coordinates assigned)
[O-]c1ccc(-c2oc(-c3ccc([O-])c([O-])c3)cc2-c2ccc(O)cc2)cc1 (optimized conformer: 80.45522431685413 kcal/mol)

>  <smiles>  (16) 
Oc1ccc(-c2cc(-c3ccc(O)c(O)c3)oc2-c2ccc(O)cc2)cc1

>  <score_type>  (16) 
oracle

>  <origin>  (16) 
adgpu

>  <m_score__min__energy>  (16) 
-10.77

>  <m_primary>  (16) 
energy

$$$$
16:0
     RDKit          3D

 59 62  0  0  0  0  0  0  0  0999 V2000
    1.0960   18.1710  -35.7850 C   0  0  0  0  0  0  0  0  0  0  0  0
    0.4640   19.4490  -35.3320 C   0  0  0  0  0  0  0  0  0  0  0  0
   -0.6950   19.4280  -34.5520 C   0  0  0  0  0  0  0  0  0  0  0  0
   -1.2670   20.6480  -34.1540 C   0  0  0  0  0  0  0  0  0  0  0  0
   -2.4670   20.6940  -33.3450 N   0  0  0  0  0  0  0  0  0  0  0  0
   -3.3790   21.8480  -33.4190 C   0  0  0  0  0  0  0  0  0  0  0  0
   -4.7140   21.5690  -32.7150 C   0  0  0  0  0  0  0  0  0  0  0  0
   -5.2290   20.1670  -33.0840 C   0  0  0  0  0  0  0  0  0  0  0  0
   -6.5790   19.9280  -32.4320 C   0  0  0  0  0  0  0  0  0  0  0  0
   -7.0870   20.8620  -31.7520 O   0  0  0  0  0  0  0  0  0  0  0  0
   -7.3240   18.7000  -32.6110 N   0  0  0  0  0  0  0  0  0  0  0  0
   -6.8400   17.6290  -33.4900 C   0  0  0  0  0  0  0  0  0  0  0  0
   -8.5990   18.5390  -31.9030 C   0  0  0  0  0  0  0  0  0  0  0  0
   -4.2100   19.0520  -32.7100 C   0  0  0  0  0  0  0  0  0  0  0  0
   -2.7960   19.5870  -32.4320 C   0  0  0  0  0  0  0  0  0  0  0  0
   -0.6670   21.8070  -34.5420 N   0  0  0  0  0  0  0  0  0  0  0  0
    0.4610   21.8180  -35.3040 C   0  0  0  0  0  0  0  0  0  0  0  0
    1.0800   23.1060  -35.7050 C   0  0  0  0  0  0  0  0  0  0  0  0
    2.4800   23.2580  -35.7020 C   0  0  0  0  0  0  0  0  0  0  0  0
    3.0620   24.4700  -36.0850 C   0  0  0  0  0  0  0  0  0  0  0  0
    2.2570   25.5450  -36.4710 C   0  0  0  0  0  0  0  0  0  0  0  0
    3.0060   27.0970  -36.9630 S   0  0  0  0  0  0  0  0  0  0  0  0
    1.4810   28.0120  -36.7490 C   0  0  0  0  0  0  0  0  0  0  0  0
    0.7000   28.3500  -37.8620 C   0  0  0  0  0  0  0  0  0  0  0  0
   -0.4930   29.0600  -37.6910 C   0  0  0  0  0  0  0  0  0  0  0  0
   -0.9090   29.4300  -36.4080 C   0  0  0  0  0  0  0  0  0  0  0  0
   -0.1300   29.0990  -35.2970 C   0  0  0  0  0  0  0  0  0  0  0  0
    1.0670   28.3950  -35.4660 C   0  0  0  0  0  0  0  0  0  0  0  0
    0.8650   25.4070  -36.4710 C   0  0  0  0  0  0  0  0  0  0  0  0
    0.2790   24.1960  -36.0960 C   0  0  0  0  0  0  0  0  0  0  0  0
    1.0120   20.6390  -35.6930 N   0  0  0  0  0  0  0  0  0  0  0  0
    1.3901   17.5763  -34.9076 H   0  0  0  0  0  0  0  0  0  0  0  0
    0.3762   17.6004  -36.3902 H   0  0  0  0  0  0  0  0  0  0  0  0
    1.9864   18.3966  -36.3902 H   0  0  0  0  0  0  0  0  0  0  0  0
   -1.1519   18.4726  -34.2546 H   0  0  0  0  0  0  0  0  0  0  0  0
   -2.8978   22.7128  -32.9389 H   0  0  0  0  0  0  0  0  0  0  0  0
   -3.5888   22.0490  -34.4799 H   0  0  0  0  0  0  0  0  0  0  0  0
   -4.5693   21.6275  -31.6261 H   0  0  0  0  0  0  0  0  0  0  0  0
   -5.4522   22.3179  -33.0377 H   0  0  0  0  0  0  0  0  0  0  0  0
   -5.3495   20.1222  -34.1765 H   0  0  0  0  0  0  0  0  0  0  0  0
   -6.4633   16.7954  -32.8791 H   0  0  0  0  0  0  0  0  0  0  0  0
   -7.6654   17.2746  -34.1249 H   0  0  0  0  0  0  0  0  0  0  0  0
   -6.0285   18.0143  -34.1249 H   0  0  0  0  0  0  0  0  0  0  0  0
   -8.4211   18.5615  -30.8177 H   0  0  0  0  0  0  0  0  0  0  0  0
   -9.2784   19.3585  -32.1803 H   0  0  0  0  0  0  0  0  0  0  0  0
   -9.0534   17.5763  -32.1803 H   0  0  0  0  0  0  0  0  0  0  0  0
   -4.5718   18.5371  -31.8078 H   0  0  0  0  0  0  0  0  0  0  0  0
   -4.1375   18.3747  -33.5737 H   0  0  0  0  0  0  0  0  0  0  0  0
   -2.7446   19.9481  -31.3942 H   0  0  0  0  0  0  0  0  0  0  0  0
   -2.0735   18.7728  -32.5904 H   0  0  0  0  0  0  0  0  0  0  0  0
    3.1200   22.4173  -35.3962 H   0  0  0  0  0  0  0  0  0  0  0  0
    4.1567   24.5777  -36.0825 H   0  0  0  0  0  0  0  0  0  0  0  0
    1.0252   28.0568  -38.8711 H   0  0  0  0  0  0  0  0  0  0  0  0
   -1.1041   29.3274  -38.5657 H   0  0  0  0  0  0  0  0  0  0  0  0
   -1.8508   29.9823  -36.2738 H   0  0  0  0  0  0  0  0  0  0  0  0
   -0.4578   29.3920  -34.2887 H   0  0  0  0  0  0  0  0  0  0  0  0
    1.6838   28.1418  -34.5911 H   0  0  0  0  0  0  0  0  0  0  0  0
    0.2299   26.2549  -36.7673 H   0  0  0  0  0  0  0  0  0  0  0  0
   -0.8161   24.0930  -36.1062 H   0  0  0  0  0  0  0  0  0  0  0  0
  1  2  1  0
  2  3  2  0
  3  4  1  0
  4  5  1  0
  5  6  1  0
  6  7  1  0
  7  8  1  0
  8  9  1  0
  9 10  2  0
  9 11  1  0
 11 12  1  0
 11 13  1  0
  8 14  1  0
 14 15  1  0
  4 16  2  0
 16 17  1  0
 17 18  1  0
 18 19  2  0
 19 20  1  0
 20 21  2  0
 21 22  1  0
 22 23  1  0
 23 24  2  0
 24 25  1  0
 25 26  2  0
 26 27  1  0
 27 28  2  0
 21 29  1  0
 29 30  2  0
 17 31  2  0
 31  2  1  0
 15  5  1  0
 30 18  1  0
 28 23  1  0
  1 32  1  0
  1 33  1  0
  1 34  1  0
  3 35  1  0
  6 36  1  0
  6 37  1  0
  7 38  1  0
  7 39  1  0
  8 40  1  0
 12 41  1  0
 12 42  1  0
 12 43  1  0
 13 44  1  0
 13 45  1  0
 13 46  1  0
 14 47  1  0
 14 48  1  0
 15 49  1  0
 15 50  1  0
 19 51  1  0
 20 52  1  0
 24 53  1  0
 25 54  1  0
 26 55  1  0
 27 56  1  0
 28 57  1  0
 29 58  1  0
 30 59  1  0
M  END
>  <UniqueID>  (17) 
17

>  <SMILES>  (17) 
Cc1cc(N2CCC(C(=O)N(C)C)CC2)nc(-c2ccc(Sc3ccccc3)cc2)n1

>  <Energy>  (17) 
61.449302127038685

>  <Genealogy>  (17) 
Cc1cc(N2CCC(C(=O)N(C)C)CC2)nc(-c2ccc(Sc3ccccc3)cc2)n1 (3D coordinates assigned)
Cc1cc(N2CCC(C(=O)N(C)C)CC2)nc(-c2ccc(Sc3ccccc3)cc2)n1 (nonaromatic ring conformer: 61.449302127038685 kcal/mol)

>  <smiles>  (17) 
Cc1cc(N2CCC(C(=O)N(C)C)CC2)nc(-c2ccc(Sc3ccccc3)cc2)n1

>  <score_type>  (17) 
oracle

>  <origin>  (17) 
adgpu

>  <m_score__min__energy>  (17) 
-9.5399999999999991

>  <m_primary>  (17) 
energy

$$$$
17:0
     RDKit          3D

 43 45  0  0  0  0  0  0  0  0999 V2000
   -6.8630   15.3670  -34.2400 C   0  0  0  0  0  0  0  0  0  0  0  0
   -5.4760   15.4300  -34.5540 O   0  0  0  0  0  0  0  0  0  0  0  0
   -4.6830   16.5790  -34.4160 C   0  0  0  0  0  0  0  0  0  0  0  0
   -3.3280   16.4940  -34.7520 C   0  0  0  0  0  0  0  0  0  0  0  0
   -2.5000   17.6150  -34.6530 C   0  0  0  0  0  0  0  0  0  0  0  0
   -3.0200   18.8320  -34.2070 C   0  0  0  0  0  0  0  0  0  0  0  0
   -4.3700   18.9350  -33.8390 C   0  0  0  0  0  0  0  0  0  0  0  0
   -4.8880   20.2060  -33.4120 N   0  0  0  0  0  0  0  0  0  0  0  0
   -5.1390   20.5470  -32.0360 C   0  0  0  0  0  0  0  0  0  0  0  0
   -4.7830   19.7570  -31.1190 O   0  0  0  0  0  0  0  0  0  0  0  0
   -5.8090   21.8170  -31.6670 C   0  0  0  0  0  0  0  0  0  0  0  0
   -7.2120   21.8890  -31.6760 C   0  0  0  0  0  0  0  0  0  0  0  0
   -7.8640   23.0730  -31.3300 C   0  0  0  0  0  0  0  0  0  0  0  0
   -7.1280   24.2000  -30.9640 C   0  0  0  0  0  0  0  0  0  0  0  0
   -5.7220   24.1530  -30.9310 C   0  0  0  0  0  0  0  0  0  0  0  0
   -4.9390   25.3450  -30.5300 C   0  0  0  0  0  0  0  0  0  0  0  0
   -5.4990   26.4740  -30.4670 O   0  0  0  0  0  0  0  0  0  0  0  0
   -3.5330   25.2280  -30.2700 N   0  0  0  0  0  0  0  0  0  0  0  0
   -2.8990   24.2310  -29.4540 C   0  0  0  0  0  0  0  0  0  0  0  0
   -3.0860   24.1820  -28.0580 C   0  0  0  0  0  0  0  0  0  0  0  0
   -2.4700   23.1800  -27.3020 C   0  0  0  0  0  0  0  0  0  0  0  0
   -1.6790   22.2130  -27.9310 C   0  0  0  0  0  0  0  0  0  0  0  0
   -1.5120   22.2420  -29.3180 C   0  0  0  0  0  0  0  0  0  0  0  0
   -2.1240   23.2440  -30.0760 C   0  0  0  0  0  0  0  0  0  0  0  0
   -5.0710   22.9530  -31.2800 C   0  0  0  0  0  0  0  0  0  0  0  0
   -5.2050   17.8080  -33.9620 C   0  0  0  0  0  0  0  0  0  0  0  0
   -6.9917   15.3612  -33.1476 H   0  0  0  0  0  0  0  0  0  0  0  0
   -7.3753   16.2428  -34.6649 H   0  0  0  0  0  0  0  0  0  0  0  0
   -7.2938   14.4484  -34.6649 H   0  0  0  0  0  0  0  0  0  0  0  0
   -2.9107   15.5365  -35.0971 H   0  0  0  0  0  0  0  0  0  0  0  0
   -1.4373   17.5389  -34.9267 H   0  0  0  0  0  0  0  0  0  0  0  0
   -2.3672   19.7151  -34.1438 H   0  0  0  0  0  0  0  0  0  0  0  0
   -5.0460   20.9230  -34.1550 H   0  0  0  0  0  0  0  0  0  0  0  0
   -7.8016   21.0043  -31.9583 H   0  0  0  0  0  0  0  0  0  0  0  0
   -8.9630   23.1179  -31.3459 H   0  0  0  0  0  0  0  0  0  0  0  0
   -7.6500   25.1314  -30.6995 H   0  0  0  0  0  0  0  0  0  0  0  0
   -3.7179   24.9336  -27.5621 H   0  0  0  0  0  0  0  0  0  0  0  0
   -2.6076   23.1522  -26.2110 H   0  0  0  0  0  0  0  0  0  0  0  0
   -1.1886   21.4300  -27.3340 H   0  0  0  0  0  0  0  0  0  0  0  0
   -0.8983   21.4755  -29.8137 H   0  0  0  0  0  0  0  0  0  0  0  0
   -1.9962   23.2576  -31.1685 H   0  0  0  0  0  0  0  0  0  0  0  0
   -3.9726   22.9025  -31.2499 H   0  0  0  0  0  0  0  0  0  0  0  0
   -6.2710   17.8866  -33.7024 H   0  0  0  0  0  0  0  0  0  0  0  0
  1  2  1  0
  2  3  1  0
  3  4  2  0
  4  5  1  0
  5  6  2  0
  6  7  1  0
  7  8  1  0
  8  9  1  0
  9 10  2  0
  9 11  1  0
 11 12  2  0
 12 13  1  0
 13 14  2  0
 14 15  1  0
 15 16  1  0
 16 17  2  0
 16 18  1  0
 18 19  1  0
 19 20  2  0
 20 21  1  0
 21 22  2  0
 22 23  1  0
 23 24  2  0
 15 25  2  0
  7 26  2  0
 26  3  1  0
 25 11  1  0
 24 19  1  0
  1 27  1  0
  1 28  1  0
  1 29  1  0
  4 30  1  0
  5 31  1  0
  6 32  1  0
  8 33  1  0
 12 34  1  0
 13 35  1  0
 14 36  1  0
 20 37  1  0
 21 38  1  0
 22 39  1  0
 23 40  1  0
 24 41  1  0
 25 42  1  0
 26 43  1  0
M  CHG  1  18  -1
M  END
>  <UniqueID>  (18) 
18

>  <SMILES>  (18) 
COc1cccc(NC(=O)c2cccc(C(=O)[N-]c3ccccc3)c2)c1

>  <Energy>  (18) 
56.62248471079557

>  <Genealogy>  (18) 
COc1cccc(NC(=O)c2cccc(C(=O)[N-]c3ccccc3)c2)c1 (protonated)
COc1cccc(NC(=O)c2cccc(C(=O)[N-]c3ccccc3)c2)c1 (3D coordinates assigned)
COc1cccc(NC(=O)c2cccc(C(=O)[N-]c3ccccc3)c2)c1 (optimized conformer: 56.62248471079557 kcal/mol)

>  <smiles>  (18) 
COc1cccc(NC(=O)c2cccc(C(=O)Nc3ccccc3)c2)c1

>  <score_type>  (18) 
oracle

>  <origin>  (18) 
adgpu

>  <m_score__min__energy>  (18) 
-9.8800000000000008

>  <m_primary>  (18) 
energy

$$$$
18:0
     RDKit          3D

 39 41  0  0  0  0  0  0  0  0999 V2000
   -5.2830   25.6150  -30.4450 C   0  0  0  0  0  0  0  0  0  0  0  0
   -3.8920   25.3120  -30.4700 O   0  0  0  0  0  0  0  0  0  0  0  0
   -3.3520   24.0430  -30.2160 C   0  0  0  0  0  0  0  0  0  0  0  0
   -2.8830   23.7660  -28.9270 C   0  0  0  0  0  0  0  0  0  0  0  0
   -2.3430   22.5140  -28.6220 C   0  0  0  0  0  0  0  0  0  0  0  0
   -2.2630   21.5270  -29.6060 C   0  0  0  0  0  0  0  0  0  0  0  0
   -2.7150   21.7890  -30.9070 C   0  0  0  0  0  0  0  0  0  0  0  0
   -2.6660   20.7140  -31.9590 C   0  0  0  0  0  0  0  0  0  0  0  0
   -4.0580   20.3480  -32.3760 C   0  0  0  0  0  0  0  0  0  0  0  0
   -4.4160   20.5340  -33.5700 O   0  0  0  0  0  0  0  0  0  0  0  0
   -4.9760   19.8070  -31.4160 N   0  0  0  0  0  0  0  0  0  0  0  0
   -6.3830   19.6600  -31.6720 C   0  0  0  0  0  0  0  0  0  0  0  0
   -6.9150   18.3780  -31.8990 C   0  0  0  0  0  0  0  0  0  0  0  0
   -8.2650   18.2090  -32.2040 C   0  0  0  0  0  0  0  0  0  0  0  0
   -9.1090   19.3150  -32.2940 C   0  0  0  0  0  0  0  0  0  0  0  0
   -8.6070   20.6060  -32.0770 C   0  0  0  0  0  0  0  0  0  0  0  0
   -9.4610   21.7160  -32.1670 C   0  0  0  0  0  0  0  0  0  0  0  0
   -8.9680   23.0020  -31.9370 C   0  0  0  0  0  0  0  0  0  0  0  0
   -7.6250   23.1900  -31.6120 C   0  0  0  0  0  0  0  0  0  0  0  0
   -6.7610   22.0960  -31.5200 C   0  0  0  0  0  0  0  0  0  0  0  0
   -7.2340   20.7900  -31.7620 C   0  0  0  0  0  0  0  0  0  0  0  0
   -3.2680   23.0450  -31.2070 C   0  0  0  0  0  0  0  0  0  0  0  0
   -5.6234   25.6892  -29.4016 H   0  0  0  0  0  0  0  0  0  0  0  0
   -5.4589   26.5725  -30.9570 H   0  0  0  0  0  0  0  0  0  0  0  0
   -5.8413   24.8174  -30.9570 H   0  0  0  0  0  0  0  0  0  0  0  0
   -2.9399   24.5402  -28.1476 H   0  0  0  0  0  0  0  0  0  0  0  0
   -1.9802   22.3056  -27.6047 H   0  0  0  0  0  0  0  0  0  0  0  0
   -1.8439   20.5403  -29.3597 H   0  0  0  0  0  0  0  0  0  0  0  0
   -2.1082   21.0829  -32.8324 H   0  0  0  0  0  0  0  0  0  0  0  0
   -2.1648   19.8256  -31.5473 H   0  0  0  0  0  0  0  0  0  0  0  0
   -4.6050   19.5210  -30.4820 H   0  0  0  0  0  0  0  0  0  0  0  0
   -6.2581   17.4980  -31.8351 H   0  0  0  0  0  0  0  0  0  0  0  0
   -8.6658   17.1989  -32.3743 H   0  0  0  0  0  0  0  0  0  0  0  0
  -10.1727   19.1743  -32.5362 H   0  0  0  0  0  0  0  0  0  0  0  0
  -10.5220   21.5725  -32.4195 H   0  0  0  0  0  0  0  0  0  0  0  0
   -9.6407   23.8690  -32.0124 H   0  0  0  0  0  0  0  0  0  0  0  0
   -7.2438   24.2051  -31.4271 H   0  0  0  0  0  0  0  0  0  0  0  0
   -5.7047   22.2546  -31.2570 H   0  0  0  0  0  0  0  0  0  0  0  0
   -3.6379   23.2507  -32.2223 H   0  0  0  0  0  0  0  0  0  0  0  0
  1  2  1  0
  2  3  1  0
  3  4  2  0
  4  5  1  0
  5  6  2  0
  6  7  1  0
  7  8  1  0
  8  9  1  0
  9 10  2  0
  9 11  1  0
 11 12  1  0
 12 13  2  0
 13 14  1  0
 14 15  2  0
 15 16  1  0
 16 17  2  0
 17 18  1  0
 18 19  2  0
 19 20  1  0
 20 21  2  0
  7 22  2  0
 22  3  1  0
 21 12  1  0
 21 16  1  0
  1 23  1  0
  1 24  1  0
  1 25  1  0
  4 26  1  0
  5 27  1  0
  6 28  1  0
  8 29  1  0
  8 30  1  0
 11 31  1  0
 13 32  1  0
 14 33  1  0
 15 34  1  0
 17 35  1  0
 18 36  1  0
 19 37  1  0
 20 38  1  0
 22 39  1  0
M  END
>  <UniqueID>  (19) 
19

>  <SMILES>  (19) 
COc1cccc(CC(=O)Nc2cccc3ccccc23)c1

>  <Energy>  (19) 
47.26905068808908

>  <Genealogy>  (19) 
COc1cccc(CC(=O)Nc2cccc3ccccc23)c1 (3D coordinates assigned)
COc1cccc(CC(=O)Nc2cccc3ccccc23)c1 (optimized conformer: 47.26905068808908 kcal/mol)

>  <smiles>  (19) 
COc1cccc(CC(=O)Nc2cccc3ccccc23)c1

>  <score_type>  (19) 
oracle

>  <origin>  (19) 
adgpu

>  <m_score__min__energy>  (19) 
-8.6199999999999992

>  <m_primary>  (19) 
energy

$$$$
19:0
     RDKit          3D

 35 37  0  0  0  0  0  0  0  0999 V2000
   -5.0180   25.7530  -30.3950 N   0  0  0  0  0  0  0  0  0  0  0  0
   -5.5550   24.4710  -30.7450 C   0  0  0  0  0  0  0  0  0  0  0  0
   -6.4080   24.3650  -31.8510 C   0  0  0  0  0  0  0  0  0  0  0  0
   -6.8890   23.1200  -32.2600 C   0  0  0  0  0  0  0  0  0  0  0  0
   -6.5240   21.9490  -31.5750 C   0  0  0  0  0  0  0  0  0  0  0  0
   -7.0320   20.6270  -32.0270 C   0  0  0  0  0  0  0  0  0  0  0  0
   -6.3570   19.6920  -32.8160 C   0  0  0  0  0  0  0  0  0  0  0  0
   -7.1010   18.5340  -33.0740 C   0  0  0  0  0  0  0  0  0  0  0  0
   -8.3630   18.5380  -32.4990 C   0  0  0  0  0  0  0  0  0  0  0  0
   -8.5490   19.9830  -31.6650 S   0  0  0  0  0  0  0  0  0  0  0  0
   -5.6700   22.0580  -30.4610 C   0  0  0  0  0  0  0  0  0  0  0  0
   -5.2040   23.3070  -30.0290 C   0  0  0  0  0  0  0  0  0  0  0  0
   -4.3560   23.3650  -28.8740 N   0  0  0  0  0  0  0  0  0  0  0  0
   -3.1690   24.1770  -28.8360 C   0  0  0  0  0  0  0  0  0  0  0  0
   -2.7970   24.7840  -29.8780 O   0  0  0  0  0  0  0  0  0  0  0  0
   -2.3630   24.3050  -27.5990 C   0  0  0  0  0  0  0  0  0  0  0  0
   -2.6780   25.3040  -26.6600 C   0  0  0  0  0  0  0  0  0  0  0  0
   -1.9300   25.4370  -25.4860 C   0  0  0  0  0  0  0  0  0  0  0  0
   -0.8660   24.5690  -25.2320 C   0  0  0  0  0  0  0  0  0  0  0  0
   -0.5510   23.5640  -26.1500 C   0  0  0  0  0  0  0  0  0  0  0  0
    0.4730   22.7130  -25.8940 F   0  0  0  0  0  0  0  0  0  0  0  0
   -1.2960   23.4280  -27.3260 C   0  0  0  0  0  0  0  0  0  0  0  0
   -4.6040   25.9360  -29.4560 H   0  0  0  0  0  0  0  0  0  0  0  0
   -4.9730   26.5210  -31.1020 H   0  0  0  0  0  0  0  0  0  0  0  0
   -6.7014   25.2707  -32.4020 H   0  0  0  0  0  0  0  0  0  0  0  0
   -7.5613   23.0551  -33.1282 H   0  0  0  0  0  0  0  0  0  0  0  0
   -5.3378   19.8505  -33.1982 H   0  0  0  0  0  0  0  0  0  0  0  0
   -6.7192   17.6975  -33.6777 H   0  0  0  0  0  0  0  0  0  0  0  0
   -9.1110   17.7351  -32.5759 H   0  0  0  0  0  0  0  0  0  0  0  0
   -5.3640   21.1494  -29.9218 H   0  0  0  0  0  0  0  0  0  0  0  0
   -4.6980   22.8960  -28.0060 H   0  0  0  0  0  0  0  0  0  0  0  0
   -3.5196   25.9861  -26.8508 H   0  0  0  0  0  0  0  0  0  0  0  0
   -2.1800   26.2263  -24.7617 H   0  0  0  0  0  0  0  0  0  0  0  0
   -0.2762   24.6765  -24.3097 H   0  0  0  0  0  0  0  0  0  0  0  0
   -1.0467   22.6309  -28.0419 H   0  0  0  0  0  0  0  0  0  0  0  0
  1  2  1  0
  2  3  2  0
  3  4  1  0
  4  5  2  0
  5  6  1  0
  6  7  2  0
  7  8  1  0
  8  9  2  0
  9 10  1  0
  5 11  1  0
 11 12  2  0
 12 13  1  0
 13 14  1  0
 14 15  2  0
 14 16  1  0
 16 17  2  0
 17 18  1  0
 18 19  2  0
 19 20  1  0
 20 21  1  0
 20 22  2  0
 12  2  1  0
 22 16  1  0
 10  6  1  0
  1 23  1  0
  1 24  1  0
  3 25  1  0
  4 26  1  0
  7 27  1  0
  8 28  1  0
  9 29  1  0
 11 30  1  0
 13 31  1  0
 17 32  1  0
 18 33  1  0
 19 34  1  0
 22 35  1  0
M  END
>  <UniqueID>  (20) 
20

>  <SMILES>  (20) 
Nc1ccc(-c2cccs2)cc1NC(=O)c1cccc(F)c1

>  <Energy>  (20) 
74.83494869822744

>  <Genealogy>  (20) 
Nc1ccc(-c2cccs2)cc1NC(=O)c1cccc(F)c1 (3D coordinates assigned)
Nc1ccc(-c2cccs2)cc1NC(=O)c1cccc(F)c1 (optimized conformer: 74.83494869822744 kcal/mol)

>  <smiles>  (20) 
Nc1ccc(-c2cccs2)cc1NC(=O)c1cccc(F)c1

>  <score_type>  (20) 
oracle

>  <origin>  (20) 
adgpu

>  <m_score__min__energy>  (20) 
-8.2400000000000002

>  <m_primary>  (20) 
energy

$$$$
20:0
     RDKit          3D

 48 50  0  0  0  0  0  0  0  0999 V2000
   -4.8200   14.9660  -33.5290 C   0  0  0  0  0  0  0  0  0  0  0  0
   -5.4450   16.0040  -34.2750 O   0  0  0  0  0  0  0  0  0  0  0  0
   -6.0420   17.1420  -33.7060 C   0  0  0  0  0  0  0  0  0  0  0  0
   -7.2160   17.0670  -32.9300 C   0  0  0  0  0  0  0  0  0  0  0  0
   -7.7980   18.2250  -32.4190 C   0  0  0  0  0  0  0  0  0  0  0  0
   -7.2130   19.4740  -32.6600 C   0  0  0  0  0  0  0  0  0  0  0  0
   -7.9740   20.9450  -32.0640 S   0  0  0  0  0  0  0  0  0  0  0  0
   -9.3160   21.0960  -32.7180 O   0  0  0  0  0  0  0  0  0  0  0  0
   -8.1730   20.8740  -30.5770 O   0  0  0  0  0  0  0  0  0  0  0  0
   -7.0020   22.3330  -32.4310 N   0  0  0  0  0  0  0  0  0  0  0  0
   -6.5110   23.2660  -31.4600 C   0  0  0  0  0  0  0  0  0  0  0  0
   -7.3560   24.1800  -30.8090 C   0  0  0  0  0  0  0  0  0  0  0  0
   -6.8340   25.0810  -29.8800 C   0  0  0  0  0  0  0  0  0  0  0  0
   -5.4650   25.0980  -29.6100 C   0  0  0  0  0  0  0  0  0  0  0  0
   -4.5990   24.2150  -30.2770 C   0  0  0  0  0  0  0  0  0  0  0  0
   -3.1310   24.2700  -30.0530 C   0  0  0  0  0  0  0  0  0  0  0  0
   -2.3980   23.3680  -30.5420 O   0  0  0  0  0  0  0  0  0  0  0  0
   -2.5150   25.2980  -29.2620 N   0  0  0  0  0  0  0  0  0  0  0  0
   -1.7910   25.1100  -28.0310 C   0  0  0  0  0  0  0  0  0  0  0  0
   -2.3310   25.5190  -26.7960 C   0  0  0  0  0  0  0  0  0  0  0  0
   -1.6080   25.3420  -25.6130 C   0  0  0  0  0  0  0  0  0  0  0  0
   -0.3360   24.7720  -25.6500 C   0  0  0  0  0  0  0  0  0  0  0  0
    0.2200   24.3860  -26.8710 C   0  0  0  0  0  0  0  0  0  0  0  0
   -0.4960   24.5570  -28.0640 C   0  0  0  0  0  0  0  0  0  0  0  0
    0.0950   24.1660  -29.2670 O   0  0  0  0  0  0  0  0  0  0  0  0
   -5.1390   23.2760  -31.1750 C   0  0  0  0  0  0  0  0  0  0  0  0
   -6.0270   19.5540  -33.3990 C   0  0  0  0  0  0  0  0  0  0  0  0
   -5.4390   18.3900  -33.9330 C   0  0  0  0  0  0  0  0  0  0  0  0
   -4.2640   18.4310  -34.7030 O   0  0  0  0  0  0  0  0  0  0  0  0
   -2.9500   18.5390  -34.1670 C   0  0  0  0  0  0  0  0  0  0  0  0
   -4.9394   15.1643  -32.4536 H   0  0  0  0  0  0  0  0  0  0  0  0
   -5.2881   14.0023  -33.7783 H   0  0  0  0  0  0  0  0  0  0  0  0
   -3.7493   14.9289  -33.7783 H   0  0  0  0  0  0  0  0  0  0  0  0
   -7.6755   16.0885  -32.7266 H   0  0  0  0  0  0  0  0  0  0  0  0
   -8.7207   18.1578  -31.8239 H   0  0  0  0  0  0  0  0  0  0  0  0
   -8.4331   24.1855  -31.0323 H   0  0  0  0  0  0  0  0  0  0  0  0
   -7.5041   25.7804  -29.3586 H   0  0  0  0  0  0  0  0  0  0  0  0
   -5.0617   25.8063  -28.8713 H   0  0  0  0  0  0  0  0  0  0  0  0
   -3.3287   25.9809  -26.7624 H   0  0  0  0  0  0  0  0  0  0  0  0
   -2.0430   25.6527  -24.6516 H   0  0  0  0  0  0  0  0  0  0  0  0
    0.2291   24.6265  -24.7175 H   0  0  0  0  0  0  0  0  0  0  0  0
    1.2272   23.9445  -26.8971 H   0  0  0  0  0  0  0  0  0  0  0  0
   -0.4150   24.1470  -30.1420 H   0  0  0  0  0  0  0  0  0  0  0  0
   -4.4773   22.5421  -31.6583 H   0  0  0  0  0  0  0  0  0  0  0  0
   -5.5509   20.5318  -33.5640 H   0  0  0  0  0  0  0  0  0  0  0  0
   -3.0007   18.5348  -33.0682 H   0  0  0  0  0  0  0  0  0  0  0  0
   -2.3433   17.6877  -34.5093 H   0  0  0  0  0  0  0  0  0  0  0  0
   -2.4904   19.4779  -34.5093 H   0  0  0  0  0  0  0  0  0  0  0  0
  1  2  1  0
  2  3  1  0
  3  4  2  0
  4  5  1  0
  5  6  2  0
  6  7  1  0
  7  8  2  0
  7  9  2  0
  7 10  1  0
 10 11  1  0
 11 12  2  0
 12 13  1  0
 13 14  2  0
 14 15  1  0
 15 16  1  0
 16 17  2  0
 16 18  1  0
 18 19  1  0
 19 20  2  0
 20 21  1  0
 21 22  2  0
 22 23  1  0
 23 24  2  0
 24 25  1  0
 15 26  2  0
  6 27  1  0
 27 28  2  0
 28 29  1  0
 29 30  1  0
 28  3  1  0
 26 11  1  0
 24 19  1  0
  1 31  1  0
  1 32  1  0
  1 33  1  0
  4 34  1  0
  5 35  1  0
 12 36  1  0
 13 37  1  0
 14 38  1  0
 20 39  1  0
 21 40  1  0
 22 41  1  0
 23 42  1  0
 25 43  1  0
 26 44  1  0
 27 45  1  0
 30 46  1  0
 30 47  1  0
 30 48  1  0
M  CHG  2  10  -1  18  -1
M  END
>  <UniqueID>  (21) 
21

>  <SMILES>  (21) 
COc1ccc(S(=O)(=O)[N-]c2cccc(C(=O)[N-]c3ccccc3O)c2)cc1OC

>  <Energy>  (21) 
60.92615738511252

>  <Genealogy>  (21) 
COc1ccc(S(=O)(=O)[N-]c2cccc(C(=O)[N-]c3ccccc3O)c2)cc1OC (protonated)
COc1ccc(S(=O)(=O)[N-]c2cccc(C(=O)[N-]c3ccccc3O)c2)cc1OC (3D coordinates assigned)
COc1ccc(S(=O)(=O)[N-]c2cccc(C(=O)[N-]c3ccccc3O)c2)cc1OC (optimized conformer: 60.92615738511252 kcal/mol)

>  <smiles>  (21) 
COc1ccc(S(=O)(=O)Nc2cccc(C(=O)Nc3ccccc3O)c2)cc1OC

>  <score_type>  (21) 
oracle

>  <origin>  (21) 
adgpu

>  <m_score__min__energy>  (21) 
-11.23

>  <m_primary>  (21) 
energy

$$$$
21:0
     RDKit          3D

 41 44  0  0  0  0  0  0  0  0999 V2000
   -1.4710   19.7000  -33.8270 C   0  0  0  0  0  0  0  0  0  0  0  0
   -2.0520   20.7120  -32.8870 C   0  0  0  0  0  0  0  0  0  0  0  0
   -3.3090   21.2950  -33.1600 C   0  0  0  0  0  0  0  0  0  0  0  0
   -3.8270   22.2700  -32.2970 C   0  0  0  0  0  0  0  0  0  0  0  0
   -3.0900   22.6330  -31.2120 N   0  0  0  0  0  0  0  0  0  0  0  0
   -3.3250   23.5430  -30.2470 C   0  0  0  0  0  0  0  0  0  0  0  0
   -4.4570   24.5390  -30.2480 C   0  0  0  0  0  0  0  0  0  0  0  0
   -5.7460   23.8620  -30.6310 C   0  0  0  0  0  0  0  0  0  0  0  0
   -6.3070   24.0680  -31.9030 C   0  0  0  0  0  0  0  0  0  0  0  0
   -7.4790   23.4020  -32.2720 C   0  0  0  0  0  0  0  0  0  0  0  0
   -8.0990   22.5240  -31.3780 C   0  0  0  0  0  0  0  0  0  0  0  0
   -9.5680   21.6890  -31.8440 Cl  0  0  0  0  0  0  0  0  0  0  0  0
   -7.5440   22.3120  -30.1120 C   0  0  0  0  0  0  0  0  0  0  0  0
   -6.3710   22.9750  -29.7400 C   0  0  0  0  0  0  0  0  0  0  0  0
   -2.2100   23.5410  -29.4100 C   0  0  0  0  0  0  0  0  0  0  0  0
   -1.9660   24.4250  -28.2560 C   0  0  0  0  0  0  0  0  0  0  0  0
   -2.9020   24.4810  -27.2120 C   0  0  0  0  0  0  0  0  0  0  0  0
   -2.6750   25.3080  -26.1080 C   0  0  0  0  0  0  0  0  0  0  0  0
   -1.5190   26.0940  -26.0450 C   0  0  0  0  0  0  0  0  0  0  0  0
   -1.2350   27.1280  -24.6570 Cl  0  0  0  0  0  0  0  0  0  0  0  0
   -0.5950   26.0590  -27.0940 C   0  0  0  0  0  0  0  0  0  0  0  0
   -0.8190   25.2340  -28.1990 C   0  0  0  0  0  0  0  0  0  0  0  0
   -1.2970   22.6430  -29.8500 N   0  0  0  0  0  0  0  0  0  0  0  0
   -1.8810   22.1110  -30.9420 C   0  0  0  0  0  0  0  0  0  0  0  0
   -1.3150   21.1400  -31.7660 C   0  0  0  0  0  0  0  0  0  0  0  0
   -1.0049   18.8882  -33.2494 H   0  0  0  0  0  0  0  0  0  0  0  0
   -2.2697   19.2873  -34.4608 H   0  0  0  0  0  0  0  0  0  0  0  0
   -0.7119   20.1817  -34.4608 H   0  0  0  0  0  0  0  0  0  0  0  0
   -3.8799   20.9846  -34.0476 H   0  0  0  0  0  0  0  0  0  0  0  0
   -4.8064   22.7312  -32.4920 H   0  0  0  0  0  0  0  0  0  0  0  0
   -4.5596   24.9732  -29.2425 H   0  0  0  0  0  0  0  0  0  0  0  0
   -4.2370   25.3311  -30.9789 H   0  0  0  0  0  0  0  0  0  0  0  0
   -5.8218   24.7561  -32.6109 H   0  0  0  0  0  0  0  0  0  0  0  0
   -7.9146   23.5690  -33.2682 H   0  0  0  0  0  0  0  0  0  0  0  0
   -8.0315   21.6221  -29.4075 H   0  0  0  0  0  0  0  0  0  0  0  0
   -5.9357   22.8011  -28.7449 H   0  0  0  0  0  0  0  0  0  0  0  0
   -3.8169   23.8724  -27.2625 H   0  0  0  0  0  0  0  0  0  0  0  0
   -3.4066   25.3409  -25.2872 H   0  0  0  0  0  0  0  0  0  0  0  0
    0.3102   26.6824  -27.0491 H   0  0  0  0  0  0  0  0  0  0  0  0
   -0.0950   25.2179  -29.0270 H   0  0  0  0  0  0  0  0  0  0  0  0
   -0.3220   20.7204  -31.5472 H   0  0  0  0  0  0  0  0  0  0  0  0
  1  2  1  0
  2  3  1  0
  3  4  2  0
  4  5  1  0
  5  6  1  0
  6  7  1  0
  7  8  1  0
  8  9  2  0
  9 10  1  0
 10 11  2  0
 11 12  1  0
 11 13  1  0
 13 14  2  0
  6 15  2  0
 15 16  1  0
 16 17  2  0
 17 18  1  0
 18 19  2  0
 19 20  1  0
 19 21  1  0
 21 22  2  0
 15 23  1  0
 23 24  2  0
 24 25  1  0
 25  2  2  0
 24  5  1  0
 14  8  1  0
 22 16  1  0
  1 26  1  0
  1 27  1  0
  1 28  1  0
  3 29  1  0
  4 30  1  0
  7 31  1  0
  7 32  1  0
  9 33  1  0
 10 34  1  0
 13 35  1  0
 14 36  1  0
 17 37  1  0
 18 38  1  0
 21 39  1  0
 22 40  1  0
 25 41  1  0
M  END
>  <UniqueID>  (22) 
22

>  <SMILES>  (22) 
Cc1ccn2c(Cc3ccc(Cl)cc3)c(-c3ccc(Cl)cc3)nc2c1

>  <Energy>  (22) 
82.21011394016242

>  <Genealogy>  (22) 
Cc1ccn2c(Cc3ccc(Cl)cc3)c(-c3ccc(Cl)cc3)nc2c1 (3D coordinates assigned)
Cc1ccn2c(Cc3ccc(Cl)cc3)c(-c3ccc(Cl)cc3)nc2c1 (optimized conformer: 82.21011394016242 kcal/mol)

>  <smiles>  (22) 
Cc1ccn2c(Cc3ccc(Cl)cc3)c(-c3ccc(Cl)cc3)nc2c1

>  <score_type>  (22) 
oracle

>  <origin>  (22) 
adgpu

>  <m_score__min__energy>  (22) 
-8.5700000000000003

>  <m_primary>  (22) 
energy

$$$$
22:0
     RDKit          3D

 35 38  0  0  0  0  0  0  0  0999 V2000
    0.1070   22.7280  -27.4200 O   0  0  0  0  0  0  0  0  0  0  0  0
   -0.6710   23.4850  -28.0570 C   0  0  0  0  0  0  0  0  0  0  0  0
   -0.3470   24.7970  -28.2500 N   0  0  0  0  0  0  0  0  0  0  0  0
   -1.2000   25.6580  -28.8910 C   0  0  0  0  0  0  0  0  0  0  0  0
   -2.4140   25.2220  -29.3420 N   0  0  0  0  0  0  0  0  0  0  0  0
   -2.7310   23.9160  -29.1670 C   0  0  0  0  0  0  0  0  0  0  0  0
   -1.8910   23.0360  -28.5570 C   0  0  0  0  0  0  0  0  0  0  0  0
   -2.6090   21.8470  -28.5220 C   0  0  0  0  0  0  0  0  0  0  0  0
   -2.1890   20.5900  -27.9780 N   0  0  0  0  0  0  0  0  0  0  0  0
   -2.8350   19.8470  -27.0580 C   0  0  0  0  0  0  0  0  0  0  0  0
   -2.0680   18.7490  -26.7230 C   0  0  0  0  0  0  0  0  0  0  0  0
   -0.9040   18.8410  -27.4610 C   0  0  0  0  0  0  0  0  0  0  0  0
   -1.0050   19.9930  -28.2140 C   0  0  0  0  0  0  0  0  0  0  0  0
   -3.8320   22.0490  -29.0750 N   0  0  0  0  0  0  0  0  0  0  0  0
   -3.8900   23.3130  -29.4810 N   0  0  0  0  0  0  0  0  0  0  0  0
   -5.0820   23.9360  -30.0470 C   0  0  0  0  0  0  0  0  0  0  0  0
   -5.8190   22.9430  -30.9020 C   0  0  0  0  0  0  0  0  0  0  0  0
   -5.1250   22.1760  -31.8510 C   0  0  0  0  0  0  0  0  0  0  0  0
   -5.8020   21.2220  -32.6160 C   0  0  0  0  0  0  0  0  0  0  0  0
   -7.1740   21.0180  -32.4350 C   0  0  0  0  0  0  0  0  0  0  0  0
   -7.8340   20.0620  -33.2040 O   0  0  0  0  0  0  0  0  0  0  0  0
   -7.8690   21.7710  -31.4790 C   0  0  0  0  0  0  0  0  0  0  0  0
   -7.1940   22.7260  -30.7120 C   0  0  0  0  0  0  0  0  0  0  0  0
   -0.9051   26.7068  -29.0432 H   0  0  0  0  0  0  0  0  0  0  0  0
   -3.8243   20.0801  -26.6373 H   0  0  0  0  0  0  0  0  0  0  0  0
   -2.3322   17.9559  -26.0081 H   0  0  0  0  0  0  0  0  0  0  0  0
   -0.0612   18.1341  -27.4505 H   0  0  0  0  0  0  0  0  0  0  0  0
   -0.2341   20.3675  -28.9036 H   0  0  0  0  0  0  0  0  0  0  0  0
   -5.7388   24.2747  -29.2322 H   0  0  0  0  0  0  0  0  0  0  0  0
   -4.7836   24.7959  -30.6646 H   0  0  0  0  0  0  0  0  0  0  0  0
   -4.0446   22.3263  -31.9931 H   0  0  0  0  0  0  0  0  0  0  0  0
   -5.2538   20.6294  -33.3632 H   0  0  0  0  0  0  0  0  0  0  0  0
   -7.7290   20.0300  -34.2120 H   0  0  0  0  0  0  0  0  0  0  0  0
   -8.9472   21.6106  -31.3316 H   0  0  0  0  0  0  0  0  0  0  0  0
   -7.7417   23.3094  -29.9572 H   0  0  0  0  0  0  0  0  0  0  0  0
  1  2  2  0
  2  3  1  0
  3  4  1  0
  4  5  2  0
  5  6  1  0
  6  7  2  0
  7  8  1  0
  8  9  1  0
  9 10  1  0
 10 11  2  0
 11 12  1  0
 12 13  2  0
  8 14  2  0
 14 15  1  0
 15 16  1  0
 16 17  1  0
 17 18  2  0
 18 19  1  0
 19 20  2  0
 20 21  1  0
 20 22  1  0
 22 23  2  0
  7  2  1  0
 13  9  1  0
 23 17  1  0
 15  6  1  0
  4 24  1  0
 10 25  1  0
 11 26  1  0
 12 27  1  0
 13 28  1  0
 16 29  1  0
 16 30  1  0
 18 31  1  0
 19 32  1  0
 21 33  1  0
 22 34  1  0
 23 35  1  0
M  CHG  1   3  -1
M  END
>  <UniqueID>  (23) 
23

>  <SMILES>  (23) 
O=c1[n-]cnc2c1c(-n1cccc1)nn2Cc1ccc(O)cc1

>  <Energy>  (23) 
111.24122575302124

>  <Genealogy>  (23) 
O=c1[n-]cnc2c1c(-n1cccc1)nn2Cc1ccc(O)cc1 (protonated)
O=c1[n-]cnc2c1c(-n1cccc1)nn2Cc1ccc(O)cc1 (3D coordinates assigned)
O=c1[n-]cnc2c1c(-n1cccc1)nn2Cc1ccc(O)cc1 (optimized conformer: 111.24122575302124 kcal/mol)

>  <smiles>  (23) 
O=c1[nH]cnc2c1c(-n1cccc1)nn2Cc1ccc(O)cc1

>  <score_type>  (23) 
oracle

>  <origin>  (23) 
adgpu

>  <m_score__min__energy>  (23) 
-7.9699999999999998

>  <m_primary>  (23) 
energy

$$$$
23:0
     RDKit          3D

 64 67  0  0  0  0  0  0  0  0999 V2000
    0.1870   17.0790  -31.1040 C   0  0  0  0  0  0  0  0  0  0  0  0
    0.6220   18.0850  -30.1950 O   0  0  0  0  0  0  0  0  0  0  0  0
   -0.0100   19.3270  -30.0220 C   0  0  0  0  0  0  0  0  0  0  0  0
   -0.8240   19.6050  -28.9050 C   0  0  0  0  0  0  0  0  0  0  0  0
   -1.4250   20.8590  -28.7670 C   0  0  0  0  0  0  0  0  0  0  0  0
   -1.2210   21.8460  -29.7320 C   0  0  0  0  0  0  0  0  0  0  0  0
   -0.4180   21.5810  -30.8420 C   0  0  0  0  0  0  0  0  0  0  0  0
    0.1830   20.3240  -30.9960 C   0  0  0  0  0  0  0  0  0  0  0  0
    0.9970   20.0620  -32.1430 N   0  0  0  0  0  0  0  0  0  0  0  0
    2.3670   19.5890  -31.9630 C   0  0  0  0  0  0  0  0  0  0  0  0
    0.3510   20.3220  -33.7360 S   0  0  0  0  0  0  0  0  0  0  0  0
    0.3460   21.7950  -34.0360 O   0  0  0  0  0  0  0  0  0  0  0  0
    1.2250   19.6260  -34.7420 O   0  0  0  0  0  0  0  0  0  0  0  0
   -1.2880   19.6890  -33.8630 C   0  0  0  0  0  0  0  0  0  0  0  0
   -1.5470   18.4840  -34.5300 C   0  0  0  0  0  0  0  0  0  0  0  0
   -2.8520   17.9920  -34.6140 C   0  0  0  0  0  0  0  0  0  0  0  0
   -3.9220   18.6960  -34.0300 C   0  0  0  0  0  0  0  0  0  0  0  0
   -5.3050   18.1700  -34.1130 C   0  0  0  0  0  0  0  0  0  0  0  0
   -5.8200   17.9300  -35.2380 O   0  0  0  0  0  0  0  0  0  0  0  0
   -6.0750   17.9930  -32.9160 N   0  0  0  0  0  0  0  0  0  0  0  0
   -6.9910   18.9320  -32.3360 C   0  0  0  0  0  0  0  0  0  0  0  0
   -8.2250   18.5340  -31.7910 C   0  0  0  0  0  0  0  0  0  0  0  0
   -9.0820   19.4830  -31.2250 C   0  0  0  0  0  0  0  0  0  0  0  0
   -8.7110   20.8290  -31.1830 C   0  0  0  0  0  0  0  0  0  0  0  0
   -7.4710   21.2310  -31.6940 C   0  0  0  0  0  0  0  0  0  0  0  0
   -7.0150   22.9330  -31.6570 S   0  0  0  0  0  0  0  0  0  0  0  0
   -8.2330   23.7810  -31.8940 O   0  0  0  0  0  0  0  0  0  0  0  0
   -6.0410   23.1870  -32.7740 O   0  0  0  0  0  0  0  0  0  0  0  0
   -6.2580   23.3240  -30.1250 N   0  0  0  0  0  0  0  0  0  0  0  0
   -6.3370   24.7640  -29.8040 C   0  0  0  0  0  0  0  0  0  0  0  0
   -5.2630   25.5790  -30.5380 C   0  0  0  0  0  0  0  0  0  0  0  0
   -3.9760   25.0750  -30.2530 O   0  0  0  0  0  0  0  0  0  0  0  0
   -3.8670   23.7550  -30.7440 C   0  0  0  0  0  0  0  0  0  0  0  0
   -4.8710   22.8190  -30.0490 C   0  0  0  0  0  0  0  0  0  0  0  0
   -6.6150   20.2790  -32.2650 C   0  0  0  0  0  0  0  0  0  0  0  0
   -3.6540   19.9060  -33.3640 C   0  0  0  0  0  0  0  0  0  0  0  0
   -2.3470   20.3960  -33.2810 C   0  0  0  0  0  0  0  0  0  0  0  0
   -0.1878   16.2123  -30.5398 H   0  0  0  0  0  0  0  0  0  0  0  0
   -0.6180   17.4803  -31.7372 H   0  0  0  0  0  0  0  0  0  0  0  0
    1.0307   16.7673  -31.7372 H   0  0  0  0  0  0  0  0  0  0  0  0
   -0.9866   18.8321  -28.1394 H   0  0  0  0  0  0  0  0  0  0  0  0
   -2.0612   21.0688  -27.8945 H   0  0  0  0  0  0  0  0  0  0  0  0
   -1.6932   22.8329  -29.6177 H   0  0  0  0  0  0  0  0  0  0  0  0
   -0.2559   22.3619  -31.5995 H   0  0  0  0  0  0  0  0  0  0  0  0
    2.5901   19.5120  -30.8886 H   0  0  0  0  0  0  0  0  0  0  0  0
    2.4782   18.6004  -32.4324 H   0  0  0  0  0  0  0  0  0  0  0  0
    3.0645   20.2984  -32.4324 H   0  0  0  0  0  0  0  0  0  0  0  0
   -0.7196   17.9233  -34.9892 H   0  0  0  0  0  0  0  0  0  0  0  0
   -3.0450   17.0461  -35.1412 H   0  0  0  0  0  0  0  0  0  0  0  0
   -8.5167   17.4736  -31.8100 H   0  0  0  0  0  0  0  0  0  0  0  0
  -10.0516   19.1685  -30.8114 H   0  0  0  0  0  0  0  0  0  0  0  0
   -9.3937   21.5738  -30.7481 H   0  0  0  0  0  0  0  0  0  0  0  0
   -6.8140   22.8140  -29.3990 H   0  0  0  0  0  0  0  0  0  0  0  0
   -7.3287   25.1389  -30.0971 H   0  0  0  0  0  0  0  0  0  0  0  0
   -6.1701   24.8797  -28.7229 H   0  0  0  0  0  0  0  0  0  0  0  0
   -5.4424   25.5204  -31.6217 H   0  0  0  0  0  0  0  0  0  0  0  0
   -5.3177   26.6241  -30.1993 H   0  0  0  0  0  0  0  0  0  0  0  0
   -4.0672   23.7567  -31.8256 H   0  0  0  0  0  0  0  0  0  0  0  0
   -2.8500   23.3896  -30.5388 H   0  0  0  0  0  0  0  0  0  0  0  0
   -4.8274   21.8322  -30.5330 H   0  0  0  0  0  0  0  0  0  0  0  0
   -4.5936   22.7594  -28.9862 H   0  0  0  0  0  0  0  0  0  0  0  0
   -5.6382   20.5932  -32.6613 H   0  0  0  0  0  0  0  0  0  0  0  0
   -4.4789   20.4708  -32.9051 H   0  0  0  0  0  0  0  0  0  0  0  0
   -2.1498   21.3421  -32.7556 H   0  0  0  0  0  0  0  0  0  0  0  0
  1  2  1  0
  2  3  1  0
  3  4  2  0
  4  5  1  0
  5  6  2  0
  6  7  1  0
  7  8  2  0
  8  9  1  0
  9 10  1  0
  9 11  1  0
 11 12  2  0
 11 13  2  0
 11 14  1  0
 14 15  2  0
 15 16  1  0
 16 17  2  0
 17 18  1  0
 18 19  2  0
 18 20  1  0
 20 21  1  0
 21 22  2  0
 22 23  1  0
 23 24  2  0
 24 25  1  0
 25 26  1  0
 26 27  2  0
 26 28  2  0
 26 29  1  0
 29 30  1  0
 30 31  1  0
 31 32  1  0
 32 33  1  0
 33 34  1  0
 25 35  2  0
 17 36  1  0
 36 37  2  0
  8  3  1  0
 37 14  1  0
 35 21  1  0
 34 29  1  0
  1 38  1  0
  1 39  1  0
  1 40  1  0
  4 41  1  0
  5 42  1  0
  6 43  1  0
  7 44  1  0
 10 45  1  0
 10 46  1  0
 10 47  1  0
 15 48  1  0
 16 49  1  0
 22 50  1  0
 23 51  1  0
 24 52  1  0
 29 53  1  0
 30 54  1  0
 30 55  1  0
 31 56  1  0
 31 57  1  0
 33 58  1  0
 33 59  1  0
 34 60  1  0
 34 61  1  0
 35 62  1  0
 36 63  1  0
 37 64  1  0
M  CHG  2  20  -1  29   1
M  END
>  <UniqueID>  (24) 
24

>  <SMILES>  (24) 
COc1ccccc1N(C)S(=O)(=O)c1ccc(C(=O)[N-]c2cccc(S(=O)(=O)[NH+]3CCOCC3)c2)cc1

>  <Energy>  (24) 
81.41385178599613

>  <Genealogy>  (24) 
COc1ccccc1N(C)S(=O)(=O)c1ccc(C(=O)[N-]c2cccc(S(=O)(=O)[NH+]3CCOCC3)c2)cc1 (protonated)
COc1ccccc1N(C)S(=O)(=O)c1ccc(C(=O)[N-]c2cccc(S(=O)(=O)[NH+]3CCOCC3)c2)cc1 (3D coordinates assigned)
COc1ccccc1N(C)S(=O)(=O)c1ccc(C(=O)[N-]c2cccc(S(=O)(=O)[NH+]3CCOCC3)c2)cc1 (nonaromatic ring conformer: 81.41385178599613 kcal/mol)

>  <smiles>  (24) 
COc1ccccc1N(C)S(=O)(=O)c1ccc(C(=O)Nc2cccc(S(=O)(=O)N3CCOCC3)c2)cc1

>  <score_type>  (24) 
oracle

>  <origin>  (24) 
adgpu

>  <m_score__min__energy>  (24) 
-11.77

>  <m_primary>  (24) 
energy

$$$$
24:0
     RDKit          3D

 43 44  0  0  0  0  0  0  0  0999 V2000
   -9.2170   19.6080  -32.5700 C   0  0  0  0  0  0  0  0  0  0  0  0
   -8.5650   18.5590  -31.6600 C   0  0  0  0  0  0  0  0  0  0  0  0
   -7.4870   17.8020  -32.3540 N   0  0  0  0  0  0  0  0  0  0  0  0
   -6.4140   17.4270  -31.3920 C   0  0  0  0  0  0  0  0  0  0  0  0
   -5.4490   16.3900  -31.9760 C   0  0  0  0  0  0  0  0  0  0  0  0
   -6.9250   18.6190  -33.4600 C   0  0  0  0  0  0  0  0  0  0  0  0
   -5.8400   19.5510  -32.9820 C   0  0  0  0  0  0  0  0  0  0  0  0
   -6.0760   20.8210  -31.9040 S   0  0  0  0  0  0  0  0  0  0  0  0
   -4.4560   21.2870  -31.9100 C   0  0  0  0  0  0  0  0  0  0  0  0
   -3.8760   22.4130  -31.1440 C   0  0  0  0  0  0  0  0  0  0  0  0
   -4.6340   23.5640  -30.8620 C   0  0  0  0  0  0  0  0  0  0  0  0
   -4.0760   24.6220  -30.1380 C   0  0  0  0  0  0  0  0  0  0  0  0
   -2.7470   24.5480  -29.6810 C   0  0  0  0  0  0  0  0  0  0  0  0
   -2.1440   25.5830  -28.9510 O   0  0  0  0  0  0  0  0  0  0  0  0
   -1.6120   25.4380  -27.6390 C   0  0  0  0  0  0  0  0  0  0  0  0
   -1.9940   23.4040  -29.9600 C   0  0  0  0  0  0  0  0  0  0  0  0
   -2.5490   22.3460  -30.6840 C   0  0  0  0  0  0  0  0  0  0  0  0
   -3.7270   20.4820  -32.7190 N   0  0  0  0  0  0  0  0  0  0  0  0
   -4.4820   19.5190  -33.3160 C   0  0  0  0  0  0  0  0  0  0  0  0
   -3.8680   18.5100  -34.2340 C   0  0  0  0  0  0  0  0  0  0  0  0
   -9.6976   20.3812  -31.9525 H   0  0  0  0  0  0  0  0  0  0  0  0
   -8.4477   20.0716  -33.2050 H   0  0  0  0  0  0  0  0  0  0  0  0
   -9.9733   19.1234  -33.2050 H   0  0  0  0  0  0  0  0  0  0  0  0
   -8.1334   19.0681  -30.7857 H   0  0  0  0  0  0  0  0  0  0  0  0
   -9.3432   17.8407  -31.3624 H   0  0  0  0  0  0  0  0  0  0  0  0
   -7.8950   16.9260  -32.7610 H   0  0  0  0  0  0  0  0  0  0  0  0
   -5.8450   18.3302  -31.1264 H   0  0  0  0  0  0  0  0  0  0  0  0
   -6.8938   16.9814  -30.5081 H   0  0  0  0  0  0  0  0  0  0  0  0
   -4.9488   15.8525  -31.1569 H   0  0  0  0  0  0  0  0  0  0  0  0
   -6.0102   15.6747  -32.5952 H   0  0  0  0  0  0  0  0  0  0  0  0
   -4.6952   16.8984  -32.5952 H   0  0  0  0  0  0  0  0  0  0  0  0
   -6.5039   17.9449  -34.2204 H   0  0  0  0  0  0  0  0  0  0  0  0
   -7.7386   19.2313  -33.8761 H   0  0  0  0  0  0  0  0  0  0  0  0
   -5.6740   23.6322  -31.2139 H   0  0  0  0  0  0  0  0  0  0  0  0
   -4.6789   25.5169  -29.9245 H   0  0  0  0  0  0  0  0  0  0  0  0
   -2.3974   25.6521  -26.8992 H   0  0  0  0  0  0  0  0  0  0  0  0
   -1.2499   24.4084  -27.5019 H   0  0  0  0  0  0  0  0  0  0  0  0
   -0.7775   26.1415  -27.5019 H   0  0  0  0  0  0  0  0  0  0  0  0
   -0.9547   23.3361  -29.6062 H   0  0  0  0  0  0  0  0  0  0  0  0
   -1.9427   21.4530  -30.8960 H   0  0  0  0  0  0  0  0  0  0  0  0
   -3.3867   17.7190  -33.6402 H   0  0  0  0  0  0  0  0  0  0  0  0
   -4.6502   18.0676  -34.8684 H   0  0  0  0  0  0  0  0  0  0  0  0
   -3.1157   19.0014  -34.8684 H   0  0  0  0  0  0  0  0  0  0  0  0
  1  2  1  0
  2  3  1  0
  3  4  1  0
  4  5  1  0
  3  6  1  0
  6  7  1  0
  7  8  1  0
  8  9  1  0
  9 10  1  0
 10 11  2  0
 11 12  1  0
 12 13  2  0
 13 14  1  0
 14 15  1  0
 13 16  1  0
 16 17  2  0
  9 18  2  0
 18 19  1  0
 19 20  1  0
 19  7  2  0
 17 10  1  0
  1 21  1  0
  1 22  1  0
  1 23  1  0
  2 24  1  0
  2 25  1  0
  3 26  1  0
  4 27  1  0
  4 28  1  0
  5 29  1  0
  5 30  1  0
  5 31  1  0
  6 32  1  0
  6 33  1  0
 11 34  1  0
 12 35  1  0
 15 36  1  0
 15 37  1  0
 15 38  1  0
 16 39  1  0
 17 40  1  0
 20 41  1  0
 20 42  1  0
 20 43  1  0
M  CHG  1   3   1
M  END
>  <UniqueID>  (25) 
25

>  <SMILES>  (25) 
CC[NH+](CC)Cc1sc(-c2ccc(OC)cc2)nc1C

>  <Energy>  (25) 
72.0903874892843

>  <Genealogy>  (25) 
CC[NH+](CC)Cc1sc(-c2ccc(OC)cc2)nc1C (protonated)
CC[NH+](CC)Cc1sc(-c2ccc(OC)cc2)nc1C (3D coordinates assigned)
CC[NH+](CC)Cc1sc(-c2ccc(OC)cc2)nc1C (optimized conformer: 72.0903874892843 kcal/mol)

>  <smiles>  (25) 
CCN(CC)Cc1sc(-c2ccc(OC)cc2)nc1C

>  <score_type>  (25) 
oracle

>  <origin>  (25) 
adgpu

>  <m_score__min__energy>  (25) 
-6.4000000000000004

>  <m_primary>  (25) 
energy

$$$$
25:0
     RDKit          3D

 57 59  0  0  0  0  0  0  0  0999 V2000
   -0.9260   22.3320  -33.0620 H   0  0  0  0  0  0  0  0  0  0  0  0
   -0.8310   21.9070  -33.9750 O   0  0  0  0  0  0  0  0  0  0  0  0
   -1.5750   20.7960  -34.3090 N   0  0  0  0  0  0  0  0  0  0  0  0
   -1.8800   20.7080  -35.3020 H   0  0  0  0  0  0  0  0  0  0  0  0
   -1.8790   19.8850  -33.4220 C   0  0  0  0  0  0  0  0  0  0  0  0
   -1.5680   20.1200  -31.9830 C   0  0  0  0  0  0  0  0  0  0  0  0
   -1.9790   21.2920  -31.2940 C   0  0  0  0  0  0  0  0  0  0  0  0
   -2.7370   22.2960  -31.9110 O   0  0  0  0  0  0  0  0  0  0  0  0
   -4.1340   22.3720  -31.8550 C   0  0  0  0  0  0  0  0  0  0  0  0
   -4.8950   21.4370  -32.5610 C   0  0  0  0  0  0  0  0  0  0  0  0
   -4.3941   20.6863  -33.1899 H   0  0  0  0  0  0  0  0  0  0  0  0
   -6.2880   21.4510  -32.4720 C   0  0  0  0  0  0  0  0  0  0  0  0
   -6.8784   20.6997  -33.0169 H   0  0  0  0  0  0  0  0  0  0  0  0
   -6.9380   22.4160  -31.6930 C   0  0  0  0  0  0  0  0  0  0  0  0
   -8.7360   22.3640  -31.5810 S   0  0  0  0  0  0  0  0  0  0  0  0
   -8.8530   20.6820  -32.2700 C   0  0  0  0  0  0  0  0  0  0  0  0
   -8.9038   19.9520  -31.4487 H   0  0  0  0  0  0  0  0  0  0  0  0
   -9.7589   20.6014  -32.8887 H   0  0  0  0  0  0  0  0  0  0  0  0
   -7.9670   20.4768  -32.8887 H   0  0  0  0  0  0  0  0  0  0  0  0
   -6.1820   23.4050  -31.0270 C   0  0  0  0  0  0  0  0  0  0  0  0
   -6.8470   24.4660  -30.1910 C   0  0  0  0  0  0  0  0  0  0  0  0
   -6.7031   24.2365  -29.1249 H   0  0  0  0  0  0  0  0  0  0  0  0
   -6.4008   25.4453  -30.4187 H   0  0  0  0  0  0  0  0  0  0  0  0
   -7.9229   24.4914  -30.4187 H   0  0  0  0  0  0  0  0  0  0  0  0
   -4.7800   23.3720  -31.1140 C   0  0  0  0  0  0  0  0  0  0  0  0
   -4.1837   24.1376  -30.5961 H   0  0  0  0  0  0  0  0  0  0  0  0
   -1.5960   21.4790  -30.0010 N   0  0  0  0  0  0  0  0  0  0  0  0
   -0.8480   20.5670  -29.3280 C   0  0  0  0  0  0  0  0  0  0  0  0
   -0.5699   20.7508  -28.2797 H   0  0  0  0  0  0  0  0  0  0  0  0
   -0.4320   19.3980  -29.9640 C   0  0  0  0  0  0  0  0  0  0  0  0
    0.1719   18.6554  -29.4220 H   0  0  0  0  0  0  0  0  0  0  0  0
   -0.7890   19.1800  -31.2930 C   0  0  0  0  0  0  0  0  0  0  0  0
   -0.4575   18.2643  -31.8045 H   0  0  0  0  0  0  0  0  0  0  0  0
   -2.5070   18.6380  -33.8290 N   0  0  0  0  0  0  0  0  0  0  0  0
   -1.7540   17.7050  -34.6850 C   0  0  0  0  0  0  0  0  0  0  0  0
   -1.1881   17.0038  -34.0540 H   0  0  0  0  0  0  0  0  0  0  0  0
   -2.4547   17.1432  -35.3201 H   0  0  0  0  0  0  0  0  0  0  0  0
   -1.0569   18.2713  -35.3201 H   0  0  0  0  0  0  0  0  0  0  0  0
   -3.8420   18.2490  -33.3190 C   0  0  0  0  0  0  0  0  0  0  0  0
   -3.9941   18.7549  -32.3541 H   0  0  0  0  0  0  0  0  0  0  0  0
   -3.9000   16.7330  -33.0790 C   0  0  0  0  0  0  0  0  0  0  0  0
   -3.7464   16.2112  -34.0351 H   0  0  0  0  0  0  0  0  0  0  0  0
   -3.1122   16.4612  -32.3611 H   0  0  0  0  0  0  0  0  0  0  0  0
   -5.2640   16.3190  -32.4920 C   0  0  0  0  0  0  0  0  0  0  0  0
   -5.3910   15.2370  -32.6439 H   0  0  0  0  0  0  0  0  0  0  0  0
   -5.2497   16.6008  -31.4288 H   0  0  0  0  0  0  0  0  0  0  0  0
   -6.4270   17.0160  -33.1040 N   0  0  0  0  0  0  0  0  0  0  0  0
   -7.0990   17.9150  -32.1510 C   0  0  0  0  0  0  0  0  0  0  0  0
   -6.8645   17.6012  -31.1231 H   0  0  0  0  0  0  0  0  0  0  0  0
   -6.7479   18.9454  -32.3090 H   0  0  0  0  0  0  0  0  0  0  0  0
   -8.1867   17.8700  -32.3090 H   0  0  0  0  0  0  0  0  0  0  0  0
   -6.1190   17.6960  -34.3800 C   0  0  0  0  0  0  0  0  0  0  0  0
   -5.8120   16.9394  -35.1171 H   0  0  0  0  0  0  0  0  0  0  0  0
   -7.0259   18.2301  -34.6998 H   0  0  0  0  0  0  0  0  0  0  0  0
   -4.9900   18.7360  -34.2410 C   0  0  0  0  0  0  0  0  0  0  0  0
   -4.5767   18.9431  -35.2391 H   0  0  0  0  0  0  0  0  0  0  0  0
   -5.4227   19.6393  -33.7862 H   0  0  0  0  0  0  0  0  0  0  0  0
  1  2  1  0
  2  3  1  0
  3  4  1  0
  3  5  2  0
  5  6  1  0
  6  7  1  0
  7  8  1  0
  8  9  1  0
  9 10  2  0
 10 11  1  0
 10 12  1  0
 12 13  1  0
 12 14  2  0
 14 15  1  0
 15 16  1  0
 16 17  1  0
 16 18  1  0
 16 19  1  0
 14 20  1  0
 20 21  1  0
 21 22  1  0
 21 23  1  0
 21 24  1  0
 20 25  2  0
 25 26  1  0
  7 27  2  0
 27 28  1  0
 28 29  1  0
 28 30  2  0
 30 31  1  0
 30 32  1  0
 32 33  1  0
  5 34  1  0
 34 35  1  0
 35 36  1  0
 35 37  1  0
 35 38  1  0
 34 39  1  0
 39 40  1  0
 39 41  1  0
 41 42  1  0
 41 43  1  0
 41 44  1  0
 44 45  1  0
 44 46  1  0
 44 47  1  0
 47 48  1  0
 48 49  1  0
 48 50  1  0
 48 51  1  0
 47 52  1  0
 52 53  1  0
 52 54  1  0
 52 55  1  0
 55 56  1  0
 55 57  1  0
 32  6  2  0
 55 39  1  0
 25  9  1  0
M  CHG  1   3   1
M  END
>  <UniqueID>  (26) 
26

>  <SMILES>  (26) 
CSc1ccc(Oc2ncccc2/C(=[NH+]\O)N(C)C2CCN(C)CC2)cc1C

>  <Energy>  (26) 
77.93182922301183

>  <Genealogy>  (26) 
CSc1ccc(Oc2ncccc2C(=[NH+]O)N(C)C2CCN(C)CC2)cc1C (protonated)
CSc1ccc(Oc2ncccc2/C(=[NH+]\O)N(C)C2CCN(C)CC2)cc1C (cis-trans isomerization)
CSc1ccc(Oc2ncccc2/C(=[NH+]\O)N(C)C2CCN(C)CC2)cc1C (3D coordinates assigned)
CSc1ccc(Oc2ncccc2/C(=[NH+]\O)N(C)C2CCN(C)CC2)cc1C (nonaromatic ring conformer: 77.93182922301183 kcal/mol)

>  <smiles>  (26) 
CSc1ccc(Oc2ncccc2C(=NO)N(C)C2CCN(C)CC2)cc1C

>  <score_type>  (26) 
oracle

>  <origin>  (26) 
adgpu

>  <m_score__min__energy>  (26) 
-8.9700000000000006

>  <m_primary>  (26) 
energy

$$$$
26:0
     RDKit          3D

 48 51  0  0  0  0  0  0  0  0999 V2000
   -2.9700   18.3440  -26.2040 C   0  0  0  0  0  0  0  0  0  0  0  0
   -2.2710   19.5860  -26.6440 C   0  0  0  0  0  0  0  0  0  0  0  0
   -2.8750   20.7190  -27.1420 C   0  0  0  0  0  0  0  0  0  0  0  0
   -1.8160   21.5880  -27.3460 C   0  0  0  0  0  0  0  0  0  0  0  0
   -1.8690   22.9560  -27.9050 C   0  0  0  0  0  0  0  0  0  0  0  0
   -0.9990   23.9410  -27.4150 C   0  0  0  0  0  0  0  0  0  0  0  0
   -1.0350   25.2270  -27.9560 C   0  0  0  0  0  0  0  0  0  0  0  0
   -1.8950   25.5180  -28.9660 N   0  0  0  0  0  0  0  0  0  0  0  0
   -2.7410   24.5870  -29.4830 C   0  0  0  0  0  0  0  0  0  0  0  0
   -3.6190   24.9700  -30.5510 N   0  0  0  0  0  0  0  0  0  0  0  0
   -5.0550   24.9760  -30.5220 C   0  0  0  0  0  0  0  0  0  0  0  0
   -5.6400   26.0010  -30.0830 O   0  0  0  0  0  0  0  0  0  0  0  0
   -5.8650   23.8450  -31.0370 C   0  0  0  0  0  0  0  0  0  0  0  0
   -7.2610   23.8500  -30.8800 C   0  0  0  0  0  0  0  0  0  0  0  0
   -8.0310   22.7850  -31.3540 C   0  0  0  0  0  0  0  0  0  0  0  0
   -7.4180   21.7030  -31.9890 C   0  0  0  0  0  0  0  0  0  0  0  0
   -6.0280   21.6840  -32.1650 C   0  0  0  0  0  0  0  0  0  0  0  0
   -5.3630   20.4930  -32.8110 C   0  0  0  0  0  0  0  0  0  0  0  0
   -6.3590   19.6420  -33.5000 N   0  0  0  0  0  0  0  0  0  0  0  0
   -5.7280   18.8680  -34.5780 C   0  0  0  0  0  0  0  0  0  0  0  0
   -5.2980   17.5250  -34.0020 C   0  0  0  0  0  0  0  0  0  0  0  0
   -6.0860   17.3660  -32.7150 C   0  0  0  0  0  0  0  0  0  0  0  0
   -6.9270   18.6280  -32.5980 C   0  0  0  0  0  0  0  0  0  0  0  0
   -5.2580   22.7660  -31.7070 C   0  0  0  0  0  0  0  0  0  0  0  0
   -2.7600   23.2920  -28.9390 C   0  0  0  0  0  0  0  0  0  0  0  0
   -0.7080   20.9870  -26.9730 O   0  0  0  0  0  0  0  0  0  0  0  0
   -0.9440   19.7830  -26.5380 N   0  0  0  0  0  0  0  0  0  0  0  0
   -2.9918   18.3053  -25.1049 H   0  0  0  0  0  0  0  0  0  0  0  0
   -3.9996   18.3459  -26.5913 H   0  0  0  0  0  0  0  0  0  0  0  0
   -2.4342   17.4649  -26.5913 H   0  0  0  0  0  0  0  0  0  0  0  0
   -3.9444   20.8926  -27.3325 H   0  0  0  0  0  0  0  0  0  0  0  0
   -0.2914   23.7009  -26.6078 H   0  0  0  0  0  0  0  0  0  0  0  0
   -0.3654   26.0065  -27.5635 H   0  0  0  0  0  0  0  0  0  0  0  0
   -7.7513   24.6985  -30.3803 H   0  0  0  0  0  0  0  0  0  0  0  0
   -9.1235   22.7989  -31.2266 H   0  0  0  0  0  0  0  0  0  0  0  0
   -8.0282   20.8629  -32.3522 H   0  0  0  0  0  0  0  0  0  0  0  0
   -4.6231   20.8471  -33.5439 H   0  0  0  0  0  0  0  0  0  0  0  0
   -4.8724   19.8964  -32.0278 H   0  0  0  0  0  0  0  0  0  0  0  0
   -6.4472   18.7108  -35.3953 H   0  0  0  0  0  0  0  0  0  0  0  0
   -4.8579   19.4088  -34.9786 H   0  0  0  0  0  0  0  0  0  0  0  0
   -5.5376   16.7116  -34.7027 H   0  0  0  0  0  0  0  0  0  0  0  0
   -4.2132   17.4852  -33.8243 H   0  0  0  0  0  0  0  0  0  0  0  0
   -6.7314   16.4767  -32.7662 H   0  0  0  0  0  0  0  0  0  0  0  0
   -5.4262   17.2319  -31.8451 H   0  0  0  0  0  0  0  0  0  0  0  0
   -7.9659   18.4117  -32.8875 H   0  0  0  0  0  0  0  0  0  0  0  0
   -6.9210   18.9947  -31.5610 H   0  0  0  0  0  0  0  0  0  0  0  0
   -4.1707   22.7701  -31.8735 H   0  0  0  0  0  0  0  0  0  0  0  0
   -3.4697   22.5434  -29.3209 H   0  0  0  0  0  0  0  0  0  0  0  0
  1  2  1  0
  2  3  1  0
  3  4  2  0
  4  5  1  0
  5  6  2  0
  6  7  1  0
  7  8  2  0
  8  9  1  0
  9 10  1  0
 10 11  1  0
 11 12  2  0
 11 13  1  0
 13 14  2  0
 14 15  1  0
 15 16  2  0
 16 17  1  0
 17 18  1  0
 18 19  1  0
 19 20  1  0
 20 21  1  0
 21 22  1  0
 22 23  1  0
 17 24  2  0
  9 25  2  0
  4 26  1  0
 26 27  1  0
 27  2  2  0
 25  5  1  0
 24 13  1  0
 23 19  1  0
  1 28  1  0
  1 29  1  0
  1 30  1  0
  3 31  1  0
  6 32  1  0
  7 33  1  0
 14 34  1  0
 15 35  1  0
 16 36  1  0
 18 37  1  0
 18 38  1  0
 20 39  1  0
 20 40  1  0
 21 41  1  0
 21 42  1  0
 22 43  1  0
 22 44  1  0
 23 45  1  0
 23 46  1  0
 24 47  1  0
 25 48  1  0
M  CHG  1  10  -1
M  END
>  <UniqueID>  (27) 
27

>  <SMILES>  (27) 
Cc1cc(-c2ccnc([N-]C(=O)c3cccc(CN4CCCC4)c3)c2)on1

>  <Energy>  (27) 
86.99722809464484

>  <Genealogy>  (27) 
Cc1cc(-c2ccnc([N-]C(=O)c3cccc(CN4CCCC4)c3)c2)on1 (protonated)
Cc1cc(-c2ccnc([N-]C(=O)c3cccc(CN4CCCC4)c3)c2)on1 (3D coordinates assigned)
Cc1cc(-c2ccnc([N-]C(=O)c3cccc(CN4CCCC4)c3)c2)on1 (nonaromatic ring conformer: 86.99722809464484 kcal/mol)

>  <smiles>  (27) 
Cc1cc(-c2ccnc(NC(=O)c3cccc(CN4CCCC4)c3)c2)on1

>  <score_type>  (27) 
oracle

>  <origin>  (27) 
adgpu

>  <m_score__min__energy>  (27) 
-11.58

>  <m_primary>  (27) 
energy

$$$$
27:0
     RDKit          3D

 32 33  0  0  0  0  0  0  0  0999 V2000
   -2.2520   24.7480  -28.0860 C   0  0  0  0  0  0  0  0  0  0  0  0
   -2.6580   25.2970  -29.3290 O   0  0  0  0  0  0  0  0  0  0  0  0
   -3.5280   24.5560  -30.1150 C   0  0  0  0  0  0  0  0  0  0  0  0
   -3.0280   23.3980  -30.6760 C   0  0  0  0  0  0  0  0  0  0  0  0
   -3.8590   22.6120  -31.4770 C   0  0  0  0  0  0  0  0  0  0  0  0
   -5.1600   22.9870  -31.7060 C   0  0  0  0  0  0  0  0  0  0  0  0
   -5.9640   22.1440  -32.5330 N   0  0  0  0  0  0  0  0  0  0  0  0
   -5.8090   20.4310  -32.5560 S   0  0  0  0  0  0  0  0  0  0  0  0
   -4.8560   20.0610  -31.4410 O   0  0  0  0  0  0  0  0  0  0  0  0
   -5.2390   19.9550  -33.8580 O   0  0  0  0  0  0  0  0  0  0  0  0
   -7.3680   19.6770  -32.3140 C   0  0  0  0  0  0  0  0  0  0  0  0
   -7.6960   18.3540  -32.1600 C   0  0  0  0  0  0  0  0  0  0  0  0
   -6.7430   17.2130  -32.1660 C   0  0  0  0  0  0  0  0  0  0  0  0
   -9.0300   18.2680  -32.0020 N   0  0  0  0  0  0  0  0  0  0  0  0
   -9.5290   19.4950  -32.0550 N   0  0  0  0  0  0  0  0  0  0  0  0
   -8.5630   20.3930  -32.2430 C   0  0  0  0  0  0  0  0  0  0  0  0
   -8.6920   21.6540  -32.3410 O   0  0  0  0  0  0  0  0  0  0  0  0
   -5.6570   24.1460  -31.1440 C   0  0  0  0  0  0  0  0  0  0  0  0
   -4.8330   24.9180  -30.3550 C   0  0  0  0  0  0  0  0  0  0  0  0
   -2.6875   25.3369  -27.2653 H   0  0  0  0  0  0  0  0  0  0  0  0
   -2.5989   23.7066  -28.0143 H   0  0  0  0  0  0  0  0  0  0  0  0
   -1.1547   24.7747  -28.0143 H   0  0  0  0  0  0  0  0  0  0  0  0
   -1.9856   23.0975  -30.4939 H   0  0  0  0  0  0  0  0  0  0  0  0
   -3.4692   21.6871  -31.9271 H   0  0  0  0  0  0  0  0  0  0  0  0
   -6.6680   22.6650  -33.1350 H   0  0  0  0  0  0  0  0  0  0  0  0
   -6.5053   16.9284  -31.1304 H   0  0  0  0  0  0  0  0  0  0  0  0
   -7.1986   16.3574  -32.6860 H   0  0  0  0  0  0  0  0  0  0  0  0
   -5.8200   17.5089  -32.6860 H   0  0  0  0  0  0  0  0  0  0  0  0
   -9.6300   17.4230  -31.8590 H   0  0  0  0  0  0  0  0  0  0  0  0
  -10.5430   19.7520  -31.9630 H   0  0  0  0  0  0  0  0  0  0  0  0
   -6.6989   24.4494  -31.3242 H   0  0  0  0  0  0  0  0  0  0  0  0
   -5.2267   25.8427  -29.9078 H   0  0  0  0  0  0  0  0  0  0  0  0
  1  2  1  0
  2  3  1  0
  3  4  2  0
  4  5  1  0
  5  6  2  0
  6  7  1  0
  7  8  1  0
  8  9  2  0
  8 10  2  0
  8 11  1  0
 11 12  2  0
 12 13  1  0
 12 14  1  0
 14 15  1  0
 15 16  1  0
 16 17  2  0
  6 18  1  0
 18 19  2  0
 19  3  1  0
 16 11  1  0
  1 20  1  0
  1 21  1  0
  1 22  1  0
  4 23  1  0
  5 24  1  0
  7 25  1  0
 13 26  1  0
 13 27  1  0
 13 28  1  0
 14 29  1  0
 15 30  1  0
 18 31  1  0
 19 32  1  0
M  END
>  <smiles>  (28) 
COc1ccc(NS(=O)(=O)c2c(C)[nH][nH]c2=O)cc1

>  <score_type>  (28) 
oracle

>  <origin>  (28) 
adgpu

>  <m_score__min__energy>  (28) 
-7.2999999999999998

>  <m_primary>  (28) 
energy

$$$$
28:0
     RDKit          3D

 59 62  0  0  0  0  0  0  0  0999 V2000
   -3.5095   23.2721  -30.7384 H   0  0  0  0  0  0  0  0  0  0  0  0
   -3.3090   22.3370  -31.2820 C   0  0  0  0  0  0  0  0  0  0  0  0
   -3.6200   22.2390  -32.6430 C   0  0  0  0  0  0  0  0  0  0  0  0
   -4.0627   23.0977  -33.1690 H   0  0  0  0  0  0  0  0  0  0  0  0
   -3.3680   21.0490  -33.3350 C   0  0  0  0  0  0  0  0  0  0  0  0
   -3.6066   20.9771  -34.4064 H   0  0  0  0  0  0  0  0  0  0  0  0
   -2.8120   19.9470  -32.6670 C   0  0  0  0  0  0  0  0  0  0  0  0
   -2.4870   18.6890  -33.4270 C   0  0  0  0  0  0  0  0  0  0  0  0
   -1.5629   18.2487  -33.0243 H   0  0  0  0  0  0  0  0  0  0  0  0
   -2.3508   18.9350  -34.4905 H   0  0  0  0  0  0  0  0  0  0  0  0
   -3.5830   17.7240  -33.2930 N   0  0  0  0  0  0  0  0  0  0  0  0
   -4.9290   18.1840  -33.0960 C   0  0  0  0  0  0  0  0  0  0  0  0
   -5.6530   17.7990  -31.9570 C   0  0  0  0  0  0  0  0  0  0  0  0
   -5.1918   17.1310  -31.2147 H   0  0  0  0  0  0  0  0  0  0  0  0
   -6.9580   18.2610  -31.7620 C   0  0  0  0  0  0  0  0  0  0  0  0
   -7.5237   17.9450  -30.8731 H   0  0  0  0  0  0  0  0  0  0  0  0
   -7.5480   19.1240  -32.6930 C   0  0  0  0  0  0  0  0  0  0  0  0
   -8.8850   19.5960  -32.4620 N   0  0  0  0  0  0  0  0  0  0  0  0
   -9.1980   20.7600  -32.0330 N   0  0  0  0  0  0  0  0  0  0  0  0
   -8.2730   21.7490  -31.5520 C   0  0  0  0  0  0  0  0  0  0  0  0
   -8.2460   22.0520  -30.1860 C   0  0  0  0  0  0  0  0  0  0  0  0
   -8.9295   21.5343  -29.4970 H   0  0  0  0  0  0  0  0  0  0  0  0
   -7.3550   23.0090  -29.6930 C   0  0  0  0  0  0  0  0  0  0  0  0
   -7.3511   23.2526  -28.6203 H   0  0  0  0  0  0  0  0  0  0  0  0
   -6.4660   23.6600  -30.5600 C   0  0  0  0  0  0  0  0  0  0  0  0
   -5.3520   24.8650  -29.9250 S   0  0  0  0  0  0  0  0  0  0  0  0
   -6.1280   26.0970  -29.5530 O   0  0  0  0  0  0  0  0  0  0  0  0
   -4.3280   25.2150  -30.9690 O   0  0  0  0  0  0  0  0  0  0  0  0
   -4.5630   24.2090  -28.5230 N   0  0  0  0  0  0  0  0  0  0  0  0
   -3.2780   24.1360  -28.3160 C   0  0  0  0  0  0  0  0  0  0  0  0
   -2.3360   24.5990  -29.2580 C   0  0  0  0  0  0  0  0  0  0  0  0
   -2.6730   25.0374  -30.2089 H   0  0  0  0  0  0  0  0  0  0  0  0
   -0.9730   24.4970  -28.9750 C   0  0  0  0  0  0  0  0  0  0  0  0
   -0.2311   24.8567  -29.7032 H   0  0  0  0  0  0  0  0  0  0  0  0
   -0.5530   23.9390  -27.7690 C   0  0  0  0  0  0  0  0  0  0  0  0
    0.5193   23.8560  -27.5383 H   0  0  0  0  0  0  0  0  0  0  0  0
   -1.5070   23.4870  -26.8580 C   0  0  0  0  0  0  0  0  0  0  0  0
   -1.1866   23.0431  -25.9039 H   0  0  0  0  0  0  0  0  0  0  0  0
   -2.8330   23.5930  -27.1450 N   0  0  0  0  0  0  0  0  0  0  0  0
   -3.5230   23.2460  -26.4400 H   0  0  0  0  0  0  0  0  0  0  0  0
   -6.4580   23.3250  -31.9200 C   0  0  0  0  0  0  0  0  0  0  0  0
   -5.7493   23.8179  -32.6018 H   0  0  0  0  0  0  0  0  0  0  0  0
   -7.3480   22.3660  -32.4140 C   0  0  0  0  0  0  0  0  0  0  0  0
   -7.3247   22.0934  -33.4794 H   0  0  0  0  0  0  0  0  0  0  0  0
   -6.8460   19.4620  -33.8620 C   0  0  0  0  0  0  0  0  0  0  0  0
   -7.3263   20.0886  -34.6280 H   0  0  0  0  0  0  0  0  0  0  0  0
   -5.5400   19.0050  -34.0550 C   0  0  0  0  0  0  0  0  0  0  0  0
   -4.9885   19.2903  -34.9630 H   0  0  0  0  0  0  0  0  0  0  0  0
   -3.2350   16.0200  -33.2420 S   0  0  0  0  0  0  0  0  0  0  0  0
   -1.8430   15.7990  -32.7190 O   0  0  0  0  0  0  0  0  0  0  0  0
   -4.2220   15.3300  -32.3440 O   0  0  0  0  0  0  0  0  0  0  0  0
   -3.3280   15.3180  -34.8790 C   0  0  0  0  0  0  0  0  0  0  0  0
   -3.4721   14.2301  -34.8038 H   0  0  0  0  0  0  0  0  0  0  0  0
   -4.1750   15.7634  -35.4214 H   0  0  0  0  0  0  0  0  0  0  0  0
   -2.3942   15.5275  -35.4214 H   0  0  0  0  0  0  0  0  0  0  0  0
   -2.4900   20.0570  -31.3020 C   0  0  0  0  0  0  0  0  0  0  0  0
   -2.0373   19.2043  -30.7749 H   0  0  0  0  0  0  0  0  0  0  0  0
   -2.7440   21.2480  -30.6130 C   0  0  0  0  0  0  0  0  0  0  0  0
   -2.4987   21.3272  -29.5436 H   0  0  0  0  0  0  0  0  0  0  0  0
  1  2  1  0
  2  3  2  0
  3  4  1  0
  3  5  1  0
  5  6  1  0
  5  7  2  0
  7  8  1  0
  8  9  1  0
  8 10  1  0
  8 11  1  0
 11 12  1  0
 12 13  2  0
 13 14  1  0
 13 15  1  0
 15 16  1  0
 15 17  2  0
 17 18  1  0
 18 19  2  0
 19 20  1  0
 20 21  2  0
 21 22  1  0
 21 23  1  0
 23 24  1  0
 23 25  2  0
 25 26  1  0
 26 27  2  0
 26 28  2  0
 26 29  1  0
 29 30  2  3
 30 31  1  0
 31 32  1  0
 31 33  2  0
 33 34  1  0
 33 35  1  0
 35 36  1  0
 35 37  2  0
 37 38  1  0
 37 39  1  0
 39 40  1  0
 25 41  1  0
 41 42  1  0
 41 43  2  0
 43 44  1  0
 17 45  1  0
 45 46  1  0
 45 47  2  0
 47 48  1  0
 11 49  1  0
 49 50  2  0
 49 51  2  0
 49 52  1  0
 52 53  1  0
 52 54  1  0
 52 55  1  0
  7 56  1  0
 56 57  1  0
 56 58  2  0
 58 59  1  0
 58  2  1  0
 47 12  1  0
 43 20  1  0
 39 30  1  0
M  END
>  <UniqueID>  (29) 
28

>  <SMILES>  (29) 
CS(=O)(=O)N(Cc1ccccc1)c1ccc(/N=N\c2ccc(S(=O)(=O)N=c3cccc[nH]3)cc2)cc1

>  <Energy>  (29) 
81.81857377411077

>  <Genealogy>  (29) 
CS(=O)(=O)N(Cc1ccccc1)c1ccc(/N=N\c2ccc(S(=O)(=O)N=c3cccc[nH]3)cc2)cc1 (cis-trans isomerization)
CS(=O)(=O)N(Cc1ccccc1)c1ccc(/N=N\c2ccc(S(=O)(=O)N=c3cccc[nH]3)cc2)cc1 (3D coordinates assigned)
CS(=O)(=O)N(Cc1ccccc1)c1ccc(/N=N\c2ccc(S(=O)(=O)N=c3cccc[nH]3)cc2)cc1 (optimized conformer: 81.81857377411077 kcal/mol)

>  <smiles>  (29) 
CS(=O)(=O)N(Cc1ccccc1)c1ccc(N=Nc2ccc(S(=O)(=O)N=c3cccc[nH]3)cc2)cc1

>  <score_type>  (29) 
oracle

>  <origin>  (29) 
adgpu

>  <m_score__min__energy>  (29) 
-11.449999999999999

>  <m_primary>  (29) 
energy

$$$$
29:0
     RDKit          3D

 54 56  0  0  0  0  0  0  0  0999 V2000
   -0.8666   27.7790  -26.8976 H   0  0  0  0  0  0  0  0  0  0  0  0
   -0.9020   26.6850  -26.7880 C   0  0  0  0  0  0  0  0  0  0  0  0
   -0.8910   25.8690  -27.9230 C   0  0  0  0  0  0  0  0  0  0  0  0
   -0.8658   26.3234  -28.9244 H   0  0  0  0  0  0  0  0  0  0  0  0
   -0.9120   24.4680  -27.7890 C   0  0  0  0  0  0  0  0  0  0  0  0
   -0.9250   23.6000  -28.9330 N   0  0  0  0  0  0  0  0  0  0  0  0
   -1.9350   23.3810  -29.7240 C   0  0  0  0  0  0  0  0  0  0  0  0
   -1.7960   22.4950  -30.7430 N   0  0  0  0  0  0  0  0  0  0  0  0
   -2.8180   22.2730  -31.6120 C   0  0  0  0  0  0  0  0  0  0  0  0
   -2.6710   21.3250  -32.6910 N   0  0  0  0  0  0  0  0  0  0  0  0
   -1.3260   21.0310  -33.2050 C   0  0  0  0  0  0  0  0  0  0  0  0
   -0.8766   21.9591  -33.5880 H   0  0  0  0  0  0  0  0  0  0  0  0
   -0.7200   20.6189  -32.3847 H   0  0  0  0  0  0  0  0  0  0  0  0
   -1.3830   19.9990  -34.3350 C   0  0  0  0  0  0  0  0  0  0  0  0
   -1.7647   20.4800  -35.2477 H   0  0  0  0  0  0  0  0  0  0  0  0
   -0.3715   19.6053  -34.5135 H   0  0  0  0  0  0  0  0  0  0  0  0
   -2.2690   18.8920  -33.9640 N   0  0  0  0  0  0  0  0  0  0  0  0
   -1.9260   18.4790  -33.0630 H   0  0  0  0  0  0  0  0  0  0  0  0
   -3.6700   19.3200  -33.7880 C   0  0  0  0  0  0  0  0  0  0  0  0
   -4.2043   19.1419  -34.7329 H   0  0  0  0  0  0  0  0  0  0  0  0
   -4.0714   18.7342  -32.9479 H   0  0  0  0  0  0  0  0  0  0  0  0
   -3.8460   20.8070  -33.4080 C   0  0  0  0  0  0  0  0  0  0  0  0
   -3.9920   21.3952  -34.3260 H   0  0  0  0  0  0  0  0  0  0  0  0
   -4.7191   20.8916  -32.7443 H   0  0  0  0  0  0  0  0  0  0  0  0
   -3.9810   22.9570  -31.4580 N   0  0  0  0  0  0  0  0  0  0  0  0
   -4.1350   23.8510  -30.4460 C   0  0  0  0  0  0  0  0  0  0  0  0
   -5.3670   24.5860  -30.3060 N   0  0  0  0  0  0  0  0  0  0  0  0
   -5.3550   26.0430  -30.4730 C   0  0  0  0  0  0  0  0  0  0  0  0
   -5.3510   26.5254  -29.4844 H   0  0  0  0  0  0  0  0  0  0  0  0
   -4.4544   26.3408  -31.0299 H   0  0  0  0  0  0  0  0  0  0  0  0
   -6.2506   26.3556  -31.0299 H   0  0  0  0  0  0  0  0  0  0  0  0
   -6.6150   23.8960  -29.9450 C   0  0  0  0  0  0  0  0  0  0  0  0
   -6.7408   23.9323  -28.8528 H   0  0  0  0  0  0  0  0  0  0  0  0
   -7.4494   24.4031  -30.4516 H   0  0  0  0  0  0  0  0  0  0  0  0
   -6.5960   22.4220  -30.3990 C   0  0  0  0  0  0  0  0  0  0  0  0
   -5.6931   21.9435  -29.9918 H   0  0  0  0  0  0  0  0  0  0  0  0
   -7.5191   21.9553  -30.0248 H   0  0  0  0  0  0  0  0  0  0  0  0
   -6.5900   22.2590  -31.8740 N   0  0  0  0  0  0  0  0  0  0  0  0
   -5.6040   22.2210  -32.2240 H   0  0  0  0  0  0  0  0  0  0  0  0
   -7.2340   20.9830  -32.2350 C   0  0  0  0  0  0  0  0  0  0  0  0
   -7.5086   20.4389  -31.3193 H   0  0  0  0  0  0  0  0  0  0  0  0
   -8.1388   21.1837  -32.8275 H   0  0  0  0  0  0  0  0  0  0  0  0
   -6.5352   20.3743  -32.8275 H   0  0  0  0  0  0  0  0  0  0  0  0
   -7.2890   23.3700  -32.5490 C   0  0  0  0  0  0  0  0  0  0  0  0
   -7.7152   24.0474  -31.7944 H   0  0  0  0  0  0  0  0  0  0  0  0
   -6.5762   23.9236  -33.1778 H   0  0  0  0  0  0  0  0  0  0  0  0
   -8.0966   22.9670  -33.1778 H   0  0  0  0  0  0  0  0  0  0  0  0
   -3.1050   24.0600  -29.5830 N   0  0  0  0  0  0  0  0  0  0  0  0
   -1.0020   23.9040  -26.5100 C   0  0  0  0  0  0  0  0  0  0  0  0
   -1.0628   22.8115  -26.3973 H   0  0  0  0  0  0  0  0  0  0  0  0
   -1.0150   24.7220  -25.3750 C   0  0  0  0  0  0  0  0  0  0  0  0
   -1.0701   24.2710  -24.3732 H   0  0  0  0  0  0  0  0  0  0  0  0
   -0.9580   26.1120  -25.5130 C   0  0  0  0  0  0  0  0  0  0  0  0
   -0.9750   27.1380  -24.0890 Cl  0  0  0  0  0  0  0  0  0  0  0  0
  1  2  1  0
  2  3  2  0
  3  4  1  0
  3  5  1  0
  5  6  1  0
  6  7  2  0
  7  8  1  0
  8  9  2  0
  9 10  1  0
 10 11  1  0
 11 12  1  0
 11 13  1  0
 11 14  1  0
 14 15  1  0
 14 16  1  0
 14 17  1  0
 17 18  1  0
 17 19  1  0
 19 20  1  0
 19 21  1  0
 19 22  1  0
 22 23  1  0
 22 24  1  0
  9 25  1  0
 25 26  1  0
 26 27  1  0
 27 28  1  0
 28 29  1  0
 28 30  1  0
 28 31  1  0
 27 32  1  0
 32 33  1  0
 32 34  1  0
 32 35  1  0
 35 36  1  0
 35 37  1  0
 35 38  1  0
 38 39  1  0
 38 40  1  0
 40 41  1  0
 40 42  1  0
 40 43  1  0
 38 44  1  0
 44 45  1  0
 44 46  1  0
 44 47  1  0
 26 48  2  0
  5 49  2  0
 49 50  1  0
 49 51  1  0
 51 52  1  0
 51 53  2  0
 53 54  1  0
 53  2  1  0
 48  7  1  0
 22 10  1  0
M  CHG  2  25  -1  38   1
M  END
>  <UniqueID>  (30) 
29

>  <SMILES>  (30) 
CN(CC[NH+](C)C)c1n/c(=N\c2ccc(Cl)cc2)nc(N2CCNCC2)[n-]1

>  <Energy>  (30) 
61.77976852854904

>  <Genealogy>  (30) 
CN(CC[NH+](C)C)c1nc(=Nc2ccc(Cl)cc2)nc(N2CCNCC2)[n-]1 (protonated)
CN(CC[NH+](C)C)c1n/c(=N\c2ccc(Cl)cc2)nc(N2CCNCC2)[n-]1 (cis-trans isomerization)
CN(CC[NH+](C)C)c1n/c(=N\c2ccc(Cl)cc2)nc(N2CCNCC2)[n-]1 (3D coordinates assigned)
CN(CC[NH+](C)C)c1n/c(=N\c2ccc(Cl)cc2)nc(N2CCNCC2)[n-]1 (nonaromatic ring conformer: 61.77976852854904 kcal/mol)

>  <smiles>  (30) 
CN(C)CCN(C)c1nc(=Nc2ccc(Cl)cc2)nc(N2CCNCC2)[nH]1

>  <score_type>  (30) 
oracle

>  <origin>  (30) 
adgpu

>  <m_score__min__energy>  (30) 
-6.7199999999999998

>  <m_primary>  (30) 
energy

$$$$
30:0
     RDKit          3D

 26 27  0  0  0  0  0  0  0  0999 V2000
   -8.3989   23.7252  -31.5463 H   0  0  0  0  0  0  0  0  0  0  0  0
   -7.7720   22.8240  -31.6160 C   0  0  0  0  0  0  0  0  0  0  0  0
   -8.3580   21.6960  -32.0490 C   0  0  0  0  0  0  0  0  0  0  0  0
   -9.4504   21.7109  -32.1772 H   0  0  0  0  0  0  0  0  0  0  0  0
   -7.6520   20.4330  -32.3680 C   0  0  0  0  0  0  0  0  0  0  0  0
   -6.6250   20.4020  -33.3300 C   0  0  0  0  0  0  0  0  0  0  0  0
   -6.3252   21.3291  -33.8405 H   0  0  0  0  0  0  0  0  0  0  0  0
   -5.9840   19.1990  -33.6400 C   0  0  0  0  0  0  0  0  0  0  0  0
   -4.9630   19.1790  -34.5810 O   0  0  0  0  0  0  0  0  0  0  0  0
   -6.3740   18.0160  -33.0080 C   0  0  0  0  0  0  0  0  0  0  0  0
   -5.8639   17.0713  -33.2476 H   0  0  0  0  0  0  0  0  0  0  0  0
   -7.4110   18.0310  -32.0720 C   0  0  0  0  0  0  0  0  0  0  0  0
   -7.7215   17.0961  -31.5827 H   0  0  0  0  0  0  0  0  0  0  0  0
   -8.0560   19.2320  -31.7550 C   0  0  0  0  0  0  0  0  0  0  0  0
   -9.0870   19.2260  -30.8220 O   0  0  0  0  0  0  0  0  0  0  0  0
   -6.3500   22.9520  -31.2250 C   0  0  0  0  0  0  0  0  0  0  0  0
   -5.5880   21.8330  -30.8380 C   0  0  0  0  0  0  0  0  0  0  0  0
   -6.0442   20.8320  -30.8410 H   0  0  0  0  0  0  0  0  0  0  0  0
   -4.2540   21.9890  -30.4500 C   0  0  0  0  0  0  0  0  0  0  0  0
   -3.5040   20.8780  -30.0820 O   0  0  0  0  0  0  0  0  0  0  0  0
   -3.6760   23.2610  -30.4240 C   0  0  0  0  0  0  0  0  0  0  0  0
   -2.6241   23.3809  -30.1256 H   0  0  0  0  0  0  0  0  0  0  0  0
   -4.4340   24.3810  -30.7770 C   0  0  0  0  0  0  0  0  0  0  0  0
   -3.8630   25.6470  -30.7400 O   0  0  0  0  0  0  0  0  0  0  0  0
   -5.7700   24.2290  -31.1670 C   0  0  0  0  0  0  0  0  0  0  0  0
   -6.3679   25.1143  -31.4292 H   0  0  0  0  0  0  0  0  0  0  0  0
  1  2  1  0
  2  3  2  0
  3  4  1  0
  3  5  1  0
  5  6  2  0
  6  7  1  0
  6  8  1  0
  8  9  1  0
  8 10  2  0
 10 11  1  0
 10 12  1  0
 12 13  1  0
 12 14  2  0
 14 15  1  0
  2 16  1  0
 16 17  2  0
 17 18  1  0
 17 19  1  0
 19 20  1  0
 19 21  2  0
 21 22  1  0
 21 23  1  0
 23 24  1  0
 23 25  2  0
 25 26  1  0
 14  5  1  0
 25 16  1  0
M  CHG  4   9  -1  15  -1  20  -1  24  -1
M  END
>  <UniqueID>  (31) 
30

>  <SMILES>  (31) 
[O-]c1cc([O-])cc(/C=C\c2cc([O-])ccc2[O-])c1

>  <Energy>  (31) 
37.341346142027625

>  <Genealogy>  (31) 
[O-]c1cc([O-])cc(C=Cc2cc([O-])ccc2[O-])c1 (protonated)
[O-]c1cc([O-])cc(/C=C\c2cc([O-])ccc2[O-])c1 (cis-trans isomerization)
[O-]c1cc([O-])cc(/C=C\c2cc([O-])ccc2[O-])c1 (3D coordinates assigned)
[O-]c1cc([O-])cc(/C=C\c2cc([O-])ccc2[O-])c1 (optimized conformer: 37.341346142027625 kcal/mol)

>  <smiles>  (31) 
Oc1cc(O)cc(C=Cc2cc(O)ccc2O)c1

>  <score_type>  (31) 
oracle

>  <origin>  (31) 
adgpu

>  <m_score__min__energy>  (31) 
-9.1799999999999997

>  <m_primary>  (31) 
energy

$$$$
31:0
     RDKit          3D

 31 33  0  0  0  0  0  0  0  0999 V2000
   -6.6750   23.6060  -32.4270 O   0  0  0  0  0  0  0  0  0  0  0  0
   -5.9360   22.9570  -31.6380 C   0  0  0  0  0  0  0  0  0  0  0  0
   -6.0890   21.5330  -31.5120 N   0  0  0  0  0  0  0  0  0  0  0  0
   -7.2570   20.8110  -31.9400 C   0  0  0  0  0  0  0  0  0  0  0  0
   -8.5340   21.3970  -31.9270 C   0  0  0  0  0  0  0  0  0  0  0  0
   -9.6470   20.6540  -32.3260 C   0  0  0  0  0  0  0  0  0  0  0  0
   -9.4780   19.3270  -32.7230 C   0  0  0  0  0  0  0  0  0  0  0  0
   -8.2410   18.7650  -32.7080 N   0  0  0  0  0  0  0  0  0  0  0  0
   -7.1420   19.4670  -32.3240 C   0  0  0  0  0  0  0  0  0  0  0  0
   -4.8940   23.6750  -30.8840 C   0  0  0  0  0  0  0  0  0  0  0  0
   -4.1130   23.1700  -29.8650 C   0  0  0  0  0  0  0  0  0  0  0  0
   -3.3090   24.2340  -29.4980 C   0  0  0  0  0  0  0  0  0  0  0  0
   -2.2480   24.2440  -28.4630 C   0  0  0  0  0  0  0  0  0  0  0  0
   -2.1980   23.1940  -27.5270 C   0  0  0  0  0  0  0  0  0  0  0  0
   -1.2200   23.1720  -26.5290 C   0  0  0  0  0  0  0  0  0  0  0  0
   -0.2730   24.1940  -26.4580 C   0  0  0  0  0  0  0  0  0  0  0  0
   -0.2970   25.2350  -27.3870 C   0  0  0  0  0  0  0  0  0  0  0  0
   -1.2700   25.2640  -28.3920 C   0  0  0  0  0  0  0  0  0  0  0  0
   -1.2340   26.2930  -29.3260 O   0  0  0  0  0  0  0  0  0  0  0  0
   -3.6010   25.2990  -30.2720 N   0  0  0  0  0  0  0  0  0  0  0  0
   -4.5680   24.9610  -31.1100 N   0  0  0  0  0  0  0  0  0  0  0  0
   -5.2690   20.9760  -31.1810 H   0  0  0  0  0  0  0  0  0  0  0  0
   -8.6570   22.4409  -31.6026 H   0  0  0  0  0  0  0  0  0  0  0  0
  -10.6478   21.1106  -32.3273 H   0  0  0  0  0  0  0  0  0  0  0  0
  -10.3466   18.7356  -33.0483 H   0  0  0  0  0  0  0  0  0  0  0  0
   -6.1567   18.9780  -32.3144 H   0  0  0  0  0  0  0  0  0  0  0  0
   -4.1266   22.1548  -29.4418 H   0  0  0  0  0  0  0  0  0  0  0  0
   -2.9373   22.3813  -27.5817 H   0  0  0  0  0  0  0  0  0  0  0  0
   -1.1969   22.3490  -25.7995 H   0  0  0  0  0  0  0  0  0  0  0  0
    0.4933   24.1792  -25.6690 H   0  0  0  0  0  0  0  0  0  0  0  0
    0.4533   26.0373  -27.3288 H   0  0  0  0  0  0  0  0  0  0  0  0
  1  2  2  0
  2  3  1  0
  3  4  1  0
  4  5  2  0
  5  6  1  0
  6  7  2  0
  7  8  1  0
  8  9  2  0
  2 10  1  0
 10 11  1  0
 11 12  2  0
 12 13  1  0
 13 14  2  0
 14 15  1  0
 15 16  2  0
 16 17  1  0
 17 18  2  0
 18 19  1  0
 12 20  1  0
 20 21  1  0
  9  4  1  0
 21 10  2  0
 18 13  1  0
  3 22  1  0
  5 23  1  0
  6 24  1  0
  7 25  1  0
  9 26  1  0
 11 27  1  0
 14 28  1  0
 15 29  1  0
 16 30  1  0
 17 31  1  0
M  CHG  2  19  -1  20  -1
M  END
>  <UniqueID>  (32) 
31

>  <SMILES>  (32) 
O=C(Nc1cccnc1)c1cc(-c2ccccc2[O-])[n-]n1

>  <Energy>  (32) 
71.2942045441581

>  <Genealogy>  (32) 
O=C(Nc1cccnc1)c1cc(-c2ccccc2[O-])[n-]n1 (protonated)
O=C(Nc1cccnc1)c1cc(-c2ccccc2[O-])[n-]n1 (3D coordinates assigned)
O=C(Nc1cccnc1)c1cc(-c2ccccc2[O-])[n-]n1 (optimized conformer: 71.2942045441581 kcal/mol)

>  <smiles>  (32) 
O=C(Nc1cccnc1)c1cc(-c2ccccc2O)[nH]n1

>  <score_type>  (32) 
oracle

>  <origin>  (32) 
adgpu

>  <m_score__min__energy>  (32) 
-13.1

>  <m_primary>  (32) 
energy

$$$$
32:0
     RDKit          3D

 63 66  0  0  0  0  0  0  0  0999 V2000
   -1.6080   25.6740  -30.0680 H   0  0  0  0  0  0  0  0  0  0  0  0
   -2.2410   25.2770  -29.3390 N   0  0  0  0  0  0  0  0  0  0  0  0
   -1.2300   24.5240  -28.1610 S   0  0  0  0  0  0  0  0  0  0  0  0
    0.2010   24.6050  -28.6110 O   0  0  0  0  0  0  0  0  0  0  0  0
   -1.3710   25.2310  -26.8420 O   0  0  0  0  0  0  0  0  0  0  0  0
   -1.7280   22.8450  -27.9860 C   0  0  0  0  0  0  0  0  0  0  0  0
   -3.0850   22.4990  -27.9500 C   0  0  0  0  0  0  0  0  0  0  0  0
   -3.8541   23.2787  -28.0524 H   0  0  0  0  0  0  0  0  0  0  0  0
   -3.4620   21.1630  -27.7840 C   0  0  0  0  0  0  0  0  0  0  0  0
   -4.5276   20.8900  -27.7746 H   0  0  0  0  0  0  0  0  0  0  0  0
   -2.4870   20.1740  -27.6300 C   0  0  0  0  0  0  0  0  0  0  0  0
   -2.7900   19.1239  -27.5054 H   0  0  0  0  0  0  0  0  0  0  0  0
   -1.1270   20.5090  -27.6330 C   0  0  0  0  0  0  0  0  0  0  0  0
   -0.1590   19.4550  -27.4880 N   0  0  0  0  0  0  0  0  0  0  0  0
    0.2100   18.5880  -28.3870 C   0  0  0  0  0  0  0  0  0  0  0  0
    1.1090   17.6280  -28.0470 N   0  0  0  0  0  0  0  0  0  0  0  0
    1.5310   16.7030  -28.9490 C   0  0  0  0  0  0  0  0  0  0  0  0
    2.5210   15.6600  -28.5370 C   0  0  0  0  0  0  0  0  0  0  0  0
    2.5670   15.6115  -27.4390 H   0  0  0  0  0  0  0  0  0  0  0  0
    2.2106   14.6824  -28.9345 H   0  0  0  0  0  0  0  0  0  0  0  0
    3.5134   15.9191  -28.9345 H   0  0  0  0  0  0  0  0  0  0  0  0
    1.0480   16.7450  -30.2590 C   0  0  0  0  0  0  0  0  0  0  0  0
    1.3784   16.0047  -31.0026 H   0  0  0  0  0  0  0  0  0  0  0  0
    0.1350   17.7480  -30.6070 C   0  0  0  0  0  0  0  0  0  0  0  0
   -0.4230   17.8160  -31.9360 N   0  0  0  0  0  0  0  0  0  0  0  0
   -1.2710   18.9370  -32.3050 C   0  0  0  0  0  0  0  0  0  0  0  0
   -0.7860   20.2560  -32.2060 C   0  0  0  0  0  0  0  0  0  0  0  0
    0.2445   20.4315  -31.8636 H   0  0  0  0  0  0  0  0  0  0  0  0
   -1.5970   21.3430  -32.5370 C   0  0  0  0  0  0  0  0  0  0  0  0
   -1.1975   22.3656  -32.4692 H   0  0  0  0  0  0  0  0  0  0  0  0
   -2.9110   21.1370  -32.9530 C   0  0  0  0  0  0  0  0  0  0  0  0
   -3.5445   21.9986  -33.2106 H   0  0  0  0  0  0  0  0  0  0  0  0
   -3.4300   19.8380  -33.0450 C   0  0  0  0  0  0  0  0  0  0  0  0
   -4.7990   19.6300  -33.4490 N   0  0  0  0  0  0  0  0  0  0  0  0
   -5.1540   18.5500  -34.3740 C   0  0  0  0  0  0  0  0  0  0  0  0
   -5.4502   18.9835  -35.3406 H   0  0  0  0  0  0  0  0  0  0  0  0
   -4.2821   17.8923  -34.5057 H   0  0  0  0  0  0  0  0  0  0  0  0
   -6.3230   17.7220  -33.8100 C   0  0  0  0  0  0  0  0  0  0  0  0
   -6.8444   17.2431  -34.6519 H   0  0  0  0  0  0  0  0  0  0  0  0
   -5.8865   16.9945  -33.1099 H   0  0  0  0  0  0  0  0  0  0  0  0
   -7.3150   18.5160  -33.0380 N   0  0  0  0  0  0  0  0  0  0  0  0
   -7.2530   18.2170  -31.5970 C   0  0  0  0  0  0  0  0  0  0  0  0
   -7.4436   19.1360  -31.0233 H   0  0  0  0  0  0  0  0  0  0  0  0
   -8.0140   17.4635  -31.3458 H   0  0  0  0  0  0  0  0  0  0  0  0
   -6.2551   17.8282  -31.3458 H   0  0  0  0  0  0  0  0  0  0  0  0
   -7.2460   19.9710  -33.3000 C   0  0  0  0  0  0  0  0  0  0  0  0
   -7.4833   20.1529  -34.3586 H   0  0  0  0  0  0  0  0  0  0  0  0
   -7.9696   20.4701  -32.6387 H   0  0  0  0  0  0  0  0  0  0  0  0
   -5.8520   20.5450  -32.9980 C   0  0  0  0  0  0  0  0  0  0  0  0
   -5.7390   21.5079  -33.5177 H   0  0  0  0  0  0  0  0  0  0  0  0
   -5.7566   20.6810  -31.9106 H   0  0  0  0  0  0  0  0  0  0  0  0
   -2.6020   18.7440  -32.7370 C   0  0  0  0  0  0  0  0  0  0  0  0
   -2.9969   17.7219  -32.8340 H   0  0  0  0  0  0  0  0  0  0  0  0
   -0.0280   16.7910  -32.9170 C   0  0  0  0  0  0  0  0  0  0  0  0
    0.9536   16.3813  -32.6366 H   0  0  0  0  0  0  0  0  0  0  0  0
    0.0240   17.2545  -33.9132 H   0  0  0  0  0  0  0  0  0  0  0  0
   -1.0520   15.6600  -32.9530 C   0  0  0  0  0  0  0  0  0  0  0  0
   -1.3144   15.3701  -31.9248 H   0  0  0  0  0  0  0  0  0  0  0  0
   -1.9556   16.0001  -33.4800 H   0  0  0  0  0  0  0  0  0  0  0  0
   -0.6240   14.7945  -33.4800 H   0  0  0  0  0  0  0  0  0  0  0  0
   -0.2600   18.6440  -29.6640 N   0  0  0  0  0  0  0  0  0  0  0  0
   -0.7520   21.8510  -27.8490 C   0  0  0  0  0  0  0  0  0  0  0  0
    0.3133   22.1182  -27.9102 H   0  0  0  0  0  0  0  0  0  0  0  0
  1  2  1  0
  2  3  1  0
  3  4  2  0
  3  5  2  0
  3  6  1  0
  6  7  2  0
  7  8  1  0
  7  9  1  0
  9 10  1  0
  9 11  2  0
 11 12  1  0
 11 13  1  0
 13 14  1  0
 14 15  2  0
 15 16  1  0
 16 17  2  0
 17 18  1  0
 18 19  1  0
 18 20  1  0
 18 21  1  0
 17 22  1  0
 22 23  1  0
 22 24  2  0
 24 25  1  0
 25 26  1  0
 26 27  2  0
 27 28  1  0
 27 29  1  0
 29 30  1  0
 29 31  2  0
 31 32  1  0
 31 33  1  0
 33 34  1  0
 34 35  1  0
 35 36  1  0
 35 37  1  0
 35 38  1  0
 38 39  1  0
 38 40  1  0
 38 41  1  0
 41 42  1  0
 42 43  1  0
 42 44  1  0
 42 45  1  0
 41 46  1  0
 46 47  1  0
 46 48  1  0
 46 49  1  0
 49 50  1  0
 49 51  1  0
 33 52  2  0
 52 53  1  0
 25 54  1  0
 54 55  1  0
 54 56  1  0
 54 57  1  0
 57 58  1  0
 57 59  1  0
 57 60  1  0
 24 61  1  0
 13 62  2  0
 62 63  1  0
 62  6  1  0
 61 15  1  0
 52 26  1  0
 49 34  1  0
M  CHG  2   2  -1  61  -1
M  END
>  <UniqueID>  (33) 
32

>  <SMILES>  (33) 
CCN(c1cccc(N2CCN(C)CC2)c1)c1cc(C)n/c(=N/c2cccc(S([NH-])(=O)=O)c2)[n-]1

>  <Energy>  (33) 
84.85225512917873

>  <Genealogy>  (33) 
CCN(c1cccc(N2CCN(C)CC2)c1)c1cc(C)nc(=Nc2cccc(S([NH-])(=O)=O)c2)[n-]1 (protonated)
CCN(c1cccc(N2CCN(C)CC2)c1)c1cc(C)n/c(=N/c2cccc(S([NH-])(=O)=O)c2)[n-]1 (cis-trans isomerization)
CCN(c1cccc(N2CCN(C)CC2)c1)c1cc(C)n/c(=N/c2cccc(S([NH-])(=O)=O)c2)[n-]1 (3D coordinates assigned)
CCN(c1cccc(N2CCN(C)CC2)c1)c1cc(C)n/c(=N/c2cccc(S([NH-])(=O)=O)c2)[n-]1 (nonaromatic ring conformer: 84.85225512917873 kcal/mol)

>  <smiles>  (33) 
CCN(c1cccc(N2CCN(C)CC2)c1)c1cc(C)nc(=Nc2cccc(S(N)(=O)=O)c2)[nH]1

>  <score_type>  (33) 
oracle

>  <origin>  (33) 
adgpu

>  <m_score__min__energy>  (33) 
-12.1

>  <m_primary>  (33) 
energy

$$$$
33:0
     RDKit          3D

 36 38  0  0  0  0  0  0  0  0999 V2000
   -0.0780   23.1680  -25.9960 C   0  0  0  0  0  0  0  0  0  0  0  0
    0.0020   23.8380  -27.3320 C   0  0  0  0  0  0  0  0  0  0  0  0
    1.0770   24.4050  -27.6610 O   0  0  0  0  0  0  0  0  0  0  0  0
   -1.1390   23.8350  -28.2740 C   0  0  0  0  0  0  0  0  0  0  0  0
   -1.6420   24.9340  -28.9560 C   0  0  0  0  0  0  0  0  0  0  0  0
   -1.1720   26.2440  -28.9230 O   0  0  0  0  0  0  0  0  0  0  0  0
   -2.7350   24.5030  -29.6680 C   0  0  0  0  0  0  0  0  0  0  0  0
   -3.5140   25.3030  -30.4960 O   0  0  0  0  0  0  0  0  0  0  0  0
   -2.9430   23.1870  -29.4660 N   0  0  0  0  0  0  0  0  0  0  0  0
   -3.9780   22.3940  -30.0750 C   0  0  0  0  0  0  0  0  0  0  0  0
   -5.3210   22.8010  -30.0100 C   0  0  0  0  0  0  0  0  0  0  0  0
   -6.3220   22.0300  -30.6100 C   0  0  0  0  0  0  0  0  0  0  0  0
   -5.9900   20.8470  -31.2750 C   0  0  0  0  0  0  0  0  0  0  0  0
   -4.6580   20.4310  -31.3380 C   0  0  0  0  0  0  0  0  0  0  0  0
   -3.6540   21.1990  -30.7390 C   0  0  0  0  0  0  0  0  0  0  0  0
   -1.9690   22.7650  -28.6190 C   0  0  0  0  0  0  0  0  0  0  0  0
   -1.8340   21.3710  -28.1460 C   0  0  0  0  0  0  0  0  0  0  0  0
   -2.8550   20.7980  -27.3730 C   0  0  0  0  0  0  0  0  0  0  0  0
   -2.7480   19.4750  -26.9340 C   0  0  0  0  0  0  0  0  0  0  0  0
   -1.6240   18.7170  -27.2650 C   0  0  0  0  0  0  0  0  0  0  0  0
   -0.6060   19.2760  -28.0430 C   0  0  0  0  0  0  0  0  0  0  0  0
   -0.7090   20.5970  -28.4900 C   0  0  0  0  0  0  0  0  0  0  0  0
    0.3020   21.1300  -29.2840 O   0  0  0  0  0  0  0  0  0  0  0  0
    0.0122   23.9231  -25.2012 H   0  0  0  0  0  0  0  0  0  0  0  0
   -1.0443   22.6508  -25.9025 H   0  0  0  0  0  0  0  0  0  0  0  0
    0.7393   22.4378  -25.9025 H   0  0  0  0  0  0  0  0  0  0  0  0
   -1.2490   26.8600  -29.7220 H   0  0  0  0  0  0  0  0  0  0  0  0
   -5.5866   23.7303  -29.4848 H   0  0  0  0  0  0  0  0  0  0  0  0
   -7.3715   22.3554  -30.5582 H   0  0  0  0  0  0  0  0  0  0  0  0
   -6.7777   20.2430  -31.7491 H   0  0  0  0  0  0  0  0  0  0  0  0
   -4.3982   19.4980  -31.8595 H   0  0  0  0  0  0  0  0  0  0  0  0
   -2.6067   20.8660  -30.7880 H   0  0  0  0  0  0  0  0  0  0  0  0
   -3.7431   21.3920  -27.1113 H   0  0  0  0  0  0  0  0  0  0  0  0
   -3.5507   19.0310  -26.3270 H   0  0  0  0  0  0  0  0  0  0  0  0
   -1.5390   17.6782  -26.9132 H   0  0  0  0  0  0  0  0  0  0  0  0
    0.2779   18.6755  -28.3041 H   0  0  0  0  0  0  0  0  0  0  0  0
  1  2  1  0
  2  3  2  0
  2  4  1  0
  4  5  1  0
  5  6  1  0
  5  7  2  0
  7  8  1  0
  7  9  1  0
  9 10  1  0
 10 11  2  0
 11 12  1  0
 12 13  2  0
 13 14  1  0
 14 15  2  0
  9 16  1  0
 16 17  1  0
 17 18  2  0
 18 19  1  0
 19 20  2  0
 20 21  1  0
 21 22  2  0
 22 23  1  0
 16  4  2  0
 22 17  1  0
 15 10  1  0
  1 24  1  0
  1 25  1  0
  1 26  1  0
  6 27  1  0
 11 28  1  0
 12 29  1  0
 13 30  1  0
 14 31  1  0
 15 32  1  0
 18 33  1  0
 19 34  1  0
 20 35  1  0
 21 36  1  0
M  CHG  2   8  -1  23  -1
M  END
>  <UniqueID>  (34) 
33

>  <SMILES>  (34) 
CC(=O)c1c(O)c([O-])n(-c2ccccc2)c1-c1ccccc1[O-]

>  <Energy>  (34) 
80.82491627403824

>  <Genealogy>  (34) 
CC(=O)c1c(O)c([O-])n(-c2ccccc2)c1-c1ccccc1[O-] (protonated)
CC(=O)c1c(O)c([O-])n(-c2ccccc2)c1-c1ccccc1[O-] (3D coordinates assigned)
CC(=O)c1c(O)c([O-])n(-c2ccccc2)c1-c1ccccc1[O-] (optimized conformer: 80.82491627403824 kcal/mol)

>  <smiles>  (34) 
CC(=O)c1c(O)c(O)n(-c2ccccc2)c1-c1ccccc1O

>  <score_type>  (34) 
oracle

>  <origin>  (34) 
adgpu

>  <m_score__min__energy>  (34) 
-11

>  <m_primary>  (34) 
energy

$$$$
34:0
     RDKit          3D

 40 42  0  0  0  0  0  0  0  0999 V2000
   -2.1000   25.6820  -28.9710 O   0  0  0  0  0  0  0  0  0  0  0  0
   -2.0160   24.3460  -29.3430 C   0  0  0  0  0  0  0  0  0  0  0  0
   -0.7860   23.6790  -29.2700 C   0  0  0  0  0  0  0  0  0  0  0  0
    0.3450   24.3630  -28.8270 O   0  0  0  0  0  0  0  0  0  0  0  0
   -0.6980   22.3310  -29.6440 C   0  0  0  0  0  0  0  0  0  0  0  0
   -1.8380   21.6440  -30.0910 C   0  0  0  0  0  0  0  0  0  0  0  0
   -1.7500   20.2000  -30.5080 C   0  0  0  0  0  0  0  0  0  0  0  0
   -1.1290   20.0870  -31.8460 N   0  0  0  0  0  0  0  0  0  0  0  0
   -1.3820   21.2840  -32.6750 C   0  0  0  0  0  0  0  0  0  0  0  0
   -2.8760   21.4290  -33.0150 C   0  0  0  0  0  0  0  0  0  0  0  0
   -3.4830   20.1140  -33.2460 N   0  0  0  0  0  0  0  0  0  0  0  0
   -4.9030   19.9330  -33.0870 C   0  0  0  0  0  0  0  0  0  0  0  0
   -5.5060   18.7020  -33.4070 C   0  0  0  0  0  0  0  0  0  0  0  0
   -6.8810   18.5240  -33.2350 C   0  0  0  0  0  0  0  0  0  0  0  0
   -7.6680   19.5670  -32.7360 C   0  0  0  0  0  0  0  0  0  0  0  0
   -9.3940   19.3400  -32.5200 Cl  0  0  0  0  0  0  0  0  0  0  0  0
   -7.0750   20.7890  -32.4060 C   0  0  0  0  0  0  0  0  0  0  0  0
   -5.7000   20.9720  -32.5760 C   0  0  0  0  0  0  0  0  0  0  0  0
   -2.6060   18.9940  -33.5990 C   0  0  0  0  0  0  0  0  0  0  0  0
   -1.4990   18.8230  -32.5390 C   0  0  0  0  0  0  0  0  0  0  0  0
   -3.0650   22.3190  -30.1620 C   0  0  0  0  0  0  0  0  0  0  0  0
   -3.1560   23.6640  -29.7890 C   0  0  0  0  0  0  0  0  0  0  0  0
   -4.8450   24.5570  -29.8980 Br  0  0  0  0  0  0  0  0  0  0  0  0
    0.3100   25.3480  -28.5910 H   0  0  0  0  0  0  0  0  0  0  0  0
    0.2686   21.8090  -29.5870 H   0  0  0  0  0  0  0  0  0  0  0  0
   -1.1401   19.6482  -29.7775 H   0  0  0  0  0  0  0  0  0  0  0  0
   -2.7649   19.7776  -30.5486 H   0  0  0  0  0  0  0  0  0  0  0  0
   -1.0526   22.1769  -32.1235 H   0  0  0  0  0  0  0  0  0  0  0  0
   -0.8227   21.1766  -33.6161 H   0  0  0  0  0  0  0  0  0  0  0  0
   -3.3910   21.9228  -32.1778 H   0  0  0  0  0  0  0  0  0  0  0  0
   -2.9745   22.0307  -33.9305 H   0  0  0  0  0  0  0  0  0  0  0  0
   -4.8915   17.8760  -33.7945 H   0  0  0  0  0  0  0  0  0  0  0  0
   -7.3459   17.5610  -33.4927 H   0  0  0  0  0  0  0  0  0  0  0  0
   -7.6926   21.6092  -32.0112 H   0  0  0  0  0  0  0  0  0  0  0  0
   -5.2390   21.9342  -32.3085 H   0  0  0  0  0  0  0  0  0  0  0  0
   -3.2014   18.0707  -33.6534 H   0  0  0  0  0  0  0  0  0  0  0  0
   -2.1384   19.2003  -34.5731 H   0  0  0  0  0  0  0  0  0  0  0  0
   -1.8500   18.1039  -31.7842 H   0  0  0  0  0  0  0  0  0  0  0  0
   -0.6003   18.4736  -33.0685 H   0  0  0  0  0  0  0  0  0  0  0  0
   -3.9617   21.7874  -30.5133 H   0  0  0  0  0  0  0  0  0  0  0  0
  1  2  1  0
  2  3  2  0
  3  4  1  0
  3  5  1  0
  5  6  2  0
  6  7  1  0
  7  8  1  0
  8  9  1  0
  9 10  1  0
 10 11  1  0
 11 12  1  0
 12 13  2  0
 13 14  1  0
 14 15  2  0
 15 16  1  0
 15 17  1  0
 17 18  2  0
 11 19  1  0
 19 20  1  0
  6 21  1  0
 21 22  2  0
 22 23  1  0
 22  2  1  0
 20  8  1  0
 18 12  1  0
  4 24  1  0
  5 25  1  0
  7 26  1  0
  7 27  1  0
  9 28  1  0
  9 29  1  0
 10 30  1  0
 10 31  1  0
 13 32  1  0
 14 33  1  0
 17 34  1  0
 18 35  1  0
 19 36  1  0
 19 37  1  0
 20 38  1  0
 20 39  1  0
 21 40  1  0
M  CHG  1   1  -1
M  END
>  <UniqueID>  (35) 
34

>  <SMILES>  (35) 
[O-]c1c(O)cc(CN2CCN(c3ccc(Cl)cc3)CC2)cc1Br

>  <Energy>  (35) 
53.113219943629446

>  <Genealogy>  (35) 
[O-]c1c(O)cc(CN2CCN(c3ccc(Cl)cc3)CC2)cc1Br (protonated)
[O-]c1c(O)cc(CN2CCN(c3ccc(Cl)cc3)CC2)cc1Br (3D coordinates assigned)
[O-]c1c(O)cc(CN2CCN(c3ccc(Cl)cc3)CC2)cc1Br (nonaromatic ring conformer: 53.113219943629446 kcal/mol)

>  <smiles>  (35) 
Oc1cc(CN2CCN(c3ccc(Cl)cc3)CC2)cc(Br)c1O

>  <score_type>  (35) 
oracle

>  <origin>  (35) 
adgpu

>  <m_score__min__energy>  (35) 
-11.02

>  <m_primary>  (35) 
energy

$$$$
35:0
     RDKit          3D

 68 71  0  0  0  0  0  0  0  0999 V2000
   -5.9400   26.0530  -30.0030 O   0  0  0  0  0  0  0  0  0  0  0  0
   -5.2730   25.2660  -30.7280 C   0  0  0  0  0  0  0  0  0  0  0  0
   -3.8970   25.4220  -30.8250 O   0  0  0  0  0  0  0  0  0  0  0  0
   -5.9510   24.1370  -31.4440 C   0  0  0  0  0  0  0  0  0  0  0  0
   -7.1070   23.5620  -30.6170 C   0  0  0  0  0  0  0  0  0  0  0  0
   -8.1280   22.9500  -31.4670 N   0  0  0  0  0  0  0  0  0  0  0  0
   -8.1330   21.5960  -31.9390 C   0  0  0  0  0  0  0  0  0  0  0  0
   -9.2380   21.0070  -32.0790 O   0  0  0  0  0  0  0  0  0  0  0  0
   -6.8910   20.8640  -32.2540 C   0  0  0  0  0  0  0  0  0  0  0  0
   -6.6170   20.4390  -33.5640 C   0  0  0  0  0  0  0  0  0  0  0  0
   -5.4420   19.7390  -33.8480 C   0  0  0  0  0  0  0  0  0  0  0  0
   -4.5320   19.4360  -32.8210 C   0  0  0  0  0  0  0  0  0  0  0  0
   -3.2310   18.7370  -33.1260 C   0  0  0  0  0  0  0  0  0  0  0  0
   -2.1060   19.6800  -33.0220 N   0  0  0  0  0  0  0  0  0  0  0  0
   -1.1490   19.8630  -34.0880 C   0  0  0  0  0  0  0  0  0  0  0  0
   -0.5890   18.8510  -34.5880 O   0  0  0  0  0  0  0  0  0  0  0  0
   -0.8220   21.1700  -34.5880 N   0  0  0  0  0  0  0  0  0  0  0  0
    0.4580   21.5090  -35.1580 C   0  0  0  0  0  0  0  0  0  0  0  0
    0.6330   22.7680  -35.7530 C   0  0  0  0  0  0  0  0  0  0  0  0
    1.8720   23.1350  -36.2900 C   0  0  0  0  0  0  0  0  0  0  0  0
    2.9540   22.2510  -36.2260 C   0  0  0  0  0  0  0  0  0  0  0  0
    4.1550   22.6050  -36.7500 F   0  0  0  0  0  0  0  0  0  0  0  0
    2.7970   21.0030  -35.6190 C   0  0  0  0  0  0  0  0  0  0  0  0
    1.5580   20.6350  -35.0770 C   0  0  0  0  0  0  0  0  0  0  0  0
   -2.0490   20.5690  -31.8890 C   0  0  0  0  0  0  0  0  0  0  0  0
   -1.5480   20.1310  -30.6530 C   0  0  0  0  0  0  0  0  0  0  0  0
   -1.5960   20.9690  -29.5330 C   0  0  0  0  0  0  0  0  0  0  0  0
   -2.1420   22.2620  -29.6330 C   0  0  0  0  0  0  0  0  0  0  0  0
   -2.2240   23.1560  -28.4100 C   0  0  0  0  0  0  0  0  0  0  0  0
   -1.1410   24.2670  -28.4460 C   0  0  0  0  0  0  0  0  0  0  0  0
   -1.5810   25.5720  -27.7470 C   0  0  0  0  0  0  0  0  0  0  0  0
   -2.4770   25.2800  -26.5370 C   0  0  0  0  0  0  0  0  0  0  0  0
   -3.7790   24.5590  -26.9450 C   0  0  0  0  0  0  0  0  0  0  0  0
   -3.6450   23.7310  -28.2410 C   0  0  0  0  0  0  0  0  0  0  0  0
   -2.6260   22.7020  -30.8780 C   0  0  0  0  0  0  0  0  0  0  0  0
   -2.5840   21.8620  -31.9910 C   0  0  0  0  0  0  0  0  0  0  0  0
   -4.8230   19.8350  -31.5060 C   0  0  0  0  0  0  0  0  0  0  0  0
   -5.9960   20.5380  -31.2230 C   0  0  0  0  0  0  0  0  0  0  0  0
   -6.3458   24.5067  -32.4018 H   0  0  0  0  0  0  0  0  0  0  0  0
   -5.2124   23.3384  -31.6075 H   0  0  0  0  0  0  0  0  0  0  0  0
   -6.7098   22.7991  -29.9313 H   0  0  0  0  0  0  0  0  0  0  0  0
   -7.5742   24.3876  -30.0601 H   0  0  0  0  0  0  0  0  0  0  0  0
   -7.3316   20.6585  -34.3710 H   0  0  0  0  0  0  0  0  0  0  0  0
   -5.2282   19.4236  -34.8799 H   0  0  0  0  0  0  0  0  0  0  0  0
   -3.0836   17.9162  -32.4087 H   0  0  0  0  0  0  0  0  0  0  0  0
   -3.2707   18.3401  -34.1511 H   0  0  0  0  0  0  0  0  0  0  0  0
   -1.5620   21.9050  -34.6080 H   0  0  0  0  0  0  0  0  0  0  0  0
   -0.2109   23.4722  -35.7976 H   0  0  0  0  0  0  0  0  0  0  0  0
    1.9952   24.1203  -36.7632 H   0  0  0  0  0  0  0  0  0  0  0  0
    3.6475   20.3075  -35.5662 H   0  0  0  0  0  0  0  0  0  0  0  0
    1.4447   19.6575  -34.5855 H   0  0  0  0  0  0  0  0  0  0  0  0
   -1.1153   19.1236  -30.5642 H   0  0  0  0  0  0  0  0  0  0  0  0
   -1.2043   20.6145  -28.5682 H   0  0  0  0  0  0  0  0  0  0  0  0
   -2.0150   22.5403  -27.5227 H   0  0  0  0  0  0  0  0  0  0  0  0
   -0.2373   23.8900  -27.9447 H   0  0  0  0  0  0  0  0  0  0  0  0
   -0.9580   24.5094  -29.5032 H   0  0  0  0  0  0  0  0  0  0  0  0
   -0.6871   26.1162  -27.4082 H   0  0  0  0  0  0  0  0  0  0  0  0
   -2.1540   26.1755  -28.4663 H   0  0  0  0  0  0  0  0  0  0  0  0
   -1.9242   24.6431  -25.8308 H   0  0  0  0  0  0  0  0  0  0  0  0
   -2.7498   26.2405  -26.0754 H   0  0  0  0  0  0  0  0  0  0  0  0
   -4.0728   23.8827  -26.1287 H   0  0  0  0  0  0  0  0  0  0  0  0
   -4.5334   25.3368  -27.1348 H   0  0  0  0  0  0  0  0  0  0  0  0
   -4.3639   22.8991  -28.2078 H   0  0  0  0  0  0  0  0  0  0  0  0
   -3.8480   24.3958  -29.0935 H   0  0  0  0  0  0  0  0  0  0  0  0
   -3.0408   23.7162  -30.9749 H   0  0  0  0  0  0  0  0  0  0  0  0
   -2.9736   22.2164  -32.9567 H   0  0  0  0  0  0  0  0  0  0  0  0
   -4.1222   19.5921  -30.6937 H   0  0  0  0  0  0  0  0  0  0  0  0
   -6.2194   20.8374  -30.1884 H   0  0  0  0  0  0  0  0  0  0  0  0
  1  2  2  0
  2  3  1  0
  2  4  1  0
  4  5  1  0
  5  6  1  0
  6  7  1  0
  7  8  2  0
  7  9  1  0
  9 10  2  0
 10 11  1  0
 11 12  2  0
 12 13  1  0
 13 14  1  0
 14 15  1  0
 15 16  2  0
 15 17  1  0
 17 18  1  0
 18 19  2  0
 19 20  1  0
 20 21  2  0
 21 22  1  0
 21 23  1  0
 23 24  2  0
 14 25  1  0
 25 26  2  0
 26 27  1  0
 27 28  2  0
 28 29  1  0
 29 30  1  0
 30 31  1  0
 31 32  1  0
 32 33  1  0
 33 34  1  0
 28 35  1  0
 35 36  2  0
 12 37  1  0
 37 38  2  0
 38  9  1  0
 24 18  1  0
 36 25  1  0
 34 29  1  0
  4 39  1  0
  4 40  1  0
  5 41  1  0
  5 42  1  0
 10 43  1  0
 11 44  1  0
 13 45  1  0
 13 46  1  0
 17 47  1  0
 19 48  1  0
 20 49  1  0
 23 50  1  0
 24 51  1  0
 26 52  1  0
 27 53  1  0
 29 54  1  0
 30 55  1  0
 30 56  1  0
 31 57  1  0
 31 58  1  0
 32 59  1  0
 32 60  1  0
 33 61  1  0
 33 62  1  0
 34 63  1  0
 34 64  1  0
 35 65  1  0
 36 66  1  0
 37 67  1  0
 38 68  1  0
M  CHG  2   3  -1   6  -1
M  END
>  <UniqueID>  (36) 
35

>  <SMILES>  (36) 
O=C([O-])CC[N-]C(=O)c1ccc(CN(C(=O)Nc2ccc(F)cc2)c2ccc(C3CCCCC3)cc2)cc1

>  <Energy>  (36) 
84.94886511969965

>  <Genealogy>  (36) 
O=C([O-])CC[N-]C(=O)c1ccc(CN(C(=O)Nc2ccc(F)cc2)c2ccc(C3CCCCC3)cc2)cc1 (protonated)
O=C([O-])CC[N-]C(=O)c1ccc(CN(C(=O)Nc2ccc(F)cc2)c2ccc(C3CCCCC3)cc2)cc1 (3D coordinates assigned)
O=C([O-])CC[N-]C(=O)c1ccc(CN(C(=O)Nc2ccc(F)cc2)c2ccc(C3CCCCC3)cc2)cc1 (nonaromatic ring conformer: 84.94886511969965 kcal/mol)

>  <smiles>  (36) 
O=C(O)CCNC(=O)c1ccc(CN(C(=O)Nc2ccc(F)cc2)c2ccc(C3CCCCC3)cc2)cc1

>  <score_type>  (36) 
oracle

>  <origin>  (36) 
adgpu

>  <m_score__min__energy>  (36) 
-13.15

>  <m_primary>  (36) 
energy

$$$$
36:0
     RDKit          3D

 37 39  0  0  0  0  0  0  0  0999 V2000
   -0.8214   27.3064  -24.4254 H   0  0  0  0  0  0  0  0  0  0  0  0
   -0.8010   27.1020  -25.5060 C   0  0  0  0  0  0  0  0  0  0  0  0
   -1.7370   25.9650  -26.3170 S   0  0  0  0  0  0  0  0  0  0  0  0
   -1.0830   26.3410  -27.8270 C   0  0  0  0  0  0  0  0  0  0  0  0
   -1.3890   25.7980  -28.9690 N   0  0  0  0  0  0  0  0  0  0  0  0
   -2.3400   24.7540  -29.2320 C   0  0  0  0  0  0  0  0  0  0  0  0
   -2.2200   23.5750  -28.5720 N   0  0  0  0  0  0  0  0  0  0  0  0
   -3.1070   22.5670  -28.7920 C   0  0  0  0  0  0  0  0  0  0  0  0
   -3.0030   21.4350  -28.1620 N   0  0  0  0  0  0  0  0  0  0  0  0
   -1.9610   21.1380  -27.1860 C   0  0  0  0  0  0  0  0  0  0  0  0
   -2.3665   21.2536  -26.1700 H   0  0  0  0  0  0  0  0  0  0  0  0
   -1.6114   20.1044  -27.3259 H   0  0  0  0  0  0  0  0  0  0  0  0
   -1.1190   21.8319  -27.3259 H   0  0  0  0  0  0  0  0  0  0  0  0
   -4.1150   22.7440  -29.6810 N   0  0  0  0  0  0  0  0  0  0  0  0
   -4.2380   23.9170  -30.3580 C   0  0  0  0  0  0  0  0  0  0  0  0
   -5.2120   24.1160  -31.1980 N   0  0  0  0  0  0  0  0  0  0  0  0
   -6.2090   23.1620  -31.6080 C   0  0  0  0  0  0  0  0  0  0  0  0
   -7.5660   23.3100  -31.2690 C   0  0  0  0  0  0  0  0  0  0  0  0
   -7.8968   24.1938  -30.7037 H   0  0  0  0  0  0  0  0  0  0  0  0
   -8.4950   22.3380  -31.6480 C   0  0  0  0  0  0  0  0  0  0  0  0
   -9.5569   22.4646  -31.3903 H   0  0  0  0  0  0  0  0  0  0  0  0
   -8.0800   21.2060  -32.3530 C   0  0  0  0  0  0  0  0  0  0  0  0
   -8.8160   20.4439  -32.6489 H   0  0  0  0  0  0  0  0  0  0  0  0
   -6.7270   21.0380  -32.6850 C   0  0  0  0  0  0  0  0  0  0  0  0
   -6.2720   19.7970  -33.3920 C   0  0  0  0  0  0  0  0  0  0  0  0
   -5.9923   19.0342  -32.6504 H   0  0  0  0  0  0  0  0  0  0  0  0
   -7.0881   19.4139  -34.0222 H   0  0  0  0  0  0  0  0  0  0  0  0
   -5.4016   20.0322  -34.0222 H   0  0  0  0  0  0  0  0  0  0  0  0
   -5.7940   22.0090  -32.2860 C   0  0  0  0  0  0  0  0  0  0  0  0
   -4.7267   21.8624  -32.5082 H   0  0  0  0  0  0  0  0  0  0  0  0
   -3.3550   24.9180  -30.1220 N   0  0  0  0  0  0  0  0  0  0  0  0
   -0.1610   27.3230  -27.7310 N   0  0  0  0  0  0  0  0  0  0  0  0
    0.0050   27.7390  -26.4470 C   0  0  0  0  0  0  0  0  0  0  0  0
    0.9420   28.8470  -26.0920 C   0  0  0  0  0  0  0  0  0  0  0  0
    1.0128   28.9308  -24.9975 H   0  0  0  0  0  0  0  0  0  0  0  0
    1.9374   28.6331  -26.5086 H   0  0  0  0  0  0  0  0  0  0  0  0
    0.5658   29.7930  -26.5086 H   0  0  0  0  0  0  0  0  0  0  0  0
  1  2  1  0
  2  3  1  0
  3  4  1  0
  4  5  2  0
  5  6  1  0
  6  7  2  0
  7  8  1  0
  8  9  2  0
  9 10  1  0
 10 11  1  0
 10 12  1  0
 10 13  1  0
  8 14  1  0
 14 15  1  0
 15 16  2  3
 16 17  1  0
 17 18  2  0
 18 19  1  0
 18 20  1  0
 20 21  1  0
 20 22  2  0
 22 23  1  0
 22 24  1  0
 24 25  1  0
 25 26  1  0
 25 27  1  0
 25 28  1  0
 24 29  2  0
 29 30  1  0
 15 31  1  0
  4 32  1  0
 32 33  1  0
 33 34  1  0
 34 35  1  0
 34 36  1  0
 34 37  1  0
 33  2  2  0
 31  6  1  0
 29 17  1  0
M  CHG  3  14  -1  31  -1  32  -1
M  END
>  <UniqueID>  (37) 
36

>  <SMILES>  (37) 
C/N=c1\nc(/N=c2/[n-]c(C)cs2)[n-]c(=Nc2cccc(C)c2)[n-]1

>  <Energy>  (37) 
76.52415391185798

>  <Genealogy>  (37) 
CN=c1nc(N=c2[n-]c(C)cs2)[n-]c(=Nc2cccc(C)c2)[n-]1 (protonated)
C/N=c1\nc(/N=c2/[n-]c(C)cs2)[n-]c(=Nc2cccc(C)c2)[n-]1 (cis-trans isomerization)
C/N=c1\nc(/N=c2/[n-]c(C)cs2)[n-]c(=Nc2cccc(C)c2)[n-]1 (3D coordinates assigned)
C/N=c1\nc(/N=c2/[n-]c(C)cs2)[n-]c(=Nc2cccc(C)c2)[n-]1 (optimized conformer: 76.52415391185798 kcal/mol)

>  <smiles>  (37) 
CN=c1nc(N=c2[nH]c(C)cs2)[nH]c(=Nc2cccc(C)c2)[nH]1

>  <score_type>  (37) 
oracle

>  <origin>  (37) 
adgpu

>  <m_score__min__energy>  (37) 
-10.470000000000001

>  <m_primary>  (37) 
energy

$$$$
37:0
     RDKit          3D

 37 39  0  0  0  0  0  0  0  0999 V2000
   -4.0540   25.4810  -30.8900 O   0  0  0  0  0  0  0  0  0  0  0  0
   -4.9940   24.6050  -30.1080 S   0  0  0  0  0  0  0  0  0  0  0  0
   -6.3080   25.3160  -29.9490 O   0  0  0  0  0  0  0  0  0  0  0  0
   -4.3170   24.3080  -28.5390 N   0  0  0  0  0  0  0  0  0  0  0  0
   -3.1480   23.5170  -28.2780 C   0  0  0  0  0  0  0  0  0  0  0  0
   -3.2220   22.2680  -27.6310 C   0  0  0  0  0  0  0  0  0  0  0  0
   -2.0610   21.5300  -27.3870 C   0  0  0  0  0  0  0  0  0  0  0  0
   -0.8190   22.0250  -27.7870 C   0  0  0  0  0  0  0  0  0  0  0  0
   -0.7340   23.2600  -28.4340 C   0  0  0  0  0  0  0  0  0  0  0  0
   -1.8950   24.0080  -28.6810 C   0  0  0  0  0  0  0  0  0  0  0  0
   -1.8100   25.2410  -29.3260 O   0  0  0  0  0  0  0  0  0  0  0  0
   -5.2680   23.0820  -30.9480 C   0  0  0  0  0  0  0  0  0  0  0  0
   -6.5110   22.8220  -31.5370 C   0  0  0  0  0  0  0  0  0  0  0  0
   -6.7390   21.6090  -32.1920 C   0  0  0  0  0  0  0  0  0  0  0  0
   -5.7220   20.6400  -32.2730 C   0  0  0  0  0  0  0  0  0  0  0  0
   -5.9710   19.3490  -32.9590 C   0  0  0  0  0  0  0  0  0  0  0  0
   -5.3090   19.0530  -34.1640 C   0  0  0  0  0  0  0  0  0  0  0  0
   -5.5400   17.8420  -34.8220 C   0  0  0  0  0  0  0  0  0  0  0  0
   -6.4300   16.9110  -34.2830 C   0  0  0  0  0  0  0  0  0  0  0  0
   -7.0910   17.1890  -33.0840 C   0  0  0  0  0  0  0  0  0  0  0  0
   -6.8660   18.4000  -32.4200 C   0  0  0  0  0  0  0  0  0  0  0  0
   -7.4920   18.6260  -31.2370 F   0  0  0  0  0  0  0  0  0  0  0  0
   -4.4770   20.9090  -31.6790 C   0  0  0  0  0  0  0  0  0  0  0  0
   -4.2510   22.1220  -31.0240 C   0  0  0  0  0  0  0  0  0  0  0  0
   -4.1987   21.8717  -27.3163 H   0  0  0  0  0  0  0  0  0  0  0  0
   -2.1260   20.5567  -26.8785 H   0  0  0  0  0  0  0  0  0  0  0  0
    0.0935   21.4423  -27.5927 H   0  0  0  0  0  0  0  0  0  0  0  0
    0.2457   23.6471  -28.7507 H   0  0  0  0  0  0  0  0  0  0  0  0
   -2.6200   25.6740  -29.7530 H   0  0  0  0  0  0  0  0  0  0  0  0
   -7.3110   23.5752  -31.4840 H   0  0  0  0  0  0  0  0  0  0  0  0
   -7.7203   21.4102  -32.6475 H   0  0  0  0  0  0  0  0  0  0  0  0
   -4.6037   19.7806  -34.5920 H   0  0  0  0  0  0  0  0  0  0  0  0
   -5.0199   17.6219  -35.7660 H   0  0  0  0  0  0  0  0  0  0  0  0
   -6.6108   15.9584  -34.8025 H   0  0  0  0  0  0  0  0  0  0  0  0
   -7.7907   16.4534  -32.6605 H   0  0  0  0  0  0  0  0  0  0  0  0
   -3.6743   20.1586  -31.7303 H   0  0  0  0  0  0  0  0  0  0  0  0
   -3.2712   22.3238  -30.5665 H   0  0  0  0  0  0  0  0  0  0  0  0
  1  2  2  0
  2  3  2  0
  2  4  1  0
  4  5  1  0
  5  6  2  0
  6  7  1  0
  7  8  2  0
  8  9  1  0
  9 10  2  0
 10 11  1  0
  2 12  1  0
 12 13  2  0
 13 14  1  0
 14 15  2  0
 15 16  1  0
 16 17  2  0
 17 18  1  0
 18 19  2  0
 19 20  1  0
 20 21  2  0
 21 22  1  0
 15 23  1  0
 23 24  2  0
 10  5  1  0
 24 12  1  0
 21 16  1  0
  6 25  1  0
  7 26  1  0
  8 27  1  0
  9 28  1  0
 11 29  1  0
 13 30  1  0
 14 31  1  0
 17 32  1  0
 18 33  1  0
 19 34  1  0
 20 35  1  0
 23 36  1  0
 24 37  1  0
M  CHG  1   4  -1
M  END
>  <UniqueID>  (38) 
37

>  <SMILES>  (38) 
O=S(=O)([N-]c1ccccc1O)c1ccc(-c2ccccc2F)cc1

>  <Energy>  (38) 
49.06004585344385

>  <Genealogy>  (38) 
O=S(=O)([N-]c1ccccc1O)c1ccc(-c2ccccc2F)cc1 (protonated)
O=S(=O)([N-]c1ccccc1O)c1ccc(-c2ccccc2F)cc1 (3D coordinates assigned)
O=S(=O)([N-]c1ccccc1O)c1ccc(-c2ccccc2F)cc1 (optimized conformer: 49.06004585344385 kcal/mol)

>  <smiles>  (38) 
O=S(=O)(Nc1ccccc1O)c1ccc(-c2ccccc2F)cc1

>  <score_type>  (38) 
oracle

>  <origin>  (38) 
adgpu

>  <m_score__min__energy>  (38) 
-11.52

>  <m_primary>  (38) 
energy

$$$$
38:0
     RDKit          3D

 36 37  0  0  0  0  0  0  0  0999 V2000
   -8.6090   18.6000  -31.6810 C   0  0  0  0  0  0  0  0  0  0  0  0
   -8.8640   19.7070  -32.6970 C   0  0  0  0  0  0  0  0  0  0  0  0
   -7.6480   20.3770  -33.0320 O   0  0  0  0  0  0  0  0  0  0  0  0
   -7.1100   21.4820  -32.3540 C   0  0  0  0  0  0  0  0  0  0  0  0
   -7.9050   22.5300  -31.8480 C   0  0  0  0  0  0  0  0  0  0  0  0
   -7.3120   23.6080  -31.1840 C   0  0  0  0  0  0  0  0  0  0  0  0
   -5.9220   23.6560  -31.0160 C   0  0  0  0  0  0  0  0  0  0  0  0
   -5.1670   25.0240  -30.2050 S   0  0  0  0  0  0  0  0  0  0  0  0
   -5.5890   25.0280  -28.7630 O   0  0  0  0  0  0  0  0  0  0  0  0
   -5.5880   26.3180  -30.8420 O   0  0  0  0  0  0  0  0  0  0  0  0
   -3.4400   24.8840  -30.2930 N   0  0  0  0  0  0  0  0  0  0  0  0
   -2.6220   24.1450  -29.3740 C   0  0  0  0  0  0  0  0  0  0  0  0
   -2.9000   22.8100  -29.0340 C   0  0  0  0  0  0  0  0  0  0  0  0
   -2.0790   22.1280  -28.1300 C   0  0  0  0  0  0  0  0  0  0  0  0
   -2.3990   20.7180  -27.7260 C   0  0  0  0  0  0  0  0  0  0  0  0
   -0.9960   22.8050  -27.5550 C   0  0  0  0  0  0  0  0  0  0  0  0
   -0.7330   24.0940  -27.8970 N   0  0  0  0  0  0  0  0  0  0  0  0
   -1.5120   24.7710  -28.7860 C   0  0  0  0  0  0  0  0  0  0  0  0
   -1.2360   25.9670  -29.0760 O   0  0  0  0  0  0  0  0  0  0  0  0
   -5.1310   22.6100  -31.5060 C   0  0  0  0  0  0  0  0  0  0  0  0
   -5.7220   21.5320  -32.1700 C   0  0  0  0  0  0  0  0  0  0  0  0
   -8.7028   19.0074  -30.6635 H   0  0  0  0  0  0  0  0  0  0  0  0
   -9.3453   17.7952  -31.8231 H   0  0  0  0  0  0  0  0  0  0  0  0
   -7.5948   18.1984  -31.8231 H   0  0  0  0  0  0  0  0  0  0  0  0
   -9.2967   19.2679  -33.6080 H   0  0  0  0  0  0  0  0  0  0  0  0
   -9.5593   20.4368  -32.2566 H   0  0  0  0  0  0  0  0  0  0  0  0
   -8.9971   22.4996  -31.9761 H   0  0  0  0  0  0  0  0  0  0  0  0
   -7.9395   24.4219  -30.7918 H   0  0  0  0  0  0  0  0  0  0  0  0
   -3.7662   22.2997  -29.4804 H   0  0  0  0  0  0  0  0  0  0  0  0
   -2.4154   20.6458  -26.6285 H   0  0  0  0  0  0  0  0  0  0  0  0
   -3.3839   20.4363  -28.1267 H   0  0  0  0  0  0  0  0  0  0  0  0
   -1.6322   20.0388  -28.1267 H   0  0  0  0  0  0  0  0  0  0  0  0
   -0.3553   22.2912  -26.8232 H   0  0  0  0  0  0  0  0  0  0  0  0
    0.0860   24.5740  -27.4600 H   0  0  0  0  0  0  0  0  0  0  0  0
   -4.0401   22.6369  -31.3677 H   0  0  0  0  0  0  0  0  0  0  0  0
   -5.0918   20.7152  -32.5517 H   0  0  0  0  0  0  0  0  0  0  0  0
  1  2  1  0
  2  3  1  0
  3  4  1  0
  4  5  2  0
  5  6  1  0
  6  7  2  0
  7  8  1  0
  8  9  2  0
  8 10  2  0
  8 11  1  0
 11 12  1  0
 12 13  2  0
 13 14  1  0
 14 15  1  0
 14 16  2  0
 16 17  1  0
 17 18  1  0
 18 19  2  0
  7 20  1  0
 20 21  2  0
 21  4  1  0
 18 12  1  0
  1 22  1  0
  1 23  1  0
  1 24  1  0
  2 25  1  0
  2 26  1  0
  5 27  1  0
  6 28  1  0
 13 29  1  0
 15 30  1  0
 15 31  1  0
 15 32  1  0
 16 33  1  0
 17 34  1  0
 20 35  1  0
 21 36  1  0
M  CHG  1  11  -1
M  END
>  <UniqueID>  (39) 
38

>  <SMILES>  (39) 
CCOc1ccc(S(=O)(=O)[N-]c2cc(C)c[nH]c2=O)cc1

>  <Energy>  (39) 
36.88758389929927

>  <Genealogy>  (39) 
CCOc1ccc(S(=O)(=O)[N-]c2cc(C)c[nH]c2=O)cc1 (protonated)
CCOc1ccc(S(=O)(=O)[N-]c2cc(C)c[nH]c2=O)cc1 (3D coordinates assigned)
CCOc1ccc(S(=O)(=O)[N-]c2cc(C)c[nH]c2=O)cc1 (optimized conformer: 36.88758389929927 kcal/mol)

>  <smiles>  (39) 
CCOc1ccc(S(=O)(=O)Nc2cc(C)c[nH]c2=O)cc1

>  <score_type>  (39) 
oracle

>  <origin>  (39) 
adgpu

>  <m_score__min__energy>  (39) 
-8.9399999999999995

>  <m_primary>  (39) 
energy

$$$$
39:0
     RDKit          3D

 43 45  0  0  0  0  0  0  0  0999 V2000
   -0.7810   27.2490  -27.7530 C   0  0  0  0  0  0  0  0  0  0  0  0
   -1.1050   26.3090  -28.7700 O   0  0  0  0  0  0  0  0  0  0  0  0
   -0.9650   24.9280  -28.5980 C   0  0  0  0  0  0  0  0  0  0  0  0
    0.2360   24.3920  -28.2440 N   0  0  0  0  0  0  0  0  0  0  0  0
    0.4040   23.0580  -28.0570 C   0  0  0  0  0  0  0  0  0  0  0  0
   -0.6710   22.1750  -28.2410 C   0  0  0  0  0  0  0  0  0  0  0  0
   -0.5180   20.7200  -27.9940 C   0  0  0  0  0  0  0  0  0  0  0  0
   -1.4980   20.0050  -27.2810 C   0  0  0  0  0  0  0  0  0  0  0  0
   -1.3510   18.6320  -27.0610 C   0  0  0  0  0  0  0  0  0  0  0  0
   -0.2290   17.9590  -27.5510 C   0  0  0  0  0  0  0  0  0  0  0  0
    0.7490   18.6570  -28.2620 C   0  0  0  0  0  0  0  0  0  0  0  0
    0.6080   20.0300  -28.4840 C   0  0  0  0  0  0  0  0  0  0  0  0
   -1.9070   22.7070  -28.6380 C   0  0  0  0  0  0  0  0  0  0  0  0
   -2.0740   24.0930  -28.7780 C   0  0  0  0  0  0  0  0  0  0  0  0
   -3.3470   24.6710  -29.1110 N   0  0  0  0  0  0  0  0  0  0  0  0
   -4.0160   24.6070  -30.3820 C   0  0  0  0  0  0  0  0  0  0  0  0
   -4.4650   25.6740  -30.8770 O   0  0  0  0  0  0  0  0  0  0  0  0
   -4.2230   23.3280  -31.1070 C   0  0  0  0  0  0  0  0  0  0  0  0
   -5.5230   22.9020  -31.4170 C   0  0  0  0  0  0  0  0  0  0  0  0
   -5.7240   21.7270  -32.1430 C   0  0  0  0  0  0  0  0  0  0  0  0
   -4.6350   20.9680  -32.5830 C   0  0  0  0  0  0  0  0  0  0  0  0
   -4.9630   19.5060  -33.5080 Cl  0  0  0  0  0  0  0  0  0  0  0  0
   -3.3220   21.3790  -32.2750 C   0  0  0  0  0  0  0  0  0  0  0  0
   -1.9200   20.4750  -32.8680 S   0  0  0  0  0  0  0  0  0  0  0  0
   -1.6080   20.7960  -34.5410 N   0  0  0  0  0  0  0  0  0  0  0  0
   -0.7090   20.8550  -32.0650 O   0  0  0  0  0  0  0  0  0  0  0  0
   -2.1790   19.0020  -32.7170 O   0  0  0  0  0  0  0  0  0  0  0  0
   -3.1310   22.5370  -31.5030 C   0  0  0  0  0  0  0  0  0  0  0  0
   -0.9391   26.7902  -26.7658 H   0  0  0  0  0  0  0  0  0  0  0  0
    0.2725   27.5492  -27.8533 H   0  0  0  0  0  0  0  0  0  0  0  0
   -1.4258   28.1346  -27.8533 H   0  0  0  0  0  0  0  0  0  0  0  0
    1.3882   22.6670  -27.7596 H   0  0  0  0  0  0  0  0  0  0  0  0
   -2.3846   20.5290  -26.8946 H   0  0  0  0  0  0  0  0  0  0  0  0
   -2.1205   18.0805  -26.5009 H   0  0  0  0  0  0  0  0  0  0  0  0
   -0.1161   16.8788  -27.3766 H   0  0  0  0  0  0  0  0  0  0  0  0
    1.6316   18.1259  -28.6480 H   0  0  0  0  0  0  0  0  0  0  0  0
    1.3814   20.5751  -29.0450 H   0  0  0  0  0  0  0  0  0  0  0  0
   -2.7517   22.0323  -28.8411 H   0  0  0  0  0  0  0  0  0  0  0  0
   -6.3876   23.4964  -31.0866 H   0  0  0  0  0  0  0  0  0  0  0  0
   -6.7477   21.3952  -32.3710 H   0  0  0  0  0  0  0  0  0  0  0  0
   -1.2470   21.7730  -34.6140 H   0  0  0  0  0  0  0  0  0  0  0  0
   -2.5210   20.7540  -35.0460 H   0  0  0  0  0  0  0  0  0  0  0  0
   -2.1132   22.8285  -31.2045 H   0  0  0  0  0  0  0  0  0  0  0  0
  1  2  1  0
  2  3  1  0
  3  4  2  0
  4  5  1  0
  5  6  2  0
  6  7  1  0
  7  8  2  0
  8  9  1  0
  9 10  2  0
 10 11  1  0
 11 12  2  0
  6 13  1  0
 13 14  2  0
 14 15  1  0
 15 16  1  0
 16 17  2  0
 16 18  1  0
 18 19  2  0
 19 20  1  0
 20 21  2  0
 21 22  1  0
 21 23  1  0
 23 24  1  0
 24 25  1  0
 24 26  2  0
 24 27  2  0
 23 28  2  0
 14  3  1  0
 28 18  1  0
 12  7  1  0
  1 29  1  0
  1 30  1  0
  1 31  1  0
  5 32  1  0
  8 33  1  0
  9 34  1  0
 10 35  1  0
 11 36  1  0
 12 37  1  0
 13 38  1  0
 19 39  1  0
 20 40  1  0
 25 41  1  0
 25 42  1  0
 28 43  1  0
M  CHG  1  15  -1
M  END
>  <UniqueID>  (40) 
39

>  <SMILES>  (40) 
COc1ncc(-c2ccccc2)cc1[N-]C(=O)c1ccc(Cl)c(S(N)(=O)=O)c1

>  <Energy>  (40) 
54.59091679775692

>  <Genealogy>  (40) 
COc1ncc(-c2ccccc2)cc1[N-]C(=O)c1ccc(Cl)c(S(N)(=O)=O)c1 (protonated)
COc1ncc(-c2ccccc2)cc1[N-]C(=O)c1ccc(Cl)c(S(N)(=O)=O)c1 (3D coordinates assigned)
COc1ncc(-c2ccccc2)cc1[N-]C(=O)c1ccc(Cl)c(S(N)(=O)=O)c1 (optimized conformer: 54.59091679775692 kcal/mol)

>  <smiles>  (40) 
COc1ncc(-c2ccccc2)cc1NC(=O)c1ccc(Cl)c(S(N)(=O)=O)c1

>  <score_type>  (40) 
oracle

>  <origin>  (40) 
adgpu

>  <m_score__min__energy>  (40) 
-11.1

>  <m_primary>  (40) 
energy

$$$$
40:0
     RDKit          3D

 62 64  0  0  0  0  0  0  0  0999 V2000
   -1.8630   19.2840  -26.9760 C   0  0  0  0  0  0  0  0  0  0  0  0
   -3.0410   20.1840  -27.3390 C   0  0  0  0  0  0  0  0  0  0  0  0
   -2.5990   21.3190  -28.1690 N   0  0  0  0  0  0  0  0  0  0  0  0
   -2.5940   22.6720  -27.5830 C   0  0  0  0  0  0  0  0  0  0  0  0
   -3.4860   23.6540  -28.3660 C   0  0  0  0  0  0  0  0  0  0  0  0
   -2.9900   23.8730  -29.7930 C   0  0  0  0  0  0  0  0  0  0  0  0
   -3.7140   24.9760  -30.4140 N   0  0  0  0  0  0  0  0  0  0  0  0
   -5.0890   24.9080  -30.8150 C   0  0  0  0  0  0  0  0  0  0  0  0
   -5.7450   25.9780  -30.9140 O   0  0  0  0  0  0  0  0  0  0  0  0
   -5.7410   23.6240  -31.1580 C   0  0  0  0  0  0  0  0  0  0  0  0
   -7.0360   23.3540  -30.7070 C   0  0  0  0  0  0  0  0  0  0  0  0
   -7.6470   22.1570  -30.9630 N   0  0  0  0  0  0  0  0  0  0  0  0
   -8.9910   21.9330  -30.4040 C   0  0  0  0  0  0  0  0  0  0  0  0
   -7.0110   21.1970  -31.7230 C   0  0  0  0  0  0  0  0  0  0  0  0
   -7.6210   19.9550  -32.0170 C   0  0  0  0  0  0  0  0  0  0  0  0
   -6.9630   18.9990  -32.7900 C   0  0  0  0  0  0  0  0  0  0  0  0
   -5.6860   19.2520  -33.2940 C   0  0  0  0  0  0  0  0  0  0  0  0
   -4.8570   18.0330  -34.2660 S   0  0  0  0  0  0  0  0  0  0  0  0
   -3.4180   18.4320  -34.4380 O   0  0  0  0  0  0  0  0  0  0  0  0
   -5.4870   17.9730  -35.6290 O   0  0  0  0  0  0  0  0  0  0  0  0
   -4.9380   16.4550  -33.5220 N   0  0  0  0  0  0  0  0  0  0  0  0
   -3.7910   15.6450  -33.9490 C   0  0  0  0  0  0  0  0  0  0  0  0
   -6.1940   15.7920  -33.8960 C   0  0  0  0  0  0  0  0  0  0  0  0
   -5.0640   20.4720  -33.0180 C   0  0  0  0  0  0  0  0  0  0  0  0
   -5.7100   21.4480  -32.2340 C   0  0  0  0  0  0  0  0  0  0  0  0
   -5.0810   22.6700  -31.9420 C   0  0  0  0  0  0  0  0  0  0  0  0
   -3.9150   22.9080  -32.3690 O   0  0  0  0  0  0  0  0  0  0  0  0
   -2.0310   21.0890  -29.4830 C   0  0  0  0  0  0  0  0  0  0  0  0
   -2.8010   20.5070  -30.5070 C   0  0  0  0  0  0  0  0  0  0  0  0
   -2.2450   20.2540  -31.7630 C   0  0  0  0  0  0  0  0  0  0  0  0
   -0.9160   20.5920  -32.0220 C   0  0  0  0  0  0  0  0  0  0  0  0
   -0.1420   21.1850  -31.0240 C   0  0  0  0  0  0  0  0  0  0  0  0
   -0.6920   21.4340  -29.7630 C   0  0  0  0  0  0  0  0  0  0  0  0
   -1.7760   19.2175  -25.8815 H   0  0  0  0  0  0  0  0  0  0  0  0
   -2.0273   18.2792  -27.3925 H   0  0  0  0  0  0  0  0  0  0  0  0
   -0.9367   19.7066  -27.3925 H   0  0  0  0  0  0  0  0  0  0  0  0
   -3.7841   19.5966  -27.8982 H   0  0  0  0  0  0  0  0  0  0  0  0
   -3.4818   20.5775  -26.4112 H   0  0  0  0  0  0  0  0  0  0  0  0
   -2.9607   22.6100  -26.5478 H   0  0  0  0  0  0  0  0  0  0  0  0
   -1.5622   23.0511  -27.6229 H   0  0  0  0  0  0  0  0  0  0  0  0
   -4.5084   23.2499  -28.4046 H   0  0  0  0  0  0  0  0  0  0  0  0
   -3.4573   24.6232  -27.8466 H   0  0  0  0  0  0  0  0  0  0  0  0
   -1.9159   24.1094  -29.7721 H   0  0  0  0  0  0  0  0  0  0  0  0
   -3.1616   22.9569  -30.3772 H   0  0  0  0  0  0  0  0  0  0  0  0
   -7.5762   24.1214  -30.1332 H   0  0  0  0  0  0  0  0  0  0  0  0
   -8.9373   21.9419  -29.3053 H   0  0  0  0  0  0  0  0  0  0  0  0
   -9.6674   22.7308  -30.7446 H   0  0  0  0  0  0  0  0  0  0  0  0
   -9.3721   20.9590  -30.7446 H   0  0  0  0  0  0  0  0  0  0  0  0
   -8.6283   19.7404  -31.6305 H   0  0  0  0  0  0  0  0  0  0  0  0
   -7.4539   18.0382  -33.0043 H   0  0  0  0  0  0  0  0  0  0  0  0
   -3.2580   15.2686  -33.0634 H   0  0  0  0  0  0  0  0  0  0  0  0
   -4.1458   14.7960  -34.5518 H   0  0  0  0  0  0  0  0  0  0  0  0
   -3.1096   16.2633  -34.5518 H   0  0  0  0  0  0  0  0  0  0  0  0
   -6.7411   15.5032  -32.9865 H   0  0  0  0  0  0  0  0  0  0  0  0
   -6.8101   16.4824  -34.4908 H   0  0  0  0  0  0  0  0  0  0  0  0
   -5.9715   14.8938  -34.4908 H   0  0  0  0  0  0  0  0  0  0  0  0
   -4.0588   20.6728  -33.4172 H   0  0  0  0  0  0  0  0  0  0  0  0
   -3.8530   20.2483  -30.3160 H   0  0  0  0  0  0  0  0  0  0  0  0
   -2.8559   19.7873  -32.5497 H   0  0  0  0  0  0  0  0  0  0  0  0
   -0.4793   20.3912  -33.0114 H   0  0  0  0  0  0  0  0  0  0  0  0
    0.9037   21.4573  -31.2299 H   0  0  0  0  0  0  0  0  0  0  0  0
   -0.0752   21.9031  -28.9822 H   0  0  0  0  0  0  0  0  0  0  0  0
  1  2  1  0
  2  3  1  0
  3  4  1  0
  4  5  1  0
  5  6  1  0
  6  7  1  0
  7  8  1  0
  8  9  2  0
  8 10  1  0
 10 11  2  0
 11 12  1  0
 12 13  1  0
 12 14  1  0
 14 15  2  0
 15 16  1  0
 16 17  2  0
 17 18  1  0
 18 19  2  0
 18 20  2  0
 18 21  1  0
 21 22  1  0
 21 23  1  0
 17 24  1  0
 24 25  2  0
 25 26  1  0
 26 27  2  0
  3 28  1  0
 28 29  2  0
 29 30  1  0
 30 31  2  0
 31 32  1  0
 32 33  2  0
 26 10  1  0
 33 28  1  0
 25 14  1  0
  1 34  1  0
  1 35  1  0
  1 36  1  0
  2 37  1  0
  2 38  1  0
  4 39  1  0
  4 40  1  0
  5 41  1  0
  5 42  1  0
  6 43  1  0
  6 44  1  0
 11 45  1  0
 13 46  1  0
 13 47  1  0
 13 48  1  0
 15 49  1  0
 16 50  1  0
 22 51  1  0
 22 52  1  0
 22 53  1  0
 23 54  1  0
 23 55  1  0
 23 56  1  0
 24 57  1  0
 29 58  1  0
 30 59  1  0
 31 60  1  0
 32 61  1  0
 33 62  1  0
M  CHG  1   7  -1
M  END
>  <UniqueID>  (41) 
40

>  <SMILES>  (41) 
CCN(CCC[N-]C(=O)c1cn(C)c2ccc(S(=O)(=O)N(C)C)cc2c1=O)c1ccccc1

>  <Energy>  (41) 
69.82524144208033

>  <Genealogy>  (41) 
CCN(CCC[N-]C(=O)c1cn(C)c2ccc(S(=O)(=O)N(C)C)cc2c1=O)c1ccccc1 (protonated)
CCN(CCC[N-]C(=O)c1cn(C)c2ccc(S(=O)(=O)N(C)C)cc2c1=O)c1ccccc1 (3D coordinates assigned)
CCN(CCC[N-]C(=O)c1cn(C)c2ccc(S(=O)(=O)N(C)C)cc2c1=O)c1ccccc1 (optimized conformer: 69.82524144208033 kcal/mol)

>  <smiles>  (41) 
CCN(CCCNC(=O)c1cn(C)c2ccc(S(=O)(=O)N(C)C)cc2c1=O)c1ccccc1

>  <score_type>  (41) 
oracle

>  <origin>  (41) 
adgpu

>  <m_score__min__energy>  (41) 
-11.609999999999999

>  <m_primary>  (41) 
energy

$$$$
41:0
     RDKit          3D

 38 40  0  0  0  0  0  0  0  0999 V2000
   -9.3060   20.0900  -32.6580 C   0  0  0  0  0  0  0  0  0  0  0  0
   -8.2290   21.0120  -32.1660 C   0  0  0  0  0  0  0  0  0  0  0  0
   -8.5340   22.0280  -31.2490 C   0  0  0  0  0  0  0  0  0  0  0  0
   -7.5260   22.8660  -30.7620 C   0  0  0  0  0  0  0  0  0  0  0  0
   -6.1900   22.6920  -31.1720 C   0  0  0  0  0  0  0  0  0  0  0  0
   -5.1080   23.5700  -30.6660 C   0  0  0  0  0  0  0  0  0  0  0  0
   -4.2130   23.2890  -29.6460 C   0  0  0  0  0  0  0  0  0  0  0  0
   -3.4390   24.4260  -29.5730 C   0  0  0  0  0  0  0  0  0  0  0  0
   -2.2990   24.6660  -28.6340 C   0  0  0  0  0  0  0  0  0  0  0  0
   -1.1440   23.9330  -29.0440 O   0  0  0  0  0  0  0  0  0  0  0  0
   -1.0360   22.5330  -29.0640 C   0  0  0  0  0  0  0  0  0  0  0  0
   -0.4470   21.8330  -30.1340 C   0  0  0  0  0  0  0  0  0  0  0  0
   -0.3490   20.4410  -30.0930 C   0  0  0  0  0  0  0  0  0  0  0  0
   -0.8460   19.7320  -28.9970 C   0  0  0  0  0  0  0  0  0  0  0  0
   -1.4670   20.4110  -27.9350 C   0  0  0  0  0  0  0  0  0  0  0  0
   -1.9600   19.6530  -26.7280 C   0  0  0  0  0  0  0  0  0  0  0  0
   -1.5420   20.3010  -25.5810 F   0  0  0  0  0  0  0  0  0  0  0  0
   -3.3430   19.5820  -26.7280 F   0  0  0  0  0  0  0  0  0  0  0  0
   -1.4620   18.3620  -26.7240 F   0  0  0  0  0  0  0  0  0  0  0  0
   -1.5370   21.8150  -27.9710 C   0  0  0  0  0  0  0  0  0  0  0  0
   -3.8490   25.2830  -30.4780 O   0  0  0  0  0  0  0  0  0  0  0  0
   -4.8530   24.8020  -31.1520 N   0  0  0  0  0  0  0  0  0  0  0  0
   -5.8900   21.6580  -32.0780 C   0  0  0  0  0  0  0  0  0  0  0  0
   -6.9000   20.8220  -32.5640 C   0  0  0  0  0  0  0  0  0  0  0  0
   -9.8274   19.6436  -31.7984 H   0  0  0  0  0  0  0  0  0  0  0  0
  -10.0241   20.6576  -33.2681 H   0  0  0  0  0  0  0  0  0  0  0  0
   -8.8559   19.2930  -33.2681 H   0  0  0  0  0  0  0  0  0  0  0  0
   -9.5716   22.1666  -30.9110 H   0  0  0  0  0  0  0  0  0  0  0  0
   -7.7788   23.6679  -30.0527 H   0  0  0  0  0  0  0  0  0  0  0  0
   -4.1384   22.3748  -29.0387 H   0  0  0  0  0  0  0  0  0  0  0  0
   -2.0601   25.7397  -28.6231 H   0  0  0  0  0  0  0  0  0  0  0  0
   -2.5924   24.3299  -27.6285 H   0  0  0  0  0  0  0  0  0  0  0  0
   -0.0629   22.3844  -31.0049 H   0  0  0  0  0  0  0  0  0  0  0  0
    0.1216   19.9003  -30.9274 H   0  0  0  0  0  0  0  0  0  0  0  0
   -0.7508   18.6366  -28.9650 H   0  0  0  0  0  0  0  0  0  0  0  0
   -1.9917   22.3570  -27.1287 H   0  0  0  0  0  0  0  0  0  0  0  0
   -4.8514   21.5060  -32.4069 H   0  0  0  0  0  0  0  0  0  0  0  0
   -6.6491   20.0105  -33.2629 H   0  0  0  0  0  0  0  0  0  0  0  0
  1  2  1  0
  2  3  2  0
  3  4  1  0
  4  5  2  0
  5  6  1  0
  6  7  1  0
  7  8  2  0
  8  9  1  0
  9 10  1  0
 10 11  1  0
 11 12  2  0
 12 13  1  0
 13 14  2  0
 14 15  1  0
 15 16  1  0
 16 17  1  0
 16 18  1  0
 16 19  1  0
 15 20  2  0
  8 21  1  0
 21 22  1  0
  5 23  1  0
 23 24  2  0
 24  2  1  0
 22  6  2  0
 20 11  1  0
  1 25  1  0
  1 26  1  0
  1 27  1  0
  3 28  1  0
  4 29  1  0
  7 30  1  0
  9 31  1  0
  9 32  1  0
 12 33  1  0
 13 34  1  0
 14 35  1  0
 20 36  1  0
 23 37  1  0
 24 38  1  0
M  END
>  <UniqueID>  (42) 
41

>  <SMILES>  (42) 
Cc1ccc(-c2cc(COc3cccc(C(F)(F)F)c3)on2)cc1

>  <Energy>  (42) 
70.95009627939402

>  <Genealogy>  (42) 
Cc1ccc(-c2cc(COc3cccc(C(F)(F)F)c3)on2)cc1 (3D coordinates assigned)
Cc1ccc(-c2cc(COc3cccc(C(F)(F)F)c3)on2)cc1 (optimized conformer: 70.95009627939402 kcal/mol)

>  <smiles>  (42) 
Cc1ccc(-c2cc(COc3cccc(C(F)(F)F)c3)on2)cc1

>  <score_type>  (42) 
oracle

>  <origin>  (42) 
adgpu

>  <m_score__min__energy>  (42) 
-9.1099999999999994

>  <m_primary>  (42) 
energy

$$$$
42:0
     RDKit          3D

 31 32  0  0  0  0  0  0  0  0999 V2000
   -6.0350   25.6960  -31.2000 O   0  0  0  0  0  0  0  0  0  0  0  0
   -5.2740   25.0070  -30.4670 C   0  0  0  0  0  0  0  0  0  0  0  0
   -3.8660   25.2560  -30.4570 N   0  0  0  0  0  0  0  0  0  0  0  0
   -2.7830   24.3880  -29.4220 S   0  0  0  0  0  0  0  0  0  0  0  0
   -3.5170   23.9080  -28.2020 O   0  0  0  0  0  0  0  0  0  0  0  0
   -1.6730   25.3030  -28.9870 O   0  0  0  0  0  0  0  0  0  0  0  0
   -2.1030   23.0280  -30.2940 C   0  0  0  0  0  0  0  0  0  0  0  0
   -0.8700   22.4430  -30.0430 C   0  0  0  0  0  0  0  0  0  0  0  0
   -0.5650   21.4100  -30.9350 C   0  0  0  0  0  0  0  0  0  0  0  0
   -1.5580   21.1950  -31.8800 C   0  0  0  0  0  0  0  0  0  0  0  0
   -1.5060   20.0060  -33.1640 Cl  0  0  0  0  0  0  0  0  0  0  0  0
   -2.8150   22.2820  -31.6230 S   0  0  0  0  0  0  0  0  0  0  0  0
   -5.8290   24.0000  -29.6060 N   0  0  0  0  0  0  0  0  0  0  0  0
   -7.1930   23.6370  -30.0250 C   0  0  0  0  0  0  0  0  0  0  0  0
   -7.1980   22.4610  -30.9740 C   0  0  0  0  0  0  0  0  0  0  0  0
   -8.3340   21.6430  -31.0870 C   0  0  0  0  0  0  0  0  0  0  0  0
   -8.3470   20.5760  -31.9900 C   0  0  0  0  0  0  0  0  0  0  0  0
   -7.2300   20.3220  -32.7900 C   0  0  0  0  0  0  0  0  0  0  0  0
   -6.0980   21.1340  -32.6880 C   0  0  0  0  0  0  0  0  0  0  0  0
   -6.0800   22.2010  -31.7850 C   0  0  0  0  0  0  0  0  0  0  0  0
   -0.2024   22.7587  -29.2278 H   0  0  0  0  0  0  0  0  0  0  0  0
    0.3670   20.8274  -30.8919 H   0  0  0  0  0  0  0  0  0  0  0  0
   -5.8650   24.3810  -28.6320 H   0  0  0  0  0  0  0  0  0  0  0  0
   -5.2170   23.1510  -29.6010 H   0  0  0  0  0  0  0  0  0  0  0  0
   -7.7813   23.3763  -29.1329 H   0  0  0  0  0  0  0  0  0  0  0  0
   -7.6288   24.4999  -30.5499 H   0  0  0  0  0  0  0  0  0  0  0  0
   -9.2171   21.8428  -30.4624 H   0  0  0  0  0  0  0  0  0  0  0  0
   -9.2377   19.9356  -32.0708 H   0  0  0  0  0  0  0  0  0  0  0  0
   -7.2420   19.4823  -33.5004 H   0  0  0  0  0  0  0  0  0  0  0  0
   -5.2196   20.9336  -33.3190 H   0  0  0  0  0  0  0  0  0  0  0  0
   -5.1875   22.8395  -31.7089 H   0  0  0  0  0  0  0  0  0  0  0  0
  1  2  2  0
  2  3  1  0
  3  4  1  0
  4  5  2  0
  4  6  2  0
  4  7  1  0
  7  8  2  0
  8  9  1  0
  9 10  2  0
 10 11  1  0
 10 12  1  0
  2 13  1  0
 13 14  1  0
 14 15  1  0
 15 16  2  0
 16 17  1  0
 17 18  2  0
 18 19  1  0
 19 20  2  0
 12  7  1  0
 20 15  1  0
  8 21  1  0
  9 22  1  0
 13 23  1  0
 13 24  1  0
 14 25  1  0
 14 26  1  0
 16 27  1  0
 17 28  1  0
 18 29  1  0
 19 30  1  0
 20 31  1  0
M  CHG  2   3  -1  13   1
M  END
>  <UniqueID>  (43) 
42

>  <SMILES>  (43) 
O=C([N-]S(=O)(=O)c1ccc(Cl)s1)[NH2+]Cc1ccccc1

>  <Energy>  (43) 
56.56198156889393

>  <Genealogy>  (43) 
O=C([N-]S(=O)(=O)c1ccc(Cl)s1)[NH2+]Cc1ccccc1 (protonated)
O=C([N-]S(=O)(=O)c1ccc(Cl)s1)[NH2+]Cc1ccccc1 (3D coordinates assigned)
O=C([N-]S(=O)(=O)c1ccc(Cl)s1)[NH2+]Cc1ccccc1 (optimized conformer: 56.56198156889393 kcal/mol)

>  <smiles>  (43) 
O=C(NCc1ccccc1)NS(=O)(=O)c1ccc(Cl)s1

>  <score_type>  (43) 
oracle

>  <origin>  (43) 
adgpu

>  <m_score__min__energy>  (43) 
-8.2899999999999991

>  <m_primary>  (43) 
energy

$$$$
43:0
     RDKit          3D

 50 53  0  0  0  0  0  0  0  0999 V2000
   -0.8426   25.5734  -24.9711 H   0  0  0  0  0  0  0  0  0  0  0  0
   -1.2620   25.4310  -25.9780 C   0  0  0  0  0  0  0  0  0  0  0  0
   -2.4490   24.7930  -26.1400 N   0  0  0  0  0  0  0  0  0  0  0  0
   -2.9870   24.5910  -27.3700 C   0  0  0  0  0  0  0  0  0  0  0  0
   -3.9488   24.0679  -27.4758 H   0  0  0  0  0  0  0  0  0  0  0  0
   -2.3030   25.0570  -28.5090 C   0  0  0  0  0  0  0  0  0  0  0  0
   -2.7670   24.9220  -29.7200 N   0  0  0  0  0  0  0  0  0  0  0  0
   -3.9340   24.1920  -30.1310 C   0  0  0  0  0  0  0  0  0  0  0  0
   -3.9150   22.7930  -30.2440 C   0  0  0  0  0  0  0  0  0  0  0  0
   -3.0036   22.2351  -29.9832 H   0  0  0  0  0  0  0  0  0  0  0  0
   -5.0480   22.1060  -30.6860 C   0  0  0  0  0  0  0  0  0  0  0  0
   -5.0264   21.0089  -30.7629 H   0  0  0  0  0  0  0  0  0  0  0  0
   -6.2150   22.8070  -31.0330 C   0  0  0  0  0  0  0  0  0  0  0  0
   -7.4330   22.0910  -31.4820 C   0  0  0  0  0  0  0  0  0  0  0  0
   -8.4840   22.1730  -30.7940 O   0  0  0  0  0  0  0  0  0  0  0  0
   -7.4640   21.3190  -32.6910 N   0  0  0  0  0  0  0  0  0  0  0  0
   -7.0750   19.9410  -32.8190 C   0  0  0  0  0  0  0  0  0  0  0  0
   -7.9980   18.8850  -32.6010 C   0  0  0  0  0  0  0  0  0  0  0  0
   -9.4520   19.1370  -32.3020 C   0  0  0  0  0  0  0  0  0  0  0  0
   -9.6032   19.1632  -31.2127 H   0  0  0  0  0  0  0  0  0  0  0  0
   -9.7542   20.1009  -32.7374 H   0  0  0  0  0  0  0  0  0  0  0  0
  -10.0609   18.3310  -32.7374 H   0  0  0  0  0  0  0  0  0  0  0  0
   -7.5490   17.5560  -32.6640 C   0  0  0  0  0  0  0  0  0  0  0  0
   -8.2485   16.7339  -32.4526 H   0  0  0  0  0  0  0  0  0  0  0  0
   -6.2250   17.2690  -32.9920 C   0  0  0  0  0  0  0  0  0  0  0  0
   -5.8845   16.2239  -33.0340 H   0  0  0  0  0  0  0  0  0  0  0  0
   -5.3310   18.3030  -33.2670 C   0  0  0  0  0  0  0  0  0  0  0  0
   -4.2912   18.0689  -33.5389 H   0  0  0  0  0  0  0  0  0  0  0  0
   -5.7500   19.6410  -33.1990 C   0  0  0  0  0  0  0  0  0  0  0  0
   -4.7620   20.7440  -33.4630 C   0  0  0  0  0  0  0  0  0  0  0  0
   -4.3997   21.1485  -32.5064 H   0  0  0  0  0  0  0  0  0  0  0  0
   -3.9129   20.3458  -34.0379 H   0  0  0  0  0  0  0  0  0  0  0  0
   -5.2509   21.5443  -34.0379 H   0  0  0  0  0  0  0  0  0  0  0  0
   -6.2070   24.2110  -30.9780 C   0  0  0  0  0  0  0  0  0  0  0  0
   -7.1004   24.7743  -31.2853 H   0  0  0  0  0  0  0  0  0  0  0  0
   -5.0730   24.8970  -30.5360 C   0  0  0  0  0  0  0  0  0  0  0  0
   -5.0755   25.9966  -30.5062 H   0  0  0  0  0  0  0  0  0  0  0  0
   -1.1270   25.7140  -28.3340 N   0  0  0  0  0  0  0  0  0  0  0  0
   -0.5730   25.9080  -27.1050 C   0  0  0  0  0  0  0  0  0  0  0  0
    0.7200   26.6330  -26.9910 C   0  0  0  0  0  0  0  0  0  0  0  0
    1.9310   25.9320  -27.1470 C   0  0  0  0  0  0  0  0  0  0  0  0
    1.9133   24.8525  -27.3579 H   0  0  0  0  0  0  0  0  0  0  0  0
    3.1560   26.5970  -27.0360 C   0  0  0  0  0  0  0  0  0  0  0  0
    4.0962   26.0408  -27.1647 H   0  0  0  0  0  0  0  0  0  0  0  0
    3.1880   27.9660  -26.7620 C   0  0  0  0  0  0  0  0  0  0  0  0
    4.4070   28.6240  -26.6520 O   0  0  0  0  0  0  0  0  0  0  0  0
    1.9950   28.6710  -26.5940 C   0  0  0  0  0  0  0  0  0  0  0  0
    2.0209   29.7486  -26.3745 H   0  0  0  0  0  0  0  0  0  0  0  0
    0.7670   28.0110  -26.7040 C   0  0  0  0  0  0  0  0  0  0  0  0
   -0.1689   28.5722  -26.5654 H   0  0  0  0  0  0  0  0  0  0  0  0
  1  2  1  0
  2  3  1  0
  3  4  2  0
  4  5  1  0
  4  6  1  0
  6  7  2  0
  7  8  1  0
  8  9  2  0
  9 10  1  0
  9 11  1  0
 11 12  1  0
 11 13  2  0
 13 14  1  0
 14 15  2  0
 14 16  1  0
 16 17  1  0
 17 18  2  0
 18 19  1  0
 19 20  1  0
 19 21  1  0
 19 22  1  0
 18 23  1  0
 23 24  1  0
 23 25  2  0
 25 26  1  0
 25 27  1  0
 27 28  1  0
 27 29  2  0
 29 30  1  0
 30 31  1  0
 30 32  1  0
 30 33  1  0
 13 34  1  0
 34 35  1  0
 34 36  2  0
 36 37  1  0
  6 38  1  0
 38 39  1  0
 39 40  1  0
 40 41  2  0
 41 42  1  0
 41 43  1  0
 43 44  1  0
 43 45  2  0
 45 46  1  0
 45 47  1  0
 47 48  1  0
 47 49  2  0
 49 50  1  0
 39  2  2  0
 49 40  1  0
 36  8  1  0
 29 17  1  0
M  CHG  3  16  -1  38  -1  46  -1
M  END
>  <UniqueID>  (44) 
43

>  <SMILES>  (44) 
Cc1cccc(C)c1[N-]C(=O)c1ccc(/N=c2\cncc(-c3ccc([O-])cc3)[n-]2)cc1

>  <Energy>  (44) 
79.38392559071256

>  <Genealogy>  (44) 
Cc1cccc(C)c1[N-]C(=O)c1ccc(N=c2cncc(-c3ccc([O-])cc3)[n-]2)cc1 (protonated)
Cc1cccc(C)c1[N-]C(=O)c1ccc(/N=c2\cncc(-c3ccc([O-])cc3)[n-]2)cc1 (cis-trans isomerization)
Cc1cccc(C)c1[N-]C(=O)c1ccc(/N=c2\cncc(-c3ccc([O-])cc3)[n-]2)cc1 (3D coordinates assigned)
Cc1cccc(C)c1[N-]C(=O)c1ccc(/N=c2\cncc(-c3ccc([O-])cc3)[n-]2)cc1 (optimized conformer: 79.38392559071256 kcal/mol)

>  <smiles>  (44) 
Cc1cccc(C)c1NC(=O)c1ccc(N=c2cncc(-c3ccc(O)cc3)[nH]2)cc1

>  <score_type>  (44) 
oracle

>  <origin>  (44) 
adgpu

>  <m_score__min__energy>  (44) 
-10.4

>  <m_primary>  (44) 
energy

$$$$
44:0
     RDKit          3D

 49 52  0  0  1  0  0  0  0  0999 V2000
   -7.9200   18.7310  -32.6630 C   0  0  0  0  0  0  0  0  0  0  0  0
   -6.8090   18.0370  -33.3480 C   0  0  0  0  0  0  0  0  0  0  0  0
   -6.8540   16.6570  -33.4520 C   0  0  0  0  0  0  0  0  0  0  0  0
   -5.8240   15.9840  -34.0910 C   0  0  0  0  0  0  0  0  0  0  0  0
   -4.7800   16.7240  -34.6030 C   0  0  0  0  0  0  0  0  0  0  0  0
   -3.4580   15.8920  -35.4180 Cl  0  0  0  0  0  0  0  0  0  0  0  0
   -4.7080   18.0970  -34.5140 C   0  0  0  0  0  0  0  0  0  0  0  0
   -5.7410   18.7550  -33.8770 C   0  0  0  0  0  0  0  0  0  0  0  0
   -5.7690   20.1720  -33.7290 N   0  0  0  0  0  0  0  0  0  0  0  0
   -5.0580   20.7120  -32.6120 C   0  0  0  0  0  0  0  0  0  0  0  0
   -4.4800   19.9000  -31.8680 O   0  0  0  0  0  0  0  0  0  0  0  0
   -5.0360   22.1010  -32.3930 N   0  0  0  0  0  0  0  0  0  0  0  0
   -4.3830   22.7750  -31.3430 C   0  0  0  0  0  0  0  0  0  0  0  0
   -5.1490   23.5660  -30.4980 C   0  0  0  0  0  0  0  0  0  0  0  0
   -4.5890   24.2580  -29.4470 C   0  0  0  0  0  0  0  0  0  0  0  0
   -3.2390   24.2050  -29.1750 C   0  0  0  0  0  0  0  0  0  0  0  0
   -2.6580   24.9190  -28.0910 N   0  0  0  0  0  0  0  0  0  0  0  0
   -1.9770   24.3310  -27.1800 C   0  0  0  0  0  0  0  0  0  0  0  0
   -1.7980   22.9920  -27.2380 N   0  0  0  0  0  0  0  0  0  0  0  0
   -1.0770   22.4160  -26.2610 C   0  0  0  0  0  0  0  0  0  0  0  0
   -0.5320   23.1020  -25.2420 N   0  0  0  0  0  0  0  0  0  0  0  0
   -0.6850   24.4360  -25.1440 C   0  0  0  0  0  0  0  0  0  0  0  0
   -0.1230   25.1430  -24.0930 C   0  0  0  0  0  0  0  0  0  0  0  0
   -0.3080   26.5130  -24.0370 C   0  0  0  0  0  0  0  0  0  0  0  0
    0.2360   27.2950  -22.9930 N   0  0  0  0  0  0  0  0  0  0  0  0
   -1.0490   27.0980  -25.0410 C   0  0  0  0  0  0  0  0  0  0  0  0
   -1.6130   26.4370  -26.0830 C   0  0  0  0  0  0  0  0  0  0  0  0
   -1.4260   25.0560  -26.1410 C   0  0  0  0  0  0  0  0  0  0  0  0
   -2.4690   23.4220  -30.0080 C   0  0  0  0  0  0  0  0  0  0  0  0
   -3.0390   22.7230  -31.0690 C   0  0  0  0  0  0  0  0  0  0  0  0
   -7.7880   18.6485  -31.5741 H   0  0  0  0  0  0  0  0  0  0  0  0
   -7.9235   19.7922  -32.9526 H   0  0  0  0  0  0  0  0  0  0  0  0
   -8.8752   18.2687  -32.9526 H   0  0  0  0  0  0  0  0  0  0  0  0
   -7.7021   16.0979  -33.0300 H   0  0  0  0  0  0  0  0  0  0  0  0
   -5.8396   14.8883  -34.1868 H   0  0  0  0  0  0  0  0  0  0  0  0
   -3.8562   18.6502  -34.9363 H   0  0  0  0  0  0  0  0  0  0  0  0
   -6.2870   20.7490  -34.4140 H   0  0  0  0  0  0  0  0  0  0  0  0
   -5.5680   22.6860  -33.0980 H   0  0  0  0  0  0  0  0  0  0  0  0
   -6.2324   23.6423  -30.6724 H   0  0  0  0  0  0  0  0  0  0  0  0
   -5.2388   24.8714  -28.8055 H   0  0  0  0  0  0  0  0  0  0  0  0
   -0.9252   21.3271  -26.2973 H   0  0  0  0  0  0  0  0  0  0  0  0
    0.0180   22.5810  -24.5170 H   0  0  0  0  0  0  0  0  0  0  0  0
    0.4596   24.6244  -23.3173 H   0  0  0  0  0  0  0  0  0  0  0  0
   -0.0680   28.2960  -22.8450 H   0  0  0  0  0  0  0  0  0  0  0  0
    0.9600   26.9400  -22.3150 H   0  0  0  0  0  0  0  0  0  0  0  0
   -1.1947   28.1873  -24.9938 H   0  0  0  0  0  0  0  0  0  0  0  0
   -2.1941   26.9686  -26.8509 H   0  0  0  0  0  0  0  0  0  0  0  0
   -1.3857   23.3480  -29.8317 H   0  0  0  0  0  0  0  0  0  0  0  0
   -2.3898   22.1080  -31.7096 H   0  0  0  0  0  0  0  0  0  0  0  0
  1  2  1  0
  2  3  2  0
  3  4  1  0
  4  5  2  0
  5  6  1  0
  5  7  1  0
  7  8  2  0
  8  9  1  0
  9 10  1  0
 10 11  2  0
 10 12  1  0
 12 13  1  0
 13 14  2  0
 14 15  1  0
 15 16  2  0
 16 17  1  0
 17 18  2  0
 18 19  1  0
 19 20  2  0
 20 21  1  0
 21 22  1  0
 22 23  2  0
 23 24  1  0
 24 25  1  0
 24 26  2  0
 26 27  1  0
 27 28  2  0
 16 29  1  0
 29 30  2  0
  8  2  1  0
 30 13  1  0
 28 18  1  0
 28 22  1  0
  1 31  1  0
  1 32  1  0
  1 33  1  0
  3 34  1  0
  4 35  1  0
  7 36  1  0
  9 37  1  0
 12 38  1  0
 14 39  1  0
 15 40  1  0
 20 41  1  0
 21 42  1  0
 23 43  1  0
 25 44  1  0
 25 45  1  0
 26 46  1  0
 27 47  1  0
 29 48  1  0
 30 49  1  0
M  END
>  <smiles>  (45) 
Cc1ccc(Cl)cc1NC(=O)Nc1ccc(N=c2nc[nH]c3cc(N)ccc23)cc1

>  <score_type>  (45) 
oracle

>  <origin>  (45) 
adgpu

>  <m_score__min__energy>  (45) 
-9.5399999999999991

>  <m_primary>  (45) 
energy

$$$$
45:0
     RDKit          3D

 52 55  0  0  0  0  0  0  0  0999 V2000
   -4.5720   24.3820  -31.2180 O   0  0  0  0  0  0  0  0  0  0  0  0
   -4.1220   23.2390  -30.9310 C   0  0  0  0  0  0  0  0  0  0  0  0
   -4.4660   22.0930  -31.7950 C   0  0  0  0  0  0  0  0  0  0  0  0
   -3.4530   21.2840  -32.3330 C   0  0  0  0  0  0  0  0  0  0  0  0
   -3.7780   20.1840  -33.1300 C   0  0  0  0  0  0  0  0  0  0  0  0
   -5.1200   19.8840  -33.4070 C   0  0  0  0  0  0  0  0  0  0  0  0
   -5.5350   18.4660  -34.3690 S   0  0  0  0  0  0  0  0  0  0  0  0
   -6.0720   18.9210  -35.6970 O   0  0  0  0  0  0  0  0  0  0  0  0
   -4.2900   17.6630  -34.6290 O   0  0  0  0  0  0  0  0  0  0  0  0
   -6.7240   17.4470  -33.5820 N   0  0  0  0  0  0  0  0  0  0  0  0
   -7.7950   18.2230  -32.9190 C   0  0  0  0  0  0  0  0  0  0  0  0
   -7.6200   18.3010  -31.3930 C   0  0  0  0  0  0  0  0  0  0  0  0
   -6.2550   18.2590  -31.0540 O   0  0  0  0  0  0  0  0  0  0  0  0
   -5.7380   16.9680  -31.3100 C   0  0  0  0  0  0  0  0  0  0  0  0
   -6.1090   16.4280  -32.7130 C   0  0  0  0  0  0  0  0  0  0  0  0
   -6.1300   20.7140  -32.9030 C   0  0  0  0  0  0  0  0  0  0  0  0
   -5.8070   21.8120  -32.1030 C   0  0  0  0  0  0  0  0  0  0  0  0
   -3.2780   23.0780  -29.7730 N   0  0  0  0  0  0  0  0  0  0  0  0
   -3.6030   23.8100  -28.5440 C   0  0  0  0  0  0  0  0  0  0  0  0
   -2.4430   24.6670  -28.1490 C   0  0  0  0  0  0  0  0  0  0  0  0
   -1.7300   24.5690  -26.9720 C   0  0  0  0  0  0  0  0  0  0  0  0
   -0.7340   25.5170  -27.0640 C   0  0  0  0  0  0  0  0  0  0  0  0
   -0.8980   26.1290  -28.2910 C   0  0  0  0  0  0  0  0  0  0  0  0
   -1.9250   25.5970  -28.9150 O   0  0  0  0  0  0  0  0  0  0  0  0
   -2.0670   22.2450  -29.8430 C   0  0  0  0  0  0  0  0  0  0  0  0
   -2.0560   21.2560  -28.7220 C   0  0  0  0  0  0  0  0  0  0  0  0
   -0.9330   20.6610  -28.1810 C   0  0  0  0  0  0  0  0  0  0  0  0
   -1.3960   19.8590  -27.1600 C   0  0  0  0  0  0  0  0  0  0  0  0
   -2.7680   20.0180  -27.1400 C   0  0  0  0  0  0  0  0  0  0  0  0
   -3.1300   20.8580  -28.0810 O   0  0  0  0  0  0  0  0  0  0  0  0
   -2.3982   21.5174  -32.1260 H   0  0  0  0  0  0  0  0  0  0  0  0
   -2.9786   19.5506  -33.5420 H   0  0  0  0  0  0  0  0  0  0  0  0
   -7.7910   19.2451  -33.3255 H   0  0  0  0  0  0  0  0  0  0  0  0
   -8.7467   17.7079  -33.1164 H   0  0  0  0  0  0  0  0  0  0  0  0
   -8.0561   19.2416  -31.0256 H   0  0  0  0  0  0  0  0  0  0  0  0
   -8.1295   17.4427  -30.9306 H   0  0  0  0  0  0  0  0  0  0  0  0
   -4.6417   17.0085  -31.2299 H   0  0  0  0  0  0  0  0  0  0  0  0
   -6.1821   16.2860  -30.5700 H   0  0  0  0  0  0  0  0  0  0  0  0
   -5.1937   16.0597  -33.1994 H   0  0  0  0  0  0  0  0  0  0  0  0
   -6.8508   15.6284  -32.5704 H   0  0  0  0  0  0  0  0  0  0  0  0
   -7.1828   20.4996  -33.1387 H   0  0  0  0  0  0  0  0  0  0  0  0
   -6.6061   22.4593  -31.7126 H   0  0  0  0  0  0  0  0  0  0  0  0
   -4.4845   24.4446  -28.7181 H   0  0  0  0  0  0  0  0  0  0  0  0
   -3.8188   23.0931  -27.7380 H   0  0  0  0  0  0  0  0  0  0  0  0
   -1.9172   23.8792  -26.1359 H   0  0  0  0  0  0  0  0  0  0  0  0
    0.0365   25.7411  -26.3116 H   0  0  0  0  0  0  0  0  0  0  0  0
   -0.2658   26.9380  -28.6857 H   0  0  0  0  0  0  0  0  0  0  0  0
   -2.0508   21.7072  -30.8024 H   0  0  0  0  0  0  0  0  0  0  0  0
   -1.1810   22.8916  -29.7603 H   0  0  0  0  0  0  0  0  0  0  0  0
    0.1113   20.7983  -28.4982 H   0  0  0  0  0  0  0  0  0  0  0  0
   -0.7945   19.2213  -26.4955 H   0  0  0  0  0  0  0  0  0  0  0  0
   -3.4534   19.5164  -26.4410 H   0  0  0  0  0  0  0  0  0  0  0  0
  1  2  2  0
  2  3  1  0
  3  4  2  0
  4  5  1  0
  5  6  2  0
  6  7  1  0
  7  8  2  0
  7  9  2  0
  7 10  1  0
 10 11  1  0
 11 12  1  0
 12 13  1  0
 13 14  1  0
 14 15  1  0
  6 16  1  0
 16 17  2  0
  2 18  1  0
 18 19  1  0
 19 20  1  0
 20 21  2  0
 21 22  1  0
 22 23  2  0
 23 24  1  0
 18 25  1  0
 25 26  1  0
 26 27  2  0
 27 28  1  0
 28 29  2  0
 29 30  1  0
 17  3  1  0
 24 20  1  0
 30 26  1  0
 15 10  1  0
  4 31  1  0
  5 32  1  0
 11 33  1  0
 11 34  1  0
 12 35  1  0
 12 36  1  0
 14 37  1  0
 14 38  1  0
 15 39  1  0
 15 40  1  0
 16 41  1  0
 17 42  1  0
 19 43  1  0
 19 44  1  0
 21 45  1  0
 22 46  1  0
 23 47  1  0
 25 48  1  0
 25 49  1  0
 27 50  1  0
 28 51  1  0
 29 52  1  0
M  END
>  <UniqueID>  (46) 
44

>  <SMILES>  (46) 
O=C(c1ccc(S(=O)(=O)N2CCOCC2)cc1)N(Cc1ccco1)Cc1ccco1

>  <Energy>  (46) 
116.82032312240567

>  <Genealogy>  (46) 
O=C(c1ccc(S(=O)(=O)N2CCOCC2)cc1)N(Cc1ccco1)Cc1ccco1 (3D coordinates assigned)
O=C(c1ccc(S(=O)(=O)N2CCOCC2)cc1)N(Cc1ccco1)Cc1ccco1 (nonaromatic ring conformer: 116.82032312240567 kcal/mol)

>  <smiles>  (46) 
O=C(c1ccc(S(=O)(=O)N2CCOCC2)cc1)N(Cc1ccco1)Cc1ccco1

>  <score_type>  (46) 
oracle

>  <origin>  (46) 
adgpu

>  <m_score__min__energy>  (46) 
-9.4600000000000009

>  <m_primary>  (46) 
energy

$$$$
46:0
     RDKit          3D

 38 40  0  0  0  0  0  0  0  0999 V2000
   -2.8510   22.6810  -32.2240 O   0  0  0  0  0  0  0  0  0  0  0  0
   -3.4310   22.4640  -31.1240 C   0  0  0  0  0  0  0  0  0  0  0  0
   -2.8490   21.5510  -30.1820 N   0  0  0  0  0  0  0  0  0  0  0  0
   -1.7590   20.6900  -30.5280 C   0  0  0  0  0  0  0  0  0  0  0  0
   -0.7410   20.3070  -29.6890 C   0  0  0  0  0  0  0  0  0  0  0  0
    0.0910   19.4930  -30.3660 N   0  0  0  0  0  0  0  0  0  0  0  0
   -0.3780   19.3310  -31.5960 N   0  0  0  0  0  0  0  0  0  0  0  0
   -1.5180   20.0400  -31.7270 C   0  0  0  0  0  0  0  0  0  0  0  0
   -2.3580   20.0250  -32.9460 C   0  0  0  0  0  0  0  0  0  0  0  0
   -2.1830   20.8900  -33.8420 O   0  0  0  0  0  0  0  0  0  0  0  0
   -3.3460   19.0100  -33.1600 N   0  0  0  0  0  0  0  0  0  0  0  0
   -4.7420   19.1150  -32.8480 C   0  0  0  0  0  0  0  0  0  0  0  0
   -5.3740   18.2020  -31.9890 C   0  0  0  0  0  0  0  0  0  0  0  0
   -6.7310   18.3460  -31.6820 C   0  0  0  0  0  0  0  0  0  0  0  0
   -7.4680   19.4250  -32.2000 C   0  0  0  0  0  0  0  0  0  0  0  0
   -8.9430   19.5530  -31.9100 C   0  0  0  0  0  0  0  0  0  0  0  0
   -9.4060   18.4370  -31.2350 F   0  0  0  0  0  0  0  0  0  0  0  0
   -9.6310   19.6760  -33.1030 F   0  0  0  0  0  0  0  0  0  0  0  0
   -9.1930   20.6670  -31.1280 F   0  0  0  0  0  0  0  0  0  0  0  0
   -6.8300   20.3360  -33.0610 C   0  0  0  0  0  0  0  0  0  0  0  0
   -5.4730   20.1890  -33.3660 C   0  0  0  0  0  0  0  0  0  0  0  0
   -4.6790   23.1950  -30.8020 C   0  0  0  0  0  0  0  0  0  0  0  0
   -5.9010   22.4960  -30.7760 C   0  0  0  0  0  0  0  0  0  0  0  0
   -7.0940   23.1620  -30.4820 C   0  0  0  0  0  0  0  0  0  0  0  0
   -7.0820   24.5300  -30.2030 C   0  0  0  0  0  0  0  0  0  0  0  0
   -5.8740   25.2320  -30.2080 C   0  0  0  0  0  0  0  0  0  0  0  0
   -4.6740   24.5740  -30.4970 C   0  0  0  0  0  0  0  0  0  0  0  0
   -3.4850   25.2940  -30.4490 O   0  0  0  0  0  0  0  0  0  0  0  0
   -3.0390   21.7040  -29.1660 H   0  0  0  0  0  0  0  0  0  0  0  0
   -0.6248   20.6141  -28.6391 H   0  0  0  0  0  0  0  0  0  0  0  0
   -4.7997   17.3700  -31.5556 H   0  0  0  0  0  0  0  0  0  0  0  0
   -7.2248   17.6098  -31.0307 H   0  0  0  0  0  0  0  0  0  0  0  0
   -7.4015   21.1687  -33.4969 H   0  0  0  0  0  0  0  0  0  0  0  0
   -4.9771   20.9233  -34.0179 H   0  0  0  0  0  0  0  0  0  0  0  0
   -5.9168   21.4169  -30.9888 H   0  0  0  0  0  0  0  0  0  0  0  0
   -8.0440   22.6075  -30.4704 H   0  0  0  0  0  0  0  0  0  0  0  0
   -8.0227   25.0546  -29.9795 H   0  0  0  0  0  0  0  0  0  0  0  0
   -5.8666   26.3088  -29.9833 H   0  0  0  0  0  0  0  0  0  0  0  0
  1  2  2  0
  2  3  1  0
  3  4  1  0
  4  5  1  0
  5  6  2  0
  6  7  1  0
  7  8  1  0
  8  9  1  0
  9 10  2  0
  9 11  1  0
 11 12  1  0
 12 13  2  0
 13 14  1  0
 14 15  2  0
 15 16  1  0
 16 17  1  0
 16 18  1  0
 16 19  1  0
 15 20  1  0
 20 21  2  0
  2 22  1  0
 22 23  2  0
 23 24  1  0
 24 25  2  0
 25 26  1  0
 26 27  2  0
 27 28  1  0
  8  4  2  0
 21 12  1  0
 27 22  1  0
  3 29  1  0
  5 30  1  0
 13 31  1  0
 14 32  1  0
 20 33  1  0
 21 34  1  0
 23 35  1  0
 24 36  1  0
 25 37  1  0
 26 38  1  0
M  CHG  3   7  -1  11  -1  28  -1
M  END
>  <UniqueID>  (47) 
45

>  <SMILES>  (47) 
O=C(Nc1cn[n-]c1C(=O)[N-]c1ccc(C(F)(F)F)cc1)c1ccccc1[O-]

>  <Energy>  (47) 
87.81591817907554

>  <Genealogy>  (47) 
O=C(Nc1cn[n-]c1C(=O)[N-]c1ccc(C(F)(F)F)cc1)c1ccccc1[O-] (protonated)
O=C(Nc1cn[n-]c1C(=O)[N-]c1ccc(C(F)(F)F)cc1)c1ccccc1[O-] (3D coordinates assigned)
O=C(Nc1cn[n-]c1C(=O)[N-]c1ccc(C(F)(F)F)cc1)c1ccccc1[O-] (optimized conformer: 87.81591817907554 kcal/mol)

>  <smiles>  (47) 
O=C(Nc1cn[nH]c1C(=O)Nc1ccc(C(F)(F)F)cc1)c1ccccc1O

>  <score_type>  (47) 
oracle

>  <origin>  (47) 
adgpu

>  <m_score__min__energy>  (47) 
-11.15

>  <m_primary>  (47) 
energy

$$$$
47:0
     RDKit          3D

 47 50  0  0  0  0  0  0  0  0999 V2000
   -4.8250   16.9440  -34.4600 C   0  0  0  0  0  0  0  0  0  0  0  0
   -5.8510   17.7590  -33.7310 C   0  0  0  0  0  0  0  0  0  0  0  0
   -6.8430   17.1260  -32.9430 C   0  0  0  0  0  0  0  0  0  0  0  0
   -7.7890   17.8880  -32.2390 C   0  0  0  0  0  0  0  0  0  0  0  0
   -7.7190   19.2740  -32.3360 C   0  0  0  0  0  0  0  0  0  0  0  0
   -8.7110   20.4260  -31.6240 S   0  0  0  0  0  0  0  0  0  0  0  0
   -7.8410   21.6980  -32.3250 C   0  0  0  0  0  0  0  0  0  0  0  0
   -8.2310   23.4270  -32.0910 S   0  0  0  0  0  0  0  0  0  0  0  0
   -6.9280   23.6440  -30.8790 C   0  0  0  0  0  0  0  0  0  0  0  0
   -6.4610   24.9280  -30.5750 C   0  0  0  0  0  0  0  0  0  0  0  0
   -5.4470   25.1000  -29.6280 C   0  0  0  0  0  0  0  0  0  0  0  0
   -4.8840   23.9850  -28.9800 C   0  0  0  0  0  0  0  0  0  0  0  0
   -3.8640   24.1370  -27.9780 N   0  0  0  0  0  0  0  0  0  0  0  0
   -2.5870   24.7490  -28.2200 C   0  0  0  0  0  0  0  0  0  0  0  0
   -2.1730   24.9070  -29.4010 O   0  0  0  0  0  0  0  0  0  0  0  0
   -1.7570   25.2050  -27.0810 C   0  0  0  0  0  0  0  0  0  0  0  0
   -2.4040   25.7440  -25.9570 C   0  0  0  0  0  0  0  0  0  0  0  0
   -1.6690   26.2580  -24.8870 C   0  0  0  0  0  0  0  0  0  0  0  0
   -0.2680   26.2300  -24.9080 C   0  0  0  0  0  0  0  0  0  0  0  0
    0.5240   26.8450  -23.7810 C   0  0  0  0  0  0  0  0  0  0  0  0
    1.7170   26.1690  -23.5930 F   0  0  0  0  0  0  0  0  0  0  0  0
    0.7970   28.1660  -24.0850 F   0  0  0  0  0  0  0  0  0  0  0  0
   -0.1910   26.7940  -22.5970 F   0  0  0  0  0  0  0  0  0  0  0  0
    0.3860   25.7030  -26.0330 C   0  0  0  0  0  0  0  0  0  0  0  0
   -0.3410   25.1690  -27.1100 C   0  0  0  0  0  0  0  0  0  0  0  0
    0.3770   24.5580  -28.1910 N   0  0  0  0  0  0  0  0  0  0  0  0
   -5.3760   22.7030  -29.2730 C   0  0  0  0  0  0  0  0  0  0  0  0
   -6.3880   22.5330  -30.2230 C   0  0  0  0  0  0  0  0  0  0  0  0
   -6.8110   21.2660  -33.0930 N   0  0  0  0  0  0  0  0  0  0  0  0
   -6.7490   19.9100  -33.0940 C   0  0  0  0  0  0  0  0  0  0  0  0
   -5.7990   19.1670  -33.7950 C   0  0  0  0  0  0  0  0  0  0  0  0
   -4.1793   16.4311  -33.7320 H   0  0  0  0  0  0  0  0  0  0  0  0
   -5.3302   16.1982  -35.0914 H   0  0  0  0  0  0  0  0  0  0  0  0
   -4.2129   17.6048  -35.0914 H   0  0  0  0  0  0  0  0  0  0  0  0
   -6.8726   16.0281  -32.8820 H   0  0  0  0  0  0  0  0  0  0  0  0
   -8.5640   17.4026  -31.6277 H   0  0  0  0  0  0  0  0  0  0  0  0
   -6.8927   25.8035  -31.0822 H   0  0  0  0  0  0  0  0  0  0  0  0
   -5.0876   26.1116  -29.3883 H   0  0  0  0  0  0  0  0  0  0  0  0
   -4.0260   23.7020  -27.0420 H   0  0  0  0  0  0  0  0  0  0  0  0
   -3.5032   25.7614  -25.9192 H   0  0  0  0  0  0  0  0  0  0  0  0
   -2.1935   26.6881  -24.0210 H   0  0  0  0  0  0  0  0  0  0  0  0
    1.4853   25.7083  -26.0718 H   0  0  0  0  0  0  0  0  0  0  0  0
   -0.0840   24.3160  -29.0950 H   0  0  0  0  0  0  0  0  0  0  0  0
    1.3600   24.2320  -28.0540 H   0  0  0  0  0  0  0  0  0  0  0  0
   -4.9628   21.8268  -28.7520 H   0  0  0  0  0  0  0  0  0  0  0  0
   -6.7599   21.5240  -30.4547 H   0  0  0  0  0  0  0  0  0  0  0  0
   -5.0218   19.6711  -34.3882 H   0  0  0  0  0  0  0  0  0  0  0  0
  1  2  1  0
  2  3  2  0
  3  4  1  0
  4  5  2  0
  5  6  1  0
  6  7  1  0
  7  8  1  0
  8  9  1  0
  9 10  2  0
 10 11  1  0
 11 12  2  0
 12 13  1  0
 13 14  1  0
 14 15  2  0
 14 16  1  0
 16 17  2  0
 17 18  1  0
 18 19  2  0
 19 20  1  0
 20 21  1  0
 20 22  1  0
 20 23  1  0
 19 24  1  0
 24 25  2  0
 25 26  1  0
 12 27  1  0
 27 28  2  0
  7 29  2  0
 29 30  1  0
 30 31  2  0
 31  2  1  0
 30  5  1  0
 28  9  1  0
 25 16  1  0
  1 32  1  0
  1 33  1  0
  1 34  1  0
  3 35  1  0
  4 36  1  0
 10 37  1  0
 11 38  1  0
 13 39  1  0
 17 40  1  0
 18 41  1  0
 24 42  1  0
 26 43  1  0
 26 44  1  0
 27 45  1  0
 28 46  1  0
 31 47  1  0
M  END
>  <UniqueID>  (48) 
46

>  <SMILES>  (48) 
Cc1ccc2sc(Sc3ccc(NC(=O)c4ccc(C(F)(F)F)cc4N)cc3)nc2c1

>  <Energy>  (48) 
90.3553004303377

>  <Genealogy>  (48) 
Cc1ccc2sc(Sc3ccc(NC(=O)c4ccc(C(F)(F)F)cc4N)cc3)nc2c1 (3D coordinates assigned)
Cc1ccc2sc(Sc3ccc(NC(=O)c4ccc(C(F)(F)F)cc4N)cc3)nc2c1 (optimized conformer: 90.3553004303377 kcal/mol)

>  <smiles>  (48) 
Cc1ccc2sc(Sc3ccc(NC(=O)c4ccc(C(F)(F)F)cc4N)cc3)nc2c1

>  <score_type>  (48) 
oracle

>  <origin>  (48) 
adgpu

>  <m_score__min__energy>  (48) 
-10.16

>  <m_primary>  (48) 
energy

$$$$
