0:0
     RDKit          3D

 56 58  0  0  0  0  0  0  0  0999 V2000
    0.3810   18.9960  -30.6950 C   0  0  0  0  0  0  0  0  0  0  0  0
    0.3750   20.3840  -31.0080 O   0  0  0  0  0  0  0  0  0  0  0  0
   -0.7050   21.2520  -30.7740 C   0  0  0  0  0  0  0  0  0  0  0  0
   -0.7450   22.1080  -29.6550 C   0  0  0  0  0  0  0  0  0  0  0  0
   -1.8250   22.9730  -29.4670 C   0  0  0  0  0  0  0  0  0  0  0  0
   -2.8890   22.9850  -30.3760 C   0  0  0  0  0  0  0  0  0  0  0  0
   -4.2400   24.0990  -30.1510 S   0  0  0  0  0  0  0  0  0  0  0  0
   -3.9260   25.4030  -30.8320 O   0  0  0  0  0  0  0  0  0  0  0  0
   -4.4170   24.3730  -28.6810 O   0  0  0  0  0  0  0  0  0  0  0  0
   -5.7250   23.4470  -30.8040 N   0  0  0  0  0  0  0  0  0  0  0  0
   -5.8310   23.7800  -32.2310 C   0  0  0  0  0  0  0  0  0  0  0  0
   -6.8740   23.9910  -30.0680 C   0  0  0  0  0  0  0  0  0  0  0  0
   -2.8640   22.1240  -31.4790 C   0  0  0  0  0  0  0  0  0  0  0  0
   -1.7670   21.2740  -31.7000 C   0  0  0  0  0  0  0  0  0  0  0  0
   -1.7210   20.4220  -32.8570 N   0  0  0  0  0  0  0  0  0  0  0  0
   -0.7000   20.5320  -33.8620 C   0  0  0  0  0  0  0  0  0  0  0  0
    0.0460   21.5490  -33.9160 O   0  0  0  0  0  0  0  0  0  0  0  0
   -0.4570   19.3990  -34.8150 C   0  0  0  0  0  0  0  0  0  0  0  0
   -0.8310   17.7820  -34.0440 S   0  0  0  0  0  0  0  0  0  0  0  0
   -2.6050   17.9020  -34.2630 C   0  0  0  0  0  0  0  0  0  0  0  0
   -3.2620   17.4080  -35.3290 N   0  0  0  0  0  0  0  0  0  0  0  0
   -4.5370   17.7190  -35.1480 N   0  0  0  0  0  0  0  0  0  0  0  0
   -4.6090   18.3870  -33.9800 C   0  0  0  0  0  0  0  0  0  0  0  0
   -5.8480   18.9660  -33.4020 C   0  0  0  0  0  0  0  0  0  0  0  0
   -5.8940   20.3570  -33.2070 C   0  0  0  0  0  0  0  0  0  0  0  0
   -7.0480   20.9810  -32.7280 C   0  0  0  0  0  0  0  0  0  0  0  0
   -8.1830   20.2210  -32.4220 C   0  0  0  0  0  0  0  0  0  0  0  0
   -9.4440   20.8890  -31.9500 C   0  0  0  0  0  0  0  0  0  0  0  0
   -8.1500   18.8320  -32.5950 C   0  0  0  0  0  0  0  0  0  0  0  0
   -6.9880   18.1870  -33.0590 C   0  0  0  0  0  0  0  0  0  0  0  0
   -7.0020   16.6830  -33.1750 C   0  0  0  0  0  0  0  0  0  0  0  0
   -3.4200   18.5020  -33.4330 O   0  0  0  0  0  0  0  0  0  0  0  0
    0.3816   18.8665  -29.6027 H   0  0  0  0  0  0  0  0  0  0  0  0
   -0.5151   18.5204  -31.1202 H   0  0  0  0  0  0  0  0  0  0  0  0
    1.2812   18.5281  -31.1202 H   0  0  0  0  0  0  0  0  0  0  0  0
    0.0787   22.0946  -28.9261 H   0  0  0  0  0  0  0  0  0  0  0  0
   -1.8395   23.6489  -28.5993 H   0  0  0  0  0  0  0  0  0  0  0  0
   -6.1630   24.8230  -32.3404 H   0  0  0  0  0  0  0  0  0  0  0  0
   -4.8489   23.6556  -32.7105 H   0  0  0  0  0  0  0  0  0  0  0  0
   -6.5605   23.1107  -32.7105 H   0  0  0  0  0  0  0  0  0  0  0  0
   -6.6912   23.9044  -28.9868 H   0  0  0  0  0  0  0  0  0  0  0  0
   -7.0113   25.0497  -30.3330 H   0  0  0  0  0  0  0  0  0  0  0  0
   -7.7800   23.4262  -30.3330 H   0  0  0  0  0  0  0  0  0  0  0  0
   -3.7116   22.1125  -32.1800 H   0  0  0  0  0  0  0  0  0  0  0  0
   -2.2990   19.5530  -32.8490 H   0  0  0  0  0  0  0  0  0  0  0  0
   -1.0992   19.5309  -35.6983 H   0  0  0  0  0  0  0  0  0  0  0  0
    0.6058   19.4085  -35.0986 H   0  0  0  0  0  0  0  0  0  0  0  0
   -5.0060   20.9646  -33.4355 H   0  0  0  0  0  0  0  0  0  0  0  0
   -7.0650   22.0723  -32.5909 H   0  0  0  0  0  0  0  0  0  0  0  0
   -9.4638   20.8995  -30.8502 H   0  0  0  0  0  0  0  0  0  0  0  0
   -9.4751   21.9218  -32.3272 H   0  0  0  0  0  0  0  0  0  0  0  0
  -10.3160   20.3345  -32.3272 H   0  0  0  0  0  0  0  0  0  0  0  0
   -9.0454   18.2359  -32.3649 H   0  0  0  0  0  0  0  0  0  0  0  0
   -7.0061   16.2377  -32.1692 H   0  0  0  0  0  0  0  0  0  0  0  0
   -7.9031   16.3657  -33.7202 H   0  0  0  0  0  0  0  0  0  0  0  0
   -6.1069   16.3489  -33.7202 H   0  0  0  0  0  0  0  0  0  0  0  0
  1  2  1  0
  2  3  1  0
  3  4  2  0
  4  5  1  0
  5  6  2  0
  6  7  1  0
  7  8  2  0
  7  9  2  0
  7 10  1  0
 10 11  1  0
 10 12  1  0
  6 13  1  0
 13 14  2  0
 14 15  1  0
 15 16  1  0
 16 17  2  0
 16 18  1  0
 18 19  1  0
 19 20  1  0
 20 21  2  0
 21 22  1  0
 22 23  2  0
 23 24  1  0
 24 25  2  0
 25 26  1  0
 26 27  2  0
 27 28  1  0
 27 29  1  0
 29 30  2  0
 30 31  1  0
 23 32  1  0
 14  3  1  0
 32 20  1  0
 30 24  1  0
  1 33  1  0
  1 34  1  0
  1 35  1  0
  4 36  1  0
  5 37  1  0
 11 38  1  0
 11 39  1  0
 11 40  1  0
 12 41  1  0
 12 42  1  0
 12 43  1  0
 13 44  1  0
 15 45  1  0
 18 46  1  0
 18 47  1  0
 25 48  1  0
 26 49  1  0
 28 50  1  0
 28 51  1  0
 28 52  1  0
 29 53  1  0
 31 54  1  0
 31 55  1  0
 31 56  1  0
M  END
>  <UniqueID>  (1) 
1

>  <SMILES>  (1) 
COc1ccc(S(=O)(=O)N(C)C)cc1NC(=O)CSc1nnc(-c2ccc(C)cc2C)o1

>  <Energy>  (1) 
91.2768896427264

>  <Genealogy>  (1) 
COc1ccc(S(=O)(=O)N(C)C)cc1NC(=O)CSc1nnc(-c2ccc(C)cc2C)o1 (3D coordinates assigned)
COc1ccc(S(=O)(=O)N(C)C)cc1NC(=O)CSc1nnc(-c2ccc(C)cc2C)o1 (optimized conformer: 91.2768896427264 kcal/mol)

>  <smiles>  (1) 
COc1ccc(S(=O)(=O)N(C)C)cc1NC(=O)CSc1nnc(-c2ccc(C)cc2C)o1

>  <score_type>  (1) 
oracle

>  <origin>  (1) 
adgpu

>  <m_score__min__energy>  (1) 
-10.630000000000001

>  <m_primary>  (1) 
energy

$$$$
1:0
     RDKit          3D

 51 54  0  0  0  0  0  0  0  0999 V2000
   -5.0360   23.8630  -29.1000 C   0  0  0  0  0  0  0  0  0  0  0  0
   -4.6400   24.3590  -30.4580 C   0  0  0  0  0  0  0  0  0  0  0  0
   -3.8530   25.3390  -30.5470 O   0  0  0  0  0  0  0  0  0  0  0  0
   -5.1490   23.7670  -31.6610 N   0  0  0  0  0  0  0  0  0  0  0  0
   -6.2880   22.8980  -31.7630 C   0  0  0  0  0  0  0  0  0  0  0  0
   -7.5780   23.3530  -31.4400 C   0  0  0  0  0  0  0  0  0  0  0  0
   -8.6780   22.5040  -31.5870 C   0  0  0  0  0  0  0  0  0  0  0  0
   -8.4790   21.2060  -32.0510 C   0  0  0  0  0  0  0  0  0  0  0  0
   -7.2220   20.7660  -32.3270 N   0  0  0  0  0  0  0  0  0  0  0  0
   -6.1250   21.5600  -32.1750 C   0  0  0  0  0  0  0  0  0  0  0  0
   -4.8270   21.0250  -32.4880 N   0  0  0  0  0  0  0  0  0  0  0  0
   -3.9580   21.6860  -33.4720 C   0  0  0  0  0  0  0  0  0  0  0  0
   -2.5280   21.8810  -32.9270 C   0  0  0  0  0  0  0  0  0  0  0  0
   -2.0810   20.7880  -31.9180 C   0  0  0  0  0  0  0  0  0  0  0  0
   -2.1280   21.2850  -30.4930 C   0  0  0  0  0  0  0  0  0  0  0  0
   -1.6070   22.4660  -30.0990 N   0  0  0  0  0  0  0  0  0  0  0  0
   -1.9340   22.5520  -28.7960 C   0  0  0  0  0  0  0  0  0  0  0  0
   -1.5850   23.7080  -27.9340 C   0  0  0  0  0  0  0  0  0  0  0  0
   -1.5950   25.0220  -28.4350 C   0  0  0  0  0  0  0  0  0  0  0  0
   -1.2430   26.0970  -27.6130 C   0  0  0  0  0  0  0  0  0  0  0  0
   -0.8750   25.8770  -26.2840 C   0  0  0  0  0  0  0  0  0  0  0  0
   -0.5400   26.9380  -25.5030 F   0  0  0  0  0  0  0  0  0  0  0  0
   -0.8570   24.5730  -25.7640 C   0  0  0  0  0  0  0  0  0  0  0  0
   -0.4860   24.3420  -24.3280 C   0  0  0  0  0  0  0  0  0  0  0  0
   -1.2240   23.4960  -26.5880 C   0  0  0  0  0  0  0  0  0  0  0  0
   -2.6530   21.4280  -28.4400 C   0  0  0  0  0  0  0  0  0  0  0  0
   -2.7850   20.6300  -29.5140 N   0  0  0  0  0  0  0  0  0  0  0  0
   -2.9100   19.4990  -32.0700 C   0  0  0  0  0  0  0  0  0  0  0  0
   -4.4060   19.7720  -31.8460 C   0  0  0  0  0  0  0  0  0  0  0  0
   -4.5467   24.4759  -28.3287 H   0  0  0  0  0  0  0  0  0  0  0  0
   -6.1279   23.9349  -28.9874 H   0  0  0  0  0  0  0  0  0  0  0  0
   -4.7241   22.8142  -28.9874 H   0  0  0  0  0  0  0  0  0  0  0  0
   -7.7219   24.3792  -31.0709 H   0  0  0  0  0  0  0  0  0  0  0  0
   -9.6899   22.8569  -31.3390 H   0  0  0  0  0  0  0  0  0  0  0  0
   -9.3395   20.5359  -32.1944 H   0  0  0  0  0  0  0  0  0  0  0  0
   -3.9125   21.0674  -34.3804 H   0  0  0  0  0  0  0  0  0  0  0  0
   -4.3802   22.6775  -33.6924 H   0  0  0  0  0  0  0  0  0  0  0  0
   -1.8299   21.8730  -33.7771 H   0  0  0  0  0  0  0  0  0  0  0  0
   -2.5228   22.8370  -32.3830 H   0  0  0  0  0  0  0  0  0  0  0  0
   -1.0342   20.5488  -32.1567 H   0  0  0  0  0  0  0  0  0  0  0  0
   -1.8818   25.2054  -29.4810 H   0  0  0  0  0  0  0  0  0  0  0  0
   -1.2560   27.1208  -28.0151 H   0  0  0  0  0  0  0  0  0  0  0  0
   -1.2376   24.8100  -23.6753 H   0  0  0  0  0  0  0  0  0  0  0  0
   -0.4490   23.2609  -24.1282 H   0  0  0  0  0  0  0  0  0  0  0  0
    0.5005   24.7858  -24.1282 H   0  0  0  0  0  0  0  0  0  0  0  0
   -1.2297   22.4753  -26.1780 H   0  0  0  0  0  0  0  0  0  0  0  0
   -3.0539   21.2188  -27.4373 H   0  0  0  0  0  0  0  0  0  0  0  0
   -2.7662   19.0971  -33.0838 H   0  0  0  0  0  0  0  0  0  0  0  0
   -2.5706   18.7749  -31.3147 H   0  0  0  0  0  0  0  0  0  0  0  0
   -4.9884   18.9403  -32.2693 H   0  0  0  0  0  0  0  0  0  0  0  0
   -4.5820   19.8626  -30.7640 H   0  0  0  0  0  0  0  0  0  0  0  0
  1  2  1  0
  2  3  2  0
  2  4  1  0
  4  5  1  0
  5  6  2  0
  6  7  1  0
  7  8  2  0
  8  9  1  0
  9 10  2  0
 10 11  1  0
 11 12  1  0
 12 13  1  0
 13 14  1  0
 14 15  1  0
 15 16  2  0
 16 17  1  0
 17 18  1  0
 18 19  2  0
 19 20  1  0
 20 21  2  0
 21 22  1  0
 21 23  1  0
 23 24  1  0
 23 25  2  0
 17 26  2  0
 26 27  1  0
 14 28  1  0
 28 29  1  0
 10  5  1  0
 29 11  1  0
 27 15  1  0
 25 18  1  0
  1 30  1  0
  1 31  1  0
  1 32  1  0
  6 33  1  0
  7 34  1  0
  8 35  1  0
 12 36  1  0
 12 37  1  0
 13 38  1  0
 13 39  1  0
 14 40  1  0
 19 41  1  0
 20 42  1  0
 24 43  1  0
 24 44  1  0
 24 45  1  0
 25 46  1  0
 26 47  1  0
 28 48  1  0
 28 49  1  0
 29 50  1  0
 29 51  1  0
M  CHG  2   4  -1  27  -1
M  END
>  <UniqueID>  (2) 
2

>  <SMILES>  (2) 
CC(=O)[N-]c1cccnc1N1CCC(c2nc(-c3ccc(F)c(C)c3)c[n-]2)CC1

>  <Energy>  (2) 
91.95530659658435

>  <Genealogy>  (2) 
CC(=O)[N-]c1cccnc1N1CCC(c2nc(-c3ccc(F)c(C)c3)c[n-]2)CC1 (protonated)
CC(=O)[N-]c1cccnc1N1CCC(c2nc(-c3ccc(F)c(C)c3)c[n-]2)CC1 (3D coordinates assigned)
CC(=O)[N-]c1cccnc1N1CCC(c2nc(-c3ccc(F)c(C)c3)c[n-]2)CC1 (nonaromatic ring conformer: 91.95530659658435 kcal/mol)

>  <smiles>  (2) 
CC(=O)Nc1cccnc1N1CCC(c2nc(-c3ccc(F)c(C)c3)c[nH]2)CC1

>  <score_type>  (2) 
oracle

>  <origin>  (2) 
adgpu

>  <m_score__min__energy>  (2) 
-10.41

>  <m_primary>  (2) 
energy

$$$$
2:0
     RDKit          3D

 43 45  0  0  0  0  0  0  0  0999 V2000
   -2.9220   21.2330  -27.6650 C   0  0  0  0  0  0  0  0  0  0  0  0
   -2.4870   22.6000  -28.1040 C   0  0  0  0  0  0  0  0  0  0  0  0
   -1.2840   23.1440  -27.6300 C   0  0  0  0  0  0  0  0  0  0  0  0
   -0.8690   24.4080  -28.0540 C   0  0  0  0  0  0  0  0  0  0  0  0
   -1.6370   25.1330  -28.9720 C   0  0  0  0  0  0  0  0  0  0  0  0
   -1.2360   26.4160  -29.3220 O   0  0  0  0  0  0  0  0  0  0  0  0
   -2.8180   24.5710  -29.4990 C   0  0  0  0  0  0  0  0  0  0  0  0
   -3.6360   25.2720  -30.4450 N   0  0  0  0  0  0  0  0  0  0  0  0
   -5.0620   25.1690  -30.5500 C   0  0  0  0  0  0  0  0  0  0  0  0
   -5.7800   26.1900  -30.3700 O   0  0  0  0  0  0  0  0  0  0  0  0
   -5.6890   23.8790  -30.9220 C   0  0  0  0  0  0  0  0  0  0  0  0
   -4.9950   22.9530  -31.7230 C   0  0  0  0  0  0  0  0  0  0  0  0
   -5.5870   21.7360  -32.0740 C   0  0  0  0  0  0  0  0  0  0  0  0
   -6.8770   21.4230  -31.6290 C   0  0  0  0  0  0  0  0  0  0  0  0
   -7.6100   19.8860  -32.0770 S   0  0  0  0  0  0  0  0  0  0  0  0
   -8.1920   20.0210  -33.4570 O   0  0  0  0  0  0  0  0  0  0  0  0
   -8.7100   19.5430  -31.1090 O   0  0  0  0  0  0  0  0  0  0  0  0
   -6.3960   18.6250  -32.0670 N   0  0  0  0  0  0  0  0  0  0  0  0
   -7.0040   17.3200  -32.3560 C   0  0  0  0  0  0  0  0  0  0  0  0
   -6.8810   17.0580  -33.8500 C   0  0  0  0  0  0  0  0  0  0  0  0
   -5.8690   18.0650  -34.3610 C   0  0  0  0  0  0  0  0  0  0  0  0
   -5.4160   18.8460  -33.1370 C   0  0  0  0  0  0  0  0  0  0  0  0
   -7.5770   22.3430  -30.8390 C   0  0  0  0  0  0  0  0  0  0  0  0
   -6.9870   23.5600  -30.4850 C   0  0  0  0  0  0  0  0  0  0  0  0
   -3.2440   23.3170  -29.0430 C   0  0  0  0  0  0  0  0  0  0  0  0
   -2.9363   21.1881  -26.5660 H   0  0  0  0  0  0  0  0  0  0  0  0
   -3.9302   21.0266  -28.0536 H   0  0  0  0  0  0  0  0  0  0  0  0
   -2.2185   20.4819  -28.0536 H   0  0  0  0  0  0  0  0  0  0  0  0
   -0.6655   22.5729  -26.9219 H   0  0  0  0  0  0  0  0  0  0  0  0
    0.0664   24.8360  -27.6644 H   0  0  0  0  0  0  0  0  0  0  0  0
   -3.9799   23.1883  -32.0753 H   0  0  0  0  0  0  0  0  0  0  0  0
   -5.0365   21.0209  -32.7029 H   0  0  0  0  0  0  0  0  0  0  0  0
   -6.4791   16.5324  -31.7955 H   0  0  0  0  0  0  0  0  0  0  0  0
   -8.0624   17.3194  -32.0562 H   0  0  0  0  0  0  0  0  0  0  0  0
   -6.5270   16.0325  -34.0317 H   0  0  0  0  0  0  0  0  0  0  0  0
   -7.8495   17.1604  -34.3613 H   0  0  0  0  0  0  0  0  0  0  0  0
   -5.0153   17.5497  -34.8254 H   0  0  0  0  0  0  0  0  0  0  0  0
   -6.3021   18.7245  -35.1275 H   0  0  0  0  0  0  0  0  0  0  0  0
   -4.4256   18.4923  -32.8145 H   0  0  0  0  0  0  0  0  0  0  0  0
   -5.3451   19.9179  -33.3735 H   0  0  0  0  0  0  0  0  0  0  0  0
   -8.5951   22.1073  -30.4956 H   0  0  0  0  0  0  0  0  0  0  0  0
   -7.5427   24.2740  -29.8594 H   0  0  0  0  0  0  0  0  0  0  0  0
   -4.1826   22.8894  -29.4253 H   0  0  0  0  0  0  0  0  0  0  0  0
  1  2  1  0
  2  3  2  0
  3  4  1  0
  4  5  2  0
  5  6  1  0
  5  7  1  0
  7  8  1  0
  8  9  1  0
  9 10  2  0
  9 11  1  0
 11 12  2  0
 12 13  1  0
 13 14  2  0
 14 15  1  0
 15 16  2  0
 15 17  2  0
 15 18  1  0
 18 19  1  0
 19 20  1  0
 20 21  1  0
 21 22  1  0
 14 23  1  0
 23 24  2  0
  7 25  2  0
 25  2  1  0
 24 11  1  0
 22 18  1  0
  1 26  1  0
  1 27  1  0
  1 28  1  0
  3 29  1  0
  4 30  1  0
 12 31  1  0
 13 32  1  0
 19 33  1  0
 19 34  1  0
 20 35  1  0
 20 36  1  0
 21 37  1  0
 21 38  1  0
 22 39  1  0
 22 40  1  0
 23 41  1  0
 24 42  1  0
 25 43  1  0
M  CHG  2   6  -1   8  -1
M  END
>  <UniqueID>  (3) 
3

>  <SMILES>  (3) 
Cc1ccc([O-])c([N-]C(=O)c2ccc(S(=O)(=O)N3CCCC3)cc2)c1

>  <Energy>  (3) 
51.02060456720746

>  <Genealogy>  (3) 
Cc1ccc([O-])c([N-]C(=O)c2ccc(S(=O)(=O)N3CCCC3)cc2)c1 (protonated)
Cc1ccc([O-])c([N-]C(=O)c2ccc(S(=O)(=O)N3CCCC3)cc2)c1 (3D coordinates assigned)
Cc1ccc([O-])c([N-]C(=O)c2ccc(S(=O)(=O)N3CCCC3)cc2)c1 (nonaromatic ring conformer: 51.02060456720746 kcal/mol)

>  <smiles>  (3) 
Cc1ccc(O)c(NC(=O)c2ccc(S(=O)(=O)N3CCCC3)cc2)c1

>  <score_type>  (3) 
oracle

>  <origin>  (3) 
adgpu

>  <m_score__min__energy>  (3) 
-14.779999999999999

>  <m_primary>  (3) 
energy

$$$$
3:0
     RDKit          3D

 38 40  0  0  0  0  0  0  0  0999 V2000
   -0.0520   23.3140  -26.1390 C   0  0  0  0  0  0  0  0  0  0  0  0
   -1.1650   23.5330  -27.1210 C   0  0  0  0  0  0  0  0  0  0  0  0
   -1.1210   24.6190  -28.0070 C   0  0  0  0  0  0  0  0  0  0  0  0
   -2.1740   24.8460  -28.8980 C   0  0  0  0  0  0  0  0  0  0  0  0
   -3.2900   23.9960  -28.9020 C   0  0  0  0  0  0  0  0  0  0  0  0
   -4.5960   24.2850  -30.0450 S   0  0  0  0  0  0  0  0  0  0  0  0
   -4.1780   25.3680  -30.9980 O   0  0  0  0  0  0  0  0  0  0  0  0
   -5.8390   24.7350  -29.3280 O   0  0  0  0  0  0  0  0  0  0  0  0
   -4.9440   22.7900  -30.9160 C   0  0  0  0  0  0  0  0  0  0  0  0
   -4.0000   21.7600  -30.9670 C   0  0  0  0  0  0  0  0  0  0  0  0
   -4.2810   20.6090  -31.6280 N   0  0  0  0  0  0  0  0  0  0  0  0
   -5.4760   20.4260  -32.2540 C   0  0  0  0  0  0  0  0  0  0  0  0
   -5.7610   19.1590  -32.9710 C   0  0  0  0  0  0  0  0  0  0  0  0
   -5.1470   18.8820  -34.2090 C   0  0  0  0  0  0  0  0  0  0  0  0
   -5.4170   17.6870  -34.8820 C   0  0  0  0  0  0  0  0  0  0  0  0
   -6.3000   16.7550  -34.3320 C   0  0  0  0  0  0  0  0  0  0  0  0
   -6.9160   17.0170  -33.1060 C   0  0  0  0  0  0  0  0  0  0  0  0
   -6.6490   18.2110  -32.4280 C   0  0  0  0  0  0  0  0  0  0  0  0
   -6.4070   21.4170  -32.2130 N   0  0  0  0  0  0  0  0  0  0  0  0
   -6.1740   22.5910  -31.5630 C   0  0  0  0  0  0  0  0  0  0  0  0
   -7.1780   23.6140  -31.5340 N   0  0  0  0  0  0  0  0  0  0  0  0
   -8.3650   23.4190  -31.9460 C   0  0  0  0  0  0  0  0  0  0  0  0
   -9.5210   23.2290  -32.3470 O   0  0  0  0  0  0  0  0  0  0  0  0
   -3.3430   22.9200  -28.0060 C   0  0  0  0  0  0  0  0  0  0  0  0
   -2.2890   22.6940  -27.1150 C   0  0  0  0  0  0  0  0  0  0  0  0
   -0.4460   23.3915  -25.1149 H   0  0  0  0  0  0  0  0  0  0  0  0
    0.3796   22.3137  -26.2911 H   0  0  0  0  0  0  0  0  0  0  0  0
    0.7264   24.0762  -26.2911 H   0  0  0  0  0  0  0  0  0  0  0  0
   -0.2537   25.2956  -28.0009 H   0  0  0  0  0  0  0  0  0  0  0  0
   -2.1274   25.6934  -29.5978 H   0  0  0  0  0  0  0  0  0  0  0  0
   -3.0266   21.8832  -30.4697 H   0  0  0  0  0  0  0  0  0  0  0  0
   -4.4506   19.6112  -34.6486 H   0  0  0  0  0  0  0  0  0  0  0  0
   -4.9326   17.4800  -35.8477 H   0  0  0  0  0  0  0  0  0  0  0  0
   -6.5102   15.8154  -34.8639 H   0  0  0  0  0  0  0  0  0  0  0  0
   -7.6120   16.2834  -32.6731 H   0  0  0  0  0  0  0  0  0  0  0  0
   -7.1369   18.4109  -31.4626 H   0  0  0  0  0  0  0  0  0  0  0  0
   -4.2162   22.2511  -28.0034 H   0  0  0  0  0  0  0  0  0  0  0  0
   -2.3417   21.8544  -26.4062 H   0  0  0  0  0  0  0  0  0  0  0  0
  1  2  1  0
  2  3  2  0
  3  4  1  0
  4  5  2  0
  5  6  1  0
  6  7  2  0
  6  8  2  0
  6  9  1  0
  9 10  2  0
 10 11  1  0
 11 12  2  0
 12 13  1  0
 13 14  2  0
 14 15  1  0
 15 16  2  0
 16 17  1  0
 17 18  2  0
 12 19  1  0
 19 20  2  0
 20 21  1  0
 21 22  2  0
 22 23  2  0
  5 24  1  0
 24 25  2  0
 25  2  1  0
 20  9  1  0
 18 13  1  0
  1 26  1  0
  1 27  1  0
  1 28  1  0
  3 29  1  0
  4 30  1  0
 10 31  1  0
 14 32  1  0
 15 33  1  0
 16 34  1  0
 17 35  1  0
 18 36  1  0
 24 37  1  0
 25 38  1  0
M  END
>  <UniqueID>  (4) 
4

>  <SMILES>  (4) 
Cc1ccc(S(=O)(=O)c2cnc(-c3ccccc3)nc2N=C=O)cc1

>  <Energy>  (4) 
44.57680476990488

>  <Genealogy>  (4) 
Cc1ccc(S(=O)(=O)c2cnc(-c3ccccc3)nc2N=C=O)cc1 (3D coordinates assigned)
Cc1ccc(S(=O)(=O)c2cnc(-c3ccccc3)nc2N=C=O)cc1 (optimized conformer: 44.57680476990488 kcal/mol)

>  <smiles>  (4) 
Cc1ccc(S(=O)(=O)c2cnc(-c3ccccc3)nc2N=C=O)cc1

>  <score_type>  (4) 
oracle

>  <origin>  (4) 
adgpu

>  <m_score__min__energy>  (4) 
-8.6899999999999995

>  <m_primary>  (4) 
energy

$$$$
4:0
     RDKit          3D

 40 41  0  0  0  0  0  0  0  0999 V2000
   -9.3140   21.8730  -31.2990 C   0  0  0  0  0  0  0  0  0  0  0  0
   -8.5080   21.1710  -32.2390 O   0  0  0  0  0  0  0  0  0  0  0  0
   -7.1160   21.3100  -32.3520 C   0  0  0  0  0  0  0  0  0  0  0  0
   -6.4120   20.3440  -33.0750 C   0  0  0  0  0  0  0  0  0  0  0  0
   -5.0280   20.4330  -33.2200 C   0  0  0  0  0  0  0  0  0  0  0  0
   -4.3200   21.4930  -32.6340 C   0  0  0  0  0  0  0  0  0  0  0  0
   -2.8260   21.5960  -32.8190 C   0  0  0  0  0  0  0  0  0  0  0  0
   -2.1760   21.8720  -31.5400 N   0  0  0  0  0  0  0  0  0  0  0  0
   -1.6950   20.8200  -30.6940 C   0  0  0  0  0  0  0  0  0  0  0  0
   -1.6270   19.6370  -31.1240 O   0  0  0  0  0  0  0  0  0  0  0  0
   -1.3140   21.1180  -29.2760 C   0  0  0  0  0  0  0  0  0  0  0  0
   -2.0290   22.3170  -28.8060 N   0  0  0  0  0  0  0  0  0  0  0  0
   -3.1210   22.1650  -27.9930 C   0  0  0  0  0  0  0  0  0  0  0  0
   -3.7990   23.2790  -27.4950 C   0  0  0  0  0  0  0  0  0  0  0  0
   -3.3540   24.5560  -27.8230 C   0  0  0  0  0  0  0  0  0  0  0  0
   -2.2370   24.7100  -28.6410 C   0  0  0  0  0  0  0  0  0  0  0  0
   -1.7850   25.9840  -28.9650 O   0  0  0  0  0  0  0  0  0  0  0  0
   -1.5740   23.5750  -29.1270 C   0  0  0  0  0  0  0  0  0  0  0  0
   -0.5560   23.7200  -29.8570 O   0  0  0  0  0  0  0  0  0  0  0  0
   -5.0140   22.4800  -31.9070 C   0  0  0  0  0  0  0  0  0  0  0  0
   -4.2860   23.5430  -31.3440 O   0  0  0  0  0  0  0  0  0  0  0  0
   -4.8650   24.6630  -30.6830 C   0  0  0  0  0  0  0  0  0  0  0  0
   -6.4140   22.3810  -31.7690 C   0  0  0  0  0  0  0  0  0  0  0  0
   -9.0052   21.6040  -30.2781 H   0  0  0  0  0  0  0  0  0  0  0  0
   -9.1900   22.9560  -31.4462 H   0  0  0  0  0  0  0  0  0  0  0  0
  -10.3697   21.6015  -31.4462 H   0  0  0  0  0  0  0  0  0  0  0  0
   -6.9548   19.5048  -33.5345 H   0  0  0  0  0  0  0  0  0  0  0  0
   -4.4883   19.6678  -33.7971 H   0  0  0  0  0  0  0  0  0  0  0  0
   -2.4439   20.6470  -33.2233 H   0  0  0  0  0  0  0  0  0  0  0  0
   -2.6070   22.4175  -33.5170 H   0  0  0  0  0  0  0  0  0  0  0  0
   -2.0980   22.8580  -31.2020 H   0  0  0  0  0  0  0  0  0  0  0  0
   -1.5802   20.2615  -28.6391 H   0  0  0  0  0  0  0  0  0  0  0  0
   -0.2302   21.2985  -29.2226 H   0  0  0  0  0  0  0  0  0  0  0  0
   -3.4672   21.1546  -27.7298 H   0  0  0  0  0  0  0  0  0  0  0  0
   -4.6788   23.1483  -26.8479 H   0  0  0  0  0  0  0  0  0  0  0  0
   -3.8823   25.4406  -27.4378 H   0  0  0  0  0  0  0  0  0  0  0  0
   -4.7930   24.5237  -29.5942 H   0  0  0  0  0  0  0  0  0  0  0  0
   -4.3269   25.5778  -30.9720 H   0  0  0  0  0  0  0  0  0  0  0  0
   -5.9225   24.7529  -30.9720 H   0  0  0  0  0  0  0  0  0  0  0  0
   -6.9617   23.1474  -31.2009 H   0  0  0  0  0  0  0  0  0  0  0  0
  1  2  1  0
  2  3  1  0
  3  4  2  0
  4  5  1  0
  5  6  2  0
  6  7  1  0
  7  8  1  0
  8  9  1  0
  9 10  2  0
  9 11  1  0
 11 12  1  0
 12 13  1  0
 13 14  2  0
 14 15  1  0
 15 16  2  0
 16 17  1  0
 16 18  1  0
 18 19  2  0
  6 20  1  0
 20 21  1  0
 21 22  1  0
 20 23  2  0
 23  3  1  0
 18 12  1  0
  1 24  1  0
  1 25  1  0
  1 26  1  0
  4 27  1  0
  5 28  1  0
  7 29  1  0
  7 30  1  0
  8 31  1  0
 11 32  1  0
 11 33  1  0
 13 34  1  0
 14 35  1  0
 15 36  1  0
 22 37  1  0
 22 38  1  0
 22 39  1  0
 23 40  1  0
M  CHG  1  17  -1
M  END
>  <UniqueID>  (5) 
5

>  <SMILES>  (5) 
COc1ccc(CNC(=O)Cn2cccc([O-])c2=O)c(OC)c1

>  <Energy>  (5) 
36.90119369959871

>  <Genealogy>  (5) 
COc1ccc(CNC(=O)Cn2cccc([O-])c2=O)c(OC)c1 (protonated)
COc1ccc(CNC(=O)Cn2cccc([O-])c2=O)c(OC)c1 (3D coordinates assigned)
COc1ccc(CNC(=O)Cn2cccc([O-])c2=O)c(OC)c1 (optimized conformer: 36.90119369959871 kcal/mol)

>  <smiles>  (5) 
COc1ccc(CNC(=O)Cn2cccc(O)c2=O)c(OC)c1

>  <score_type>  (5) 
oracle

>  <origin>  (5) 
adgpu

>  <m_score__min__energy>  (5) 
-10.31

>  <m_primary>  (5) 
energy

$$$$
5:0
     RDKit          3D

 37 38  0  0  0  0  0  0  0  0999 V2000
   -2.6780   20.3230  -27.3960 C   0  0  0  0  0  0  0  0  0  0  0  0
   -2.5750   21.6470  -28.0950 C   0  0  0  0  0  0  0  0  0  0  0  0
   -2.0380   22.7550  -27.4280 C   0  0  0  0  0  0  0  0  0  0  0  0
   -1.8980   23.9670  -28.1100 C   0  0  0  0  0  0  0  0  0  0  0  0
   -1.3110   25.1580  -27.4220 C   0  0  0  0  0  0  0  0  0  0  0  0
   -2.2690   24.0540  -29.4160 N   0  0  0  0  0  0  0  0  0  0  0  0
   -2.7950   23.0040  -30.1020 C   0  0  0  0  0  0  0  0  0  0  0  0
   -3.1070   23.1850  -31.3550 N   0  0  0  0  0  0  0  0  0  0  0  0
   -3.7520   22.2770  -32.2650 C   0  0  0  0  0  0  0  0  0  0  0  0
   -3.1010   21.7380  -33.1990 O   0  0  0  0  0  0  0  0  0  0  0  0
   -5.1530   21.8720  -32.0100 C   0  0  0  0  0  0  0  0  0  0  0  0
   -5.4220   20.5070  -31.8440 C   0  0  0  0  0  0  0  0  0  0  0  0
   -6.7200   20.0740  -31.5980 C   0  0  0  0  0  0  0  0  0  0  0  0
   -7.7410   20.9700  -31.5000 N   0  0  0  0  0  0  0  0  0  0  0  0
   -9.0220   20.5200  -31.2490 O   0  0  0  0  0  0  0  0  0  0  0  0
   -7.5210   22.3090  -31.6360 C   0  0  0  0  0  0  0  0  0  0  0  0
   -8.4910   23.1070  -31.5130 O   0  0  0  0  0  0  0  0  0  0  0  0
   -6.2210   22.8030  -31.9030 C   0  0  0  0  0  0  0  0  0  0  0  0
   -5.9840   24.3030  -31.9670 C   0  0  0  0  0  0  0  0  0  0  0  0
   -5.3510   24.7910  -30.7010 C   0  0  0  0  0  0  0  0  0  0  0  0
   -4.2360   25.6780  -30.7590 N   0  0  0  0  0  0  0  0  0  0  0  0
   -5.8050   24.4270  -29.5830 O   0  0  0  0  0  0  0  0  0  0  0  0
   -2.9370   21.7630  -29.4450 C   0  0  0  0  0  0  0  0  0  0  0  0
   -2.6657   20.4811  -26.3075 H   0  0  0  0  0  0  0  0  0  0  0  0
   -3.6173   19.8284  -27.6841 H   0  0  0  0  0  0  0  0  0  0  0  0
   -1.8265   19.6891  -27.6841 H   0  0  0  0  0  0  0  0  0  0  0  0
   -1.7288   22.6722  -26.3756 H   0  0  0  0  0  0  0  0  0  0  0  0
   -1.3780   25.0220  -26.3325 H   0  0  0  0  0  0  0  0  0  0  0  0
   -0.2560   25.2669  -27.7137 H   0  0  0  0  0  0  0  0  0  0  0  0
   -1.8672   26.0611  -27.7137 H   0  0  0  0  0  0  0  0  0  0  0  0
   -4.6032   19.7753  -31.9086 H   0  0  0  0  0  0  0  0  0  0  0  0
   -6.9240   18.9994  -31.4816 H   0  0  0  0  0  0  0  0  0  0  0  0
   -9.7970   21.1640  -31.1410 H   0  0  0  0  0  0  0  0  0  0  0  0
   -5.3190   24.5281  -32.8138 H   0  0  0  0  0  0  0  0  0  0  0  0
   -6.9516   24.8096  -32.0979 H   0  0  0  0  0  0  0  0  0  0  0  0
   -3.2630   25.3090  -30.8560 H   0  0  0  0  0  0  0  0  0  0  0  0
   -3.3296   20.8912  -29.9890 H   0  0  0  0  0  0  0  0  0  0  0  0
  1  2  1  0
  2  3  1  0
  3  4  2  0
  4  5  1  0
  4  6  1  0
  6  7  1  0
  7  8  2  3
  8  9  1  0
  9 10  2  0
  9 11  1  0
 11 12  1  0
 12 13  2  0
 13 14  1  0
 14 15  1  0
 14 16  1  0
 16 17  2  0
 16 18  1  0
 18 19  1  0
 19 20  1  0
 20 21  1  0
 20 22  2  0
  7 23  1  0
 23  2  2  0
 18 11  2  0
  1 24  1  0
  1 25  1  0
  1 26  1  0
  3 27  1  0
  5 28  1  0
  5 29  1  0
  5 30  1  0
 12 31  1  0
 13 32  1  0
 15 33  1  0
 19 34  1  0
 19 35  1  0
 21 36  1  0
 23 37  1  0
M  CHG  2   6  -1  21  -1
M  END
>  <UniqueID>  (6) 
6

>  <SMILES>  (6) 
Cc1cc(C)[n-]c(=NC(=O)c2ccn(O)c(=O)c2CC([NH-])=O)c1

>  <Energy>  (6) 
49.49195677494462

>  <Genealogy>  (6) 
Cc1cc(C)[n-]c(=NC(=O)c2ccn(O)c(=O)c2CC([NH-])=O)c1 (protonated)
Cc1cc(C)[n-]c(=NC(=O)c2ccn(O)c(=O)c2CC([NH-])=O)c1 (3D coordinates assigned)
Cc1cc(C)[n-]c(=NC(=O)c2ccn(O)c(=O)c2CC([NH-])=O)c1 (optimized conformer: 49.49195677494462 kcal/mol)

>  <smiles>  (6) 
Cc1cc(C)[nH]c(=NC(=O)c2ccn(O)c(=O)c2CC(N)=O)c1

>  <score_type>  (6) 
oracle

>  <origin>  (6) 
adgpu

>  <m_score__min__energy>  (6) 
-10.390000000000001

>  <m_primary>  (6) 
energy

$$$$
6:0
     RDKit          3D

 58 61  0  0  0  0  0  0  0  0999 V2000
   -1.7610   25.4330  -28.9690 O   0  0  0  0  0  0  0  0  0  0  0  0
   -2.5860   24.5710  -29.3660 C   0  0  0  0  0  0  0  0  0  0  0  0
   -3.5470   24.9540  -30.3620 N   0  0  0  0  0  0  0  0  0  0  0  0
   -4.7610   24.2600  -30.6880 C   0  0  0  0  0  0  0  0  0  0  0  0
   -4.6970   23.1710  -31.5670 C   0  0  0  0  0  0  0  0  0  0  0  0
   -5.8450   22.4370  -31.8710 C   0  0  0  0  0  0  0  0  0  0  0  0
   -7.0720   22.7960  -31.3110 C   0  0  0  0  0  0  0  0  0  0  0  0
   -7.1550   23.9010  -30.4610 C   0  0  0  0  0  0  0  0  0  0  0  0
   -6.0090   24.6490  -30.1570 C   0  0  0  0  0  0  0  0  0  0  0  0
   -6.1110   25.7780  -29.3460 O   0  0  0  0  0  0  0  0  0  0  0  0
   -2.5100   23.1900  -28.8230 C   0  0  0  0  0  0  0  0  0  0  0  0
   -3.5320   22.6990  -27.9910 C   0  0  0  0  0  0  0  0  0  0  0  0
   -3.4740   21.3960  -27.4930 C   0  0  0  0  0  0  0  0  0  0  0  0
   -2.4050   20.5600  -27.8260 C   0  0  0  0  0  0  0  0  0  0  0  0
   -2.3640   19.3040  -27.3150 F   0  0  0  0  0  0  0  0  0  0  0  0
   -1.3750   21.0370  -28.6530 C   0  0  0  0  0  0  0  0  0  0  0  0
   -0.0270   20.0090  -29.1280 S   0  0  0  0  0  0  0  0  0  0  0  0
   -0.3950   18.5600  -28.9860 O   0  0  0  0  0  0  0  0  0  0  0  0
    1.1480   20.3090  -28.2390 O   0  0  0  0  0  0  0  0  0  0  0  0
    0.3270   20.3200  -30.8090 N   0  0  0  0  0  0  0  0  0  0  0  0
   -0.8450   20.1350  -31.6680 C   0  0  0  0  0  0  0  0  0  0  0  0
   -0.8680   18.7120  -32.2410 C   0  0  0  0  0  0  0  0  0  0  0  0
   -2.1280   18.4850  -33.0990 C   0  0  0  0  0  0  0  0  0  0  0  0
   -2.6140   19.7060  -33.7930 N   0  0  0  0  0  0  0  0  0  0  0  0
   -3.7910   20.3450  -33.1600 C   0  0  0  0  0  0  0  0  0  0  0  0
   -4.8890   19.3300  -32.9990 C   0  0  0  0  0  0  0  0  0  0  0  0
   -5.4810   19.1050  -31.7450 C   0  0  0  0  0  0  0  0  0  0  0  0
   -6.5180   18.1770  -31.6140 C   0  0  0  0  0  0  0  0  0  0  0  0
   -6.9730   17.4720  -32.7300 C   0  0  0  0  0  0  0  0  0  0  0  0
   -6.3940   17.6960  -33.9810 C   0  0  0  0  0  0  0  0  0  0  0  0
   -5.3570   18.6240  -34.1180 C   0  0  0  0  0  0  0  0  0  0  0  0
   -1.5320   20.6710  -34.0910 C   0  0  0  0  0  0  0  0  0  0  0  0
   -0.7940   21.1570  -32.8210 C   0  0  0  0  0  0  0  0  0  0  0  0
   -1.4150   22.3580  -29.1200 C   0  0  0  0  0  0  0  0  0  0  0  0
   -3.7347   22.8921  -32.0212 H   0  0  0  0  0  0  0  0  0  0  0  0
   -5.7825   21.5755  -32.5521 H   0  0  0  0  0  0  0  0  0  0  0  0
   -7.9736   22.2086  -31.5391 H   0  0  0  0  0  0  0  0  0  0  0  0
   -8.1250   24.1860  -30.0276 H   0  0  0  0  0  0  0  0  0  0  0  0
   -5.3680   26.0460  -28.7090 H   0  0  0  0  0  0  0  0  0  0  0  0
   -4.3828   23.3459  -27.7309 H   0  0  0  0  0  0  0  0  0  0  0  0
   -4.2740   21.0256  -26.8351 H   0  0  0  0  0  0  0  0  0  0  0  0
   -1.7566   20.2891  -31.0719 H   0  0  0  0  0  0  0  0  0  0  0  0
    0.0249   18.5607  -32.8653 H   0  0  0  0  0  0  0  0  0  0  0  0
   -0.8782   17.9967  -31.4054 H   0  0  0  0  0  0  0  0  0  0  0  0
   -1.8967   17.7240  -33.8589 H   0  0  0  0  0  0  0  0  0  0  0  0
   -2.9277   18.1688  -32.4131 H   0  0  0  0  0  0  0  0  0  0  0  0
   -3.5076   20.7378  -32.1724 H   0  0  0  0  0  0  0  0  0  0  0  0
   -4.1456   21.1697  -33.7958 H   0  0  0  0  0  0  0  0  0  0  0  0
   -5.1275   19.6606  -30.8639 H   0  0  0  0  0  0  0  0  0  0  0  0
   -6.9766   18.0017  -30.6296 H   0  0  0  0  0  0  0  0  0  0  0  0
   -7.7874   16.7402  -32.6239 H   0  0  0  0  0  0  0  0  0  0  0  0
   -6.7543   17.1415  -34.8600 H   0  0  0  0  0  0  0  0  0  0  0  0
   -4.9067   18.8012  -35.1058 H   0  0  0  0  0  0  0  0  0  0  0  0
   -0.8029   20.1866  -34.7572 H   0  0  0  0  0  0  0  0  0  0  0  0
   -1.9942   21.5510  -34.5621 H   0  0  0  0  0  0  0  0  0  0  0  0
    0.2592   21.3443  -33.0774 H   0  0  0  0  0  0  0  0  0  0  0  0
   -1.3003   22.0701  -32.4747 H   0  0  0  0  0  0  0  0  0  0  0  0
   -0.5826   22.7478  -29.7243 H   0  0  0  0  0  0  0  0  0  0  0  0
  1  2  2  0
  2  3  1  0
  3  4  1  0
  4  5  2  0
  5  6  1  0
  6  7  2  0
  7  8  1  0
  8  9  2  0
  9 10  1  0
  2 11  1  0
 11 12  2  0
 12 13  1  0
 13 14  2  0
 14 15  1  0
 14 16  1  0
 16 17  1  0
 17 18  2  0
 17 19  2  0
 17 20  1  0
 20 21  1  0
 21 22  1  0
 22 23  1  0
 23 24  1  0
 24 25  1  0
 25 26  1  0
 26 27  2  0
 27 28  1  0
 28 29  2  0
 29 30  1  0
 30 31  2  0
 24 32  1  0
 32 33  1  0
 16 34  2  0
  9  4  1  0
 34 11  1  0
 33 21  1  0
 31 26  1  0
  5 35  1  0
  6 36  1  0
  7 37  1  0
  8 38  1  0
 10 39  1  0
 12 40  1  0
 13 41  1  0
 21 42  1  0
 22 43  1  0
 22 44  1  0
 23 45  1  0
 23 46  1  0
 25 47  1  0
 25 48  1  0
 27 49  1  0
 28 50  1  0
 29 51  1  0
 30 52  1  0
 31 53  1  0
 32 54  1  0
 32 55  1  0
 33 56  1  0
 33 57  1  0
 34 58  1  0
M  CHG  2   3  -1  20  -1
M  END
>  <UniqueID>  (7) 
7

>  <SMILES>  (7) 
O=C([N-]c1ccccc1O)c1ccc(F)c(S(=O)(=O)[N-]C2CCN(Cc3ccccc3)CC2)c1

>  <Energy>  (7) 
78.10691052052502

>  <Genealogy>  (7) 
O=C([N-]c1ccccc1O)c1ccc(F)c(S(=O)(=O)[N-]C2CCN(Cc3ccccc3)CC2)c1 (protonated)
O=C([N-]c1ccccc1O)c1ccc(F)c(S(=O)(=O)[N-]C2CCN(Cc3ccccc3)CC2)c1 (3D coordinates assigned)
O=C([N-]c1ccccc1O)c1ccc(F)c(S(=O)(=O)[N-]C2CCN(Cc3ccccc3)CC2)c1 (nonaromatic ring conformer: 78.10691052052502 kcal/mol)

>  <smiles>  (7) 
O=C(Nc1ccccc1O)c1ccc(F)c(S(=O)(=O)NC2CCN(Cc3ccccc3)CC2)c1

>  <score_type>  (7) 
oracle

>  <origin>  (7) 
adgpu

>  <m_score__min__energy>  (7) 
-12.27

>  <m_primary>  (7) 
energy

$$$$
7:0
     RDKit          3D

 57 60  0  0  0  0  0  0  0  0999 V2000
   -3.8820   20.8850  -33.3920 C   0  0  0  0  0  0  0  0  0  0  0  0
   -4.6180   19.5810  -33.4170 C   0  0  0  0  0  0  0  0  0  0  0  0
   -5.9940   19.4130  -33.4030 C   0  0  0  0  0  0  0  0  0  0  0  0
   -6.9920   20.4370  -33.4220 N   0  0  0  0  0  0  0  0  0  0  0  0
   -7.5350   21.2070  -31.9650 S   0  0  0  0  0  0  0  0  0  0  0  0
   -8.9050   21.7770  -32.1980 O   0  0  0  0  0  0  0  0  0  0  0  0
   -7.6170   20.1800  -30.8710 O   0  0  0  0  0  0  0  0  0  0  0  0
   -6.4600   22.5190  -31.4800 C   0  0  0  0  0  0  0  0  0  0  0  0
   -6.7270   23.8280  -31.9020 C   0  0  0  0  0  0  0  0  0  0  0  0
   -5.8600   24.8670  -31.5610 C   0  0  0  0  0  0  0  0  0  0  0  0
   -4.7210   24.6100  -30.7930 C   0  0  0  0  0  0  0  0  0  0  0  0
   -3.8630   25.6550  -30.4740 O   0  0  0  0  0  0  0  0  0  0  0  0
   -4.4490   23.3020  -30.3540 C   0  0  0  0  0  0  0  0  0  0  0  0
   -3.0030   22.9610  -29.3950 S   0  0  0  0  0  0  0  0  0  0  0  0
   -1.8290   23.6230  -30.0630 O   0  0  0  0  0  0  0  0  0  0  0  0
   -3.1550   23.5470  -28.0190 O   0  0  0  0  0  0  0  0  0  0  0  0
   -2.7130   21.2350  -29.2950 N   0  0  0  0  0  0  0  0  0  0  0  0
   -2.6590   20.7690  -27.8980 C   0  0  0  0  0  0  0  0  0  0  0  0
   -1.3480   21.1900  -27.1860 C   0  0  0  0  0  0  0  0  0  0  0  0
   -0.2980   21.5300  -28.0810 O   0  0  0  0  0  0  0  0  0  0  0  0
   -0.2710   20.6350  -29.1710 C   0  0  0  0  0  0  0  0  0  0  0  0
   -1.5110   20.8390  -30.0640 C   0  0  0  0  0  0  0  0  0  0  0  0
   -5.3230   22.2610  -30.7040 C   0  0  0  0  0  0  0  0  0  0  0  0
   -6.1900   18.0500  -33.3520 C   0  0  0  0  0  0  0  0  0  0  0  0
   -7.3030   17.4600  -33.3940 O   0  0  0  0  0  0  0  0  0  0  0  0
   -4.9950   17.4290  -33.3030 N   0  0  0  0  0  0  0  0  0  0  0  0
   -4.7910   16.0090  -33.2180 C   0  0  0  0  0  0  0  0  0  0  0  0
   -4.5860   15.2590  -34.3860 C   0  0  0  0  0  0  0  0  0  0  0  0
   -4.3670   13.8810  -34.3050 C   0  0  0  0  0  0  0  0  0  0  0  0
   -4.3590   13.2450  -33.0590 C   0  0  0  0  0  0  0  0  0  0  0  0
   -4.5670   13.9860  -31.8920 C   0  0  0  0  0  0  0  0  0  0  0  0
   -4.7820   15.3650  -31.9700 C   0  0  0  0  0  0  0  0  0  0  0  0
   -4.0380   18.3560  -33.3230 N   0  0  0  0  0  0  0  0  0  0  0  0
   -2.5980   18.0870  -33.2530 C   0  0  0  0  0  0  0  0  0  0  0  0
   -3.7103   21.1892  -32.3489 H   0  0  0  0  0  0  0  0  0  0  0  0
   -2.9154   20.7703  -33.9044 H   0  0  0  0  0  0  0  0  0  0  0  0
   -4.4797   21.6533  -33.9044 H   0  0  0  0  0  0  0  0  0  0  0  0
   -7.1700   20.9440  -34.3220 H   0  0  0  0  0  0  0  0  0  0  0  0
   -7.6233   24.0375  -32.5043 H   0  0  0  0  0  0  0  0  0  0  0  0
   -6.0739   25.8921  -31.8979 H   0  0  0  0  0  0  0  0  0  0  0  0
   -3.5118   21.1959  -27.3498 H   0  0  0  0  0  0  0  0  0  0  0  0
   -2.6971   19.6697  -27.9089 H   0  0  0  0  0  0  0  0  0  0  0  0
   -1.5615   22.0636  -26.5526 H   0  0  0  0  0  0  0  0  0  0  0  0
   -1.0057   20.3231  -26.6019 H   0  0  0  0  0  0  0  0  0  0  0  0
    0.6372   20.8146  -29.7651 H   0  0  0  0  0  0  0  0  0  0  0  0
   -0.2734   19.6043  -28.7868 H   0  0  0  0  0  0  0  0  0  0  0  0
   -1.2889   21.6265  -30.7992 H   0  0  0  0  0  0  0  0  0  0  0  0
   -1.7309   19.8771  -30.5502 H   0  0  0  0  0  0  0  0  0  0  0  0
   -5.1135   21.2353  -30.3664 H   0  0  0  0  0  0  0  0  0  0  0  0
   -4.5977   15.7564  -35.3671 H   0  0  0  0  0  0  0  0  0  0  0  0
   -4.2008   13.2961  -35.2217 H   0  0  0  0  0  0  0  0  0  0  0  0
   -4.1888   12.1600  -32.9974 H   0  0  0  0  0  0  0  0  0  0  0  0
   -4.5615   13.4843  -30.9131 H   0  0  0  0  0  0  0  0  0  0  0  0
   -4.9446   15.9475  -31.0512 H   0  0  0  0  0  0  0  0  0  0  0  0
   -2.2866   18.0288  -32.1996 H   0  0  0  0  0  0  0  0  0  0  0  0
   -2.3786   17.1323  -33.7535 H   0  0  0  0  0  0  0  0  0  0  0  0
   -2.0487   18.8981  -33.7535 H   0  0  0  0  0  0  0  0  0  0  0  0
  1  2  1  0
  2  3  2  0
  3  4  1  0
  4  5  1  0
  5  6  2  0
  5  7  2  0
  5  8  1  0
  8  9  2  0
  9 10  1  0
 10 11  2  0
 11 12  1  0
 11 13  1  0
 13 14  1  0
 14 15  2  0
 14 16  2  0
 14 17  1  0
 17 18  1  0
 18 19  1  0
 19 20  1  0
 20 21  1  0
 21 22  1  0
 13 23  2  0
  3 24  1  0
 24 25  2  0
 24 26  1  0
 26 27  1  0
 27 28  2  0
 28 29  1  0
 29 30  2  0
 30 31  1  0
 31 32  2  0
 26 33  1  0
 33 34  1  0
 33  2  1  0
 23  8  1  0
 32 27  1  0
 22 17  1  0
  1 35  1  0
  1 36  1  0
  1 37  1  0
  4 38  1  0
  9 39  1  0
 10 40  1  0
 18 41  1  0
 18 42  1  0
 19 43  1  0
 19 44  1  0
 21 45  1  0
 21 46  1  0
 22 47  1  0
 22 48  1  0
 23 49  1  0
 28 50  1  0
 29 51  1  0
 30 52  1  0
 31 53  1  0
 32 54  1  0
 34 55  1  0
 34 56  1  0
 34 57  1  0
M  CHG  1  12  -1
M  END
>  <UniqueID>  (8) 
8

>  <SMILES>  (8) 
Cc1c(NS(=O)(=O)c2ccc([O-])c(S(=O)(=O)N3CCOCC3)c2)c(=O)n(-c2ccccc2)n1C

>  <Energy>  (8) 
114.96713667574305

>  <Genealogy>  (8) 
Cc1c(NS(=O)(=O)c2ccc([O-])c(S(=O)(=O)N3CCOCC3)c2)c(=O)n(-c2ccccc2)n1C (protonated)
Cc1c(NS(=O)(=O)c2ccc([O-])c(S(=O)(=O)N3CCOCC3)c2)c(=O)n(-c2ccccc2)n1C (3D coordinates assigned)
Cc1c(NS(=O)(=O)c2ccc([O-])c(S(=O)(=O)N3CCOCC3)c2)c(=O)n(-c2ccccc2)n1C (nonaromatic ring conformer: 114.96713667574305 kcal/mol)

>  <smiles>  (8) 
Cc1c(NS(=O)(=O)c2ccc(O)c(S(=O)(=O)N3CCOCC3)c2)c(=O)n(-c2ccccc2)n1C

>  <score_type>  (8) 
oracle

>  <origin>  (8) 
adgpu

>  <m_score__min__energy>  (8) 
-12.58

>  <m_primary>  (8) 
energy

$$$$
8:0
     RDKit          3D

 52 54  0  0  0  0  0  0  0  0999 V2000
   -3.0620   24.9180  -29.2320 C   0  0  0  0  0  0  0  0  0  0  0  0
   -3.6340   25.2970  -30.5190 N   0  0  0  0  0  0  0  0  0  0  0  0
   -5.0370   25.2600  -30.8390 C   0  0  0  0  0  0  0  0  0  0  0  0
   -5.6960   26.3290  -30.8110 O   0  0  0  0  0  0  0  0  0  0  0  0
   -5.7450   23.9870  -31.0940 C   0  0  0  0  0  0  0  0  0  0  0  0
   -7.1190   23.9810  -31.3140 C   0  0  0  0  0  0  0  0  0  0  0  0
   -7.7860   22.7820  -31.5770 C   0  0  0  0  0  0  0  0  0  0  0  0
   -7.1000   21.5580  -31.6350 C   0  0  0  0  0  0  0  0  0  0  0  0
   -8.0780   20.1280  -32.0690 S   0  0  0  0  0  0  0  0  0  0  0  0
   -9.3150   20.5590  -32.8110 O   0  0  0  0  0  0  0  0  0  0  0  0
   -8.5220   19.3990  -30.8310 O   0  0  0  0  0  0  0  0  0  0  0  0
   -7.1710   19.0350  -33.1200 C   0  0  0  0  0  0  0  0  0  0  0  0
   -6.4690   19.5160  -34.2340 C   0  0  0  0  0  0  0  0  0  0  0  0
   -5.7480   18.6340  -35.0550 C   0  0  0  0  0  0  0  0  0  0  0  0
   -5.7160   17.2680  -34.7540 C   0  0  0  0  0  0  0  0  0  0  0  0
   -6.4210   16.7810  -33.6500 C   0  0  0  0  0  0  0  0  0  0  0  0
   -7.1570   17.6600  -32.8410 C   0  0  0  0  0  0  0  0  0  0  0  0
   -5.6950   21.5500  -31.3980 C   0  0  0  0  0  0  0  0  0  0  0  0
   -4.6390   20.1050  -31.5030 S   0  0  0  0  0  0  0  0  0  0  0  0
   -5.3850   18.8580  -31.1600 O   0  0  0  0  0  0  0  0  0  0  0  0
   -4.1850   19.9670  -32.9260 O   0  0  0  0  0  0  0  0  0  0  0  0
   -3.2040   20.1760  -30.4940 N   0  0  0  0  0  0  0  0  0  0  0  0
   -3.4870   20.8300  -29.1940 C   0  0  0  0  0  0  0  0  0  0  0  0
   -2.1920   21.2540  -28.4940 C   0  0  0  0  0  0  0  0  0  0  0  0
   -1.5000   22.3630  -29.3170 C   0  0  0  0  0  0  0  0  0  0  0  0
   -0.0220   22.4870  -28.9300 C   0  0  0  0  0  0  0  0  0  0  0  0
   -1.6670   22.1430  -30.8510 C   0  0  0  0  0  0  0  0  0  0  0  0
   -1.9940   20.6740  -31.1870 C   0  0  0  0  0  0  0  0  0  0  0  0
   -5.0410   22.7800  -31.1660 C   0  0  0  0  0  0  0  0  0  0  0  0
   -3.6811   25.3282  -28.4205 H   0  0  0  0  0  0  0  0  0  0  0  0
   -3.0328   23.8213  -29.1524 H   0  0  0  0  0  0  0  0  0  0  0  0
   -2.0407   25.3187  -29.1524 H   0  0  0  0  0  0  0  0  0  0  0  0
   -7.6827   24.9250  -31.2807 H   0  0  0  0  0  0  0  0  0  0  0  0
   -8.8734   22.7970  -31.7424 H   0  0  0  0  0  0  0  0  0  0  0  0
   -6.4830   20.5911  -34.4665 H   0  0  0  0  0  0  0  0  0  0  0  0
   -5.2088   19.0167  -35.9341 H   0  0  0  0  0  0  0  0  0  0  0  0
   -5.1367   16.5783  -35.3855 H   0  0  0  0  0  0  0  0  0  0  0  0
   -6.3989   15.7067  -33.4148 H   0  0  0  0  0  0  0  0  0  0  0  0
   -7.7256   17.2694  -31.9842 H   0  0  0  0  0  0  0  0  0  0  0  0
   -4.1089   21.7204  -29.3681 H   0  0  0  0  0  0  0  0  0  0  0  0
   -4.0123   20.1103  -28.5489 H   0  0  0  0  0  0  0  0  0  0  0  0
   -2.4265   21.6354  -27.4892 H   0  0  0  0  0  0  0  0  0  0  0  0
   -1.5202   20.3870  -28.4100 H   0  0  0  0  0  0  0  0  0  0  0  0
   -1.9992   23.3127  -29.0743 H   0  0  0  0  0  0  0  0  0  0  0  0
    0.0706   22.4948  -27.8339 H   0  0  0  0  0  0  0  0  0  0  0  0
    0.5371   21.6326  -29.3392 H   0  0  0  0  0  0  0  0  0  0  0  0
    0.3869   23.4226  -29.3392 H   0  0  0  0  0  0  0  0  0  0  0  0
   -2.4849   22.7821  -31.2153 H   0  0  0  0  0  0  0  0  0  0  0  0
   -0.7156   22.4015  -31.3389 H   0  0  0  0  0  0  0  0  0  0  0  0
   -2.1523   20.5898  -32.2723 H   0  0  0  0  0  0  0  0  0  0  0  0
   -1.1454   20.0625  -30.8464 H   0  0  0  0  0  0  0  0  0  0  0  0
   -3.9485   22.7894  -31.0384 H   0  0  0  0  0  0  0  0  0  0  0  0
  1  2  1  0
  2  3  1  0
  3  4  2  0
  3  5  1  0
  5  6  2  0
  6  7  1  0
  7  8  2  0
  8  9  1  0
  9 10  2  0
  9 11  2  0
  9 12  1  0
 12 13  2  0
 13 14  1  0
 14 15  2  0
 15 16  1  0
 16 17  2  0
  8 18  1  0
 18 19  1  0
 19 20  2  0
 19 21  2  0
 19 22  1  0
 22 23  1  0
 23 24  1  0
 24 25  1  0
 25 26  1  0
 25 27  1  0
 27 28  1  0
 18 29  2  0
 29  5  1  0
 17 12  1  0
 28 22  1  0
  1 30  1  0
  1 31  1  0
  1 32  1  0
  6 33  1  0
  7 34  1  0
 13 35  1  0
 14 36  1  0
 15 37  1  0
 16 38  1  0
 17 39  1  0
 23 40  1  0
 23 41  1  0
 24 42  1  0
 24 43  1  0
 25 44  1  0
 26 45  1  0
 26 46  1  0
 26 47  1  0
 27 48  1  0
 27 49  1  0
 28 50  1  0
 28 51  1  0
 29 52  1  0
M  CHG  1   2  -1
M  END
>  <UniqueID>  (9) 
9

>  <SMILES>  (9) 
C[N-]C(=O)c1ccc(S(=O)(=O)c2ccccc2)c(S(=O)(=O)N2CCC(C)CC2)c1

>  <Energy>  (9) 
73.1785482212882

>  <Genealogy>  (9) 
C[N-]C(=O)c1ccc(S(=O)(=O)c2ccccc2)c(S(=O)(=O)N2CCC(C)CC2)c1 (protonated)
C[N-]C(=O)c1ccc(S(=O)(=O)c2ccccc2)c(S(=O)(=O)N2CCC(C)CC2)c1 (3D coordinates assigned)
C[N-]C(=O)c1ccc(S(=O)(=O)c2ccccc2)c(S(=O)(=O)N2CCC(C)CC2)c1 (nonaromatic ring conformer: 73.1785482212882 kcal/mol)

>  <smiles>  (9) 
CNC(=O)c1ccc(S(=O)(=O)c2ccccc2)c(S(=O)(=O)N2CCC(C)CC2)c1

>  <score_type>  (9) 
oracle

>  <origin>  (9) 
adgpu

>  <m_score__min__energy>  (9) 
-11.56

>  <m_primary>  (9) 
energy

$$$$
9:0
     RDKit          3D

 44 46  0  0  0  0  0  0  0  0999 V2000
   -6.4560   22.6460  -30.3620 O   0  0  0  0  0  0  0  0  0  0  0  0
   -5.4580   23.2330  -30.8600 C   0  0  0  0  0  0  0  0  0  0  0  0
   -5.5710   23.7620  -32.1410 O   0  0  0  0  0  0  0  0  0  0  0  0
   -4.1930   23.3500  -30.0900 C   0  0  0  0  0  0  0  0  0  0  0  0
   -3.7280   22.2490  -29.3440 C   0  0  0  0  0  0  0  0  0  0  0  0
   -2.5360   22.3280  -28.6070 C   0  0  0  0  0  0  0  0  0  0  0  0
   -1.9760   20.9500  -27.6570 S   0  0  0  0  0  0  0  0  0  0  0  0
   -1.1300   21.4390  -26.5150 O   0  0  0  0  0  0  0  0  0  0  0  0
   -3.1430   20.2000  -27.0810 O   0  0  0  0  0  0  0  0  0  0  0  0
   -0.9870   19.9200  -28.6460 N   0  0  0  0  0  0  0  0  0  0  0  0
   -0.8690   19.9620  -30.0760 C   0  0  0  0  0  0  0  0  0  0  0  0
    0.4090   19.8750  -30.6390 C   0  0  0  0  0  0  0  0  0  0  0  0
    0.5770   19.9350  -32.0250 C   0  0  0  0  0  0  0  0  0  0  0  0
   -0.5330   20.0660  -32.8610 C   0  0  0  0  0  0  0  0  0  0  0  0
   -1.8220   20.1210  -32.3130 C   0  0  0  0  0  0  0  0  0  0  0  0
   -3.2330   20.2630  -33.3690 S   0  0  0  0  0  0  0  0  0  0  0  0
   -3.3620   21.6900  -33.8260 O   0  0  0  0  0  0  0  0  0  0  0  0
   -3.0200   19.4050  -34.5840 O   0  0  0  0  0  0  0  0  0  0  0  0
   -4.7130   19.8030  -32.5610 N   0  0  0  0  0  0  0  0  0  0  0  0
   -5.8090   20.7270  -32.9030 C   0  0  0  0  0  0  0  0  0  0  0  0
   -7.1640   20.1740  -32.4160 C   0  0  0  0  0  0  0  0  0  0  0  0
   -6.9760   19.1250  -31.4860 O   0  0  0  0  0  0  0  0  0  0  0  0
   -6.3560   18.0190  -32.1210 C   0  0  0  0  0  0  0  0  0  0  0  0
   -5.0850   18.4220  -32.8980 C   0  0  0  0  0  0  0  0  0  0  0  0
   -1.9870   20.0660  -30.9220 C   0  0  0  0  0  0  0  0  0  0  0  0
   -1.8000   23.5190  -28.6140 C   0  0  0  0  0  0  0  0  0  0  0  0
   -2.2510   24.6220  -29.3410 C   0  0  0  0  0  0  0  0  0  0  0  0
   -1.5170   25.8010  -29.3240 O   0  0  0  0  0  0  0  0  0  0  0  0
   -3.4380   24.5450  -30.0800 C   0  0  0  0  0  0  0  0  0  0  0  0
   -3.8570   25.6640  -30.7930 O   0  0  0  0  0  0  0  0  0  0  0  0
   -4.3074   21.3140  -29.3390 H   0  0  0  0  0  0  0  0  0  0  0  0
    1.2869   19.7587  -29.9865 H   0  0  0  0  0  0  0  0  0  0  0  0
    1.5865   19.8788  -32.4582 H   0  0  0  0  0  0  0  0  0  0  0  0
   -0.3961   20.1261  -33.9508 H   0  0  0  0  0  0  0  0  0  0  0  0
   -5.6233   21.6997  -32.4240 H   0  0  0  0  0  0  0  0  0  0  0  0
   -5.8468   20.8396  -33.9966 H   0  0  0  0  0  0  0  0  0  0  0  0
   -7.7318   20.9842  -31.9352 H   0  0  0  0  0  0  0  0  0  0  0  0
   -7.7152   19.7807  -33.2829 H   0  0  0  0  0  0  0  0  0  0  0  0
   -6.0814   17.2799  -31.3540 H   0  0  0  0  0  0  0  0  0  0  0  0
   -7.0729   17.6029  -32.8442 H   0  0  0  0  0  0  0  0  0  0  0  0
   -4.2612   17.7453  -32.6269 H   0  0  0  0  0  0  0  0  0  0  0  0
   -5.2818   18.3519  -33.9780 H   0  0  0  0  0  0  0  0  0  0  0  0
   -2.9977   20.1045  -30.4897 H   0  0  0  0  0  0  0  0  0  0  0  0
   -0.8617   23.5859  -28.0438 H   0  0  0  0  0  0  0  0  0  0  0  0
  1  2  2  0
  2  3  1  0
  2  4  1  0
  4  5  2  0
  5  6  1  0
  6  7  1  0
  7  8  2  0
  7  9  2  0
  7 10  1  0
 10 11  1  0
 11 12  2  0
 12 13  1  0
 13 14  2  0
 14 15  1  0
 15 16  1  0
 16 17  2  0
 16 18  2  0
 16 19  1  0
 19 20  1  0
 20 21  1  0
 21 22  1  0
 22 23  1  0
 23 24  1  0
 15 25  2  0
  6 26  2  0
 26 27  1  0
 27 28  1  0
 27 29  2  0
 29 30  1  0
 29  4  1  0
 25 11  1  0
 24 19  1  0
  5 31  1  0
 12 32  1  0
 13 33  1  0
 14 34  1  0
 20 35  1  0
 20 36  1  0
 21 37  1  0
 21 38  1  0
 23 39  1  0
 23 40  1  0
 24 41  1  0
 24 42  1  0
 25 43  1  0
 26 44  1  0
M  CHG  4   3  -1  10  -1  28  -1  30  -1
M  END
>  <UniqueID>  (10) 
10

>  <SMILES>  (10) 
O=C([O-])c1cc(S(=O)(=O)[N-]c2cccc(S(=O)(=O)N3CCOCC3)c2)cc([O-])c1[O-]

>  <Energy>  (10) 
60.179972047561535

>  <Genealogy>  (10) 
O=C([O-])c1cc(S(=O)(=O)[N-]c2cccc(S(=O)(=O)N3CCOCC3)c2)cc([O-])c1[O-] (protonated)
O=C([O-])c1cc(S(=O)(=O)[N-]c2cccc(S(=O)(=O)N3CCOCC3)c2)cc([O-])c1[O-] (3D coordinates assigned)
O=C([O-])c1cc(S(=O)(=O)[N-]c2cccc(S(=O)(=O)N3CCOCC3)c2)cc([O-])c1[O-] (nonaromatic ring conformer: 60.179972047561535 kcal/mol)

>  <smiles>  (10) 
O=C(O)c1cc(S(=O)(=O)Nc2cccc(S(=O)(=O)N3CCOCC3)c2)cc(O)c1O

>  <score_type>  (10) 
oracle

>  <origin>  (10) 
adgpu

>  <m_score__min__energy>  (10) 
-14.800000000000001

>  <m_primary>  (10) 
energy

$$$$
10:0
     RDKit          3D

 54 57  0  0  0  0  0  0  0  0999 V2000
   -1.8456   25.0893  -29.0316 H   0  0  0  0  0  0  0  0  0  0  0  0
   -2.7560   24.5580  -29.3460 C   0  0  0  0  0  0  0  0  0  0  0  0
   -3.4880   24.9420  -30.4270 N   0  0  0  0  0  0  0  0  0  0  0  0
   -4.5560   24.1400  -30.6140 C   0  0  0  0  0  0  0  0  0  0  0  0
   -5.3940   24.3190  -31.5880 N   0  0  0  0  0  0  0  0  0  0  0  0
   -6.7840   23.3220  -31.8750 S   0  0  0  0  0  0  0  0  0  0  0  0
   -7.7040   23.3710  -30.6860 O   0  0  0  0  0  0  0  0  0  0  0  0
   -7.5220   23.8090  -33.0910 O   0  0  0  0  0  0  0  0  0  0  0  0
   -6.2530   21.6650  -32.1380 C   0  0  0  0  0  0  0  0  0  0  0  0
   -5.0790   21.4050  -32.8560 C   0  0  0  0  0  0  0  0  0  0  0  0
   -4.4823   22.2399  -33.2520 H   0  0  0  0  0  0  0  0  0  0  0  0
   -4.6630   20.0880  -33.0710 C   0  0  0  0  0  0  0  0  0  0  0  0
   -3.7441   19.8925  -33.6431 H   0  0  0  0  0  0  0  0  0  0  0  0
   -5.4080   19.0140  -32.5630 C   0  0  0  0  0  0  0  0  0  0  0  0
   -4.9660   17.6680  -32.8110 N   0  0  0  0  0  0  0  0  0  0  0  0
   -4.0610   17.3680  -32.3850 H   0  0  0  0  0  0  0  0  0  0  0  0
   -5.7640   16.6720  -33.4730 C   0  0  0  0  0  0  0  0  0  0  0  0
   -7.0030   16.8530  -33.6200 O   0  0  0  0  0  0  0  0  0  0  0  0
   -5.1430   15.4220  -33.9610 C   0  0  0  0  0  0  0  0  0  0  0  0
   -5.5440   14.1390  -33.6270 C   0  0  0  0  0  0  0  0  0  0  0  0
   -6.3911   13.8616  -32.9824 H   0  0  0  0  0  0  0  0  0  0  0  0
   -4.6730   13.2770  -34.2610 C   0  0  0  0  0  0  0  0  0  0  0  0
   -4.7330   11.7820  -34.1640 C   0  0  0  0  0  0  0  0  0  0  0  0
   -4.7450   11.4834  -33.1054 H   0  0  0  0  0  0  0  0  0  0  0  0
   -5.6464   11.4189  -34.6577 H   0  0  0  0  0  0  0  0  0  0  0  0
   -3.8516   11.3469  -34.6577 H   0  0  0  0  0  0  0  0  0  0  0  0
   -3.7640   13.9730  -34.9820 N   0  0  0  0  0  0  0  0  0  0  0  0
   -2.6900   13.4160  -35.7580 C   0  0  0  0  0  0  0  0  0  0  0  0
   -2.9110   13.0130  -37.0840 C   0  0  0  0  0  0  0  0  0  0  0  0
   -3.9112   13.1201  -37.5291 H   0  0  0  0  0  0  0  0  0  0  0  0
   -1.8660   12.4760  -37.8420 C   0  0  0  0  0  0  0  0  0  0  0  0
   -2.0485   12.1599  -38.8797 H   0  0  0  0  0  0  0  0  0  0  0  0
   -0.5810   12.3380  -37.2830 C   0  0  0  0  0  0  0  0  0  0  0  0
    0.5000   11.8060  -38.0010 O   0  0  0  0  0  0  0  0  0  0  0  0
    1.8640   12.1280  -37.7550 C   0  0  0  0  0  0  0  0  0  0  0  0
    2.0410   12.1698  -36.6701 H   0  0  0  0  0  0  0  0  0  0  0  0
    2.5091   11.3575  -38.2023 H   0  0  0  0  0  0  0  0  0  0  0  0
    2.0964   13.1057  -38.2023 H   0  0  0  0  0  0  0  0  0  0  0  0
   -0.3660   12.7440  -35.9600 C   0  0  0  0  0  0  0  0  0  0  0  0
    0.6340   12.6399  -35.5136 H   0  0  0  0  0  0  0  0  0  0  0  0
   -1.4100   13.2800  -35.2020 C   0  0  0  0  0  0  0  0  0  0  0  0
   -1.2271   13.5967  -34.1646 H   0  0  0  0  0  0  0  0  0  0  0  0
   -4.0450   15.2860  -34.8080 C   0  0  0  0  0  0  0  0  0  0  0  0
   -3.2900   16.4140  -35.4540 C   0  0  0  0  0  0  0  0  0  0  0  0
   -2.8579   17.0595  -34.6751 H   0  0  0  0  0  0  0  0  0  0  0  0
   -2.4834   16.0044  -36.0798 H   0  0  0  0  0  0  0  0  0  0  0  0
   -3.9762   17.0035  -36.0798 H   0  0  0  0  0  0  0  0  0  0  0  0
   -6.6040   19.2780  -31.8700 C   0  0  0  0  0  0  0  0  0  0  0  0
   -7.2147   18.4436  -31.4948 H   0  0  0  0  0  0  0  0  0  0  0  0
   -7.0200   20.5960  -31.6560 C   0  0  0  0  0  0  0  0  0  0  0  0
   -7.9526   20.7941  -31.1074 H   0  0  0  0  0  0  0  0  0  0  0  0
   -4.6380   22.9230  -29.4480 S   0  0  0  0  0  0  0  0  0  0  0  0
   -3.2420   23.4450  -28.6670 C   0  0  0  0  0  0  0  0  0  0  0  0
   -2.7917   22.9860  -27.7745 H   0  0  0  0  0  0  0  0  0  0  0  0
  1  2  1  0
  2  3  1  0
  3  4  1  0
  4  5  2  0
  5  6  1  0
  6  7  2  0
  6  8  2  0
  6  9  1  0
  9 10  2  0
 10 11  1  0
 10 12  1  0
 12 13  1  0
 12 14  2  0
 14 15  1  0
 15 16  1  0
 15 17  1  0
 17 18  2  0
 17 19  1  0
 19 20  1  0
 20 21  1  0
 20 22  2  0
 22 23  1  0
 23 24  1  0
 23 25  1  0
 23 26  1  0
 22 27  1  0
 27 28  1  0
 28 29  2  0
 29 30  1  0
 29 31  1  0
 31 32  1  0
 31 33  2  0
 33 34  1  0
 34 35  1  0
 35 36  1  0
 35 37  1  0
 35 38  1  0
 33 39  1  0
 39 40  1  0
 39 41  2  0
 41 42  1  0
 27 43  1  0
 43 44  1  0
 44 45  1  0
 44 46  1  0
 44 47  1  0
 14 48  1  0
 48 49  1  0
 48 50  2  0
 50 51  1  0
  4 52  1  0
 52 53  1  0
 53 54  1  0
 53  2  2  0
 50  9  1  0
 43 19  2  0
 41 28  1  0
M  CHG  1   3  -1
M  END
>  <UniqueID>  (11) 
11

>  <SMILES>  (11) 
COc1ccc(-n2c(C)cc(C(=O)Nc3ccc(S(=O)(=O)/N=c4/[n-]ccs4)cc3)c2C)cc1

>  <Energy>  (11) 
127.69689599641484

>  <Genealogy>  (11) 
COc1ccc(-n2c(C)cc(C(=O)Nc3ccc(S(=O)(=O)N=c4[n-]ccs4)cc3)c2C)cc1 (protonated)
COc1ccc(-n2c(C)cc(C(=O)Nc3ccc(S(=O)(=O)/N=c4/[n-]ccs4)cc3)c2C)cc1 (cis-trans isomerization)
COc1ccc(-n2c(C)cc(C(=O)Nc3ccc(S(=O)(=O)/N=c4/[n-]ccs4)cc3)c2C)cc1 (3D coordinates assigned)
COc1ccc(-n2c(C)cc(C(=O)Nc3ccc(S(=O)(=O)/N=c4/[n-]ccs4)cc3)c2C)cc1 (optimized conformer: 127.69689599641484 kcal/mol)

>  <smiles>  (11) 
COc1ccc(-n2c(C)cc(C(=O)Nc3ccc(S(=O)(=O)N=c4[nH]ccs4)cc3)c2C)cc1

>  <score_type>  (11) 
oracle

>  <origin>  (11) 
adgpu

>  <m_score__min__energy>  (11) 
-10

>  <m_primary>  (11) 
energy

$$$$
11:0
     RDKit          3D

 56 59  0  0  0  0  0  0  0  0999 V2000
   -8.1050   19.8160  -32.1030 C   0  0  0  0  0  0  0  0  0  0  0  0
   -7.4230   21.0690  -31.6220 C   0  0  0  0  0  0  0  0  0  0  0  0
   -8.1860   22.0420  -30.9530 C   0  0  0  0  0  0  0  0  0  0  0  0
   -7.5980   23.2210  -30.5000 C   0  0  0  0  0  0  0  0  0  0  0  0
   -6.2310   23.4430  -30.6890 C   0  0  0  0  0  0  0  0  0  0  0  0
   -5.5030   24.9470  -30.1320 S   0  0  0  0  0  0  0  0  0  0  0  0
   -6.5570   25.9910  -29.8860 O   0  0  0  0  0  0  0  0  0  0  0  0
   -4.5680   25.4560  -31.1940 O   0  0  0  0  0  0  0  0  0  0  0  0
   -4.6080   24.6540  -28.6760 N   0  0  0  0  0  0  0  0  0  0  0  0
   -3.4860   23.7540  -28.6250 C   0  0  0  0  0  0  0  0  0  0  0  0
   -3.6580   22.4110  -28.2390 C   0  0  0  0  0  0  0  0  0  0  0  0
   -2.5670   21.5350  -28.2160 C   0  0  0  0  0  0  0  0  0  0  0  0
   -1.2870   21.9980  -28.5570 C   0  0  0  0  0  0  0  0  0  0  0  0
   -1.1050   23.3380  -28.9250 C   0  0  0  0  0  0  0  0  0  0  0  0
   -2.1960   24.2140  -28.9560 C   0  0  0  0  0  0  0  0  0  0  0  0
   -1.9930   25.5370  -29.3290 O   0  0  0  0  0  0  0  0  0  0  0  0
   -0.1450   21.0170  -28.5560 C   0  0  0  0  0  0  0  0  0  0  0  0
   -0.1960   20.1130  -27.3080 C   0  0  0  0  0  0  0  0  0  0  0  0
   -1.6180   19.6240  -26.9140 C   0  0  0  0  0  0  0  0  0  0  0  0
   -2.7380   20.0810  -27.8650 C   0  0  0  0  0  0  0  0  0  0  0  0
   -5.4610   22.4860  -31.3640 C   0  0  0  0  0  0  0  0  0  0  0  0
   -6.0490   21.3130  -31.8620 C   0  0  0  0  0  0  0  0  0  0  0  0
   -5.0380   20.1720  -32.7650 S   0  0  0  0  0  0  0  0  0  0  0  0
   -5.6380   19.9160  -34.1210 O   0  0  0  0  0  0  0  0  0  0  0  0
   -4.9820   18.8660  -32.0230 O   0  0  0  0  0  0  0  0  0  0  0  0
   -3.4330   20.8320  -32.9380 N   0  0  0  0  0  0  0  0  0  0  0  0
   -2.7660   20.8840  -31.6250 C   0  0  0  0  0  0  0  0  0  0  0  0
   -1.2650   21.1870  -31.7810 C   0  0  0  0  0  0  0  0  0  0  0  0
   -0.9710   21.6320  -33.0910 O   0  0  0  0  0  0  0  0  0  0  0  0
   -1.2240   20.5910  -34.0170 C   0  0  0  0  0  0  0  0  0  0  0  0
   -2.6520   20.0200  -33.8810 C   0  0  0  0  0  0  0  0  0  0  0  0
   -8.4295   19.2198  -31.2374 H   0  0  0  0  0  0  0  0  0  0  0  0
   -8.9808   20.0857  -32.7115 H   0  0  0  0  0  0  0  0  0  0  0  0
   -7.4030   19.2270  -32.7115 H   0  0  0  0  0  0  0  0  0  0  0  0
   -9.2595   21.8705  -30.7853 H   0  0  0  0  0  0  0  0  0  0  0  0
   -8.2115   23.9796  -29.9920 H   0  0  0  0  0  0  0  0  0  0  0  0
   -4.7770   25.3070  -27.8780 H   0  0  0  0  0  0  0  0  0  0  0  0
   -4.6564   22.0480  -27.9537 H   0  0  0  0  0  0  0  0  0  0  0  0
   -0.1016   23.7023  -29.1903 H   0  0  0  0  0  0  0  0  0  0  0  0
   -0.2083   20.3899  -29.4575 H   0  0  0  0  0  0  0  0  0  0  0  0
    0.8005   21.5790  -28.5439 H   0  0  0  0  0  0  0  0  0  0  0  0
    0.4287   19.2284  -27.5007 H   0  0  0  0  0  0  0  0  0  0  0  0
    0.1645   20.7248  -26.4679 H   0  0  0  0  0  0  0  0  0  0  0  0
   -1.6101   18.5242  -26.8964 H   0  0  0  0  0  0  0  0  0  0  0  0
   -1.8405   20.0692  -25.9330 H   0  0  0  0  0  0  0  0  0  0  0  0
   -2.7005   19.4791  -28.7850 H   0  0  0  0  0  0  0  0  0  0  0  0
   -3.7083   19.9462  -27.3647 H   0  0  0  0  0  0  0  0  0  0  0  0
   -4.3834   22.6562  -31.5051 H   0  0  0  0  0  0  0  0  0  0  0  0
   -3.2310   21.6734  -31.0162 H   0  0  0  0  0  0  0  0  0  0  0  0
   -2.8771   19.9049  -31.1362 H   0  0  0  0  0  0  0  0  0  0  0  0
   -0.9795   21.9697  -31.0627 H   0  0  0  0  0  0  0  0  0  0  0  0
   -0.6993   20.2632  -31.5896 H   0  0  0  0  0  0  0  0  0  0  0  0
   -1.0962   20.9852  -35.0360 H   0  0  0  0  0  0  0  0  0  0  0  0
   -0.5146   19.7763  -33.8095 H   0  0  0  0  0  0  0  0  0  0  0  0
   -3.1437   20.0316  -34.8649 H   0  0  0  0  0  0  0  0  0  0  0  0
   -2.5927   18.9882  -33.5042 H   0  0  0  0  0  0  0  0  0  0  0  0
  1  2  1  0
  2  3  2  0
  3  4  1  0
  4  5  2  0
  5  6  1  0
  6  7  2  0
  6  8  2  0
  6  9  1  0
  9 10  1  0
 10 11  2  0
 11 12  1  0
 12 13  2  0
 13 14  1  0
 14 15  2  0
 15 16  1  0
 13 17  1  0
 17 18  1  0
 18 19  1  0
 19 20  1  0
  5 21  1  0
 21 22  2  0
 22 23  1  0
 23 24  2  0
 23 25  2  0
 23 26  1  0
 26 27  1  0
 27 28  1  0
 28 29  1  0
 29 30  1  0
 30 31  1  0
 22  2  1  0
 31 26  1  0
 15 10  1  0
 20 12  1  0
  1 32  1  0
  1 33  1  0
  1 34  1  0
  3 35  1  0
  4 36  1  0
  9 37  1  0
 11 38  1  0
 14 39  1  0
 17 40  1  0
 17 41  1  0
 18 42  1  0
 18 43  1  0
 19 44  1  0
 19 45  1  0
 20 46  1  0
 20 47  1  0
 21 48  1  0
 27 49  1  0
 27 50  1  0
 28 51  1  0
 28 52  1  0
 30 53  1  0
 30 54  1  0
 31 55  1  0
 31 56  1  0
M  CHG  1  16  -1
M  END
>  <UniqueID>  (12) 
12

>  <SMILES>  (12) 
Cc1ccc(S(=O)(=O)Nc2cc3c(cc2[O-])CCCC3)cc1S(=O)(=O)N1CCOCC1

>  <Energy>  (12) 
73.71964038203897

>  <Genealogy>  (12) 
Cc1ccc(S(=O)(=O)Nc2cc3c(cc2[O-])CCCC3)cc1S(=O)(=O)N1CCOCC1 (protonated)
Cc1ccc(S(=O)(=O)Nc2cc3c(cc2[O-])CCCC3)cc1S(=O)(=O)N1CCOCC1 (3D coordinates assigned)
Cc1ccc(S(=O)(=O)Nc2cc3c(cc2[O-])CCCC3)cc1S(=O)(=O)N1CCOCC1 (nonaromatic ring conformer: 73.71964038203897 kcal/mol)

>  <smiles>  (12) 
Cc1ccc(S(=O)(=O)Nc2cc3c(cc2O)CCCC3)cc1S(=O)(=O)N1CCOCC1

>  <score_type>  (12) 
oracle

>  <origin>  (12) 
adgpu

>  <m_score__min__energy>  (12) 
-14.43

>  <m_primary>  (12) 
energy

$$$$
12:0
     RDKit          3D

 38 40  0  0  0  0  0  0  0  0999 V2000
   -3.8720   25.3730  -30.4980 O   0  0  0  0  0  0  0  0  0  0  0  0
   -3.6630   24.1320  -30.4590 C   0  0  0  0  0  0  0  0  0  0  0  0
   -2.3970   23.6650  -29.9670 N   0  0  0  0  0  0  0  0  0  0  0  0
   -1.5260   24.3830  -29.3210 C   0  0  0  0  0  0  0  0  0  0  0  0
   -0.3410   23.9050  -28.9080 N   0  0  0  0  0  0  0  0  0  0  0  0
    0.2160   24.9240  -28.2730 N   0  0  0  0  0  0  0  0  0  0  0  0
   -0.5980   25.9700  -28.2950 N   0  0  0  0  0  0  0  0  0  0  0  0
   -1.7090   25.6610  -28.9450 N   0  0  0  0  0  0  0  0  0  0  0  0
   -4.7450   23.2040  -30.8640 C   0  0  0  0  0  0  0  0  0  0  0  0
   -6.0420   23.6910  -31.0940 C   0  0  0  0  0  0  0  0  0  0  0  0
   -7.0730   22.8210  -31.4590 C   0  0  0  0  0  0  0  0  0  0  0  0
   -6.8240   21.4480  -31.5870 C   0  0  0  0  0  0  0  0  0  0  0  0
   -8.1320   20.3500  -32.0390 S   0  0  0  0  0  0  0  0  0  0  0  0
   -9.2070   21.1250  -32.7510 O   0  0  0  0  0  0  0  0  0  0  0  0
   -8.7320   19.7620  -30.7920 O   0  0  0  0  0  0  0  0  0  0  0  0
   -7.5630   19.0600  -33.0730 N   0  0  0  0  0  0  0  0  0  0  0  0
   -6.4850   19.5520  -33.9630 C   0  0  0  0  0  0  0  0  0  0  0  0
   -5.6530   18.4130  -34.5950 C   0  0  0  0  0  0  0  0  0  0  0  0
   -6.4030   17.0800  -34.5780 C   0  0  0  0  0  0  0  0  0  0  0  0
   -6.8100   16.6890  -33.1480 C   0  0  0  0  0  0  0  0  0  0  0  0
   -7.1160   17.9130  -32.2610 C   0  0  0  0  0  0  0  0  0  0  0  0
   -5.5360   20.9540  -31.3460 C   0  0  0  0  0  0  0  0  0  0  0  0
   -4.5050   21.8240  -30.9800 C   0  0  0  0  0  0  0  0  0  0  0  0
   -6.2481   24.7661  -30.9860 H   0  0  0  0  0  0  0  0  0  0  0  0
   -8.0827   23.2151  -31.6463 H   0  0  0  0  0  0  0  0  0  0  0  0
   -8.3810   18.7650  -33.6560 H   0  0  0  0  0  0  0  0  0  0  0  0
   -6.9408   20.1426  -34.7714 H   0  0  0  0  0  0  0  0  0  0  0  0
   -5.8012   20.1549  -33.3474 H   0  0  0  0  0  0  0  0  0  0  0  0
   -5.4223   18.6777  -35.6375 H   0  0  0  0  0  0  0  0  0  0  0  0
   -4.7338   18.2939  -34.0027 H   0  0  0  0  0  0  0  0  0  0  0  0
   -7.3080   17.1697  -35.1968 H   0  0  0  0  0  0  0  0  0  0  0  0
   -5.7367   16.3004  -34.9758 H   0  0  0  0  0  0  0  0  0  0  0  0
   -7.7090   16.0571  -33.1982 H   0  0  0  0  0  0  0  0  0  0  0  0
   -5.9619   16.1542  -32.6955 H   0  0  0  0  0  0  0  0  0  0  0  0
   -7.9088   17.6488  -31.5457 H   0  0  0  0  0  0  0  0  0  0  0  0
   -6.1955   18.1985  -31.7308 H   0  0  0  0  0  0  0  0  0  0  0  0
   -5.3348   19.8771  -31.4451 H   0  0  0  0  0  0  0  0  0  0  0  0
   -3.4990   21.4259  -30.7814 H   0  0  0  0  0  0  0  0  0  0  0  0
  1  2  2  0
  2  3  1  0
  3  4  2  3
  4  5  1  0
  5  6  1  0
  6  7  2  0
  7  8  1  0
  2  9  1  0
  9 10  2  0
 10 11  1  0
 11 12  2  0
 12 13  1  0
 13 14  2  0
 13 15  2  0
 13 16  1  0
 16 17  1  0
 17 18  1  0
 18 19  1  0
 19 20  1  0
 20 21  1  0
 12 22  1  0
 22 23  2  0
  8  4  1  0
 23  9  1  0
 21 16  1  0
 10 24  1  0
 11 25  1  0
 16 26  1  0
 17 27  1  0
 17 28  1  0
 18 29  1  0
 18 30  1  0
 19 31  1  0
 19 32  1  0
 20 33  1  0
 20 34  1  0
 21 35  1  0
 21 36  1  0
 22 37  1  0
 23 38  1  0
M  CHG  3   5  -1   8  -1  16   1
M  END
>  <UniqueID>  (13) 
13

>  <SMILES>  (13) 
O=C(N=c1[n-]nn[n-]1)c1ccc(S(=O)(=O)[NH+]2CCCCC2)cc1

>  <Energy>  (13) 
88.46040805818194

>  <Genealogy>  (13) 
O=C(N=c1[n-]nn[n-]1)c1ccc(S(=O)(=O)[NH+]2CCCCC2)cc1 (protonated)
O=C(N=c1[n-]nn[n-]1)c1ccc(S(=O)(=O)[NH+]2CCCCC2)cc1 (3D coordinates assigned)
O=C(N=c1[n-]nn[n-]1)c1ccc(S(=O)(=O)[NH+]2CCCCC2)cc1 (nonaromatic ring conformer: 88.46040805818194 kcal/mol)

>  <smiles>  (13) 
O=C(N=c1[nH]nn[nH]1)c1ccc(S(=O)(=O)N2CCCCC2)cc1

>  <score_type>  (13) 
oracle

>  <origin>  (13) 
adgpu

>  <m_score__min__energy>  (13) 
-12.07

>  <m_primary>  (13) 
energy

$$$$
13:0
     RDKit          3D

 44 46  0  0  0  0  0  0  0  0999 V2000
   -2.3620   22.6320  -31.8340 O   0  0  0  0  0  0  0  0  0  0  0  0
   -3.1740   22.4300  -30.8930 C   0  0  0  0  0  0  0  0  0  0  0  0
   -2.7990   21.5250  -29.8450 N   0  0  0  0  0  0  0  0  0  0  0  0
   -2.0520   21.8560  -28.6640 C   0  0  0  0  0  0  0  0  0  0  0  0
   -2.0720   21.0210  -27.5310 C   0  0  0  0  0  0  0  0  0  0  0  0
   -1.3500   21.3650  -26.3860 C   0  0  0  0  0  0  0  0  0  0  0  0
   -0.6170   22.5520  -26.3520 C   0  0  0  0  0  0  0  0  0  0  0  0
   -0.6090   23.4010  -27.4610 C   0  0  0  0  0  0  0  0  0  0  0  0
   -1.3260   23.0640  -28.6150 C   0  0  0  0  0  0  0  0  0  0  0  0
   -1.2980   23.9380  -29.7020 O   0  0  0  0  0  0  0  0  0  0  0  0
   -4.4930   23.1030  -30.9170 C   0  0  0  0  0  0  0  0  0  0  0  0
   -5.6520   22.3360  -31.1200 C   0  0  0  0  0  0  0  0  0  0  0  0
   -6.9150   22.9450  -31.1570 C   0  0  0  0  0  0  0  0  0  0  0  0
   -8.3660   21.9710  -31.4030 S   0  0  0  0  0  0  0  0  0  0  0  0
   -9.4290   22.8190  -32.0420 O   0  0  0  0  0  0  0  0  0  0  0  0
   -8.8830   21.5060  -30.0680 O   0  0  0  0  0  0  0  0  0  0  0  0
   -8.0410   20.5800  -32.4110 N   0  0  0  0  0  0  0  0  0  0  0  0
   -6.8110   20.7960  -33.2050 C   0  0  0  0  0  0  0  0  0  0  0  0
   -6.2690   19.4780  -33.7660 C   0  0  0  0  0  0  0  0  0  0  0  0
   -5.8750   18.5150  -32.6310 C   0  0  0  0  0  0  0  0  0  0  0  0
   -6.6550   18.7760  -31.3310 C   0  0  0  0  0  0  0  0  0  0  0  0
   -8.0600   19.3200  -31.6260 C   0  0  0  0  0  0  0  0  0  0  0  0
   -7.0160   24.3320  -30.9930 C   0  0  0  0  0  0  0  0  0  0  0  0
   -5.8710   25.1000  -30.7720 C   0  0  0  0  0  0  0  0  0  0  0  0
   -4.6130   24.4930  -30.7210 C   0  0  0  0  0  0  0  0  0  0  0  0
   -3.4960   25.2770  -30.4530 O   0  0  0  0  0  0  0  0  0  0  0  0
   -2.6601   20.0915  -27.5475 H   0  0  0  0  0  0  0  0  0  0  0  0
   -1.3592   20.6996  -25.5101 H   0  0  0  0  0  0  0  0  0  0  0  0
   -0.0451   22.8192  -25.4511 H   0  0  0  0  0  0  0  0  0  0  0  0
   -0.0362   24.3395  -27.4274 H   0  0  0  0  0  0  0  0  0  0  0  0
   -2.1150   24.1240  -30.2700 H   0  0  0  0  0  0  0  0  0  0  0  0
   -5.5684   21.2471  -31.2513 H   0  0  0  0  0  0  0  0  0  0  0  0
   -7.0390   21.4738  -34.0408 H   0  0  0  0  0  0  0  0  0  0  0  0
   -6.0459   21.2323  -32.5460 H   0  0  0  0  0  0  0  0  0  0  0  0
   -7.0449   19.0049  -34.3859 H   0  0  0  0  0  0  0  0  0  0  0  0
   -5.3740   19.6952  -34.3675 H   0  0  0  0  0  0  0  0  0  0  0  0
   -6.0740   17.4842  -32.9595 H   0  0  0  0  0  0  0  0  0  0  0  0
   -4.8083   18.6754  -32.4155 H   0  0  0  0  0  0  0  0  0  0  0  0
   -6.7455   17.8333  -30.7715 H   0  0  0  0  0  0  0  0  0  0  0  0
   -6.1078   19.5262  -30.7412 H   0  0  0  0  0  0  0  0  0  0  0  0
   -8.6175   18.5611  -32.1946 H   0  0  0  0  0  0  0  0  0  0  0  0
   -8.5368   19.5414  -30.6597 H   0  0  0  0  0  0  0  0  0  0  0  0
   -8.0015   24.8186  -31.0385 H   0  0  0  0  0  0  0  0  0  0  0  0
   -5.9595   26.1881  -30.6374 H   0  0  0  0  0  0  0  0  0  0  0  0
  1  2  2  0
  2  3  1  0
  3  4  1  0
  4  5  2  0
  5  6  1  0
  6  7  2  0
  7  8  1  0
  8  9  2  0
  9 10  1  0
  2 11  1  0
 11 12  2  0
 12 13  1  0
 13 14  1  0
 14 15  2  0
 14 16  2  0
 14 17  1  0
 17 18  1  0
 18 19  1  0
 19 20  1  0
 20 21  1  0
 21 22  1  0
 13 23  2  0
 23 24  1  0
 24 25  2  0
 25 26  1  0
  9  4  1  0
 25 11  1  0
 22 17  1  0
  5 27  1  0
  6 28  1  0
  7 29  1  0
  8 30  1  0
 10 31  1  0
 12 32  1  0
 18 33  1  0
 18 34  1  0
 19 35  1  0
 19 36  1  0
 20 37  1  0
 20 38  1  0
 21 39  1  0
 21 40  1  0
 22 41  1  0
 22 42  1  0
 23 43  1  0
 24 44  1  0
M  CHG  2   3  -1  26  -1
M  END
>  <UniqueID>  (14) 
14

>  <SMILES>  (14) 
O=C([N-]c1ccccc1O)c1cc(S(=O)(=O)N2CCCCC2)ccc1[O-]

>  <Energy>  (14) 
58.62384419883457

>  <Genealogy>  (14) 
O=C([N-]c1ccccc1O)c1cc(S(=O)(=O)N2CCCCC2)ccc1[O-] (protonated)
O=C([N-]c1ccccc1O)c1cc(S(=O)(=O)N2CCCCC2)ccc1[O-] (3D coordinates assigned)
O=C([N-]c1ccccc1O)c1cc(S(=O)(=O)N2CCCCC2)ccc1[O-] (nonaromatic ring conformer: 58.62384419883457 kcal/mol)

>  <smiles>  (14) 
O=C(Nc1ccccc1O)c1cc(S(=O)(=O)N2CCCCC2)ccc1O

>  <score_type>  (14) 
oracle

>  <origin>  (14) 
adgpu

>  <m_score__min__energy>  (14) 
-13.52

>  <m_primary>  (14) 
energy

$$$$
14:0
     RDKit          3D

 44 46  0  0  0  0  0  0  0  0999 V2000
   -2.6570   15.6040  -35.6400 C   0  0  0  0  0  0  0  0  0  0  0  0
   -2.6530   16.5760  -34.6000 O   0  0  0  0  0  0  0  0  0  0  0  0
   -3.7530   17.3760  -34.2580 C   0  0  0  0  0  0  0  0  0  0  0  0
   -5.0310   16.8260  -34.3690 C   0  0  0  0  0  0  0  0  0  0  0  0
   -6.1620   17.5880  -34.0730 C   0  0  0  0  0  0  0  0  0  0  0  0
   -6.0310   18.9250  -33.6610 C   0  0  0  0  0  0  0  0  0  0  0  0
   -7.2670   19.7670  -33.4490 C   0  0  0  0  0  0  0  0  0  0  0  0
   -8.3480   18.9740  -32.8360 N   0  0  0  0  0  0  0  0  0  0  0  0
   -9.1460   19.7480  -31.8700 C   0  0  0  0  0  0  0  0  0  0  0  0
   -8.5320   21.0930  -31.6240 C   0  0  0  0  0  0  0  0  0  0  0  0
   -9.0890   22.3110  -31.9410 C   0  0  0  0  0  0  0  0  0  0  0  0
   -8.2060   23.2310  -31.6490 O   0  0  0  0  0  0  0  0  0  0  0  0
   -7.1450   22.6180  -31.1680 C   0  0  0  0  0  0  0  0  0  0  0  0
   -5.9040   23.3130  -30.7730 C   0  0  0  0  0  0  0  0  0  0  0  0
   -5.8020   24.7110  -30.8820 C   0  0  0  0  0  0  0  0  0  0  0  0
   -4.6360   25.3680  -30.4780 C   0  0  0  0  0  0  0  0  0  0  0  0
   -3.5630   24.6370  -29.9600 C   0  0  0  0  0  0  0  0  0  0  0  0
   -2.4060   25.2900  -29.5550 O   0  0  0  0  0  0  0  0  0  0  0  0
   -3.6570   23.2470  -29.8460 C   0  0  0  0  0  0  0  0  0  0  0  0
   -4.8220   22.5860  -30.2490 C   0  0  0  0  0  0  0  0  0  0  0  0
   -7.2990   21.2780  -31.1160 N   0  0  0  0  0  0  0  0  0  0  0  0
   -4.7460   19.4870  -33.5170 C   0  0  0  0  0  0  0  0  0  0  0  0
   -4.6350   20.8220  -33.0960 O   0  0  0  0  0  0  0  0  0  0  0  0
   -3.4330   21.5850  -33.1310 C   0  0  0  0  0  0  0  0  0  0  0  0
   -3.6120   18.7060  -33.8160 C   0  0  0  0  0  0  0  0  0  0  0  0
   -2.6611   14.5960  -35.1997 H   0  0  0  0  0  0  0  0  0  0  0  0
   -3.5546   15.7362  -36.2620 H   0  0  0  0  0  0  0  0  0  0  0  0
   -1.7583   15.7288  -36.2620 H   0  0  0  0  0  0  0  0  0  0  0  0
   -5.1479   15.7813  -34.6931 H   0  0  0  0  0  0  0  0  0  0  0  0
   -7.1623   17.1392  -34.1628 H   0  0  0  0  0  0  0  0  0  0  0  0
   -7.0190   20.6095  -32.7867 H   0  0  0  0  0  0  0  0  0  0  0  0
   -7.6128   20.1340  -34.4266 H   0  0  0  0  0  0  0  0  0  0  0  0
   -8.9940   18.6840  -33.6070 H   0  0  0  0  0  0  0  0  0  0  0  0
  -10.1620   19.8836  -32.2691 H   0  0  0  0  0  0  0  0  0  0  0  0
   -9.1770   19.1968  -30.9186 H   0  0  0  0  0  0  0  0  0  0  0  0
  -10.0912   22.4797  -32.3620 H   0  0  0  0  0  0  0  0  0  0  0  0
   -6.6442   25.2910  -31.2874 H   0  0  0  0  0  0  0  0  0  0  0  0
   -4.5628   26.4619  -30.5679 H   0  0  0  0  0  0  0  0  0  0  0  0
   -2.8128   22.6716  -29.4384 H   0  0  0  0  0  0  0  0  0  0  0  0
   -4.8913   21.4922  -30.1552 H   0  0  0  0  0  0  0  0  0  0  0  0
   -3.1020   21.7951  -32.1032 H   0  0  0  0  0  0  0  0  0  0  0  0
   -2.6530   21.0163  -33.6584 H   0  0  0  0  0  0  0  0  0  0  0  0
   -3.6156   22.5329  -33.6584 H   0  0  0  0  0  0  0  0  0  0  0  0
   -2.6071   19.1390  -33.7032 H   0  0  0  0  0  0  0  0  0  0  0  0
  1  2  1  0
  2  3  1  0
  3  4  2  0
  4  5  1  0
  5  6  2  0
  6  7  1  0
  7  8  1  0
  8  9  1  0
  9 10  1  0
 10 11  2  0
 11 12  1  0
 12 13  1  0
 13 14  1  0
 14 15  2  0
 15 16  1  0
 16 17  2  0
 17 18  1  0
 17 19  1  0
 19 20  2  0
 13 21  2  0
  6 22  1  0
 22 23  1  0
 23 24  1  0
 22 25  2  0
 25  3  1  0
 21 10  1  0
 20 14  1  0
  1 26  1  0
  1 27  1  0
  1 28  1  0
  4 29  1  0
  5 30  1  0
  7 31  1  0
  7 32  1  0
  8 33  1  0
  9 34  1  0
  9 35  1  0
 11 36  1  0
 15 37  1  0
 16 38  1  0
 19 39  1  0
 20 40  1  0
 24 41  1  0
 24 42  1  0
 24 43  1  0
 25 44  1  0
M  CHG  1  18  -1
M  END
>  <UniqueID>  (15) 
15

>  <SMILES>  (15) 
COc1ccc(CNCc2coc(-c3ccc([O-])cc3)n2)c(OC)c1

>  <Energy>  (15) 
68.8068797933033

>  <Genealogy>  (15) 
COc1ccc(CNCc2coc(-c3ccc([O-])cc3)n2)c(OC)c1 (protonated)
COc1ccc(CNCc2coc(-c3ccc([O-])cc3)n2)c(OC)c1 (3D coordinates assigned)
COc1ccc(CNCc2coc(-c3ccc([O-])cc3)n2)c(OC)c1 (optimized conformer: 68.8068797933033 kcal/mol)

>  <smiles>  (15) 
COc1ccc(CNCc2coc(-c3ccc(O)cc3)n2)c(OC)c1

>  <score_type>  (15) 
oracle

>  <origin>  (15) 
adgpu

>  <m_score__min__energy>  (15) 
-10.49

>  <m_primary>  (15) 
energy

$$$$
15:0
     RDKit          3D

 64 68  0  0  0  0  0  0  0  0999 V2000
   -8.2470   19.3530  -32.7280 C   0  0  0  0  0  0  0  0  0  0  0  0
   -7.3930   20.4250  -33.1120 O   0  0  0  0  0  0  0  0  0  0  0  0
   -7.0380   21.4960  -32.2780 C   0  0  0  0  0  0  0  0  0  0  0  0
   -8.0010   22.3370  -31.6860 C   0  0  0  0  0  0  0  0  0  0  0  0
   -7.6040   23.3760  -30.8380 C   0  0  0  0  0  0  0  0  0  0  0  0
   -6.2490   23.5840  -30.5710 C   0  0  0  0  0  0  0  0  0  0  0  0
   -5.2860   22.7570  -31.1550 C   0  0  0  0  0  0  0  0  0  0  0  0
   -5.6730   21.7200  -32.0130 C   0  0  0  0  0  0  0  0  0  0  0  0
   -4.6770   20.8670  -32.5960 N   0  0  0  0  0  0  0  0  0  0  0  0
   -3.6280   21.4370  -33.4430 C   0  0  0  0  0  0  0  0  0  0  0  0
   -2.2690   20.7600  -33.1660 C   0  0  0  0  0  0  0  0  0  0  0  0
   -2.3850   19.3890  -32.5960 N   0  0  0  0  0  0  0  0  0  0  0  0
   -1.1870   18.5750  -32.9020 C   0  0  0  0  0  0  0  0  0  0  0  0
    0.0360   19.0610  -32.1120 C   0  0  0  0  0  0  0  0  0  0  0  0
    0.0430   18.4470  -30.7380 C   0  0  0  0  0  0  0  0  0  0  0  0
    0.6110   17.2310  -30.3880 C   0  0  0  0  0  0  0  0  0  0  0  0
    1.2190   16.2390  -31.1610 C   0  0  0  0  0  0  0  0  0  0  0  0
    1.7260   15.1070  -30.4980 C   0  0  0  0  0  0  0  0  0  0  0  0
    1.6250   14.9930  -29.0920 C   0  0  0  0  0  0  0  0  0  0  0  0
    1.0230   16.0140  -28.3360 C   0  0  0  0  0  0  0  0  0  0  0  0
    0.5260   17.1200  -29.0200 C   0  0  0  0  0  0  0  0  0  0  0  0
   -0.0690   18.2730  -28.5650 C   0  0  0  0  0  0  0  0  0  0  0  0
   -0.3260   18.5830  -27.2340 O   0  0  0  0  0  0  0  0  0  0  0  0
   -0.3630   19.0810  -29.6070 N   0  0  0  0  0  0  0  0  0  0  0  0
   -0.9460   20.3870  -29.5190 C   0  0  0  0  0  0  0  0  0  0  0  0
   -2.1230   20.5850  -28.7830 C   0  0  0  0  0  0  0  0  0  0  0  0
   -2.7000   21.8560  -28.7100 C   0  0  0  0  0  0  0  0  0  0  0  0
   -2.1080   22.9380  -29.3780 C   0  0  0  0  0  0  0  0  0  0  0  0
   -2.8530   24.5310  -29.2890 S   0  0  0  0  0  0  0  0  0  0  0  0
   -1.6310   25.7120  -28.9720 N   0  0  0  0  0  0  0  0  0  0  0  0
   -3.8770   24.5660  -28.1890 O   0  0  0  0  0  0  0  0  0  0  0  0
   -3.5300   24.8420  -30.5940 O   0  0  0  0  0  0  0  0  0  0  0  0
   -0.9340   22.7380  -30.1190 C   0  0  0  0  0  0  0  0  0  0  0  0
   -0.3520   21.4680  -30.1860 C   0  0  0  0  0  0  0  0  0  0  0  0
   -3.6000   18.7010  -33.0680 C   0  0  0  0  0  0  0  0  0  0  0  0
   -4.8350   19.4120  -32.5090 C   0  0  0  0  0  0  0  0  0  0  0  0
   -8.2927   19.2957  -31.6304 H   0  0  0  0  0  0  0  0  0  0  0  0
   -9.2566   19.5271  -33.1284 H   0  0  0  0  0  0  0  0  0  0  0  0
   -7.8517   18.4078  -33.1284 H   0  0  0  0  0  0  0  0  0  0  0  0
   -9.0695   22.1758  -31.8916 H   0  0  0  0  0  0  0  0  0  0  0  0
   -8.3604   24.0306  -30.3805 H   0  0  0  0  0  0  0  0  0  0  0  0
   -5.9397   24.3994  -29.9005 H   0  0  0  0  0  0  0  0  0  0  0  0
   -4.2198   22.9211  -30.9400 H   0  0  0  0  0  0  0  0  0  0  0  0
   -3.8966   21.2871  -34.4991 H   0  0  0  0  0  0  0  0  0  0  0  0
   -3.5387   22.5101  -33.2182 H   0  0  0  0  0  0  0  0  0  0  0  0
   -1.7141   20.6957  -34.1136 H   0  0  0  0  0  0  0  0  0  0  0  0
   -1.7515   21.3759  -32.4158 H   0  0  0  0  0  0  0  0  0  0  0  0
   -1.3898   17.5264  -32.6387 H   0  0  0  0  0  0  0  0  0  0  0  0
   -0.9671   18.6719  -33.9754 H   0  0  0  0  0  0  0  0  0  0  0  0
    0.9528   18.7693  -32.6453 H   0  0  0  0  0  0  0  0  0  0  0  0
   -0.0097   20.1559  -32.0163 H   0  0  0  0  0  0  0  0  0  0  0  0
    1.2987   16.3400  -32.2535 H   0  0  0  0  0  0  0  0  0  0  0  0
    2.2048   14.3040  -31.0776 H   0  0  0  0  0  0  0  0  0  0  0  0
    2.0201   14.0995  -28.5865 H   0  0  0  0  0  0  0  0  0  0  0  0
    0.9472   15.9414  -27.2410 H   0  0  0  0  0  0  0  0  0  0  0  0
   -2.5933   19.7381  -28.2619 H   0  0  0  0  0  0  0  0  0  0  0  0
   -3.6205   22.0081  -28.1273 H   0  0  0  0  0  0  0  0  0  0  0  0
   -1.2250   25.9890  -29.8930 H   0  0  0  0  0  0  0  0  0  0  0  0
   -0.4696   23.5826  -30.6491 H   0  0  0  0  0  0  0  0  0  0  0  0
    0.5726   21.3170  -30.7625 H   0  0  0  0  0  0  0  0  0  0  0  0
   -3.6303   18.7221  -34.1674 H   0  0  0  0  0  0  0  0  0  0  0  0
   -3.5890   17.6566  -32.7229 H   0  0  0  0  0  0  0  0  0  0  0  0
   -5.7196   19.1092  -33.0885 H   0  0  0  0  0  0  0  0  0  0  0  0
   -4.9576   19.1314  -31.4525 H   0  0  0  0  0  0  0  0  0  0  0  0
  1  2  1  0
  2  3  1  0
  3  4  2  0
  4  5  1  0
  5  6  2  0
  6  7  1  0
  7  8  2  0
  8  9  1  0
  9 10  1  0
 10 11  1  0
 11 12  1  0
 12 13  1  0
 13 14  1  0
 14 15  1  0
 15 16  2  0
 16 17  1  0
 17 18  2  0
 18 19  1  0
 19 20  2  0
 20 21  1  0
 21 22  2  0
 22 23  1  0
 22 24  1  0
 24 25  1  0
 25 26  2  0
 26 27  1  0
 27 28  2  0
 28 29  1  0
 29 30  1  0
 29 31  2  0
 29 32  2  0
 28 33  1  0
 33 34  2  0
 12 35  1  0
 35 36  1  0
  8  3  1  0
 36  9  1  0
 24 15  1  0
 34 25  1  0
 21 16  1  0
  1 37  1  0
  1 38  1  0
  1 39  1  0
  4 40  1  0
  5 41  1  0
  6 42  1  0
  7 43  1  0
 10 44  1  0
 10 45  1  0
 11 46  1  0
 11 47  1  0
 13 48  1  0
 13 49  1  0
 14 50  1  0
 14 51  1  0
 17 52  1  0
 18 53  1  0
 19 54  1  0
 20 55  1  0
 26 56  1  0
 27 57  1  0
 30 58  1  0
 33 59  1  0
 34 60  1  0
 35 61  1  0
 35 62  1  0
 36 63  1  0
 36 64  1  0
M  CHG  2  23  -1  30  -1
M  END
>  <UniqueID>  (16) 
16

>  <SMILES>  (16) 
COc1ccccc1N1CCN(CCc2c3ccccc3c([O-])n2-c2ccc(S([NH-])(=O)=O)cc2)CC1

>  <Energy>  (16) 
118.85413423133733

>  <Genealogy>  (16) 
COc1ccccc1N1CCN(CCc2c3ccccc3c([O-])n2-c2ccc(S([NH-])(=O)=O)cc2)CC1 (protonated)
COc1ccccc1N1CCN(CCc2c3ccccc3c([O-])n2-c2ccc(S([NH-])(=O)=O)cc2)CC1 (3D coordinates assigned)
COc1ccccc1N1CCN(CCc2c3ccccc3c([O-])n2-c2ccc(S([NH-])(=O)=O)cc2)CC1 (nonaromatic ring conformer: 118.85413423133733 kcal/mol)

>  <smiles>  (16) 
COc1ccccc1N1CCN(CCc2c3ccccc3c(O)n2-c2ccc(S(N)(=O)=O)cc2)CC1

>  <score_type>  (16) 
oracle

>  <origin>  (16) 
adgpu

>  <m_score__min__energy>  (16) 
-12.25

>  <m_primary>  (16) 
energy

$$$$
16:0
     RDKit          3D

 53 56  0  0  0  0  0  0  0  0999 V2000
   -3.4840   25.6770  -29.8930 H   0  0  0  0  0  0  0  0  0  0  0  0
   -3.8880   25.2970  -30.7790 N   0  0  0  0  0  0  0  0  0  0  0  0
   -5.3540   24.4850  -30.3560 S   0  0  0  0  0  0  0  0  0  0  0  0
   -6.5270   25.2900  -30.8360 O   0  0  0  0  0  0  0  0  0  0  0  0
   -5.4410   24.3510  -28.8600 O   0  0  0  0  0  0  0  0  0  0  0  0
   -5.3770   22.8900  -31.1000 C   0  0  0  0  0  0  0  0  0  0  0  0
   -6.2860   22.6040  -32.1270 C   0  0  0  0  0  0  0  0  0  0  0  0
   -6.9939   23.3761  -32.4627 H   0  0  0  0  0  0  0  0  0  0  0  0
   -6.2970   21.3410  -32.7270 C   0  0  0  0  0  0  0  0  0  0  0  0
   -7.0265   21.1174  -33.5194 H   0  0  0  0  0  0  0  0  0  0  0  0
   -5.3780   20.3540  -32.3210 C   0  0  0  0  0  0  0  0  0  0  0  0
   -5.3710   19.0350  -32.8940 N   0  0  0  0  0  0  0  0  0  0  0  0
   -4.3510   18.4160  -33.4110 C   0  0  0  0  0  0  0  0  0  0  0  0
   -4.5270   17.1800  -33.9440 N   0  0  0  0  0  0  0  0  0  0  0  0
   -3.4770   16.4890  -34.4640 C   0  0  0  0  0  0  0  0  0  0  0  0
   -3.6720   15.1740  -35.0260 N   0  0  0  0  0  0  0  0  0  0  0  0
   -2.7950   14.7070  -36.1090 C   0  0  0  0  0  0  0  0  0  0  0  0
   -2.5711   15.5484  -36.7813 H   0  0  0  0  0  0  0  0  0  0  0  0
   -1.8663   14.3142  -35.6693 H   0  0  0  0  0  0  0  0  0  0  0  0
   -3.4740   13.5910  -36.9080 C   0  0  0  0  0  0  0  0  0  0  0  0
   -4.3141   14.0152  -37.4775 H   0  0  0  0  0  0  0  0  0  0  0  0
   -2.7345   13.1460  -37.5900 H   0  0  0  0  0  0  0  0  0  0  0  0
   -3.9610   12.5810  -36.0470 O   0  0  0  0  0  0  0  0  0  0  0  0
   -4.9990   13.1070  -35.2450 C   0  0  0  0  0  0  0  0  0  0  0  0
   -5.7647   13.5556  -35.8950 H   0  0  0  0  0  0  0  0  0  0  0  0
   -5.4326   12.2900  -34.6495 H   0  0  0  0  0  0  0  0  0  0  0  0
   -4.4610   14.1770  -34.2910 C   0  0  0  0  0  0  0  0  0  0  0  0
   -5.3059   14.6779  -33.7959 H   0  0  0  0  0  0  0  0  0  0  0  0
   -3.8147   13.6937  -33.5435 H   0  0  0  0  0  0  0  0  0  0  0  0
   -2.2380   17.0490  -34.4380 N   0  0  0  0  0  0  0  0  0  0  0  0
   -2.0530   18.2800  -33.9000 C   0  0  0  0  0  0  0  0  0  0  0  0
   -0.4160   18.9950  -33.8450 S   0  0  0  0  0  0  0  0  0  0  0  0
   -0.8070   19.9660  -32.3920 C   0  0  0  0  0  0  0  0  0  0  0  0
   -0.7580   19.3790  -31.1210 C   0  0  0  0  0  0  0  0  0  0  0  0
   -0.4667   18.3237  -31.0141 H   0  0  0  0  0  0  0  0  0  0  0  0
   -1.0790   20.1330  -29.9880 C   0  0  0  0  0  0  0  0  0  0  0  0
   -1.0457   19.6675  -28.9919 H   0  0  0  0  0  0  0  0  0  0  0  0
   -1.4430   21.4800  -30.1180 C   0  0  0  0  0  0  0  0  0  0  0  0
   -1.8700   22.4240  -28.6940 S   0  0  0  0  0  0  0  0  0  0  0  0
   -3.0600   21.8080  -28.0130 O   0  0  0  0  0  0  0  0  0  0  0  0
   -0.7190   22.4380  -27.7280 O   0  0  0  0  0  0  0  0  0  0  0  0
   -2.2490   24.0440  -29.1630 N   0  0  0  0  0  0  0  0  0  0  0  0
   -3.2690   24.1820  -28.9850 H   0  0  0  0  0  0  0  0  0  0  0  0
   -2.1150   24.1000  -30.1980 H   0  0  0  0  0  0  0  0  0  0  0  0
   -1.4950   22.0640  -31.3910 C   0  0  0  0  0  0  0  0  0  0  0  0
   -1.7884   23.1186  -31.4990 H   0  0  0  0  0  0  0  0  0  0  0  0
   -1.1750   21.3100  -32.5240 C   0  0  0  0  0  0  0  0  0  0  0  0
   -1.2125   21.7737  -33.5208 H   0  0  0  0  0  0  0  0  0  0  0  0
   -3.1050   18.9590  -33.3840 N   0  0  0  0  0  0  0  0  0  0  0  0
   -4.4890   20.6380  -31.2760 C   0  0  0  0  0  0  0  0  0  0  0  0
   -3.7942   19.8614  -30.9236 H   0  0  0  0  0  0  0  0  0  0  0  0
   -4.4790   21.9020  -30.6780 C   0  0  0  0  0  0  0  0  0  0  0  0
   -3.7626   22.1211  -29.8726 H   0  0  0  0  0  0  0  0  0  0  0  0
  1  2  1  0
  2  3  1  0
  3  4  2  0
  3  5  2  0
  3  6  1  0
  6  7  2  0
  7  8  1  0
  7  9  1  0
  9 10  1  0
  9 11  2  0
 11 12  1  0
 12 13  2  0
 13 14  1  0
 14 15  2  0
 15 16  1  0
 16 17  1  0
 17 18  1  0
 17 19  1  0
 17 20  1  0
 20 21  1  0
 20 22  1  0
 20 23  1  0
 23 24  1  0
 24 25  1  0
 24 26  1  0
 24 27  1  0
 27 28  1  0
 27 29  1  0
 15 30  1  0
 30 31  2  0
 31 32  1  0
 32 33  1  0
 33 34  2  0
 34 35  1  0
 34 36  1  0
 36 37  1  0
 36 38  2  0
 38 39  1  0
 39 40  2  0
 39 41  2  0
 39 42  1  0
 42 43  1  0
 42 44  1  0
 38 45  1  0
 45 46  1  0
 45 47  2  0
 47 48  1  0
 31 49  1  0
 11 50  1  0
 50 51  1  0
 50 52  2  0
 52 53  1  0
 52  6  1  0
 49 13  1  0
 27 16  1  0
 47 33  1  0
M  CHG  2   2  -1  49  -1
M  END
>  <UniqueID>  (17) 
17

>  <SMILES>  (17) 
[NH-]S(=O)(=O)c1ccc(/N=c2/nc(N3CCOCC3)nc(Sc3ccc(S(N)(=O)=O)cc3)[n-]2)cc1

>  <Energy>  (17) 
58.31322986707364

>  <Genealogy>  (17) 
[NH-]S(=O)(=O)c1ccc(N=c2nc(N3CCOCC3)nc(Sc3ccc(S(N)(=O)=O)cc3)[n-]2)cc1 (protonated)
[NH-]S(=O)(=O)c1ccc(/N=c2/nc(N3CCOCC3)nc(Sc3ccc(S(N)(=O)=O)cc3)[n-]2)cc1 (cis-trans isomerization)
[NH-]S(=O)(=O)c1ccc(/N=c2/nc(N3CCOCC3)nc(Sc3ccc(S(N)(=O)=O)cc3)[n-]2)cc1 (3D coordinates assigned)
[NH-]S(=O)(=O)c1ccc(/N=c2/nc(N3CCOCC3)nc(Sc3ccc(S(N)(=O)=O)cc3)[n-]2)cc1 (nonaromatic ring conformer: 58.31322986707364 kcal/mol)

>  <smiles>  (17) 
NS(=O)(=O)c1ccc(N=c2nc(N3CCOCC3)nc(Sc3ccc(S(N)(=O)=O)cc3)[nH]2)cc1

>  <score_type>  (17) 
oracle

>  <origin>  (17) 
adgpu

>  <m_score__min__energy>  (17) 
-10.68

>  <m_primary>  (17) 
energy

$$$$
17:0
     RDKit          3D

 61 64  0  0  0  0  0  0  0  0999 V2000
   -4.6130   16.8050  -32.3400 C   0  0  0  0  0  0  0  0  0  0  0  0
   -4.7620   17.9690  -33.2140 N   0  0  0  0  0  0  0  0  0  0  0  0
   -3.6230   18.7940  -33.5150 C   0  0  0  0  0  0  0  0  0  0  0  0
   -3.6020   20.1440  -33.1280 C   0  0  0  0  0  0  0  0  0  0  0  0
   -2.4990   20.9490  -33.4210 C   0  0  0  0  0  0  0  0  0  0  0  0
   -1.4040   20.4150  -34.1110 C   0  0  0  0  0  0  0  0  0  0  0  0
   -0.2680   21.2450  -34.4150 C   0  0  0  0  0  0  0  0  0  0  0  0
    0.6460   21.9120  -34.6570 N   0  0  0  0  0  0  0  0  0  0  0  0
   -1.4190   19.0720  -34.5070 C   0  0  0  0  0  0  0  0  0  0  0  0
   -2.5230   18.2660  -34.2130 C   0  0  0  0  0  0  0  0  0  0  0  0
   -6.3170   18.3270  -33.9070 S   0  0  0  0  0  0  0  0  0  0  0  0
   -7.1850   17.0980  -33.8780 O   0  0  0  0  0  0  0  0  0  0  0  0
   -6.1440   18.7380  -35.3430 O   0  0  0  0  0  0  0  0  0  0  0  0
   -7.0930   19.6290  -33.0090 C   0  0  0  0  0  0  0  0  0  0  0  0
   -8.4900   19.6960  -32.9190 C   0  0  0  0  0  0  0  0  0  0  0  0
   -9.0970   20.7140  -32.1800 C   0  0  0  0  0  0  0  0  0  0  0  0
   -8.3160   21.6760  -31.5370 C   0  0  0  0  0  0  0  0  0  0  0  0
   -6.9140   21.6370  -31.6350 C   0  0  0  0  0  0  0  0  0  0  0  0
   -6.0890   22.6680  -30.9620 C   0  0  0  0  0  0  0  0  0  0  0  0
   -6.5140   23.8530  -30.8900 O   0  0  0  0  0  0  0  0  0  0  0  0
   -4.7910   22.3400  -30.4390 N   0  0  0  0  0  0  0  0  0  0  0  0
   -4.0910   23.1390  -29.4710 C   0  0  0  0  0  0  0  0  0  0  0  0
   -4.4910   23.1760  -28.1240 C   0  0  0  0  0  0  0  0  0  0  0  0
   -3.7700   23.9310  -27.1940 C   0  0  0  0  0  0  0  0  0  0  0  0
   -2.6340   24.6470  -27.5950 C   0  0  0  0  0  0  0  0  0  0  0  0
   -1.7050   25.5780  -26.4190 S   0  0  0  0  0  0  0  0  0  0  0  0
   -1.2310   26.8450  -27.0730 O   0  0  0  0  0  0  0  0  0  0  0  0
   -2.6030   25.9610  -25.2750 O   0  0  0  0  0  0  0  0  0  0  0  0
   -0.3210   24.6990  -25.8010 N   0  0  0  0  0  0  0  0  0  0  0  0
    0.9400   25.4620  -25.9160 C   0  0  0  0  0  0  0  0  0  0  0  0
    1.8080   25.0090  -27.1010 C   0  0  0  0  0  0  0  0  0  0  0  0
    1.0020   24.5040  -28.1400 O   0  0  0  0  0  0  0  0  0  0  0  0
    0.4240   23.2750  -27.7440 C   0  0  0  0  0  0  0  0  0  0  0  0
   -0.2310   23.3300  -26.3440 C   0  0  0  0  0  0  0  0  0  0  0  0
   -2.2320   24.6090  -28.9360 C   0  0  0  0  0  0  0  0  0  0  0  0
   -2.9490   23.8510  -29.8640 C   0  0  0  0  0  0  0  0  0  0  0  0
   -6.3110   20.5980  -32.3670 C   0  0  0  0  0  0  0  0  0  0  0  0
   -4.6543   17.1278  -31.2892 H   0  0  0  0  0  0  0  0  0  0  0  0
   -5.4272   16.0920  -32.5369 H   0  0  0  0  0  0  0  0  0  0  0  0
   -3.6455   16.3201  -32.5369 H   0  0  0  0  0  0  0  0  0  0  0  0
   -4.4612   20.5707  -32.5898 H   0  0  0  0  0  0  0  0  0  0  0  0
   -2.4905   22.0039  -33.1093 H   0  0  0  0  0  0  0  0  0  0  0  0
   -0.5606   18.6503  -35.0504 H   0  0  0  0  0  0  0  0  0  0  0  0
   -2.5308   17.2126  -34.5297 H   0  0  0  0  0  0  0  0  0  0  0  0
   -9.1097   18.9454  -33.4314 H   0  0  0  0  0  0  0  0  0  0  0  0
  -10.1935   20.7578  -32.1044 H   0  0  0  0  0  0  0  0  0  0  0  0
   -8.8007   22.4698  -30.9498 H   0  0  0  0  0  0  0  0  0  0  0  0
   -4.2800   21.5340  -30.8670 H   0  0  0  0  0  0  0  0  0  0  0  0
   -5.3756   22.6082  -27.8000 H   0  0  0  0  0  0  0  0  0  0  0  0
   -4.0956   23.9631  -26.1438 H   0  0  0  0  0  0  0  0  0  0  0  0
    0.6954   26.5264  -26.0470 H   0  0  0  0  0  0  0  0  0  0  0  0
    1.5179   25.2845  -24.9970 H   0  0  0  0  0  0  0  0  0  0  0  0
    2.3852   25.8672  -27.4755 H   0  0  0  0  0  0  0  0  0  0  0  0
    2.4874   24.2139  -26.7601 H   0  0  0  0  0  0  0  0  0  0  0  0
   -0.3461   22.9984  -28.4791 H   0  0  0  0  0  0  0  0  0  0  0  0
    1.2355   22.5340  -27.6952 H   0  0  0  0  0  0  0  0  0  0  0  0
   -1.2469   22.9144  -26.4161 H   0  0  0  0  0  0  0  0  0  0  0  0
    0.4046   22.7472  -25.6611 H   0  0  0  0  0  0  0  0  0  0  0  0
   -1.3482   25.1784  -29.2594 H   0  0  0  0  0  0  0  0  0  0  0  0
   -2.6152   23.8122  -30.9114 H   0  0  0  0  0  0  0  0  0  0  0  0
   -5.2144   20.5459  -32.4360 H   0  0  0  0  0  0  0  0  0  0  0  0
  1  2  1  0
  2  3  1  0
  3  4  2  0
  4  5  1  0
  5  6  2  0
  6  7  1  0
  7  8  3  0
  6  9  1  0
  9 10  2  0
  2 11  1  0
 11 12  2  0
 11 13  2  0
 11 14  1  0
 14 15  2  0
 15 16  1  0
 16 17  2  0
 17 18  1  0
 18 19  1  0
 19 20  2  0
 19 21  1  0
 21 22  1  0
 22 23  2  0
 23 24  1  0
 24 25  2  0
 25 26  1  0
 26 27  2  0
 26 28  2  0
 26 29  1  0
 29 30  1  0
 30 31  1  0
 31 32  1  0
 32 33  1  0
 33 34  1  0
 25 35  1  0
 35 36  2  0
 18 37  2  0
 10  3  1  0
 37 14  1  0
 36 22  1  0
 34 29  1  0
  1 38  1  0
  1 39  1  0
  1 40  1  0
  4 41  1  0
  5 42  1  0
  9 43  1  0
 10 44  1  0
 15 45  1  0
 16 46  1  0
 17 47  1  0
 21 48  1  0
 23 49  1  0
 24 50  1  0
 30 51  1  0
 30 52  1  0
 31 53  1  0
 31 54  1  0
 33 55  1  0
 33 56  1  0
 34 57  1  0
 34 58  1  0
 35 59  1  0
 36 60  1  0
 37 61  1  0
M  END
>  <UniqueID>  (18) 
18

>  <SMILES>  (18) 
CN(c1ccc(C#N)cc1)S(=O)(=O)c1cccc(C(=O)Nc2ccc(S(=O)(=O)N3CCOCC3)cc2)c1

>  <Energy>  (18) 
84.3456705291777

>  <Genealogy>  (18) 
CN(c1ccc(C#N)cc1)S(=O)(=O)c1cccc(C(=O)Nc2ccc(S(=O)(=O)N3CCOCC3)cc2)c1 (3D coordinates assigned)
CN(c1ccc(C#N)cc1)S(=O)(=O)c1cccc(C(=O)Nc2ccc(S(=O)(=O)N3CCOCC3)cc2)c1 (nonaromatic ring conformer: 84.3456705291777 kcal/mol)

>  <smiles>  (18) 
CN(c1ccc(C#N)cc1)S(=O)(=O)c1cccc(C(=O)Nc2ccc(S(=O)(=O)N3CCOCC3)cc2)c1

>  <score_type>  (18) 
oracle

>  <origin>  (18) 
adgpu

>  <m_score__min__energy>  (18) 
-11.33

>  <m_primary>  (18) 
energy

$$$$
18:0
     RDKit          3D

 47 49  0  0  0  0  0  0  0  0999 V2000
   -5.7700   18.1450  -34.6960 C   0  0  0  0  0  0  0  0  0  0  0  0
   -5.5350   19.1700  -33.6720 N   0  0  0  0  0  0  0  0  0  0  0  0
   -6.3060   18.8550  -32.4530 C   0  0  0  0  0  0  0  0  0  0  0  0
   -7.3270   19.9280  -32.1760 C   0  0  0  0  0  0  0  0  0  0  0  0
   -8.6800   19.7280  -32.4980 C   0  0  0  0  0  0  0  0  0  0  0  0
   -9.6200   20.7300  -32.2370 C   0  0  0  0  0  0  0  0  0  0  0  0
   -9.2160   21.9380  -31.6610 C   0  0  0  0  0  0  0  0  0  0  0  0
   -7.8710   22.1470  -31.3460 C   0  0  0  0  0  0  0  0  0  0  0  0
   -6.9270   21.1480  -31.6050 C   0  0  0  0  0  0  0  0  0  0  0  0
   -3.8230   19.2360  -33.3140 S   0  0  0  0  0  0  0  0  0  0  0  0
   -3.3800   17.9640  -32.6470 O   0  0  0  0  0  0  0  0  0  0  0  0
   -3.0360   19.4120  -34.5830 O   0  0  0  0  0  0  0  0  0  0  0  0
   -3.4990   20.5740  -32.2130 C   0  0  0  0  0  0  0  0  0  0  0  0
   -2.8430   20.3290  -31.0020 C   0  0  0  0  0  0  0  0  0  0  0  0
   -2.5920   21.3760  -30.1100 C   0  0  0  0  0  0  0  0  0  0  0  0
   -2.9930   22.6890  -30.4210 C   0  0  0  0  0  0  0  0  0  0  0  0
   -2.7440   23.8150  -29.4880 C   0  0  0  0  0  0  0  0  0  0  0  0
   -3.3590   24.9030  -29.6670 O   0  0  0  0  0  0  0  0  0  0  0  0
   -1.8210   23.6890  -28.3920 N   0  0  0  0  0  0  0  0  0  0  0  0
   -1.5210   24.7710  -27.4960 C   0  0  0  0  0  0  0  0  0  0  0  0
   -1.4410   24.5160  -26.1190 C   0  0  0  0  0  0  0  0  0  0  0  0
   -1.1410   25.5490  -25.2260 C   0  0  0  0  0  0  0  0  0  0  0  0
   -0.9020   26.8400  -25.7030 C   0  0  0  0  0  0  0  0  0  0  0  0
   -0.9520   27.0980  -27.0760 C   0  0  0  0  0  0  0  0  0  0  0  0
   -1.2470   26.0680  -27.9760 C   0  0  0  0  0  0  0  0  0  0  0  0
   -1.2360   26.3340  -29.3410 O   0  0  0  0  0  0  0  0  0  0  0  0
   -3.6700   22.9220  -31.6310 C   0  0  0  0  0  0  0  0  0  0  0  0
   -3.9180   21.8740  -32.5210 C   0  0  0  0  0  0  0  0  0  0  0  0
   -5.9904   17.1837  -34.2088 H   0  0  0  0  0  0  0  0  0  0  0  0
   -6.6233   18.4423  -35.3233 H   0  0  0  0  0  0  0  0  0  0  0  0
   -4.8724   18.0408  -35.3233 H   0  0  0  0  0  0  0  0  0  0  0  0
   -6.8215   17.8930  -32.5904 H   0  0  0  0  0  0  0  0  0  0  0  0
   -5.6126   18.7984  -31.6009 H   0  0  0  0  0  0  0  0  0  0  0  0
   -9.0006   18.7809  -32.9565 H   0  0  0  0  0  0  0  0  0  0  0  0
  -10.6792   20.5673  -32.4854 H   0  0  0  0  0  0  0  0  0  0  0  0
   -9.9574   22.7243  -31.4557 H   0  0  0  0  0  0  0  0  0  0  0  0
   -7.5541   23.0983  -30.8938 H   0  0  0  0  0  0  0  0  0  0  0  0
   -5.8680   21.3179  -31.3609 H   0  0  0  0  0  0  0  0  0  0  0  0
   -2.5229   19.3072  -30.7502 H   0  0  0  0  0  0  0  0  0  0  0  0
   -2.0779   21.1724  -29.1591 H   0  0  0  0  0  0  0  0  0  0  0  0
   -1.4110   22.7580  -28.1620 H   0  0  0  0  0  0  0  0  0  0  0  0
   -1.6152   23.4982  -25.7399 H   0  0  0  0  0  0  0  0  0  0  0  0
   -1.0931   25.3449  -24.1462 H   0  0  0  0  0  0  0  0  0  0  0  0
   -0.6745   27.6535  -24.9983 H   0  0  0  0  0  0  0  0  0  0  0  0
   -0.7588   28.1142  -27.4502 H   0  0  0  0  0  0  0  0  0  0  0  0
   -4.0076   23.9390  -31.8793 H   0  0  0  0  0  0  0  0  0  0  0  0
   -4.4441   22.0708  -33.4668 H   0  0  0  0  0  0  0  0  0  0  0  0
  1  2  1  0
  2  3  1  0
  3  4  1  0
  4  5  2  0
  5  6  1  0
  6  7  2  0
  7  8  1  0
  8  9  2  0
  2 10  1  0
 10 11  2  0
 10 12  2  0
 10 13  1  0
 13 14  2  0
 14 15  1  0
 15 16  2  0
 16 17  1  0
 17 18  2  0
 17 19  1  0
 19 20  1  0
 20 21  2  0
 21 22  1  0
 22 23  2  0
 23 24  1  0
 24 25  2  0
 25 26  1  0
 16 27  1  0
 27 28  2  0
  9  4  1  0
 28 13  1  0
 25 20  1  0
  1 29  1  0
  1 30  1  0
  1 31  1  0
  3 32  1  0
  3 33  1  0
  5 34  1  0
  6 35  1  0
  7 36  1  0
  8 37  1  0
  9 38  1  0
 14 39  1  0
 15 40  1  0
 19 41  1  0
 21 42  1  0
 22 43  1  0
 23 44  1  0
 24 45  1  0
 27 46  1  0
 28 47  1  0
M  CHG  1  26  -1
M  END
>  <UniqueID>  (19) 
19

>  <SMILES>  (19) 
CN(Cc1ccccc1)S(=O)(=O)c1ccc(C(=O)Nc2ccccc2[O-])cc1

>  <Energy>  (19) 
56.9744417281213

>  <Genealogy>  (19) 
CN(Cc1ccccc1)S(=O)(=O)c1ccc(C(=O)Nc2ccccc2[O-])cc1 (protonated)
CN(Cc1ccccc1)S(=O)(=O)c1ccc(C(=O)Nc2ccccc2[O-])cc1 (3D coordinates assigned)
CN(Cc1ccccc1)S(=O)(=O)c1ccc(C(=O)Nc2ccccc2[O-])cc1 (optimized conformer: 56.9744417281213 kcal/mol)

>  <smiles>  (19) 
CN(Cc1ccccc1)S(=O)(=O)c1ccc(C(=O)Nc2ccccc2O)cc1

>  <score_type>  (19) 
oracle

>  <origin>  (19) 
adgpu

>  <m_score__min__energy>  (19) 
-12.140000000000001

>  <m_primary>  (19) 
energy

$$$$
19:0
     RDKit          3D

 66 69  0  0  0  0  0  0  0  0999 V2000
   -0.7830   23.9890  -24.9910 C   0  0  0  0  0  0  0  0  0  0  0  0
   -1.2850   24.1380  -26.4040 C   0  0  0  0  0  0  0  0  0  0  0  0
   -2.0100   23.0710  -26.9620 C   0  0  0  0  0  0  0  0  0  0  0  0
   -2.5320   23.1580  -28.2520 C   0  0  0  0  0  0  0  0  0  0  0  0
   -2.3390   24.3090  -29.0110 C   0  0  0  0  0  0  0  0  0  0  0  0
   -2.9590   24.3990  -30.3020 N   0  0  0  0  0  0  0  0  0  0  0  0
   -3.7670   23.3600  -30.8660 C   0  0  0  0  0  0  0  0  0  0  0  0
   -3.3970   22.1620  -30.7510 O   0  0  0  0  0  0  0  0  0  0  0  0
   -4.9730   23.6950  -31.5660 N   0  0  0  0  0  0  0  0  0  0  0  0
   -6.1790   22.9250  -31.6680 C   0  0  0  0  0  0  0  0  0  0  0  0
   -7.4440   23.5220  -31.8070 C   0  0  0  0  0  0  0  0  0  0  0  0
   -8.5820   22.7220  -31.9450 C   0  0  0  0  0  0  0  0  0  0  0  0
   -8.4670   21.3290  -31.9670 C   0  0  0  0  0  0  0  0  0  0  0  0
   -7.2070   20.7270  -31.8450 C   0  0  0  0  0  0  0  0  0  0  0  0
   -7.0270   18.9750  -31.9120 S   0  0  0  0  0  0  0  0  0  0  0  0
   -5.8000   18.5980  -31.1290 O   0  0  0  0  0  0  0  0  0  0  0  0
   -8.2240   18.3170  -31.2820 O   0  0  0  0  0  0  0  0  0  0  0  0
   -6.8400   18.4640  -33.5790 N   0  0  0  0  0  0  0  0  0  0  0  0
   -6.8290   16.9970  -33.7420 C   0  0  0  0  0  0  0  0  0  0  0  0
   -5.4810   16.3610  -33.3730 C   0  0  0  0  0  0  0  0  0  0  0  0
   -4.3400   17.0260  -34.1410 C   0  0  0  0  0  0  0  0  0  0  0  0
   -4.3490   18.5360  -33.9120 C   0  0  0  0  0  0  0  0  0  0  0  0
   -5.7180   19.1360  -34.2640 C   0  0  0  0  0  0  0  0  0  0  0  0
   -6.0690   21.5300  -31.6910 C   0  0  0  0  0  0  0  0  0  0  0  0
   -1.5470   25.3540  -28.5020 C   0  0  0  0  0  0  0  0  0  0  0  0
   -1.2380   26.4370  -29.3210 O   0  0  0  0  0  0  0  0  0  0  0  0
   -1.0500   25.3040  -27.1830 C   0  0  0  0  0  0  0  0  0  0  0  0
   -0.1780   26.7380  -26.5740 S   0  0  0  0  0  0  0  0  0  0  0  0
   -0.5610   28.0000  -27.2950 O   0  0  0  0  0  0  0  0  0  0  0  0
   -0.5200   26.9130  -25.1200 O   0  0  0  0  0  0  0  0  0  0  0  0
    1.6020   26.4980  -26.7300 C   0  0  0  0  0  0  0  0  0  0  0  0
    2.3580   26.9880  -25.4730 C   0  0  0  0  0  0  0  0  0  0  0  0
    2.3470   25.9700  -24.3240 C   0  0  0  0  0  0  0  0  0  0  0  0
    2.6640   24.5230  -24.7640 C   0  0  0  0  0  0  0  0  0  0  0  0
    3.0260   24.4080  -26.2480 C   0  0  0  0  0  0  0  0  0  0  0  0
    1.9280   25.0300  -27.1160 C   0  0  0  0  0  0  0  0  0  0  0  0
   -1.5931   24.2295  -24.2868 H   0  0  0  0  0  0  0  0  0  0  0  0
   -0.4503   22.9534  -24.8274 H   0  0  0  0  0  0  0  0  0  0  0  0
    0.0608   24.6754  -24.8274 H   0  0  0  0  0  0  0  0  0  0  0  0
   -2.1677   22.1553  -26.3733 H   0  0  0  0  0  0  0  0  0  0  0  0
   -3.0986   22.3137  -28.6717 H   0  0  0  0  0  0  0  0  0  0  0  0
   -7.5383   24.6179  -31.8072 H   0  0  0  0  0  0  0  0  0  0  0  0
   -9.5728   23.1909  -32.0367 H   0  0  0  0  0  0  0  0  0  0  0  0
   -9.3658   20.7049  -32.0801 H   0  0  0  0  0  0  0  0  0  0  0  0
   -7.6079   16.5669  -33.0953 H   0  0  0  0  0  0  0  0  0  0  0  0
   -7.0128   16.7833  -34.8053 H   0  0  0  0  0  0  0  0  0  0  0  0
   -5.3082   16.4825  -32.2935 H   0  0  0  0  0  0  0  0  0  0  0  0
   -5.5099   15.2938  -33.6380 H   0  0  0  0  0  0  0  0  0  0  0  0
   -3.3813   16.6131  -33.7941 H   0  0  0  0  0  0  0  0  0  0  0  0
   -4.4718   16.8285  -35.2151 H   0  0  0  0  0  0  0  0  0  0  0  0
   -4.1272   18.7411  -32.8543 H   0  0  0  0  0  0  0  0  0  0  0  0
   -3.5876   18.9941  -34.5603 H   0  0  0  0  0  0  0  0  0  0  0  0
   -5.7187   20.1980  -33.9772 H   0  0  0  0  0  0  0  0  0  0  0  0
   -5.8664   19.0005  -35.3455 H   0  0  0  0  0  0  0  0  0  0  0  0
   -5.0801   21.0596  -31.5872 H   0  0  0  0  0  0  0  0  0  0  0  0
    1.9679   27.1265  -27.5553 H   0  0  0  0  0  0  0  0  0  0  0  0
    3.4030   27.1903  -25.7505 H   0  0  0  0  0  0  0  0  0  0  0  0
    1.8429   27.8911  -25.1138 H   0  0  0  0  0  0  0  0  0  0  0  0
    3.0978   26.2782  -23.5815 H   0  0  0  0  0  0  0  0  0  0  0  0
    1.3258   25.9621  -23.9152 H   0  0  0  0  0  0  0  0  0  0  0  0
    3.5118   24.1544  -24.1679 H   0  0  0  0  0  0  0  0  0  0  0  0
    1.7542   23.9261  -24.6027 H   0  0  0  0  0  0  0  0  0  0  0  0
    3.9744   24.9342  -26.4314 H   0  0  0  0  0  0  0  0  0  0  0  0
    3.1269   23.3442  -26.5089 H   0  0  0  0  0  0  0  0  0  0  0  0
    2.2579   25.0093  -28.1652 H   0  0  0  0  0  0  0  0  0  0  0  0
    1.0132   24.4397  -26.9590 H   0  0  0  0  0  0  0  0  0  0  0  0
  1  2  1  0
  2  3  2  0
  3  4  1  0
  4  5  2  0
  5  6  1  0
  6  7  1  0
  7  8  2  0
  7  9  1  0
  9 10  1  0
 10 11  2  0
 11 12  1  0
 12 13  2  0
 13 14  1  0
 14 15  1  0
 15 16  2  0
 15 17  2  0
 15 18  1  0
 18 19  1  0
 19 20  1  0
 20 21  1  0
 21 22  1  0
 22 23  1  0
 14 24  2  0
  5 25  1  0
 25 26  1  0
 25 27  2  0
 27 28  1  0
 28 29  2  0
 28 30  2  0
 28 31  1  0
 31 32  1  0
 32 33  1  0
 33 34  1  0
 34 35  1  0
 35 36  1  0
 27  2  1  0
 36 31  1  0
 24 10  1  0
 23 18  1  0
  1 37  1  0
  1 38  1  0
  1 39  1  0
  3 40  1  0
  4 41  1  0
 11 42  1  0
 12 43  1  0
 13 44  1  0
 19 45  1  0
 19 46  1  0
 20 47  1  0
 20 48  1  0
 21 49  1  0
 21 50  1  0
 22 51  1  0
 22 52  1  0
 23 53  1  0
 23 54  1  0
 24 55  1  0
 31 56  1  0
 32 57  1  0
 32 58  1  0
 33 59  1  0
 33 60  1  0
 34 61  1  0
 34 62  1  0
 35 63  1  0
 35 64  1  0
 36 65  1  0
 36 66  1  0
M  CHG  3   6  -1   9  -1  26  -1
M  END
>  <UniqueID>  (20) 
20

>  <SMILES>  (20) 
Cc1ccc([N-]C(=O)[N-]c2cccc(S(=O)(=O)N3CCCCC3)c2)c([O-])c1S(=O)(=O)C1CCCCC1

>  <Energy>  (20) 
77.24330971094903

>  <Genealogy>  (20) 
Cc1ccc([N-]C(=O)[N-]c2cccc(S(=O)(=O)N3CCCCC3)c2)c([O-])c1S(=O)(=O)C1CCCCC1 (protonated)
Cc1ccc([N-]C(=O)[N-]c2cccc(S(=O)(=O)N3CCCCC3)c2)c([O-])c1S(=O)(=O)C1CCCCC1 (3D coordinates assigned)
Cc1ccc([N-]C(=O)[N-]c2cccc(S(=O)(=O)N3CCCCC3)c2)c([O-])c1S(=O)(=O)C1CCCCC1 (nonaromatic ring conformer: 77.24330971094903 kcal/mol)

>  <smiles>  (20) 
Cc1ccc(NC(=O)Nc2cccc(S(=O)(=O)N3CCCCC3)c2)c(O)c1S(=O)(=O)C1CCCCC1

>  <score_type>  (20) 
oracle

>  <origin>  (20) 
adgpu

>  <m_score__min__energy>  (20) 
-18.140000000000001

>  <m_primary>  (20) 
energy

$$$$
20:0
     RDKit          3D

 34 36  0  0  0  0  0  0  0  0999 V2000
   -3.8210   18.4200  -33.9810 N   0  0  0  0  0  0  0  0  0  0  0  0
   -5.5450   18.5340  -33.9350 S   0  0  0  0  0  0  0  0  0  0  0  0
   -6.1090   17.3320  -33.2330 O   0  0  0  0  0  0  0  0  0  0  0  0
   -6.0810   18.5690  -35.3390 O   0  0  0  0  0  0  0  0  0  0  0  0
   -6.0140   19.9950  -33.0700 C   0  0  0  0  0  0  0  0  0  0  0  0
   -7.3400   20.1660  -32.6550 C   0  0  0  0  0  0  0  0  0  0  0  0
   -7.7150   21.3160  -31.9580 C   0  0  0  0  0  0  0  0  0  0  0  0
   -6.7670   22.3010  -31.6670 C   0  0  0  0  0  0  0  0  0  0  0  0
   -5.4290   22.1370  -32.0700 C   0  0  0  0  0  0  0  0  0  0  0  0
   -4.4220   23.1170  -31.7860 N   0  0  0  0  0  0  0  0  0  0  0  0
   -4.3770   24.1310  -30.3800 S   0  0  0  0  0  0  0  0  0  0  0  0
   -5.7260   24.1130  -29.7180 O   0  0  0  0  0  0  0  0  0  0  0  0
   -4.0190   25.5330  -30.7860 O   0  0  0  0  0  0  0  0  0  0  0  0
   -3.1650   23.5380  -29.2430 C   0  0  0  0  0  0  0  0  0  0  0  0
   -3.2490   22.2290  -28.7420 C   0  0  0  0  0  0  0  0  0  0  0  0
   -2.2820   21.7430  -27.8440 C   0  0  0  0  0  0  0  0  0  0  0  0
   -2.3750   20.3640  -27.3180 C   0  0  0  0  0  0  0  0  0  0  0  0
   -1.3610   19.4780  -27.3180 N   0  0  0  0  0  0  0  0  0  0  0  0
   -1.8670   18.3870  -26.7640 N   0  0  0  0  0  0  0  0  0  0  0  0
   -3.1340   18.5970  -26.4400 N   0  0  0  0  0  0  0  0  0  0  0  0
   -3.4830   19.8280  -26.7740 N   0  0  0  0  0  0  0  0  0  0  0  0
   -1.2270   22.5840  -27.4530 C   0  0  0  0  0  0  0  0  0  0  0  0
   -1.1390   23.8860  -27.9510 C   0  0  0  0  0  0  0  0  0  0  0  0
   -2.1020   24.3650  -28.8450 C   0  0  0  0  0  0  0  0  0  0  0  0
   -1.9910   25.6620  -29.3340 O   0  0  0  0  0  0  0  0  0  0  0  0
   -5.0610   20.9800  -32.7690 C   0  0  0  0  0  0  0  0  0  0  0  0
   -3.5550   18.2170  -34.9710 H   0  0  0  0  0  0  0  0  0  0  0  0
   -8.0887   19.3919  -32.8788 H   0  0  0  0  0  0  0  0  0  0  0  0
   -8.7589   21.4472  -31.6371 H   0  0  0  0  0  0  0  0  0  0  0  0
   -7.0680   23.2073  -31.1211 H   0  0  0  0  0  0  0  0  0  0  0  0
   -4.0786   21.5779  -29.0547 H   0  0  0  0  0  0  0  0  0  0  0  0
   -0.4654   22.2149  -26.7503 H   0  0  0  0  0  0  0  0  0  0  0  0
   -0.3091   24.5371  -27.6389 H   0  0  0  0  0  0  0  0  0  0  0  0
   -4.0162   20.8425  -33.0845 H   0  0  0  0  0  0  0  0  0  0  0  0
  1  2  1  0
  2  3  2  0
  2  4  2  0
  2  5  1  0
  5  6  2  0
  6  7  1  0
  7  8  2  0
  8  9  1  0
  9 10  1  0
 10 11  1  0
 11 12  2  0
 11 13  2  0
 11 14  1  0
 14 15  2  0
 15 16  1  0
 16 17  1  0
 17 18  1  0
 18 19  2  0
 19 20  1  0
 20 21  1  0
 16 22  2  0
 22 23  1  0
 23 24  2  0
 24 25  1  0
  9 26  2  0
 26  5  1  0
 24 14  1  0
 21 17  2  0
  1 27  1  0
  6 28  1  0
  7 29  1  0
  8 30  1  0
 15 31  1  0
 22 32  1  0
 23 33  1  0
 26 34  1  0
M  CHG  4   1  -1  10  -1  20  -1  25  -1
M  END
>  <UniqueID>  (21) 
21

>  <SMILES>  (21) 
[NH-]S(=O)(=O)c1cccc([N-]S(=O)(=O)c2cc(-c3nn[n-]n3)ccc2[O-])c1

>  <Energy>  (21) 
80.10306060924054

>  <Genealogy>  (21) 
[NH-]S(=O)(=O)c1cccc([N-]S(=O)(=O)c2cc(-c3nn[n-]n3)ccc2[O-])c1 (protonated)
[NH-]S(=O)(=O)c1cccc([N-]S(=O)(=O)c2cc(-c3nn[n-]n3)ccc2[O-])c1 (3D coordinates assigned)
[NH-]S(=O)(=O)c1cccc([N-]S(=O)(=O)c2cc(-c3nn[n-]n3)ccc2[O-])c1 (optimized conformer: 80.10306060924054 kcal/mol)

>  <smiles>  (21) 
NS(=O)(=O)c1cccc(NS(=O)(=O)c2cc(-c3nn[nH]n3)ccc2O)c1

>  <score_type>  (21) 
oracle

>  <origin>  (21) 
adgpu

>  <m_score__min__energy>  (21) 
-12.93

>  <m_primary>  (21) 
energy

$$$$
21:0
     RDKit          3D

 48 50  0  0  0  0  0  0  0  0999 V2000
   -2.2920   21.0580  -34.1410 N   0  0  0  0  0  0  0  0  0  0  0  0
   -2.5610   20.5330  -32.8380 C   0  0  0  0  0  0  0  0  0  0  0  0
   -3.2390   19.4740  -32.7370 O   0  0  0  0  0  0  0  0  0  0  0  0
   -2.0790   21.2140  -31.6120 C   0  0  0  0  0  0  0  0  0  0  0  0
   -1.0010   20.6740  -30.8870 C   0  0  0  0  0  0  0  0  0  0  0  0
   -0.5380   21.3050  -29.7300 C   0  0  0  0  0  0  0  0  0  0  0  0
   -1.1390   22.4840  -29.2850 C   0  0  0  0  0  0  0  0  0  0  0  0
   -2.2050   23.0420  -30.0020 C   0  0  0  0  0  0  0  0  0  0  0  0
   -2.9790   24.5280  -29.4520 S   0  0  0  0  0  0  0  0  0  0  0  0
   -3.9200   24.2360  -28.3150 O   0  0  0  0  0  0  0  0  0  0  0  0
   -1.9150   25.4670  -28.9580 O   0  0  0  0  0  0  0  0  0  0  0  0
   -3.8570   25.2950  -30.7450 N   0  0  0  0  0  0  0  0  0  0  0  0
   -5.2890   25.3840  -30.4480 C   0  0  0  0  0  0  0  0  0  0  0  0
   -6.0170   24.1410  -30.8840 C   0  0  0  0  0  0  0  0  0  0  0  0
   -5.5180   23.3530  -31.9320 C   0  0  0  0  0  0  0  0  0  0  0  0
   -6.1850   22.1880  -32.3200 C   0  0  0  0  0  0  0  0  0  0  0  0
   -7.3670   21.7900  -31.6680 C   0  0  0  0  0  0  0  0  0  0  0  0
   -8.0730   20.5530  -32.0740 C   0  0  0  0  0  0  0  0  0  0  0  0
   -9.1920   20.6300  -32.6520 O   0  0  0  0  0  0  0  0  0  0  0  0
   -7.5120   19.2710  -31.7600 N   0  0  0  0  0  0  0  0  0  0  0  0
   -6.5830   18.5190  -32.5580 C   0  0  0  0  0  0  0  0  0  0  0  0
   -6.3000   18.8810  -33.8890 C   0  0  0  0  0  0  0  0  0  0  0  0
   -5.3780   18.1490  -34.6400 C   0  0  0  0  0  0  0  0  0  0  0  0
   -4.7170   17.0600  -34.0710 C   0  0  0  0  0  0  0  0  0  0  0  0
   -4.9690   16.7060  -32.7440 C   0  0  0  0  0  0  0  0  0  0  0  0
   -5.8920   17.4330  -31.9780 C   0  0  0  0  0  0  0  0  0  0  0  0
   -6.1300   17.0530  -30.6170 N   0  0  0  0  0  0  0  0  0  0  0  0
   -7.8660   22.5880  -30.6210 C   0  0  0  0  0  0  0  0  0  0  0  0
   -7.1970   23.7520  -30.2350 C   0  0  0  0  0  0  0  0  0  0  0  0
   -2.6690   22.4110  -31.1640 C   0  0  0  0  0  0  0  0  0  0  0  0
   -1.8790   22.0060  -34.2760 H   0  0  0  0  0  0  0  0  0  0  0  0
   -2.5910   20.5260  -34.9880 H   0  0  0  0  0  0  0  0  0  0  0  0
   -0.5192   19.7480  -31.2339 H   0  0  0  0  0  0  0  0  0  0  0  0
    0.3025   20.8718  -29.1679 H   0  0  0  0  0  0  0  0  0  0  0  0
   -0.7750   22.9751  -28.3705 H   0  0  0  0  0  0  0  0  0  0  0  0
   -5.4225   25.5157  -29.3641 H   0  0  0  0  0  0  0  0  0  0  0  0
   -5.7048   26.2407  -30.9986 H   0  0  0  0  0  0  0  0  0  0  0  0
   -4.5962   23.6540  -32.4514 H   0  0  0  0  0  0  0  0  0  0  0  0
   -5.7829   21.5771  -33.1417 H   0  0  0  0  0  0  0  0  0  0  0  0
   -6.8084   19.7459  -34.3400 H   0  0  0  0  0  0  0  0  0  0  0  0
   -5.1723   18.4317  -35.6830 H   0  0  0  0  0  0  0  0  0  0  0  0
   -3.9974   16.4803  -34.6677 H   0  0  0  0  0  0  0  0  0  0  0  0
   -4.4403   15.8515  -32.2965 H   0  0  0  0  0  0  0  0  0  0  0  0
   -6.8570   17.5420  -30.0470 H   0  0  0  0  0  0  0  0  0  0  0  0
   -5.5880   16.2890  -30.1580 H   0  0  0  0  0  0  0  0  0  0  0  0
   -8.7902   22.2925  -30.1027 H   0  0  0  0  0  0  0  0  0  0  0  0
   -7.5988   24.3673  -29.4165 H   0  0  0  0  0  0  0  0  0  0  0  0
   -3.5010   22.8546  -31.7306 H   0  0  0  0  0  0  0  0  0  0  0  0
  1  2  1  0
  2  3  2  0
  2  4  1  0
  4  5  2  0
  5  6  1  0
  6  7  2  0
  7  8  1  0
  8  9  1  0
  9 10  2  0
  9 11  2  0
  9 12  1  0
 12 13  1  0
 13 14  1  0
 14 15  2  0
 15 16  1  0
 16 17  2  0
 17 18  1  0
 18 19  2  0
 18 20  1  0
 20 21  1  0
 21 22  2  0
 22 23  1  0
 23 24  2  0
 24 25  1  0
 25 26  2  0
 26 27  1  0
 17 28  1  0
 28 29  2  0
  8 30  2  0
 30  4  1  0
 29 14  1  0
 26 21  1  0
  1 31  1  0
  1 32  1  0
  5 33  1  0
  6 34  1  0
  7 35  1  0
 13 36  1  0
 13 37  1  0
 15 38  1  0
 16 39  1  0
 22 40  1  0
 23 41  1  0
 24 42  1  0
 25 43  1  0
 27 44  1  0
 27 45  1  0
 28 46  1  0
 29 47  1  0
 30 48  1  0
M  CHG  2  12  -1  20  -1
M  END
>  <UniqueID>  (22) 
22

>  <SMILES>  (22) 
NC(=O)c1cccc(S(=O)(=O)[N-]Cc2ccc(C(=O)[N-]c3ccccc3N)cc2)c1

>  <Energy>  (22) 
54.50879787239403

>  <Genealogy>  (22) 
NC(=O)c1cccc(S(=O)(=O)[N-]Cc2ccc(C(=O)[N-]c3ccccc3N)cc2)c1 (protonated)
NC(=O)c1cccc(S(=O)(=O)[N-]Cc2ccc(C(=O)[N-]c3ccccc3N)cc2)c1 (3D coordinates assigned)
NC(=O)c1cccc(S(=O)(=O)[N-]Cc2ccc(C(=O)[N-]c3ccccc3N)cc2)c1 (optimized conformer: 54.50879787239403 kcal/mol)

>  <smiles>  (22) 
NC(=O)c1cccc(S(=O)(=O)NCc2ccc(C(=O)Nc3ccccc3N)cc2)c1

>  <score_type>  (22) 
oracle

>  <origin>  (22) 
adgpu

>  <m_score__min__energy>  (22) 
-11.67

>  <m_primary>  (22) 
energy

$$$$
22:0
     RDKit          3D

 33 35  0  0  0  0  0  0  0  0999 V2000
   -8.0360   23.6010  -32.6660 O   0  0  0  0  0  0  0  0  0  0  0  0
   -7.2660   23.4350  -31.6850 C   0  0  0  0  0  0  0  0  0  0  0  0
   -7.5960   22.3640  -30.6810 C   0  0  0  0  0  0  0  0  0  0  0  0
   -9.2240   21.6170  -31.0320 S   0  0  0  0  0  0  0  0  0  0  0  0
   -8.5440   20.0600  -31.5970 C   0  0  0  0  0  0  0  0  0  0  0  0
   -9.1160   18.8690  -31.3560 N   0  0  0  0  0  0  0  0  0  0  0  0
   -8.3680   17.9650  -31.9650 N   0  0  0  0  0  0  0  0  0  0  0  0
   -7.3620   18.6330  -32.5620 C   0  0  0  0  0  0  0  0  0  0  0  0
   -6.3450   17.9920  -33.4210 C   0  0  0  0  0  0  0  0  0  0  0  0
   -6.1990   16.5960  -33.4390 C   0  0  0  0  0  0  0  0  0  0  0  0
   -5.2100   16.0040  -34.2260 C   0  0  0  0  0  0  0  0  0  0  0  0
   -4.3710   16.8150  -34.9920 C   0  0  0  0  0  0  0  0  0  0  0  0
   -4.5200   18.1650  -34.9660 N   0  0  0  0  0  0  0  0  0  0  0  0
   -5.4750   18.7660  -34.2070 C   0  0  0  0  0  0  0  0  0  0  0  0
   -7.4330   19.9630  -32.3520 N   0  0  0  0  0  0  0  0  0  0  0  0
   -6.0420   24.1860  -31.6360 N   0  0  0  0  0  0  0  0  0  0  0  0
   -4.8850   23.8970  -30.8410 C   0  0  0  0  0  0  0  0  0  0  0  0
   -4.6100   22.5670  -30.4990 C   0  0  0  0  0  0  0  0  0  0  0  0
   -3.4910   22.2530  -29.7220 C   0  0  0  0  0  0  0  0  0  0  0  0
   -2.6220   23.2650  -29.3070 C   0  0  0  0  0  0  0  0  0  0  0  0
   -2.8600   24.5900  -29.6870 C   0  0  0  0  0  0  0  0  0  0  0  0
   -1.9810   25.5930  -29.2970 O   0  0  0  0  0  0  0  0  0  0  0  0
   -3.9810   24.9060  -30.4640 C   0  0  0  0  0  0  0  0  0  0  0  0
   -6.8244   21.5812  -30.7235 H   0  0  0  0  0  0  0  0  0  0  0  0
   -7.6281   22.8198  -29.6804 H   0  0  0  0  0  0  0  0  0  0  0  0
   -6.8659   15.9669  -32.8312 H   0  0  0  0  0  0  0  0  0  0  0  0
   -5.0930   14.9104  -34.2424 H   0  0  0  0  0  0  0  0  0  0  0  0
   -3.5884   16.3605  -35.6173 H   0  0  0  0  0  0  0  0  0  0  0  0
   -5.5666   19.8622  -34.2085 H   0  0  0  0  0  0  0  0  0  0  0  0
   -5.2786   21.7645  -30.8439 H   0  0  0  0  0  0  0  0  0  0  0  0
   -3.2948   21.2088  -29.4373 H   0  0  0  0  0  0  0  0  0  0  0  0
   -1.7509   23.0200  -28.6816 H   0  0  0  0  0  0  0  0  0  0  0  0
   -4.1549   25.9452  -30.7801 H   0  0  0  0  0  0  0  0  0  0  0  0
  1  2  2  0
  2  3  1  0
  3  4  1  0
  4  5  1  0
  5  6  2  0
  6  7  1  0
  7  8  1  0
  8  9  1  0
  9 10  2  0
 10 11  1  0
 11 12  2  0
 12 13  1  0
 13 14  2  0
  8 15  2  0
  2 16  1  0
 16 17  1  0
 17 18  2  0
 18 19  1  0
 19 20  2  0
 20 21  1  0
 21 22  1  0
 21 23  2  0
 15  5  1  0
 23 17  1  0
 14  9  1  0
  3 24  1  0
  3 25  1  0
 10 26  1  0
 11 27  1  0
 12 28  1  0
 14 29  1  0
 18 30  1  0
 19 31  1  0
 20 32  1  0
 23 33  1  0
M  CHG  3   7  -1  16  -1  22  -1
M  END
>  <UniqueID>  (23) 
23

>  <SMILES>  (23) 
O=C(CSc1n[n-]c(-c2cccnc2)n1)[N-]c1cccc([O-])c1

>  <Energy>  (23) 
66.7320346729417

>  <Genealogy>  (23) 
O=C(CSc1n[n-]c(-c2cccnc2)n1)[N-]c1cccc([O-])c1 (protonated)
O=C(CSc1n[n-]c(-c2cccnc2)n1)[N-]c1cccc([O-])c1 (3D coordinates assigned)
O=C(CSc1n[n-]c(-c2cccnc2)n1)[N-]c1cccc([O-])c1 (optimized conformer: 66.7320346729417 kcal/mol)

>  <smiles>  (23) 
O=C(CSc1n[nH]c(-c2cccnc2)n1)Nc1cccc(O)c1

>  <score_type>  (23) 
oracle

>  <origin>  (23) 
adgpu

>  <m_score__min__energy>  (23) 
-10.67

>  <m_primary>  (23) 
energy

$$$$
23:0
     RDKit          3D

 46 48  0  0  0  0  0  0  0  0999 V2000
   -3.8680   16.0410  -34.6920 N   0  0  0  0  0  0  0  0  0  0  0  0
   -4.6930   17.0960  -34.2010 C   0  0  0  0  0  0  0  0  0  0  0  0
   -5.9450   16.9440  -34.1950 O   0  0  0  0  0  0  0  0  0  0  0  0
   -4.0900   18.3560  -33.7070 C   0  0  0  0  0  0  0  0  0  0  0  0
   -2.8410   18.3450  -33.0600 C   0  0  0  0  0  0  0  0  0  0  0  0
   -2.2720   19.5330  -32.5920 C   0  0  0  0  0  0  0  0  0  0  0  0
   -2.9490   20.7540  -32.7510 C   0  0  0  0  0  0  0  0  0  0  0  0
   -2.3880   21.9990  -32.3080 N   0  0  0  0  0  0  0  0  0  0  0  0
   -2.6750   22.6780  -31.0780 C   0  0  0  0  0  0  0  0  0  0  0  0
   -1.7930   22.7390  -30.1780 O   0  0  0  0  0  0  0  0  0  0  0  0
   -4.0230   23.2580  -30.8270 C   0  0  0  0  0  0  0  0  0  0  0  0
   -5.1690   22.5250  -31.1970 C   0  0  0  0  0  0  0  0  0  0  0  0
   -6.4540   23.0360  -30.9740 C   0  0  0  0  0  0  0  0  0  0  0  0
   -7.8670   22.0960  -31.4450 S   0  0  0  0  0  0  0  0  0  0  0  0
   -8.6100   21.6510  -30.2160 O   0  0  0  0  0  0  0  0  0  0  0  0
   -8.7650   22.9690  -32.2770 O   0  0  0  0  0  0  0  0  0  0  0  0
   -7.3540   20.6990  -32.3680 N   0  0  0  0  0  0  0  0  0  0  0  0
   -6.6320   19.7110  -31.5260 C   0  0  0  0  0  0  0  0  0  0  0  0
   -7.3210   18.3370  -31.4420 C   0  0  0  0  0  0  0  0  0  0  0  0
   -8.8230   18.5060  -31.2220 C   0  0  0  0  0  0  0  0  0  0  0  0
   -9.4760   19.3510  -32.3300 C   0  0  0  0  0  0  0  0  0  0  0  0
   -8.4550   20.1380  -33.1740 C   0  0  0  0  0  0  0  0  0  0  0  0
   -6.6060   24.2960  -30.3850 C   0  0  0  0  0  0  0  0  0  0  0  0
   -5.4830   25.0320  -30.0100 C   0  0  0  0  0  0  0  0  0  0  0  0
   -4.1970   24.5250  -30.2230 C   0  0  0  0  0  0  0  0  0  0  0  0
   -3.1080   25.2920  -29.8210 O   0  0  0  0  0  0  0  0  0  0  0  0
   -4.1790   20.7710  -33.4180 C   0  0  0  0  0  0  0  0  0  0  0  0
   -4.7500   19.5850  -33.8850 C   0  0  0  0  0  0  0  0  0  0  0  0
   -3.0450   15.7030  -34.1450 H   0  0  0  0  0  0  0  0  0  0  0  0
   -2.3073   17.3932  -32.9211 H   0  0  0  0  0  0  0  0  0  0  0  0
   -1.2899   19.5119  -32.0970 H   0  0  0  0  0  0  0  0  0  0  0  0
   -5.0524   21.5376  -31.6676 H   0  0  0  0  0  0  0  0  0  0  0  0
   -5.6257   19.5681  -31.9466 H   0  0  0  0  0  0  0  0  0  0  0  0
   -6.6105   20.1190  -30.5047 H   0  0  0  0  0  0  0  0  0  0  0  0
   -7.1518   17.7889  -32.3806 H   0  0  0  0  0  0  0  0  0  0  0  0
   -6.8975   17.7771  -30.5951 H   0  0  0  0  0  0  0  0  0  0  0  0
   -9.2941   17.5121  -31.2090 H   0  0  0  0  0  0  0  0  0  0  0  0
   -8.9698   19.0282  -30.2651 H   0  0  0  0  0  0  0  0  0  0  0  0
  -10.0374   18.6799  -32.9966 H   0  0  0  0  0  0  0  0  0  0  0  0
  -10.1298   20.0863  -31.8382 H   0  0  0  0  0  0  0  0  0  0  0  0
   -8.0279   19.4614  -33.9288 H   0  0  0  0  0  0  0  0  0  0  0  0
   -8.9890   20.9817  -33.6355 H   0  0  0  0  0  0  0  0  0  0  0  0
   -7.6128   24.7063  -30.2176 H   0  0  0  0  0  0  0  0  0  0  0  0
   -5.6094   26.0197  -29.5427 H   0  0  0  0  0  0  0  0  0  0  0  0
   -4.7006   21.7265  -33.5759 H   0  0  0  0  0  0  0  0  0  0  0  0
   -5.7237   19.6125  -34.3961 H   0  0  0  0  0  0  0  0  0  0  0  0
  1  2  1  0
  2  3  2  0
  2  4  1  0
  4  5  2  0
  5  6  1  0
  6  7  2  0
  7  8  1  0
  8  9  1  0
  9 10  2  0
  9 11  1  0
 11 12  2  0
 12 13  1  0
 13 14  1  0
 14 15  2  0
 14 16  2  0
 14 17  1  0
 17 18  1  0
 18 19  1  0
 19 20  1  0
 20 21  1  0
 21 22  1  0
 13 23  2  0
 23 24  1  0
 24 25  2  0
 25 26  1  0
  7 27  1  0
 27 28  2  0
 28  4  1  0
 25 11  1  0
 22 17  1  0
  1 29  1  0
  5 30  1  0
  6 31  1  0
 12 32  1  0
 18 33  1  0
 18 34  1  0
 19 35  1  0
 19 36  1  0
 20 37  1  0
 20 38  1  0
 21 39  1  0
 21 40  1  0
 22 41  1  0
 22 42  1  0
 23 43  1  0
 24 44  1  0
 27 45  1  0
 28 46  1  0
M  CHG  3   1  -1   8  -1  26  -1
M  END
>  <UniqueID>  (24) 
24

>  <SMILES>  (24) 
[NH-]C(=O)c1ccc([N-]C(=O)c2cc(S(=O)(=O)N3CCCCC3)ccc2[O-])cc1

>  <Energy>  (24) 
61.142252069121625

>  <Genealogy>  (24) 
[NH-]C(=O)c1ccc([N-]C(=O)c2cc(S(=O)(=O)N3CCCCC3)ccc2[O-])cc1 (protonated)
[NH-]C(=O)c1ccc([N-]C(=O)c2cc(S(=O)(=O)N3CCCCC3)ccc2[O-])cc1 (3D coordinates assigned)
[NH-]C(=O)c1ccc([N-]C(=O)c2cc(S(=O)(=O)N3CCCCC3)ccc2[O-])cc1 (nonaromatic ring conformer: 61.142252069121625 kcal/mol)

>  <smiles>  (24) 
NC(=O)c1ccc(NC(=O)c2cc(S(=O)(=O)N3CCCCC3)ccc2O)cc1

>  <score_type>  (24) 
oracle

>  <origin>  (24) 
adgpu

>  <m_score__min__energy>  (24) 
-12.73

>  <m_primary>  (24) 
energy

$$$$
24:0
     RDKit          3D

 40 42  0  0  0  0  0  0  0  0999 V2000
    0.0677   24.4646  -27.1342 H   0  0  0  0  0  0  0  0  0  0  0  0
   -0.8370   24.5700  -27.7510 C   0  0  0  0  0  0  0  0  0  0  0  0
   -0.9590   25.3440  -28.8070 O   0  0  0  0  0  0  0  0  0  0  0  0
   -2.1490   25.2580  -29.3280 N   0  0  0  0  0  0  0  0  0  0  0  0
   -2.8250   24.3800  -28.5640 C   0  0  0  0  0  0  0  0  0  0  0  0
   -4.0590   24.0300  -28.7610 N   0  0  0  0  0  0  0  0  0  0  0  0
   -5.0240   24.6580  -30.0580 S   0  0  0  0  0  0  0  0  0  0  0  0
   -6.2410   25.3270  -29.4820 O   0  0  0  0  0  0  0  0  0  0  0  0
   -4.2220   25.6710  -30.8250 O   0  0  0  0  0  0  0  0  0  0  0  0
   -5.4910   23.3560  -31.1460 C   0  0  0  0  0  0  0  0  0  0  0  0
   -6.8440   23.0780  -31.3790 C   0  0  0  0  0  0  0  0  0  0  0  0
   -7.6209   23.6818  -30.8873 H   0  0  0  0  0  0  0  0  0  0  0  0
   -7.2090   22.0350  -32.2350 C   0  0  0  0  0  0  0  0  0  0  0  0
   -8.2734   21.8282  -32.4203 H   0  0  0  0  0  0  0  0  0  0  0  0
   -6.2310   21.2520  -32.8580 C   0  0  0  0  0  0  0  0  0  0  0  0
   -6.6440   20.2100  -33.7000 O   0  0  0  0  0  0  0  0  0  0  0  0
   -6.2740   18.8650  -33.5470 C   0  0  0  0  0  0  0  0  0  0  0  0
   -6.9140   18.0160  -32.6290 C   0  0  0  0  0  0  0  0  0  0  0  0
   -7.7266   18.4047  -31.9976 H   0  0  0  0  0  0  0  0  0  0  0  0
   -6.5230   16.6820  -32.5150 C   0  0  0  0  0  0  0  0  0  0  0  0
   -7.0269   16.0278  -31.7883 H   0  0  0  0  0  0  0  0  0  0  0  0
   -5.4940   16.1650  -33.3170 C   0  0  0  0  0  0  0  0  0  0  0  0
   -5.1760   14.7710  -33.2150 N   0  0  0  0  0  0  0  0  0  0  0  0
   -5.6480   14.1720  -32.5010 H   0  0  0  0  0  0  0  0  0  0  0  0
   -4.5560   14.2900  -33.9020 H   0  0  0  0  0  0  0  0  0  0  0  0
   -4.8390   17.0160  -34.2410 C   0  0  0  0  0  0  0  0  0  0  0  0
   -3.6980   16.5550  -35.0640 C   0  0  0  0  0  0  0  0  0  0  0  0
   -3.7080   15.4000  -35.5680 O   0  0  0  0  0  0  0  0  0  0  0  0
   -2.5570   17.3920  -35.2630 N   0  0  0  0  0  0  0  0  0  0  0  0
   -2.5400   18.3730  -34.9070 H   0  0  0  0  0  0  0  0  0  0  0  0
   -1.7390   17.0440  -35.8110 H   0  0  0  0  0  0  0  0  0  0  0  0
   -5.2510   18.3560  -34.3520 C   0  0  0  0  0  0  0  0  0  0  0  0
   -4.7603   19.0142  -35.0841 H   0  0  0  0  0  0  0  0  0  0  0  0
   -4.8670   21.5520  -32.6530 C   0  0  0  0  0  0  0  0  0  0  0  0
   -3.8310   20.8310  -33.3500 C   0  0  0  0  0  0  0  0  0  0  0  0
   -2.9990   20.2530  -33.9100 N   0  0  0  0  0  0  0  0  0  0  0  0
   -4.5060   22.5990  -31.7940 C   0  0  0  0  0  0  0  0  0  0  0  0
   -3.4430   22.8278  -31.6276 H   0  0  0  0  0  0  0  0  0  0  0  0
   -2.0320   23.9120  -27.5450 C   0  0  0  0  0  0  0  0  0  0  0  0
   -2.2874   23.1887  -26.7566 H   0  0  0  0  0  0  0  0  0  0  0  0
  1  2  1  0
  2  3  1  0
  3  4  1  0
  4  5  1  0
  5  6  2  0
  6  7  1  0
  7  8  2  0
  7  9  2  0
  7 10  1  0
 10 11  2  0
 11 12  1  0
 11 13  1  0
 13 14  1  0
 13 15  2  0
 15 16  1  0
 16 17  1  0
 17 18  2  0
 18 19  1  0
 18 20  1  0
 20 21  1  0
 20 22  2  0
 22 23  1  0
 23 24  1  0
 23 25  1  0
 22 26  1  0
 26 27  1  0
 27 28  2  0
 27 29  1  0
 29 30  1  0
 29 31  1  0
 26 32  2  0
 32 33  1  0
 15 34  1  0
 34 35  1  0
 35 36  3  0
 34 37  2  0
 37 38  1  0
  5 39  1  0
 39 40  1  0
 39  2  2  0
 37 10  1  0
 32 17  1  0
M  CHG  1   4  -1
M  END
>  <UniqueID>  (25) 
25

>  <SMILES>  (25) 
N#Cc1cc(S(=O)(=O)/N=c2/cco[n-]2)ccc1Oc1ccc(N)c(C(N)=O)c1

>  <Energy>  (25) 
88.14139860129158

>  <Genealogy>  (25) 
N#Cc1cc(S(=O)(=O)N=c2cco[n-]2)ccc1Oc1ccc(N)c(C(N)=O)c1 (protonated)
N#Cc1cc(S(=O)(=O)/N=c2/cco[n-]2)ccc1Oc1ccc(N)c(C(N)=O)c1 (cis-trans isomerization)
N#Cc1cc(S(=O)(=O)/N=c2/cco[n-]2)ccc1Oc1ccc(N)c(C(N)=O)c1 (3D coordinates assigned)
N#Cc1cc(S(=O)(=O)/N=c2/cco[n-]2)ccc1Oc1ccc(N)c(C(N)=O)c1 (optimized conformer: 88.14139860129158 kcal/mol)

>  <smiles>  (25) 
N#Cc1cc(S(=O)(=O)N=c2cco[nH]2)ccc1Oc1ccc(N)c(C(N)=O)c1

>  <score_type>  (25) 
oracle

>  <origin>  (25) 
adgpu

>  <m_score__min__energy>  (25) 
-10.5

>  <m_primary>  (25) 
energy

$$$$
25:0
     RDKit          3D

 57 60  0  0  0  0  0  0  0  0999 V2000
   -1.6320   21.3870  -26.7670 C   0  0  0  0  0  0  0  0  0  0  0  0
   -2.1910   22.3360  -27.7940 C   0  0  0  0  0  0  0  0  0  0  0  0
   -3.3530   21.9620  -28.4850 C   0  0  0  0  0  0  0  0  0  0  0  0
   -3.9210   22.8070  -29.4380 C   0  0  0  0  0  0  0  0  0  0  0  0
   -3.3330   24.0440  -29.7260 C   0  0  0  0  0  0  0  0  0  0  0  0
   -3.9410   24.9610  -30.6450 N   0  0  0  0  0  0  0  0  0  0  0  0
   -5.3460   25.1440  -30.8630 C   0  0  0  0  0  0  0  0  0  0  0  0
   -6.0500   25.7700  -30.0270 O   0  0  0  0  0  0  0  0  0  0  0  0
   -5.9750   24.5290  -31.9900 N   0  0  0  0  0  0  0  0  0  0  0  0
   -5.9250   23.1160  -32.2100 C   0  0  0  0  0  0  0  0  0  0  0  0
   -4.6940   22.4850  -32.4430 C   0  0  0  0  0  0  0  0  0  0  0  0
   -4.6260   21.0990  -32.6250 C   0  0  0  0  0  0  0  0  0  0  0  0
   -3.0790   20.3180  -32.9820 S   0  0  0  0  0  0  0  0  0  0  0  0
   -2.8480   19.2340  -31.9640 O   0  0  0  0  0  0  0  0  0  0  0  0
   -3.1640   19.6640  -34.3350 O   0  0  0  0  0  0  0  0  0  0  0  0
   -1.7160   21.4180  -32.9330 N   0  0  0  0  0  0  0  0  0  0  0  0
   -1.3250   21.8140  -31.5650 C   0  0  0  0  0  0  0  0  0  0  0  0
   -0.4350   20.7750  -30.8600 C   0  0  0  0  0  0  0  0  0  0  0  0
    0.5270   20.0430  -31.8080 C   0  0  0  0  0  0  0  0  0  0  0  0
    0.7350   20.8160  -33.1060 C   0  0  0  0  0  0  0  0  0  0  0  0
   -0.6050   21.0170  -33.8290 C   0  0  0  0  0  0  0  0  0  0  0  0
   -5.8080   20.3470  -32.6030 C   0  0  0  0  0  0  0  0  0  0  0  0
   -7.0410   20.9760  -32.4100 C   0  0  0  0  0  0  0  0  0  0  0  0
   -7.1050   22.3600  -32.2210 C   0  0  0  0  0  0  0  0  0  0  0  0
   -8.6690   23.1250  -31.9800 Cl  0  0  0  0  0  0  0  0  0  0  0  0
   -2.1690   24.4330  -29.0460 C   0  0  0  0  0  0  0  0  0  0  0  0
   -1.6170   25.6770  -29.3310 O   0  0  0  0  0  0  0  0  0  0  0  0
   -1.5700   23.5780  -28.0920 C   0  0  0  0  0  0  0  0  0  0  0  0
   -0.0750   24.0810  -27.2550 S   0  0  0  0  0  0  0  0  0  0  0  0
    0.6570   22.8560  -26.7830 O   0  0  0  0  0  0  0  0  0  0  0  0
    0.8410   24.8160  -28.1970 O   0  0  0  0  0  0  0  0  0  0  0  0
   -0.4020   25.1250  -25.8300 C   0  0  0  0  0  0  0  0  0  0  0  0
   -1.8540   25.5170  -25.5970 C   0  0  0  0  0  0  0  0  0  0  0  0
   -0.8830   26.5270  -26.1780 C   0  0  0  0  0  0  0  0  0  0  0  0
   -1.8549   21.7653  -25.7584 H   0  0  0  0  0  0  0  0  0  0  0  0
   -2.0903   20.3954  -26.8962 H   0  0  0  0  0  0  0  0  0  0  0  0
   -0.5425   21.3071  -26.8962 H   0  0  0  0  0  0  0  0  0  0  0  0
   -3.8221   20.9900  -28.2725 H   0  0  0  0  0  0  0  0  0  0  0  0
   -4.8358   22.4997  -29.9660 H   0  0  0  0  0  0  0  0  0  0  0  0
   -3.7732   23.0854  -32.4831 H   0  0  0  0  0  0  0  0  0  0  0  0
   -0.7743   22.7646  -31.6209 H   0  0  0  0  0  0  0  0  0  0  0  0
   -2.2495   21.9038  -30.9757 H   0  0  0  0  0  0  0  0  0  0  0  0
    0.1597   21.2909  -30.0917 H   0  0  0  0  0  0  0  0  0  0  0  0
   -1.1049   20.0151  -30.4312 H   0  0  0  0  0  0  0  0  0  0  0  0
    1.4982   19.9208  -31.3061 H   0  0  0  0  0  0  0  0  0  0  0  0
    0.0868   19.0661  -32.0569 H   0  0  0  0  0  0  0  0  0  0  0  0
    1.1742   21.7981  -32.8768 H   0  0  0  0  0  0  0  0  0  0  0  0
    1.4105   20.2433  -33.7585 H   0  0  0  0  0  0  0  0  0  0  0  0
   -0.4739   21.8002  -34.5902 H   0  0  0  0  0  0  0  0  0  0  0  0
   -0.8813   20.0460  -34.2658 H   0  0  0  0  0  0  0  0  0  0  0  0
   -5.7653   19.2562  -32.7383 H   0  0  0  0  0  0  0  0  0  0  0  0
   -7.9653   20.3796  -32.4068 H   0  0  0  0  0  0  0  0  0  0  0  0
    0.3880   24.6913  -25.1992 H   0  0  0  0  0  0  0  0  0  0  0  0
   -2.6467   25.0902  -26.2290 H   0  0  0  0  0  0  0  0  0  0  0  0
   -2.5340   25.5012  -24.7325 H   0  0  0  0  0  0  0  0  0  0  0  0
   -0.9718   26.8321  -27.2311 H   0  0  0  0  0  0  0  0  0  0  0  0
   -0.5678   27.5460  -25.9089 H   0  0  0  0  0  0  0  0  0  0  0  0
  1  2  1  0
  2  3  2  0
  3  4  1  0
  4  5  2  0
  5  6  1  0
  6  7  1  0
  7  8  2  0
  7  9  1  0
  9 10  1  0
 10 11  2  0
 11 12  1  0
 12 13  1  0
 13 14  2  0
 13 15  2  0
 13 16  1  0
 16 17  1  0
 17 18  1  0
 18 19  1  0
 19 20  1  0
 20 21  1  0
 12 22  2  0
 22 23  1  0
 23 24  2  0
 24 25  1  0
  5 26  1  0
 26 27  1  0
 26 28  2  0
 28 29  1  0
 29 30  2  0
 29 31  2  0
 29 32  1  0
 32 33  1  0
 33 34  1  0
 28  2  1  0
 34 32  1  0
 24 10  1  0
 21 16  1  0
  1 35  1  0
  1 36  1  0
  1 37  1  0
  3 38  1  0
  4 39  1  0
 11 40  1  0
 17 41  1  0
 17 42  1  0
 18 43  1  0
 18 44  1  0
 19 45  1  0
 19 46  1  0
 20 47  1  0
 20 48  1  0
 21 49  1  0
 21 50  1  0
 22 51  1  0
 23 52  1  0
 32 53  1  0
 33 54  1  0
 33 55  1  0
 34 56  1  0
 34 57  1  0
M  CHG  3   6  -1   9  -1  27  -1
M  END
>  <UniqueID>  (26) 
26

>  <SMILES>  (26) 
Cc1ccc([N-]C(=O)[N-]c2cc(S(=O)(=O)N3CCCCC3)ccc2Cl)c([O-])c1S(=O)(=O)C1CC1

>  <Energy>  (26) 
338.7287535457535

>  <Genealogy>  (26) 
Cc1ccc([N-]C(=O)[N-]c2cc(S(=O)(=O)N3CCCCC3)ccc2Cl)c([O-])c1S(=O)(=O)C1CC1 (protonated)
Cc1ccc([N-]C(=O)[N-]c2cc(S(=O)(=O)N3CCCCC3)ccc2Cl)c([O-])c1S(=O)(=O)C1CC1 (3D coordinates assigned)
Cc1ccc([N-]C(=O)[N-]c2cc(S(=O)(=O)N3CCCCC3)ccc2Cl)c([O-])c1S(=O)(=O)C1CC1 (nonaromatic ring conformer: 338.7287535457535 kcal/mol)

>  <smiles>  (26) 
Cc1ccc(NC(=O)Nc2cc(S(=O)(=O)N3CCCCC3)ccc2Cl)c(O)c1S(=O)(=O)C1CC1

>  <score_type>  (26) 
oracle

>  <origin>  (26) 
adgpu

>  <m_score__min__energy>  (26) 
-15.59

>  <m_primary>  (26) 
energy

$$$$
26:0
     RDKit          3D

 48 50  0  0  0  0  0  0  0  0999 V2000
    1.8750   20.2190  -34.0070 C   0  0  0  0  0  0  0  0  0  0  0  0
    0.4330   20.2650  -33.7960 N   0  0  0  0  0  0  0  0  0  0  0  0
   -0.3550   21.3800  -34.2400 C   0  0  0  0  0  0  0  0  0  0  0  0
    0.1640   22.2650  -34.9730 O   0  0  0  0  0  0  0  0  0  0  0  0
   -1.7330   21.5110  -33.8750 N   0  0  0  0  0  0  0  0  0  0  0  0
   -2.7520   20.1930  -33.3940 S   0  0  0  0  0  0  0  0  0  0  0  0
   -3.0350   19.3320  -34.5920 O   0  0  0  0  0  0  0  0  0  0  0  0
   -2.0080   19.3620  -32.3890 O   0  0  0  0  0  0  0  0  0  0  0  0
   -4.3040   20.8290  -32.7850 C   0  0  0  0  0  0  0  0  0  0  0  0
   -5.5470   20.2570  -33.1570 C   0  0  0  0  0  0  0  0  0  0  0  0
   -5.7070   18.9100  -34.2800 Cl  0  0  0  0  0  0  0  0  0  0  0  0
   -6.7360   20.7600  -32.6270 C   0  0  0  0  0  0  0  0  0  0  0  0
   -6.7290   21.8580  -31.7730 C   0  0  0  0  0  0  0  0  0  0  0  0
   -8.2580   22.4680  -31.1550 Cl  0  0  0  0  0  0  0  0  0  0  0  0
   -5.5210   22.4800  -31.4350 C   0  0  0  0  0  0  0  0  0  0  0  0
   -5.5600   23.6340  -30.5810 N   0  0  0  0  0  0  0  0  0  0  0  0
   -4.7960   24.8400  -30.7220 C   0  0  0  0  0  0  0  0  0  0  0  0
   -5.3850   25.8920  -31.0780 O   0  0  0  0  0  0  0  0  0  0  0  0
   -3.3860   24.8910  -30.4620 N   0  0  0  0  0  0  0  0  0  0  0  0
   -2.7050   24.3800  -29.3080 C   0  0  0  0  0  0  0  0  0  0  0  0
   -3.1710   23.1930  -28.7380 C   0  0  0  0  0  0  0  0  0  0  0  0
   -2.5670   22.6720  -27.5970 C   0  0  0  0  0  0  0  0  0  0  0  0
   -1.5000   23.3400  -26.9930 C   0  0  0  0  0  0  0  0  0  0  0  0
   -0.8090   22.6270  -25.5370 Cl  0  0  0  0  0  0  0  0  0  0  0  0
   -1.0180   24.5500  -27.5410 C   0  0  0  0  0  0  0  0  0  0  0  0
    0.3250   25.4080  -26.7480 S   0  0  0  0  0  0  0  0  0  0  0  0
    1.1130   26.1250  -27.8070 O   0  0  0  0  0  0  0  0  0  0  0  0
    1.2530   24.4520  -26.0540 O   0  0  0  0  0  0  0  0  0  0  0  0
   -0.2400   26.6200  -25.5440 C   0  0  0  0  0  0  0  0  0  0  0  0
   -0.5230   26.0420  -24.1660 C   0  0  0  0  0  0  0  0  0  0  0  0
   -1.6740   26.4740  -25.0550 C   0  0  0  0  0  0  0  0  0  0  0  0
   -1.6400   25.0750  -28.6980 C   0  0  0  0  0  0  0  0  0  0  0  0
   -1.2310   26.2950  -29.2250 O   0  0  0  0  0  0  0  0  0  0  0  0
   -4.3020   21.9370  -31.8940 C   0  0  0  0  0  0  0  0  0  0  0  0
   -3.1120   22.5080  -31.4310 O   0  0  0  0  0  0  0  0  0  0  0  0
    2.3876   20.2026  -33.0339 H   0  0  0  0  0  0  0  0  0  0  0  0
    2.1340   19.3121  -34.5731 H   0  0  0  0  0  0  0  0  0  0  0  0
    2.1913   21.1075  -34.5731 H   0  0  0  0  0  0  0  0  0  0  0  0
   -0.0170   19.4650  -33.3060 H   0  0  0  0  0  0  0  0  0  0  0  0
   -7.6916   20.2818  -32.8881 H   0  0  0  0  0  0  0  0  0  0  0  0
   -4.0218   22.6658  -29.1942 H   0  0  0  0  0  0  0  0  0  0  0  0
   -2.9330   21.7274  -27.1683 H   0  0  0  0  0  0  0  0  0  0  0  0
    0.3511   27.4545  -25.9492 H   0  0  0  0  0  0  0  0  0  0  0  0
   -0.3495   24.9732  -23.9720 H   0  0  0  0  0  0  0  0  0  0  0  0
   -0.2001   26.2808  -23.1419 H   0  0  0  0  0  0  0  0  0  0  0  0
   -2.3344   25.7184  -25.5056 H   0  0  0  0  0  0  0  0  0  0  0  0
   -2.5302   27.1553  -24.9423 H   0  0  0  0  0  0  0  0  0  0  0  0
   -3.0000   23.4820  -31.1920 H   0  0  0  0  0  0  0  0  0  0  0  0
  1  2  1  0
  2  3  1  0
  3  4  2  0
  3  5  1  0
  5  6  1  0
  6  7  2  0
  6  8  2  0
  6  9  1  0
  9 10  2  0
 10 11  1  0
 10 12  1  0
 12 13  2  0
 13 14  1  0
 13 15  1  0
 15 16  1  0
 16 17  1  0
 17 18  2  0
 17 19  1  0
 19 20  1  0
 20 21  2  0
 21 22  1  0
 22 23  2  0
 23 24  1  0
 23 25  1  0
 25 26  1  0
 26 27  2  0
 26 28  2  0
 26 29  1  0
 29 30  1  0
 30 31  1  0
 25 32  2  0
 32 33  1  0
 15 34  2  0
 34 35  1  0
 34  9  1  0
 32 20  1  0
 31 29  1  0
  1 36  1  0
  1 37  1  0
  1 38  1  0
  2 39  1  0
 12 40  1  0
 21 41  1  0
 22 42  1  0
 29 43  1  0
 30 44  1  0
 30 45  1  0
 31 46  1  0
 31 47  1  0
 35 48  1  0
M  CHG  4   5  -1  16  -1  19  -1  33  -1
M  END
>  <UniqueID>  (27) 
27

>  <SMILES>  (27) 
CNC(=O)[N-]S(=O)(=O)c1c(Cl)cc(Cl)c([N-]C(=O)[N-]c2ccc(Cl)c(S(=O)(=O)C3CC3)c2[O-])c1O

>  <Energy>  (27) 
328.78140304534196

>  <Genealogy>  (27) 
CNC(=O)[N-]S(=O)(=O)c1c(Cl)cc(Cl)c([N-]C(=O)[N-]c2ccc(Cl)c(S(=O)(=O)C3CC3)c2[O-])c1O (protonated)
CNC(=O)[N-]S(=O)(=O)c1c(Cl)cc(Cl)c([N-]C(=O)[N-]c2ccc(Cl)c(S(=O)(=O)C3CC3)c2[O-])c1O (3D coordinates assigned)
CNC(=O)[N-]S(=O)(=O)c1c(Cl)cc(Cl)c([N-]C(=O)[N-]c2ccc(Cl)c(S(=O)(=O)C3CC3)c2[O-])c1O (nonaromatic ring conformer: 328.78140304534196 kcal/mol)

>  <smiles>  (27) 
CNC(=O)NS(=O)(=O)c1c(Cl)cc(Cl)c(NC(=O)Nc2ccc(Cl)c(S(=O)(=O)C3CC3)c2O)c1O

>  <score_type>  (27) 
oracle

>  <origin>  (27) 
adgpu

>  <m_score__min__energy>  (27) 
-16.149999999999999

>  <m_primary>  (27) 
energy

$$$$
27:0
     RDKit          3D

 50 52  0  0  0  0  0  0  0  0999 V2000
   -0.4420   17.7390  -27.1340 C   0  0  0  0  0  0  0  0  0  0  0  0
   -0.7700   19.1840  -27.3930 C   0  0  0  0  0  0  0  0  0  0  0  0
    0.1740   19.9870  -28.0520 C   0  0  0  0  0  0  0  0  0  0  0  0
   -0.0990   21.3280  -28.3280 C   0  0  0  0  0  0  0  0  0  0  0  0
   -1.3210   21.8890  -27.9490 C   0  0  0  0  0  0  0  0  0  0  0  0
   -1.7000   23.5630  -28.3490 S   0  0  0  0  0  0  0  0  0  0  0  0
   -0.5970   24.4620  -27.8660 O   0  0  0  0  0  0  0  0  0  0  0  0
   -2.9860   23.9730  -27.6880 O   0  0  0  0  0  0  0  0  0  0  0  0
   -1.8440   23.7120  -30.0670 N   0  0  0  0  0  0  0  0  0  0  0  0
   -3.0850   23.4170  -30.7070 C   0  0  0  0  0  0  0  0  0  0  0  0
   -3.3210   22.1240  -31.1870 C   0  0  0  0  0  0  0  0  0  0  0  0
   -4.5680   21.7950  -31.7390 C   0  0  0  0  0  0  0  0  0  0  0  0
   -4.8890   20.1620  -32.3110 S   0  0  0  0  0  0  0  0  0  0  0  0
   -5.0250   19.2290  -31.1420 O   0  0  0  0  0  0  0  0  0  0  0  0
   -3.7370   19.7200  -33.1650 O   0  0  0  0  0  0  0  0  0  0  0  0
   -6.3700   20.1610  -33.2470 N   0  0  0  0  0  0  0  0  0  0  0  0
   -7.5630   20.4160  -32.3980 C   0  0  0  0  0  0  0  0  0  0  0  0
   -8.5920   19.2720  -32.4070 C   0  0  0  0  0  0  0  0  0  0  0  0
   -7.8880   17.9260  -32.2440 C   0  0  0  0  0  0  0  0  0  0  0  0
   -6.8330   17.6910  -33.3380 C   0  0  0  0  0  0  0  0  0  0  0  0
   -6.4690   18.9720  -34.1160 C   0  0  0  0  0  0  0  0  0  0  0  0
   -5.5650   22.7730  -31.8300 C   0  0  0  0  0  0  0  0  0  0  0  0
   -5.3260   24.0680  -31.3600 C   0  0  0  0  0  0  0  0  0  0  0  0
   -4.0900   24.3930  -30.7970 C   0  0  0  0  0  0  0  0  0  0  0  0
   -3.8620   25.6810  -30.3290 O   0  0  0  0  0  0  0  0  0  0  0  0
   -2.2790   21.0940  -27.3110 C   0  0  0  0  0  0  0  0  0  0  0  0
   -2.0260   19.7380  -27.0450 C   0  0  0  0  0  0  0  0  0  0  0  0
   -3.0830   18.9250  -26.3410 C   0  0  0  0  0  0  0  0  0  0  0  0
   -0.4016   17.5609  -26.0493 H   0  0  0  0  0  0  0  0  0  0  0  0
   -1.2181   17.1009  -27.5817 H   0  0  0  0  0  0  0  0  0  0  0  0
    0.5336   17.4985  -27.5817 H   0  0  0  0  0  0  0  0  0  0  0  0
    1.1394   19.5550  -28.3543 H   0  0  0  0  0  0  0  0  0  0  0  0
    0.6505   21.9448  -28.8455 H   0  0  0  0  0  0  0  0  0  0  0  0
   -2.5274   21.3643  -31.1314 H   0  0  0  0  0  0  0  0  0  0  0  0
   -7.2247   20.5691  -31.3626 H   0  0  0  0  0  0  0  0  0  0  0  0
   -8.0667   21.3012  -32.8135 H   0  0  0  0  0  0  0  0  0  0  0  0
   -9.3002   19.4141  -31.5774 H   0  0  0  0  0  0  0  0  0  0  0  0
   -9.1297   19.2813  -33.3666 H   0  0  0  0  0  0  0  0  0  0  0  0
   -7.3929   17.9009  -31.2620 H   0  0  0  0  0  0  0  0  0  0  0  0
   -8.6464   17.1337  -32.3278 H   0  0  0  0  0  0  0  0  0  0  0  0
   -5.9208   17.2979  -32.8654 H   0  0  0  0  0  0  0  0  0  0  0  0
   -7.2631   16.9811  -34.0599 H   0  0  0  0  0  0  0  0  0  0  0  0
   -5.4996   18.8180  -34.6125 H   0  0  0  0  0  0  0  0  0  0  0  0
   -7.2744   19.1586  -34.8416 H   0  0  0  0  0  0  0  0  0  0  0  0
   -6.5401   22.5220  -32.2729 H   0  0  0  0  0  0  0  0  0  0  0  0
   -6.1134   24.8326  -31.4339 H   0  0  0  0  0  0  0  0  0  0  0  0
   -3.2417   21.5358  -27.0141 H   0  0  0  0  0  0  0  0  0  0  0  0
   -2.9562   19.0225  -25.2527 H   0  0  0  0  0  0  0  0  0  0  0  0
   -4.0795   19.2916  -26.6284 H   0  0  0  0  0  0  0  0  0  0  0  0
   -2.9843   17.8678  -26.6284 H   0  0  0  0  0  0  0  0  0  0  0  0
  1  2  1  0
  2  3  2  0
  3  4  1  0
  4  5  2  0
  5  6  1  0
  6  7  2  0
  6  8  2  0
  6  9  1  0
  9 10  1  0
 10 11  2  0
 11 12  1  0
 12 13  1  0
 13 14  2  0
 13 15  2  0
 13 16  1  0
 16 17  1  0
 17 18  1  0
 18 19  1  0
 19 20  1  0
 20 21  1  0
 12 22  2  0
 22 23  1  0
 23 24  2  0
 24 25  1  0
  5 26  1  0
 26 27  2  0
 27 28  1  0
 27  2  1  0
 24 10  1  0
 21 16  1  0
  1 29  1  0
  1 30  1  0
  1 31  1  0
  3 32  1  0
  4 33  1  0
 11 34  1  0
 17 35  1  0
 17 36  1  0
 18 37  1  0
 18 38  1  0
 19 39  1  0
 19 40  1  0
 20 41  1  0
 20 42  1  0
 21 43  1  0
 21 44  1  0
 22 45  1  0
 23 46  1  0
 26 47  1  0
 28 48  1  0
 28 49  1  0
 28 50  1  0
M  CHG  2   9  -1  25  -1
M  END
>  <UniqueID>  (28) 
28

>  <SMILES>  (28) 
Cc1ccc(S(=O)(=O)[N-]c2cc(S(=O)(=O)N3CCCCC3)ccc2[O-])cc1C

>  <Energy>  (28) 
63.965644271308705

>  <Genealogy>  (28) 
Cc1ccc(S(=O)(=O)[N-]c2cc(S(=O)(=O)N3CCCCC3)ccc2[O-])cc1C (protonated)
Cc1ccc(S(=O)(=O)[N-]c2cc(S(=O)(=O)N3CCCCC3)ccc2[O-])cc1C (3D coordinates assigned)
Cc1ccc(S(=O)(=O)[N-]c2cc(S(=O)(=O)N3CCCCC3)ccc2[O-])cc1C (nonaromatic ring conformer: 63.965644271308705 kcal/mol)

>  <smiles>  (28) 
Cc1ccc(S(=O)(=O)Nc2cc(S(=O)(=O)N3CCCCC3)ccc2O)cc1C

>  <score_type>  (28) 
oracle

>  <origin>  (28) 
adgpu

>  <m_score__min__energy>  (28) 
-14.07

>  <m_primary>  (28) 
energy

$$$$
28:0
     RDKit          3D

 48 50  0  0  0  0  0  0  0  0999 V2000
   -4.0492   20.3265  -33.2177 H   0  0  0  0  0  0  0  0  0  0  0  0
   -4.5150   21.1530  -32.6610 C   0  0  0  0  0  0  0  0  0  0  0  0
   -5.9030   21.3280  -32.7140 C   0  0  0  0  0  0  0  0  0  0  0  0
   -6.7540   20.3730  -33.4990 C   0  0  0  0  0  0  0  0  0  0  0  0
   -7.3228   19.7347  -32.8069 H   0  0  0  0  0  0  0  0  0  0  0  0
   -7.4520   20.9397  -34.1327 H   0  0  0  0  0  0  0  0  0  0  0  0
   -6.1109   19.7447  -34.1327 H   0  0  0  0  0  0  0  0  0  0  0  0
   -6.4990   22.3600  -31.9790 C   0  0  0  0  0  0  0  0  0  0  0  0
   -7.5911   22.4884  -32.0061 H   0  0  0  0  0  0  0  0  0  0  0  0
   -5.7150   23.2320  -31.2080 C   0  0  0  0  0  0  0  0  0  0  0  0
   -6.3750   24.3230  -30.4090 C   0  0  0  0  0  0  0  0  0  0  0  0
   -6.2508   24.1177  -29.3355 H   0  0  0  0  0  0  0  0  0  0  0  0
   -5.9099   25.2893  -30.6537 H   0  0  0  0  0  0  0  0  0  0  0  0
   -7.4468   24.3595  -30.6537 H   0  0  0  0  0  0  0  0  0  0  0  0
   -4.3190   23.0470  -31.1450 C   0  0  0  0  0  0  0  0  0  0  0  0
   -3.5270   23.9270  -30.3310 N   0  0  0  0  0  0  0  0  0  0  0  0
   -2.9100   23.5640  -29.2430 C   0  0  0  0  0  0  0  0  0  0  0  0
   -3.0180   22.2910  -28.7770 N   0  0  0  0  0  0  0  0  0  0  0  0
   -2.3850   21.8980  -27.6460 C   0  0  0  0  0  0  0  0  0  0  0  0
   -2.5420   20.2450  -27.0910 Cl  0  0  0  0  0  0  0  0  0  0  0  0
   -1.6100   22.8140  -26.9370 C   0  0  0  0  0  0  0  0  0  0  0  0
   -1.0896   22.4973  -26.0211 H   0  0  0  0  0  0  0  0  0  0  0  0
   -1.4930   24.1070  -27.3750 N   0  0  0  0  0  0  0  0  0  0  0  0
   -0.6450   25.0470  -26.6050 C   0  0  1  0  0  0  0  0  0  0  0  0
   -0.1846   24.5525  -25.7370 H   0  0  0  0  0  0  0  0  0  0  0  0
    0.5540   25.5110  -27.4690 C   0  0  0  0  0  0  0  0  0  0  0  0
    1.3590   25.8666  -26.8090 H   0  0  0  0  0  0  0  0  0  0  0  0
    0.2199   26.3220  -28.1328 H   0  0  0  0  0  0  0  0  0  0  0  0
    1.0400   24.4430  -28.2620 O   0  0  0  0  0  0  0  0  0  0  0  0
    1.6560   23.4650  -27.4540 C   0  0  0  0  0  0  0  0  0  0  0  0
    1.4995   23.7135  -26.3939 H   0  0  0  0  0  0  0  0  0  0  0  0
    1.2145   22.4807  -27.6689 H   0  0  0  0  0  0  0  0  0  0  0  0
    2.7345   23.4380  -27.6689 H   0  0  0  0  0  0  0  0  0  0  0  0
   -1.5250   26.1760  -25.9970 C   0  0  0  0  0  0  0  0  0  0  0  0
   -2.3904   25.9143  -26.6236 H   0  0  0  0  0  0  0  0  0  0  0  0
   -1.2280   26.4750  -24.5310 C   0  0  0  0  0  0  0  0  0  0  0  0
   -2.0557   26.6354  -23.8245 H   0  0  0  0  0  0  0  0  0  0  0  0
   -0.6474   25.9786  -23.7395 H   0  0  0  0  0  0  0  0  0  0  0  0
   -0.9220   27.5190  -25.5900 C   0  0  0  0  0  0  0  0  0  0  0  0
   -1.5284   28.4348  -25.6505 H   0  0  0  0  0  0  0  0  0  0  0  0
   -0.0289   28.0905  -25.8827 H   0  0  0  0  0  0  0  0  0  0  0  0
   -2.1350   24.4930  -28.5300 C   0  0  0  0  0  0  0  0  0  0  0  0
   -2.0360   25.6770  -28.9580 O   0  0  0  0  0  0  0  0  0  0  0  0
   -3.7110   22.0210  -31.9050 C   0  0  0  0  0  0  0  0  0  0  0  0
   -2.2200   21.8110  -31.8950 C   0  0  0  0  0  0  0  0  0  0  0  0
   -1.8637   21.7608  -30.8555 H   0  0  0  0  0  0  0  0  0  0  0  0
   -1.9788   20.8700  -32.4111 H   0  0  0  0  0  0  0  0  0  0  0  0
   -1.7283   22.6488  -32.4111 H   0  0  0  0  0  0  0  0  0  0  0  0
  1  2  1  0
  2  3  2  0
  3  4  1  0
  4  5  1  0
  4  6  1  0
  4  7  1  0
  3  8  1  0
  8  9  1  0
  8 10  2  0
 10 11  1  0
 11 12  1  0
 11 13  1  0
 11 14  1  0
 10 15  1  0
 15 16  1  0
 16 17  2  0
 17 18  1  0
 18 19  1  0
 19 20  1  0
 19 21  2  0
 21 22  1  0
 21 23  1  0
 23 24  1  0
 24 25  1  1
 24 26  1  0
 26 27  1  0
 26 28  1  0
 26 29  1  0
 29 30  1  0
 30 31  1  0
 30 32  1  0
 30 33  1  0
 24 34  1  0
 34 35  1  0
 34 36  1  0
 36 37  1  0
 36 38  1  0
 36 39  1  0
 39 40  1  0
 39 41  1  0
 23 42  1  0
 42 43  2  0
 15 44  2  0
 44 45  1  0
 45 46  1  0
 45 47  1  0
 45 48  1  0
 44  2  1  0
 42 17  1  0
 39 34  1  0
M  CHG  1  18  -1
M  END
>  <UniqueID>  (29) 
29

>  <SMILES>  (29) 
COC[C@@H](C1CC1)n1cc(Cl)[n-]/c(=N\c2c(C)cc(C)cc2C)c1=O

>  <Energy>  (29) 
330.2785396999797

>  <Genealogy>  (29) 
COCC(C1CC1)n1cc(Cl)[n-]c(=Nc2c(C)cc(C)cc2C)c1=O (protonated)
COC[C@@H](C1CC1)n1cc(Cl)[n-]c(=Nc2c(C)cc(C)cc2C)c1=O (chirality)
COC[C@@H](C1CC1)n1cc(Cl)[n-]/c(=N\c2c(C)cc(C)cc2C)c1=O (cis-trans isomerization)
COC[C@@H](C1CC1)n1cc(Cl)[n-]/c(=N\c2c(C)cc(C)cc2C)c1=O (3D coordinates assigned)
COC[C@@H](C1CC1)n1cc(Cl)[n-]/c(=N\c2c(C)cc(C)cc2C)c1=O (nonaromatic ring conformer: 330.2785396999797 kcal/mol)

>  <smiles>  (29) 
COCC(C1CC1)n1cc(Cl)[nH]c(=Nc2c(C)cc(C)cc2C)c1=O

>  <score_type>  (29) 
oracle

>  <origin>  (29) 
adgpu

>  <m_score__min__energy>  (29) 
-8.7400000000000002

>  <m_primary>  (29) 
energy

$$$$
29:0
     RDKit          3D

 48 50  0  0  0  0  0  0  0  0999 V2000
   -2.2650   15.1480  -32.6490 H   0  0  0  0  0  0  0  0  0  0  0  0
   -2.6770   14.2000  -32.5030 N   0  0  0  0  0  0  0  0  0  0  0  0
   -4.3930   14.3740  -32.6020 S   0  0  0  0  0  0  0  0  0  0  0  0
   -4.9550   14.4470  -31.2090 O   0  0  0  0  0  0  0  0  0  0  0  0
   -4.9850   13.1780  -33.2920 O   0  0  0  0  0  0  0  0  0  0  0  0
   -4.7920   15.8480  -33.5020 C   0  0  0  0  0  0  0  0  0  0  0  0
   -5.7120   16.7530  -32.9460 C   0  0  0  0  0  0  0  0  0  0  0  0
   -6.1810   16.5251  -31.9775 H   0  0  0  0  0  0  0  0  0  0  0  0
   -6.0380   17.9390  -33.6090 C   0  0  0  0  0  0  0  0  0  0  0  0
   -7.0140   18.8190  -33.0450 N   0  0  0  0  0  0  0  0  0  0  0  0
   -6.8330   20.0180  -32.5640 C   0  0  0  0  0  0  0  0  0  0  0  0
   -7.8940   20.7860  -32.2090 N   0  0  0  0  0  0  0  0  0  0  0  0
   -7.3210   21.9300  -31.7990 C   0  0  0  0  0  0  0  0  0  0  0  0
   -7.9630   23.0720  -31.3350 C   0  0  0  0  0  0  0  0  0  0  0  0
   -9.0599   23.1175  -31.2657 H   0  0  0  0  0  0  0  0  0  0  0  0
   -7.1670   24.1670  -30.9570 C   0  0  0  0  0  0  0  0  0  0  0  0
   -7.6463   25.0838  -30.5831 H   0  0  0  0  0  0  0  0  0  0  0  0
   -5.7510   24.1040  -31.0520 C   0  0  0  0  0  0  0  0  0  0  0  0
   -4.9200   25.2640  -30.6540 C   0  0  0  0  0  0  0  0  0  0  0  0
   -5.4580   26.3880  -30.4540 O   0  0  0  0  0  0  0  0  0  0  0  0
   -3.5050   25.1140  -30.4890 N   0  0  0  0  0  0  0  0  0  0  0  0
   -2.8780   24.6190  -29.2670 C   0  0  0  0  0  0  0  0  0  0  0  0
   -2.4729   25.4708  -28.7011 H   0  0  0  0  0  0  0  0  0  0  0  0
   -2.0745   23.9213  -29.5456 H   0  0  0  0  0  0  0  0  0  0  0  0
   -3.8880   23.8710  -28.3900 C   0  0  0  0  0  0  0  0  0  0  0  0
   -3.5162   22.8513  -28.2110 H   0  0  0  0  0  0  0  0  0  0  0  0
   -4.8520   23.8560  -28.9196 H   0  0  0  0  0  0  0  0  0  0  0  0
   -4.1000   24.5620  -27.0440 C   0  0  0  0  0  0  0  0  0  0  0  0
   -3.8829   23.8543  -26.2303 H   0  0  0  0  0  0  0  0  0  0  0  0
   -3.4262   25.4280  -26.9663 H   0  0  0  0  0  0  0  0  0  0  0  0
   -5.1435   24.9012  -26.9663 H   0  0  0  0  0  0  0  0  0  0  0  0
   -5.1380   22.9190  -31.5280 C   0  0  0  0  0  0  0  0  0  0  0  0
   -4.0437   22.8425  -31.6101 H   0  0  0  0  0  0  0  0  0  0  0  0
   -5.9630   21.8480  -31.8910 C   0  0  0  0  0  0  0  0  0  0  0  0
   -5.6230   20.6280  -32.3560 N   0  0  0  0  0  0  0  0  0  0  0  0
   -4.2610   20.1000  -32.4900 C   0  0  0  0  0  0  0  0  0  0  0  0
   -3.8322   19.9338  -31.4907 H   0  0  0  0  0  0  0  0  0  0  0  0
   -4.2894   19.1477  -33.0399 H   0  0  0  0  0  0  0  0  0  0  0  0
   -3.6401   20.8226  -33.0399 H   0  0  0  0  0  0  0  0  0  0  0  0
   -5.4940   18.1990  -34.8700 C   0  0  0  0  0  0  0  0  0  0  0  0
   -5.7920   19.1041  -35.4196 H   0  0  0  0  0  0  0  0  0  0  0  0
   -4.5740   17.3140  -35.4340 C   0  0  0  0  0  0  0  0  0  0  0  0
   -4.1385   17.5356  -36.4195 H   0  0  0  0  0  0  0  0  0  0  0  0
   -4.1990   16.1430  -34.7550 C   0  0  0  0  0  0  0  0  0  0  0  0
   -3.2100   15.2110  -35.4040 C   0  0  0  0  0  0  0  0  0  0  0  0
   -2.6439   14.6776  -34.6262 H   0  0  0  0  0  0  0  0  0  0  0  0
   -3.7478   14.4837  -36.0299 H   0  0  0  0  0  0  0  0  0  0  0  0
   -2.5159   15.7910  -36.0299 H   0  0  0  0  0  0  0  0  0  0  0  0
  1  2  1  0
  2  3  1  0
  3  4  2  0
  3  5  2  0
  3  6  1  0
  6  7  2  0
  7  8  1  0
  7  9  1  0
  9 10  1  0
 10 11  2  0
 11 12  1  0
 12 13  1  0
 13 14  2  0
 14 15  1  0
 14 16  1  0
 16 17  1  0
 16 18  2  0
 18 19  1  0
 19 20  2  0
 19 21  1  0
 21 22  1  0
 22 23  1  0
 22 24  1  0
 22 25  1  0
 25 26  1  0
 25 27  1  0
 25 28  1  0
 28 29  1  0
 28 30  1  0
 28 31  1  0
 18 32  1  0
 32 33  1  0
 32 34  2  0
 34 35  1  0
 35 36  1  0
 36 37  1  0
 36 38  1  0
 36 39  1  0
  9 40  2  0
 40 41  1  0
 40 42  1  0
 42 43  1  0
 42 44  2  0
 44 45  1  0
 45 46  1  0
 45 47  1  0
 45 48  1  0
 44  6  1  0
 35 11  1  0
 34 13  1  0
M  CHG  3   2  -1  12  -1  21  -1
M  END
>  <UniqueID>  (30) 
30

>  <SMILES>  (30) 
CCC[N-]C(=O)c1ccc2[n-]/c(=N/c3ccc(C)c(S([NH-])(=O)=O)c3)n(C)c2c1

>  <Energy>  (30) 
96.3665621344803

>  <Genealogy>  (30) 
CCC[N-]C(=O)c1ccc2[n-]c(=Nc3ccc(C)c(S([NH-])(=O)=O)c3)n(C)c2c1 (protonated)
CCC[N-]C(=O)c1ccc2[n-]/c(=N/c3ccc(C)c(S([NH-])(=O)=O)c3)n(C)c2c1 (cis-trans isomerization)
CCC[N-]C(=O)c1ccc2[n-]/c(=N/c3ccc(C)c(S([NH-])(=O)=O)c3)n(C)c2c1 (3D coordinates assigned)
CCC[N-]C(=O)c1ccc2[n-]/c(=N/c3ccc(C)c(S([NH-])(=O)=O)c3)n(C)c2c1 (optimized conformer: 96.3665621344803 kcal/mol)

>  <smiles>  (30) 
CCCNC(=O)c1ccc2[nH]c(=Nc3ccc(C)c(S(N)(=O)=O)c3)n(C)c2c1

>  <score_type>  (30) 
oracle

>  <origin>  (30) 
adgpu

>  <m_score__min__energy>  (30) 
-10.539999999999999

>  <m_primary>  (30) 
energy

$$$$
30:0
     RDKit          3D

 42 45  0  0  0  0  0  0  0  0999 V2000
   -3.0009   19.8859  -26.9853 H   0  0  0  0  0  0  0  0  0  0  0  0
   -2.5380   20.8630  -27.1880 C   0  0  0  0  0  0  0  0  0  0  0  0
   -1.2740   21.1170  -26.7610 N   0  0  0  0  0  0  0  0  0  0  0  0
   -0.6720   22.3150  -26.9820 C   0  0  0  0  0  0  0  0  0  0  0  0
    0.3536   22.4849  -26.6224 H   0  0  0  0  0  0  0  0  0  0  0  0
   -1.3490   23.3380  -27.6660 C   0  0  0  0  0  0  0  0  0  0  0  0
   -0.5670   24.9150  -27.8790 S   0  0  0  0  0  0  0  0  0  0  0  0
    0.8830   24.7160  -28.2120 O   0  0  0  0  0  0  0  0  0  0  0  0
   -1.2260   25.6670  -29.0000 O   0  0  0  0  0  0  0  0  0  0  0  0
   -0.7010   25.8930  -26.4170 C   0  0  0  0  0  0  0  0  0  0  0  0
   -0.7120   25.2740  -25.1590 C   0  0  0  0  0  0  0  0  0  0  0  0
   -0.6529   24.1780  -25.0860 H   0  0  0  0  0  0  0  0  0  0  0  0
   -0.7980   26.0470  -23.9970 C   0  0  0  0  0  0  0  0  0  0  0  0
   -0.8090   25.5579  -23.0118 H   0  0  0  0  0  0  0  0  0  0  0  0
   -0.8700   27.4400  -24.0850 C   0  0  0  0  0  0  0  0  0  0  0  0
   -0.9400   28.0465  -23.1700 H   0  0  0  0  0  0  0  0  0  0  0  0
   -0.8530   28.0620  -25.3370 C   0  0  0  0  0  0  0  0  0  0  0  0
   -0.9082   29.1584  -25.4062 H   0  0  0  0  0  0  0  0  0  0  0  0
   -0.7660   27.2930  -26.5010 C   0  0  0  0  0  0  0  0  0  0  0  0
   -0.7484   27.7855  -27.4844 H   0  0  0  0  0  0  0  0  0  0  0  0
   -2.6530   23.0790  -28.1450 C   0  0  0  0  0  0  0  0  0  0  0  0
   -3.5940   24.2940  -29.0830 S   0  0  0  0  0  0  0  0  0  0  0  0
   -4.4000   23.0500  -30.0860 C   0  0  0  0  0  0  0  0  0  0  0  0
   -3.7320   22.0780  -30.7450 N   0  0  0  0  0  0  0  0  0  0  0  0
   -4.5370   21.2650  -31.4260 N   0  0  0  0  0  0  0  0  0  0  0  0
   -4.1570   20.4950  -32.0180 H   0  0  0  0  0  0  0  0  0  0  0  0
   -5.8490   21.5810  -31.3030 C   0  0  0  0  0  0  0  0  0  0  0  0
   -6.8280   20.9670  -31.9000 N   0  0  0  0  0  0  0  0  0  0  0  0
   -6.7280   19.7670  -32.6820 C   0  0  0  0  0  0  0  0  0  0  0  0
   -5.9370   19.7140  -33.8430 C   0  0  0  0  0  0  0  0  0  0  0  0
   -5.4122   20.6162  -34.1903 H   0  0  0  0  0  0  0  0  0  0  0  0
   -5.8150   18.5180  -34.5580 C   0  0  0  0  0  0  0  0  0  0  0  0
   -5.2093   18.4849  -35.4756 H   0  0  0  0  0  0  0  0  0  0  0  0
   -6.4630   17.3650  -34.1060 C   0  0  0  0  0  0  0  0  0  0  0  0
   -6.3747   16.4266  -34.6730 H   0  0  0  0  0  0  0  0  0  0  0  0
   -7.2230   17.4040  -32.9340 C   0  0  0  0  0  0  0  0  0  0  0  0
   -7.7260   16.4940  -32.5750 H   0  0  0  0  0  0  0  0  0  0  0  0
   -7.3450   18.5980  -32.2170 C   0  0  0  0  0  0  0  0  0  0  0  0
   -7.9276   18.6198  -31.2842 H   0  0  0  0  0  0  0  0  0  0  0  0
   -6.0640   22.9370  -30.3310 S   0  0  0  0  0  0  0  0  0  0  0  0
   -3.2490   21.8400  -27.8830 C   0  0  0  0  0  0  0  0  0  0  0  0
   -4.2750   21.6379  -28.2244 H   0  0  0  0  0  0  0  0  0  0  0  0
  1  2  1  0
  2  3  2  0
  3  4  1  0
  4  5  1  0
  4  6  2  0
  6  7  1  0
  7  8  2  0
  7  9  2  0
  7 10  1  0
 10 11  2  0
 11 12  1  0
 11 13  1  0
 13 14  1  0
 13 15  2  0
 15 16  1  0
 15 17  1  0
 17 18  1  0
 17 19  2  0
 19 20  1  0
  6 21  1  0
 21 22  1  0
 22 23  1  0
 23 24  2  0
 24 25  1  0
 25 26  1  0
 25 27  1  0
 27 28  2  0
 28 29  1  0
 29 30  2  0
 30 31  1  0
 30 32  1  0
 32 33  1  0
 32 34  2  0
 34 35  1  0
 34 36  1  0
 36 37  1  0
 36 38  2  0
 38 39  1  0
 27 40  1  0
 21 41  2  0
 41 42  1  0
 41  2  1  0
 19 10  1  0
 40 23  1  0
 38 29  1  0
M  END
>  <UniqueID>  (31) 
31

>  <SMILES>  (31) 
O=S(=O)(c1ccccc1)c1cnccc1Sc1n[nH]/c(=N\c2ccccc2)s1

>  <Energy>  (31) 
89.7990346083031

>  <Genealogy>  (31) 
O=S(=O)(c1ccccc1)c1cnccc1Sc1n[nH]/c(=N\c2ccccc2)s1 (cis-trans isomerization)
O=S(=O)(c1ccccc1)c1cnccc1Sc1n[nH]/c(=N\c2ccccc2)s1 (3D coordinates assigned)
O=S(=O)(c1ccccc1)c1cnccc1Sc1n[nH]/c(=N\c2ccccc2)s1 (optimized conformer: 89.7990346083031 kcal/mol)

>  <smiles>  (31) 
O=S(=O)(c1ccccc1)c1cnccc1Sc1n[nH]c(=Nc2ccccc2)s1

>  <score_type>  (31) 
oracle

>  <origin>  (31) 
adgpu

>  <m_score__min__energy>  (31) 
-10.1

>  <m_primary>  (31) 
energy

$$$$
31:0
     RDKit          3D

 58 61  0  0  0  0  0  0  0  0999 V2000
   -2.6810   22.4100  -30.6850 O   0  0  0  0  0  0  0  0  0  0  0  0
   -3.5360   23.3320  -30.5850 C   0  0  0  0  0  0  0  0  0  0  0  0
   -3.1450   24.6240  -30.1010 N   0  0  0  0  0  0  0  0  0  0  0  0
   -2.5170   24.9160  -28.8450 C   0  0  0  0  0  0  0  0  0  0  0  0
   -3.1460   24.6500  -27.6160 C   0  0  0  0  0  0  0  0  0  0  0  0
   -2.5100   24.9750  -26.4140 C   0  0  0  0  0  0  0  0  0  0  0  0
   -1.2450   25.5770  -26.4240 C   0  0  0  0  0  0  0  0  0  0  0  0
   -0.4650   26.0030  -24.9020 S   0  0  0  0  0  0  0  0  0  0  0  0
    0.4080   27.2040  -25.1420 O   0  0  0  0  0  0  0  0  0  0  0  0
   -1.5100   26.3740  -23.8890 O   0  0  0  0  0  0  0  0  0  0  0  0
    0.5180   24.6640  -24.3420 N   0  0  0  0  0  0  0  0  0  0  0  0
    1.7690   24.5210  -25.1180 C   0  0  0  0  0  0  0  0  0  0  0  0
    1.5510   23.7760  -26.4440 C   0  0  0  0  0  0  0  0  0  0  0  0
    0.9380   22.5230  -26.2210 O   0  0  0  0  0  0  0  0  0  0  0  0
   -0.3440   22.7180  -25.6630 C   0  0  0  0  0  0  0  0  0  0  0  0
   -0.2450   23.3990  -24.2880 C   0  0  0  0  0  0  0  0  0  0  0  0
   -0.6290   25.8690  -27.6490 C   0  0  0  0  0  0  0  0  0  0  0  0
   -1.2660   25.5450  -28.8510 C   0  0  0  0  0  0  0  0  0  0  0  0
   -4.9420   23.0670  -30.9760 C   0  0  0  0  0  0  0  0  0  0  0  0
   -5.2570   21.8210  -31.5510 C   0  0  0  0  0  0  0  0  0  0  0  0
   -6.5710   21.5080  -31.9150 C   0  0  0  0  0  0  0  0  0  0  0  0
   -6.9230   19.9400  -32.6350 S   0  0  0  0  0  0  0  0  0  0  0  0
   -7.1390   20.0920  -34.1160 O   0  0  0  0  0  0  0  0  0  0  0  0
   -8.1850   19.4050  -32.0170 O   0  0  0  0  0  0  0  0  0  0  0  0
   -5.5860   18.8550  -32.3170 N   0  0  0  0  0  0  0  0  0  0  0  0
   -4.5440   18.9420  -33.3650 C   0  0  0  0  0  0  0  0  0  0  0  0
   -4.6420   17.8060  -34.3990 C   0  0  0  0  0  0  0  0  0  0  0  0
   -5.9870   17.4240  -34.5810 O   0  0  0  0  0  0  0  0  0  0  0  0
   -6.4750   16.7810  -33.4160 C   0  0  0  0  0  0  0  0  0  0  0  0
   -6.0470   17.4720  -32.1000 C   0  0  0  0  0  0  0  0  0  0  0  0
   -7.5870   22.4510  -31.7200 C   0  0  0  0  0  0  0  0  0  0  0  0
   -7.2890   23.6950  -31.1660 C   0  0  0  0  0  0  0  0  0  0  0  0
   -5.9780   24.0150  -30.7920 C   0  0  0  0  0  0  0  0  0  0  0  0
   -5.6880   25.6410  -30.1780 Cl  0  0  0  0  0  0  0  0  0  0  0  0
   -4.1424   24.1843  -27.6001 H   0  0  0  0  0  0  0  0  0  0  0  0
   -3.0051   24.7570  -25.4562 H   0  0  0  0  0  0  0  0  0  0  0  0
    0.7880   24.9050  -23.3590 H   0  0  0  0  0  0  0  0  0  0  0  0
    2.1662   25.5232  -25.3365 H   0  0  0  0  0  0  0  0  0  0  0  0
    2.4745   23.9322  -24.5134 H   0  0  0  0  0  0  0  0  0  0  0  0
    0.9053   24.3823  -27.0963 H   0  0  0  0  0  0  0  0  0  0  0  0
    2.5288   23.6102  -26.9199 H   0  0  0  0  0  0  0  0  0  0  0  0
   -0.9378   23.3525  -26.3374 H   0  0  0  0  0  0  0  0  0  0  0  0
   -0.8254   21.7371  -25.5360 H   0  0  0  0  0  0  0  0  0  0  0  0
   -1.2612   23.6140  -23.9258 H   0  0  0  0  0  0  0  0  0  0  0  0
    0.2864   22.7142  -23.6108 H   0  0  0  0  0  0  0  0  0  0  0  0
    0.3580   26.3543  -27.6647 H   0  0  0  0  0  0  0  0  0  0  0  0
   -0.7807   25.7860  -29.8083 H   0  0  0  0  0  0  0  0  0  0  0  0
   -4.4583   21.0829  -31.7164 H   0  0  0  0  0  0  0  0  0  0  0  0
   -4.6511   19.9037  -33.8882 H   0  0  0  0  0  0  0  0  0  0  0  0
   -3.5664   18.8544  -32.8683 H   0  0  0  0  0  0  0  0  0  0  0  0
   -4.2302   18.1522  -35.3584 H   0  0  0  0  0  0  0  0  0  0  0  0
   -4.0705   16.9399  -34.0339 H   0  0  0  0  0  0  0  0  0  0  0  0
   -7.5740   16.7687  -33.4605 H   0  0  0  0  0  0  0  0  0  0  0  0
   -6.0446   15.7688  -33.4028 H   0  0  0  0  0  0  0  0  0  0  0  0
   -6.9068   17.4895  -31.4141 H   0  0  0  0  0  0  0  0  0  0  0  0
   -5.2072   16.9003  -31.6782 H   0  0  0  0  0  0  0  0  0  0  0  0
   -8.6219   22.2101  -32.0043 H   0  0  0  0  0  0  0  0  0  0  0  0
   -8.0919   24.4328  -31.0211 H   0  0  0  0  0  0  0  0  0  0  0  0
  1  2  2  0
  2  3  1  0
  3  4  1  0
  4  5  2  0
  5  6  1  0
  6  7  2  0
  7  8  1  0
  8  9  2  0
  8 10  2  0
  8 11  1  0
 11 12  1  0
 12 13  1  0
 13 14  1  0
 14 15  1  0
 15 16  1  0
  7 17  1  0
 17 18  2  0
  2 19  1  0
 19 20  2  0
 20 21  1  0
 21 22  1  0
 22 23  2  0
 22 24  2  0
 22 25  1  0
 25 26  1  0
 26 27  1  0
 27 28  1  0
 28 29  1  0
 29 30  1  0
 21 31  2  0
 31 32  1  0
 32 33  2  0
 33 34  1  0
 18  4  1  0
 33 19  1  0
 16 11  1  0
 30 25  1  0
  5 35  1  0
  6 36  1  0
 11 37  1  0
 12 38  1  0
 12 39  1  0
 13 40  1  0
 13 41  1  0
 15 42  1  0
 15 43  1  0
 16 44  1  0
 16 45  1  0
 17 46  1  0
 18 47  1  0
 20 48  1  0
 26 49  1  0
 26 50  1  0
 27 51  1  0
 27 52  1  0
 29 53  1  0
 29 54  1  0
 30 55  1  0
 30 56  1  0
 31 57  1  0
 32 58  1  0
M  CHG  2   3  -1  11   1
M  END
>  <UniqueID>  (32) 
32

>  <SMILES>  (32) 
O=C([N-]c1ccc(S(=O)(=O)[NH+]2CCOCC2)cc1)c1cc(S(=O)(=O)N2CCOCC2)ccc1Cl

>  <Energy>  (32) 
83.9039361784112

>  <Genealogy>  (32) 
O=C([N-]c1ccc(S(=O)(=O)[NH+]2CCOCC2)cc1)c1cc(S(=O)(=O)N2CCOCC2)ccc1Cl (protonated)
O=C([N-]c1ccc(S(=O)(=O)[NH+]2CCOCC2)cc1)c1cc(S(=O)(=O)N2CCOCC2)ccc1Cl (3D coordinates assigned)
O=C([N-]c1ccc(S(=O)(=O)[NH+]2CCOCC2)cc1)c1cc(S(=O)(=O)N2CCOCC2)ccc1Cl (nonaromatic ring conformer: 83.9039361784112 kcal/mol)

>  <smiles>  (32) 
O=C(Nc1ccc(S(=O)(=O)N2CCOCC2)cc1)c1cc(S(=O)(=O)N2CCOCC2)ccc1Cl

>  <score_type>  (32) 
oracle

>  <origin>  (32) 
adgpu

>  <m_score__min__energy>  (32) 
-12.43

>  <m_primary>  (32) 
energy

$$$$
32:0
     RDKit          3D

 58 61  0  0  0  0  0  0  0  0999 V2000
   -1.7830   18.3860  -32.3700 O   0  0  0  0  0  0  0  0  0  0  0  0
   -2.7630   19.1780  -32.3880 C   0  0  0  0  0  0  0  0  0  0  0  0
   -4.0480   18.7210  -32.9620 C   0  0  0  0  0  0  0  0  0  0  0  0
   -5.2560   19.1200  -32.3640 C   0  0  0  0  0  0  0  0  0  0  0  0
   -6.4840   18.6770  -32.8700 C   0  0  0  0  0  0  0  0  0  0  0  0
   -7.9940   19.1800  -32.1020 S   0  0  0  0  0  0  0  0  0  0  0  0
   -9.1210   19.0070  -33.0810 O   0  0  0  0  0  0  0  0  0  0  0  0
   -8.2610   18.2870  -30.9220 O   0  0  0  0  0  0  0  0  0  0  0  0
   -7.9590   20.8420  -31.5630 N   0  0  0  0  0  0  0  0  0  0  0  0
   -6.9050   21.6130  -32.2210 C   0  0  0  0  0  0  0  0  0  0  0  0
   -7.3530   23.0670  -32.1940 C   0  0  0  0  0  0  0  0  0  0  0  0
   -8.8500   23.0230  -31.9190 C   0  0  0  0  0  0  0  0  0  0  0  0
   -9.2020   21.5450  -31.8670 C   0  0  0  0  0  0  0  0  0  0  0  0
   -6.5070   17.8400  -33.9940 C   0  0  0  0  0  0  0  0  0  0  0  0
   -5.3120   17.4370  -34.5940 C   0  0  0  0  0  0  0  0  0  0  0  0
   -4.0850   17.8700  -34.0830 C   0  0  0  0  0  0  0  0  0  0  0  0
   -2.9100   17.4610  -34.7050 O   0  0  0  0  0  0  0  0  0  0  0  0
   -2.6220   20.4940  -31.8190 N   0  0  0  0  0  0  0  0  0  0  0  0
   -1.9940   21.5630  -32.6090 C   0  0  0  0  0  0  0  0  0  0  0  0
   -0.7430   21.0740  -33.2980 C   0  0  0  0  0  0  0  0  0  0  0  0
   -0.6010   21.2090  -34.6900 C   0  0  0  0  0  0  0  0  0  0  0  0
    0.5830   20.8150  -35.3200 C   0  0  0  0  0  0  0  0  0  0  0  0
    1.6310   20.2740  -34.5690 C   0  0  0  0  0  0  0  0  0  0  0  0
    1.4930   20.1220  -33.1860 C   0  0  0  0  0  0  0  0  0  0  0  0
    0.3110   20.5170  -32.5520 C   0  0  0  0  0  0  0  0  0  0  0  0
   -3.1580   20.7900  -30.4790 C   0  0  0  0  0  0  0  0  0  0  0  0
   -2.7600   22.1730  -30.0370 C   0  0  0  0  0  0  0  0  0  0  0  0
   -3.5240   23.2870  -30.4220 C   0  0  0  0  0  0  0  0  0  0  0  0
   -3.1220   24.5780  -30.0640 C   0  0  0  0  0  0  0  0  0  0  0  0
   -3.8770   25.6720  -30.4690 O   0  0  0  0  0  0  0  0  0  0  0  0
   -1.9610   24.7680  -29.3060 C   0  0  0  0  0  0  0  0  0  0  0  0
   -1.5600   26.0540  -28.9590 O   0  0  0  0  0  0  0  0  0  0  0  0
   -1.2040   23.6620  -28.8980 C   0  0  0  0  0  0  0  0  0  0  0  0
   -0.0480   23.8580  -28.1460 O   0  0  0  0  0  0  0  0  0  0  0  0
   -1.6090   22.3690  -29.2550 C   0  0  0  0  0  0  0  0  0  0  0  0
   -5.2363   19.7871  -31.4896 H   0  0  0  0  0  0  0  0  0  0  0  0
   -5.9549   21.4979  -31.6787 H   0  0  0  0  0  0  0  0  0  0  0  0
   -6.7424   21.2657  -33.2520 H   0  0  0  0  0  0  0  0  0  0  0  0
   -6.8310   23.6159  -31.3964 H   0  0  0  0  0  0  0  0  0  0  0  0
   -7.1252   23.5832  -33.1383 H   0  0  0  0  0  0  0  0  0  0  0  0
   -9.0804   23.5085  -30.9592 H   0  0  0  0  0  0  0  0  0  0  0  0
   -9.4257   23.5560  -32.6900 H   0  0  0  0  0  0  0  0  0  0  0  0
   -9.9482   21.3579  -31.0808 H   0  0  0  0  0  0  0  0  0  0  0  0
   -9.6349   21.2018  -32.8182 H   0  0  0  0  0  0  0  0  0  0  0  0
   -7.4690   17.4996  -34.4047 H   0  0  0  0  0  0  0  0  0  0  0  0
   -5.3364   16.7758  -35.4728 H   0  0  0  0  0  0  0  0  0  0  0  0
   -2.7079   21.9134  -33.3690 H   0  0  0  0  0  0  0  0  0  0  0  0
   -1.7176   22.3812  -31.9277 H   0  0  0  0  0  0  0  0  0  0  0  0
   -1.4256   21.6267  -35.2864 H   0  0  0  0  0  0  0  0  0  0  0  0
    0.6904   20.9308  -36.4086 H   0  0  0  0  0  0  0  0  0  0  0  0
    2.5635   19.9682  -35.0659 H   0  0  0  0  0  0  0  0  0  0  0  0
    2.3153   19.6911  -32.5960 H   0  0  0  0  0  0  0  0  0  0  0  0
    0.2050   20.3914  -31.4643 H   0  0  0  0  0  0  0  0  0  0  0  0
   -4.2556   20.7222  -30.5067 H   0  0  0  0  0  0  0  0  0  0  0  0
   -2.7469   20.0602  -29.7659 H   0  0  0  0  0  0  0  0  0  0  0  0
   -4.4436   23.1433  -31.0083 H   0  0  0  0  0  0  0  0  0  0  0  0
    0.2290   24.7800  -27.8310 H   0  0  0  0  0  0  0  0  0  0  0  0
   -1.0217   21.5011  -28.9207 H   0  0  0  0  0  0  0  0  0  0  0  0
  1  2  2  0
  2  3  1  0
  3  4  2  0
  4  5  1  0
  5  6  1  0
  6  7  2  0
  6  8  2  0
  6  9  1  0
  9 10  1  0
 10 11  1  0
 11 12  1  0
 12 13  1  0
  5 14  2  0
 14 15  1  0
 15 16  2  0
 16 17  1  0
  2 18  1  0
 18 19  1  0
 19 20  1  0
 20 21  2  0
 21 22  1  0
 22 23  2  0
 23 24  1  0
 24 25  2  0
 18 26  1  0
 26 27  1  0
 27 28  2  0
 28 29  1  0
 29 30  1  0
 29 31  2  0
 31 32  1  0
 31 33  1  0
 33 34  1  0
 33 35  2  0
 16  3  1  0
 25 20  1  0
 35 27  1  0
 13  9  1  0
  4 36  1  0
 10 37  1  0
 10 38  1  0
 11 39  1  0
 11 40  1  0
 12 41  1  0
 12 42  1  0
 13 43  1  0
 13 44  1  0
 14 45  1  0
 15 46  1  0
 19 47  1  0
 19 48  1  0
 21 49  1  0
 22 50  1  0
 23 51  1  0
 24 52  1  0
 25 53  1  0
 26 54  1  0
 26 55  1  0
 28 56  1  0
 34 57  1  0
 35 58  1  0
M  CHG  3  17  -1  30  -1  32  -1
M  END
>  <UniqueID>  (33) 
33

>  <SMILES>  (33) 
O=C(c1cc(S(=O)(=O)N2CCCC2)ccc1[O-])N(Cc1ccccc1)Cc1cc([O-])c([O-])c(O)c1

>  <Energy>  (33) 
64.4951310636513

>  <Genealogy>  (33) 
O=C(c1cc(S(=O)(=O)N2CCCC2)ccc1[O-])N(Cc1ccccc1)Cc1cc([O-])c([O-])c(O)c1 (protonated)
O=C(c1cc(S(=O)(=O)N2CCCC2)ccc1[O-])N(Cc1ccccc1)Cc1cc([O-])c([O-])c(O)c1 (3D coordinates assigned)
O=C(c1cc(S(=O)(=O)N2CCCC2)ccc1[O-])N(Cc1ccccc1)Cc1cc([O-])c([O-])c(O)c1 (nonaromatic ring conformer: 64.4951310636513 kcal/mol)

>  <smiles>  (33) 
O=C(c1cc(S(=O)(=O)N2CCCC2)ccc1O)N(Cc1ccccc1)Cc1cc(O)c(O)c(O)c1

>  <score_type>  (33) 
oracle

>  <origin>  (33) 
adgpu

>  <m_score__min__energy>  (33) 
-15.67

>  <m_primary>  (33) 
energy

$$$$
33:0
     RDKit          3D

 46 48  0  0  0  0  0  0  0  0999 V2000
   -1.2490   26.0300  -29.9040 H   0  0  0  0  0  0  0  0  0  0  0  0
   -1.6000   25.7790  -28.9520 N   0  0  0  0  0  0  0  0  0  0  0  0
   -2.7950   24.5470  -29.1590 S   0  0  0  0  0  0  0  0  0  0  0  0
   -3.7880   24.6470  -28.0350 O   0  0  0  0  0  0  0  0  0  0  0  0
   -3.5050   24.7570  -30.4680 O   0  0  0  0  0  0  0  0  0  0  0  0
   -2.0600   22.9450  -29.1490 C   0  0  0  0  0  0  0  0  0  0  0  0
   -2.3390   22.0640  -28.0960 C   0  0  0  0  0  0  0  0  0  0  0  0
   -2.9604   22.3981  -27.2520 H   0  0  0  0  0  0  0  0  0  0  0  0
   -1.8310   20.7630  -28.1140 C   0  0  0  0  0  0  0  0  0  0  0  0
   -2.0521   20.0757  -27.2841 H   0  0  0  0  0  0  0  0  0  0  0  0
   -1.0420   20.3330  -29.1850 C   0  0  0  0  0  0  0  0  0  0  0  0
   -0.6673   19.2991  -29.2089 H   0  0  0  0  0  0  0  0  0  0  0  0
   -0.7270   21.2130  -30.2270 C   0  0  0  0  0  0  0  0  0  0  0  0
    0.0380   20.7310  -31.3420 N   0  0  0  0  0  0  0  0  0  0  0  0
   -0.4460   20.0940  -32.3670 C   0  0  0  0  0  0  0  0  0  0  0  0
   -1.7880   19.9300  -32.5230 N   0  0  0  0  0  0  0  0  0  0  0  0
   -2.3150   19.2970  -33.6080 C   0  0  0  0  0  0  0  0  0  0  0  0
   -3.7520   19.1980  -33.7510 N   0  0  0  0  0  0  0  0  0  0  0  0
   -4.5890   20.2320  -33.2080 C   0  0  0  0  0  0  0  0  0  0  0  0
   -4.0520   21.4930  -32.9110 C   0  0  0  0  0  0  0  0  0  0  0  0
   -2.9883   21.6959  -33.1044 H   0  0  0  0  0  0  0  0  0  0  0  0
   -4.8650   22.4920  -32.3700 C   0  0  0  0  0  0  0  0  0  0  0  0
   -4.4380   23.4768  -32.1294 H   0  0  0  0  0  0  0  0  0  0  0  0
   -6.2190   22.2430  -32.1340 C   0  0  0  0  0  0  0  0  0  0  0  0
   -6.8518   23.0305  -31.6988 H   0  0  0  0  0  0  0  0  0  0  0  0
   -6.7760   20.9970  -32.4480 C   0  0  0  0  0  0  0  0  0  0  0  0
   -8.1640   20.7670  -32.1700 N   0  0  0  0  0  0  0  0  0  0  0  0
   -8.8660   19.5230  -32.3020 C   0  0  0  0  0  0  0  0  0  0  0  0
   -9.8640   19.4670  -33.0660 O   0  0  0  0  0  0  0  0  0  0  0  0
   -8.4200   18.2770  -31.6000 C   0  0  0  0  0  0  0  0  0  0  0  0
   -8.4746   18.4296  -30.5120 H   0  0  0  0  0  0  0  0  0  0  0  0
   -9.0746   17.4406  -31.8863 H   0  0  0  0  0  0  0  0  0  0  0  0
   -7.3833   18.0459  -31.8863 H   0  0  0  0  0  0  0  0  0  0  0  0
   -5.9480   19.9830  -32.9600 C   0  0  0  0  0  0  0  0  0  0  0  0
   -6.3678   18.9877  -33.1677 H   0  0  0  0  0  0  0  0  0  0  0  0
   -4.3720   18.1690  -34.5930 C   0  0  0  0  0  0  0  0  0  0  0  0
   -4.8342   17.4020  -33.9542 H   0  0  0  0  0  0  0  0  0  0  0  0
   -5.1427   18.6303  -35.2281 H   0  0  0  0  0  0  0  0  0  0  0  0
   -3.6041   17.7032  -35.2281 H   0  0  0  0  0  0  0  0  0  0  0  0
   -1.4390   18.8020  -34.5890 C   0  0  0  0  0  0  0  0  0  0  0  0
   -1.8285   18.2804  -35.4757 H   0  0  0  0  0  0  0  0  0  0  0  0
   -0.0670   18.9840  -34.4180 C   0  0  0  0  0  0  0  0  0  0  0  0
    0.6359   18.6043  -35.1741 H   0  0  0  0  0  0  0  0  0  0  0  0
    0.4020   19.6290  -33.3200 N   0  0  0  0  0  0  0  0  0  0  0  0
   -1.2500   22.5190  -30.2130 C   0  0  0  0  0  0  0  0  0  0  0  0
   -1.0232   23.2089  -31.0392 H   0  0  0  0  0  0  0  0  0  0  0  0
  1  2  1  0
  2  3  1  0
  3  4  2  0
  3  5  2  0
  3  6  1  0
  6  7  2  0
  7  8  1  0
  7  9  1  0
  9 10  1  0
  9 11  2  0
 11 12  1  0
 11 13  1  0
 13 14  1  0
 14 15  2  0
 15 16  1  0
 16 17  2  0
 17 18  1  0
 18 19  1  0
 19 20  2  0
 20 21  1  0
 20 22  1  0
 22 23  1  0
 22 24  2  0
 24 25  1  0
 24 26  1  0
 26 27  1  0
 27 28  1  0
 28 29  2  0
 28 30  1  0
 30 31  1  0
 30 32  1  0
 30 33  1  0
 26 34  2  0
 34 35  1  0
 18 36  1  0
 36 37  1  0
 36 38  1  0
 36 39  1  0
 17 40  1  0
 40 41  1  0
 40 42  2  0
 42 43  1  0
 42 44  1  0
 13 45  2  0
 45 46  1  0
 45  6  1  0
 44 15  1  0
 34 19  1  0
M  CHG  3   2  -1  27  -1  44  -1
M  END
>  <UniqueID>  (34) 
34

>  <SMILES>  (34) 
CC(=O)[N-]c1cccc(N(C)c2cc[n-]/c(=N/c3cccc(S([NH-])(=O)=O)c3)n2)c1

>  <Energy>  (34) 
63.92227342015214

>  <Genealogy>  (34) 
CC(=O)[N-]c1cccc(N(C)c2cc[n-]c(=Nc3cccc(S([NH-])(=O)=O)c3)n2)c1 (protonated)
CC(=O)[N-]c1cccc(N(C)c2cc[n-]/c(=N/c3cccc(S([NH-])(=O)=O)c3)n2)c1 (cis-trans isomerization)
CC(=O)[N-]c1cccc(N(C)c2cc[n-]/c(=N/c3cccc(S([NH-])(=O)=O)c3)n2)c1 (3D coordinates assigned)
CC(=O)[N-]c1cccc(N(C)c2cc[n-]/c(=N/c3cccc(S([NH-])(=O)=O)c3)n2)c1 (optimized conformer: 63.92227342015214 kcal/mol)

>  <smiles>  (34) 
CC(=O)Nc1cccc(N(C)c2cc[nH]c(=Nc3cccc(S(N)(=O)=O)c3)n2)c1

>  <score_type>  (34) 
oracle

>  <origin>  (34) 
adgpu

>  <m_score__min__energy>  (34) 
-13.07

>  <m_primary>  (34) 
energy

$$$$
34:0
     RDKit          3D

 40 42  0  0  0  0  0  0  0  0999 V2000
   -5.6860   25.0950  -28.7980 O   0  0  0  0  0  0  0  0  0  0  0  0
   -5.2720   25.0830  -30.2420 S   0  0  0  0  0  0  0  0  0  0  0  0
   -5.6500   26.3950  -30.8730 O   0  0  0  0  0  0  0  0  0  0  0  0
   -3.5500   24.8860  -30.3410 N   0  0  0  0  0  0  0  0  0  0  0  0
   -2.7380   24.2170  -29.3630 C   0  0  0  0  0  0  0  0  0  0  0  0
   -3.0630   22.9340  -28.8780 C   0  0  0  0  0  0  0  0  0  0  0  0
   -2.2520   22.3170  -27.9210 C   0  0  0  0  0  0  0  0  0  0  0  0
   -1.1090   22.9660  -27.4440 C   0  0  0  0  0  0  0  0  0  0  0  0
   -0.7760   24.2350  -27.9250 C   0  0  0  0  0  0  0  0  0  0  0  0
   -1.5850   24.8580  -28.8830 C   0  0  0  0  0  0  0  0  0  0  0  0
   -1.2360   26.1170  -29.3610 O   0  0  0  0  0  0  0  0  0  0  0  0
   -6.0800   23.7480  -31.0560 C   0  0  0  0  0  0  0  0  0  0  0  0
   -7.4780   23.7090  -31.1380 C   0  0  0  0  0  0  0  0  0  0  0  0
   -8.1130   22.6580  -31.8060 C   0  0  0  0  0  0  0  0  0  0  0  0
   -7.3560   21.6390  -32.3910 C   0  0  0  0  0  0  0  0  0  0  0  0
   -5.9570   21.6650  -32.3030 C   0  0  0  0  0  0  0  0  0  0  0  0
   -4.9870   20.3750  -33.0070 S   0  0  0  0  0  0  0  0  0  0  0  0
   -5.7360   19.7850  -34.1700 O   0  0  0  0  0  0  0  0  0  0  0  0
   -4.7210   19.2930  -31.9990 O   0  0  0  0  0  0  0  0  0  0  0  0
   -3.4770   21.0180  -33.5670 N   0  0  0  0  0  0  0  0  0  0  0  0
   -2.2350   20.9560  -32.8480 C   0  0  0  0  0  0  0  0  0  0  0  0
   -2.1670   21.1760  -31.4590 C   0  0  0  0  0  0  0  0  0  0  0  0
   -0.9380   21.1090  -30.7940 C   0  0  0  0  0  0  0  0  0  0  0  0
    0.2290   20.8190  -31.5050 C   0  0  0  0  0  0  0  0  0  0  0  0
    0.1710   20.5990  -32.8840 C   0  0  0  0  0  0  0  0  0  0  0  0
   -1.0550   20.6670  -33.5550 C   0  0  0  0  0  0  0  0  0  0  0  0
   -1.0980   20.4460  -34.9280 O   0  0  0  0  0  0  0  0  0  0  0  0
   -5.3230   22.7220  -31.6360 C   0  0  0  0  0  0  0  0  0  0  0  0
   -3.9579   22.4165  -29.2539 H   0  0  0  0  0  0  0  0  0  0  0  0
   -2.5138   21.3180  -27.5421 H   0  0  0  0  0  0  0  0  0  0  0  0
   -0.4727   22.4781  -26.6910 H   0  0  0  0  0  0  0  0  0  0  0  0
    0.1234   24.7455  -27.5503 H   0  0  0  0  0  0  0  0  0  0  0  0
   -8.0773   24.5072  -30.6757 H   0  0  0  0  0  0  0  0  0  0  0  0
   -9.2108   22.6329  -31.8714 H   0  0  0  0  0  0  0  0  0  0  0  0
   -7.8582   20.8161  -32.9208 H   0  0  0  0  0  0  0  0  0  0  0  0
   -3.0838   21.4014  -30.8945 H   0  0  0  0  0  0  0  0  0  0  0  0
   -0.8905   21.2850  -29.7092 H   0  0  0  0  0  0  0  0  0  0  0  0
    1.1937   20.7638  -30.9794 H   0  0  0  0  0  0  0  0  0  0  0  0
    1.0908   20.3720  -33.4429 H   0  0  0  0  0  0  0  0  0  0  0  0
   -4.2254   22.7460  -31.5676 H   0  0  0  0  0  0  0  0  0  0  0  0
  1  2  2  0
  2  3  2  0
  2  4  1  0
  4  5  1  0
  5  6  2  0
  6  7  1  0
  7  8  2  0
  8  9  1  0
  9 10  2  0
 10 11  1  0
  2 12  1  0
 12 13  2  0
 13 14  1  0
 14 15  2  0
 15 16  1  0
 16 17  1  0
 17 18  2  0
 17 19  2  0
 17 20  1  0
 20 21  1  0
 21 22  2  0
 22 23  1  0
 23 24  2  0
 24 25  1  0
 25 26  2  0
 26 27  1  0
 16 28  2  0
 10  5  1  0
 28 12  1  0
 26 21  1  0
  6 29  1  0
  7 30  1  0
  8 31  1  0
  9 32  1  0
 13 33  1  0
 14 34  1  0
 15 35  1  0
 22 36  1  0
 23 37  1  0
 24 38  1  0
 25 39  1  0
 28 40  1  0
M  CHG  4   4  -1  11  -1  20  -1  27  -1
M  END
>  <UniqueID>  (35) 
35

>  <SMILES>  (35) 
O=S(=O)([N-]c1ccccc1[O-])c1cccc(S(=O)(=O)[N-]c2ccccc2[O-])c1

>  <Energy>  (35) 
49.262274199370424

>  <Genealogy>  (35) 
O=S(=O)([N-]c1ccccc1[O-])c1cccc(S(=O)(=O)[N-]c2ccccc2[O-])c1 (protonated)
O=S(=O)([N-]c1ccccc1[O-])c1cccc(S(=O)(=O)[N-]c2ccccc2[O-])c1 (3D coordinates assigned)
O=S(=O)([N-]c1ccccc1[O-])c1cccc(S(=O)(=O)[N-]c2ccccc2[O-])c1 (optimized conformer: 49.262274199370424 kcal/mol)

>  <smiles>  (35) 
O=S(=O)(Nc1ccccc1O)c1cccc(S(=O)(=O)Nc2ccccc2O)c1

>  <score_type>  (35) 
oracle

>  <origin>  (35) 
adgpu

>  <m_score__min__energy>  (35) 
-13.73

>  <m_primary>  (35) 
energy

$$$$
35:0
     RDKit          3D

 49 51  0  0  0  0  0  0  0  0999 V2000
    0.4940   26.7630  -23.7610 C   0  0  0  0  0  0  0  0  0  0  0  0
   -0.1130   26.4560  -25.0980 C   0  0  0  0  0  0  0  0  0  0  0  0
   -0.2120   27.4580  -26.0750 C   0  0  0  0  0  0  0  0  0  0  0  0
   -0.7450   27.1650  -27.3340 C   0  0  0  0  0  0  0  0  0  0  0  0
   -1.1580   25.8630  -27.6460 C   0  0  0  0  0  0  0  0  0  0  0  0
   -1.7220   25.5940  -28.9420 N   0  0  0  0  0  0  0  0  0  0  0  0
   -2.9450   24.8760  -29.1570 C   0  0  0  0  0  0  0  0  0  0  0  0
   -3.5210   24.2860  -28.2030 O   0  0  0  0  0  0  0  0  0  0  0  0
   -3.5100   24.8390  -30.4730 N   0  0  0  0  0  0  0  0  0  0  0  0
   -4.7260   24.1700  -30.8350 C   0  0  0  0  0  0  0  0  0  0  0  0
   -5.9380   24.7980  -30.5500 C   0  0  0  0  0  0  0  0  0  0  0  0
   -7.1440   24.1880  -30.8830 C   0  0  0  0  0  0  0  0  0  0  0  0
   -7.1680   22.9390  -31.5280 C   0  0  0  0  0  0  0  0  0  0  0  0
   -8.5080   22.3320  -31.8430 C   0  0  0  0  0  0  0  0  0  0  0  0
   -5.9390   22.3070  -31.8620 C   0  0  0  0  0  0  0  0  0  0  0  0
   -5.8350   20.7520  -32.7270 S   0  0  0  0  0  0  0  0  0  0  0  0
   -4.4870   20.5160  -33.3490 O   0  0  0  0  0  0  0  0  0  0  0  0
   -6.8550   20.7790  -33.8310 O   0  0  0  0  0  0  0  0  0  0  0  0
   -6.2160   19.4430  -31.6260 N   0  0  0  0  0  0  0  0  0  0  0  0
   -5.5720   18.1800  -32.0300 C   0  0  0  0  0  0  0  0  0  0  0  0
   -6.2800   17.5120  -33.2330 C   0  0  0  0  0  0  0  0  0  0  0  0
   -7.5820   18.0150  -33.4760 O   0  0  0  0  0  0  0  0  0  0  0  0
   -8.2810   18.1550  -32.2610 C   0  0  0  0  0  0  0  0  0  0  0  0
   -7.6750   19.2950  -31.4250 C   0  0  0  0  0  0  0  0  0  0  0  0
   -4.7250   22.9430  -31.5240 C   0  0  0  0  0  0  0  0  0  0  0  0
   -3.5160   22.3680  -31.9050 O   0  0  0  0  0  0  0  0  0  0  0  0
   -1.0630   24.8600  -26.6630 C   0  0  0  0  0  0  0  0  0  0  0  0
   -0.5320   25.1540  -25.4050 C   0  0  0  0  0  0  0  0  0  0  0  0
   -0.1825   26.4209  -22.9639 H   0  0  0  0  0  0  0  0  0  0  0  0
    1.4601   26.2452  -23.6693 H   0  0  0  0  0  0  0  0  0  0  0  0
    0.6494   27.8481  -23.6693 H   0  0  0  0  0  0  0  0  0  0  0  0
    0.1312   28.4785  -25.8496 H   0  0  0  0  0  0  0  0  0  0  0  0
   -0.8408   27.9628  -28.0853 H   0  0  0  0  0  0  0  0  0  0  0  0
   -1.1640   25.8530  -29.7850 H   0  0  0  0  0  0  0  0  0  0  0  0
   -5.9410   25.7822  -30.0587 H   0  0  0  0  0  0  0  0  0  0  0  0
   -8.0915   24.6902  -30.6381 H   0  0  0  0  0  0  0  0  0  0  0  0
   -9.0324   22.0945  -30.9057 H   0  0  0  0  0  0  0  0  0  0  0  0
   -9.1063   23.0470  -32.4268 H   0  0  0  0  0  0  0  0  0  0  0  0
   -8.3651   21.4107  -32.4268 H   0  0  0  0  0  0  0  0  0  0  0  0
   -4.5281   18.3891  -32.3067 H   0  0  0  0  0  0  0  0  0  0  0  0
   -5.6336   17.4862  -31.1786 H   0  0  0  0  0  0  0  0  0  0  0  0
   -5.6692   17.6791  -34.1325 H   0  0  0  0  0  0  0  0  0  0  0  0
   -6.3867   16.4440  -32.9920 H   0  0  0  0  0  0  0  0  0  0  0  0
   -9.3361   18.3820  -32.4734 H   0  0  0  0  0  0  0  0  0  0  0  0
   -8.2046   17.2156  -31.6938 H   0  0  0  0  0  0  0  0  0  0  0  0
   -8.1659   20.2377  -31.7086 H   0  0  0  0  0  0  0  0  0  0  0  0
   -7.8395   19.0510  -30.3651 H   0  0  0  0  0  0  0  0  0  0  0  0
   -1.4085   23.8399  -26.8866 H   0  0  0  0  0  0  0  0  0  0  0  0
   -0.4420   24.3587  -24.6504 H   0  0  0  0  0  0  0  0  0  0  0  0
  1  2  1  0
  2  3  2  0
  3  4  1  0
  4  5  2  0
  5  6  1  0
  6  7  1  0
  7  8  2  0
  7  9  1  0
  9 10  1  0
 10 11  2  0
 11 12  1  0
 12 13  2  0
 13 14  1  0
 13 15  1  0
 15 16  1  0
 16 17  2  0
 16 18  2  0
 16 19  1  0
 19 20  1  0
 20 21  1  0
 21 22  1  0
 22 23  1  0
 23 24  1  0
 15 25  2  0
 25 26  1  0
  5 27  1  0
 27 28  2  0
 28  2  1  0
 25 10  1  0
 24 19  1  0
  1 29  1  0
  1 30  1  0
  1 31  1  0
  3 32  1  0
  4 33  1  0
  6 34  1  0
 11 35  1  0
 12 36  1  0
 14 37  1  0
 14 38  1  0
 14 39  1  0
 20 40  1  0
 20 41  1  0
 21 42  1  0
 21 43  1  0
 23 44  1  0
 23 45  1  0
 24 46  1  0
 24 47  1  0
 27 48  1  0
 28 49  1  0
M  CHG  2   9  -1  26  -1
M  END
>  <UniqueID>  (36) 
36

>  <SMILES>  (36) 
Cc1ccc(NC(=O)[N-]c2ccc(C)c(S(=O)(=O)N3CCOCC3)c2[O-])cc1

>  <Energy>  (36) 
73.53854573345417

>  <Genealogy>  (36) 
Cc1ccc(NC(=O)[N-]c2ccc(C)c(S(=O)(=O)N3CCOCC3)c2[O-])cc1 (protonated)
Cc1ccc(NC(=O)[N-]c2ccc(C)c(S(=O)(=O)N3CCOCC3)c2[O-])cc1 (3D coordinates assigned)
Cc1ccc(NC(=O)[N-]c2ccc(C)c(S(=O)(=O)N3CCOCC3)c2[O-])cc1 (nonaromatic ring conformer: 73.53854573345417 kcal/mol)

>  <smiles>  (36) 
Cc1ccc(NC(=O)Nc2ccc(C)c(S(=O)(=O)N3CCOCC3)c2O)cc1

>  <score_type>  (36) 
oracle

>  <origin>  (36) 
adgpu

>  <m_score__min__energy>  (36) 
-13.609999999999999

>  <m_primary>  (36) 
energy

$$$$
36:0
     RDKit          3D

 45 47  0  0  0  0  0  0  0  0999 V2000
    1.0730   23.8660  -36.8790 O   0  0  0  0  0  0  0  0  0  0  0  0
    1.8020   22.9380  -36.4370 C   0  0  0  0  0  0  0  0  0  0  0  0
    3.1180   22.8480  -36.8780 O   0  0  0  0  0  0  0  0  0  0  0  0
    1.2680   21.9590  -35.4650 C   0  0  0  0  0  0  0  0  0  0  0  0
    2.1250   21.3430  -34.5380 C   0  0  0  0  0  0  0  0  0  0  0  0
    1.6210   20.4300  -33.6080 C   0  0  0  0  0  0  0  0  0  0  0  0
    0.2610   20.1150  -33.6000 C   0  0  0  0  0  0  0  0  0  0  0  0
   -0.6080   20.6990  -34.5300 C   0  0  0  0  0  0  0  0  0  0  0  0
   -2.0080   20.3740  -34.4890 N   0  0  0  0  0  0  0  0  0  0  0  0
   -2.6470   19.7320  -33.3730 C   0  0  0  0  0  0  0  0  0  0  0  0
   -2.0930   19.7510  -32.2390 O   0  0  0  0  0  0  0  0  0  0  0  0
   -3.9790   19.0970  -33.5210 C   0  0  0  0  0  0  0  0  0  0  0  0
   -4.1110   17.8870  -34.2250 C   0  0  0  0  0  0  0  0  0  0  0  0
   -5.3590   17.2710  -34.3480 C   0  0  0  0  0  0  0  0  0  0  0  0
   -6.4880   17.8540  -33.7700 C   0  0  0  0  0  0  0  0  0  0  0  0
   -6.3780   19.0630  -33.0750 C   0  0  0  0  0  0  0  0  0  0  0  0
   -7.8000   19.7440  -32.2910 S   0  0  0  0  0  0  0  0  0  0  0  0
   -8.4590   18.6700  -31.4730 O   0  0  0  0  0  0  0  0  0  0  0  0
   -8.7850   20.2340  -33.3170 O   0  0  0  0  0  0  0  0  0  0  0  0
   -7.3290   21.0510  -31.2400 N   0  0  0  0  0  0  0  0  0  0  0  0
   -7.0470   22.2750  -31.9940 C   0  0  0  0  0  0  0  0  0  0  0  0
   -5.9250   23.0620  -31.3680 C   0  0  0  0  0  0  0  0  0  0  0  0
   -6.1780   24.3060  -30.7660 C   0  0  0  0  0  0  0  0  0  0  0  0
   -5.1280   25.0470  -30.2130 C   0  0  0  0  0  0  0  0  0  0  0  0
   -3.8220   24.5500  -30.2510 C   0  0  0  0  0  0  0  0  0  0  0  0
   -2.7800   25.2940  -29.7140 O   0  0  0  0  0  0  0  0  0  0  0  0
   -3.5660   23.3040  -30.8290 C   0  0  0  0  0  0  0  0  0  0  0  0
   -4.6130   22.5570  -31.3790 C   0  0  0  0  0  0  0  0  0  0  0  0
   -5.1270   19.6890  -32.9640 C   0  0  0  0  0  0  0  0  0  0  0  0
   -0.1010   21.6360  -35.4510 C   0  0  0  0  0  0  0  0  0  0  0  0
    3.1990   21.5807  -34.5442 H   0  0  0  0  0  0  0  0  0  0  0  0
    2.2976   19.9582  -32.8803 H   0  0  0  0  0  0  0  0  0  0  0  0
   -0.1306   19.4033  -32.8583 H   0  0  0  0  0  0  0  0  0  0  0  0
   -2.6130   20.7360  -35.2600 H   0  0  0  0  0  0  0  0  0  0  0  0
   -3.2252   17.4220  -34.6823 H   0  0  0  0  0  0  0  0  0  0  0  0
   -5.4521   16.3249  -34.9013 H   0  0  0  0  0  0  0  0  0  0  0  0
   -7.4672   17.3612  -33.8613 H   0  0  0  0  0  0  0  0  0  0  0  0
   -6.7640   22.0045  -33.0220 H   0  0  0  0  0  0  0  0  0  0  0  0
   -7.9521   22.9001  -31.9891 H   0  0  0  0  0  0  0  0  0  0  0  0
   -7.2049   24.6986  -30.7293 H   0  0  0  0  0  0  0  0  0  0  0  0
   -5.3306   26.0228  -29.7473 H   0  0  0  0  0  0  0  0  0  0  0  0
   -2.5393   22.9098  -30.8516 H   0  0  0  0  0  0  0  0  0  0  0  0
   -4.4090   21.5709  -31.8217 H   0  0  0  0  0  0  0  0  0  0  0  0
   -5.0434   20.6509  -32.4369 H   0  0  0  0  0  0  0  0  0  0  0  0
   -0.7822   22.1200  -36.1664 H   0  0  0  0  0  0  0  0  0  0  0  0
  1  2  2  0
  2  3  1  0
  2  4  1  0
  4  5  2  0
  5  6  1  0
  6  7  2  0
  7  8  1  0
  8  9  1  0
  9 10  1  0
 10 11  2  0
 10 12  1  0
 12 13  2  0
 13 14  1  0
 14 15  2  0
 15 16  1  0
 16 17  1  0
 17 18  2  0
 17 19  2  0
 17 20  1  0
 20 21  1  0
 21 22  1  0
 22 23  2  0
 23 24  1  0
 24 25  2  0
 25 26  1  0
 25 27  1  0
 27 28  2  0
 16 29  2  0
  8 30  2  0
 30  4  1  0
 29 12  1  0
 28 22  1  0
  5 31  1  0
  6 32  1  0
  7 33  1  0
  9 34  1  0
 13 35  1  0
 14 36  1  0
 15 37  1  0
 21 38  1  0
 21 39  1  0
 23 40  1  0
 24 41  1  0
 27 42  1  0
 28 43  1  0
 29 44  1  0
 30 45  1  0
M  CHG  3   3  -1  20  -1  26  -1
M  END
>  <UniqueID>  (37) 
37

>  <SMILES>  (37) 
O=C([O-])c1cccc(NC(=O)c2cccc(S(=O)(=O)[N-]Cc3ccc([O-])cc3)c2)c1

>  <Energy>  (37) 
48.91034801704217

>  <Genealogy>  (37) 
O=C([O-])c1cccc(NC(=O)c2cccc(S(=O)(=O)[N-]Cc3ccc([O-])cc3)c2)c1 (protonated)
O=C([O-])c1cccc(NC(=O)c2cccc(S(=O)(=O)[N-]Cc3ccc([O-])cc3)c2)c1 (3D coordinates assigned)
O=C([O-])c1cccc(NC(=O)c2cccc(S(=O)(=O)[N-]Cc3ccc([O-])cc3)c2)c1 (optimized conformer: 48.91034801704217 kcal/mol)

>  <smiles>  (37) 
O=C(O)c1cccc(NC(=O)c2cccc(S(=O)(=O)NCc3ccc(O)cc3)c2)c1

>  <score_type>  (37) 
oracle

>  <origin>  (37) 
adgpu

>  <m_score__min__energy>  (37) 
-14.42

>  <m_primary>  (37) 
energy

$$$$
37:0
     RDKit          3D

 59 62  0  0  0  0  0  0  0  0999 V2000
   -6.6690   17.8740  -30.8920 O   0  0  0  0  0  0  0  0  0  0  0  0
   -6.6110   18.5520  -31.9540 C   0  0  0  0  0  0  0  0  0  0  0  0
   -5.6720   18.1360  -33.0200 C   0  0  0  0  0  0  0  0  0  0  0  0
   -6.1580   17.5260  -34.1880 C   0  0  0  0  0  0  0  0  0  0  0  0
   -5.2780   17.1390  -35.2020 C   0  0  0  0  0  0  0  0  0  0  0  0
   -3.9070   17.3640  -35.0630 C   0  0  0  0  0  0  0  0  0  0  0  0
   -3.4080   17.9810  -33.9080 C   0  0  0  0  0  0  0  0  0  0  0  0
   -1.6850   18.2970  -33.7480 S   0  0  0  0  0  0  0  0  0  0  0  0
   -1.2560   18.0640  -32.3260 O   0  0  0  0  0  0  0  0  0  0  0  0
   -0.9160   17.3660  -34.6430 O   0  0  0  0  0  0  0  0  0  0  0  0
   -1.3600   19.9900  -34.2090 C   0  0  0  0  0  0  0  0  0  0  0  0
   -2.0420   20.9320  -33.2570 C   0  0  0  0  0  0  0  0  0  0  0  0
   -1.3630   21.4070  -32.1250 C   0  0  0  0  0  0  0  0  0  0  0  0
   -2.0060   22.2600  -31.2240 C   0  0  0  0  0  0  0  0  0  0  0  0
   -3.3370   22.6410  -31.4390 C   0  0  0  0  0  0  0  0  0  0  0  0
   -4.1210   23.7450  -30.3120 S   0  0  0  0  0  0  0  0  0  0  0  0
   -5.5840   23.8040  -30.6510 O   0  0  0  0  0  0  0  0  0  0  0  0
   -3.5430   25.1250  -30.4610 O   0  0  0  0  0  0  0  0  0  0  0  0
   -3.9290   23.1720  -28.6680 N   0  0  0  0  0  0  0  0  0  0  0  0
   -2.5970   22.5810  -28.4430 C   0  0  0  0  0  0  0  0  0  0  0  0
   -1.4870   23.6560  -28.3490 C   0  0  0  0  0  0  0  0  0  0  0  0
   -1.9770   24.9580  -28.0820 O   0  0  0  0  0  0  0  0  0  0  0  0
   -2.9930   24.9060  -27.1060 C   0  0  0  0  0  0  0  0  0  0  0  0
   -4.2490   24.2240  -27.6780 C   0  0  0  0  0  0  0  0  0  0  0  0
   -4.0210   22.1620  -32.5670 C   0  0  0  0  0  0  0  0  0  0  0  0
   -3.3790   21.3070  -33.4680 C   0  0  0  0  0  0  0  0  0  0  0  0
   -4.2940   18.3790  -32.8970 C   0  0  0  0  0  0  0  0  0  0  0  0
   -7.4500   19.7170  -32.0950 N   0  0  0  0  0  0  0  0  0  0  0  0
   -7.0040   20.8960  -32.8450 C   0  0  0  0  0  0  0  0  0  0  0  0
   -7.4490   22.1660  -32.1130 C   0  0  0  0  0  0  0  0  0  0  0  0
   -8.8380   22.1300  -31.8420 O   0  0  0  0  0  0  0  0  0  0  0  0
   -9.1230   21.0790  -30.9380 C   0  0  0  0  0  0  0  0  0  0  0  0
   -8.8190   19.7180  -31.5710 C   0  0  0  0  0  0  0  0  0  0  0  0
   -7.2378   17.3519  -34.3052 H   0  0  0  0  0  0  0  0  0  0  0  0
   -5.6659   16.6563  -36.1112 H   0  0  0  0  0  0  0  0  0  0  0  0
   -3.2168   17.0561  -35.8623 H   0  0  0  0  0  0  0  0  0  0  0  0
   -0.2753   20.1709  -34.1832 H   0  0  0  0  0  0  0  0  0  0  0  0
   -1.7481   20.1646  -35.2233 H   0  0  0  0  0  0  0  0  0  0  0  0
   -0.3200   21.1067  -31.9459 H   0  0  0  0  0  0  0  0  0  0  0  0
   -1.4649   22.6339  -30.3423 H   0  0  0  0  0  0  0  0  0  0  0  0
   -2.6173   22.0100  -27.5030 H   0  0  0  0  0  0  0  0  0  0  0  0
   -2.3665   21.9327  -29.3012 H   0  0  0  0  0  0  0  0  0  0  0  0
   -0.7963   23.3724  -27.5413 H   0  0  0  0  0  0  0  0  0  0  0  0
   -0.9918   23.6937  -29.3305 H   0  0  0  0  0  0  0  0  0  0  0  0
   -2.6332   24.3343  -26.2378 H   0  0  0  0  0  0  0  0  0  0  0  0
   -3.2498   25.9315  -26.8019 H   0  0  0  0  0  0  0  0  0  0  0  0
   -4.8097   23.7677  -26.8489 H   0  0  0  0  0  0  0  0  0  0  0  0
   -4.8395   24.9957  -28.1936 H   0  0  0  0  0  0  0  0  0  0  0  0
   -5.0652   22.4601  -32.7428 H   0  0  0  0  0  0  0  0  0  0  0  0
   -3.9230   20.9267  -34.3452 H   0  0  0  0  0  0  0  0  0  0  0  0
   -3.9070   18.8855  -32.0005 H   0  0  0  0  0  0  0  0  0  0  0  0
   -5.9071   20.8852  -32.9266 H   0  0  0  0  0  0  0  0  0  0  0  0
   -7.4470   20.8790  -33.8517 H   0  0  0  0  0  0  0  0  0  0  0  0
   -6.8985   22.2469  -31.1641 H   0  0  0  0  0  0  0  0  0  0  0  0
   -7.2374   23.0346  -32.7539 H   0  0  0  0  0  0  0  0  0  0  0  0
   -8.5062   21.2026  -30.0356 H   0  0  0  0  0  0  0  0  0  0  0  0
  -10.1917   21.1165  -30.6802 H   0  0  0  0  0  0  0  0  0  0  0  0
   -8.9212   18.9293  -30.8111 H   0  0  0  0  0  0  0  0  0  0  0  0
   -9.5259   19.5299  -32.3925 H   0  0  0  0  0  0  0  0  0  0  0  0
  1  2  2  0
  2  3  1  0
  3  4  2  0
  4  5  1  0
  5  6  2  0
  6  7  1  0
  7  8  1  0
  8  9  2  0
  8 10  2  0
  8 11  1  0
 11 12  1  0
 12 13  2  0
 13 14  1  0
 14 15  2  0
 15 16  1  0
 16 17  2  0
 16 18  2  0
 16 19  1  0
 19 20  1  0
 20 21  1  0
 21 22  1  0
 22 23  1  0
 23 24  1  0
 15 25  1  0
 25 26  2  0
  7 27  2  0
  2 28  1  0
 28 29  1  0
 29 30  1  0
 30 31  1  0
 31 32  1  0
 32 33  1  0
 27  3  1  0
 33 28  1  0
 26 12  1  0
 24 19  1  0
  4 34  1  0
  5 35  1  0
  6 36  1  0
 11 37  1  0
 11 38  1  0
 13 39  1  0
 14 40  1  0
 20 41  1  0
 20 42  1  0
 21 43  1  0
 21 44  1  0
 23 45  1  0
 23 46  1  0
 24 47  1  0
 24 48  1  0
 25 49  1  0
 26 50  1  0
 27 51  1  0
 29 52  1  0
 29 53  1  0
 30 54  1  0
 30 55  1  0
 32 56  1  0
 32 57  1  0
 33 58  1  0
 33 59  1  0
M  END
>  <UniqueID>  (38) 
38

>  <SMILES>  (38) 
O=C(c1cccc(S(=O)(=O)Cc2ccc(S(=O)(=O)N3CCOCC3)cc2)c1)N1CCOCC1

>  <Energy>  (38) 
75.11389522482031

>  <Genealogy>  (38) 
O=C(c1cccc(S(=O)(=O)Cc2ccc(S(=O)(=O)N3CCOCC3)cc2)c1)N1CCOCC1 (3D coordinates assigned)
O=C(c1cccc(S(=O)(=O)Cc2ccc(S(=O)(=O)N3CCOCC3)cc2)c1)N1CCOCC1 (nonaromatic ring conformer: 75.11389522482031 kcal/mol)

>  <smiles>  (38) 
O=C(c1cccc(S(=O)(=O)Cc2ccc(S(=O)(=O)N3CCOCC3)cc2)c1)N1CCOCC1

>  <score_type>  (38) 
oracle

>  <origin>  (38) 
adgpu

>  <m_score__min__energy>  (38) 
-11.35

>  <m_primary>  (38) 
energy

$$$$
38:0
     RDKit          3D

 60 63  0  0  1  0  0  0  0  0999 V2000
   -5.6940   25.0950  -29.6860 C   0  0  0  0  0  0  0  0  0  0  0  0
   -4.4350   25.2780  -30.3030 O   0  0  0  0  0  0  0  0  0  0  0  0
   -3.5320   24.2430  -30.3140 C   0  0  0  0  0  0  0  0  0  0  0  0
   -3.8910   23.0910  -30.9920 C   0  0  0  0  0  0  0  0  0  0  0  0
   -3.0160   22.0190  -31.0320 C   0  0  0  0  0  0  0  0  0  0  0  0
   -3.3230   20.8820  -31.6790 N   0  0  0  0  0  0  0  0  0  0  0  0
   -2.4840   19.8320  -31.7260 C   0  0  0  0  0  0  0  0  0  0  0  0
   -2.7560   18.7310  -32.3420 N   0  0  0  0  0  0  0  0  0  0  0  0
   -4.0150   18.6350  -33.0000 C   0  0  0  0  0  0  0  0  0  0  0  0
   -4.1270   18.2270  -34.3290 C   0  0  0  0  0  0  0  0  0  0  0  0
   -5.3440   18.1320  -34.9690 C   0  0  0  0  0  0  0  0  0  0  0  0
   -6.4670   18.4600  -34.2400 C   0  0  0  0  0  0  0  0  0  0  0  0
   -6.4140   18.8700  -32.9180 C   0  0  0  0  0  0  0  0  0  0  0  0
   -7.9200   19.2550  -32.1140 S   0  0  0  0  0  0  0  0  0  0  0  0
   -8.9960   19.2630  -33.1600 O   0  0  0  0  0  0  0  0  0  0  0  0
   -8.2810   18.1420  -31.1410 O   0  0  0  0  0  0  0  0  0  0  0  0
   -7.8300   20.7780  -31.3020 N   0  0  0  0  0  0  0  0  0  0  0  0
   -9.1190   21.3500  -31.0720 C   0  0  0  0  0  0  0  0  0  0  0  0
   -9.4830   22.4920  -31.9660 C   0  0  0  0  0  0  0  0  0  0  0  0
   -8.4520   23.3370  -32.2910 O   0  0  0  0  0  0  0  0  0  0  0  0
   -7.2860   23.0670  -31.5950 C   0  0  0  0  0  0  0  0  0  0  0  0
   -6.9010   21.6340  -31.9710 C   0  0  0  0  0  0  0  0  0  0  0  0
   -5.1900   18.9480  -32.3280 C   0  0  0  0  0  0  0  0  0  0  0  0
   -1.2910   19.9220  -31.1030 N   0  0  0  0  0  0  0  0  0  0  0  0
   -0.9570   21.0530  -30.4450 C   0  0  0  0  0  0  0  0  0  0  0  0
    0.1790   21.1860  -29.8310 N   0  0  0  0  0  0  0  0  0  0  0  0
   -1.8240   22.1490  -30.3920 C   0  0  0  0  0  0  0  0  0  0  0  0
   -1.4720   23.2910  -29.7190 C   0  0  0  0  0  0  0  0  0  0  0  0
   -2.3360   24.3980  -29.6590 C   0  0  0  0  0  0  0  0  0  0  0  0
   -1.9090   25.4810  -28.9760 O   0  0  0  0  0  0  0  0  0  0  0  0
   -1.5130   25.6910  -27.6810 C   0  0  0  0  0  0  0  0  0  0  0  0
   -2.5130   24.9350  -26.7880 C   0  0  0  0  0  0  0  0  0  0  0  0
   -0.1660   25.0640  -27.3460 C   0  0  0  0  0  0  0  0  0  0  0  0
   -5.5726   25.1126  -28.5929 H   0  0  0  0  0  0  0  0  0  0  0  0
   -6.3736   25.9038  -29.9926 H   0  0  0  0  0  0  0  0  0  0  0  0
   -6.1152   24.1262  -29.9926 H   0  0  0  0  0  0  0  0  0  0  0  0
   -4.8665   23.0276  -31.4964 H   0  0  0  0  0  0  0  0  0  0  0  0
   -4.2380   20.8350  -32.1480 H   0  0  0  0  0  0  0  0  0  0  0  0
   -3.2129   17.9723  -34.8854 H   0  0  0  0  0  0  0  0  0  0  0  0
   -5.4161   17.8080  -36.0177 H   0  0  0  0  0  0  0  0  0  0  0  0
   -7.4495   18.3931  -34.7302 H   0  0  0  0  0  0  0  0  0  0  0  0
   -9.8707   20.5587  -31.2092 H   0  0  0  0  0  0  0  0  0  0  0  0
   -9.0905   21.7609  -30.0520 H   0  0  0  0  0  0  0  0  0  0  0  0
   -9.8880   22.0759  -32.9002 H   0  0  0  0  0  0  0  0  0  0  0  0
  -10.2064   23.0994  -31.4023 H   0  0  0  0  0  0  0  0  0  0  0  0
   -6.4916   23.7678  -31.8913 H   0  0  0  0  0  0  0  0  0  0  0  0
   -7.4263   23.1780  -30.5096 H   0  0  0  0  0  0  0  0  0  0  0  0
   -6.9711   21.4945  -33.0599 H   0  0  0  0  0  0  0  0  0  0  0  0
   -5.8660   21.4083  -31.6748 H   0  0  0  0  0  0  0  0  0  0  0  0
   -5.1287   19.2714  -31.2784 H   0  0  0  0  0  0  0  0  0  0  0  0
   -0.5890   19.1480  -31.0970 H   0  0  0  0  0  0  0  0  0  0  0  0
    0.8860   20.4340  -29.8130 H   0  0  0  0  0  0  0  0  0  0  0  0
   -0.4948   23.3415  -29.2165 H   0  0  0  0  0  0  0  0  0  0  0  0
   -1.4571   26.7794  -27.5317 H   0  0  0  0  0  0  0  0  0  0  0  0
   -2.2712   25.1178  -25.7306 H   0  0  0  0  0  0  0  0  0  0  0  0
   -3.5329   25.2899  -26.9976 H   0  0  0  0  0  0  0  0  0  0  0  0
   -2.4496   23.8570  -26.9976 H   0  0  0  0  0  0  0  0  0  0  0  0
   -0.0485   25.0093  -26.2537 H   0  0  0  0  0  0  0  0  0  0  0  0
   -0.1173   24.0507  -27.7712 H   0  0  0  0  0  0  0  0  0  0  0  0
    0.6407   25.6792  -27.7712 H   0  0  0  0  0  0  0  0  0  0  0  0
  1  2  1  0
  2  3  1  0
  3  4  2  0
  4  5  1  0
  5  6  1  0
  6  7  1  0
  7  8  2  0
  8  9  1  0
  9 10  2  0
 10 11  1  0
 11 12  2  0
 12 13  1  0
 13 14  1  0
 14 15  2  0
 14 16  2  0
 14 17  1  0
 17 18  1  0
 18 19  1  0
 19 20  1  0
 20 21  1  0
 21 22  1  0
 13 23  2  0
  7 24  1  0
 24 25  1  0
 25 26  2  3
 25 27  1  0
 27 28  1  0
 28 29  2  0
 29 30  1  0
 30 31  1  0
 31 32  1  0
 31 33  1  0
 29  3  1  0
 27  5  2  0
 23  9  1  0
 22 17  1  0
  1 34  1  0
  1 35  1  0
  1 36  1  0
  4 37  1  0
  6 38  1  0
 10 39  1  0
 11 40  1  0
 12 41  1  0
 18 42  1  0
 18 43  1  0
 19 44  1  0
 19 45  1  0
 21 46  1  0
 21 47  1  0
 22 48  1  0
 22 49  1  0
 23 50  1  0
 24 51  1  0
 26 52  1  0
 28 53  1  0
 31 54  1  0
 32 55  1  0
 32 56  1  0
 32 57  1  0
 33 58  1  0
 33 59  1  0
 33 60  1  0
M  END
>  <smiles>  (39) 
COc1cc2[nH]c(=Nc3cccc(S(=O)(=O)N4CCOCC4)c3)[nH]c(=N)c2cc1OC(C)C

>  <score_type>  (39) 
oracle

>  <origin>  (39) 
adgpu

>  <m_score__min__energy>  (39) 
-9.8200000000000003

>  <m_primary>  (39) 
energy

$$$$
39:0
     RDKit          3D

 43 45  0  0  0  0  0  0  0  0999 V2000
   -3.6780   20.5580  -32.0150 O   0  0  0  0  0  0  0  0  0  0  0  0
   -2.6090   21.3840  -31.3440 S   0  0  0  0  0  0  0  0  0  0  0  0
   -1.3630   21.3290  -32.1930 O   0  0  0  0  0  0  0  0  0  0  0  0
   -3.1510   23.0320  -31.2260 N   0  0  0  0  0  0  0  0  0  0  0  0
   -4.5260   23.4120  -31.0440 C   0  0  0  0  0  0  0  0  0  0  0  0
   -5.5670   22.4880  -31.2380 C   0  0  0  0  0  0  0  0  0  0  0  0
   -6.9000   22.8680  -31.0380 C   0  0  0  0  0  0  0  0  0  0  0  0
   -8.1740   21.6750  -31.2520 S   0  0  0  0  0  0  0  0  0  0  0  0
   -9.0080   21.5870  -30.0080 O   0  0  0  0  0  0  0  0  0  0  0  0
   -9.0460   22.1020  -32.3920 O   0  0  0  0  0  0  0  0  0  0  0  0
   -7.4730   20.1150  -31.6000 N   0  0  0  0  0  0  0  0  0  0  0  0
   -8.4570   19.0430  -31.3430 C   0  0  0  0  0  0  0  0  0  0  0  0
   -8.2380   17.8200  -32.2560 C   0  0  0  0  0  0  0  0  0  0  0  0
   -6.8630   17.6420  -32.5200 O   0  0  0  0  0  0  0  0  0  0  0  0
   -6.3300   18.7290  -33.2800 C   0  0  0  0  0  0  0  0  0  0  0  0
   -7.0020   20.0880  -32.9910 C   0  0  0  0  0  0  0  0  0  0  0  0
   -7.2050   24.1840  -30.6520 C   0  0  0  0  0  0  0  0  0  0  0  0
   -6.1820   25.1130  -30.4760 C   0  0  0  0  0  0  0  0  0  0  0  0
   -4.8480   24.7350  -30.6720 C   0  0  0  0  0  0  0  0  0  0  0  0
   -3.8460   25.6800  -30.4870 O   0  0  0  0  0  0  0  0  0  0  0  0
   -2.2290   20.7490  -29.7410 C   0  0  0  0  0  0  0  0  0  0  0  0
   -1.0650   19.9840  -29.5470 C   0  0  0  0  0  0  0  0  0  0  0  0
   -0.7680   19.4520  -28.2860 C   0  0  0  0  0  0  0  0  0  0  0  0
   -1.6260   19.6990  -27.2100 C   0  0  0  0  0  0  0  0  0  0  0  0
   -2.7850   20.4640  -27.3970 C   0  0  0  0  0  0  0  0  0  0  0  0
   -3.0870   20.9890  -28.6570 C   0  0  0  0  0  0  0  0  0  0  0  0
   -2.4150   23.7700  -31.1860 H   0  0  0  0  0  0  0  0  0  0  0  0
   -5.3332   21.4592  -31.5491 H   0  0  0  0  0  0  0  0  0  0  0  0
   -8.3665   18.7230  -30.2945 H   0  0  0  0  0  0  0  0  0  0  0  0
   -9.4585   19.4464  -31.5535 H   0  0  0  0  0  0  0  0  0  0  0  0
   -8.6306   16.9212  -31.7580 H   0  0  0  0  0  0  0  0  0  0  0  0
   -8.7650   17.9863  -33.2071 H   0  0  0  0  0  0  0  0  0  0  0  0
   -5.2578   18.8180  -33.0509 H   0  0  0  0  0  0  0  0  0  0  0  0
   -6.5201   18.4995  -34.3389 H   0  0  0  0  0  0  0  0  0  0  0  0
   -6.2741   20.8977  -33.1475 H   0  0  0  0  0  0  0  0  0  0  0  0
   -7.8561   20.2267  -33.6702 H   0  0  0  0  0  0  0  0  0  0  0  0
   -8.2516   24.4808  -30.4888 H   0  0  0  0  0  0  0  0  0  0  0  0
   -6.4226   26.1455  -30.1825 H   0  0  0  0  0  0  0  0  0  0  0  0
   -0.3835   19.8023  -30.3911 H   0  0  0  0  0  0  0  0  0  0  0  0
    0.1364   18.8425  -28.1427 H   0  0  0  0  0  0  0  0  0  0  0  0
   -1.3909   19.2922  -26.2154 H   0  0  0  0  0  0  0  0  0  0  0  0
   -3.4599   20.6522  -26.5490 H   0  0  0  0  0  0  0  0  0  0  0  0
   -3.9972   21.5902  -28.7986 H   0  0  0  0  0  0  0  0  0  0  0  0
  1  2  2  0
  2  3  2  0
  2  4  1  0
  4  5  1  0
  5  6  2  0
  6  7  1  0
  7  8  1  0
  8  9  2  0
  8 10  2  0
  8 11  1  0
 11 12  1  0
 12 13  1  0
 13 14  1  0
 14 15  1  0
 15 16  1  0
  7 17  2  0
 17 18  1  0
 18 19  2  0
 19 20  1  0
  2 21  1  0
 21 22  2  0
 22 23  1  0
 23 24  2  0
 24 25  1  0
 25 26  2  0
 19  5  1  0
 26 21  1  0
 16 11  1  0
  4 27  1  0
  6 28  1  0
 12 29  1  0
 12 30  1  0
 13 31  1  0
 13 32  1  0
 15 33  1  0
 15 34  1  0
 16 35  1  0
 16 36  1  0
 17 37  1  0
 18 38  1  0
 22 39  1  0
 23 40  1  0
 24 41  1  0
 25 42  1  0
 26 43  1  0
M  CHG  1  20  -1
M  END
>  <UniqueID>  (40) 
39

>  <SMILES>  (40) 
O=S(=O)(Nc1cc(S(=O)(=O)N2CCOCC2)ccc1[O-])c1ccccc1

>  <Energy>  (40) 
53.24877771272566

>  <Genealogy>  (40) 
O=S(=O)(Nc1cc(S(=O)(=O)N2CCOCC2)ccc1[O-])c1ccccc1 (protonated)
O=S(=O)(Nc1cc(S(=O)(=O)N2CCOCC2)ccc1[O-])c1ccccc1 (3D coordinates assigned)
O=S(=O)(Nc1cc(S(=O)(=O)N2CCOCC2)ccc1[O-])c1ccccc1 (nonaromatic ring conformer: 53.24877771272566 kcal/mol)

>  <smiles>  (40) 
O=S(=O)(Nc1cc(S(=O)(=O)N2CCOCC2)ccc1O)c1ccccc1

>  <score_type>  (40) 
oracle

>  <origin>  (40) 
adgpu

>  <m_score__min__energy>  (40) 
-12.130000000000001

>  <m_primary>  (40) 
energy

$$$$
40:0
     RDKit          3D

 57 60  0  0  1  0  0  0  0  0999 V2000
   -4.0360   24.5240  -26.9970 C   0  0  0  0  0  0  0  0  0  0  0  0
   -4.2290   23.3620  -27.7460 O   0  0  0  0  0  0  0  0  0  0  0  0
   -3.4310   22.9210  -28.7870 C   0  0  0  0  0  0  0  0  0  0  0  0
   -2.2880   22.2230  -28.4450 C   0  0  0  0  0  0  0  0  0  0  0  0
   -1.4390   21.7520  -29.4240 C   0  0  0  0  0  0  0  0  0  0  0  0
   -1.7770   22.0060  -30.7340 C   0  0  0  0  0  0  0  0  0  0  0  0
   -0.9310   21.5400  -31.7900 N   0  0  0  0  0  0  0  0  0  0  0  0
   -1.3550   20.6660  -32.6170 C   0  0  0  0  0  0  0  0  0  0  0  0
   -2.6070   20.1300  -32.5550 N   0  0  0  0  0  0  0  0  0  0  0  0
   -3.0350   19.2130  -33.4330 C   0  0  0  0  0  0  0  0  0  0  0  0
   -4.3670   18.6190  -33.3920 C   0  0  0  0  0  0  0  0  0  0  0  0
   -5.1430   18.6880  -32.2470 C   0  0  0  0  0  0  0  0  0  0  0  0
   -6.3820   18.1030  -32.3010 C   0  0  0  0  0  0  0  0  0  0  0  0
   -6.8770   17.4640  -33.4220 C   0  0  0  0  0  0  0  0  0  0  0  0
   -6.0390   17.4350  -34.5400 C   0  0  0  0  0  0  0  0  0  0  0  0
   -4.8210   18.0070  -34.4920 N   0  0  0  0  0  0  0  0  0  0  0  0
   -2.1890   18.8160  -34.4040 N   0  0  0  0  0  0  0  0  0  0  0  0
   -0.9390   19.2980  -34.5320 C   0  0  0  0  0  0  0  0  0  0  0  0
   -0.4970   20.2560  -33.6130 C   0  0  0  0  0  0  0  0  0  0  0  0
    0.7810   20.7970  -33.6860 O   0  0  0  0  0  0  0  0  0  0  0  0
    1.8720   19.9170  -33.7610 C   0  0  0  0  0  0  0  0  0  0  0  0
   -2.9190   22.7030  -31.0650 C   0  0  0  0  0  0  0  0  0  0  0  0
   -3.7970   23.1910  -30.0840 C   0  0  0  0  0  0  0  0  0  0  0  0
   -5.2170   24.0360  -30.5700 S   0  0  0  0  0  0  0  0  0  0  0  0
   -4.8040   25.3540  -31.2160 O   0  0  0  0  0  0  0  0  0  0  0  0
   -6.0130   24.4760  -29.3390 O   0  0  0  0  0  0  0  0  0  0  0  0
   -6.2210   23.2480  -31.6840 N   0  0  0  0  0  0  0  0  0  0  0  0
   -5.8920   21.9190  -32.0510 C   0  0  0  0  0  0  0  0  0  0  0  0
   -7.1360   21.3030  -32.7090 C   0  0  0  0  0  0  0  0  0  0  0  0
   -8.2090   21.0150  -31.6820 C   0  0  0  0  0  0  0  0  0  0  0  0
   -8.1240   22.1090  -30.6410 C   0  0  0  0  0  0  0  0  0  0  0  0
   -7.5950   23.3790  -31.2770 C   0  0  0  0  0  0  0  0  0  0  0  0
   -4.0765   24.2803  -25.9251 H   0  0  0  0  0  0  0  0  0  0  0  0
   -3.0537   24.9566  -27.2378 H   0  0  0  0  0  0  0  0  0  0  0  0
   -4.8257   25.2509  -27.2378 H   0  0  0  0  0  0  0  0  0  0  0  0
   -2.0543   22.0422  -27.3854 H   0  0  0  0  0  0  0  0  0  0  0  0
   -0.5261   21.1943  -29.1679 H   0  0  0  0  0  0  0  0  0  0  0  0
   -4.7822   19.1888  -31.3365 H   0  0  0  0  0  0  0  0  0  0  0  0
   -7.0164   18.1446  -31.4033 H   0  0  0  0  0  0  0  0  0  0  0  0
   -7.8759   17.0035  -33.4336 H   0  0  0  0  0  0  0  0  0  0  0  0
   -6.3762   16.9424  -35.4639 H   0  0  0  0  0  0  0  0  0  0  0  0
   -2.4770   18.0980  -35.1190 H   0  0  0  0  0  0  0  0  0  0  0  0
   -0.2803   18.9471  -35.3401 H   0  0  0  0  0  0  0  0  0  0  0  0
    2.2001   19.6523  -32.7450 H   0  0  0  0  0  0  0  0  0  0  0  0
    1.5715   19.0054  -34.2984 H   0  0  0  0  0  0  0  0  0  0  0  0
    2.6993   20.4036  -34.2984 H   0  0  0  0  0  0  0  0  0  0  0  0
   -3.1487   22.8817  -32.1258 H   0  0  0  0  0  0  0  0  0  0  0  0
   -5.0529   21.9221  -32.7623 H   0  0  0  0  0  0  0  0  0  0  0  0
   -5.5902   21.3357  -31.1686 H   0  0  0  0  0  0  0  0  0  0  0  0
   -7.5330   22.0064  -33.4558 H   0  0  0  0  0  0  0  0  0  0  0  0
   -6.8458   20.3554  -33.1864 H   0  0  0  0  0  0  0  0  0  0  0  0
   -9.2005   21.0220  -32.1583 H   0  0  0  0  0  0  0  0  0  0  0  0
   -8.0627   20.0247  -31.2260 H   0  0  0  0  0  0  0  0  0  0  0  0
   -9.1251   22.2974  -30.2259 H   0  0  0  0  0  0  0  0  0  0  0  0
   -7.4438   21.7939  -29.8360 H   0  0  0  0  0  0  0  0  0  0  0  0
   -8.2060   23.6143  -32.1609 H   0  0  0  0  0  0  0  0  0  0  0  0
   -7.6516   24.1824  -30.5278 H   0  0  0  0  0  0  0  0  0  0  0  0
  1  2  1  0
  2  3  1  0
  3  4  2  0
  4  5  1  0
  5  6  2  0
  6  7  1  0
  7  8  2  0
  8  9  1  0
  9 10  2  0
 10 11  1  0
 11 12  2  0
 12 13  1  0
 13 14  2  0
 14 15  1  0
 15 16  2  0
 10 17  1  0
 17 18  1  0
 18 19  2  0
 19 20  1  0
 20 21  1  0
  6 22  1  0
 22 23  2  0
 23 24  1  0
 24 25  2  0
 24 26  2  0
 24 27  1  0
 27 28  1  0
 28 29  1  0
 29 30  1  0
 30 31  1  0
 31 32  1  0
 23  3  1  0
 32 27  1  0
 19  8  1  0
 16 11  1  0
  1 33  1  0
  1 34  1  0
  1 35  1  0
  4 36  1  0
  5 37  1  0
 12 38  1  0
 13 39  1  0
 14 40  1  0
 15 41  1  0
 17 42  1  0
 18 43  1  0
 21 44  1  0
 21 45  1  0
 21 46  1  0
 22 47  1  0
 28 48  1  0
 28 49  1  0
 29 50  1  0
 29 51  1  0
 30 52  1  0
 30 53  1  0
 31 54  1  0
 31 55  1  0
 32 56  1  0
 32 57  1  0
M  END
>  <smiles>  (41) 
COc1ccc(N=c2nc(-c3ccccn3)[nH]cc2OC)cc1S(=O)(=O)N1CCCCC1

>  <score_type>  (41) 
oracle

>  <origin>  (41) 
adgpu

>  <m_score__min__energy>  (41) 
-9.6300000000000008

>  <m_primary>  (41) 
energy

$$$$
41:0
     RDKit          3D

 54 57  0  0  0  0  0  0  0  0999 V2000
    1.6810   25.0830  -24.8330 C   0  0  0  0  0  0  0  0  0  0  0  0
    0.7700   25.9480  -24.0890 N   0  0  0  0  0  0  0  0  0  0  0  0
    0.3270   27.2090  -24.6200 C   0  0  0  0  0  0  0  0  0  0  0  0
    0.7060   28.3630  -24.0000 N   0  0  0  0  0  0  0  0  0  0  0  0
    0.3710   29.5900  -24.4770 C   0  0  0  0  0  0  0  0  0  0  0  0
   -0.3770   29.7030  -25.6470 C   0  0  0  0  0  0  0  0  0  0  0  0
   -0.7870   28.5460  -26.3080 C   0  0  0  0  0  0  0  0  0  0  0  0
   -0.4540   27.2810  -25.7990 C   0  0  0  0  0  0  0  0  0  0  0  0
   -0.9530   26.0750  -26.4950 C   0  0  0  0  0  0  0  0  0  0  0  0
   -0.2740   25.5750  -27.6170 C   0  0  0  0  0  0  0  0  0  0  0  0
   -0.7550   24.4480  -28.2890 C   0  0  0  0  0  0  0  0  0  0  0  0
   -1.9300   23.8130  -27.8570 C   0  0  0  0  0  0  0  0  0  0  0  0
   -2.4180   22.6400  -28.5310 N   0  0  0  0  0  0  0  0  0  0  0  0
   -2.6990   21.4380  -27.7290 C   0  0  0  0  0  0  0  0  0  0  0  0
   -1.5260   20.4910  -27.7620 C   0  0  0  0  0  0  0  0  0  0  0  0
   -0.2620   20.9540  -28.1680 C   0  0  0  0  0  0  0  0  0  0  0  0
    0.8250   20.0740  -28.2280 C   0  0  0  0  0  0  0  0  0  0  0  0
    0.6570   18.7300  -27.8810 C   0  0  0  0  0  0  0  0  0  0  0  0
   -0.5970   18.2640  -27.4690 C   0  0  0  0  0  0  0  0  0  0  0  0
   -1.6850   19.1410  -27.4050 C   0  0  0  0  0  0  0  0  0  0  0  0
   -2.5080   22.6280  -29.9760 C   0  0  0  0  0  0  0  0  0  0  0  0
   -1.4840   22.3720  -30.6710 O   0  0  0  0  0  0  0  0  0  0  0  0
   -3.7750   22.9100  -30.6800 C   0  0  0  0  0  0  0  0  0  0  0  0
   -4.5460   21.8530  -31.1900 C   0  0  0  0  0  0  0  0  0  0  0  0
   -5.7470   22.1140  -31.8580 C   0  0  0  0  0  0  0  0  0  0  0  0
   -6.1960   23.4320  -32.0120 C   0  0  0  0  0  0  0  0  0  0  0  0
   -7.3900   23.7050  -32.6760 O   0  0  0  0  0  0  0  0  0  0  0  0
   -5.4400   24.4880  -31.4890 C   0  0  0  0  0  0  0  0  0  0  0  0
   -4.2360   24.2330  -30.8220 C   0  0  0  0  0  0  0  0  0  0  0  0
   -3.4930   25.2990  -30.3190 O   0  0  0  0  0  0  0  0  0  0  0  0
   -2.6120   24.3150  -26.7390 C   0  0  0  0  0  0  0  0  0  0  0  0
   -2.1320   25.4420  -26.0670 C   0  0  0  0  0  0  0  0  0  0  0  0
    2.2930   24.5019  -24.1275 H   0  0  0  0  0  0  0  0  0  0  0  0
    1.0997   24.3964  -25.4660 H   0  0  0  0  0  0  0  0  0  0  0  0
    2.3366   25.6990  -25.4660 H   0  0  0  0  0  0  0  0  0  0  0  0
    0.4190   25.6040  -23.1680 H   0  0  0  0  0  0  0  0  0  0  0  0
    0.6905   30.4949  -23.9392 H   0  0  0  0  0  0  0  0  0  0  0  0
   -0.6411   30.6940  -26.0447 H   0  0  0  0  0  0  0  0  0  0  0  0
   -1.3751   28.6250  -27.2342 H   0  0  0  0  0  0  0  0  0  0  0  0
    0.6415   26.0728  -27.9692 H   0  0  0  0  0  0  0  0  0  0  0  0
   -0.2102   24.0566  -29.1608 H   0  0  0  0  0  0  0  0  0  0  0  0
   -2.8941   21.7355  -26.6881 H   0  0  0  0  0  0  0  0  0  0  0  0
   -3.5779   20.9283  -28.1505 H   0  0  0  0  0  0  0  0  0  0  0  0
   -0.1268   22.0114  -28.4394 H   0  0  0  0  0  0  0  0  0  0  0  0
    1.8117   20.4400  -28.5482 H   0  0  0  0  0  0  0  0  0  0  0  0
    1.5108   18.0384  -27.9318 H   0  0  0  0  0  0  0  0  0  0  0  0
   -0.7271   17.2066  -27.1951 H   0  0  0  0  0  0  0  0  0  0  0  0
   -2.6675   18.7730  -27.0744 H   0  0  0  0  0  0  0  0  0  0  0  0
   -4.2040   20.8152  -31.0637 H   0  0  0  0  0  0  0  0  0  0  0  0
   -6.3408   21.2816  -32.2637 H   0  0  0  0  0  0  0  0  0  0  0  0
   -7.4320   23.7590  -33.6880 H   0  0  0  0  0  0  0  0  0  0  0  0
   -5.7939   25.5233  -31.6028 H   0  0  0  0  0  0  0  0  0  0  0  0
   -3.5295   23.8189  -26.3894 H   0  0  0  0  0  0  0  0  0  0  0  0
   -2.6800   25.8357  -25.1983 H   0  0  0  0  0  0  0  0  0  0  0  0
  1  2  1  0
  2  3  1  0
  3  4  2  0
  4  5  1  0
  5  6  2  0
  6  7  1  0
  7  8  2  0
  8  9  1  0
  9 10  2  0
 10 11  1  0
 11 12  2  0
 12 13  1  0
 13 14  1  0
 14 15  1  0
 15 16  2  0
 16 17  1  0
 17 18  2  0
 18 19  1  0
 19 20  2  0
 13 21  1  0
 21 22  2  0
 21 23  1  0
 23 24  2  0
 24 25  1  0
 25 26  2  0
 26 27  1  0
 26 28  1  0
 28 29  2  0
 29 30  1  0
 12 31  1  0
 31 32  2  0
  8  3  1  0
 32  9  1  0
 20 15  1  0
 29 23  1  0
  1 33  1  0
  1 34  1  0
  1 35  1  0
  2 36  1  0
  5 37  1  0
  6 38  1  0
  7 39  1  0
 10 40  1  0
 11 41  1  0
 14 42  1  0
 14 43  1  0
 16 44  1  0
 17 45  1  0
 18 46  1  0
 19 47  1  0
 20 48  1  0
 24 49  1  0
 25 50  1  0
 27 51  1  0
 28 52  1  0
 31 53  1  0
 32 54  1  0
M  CHG  1  30  -1
M  END
>  <UniqueID>  (42) 
40

>  <SMILES>  (42) 
CNc1ncccc1-c1ccc(N(Cc2ccccc2)C(=O)c2ccc(O)cc2[O-])cc1

>  <Energy>  (42) 
74.90997070462079

>  <Genealogy>  (42) 
CNc1ncccc1-c1ccc(N(Cc2ccccc2)C(=O)c2ccc(O)cc2[O-])cc1 (protonated)
CNc1ncccc1-c1ccc(N(Cc2ccccc2)C(=O)c2ccc(O)cc2[O-])cc1 (3D coordinates assigned)
CNc1ncccc1-c1ccc(N(Cc2ccccc2)C(=O)c2ccc(O)cc2[O-])cc1 (optimized conformer: 74.90997070462079 kcal/mol)

>  <smiles>  (42) 
CNc1ncccc1-c1ccc(N(Cc2ccccc2)C(=O)c2ccc(O)cc2O)cc1

>  <score_type>  (42) 
oracle

>  <origin>  (42) 
adgpu

>  <m_score__min__energy>  (42) 
-12.050000000000001

>  <m_primary>  (42) 
energy

$$$$
42:0
     RDKit          3D

 54 56  0  0  0  0  0  0  0  0999 V2000
    1.2340   21.9720  -36.1010 C   0  0  0  0  0  0  0  0  0  0  0  0
    0.6490   22.1530  -34.7780 N   0  0  0  0  0  0  0  0  0  0  0  0
    0.1910   20.6110  -34.1160 S   0  0  0  0  0  0  0  0  0  0  0  0
    1.3960   19.7130  -34.0950 O   0  0  0  0  0  0  0  0  0  0  0  0
   -0.8650   19.9880  -34.9880 O   0  0  0  0  0  0  0  0  0  0  0  0
   -0.4120   20.7920  -32.4700 C   0  0  0  0  0  0  0  0  0  0  0  0
   -0.0140   19.8970  -31.4720 C   0  0  0  0  0  0  0  0  0  0  0  0
   -0.4550   20.0640  -30.1580 C   0  0  0  0  0  0  0  0  0  0  0  0
   -1.3080   21.1240  -29.8260 C   0  0  0  0  0  0  0  0  0  0  0  0
   -1.7490   21.2730  -28.4640 N   0  0  0  0  0  0  0  0  0  0  0  0
   -2.6830   20.3030  -27.8810 C   0  0  0  0  0  0  0  0  0  0  0  0
   -1.3020   22.4290  -27.6820 C   0  0  0  0  0  0  0  0  0  0  0  0
   -1.7250   22.0250  -30.8290 C   0  0  0  0  0  0  0  0  0  0  0  0
   -2.5590   23.1500  -30.4920 N   0  0  0  0  0  0  0  0  0  0  0  0
   -3.9330   23.2830  -30.9040 C   0  0  0  0  0  0  0  0  0  0  0  0
   -4.6760   22.1600  -31.3170 C   0  0  0  0  0  0  0  0  0  0  0  0
   -6.0130   22.2990  -31.7220 C   0  0  0  0  0  0  0  0  0  0  0  0
   -6.9240   20.8940  -32.2810 S   0  0  0  0  0  0  0  0  0  0  0  0
   -6.9970   19.8410  -31.1990 O   0  0  0  0  0  0  0  0  0  0  0  0
   -8.3260   21.3310  -32.6260 O   0  0  0  0  0  0  0  0  0  0  0  0
   -6.1920   20.2020  -33.6970 N   0  0  0  0  0  0  0  0  0  0  0  0
   -5.8430   18.8200  -33.8780 C   0  0  0  0  0  0  0  0  0  0  0  0
   -4.6010   18.4280  -34.4140 C   0  0  0  0  0  0  0  0  0  0  0  0
   -4.3110   17.0740  -34.6030 C   0  0  0  0  0  0  0  0  0  0  0  0
   -5.2420   16.0960  -34.2320 C   0  0  0  0  0  0  0  0  0  0  0  0
   -6.4670   16.4740  -33.6780 C   0  0  0  0  0  0  0  0  0  0  0  0
   -6.7750   17.8310  -33.5070 C   0  0  0  0  0  0  0  0  0  0  0  0
   -8.0030   18.2060  -32.9590 O   0  0  0  0  0  0  0  0  0  0  0  0
   -6.6210   23.5590  -31.6860 C   0  0  0  0  0  0  0  0  0  0  0  0
   -5.9020   24.6720  -31.2450 C   0  0  0  0  0  0  0  0  0  0  0  0
   -4.5640   24.5390  -30.8540 C   0  0  0  0  0  0  0  0  0  0  0  0
   -3.8650   25.6620  -30.4240 O   0  0  0  0  0  0  0  0  0  0  0  0
   -1.2520   21.8610  -32.1430 C   0  0  0  0  0  0  0  0  0  0  0  0
    2.2802   21.6483  -35.9981 H   0  0  0  0  0  0  0  0  0  0  0  0
    0.6661   21.2076  -36.6516 H   0  0  0  0  0  0  0  0  0  0  0  0
    1.1971   22.9236  -36.6516 H   0  0  0  0  0  0  0  0  0  0  0  0
    0.6501   19.0569  -31.7236 H   0  0  0  0  0  0  0  0  0  0  0  0
   -0.1305   19.3587  -29.3787 H   0  0  0  0  0  0  0  0  0  0  0  0
   -2.6306   20.3574  -26.7836 H   0  0  0  0  0  0  0  0  0  0  0  0
   -3.7063   20.5352  -28.2112 H   0  0  0  0  0  0  0  0  0  0  0  0
   -2.4123   19.2892  -28.2112 H   0  0  0  0  0  0  0  0  0  0  0  0
   -1.3897   22.2021  -26.6092 H   0  0  0  0  0  0  0  0  0  0  0  0
   -0.2527   22.6524  -27.9249 H   0  0  0  0  0  0  0  0  0  0  0  0
   -1.9281   23.3002  -27.9249 H   0  0  0  0  0  0  0  0  0  0  0  0
   -2.1390   23.9140  -29.9140 H   0  0  0  0  0  0  0  0  0  0  0  0
   -4.2049   21.1660  -31.3223 H   0  0  0  0  0  0  0  0  0  0  0  0
   -3.8561   19.1907  -34.6850 H   0  0  0  0  0  0  0  0  0  0  0  0
   -3.3487   16.7757  -35.0445 H   0  0  0  0  0  0  0  0  0  0  0  0
   -5.0087   15.0308  -34.3768 H   0  0  0  0  0  0  0  0  0  0  0  0
   -7.1924   15.7047  -33.3749 H   0  0  0  0  0  0  0  0  0  0  0  0
   -8.2560   19.1790  -32.8460 H   0  0  0  0  0  0  0  0  0  0  0  0
   -7.6673   23.6729  -32.0057 H   0  0  0  0  0  0  0  0  0  0  0  0
   -6.3889   25.6576  -31.2046 H   0  0  0  0  0  0  0  0  0  0  0  0
   -1.5457   22.5807  -32.9213 H   0  0  0  0  0  0  0  0  0  0  0  0
  1  2  1  0
  2  3  1  0
  3  4  2  0
  3  5  2  0
  3  6  1  0
  6  7  2  0
  7  8  1  0
  8  9  2  0
  9 10  1  0
 10 11  1  0
 10 12  1  0
  9 13  1  0
 13 14  1  0
 14 15  1  0
 15 16  2  0
 16 17  1  0
 17 18  1  0
 18 19  2  0
 18 20  2  0
 18 21  1  0
 21 22  1  0
 22 23  2  0
 23 24  1  0
 24 25  2  0
 25 26  1  0
 26 27  2  0
 27 28  1  0
 17 29  2  0
 29 30  1  0
 30 31  2  0
 31 32  1  0
 13 33  2  0
 33  6  1  0
 31 15  1  0
 27 22  1  0
  1 34  1  0
  1 35  1  0
  1 36  1  0
  7 37  1  0
  8 38  1  0
 11 39  1  0
 11 40  1  0
 11 41  1  0
 12 42  1  0
 12 43  1  0
 12 44  1  0
 14 45  1  0
 16 46  1  0
 23 47  1  0
 24 48  1  0
 25 49  1  0
 26 50  1  0
 28 51  1  0
 29 52  1  0
 30 53  1  0
 33 54  1  0
M  CHG  3   2  -1  21  -1  32  -1
M  END
>  <UniqueID>  (43) 
41

>  <SMILES>  (43) 
C[N-]S(=O)(=O)c1ccc(N(C)C)c(Nc2cc(S(=O)(=O)[N-]c3ccccc3O)ccc2[O-])c1

>  <Energy>  (43) 
63.81770873571684

>  <Genealogy>  (43) 
C[N-]S(=O)(=O)c1ccc(N(C)C)c(Nc2cc(S(=O)(=O)[N-]c3ccccc3O)ccc2[O-])c1 (protonated)
C[N-]S(=O)(=O)c1ccc(N(C)C)c(Nc2cc(S(=O)(=O)[N-]c3ccccc3O)ccc2[O-])c1 (3D coordinates assigned)
C[N-]S(=O)(=O)c1ccc(N(C)C)c(Nc2cc(S(=O)(=O)[N-]c3ccccc3O)ccc2[O-])c1 (optimized conformer: 63.81770873571684 kcal/mol)

>  <smiles>  (43) 
CNS(=O)(=O)c1ccc(N(C)C)c(Nc2cc(S(=O)(=O)Nc3ccccc3O)ccc2O)c1

>  <score_type>  (43) 
oracle

>  <origin>  (43) 
adgpu

>  <m_score__min__energy>  (43) 
-11.640000000000001

>  <m_primary>  (43) 
energy

$$$$
43:0
     RDKit          3D

 43 44  0  0  0  0  0  0  0  0999 V2000
   -4.0030   19.4230  -33.4540 C   0  0  0  0  0  0  0  0  0  0  0  0
   -3.0220   20.5770  -33.6300 C   0  0  0  0  0  0  0  0  0  0  0  0
   -3.6660   21.8540  -33.3230 N   0  0  0  0  0  0  0  0  0  0  0  0
   -3.7750   22.3560  -31.9800 C   0  0  0  0  0  0  0  0  0  0  0  0
   -4.9700   22.9320  -31.5080 C   0  0  0  0  0  0  0  0  0  0  0  0
   -6.1280   22.9450  -32.2980 O   0  0  0  0  0  0  0  0  0  0  0  0
   -7.1690   22.0070  -32.2050 C   0  0  0  0  0  0  0  0  0  0  0  0
   -8.4880   22.3820  -31.8950 C   0  0  0  0  0  0  0  0  0  0  0  0
   -9.4950   21.4150  -31.8220 C   0  0  0  0  0  0  0  0  0  0  0  0
   -9.1960   20.0710  -32.0600 C   0  0  0  0  0  0  0  0  0  0  0  0
   -7.8830   19.6840  -32.3660 C   0  0  0  0  0  0  0  0  0  0  0  0
   -7.5690   18.2480  -32.6650 C   0  0  0  0  0  0  0  0  0  0  0  0
   -6.8780   20.6600  -32.4570 C   0  0  0  0  0  0  0  0  0  0  0  0
   -5.0110   23.5100  -30.2230 C   0  0  0  0  0  0  0  0  0  0  0  0
   -6.2870   24.1790  -29.7510 C   0  0  0  0  0  0  0  0  0  0  0  0
   -6.1320   25.6960  -29.7390 C   0  0  0  0  0  0  0  0  0  0  0  0
   -3.8440   23.4690  -29.4190 C   0  0  0  0  0  0  0  0  0  0  0  0
   -3.8190   24.0680  -28.0360 C   0  0  0  0  0  0  0  0  0  0  0  0
   -2.7260   22.8410  -29.8840 N   0  0  0  0  0  0  0  0  0  0  0  0
   -2.6650   22.2970  -31.1280 C   0  0  0  0  0  0  0  0  0  0  0  0
   -1.5960   21.7550  -31.5190 O   0  0  0  0  0  0  0  0  0  0  0  0
   -4.1614   19.2367  -32.3815 H   0  0  0  0  0  0  0  0  0  0  0  0
   -4.9620   19.6816  -33.9268 H   0  0  0  0  0  0  0  0  0  0  0  0
   -3.5934   18.5182  -33.9268 H   0  0  0  0  0  0  0  0  0  0  0  0
   -2.1677   20.4313  -32.9526 H   0  0  0  0  0  0  0  0  0  0  0  0
   -2.6810   20.5951  -34.6756 H   0  0  0  0  0  0  0  0  0  0  0  0
   -4.2490   22.2970  -34.0680 H   0  0  0  0  0  0  0  0  0  0  0  0
   -8.7284   23.4392  -31.7094 H   0  0  0  0  0  0  0  0  0  0  0  0
  -10.5251   21.7129  -31.5766 H   0  0  0  0  0  0  0  0  0  0  0  0
   -9.9926   19.3143  -32.0072 H   0  0  0  0  0  0  0  0  0  0  0  0
   -7.4481   17.6950  -31.7218 H   0  0  0  0  0  0  0  0  0  0  0  0
   -8.3917   17.8061  -33.2462 H   0  0  0  0  0  0  0  0  0  0  0  0
   -6.6369   18.1898  -33.2462 H   0  0  0  0  0  0  0  0  0  0  0  0
   -5.8537   20.3647  -32.7284 H   0  0  0  0  0  0  0  0  0  0  0  0
   -7.1091   23.9061  -30.4290 H   0  0  0  0  0  0  0  0  0  0  0  0
   -6.5049   23.8393  -28.7277 H   0  0  0  0  0  0  0  0  0  0  0  0
   -6.0956   26.0526  -28.6991 H   0  0  0  0  0  0  0  0  0  0  0  0
   -5.2008   25.9735  -30.2546 H   0  0  0  0  0  0  0  0  0  0  0  0
   -6.9878   26.1561  -30.2546 H   0  0  0  0  0  0  0  0  0  0  0  0
   -3.8526   23.2630  -27.2871 H   0  0  0  0  0  0  0  0  0  0  0  0
   -2.8957   24.6516  -27.9058 H   0  0  0  0  0  0  0  0  0  0  0  0
   -4.6904   24.7265  -27.9058 H   0  0  0  0  0  0  0  0  0  0  0  0
   -1.8750   22.7850  -29.2780 H   0  0  0  0  0  0  0  0  0  0  0  0
  1  2  1  0
  2  3  1  0
  3  4  1  0
  4  5  2  0
  5  6  1  0
  6  7  1  0
  7  8  2  0
  8  9  1  0
  9 10  2  0
 10 11  1  0
 11 12  1  0
 11 13  2  0
  5 14  1  0
 14 15  1  0
 15 16  1  0
 14 17  2  0
 17 18  1  0
 17 19  1  0
 19 20  1  0
 20 21  2  0
 20  4  1  0
 13  7  1  0
  1 22  1  0
  1 23  1  0
  1 24  1  0
  2 25  1  0
  2 26  1  0
  3 27  1  0
  8 28  1  0
  9 29  1  0
 10 30  1  0
 12 31  1  0
 12 32  1  0
 12 33  1  0
 13 34  1  0
 15 35  1  0
 15 36  1  0
 16 37  1  0
 16 38  1  0
 16 39  1  0
 18 40  1  0
 18 41  1  0
 18 42  1  0
 19 43  1  0
M  END
>  <UniqueID>  (44) 
42

>  <SMILES>  (44) 
CCNc1c(Oc2cccc(C)c2)c(CC)c(C)[nH]c1=O

>  <Energy>  (44) 
49.12881059277143

>  <Genealogy>  (44) 
CCNc1c(Oc2cccc(C)c2)c(CC)c(C)[nH]c1=O (3D coordinates assigned)
CCNc1c(Oc2cccc(C)c2)c(CC)c(C)[nH]c1=O (optimized conformer: 49.12881059277143 kcal/mol)

>  <smiles>  (44) 
CCNc1c(Oc2cccc(C)c2)c(CC)c(C)[nH]c1=O

>  <score_type>  (44) 
oracle

>  <origin>  (44) 
adgpu

>  <m_score__min__energy>  (44) 
-7.3899999999999997

>  <m_primary>  (44) 
energy

$$$$
44:0
     RDKit          3D

 47 49  0  0  0  0  0  0  0  0999 V2000
   -5.6530   26.0160  -30.9250 O   0  0  0  0  0  0  0  0  0  0  0  0
   -5.1000   24.7540  -30.3210 S   0  0  0  0  0  0  0  0  0  0  0  0
   -3.6940   24.5610  -30.8180 O   0  0  0  0  0  0  0  0  0  0  0  0
   -5.0860   24.8850  -28.5900 N   0  0  0  0  0  0  0  0  0  0  0  0
   -4.0420   24.0200  -28.0360 C   0  0  0  0  0  0  0  0  0  0  0  0
   -2.8710   24.8540  -27.6130 C   0  0  0  0  0  0  0  0  0  0  0  0
   -2.6640   25.1550  -26.2580 C   0  0  0  0  0  0  0  0  0  0  0  0
   -1.5460   25.9070  -25.8890 C   0  0  0  0  0  0  0  0  0  0  0  0
   -0.6470   26.3410  -26.8640 C   0  0  0  0  0  0  0  0  0  0  0  0
   -0.8790   26.0120  -28.2010 C   0  0  0  0  0  0  0  0  0  0  0  0
   -1.9720   25.2790  -28.5430 N   0  0  0  0  0  0  0  0  0  0  0  0
   -6.0700   23.3660  -30.8070 C   0  0  0  0  0  0  0  0  0  0  0  0
   -7.4380   23.5060  -31.0780 C   0  0  0  0  0  0  0  0  0  0  0  0
   -8.2000   22.3920  -31.4430 C   0  0  0  0  0  0  0  0  0  0  0  0
   -7.6010   21.1280  -31.5430 C   0  0  0  0  0  0  0  0  0  0  0  0
   -8.5580   19.7260  -32.0300 S   0  0  0  0  0  0  0  0  0  0  0  0
   -9.8100   20.1950  -32.7160 O   0  0  0  0  0  0  0  0  0  0  0  0
   -8.9600   18.9510  -30.8060 O   0  0  0  0  0  0  0  0  0  0  0  0
   -7.6580   18.6790  -33.1040 N   0  0  0  0  0  0  0  0  0  0  0  0
   -7.1730   17.4640  -32.4040 C   0  0  0  0  0  0  0  0  0  0  0  0
   -5.6770   17.5260  -32.0590 C   0  0  0  0  0  0  0  0  0  0  0  0
   -4.8230   17.7160  -33.3250 C   0  0  0  0  0  0  0  0  0  0  0  0
   -5.5510   18.5200  -34.4180 C   0  0  0  0  0  0  0  0  0  0  0  0
   -6.6080   19.4470  -33.8100 C   0  0  0  0  0  0  0  0  0  0  0  0
   -6.2350   20.9880  -31.2570 C   0  0  0  0  0  0  0  0  0  0  0  0
   -5.4740   22.1020  -30.8920 C   0  0  0  0  0  0  0  0  0  0  0  0
   -6.0130   24.5340  -28.2520 H   0  0  0  0  0  0  0  0  0  0  0  0
   -4.4394   23.4782  -27.1650 H   0  0  0  0  0  0  0  0  0  0  0  0
   -3.7198   23.2993  -28.8020 H   0  0  0  0  0  0  0  0  0  0  0  0
   -3.3740   24.8028  -25.4952 H   0  0  0  0  0  0  0  0  0  0  0  0
   -1.3746   26.1566  -24.8315 H   0  0  0  0  0  0  0  0  0  0  0  0
    0.2346   26.9356  -26.5825 H   0  0  0  0  0  0  0  0  0  0  0  0
   -0.1766   26.3463  -28.9787 H   0  0  0  0  0  0  0  0  0  0  0  0
   -7.9135   24.4951  -31.0033 H   0  0  0  0  0  0  0  0  0  0  0  0
   -9.2737   22.5075  -31.6526 H   0  0  0  0  0  0  0  0  0  0  0  0
   -7.7432   17.3461  -31.4708 H   0  0  0  0  0  0  0  0  0  0  0  0
   -7.3184   16.6123  -33.0848 H   0  0  0  0  0  0  0  0  0  0  0  0
   -5.5005   18.3706  -31.3767 H   0  0  0  0  0  0  0  0  0  0  0  0
   -5.3890   16.5771  -31.5829 H   0  0  0  0  0  0  0  0  0  0  0  0
   -3.9011   18.2497  -33.0507 H   0  0  0  0  0  0  0  0  0  0  0  0
   -4.6088   16.7176  -33.7341 H   0  0  0  0  0  0  0  0  0  0  0  0
   -4.8158   19.1257  -34.9681 H   0  0  0  0  0  0  0  0  0  0  0  0
   -6.0540   17.8134  -35.0945 H   0  0  0  0  0  0  0  0  0  0  0  0
   -6.1200   20.1263  -33.0956 H   0  0  0  0  0  0  0  0  0  0  0  0
   -7.0822   20.0131  -34.6253 H   0  0  0  0  0  0  0  0  0  0  0  0
   -5.7608   19.9975  -31.3202 H   0  0  0  0  0  0  0  0  0  0  0  0
   -4.4028   21.9852  -30.6707 H   0  0  0  0  0  0  0  0  0  0  0  0
  1  2  2  0
  2  3  2  0
  2  4  1  0
  4  5  1  0
  5  6  1  0
  6  7  2  0
  7  8  1  0
  8  9  2  0
  9 10  1  0
 10 11  2  0
  2 12  1  0
 12 13  2  0
 13 14  1  0
 14 15  2  0
 15 16  1  0
 16 17  2  0
 16 18  2  0
 16 19  1  0
 19 20  1  0
 20 21  1  0
 21 22  1  0
 22 23  1  0
 23 24  1  0
 15 25  1  0
 25 26  2  0
 11  6  1  0
 26 12  1  0
 24 19  1  0
  4 27  1  0
  5 28  1  0
  5 29  1  0
  7 30  1  0
  8 31  1  0
  9 32  1  0
 10 33  1  0
 13 34  1  0
 14 35  1  0
 20 36  1  0
 20 37  1  0
 21 38  1  0
 21 39  1  0
 22 40  1  0
 22 41  1  0
 23 42  1  0
 23 43  1  0
 24 44  1  0
 24 45  1  0
 25 46  1  0
 26 47  1  0
M  END
>  <UniqueID>  (45) 
43

>  <SMILES>  (45) 
O=S(=O)(NCc1ccccn1)c1ccc(S(=O)(=O)N2CCCCC2)cc1

>  <Energy>  (45) 
49.940356322463394

>  <Genealogy>  (45) 
O=S(=O)(NCc1ccccn1)c1ccc(S(=O)(=O)N2CCCCC2)cc1 (3D coordinates assigned)
O=S(=O)(NCc1ccccn1)c1ccc(S(=O)(=O)N2CCCCC2)cc1 (nonaromatic ring conformer: 49.940356322463394 kcal/mol)

>  <smiles>  (45) 
O=S(=O)(NCc1ccccn1)c1ccc(S(=O)(=O)N2CCCCC2)cc1

>  <score_type>  (45) 
oracle

>  <origin>  (45) 
adgpu

>  <m_score__min__energy>  (45) 
-10.73

>  <m_primary>  (45) 
energy

$$$$
45:0
     RDKit          3D

 48 51  0  0  0  0  0  0  0  0999 V2000
   -3.5390   18.4730  -34.5800 C   0  0  0  0  0  0  0  0  0  0  0  0
   -4.8880   18.1100  -34.0450 C   0  0  0  0  0  0  0  0  0  0  0  0
   -5.7240   19.0490  -33.5290 N   0  0  0  0  0  0  0  0  0  0  0  0
   -6.8830   18.5030  -33.0950 C   0  0  0  0  0  0  0  0  0  0  0  0
   -7.8630   19.1850  -32.5770 N   0  0  0  0  0  0  0  0  0  0  0  0
   -7.8460   20.5970  -32.3090 C   0  0  0  0  0  0  0  0  0  0  0  0
   -8.8390   21.2920  -32.6530 O   0  0  0  0  0  0  0  0  0  0  0  0
   -6.7150   21.2490  -31.6160 C   0  0  0  0  0  0  0  0  0  0  0  0
   -5.5690   20.5120  -31.2780 C   0  0  0  0  0  0  0  0  0  0  0  0
   -4.4680   21.1460  -30.6970 C   0  0  0  0  0  0  0  0  0  0  0  0
   -4.4980   22.5270  -30.4440 C   0  0  0  0  0  0  0  0  0  0  0  0
   -3.3270   23.2030  -29.9530 N   0  0  0  0  0  0  0  0  0  0  0  0
   -2.3070   22.6190  -29.2850 C   0  0  0  0  0  0  0  0  0  0  0  0
   -1.4040   23.5840  -28.8610 C   0  0  0  0  0  0  0  0  0  0  0  0
   -0.1870   23.3650  -28.0530 C   0  0  0  0  0  0  0  0  0  0  0  0
    0.8010   24.1310  -28.2070 O   0  0  0  0  0  0  0  0  0  0  0  0
   -0.0790   22.2730  -27.1310 N   0  0  0  0  0  0  0  0  0  0  0  0
    0.0350   20.8850  -27.4800 C   0  0  0  0  0  0  0  0  0  0  0  0
   -1.0190   20.0160  -27.1670 C   0  0  0  0  0  0  0  0  0  0  0  0
   -0.9330   18.6570  -27.4870 C   0  0  0  0  0  0  0  0  0  0  0  0
    0.2010   18.1610  -28.1380 C   0  0  0  0  0  0  0  0  0  0  0  0
    0.2870   16.8090  -28.4510 O   0  0  0  0  0  0  0  0  0  0  0  0
    1.2440   19.0260  -28.4790 C   0  0  0  0  0  0  0  0  0  0  0  0
    1.1600   20.3850  -28.1620 C   0  0  0  0  0  0  0  0  0  0  0  0
   -1.8900   24.7920  -29.3230 C   0  0  0  0  0  0  0  0  0  0  0  0
   -1.3140   26.0430  -29.1420 O   0  0  0  0  0  0  0  0  0  0  0  0
   -3.0690   24.5270  -29.9770 C   0  0  0  0  0  0  0  0  0  0  0  0
   -3.8780   25.4780  -30.5900 O   0  0  0  0  0  0  0  0  0  0  0  0
   -5.6580   23.2560  -30.7510 C   0  0  0  0  0  0  0  0  0  0  0  0
   -6.7640   22.6190  -31.3200 C   0  0  0  0  0  0  0  0  0  0  0  0
   -6.9360   16.8440  -33.3470 S   0  0  0  0  0  0  0  0  0  0  0  0
   -5.3910   16.8080  -34.0210 C   0  0  0  0  0  0  0  0  0  0  0  0
   -4.7140   15.5830  -34.5480 C   0  0  0  0  0  0  0  0  0  0  0  0
   -2.8502   18.6584  -33.7426 H   0  0  0  0  0  0  0  0  0  0  0  0
   -3.1540   17.6465  -35.1954 H   0  0  0  0  0  0  0  0  0  0  0  0
   -3.6208   19.3811  -35.1954 H   0  0  0  0  0  0  0  0  0  0  0  0
   -5.5378   19.4296  -31.4716 H   0  0  0  0  0  0  0  0  0  0  0  0
   -3.5737   20.5609  -30.4366 H   0  0  0  0  0  0  0  0  0  0  0  0
   -2.2074   21.5385  -29.1042 H   0  0  0  0  0  0  0  0  0  0  0  0
   -1.9185   20.4046  -26.6671 H   0  0  0  0  0  0  0  0  0  0  0  0
   -1.7581   17.9778  -27.2263 H   0  0  0  0  0  0  0  0  0  0  0  0
    2.1326   18.6370  -28.9977 H   0  0  0  0  0  0  0  0  0  0  0  0
    1.9759   21.0657  -28.4465 H   0  0  0  0  0  0  0  0  0  0  0  0
   -5.6964   24.3353  -30.5423 H   0  0  0  0  0  0  0  0  0  0  0  0
   -7.6763   23.1942  -31.5365 H   0  0  0  0  0  0  0  0  0  0  0  0
   -4.3713   14.9628  -33.7066 H   0  0  0  0  0  0  0  0  0  0  0  0
   -5.4225   15.0082  -35.1625 H   0  0  0  0  0  0  0  0  0  0  0  0
   -3.8503   15.8770  -35.1625 H   0  0  0  0  0  0  0  0  0  0  0  0
  1  2  1  0
  2  3  1  0
  3  4  1  0
  4  5  2  3
  5  6  1  0
  6  7  2  0
  6  8  1  0
  8  9  2  0
  9 10  1  0
 10 11  2  0
 11 12  1  0
 12 13  1  0
 13 14  2  0
 14 15  1  0
 15 16  2  0
 15 17  1  0
 17 18  1  0
 18 19  2  0
 19 20  1  0
 20 21  2  0
 21 22  1  0
 21 23  1  0
 23 24  2  0
 14 25  1  0
 25 26  1  0
 25 27  2  0
 27 28  1  0
 11 29  1  0
 29 30  2  0
  4 31  1  0
 31 32  1  0
 32 33  1  0
 32  2  2  0
 30  8  1  0
 27 12  1  0
 24 18  1  0
  1 34  1  0
  1 35  1  0
  1 36  1  0
  9 37  1  0
 10 38  1  0
 13 39  1  0
 19 40  1  0
 20 41  1  0
 23 42  1  0
 24 43  1  0
 29 44  1  0
 30 45  1  0
 33 46  1  0
 33 47  1  0
 33 48  1  0
M  CHG  5   3  -1  17  -1  22  -1  26  -1  28  -1
M  END
>  <UniqueID>  (46) 
44

>  <SMILES>  (46) 
Cc1[n-]c(=NC(=O)c2ccc(-n3cc(C(=O)[N-]c4ccc([O-])cc4)c([O-])c3[O-])cc2)sc1C

>  <Energy>  (46) 
126.14475105847026

>  <Genealogy>  (46) 
Cc1[n-]c(=NC(=O)c2ccc(-n3cc(C(=O)[N-]c4ccc([O-])cc4)c([O-])c3[O-])cc2)sc1C (protonated)
Cc1[n-]c(=NC(=O)c2ccc(-n3cc(C(=O)[N-]c4ccc([O-])cc4)c([O-])c3[O-])cc2)sc1C (3D coordinates assigned)
Cc1[n-]c(=NC(=O)c2ccc(-n3cc(C(=O)[N-]c4ccc([O-])cc4)c([O-])c3[O-])cc2)sc1C (optimized conformer: 126.14475105847026 kcal/mol)

>  <smiles>  (46) 
Cc1[nH]c(=NC(=O)c2ccc(-n3cc(C(=O)Nc4ccc(O)cc4)c(O)c3O)cc2)sc1C

>  <score_type>  (46) 
oracle

>  <origin>  (46) 
adgpu

>  <m_score__min__energy>  (46) 
-15.869999999999999

>  <m_primary>  (46) 
energy

$$$$
46:0
     RDKit          3D

 60 63  0  0  0  0  0  0  0  0999 V2000
   -1.2310   30.4690  -25.2050 C   0  0  0  0  0  0  0  0  0  0  0  0
   -1.1990   29.2040  -24.5510 O   0  0  0  0  0  0  0  0  0  0  0  0
   -0.9330   27.9860  -25.1920 C   0  0  0  0  0  0  0  0  0  0  0  0
   -1.0970   26.7430  -24.5500 C   0  0  0  0  0  0  0  0  0  0  0  0
   -0.8180   25.5560  -25.2360 C   0  0  0  0  0  0  0  0  0  0  0  0
   -0.3710   25.5940  -26.5610 C   0  0  0  0  0  0  0  0  0  0  0  0
   -0.0480   24.0940  -27.4220 S   0  0  0  0  0  0  0  0  0  0  0  0
    1.2160   24.2150  -28.2250 O   0  0  0  0  0  0  0  0  0  0  0  0
    0.1230   22.9670  -26.4400 O   0  0  0  0  0  0  0  0  0  0  0  0
   -1.3700   23.7500  -28.4800 N   0  0  0  0  0  0  0  0  0  0  0  0
   -2.4630   24.5140  -28.6390 C   0  0  0  0  0  0  0  0  0  0  0  0
   -3.2760   23.9080  -29.5750 C   0  0  0  0  0  0  0  0  0  0  0  0
   -4.8910   24.4300  -30.0830 S   0  0  0  0  0  0  0  0  0  0  0  0
   -4.7530   25.4110  -31.2120 O   0  0  0  0  0  0  0  0  0  0  0  0
   -5.5630   25.1170  -28.9270 O   0  0  0  0  0  0  0  0  0  0  0  0
   -5.8970   23.1190  -30.6530 N   0  0  0  0  0  0  0  0  0  0  0  0
   -5.8660   23.0210  -32.1290 C   0  0  0  0  0  0  0  0  0  0  0  0
   -7.0420   22.1960  -32.6950 C   0  0  0  0  0  0  0  0  0  0  0  0
   -7.5590   21.1890  -31.6540 C   0  0  0  0  0  0  0  0  0  0  0  0
   -8.6730   20.3170  -32.2410 C   0  0  0  0  0  0  0  0  0  0  0  0
   -8.0370   21.9180  -30.3760 C   0  0  0  0  0  0  0  0  0  0  0  0
   -7.2630   23.2240  -30.1190 C   0  0  0  0  0  0  0  0  0  0  0  0
   -2.5760   22.7670  -29.9660 C   0  0  0  0  0  0  0  0  0  0  0  0
   -2.9610   21.7690  -30.9810 C   0  0  0  0  0  0  0  0  0  0  0  0
   -2.4330   21.8580  -32.2780 C   0  0  0  0  0  0  0  0  0  0  0  0
   -2.8080   20.9350  -33.2590 C   0  0  0  0  0  0  0  0  0  0  0  0
   -3.7380   19.9270  -32.9630 C   0  0  0  0  0  0  0  0  0  0  0  0
   -4.1120   18.9130  -34.0030 C   0  0  0  0  0  0  0  0  0  0  0  0
   -4.2720   19.8410  -31.6690 C   0  0  0  0  0  0  0  0  0  0  0  0
   -3.8970   20.7650  -30.6890 C   0  0  0  0  0  0  0  0  0  0  0  0
   -1.4230   22.6940  -29.2730 N   0  0  0  0  0  0  0  0  0  0  0  0
   -0.2150   26.8290  -27.2040 C   0  0  0  0  0  0  0  0  0  0  0  0
   -0.4920   28.0160  -26.5210 C   0  0  0  0  0  0  0  0  0  0  0  0
   -1.2513   31.2706  -24.4520 H   0  0  0  0  0  0  0  0  0  0  0  0
   -0.3354   30.5793  -25.8340 H   0  0  0  0  0  0  0  0  0  0  0  0
   -2.1311   30.5339  -25.8340 H   0  0  0  0  0  0  0  0  0  0  0  0
   -1.4451   26.7055  -23.5072 H   0  0  0  0  0  0  0  0  0  0  0  0
   -0.9508   24.5879  -24.7309 H   0  0  0  0  0  0  0  0  0  0  0  0
   -2.6734   25.4579  -28.1147 H   0  0  0  0  0  0  0  0  0  0  0  0
   -5.9129   24.0360  -32.5504 H   0  0  0  0  0  0  0  0  0  0  0  0
   -4.9343   22.5077  -32.4089 H   0  0  0  0  0  0  0  0  0  0  0  0
   -7.8592   22.8779  -32.9728 H   0  0  0  0  0  0  0  0  0  0  0  0
   -6.6885   21.6398  -33.5757 H   0  0  0  0  0  0  0  0  0  0  0  0
   -6.7261   20.5267  -31.3756 H   0  0  0  0  0  0  0  0  0  0  0  0
   -9.2527   19.8633  -31.4236 H   0  0  0  0  0  0  0  0  0  0  0  0
   -9.3368   20.9380  -32.8605 H   0  0  0  0  0  0  0  0  0  0  0  0
   -8.2296   19.5235  -32.8605 H   0  0  0  0  0  0  0  0  0  0  0  0
   -9.1054   22.1564  -30.4843 H   0  0  0  0  0  0  0  0  0  0  0  0
   -7.8571   21.2487  -29.5218 H   0  0  0  0  0  0  0  0  0  0  0  0
   -7.7831   24.0578  -30.6133 H   0  0  0  0  0  0  0  0  0  0  0  0
   -7.2115   23.4029  -29.0349 H   0  0  0  0  0  0  0  0  0  0  0  0
   -1.7200   22.6585  -32.5244 H   0  0  0  0  0  0  0  0  0  0  0  0
   -2.3721   20.9994  -34.2669 H   0  0  0  0  0  0  0  0  0  0  0  0
   -4.4523   17.9904  -33.5099 H   0  0  0  0  0  0  0  0  0  0  0  0
   -4.9217   19.3133  -34.6309 H   0  0  0  0  0  0  0  0  0  0  0  0
   -3.2364   18.6916  -34.6309 H   0  0  0  0  0  0  0  0  0  0  0  0
   -4.9888   19.0433  -31.4241 H   0  0  0  0  0  0  0  0  0  0  0  0
   -4.3382   20.7046  -29.6832 H   0  0  0  0  0  0  0  0  0  0  0  0
    0.1264   26.8642  -28.2491 H   0  0  0  0  0  0  0  0  0  0  0  0
   -0.3627   28.9819  -27.0312 H   0  0  0  0  0  0  0  0  0  0  0  0
  1  2  1  0
  2  3  1  0
  3  4  2  0
  4  5  1  0
  5  6  2  0
  6  7  1  0
  7  8  2  0
  7  9  2  0
  7 10  1  0
 10 11  1  0
 11 12  2  0
 12 13  1  0
 13 14  2  0
 13 15  2  0
 13 16  1  0
 16 17  1  0
 17 18  1  0
 18 19  1  0
 19 20  1  0
 19 21  1  0
 21 22  1  0
 12 23  1  0
 23 24  1  0
 24 25  2  0
 25 26  1  0
 26 27  2  0
 27 28  1  0
 27 29  1  0
 29 30  2  0
 23 31  2  0
  6 32  1  0
 32 33  2  0
 33  3  1  0
 31 10  1  0
 22 16  1  0
 30 24  1  0
  1 34  1  0
  1 35  1  0
  1 36  1  0
  4 37  1  0
  5 38  1  0
 11 39  1  0
 17 40  1  0
 17 41  1  0
 18 42  1  0
 18 43  1  0
 19 44  1  0
 20 45  1  0
 20 46  1  0
 20 47  1  0
 21 48  1  0
 21 49  1  0
 22 50  1  0
 22 51  1  0
 25 52  1  0
 26 53  1  0
 28 54  1  0
 28 55  1  0
 28 56  1  0
 29 57  1  0
 30 58  1  0
 32 59  1  0
 33 60  1  0
M  END
>  <UniqueID>  (47) 
45

>  <SMILES>  (47) 
COc1ccc(S(=O)(=O)n2cc(S(=O)(=O)N3CCC(C)CC3)c(-c3ccc(C)cc3)n2)cc1

>  <Energy>  (47) 
101.37357803140267

>  <Genealogy>  (47) 
COc1ccc(S(=O)(=O)n2cc(S(=O)(=O)N3CCC(C)CC3)c(-c3ccc(C)cc3)n2)cc1 (3D coordinates assigned)
COc1ccc(S(=O)(=O)n2cc(S(=O)(=O)N3CCC(C)CC3)c(-c3ccc(C)cc3)n2)cc1 (nonaromatic ring conformer: 101.37357803140267 kcal/mol)

>  <smiles>  (47) 
COc1ccc(S(=O)(=O)n2cc(S(=O)(=O)N3CCC(C)CC3)c(-c3ccc(C)cc3)n2)cc1

>  <score_type>  (47) 
oracle

>  <origin>  (47) 
adgpu

>  <m_score__min__energy>  (47) 
-10.48

>  <m_primary>  (47) 
energy

$$$$
47:0
     RDKit          3D

 39 41  0  0  0  0  0  0  0  0999 V2000
   -2.4280   22.0200  -27.0890 O   0  0  0  0  0  0  0  0  0  0  0  0
   -2.2420   23.0530  -27.7830 C   0  0  0  0  0  0  0  0  0  0  0  0
   -3.1960   23.4490  -28.7220 C   0  0  0  0  0  0  0  0  0  0  0  0
   -2.9610   24.6080  -29.4700 C   0  0  0  0  0  0  0  0  0  0  0  0
   -3.9080   25.0260  -30.4660 N   0  0  0  0  0  0  0  0  0  0  0  0
   -4.9100   24.1660  -31.0330 C   0  0  0  0  0  0  0  0  0  0  0  0
   -6.2630   24.5450  -31.0720 C   0  0  0  0  0  0  0  0  0  0  0  0
   -7.2200   23.6840  -31.6130 C   0  0  0  0  0  0  0  0  0  0  0  0
   -6.8440   22.4310  -32.1050 C   0  0  0  0  0  0  0  0  0  0  0  0
   -7.8140   21.5950  -32.6480 O   0  0  0  0  0  0  0  0  0  0  0  0
   -5.4990   22.0270  -32.0460 C   0  0  0  0  0  0  0  0  0  0  0  0
   -5.0090   20.4490  -32.6700 S   0  0  0  0  0  0  0  0  0  0  0  0
   -3.9740   20.6320  -33.7460 O   0  0  0  0  0  0  0  0  0  0  0  0
   -4.3910   19.6600  -31.5480 O   0  0  0  0  0  0  0  0  0  0  0  0
   -6.4130   19.6090  -33.3000 N   0  0  0  0  0  0  0  0  0  0  0  0
   -6.9680   18.6650  -32.3100 C   0  0  0  0  0  0  0  0  0  0  0  0
   -6.0860   17.4040  -32.1440 C   0  0  0  0  0  0  0  0  0  0  0  0
   -5.1780   17.2010  -33.2120 O   0  0  0  0  0  0  0  0  0  0  0  0
   -5.8120   17.4490  -34.4460 C   0  0  0  0  0  0  0  0  0  0  0  0
   -6.1230   18.9500  -34.5980 C   0  0  0  0  0  0  0  0  0  0  0  0
   -4.5410   22.8980  -31.5050 C   0  0  0  0  0  0  0  0  0  0  0  0
   -1.8040   25.3010  -29.2770 N   0  0  0  0  0  0  0  0  0  0  0  0
   -0.8870   24.9000  -28.3590 C   0  0  0  0  0  0  0  0  0  0  0  0
    0.1690   25.5630  -28.1960 O   0  0  0  0  0  0  0  0  0  0  0  0
   -1.1100   23.7840  -27.6180 N   0  0  0  0  0  0  0  0  0  0  0  0
   -4.1141   22.8617  -28.8709 H   0  0  0  0  0  0  0  0  0  0  0  0
   -3.9250   26.0370  -30.7330 H   0  0  0  0  0  0  0  0  0  0  0  0
   -6.5692   25.5240  -30.6747 H   0  0  0  0  0  0  0  0  0  0  0  0
   -8.2749   23.9934  -31.6521 H   0  0  0  0  0  0  0  0  0  0  0  0
   -7.1380   20.3450  -33.4690 H   0  0  0  0  0  0  0  0  0  0  0  0
   -7.0432   19.1748  -31.3382 H   0  0  0  0  0  0  0  0  0  0  0  0
   -7.9554   18.3407  -32.6702 H   0  0  0  0  0  0  0  0  0  0  0  0
   -5.5099   17.5031  -31.2122 H   0  0  0  0  0  0  0  0  0  0  0  0
   -6.7631   16.5373  -32.1279 H   0  0  0  0  0  0  0  0  0  0  0  0
   -5.1490   17.1316  -35.2643 H   0  0  0  0  0  0  0  0  0  0  0  0
   -6.7550   16.8838  -34.4825 H   0  0  0  0  0  0  0  0  0  0  0  0
   -5.2546   19.4446  -35.0575 H   0  0  0  0  0  0  0  0  0  0  0  0
   -7.0220   19.0413  -35.2252 H   0  0  0  0  0  0  0  0  0  0  0  0
   -3.4886   22.5826  -31.4505 H   0  0  0  0  0  0  0  0  0  0  0  0
  1  2  2  0
  2  3  1  0
  3  4  2  0
  4  5  1  0
  5  6  1  0
  6  7  2  0
  7  8  1  0
  8  9  2  0
  9 10  1  0
  9 11  1  0
 11 12  1  0
 12 13  2  0
 12 14  2  0
 12 15  1  0
 15 16  1  0
 16 17  1  0
 17 18  1  0
 18 19  1  0
 19 20  1  0
 11 21  2  0
  4 22  1  0
 22 23  1  0
 23 24  2  0
 23 25  1  0
 25  2  1  0
 21  6  1  0
 20 15  1  0
  3 26  1  0
  5 27  1  0
  7 28  1  0
  8 29  1  0
 15 30  1  0
 16 31  1  0
 16 32  1  0
 17 33  1  0
 17 34  1  0
 19 35  1  0
 19 36  1  0
 20 37  1  0
 20 38  1  0
 21 39  1  0
M  CHG  4  10  -1  15   1  22  -1  25  -1
M  END
>  <UniqueID>  (48) 
46

>  <SMILES>  (48) 
O=c1cc(Nc2ccc([O-])c(S(=O)(=O)[NH+]3CCOCC3)c2)[n-]c(=O)[n-]1

>  <Energy>  (48) 
57.01513552764487

>  <Genealogy>  (48) 
O=c1cc(Nc2ccc([O-])c(S(=O)(=O)[NH+]3CCOCC3)c2)[n-]c(=O)[n-]1 (protonated)
O=c1cc(Nc2ccc([O-])c(S(=O)(=O)[NH+]3CCOCC3)c2)[n-]c(=O)[n-]1 (3D coordinates assigned)
O=c1cc(Nc2ccc([O-])c(S(=O)(=O)[NH+]3CCOCC3)c2)[n-]c(=O)[n-]1 (nonaromatic ring conformer: 57.01513552764487 kcal/mol)

>  <smiles>  (48) 
O=c1cc(Nc2ccc(O)c(S(=O)(=O)N3CCOCC3)c2)[nH]c(=O)[nH]1

>  <score_type>  (48) 
oracle

>  <origin>  (48) 
adgpu

>  <m_score__min__energy>  (48) 
-9.9399999999999995

>  <m_primary>  (48) 
energy

$$$$
48:0
     RDKit          3D

 48 50  0  0  0  0  0  0  0  0999 V2000
   -2.7440   20.8420  -28.1380 C   0  0  0  0  0  0  0  0  0  0  0  0
   -2.9180   21.0940  -29.4370 C   0  0  0  0  0  0  0  0  0  0  0  0
   -2.5080   22.4160  -30.0280 C   0  0  0  0  0  0  0  0  0  0  0  0
   -3.7210   23.2420  -30.3800 C   0  0  0  0  0  0  0  0  0  0  0  0
   -4.8610   22.5990  -30.8850 C   0  0  0  0  0  0  0  0  0  0  0  0
   -6.0350   23.3210  -31.1620 C   0  0  0  0  0  0  0  0  0  0  0  0
   -7.2550   22.6360  -31.6530 C   0  0  0  0  0  0  0  0  0  0  0  0
   -8.3720   22.9280  -31.1470 O   0  0  0  0  0  0  0  0  0  0  0  0
   -7.2210   21.6770  -32.7230 N   0  0  0  0  0  0  0  0  0  0  0  0
   -7.2730   20.2490  -32.5920 C   0  0  0  0  0  0  0  0  0  0  0  0
   -8.3810   19.6410  -31.9710 C   0  0  0  0  0  0  0  0  0  0  0  0
   -8.4590   18.2540  -31.8530 C   0  0  0  0  0  0  0  0  0  0  0  0
   -7.4480   17.4520  -32.3770 C   0  0  0  0  0  0  0  0  0  0  0  0
   -6.3600   18.0360  -33.0270 C   0  0  0  0  0  0  0  0  0  0  0  0
   -6.2510   19.4330  -33.1430 C   0  0  0  0  0  0  0  0  0  0  0  0
   -5.0960   19.9630  -33.8320 N   0  0  0  0  0  0  0  0  0  0  0  0
   -4.2280   21.0480  -33.3620 C   0  0  0  0  0  0  0  0  0  0  0  0
   -2.7860   20.6200  -33.2640 C   0  0  0  0  0  0  0  0  0  0  0  0
   -2.4530   19.4350  -32.5850 C   0  0  0  0  0  0  0  0  0  0  0  0
   -1.1160   19.0480  -32.4550 C   0  0  0  0  0  0  0  0  0  0  0  0
   -0.1000   19.8450  -32.9880 C   0  0  0  0  0  0  0  0  0  0  0  0
   -0.4160   21.0360  -33.6490 C   0  0  0  0  0  0  0  0  0  0  0  0
    0.6070   21.8200  -34.1790 O   0  0  0  0  0  0  0  0  0  0  0  0
   -1.7550   21.4300  -33.7750 C   0  0  0  0  0  0  0  0  0  0  0  0
   -6.0380   24.7120  -30.9710 C   0  0  0  0  0  0  0  0  0  0  0  0
   -4.9070   25.3600  -30.4700 C   0  0  0  0  0  0  0  0  0  0  0  0
   -3.7540   24.6320  -30.1610 C   0  0  0  0  0  0  0  0  0  0  0  0
   -2.6520   25.2980  -29.6360 O   0  0  0  0  0  0  0  0  0  0  0  0
   -3.0487   19.8710  -27.7205 H   0  0  0  0  0  0  0  0  0  0  0  0
   -2.2959   21.6053  -27.4849 H   0  0  0  0  0  0  0  0  0  0  0  0
   -3.3667   20.3258  -30.0839 H   0  0  0  0  0  0  0  0  0  0  0  0
   -1.8973   22.9649  -29.2960 H   0  0  0  0  0  0  0  0  0  0  0  0
   -1.9291   22.2294  -30.9445 H   0  0  0  0  0  0  0  0  0  0  0  0
   -4.8359   21.5144  -31.0668 H   0  0  0  0  0  0  0  0  0  0  0  0
   -9.1939   20.2672  -31.5747 H   0  0  0  0  0  0  0  0  0  0  0  0
   -9.3193   17.7929  -31.3459 H   0  0  0  0  0  0  0  0  0  0  0  0
   -7.5072   16.3580  -32.2784 H   0  0  0  0  0  0  0  0  0  0  0  0
   -5.5760   17.3939  -33.4550 H   0  0  0  0  0  0  0  0  0  0  0  0
   -4.7540   19.4390  -34.6690 H   0  0  0  0  0  0  0  0  0  0  0  0
   -4.3007   21.8903  -34.0658 H   0  0  0  0  0  0  0  0  0  0  0  0
   -4.5639   21.3380  -32.3555 H   0  0  0  0  0  0  0  0  0  0  0  0
   -3.2483   18.8092  -32.1539 H   0  0  0  0  0  0  0  0  0  0  0  0
   -0.8634   18.1139  -31.9319 H   0  0  0  0  0  0  0  0  0  0  0  0
    0.9506   19.5350  -32.8875 H   0  0  0  0  0  0  0  0  0  0  0  0
    0.4180   22.7210  -34.6020 H   0  0  0  0  0  0  0  0  0  0  0  0
   -2.0014   22.3777  -34.2761 H   0  0  0  0  0  0  0  0  0  0  0  0
   -6.9374   25.2953  -31.2177 H   0  0  0  0  0  0  0  0  0  0  0  0
   -4.9233   26.4493  -30.3176 H   0  0  0  0  0  0  0  0  0  0  0  0
  1  2  2  0
  2  3  1  0
  3  4  1  0
  4  5  2  0
  5  6  1  0
  6  7  1  0
  7  8  2  0
  7  9  1  0
  9 10  1  0
 10 11  2  0
 11 12  1  0
 12 13  2  0
 13 14  1  0
 14 15  2  0
 15 16  1  0
 16 17  1  0
 17 18  1  0
 18 19  2  0
 19 20  1  0
 20 21  2  0
 21 22  1  0
 22 23  1  0
 22 24  2  0
  6 25  2  0
 25 26  1  0
 26 27  2  0
 27 28  1  0
 27  4  1  0
 15 10  1  0
 24 18  1  0
  1 29  1  0
  1 30  1  0
  2 31  1  0
  3 32  1  0
  3 33  1  0
  5 34  1  0
 11 35  1  0
 12 36  1  0
 13 37  1  0
 14 38  1  0
 16 39  1  0
 17 40  1  0
 17 41  1  0
 19 42  1  0
 20 43  1  0
 21 44  1  0
 23 45  1  0
 24 46  1  0
 25 47  1  0
 26 48  1  0
M  CHG  2   9  -1  28  -1
M  END
>  <UniqueID>  (49) 
47

>  <SMILES>  (49) 
C=CCc1cc(C(=O)[N-]c2ccccc2NCc2cccc(O)c2)ccc1[O-]

>  <Energy>  (49) 
52.754952557514756

>  <Genealogy>  (49) 
C=CCc1cc(C(=O)[N-]c2ccccc2NCc2cccc(O)c2)ccc1[O-] (protonated)
C=CCc1cc(C(=O)[N-]c2ccccc2NCc2cccc(O)c2)ccc1[O-] (3D coordinates assigned)
C=CCc1cc(C(=O)[N-]c2ccccc2NCc2cccc(O)c2)ccc1[O-] (optimized conformer: 52.754952557514756 kcal/mol)

>  <smiles>  (49) 
C=CCc1cc(C(=O)Nc2ccccc2NCc2cccc(O)c2)ccc1O

>  <score_type>  (49) 
oracle

>  <origin>  (49) 
adgpu

>  <m_score__min__energy>  (49) 
-11.44

>  <m_primary>  (49) 
energy

$$$$
49:0
     RDKit          3D

 52 54  0  0  0  0  0  0  0  0999 V2000
   -2.7560   25.3150  -26.2170 C   0  0  0  0  0  0  0  0  0  0  0  0
   -1.2800   25.7200  -26.2170 C   0  0  0  0  0  0  0  0  0  0  0  0
   -0.3990   24.5310  -25.8350 C   0  0  0  0  0  0  0  0  0  0  0  0
   -0.7850   26.3240  -27.8740 S   0  0  0  0  0  0  0  0  0  0  0  0
   -1.3840   24.8850  -28.7570 C   0  0  0  0  0  0  0  0  0  0  0  0
   -0.5430   23.8560  -29.0290 N   0  0  0  0  0  0  0  0  0  0  0  0
   -0.9790   22.7560  -29.6920 C   0  0  0  0  0  0  0  0  0  0  0  0
   -2.3090   22.6720  -30.1140 C   0  0  0  0  0  0  0  0  0  0  0  0
   -2.8570   21.1770  -30.8670 Cl  0  0  0  0  0  0  0  0  0  0  0  0
   -3.1650   23.7600  -29.8460 C   0  0  0  0  0  0  0  0  0  0  0  0
   -4.5830   23.7790  -30.2560 C   0  0  0  0  0  0  0  0  0  0  0  0
   -5.3900   24.5110  -29.6210 O   0  0  0  0  0  0  0  0  0  0  0  0
   -5.0270   23.0640  -31.4190 N   0  0  0  0  0  0  0  0  0  0  0  0
   -6.4000   22.7200  -31.6740 C   0  0  0  0  0  0  0  0  0  0  0  0
   -7.4020   23.7050  -31.7390 C   0  0  0  0  0  0  0  0  0  0  0  0
   -8.7320   23.3420  -31.9660 C   0  0  0  0  0  0  0  0  0  0  0  0
   -9.0760   21.9980  -32.1180 C   0  0  0  0  0  0  0  0  0  0  0  0
   -8.0920   21.0040  -32.0370 C   0  0  0  0  0  0  0  0  0  0  0  0
   -8.5300   19.3060  -32.2310 S   0  0  0  0  0  0  0  0  0  0  0  0
   -8.8140   18.7070  -30.8810 O   0  0  0  0  0  0  0  0  0  0  0  0
   -9.7860   19.2120  -33.0530 O   0  0  0  0  0  0  0  0  0  0  0  0
   -7.2590   18.3990  -33.0140 N   0  0  0  0  0  0  0  0  0  0  0  0
   -6.4850   19.2720  -33.9110 C   0  0  0  0  0  0  0  0  0  0  0  0
   -5.5330   18.4330  -34.7840 C   0  0  0  0  0  0  0  0  0  0  0  0
   -5.1880   17.0780  -34.1420 C   0  0  0  0  0  0  0  0  0  0  0  0
   -5.0860   17.1990  -32.6200 C   0  0  0  0  0  0  0  0  0  0  0  0
   -6.3830   17.7710  -32.0020 C   0  0  0  0  0  0  0  0  0  0  0  0
   -6.7580   21.3690  -31.8050 C   0  0  0  0  0  0  0  0  0  0  0  0
   -2.6770   24.8310  -29.1650 N   0  0  0  0  0  0  0  0  0  0  0  0
   -3.1096   25.2180  -25.1799 H   0  0  0  0  0  0  0  0  0  0  0  0
   -3.3473   26.0841  -26.7355 H   0  0  0  0  0  0  0  0  0  0  0  0
   -2.8719   24.3518  -26.7355 H   0  0  0  0  0  0  0  0  0  0  0  0
   -1.1472   26.5243  -25.4784 H   0  0  0  0  0  0  0  0  0  0  0  0
   -0.3420   24.4540  -24.7392 H   0  0  0  0  0  0  0  0  0  0  0  0
   -0.8321   23.6069  -26.2454 H   0  0  0  0  0  0  0  0  0  0  0  0
    0.6112   24.6763  -26.2454 H   0  0  0  0  0  0  0  0  0  0  0  0
   -0.2845   21.9282  -29.8981 H   0  0  0  0  0  0  0  0  0  0  0  0
   -4.3230   22.8720  -32.1680 H   0  0  0  0  0  0  0  0  0  0  0  0
   -7.1375   24.7650  -31.6106 H   0  0  0  0  0  0  0  0  0  0  0  0
   -9.5099   24.1175  -32.0251 H   0  0  0  0  0  0  0  0  0  0  0  0
  -10.1237   21.7181  -32.3021 H   0  0  0  0  0  0  0  0  0  0  0  0
   -7.1763   19.8293  -34.5603 H   0  0  0  0  0  0  0  0  0  0  0  0
   -5.8909   19.9714  -33.3044 H   0  0  0  0  0  0  0  0  0  0  0  0
   -6.0140   18.2508  -35.7563 H   0  0  0  0  0  0  0  0  0  0  0  0
   -4.5962   18.9984  -34.8969 H   0  0  0  0  0  0  0  0  0  0  0  0
   -5.9747   16.3511  -34.3926 H   0  0  0  0  0  0  0  0  0  0  0  0
   -4.2149   16.7446  -34.5318 H   0  0  0  0  0  0  0  0  0  0  0  0
   -4.8987   16.2018  -32.1952 H   0  0  0  0  0  0  0  0  0  0  0  0
   -4.2620   17.8892  -32.3860 H   0  0  0  0  0  0  0  0  0  0  0  0
   -6.9342   16.9522  -31.5166 H   0  0  0  0  0  0  0  0  0  0  0  0
   -6.0959   18.5477  -31.2779 H   0  0  0  0  0  0  0  0  0  0  0  0
   -5.9855   20.5900  -31.7250 H   0  0  0  0  0  0  0  0  0  0  0  0
  1  2  1  0
  2  3  1  0
  2  4  1  0
  4  5  1  0
  5  6  2  0
  6  7  1  0
  7  8  2  0
  8  9  1  0
  8 10  1  0
 10 11  1  0
 11 12  2  0
 11 13  1  0
 13 14  1  0
 14 15  2  0
 15 16  1  0
 16 17  2  0
 17 18  1  0
 18 19  1  0
 19 20  2  0
 19 21  2  0
 19 22  1  0
 22 23  1  0
 23 24  1  0
 24 25  1  0
 25 26  1  0
 26 27  1  0
 18 28  2  0
 10 29  2  0
 29  5  1  0
 28 14  1  0
 27 22  1  0
  1 30  1  0
  1 31  1  0
  1 32  1  0
  2 33  1  0
  3 34  1  0
  3 35  1  0
  3 36  1  0
  7 37  1  0
 13 38  1  0
 15 39  1  0
 16 40  1  0
 17 41  1  0
 23 42  1  0
 23 43  1  0
 24 44  1  0
 24 45  1  0
 25 46  1  0
 25 47  1  0
 26 48  1  0
 26 49  1  0
 27 50  1  0
 27 51  1  0
 28 52  1  0
M  END
>  <UniqueID>  (50) 
48

>  <SMILES>  (50) 
CC(C)Sc1ncc(Cl)c(C(=O)Nc2cccc(S(=O)(=O)N3CCCCC3)c2)n1

>  <Energy>  (50) 
55.95666261120549

>  <Genealogy>  (50) 
CC(C)Sc1ncc(Cl)c(C(=O)Nc2cccc(S(=O)(=O)N3CCCCC3)c2)n1 (3D coordinates assigned)
CC(C)Sc1ncc(Cl)c(C(=O)Nc2cccc(S(=O)(=O)N3CCCCC3)c2)n1 (nonaromatic ring conformer: 55.95666261120549 kcal/mol)

>  <smiles>  (50) 
CC(C)Sc1ncc(Cl)c(C(=O)Nc2cccc(S(=O)(=O)N3CCCCC3)c2)n1

>  <score_type>  (50) 
oracle

>  <origin>  (50) 
adgpu

>  <m_score__min__energy>  (50) 
-11

>  <m_primary>  (50) 
energy

$$$$
