0:0
     RDKit          3D

 43 46  0  0  1  0  0  0  0  0999 V2000
   -4.8810   24.6170  -28.4010 N   0  0  0  0  0  0  0  0  0  0  0  0
   -5.1520   24.8950  -30.0800 S   0  0  0  0  0  0  0  0  0  0  0  0
   -3.8600   25.3090  -30.6990 O   0  0  0  0  0  0  0  0  0  0  0  0
   -6.1060   26.0460  -30.1960 O   0  0  0  0  0  0  0  0  0  0  0  0
   -5.7750   23.4440  -30.8650 C   0  0  0  0  0  0  0  0  0  0  0  0
   -5.1310   22.8790  -31.9510 C   0  0  0  0  0  0  0  0  0  0  0  0
   -5.6440   21.7270  -32.5570 C   0  0  0  0  0  0  0  0  0  0  0  0
   -6.7940   21.1900  -32.0360 C   0  0  0  0  0  0  0  0  0  0  0  0
   -7.4220   20.0200  -32.5570 N   0  0  0  0  0  0  0  0  0  0  0  0
   -6.7380   18.9800  -32.9190 C   0  0  0  0  0  0  0  0  0  0  0  0
   -5.3900   18.9650  -32.8160 N   0  0  0  0  0  0  0  0  0  0  0  0
   -4.7690   17.8400  -33.2170 C   0  0  0  0  0  0  0  0  0  0  0  0
   -3.3470   17.6830  -33.1650 N   0  0  0  0  0  0  0  0  0  0  0  0
   -2.6170   18.6970  -33.5160 C   0  0  0  0  0  0  0  0  0  0  0  0
   -1.2340   18.7930  -33.5520 C   0  0  0  0  0  0  0  0  0  0  0  0
   -0.8960   20.0590  -33.9890 C   0  0  0  0  0  0  0  0  0  0  0  0
    0.4790   20.6080  -34.1810 C   0  0  0  0  0  0  0  0  0  0  0  0
    0.9900   20.4410  -35.6030 C   0  0  0  0  0  0  0  0  0  0  0  0
    0.6660   21.8110  -34.9930 C   0  0  0  0  0  0  0  0  0  0  0  0
   -2.0580   20.7070  -34.2110 N   0  0  0  0  0  0  0  0  0  0  0  0
   -3.0870   19.9000  -33.9310 N   0  0  0  0  0  0  0  0  0  0  0  0
   -5.4700   16.7420  -33.7150 C   0  0  0  0  0  0  0  0  0  0  0  0
   -4.5620   15.1570  -34.2780 Br  0  0  0  0  0  0  0  0  0  0  0  0
   -6.8450   16.7880  -33.8080 C   0  0  0  0  0  0  0  0  0  0  0  0
   -7.4380   17.9320  -33.3970 N   0  0  0  0  0  0  0  0  0  0  0  0
   -7.4280   21.7750  -30.9390 C   0  0  0  0  0  0  0  0  0  0  0  0
   -6.9320   22.9120  -30.3320 C   0  0  0  0  0  0  0  0  0  0  0  0
   -5.5870   24.0280  -27.9440 H   0  0  0  0  0  0  0  0  0  0  0  0
   -4.6240   25.4940  -27.9050 H   0  0  0  0  0  0  0  0  0  0  0  0
   -4.2103   23.3380  -32.3404 H   0  0  0  0  0  0  0  0  0  0  0  0
   -5.1425   21.2676  -33.4215 H   0  0  0  0  0  0  0  0  0  0  0  0
   -0.5264   17.9963  -33.2789 H   0  0  0  0  0  0  0  0  0  0  0  0
    0.8194   20.3515  -33.1669 H   0  0  0  0  0  0  0  0  0  0  0  0
    2.0333   20.1465  -35.7895 H   0  0  0  0  0  0  0  0  0  0  0  0
    0.6822   19.8770  -36.4958 H   0  0  0  0  0  0  0  0  0  0  0  0
    1.4806   22.5109  -34.7552 H   0  0  0  0  0  0  0  0  0  0  0  0
    0.0222   22.6538  -35.2848 H   0  0  0  0  0  0  0  0  0  0  0  0
   -2.1710   21.7040  -34.5540 H   0  0  0  0  0  0  0  0  0  0  0  0
   -4.0930   20.2040  -34.0340 H   0  0  0  0  0  0  0  0  0  0  0  0
   -7.4283   15.9398  -34.1957 H   0  0  0  0  0  0  0  0  0  0  0  0
   -8.4830   17.9550  -33.4720 H   0  0  0  0  0  0  0  0  0  0  0  0
   -8.3484   21.3177  -30.5469 H   0  0  0  0  0  0  0  0  0  0  0  0
   -7.4337   23.3707  -29.4672 H   0  0  0  0  0  0  0  0  0  0  0  0
  1  2  1  0
  2  3  2  0
  2  4  2  0
  2  5  1  0
  5  6  2  0
  6  7  1  0
  7  8  2  0
  8  9  1  0
  9 10  2  0
 10 11  1  0
 11 12  2  0
 12 13  1  0
 13 14  2  0
 14 15  1  0
 15 16  2  0
 16 17  1  0
 17 18  1  0
 18 19  1  0
 16 20  1  0
 20 21  1  0
 12 22  1  0
 22 23  1  0
 22 24  2  0
 24 25  1  0
  8 26  1  0
 26 27  2  0
 27  5  1  0
 25 10  1  0
 21 14  1  0
 19 17  1  0
  1 28  1  0
  1 29  1  0
  6 30  1  0
  7 31  1  0
 15 32  1  0
 17 33  1  0
 18 34  1  0
 18 35  1  0
 19 36  1  0
 19 37  1  0
 20 38  1  0
 21 39  1  0
 24 40  1  0
 25 41  1  0
 26 42  1  0
 27 43  1  0
M  END
>  <smiles>  (1) 
NS(=O)(=O)c1ccc(N=c2nc(N=c3cc(C4CC4)[nH][nH]3)c(Br)c[nH]2)cc1

>  <score_type>  (1) 
oracle

>  <origin>  (1) 
adgpu

>  <m_score__min__energy>  (1) 
-10.109999999999999

>  <m_primary>  (1) 
energy

$$$$
1:0
     RDKit          3D

 36 38  0  0  0  0  0  0  0  0999 V2000
   -1.7100   25.6690  -28.9790 N   0  0  0  0  0  0  0  0  0  0  0  0
   -2.4040   24.1440  -28.5550 S   0  0  0  0  0  0  0  0  0  0  0  0
   -1.4070   23.0510  -28.8180 O   0  0  0  0  0  0  0  0  0  0  0  0
   -2.7480   24.1410  -27.0920 O   0  0  0  0  0  0  0  0  0  0  0  0
   -3.8540   23.8710  -29.5140 C   0  0  0  0  0  0  0  0  0  0  0  0
   -4.4940   22.6260  -29.4880 C   0  0  0  0  0  0  0  0  0  0  0  0
   -5.6520   22.4120  -30.2410 C   0  0  0  0  0  0  0  0  0  0  0  0
   -6.1900   23.4460  -31.0300 C   0  0  0  0  0  0  0  0  0  0  0  0
   -7.3780   23.2630  -31.8210 N   0  0  0  0  0  0  0  0  0  0  0  0
   -8.5530   22.0170  -31.5340 S   0  0  0  0  0  0  0  0  0  0  0  0
   -8.9110   22.0070  -30.0740 O   0  0  0  0  0  0  0  0  0  0  0  0
   -9.7890   22.3080  -32.3380 O   0  0  0  0  0  0  0  0  0  0  0  0
   -7.9100   20.4550  -32.0290 C   0  0  0  0  0  0  0  0  0  0  0  0
   -8.4940   19.2750  -31.5550 C   0  0  0  0  0  0  0  0  0  0  0  0
   -7.9940   18.0330  -31.9510 C   0  0  0  0  0  0  0  0  0  0  0  0
   -6.8950   17.9480  -32.8260 C   0  0  0  0  0  0  0  0  0  0  0  0
   -6.3910   16.6580  -33.2260 N   0  0  0  0  0  0  0  0  0  0  0  0
   -6.8500   15.8260  -34.1800 C   0  0  0  0  0  0  0  0  0  0  0  0
   -6.0870   14.7190  -34.2240 N   0  0  0  0  0  0  0  0  0  0  0  0
   -5.1630   14.8910  -33.2890 N   0  0  0  0  0  0  0  0  0  0  0  0
   -5.3440   16.0560  -32.6870 N   0  0  0  0  0  0  0  0  0  0  0  0
   -6.3080   19.1400  -33.2910 C   0  0  0  0  0  0  0  0  0  0  0  0
   -6.8130   20.3820  -32.8940 C   0  0  0  0  0  0  0  0  0  0  0  0
   -5.5500   24.6950  -31.0400 C   0  0  0  0  0  0  0  0  0  0  0  0
   -4.3910   24.9070  -30.2870 C   0  0  0  0  0  0  0  0  0  0  0  0
   -1.5930   25.6720  -30.0170 H   0  0  0  0  0  0  0  0  0  0  0  0
   -4.0835   21.8123  -28.8720 H   0  0  0  0  0  0  0  0  0  0  0  0
   -6.1459   21.4294  -30.2168 H   0  0  0  0  0  0  0  0  0  0  0  0
   -7.5280   23.8680  -32.6600 H   0  0  0  0  0  0  0  0  0  0  0  0
   -9.3510   19.3262  -30.8672 H   0  0  0  0  0  0  0  0  0  0  0  0
   -8.4636   17.1119  -31.5754 H   0  0  0  0  0  0  0  0  0  0  0  0
   -7.7183   16.0220  -34.8262 H   0  0  0  0  0  0  0  0  0  0  0  0
   -5.4453   19.0940  -33.9720 H   0  0  0  0  0  0  0  0  0  0  0  0
   -6.3453   21.3064  -33.2638 H   0  0  0  0  0  0  0  0  0  0  0  0
   -5.9639   25.5146  -31.6457 H   0  0  0  0  0  0  0  0  0  0  0  0
   -3.8997   25.8911  -30.3022 H   0  0  0  0  0  0  0  0  0  0  0  0
  1  2  1  0
  2  3  2  0
  2  4  2  0
  2  5  1  0
  5  6  2  0
  6  7  1  0
  7  8  2  0
  8  9  1  0
  9 10  1  0
 10 11  2  0
 10 12  2  0
 10 13  1  0
 13 14  2  0
 14 15  1  0
 15 16  2  0
 16 17  1  0
 17 18  1  0
 18 19  2  0
 19 20  1  0
 20 21  2  0
 16 22  1  0
 22 23  2  0
  8 24  1  0
 24 25  2  0
 25  5  1  0
 23 13  1  0
 21 17  1  0
  1 26  1  0
  6 27  1  0
  7 28  1  0
  9 29  1  0
 14 30  1  0
 15 31  1  0
 18 32  1  0
 22 33  1  0
 23 34  1  0
 24 35  1  0
 25 36  1  0
M  CHG  1   1  -1
M  END
>  <UniqueID>  (2) 
1

>  <SMILES>  (2) 
[NH-]S(=O)(=O)c1ccc(NS(=O)(=O)c2ccc(-n3cnnn3)cc2)cc1

>  <Energy>  (2) 
82.75031244174986

>  <Genealogy>  (2) 
[NH-]S(=O)(=O)c1ccc(NS(=O)(=O)c2ccc(-n3cnnn3)cc2)cc1 (protonated)
[NH-]S(=O)(=O)c1ccc(NS(=O)(=O)c2ccc(-n3cnnn3)cc2)cc1 (3D coordinates assigned)
[NH-]S(=O)(=O)c1ccc(NS(=O)(=O)c2ccc(-n3cnnn3)cc2)cc1 (optimized conformer: 82.75031244174986 kcal/mol)

>  <smiles>  (2) 
NS(=O)(=O)c1ccc(NS(=O)(=O)c2ccc(-n3cnnn3)cc2)cc1

>  <score_type>  (2) 
oracle

>  <origin>  (2) 
adgpu

>  <m_score__min__energy>  (2) 
-11.26

>  <m_primary>  (2) 
energy

$$$$
2:0
     RDKit          3D

 40 43  0  0  0  0  0  0  0  0999 V2000
   -5.7130   25.7960  -30.4750 C   0  0  0  0  0  0  0  0  0  0  0  0
   -4.5870   24.8180  -30.4790 C   0  0  0  0  0  0  0  0  0  0  0  0
   -4.5710   23.7230  -31.2840 N   0  0  0  0  0  0  0  0  0  0  0  0
   -3.4280   23.1280  -30.9190 C   0  0  0  0  0  0  0  0  0  0  0  0
   -2.9130   21.9910  -31.4440 N   0  0  0  0  0  0  0  0  0  0  0  0
   -1.7180   21.5260  -30.9700 C   0  0  0  0  0  0  0  0  0  0  0  0
   -1.2280   20.4700  -31.4480 O   0  0  0  0  0  0  0  0  0  0  0  0
   -1.0300   22.2250  -29.9500 C   0  0  0  0  0  0  0  0  0  0  0  0
   -1.5800   23.4100  -29.4060 C   0  0  0  0  0  0  0  0  0  0  0  0
   -0.8820   24.1610  -28.3350 C   0  0  0  0  0  0  0  0  0  0  0  0
   -1.6060   24.9310  -27.4120 C   0  0  0  0  0  0  0  0  0  0  0  0
   -0.9420   25.6370  -26.4070 C   0  0  0  0  0  0  0  0  0  0  0  0
    0.4610   25.5790  -26.3240 C   0  0  0  0  0  0  0  0  0  0  0  0
    1.1900   26.2980  -25.3000 N   0  0  0  0  0  0  0  0  0  0  0  0
    2.6560   26.1930  -25.2350 C   0  0  0  0  0  0  0  0  0  0  0  0
    3.1660   26.2620  -23.7810 C   0  0  0  0  0  0  0  0  0  0  0  0
    2.3800   27.1500  -22.8940 N   0  0  0  0  0  0  0  0  0  0  0  0
    1.5140   28.0870  -23.6190 C   0  0  0  0  0  0  0  0  0  0  0  0
    0.5130   27.3160  -24.4830 C   0  0  0  0  0  0  0  0  0  0  0  0
    1.1410   24.8290  -27.2380 N   0  0  0  0  0  0  0  0  0  0  0  0
    0.5160   24.1310  -28.2220 C   0  0  0  0  0  0  0  0  0  0  0  0
   -2.8050   23.8290  -29.9370 C   0  0  0  0  0  0  0  0  0  0  0  0
   -3.5260   24.9200  -29.6340 N   0  0  0  0  0  0  0  0  0  0  0  0
   -5.9877   26.0346  -29.4369 H   0  0  0  0  0  0  0  0  0  0  0  0
   -5.4019   26.7154  -30.9926 H   0  0  0  0  0  0  0  0  0  0  0  0
   -6.5798   25.3593  -30.9926 H   0  0  0  0  0  0  0  0  0  0  0  0
   -0.0660   21.8466  -29.5793 H   0  0  0  0  0  0  0  0  0  0  0  0
   -2.7028   24.9787  -27.4806 H   0  0  0  0  0  0  0  0  0  0  0  0
   -1.5137   26.2362  -25.6830 H   0  0  0  0  0  0  0  0  0  0  0  0
    2.9652   25.2342  -25.6767 H   0  0  0  0  0  0  0  0  0  0  0  0
    3.0866   27.0387  -25.7913 H   0  0  0  0  0  0  0  0  0  0  0  0
    3.1404   25.2462  -23.3597 H   0  0  0  0  0  0  0  0  0  0  0  0
    4.1806   26.6847  -23.8260 H   0  0  0  0  0  0  0  0  0  0  0  0
    3.0350   27.7020  -22.2920 H   0  0  0  0  0  0  0  0  0  0  0  0
    1.7860   26.5670  -22.2570 H   0  0  0  0  0  0  0  0  0  0  0  0
    0.9668   28.7103  -22.8965 H   0  0  0  0  0  0  0  0  0  0  0  0
    2.1345   28.7232  -24.2672 H   0  0  0  0  0  0  0  0  0  0  0  0
   -0.2200   26.8217  -23.8285 H   0  0  0  0  0  0  0  0  0  0  0  0
    0.0132   28.0277  -25.1566 H   0  0  0  0  0  0  0  0  0  0  0  0
    1.1096   23.5390  -28.9341 H   0  0  0  0  0  0  0  0  0  0  0  0
  1  2  1  0
  2  3  2  0
  3  4  1  0
  4  5  1  0
  5  6  1  0
  6  7  2  0
  6  8  1  0
  8  9  2  0
  9 10  1  0
 10 11  2  0
 11 12  1  0
 12 13  2  0
 13 14  1  0
 14 15  1  0
 15 16  1  0
 16 17  1  0
 17 18  1  0
 18 19  1  0
 13 20  1  0
 20 21  2  0
  9 22  1  0
 22 23  1  0
 23  2  1  0
 22  4  2  0
 21 10  1  0
 19 14  1  0
  1 24  1  0
  1 25  1  0
  1 26  1  0
  8 27  1  0
 11 28  1  0
 12 29  1  0
 15 30  1  0
 15 31  1  0
 16 32  1  0
 16 33  1  0
 17 34  1  0
 17 35  1  0
 18 36  1  0
 18 37  1  0
 19 38  1  0
 19 39  1  0
 21 40  1  0
M  CHG  3   5  -1  17   1  23  -1
M  END
>  <UniqueID>  (3) 
2

>  <SMILES>  (3) 
Cc1nc2[n-]c(=O)cc(-c3ccc(N4CC[NH2+]CC4)nc3)c2[n-]1

>  <Energy>  (3) 
91.16665090560134

>  <Genealogy>  (3) 
Cc1nc2[n-]c(=O)cc(-c3ccc(N4CC[NH2+]CC4)nc3)c2[n-]1 (protonated)
Cc1nc2[n-]c(=O)cc(-c3ccc(N4CC[NH2+]CC4)nc3)c2[n-]1 (3D coordinates assigned)
Cc1nc2[n-]c(=O)cc(-c3ccc(N4CC[NH2+]CC4)nc3)c2[n-]1 (nonaromatic ring conformer: 91.16665090560134 kcal/mol)

>  <smiles>  (3) 
Cc1nc2[nH]c(=O)cc(-c3ccc(N4CCNCC4)nc3)c2[nH]1

>  <score_type>  (3) 
oracle

>  <origin>  (3) 
adgpu

>  <m_score__min__energy>  (3) 
-8.5500000000000007

>  <m_primary>  (3) 
energy

$$$$
3:0
     RDKit          3D

 35 36  0  0  0  0  0  0  0  0999 V2000
   -0.8790   26.8590  -24.0700 C   0  0  0  0  0  0  0  0  0  0  0  0
   -0.5680   25.3680  -24.1200 C   0  0  0  0  0  0  0  0  0  0  0  0
    0.5240   24.9730  -25.5300 S   0  0  0  0  0  0  0  0  0  0  0  0
   -0.8050   24.8190  -26.7200 C   0  0  0  0  0  0  0  0  0  0  0  0
   -2.0820   24.6460  -26.2930 N   0  0  0  0  0  0  0  0  0  0  0  0
   -3.1060   24.5330  -27.1760 C   0  0  0  0  0  0  0  0  0  0  0  0
   -2.8590   24.6010  -28.5560 C   0  0  0  0  0  0  0  0  0  0  0  0
   -3.9510   24.4700  -29.5500 C   0  0  0  0  0  0  0  0  0  0  0  0
   -3.8610   25.0720  -30.6550 O   0  0  0  0  0  0  0  0  0  0  0  0
   -5.1330   23.7070  -29.2500 N   0  0  0  0  0  0  0  0  0  0  0  0
   -6.0230   23.1870  -30.2520 C   0  0  0  0  0  0  0  0  0  0  0  0
   -7.1510   23.9340  -30.6280 C   0  0  0  0  0  0  0  0  0  0  0  0
   -8.0410   23.4390  -31.5850 C   0  0  0  0  0  0  0  0  0  0  0  0
   -7.8220   22.1890  -32.1670 C   0  0  0  0  0  0  0  0  0  0  0  0
   -6.7150   21.4230  -31.7840 C   0  0  0  0  0  0  0  0  0  0  0  0
   -6.4430   19.8090  -32.5170 S   0  0  0  0  0  0  0  0  0  0  0  0
   -8.1680   19.2780  -32.2870 C   0  0  0  0  0  0  0  0  0  0  0  0
   -5.8190   21.9190  -30.8280 C   0  0  0  0  0  0  0  0  0  0  0  0
   -1.5290   24.7750  -28.9690 C   0  0  0  0  0  0  0  0  0  0  0  0
   -0.5370   24.8860  -28.0490 N   0  0  0  0  0  0  0  0  0  0  0  0
   -0.9469   27.1844  -23.0214 H   0  0  0  0  0  0  0  0  0  0  0  0
   -0.0781   27.4178  -24.5762 H   0  0  0  0  0  0  0  0  0  0  0  0
   -1.8365   27.0510  -24.5762 H   0  0  0  0  0  0  0  0  0  0  0  0
   -0.0689   25.0732  -23.1851 H   0  0  0  0  0  0  0  0  0  0  0  0
   -1.5122   24.8174  -24.2435 H   0  0  0  0  0  0  0  0  0  0  0  0
   -4.1328   24.3877  -26.8092 H   0  0  0  0  0  0  0  0  0  0  0  0
   -5.4210   23.6210  -28.2490 H   0  0  0  0  0  0  0  0  0  0  0  0
   -7.3353   24.9152  -30.1662 H   0  0  0  0  0  0  0  0  0  0  0  0
   -8.9165   24.0359  -31.8805 H   0  0  0  0  0  0  0  0  0  0  0  0
   -8.5195   21.8062  -32.9266 H   0  0  0  0  0  0  0  0  0  0  0  0
   -8.3903   19.2096  -31.2119 H   0  0  0  0  0  0  0  0  0  0  0  0
   -8.8425   20.0101  -32.7550 H   0  0  0  0  0  0  0  0  0  0  0  0
   -8.3140   18.2933  -32.7550 H   0  0  0  0  0  0  0  0  0  0  0  0
   -4.9513   21.3142  -30.5259 H   0  0  0  0  0  0  0  0  0  0  0  0
   -1.2897   24.8216  -30.0416 H   0  0  0  0  0  0  0  0  0  0  0  0
  1  2  1  0
  2  3  1  0
  3  4  1  0
  4  5  2  0
  5  6  1  0
  6  7  2  0
  7  8  1  0
  8  9  2  0
  8 10  1  0
 10 11  1  0
 11 12  2  0
 12 13  1  0
 13 14  2  0
 14 15  1  0
 15 16  1  0
 16 17  1  0
 15 18  2  0
  7 19  1  0
 19 20  2  0
 20  4  1  0
 18 11  1  0
  1 21  1  0
  1 22  1  0
  1 23  1  0
  2 24  1  0
  2 25  1  0
  6 26  1  0
 10 27  1  0
 12 28  1  0
 13 29  1  0
 14 30  1  0
 17 31  1  0
 17 32  1  0
 17 33  1  0
 18 34  1  0
 19 35  1  0
M  END
>  <UniqueID>  (4) 
3

>  <SMILES>  (4) 
CCSc1ncc(C(=O)Nc2cccc(SC)c2)cn1

>  <Energy>  (4) 
31.292167522256758

>  <Genealogy>  (4) 
CCSc1ncc(C(=O)Nc2cccc(SC)c2)cn1 (3D coordinates assigned)
CCSc1ncc(C(=O)Nc2cccc(SC)c2)cn1 (optimized conformer: 31.292167522256758 kcal/mol)

>  <smiles>  (4) 
CCSc1ncc(C(=O)Nc2cccc(SC)c2)cn1

>  <score_type>  (4) 
oracle

>  <origin>  (4) 
adgpu

>  <m_score__min__energy>  (4) 
-7.2999999999999998

>  <m_primary>  (4) 
energy

$$$$
4:0
     RDKit          3D

 30 31  0  0  0  0  0  0  0  0999 V2000
   -3.2870   24.1880  -27.5650 C   0  0  0  0  0  0  0  0  0  0  0  0
   -2.3480   24.7620  -28.6140 C   0  0  0  0  0  0  0  0  0  0  0  0
   -3.1090   25.2790  -29.7030 O   0  0  0  0  0  0  0  0  0  0  0  0
   -4.2170   24.6340  -30.2720 C   0  0  0  0  0  0  0  0  0  0  0  0
   -5.5050   25.2040  -30.2720 C   0  0  0  0  0  0  0  0  0  0  0  0
   -6.5770   24.5200  -30.8540 C   0  0  0  0  0  0  0  0  0  0  0  0
   -6.3810   23.2720  -31.4550 C   0  0  0  0  0  0  0  0  0  0  0  0
   -7.4860   22.6130  -32.0150 O   0  0  0  0  0  0  0  0  0  0  0  0
   -7.6220   21.2230  -32.1480 C   0  0  0  0  0  0  0  0  0  0  0  0
   -8.6660   20.5810  -31.4710 C   0  0  0  0  0  0  0  0  0  0  0  0
   -8.8430   19.1990  -31.5910 C   0  0  0  0  0  0  0  0  0  0  0  0
   -7.9840   18.4520  -32.4010 C   0  0  0  0  0  0  0  0  0  0  0  0
   -6.9520   19.0860  -33.0970 C   0  0  0  0  0  0  0  0  0  0  0  0
   -6.7720   20.4680  -32.9780 C   0  0  0  0  0  0  0  0  0  0  0  0
   -5.0990   22.6950  -31.4380 C   0  0  0  0  0  0  0  0  0  0  0  0
   -4.0270   23.3770  -30.8570 C   0  0  0  0  0  0  0  0  0  0  0  0
   -2.9029   24.4228  -26.5613 H   0  0  0  0  0  0  0  0  0  0  0  0
   -4.2871   24.6293  -27.6874 H   0  0  0  0  0  0  0  0  0  0  0  0
   -3.3503   23.0967  -27.6874 H   0  0  0  0  0  0  0  0  0  0  0  0
   -1.7507   25.5708  -28.1678 H   0  0  0  0  0  0  0  0  0  0  0  0
   -1.6785   23.9692  -28.9790 H   0  0  0  0  0  0  0  0  0  0  0  0
   -5.6682   26.1902  -29.8128 H   0  0  0  0  0  0  0  0  0  0  0  0
   -7.5821   24.9667  -30.8391 H   0  0  0  0  0  0  0  0  0  0  0  0
   -9.3511   21.1672  -30.8409 H   0  0  0  0  0  0  0  0  0  0  0  0
   -9.6588   18.6999  -31.0475 H   0  0  0  0  0  0  0  0  0  0  0  0
   -8.1204   17.3642  -32.4907 H   0  0  0  0  0  0  0  0  0  0  0  0
   -6.2802   18.4978  -33.7394 H   0  0  0  0  0  0  0  0  0  0  0  0
   -5.9643   20.9660  -33.5344 H   0  0  0  0  0  0  0  0  0  0  0  0
   -4.9393   21.7023  -31.8841 H   0  0  0  0  0  0  0  0  0  0  0  0
   -3.0254   22.9222  -30.8594 H   0  0  0  0  0  0  0  0  0  0  0  0
  1  2  1  0
  2  3  1  0
  3  4  1  0
  4  5  2  0
  5  6  1  0
  6  7  2  0
  7  8  1  0
  8  9  1  0
  9 10  2  0
 10 11  1  0
 11 12  2  0
 12 13  1  0
 13 14  2  0
  7 15  1  0
 15 16  2  0
 16  4  1  0
 14  9  1  0
  1 17  1  0
  1 18  1  0
  1 19  1  0
  2 20  1  0
  2 21  1  0
  5 22  1  0
  6 23  1  0
 10 24  1  0
 11 25  1  0
 12 26  1  0
 13 27  1  0
 14 28  1  0
 15 29  1  0
 16 30  1  0
M  END
>  <UniqueID>  (5) 
4

>  <SMILES>  (5) 
CCOc1ccc(Oc2ccccc2)cc1

>  <Energy>  (5) 
33.42790680840832

>  <Genealogy>  (5) 
CCOc1ccc(Oc2ccccc2)cc1 (3D coordinates assigned)
CCOc1ccc(Oc2ccccc2)cc1 (optimized conformer: 33.42790680840832 kcal/mol)

>  <smiles>  (5) 
CCOc1ccc(Oc2ccccc2)cc1

>  <score_type>  (5) 
oracle

>  <origin>  (5) 
adgpu

>  <m_score__min__energy>  (5) 
-6.8700000000000001

>  <m_primary>  (5) 
energy

$$$$
5:0
     RDKit          3D

 32 34  0  0  0  0  0  0  0  0999 V2000
   -6.4660   25.0510  -28.7870 H   0  0  0  0  0  0  0  0  0  0  0  0
   -5.4670   24.9360  -29.0730 N   0  0  0  0  0  0  0  0  0  0  0  0
   -5.0170   23.9310  -29.7670 C   0  0  0  0  0  0  0  0  0  0  0  0
   -5.9430   22.9520  -30.1420 C   0  0  0  0  0  0  0  0  0  0  0  0
   -6.8882   22.9509  -29.5793 H   0  0  0  0  0  0  0  0  0  0  0  0
   -5.8300   21.9780  -31.1320 C   0  0  0  0  0  0  0  0  0  0  0  0
   -7.0890   21.3080  -31.5590 C   0  0  0  0  0  0  0  0  0  0  0  0
   -8.3140   22.0010  -31.5210 C   0  0  0  0  0  0  0  0  0  0  0  0
   -8.3418   23.0444  -31.1739 H   0  0  0  0  0  0  0  0  0  0  0  0
   -9.4950   21.3700  -31.9220 C   0  0  0  0  0  0  0  0  0  0  0  0
  -10.4484   21.9178  -31.8895 H   0  0  0  0  0  0  0  0  0  0  0  0
   -9.4670   20.0450  -32.3640 C   0  0  0  0  0  0  0  0  0  0  0  0
  -10.3977   19.5510  -32.6798 H   0  0  0  0  0  0  0  0  0  0  0  0
   -8.2570   19.3470  -32.4050 C   0  0  0  0  0  0  0  0  0  0  0  0
   -8.2364   18.3032  -32.7515 H   0  0  0  0  0  0  0  0  0  0  0  0
   -7.0720   19.9740  -32.0060 C   0  0  0  0  0  0  0  0  0  0  0  0
   -6.1217   19.4212  -32.0419 H   0  0  0  0  0  0  0  0  0  0  0  0
   -4.6500   21.5580  -31.7480 C   0  0  0  0  0  0  0  0  0  0  0  0
   -4.7787   20.9589  -32.6615 H   0  0  0  0  0  0  0  0  0  0  0  0
   -3.3230   21.7950  -31.3620 C   0  0  0  0  0  0  0  0  0  0  0  0
   -2.3740   20.8930  -31.9000 C   0  0  0  0  0  0  0  0  0  0  0  0
   -2.7119   20.1158  -32.6013 H   0  0  0  0  0  0  0  0  0  0  0  0
   -1.0270   20.9630  -31.5660 C   0  0  0  0  0  0  0  0  0  0  0  0
   -0.3126   20.2476  -31.9996 H   0  0  0  0  0  0  0  0  0  0  0  0
   -0.5880   21.9360  -30.6860 C   0  0  0  0  0  0  0  0  0  0  0  0
    0.4712   21.9747  -30.3916 H   0  0  0  0  0  0  0  0  0  0  0  0
   -1.4870   22.8650  -30.1740 C   0  0  0  0  0  0  0  0  0  0  0  0
   -1.1207   23.6324  -29.4762 H   0  0  0  0  0  0  0  0  0  0  0  0
   -2.8640   22.8540  -30.5240 C   0  0  0  0  0  0  0  0  0  0  0  0
   -3.6440   23.9440  -30.0600 C   0  0  0  0  0  0  0  0  0  0  0  0
   -2.9980   25.1610  -29.7890 O   0  0  0  0  0  0  0  0  0  0  0  0
   -3.4790   26.0500  -29.7220 H   0  0  0  0  0  0  0  0  0  0  0  0
  1  2  1  0
  2  3  2  0
  3  4  1  0
  4  5  1  0
  4  6  2  0
  6  7  1  0
  7  8  2  0
  8  9  1  0
  8 10  1  0
 10 11  1  0
 10 12  2  0
 12 13  1  0
 12 14  1  0
 14 15  1  0
 14 16  2  0
 16 17  1  0
  6 18  1  0
 18 19  1  0
 18 20  2  0
 20 21  1  0
 21 22  1  0
 21 23  2  0
 23 24  1  0
 23 25  1  0
 25 26  1  0
 25 27  2  0
 27 28  1  0
 27 29  1  0
 29 30  2  0
 30 31  1  0
 31 32  1  0
 30  3  1  0
 16  7  1  0
 29 20  1  0
M  END
>  <UniqueID>  (6) 
5

>  <SMILES>  (6) 
[H]/N=c1\cc(-c2ccccc2)cc2ccccc2c1O

>  <Energy>  (6) 
81.34988129515894

>  <Genealogy>  (6) 
[H]/N=c1\cc(-c2ccccc2)cc2ccccc2c1O (cis-trans isomerization)
[H]/N=c1\cc(-c2ccccc2)cc2ccccc2c1O (3D coordinates assigned)
[H]/N=c1\cc(-c2ccccc2)cc2ccccc2c1O (optimized conformer: 81.34988129515894 kcal/mol)

>  <smiles>  (6) 
N=c1cc(-c2ccccc2)cc2ccccc2c1O

>  <score_type>  (6) 
oracle

>  <origin>  (6) 
adgpu

>  <m_score__min__energy>  (6) 
-8.9900000000000002

>  <m_primary>  (6) 
energy

$$$$
6:0
     RDKit          3D

 31 32  0  0  0  0  0  0  0  0999 V2000
   -7.2130   17.1160  -33.0770 C   0  0  0  0  0  0  0  0  0  0  0  0
   -7.3930   18.5570  -32.6980 C   0  0  0  0  0  0  0  0  0  0  0  0
   -6.5220   19.5340  -33.2040 C   0  0  0  0  0  0  0  0  0  0  0  0
   -6.7100   20.8800  -32.8770 C   0  0  0  0  0  0  0  0  0  0  0  0
   -7.7700   21.2610  -32.0460 C   0  0  0  0  0  0  0  0  0  0  0  0
   -7.9970   22.9870  -31.6120 S   0  0  0  0  0  0  0  0  0  0  0  0
   -6.9150   22.9280  -30.1390 C   0  0  0  0  0  0  0  0  0  0  0  0
   -5.6240   23.6580  -30.3840 C   0  0  0  0  0  0  0  0  0  0  0  0
   -4.4250   23.1400  -30.8390 C   0  0  0  0  0  0  0  0  0  0  0  0
   -4.1340   21.7120  -31.1680 C   0  0  0  0  0  0  0  0  0  0  0  0
   -3.4980   24.1180  -30.8640 N   0  0  0  0  0  0  0  0  0  0  0  0
   -4.0820   25.2090  -30.4600 O   0  0  0  0  0  0  0  0  0  0  0  0
   -5.3430   24.9920  -30.1620 C   0  0  0  0  0  0  0  0  0  0  0  0
   -6.2800   26.0410  -29.6620 C   0  0  0  0  0  0  0  0  0  0  0  0
   -8.6580   20.2920  -31.5620 C   0  0  0  0  0  0  0  0  0  0  0  0
   -8.4730   18.9460  -31.8900 C   0  0  0  0  0  0  0  0  0  0  0  0
   -7.1366   16.5041  -32.1661 H   0  0  0  0  0  0  0  0  0  0  0  0
   -8.0765   16.7826  -33.6713 H   0  0  0  0  0  0  0  0  0  0  0  0
   -6.2940   17.0052  -33.6713 H   0  0  0  0  0  0  0  0  0  0  0  0
   -5.6892   19.2399  -33.8596 H   0  0  0  0  0  0  0  0  0  0  0  0
   -6.0230   21.6419  -33.2738 H   0  0  0  0  0  0  0  0  0  0  0  0
   -7.4368   23.3962  -29.2914 H   0  0  0  0  0  0  0  0  0  0  0  0
   -6.6838   21.8755  -29.9182 H   0  0  0  0  0  0  0  0  0  0  0  0
   -4.0170   21.1378  -30.2371 H   0  0  0  0  0  0  0  0  0  0  0  0
   -4.9654   21.2941  -31.7546 H   0  0  0  0  0  0  0  0  0  0  0  0
   -3.2053   21.6528  -31.7546 H   0  0  0  0  0  0  0  0  0  0  0  0
   -6.2787   26.0396  -28.5620 H   0  0  0  0  0  0  0  0  0  0  0  0
   -5.9560   27.0265  -30.0278 H   0  0  0  0  0  0  0  0  0  0  0  0
   -7.2957   25.8299  -30.0278 H   0  0  0  0  0  0  0  0  0  0  0  0
   -9.5020   20.5907  -30.9230 H   0  0  0  0  0  0  0  0  0  0  0  0
   -9.1763   18.1886  -31.5136 H   0  0  0  0  0  0  0  0  0  0  0  0
  1  2  1  0
  2  3  2  0
  3  4  1  0
  4  5  2  0
  5  6  1  0
  6  7  1  0
  7  8  1  0
  8  9  1  0
  9 10  1  0
  9 11  2  0
 11 12  1  0
 12 13  1  0
 13 14  1  0
  5 15  1  0
 15 16  2  0
 16  2  1  0
 13  8  2  0
  1 17  1  0
  1 18  1  0
  1 19  1  0
  3 20  1  0
  4 21  1  0
  7 22  1  0
  7 23  1  0
 10 24  1  0
 10 25  1  0
 10 26  1  0
 14 27  1  0
 14 28  1  0
 14 29  1  0
 15 30  1  0
 16 31  1  0
M  END
>  <UniqueID>  (7) 
6

>  <SMILES>  (7) 
Cc1ccc(SCc2c(C)noc2C)cc1

>  <Energy>  (7) 
51.917639299914725

>  <Genealogy>  (7) 
Cc1ccc(SCc2c(C)noc2C)cc1 (3D coordinates assigned)
Cc1ccc(SCc2c(C)noc2C)cc1 (optimized conformer: 51.917639299914725 kcal/mol)

>  <smiles>  (7) 
Cc1ccc(SCc2c(C)noc2C)cc1

>  <score_type>  (7) 
oracle

>  <origin>  (7) 
adgpu

>  <m_score__min__energy>  (7) 
-8.4199999999999999

>  <m_primary>  (7) 
energy

$$$$
7:0
     RDKit          3D

 45 47  0  0  0  0  0  0  0  0999 V2000
   -2.0200   25.1020  -29.3030 N   0  0  0  0  0  0  0  0  0  0  0  0
   -3.4560   24.3650  -29.9220 S   0  0  0  0  0  0  0  0  0  0  0  0
   -4.1830   25.3660  -30.7780 O   0  0  0  0  0  0  0  0  0  0  0  0
   -4.3430   23.9490  -28.7830 O   0  0  0  0  0  0  0  0  0  0  0  0
   -3.0230   22.9520  -30.8750 C   0  0  0  0  0  0  0  0  0  0  0  0
   -1.9620   22.1350  -30.4640 C   0  0  0  0  0  0  0  0  0  0  0  0
   -1.5920   21.0260  -31.2290 C   0  0  0  0  0  0  0  0  0  0  0  0
   -2.2830   20.7110  -32.4060 C   0  0  0  0  0  0  0  0  0  0  0  0
   -1.8030   19.6280  -33.2140 N   0  0  0  0  0  0  0  0  0  0  0  0
   -2.3220   18.2940  -33.2340 C   0  0  0  0  0  0  0  0  0  0  0  0
   -1.9350   17.4410  -32.3900 O   0  0  0  0  0  0  0  0  0  0  0  0
   -3.3220   17.9060  -34.2760 C   0  0  0  0  0  0  0  0  0  0  0  0
   -4.3020   18.9320  -34.4300 O   0  0  0  0  0  0  0  0  0  0  0  0
   -5.5160   19.0080  -33.7270 C   0  0  0  0  0  0  0  0  0  0  0  0
   -6.2000   17.8020  -33.4510 C   0  0  0  0  0  0  0  0  0  0  0  0
   -7.4090   17.8030  -32.7330 C   0  0  0  0  0  0  0  0  0  0  0  0
   -7.9140   19.0290  -32.3090 C   0  0  0  0  0  0  0  0  0  0  0  0
   -9.0350   19.2470  -31.5990 N   0  0  0  0  0  0  0  0  0  0  0  0
   -9.1050   20.5840  -31.4100 C   0  0  0  0  0  0  0  0  0  0  0  0
   -8.0250   21.2170  -32.0170 C   0  0  0  0  0  0  0  0  0  0  0  0
   -7.7100   22.6830  -31.9750 C   0  0  0  0  0  0  0  0  0  0  0  0
   -7.0450   23.0720  -30.6520 C   0  0  0  0  0  0  0  0  0  0  0  0
   -6.6510   24.4760  -30.6590 N   0  0  0  0  0  0  0  0  0  0  0  0
   -7.2680   20.2060  -32.5800 C   0  0  0  0  0  0  0  0  0  0  0  0
   -6.0660   20.2390  -33.2880 C   0  0  0  0  0  0  0  0  0  0  0  0
   -3.3490   21.5330  -32.8170 C   0  0  0  0  0  0  0  0  0  0  0  0
   -3.7200   22.6410  -32.0500 C   0  0  0  0  0  0  0  0  0  0  0  0
   -1.5970   25.6500  -30.0850 H   0  0  0  0  0  0  0  0  0  0  0  0
   -1.4185   22.3672  -29.5363 H   0  0  0  0  0  0  0  0  0  0  0  0
   -0.7513   20.3952  -30.9044 H   0  0  0  0  0  0  0  0  0  0  0  0
   -2.8053   17.7512  -35.2347 H   0  0  0  0  0  0  0  0  0  0  0  0
   -3.8225   16.9779  -33.9628 H   0  0  0  0  0  0  0  0  0  0  0  0
   -5.7801   16.8483  -33.8033 H   0  0  0  0  0  0  0  0  0  0  0  0
   -7.9391   16.8645  -32.5133 H   0  0  0  0  0  0  0  0  0  0  0  0
   -9.7100   18.5300  -31.2490 H   0  0  0  0  0  0  0  0  0  0  0  0
   -9.9031   21.0985  -30.8548 H   0  0  0  0  0  0  0  0  0  0  0  0
   -7.0289   22.9269  -32.8036 H   0  0  0  0  0  0  0  0  0  0  0  0
   -8.6522   23.2431  -32.0676 H   0  0  0  0  0  0  0  0  0  0  0  0
   -7.7544   22.9014  -29.8288 H   0  0  0  0  0  0  0  0  0  0  0  0
   -6.1440   22.4555  -30.5177 H   0  0  0  0  0  0  0  0  0  0  0  0
   -6.0070   24.6300  -29.8490 H   0  0  0  0  0  0  0  0  0  0  0  0
   -6.0890   24.6540  -31.5230 H   0  0  0  0  0  0  0  0  0  0  0  0
   -5.5598   21.1924  -33.4994 H   0  0  0  0  0  0  0  0  0  0  0  0
   -3.8922   21.3026  -33.7454 H   0  0  0  0  0  0  0  0  0  0  0  0
   -4.5626   23.2714  -32.3702 H   0  0  0  0  0  0  0  0  0  0  0  0
  1  2  1  0
  2  3  2  0
  2  4  2  0
  2  5  1  0
  5  6  2  0
  6  7  1  0
  7  8  2  0
  8  9  1  0
  9 10  1  0
 10 11  2  0
 10 12  1  0
 12 13  1  0
 13 14  1  0
 14 15  2  0
 15 16  1  0
 16 17  2  0
 17 18  1  0
 18 19  1  0
 19 20  2  0
 20 21  1  0
 21 22  1  0
 22 23  1  0
 20 24  1  0
 24 25  2  0
  8 26  1  0
 26 27  2  0
 27  5  1  0
 25 14  1  0
 24 17  1  0
  1 28  1  0
  6 29  1  0
  7 30  1  0
 12 31  1  0
 12 32  1  0
 15 33  1  0
 16 34  1  0
 18 35  1  0
 19 36  1  0
 21 37  1  0
 21 38  1  0
 22 39  1  0
 22 40  1  0
 23 41  1  0
 23 42  1  0
 25 43  1  0
 26 44  1  0
 27 45  1  0
M  CHG  2   1  -1   9  -1
M  END
>  <UniqueID>  (8) 
7

>  <SMILES>  (8) 
[NH-]S(=O)(=O)c1ccc([N-]C(=O)COc2ccc3[nH]cc(CCN)c3c2)cc1

>  <Energy>  (8) 
74.44482468453423

>  <Genealogy>  (8) 
[NH-]S(=O)(=O)c1ccc([N-]C(=O)COc2ccc3[nH]cc(CCN)c3c2)cc1 (protonated)
[NH-]S(=O)(=O)c1ccc([N-]C(=O)COc2ccc3[nH]cc(CCN)c3c2)cc1 (3D coordinates assigned)
[NH-]S(=O)(=O)c1ccc([N-]C(=O)COc2ccc3[nH]cc(CCN)c3c2)cc1 (optimized conformer: 74.44482468453423 kcal/mol)

>  <smiles>  (8) 
NCCc1c[nH]c2ccc(OCC(=O)Nc3ccc(S(N)(=O)=O)cc3)cc12

>  <score_type>  (8) 
oracle

>  <origin>  (8) 
adgpu

>  <m_score__min__energy>  (8) 
-10.619999999999999

>  <m_primary>  (8) 
energy

$$$$
8:0
     RDKit          3D

 40 43  0  0  0  0  0  0  0  0999 V2000
   -0.9308   24.9862  -27.6933 H   0  0  0  0  0  0  0  0  0  0  0  0
   -1.8940   24.6630  -28.1150 C   0  0  0  0  0  0  0  0  0  0  0  0
   -2.3280   25.0710  -29.3370 N   0  0  0  0  0  0  0  0  0  0  0  0
   -3.5330   24.5470  -29.6430 C   0  0  0  0  0  0  0  0  0  0  0  0
   -4.1270   24.8020  -30.7730 N   0  0  0  0  0  0  0  0  0  0  0  0
   -5.4040   24.3180  -31.2220 C   0  0  0  0  0  0  0  0  0  0  0  0
   -6.4290   25.0510  -31.1790 O   0  0  0  0  0  0  0  0  0  0  0  0
   -5.5060   22.9690  -31.8210 C   0  0  0  0  0  0  0  0  0  0  0  0
   -4.3340   22.3810  -32.3250 C   0  0  0  0  0  0  0  0  0  0  0  0
   -3.3909   22.9472  -32.3161 H   0  0  0  0  0  0  0  0  0  0  0  0
   -4.3590   21.0750  -32.8400 C   0  0  0  0  0  0  0  0  0  0  0  0
   -3.1340   20.4200  -33.3650 C   0  0  0  0  0  0  0  0  0  0  0  0
   -3.1680   19.0620  -33.7270 C   0  0  0  0  0  0  0  0  0  0  0  0
   -4.1046   18.4943  -33.6245 H   0  0  0  0  0  0  0  0  0  0  0  0
   -2.0230   18.4260  -34.2160 C   0  0  0  0  0  0  0  0  0  0  0  0
   -2.0679   17.3644  -34.5007 H   0  0  0  0  0  0  0  0  0  0  0  0
   -0.8210   19.1290  -34.3460 C   0  0  0  0  0  0  0  0  0  0  0  0
    0.3000   18.4460  -34.8430 O   0  0  0  0  0  0  0  0  0  0  0  0
    0.3550   17.0390  -35.0550 C   0  0  0  0  0  0  0  0  0  0  0  0
    0.3752   16.5224  -34.0841 H   0  0  0  0  0  0  0  0  0  0  0  0
   -0.5313   16.7188  -35.6224 H   0  0  0  0  0  0  0  0  0  0  0  0
    1.2636   16.7889  -35.6224 H   0  0  0  0  0  0  0  0  0  0  0  0
   -0.7750   20.4840  -33.9740 C   0  0  0  0  0  0  0  0  0  0  0  0
    0.1662   21.0455  -34.0679 H   0  0  0  0  0  0  0  0  0  0  0  0
   -1.9200   21.1220  -33.4850 C   0  0  0  0  0  0  0  0  0  0  0  0
   -1.8711   22.1811  -33.1919 H   0  0  0  0  0  0  0  0  0  0  0  0
   -5.5370   20.3970  -32.8690 N   0  0  0  0  0  0  0  0  0  0  0  0
   -6.7000   20.9320  -32.4170 C   0  0  0  0  0  0  0  0  0  0  0  0
   -7.8770   20.1790  -32.4940 C   0  0  0  0  0  0  0  0  0  0  0  0
   -7.8477   19.1543  -32.8928 H   0  0  0  0  0  0  0  0  0  0  0  0
   -9.0880   20.7250  -32.0660 C   0  0  0  0  0  0  0  0  0  0  0  0
  -10.0092   20.1260  -32.1176 H   0  0  0  0  0  0  0  0  0  0  0  0
   -9.1320   22.0290  -31.5730 C   0  0  0  0  0  0  0  0  0  0  0  0
  -10.0908   22.4600  -31.2489 H   0  0  0  0  0  0  0  0  0  0  0  0
   -7.9620   22.7910  -31.4890 C   0  0  0  0  0  0  0  0  0  0  0  0
   -8.0080   23.8227  -31.1102 H   0  0  0  0  0  0  0  0  0  0  0  0
   -6.7230   22.2450  -31.8870 C   0  0  0  0  0  0  0  0  0  0  0  0
   -4.1050   23.5520  -28.4060 S   0  0  0  0  0  0  0  0  0  0  0  0
   -2.7560   23.8070  -27.4360 C   0  0  0  0  0  0  0  0  0  0  0  0
   -2.5847   23.3735  -26.4397 H   0  0  0  0  0  0  0  0  0  0  0  0
  1  2  1  0
  2  3  1  0
  3  4  1  0
  4  5  2  0
  5  6  1  0
  6  7  2  0
  6  8  1  0
  8  9  2  0
  9 10  1  0
  9 11  1  0
 11 12  1  0
 12 13  2  0
 13 14  1  0
 13 15  1  0
 15 16  1  0
 15 17  2  0
 17 18  1  0
 18 19  1  0
 19 20  1  0
 19 21  1  0
 19 22  1  0
 17 23  1  0
 23 24  1  0
 23 25  2  0
 25 26  1  0
 11 27  2  0
 27 28  1  0
 28 29  2  0
 29 30  1  0
 29 31  1  0
 31 32  1  0
 31 33  2  0
 33 34  1  0
 33 35  1  0
 35 36  1  0
 35 37  2  0
  4 38  1  0
 38 39  1  0
 39 40  1  0
 39  2  2  0
 37  8  1  0
 25 12  1  0
 37 28  1  0
M  CHG  1   3  -1
M  END
>  <UniqueID>  (9) 
8

>  <SMILES>  (9) 
COc1ccc(-c2cc(C(=O)/N=c3/[n-]ccs3)c3ccccc3n2)cc1

>  <Energy>  (9) 
91.89539105397536

>  <Genealogy>  (9) 
COc1ccc(-c2cc(C(=O)N=c3[n-]ccs3)c3ccccc3n2)cc1 (protonated)
COc1ccc(-c2cc(C(=O)/N=c3/[n-]ccs3)c3ccccc3n2)cc1 (cis-trans isomerization)
COc1ccc(-c2cc(C(=O)/N=c3/[n-]ccs3)c3ccccc3n2)cc1 (3D coordinates assigned)
COc1ccc(-c2cc(C(=O)/N=c3/[n-]ccs3)c3ccccc3n2)cc1 (optimized conformer: 91.89539105397536 kcal/mol)

>  <smiles>  (9) 
COc1ccc(-c2cc(C(=O)N=c3[nH]ccs3)c3ccccc3n2)cc1

>  <score_type>  (9) 
oracle

>  <origin>  (9) 
adgpu

>  <m_score__min__energy>  (9) 
-10.630000000000001

>  <m_primary>  (9) 
energy

$$$$
9:0
     RDKit          3D

 43 45  0  0  0  0  0  0  0  0999 V2000
    0.5620   17.3670  -27.5630 C   0  0  0  0  0  0  0  0  0  0  0  0
    0.2210   18.7980  -27.8440 C   0  0  0  0  0  0  0  0  0  0  0  0
    1.1420   19.6570  -27.8450 O   0  0  0  0  0  0  0  0  0  0  0  0
   -1.1160   19.2160  -28.1510 N   0  0  0  0  0  0  0  0  0  0  0  0
   -1.5400   20.5450  -28.4850 C   0  0  0  0  0  0  0  0  0  0  0  0
   -2.5530   21.1930  -27.7580 C   0  0  0  0  0  0  0  0  0  0  0  0
   -2.9360   22.4950  -28.0870 C   0  0  0  0  0  0  0  0  0  0  0  0
   -2.3110   23.1760  -29.1440 C   0  0  0  0  0  0  0  0  0  0  0  0
   -2.7210   24.5520  -29.5090 C   0  0  0  0  0  0  0  0  0  0  0  0
   -2.1780   25.5320  -28.9330 O   0  0  0  0  0  0  0  0  0  0  0  0
   -3.7610   24.8090  -30.4640 N   0  0  0  0  0  0  0  0  0  0  0  0
   -4.5760   23.8210  -31.1120 C   0  0  0  0  0  0  0  0  0  0  0  0
   -4.0220   22.6590  -31.6750 C   0  0  0  0  0  0  0  0  0  0  0  0
   -4.8450   21.7200  -32.3030 C   0  0  0  0  0  0  0  0  0  0  0  0
   -6.2290   21.9430  -32.4060 C   0  0  0  0  0  0  0  0  0  0  0  0
   -7.0810   21.0070  -33.0130 O   0  0  0  0  0  0  0  0  0  0  0  0
   -6.8020   19.6440  -33.1850 C   0  0  0  0  0  0  0  0  0  0  0  0
   -7.2000   18.6780  -32.2410 C   0  0  0  0  0  0  0  0  0  0  0  0
   -6.8900   17.3290  -32.4420 C   0  0  0  0  0  0  0  0  0  0  0  0
   -6.1700   16.9360  -33.5740 C   0  0  0  0  0  0  0  0  0  0  0  0
   -5.7790   15.2440  -33.8230 Cl  0  0  0  0  0  0  0  0  0  0  0  0
   -5.7550   17.8950  -34.5040 C   0  0  0  0  0  0  0  0  0  0  0  0
   -6.0650   19.2440  -34.3060 C   0  0  0  0  0  0  0  0  0  0  0  0
   -6.7800   23.1070  -31.8480 C   0  0  0  0  0  0  0  0  0  0  0  0
   -8.5070   23.4100  -31.9450 Cl  0  0  0  0  0  0  0  0  0  0  0  0
   -5.9530   24.0460  -31.2190 C   0  0  0  0  0  0  0  0  0  0  0  0
   -1.2640   22.5450  -29.8370 C   0  0  0  0  0  0  0  0  0  0  0  0
   -0.8780   21.2370  -29.5080 C   0  0  0  0  0  0  0  0  0  0  0  0
    0.1590   20.6170  -30.2040 O   0  0  0  0  0  0  0  0  0  0  0  0
    0.6004   17.2059  -26.4755 H   0  0  0  0  0  0  0  0  0  0  0  0
   -0.2056   16.7138  -28.0035 H   0  0  0  0  0  0  0  0  0  0  0  0
    1.5417   17.1302  -28.0035 H   0  0  0  0  0  0  0  0  0  0  0  0
   -3.0472   20.6717  -26.9249 H   0  0  0  0  0  0  0  0  0  0  0  0
   -3.7333   22.9908  -27.5138 H   0  0  0  0  0  0  0  0  0  0  0  0
   -2.9367   22.4877  -31.6213 H   0  0  0  0  0  0  0  0  0  0  0  0
   -4.4070   20.8008  -32.7192 H   0  0  0  0  0  0  0  0  0  0  0  0
   -7.7562   18.9851  -31.3431 H   0  0  0  0  0  0  0  0  0  0  0  0
   -7.2133   16.5761  -31.7081 H   0  0  0  0  0  0  0  0  0  0  0  0
   -5.1839   17.5874  -35.3924 H   0  0  0  0  0  0  0  0  0  0  0  0
   -5.7278   19.9953  -35.0353 H   0  0  0  0  0  0  0  0  0  0  0  0
   -6.3892   24.9675  -30.8059 H   0  0  0  0  0  0  0  0  0  0  0  0
   -0.7429   23.0810  -30.6439 H   0  0  0  0  0  0  0  0  0  0  0  0
    0.5400   19.7260  -29.9060 H   0  0  0  0  0  0  0  0  0  0  0  0
  1  2  1  0
  2  3  2  0
  2  4  1  0
  4  5  1  0
  5  6  2  0
  6  7  1  0
  7  8  2  0
  8  9  1  0
  9 10  2  0
  9 11  1  0
 11 12  1  0
 12 13  2  0
 13 14  1  0
 14 15  2  0
 15 16  1  0
 16 17  1  0
 17 18  2  0
 18 19  1  0
 19 20  2  0
 20 21  1  0
 20 22  1  0
 22 23  2  0
 15 24  1  0
 24 25  1  0
 24 26  2  0
  8 27  1  0
 27 28  2  0
 28 29  1  0
 28  5  1  0
 26 12  1  0
 23 17  1  0
  1 30  1  0
  1 31  1  0
  1 32  1  0
  6 33  1  0
  7 34  1  0
 13 35  1  0
 14 36  1  0
 18 37  1  0
 19 38  1  0
 22 39  1  0
 23 40  1  0
 26 41  1  0
 27 42  1  0
 29 43  1  0
M  CHG  2   4  -1  11  -1
M  END
>  <UniqueID>  (10) 
9

>  <SMILES>  (10) 
CC(=O)[N-]c1ccc(C(=O)[N-]c2ccc(Oc3ccc(Cl)cc3)c(Cl)c2)cc1O

>  <Energy>  (10) 
62.22330682445762

>  <Genealogy>  (10) 
CC(=O)[N-]c1ccc(C(=O)[N-]c2ccc(Oc3ccc(Cl)cc3)c(Cl)c2)cc1O (protonated)
CC(=O)[N-]c1ccc(C(=O)[N-]c2ccc(Oc3ccc(Cl)cc3)c(Cl)c2)cc1O (3D coordinates assigned)
CC(=O)[N-]c1ccc(C(=O)[N-]c2ccc(Oc3ccc(Cl)cc3)c(Cl)c2)cc1O (optimized conformer: 62.22330682445762 kcal/mol)

>  <smiles>  (10) 
CC(=O)Nc1ccc(C(=O)Nc2ccc(Oc3ccc(Cl)cc3)c(Cl)c2)cc1O

>  <score_type>  (10) 
oracle

>  <origin>  (10) 
adgpu

>  <m_score__min__energy>  (10) 
-10.66

>  <m_primary>  (10) 
energy

$$$$
10:0
     RDKit          3D

 49 52  0  0  0  0  0  0  0  0999 V2000
    0.1475   15.1820  -36.7393 H   0  0  0  0  0  0  0  0  0  0  0  0
   -0.3860   15.9400  -36.1470 C   0  0  0  0  0  0  0  0  0  0  0  0
   -1.6510   15.6990  -35.7180 N   0  0  0  0  0  0  0  0  0  0  0  0
   -2.3640   16.5910  -34.9760 C   0  0  0  0  0  0  0  0  0  0  0  0
   -3.6020   16.2730  -34.6990 N   0  0  0  0  0  0  0  0  0  0  0  0
   -4.6580   17.0710  -34.1480 C   0  0  0  0  0  0  0  0  0  0  0  0
   -5.1290   16.8530  -32.8420 C   0  0  0  0  0  0  0  0  0  0  0  0
   -4.7059   16.0387  -32.2354 H   0  0  0  0  0  0  0  0  0  0  0  0
   -6.1340   17.6680  -32.3110 C   0  0  0  0  0  0  0  0  0  0  0  0
   -6.5249   17.4716  -31.3017 H   0  0  0  0  0  0  0  0  0  0  0  0
   -6.6420   18.7320  -33.0620 C   0  0  0  0  0  0  0  0  0  0  0  0
   -8.0190   19.8400  -32.3430 Br  0  0  0  0  0  0  0  0  0  0  0  0
   -6.1300   18.9930  -34.3370 C   0  0  0  0  0  0  0  0  0  0  0  0
   -6.5119   19.8449  -34.9187 H   0  0  0  0  0  0  0  0  0  0  0  0
   -5.1330   18.1720  -34.8730 C   0  0  0  0  0  0  0  0  0  0  0  0
   -4.7197   18.3915  -35.8685 H   0  0  0  0  0  0  0  0  0  0  0  0
   -1.7280   17.8030  -34.5680 C   0  0  0  0  0  0  0  0  0  0  0  0
   -2.2740   18.7330  -33.5600 C   0  0  0  0  0  0  0  0  0  0  0  0
   -2.3840   18.3400  -32.3670 O   0  0  0  0  0  0  0  0  0  0  0  0
   -2.6890   20.0550  -33.9450 N   0  0  0  0  0  0  0  0  0  0  0  0
   -2.5130   20.3460  -34.9330 H   0  0  0  0  0  0  0  0  0  0  0  0
   -3.1500   21.0610  -33.0250 C   0  0  0  0  0  0  0  0  0  0  0  0
   -2.3240   21.5650  -32.0040 C   0  0  0  0  0  0  0  0  0  0  0  0
   -1.3018   21.1764  -31.8852 H   0  0  0  0  0  0  0  0  0  0  0  0
   -2.7960   22.5580  -31.1390 C   0  0  0  0  0  0  0  0  0  0  0  0
   -2.1385   22.9577  -30.3529 H   0  0  0  0  0  0  0  0  0  0  0  0
   -4.1020   23.0450  -31.2700 C   0  0  0  0  0  0  0  0  0  0  0  0
   -4.6950   24.3270  -30.2170 S   0  0  0  0  0  0  0  0  0  0  0  0
   -4.3680   25.6560  -30.8340 O   0  0  0  0  0  0  0  0  0  0  0  0
   -6.1860   24.2300  -30.0470 O   0  0  0  0  0  0  0  0  0  0  0  0
   -3.9290   24.2110  -28.6670 N   0  0  0  0  0  0  0  0  0  0  0  0
   -2.7430   24.6750  -28.4270 C   0  0  0  0  0  0  0  0  0  0  0  0
   -1.9670   25.2970  -29.3360 N   0  0  0  0  0  0  0  0  0  0  0  0
   -0.8690   25.6180  -28.7160 O   0  0  0  0  0  0  0  0  0  0  0  0
   -0.9060   25.2350  -27.4590 C   0  0  0  0  0  0  0  0  0  0  0  0
    0.1990   25.4420  -26.4790 C   0  0  0  0  0  0  0  0  0  0  0  0
   -0.1992   25.3674  -25.4563 H   0  0  0  0  0  0  0  0  0  0  0  0
    0.9710   24.6728  -26.6289 H   0  0  0  0  0  0  0  0  0  0  0  0
    0.6402   26.4384  -26.6289 H   0  0  0  0  0  0  0  0  0  0  0  0
   -2.1070   24.6060  -27.2080 C   0  0  0  0  0  0  0  0  0  0  0  0
   -2.4669   24.1606  -26.2688 H   0  0  0  0  0  0  0  0  0  0  0  0
   -4.9400   22.5200  -32.2610 C   0  0  0  0  0  0  0  0  0  0  0  0
   -5.9698   22.8930  -32.3631 H   0  0  0  0  0  0  0  0  0  0  0  0
   -4.4710   21.5230  -33.1210 C   0  0  0  0  0  0  0  0  0  0  0  0
   -5.1438   21.0969  -33.8798 H   0  0  0  0  0  0  0  0  0  0  0  0
   -0.4350   18.0730  -35.0450 C   0  0  0  0  0  0  0  0  0  0  0  0
    0.0522   19.0257  -34.7901 H   0  0  0  0  0  0  0  0  0  0  0  0
    0.2360   17.1450  -35.8380 C   0  0  0  0  0  0  0  0  0  0  0  0
    1.2460   17.3627  -36.2154 H   0  0  0  0  0  0  0  0  0  0  0  0
  1  2  1  0
  2  3  1  0
  3  4  1  0
  4  5  2  3
  5  6  1  0
  6  7  2  0
  7  8  1  0
  7  9  1  0
  9 10  1  0
  9 11  2  0
 11 12  1  0
 11 13  1  0
 13 14  1  0
 13 15  2  0
 15 16  1  0
  4 17  1  0
 17 18  1  0
 18 19  2  0
 18 20  1  0
 20 21  1  0
 20 22  1  0
 22 23  2  0
 23 24  1  0
 23 25  1  0
 25 26  1  0
 25 27  2  0
 27 28  1  0
 28 29  2  0
 28 30  2  0
 28 31  1  0
 31 32  2  0
 32 33  1  0
 33 34  1  0
 34 35  1  0
 35 36  1  0
 36 37  1  0
 36 38  1  0
 36 39  1  0
 35 40  2  0
 40 41  1  0
 27 42  1  0
 42 43  1  0
 42 44  2  0
 44 45  1  0
 17 46  2  0
 46 47  1  0
 46 48  1  0
 48 49  1  0
 48  2  2  0
 15  6  1  0
 44 22  1  0
 40 32  1  0
M  CHG  2   3  -1  33  -1
M  END
>  <UniqueID>  (11) 
10

>  <SMILES>  (11) 
Cc1c/c(=N/S(=O)(=O)c2ccc(NC(=O)c3ccc[n-]c3=Nc3ccc(Br)cc3)cc2)[n-]o1

>  <Energy>  (11) 
107.21427437382772

>  <Genealogy>  (11) 
Cc1cc(=NS(=O)(=O)c2ccc(NC(=O)c3ccc[n-]c3=Nc3ccc(Br)cc3)cc2)[n-]o1 (protonated)
Cc1c/c(=N/S(=O)(=O)c2ccc(NC(=O)c3ccc[n-]c3=Nc3ccc(Br)cc3)cc2)[n-]o1 (cis-trans isomerization)
Cc1c/c(=N/S(=O)(=O)c2ccc(NC(=O)c3ccc[n-]c3=Nc3ccc(Br)cc3)cc2)[n-]o1 (3D coordinates assigned)
Cc1c/c(=N/S(=O)(=O)c2ccc(NC(=O)c3ccc[n-]c3=Nc3ccc(Br)cc3)cc2)[n-]o1 (optimized conformer: 107.21427437382772 kcal/mol)

>  <smiles>  (11) 
Cc1cc(=NS(=O)(=O)c2ccc(NC(=O)c3ccc[nH]c3=Nc3ccc(Br)cc3)cc2)[nH]o1

>  <score_type>  (11) 
oracle

>  <origin>  (11) 
adgpu

>  <m_score__min__energy>  (11) 
-11.859999999999999

>  <m_primary>  (11) 
energy

$$$$
11:0
     RDKit          3D

 42 44  0  0  0  0  0  0  0  0999 V2000
   -5.3380   19.4090  -33.4920 C   0  0  0  0  0  0  0  0  0  0  0  0
   -4.8320   21.1020  -33.0560 S   0  0  0  0  0  0  0  0  0  0  0  0
   -6.4670   21.5740  -32.4760 C   0  0  0  0  0  0  0  0  0  0  0  0
   -7.5050   20.6350  -32.5300 C   0  0  0  0  0  0  0  0  0  0  0  0
   -8.7860   20.9760  -32.0920 C   0  0  0  0  0  0  0  0  0  0  0  0
   -9.0370   22.2600  -31.6020 C   0  0  0  0  0  0  0  0  0  0  0  0
   -8.0070   23.2020  -31.5410 C   0  0  0  0  0  0  0  0  0  0  0  0
   -6.7110   22.8700  -31.9810 C   0  0  0  0  0  0  0  0  0  0  0  0
   -5.6330   23.8160  -31.9350 N   0  0  0  0  0  0  0  0  0  0  0  0
   -4.8610   24.3920  -30.4930 S   0  0  0  0  0  0  0  0  0  0  0  0
   -5.9100   24.8890  -29.5390 O   0  0  0  0  0  0  0  0  0  0  0  0
   -3.9450   25.5330  -30.8410 O   0  0  0  0  0  0  0  0  0  0  0  0
   -3.9750   23.0780  -29.7260 C   0  0  0  0  0  0  0  0  0  0  0  0
   -3.4190   22.0650  -30.5180 C   0  0  0  0  0  0  0  0  0  0  0  0
   -2.7090   21.0180  -29.9240 C   0  0  0  0  0  0  0  0  0  0  0  0
   -2.5530   20.9660  -28.5290 C   0  0  0  0  0  0  0  0  0  0  0  0
   -1.8020   19.8910  -27.9360 N   0  0  0  0  0  0  0  0  0  0  0  0
   -0.5630   19.5980  -28.3000 N   0  0  0  0  0  0  0  0  0  0  0  0
   -0.1620   18.5380  -27.5700 C   0  0  0  0  0  0  0  0  0  0  0  0
    1.1550   17.9070  -27.6950 C   0  0  0  0  0  0  0  0  0  0  0  0
    1.2460   16.6870  -27.9920 O   0  0  0  0  0  0  0  0  0  0  0  0
    2.3100   18.6490  -27.4840 O   0  0  0  0  0  0  0  0  0  0  0  0
   -1.1770   18.1360  -26.7210 C   0  0  0  0  0  0  0  0  0  0  0  0
   -2.2100   19.0110  -26.9900 C   0  0  0  0  0  0  0  0  0  0  0  0
   -3.5680   18.9550  -26.3600 C   0  0  0  0  0  0  0  0  0  0  0  0
   -3.0900   21.9980  -27.7420 C   0  0  0  0  0  0  0  0  0  0  0  0
   -3.8030   23.0430  -28.3360 C   0  0  0  0  0  0  0  0  0  0  0  0
   -5.5111   18.8299  -32.5729 H   0  0  0  0  0  0  0  0  0  0  0  0
   -6.2649   19.4441  -34.0833 H   0  0  0  0  0  0  0  0  0  0  0  0
   -4.5438   18.9297  -34.0833 H   0  0  0  0  0  0  0  0  0  0  0  0
   -7.3100   19.6248  -32.9191 H   0  0  0  0  0  0  0  0  0  0  0  0
   -9.5972   20.2342  -32.1327 H   0  0  0  0  0  0  0  0  0  0  0  0
  -10.0481   22.5300  -31.2634 H   0  0  0  0  0  0  0  0  0  0  0  0
   -8.2095   24.2089  -31.1470 H   0  0  0  0  0  0  0  0  0  0  0  0
   -3.5416   22.0938  -31.6108 H   0  0  0  0  0  0  0  0  0  0  0  0
   -2.2696   20.2297  -30.5529 H   0  0  0  0  0  0  0  0  0  0  0  0
   -1.1640   17.3081  -25.9968 H   0  0  0  0  0  0  0  0  0  0  0  0
   -3.4646   18.9593  -25.2649 H   0  0  0  0  0  0  0  0  0  0  0  0
   -4.1553   19.8297  -26.6763 H   0  0  0  0  0  0  0  0  0  0  0  0
   -4.0813   18.0349  -26.6763 H   0  0  0  0  0  0  0  0  0  0  0  0
   -2.9485   21.9836  -26.6512 H   0  0  0  0  0  0  0  0  0  0  0  0
   -4.2304   23.8404  -27.7103 H   0  0  0  0  0  0  0  0  0  0  0  0
  1  2  1  0
  2  3  1  0
  3  4  2  0
  4  5  1  0
  5  6  2  0
  6  7  1  0
  7  8  2  0
  8  9  1  0
  9 10  1  0
 10 11  2  0
 10 12  2  0
 10 13  1  0
 13 14  2  0
 14 15  1  0
 15 16  2  0
 16 17  1  0
 17 18  1  0
 18 19  2  0
 19 20  1  0
 20 21  2  0
 20 22  1  0
 19 23  1  0
 23 24  2  0
 24 25  1  0
 16 26  1  0
 26 27  2  0
  8  3  1  0
 27 13  1  0
 24 17  1  0
  1 28  1  0
  1 29  1  0
  1 30  1  0
  4 31  1  0
  5 32  1  0
  6 33  1  0
  7 34  1  0
 14 35  1  0
 15 36  1  0
 23 37  1  0
 25 38  1  0
 25 39  1  0
 25 40  1  0
 26 41  1  0
 27 42  1  0
M  CHG  2   9  -1  22  -1
M  END
>  <UniqueID>  (12) 
11

>  <SMILES>  (12) 
CSc1ccccc1[N-]S(=O)(=O)c1ccc(-n2nc(C(=O)[O-])cc2C)cc1

>  <Energy>  (12) 
76.95024371328012

>  <Genealogy>  (12) 
CSc1ccccc1[N-]S(=O)(=O)c1ccc(-n2nc(C(=O)[O-])cc2C)cc1 (protonated)
CSc1ccccc1[N-]S(=O)(=O)c1ccc(-n2nc(C(=O)[O-])cc2C)cc1 (3D coordinates assigned)
CSc1ccccc1[N-]S(=O)(=O)c1ccc(-n2nc(C(=O)[O-])cc2C)cc1 (optimized conformer: 76.95024371328012 kcal/mol)

>  <smiles>  (12) 
CSc1ccccc1NS(=O)(=O)c1ccc(-n2nc(C(=O)O)cc2C)cc1

>  <score_type>  (12) 
oracle

>  <origin>  (12) 
adgpu

>  <m_score__min__energy>  (12) 
-10.16

>  <m_primary>  (12) 
energy

$$$$
12:0
     RDKit          3D

 31 33  0  0  0  0  0  0  0  0999 V2000
   -4.0893   18.9498  -26.3978 H   0  0  0  0  0  0  0  0  0  0  0  0
   -3.1310   19.3430  -26.7680 C   0  0  0  0  0  0  0  0  0  0  0  0
   -3.0710   20.5900  -27.3060 N   0  0  0  0  0  0  0  0  0  0  0  0
   -1.9080   21.1240  -27.7780 C   0  0  0  0  0  0  0  0  0  0  0  0
   -1.9360   22.4920  -28.3450 C   0  0  0  0  0  0  0  0  0  0  0  0
   -2.9660   22.8910  -29.1410 N   0  0  0  0  0  0  0  0  0  0  0  0
   -2.8220   24.1700  -29.5470 C   0  0  0  0  0  0  0  0  0  0  0  0
   -3.6490   24.7810  -30.3400 N   0  0  0  0  0  0  0  0  0  0  0  0
   -4.8830   24.2350  -30.8280 C   0  0  0  0  0  0  0  0  0  0  0  0
   -5.0810   23.1700  -31.6970 C   0  0  0  0  0  0  0  0  0  0  0  0
   -4.0450   22.3420  -32.3860 C   0  0  0  0  0  0  0  0  0  0  0  0
   -3.4173   21.8404  -31.6347 H   0  0  0  0  0  0  0  0  0  0  0  0
   -4.5383   21.5865  -33.0152 H   0  0  0  0  0  0  0  0  0  0  0  0
   -3.4168   22.9897  -33.0152 H   0  0  0  0  0  0  0  0  0  0  0  0
   -6.4070   22.9420  -31.8120 N   0  0  0  0  0  0  0  0  0  0  0  0
   -7.0390   23.8040  -31.0290 N   0  0  0  0  0  0  0  0  0  0  0  0
   -8.0780   23.8490  -30.9280 H   0  0  0  0  0  0  0  0  0  0  0  0
   -6.1420   24.5800  -30.3930 C   0  0  0  0  0  0  0  0  0  0  0  0
   -6.4920   25.6920  -29.4580 C   0  0  0  0  0  0  0  0  0  0  0  0
   -6.3831   25.3459  -28.4196 H   0  0  0  0  0  0  0  0  0  0  0  0
   -5.8186   26.5440  -29.6331 H   0  0  0  0  0  0  0  0  0  0  0  0
   -7.5320   26.0047  -29.6331 H   0  0  0  0  0  0  0  0  0  0  0  0
   -1.4100   24.8590  -28.9650 S   0  0  0  0  0  0  0  0  0  0  0  0
   -0.9590   23.4700  -28.1300 C   0  0  0  0  0  0  0  0  0  0  0  0
   -0.0516   23.3511  -27.5197 H   0  0  0  0  0  0  0  0  0  0  0  0
   -0.7280   20.3610  -27.7060 C   0  0  0  0  0  0  0  0  0  0  0  0
    0.2217   20.7725  -28.0784 H   0  0  0  0  0  0  0  0  0  0  0  0
   -0.7720   19.0770  -27.1580 C   0  0  0  0  0  0  0  0  0  0  0  0
    0.1449   18.4721  -27.0994 H   0  0  0  0  0  0  0  0  0  0  0  0
   -1.9790   18.5620  -26.6850 C   0  0  0  0  0  0  0  0  0  0  0  0
   -2.0214   17.5518  -26.2517 H   0  0  0  0  0  0  0  0  0  0  0  0
  1  2  1  0
  2  3  2  0
  3  4  1  0
  4  5  1  0
  5  6  1  0
  6  7  1  0
  7  8  2  0
  8  9  1  0
  9 10  1  0
 10 11  1  0
 11 12  1  0
 11 13  1  0
 11 14  1  0
 10 15  2  0
 15 16  1  0
 16 17  1  0
 16 18  1  0
 18 19  1  0
 19 20  1  0
 19 21  1  0
 19 22  1  0
  7 23  1  0
 23 24  1  0
 24 25  1  0
  4 26  2  0
 26 27  1  0
 26 28  1  0
 28 29  1  0
 28 30  2  0
 30 31  1  0
 30  2  1  0
 24  5  2  0
 18  9  2  0
M  CHG  1   6  -1
M  END
>  <UniqueID>  (13) 
12

>  <SMILES>  (13) 
Cc1n[nH]c(C)c1/N=c1\[n-]c(-c2ccccn2)cs1

>  <Energy>  (13) 
100.25783998753289

>  <Genealogy>  (13) 
Cc1n[nH]c(C)c1N=c1[n-]c(-c2ccccn2)cs1 (protonated)
Cc1n[nH]c(C)c1/N=c1\[n-]c(-c2ccccn2)cs1 (cis-trans isomerization)
Cc1n[nH]c(C)c1/N=c1\[n-]c(-c2ccccn2)cs1 (3D coordinates assigned)
Cc1n[nH]c(C)c1/N=c1\[n-]c(-c2ccccn2)cs1 (optimized conformer: 100.25783998753289 kcal/mol)

>  <smiles>  (13) 
Cc1n[nH]c(C)c1N=c1[nH]c(-c2ccccn2)cs1

>  <score_type>  (13) 
oracle

>  <origin>  (13) 
adgpu

>  <m_score__min__energy>  (13) 
-8.1400000000000006

>  <m_primary>  (13) 
energy

$$$$
13:0
     RDKit          3D

 47 50  0  0  0  0  0  0  0  0999 V2000
    0.7740   23.0140  -26.3960 N   0  0  0  0  0  0  0  0  0  0  0  0
    1.6800   24.4850  -26.4170 S   0  0  0  0  0  0  0  0  0  0  0  0
    1.9320   24.8640  -27.8500 O   0  0  0  0  0  0  0  0  0  0  0  0
    2.9990   24.2750  -25.7300 O   0  0  0  0  0  0  0  0  0  0  0  0
    0.7810   25.7760  -25.6010 C   0  0  0  0  0  0  0  0  0  0  0  0
    1.4340   26.5320  -24.6120 C   0  0  0  0  0  0  0  0  0  0  0  0
    0.7790   27.5890  -23.9760 C   0  0  0  0  0  0  0  0  0  0  0  0
   -0.5350   27.9070  -24.3220 C   0  0  0  0  0  0  0  0  0  0  0  0
   -1.2010   27.1620  -25.2950 C   0  0  0  0  0  0  0  0  0  0  0  0
   -0.5620   26.0860  -25.9340 C   0  0  0  0  0  0  0  0  0  0  0  0
   -1.3220   25.3130  -26.9360 C   0  0  0  0  0  0  0  0  0  0  0  0
   -2.6140   24.8570  -26.6390 C   0  0  0  0  0  0  0  0  0  0  0  0
   -3.3350   24.1220  -27.5840 C   0  0  0  0  0  0  0  0  0  0  0  0
   -2.7670   23.8100  -28.8280 C   0  0  0  0  0  0  0  0  0  0  0  0
   -3.5390   23.0730  -29.7920 N   0  0  0  0  0  0  0  0  0  0  0  0
   -4.5510   23.6630  -30.6270 C   0  0  0  0  0  0  0  0  0  0  0  0
   -4.5880   24.9120  -30.7910 O   0  0  0  0  0  0  0  0  0  0  0  0
   -5.5300   22.8240  -31.3360 C   0  0  0  0  0  0  0  0  0  0  0  0
   -6.7720   23.2150  -31.8000 C   0  0  0  0  0  0  0  0  0  0  0  0
   -7.3180   22.0990  -32.3980 C   0  0  0  0  0  0  0  0  0  0  0  0
   -6.3740   21.0930  -32.2630 C   0  0  0  0  0  0  0  0  0  0  0  0
   -6.4820   19.6940  -32.7430 C   0  0  0  0  0  0  0  0  0  0  0  0
   -5.8430   19.2700  -33.9240 C   0  0  0  0  0  0  0  0  0  0  0  0
   -5.9610   17.9440  -34.3550 C   0  0  0  0  0  0  0  0  0  0  0  0
   -6.7160   17.0300  -33.6150 C   0  0  0  0  0  0  0  0  0  0  0  0
   -6.8610   15.3680  -34.1580 Cl  0  0  0  0  0  0  0  0  0  0  0  0
   -7.3540   17.4410  -32.4420 C   0  0  0  0  0  0  0  0  0  0  0  0
   -7.2390   18.7650  -32.0070 C   0  0  0  0  0  0  0  0  0  0  0  0
   -5.3230   21.5600  -31.6270 O   0  0  0  0  0  0  0  0  0  0  0  0
   -1.4710   24.2740  -29.1250 C   0  0  0  0  0  0  0  0  0  0  0  0
   -0.7520   25.0090  -28.1800 C   0  0  0  0  0  0  0  0  0  0  0  0
    1.4250   22.2500  -26.6840 H   0  0  0  0  0  0  0  0  0  0  0  0
    2.4708   26.2888  -24.3364 H   0  0  0  0  0  0  0  0  0  0  0  0
    1.2995   28.1715  -23.2015 H   0  0  0  0  0  0  0  0  0  0  0  0
   -1.0459   28.7460  -23.8269 H   0  0  0  0  0  0  0  0  0  0  0  0
   -2.2360   27.4191  -25.5646 H   0  0  0  0  0  0  0  0  0  0  0  0
   -3.0617   25.0785  -25.6589 H   0  0  0  0  0  0  0  0  0  0  0  0
   -4.3559   23.7855  -27.3504 H   0  0  0  0  0  0  0  0  0  0  0  0
   -3.2790   22.0760  -29.9620 H   0  0  0  0  0  0  0  0  0  0  0  0
   -7.2302   24.2110  -31.7106 H   0  0  0  0  0  0  0  0  0  0  0  0
   -8.3022   22.0226  -32.8833 H   0  0  0  0  0  0  0  0  0  0  0  0
   -5.2478   19.9851  -34.5109 H   0  0  0  0  0  0  0  0  0  0  0  0
   -5.4584   17.6203  -35.2784 H   0  0  0  0  0  0  0  0  0  0  0  0
   -7.9481   16.7215  -31.8594 H   0  0  0  0  0  0  0  0  0  0  0  0
   -7.7441   19.0821  -31.0827 H   0  0  0  0  0  0  0  0  0  0  0  0
   -1.0230   24.0565  -30.1058 H   0  0  0  0  0  0  0  0  0  0  0  0
    0.2671   25.3512  -28.4131 H   0  0  0  0  0  0  0  0  0  0  0  0
  1  2  1  0
  2  3  2  0
  2  4  2  0
  2  5  1  0
  5  6  2  0
  6  7  1  0
  7  8  2  0
  8  9  1  0
  9 10  2  0
 10 11  1  0
 11 12  2  0
 12 13  1  0
 13 14  2  0
 14 15  1  0
 15 16  1  0
 16 17  2  0
 16 18  1  0
 18 19  2  0
 19 20  1  0
 20 21  2  0
 21 22  1  0
 22 23  2  0
 23 24  1  0
 24 25  2  0
 25 26  1  0
 25 27  1  0
 27 28  2  0
 21 29  1  0
 14 30  1  0
 30 31  2  0
 10  5  1  0
 31 11  1  0
 29 18  1  0
 28 22  1  0
  1 32  1  0
  6 33  1  0
  7 34  1  0
  8 35  1  0
  9 36  1  0
 12 37  1  0
 13 38  1  0
 15 39  1  0
 19 40  1  0
 20 41  1  0
 23 42  1  0
 24 43  1  0
 27 44  1  0
 28 45  1  0
 30 46  1  0
 31 47  1  0
M  CHG  1   1  -1
M  END
>  <UniqueID>  (14) 
13

>  <SMILES>  (14) 
[NH-]S(=O)(=O)c1ccccc1-c1ccc(NC(=O)c2ccc(-c3ccc(Cl)cc3)o2)cc1

>  <Energy>  (14) 
90.04622955373905

>  <Genealogy>  (14) 
[NH-]S(=O)(=O)c1ccccc1-c1ccc(NC(=O)c2ccc(-c3ccc(Cl)cc3)o2)cc1 (protonated)
[NH-]S(=O)(=O)c1ccccc1-c1ccc(NC(=O)c2ccc(-c3ccc(Cl)cc3)o2)cc1 (3D coordinates assigned)
[NH-]S(=O)(=O)c1ccccc1-c1ccc(NC(=O)c2ccc(-c3ccc(Cl)cc3)o2)cc1 (optimized conformer: 90.04622955373905 kcal/mol)

>  <smiles>  (14) 
NS(=O)(=O)c1ccccc1-c1ccc(NC(=O)c2ccc(-c3ccc(Cl)cc3)o2)cc1

>  <score_type>  (14) 
oracle

>  <origin>  (14) 
adgpu

>  <m_score__min__energy>  (14) 
-10.15

>  <m_primary>  (14) 
energy

$$$$
14:0
     RDKit          3D

 34 35  0  0  0  0  0  0  0  0999 V2000
   -0.6380   22.5547  -26.7085 H   0  0  0  0  0  0  0  0  0  0  0  0
   -1.2180   23.1250  -27.4490 C   0  0  0  0  0  0  0  0  0  0  0  0
   -0.9090   24.4650  -27.6980 C   0  0  0  0  0  0  0  0  0  0  0  0
   -0.0809   24.9471  -27.1578 H   0  0  0  0  0  0  0  0  0  0  0  0
   -1.6510   25.1940  -28.6330 C   0  0  0  0  0  0  0  0  0  0  0  0
   -1.3957   26.2445  -28.8363 H   0  0  0  0  0  0  0  0  0  0  0  0
   -2.7220   24.5890  -29.3140 C   0  0  0  0  0  0  0  0  0  0  0  0
   -3.4880   25.3000  -30.2970 N   0  0  0  0  0  0  0  0  0  0  0  0
   -4.8890   25.1390  -30.5550 C   0  0  0  0  0  0  0  0  0  0  0  0
   -5.6370   26.1480  -30.4660 O   0  0  0  0  0  0  0  0  0  0  0  0
   -5.4550   23.8440  -30.9910 C   0  0  0  0  0  0  0  0  0  0  0  0
   -4.8620   23.1440  -31.9930 N   0  0  0  0  0  0  0  0  0  0  0  0
   -5.3590   21.9590  -32.4260 C   0  0  0  0  0  0  0  0  0  0  0  0
   -4.8537   21.4121  -33.2357 H   0  0  0  0  0  0  0  0  0  0  0  0
   -6.5170   21.4330  -31.8400 C   0  0  0  0  0  0  0  0  0  0  0  0
   -6.9670   20.2880  -32.2800 N   0  0  0  0  0  0  0  0  0  0  0  0
   -8.1320   19.4850  -31.8840 C   0  0  0  0  0  0  0  0  0  0  0  0
   -8.1654   19.5010  -30.7846 H   0  0  0  0  0  0  0  0  0  0  0  0
   -7.9850   18.0080  -32.2700 C   0  0  0  0  0  0  0  0  0  0  0  0
   -7.9240   17.3951  -31.3586 H   0  0  0  0  0  0  0  0  0  0  0  0
   -8.8565   17.6958  -32.8641 H   0  0  0  0  0  0  0  0  0  0  0  0
   -7.0691   17.8737  -32.8641 H   0  0  0  0  0  0  0  0  0  0  0  0
   -9.4580   20.1060  -32.3450 C   0  0  0  0  0  0  0  0  0  0  0  0
  -10.0568   20.3864  -31.4659 H   0  0  0  0  0  0  0  0  0  0  0  0
   -9.2528   21.0017  -32.9497 H   0  0  0  0  0  0  0  0  0  0  0  0
  -10.0146   19.3749  -32.9497 H   0  0  0  0  0  0  0  0  0  0  0  0
   -7.1240   22.1380  -30.8370 N   0  0  0  0  0  0  0  0  0  0  0  0
   -7.9840   21.8000  -30.3670 H   0  0  0  0  0  0  0  0  0  0  0  0
   -6.6200   23.3270  -30.4080 C   0  0  0  0  0  0  0  0  0  0  0  0
   -7.1264   23.8818  -29.6044 H   0  0  0  0  0  0  0  0  0  0  0  0
   -3.0090   23.2370  -29.0770 C   0  0  0  0  0  0  0  0  0  0  0  0
   -3.8235   22.7456  -29.6293 H   0  0  0  0  0  0  0  0  0  0  0  0
   -2.2650   22.5100  -28.1420 C   0  0  0  0  0  0  0  0  0  0  0  0
   -2.5039   21.4533  -27.9517 H   0  0  0  0  0  0  0  0  0  0  0  0
  1  2  1  0
  2  3  2  0
  3  4  1  0
  3  5  1  0
  5  6  1  0
  5  7  2  0
  7  8  1  0
  8  9  1  0
  9 10  2  0
  9 11  1  0
 11 12  1  0
 12 13  2  0
 13 14  1  0
 13 15  1  0
 15 16  2  0
 16 17  1  0
 17 18  1  0
 17 19  1  0
 19 20  1  0
 19 21  1  0
 19 22  1  0
 17 23  1  0
 23 24  1  0
 23 25  1  0
 23 26  1  0
 15 27  1  0
 27 28  1  0
 27 29  1  0
 29 30  1  0
  7 31  1  0
 31 32  1  0
 31 33  2  0
 33 34  1  0
 33  2  1  0
 29 11  2  0
M  CHG  1   8  -1
M  END
>  <UniqueID>  (15) 
14

>  <SMILES>  (15) 
CC(C)/N=c1/cnc(C(=O)[N-]c2ccccc2)c[nH]1

>  <Energy>  (15) 
43.702101766448344

>  <Genealogy>  (15) 
CC(C)N=c1cnc(C(=O)[N-]c2ccccc2)c[nH]1 (protonated)
CC(C)/N=c1/cnc(C(=O)[N-]c2ccccc2)c[nH]1 (cis-trans isomerization)
CC(C)/N=c1/cnc(C(=O)[N-]c2ccccc2)c[nH]1 (3D coordinates assigned)
CC(C)/N=c1/cnc(C(=O)[N-]c2ccccc2)c[nH]1 (optimized conformer: 43.702101766448344 kcal/mol)

>  <smiles>  (15) 
CC(C)N=c1cnc(C(=O)Nc2ccccc2)c[nH]1

>  <score_type>  (15) 
oracle

>  <origin>  (15) 
adgpu

>  <m_score__min__energy>  (15) 
-8.7400000000000002

>  <m_primary>  (15) 
energy

$$$$
15:0
     RDKit          3D

 48 51  0  0  0  0  0  0  0  0999 V2000
   -5.6420   15.3140  -33.7860 C   0  0  0  0  0  0  0  0  0  0  0  0
   -6.6260   16.2890  -34.1220 O   0  0  0  0  0  0  0  0  0  0  0  0
   -6.6760   17.5850  -33.5880 C   0  0  0  0  0  0  0  0  0  0  0  0
   -7.6050   17.9500  -32.5970 C   0  0  0  0  0  0  0  0  0  0  0  0
   -7.6290   19.2500  -32.0910 C   0  0  0  0  0  0  0  0  0  0  0  0
   -6.7210   20.2150  -32.5600 C   0  0  0  0  0  0  0  0  0  0  0  0
   -6.7350   21.6030  -32.0340 C   0  0  0  0  0  0  0  0  0  0  0  0
   -6.2930   22.0300  -30.7940 C   0  0  0  0  0  0  0  0  0  0  0  0
   -6.5270   23.3890  -30.8180 C   0  0  0  0  0  0  0  0  0  0  0  0
   -6.2010   24.3610  -29.7320 C   0  0  0  0  0  0  0  0  0  0  0  0
   -4.8400   24.1360  -29.2590 N   0  0  0  0  0  0  0  0  0  0  0  0
   -4.4150   23.0680  -28.5570 C   0  0  0  0  0  0  0  0  0  0  0  0
   -3.0560   23.1880  -28.3670 C   0  0  0  0  0  0  0  0  0  0  0  0
   -1.9350   21.9460  -27.4420 Br  0  0  0  0  0  0  0  0  0  0  0  0
   -2.7200   24.3720  -29.0040 C   0  0  0  0  0  0  0  0  0  0  0  0
   -1.4130   24.9490  -29.1090 N   0  0  0  0  0  0  0  0  0  0  0  0
   -0.4280   24.2190  -29.3430 O   0  0  0  0  0  0  0  0  0  0  0  0
   -1.2230   26.3020  -28.9570 O   0  0  0  0  0  0  0  0  0  0  0  0
   -3.8200   24.9290  -29.5470 N   0  0  0  0  0  0  0  0  0  0  0  0
   -7.0520   23.7120  -31.9750 O   0  0  0  0  0  0  0  0  0  0  0  0
   -7.1940   22.6640  -32.7320 N   0  0  0  0  0  0  0  0  0  0  0  0
   -5.7900   19.8470  -33.5450 C   0  0  0  0  0  0  0  0  0  0  0  0
   -5.7660   18.5390  -34.0680 C   0  0  0  0  0  0  0  0  0  0  0  0
   -4.8550   18.1450  -35.0630 O   0  0  0  0  0  0  0  0  0  0  0  0
   -3.5230   17.6840  -34.8330 C   0  0  0  0  0  0  0  0  0  0  0  0
   -2.7720   18.6390  -33.9420 C   0  0  0  0  0  0  0  0  0  0  0  0
   -2.8040   20.0220  -34.1890 C   0  0  0  0  0  0  0  0  0  0  0  0
   -2.1050   20.9020  -33.3580 C   0  0  0  0  0  0  0  0  0  0  0  0
   -1.3800   20.4110  -32.2680 C   0  0  0  0  0  0  0  0  0  0  0  0
   -0.5050   21.5180  -31.2260 Cl  0  0  0  0  0  0  0  0  0  0  0  0
   -1.3550   19.0380  -32.0080 C   0  0  0  0  0  0  0  0  0  0  0  0
   -2.0510   18.1530  -32.8390 C   0  0  0  0  0  0  0  0  0  0  0  0
   -5.5625   15.2353  -32.6917 H   0  0  0  0  0  0  0  0  0  0  0  0
   -5.9342   14.3392  -34.2035 H   0  0  0  0  0  0  0  0  0  0  0  0
   -4.6699   15.6152  -34.2035 H   0  0  0  0  0  0  0  0  0  0  0  0
   -8.3188   17.2040  -32.2176 H   0  0  0  0  0  0  0  0  0  0  0  0
   -8.3641   19.5218  -31.3192 H   0  0  0  0  0  0  0  0  0  0  0  0
   -5.8583   21.4284  -29.9821 H   0  0  0  0  0  0  0  0  0  0  0  0
   -6.2873   25.3861  -30.1215 H   0  0  0  0  0  0  0  0  0  0  0  0
   -6.9032   24.2211  -28.8969 H   0  0  0  0  0  0  0  0  0  0  0  0
   -5.0453   22.2414  -28.1970 H   0  0  0  0  0  0  0  0  0  0  0  0
   -5.0687   20.5912  -33.9137 H   0  0  0  0  0  0  0  0  0  0  0  0
   -3.5616   16.6960  -34.3510 H   0  0  0  0  0  0  0  0  0  0  0  0
   -3.0010   17.6190  -35.7990 H   0  0  0  0  0  0  0  0  0  0  0  0
   -3.3813   20.4135  -35.0395 H   0  0  0  0  0  0  0  0  0  0  0  0
   -2.1253   21.9827  -33.5619 H   0  0  0  0  0  0  0  0  0  0  0  0
   -0.7871   18.6523  -31.1485 H   0  0  0  0  0  0  0  0  0  0  0  0
   -2.0334   17.0736  -32.6278 H   0  0  0  0  0  0  0  0  0  0  0  0
  1  2  1  0
  2  3  1  0
  3  4  2  0
  4  5  1  0
  5  6  2  0
  6  7  1  0
  7  8  1  0
  8  9  2  0
  9 10  1  0
 10 11  1  0
 11 12  1  0
 12 13  2  0
 13 14  1  0
 13 15  1  0
 15 16  1  0
 16 17  2  0
 16 18  1  0
 15 19  2  0
  9 20  1  0
 20 21  1  0
  6 22  1  0
 22 23  2  0
 23 24  1  0
 24 25  1  0
 25 26  1  0
 26 27  2  0
 27 28  1  0
 28 29  2  0
 29 30  1  0
 29 31  1  0
 31 32  2  0
 23  3  1  0
 32 26  1  0
 21  7  2  0
 19 11  1  0
  1 33  1  0
  1 34  1  0
  1 35  1  0
  4 36  1  0
  5 37  1  0
  8 38  1  0
 10 39  1  0
 10 40  1  0
 12 41  1  0
 22 42  1  0
 25 43  1  0
 25 44  1  0
 27 45  1  0
 28 46  1  0
 31 47  1  0
 32 48  1  0
M  CHG  2  16   1  18  -1
M  END
>  <UniqueID>  (16) 
15

>  <SMILES>  (16) 
COc1ccc(-c2cc(Cn3cc(Br)c([N+](=O)[O-])n3)on2)cc1OCc1ccc(Cl)cc1

>  <Energy>  (16) 
111.97915355263898

>  <Genealogy>  (16) 
COc1ccc(-c2cc(Cn3cc(Br)c([N+](=O)[O-])n3)on2)cc1OCc1ccc(Cl)cc1 (3D coordinates assigned)
COc1ccc(-c2cc(Cn3cc(Br)c([N+](=O)[O-])n3)on2)cc1OCc1ccc(Cl)cc1 (optimized conformer: 111.97915355263898 kcal/mol)

>  <smiles>  (16) 
COc1ccc(-c2cc(Cn3cc(Br)c([N+](=O)[O-])n3)on2)cc1OCc1ccc(Cl)cc1

>  <score_type>  (16) 
oracle

>  <origin>  (16) 
adgpu

>  <m_score__min__energy>  (16) 
-10.19

>  <m_primary>  (16) 
energy

$$$$
16:0
     RDKit          3D

 30 31  0  0  0  0  0  0  0  0999 V2000
   -2.7155   20.1123  -30.9369 H   0  0  0  0  0  0  0  0  0  0  0  0
   -2.0610   20.8360  -30.4290 C   0  0  0  0  0  0  0  0  0  0  0  0
   -1.2600   21.7160  -31.0620 N   0  0  0  0  0  0  0  0  0  0  0  0
   -0.6380   22.4230  -30.1270 N   0  0  0  0  0  0  0  0  0  0  0  0
   -1.0680   21.9590  -28.9390 C   0  0  0  0  0  0  0  0  0  0  0  0
   -0.5350   22.6260  -27.3590 S   0  0  0  0  0  0  0  0  0  0  0  0
   -0.1040   24.2700  -28.0260 C   0  0  0  0  0  0  0  0  0  0  0  0
    0.5913   24.1472  -28.8695 H   0  0  0  0  0  0  0  0  0  0  0  0
    0.3666   24.8643  -27.2289 H   0  0  0  0  0  0  0  0  0  0  0  0
   -1.3290   24.9820  -28.4990 C   0  0  0  0  0  0  0  0  0  0  0  0
   -1.2260   26.1460  -28.9760 O   0  0  0  0  0  0  0  0  0  0  0  0
   -2.6070   24.3420  -28.3680 N   0  0  0  0  0  0  0  0  0  0  0  0
   -3.5550   24.3360  -29.2570 C   0  0  0  0  0  0  0  0  0  0  0  0
   -3.4810   24.9470  -30.4600 N   0  0  0  0  0  0  0  0  0  0  0  0
   -4.5900   24.8030  -31.1840 N   0  0  0  0  0  0  0  0  0  0  0  0
   -5.5430   24.0830  -30.5530 C   0  0  0  0  0  0  0  0  0  0  0  0
   -7.1390   23.7050  -31.2720 S   0  0  0  0  0  0  0  0  0  0  0  0
   -6.6930   22.0000  -31.7580 C   0  0  0  0  0  0  0  0  0  0  0  0
   -7.4078   21.6431  -32.5141 H   0  0  0  0  0  0  0  0  0  0  0  0
   -6.7264   21.3610  -30.8632 H   0  0  0  0  0  0  0  0  0  0  0  0
   -5.2860   21.9470  -32.3390 C   0  0  0  0  0  0  0  0  0  0  0  0
   -4.5520   21.9194  -31.5202 H   0  0  0  0  0  0  0  0  0  0  0  0
   -5.1788   21.0442  -32.9582 H   0  0  0  0  0  0  0  0  0  0  0  0
   -5.1111   22.8392  -32.9582 H   0  0  0  0  0  0  0  0  0  0  0  0
   -5.0360   23.5700  -29.0300 S   0  0  0  0  0  0  0  0  0  0  0  0
   -1.9540   20.9600  -29.0940 N   0  0  0  0  0  0  0  0  0  0  0  0
   -2.7210   20.2590  -28.0710 C   0  0  0  0  0  0  0  0  0  0  0  0
   -2.3768   20.5736  -27.0747 H   0  0  0  0  0  0  0  0  0  0  0  0
   -3.7883   20.5003  -28.1833 H   0  0  0  0  0  0  0  0  0  0  0  0
   -2.5765   19.1743  -28.1833 H   0  0  0  0  0  0  0  0  0  0  0  0
  1  2  1  0
  2  3  2  0
  3  4  1  0
  4  5  2  0
  5  6  1  0
  6  7  1  0
  7  8  1  0
  7  9  1  0
  7 10  1  0
 10 11  2  0
 10 12  1  0
 12 13  2  0
 13 14  1  0
 14 15  1  0
 15 16  2  0
 16 17  1  0
 17 18  1  0
 18 19  1  0
 18 20  1  0
 18 21  1  0
 21 22  1  0
 21 23  1  0
 21 24  1  0
 16 25  1  0
  5 26  1  0
 26 27  1  0
 27 28  1  0
 27 29  1  0
 27 30  1  0
 26  2  1  0
 25 13  1  0
M  CHG  1  14  -1
M  END
>  <UniqueID>  (17) 
16

>  <SMILES>  (17) 
CCSc1n[n-]/c(=N\C(=O)CSc2nncn2C)s1

>  <Energy>  (17) 
88.47520777546087

>  <Genealogy>  (17) 
CCSc1n[n-]c(=NC(=O)CSc2nncn2C)s1 (protonated)
CCSc1n[n-]/c(=N\C(=O)CSc2nncn2C)s1 (cis-trans isomerization)
CCSc1n[n-]/c(=N\C(=O)CSc2nncn2C)s1 (3D coordinates assigned)
CCSc1n[n-]/c(=N\C(=O)CSc2nncn2C)s1 (optimized conformer: 88.47520777546087 kcal/mol)

>  <smiles>  (17) 
CCSc1n[nH]c(=NC(=O)CSc2nncn2C)s1

>  <score_type>  (17) 
oracle

>  <origin>  (17) 
adgpu

>  <m_score__min__energy>  (17) 
-8.5

>  <m_primary>  (17) 
energy

$$$$
17:0
     RDKit          3D

 47 50  0  0  0  0  0  0  0  0999 V2000
   -4.1000   17.1170  -35.2350 C   0  0  0  0  0  0  0  0  0  0  0  0
   -5.0000   17.2630  -34.0460 C   0  0  0  0  0  0  0  0  0  0  0  0
   -4.7730   16.5100  -32.8830 C   0  0  0  0  0  0  0  0  0  0  0  0
   -5.6310   16.6360  -31.7880 C   0  0  0  0  0  0  0  0  0  0  0  0
   -6.7320   17.4950  -31.8510 C   0  0  0  0  0  0  0  0  0  0  0  0
   -6.9890   18.2340  -33.0210 C   0  0  0  0  0  0  0  0  0  0  0  0
   -8.1210   19.1080  -33.1330 N   0  0  0  0  0  0  0  0  0  0  0  0
   -8.7510   20.0800  -31.8390 S   0  0  0  0  0  0  0  0  0  0  0  0
   -9.9650   20.8180  -32.3280 O   0  0  0  0  0  0  0  0  0  0  0  0
   -9.1440   19.1910  -30.6930 O   0  0  0  0  0  0  0  0  0  0  0  0
   -7.5110   21.2030  -31.2920 C   0  0  0  0  0  0  0  0  0  0  0  0
   -6.2160   21.1530  -31.8220 C   0  0  0  0  0  0  0  0  0  0  0  0
   -5.2180   21.9900  -31.3190 C   0  0  0  0  0  0  0  0  0  0  0  0
   -5.4950   22.8790  -30.2710 C   0  0  0  0  0  0  0  0  0  0  0  0
   -4.4390   23.7030  -29.7490 N   0  0  0  0  0  0  0  0  0  0  0  0
   -3.3460   23.2050  -28.9600 C   0  0  0  0  0  0  0  0  0  0  0  0
   -3.2950   21.9870  -28.6420 O   0  0  0  0  0  0  0  0  0  0  0  0
   -2.2930   24.1370  -28.4990 C   0  0  0  0  0  0  0  0  0  0  0  0
   -2.1440   25.2990  -29.1860 N   0  0  0  0  0  0  0  0  0  0  0  0
   -1.2480   26.2210  -28.8380 N   0  0  0  0  0  0  0  0  0  0  0  0
   -0.4310   26.0560  -27.7700 C   0  0  0  0  0  0  0  0  0  0  0  0
    0.3980   26.9620  -27.4830 O   0  0  0  0  0  0  0  0  0  0  0  0
   -0.5090   24.8770  -27.0130 C   0  0  0  0  0  0  0  0  0  0  0  0
    0.3390   24.6620  -25.9110 C   0  0  0  0  0  0  0  0  0  0  0  0
    0.2800   23.4630  -25.1990 C   0  0  0  0  0  0  0  0  0  0  0  0
   -0.6130   22.4660  -25.5830 C   0  0  0  0  0  0  0  0  0  0  0  0
   -1.4660   22.6650  -26.6710 C   0  0  0  0  0  0  0  0  0  0  0  0
   -1.4480   23.8830  -27.3890 C   0  0  0  0  0  0  0  0  0  0  0  0
   -6.8070   22.9590  -29.7750 C   0  0  0  0  0  0  0  0  0  0  0  0
   -7.8060   22.1220  -30.2780 C   0  0  0  0  0  0  0  0  0  0  0  0
   -6.1150   18.1190  -34.1100 C   0  0  0  0  0  0  0  0  0  0  0  0
   -3.0674   16.9495  -34.8949 H   0  0  0  0  0  0  0  0  0  0  0  0
   -4.4298   16.2606  -35.8415 H   0  0  0  0  0  0  0  0  0  0  0  0
   -4.1421   18.0337  -35.8415 H   0  0  0  0  0  0  0  0  0  0  0  0
   -3.9180   15.8196  -32.8340 H   0  0  0  0  0  0  0  0  0  0  0  0
   -5.4395   16.0570  -30.8725 H   0  0  0  0  0  0  0  0  0  0  0  0
   -7.4002   17.5938  -30.9828 H   0  0  0  0  0  0  0  0  0  0  0  0
   -5.9841   20.4520  -32.6374 H   0  0  0  0  0  0  0  0  0  0  0  0
   -4.2061   21.9515  -31.7486 H   0  0  0  0  0  0  0  0  0  0  0  0
   -4.3500   24.6710  -30.1320 H   0  0  0  0  0  0  0  0  0  0  0  0
    1.0523   25.4431  -25.6090 H   0  0  0  0  0  0  0  0  0  0  0  0
    0.9400   23.3054  -24.3332 H   0  0  0  0  0  0  0  0  0  0  0  0
   -0.6468   21.5174  -25.0270 H   0  0  0  0  0  0  0  0  0  0  0  0
   -2.1591   21.8658  -26.9725 H   0  0  0  0  0  0  0  0  0  0  0  0
   -7.0492   23.6855  -28.9854 H   0  0  0  0  0  0  0  0  0  0  0  0
   -8.8279   22.1853  -29.8759 H   0  0  0  0  0  0  0  0  0  0  0  0
   -6.3021   18.7031  -35.0232 H   0  0  0  0  0  0  0  0  0  0  0  0
  1  2  1  0
  2  3  2  0
  3  4  1  0
  4  5  2  0
  5  6  1  0
  6  7  1  0
  7  8  1  0
  8  9  2  0
  8 10  2  0
  8 11  1  0
 11 12  2  0
 12 13  1  0
 13 14  2  0
 14 15  1  0
 15 16  1  0
 16 17  2  0
 16 18  1  0
 18 19  2  0
 19 20  1  0
 20 21  1  0
 21 22  2  0
 21 23  1  0
 23 24  2  0
 24 25  1  0
 25 26  2  0
 26 27  1  0
 27 28  2  0
 14 29  1  0
 29 30  2  0
  6 31  2  0
 31  2  1  0
 30 11  1  0
 28 18  1  0
 28 23  1  0
  1 32  1  0
  1 33  1  0
  1 34  1  0
  3 35  1  0
  4 36  1  0
  5 37  1  0
 12 38  1  0
 13 39  1  0
 15 40  1  0
 24 41  1  0
 25 42  1  0
 26 43  1  0
 27 44  1  0
 29 45  1  0
 30 46  1  0
 31 47  1  0
M  CHG  2   7  -1  20  -1
M  END
>  <UniqueID>  (18) 
17

>  <SMILES>  (18) 
Cc1cccc([N-]S(=O)(=O)c2ccc(NC(=O)c3n[n-]c(=O)c4ccccc34)cc2)c1

>  <Energy>  (18) 
70.474257895104

>  <Genealogy>  (18) 
Cc1cccc([N-]S(=O)(=O)c2ccc(NC(=O)c3n[n-]c(=O)c4ccccc34)cc2)c1 (protonated)
Cc1cccc([N-]S(=O)(=O)c2ccc(NC(=O)c3n[n-]c(=O)c4ccccc34)cc2)c1 (3D coordinates assigned)
Cc1cccc([N-]S(=O)(=O)c2ccc(NC(=O)c3n[n-]c(=O)c4ccccc34)cc2)c1 (optimized conformer: 70.474257895104 kcal/mol)

>  <smiles>  (18) 
Cc1cccc(NS(=O)(=O)c2ccc(NC(=O)c3n[nH]c(=O)c4ccccc34)cc2)c1

>  <score_type>  (18) 
oracle

>  <origin>  (18) 
adgpu

>  <m_score__min__energy>  (18) 
-11.32

>  <m_primary>  (18) 
energy

$$$$
18:0
     RDKit          3D

 39 41  0  0  0  0  0  0  0  0999 V2000
   -7.5550   20.4720  -33.0500 N   0  0  0  0  0  0  0  0  0  0  0  0
   -6.7500   21.4250  -32.3510 C   0  0  0  0  0  0  0  0  0  0  0  0
   -7.3450   22.5270  -31.7260 C   0  0  0  0  0  0  0  0  0  0  0  0
   -6.5590   23.4590  -31.0440 C   0  0  0  0  0  0  0  0  0  0  0  0
   -5.1630   23.3070  -30.9780 C   0  0  0  0  0  0  0  0  0  0  0  0
   -4.3610   24.3110  -30.2390 C   0  0  0  0  0  0  0  0  0  0  0  0
   -3.8920   25.3060  -30.8520 O   0  0  0  0  0  0  0  0  0  0  0  0
   -4.0290   24.1360  -28.8560 N   0  0  0  0  0  0  0  0  0  0  0  0
   -3.0560   23.2170  -28.3330 C   0  0  0  0  0  0  0  0  0  0  0  0
   -3.3730   21.8570  -28.1620 C   0  0  0  0  0  0  0  0  0  0  0  0
   -2.4200   20.9650  -27.6690 C   0  0  0  0  0  0  0  0  0  0  0  0
   -1.1470   21.4210  -27.3260 C   0  0  0  0  0  0  0  0  0  0  0  0
   -0.8240   22.7710  -27.4710 C   0  0  0  0  0  0  0  0  0  0  0  0
   -1.7730   23.6820  -27.9720 C   0  0  0  0  0  0  0  0  0  0  0  0
   -1.4120   25.1130  -28.1100 C   0  0  0  0  0  0  0  0  0  0  0  0
   -1.2930   25.6020  -29.2660 O   0  0  0  0  0  0  0  0  0  0  0  0
   -1.1970   25.9860  -26.9290 C   0  0  0  0  0  0  0  0  0  0  0  0
   -1.6510   25.6020  -25.6520 C   0  0  0  0  0  0  0  0  0  0  0  0
   -1.4300   26.4270  -24.5440 C   0  0  0  0  0  0  0  0  0  0  0  0
   -0.7470   27.6360  -24.6960 C   0  0  0  0  0  0  0  0  0  0  0  0
   -0.2790   28.0200  -25.9550 C   0  0  0  0  0  0  0  0  0  0  0  0
   -0.4980   27.1990  -27.0650 C   0  0  0  0  0  0  0  0  0  0  0  0
   -4.5640   22.1920  -31.6070 C   0  0  0  0  0  0  0  0  0  0  0  0
   -2.8190   21.9550  -31.6210 Cl  0  0  0  0  0  0  0  0  0  0  0  0
   -5.3600   21.2630  -32.2880 C   0  0  0  0  0  0  0  0  0  0  0  0
   -8.2790   19.9120  -32.5460 H   0  0  0  0  0  0  0  0  0  0  0  0
   -7.4340   20.3210  -34.0770 H   0  0  0  0  0  0  0  0  0  0  0  0
   -8.4360   22.6597  -31.7720 H   0  0  0  0  0  0  0  0  0  0  0  0
   -7.0370   24.3200  -30.5539 H   0  0  0  0  0  0  0  0  0  0  0  0
   -4.3792   21.4943  -28.4188 H   0  0  0  0  0  0  0  0  0  0  0  0
   -2.6728   19.9010  -27.5507 H   0  0  0  0  0  0  0  0  0  0  0  0
   -0.3964   20.7153  -26.9406 H   0  0  0  0  0  0  0  0  0  0  0  0
    0.1792   23.1256  -27.1918 H   0  0  0  0  0  0  0  0  0  0  0  0
   -2.1827   24.6474  -25.5252 H   0  0  0  0  0  0  0  0  0  0  0  0
   -1.7946   26.1232  -23.5516 H   0  0  0  0  0  0  0  0  0  0  0  0
   -0.5777   28.2855  -23.8245 H   0  0  0  0  0  0  0  0  0  0  0  0
    0.2628   28.9700  -26.0731 H   0  0  0  0  0  0  0  0  0  0  0  0
   -0.1208   27.5039  -28.0523 H   0  0  0  0  0  0  0  0  0  0  0  0
   -4.8895   20.3979  -32.7781 H   0  0  0  0  0  0  0  0  0  0  0  0
  1  2  1  0
  2  3  2  0
  3  4  1  0
  4  5  2  0
  5  6  1  0
  6  7  2  0
  6  8  1  0
  8  9  1  0
  9 10  2  0
 10 11  1  0
 11 12  2  0
 12 13  1  0
 13 14  2  0
 14 15  1  0
 15 16  2  0
 15 17  1  0
 17 18  2  0
 18 19  1  0
 19 20  2  0
 20 21  1  0
 21 22  2  0
  5 23  1  0
 23 24  1  0
 23 25  2  0
 25  2  1  0
 14  9  1  0
 22 17  1  0
  1 26  1  0
  1 27  1  0
  3 28  1  0
  4 29  1  0
 10 30  1  0
 11 31  1  0
 12 32  1  0
 13 33  1  0
 18 34  1  0
 19 35  1  0
 20 36  1  0
 21 37  1  0
 22 38  1  0
 25 39  1  0
M  CHG  1   8  -1
M  END
>  <UniqueID>  (19) 
18

>  <SMILES>  (19) 
Nc1ccc(C(=O)[N-]c2ccccc2C(=O)c2ccccc2)c(Cl)c1

>  <Energy>  (19) 
57.446765978651186

>  <Genealogy>  (19) 
Nc1ccc(C(=O)[N-]c2ccccc2C(=O)c2ccccc2)c(Cl)c1 (protonated)
Nc1ccc(C(=O)[N-]c2ccccc2C(=O)c2ccccc2)c(Cl)c1 (3D coordinates assigned)
Nc1ccc(C(=O)[N-]c2ccccc2C(=O)c2ccccc2)c(Cl)c1 (optimized conformer: 57.446765978651186 kcal/mol)

>  <smiles>  (19) 
Nc1ccc(C(=O)Nc2ccccc2C(=O)c2ccccc2)c(Cl)c1

>  <score_type>  (19) 
oracle

>  <origin>  (19) 
adgpu

>  <m_score__min__energy>  (19) 
-10.369999999999999

>  <m_primary>  (19) 
energy

$$$$
19:0
     RDKit          3D

 32 33  0  0  0  0  0  0  0  0999 V2000
   -6.6472   21.4761  -30.7941 H   0  0  0  0  0  0  0  0  0  0  0  0
   -5.9820   21.9560  -31.5270 C   0  0  0  0  0  0  0  0  0  0  0  0
   -5.5130   23.3320  -31.2600 C   0  0  0  0  0  0  0  0  0  0  0  0
   -5.8800   24.2450  -32.0470 O   0  0  0  0  0  0  0  0  0  0  0  0
   -4.6510   23.6840  -30.1060 C   0  0  0  0  0  0  0  0  0  0  0  0
   -4.9140   23.1310  -28.8410 C   0  0  0  0  0  0  0  0  0  0  0  0
   -5.7680   22.4504  -28.7086 H   0  0  0  0  0  0  0  0  0  0  0  0
   -4.0960   23.4410  -27.7490 C   0  0  0  0  0  0  0  0  0  0  0  0
   -4.3145   23.0127  -26.7597 H   0  0  0  0  0  0  0  0  0  0  0  0
   -3.0020   24.2940  -27.9140 C   0  0  0  0  0  0  0  0  0  0  0  0
   -2.3621   24.5399  -27.0537 H   0  0  0  0  0  0  0  0  0  0  0  0
   -2.7200   24.8350  -29.1710 C   0  0  0  0  0  0  0  0  0  0  0  0
   -1.6250   25.6740  -29.3360 O   0  0  0  0  0  0  0  0  0  0  0  0
   -3.5350   24.5280  -30.2650 C   0  0  0  0  0  0  0  0  0  0  0  0
   -3.3032   24.9479  -31.2549 H   0  0  0  0  0  0  0  0  0  0  0  0
   -5.6330   21.2670  -32.6220 C   0  0  0  0  0  0  0  0  0  0  0  0
   -4.9756   21.7493  -33.3604 H   0  0  0  0  0  0  0  0  0  0  0  0
   -6.0940   19.8860  -32.8800 C   0  0  0  0  0  0  0  0  0  0  0  0
   -5.3300   19.0870  -33.7470 C   0  0  0  0  0  0  0  0  0  0  0  0
   -4.4226   19.5003  -34.2116 H   0  0  0  0  0  0  0  0  0  0  0  0
   -5.7120   17.7740  -34.0240 C   0  0  0  0  0  0  0  0  0  0  0  0
   -5.1010   17.1546  -34.6970 H   0  0  0  0  0  0  0  0  0  0  0  0
   -6.8670   17.2460  -33.4490 C   0  0  0  0  0  0  0  0  0  0  0  0
   -7.1582   16.2061  -33.6584 H   0  0  0  0  0  0  0  0  0  0  0  0
   -7.6550   18.0340  -32.6080 C   0  0  0  0  0  0  0  0  0  0  0  0
   -8.5686   17.6130  -32.1630 H   0  0  0  0  0  0  0  0  0  0  0  0
   -7.2880   19.3660  -32.3250 C   0  0  0  0  0  0  0  0  0  0  0  0
   -8.0970   20.1960  -31.5300 O   0  0  0  0  0  0  0  0  0  0  0  0
   -9.2220   20.9270  -32.0040 C   0  0  0  0  0  0  0  0  0  0  0  0
   -9.8016   21.3036  -31.1483 H   0  0  0  0  0  0  0  0  0  0  0  0
   -8.8777   21.7744  -32.6151 H   0  0  0  0  0  0  0  0  0  0  0  0
   -9.8564   20.2681  -32.6151 H   0  0  0  0  0  0  0  0  0  0  0  0
  1  2  1  0
  2  3  1  0
  3  4  2  0
  3  5  1  0
  5  6  2  0
  6  7  1  0
  6  8  1  0
  8  9  1  0
  8 10  2  0
 10 11  1  0
 10 12  1  0
 12 13  1  0
 12 14  2  0
 14 15  1  0
  2 16  2  0
 16 17  1  0
 16 18  1  0
 18 19  2  0
 19 20  1  0
 19 21  1  0
 21 22  1  0
 21 23  2  0
 23 24  1  0
 23 25  1  0
 25 26  1  0
 25 27  2  0
 27 28  1  0
 28 29  1  0
 29 30  1  0
 29 31  1  0
 29 32  1  0
 14  5  1  0
 27 18  1  0
M  CHG  1  13  -1
M  END
>  <UniqueID>  (20) 
19

>  <SMILES>  (20) 
COc1ccccc1/C=C/C(=O)c1cccc([O-])c1

>  <Energy>  (20) 
41.564845694214675

>  <Genealogy>  (20) 
COc1ccccc1C=CC(=O)c1cccc([O-])c1 (protonated)
COc1ccccc1/C=C/C(=O)c1cccc([O-])c1 (cis-trans isomerization)
COc1ccccc1/C=C/C(=O)c1cccc([O-])c1 (3D coordinates assigned)
COc1ccccc1/C=C/C(=O)c1cccc([O-])c1 (optimized conformer: 41.564845694214675 kcal/mol)

>  <smiles>  (20) 
COc1ccccc1C=CC(=O)c1cccc(O)c1

>  <score_type>  (20) 
oracle

>  <origin>  (20) 
adgpu

>  <m_score__min__energy>  (20) 
-10.130000000000001

>  <m_primary>  (20) 
energy

$$$$
20:0
     RDKit          3D

 48 50  0  0  0  0  0  0  0  0999 V2000
   -1.2640   19.2780  -34.1760 C   0  0  0  0  0  0  0  0  0  0  0  0
   -2.0300   19.2740  -32.9760 O   0  0  0  0  0  0  0  0  0  0  0  0
   -2.1970   20.3880  -32.1360 C   0  0  0  0  0  0  0  0  0  0  0  0
   -1.2980   20.6790  -31.0940 C   0  0  0  0  0  0  0  0  0  0  0  0
   -1.4900   21.8070  -30.2950 C   0  0  0  0  0  0  0  0  0  0  0  0
   -2.5770   22.6500  -30.5460 C   0  0  0  0  0  0  0  0  0  0  0  0
   -2.8140   23.8740  -29.7090 C   0  0  0  0  0  0  0  0  0  0  0  0
   -3.5370   24.9060  -30.4550 N   0  0  0  0  0  0  0  0  0  0  0  0
   -5.1980   25.0490  -29.9450 S   0  0  0  0  0  0  0  0  0  0  0  0
   -5.2520   24.9640  -28.4440 O   0  0  0  0  0  0  0  0  0  0  0  0
   -5.7240   26.3910  -30.3640 O   0  0  0  0  0  0  0  0  0  0  0  0
   -6.2200   23.7980  -30.6570 C   0  0  0  0  0  0  0  0  0  0  0  0
   -6.3380   23.6790  -32.0490 C   0  0  0  0  0  0  0  0  0  0  0  0
   -7.1840   22.7150  -32.6040 C   0  0  0  0  0  0  0  0  0  0  0  0
   -7.9070   21.8460  -31.7730 C   0  0  0  0  0  0  0  0  0  0  0  0
   -8.8570   20.8490  -32.3650 C   0  0  0  0  0  0  0  0  0  0  0  0
   -7.7860   21.9660  -30.3800 C   0  0  0  0  0  0  0  0  0  0  0  0
   -6.9400   22.9310  -29.8260 C   0  0  0  0  0  0  0  0  0  0  0  0
   -3.4420   22.3480  -31.5490 N   0  0  0  0  0  0  0  0  0  0  0  0
   -3.2960   21.2470  -32.3360 C   0  0  0  0  0  0  0  0  0  0  0  0
   -4.2950   21.0140  -33.4350 C   0  0  0  0  0  0  0  0  0  0  0  0
   -5.1600   19.8300  -33.1050 C   0  0  0  0  0  0  0  0  0  0  0  0
   -5.4300   19.5020  -31.7660 C   0  0  0  0  0  0  0  0  0  0  0  0
   -6.2050   18.3780  -31.4600 C   0  0  0  0  0  0  0  0  0  0  0  0
   -6.7050   17.5710  -32.4860 C   0  0  0  0  0  0  0  0  0  0  0  0
   -6.4280   17.8840  -33.8190 C   0  0  0  0  0  0  0  0  0  0  0  0
   -5.6540   19.0050  -34.1300 C   0  0  0  0  0  0  0  0  0  0  0  0
   -0.1926   19.2836  -33.9270 H   0  0  0  0  0  0  0  0  0  0  0  0
   -1.4991   18.3786  -34.7641 H   0  0  0  0  0  0  0  0  0  0  0  0
   -1.5085   20.1749  -34.7641 H   0  0  0  0  0  0  0  0  0  0  0  0
   -0.4407   20.0152  -30.9083 H   0  0  0  0  0  0  0  0  0  0  0  0
   -0.7922   22.0310  -29.4747 H   0  0  0  0  0  0  0  0  0  0  0  0
   -3.4049   23.5928  -28.8248 H   0  0  0  0  0  0  0  0  0  0  0  0
   -1.8366   24.2837  -29.4145 H   0  0  0  0  0  0  0  0  0  0  0  0
   -5.7625   24.3469  -32.7068 H   0  0  0  0  0  0  0  0  0  0  0  0
   -7.2834   22.6372  -33.6967 H   0  0  0  0  0  0  0  0  0  0  0  0
   -9.3719   20.3086  -31.5570 H   0  0  0  0  0  0  0  0  0  0  0  0
   -9.5983   21.3730  -32.9862 H   0  0  0  0  0  0  0  0  0  0  0  0
   -8.2979   20.1338  -32.9862 H   0  0  0  0  0  0  0  0  0  0  0  0
   -8.3596   21.2976  -29.7211 H   0  0  0  0  0  0  0  0  0  0  0  0
   -6.8395   23.0096  -28.7334 H   0  0  0  0  0  0  0  0  0  0  0  0
   -4.9277   21.9068  -33.5467 H   0  0  0  0  0  0  0  0  0  0  0  0
   -3.7573   20.8162  -34.3740 H   0  0  0  0  0  0  0  0  0  0  0  0
   -5.0311   20.1304  -30.9561 H   0  0  0  0  0  0  0  0  0  0  0  0
   -6.4211   18.1290  -30.4106 H   0  0  0  0  0  0  0  0  0  0  0  0
   -7.3166   16.6894  -32.2438 H   0  0  0  0  0  0  0  0  0  0  0  0
   -6.8200   17.2467  -34.6254 H   0  0  0  0  0  0  0  0  0  0  0  0
   -5.4306   19.2426  -35.1805 H   0  0  0  0  0  0  0  0  0  0  0  0
  1  2  1  0
  2  3  1  0
  3  4  2  0
  4  5  1  0
  5  6  2  0
  6  7  1  0
  7  8  1  0
  8  9  1  0
  9 10  2  0
  9 11  2  0
  9 12  1  0
 12 13  2  0
 13 14  1  0
 14 15  2  0
 15 16  1  0
 15 17  1  0
 17 18  2  0
  6 19  1  0
 19 20  2  0
 20 21  1  0
 21 22  1  0
 22 23  2  0
 23 24  1  0
 24 25  2  0
 25 26  1  0
 26 27  2  0
 20  3  1  0
 27 22  1  0
 18 12  1  0
  1 28  1  0
  1 29  1  0
  1 30  1  0
  4 31  1  0
  5 32  1  0
  7 33  1  0
  7 34  1  0
 13 35  1  0
 14 36  1  0
 16 37  1  0
 16 38  1  0
 16 39  1  0
 17 40  1  0
 18 41  1  0
 21 42  1  0
 21 43  1  0
 23 44  1  0
 24 45  1  0
 25 46  1  0
 26 47  1  0
 27 48  1  0
M  CHG  1   8  -1
M  END
>  <UniqueID>  (21) 
20

>  <SMILES>  (21) 
COc1ccc(C[N-]S(=O)(=O)c2ccc(C)cc2)nc1Cc1ccccc1

>  <Energy>  (21) 
44.63919213068768

>  <Genealogy>  (21) 
COc1ccc(C[N-]S(=O)(=O)c2ccc(C)cc2)nc1Cc1ccccc1 (protonated)
COc1ccc(C[N-]S(=O)(=O)c2ccc(C)cc2)nc1Cc1ccccc1 (3D coordinates assigned)
COc1ccc(C[N-]S(=O)(=O)c2ccc(C)cc2)nc1Cc1ccccc1 (optimized conformer: 44.63919213068768 kcal/mol)

>  <smiles>  (21) 
COc1ccc(CNS(=O)(=O)c2ccc(C)cc2)nc1Cc1ccccc1

>  <score_type>  (21) 
oracle

>  <origin>  (21) 
adgpu

>  <m_score__min__energy>  (21) 
-10.710000000000001

>  <m_primary>  (21) 
energy

$$$$
21:0
     RDKit          3D

 39 41  0  0  0  0  0  0  0  0999 V2000
   -7.1300   25.6040  -29.3480 C   0  0  0  0  0  0  0  0  0  0  0  0
   -5.7640   25.1980  -29.7850 C   0  0  0  0  0  0  0  0  0  0  0  0
   -5.1660   23.9810  -29.5370 C   0  0  0  0  0  0  0  0  0  0  0  0
   -3.9280   24.0980  -30.1420 C   0  0  0  0  0  0  0  0  0  0  0  0
   -2.8490   23.0850  -30.1970 C   0  0  0  0  0  0  0  0  0  0  0  0
   -1.9340   22.9370  -29.1430 C   0  0  0  0  0  0  0  0  0  0  0  0
   -0.9220   21.9790  -29.2150 C   0  0  0  0  0  0  0  0  0  0  0  0
   -0.7960   21.1500  -30.3410 C   0  0  0  0  0  0  0  0  0  0  0  0
    0.3040   20.1200  -30.3650 C   0  0  0  0  0  0  0  0  0  0  0  0
   -1.7260   21.2780  -31.4010 C   0  0  0  0  0  0  0  0  0  0  0  0
   -1.6380   20.2570  -32.8480 S   0  0  0  0  0  0  0  0  0  0  0  0
   -0.3870   20.5880  -33.6120 O   0  0  0  0  0  0  0  0  0  0  0  0
   -1.6010   18.8060  -32.4550 O   0  0  0  0  0  0  0  0  0  0  0  0
   -3.0380   20.5470  -33.8320 N   0  0  0  0  0  0  0  0  0  0  0  0
   -4.3780   20.1970  -33.4420 C   0  0  0  0  0  0  0  0  0  0  0  0
   -5.2130   21.1070  -32.7640 C   0  0  0  0  0  0  0  0  0  0  0  0
   -6.5120   20.7420  -32.4020 C   0  0  0  0  0  0  0  0  0  0  0  0
   -6.9970   19.4690  -32.7140 C   0  0  0  0  0  0  0  0  0  0  0  0
   -8.7740   18.9740  -32.2170 Br  0  0  0  0  0  0  0  0  0  0  0  0
   -6.1820   18.5610  -33.3920 C   0  0  0  0  0  0  0  0  0  0  0  0
   -4.8810   18.9200  -33.7580 C   0  0  0  0  0  0  0  0  0  0  0  0
   -4.1060   18.0180  -34.4130 F   0  0  0  0  0  0  0  0  0  0  0  0
   -2.7350   22.2500  -31.3190 C   0  0  0  0  0  0  0  0  0  0  0  0
   -3.8430   25.2930  -30.6860 O   0  0  0  0  0  0  0  0  0  0  0  0
   -4.9290   25.9830  -30.4910 N   0  0  0  0  0  0  0  0  0  0  0  0
   -7.1746   25.6172  -28.2490 H   0  0  0  0  0  0  0  0  0  0  0  0
   -7.3559   26.6081  -29.7363 H   0  0  0  0  0  0  0  0  0  0  0  0
   -7.8676   24.8863  -29.7363 H   0  0  0  0  0  0  0  0  0  0  0  0
   -5.5763   23.1207  -28.9880 H   0  0  0  0  0  0  0  0  0  0  0  0
   -2.0152   23.5804  -28.2545 H   0  0  0  0  0  0  0  0  0  0  0  0
   -0.2145   21.8721  -28.3795 H   0  0  0  0  0  0  0  0  0  0  0  0
    0.5837   19.8581  -29.3339 H   0  0  0  0  0  0  0  0  0  0  0  0
   -0.0483   19.2195  -30.8893 H   0  0  0  0  0  0  0  0  0  0  0  0
    1.1795   20.5307  -30.8893 H   0  0  0  0  0  0  0  0  0  0  0  0
   -2.8690   20.9510  -34.7790 H   0  0  0  0  0  0  0  0  0  0  0  0
   -4.8395   22.1120  -32.5180 H   0  0  0  0  0  0  0  0  0  0  0  0
   -7.1549   21.4586  -31.8699 H   0  0  0  0  0  0  0  0  0  0  0  0
   -6.5644   17.5597  -33.6392 H   0  0  0  0  0  0  0  0  0  0  0  0
   -3.4489   22.3592  -32.1487 H   0  0  0  0  0  0  0  0  0  0  0  0
  1  2  1  0
  2  3  1  0
  3  4  2  0
  4  5  1  0
  5  6  2  0
  6  7  1  0
  7  8  2  0
  8  9  1  0
  8 10  1  0
 10 11  1  0
 11 12  2  0
 11 13  2  0
 11 14  1  0
 14 15  1  0
 15 16  2  0
 16 17  1  0
 17 18  2  0
 18 19  1  0
 18 20  1  0
 20 21  2  0
 21 22  1  0
 10 23  2  0
  4 24  1  0
 24 25  1  0
 25  2  2  0
 23  5  1  0
 21 15  1  0
  1 26  1  0
  1 27  1  0
  1 28  1  0
  3 29  1  0
  6 30  1  0
  7 31  1  0
  9 32  1  0
  9 33  1  0
  9 34  1  0
 14 35  1  0
 16 36  1  0
 17 37  1  0
 20 38  1  0
 23 39  1  0
M  END
>  <UniqueID>  (22) 
21

>  <SMILES>  (22) 
Cc1cc(-c2ccc(C)c(S(=O)(=O)Nc3ccc(Br)cc3F)c2)on1

>  <Energy>  (22) 
76.60476644682521

>  <Genealogy>  (22) 
Cc1cc(-c2ccc(C)c(S(=O)(=O)Nc3ccc(Br)cc3F)c2)on1 (3D coordinates assigned)
Cc1cc(-c2ccc(C)c(S(=O)(=O)Nc3ccc(Br)cc3F)c2)on1 (optimized conformer: 76.60476644682521 kcal/mol)

>  <smiles>  (22) 
Cc1cc(-c2ccc(C)c(S(=O)(=O)Nc3ccc(Br)cc3F)c2)on1

>  <score_type>  (22) 
oracle

>  <origin>  (22) 
adgpu

>  <m_score__min__energy>  (22) 
-9.9399999999999995

>  <m_primary>  (22) 
energy

$$$$
22:0
     RDKit          3D

 40 42  0  0  0  0  0  0  0  0999 V2000
   -9.8370   23.8040  -32.3770 C   0  0  0  0  0  0  0  0  0  0  0  0
   -8.6430   22.9510  -32.0640 C   0  0  0  0  0  0  0  0  0  0  0  0
   -7.4500   23.5410  -31.6220 C   0  0  0  0  0  0  0  0  0  0  0  0
   -6.3370   22.7480  -31.2900 C   0  0  0  0  0  0  0  0  0  0  0  0
   -5.0710   23.3780  -30.8380 C   0  0  0  0  0  0  0  0  0  0  0  0
   -3.9920   22.7330  -30.2590 C   0  0  0  0  0  0  0  0  0  0  0  0
   -3.0790   23.7420  -30.0260 C   0  0  0  0  0  0  0  0  0  0  0  0
   -1.7620   23.5880  -29.3430 C   0  0  0  0  0  0  0  0  0  0  0  0
   -3.5850   24.9250  -30.4240 N   0  0  0  0  0  0  0  0  0  0  0  0
   -4.7900   24.6960  -30.9220 N   0  0  0  0  0  0  0  0  0  0  0  0
   -6.4410   21.3490  -31.3970 C   0  0  0  0  0  0  0  0  0  0  0  0
   -7.6380   20.7490  -31.8140 C   0  0  0  0  0  0  0  0  0  0  0  0
   -7.7340   19.3140  -31.9230 N   0  0  0  0  0  0  0  0  0  0  0  0
   -8.9380   18.6420  -31.4230 C   0  0  0  0  0  0  0  0  0  0  0  0
   -6.7430   18.5770  -32.6740 C   0  0  0  0  0  0  0  0  0  0  0  0
   -6.2090   19.0910  -33.8720 C   0  0  0  0  0  0  0  0  0  0  0  0
   -5.2500   18.3700  -34.5880 C   0  0  0  0  0  0  0  0  0  0  0  0
   -4.8120   17.1270  -34.1220 C   0  0  0  0  0  0  0  0  0  0  0  0
   -3.6090   16.2230  -35.0220 Cl  0  0  0  0  0  0  0  0  0  0  0  0
   -5.3370   16.6050  -32.9360 C   0  0  0  0  0  0  0  0  0  0  0  0
   -6.2950   17.3230  -32.2160 C   0  0  0  0  0  0  0  0  0  0  0  0
   -8.7370   21.5560  -32.1430 C   0  0  0  0  0  0  0  0  0  0  0  0
  -10.3048   24.1382  -31.4392 H   0  0  0  0  0  0  0  0  0  0  0  0
   -9.5187   24.6804  -32.9606 H   0  0  0  0  0  0  0  0  0  0  0  0
  -10.5629   23.2188  -32.9606 H   0  0  0  0  0  0  0  0  0  0  0  0
   -7.3841   24.6355  -31.5341 H   0  0  0  0  0  0  0  0  0  0  0  0
   -3.8861   21.6612  -30.0355 H   0  0  0  0  0  0  0  0  0  0  0  0
   -1.9099   23.6053  -28.2531 H   0  0  0  0  0  0  0  0  0  0  0  0
   -1.3067   22.6305  -29.6361 H   0  0  0  0  0  0  0  0  0  0  0  0
   -1.0981   24.4146  -29.6361 H   0  0  0  0  0  0  0  0  0  0  0  0
   -5.3970   25.4430  -31.3240 H   0  0  0  0  0  0  0  0  0  0  0  0
   -5.5737   20.7188  -31.1508 H   0  0  0  0  0  0  0  0  0  0  0  0
   -8.9303   18.6463  -30.3230 H   0  0  0  0  0  0  0  0  0  0  0  0
   -9.8311   19.1721  -31.7855 H   0  0  0  0  0  0  0  0  0  0  0  0
   -8.9556   17.6036  -31.7855 H   0  0  0  0  0  0  0  0  0  0  0  0
   -6.5497   20.0675  -34.2466 H   0  0  0  0  0  0  0  0  0  0  0  0
   -4.8384   18.7818  -35.5213 H   0  0  0  0  0  0  0  0  0  0  0  0
   -4.9948   15.6262  -32.5688 H   0  0  0  0  0  0  0  0  0  0  0  0
   -6.7027   16.9053  -31.2836 H   0  0  0  0  0  0  0  0  0  0  0  0
   -9.6797   21.0897  -32.4654 H   0  0  0  0  0  0  0  0  0  0  0  0
  1  2  1  0
  2  3  2  0
  3  4  1  0
  4  5  1  0
  5  6  2  0
  6  7  1  0
  7  8  1  0
  7  9  2  0
  9 10  1  0
  4 11  2  0
 11 12  1  0
 12 13  1  0
 13 14  1  0
 13 15  1  0
 15 16  2  0
 16 17  1  0
 17 18  2  0
 18 19  1  0
 18 20  1  0
 20 21  2  0
 12 22  2  0
 22  2  1  0
 10  5  1  0
 21 15  1  0
  1 23  1  0
  1 24  1  0
  1 25  1  0
  3 26  1  0
  6 27  1  0
  8 28  1  0
  8 29  1  0
  8 30  1  0
 10 31  1  0
 11 32  1  0
 14 33  1  0
 14 34  1  0
 14 35  1  0
 16 36  1  0
 17 37  1  0
 20 38  1  0
 21 39  1  0
 22 40  1  0
M  END
>  <UniqueID>  (23) 
22

>  <SMILES>  (23) 
Cc1cc(-c2cc(C)n[nH]2)cc(N(C)c2ccc(Cl)cc2)c1

>  <Energy>  (23) 
80.12811255267306

>  <Genealogy>  (23) 
Cc1cc(-c2cc(C)n[nH]2)cc(N(C)c2ccc(Cl)cc2)c1 (3D coordinates assigned)
Cc1cc(-c2cc(C)n[nH]2)cc(N(C)c2ccc(Cl)cc2)c1 (optimized conformer: 80.12811255267306 kcal/mol)

>  <smiles>  (23) 
Cc1cc(-c2cc(C)n[nH]2)cc(N(C)c2ccc(Cl)cc2)c1

>  <score_type>  (23) 
oracle

>  <origin>  (23) 
adgpu

>  <m_score__min__energy>  (23) 
-8.4100000000000001

>  <m_primary>  (23) 
energy

$$$$
23:0
     RDKit          3D

 55 58  0  0  0  0  0  0  0  0999 V2000
   -0.0580   26.8600  -24.4000 C   0  0  0  0  0  0  0  0  0  0  0  0
   -0.8520   25.9590  -25.2980 C   0  0  0  0  0  0  0  0  0  0  0  0
   -2.2510   25.9710  -25.2420 C   0  0  0  0  0  0  0  0  0  0  0  0
   -3.0090   25.1530  -26.0940 C   0  0  0  0  0  0  0  0  0  0  0  0
   -4.5100   25.1580  -26.0000 C   0  0  0  0  0  0  0  0  0  0  0  0
   -2.3540   24.3080  -27.0140 C   0  0  0  0  0  0  0  0  0  0  0  0
   -3.1360   23.4590  -27.8680 N   0  0  0  0  0  0  0  0  0  0  0  0
   -3.5240   23.7980  -29.0610 C   0  0  0  0  0  0  0  0  0  0  0  0
   -4.2910   22.9980  -29.8290 N   0  0  0  0  0  0  0  0  0  0  0  0
   -4.4250   23.7550  -30.9390 C   0  0  0  0  0  0  0  0  0  0  0  0
   -5.1610   23.3780  -32.0640 O   0  0  0  0  0  0  0  0  0  0  0  0
   -5.9900   22.2520  -32.0730 C   0  0  0  0  0  0  0  0  0  0  0  0
   -7.3110   22.3930  -31.6420 C   0  0  0  0  0  0  0  0  0  0  0  0
   -8.1920   21.3090  -31.6670 C   0  0  0  0  0  0  0  0  0  0  0  0
   -9.8480   21.5540  -31.1230 Cl  0  0  0  0  0  0  0  0  0  0  0  0
   -7.7470   20.0550  -32.1290 C   0  0  0  0  0  0  0  0  0  0  0  0
   -8.6790   18.8760  -32.1710 C   0  0  0  0  0  0  0  0  0  0  0  0
   -6.4120   19.9070  -32.5390 C   0  0  0  0  0  0  0  0  0  0  0  0
   -5.5220   20.9890  -32.4970 C   0  0  0  0  0  0  0  0  0  0  0  0
   -3.8280   20.7260  -32.9390 S   0  0  0  0  0  0  0  0  0  0  0  0
   -3.3410   21.8190  -33.8490 O   0  0  0  0  0  0  0  0  0  0  0  0
   -3.7030   19.4060  -33.6480 O   0  0  0  0  0  0  0  0  0  0  0  0
   -2.8160   20.7400  -31.4960 C   0  0  0  0  0  0  0  0  0  0  0  0
   -3.3780   20.4190  -30.2530 C   0  0  0  0  0  0  0  0  0  0  0  0
   -2.5830   20.4140  -29.1020 C   0  0  0  0  0  0  0  0  0  0  0  0
   -1.2250   20.7300  -29.1880 C   0  0  0  0  0  0  0  0  0  0  0  0
   -0.6590   21.0500  -30.4250 C   0  0  0  0  0  0  0  0  0  0  0  0
   -1.4510   21.0540  -31.5780 C   0  0  0  0  0  0  0  0  0  0  0  0
   -3.7690   24.9220  -30.8440 N   0  0  0  0  0  0  0  0  0  0  0  0
   -3.1950   24.9630  -29.6580 N   0  0  0  0  0  0  0  0  0  0  0  0
   -0.9430   24.3390  -27.1160 C   0  0  0  0  0  0  0  0  0  0  0  0
   -0.2120   23.4960  -28.1270 C   0  0  0  0  0  0  0  0  0  0  0  0
   -0.2060   25.1530  -26.2440 C   0  0  0  0  0  0  0  0  0  0  0  0
   -0.2745   26.6144  -23.3499 H   0  0  0  0  0  0  0  0  0  0  0  0
    1.0153   26.7195  -24.5957 H   0  0  0  0  0  0  0  0  0  0  0  0
   -0.3324   27.9071  -24.5957 H   0  0  0  0  0  0  0  0  0  0  0  0
   -2.7613   26.6284  -24.5227 H   0  0  0  0  0  0  0  0  0  0  0  0
   -4.8111   25.1590  -24.9420 H   0  0  0  0  0  0  0  0  0  0  0  0
   -4.9054   26.0575  -26.4946 H   0  0  0  0  0  0  0  0  0  0  0  0
   -4.9114   24.2612  -26.4946 H   0  0  0  0  0  0  0  0  0  0  0  0
   -7.6622   23.3699  -31.2783 H   0  0  0  0  0  0  0  0  0  0  0  0
   -8.9243   18.5657  -31.1446 H   0  0  0  0  0  0  0  0  0  0  0  0
   -9.6019   19.1568  -32.6996 H   0  0  0  0  0  0  0  0  0  0  0  0
   -8.1927   18.0429  -32.6996 H   0  0  0  0  0  0  0  0  0  0  0  0
   -6.0600   18.9286  -32.8980 H   0  0  0  0  0  0  0  0  0  0  0  0
   -4.4472   20.1703  -30.1822 H   0  0  0  0  0  0  0  0  0  0  0  0
   -3.0276   20.1610  -28.1282 H   0  0  0  0  0  0  0  0  0  0  0  0
   -0.6012   20.7269  -28.2820 H   0  0  0  0  0  0  0  0  0  0  0  0
    0.4104   21.2990  -30.4921 H   0  0  0  0  0  0  0  0  0  0  0  0
   -1.0027   21.3038  -32.5510 H   0  0  0  0  0  0  0  0  0  0  0  0
   -3.7160   25.6770  -31.5620 H   0  0  0  0  0  0  0  0  0  0  0  0
    0.4222   22.7646  -27.6047 H   0  0  0  0  0  0  0  0  0  0  0  0
   -0.9406   22.9654  -28.7575 H   0  0  0  0  0  0  0  0  0  0  0  0
    0.4165   24.1422  -28.7575 H   0  0  0  0  0  0  0  0  0  0  0  0
    0.8924   25.1587  -26.3036 H   0  0  0  0  0  0  0  0  0  0  0  0
  1  2  1  0
  2  3  2  0
  3  4  1  0
  4  5  1  0
  4  6  2  0
  6  7  1  0
  7  8  2  3
  8  9  1  0
  9 10  2  0
 10 11  1  0
 11 12  1  0
 12 13  2  0
 13 14  1  0
 14 15  1  0
 14 16  2  0
 16 17  1  0
 16 18  1  0
 18 19  2  0
 19 20  1  0
 20 21  2  0
 20 22  2  0
 20 23  1  0
 23 24  2  0
 24 25  1  0
 25 26  2  0
 26 27  1  0
 27 28  2  0
 10 29  1  0
 29 30  1  0
  6 31  1  0
 31 32  1  0
 31 33  2  0
 33  2  1  0
 30  8  1  0
 19 12  1  0
 28 23  1  0
  1 34  1  0
  1 35  1  0
  1 36  1  0
  3 37  1  0
  5 38  1  0
  5 39  1  0
  5 40  1  0
 13 41  1  0
 17 42  1  0
 17 43  1  0
 17 44  1  0
 18 45  1  0
 24 46  1  0
 25 47  1  0
 26 48  1  0
 27 49  1  0
 28 50  1  0
 29 51  1  0
 32 52  1  0
 32 53  1  0
 32 54  1  0
 33 55  1  0
M  CHG  1  30  -1
M  END
>  <UniqueID>  (24) 
23

>  <SMILES>  (24) 
Cc1cc(C)c(N=c2nc(Oc3cc(Cl)c(C)cc3S(=O)(=O)c3ccccc3)[nH][n-]2)c(C)c1

>  <Energy>  (24) 
109.88050190120528

>  <Genealogy>  (24) 
Cc1cc(C)c(N=c2nc(Oc3cc(Cl)c(C)cc3S(=O)(=O)c3ccccc3)[nH][n-]2)c(C)c1 (protonated)
Cc1cc(C)c(N=c2nc(Oc3cc(Cl)c(C)cc3S(=O)(=O)c3ccccc3)[nH][n-]2)c(C)c1 (3D coordinates assigned)
Cc1cc(C)c(N=c2nc(Oc3cc(Cl)c(C)cc3S(=O)(=O)c3ccccc3)[nH][n-]2)c(C)c1 (optimized conformer: 109.88050190120528 kcal/mol)

>  <smiles>  (24) 
Cc1cc(C)c(N=c2nc(Oc3cc(Cl)c(C)cc3S(=O)(=O)c3ccccc3)[nH][nH]2)c(C)c1

>  <score_type>  (24) 
oracle

>  <origin>  (24) 
adgpu

>  <m_score__min__energy>  (24) 
-11.470000000000001

>  <m_primary>  (24) 
energy

$$$$
24:0
     RDKit          3D

 32 35  0  0  0  0  0  0  0  0999 V2000
    1.8160   23.8988  -28.4287 H   0  0  0  0  0  0  0  0  0  0  0  0
    0.7710   23.8410  -28.0900 C   0  0  0  0  0  0  0  0  0  0  0  0
   -0.1900   24.5610  -28.7270 N   0  0  0  0  0  0  0  0  0  0  0  0
   -1.4920   24.5350  -28.3300 C   0  0  0  0  0  0  0  0  0  0  0  0
   -2.4650   25.2730  -29.0850 N   0  0  0  0  0  0  0  0  0  0  0  0
   -3.4870   24.7990  -29.7410 C   0  0  0  0  0  0  0  0  0  0  0  0
   -4.2440   25.6720  -30.4830 N   0  0  0  0  0  0  0  0  0  0  0  0
   -5.3420   25.2750  -31.1920 C   0  0  0  0  0  0  0  0  0  0  0  0
   -5.9261   25.9958  -31.7830 H   0  0  0  0  0  0  0  0  0  0  0  0
   -5.6980   23.9350  -31.1440 C   0  0  0  0  0  0  0  0  0  0  0  0
   -6.7310   23.3270  -31.7440 N   0  0  0  0  0  0  0  0  0  0  0  0
   -6.5930   22.0380  -31.3290 C   0  0  0  0  0  0  0  0  0  0  0  0
   -7.5180   20.9590  -31.7370 C   0  0  0  0  0  0  0  0  0  0  0  0
   -8.8780   21.2250  -31.9710 C   0  0  0  0  0  0  0  0  0  0  0  0
   -9.2642   22.2479  -31.8503 H   0  0  0  0  0  0  0  0  0  0  0  0
   -9.7190   20.2240  -32.3460 N   0  0  0  0  0  0  0  0  0  0  0  0
   -9.2850   18.9470  -32.5070 C   0  0  0  0  0  0  0  0  0  0  0  0
   -9.9913   18.1607  -32.8118 H   0  0  0  0  0  0  0  0  0  0  0  0
   -7.9440   18.6320  -32.2860 C   0  0  0  0  0  0  0  0  0  0  0  0
   -7.5878   17.5991  -32.4137 H   0  0  0  0  0  0  0  0  0  0  0  0
   -7.0580   19.6410  -31.9010 C   0  0  0  0  0  0  0  0  0  0  0  0
   -5.9983   19.4036  -31.7258 H   0  0  0  0  0  0  0  0  0  0  0  0
   -5.5290   21.8270  -30.5050 N   0  0  0  0  0  0  0  0  0  0  0  0
   -4.9850   23.0480  -30.4100 C   0  0  0  0  0  0  0  0  0  0  0  0
   -3.8650   23.4310  -29.6800 C   0  0  0  0  0  0  0  0  0  0  0  0
   -3.2958   22.7052  -29.0806 H   0  0  0  0  0  0  0  0  0  0  0  0
   -1.8720   23.7020  -27.2660 C   0  0  0  0  0  0  0  0  0  0  0  0
   -2.9271   23.6376  -26.9618 H   0  0  0  0  0  0  0  0  0  0  0  0
   -0.9000   22.9560  -26.5970 C   0  0  0  0  0  0  0  0  0  0  0  0
   -1.1834   22.3135  -25.7503 H   0  0  0  0  0  0  0  0  0  0  0  0
    0.4330   23.0280  -27.0060 C   0  0  0  0  0  0  0  0  0  0  0  0
    1.2081   22.4510  -26.4804 H   0  0  0  0  0  0  0  0  0  0  0  0
  1  2  1  0
  2  3  2  0
  3  4  1  0
  4  5  1  0
  5  6  2  0
  6  7  1  0
  7  8  1  0
  8  9  1  0
  8 10  2  0
 10 11  1  0
 11 12  1  0
 12 13  1  0
 13 14  2  0
 14 15  1  0
 14 16  1  0
 16 17  2  0
 17 18  1  0
 17 19  1  0
 19 20  1  0
 19 21  2  0
 21 22  1  0
 12 23  2  0
 23 24  1  0
 24 25  2  0
 25 26  1  0
  4 27  2  0
 27 28  1  0
 27 29  1  0
 29 30  1  0
 29 31  2  0
 31 32  1  0
 31  2  1  0
 25  6  1  0
 24 10  1  0
 21 13  1  0
M  CHG  2   7  -1  11  -1
M  END
>  <UniqueID>  (25) 
24

>  <SMILES>  (25) 
c1ccc(/N=c2\cc3nc(-c4cccnc4)[n-]c3c[n-]2)nc1

>  <Energy>  (25) 
85.06536365186433

>  <Genealogy>  (25) 
c1ccc(N=c2cc3nc(-c4cccnc4)[n-]c3c[n-]2)nc1 (protonated)
c1ccc(/N=c2\cc3nc(-c4cccnc4)[n-]c3c[n-]2)nc1 (cis-trans isomerization)
c1ccc(/N=c2\cc3nc(-c4cccnc4)[n-]c3c[n-]2)nc1 (3D coordinates assigned)
c1ccc(/N=c2\cc3nc(-c4cccnc4)[n-]c3c[n-]2)nc1 (optimized conformer: 85.06536365186433 kcal/mol)

>  <smiles>  (25) 
c1ccc(N=c2cc3nc(-c4cccnc4)[nH]c3c[nH]2)nc1

>  <score_type>  (25) 
oracle

>  <origin>  (25) 
adgpu

>  <m_score__min__energy>  (25) 
-9.9199999999999999

>  <m_primary>  (25) 
energy

$$$$
25:0
     RDKit          3D

 50 52  0  0  0  0  0  0  0  0999 V2000
   -4.9040   12.9300  -31.0200 C   0  0  0  0  0  0  0  0  0  0  0  0
   -3.9900   13.6910  -31.9770 C   0  0  0  0  0  0  0  0  0  0  0  0
   -3.9350   13.0630  -33.3750 C   0  0  0  0  0  0  0  0  0  0  0  0
   -4.4700   13.9480  -34.3600 O   0  0  0  0  0  0  0  0  0  0  0  0
   -4.7860   15.3060  -34.1850 C   0  0  0  0  0  0  0  0  0  0  0  0
   -6.0950   15.7740  -33.9540 C   0  0  0  0  0  0  0  0  0  0  0  0
   -6.3320   17.1390  -33.7590 C   0  0  0  0  0  0  0  0  0  0  0  0
   -5.2730   18.0640  -33.7970 C   0  0  0  0  0  0  0  0  0  0  0  0
   -5.5120   19.5070  -33.5510 C   0  0  0  0  0  0  0  0  0  0  0  0
   -4.5400   20.3130  -33.5640 O   0  0  0  0  0  0  0  0  0  0  0  0
   -6.8400   20.0100  -33.3300 N   0  0  0  0  0  0  0  0  0  0  0  0
   -7.1150   21.1990  -32.5700 C   0  0  0  0  0  0  0  0  0  0  0  0
   -8.4350   21.6130  -32.3180 C   0  0  0  0  0  0  0  0  0  0  0  0
   -8.6810   22.7750  -31.5850 C   0  0  0  0  0  0  0  0  0  0  0  0
   -7.6160   23.5340  -31.1000 C   0  0  0  0  0  0  0  0  0  0  0  0
   -6.2970   23.1440  -31.3590 C   0  0  0  0  0  0  0  0  0  0  0  0
   -4.9450   24.0790  -30.7290 S   0  0  0  0  0  0  0  0  0  0  0  0
   -5.0060   25.5000  -31.2100 O   0  0  0  0  0  0  0  0  0  0  0  0
   -5.0170   24.0840  -29.2280 O   0  0  0  0  0  0  0  0  0  0  0  0
   -3.4420   23.3700  -31.2220 N   0  0  0  0  0  0  0  0  0  0  0  0
   -2.3440   23.0590  -30.3510 C   0  0  0  0  0  0  0  0  0  0  0  0
   -2.0250   23.8700  -29.2450 C   0  0  0  0  0  0  0  0  0  0  0  0
   -0.9650   23.5270  -28.4030 C   0  0  0  0  0  0  0  0  0  0  0  0
   -0.2250   22.3710  -28.6460 C   0  0  0  0  0  0  0  0  0  0  0  0
   -0.5300   21.5610  -29.7420 C   0  0  0  0  0  0  0  0  0  0  0  0
   -1.5770   21.9080  -30.6030 C   0  0  0  0  0  0  0  0  0  0  0  0
   -1.9260   20.8750  -31.9820 Cl  0  0  0  0  0  0  0  0  0  0  0  0
   -6.0510   21.9840  -32.1040 C   0  0  0  0  0  0  0  0  0  0  0  0
   -3.9720   17.5920  -34.0370 C   0  0  0  0  0  0  0  0  0  0  0  0
   -3.7360   16.2290  -34.2320 C   0  0  0  0  0  0  0  0  0  0  0  0
   -4.6239   13.1632  -29.9821 H   0  0  0  0  0  0  0  0  0  0  0  0
   -5.9480   13.2294  -31.1941 H   0  0  0  0  0  0  0  0  0  0  0  0
   -4.7987   11.8490  -31.1941 H   0  0  0  0  0  0  0  0  0  0  0  0
   -4.3599   14.7227  -32.0699 H   0  0  0  0  0  0  0  0  0  0  0  0
   -2.9729   13.6571  -31.5594 H   0  0  0  0  0  0  0  0  0  0  0  0
   -2.8881   12.8374  -33.6261 H   0  0  0  0  0  0  0  0  0  0  0  0
   -4.5389   12.1436  -33.3679 H   0  0  0  0  0  0  0  0  0  0  0  0
   -6.9340   15.0631  -33.9269 H   0  0  0  0  0  0  0  0  0  0  0  0
   -7.3571   17.4925  -33.5741 H   0  0  0  0  0  0  0  0  0  0  0  0
   -7.6300   19.5600  -33.8450 H   0  0  0  0  0  0  0  0  0  0  0  0
   -9.2777   21.0183  -32.7004 H   0  0  0  0  0  0  0  0  0  0  0  0
   -9.7159   23.0926  -31.3896 H   0  0  0  0  0  0  0  0  0  0  0  0
   -7.8135   24.4423  -30.5118 H   0  0  0  0  0  0  0  0  0  0  0  0
   -2.6131   24.7774  -29.0434 H   0  0  0  0  0  0  0  0  0  0  0  0
   -0.7136   24.1701  -27.5467 H   0  0  0  0  0  0  0  0  0  0  0  0
    0.6008   22.0962  -27.9732 H   0  0  0  0  0  0  0  0  0  0  0  0
    0.0543   20.6479  -29.9289 H   0  0  0  0  0  0  0  0  0  0  0  0
   -5.0153   21.6866  -32.3252 H   0  0  0  0  0  0  0  0  0  0  0  0
   -3.1321   18.3015  -34.0717 H   0  0  0  0  0  0  0  0  0  0  0  0
   -2.7118   15.8772  -34.4249 H   0  0  0  0  0  0  0  0  0  0  0  0
  1  2  1  0
  2  3  1  0
  3  4  1  0
  4  5  1  0
  5  6  2  0
  6  7  1  0
  7  8  2  0
  8  9  1  0
  9 10  2  0
  9 11  1  0
 11 12  1  0
 12 13  2  0
 13 14  1  0
 14 15  2  0
 15 16  1  0
 16 17  1  0
 17 18  2  0
 17 19  2  0
 17 20  1  0
 20 21  1  0
 21 22  2  0
 22 23  1  0
 23 24  2  0
 24 25  1  0
 25 26  2  0
 26 27  1  0
 16 28  2  0
  8 29  1  0
 29 30  2  0
 30  5  1  0
 28 12  1  0
 26 21  1  0
  1 31  1  0
  1 32  1  0
  1 33  1  0
  2 34  1  0
  2 35  1  0
  3 36  1  0
  3 37  1  0
  6 38  1  0
  7 39  1  0
 11 40  1  0
 13 41  1  0
 14 42  1  0
 15 43  1  0
 22 44  1  0
 23 45  1  0
 24 46  1  0
 25 47  1  0
 28 48  1  0
 29 49  1  0
 30 50  1  0
M  CHG  1  20  -1
M  END
>  <UniqueID>  (26) 
25

>  <SMILES>  (26) 
CCCOc1ccc(C(=O)Nc2cccc(S(=O)(=O)[N-]c3ccccc3Cl)c2)cc1

>  <Energy>  (26) 
60.14988981668205

>  <Genealogy>  (26) 
CCCOc1ccc(C(=O)Nc2cccc(S(=O)(=O)[N-]c3ccccc3Cl)c2)cc1 (protonated)
CCCOc1ccc(C(=O)Nc2cccc(S(=O)(=O)[N-]c3ccccc3Cl)c2)cc1 (3D coordinates assigned)
CCCOc1ccc(C(=O)Nc2cccc(S(=O)(=O)[N-]c3ccccc3Cl)c2)cc1 (optimized conformer: 60.14988981668205 kcal/mol)

>  <smiles>  (26) 
CCCOc1ccc(C(=O)Nc2cccc(S(=O)(=O)Nc3ccccc3Cl)c2)cc1

>  <score_type>  (26) 
oracle

>  <origin>  (26) 
adgpu

>  <m_score__min__energy>  (26) 
-10.140000000000001

>  <m_primary>  (26) 
energy

$$$$
26:0
     RDKit          3D

 34 36  0  0  0  0  0  0  0  0999 V2000
   -4.4870   25.8730  -31.0020 H   0  0  0  0  0  0  0  0  0  0  0  0
   -3.7400   25.2990  -30.5500 N   0  0  0  0  0  0  0  0  0  0  0  0
   -3.8280   24.0080  -30.4780 C   0  0  0  0  0  0  0  0  0  0  0  0
   -4.9140   23.3800  -31.0020 N   0  0  0  0  0  0  0  0  0  0  0  0
   -5.0680   22.0280  -30.9730 C   0  0  0  0  0  0  0  0  0  0  0  0
   -6.2860   21.4230  -31.5690 C   0  0  0  0  0  0  0  0  0  0  0  0
   -7.5740   21.8910  -31.2410 C   0  0  0  0  0  0  0  0  0  0  0  0
   -7.6882   22.7261  -30.5342 H   0  0  0  0  0  0  0  0  0  0  0  0
   -8.7080   21.3010  -31.8080 C   0  0  0  0  0  0  0  0  0  0  0  0
   -9.7090   21.6772  -31.5502 H   0  0  0  0  0  0  0  0  0  0  0  0
   -8.5730   20.2350  -32.7010 C   0  0  0  0  0  0  0  0  0  0  0  0
   -9.6750   19.6650  -33.2480 F   0  0  0  0  0  0  0  0  0  0  0  0
   -7.3020   19.7540  -33.0250 C   0  0  0  0  0  0  0  0  0  0  0  0
   -7.1953   18.9129  -33.7258 H   0  0  0  0  0  0  0  0  0  0  0  0
   -6.1660   20.3400  -32.4600 C   0  0  0  0  0  0  0  0  0  0  0  0
   -5.1688   19.9513  -32.7140 H   0  0  0  0  0  0  0  0  0  0  0  0
   -4.0780   21.2430  -30.3620 C   0  0  0  0  0  0  0  0  0  0  0  0
   -4.1919   20.1496  -30.3226 H   0  0  0  0  0  0  0  0  0  0  0  0
   -2.9430   21.8490  -29.8010 C   0  0  0  0  0  0  0  0  0  0  0  0
   -1.9220   20.9900  -29.1510 C   0  0  0  0  0  0  0  0  0  0  0  0
   -0.5900   21.0000  -29.5980 C   0  0  0  0  0  0  0  0  0  0  0  0
   -0.3015   21.6408  -30.4442 H   0  0  0  0  0  0  0  0  0  0  0  0
    0.3700   20.2000  -28.9730 C   0  0  0  0  0  0  0  0  0  0  0  0
    1.4096   20.2078  -29.3325 H   0  0  0  0  0  0  0  0  0  0  0  0
    0.0120   19.3900  -27.8920 C   0  0  0  0  0  0  0  0  0  0  0  0
    0.7701   18.7607  -27.4028 H   0  0  0  0  0  0  0  0  0  0  0  0
   -1.3080   19.3780  -27.4310 C   0  0  0  0  0  0  0  0  0  0  0  0
   -1.6500   18.5690  -26.3500 O   0  0  0  0  0  0  0  0  0  0  0  0
   -1.2240   17.6600  -26.2130 H   0  0  0  0  0  0  0  0  0  0  0  0
   -2.2730   20.1810  -28.0570 C   0  0  0  0  0  0  0  0  0  0  0  0
   -3.3098   20.1773  -27.6896 H   0  0  0  0  0  0  0  0  0  0  0  0
   -2.8070   23.2530  -29.8690 C   0  0  0  0  0  0  0  0  0  0  0  0
   -1.6230   23.9150  -29.3610 C   0  0  0  0  0  0  0  0  0  0  0  0
   -0.6760   24.4420  -28.9560 N   0  0  0  0  0  0  0  0  0  0  0  0
  1  2  1  0
  2  3  2  0
  3  4  1  0
  4  5  1  0
  5  6  1  0
  6  7  2  0
  7  8  1  0
  7  9  1  0
  9 10  1  0
  9 11  2  0
 11 12  1  0
 11 13  1  0
 13 14  1  0
 13 15  2  0
 15 16  1  0
  5 17  2  0
 17 18  1  0
 17 19  1  0
 19 20  1  0
 20 21  2  0
 21 22  1  0
 21 23  1  0
 23 24  1  0
 23 25  2  0
 25 26  1  0
 25 27  1  0
 27 28  1  0
 28 29  1  0
 27 30  2  0
 30 31  1  0
 19 32  2  0
 32 33  1  0
 33 34  3  0
 32  3  1  0
 15  6  1  0
 30 20  1  0
M  CHG  1   4  -1
M  END
>  <UniqueID>  (27) 
26

>  <SMILES>  (27) 
[H]/N=c1\[n-]c(-c2ccc(F)cc2)cc(-c2cccc(O)c2)c1C#N

>  <Energy>  (27) 
49.229837123118166

>  <Genealogy>  (27) 
N#Cc1c(-c2cccc(O)c2)cc(-c2ccc(F)cc2)[n-]c1=N (protonated)
[H]/N=c1\[n-]c(-c2ccc(F)cc2)cc(-c2cccc(O)c2)c1C#N (cis-trans isomerization)
[H]/N=c1\[n-]c(-c2ccc(F)cc2)cc(-c2cccc(O)c2)c1C#N (3D coordinates assigned)
[H]/N=c1\[n-]c(-c2ccc(F)cc2)cc(-c2cccc(O)c2)c1C#N (optimized conformer: 49.229837123118166 kcal/mol)

>  <smiles>  (27) 
N#Cc1c(-c2cccc(O)c2)cc(-c2ccc(F)cc2)[nH]c1=N

>  <score_type>  (27) 
oracle

>  <origin>  (27) 
adgpu

>  <m_score__min__energy>  (27) 
-9.4900000000000002

>  <m_primary>  (27) 
energy

$$$$
27:0
     RDKit          3D

 29 31  0  0  1  0  0  0  0  0999 V2000
    0.5540   24.5260  -28.1410 N   0  0  0  0  0  0  0  0  0  0  0  0
   -0.3910   23.9820  -28.8200 C   0  0  0  0  0  0  0  0  0  0  0  0
   -1.5600   24.7170  -28.9510 C   0  0  0  0  0  0  0  0  0  0  0  0
   -2.5960   24.1620  -29.6740 C   0  0  0  0  0  0  0  0  0  0  0  0
   -3.8480   24.8610  -29.8580 N   0  0  0  0  0  0  0  0  0  0  0  0
   -4.8560   24.3080  -30.2940 C   0  0  0  0  0  0  0  0  0  0  0  0
   -6.4940   24.9300  -30.6110 S   0  0  0  0  0  0  0  0  0  0  0  0
   -7.3970   23.5960  -31.2170 C   0  0  0  0  0  0  0  0  0  0  0  0
   -6.6920   22.4640  -31.3030 C   0  0  0  0  0  0  0  0  0  0  0  0
   -7.1500   21.1510  -31.7740 C   0  0  0  0  0  0  0  0  0  0  0  0
   -8.3490   20.6400  -31.3250 C   0  0  0  0  0  0  0  0  0  0  0  0
   -8.7570   19.4040  -31.7840 C   0  0  0  0  0  0  0  0  0  0  0  0
   -7.9810   18.6730  -32.6860 C   0  0  0  0  0  0  0  0  0  0  0  0
   -6.7670   19.2100  -33.1280 C   0  0  0  0  0  0  0  0  0  0  0  0
   -5.7580   18.3240  -34.2630 Cl  0  0  0  0  0  0  0  0  0  0  0  0
   -6.3630   20.4510  -32.6650 C   0  0  0  0  0  0  0  0  0  0  0  0
   -5.0720   22.7510  -30.7570 S   0  0  0  0  0  0  0  0  0  0  0  0
   -2.4240   22.9410  -30.2140 N   0  0  0  0  0  0  0  0  0  0  0  0
   -1.3030   22.2150  -30.0990 C   0  0  0  0  0  0  0  0  0  0  0  0
   -0.2660   22.7460  -29.3880 N   0  0  0  0  0  0  0  0  0  0  0  0
    1.4390   23.9790  -28.0370 H   0  0  0  0  0  0  0  0  0  0  0  0
   -1.6582   25.7120  -28.4925 H   0  0  0  0  0  0  0  0  0  0  0  0
   -8.4557   23.6684  -31.5065 H   0  0  0  0  0  0  0  0  0  0  0  0
   -8.9688   21.2066  -30.6144 H   0  0  0  0  0  0  0  0  0  0  0  0
   -9.7121   18.9866  -31.4325 H   0  0  0  0  0  0  0  0  0  0  0  0
   -8.3193   17.6894  -33.0438 H   0  0  0  0  0  0  0  0  0  0  0  0
   -5.4106   20.8805  -33.0091 H   0  0  0  0  0  0  0  0  0  0  0  0
   -1.2213   21.2213  -30.5636 H   0  0  0  0  0  0  0  0  0  0  0  0
    0.6330   22.2160  -29.2690 H   0  0  0  0  0  0  0  0  0  0  0  0
  1  2  2  3
  2  3  1  0
  3  4  2  0
  4  5  1  0
  5  6  2  0
  6  7  1  0
  7  8  1  0
  8  9  2  0
  9 10  1  0
 10 11  2  0
 11 12  1  0
 12 13  2  0
 13 14  1  0
 14 15  1  0
 14 16  2  0
  9 17  1  0
  4 18  1  0
 18 19  2  0
 19 20  1  0
 20  2  1  0
 17  6  1  0
 16 10  1  0
  1 21  1  0
  3 22  1  0
  8 23  1  0
 11 24  1  0
 12 25  1  0
 13 26  1  0
 16 27  1  0
 19 28  1  0
 20 29  1  0
M  END
>  <smiles>  (28) 
N=c1cc(N=c2scc(-c3cccc(Cl)c3)s2)nc[nH]1

>  <score_type>  (28) 
oracle

>  <origin>  (28) 
adgpu

>  <m_score__min__energy>  (28) 
-8.25

>  <m_primary>  (28) 
energy

$$$$
28:0
     RDKit          3D

 64 66  0  0  1  0  0  0  0  0999 V2000
   -1.0000   21.4110  -28.0590 C   0  0  0  0  0  0  0  0  0  0  0  0
   -1.1780   22.6030  -28.8020 O   0  0  0  0  0  0  0  0  0  0  0  0
   -2.3300   22.8410  -29.5490 C   0  0  0  0  0  0  0  0  0  0  0  0
   -3.0220   21.7650  -30.0850 C   0  0  0  0  0  0  0  0  0  0  0  0
   -4.1450   22.0040  -30.8100 C   0  0  0  0  0  0  0  0  0  0  0  0
   -4.9520   20.9980  -31.4180 N   0  0  0  0  0  0  0  0  0  0  0  0
   -4.5270   20.2370  -32.3660 C   0  0  0  0  0  0  0  0  0  0  0  0
   -3.2670   20.3920  -32.8090 N   0  0  0  0  0  0  0  0  0  0  0  0
   -2.8130   19.6000  -33.7970 C   0  0  0  0  0  0  0  0  0  0  0  0
   -1.4400   19.7920  -34.2570 C   0  0  0  0  0  0  0  0  0  0  0  0
   -0.8120   21.0210  -34.2590 C   0  0  0  0  0  0  0  0  0  0  0  0
    0.4880   21.1950  -34.6960 C   0  0  0  0  0  0  0  0  0  0  0  0
    1.1950   20.1010  -35.1510 C   0  0  0  0  0  0  0  0  0  0  0  0
    0.6000   18.8540  -35.1640 C   0  0  0  0  0  0  0  0  0  0  0  0
   -0.6990   18.7230  -34.7200 C   0  0  0  0  0  0  0  0  0  0  0  0
   -3.6280   18.6710  -34.3210 N   0  0  0  0  0  0  0  0  0  0  0  0
   -4.9090   18.4920  -33.8900 C   0  0  0  0  0  0  0  0  0  0  0  0
   -5.9020   17.2710  -34.5980 Cl  0  0  0  0  0  0  0  0  0  0  0  0
   -5.3860   19.2940  -32.8820 C   0  0  0  0  0  0  0  0  0  0  0  0
   -6.7040   19.1990  -32.3450 N   0  0  0  0  0  0  0  0  0  0  0  0
   -6.9510   18.0820  -31.4600 C   0  0  0  0  0  0  0  0  0  0  0  0
   -7.6660   20.2080  -32.6950 C   0  0  0  0  0  0  0  0  0  0  0  0
   -8.5120   20.7400  -31.6060 C   0  0  0  0  0  0  0  0  0  0  0  0
   -8.3490   22.1700  -31.2390 C   0  0  0  0  0  0  0  0  0  0  0  0
   -7.6340   22.3910  -29.9400 C   0  0  0  0  0  0  0  0  0  0  0  0
   -7.6090   22.9450  -32.3290 C   0  0  0  0  0  0  0  0  0  0  0  0
   -4.5810   23.3190  -31.0040 C   0  0  0  0  0  0  0  0  0  0  0  0
   -3.8760   24.3680  -30.4610 C   0  0  0  0  0  0  0  0  0  0  0  0
   -4.3230   25.6730  -30.6610 O   0  0  0  0  0  0  0  0  0  0  0  0
   -5.7040   25.9640  -30.4130 C   0  0  0  0  0  0  0  0  0  0  0  0
   -2.7330   24.1500  -29.7190 C   0  0  0  0  0  0  0  0  0  0  0  0
   -2.0550   25.2360  -29.1920 O   0  0  0  0  0  0  0  0  0  0  0  0
   -1.6660   25.3070  -27.8320 C   0  0  0  0  0  0  0  0  0  0  0  0
   -1.0343   21.6406  -26.9838 H   0  0  0  0  0  0  0  0  0  0  0  0
   -1.8020   20.7005  -28.3080 H   0  0  0  0  0  0  0  0  0  0  0  0
   -0.0254   20.9658  -28.3080 H   0  0  0  0  0  0  0  0  0  0  0  0
   -2.6673   20.7360  -29.9255 H   0  0  0  0  0  0  0  0  0  0  0  0
   -1.3688   21.8983  -33.8980 H   0  0  0  0  0  0  0  0  0  0  0  0
    0.9524   22.1921  -34.6812 H   0  0  0  0  0  0  0  0  0  0  0  0
    2.2303   20.2213  -35.5027 H   0  0  0  0  0  0  0  0  0  0  0  0
    1.1560   17.9759  -35.5243 H   0  0  0  0  0  0  0  0  0  0  0  0
   -1.1638   17.7261  -34.7353 H   0  0  0  0  0  0  0  0  0  0  0  0
   -3.3170   18.0500  -35.0750 H   0  0  0  0  0  0  0  0  0  0  0  0
   -6.8766   18.4184  -30.4154 H   0  0  0  0  0  0  0  0  0  0  0  0
   -7.9591   17.6829  -31.6458 H   0  0  0  0  0  0  0  0  0  0  0  0
   -6.2052   17.2951  -31.6458 H   0  0  0  0  0  0  0  0  0  0  0  0
   -7.1145   21.0547  -33.1296 H   0  0  0  0  0  0  0  0  0  0  0  0
   -8.3662   19.7074  -33.3799 H   0  0  0  0  0  0  0  0  0  0  0  0
   -9.5608   20.5952  -31.9045 H   0  0  0  0  0  0  0  0  0  0  0  0
   -8.1929   20.1858  -30.7110 H   0  0  0  0  0  0  0  0  0  0  0  0
   -9.3778   22.5426  -31.1258 H   0  0  0  0  0  0  0  0  0  0  0  0
   -8.3177   22.1797  -29.1046 H   0  0  0  0  0  0  0  0  0  0  0  0
   -6.7646   21.7196  -29.8811 H   0  0  0  0  0  0  0  0  0  0  0  0
   -7.2951   23.4358  -29.8811 H   0  0  0  0  0  0  0  0  0  0  0  0
   -6.9208   23.6658  -31.8634 H   0  0  0  0  0  0  0  0  0  0  0  0
   -7.0373   22.2432  -32.9540 H   0  0  0  0  0  0  0  0  0  0  0  0
   -8.3364   23.4837  -32.9540 H   0  0  0  0  0  0  0  0  0  0  0  0
   -5.4897   23.5146  -31.5921 H   0  0  0  0  0  0  0  0  0  0  0  0
   -5.8817   26.0015  -29.3281 H   0  0  0  0  0  0  0  0  0  0  0  0
   -5.9600   26.9358  -30.8603 H   0  0  0  0  0  0  0  0  0  0  0  0
   -6.3304   25.1781  -30.8603 H   0  0  0  0  0  0  0  0  0  0  0  0
   -2.5450   25.1466  -27.1904 H   0  0  0  0  0  0  0  0  0  0  0  0
   -0.9142   24.5312  -27.6247 H   0  0  0  0  0  0  0  0  0  0  0  0
   -1.2367   26.2983  -27.6247 H   0  0  0  0  0  0  0  0  0  0  0  0
  1  2  1  0
  2  3  1  0
  3  4  2  0
  4  5  1  0
  5  6  1  0
  6  7  2  0
  7  8  1  0
  8  9  2  0
  9 10  1  0
 10 11  2  0
 11 12  1  0
 12 13  2  0
 13 14  1  0
 14 15  2  0
  9 16  1  0
 16 17  1  0
 17 18  1  0
 17 19  2  0
 19 20  1  0
 20 21  1  0
 20 22  1  0
 22 23  1  0
 23 24  1  0
 24 25  1  0
 24 26  1  0
  5 27  2  0
 27 28  1  0
 28 29  1  0
 29 30  1  0
 28 31  2  0
 31 32  1  0
 32 33  1  0
 31  3  1  0
 19  7  1  0
 15 10  1  0
  1 34  1  0
  1 35  1  0
  1 36  1  0
  4 37  1  0
 11 38  1  0
 12 39  1  0
 13 40  1  0
 14 41  1  0
 15 42  1  0
 16 43  1  0
 21 44  1  0
 21 45  1  0
 21 46  1  0
 22 47  1  0
 22 48  1  0
 23 49  1  0
 23 50  1  0
 24 51  1  0
 25 52  1  0
 25 53  1  0
 25 54  1  0
 26 55  1  0
 26 56  1  0
 26 57  1  0
 27 58  1  0
 30 59  1  0
 30 60  1  0
 30 61  1  0
 33 62  1  0
 33 63  1  0
 33 64  1  0
M  END
>  <smiles>  (29) 
COc1cc(N=c2nc(-c3ccccc3)[nH]c(Cl)c2N(C)CCC(C)C)cc(OC)c1OC

>  <score_type>  (29) 
oracle

>  <origin>  (29) 
adgpu

>  <m_score__min__energy>  (29) 
-9.8699999999999992

>  <m_primary>  (29) 
energy

$$$$
29:0
     RDKit          3D

 68 71  0  0  0  0  0  0  0  0999 V2000
   -2.9800   17.1880  -33.9720 C   0  0  0  0  0  0  0  0  0  0  0  0
   -2.5130   18.4090  -34.5390 O   0  0  0  0  0  0  0  0  0  0  0  0
   -1.7130   19.3480  -33.8670 C   0  0  0  0  0  0  0  0  0  0  0  0
   -0.3190   19.4170  -34.0700 C   0  0  0  0  0  0  0  0  0  0  0  0
    0.4530   20.3480  -33.3670 C   0  0  0  0  0  0  0  0  0  0  0  0
   -0.1540   21.2160  -32.4580 C   0  0  0  0  0  0  0  0  0  0  0  0
   -1.5340   21.1580  -32.2490 C   0  0  0  0  0  0  0  0  0  0  0  0
   -2.3200   20.2300  -32.9520 C   0  0  0  0  0  0  0  0  0  0  0  0
   -3.7400   20.1960  -32.7290 N   0  0  0  0  0  0  0  0  0  0  0  0
   -4.2720   19.7370  -31.4420 C   0  0  0  0  0  0  0  0  0  0  0  0
   -5.7290   19.2880  -31.5890 C   0  0  0  0  0  0  0  0  0  0  0  0
   -5.8840   18.5150  -32.8370 N   0  0  0  0  0  0  0  0  0  0  0  0
   -7.2100   17.8590  -32.8670 C   0  0  0  0  0  0  0  0  0  0  0  0
   -8.0600   18.1810  -31.6230 C   0  0  0  0  0  0  0  0  0  0  0  0
   -9.4090   18.8520  -31.9390 C   0  0  0  0  0  0  0  0  0  0  0  0
   -9.2840   20.2100  -32.6530 C   0  0  0  0  0  0  0  0  0  0  0  0
   -8.1840   21.0130  -32.1210 N   0  0  0  0  0  0  0  0  0  0  0  0
   -8.2030   22.4270  -31.8730 C   0  0  0  0  0  0  0  0  0  0  0  0
   -9.2940   23.0450  -31.9920 O   0  0  0  0  0  0  0  0  0  0  0  0
   -7.0020   23.1750  -31.4570 C   0  0  0  0  0  0  0  0  0  0  0  0
   -5.7320   22.7070  -31.8270 C   0  0  0  0  0  0  0  0  0  0  0  0
   -4.5810   23.3970  -31.4310 C   0  0  0  0  0  0  0  0  0  0  0  0
   -4.6870   24.5510  -30.6360 C   0  0  0  0  0  0  0  0  0  0  0  0
   -3.5270   25.2830  -30.2130 N   0  0  0  0  0  0  0  0  0  0  0  0
   -2.4820   24.7910  -29.3640 C   0  0  0  0  0  0  0  0  0  0  0  0
   -1.6110   25.6020  -28.9480 O   0  0  0  0  0  0  0  0  0  0  0  0
   -2.4350   23.3790  -28.9090 C   0  0  0  0  0  0  0  0  0  0  0  0
   -3.4940   22.8430  -28.1540 C   0  0  0  0  0  0  0  0  0  0  0  0
   -3.4600   21.5090  -27.7320 C   0  0  0  0  0  0  0  0  0  0  0  0
   -2.3740   20.6960  -28.0680 C   0  0  0  0  0  0  0  0  0  0  0  0
   -2.3410   19.4040  -27.6580 F   0  0  0  0  0  0  0  0  0  0  0  0
   -1.3240   21.2130  -28.8310 C   0  0  0  0  0  0  0  0  0  0  0  0
   -1.3560   22.5450  -29.2590 C   0  0  0  0  0  0  0  0  0  0  0  0
   -5.9560   25.0210  -30.2730 C   0  0  0  0  0  0  0  0  0  0  0  0
   -7.1050   24.3310  -30.6670 C   0  0  0  0  0  0  0  0  0  0  0  0
   -5.6560   19.3550  -34.0450 C   0  0  0  0  0  0  0  0  0  0  0  0
   -4.6720   20.5180  -33.8120 C   0  0  0  0  0  0  0  0  0  0  0  0
   -2.9527   17.2593  -32.8746 H   0  0  0  0  0  0  0  0  0  0  0  0
   -4.0128   17.0019  -34.3018 H   0  0  0  0  0  0  0  0  0  0  0  0
   -2.3350   16.3602  -34.3018 H   0  0  0  0  0  0  0  0  0  0  0  0
    0.1639   18.7349  -34.7852 H   0  0  0  0  0  0  0  0  0  0  0  0
    1.5397   20.3961  -33.5308 H   0  0  0  0  0  0  0  0  0  0  0  0
    0.4550   21.9466  -31.9055 H   0  0  0  0  0  0  0  0  0  0  0  0
   -2.0077   21.8427  -31.5301 H   0  0  0  0  0  0  0  0  0  0  0  0
   -3.6678   18.8911  -31.0823 H   0  0  0  0  0  0  0  0  0  0  0  0
   -4.2285   20.5690  -30.7238 H   0  0  0  0  0  0  0  0  0  0  0  0
   -6.0066   18.6580  -30.7310 H   0  0  0  0  0  0  0  0  0  0  0  0
   -6.3827   20.1721  -31.6226 H   0  0  0  0  0  0  0  0  0  0  0  0
   -7.7516   18.2005  -33.7615 H   0  0  0  0  0  0  0  0  0  0  0  0
   -7.0430   16.7719  -32.8834 H   0  0  0  0  0  0  0  0  0  0  0  0
   -8.2590   17.2407  -31.0879 H   0  0  0  0  0  0  0  0  0  0  0  0
   -7.4824   18.8985  -31.0217 H   0  0  0  0  0  0  0  0  0  0  0  0
   -9.9889   18.1750  -32.5835 H   0  0  0  0  0  0  0  0  0  0  0  0
   -9.9007   19.0452  -30.9741 H   0  0  0  0  0  0  0  0  0  0  0  0
   -9.1075   20.0324  -33.7241 H   0  0  0  0  0  0  0  0  0  0  0  0
  -10.2189   20.7659  -32.4888 H   0  0  0  0  0  0  0  0  0  0  0  0
   -5.6408   21.7927  -32.4317 H   0  0  0  0  0  0  0  0  0  0  0  0
   -3.5902   23.0351  -31.7429 H   0  0  0  0  0  0  0  0  0  0  0  0
   -4.3546   23.4766  -27.8935 H   0  0  0  0  0  0  0  0  0  0  0  0
   -4.2887   21.1001  -27.1354 H   0  0  0  0  0  0  0  0  0  0  0  0
   -0.4704   20.5717  -29.0959 H   0  0  0  0  0  0  0  0  0  0  0  0
   -0.5338   22.9425  -29.8721 H   0  0  0  0  0  0  0  0  0  0  0  0
   -6.0481   25.9390  -29.6740 H   0  0  0  0  0  0  0  0  0  0  0  0
   -8.0955   24.6953  -30.3567 H   0  0  0  0  0  0  0  0  0  0  0  0
   -5.2537   18.7140  -34.8433 H   0  0  0  0  0  0  0  0  0  0  0  0
   -6.6245   19.8015  -34.3145 H   0  0  0  0  0  0  0  0  0  0  0  0
   -4.1034   20.7010  -34.7357 H   0  0  0  0  0  0  0  0  0  0  0  0
   -5.2436   21.4154  -33.5327 H   0  0  0  0  0  0  0  0  0  0  0  0
  1  2  1  0
  2  3  1  0
  3  4  2  0
  4  5  1  0
  5  6  2  0
  6  7  1  0
  7  8  2  0
  8  9  1  0
  9 10  1  0
 10 11  1  0
 11 12  1  0
 12 13  1  0
 13 14  1  0
 14 15  1  0
 15 16  1  0
 16 17  1  0
 17 18  1  0
 18 19  2  0
 18 20  1  0
 20 21  2  0
 21 22  1  0
 22 23  2  0
 23 24  1  0
 24 25  1  0
 25 26  2  0
 25 27  1  0
 27 28  2  0
 28 29  1  0
 29 30  2  0
 30 31  1  0
 30 32  1  0
 32 33  2  0
 23 34  1  0
 34 35  2  0
 12 36  1  0
 36 37  1  0
  8  3  1  0
 37  9  1  0
 35 20  1  0
 33 27  1  0
  1 38  1  0
  1 39  1  0
  1 40  1  0
  4 41  1  0
  5 42  1  0
  6 43  1  0
  7 44  1  0
 10 45  1  0
 10 46  1  0
 11 47  1  0
 11 48  1  0
 13 49  1  0
 13 50  1  0
 14 51  1  0
 14 52  1  0
 15 53  1  0
 15 54  1  0
 16 55  1  0
 16 56  1  0
 21 57  1  0
 22 58  1  0
 28 59  1  0
 29 60  1  0
 32 61  1  0
 33 62  1  0
 34 63  1  0
 35 64  1  0
 36 65  1  0
 36 66  1  0
 37 67  1  0
 37 68  1  0
M  CHG  2  17  -1  24  -1
M  END
>  <UniqueID>  (30) 
27

>  <SMILES>  (30) 
COc1ccccc1N1CCN(CCCC[N-]C(=O)c2ccc([N-]C(=O)c3ccc(F)cc3)cc2)CC1

>  <Energy>  (30) 
89.06766802261389

>  <Genealogy>  (30) 
COc1ccccc1N1CCN(CCCC[N-]C(=O)c2ccc([N-]C(=O)c3ccc(F)cc3)cc2)CC1 (protonated)
COc1ccccc1N1CCN(CCCC[N-]C(=O)c2ccc([N-]C(=O)c3ccc(F)cc3)cc2)CC1 (3D coordinates assigned)
COc1ccccc1N1CCN(CCCC[N-]C(=O)c2ccc([N-]C(=O)c3ccc(F)cc3)cc2)CC1 (nonaromatic ring conformer: 89.06766802261389 kcal/mol)

>  <smiles>  (30) 
COc1ccccc1N1CCN(CCCCNC(=O)c2ccc(NC(=O)c3ccc(F)cc3)cc2)CC1

>  <score_type>  (30) 
oracle

>  <origin>  (30) 
adgpu

>  <m_score__min__energy>  (30) 
-11.529999999999999

>  <m_primary>  (30) 
energy

$$$$
30:0
     RDKit          3D

 40 42  0  0  0  0  0  0  0  0999 V2000
   -8.4470   19.8900  -32.8670 C   0  0  0  0  0  0  0  0  0  0  0  0
   -8.5890   21.4160  -31.9600 S   0  0  0  0  0  0  0  0  0  0  0  0
   -9.8620   22.0980  -32.3730 O   0  0  0  0  0  0  0  0  0  0  0  0
   -8.6440   21.1470  -30.4830 O   0  0  0  0  0  0  0  0  0  0  0  0
   -7.2500   22.4580  -32.3270 N   0  0  0  0  0  0  0  0  0  0  0  0
   -6.3310   22.9810  -31.3500 C   0  0  0  0  0  0  0  0  0  0  0  0
   -5.1040   22.3290  -31.1540 C   0  0  0  0  0  0  0  0  0  0  0  0
   -4.1840   22.8060  -30.2150 C   0  0  0  0  0  0  0  0  0  0  0  0
   -4.4720   23.9510  -29.4530 C   0  0  0  0  0  0  0  0  0  0  0  0
   -3.4970   24.4590  -28.4550 C   0  0  0  0  0  0  0  0  0  0  0  0
   -3.8470   24.5520  -27.0960 C   0  0  0  0  0  0  0  0  0  0  0  0
   -2.9290   25.0320  -26.1570 C   0  0  0  0  0  0  0  0  0  0  0  0
   -1.6410   25.4280  -26.5540 C   0  0  0  0  0  0  0  0  0  0  0  0
   -0.6660   25.9380  -25.5560 C   0  0  0  0  0  0  0  0  0  0  0  0
    0.7150   25.9150  -25.8290 C   0  0  0  0  0  0  0  0  0  0  0  0
    1.6310   26.3940  -24.8860 C   0  0  0  0  0  0  0  0  0  0  0  0
    1.1800   26.9020  -23.6670 C   0  0  0  0  0  0  0  0  0  0  0  0
   -0.1870   26.9310  -23.3840 C   0  0  0  0  0  0  0  0  0  0  0  0
   -1.1060   26.4530  -24.3220 C   0  0  0  0  0  0  0  0  0  0  0  0
   -1.2910   25.3360  -27.9130 C   0  0  0  0  0  0  0  0  0  0  0  0
   -2.2090   24.8580  -28.8520 C   0  0  0  0  0  0  0  0  0  0  0  0
   -5.6980   24.6080  -29.6530 C   0  0  0  0  0  0  0  0  0  0  0  0
   -6.6170   24.1310  -30.5930 C   0  0  0  0  0  0  0  0  0  0  0  0
   -8.3688   19.0499  -32.1612 H   0  0  0  0  0  0  0  0  0  0  0  0
   -9.3365   19.7556  -33.5000 H   0  0  0  0  0  0  0  0  0  0  0  0
   -7.5480   19.9220  -33.5000 H   0  0  0  0  0  0  0  0  0  0  0  0
   -7.0780   22.6580  -33.3380 H   0  0  0  0  0  0  0  0  0  0  0  0
   -4.8633   21.4332  -31.7452 H   0  0  0  0  0  0  0  0  0  0  0  0
   -3.2280   22.2811  -30.0719 H   0  0  0  0  0  0  0  0  0  0  0  0
   -4.8513   24.2445  -26.7691 H   0  0  0  0  0  0  0  0  0  0  0  0
   -3.2179   25.1002  -25.0978 H   0  0  0  0  0  0  0  0  0  0  0  0
    1.0760   25.5181  -26.7893 H   0  0  0  0  0  0  0  0  0  0  0  0
    2.7085   26.3701  -25.1059 H   0  0  0  0  0  0  0  0  0  0  0  0
    1.9022   27.2800  -22.9283 H   0  0  0  0  0  0  0  0  0  0  0  0
   -0.5408   27.3304  -22.4221 H   0  0  0  0  0  0  0  0  0  0  0  0
   -2.1818   26.4794  -24.0942 H   0  0  0  0  0  0  0  0  0  0  0  0
   -0.2864   25.6428  -28.2395 H   0  0  0  0  0  0  0  0  0  0  0  0
   -1.9210   24.7934  -29.9116 H   0  0  0  0  0  0  0  0  0  0  0  0
   -5.9371   25.5061  -29.0645 H   0  0  0  0  0  0  0  0  0  0  0  0
   -7.5704   24.6592  -30.7413 H   0  0  0  0  0  0  0  0  0  0  0  0
  1  2  1  0
  2  3  2  0
  2  4  2  0
  2  5  1  0
  5  6  1  0
  6  7  2  0
  7  8  1  0
  8  9  2  0
  9 10  1  0
 10 11  2  0
 11 12  1  0
 12 13  2  0
 13 14  1  0
 14 15  2  0
 15 16  1  0
 16 17  2  0
 17 18  1  0
 18 19  2  0
 13 20  1  0
 20 21  2  0
  9 22  1  0
 22 23  2  0
 23  6  1  0
 21 10  1  0
 19 14  1  0
  1 24  1  0
  1 25  1  0
  1 26  1  0
  5 27  1  0
  7 28  1  0
  8 29  1  0
 11 30  1  0
 12 31  1  0
 15 32  1  0
 16 33  1  0
 17 34  1  0
 18 35  1  0
 19 36  1  0
 20 37  1  0
 21 38  1  0
 22 39  1  0
 23 40  1  0
M  END
>  <UniqueID>  (31) 
28

>  <SMILES>  (31) 
CS(=O)(=O)Nc1ccc(-c2ccc(-c3ccccc3)cc2)cc1

>  <Energy>  (31) 
52.0484180284537

>  <Genealogy>  (31) 
CS(=O)(=O)Nc1ccc(-c2ccc(-c3ccccc3)cc2)cc1 (3D coordinates assigned)
CS(=O)(=O)Nc1ccc(-c2ccc(-c3ccccc3)cc2)cc1 (optimized conformer: 52.0484180284537 kcal/mol)

>  <smiles>  (31) 
CS(=O)(=O)Nc1ccc(-c2ccc(-c3ccccc3)cc2)cc1

>  <score_type>  (31) 
oracle

>  <origin>  (31) 
adgpu

>  <m_score__min__energy>  (31) 
-8.4199999999999999

>  <m_primary>  (31) 
energy

$$$$
31:0
     RDKit          3D

 38 40  0  0  0  0  0  0  0  0999 V2000
   -3.9720   22.7200  -32.2380 O   0  0  0  0  0  0  0  0  0  0  0  0
   -4.9630   23.3280  -31.7530 C   0  0  0  0  0  0  0  0  0  0  0  0
   -4.7680   24.6210  -31.1660 N   0  0  0  0  0  0  0  0  0  0  0  0
   -4.8040   24.8840  -29.7330 C   0  0  0  0  0  0  0  0  0  0  0  0
   -3.4740   24.5630  -29.1380 C   0  0  0  0  0  0  0  0  0  0  0  0
   -3.1890   23.4770  -28.3340 C   0  0  0  0  0  0  0  0  0  0  0  0
   -1.8450   23.5730  -28.0480 C   0  0  0  0  0  0  0  0  0  0  0  0
   -1.3930   24.7040  -28.6980 C   0  0  0  0  0  0  0  0  0  0  0  0
   -2.3880   25.2710  -29.3420 O   0  0  0  0  0  0  0  0  0  0  0  0
   -6.2880   22.6780  -31.7730 C   0  0  0  0  0  0  0  0  0  0  0  0
   -7.4330   23.4600  -31.9450 C   0  0  0  0  0  0  0  0  0  0  0  0
   -8.6850   22.8540  -32.0010 C   0  0  0  0  0  0  0  0  0  0  0  0
   -8.7840   21.4690  -31.8790 C   0  0  0  0  0  0  0  0  0  0  0  0
   -7.6690   20.7020  -31.6800 N   0  0  0  0  0  0  0  0  0  0  0  0
   -7.8160   19.2390  -31.6030 C   0  0  0  0  0  0  0  0  0  0  0  0
   -6.8840   18.5740  -32.5810 C   0  0  0  0  0  0  0  0  0  0  0  0
   -6.3810   17.2900  -32.3140 C   0  0  0  0  0  0  0  0  0  0  0  0
   -5.5520   16.6510  -33.2420 C   0  0  0  0  0  0  0  0  0  0  0  0
   -5.2280   17.2840  -34.4460 C   0  0  0  0  0  0  0  0  0  0  0  0
   -4.4270   16.6610  -35.3440 F   0  0  0  0  0  0  0  0  0  0  0  0
   -5.7320   18.5580  -34.7230 C   0  0  0  0  0  0  0  0  0  0  0  0
   -6.5600   19.2020  -33.7960 C   0  0  0  0  0  0  0  0  0  0  0  0
   -6.4260   21.2870  -31.6120 C   0  0  0  0  0  0  0  0  0  0  0  0
   -5.4030   20.5820  -31.3890 O   0  0  0  0  0  0  0  0  0  0  0  0
   -5.0372   25.9450  -29.5601 H   0  0  0  0  0  0  0  0  0  0  0  0
   -5.5777   24.2588  -29.2635 H   0  0  0  0  0  0  0  0  0  0  0  0
   -3.8882   22.6990  -27.9936 H   0  0  0  0  0  0  0  0  0  0  0  0
   -1.2512   22.8865  -27.4266 H   0  0  0  0  0  0  0  0  0  0  0  0
   -0.3573   25.0742  -28.6795 H   0  0  0  0  0  0  0  0  0  0  0  0
   -7.3453   24.5527  -32.0360 H   0  0  0  0  0  0  0  0  0  0  0  0
   -9.5898   23.4638  -32.1405 H   0  0  0  0  0  0  0  0  0  0  0  0
   -9.7707   20.9870  -31.9435 H   0  0  0  0  0  0  0  0  0  0  0  0
   -7.5751   18.9021  -30.5839 H   0  0  0  0  0  0  0  0  0  0  0  0
   -8.8526   18.9674  -31.8513 H   0  0  0  0  0  0  0  0  0  0  0  0
   -6.6399   16.7851  -31.3717 H   0  0  0  0  0  0  0  0  0  0  0  0
   -5.1543   15.6488  -33.0242 H   0  0  0  0  0  0  0  0  0  0  0  0
   -5.4777   19.0552  -35.6707 H   0  0  0  0  0  0  0  0  0  0  0  0
   -6.9584   20.2028  -34.0192 H   0  0  0  0  0  0  0  0  0  0  0  0
  1  2  2  0
  2  3  1  0
  3  4  1  0
  4  5  1  0
  5  6  2  0
  6  7  1  0
  7  8  2  0
  8  9  1  0
  2 10  1  0
 10 11  2  0
 11 12  1  0
 12 13  2  0
 13 14  1  0
 14 15  1  0
 15 16  1  0
 16 17  2  0
 17 18  1  0
 18 19  2  0
 19 20  1  0
 19 21  1  0
 21 22  2  0
 14 23  1  0
 23 24  2  0
  9  5  1  0
 23 10  1  0
 22 16  1  0
  4 25  1  0
  4 26  1  0
  6 27  1  0
  7 28  1  0
  8 29  1  0
 11 30  1  0
 12 31  1  0
 13 32  1  0
 15 33  1  0
 15 34  1  0
 17 35  1  0
 18 36  1  0
 21 37  1  0
 22 38  1  0
M  CHG  1   3  -1
M  END
>  <UniqueID>  (32) 
29

>  <SMILES>  (32) 
O=C([N-]Cc1ccco1)c1cccn(Cc2ccc(F)cc2)c1=O

>  <Energy>  (32) 
71.5394493776999

>  <Genealogy>  (32) 
O=C([N-]Cc1ccco1)c1cccn(Cc2ccc(F)cc2)c1=O (protonated)
O=C([N-]Cc1ccco1)c1cccn(Cc2ccc(F)cc2)c1=O (3D coordinates assigned)
O=C([N-]Cc1ccco1)c1cccn(Cc2ccc(F)cc2)c1=O (optimized conformer: 71.5394493776999 kcal/mol)

>  <smiles>  (32) 
O=C(NCc1ccco1)c1cccn(Cc2ccc(F)cc2)c1=O

>  <score_type>  (32) 
oracle

>  <origin>  (32) 
adgpu

>  <m_score__min__energy>  (32) 
-10.68

>  <m_primary>  (32) 
energy

$$$$
32:0
     RDKit          3D

 53 56  0  0  0  0  0  0  0  0999 V2000
   -6.4650   26.0450  -29.1630 C   0  0  0  0  0  0  0  0  0  0  0  0
   -5.8760   25.8420  -30.4440 O   0  0  0  0  0  0  0  0  0  0  0  0
   -5.6110   24.5820  -31.0050 C   0  0  0  0  0  0  0  0  0  0  0  0
   -6.5880   23.8630  -31.7190 C   0  0  0  0  0  0  0  0  0  0  0  0
   -6.2890   22.6110  -32.2590 C   0  0  0  0  0  0  0  0  0  0  0  0
   -5.0170   22.0530  -32.0880 C   0  0  0  0  0  0  0  0  0  0  0  0
   -4.7000   20.7300  -32.6730 C   0  0  0  0  0  0  0  0  0  0  0  0
   -3.4340   20.5410  -33.2420 C   0  0  0  0  0  0  0  0  0  0  0  0
   -3.0810   19.3360  -33.7540 N   0  0  0  0  0  0  0  0  0  0  0  0
   -3.9210   18.2690  -33.7490 C   0  0  0  0  0  0  0  0  0  0  0  0
   -3.4680   17.0340  -34.3130 N   0  0  0  0  0  0  0  0  0  0  0  0
   -3.8360   16.6860  -35.6870 C   0  0  0  0  0  0  0  0  0  0  0  0
   -3.0470   15.4600  -36.1560 C   0  0  0  0  0  0  0  0  0  0  0  0
   -3.1930   14.3310  -35.2070 N   0  0  0  0  0  0  0  0  0  0  0  0
   -2.3050   13.2270  -35.6140 C   0  0  0  0  0  0  0  0  0  0  0  0
   -2.9700   14.6930  -33.7720 C   0  0  0  0  0  0  0  0  0  0  0  0
   -2.5780   16.1610  -33.5490 C   0  0  0  0  0  0  0  0  0  0  0  0
   -5.2180   18.3990  -33.2100 C   0  0  0  0  0  0  0  0  0  0  0  0
   -6.1260   17.3210  -33.2130 C   0  0  0  0  0  0  0  0  0  0  0  0
   -7.4110   17.4780  -32.6940 C   0  0  0  0  0  0  0  0  0  0  0  0
   -7.8120   18.7070  -32.1740 C   0  0  0  0  0  0  0  0  0  0  0  0
   -6.9290   19.7890  -32.1620 C   0  0  0  0  0  0  0  0  0  0  0  0
   -5.6170   19.6500  -32.6670 C   0  0  0  0  0  0  0  0  0  0  0  0
   -4.0360   22.7730  -31.3910 C   0  0  0  0  0  0  0  0  0  0  0  0
   -4.3280   24.0370  -30.8430 C   0  0  0  0  0  0  0  0  0  0  0  0
   -3.3710   24.7790  -30.1330 O   0  0  0  0  0  0  0  0  0  0  0  0
   -2.8320   24.4010  -28.8710 C   0  0  0  0  0  0  0  0  0  0  0  0
   -5.7349   25.7934  -28.3797 H   0  0  0  0  0  0  0  0  0  0  0  0
   -6.7648   27.0983  -29.0601 H   0  0  0  0  0  0  0  0  0  0  0  0
   -7.3501   25.4001  -29.0601 H   0  0  0  0  0  0  0  0  0  0  0  0
   -7.5929   24.2902  -31.8522 H   0  0  0  0  0  0  0  0  0  0  0  0
   -7.0570   22.0602  -32.8218 H   0  0  0  0  0  0  0  0  0  0  0  0
   -2.7201   21.3773  -33.2738 H   0  0  0  0  0  0  0  0  0  0  0  0
   -4.9122   16.4622  -35.7285 H   0  0  0  0  0  0  0  0  0  0  0  0
   -3.6012   17.5352  -36.3456 H   0  0  0  0  0  0  0  0  0  0  0  0
   -3.4206   15.1493  -37.1429 H   0  0  0  0  0  0  0  0  0  0  0  0
   -1.9826   15.7321  -36.2112 H   0  0  0  0  0  0  0  0  0  0  0  0
   -4.1760   13.9760  -35.3030 H   0  0  0  0  0  0  0  0  0  0  0  0
   -1.9047   12.7293  -34.7185 H   0  0  0  0  0  0  0  0  0  0  0  0
   -2.8737   12.5010  -36.2136 H   0  0  0  0  0  0  0  0  0  0  0  0
   -1.4740   13.6269  -36.2136 H   0  0  0  0  0  0  0  0  0  0  0  0
   -3.8993   14.4956  -33.2176 H   0  0  0  0  0  0  0  0  0  0  0  0
   -2.1262   14.0823  -33.4184 H   0  0  0  0  0  0  0  0  0  0  0  0
   -2.6603   16.4022  -32.4789 H   0  0  0  0  0  0  0  0  0  0  0  0
   -1.5421   16.3150  -33.8856 H   0  0  0  0  0  0  0  0  0  0  0  0
   -5.8191   16.3494  -33.6274 H   0  0  0  0  0  0  0  0  0  0  0  0
   -8.1102   16.6288  -32.6952 H   0  0  0  0  0  0  0  0  0  0  0  0
   -8.8287   18.8255  -31.7711 H   0  0  0  0  0  0  0  0  0  0  0  0
   -7.2577   20.7571  -31.7561 H   0  0  0  0  0  0  0  0  0  0  0  0
   -3.0291   22.3465  -31.2712 H   0  0  0  0  0  0  0  0  0  0  0  0
   -3.4460   24.8316  -28.0662 H   0  0  0  0  0  0  0  0  0  0  0  0
   -2.8324   23.3043  -28.7857 H   0  0  0  0  0  0  0  0  0  0  0  0
   -1.8010   24.7750  -28.7857 H   0  0  0  0  0  0  0  0  0  0  0  0
  1  2  1  0
  2  3  1  0
  3  4  2  0
  4  5  1  0
  5  6  2  0
  6  7  1  0
  7  8  2  0
  8  9  1  0
  9 10  2  0
 10 11  1  0
 11 12  1  0
 12 13  1  0
 13 14  1  0
 14 15  1  0
 14 16  1  0
 16 17  1  0
 10 18  1  0
 18 19  2  0
 19 20  1  0
 20 21  2  0
 21 22  1  0
 22 23  2  0
  6 24  1  0
 24 25  2  0
 25 26  1  0
 26 27  1  0
 25  3  1  0
 23  7  1  0
 17 11  1  0
 23 18  1  0
  1 28  1  0
  1 29  1  0
  1 30  1  0
  4 31  1  0
  5 32  1  0
  8 33  1  0
 12 34  1  0
 12 35  1  0
 13 36  1  0
 13 37  1  0
 14 38  1  0
 15 39  1  0
 15 40  1  0
 15 41  1  0
 16 42  1  0
 16 43  1  0
 17 44  1  0
 17 45  1  0
 19 46  1  0
 20 47  1  0
 21 48  1  0
 22 49  1  0
 24 50  1  0
 27 51  1  0
 27 52  1  0
 27 53  1  0
M  CHG  1  14   1
M  END
>  <UniqueID>  (33) 
30

>  <SMILES>  (33) 
COc1ccc(-c2cnc(N3CC[NH+](C)CC3)c3ccccc23)cc1OC

>  <Energy>  (33) 
80.59139253274456

>  <Genealogy>  (33) 
COc1ccc(-c2cnc(N3CC[NH+](C)CC3)c3ccccc23)cc1OC (protonated)
COc1ccc(-c2cnc(N3CC[NH+](C)CC3)c3ccccc23)cc1OC (3D coordinates assigned)
COc1ccc(-c2cnc(N3CC[NH+](C)CC3)c3ccccc23)cc1OC (nonaromatic ring conformer: 80.59139253274456 kcal/mol)

>  <smiles>  (33) 
COc1ccc(-c2cnc(N3CCN(C)CC3)c3ccccc23)cc1OC

>  <score_type>  (33) 
oracle

>  <origin>  (33) 
adgpu

>  <m_score__min__energy>  (33) 
-8.0999999999999996

>  <m_primary>  (33) 
energy

$$$$
33:0
     RDKit          3D

 39 41  0  0  0  0  0  0  0  0999 V2000
   -3.8970   26.4790  -30.3000 H   0  0  0  0  0  0  0  0  0  0  0  0
   -3.9490   25.5780  -30.8190 N   0  0  0  0  0  0  0  0  0  0  0  0
   -4.8940   24.6960  -30.7090 C   0  0  0  0  0  0  0  0  0  0  0  0
   -4.8030   23.5650  -31.4580 N   0  0  0  0  0  0  0  0  0  0  0  0
   -5.7320   22.5710  -31.4250 C   0  0  0  0  0  0  0  0  0  0  0  0
   -5.5440   21.3690  -32.2770 C   0  0  0  0  0  0  0  0  0  0  0  0
   -6.6360   20.5720  -32.6710 C   0  0  0  0  0  0  0  0  0  0  0  0
   -7.6493   20.8253  -32.3261 H   0  0  0  0  0  0  0  0  0  0  0  0
   -6.4420   19.4630  -33.4960 C   0  0  0  0  0  0  0  0  0  0  0  0
   -7.3030   18.8506  -33.8021 H   0  0  0  0  0  0  0  0  0  0  0  0
   -5.1600   19.1280  -33.9340 C   0  0  0  0  0  0  0  0  0  0  0  0
   -5.0161   18.2573  -34.5907 H   0  0  0  0  0  0  0  0  0  0  0  0
   -4.0570   19.8940  -33.5420 C   0  0  0  0  0  0  0  0  0  0  0  0
   -2.7580   19.5300  -34.0330 N   0  0  0  0  0  0  0  0  0  0  0  0
   -1.5790   20.3420  -34.0030 C   0  0  0  0  0  0  0  0  0  0  0  0
   -1.3170   21.0480  -32.9920 O   0  0  0  0  0  0  0  0  0  0  0  0
   -0.6550   20.2750  -35.0980 N   0  0  0  0  0  0  0  0  0  0  0  0
   -0.7890   19.5060  -35.7930 H   0  0  0  0  0  0  0  0  0  0  0  0
    0.4660   21.1630  -35.2540 C   0  0  0  0  0  0  0  0  0  0  0  0
    0.2930   22.4400  -35.8180 C   0  0  0  0  0  0  0  0  0  0  0  0
   -0.7109   22.7706  -36.1229 H   0  0  0  0  0  0  0  0  0  0  0  0
    1.3870   23.2920  -35.9940 C   0  0  0  0  0  0  0  0  0  0  0  0
    1.2406   24.2917  -36.4290 H   0  0  0  0  0  0  0  0  0  0  0  0
    2.6660   22.8750  -35.6180 C   0  0  0  0  0  0  0  0  0  0  0  0
    4.0380   23.9450  -35.8410 Cl  0  0  0  0  0  0  0  0  0  0  0  0
    2.8520   21.6030  -35.0710 C   0  0  0  0  0  0  0  0  0  0  0  0
    3.8607   21.2753  -34.7793 H   0  0  0  0  0  0  0  0  0  0  0  0
    1.7620   20.7430  -34.8920 C   0  0  0  0  0  0  0  0  0  0  0  0
    2.0460   19.1600  -34.1790 Cl  0  0  0  0  0  0  0  0  0  0  0  0
   -4.2570   21.0280  -32.7340 C   0  0  0  0  0  0  0  0  0  0  0  0
   -3.3975   21.6557  -32.4560 H   0  0  0  0  0  0  0  0  0  0  0  0
   -6.8350   22.7020  -30.5670 C   0  0  0  0  0  0  0  0  0  0  0  0
   -7.5919   21.9056  -30.5128 H   0  0  0  0  0  0  0  0  0  0  0  0
   -6.9650   23.8480  -29.7840 C   0  0  0  0  0  0  0  0  0  0  0  0
   -7.8312   23.9542  -29.1143 H   0  0  0  0  0  0  0  0  0  0  0  0
   -6.0040   24.8660  -29.8410 C   0  0  0  0  0  0  0  0  0  0  0  0
   -6.1850   26.0290  -29.0180 N   0  0  0  0  0  0  0  0  0  0  0  0
   -6.8100   26.8030  -29.3360 H   0  0  0  0  0  0  0  0  0  0  0  0
   -5.7090   26.1660  -28.1030 H   0  0  0  0  0  0  0  0  0  0  0  0
  1  2  1  0
  2  3  2  0
  3  4  1  0
  4  5  1  0
  5  6  1  0
  6  7  2  0
  7  8  1  0
  7  9  1  0
  9 10  1  0
  9 11  2  0
 11 12  1  0
 11 13  1  0
 13 14  1  0
 14 15  1  0
 15 16  2  0
 15 17  1  0
 17 18  1  0
 17 19  1  0
 19 20  2  0
 20 21  1  0
 20 22  1  0
 22 23  1  0
 22 24  2  0
 24 25  1  0
 24 26  1  0
 26 27  1  0
 26 28  2  0
 28 29  1  0
 13 30  2  0
 30 31  1  0
  5 32  2  0
 32 33  1  0
 32 34  1  0
 34 35  1  0
 34 36  2  0
 36 37  1  0
 37 38  1  0
 37 39  1  0
 36  3  1  0
 30  6  1  0
 28 19  1  0
M  CHG  2   4  -1  14  -1
M  END
>  <UniqueID>  (34) 
31

>  <SMILES>  (34) 
[H]/N=c1/[n-]c(-c2cccc([N-]C(=O)Nc3ccc(Cl)cc3Cl)c2)ccc1N

>  <Energy>  (34) 
56.88288719244291

>  <Genealogy>  (34) 
N=c1[n-]c(-c2cccc([N-]C(=O)Nc3ccc(Cl)cc3Cl)c2)ccc1N (protonated)
[H]/N=c1/[n-]c(-c2cccc([N-]C(=O)Nc3ccc(Cl)cc3Cl)c2)ccc1N (cis-trans isomerization)
[H]/N=c1/[n-]c(-c2cccc([N-]C(=O)Nc3ccc(Cl)cc3Cl)c2)ccc1N (3D coordinates assigned)
[H]/N=c1/[n-]c(-c2cccc([N-]C(=O)Nc3ccc(Cl)cc3Cl)c2)ccc1N (optimized conformer: 56.88288719244291 kcal/mol)

>  <smiles>  (34) 
N=c1[nH]c(-c2cccc(NC(=O)Nc3ccc(Cl)cc3Cl)c2)ccc1N

>  <score_type>  (34) 
oracle

>  <origin>  (34) 
adgpu

>  <m_score__min__energy>  (34) 
-10.73

>  <m_primary>  (34) 
energy

$$$$
34:0
     RDKit          3D

 46 48  0  0  0  0  0  0  0  0999 V2000
   -9.0900   18.4900  -31.6360 C   0  0  0  0  0  0  0  0  0  0  0  0
   -7.6820   18.5690  -32.1650 C   0  0  0  0  0  0  0  0  0  0  0  0
   -6.7820   17.5180  -31.9120 C   0  0  0  0  0  0  0  0  0  0  0  0
   -5.4670   17.5880  -32.3770 C   0  0  0  0  0  0  0  0  0  0  0  0
   -5.0400   18.7020  -33.1100 C   0  0  0  0  0  0  0  0  0  0  0  0
   -5.9180   19.7600  -33.3490 C   0  0  0  0  0  0  0  0  0  0  0  0
   -7.2370   19.7110  -32.8670 C   0  0  0  0  0  0  0  0  0  0  0  0
   -8.1280   20.8150  -33.0710 N   0  0  0  0  0  0  0  0  0  0  0  0
   -8.5150   21.9660  -31.8320 S   0  0  0  0  0  0  0  0  0  0  0  0
   -9.5870   22.8880  -32.3440 O   0  0  0  0  0  0  0  0  0  0  0  0
   -9.0560   21.2310  -30.6350 O   0  0  0  0  0  0  0  0  0  0  0  0
   -7.1050   22.9210  -31.3790 C   0  0  0  0  0  0  0  0  0  0  0  0
   -7.2320   23.9590  -30.4470 C   0  0  0  0  0  0  0  0  0  0  0  0
   -6.1120   24.7130  -30.0740 C   0  0  0  0  0  0  0  0  0  0  0  0
   -4.8530   24.4270  -30.6310 C   0  0  0  0  0  0  0  0  0  0  0  0
   -3.6930   25.1980  -30.2960 N   0  0  0  0  0  0  0  0  0  0  0  0
   -2.6950   24.8270  -29.3380 C   0  0  0  0  0  0  0  0  0  0  0  0
   -2.8520   23.7730  -28.6740 O   0  0  0  0  0  0  0  0  0  0  0  0
   -1.5740   25.6730  -29.0460 N   0  0  0  0  0  0  0  0  0  0  0  0
   -0.4560   25.3480  -28.1620 C   0  0  0  0  0  0  0  0  0  0  0  0
   -0.6780   25.8680  -26.7630 C   0  0  0  0  0  0  0  0  0  0  0  0
   -0.6610   24.9940  -25.6610 C   0  0  0  0  0  0  0  0  0  0  0  0
   -0.8650   25.4860  -24.3680 C   0  0  0  0  0  0  0  0  0  0  0  0
   -1.0620   26.8570  -24.1630 C   0  0  0  0  0  0  0  0  0  0  0  0
   -1.0550   27.7360  -25.2490 C   0  0  0  0  0  0  0  0  0  0  0  0
   -0.8600   27.2460  -26.5440 C   0  0  0  0  0  0  0  0  0  0  0  0
   -4.7340   23.4020  -31.5790 C   0  0  0  0  0  0  0  0  0  0  0  0
   -5.8500   22.6450  -31.9430 C   0  0  0  0  0  0  0  0  0  0  0  0
   -9.0691   18.4912  -30.5362 H   0  0  0  0  0  0  0  0  0  0  0  0
   -9.6649   19.3573  -31.9927 H   0  0  0  0  0  0  0  0  0  0  0  0
   -9.5643   17.5638  -31.9927 H   0  0  0  0  0  0  0  0  0  0  0  0
   -7.1157   16.6364  -31.3450 H   0  0  0  0  0  0  0  0  0  0  0  0
   -4.7657   16.7669  -32.1671 H   0  0  0  0  0  0  0  0  0  0  0  0
   -4.0115   18.7432  -33.4978 H   0  0  0  0  0  0  0  0  0  0  0  0
   -5.5757   20.6371  -33.9178 H   0  0  0  0  0  0  0  0  0  0  0  0
   -8.2148   24.1828  -30.0065 H   0  0  0  0  0  0  0  0  0  0  0  0
   -6.2175   25.5296  -29.3446 H   0  0  0  0  0  0  0  0  0  0  0  0
   -0.3404   24.2548  -28.1213 H   0  0  0  0  0  0  0  0  0  0  0  0
    0.4487   25.8266  -28.5650 H   0  0  0  0  0  0  0  0  0  0  0  0
   -0.4865   23.9192  -25.8169 H   0  0  0  0  0  0  0  0  0  0  0  0
   -0.8707   24.7957  -23.5116 H   0  0  0  0  0  0  0  0  0  0  0  0
   -1.2225   27.2426  -23.1454 H   0  0  0  0  0  0  0  0  0  0  0  0
   -1.2029   28.8136  -25.0852 H   0  0  0  0  0  0  0  0  0  0  0  0
   -0.8488   27.9415  -27.3961 H   0  0  0  0  0  0  0  0  0  0  0  0
   -3.7569   23.1925  -32.0388 H   0  0  0  0  0  0  0  0  0  0  0  0
   -5.7448   21.8299  -32.6741 H   0  0  0  0  0  0  0  0  0  0  0  0
  1  2  1  0
  2  3  2  0
  3  4  1  0
  4  5  2  0
  5  6  1  0
  6  7  2  0
  7  8  1  0
  8  9  1  0
  9 10  2  0
  9 11  2  0
  9 12  1  0
 12 13  2  0
 13 14  1  0
 14 15  2  0
 15 16  1  0
 16 17  1  0
 17 18  2  0
 17 19  1  0
 19 20  1  0
 20 21  1  0
 21 22  2  0
 22 23  1  0
 23 24  2  0
 24 25  1  0
 25 26  2  0
 15 27  1  0
 27 28  2  0
  7  2  1  0
 28 12  1  0
 26 21  1  0
  1 29  1  0
  1 30  1  0
  1 31  1  0
  3 32  1  0
  4 33  1  0
  5 34  1  0
  6 35  1  0
 13 36  1  0
 14 37  1  0
 20 38  1  0
 20 39  1  0
 22 40  1  0
 23 41  1  0
 24 42  1  0
 25 43  1  0
 26 44  1  0
 27 45  1  0
 28 46  1  0
M  CHG  3   8  -1  16  -1  19  -1
M  END
>  <UniqueID>  (35) 
32

>  <SMILES>  (35) 
Cc1ccccc1[N-]S(=O)(=O)c1ccc([N-]C(=O)[N-]Cc2ccccc2)cc1

>  <Energy>  (35) 
59.30027262663416

>  <Genealogy>  (35) 
Cc1ccccc1[N-]S(=O)(=O)c1ccc([N-]C(=O)[N-]Cc2ccccc2)cc1 (protonated)
Cc1ccccc1[N-]S(=O)(=O)c1ccc([N-]C(=O)[N-]Cc2ccccc2)cc1 (3D coordinates assigned)
Cc1ccccc1[N-]S(=O)(=O)c1ccc([N-]C(=O)[N-]Cc2ccccc2)cc1 (optimized conformer: 59.30027262663416 kcal/mol)

>  <smiles>  (35) 
Cc1ccccc1NS(=O)(=O)c1ccc(NC(=O)NCc2ccccc2)cc1

>  <score_type>  (35) 
oracle

>  <origin>  (35) 
adgpu

>  <m_score__min__energy>  (35) 
-12.84

>  <m_primary>  (35) 
energy

$$$$
35:0
     RDKit          3D

 45 48  0  0  0  0  0  0  0  0999 V2000
   -8.8150   18.9550  -31.9810 C   0  0  0  0  0  0  0  0  0  0  0  0
   -9.0590   20.4370  -32.2110 C   0  0  0  0  0  0  0  0  0  0  0  0
   -7.8590   21.0510  -32.6720 O   0  0  0  0  0  0  0  0  0  0  0  0
   -6.8700   21.5880  -31.8330 C   0  0  0  0  0  0  0  0  0  0  0  0
   -5.5320   21.4720  -32.2220 C   0  0  0  0  0  0  0  0  0  0  0  0
   -4.5110   21.9910  -31.4220 C   0  0  0  0  0  0  0  0  0  0  0  0
   -4.8180   22.6440  -30.2180 C   0  0  0  0  0  0  0  0  0  0  0  0
   -3.7690   23.1680  -29.3860 N   0  0  0  0  0  0  0  0  0  0  0  0
   -3.1710   24.3720  -29.5140 C   0  0  0  0  0  0  0  0  0  0  0  0
   -3.4900   25.3020  -30.4960 O   0  0  0  0  0  0  0  0  0  0  0  0
   -2.2180   24.5650  -28.5310 C   0  0  0  0  0  0  0  0  0  0  0  0
   -2.2400   23.4150  -27.7680 C   0  0  0  0  0  0  0  0  0  0  0  0
   -1.1940   23.0610  -26.3600 S   0  0  0  0  0  0  0  0  0  0  0  0
   -1.0800   21.3290  -26.7860 C   0  0  0  0  0  0  0  0  0  0  0  0
   -0.5210   20.8930  -27.9320 N   0  0  0  0  0  0  0  0  0  0  0  0
   -0.6190   19.5530  -27.8500 C   0  0  0  0  0  0  0  0  0  0  0  0
   -0.1210   18.6260  -28.8950 C   0  0  0  0  0  0  0  0  0  0  0  0
   -0.2320   18.9790  -30.2550 C   0  0  0  0  0  0  0  0  0  0  0  0
    0.2330   18.1170  -31.2520 C   0  0  0  0  0  0  0  0  0  0  0  0
    0.8140   16.8940  -30.9080 C   0  0  0  0  0  0  0  0  0  0  0  0
    0.9300   16.5320  -29.5640 C   0  0  0  0  0  0  0  0  0  0  0  0
    0.4660   17.3900  -28.5610 C   0  0  0  0  0  0  0  0  0  0  0  0
   -1.2350   19.2190  -26.6590 C   0  0  0  0  0  0  0  0  0  0  0  0
   -1.5260   20.3430  -25.9820 N   0  0  0  0  0  0  0  0  0  0  0  0
   -3.1900   22.5790  -28.3160 C   0  0  0  0  0  0  0  0  0  0  0  0
   -3.4740   21.2950  -27.8560 O   0  0  0  0  0  0  0  0  0  0  0  0
   -6.1580   22.7550  -29.8200 C   0  0  0  0  0  0  0  0  0  0  0  0
   -7.1790   22.2350  -30.6200 C   0  0  0  0  0  0  0  0  0  0  0  0
   -8.7816   18.7523  -30.9004 H   0  0  0  0  0  0  0  0  0  0  0  0
   -9.6296   18.3740  -32.4381 H   0  0  0  0  0  0  0  0  0  0  0  0
   -7.8572   18.6658  -32.4381 H   0  0  0  0  0  0  0  0  0  0  0  0
   -9.8495   20.5656  -32.9650 H   0  0  0  0  0  0  0  0  0  0  0  0
   -9.3718   20.9074  -31.2671 H   0  0  0  0  0  0  0  0  0  0  0  0
   -5.2810   20.9674  -33.1667 H   0  0  0  0  0  0  0  0  0  0  0  0
   -3.4621   21.8875  -31.7370 H   0  0  0  0  0  0  0  0  0  0  0  0
   -1.5779   25.4480  -28.3874 H   0  0  0  0  0  0  0  0  0  0  0  0
   -0.6881   19.9403  -30.5339 H   0  0  0  0  0  0  0  0  0  0  0  0
    0.1413   18.4023  -32.3104 H   0  0  0  0  0  0  0  0  0  0  0  0
    1.1795   16.2172  -31.6943 H   0  0  0  0  0  0  0  0  0  0  0  0
    1.3877   15.5691  -29.2932 H   0  0  0  0  0  0  0  0  0  0  0  0
    0.5602   17.0974  -27.5048 H   0  0  0  0  0  0  0  0  0  0  0  0
   -1.4526   18.1957  -26.3190 H   0  0  0  0  0  0  0  0  0  0  0  0
   -2.7520   20.5940  -27.7480 H   0  0  0  0  0  0  0  0  0  0  0  0
   -6.4070   23.2545  -28.8721 H   0  0  0  0  0  0  0  0  0  0  0  0
   -8.2275   22.3311  -30.3017 H   0  0  0  0  0  0  0  0  0  0  0  0
  1  2  1  0
  2  3  1  0
  3  4  1  0
  4  5  2  0
  5  6  1  0
  6  7  2  0
  7  8  1  0
  8  9  1  0
  9 10  1  0
  9 11  2  0
 11 12  1  0
 12 13  1  0
 13 14  1  0
 14 15  2  0
 15 16  1  0
 16 17  1  0
 17 18  2  0
 18 19  1  0
 19 20  2  0
 20 21  1  0
 21 22  2  0
 16 23  2  0
 23 24  1  0
 12 25  2  0
 25 26  1  0
  7 27  1  0
 27 28  2  0
 28  4  1  0
 25  8  1  0
 24 14  1  0
 22 17  1  0
  1 29  1  0
  1 30  1  0
  1 31  1  0
  2 32  1  0
  2 33  1  0
  5 34  1  0
  6 35  1  0
 11 36  1  0
 18 37  1  0
 19 38  1  0
 20 39  1  0
 21 40  1  0
 22 41  1  0
 23 42  1  0
 26 43  1  0
 27 44  1  0
 28 45  1  0
M  CHG  2  10  -1  24  -1
M  END
>  <UniqueID>  (36) 
33

>  <SMILES>  (36) 
CCOc1ccc(-n2c([O-])cc(Sc3nc(-c4ccccc4)c[n-]3)c2O)cc1

>  <Energy>  (36) 
104.98999371621521

>  <Genealogy>  (36) 
CCOc1ccc(-n2c([O-])cc(Sc3nc(-c4ccccc4)c[n-]3)c2O)cc1 (protonated)
CCOc1ccc(-n2c([O-])cc(Sc3nc(-c4ccccc4)c[n-]3)c2O)cc1 (3D coordinates assigned)
CCOc1ccc(-n2c([O-])cc(Sc3nc(-c4ccccc4)c[n-]3)c2O)cc1 (optimized conformer: 104.98999371621521 kcal/mol)

>  <smiles>  (36) 
CCOc1ccc(-n2c(O)cc(Sc3nc(-c4ccccc4)c[nH]3)c2O)cc1

>  <score_type>  (36) 
oracle

>  <origin>  (36) 
adgpu

>  <m_score__min__energy>  (36) 
-10.380000000000001

>  <m_primary>  (36) 
energy

$$$$
36:0
     RDKit          3D

 33 35  0  0  0  0  0  0  0  0999 V2000
   -3.7880   24.1050  -28.2470 C   0  0  0  0  0  0  0  0  0  0  0  0
   -2.9130   24.7360  -29.3240 C   0  0  0  0  0  0  0  0  0  0  0  0
   -3.7330   25.2910  -30.3990 N   0  0  0  0  0  0  0  0  0  0  0  0
   -4.9740   24.7500  -30.8720 C   0  0  0  0  0  0  0  0  0  0  0  0
   -5.9980   25.4830  -30.8620 O   0  0  0  0  0  0  0  0  0  0  0  0
   -5.0890   23.3710  -31.3860 C   0  0  0  0  0  0  0  0  0  0  0  0
   -3.9360   22.6150  -31.6130 C   0  0  0  0  0  0  0  0  0  0  0  0
   -4.0310   21.3160  -32.1150 C   0  0  0  0  0  0  0  0  0  0  0  0
   -5.2800   20.7490  -32.4500 C   0  0  0  0  0  0  0  0  0  0  0  0
   -6.4470   21.4960  -32.1340 C   0  0  0  0  0  0  0  0  0  0  0  0
   -6.3400   22.8090  -31.6570 C   0  0  0  0  0  0  0  0  0  0  0  0
   -7.7530   20.9280  -32.2190 N   0  0  0  0  0  0  0  0  0  0  0  0
   -7.9560   19.2240  -32.2520 S   0  0  0  0  0  0  0  0  0  0  0  0
   -9.1520   18.8860  -33.0960 O   0  0  0  0  0  0  0  0  0  0  0  0
   -8.1350   18.6980  -30.8550 O   0  0  0  0  0  0  0  0  0  0  0  0
   -6.5030   18.5730  -32.9730 C   0  0  0  0  0  0  0  0  0  0  0  0
   -6.5210   17.2680  -33.4910 C   0  0  0  0  0  0  0  0  0  0  0  0
   -7.6100   16.4740  -33.3350 F   0  0  0  0  0  0  0  0  0  0  0  0
   -5.4210   16.7800  -34.1930 C   0  0  0  0  0  0  0  0  0  0  0  0
   -4.3180   17.5980  -34.4150 C   0  0  0  0  0  0  0  0  0  0  0  0
   -4.2820   18.8940  -33.8940 C   0  0  0  0  0  0  0  0  0  0  0  0
   -3.2320   19.6780  -34.2440 F   0  0  0  0  0  0  0  0  0  0  0  0
   -5.3520   19.3880  -33.1020 C   0  0  0  0  0  0  0  0  0  0  0  0
   -3.4042   24.3818  -27.2540 H   0  0  0  0  0  0  0  0  0  0  0  0
   -4.8210   24.4674  -28.3549 H   0  0  0  0  0  0  0  0  0  0  0  0
   -3.7703   23.0104  -28.3549 H   0  0  0  0  0  0  0  0  0  0  0  0
   -2.3132   25.5415  -28.8753 H   0  0  0  0  0  0  0  0  0  0  0  0
   -2.2572   23.9598  -29.7453 H   0  0  0  0  0  0  0  0  0  0  0  0
   -2.9478   23.0460  -31.3948 H   0  0  0  0  0  0  0  0  0  0  0  0
   -3.1151   20.7225  -32.2523 H   0  0  0  0  0  0  0  0  0  0  0  0
   -7.2505   23.4043  -31.4939 H   0  0  0  0  0  0  0  0  0  0  0  0
   -5.4247   15.7473  -34.5719 H   0  0  0  0  0  0  0  0  0  0  0  0
   -3.4687   17.2222  -35.0045 H   0  0  0  0  0  0  0  0  0  0  0  0
  1  2  1  0
  2  3  1  0
  3  4  1  0
  4  5  2  0
  4  6  1  0
  6  7  2  0
  7  8  1  0
  8  9  2  0
  9 10  1  0
 10 11  2  0
 10 12  1  0
 12 13  1  0
 13 14  2  0
 13 15  2  0
 13 16  1  0
 16 17  2  0
 17 18  1  0
 17 19  1  0
 19 20  2  0
 20 21  1  0
 21 22  1  0
 21 23  2  0
 11  6  1  0
 23 16  1  0
 23  9  1  0
  1 24  1  0
  1 25  1  0
  1 26  1  0
  2 27  1  0
  2 28  1  0
  7 29  1  0
  8 30  1  0
 11 31  1  0
 19 32  1  0
 20 33  1  0
M  CHG  2   3  -1  12  -1
M  END
>  <UniqueID>  (37) 
34

>  <SMILES>  (37) 
CC[N-]C(=O)c1ccc2c(c1)[N-]S(=O)(=O)c1c(F)ccc(F)c1-2

>  <Energy>  (37) 
53.92159525455948

>  <Genealogy>  (37) 
CC[N-]C(=O)c1ccc2c(c1)[N-]S(=O)(=O)c1c(F)ccc(F)c1-2 (protonated)
CC[N-]C(=O)c1ccc2c(c1)[N-]S(=O)(=O)c1c(F)ccc(F)c1-2 (3D coordinates assigned)
CC[N-]C(=O)c1ccc2c(c1)[N-]S(=O)(=O)c1c(F)ccc(F)c1-2 (nonaromatic ring conformer: 53.92159525455948 kcal/mol)

>  <smiles>  (37) 
CCNC(=O)c1ccc2c(c1)NS(=O)(=O)c1c(F)ccc(F)c1-2

>  <score_type>  (37) 
oracle

>  <origin>  (37) 
adgpu

>  <m_score__min__energy>  (37) 
-9.8699999999999992

>  <m_primary>  (37) 
energy

$$$$
37:0
     RDKit          3D

 19 19  0  0  0  0  0  0  0  0999 V2000
   -1.7050   25.7860  -29.6080 H   0  0  0  0  0  0  0  0  0  0  0  0
   -2.1880   24.8970  -29.3510 N   0  0  0  0  0  0  0  0  0  0  0  0
   -3.3030   24.5550  -29.9130 C   0  0  0  0  0  0  0  0  0  0  0  0
   -3.9220   25.2920  -30.8530 N   0  0  0  0  0  0  0  0  0  0  0  0
   -5.0230   24.6410  -31.1970 N   0  0  0  0  0  0  0  0  0  0  0  0
   -5.6950   24.9910  -31.9130 H   0  0  0  0  0  0  0  0  0  0  0  0
   -5.1180   23.4920  -30.4880 C   0  0  0  0  0  0  0  0  0  0  0  0
   -6.2080   22.5490  -30.6260 N   0  0  0  0  0  0  0  0  0  0  0  0
   -7.3940   22.6960  -29.7750 C   0  0  0  0  0  0  0  0  0  0  0  0
   -7.0934   22.6587  -28.7175 H   0  0  0  0  0  0  0  0  0  0  0  0
   -7.8784   23.6611  -29.9847 H   0  0  0  0  0  0  0  0  0  0  0  0
   -8.0994   21.8784  -29.9847 H   0  0  0  0  0  0  0  0  0  0  0  0
   -6.1480   21.4530  -31.5990 C   0  0  0  0  0  0  0  0  0  0  0  0
   -6.0954   20.4921  -31.0662 H   0  0  0  0  0  0  0  0  0  0  0  0
   -7.0486   21.4734  -32.2303 H   0  0  0  0  0  0  0  0  0  0  0  0
   -5.2550   21.5716  -32.2303 H   0  0  0  0  0  0  0  0  0  0  0  0
   -4.0150   23.4060  -29.6430 C   0  0  0  0  0  0  0  0  0  0  0  0
   -3.6580   22.3820  -28.6950 C   0  0  0  0  0  0  0  0  0  0  0  0
   -3.3670   21.5610  -27.9330 N   0  0  0  0  0  0  0  0  0  0  0  0
  1  2  1  0
  2  3  2  0
  3  4  1  0
  4  5  1  0
  5  6  1  0
  5  7  1  0
  7  8  1  0
  8  9  1  0
  9 10  1  0
  9 11  1  0
  9 12  1  0
  8 13  1  0
 13 14  1  0
 13 15  1  0
 13 16  1  0
  7 17  2  0
 17 18  1  0
 18 19  3  0
 17  3  1  0
M  CHG  1   4  -1
M  END
>  <UniqueID>  (38) 
35

>  <SMILES>  (38) 
[H]/N=c1\[n-][nH]c(N(C)C)c1C#N

>  <Energy>  (38) 
48.57299132956899

>  <Genealogy>  (38) 
CN(C)c1[nH][n-]c(=N)c1C#N (protonated)
[H]/N=c1\[n-][nH]c(N(C)C)c1C#N (cis-trans isomerization)
[H]/N=c1\[n-][nH]c(N(C)C)c1C#N (3D coordinates assigned)
[H]/N=c1\[n-][nH]c(N(C)C)c1C#N (optimized conformer: 48.57299132956899 kcal/mol)

>  <smiles>  (38) 
CN(C)c1[nH][nH]c(=N)c1C#N

>  <score_type>  (38) 
oracle

>  <origin>  (38) 
adgpu

>  <m_score__min__energy>  (38) 
-6

>  <m_primary>  (38) 
energy

$$$$
38:0
     RDKit          3D

 42 43  0  0  0  0  0  0  0  0999 V2000
   -2.5200   18.2080  -33.5280 C   0  0  0  0  0  0  0  0  0  0  0  0
   -1.1210   18.7960  -33.3750 C   0  0  0  0  0  0  0  0  0  0  0  0
   -1.1210   19.8580  -32.4210 O   0  0  0  0  0  0  0  0  0  0  0  0
   -2.2260   20.6610  -32.0890 C   0  0  0  0  0  0  0  0  0  0  0  0
   -2.8050   20.6690  -30.8040 C   0  0  0  0  0  0  0  0  0  0  0  0
   -3.9030   21.4890  -30.5330 C   0  0  0  0  0  0  0  0  0  0  0  0
   -4.4410   22.3100  -31.5350 C   0  0  0  0  0  0  0  0  0  0  0  0
   -5.5670   23.1550  -31.2540 N   0  0  0  0  0  0  0  0  0  0  0  0
   -5.3550   24.4640  -30.6810 C   0  0  0  0  0  0  0  0  0  0  0  0
   -6.4090   25.1590  -29.8710 C   0  0  0  0  0  0  0  0  0  0  0  0
   -4.2490   25.0480  -30.8470 O   0  0  0  0  0  0  0  0  0  0  0  0
   -7.1670   22.5550  -31.5980 S   0  0  0  0  0  0  0  0  0  0  0  0
   -7.8140   23.3820  -32.6740 O   0  0  0  0  0  0  0  0  0  0  0  0
   -8.0080   22.6480  -30.3550 O   0  0  0  0  0  0  0  0  0  0  0  0
   -7.0720   20.8930  -32.1700 C   0  0  0  0  0  0  0  0  0  0  0  0
   -6.3350   20.5730  -33.3180 C   0  0  0  0  0  0  0  0  0  0  0  0
   -6.2770   19.2500  -33.7690 C   0  0  0  0  0  0  0  0  0  0  0  0
   -6.9650   18.2370  -33.0820 C   0  0  0  0  0  0  0  0  0  0  0  0
   -6.8710   16.8140  -33.5430 C   0  0  0  0  0  0  0  0  0  0  0  0
   -7.6840   18.5600  -31.9200 C   0  0  0  0  0  0  0  0  0  0  0  0
   -7.7400   19.8810  -31.4700 C   0  0  0  0  0  0  0  0  0  0  0  0
   -3.8700   22.2970  -32.8140 C   0  0  0  0  0  0  0  0  0  0  0  0
   -2.7710   21.4780  -33.0870 C   0  0  0  0  0  0  0  0  0  0  0  0
   -2.9522   18.0263  -32.5329 H   0  0  0  0  0  0  0  0  0  0  0  0
   -3.1564   18.9148  -34.0807 H   0  0  0  0  0  0  0  0  0  0  0  0
   -2.4604   17.2588  -34.0807 H   0  0  0  0  0  0  0  0  0  0  0  0
   -0.4329   18.0072  -33.0371 H   0  0  0  0  0  0  0  0  0  0  0  0
   -0.7969   19.1947  -34.3476 H   0  0  0  0  0  0  0  0  0  0  0  0
   -2.3910   20.0276  -30.0121 H   0  0  0  0  0  0  0  0  0  0  0  0
   -4.3486   21.4909  -29.5273 H   0  0  0  0  0  0  0  0  0  0  0  0
   -6.1991   25.0206  -28.8001 H   0  0  0  0  0  0  0  0  0  0  0  0
   -6.4060   26.2328  -30.1094 H   0  0  0  0  0  0  0  0  0  0  0  0
   -7.3948   24.7332  -30.1094 H   0  0  0  0  0  0  0  0  0  0  0  0
   -5.8010   21.3636  -33.8656 H   0  0  0  0  0  0  0  0  0  0  0  0
   -5.6899   19.0023  -34.6656 H   0  0  0  0  0  0  0  0  0  0  0  0
   -6.8270   16.1476  -32.6690 H   0  0  0  0  0  0  0  0  0  0  0  0
   -7.7547   16.5658  -34.1492 H   0  0  0  0  0  0  0  0  0  0  0  0
   -5.9623   16.6842  -34.1492 H   0  0  0  0  0  0  0  0  0  0  0  0
   -8.2057   17.7689  -31.3614 H   0  0  0  0  0  0  0  0  0  0  0  0
   -8.3109   20.1272  -30.5625 H   0  0  0  0  0  0  0  0  0  0  0  0
   -4.2885   22.9342  -33.6070 H   0  0  0  0  0  0  0  0  0  0  0  0
   -2.3302   21.4752  -34.0948 H   0  0  0  0  0  0  0  0  0  0  0  0
  1  2  1  0
  2  3  1  0
  3  4  1  0
  4  5  2  0
  5  6  1  0
  6  7  2  0
  7  8  1  0
  8  9  1  0
  9 10  1  0
  9 11  2  0
  8 12  1  0
 12 13  2  0
 12 14  2  0
 12 15  1  0
 15 16  2  0
 16 17  1  0
 17 18  2  0
 18 19  1  0
 18 20  1  0
 20 21  2  0
  7 22  1  0
 22 23  2  0
 23  4  1  0
 21 15  1  0
  1 24  1  0
  1 25  1  0
  1 26  1  0
  2 27  1  0
  2 28  1  0
  5 29  1  0
  6 30  1  0
 10 31  1  0
 10 32  1  0
 10 33  1  0
 16 34  1  0
 17 35  1  0
 19 36  1  0
 19 37  1  0
 19 38  1  0
 20 39  1  0
 21 40  1  0
 22 41  1  0
 23 42  1  0
M  END
>  <UniqueID>  (39) 
36

>  <SMILES>  (39) 
CCOc1ccc(N(C(C)=O)S(=O)(=O)c2ccc(C)cc2)cc1

>  <Energy>  (39) 
45.91785033809954

>  <Genealogy>  (39) 
CCOc1ccc(N(C(C)=O)S(=O)(=O)c2ccc(C)cc2)cc1 (3D coordinates assigned)
CCOc1ccc(N(C(C)=O)S(=O)(=O)c2ccc(C)cc2)cc1 (optimized conformer: 45.91785033809954 kcal/mol)

>  <smiles>  (39) 
CCOc1ccc(N(C(C)=O)S(=O)(=O)c2ccc(C)cc2)cc1

>  <score_type>  (39) 
oracle

>  <origin>  (39) 
adgpu

>  <m_score__min__energy>  (39) 
-8.1300000000000008

>  <m_primary>  (39) 
energy

$$$$
39:0
     RDKit          3D

 36 38  0  0  0  0  0  0  0  0999 V2000
   -3.0030   23.4550  -27.4410 O   0  0  0  0  0  0  0  0  0  0  0  0
   -3.2480   24.3700  -28.2710 C   0  0  0  0  0  0  0  0  0  0  0  0
   -4.5990   24.5560  -28.7040 N   0  0  0  0  0  0  0  0  0  0  0  0
   -5.0670   24.8930  -30.3390 S   0  0  0  0  0  0  0  0  0  0  0  0
   -3.8650   25.3800  -31.1000 O   0  0  0  0  0  0  0  0  0  0  0  0
   -6.1150   25.9680  -30.3370 O   0  0  0  0  0  0  0  0  0  0  0  0
   -5.7290   23.4470  -31.0950 C   0  0  0  0  0  0  0  0  0  0  0  0
   -4.8970   22.5990  -31.8380 C   0  0  0  0  0  0  0  0  0  0  0  0
   -5.4130   21.4420  -32.4290 C   0  0  0  0  0  0  0  0  0  0  0  0
   -6.7710   21.1220  -32.2840 C   0  0  0  0  0  0  0  0  0  0  0  0
   -7.3000   19.9620  -32.8700 C   0  0  0  0  0  0  0  0  0  0  0  0
   -8.6550   19.6550  -32.7190 C   0  0  0  0  0  0  0  0  0  0  0  0
   -9.4900   20.5010  -31.9830 C   0  0  0  0  0  0  0  0  0  0  0  0
   -8.9760   21.6590  -31.3940 C   0  0  0  0  0  0  0  0  0  0  0  0
   -7.6170   21.9800  -31.5390 C   0  0  0  0  0  0  0  0  0  0  0  0
   -7.0890   23.1390  -30.9520 C   0  0  0  0  0  0  0  0  0  0  0  0
   -2.1790   25.1770  -28.7960 N   0  0  0  0  0  0  0  0  0  0  0  0
   -0.8620   25.2300  -28.2220 C   0  0  0  0  0  0  0  0  0  0  0  0
   -0.3980   26.3790  -27.5530 C   0  0  0  0  0  0  0  0  0  0  0  0
    0.8970   26.4150  -27.0260 C   0  0  0  0  0  0  0  0  0  0  0  0
    1.7440   25.3110  -27.1720 C   0  0  0  0  0  0  0  0  0  0  0  0
    3.3680   25.3580  -26.5110 Cl  0  0  0  0  0  0  0  0  0  0  0  0
    1.2980   24.1740  -27.8530 C   0  0  0  0  0  0  0  0  0  0  0  0
    0.0040   24.1370  -28.3830 C   0  0  0  0  0  0  0  0  0  0  0  0
   -3.8315   22.8452  -31.9569 H   0  0  0  0  0  0  0  0  0  0  0  0
   -4.7525   20.7809  -33.0092 H   0  0  0  0  0  0  0  0  0  0  0  0
   -6.6469   19.2929  -33.4494 H   0  0  0  0  0  0  0  0  0  0  0  0
   -9.0658   18.7450  -33.1806 H   0  0  0  0  0  0  0  0  0  0  0  0
  -10.5556   20.2540  -31.8672 H   0  0  0  0  0  0  0  0  0  0  0  0
   -9.6375   22.3206  -30.8155 H   0  0  0  0  0  0  0  0  0  0  0  0
   -7.7448   23.8092  -30.3769 H   0  0  0  0  0  0  0  0  0  0  0  0
   -2.3250   25.6700  -29.7030 H   0  0  0  0  0  0  0  0  0  0  0  0
   -1.0575   27.2527  -27.4444 H   0  0  0  0  0  0  0  0  0  0  0  0
    1.2499   27.3121  -26.4962 H   0  0  0  0  0  0  0  0  0  0  0  0
    1.9654   23.3078  -27.9720 H   0  0  0  0  0  0  0  0  0  0  0  0
   -0.3372   23.2455  -28.9296 H   0  0  0  0  0  0  0  0  0  0  0  0
  1  2  2  0
  2  3  1  0
  3  4  1  0
  4  5  2  0
  4  6  2  0
  4  7  1  0
  7  8  2  0
  8  9  1  0
  9 10  2  0
 10 11  1  0
 11 12  2  0
 12 13  1  0
 13 14  2  0
 14 15  1  0
 15 16  2  0
  2 17  1  0
 17 18  1  0
 18 19  2  0
 19 20  1  0
 20 21  2  0
 21 22  1  0
 21 23  1  0
 23 24  2  0
 16  7  1  0
 24 18  1  0
 15 10  1  0
  8 25  1  0
  9 26  1  0
 11 27  1  0
 12 28  1  0
 13 29  1  0
 14 30  1  0
 16 31  1  0
 17 32  1  0
 19 33  1  0
 20 34  1  0
 23 35  1  0
 24 36  1  0
M  CHG  1   3  -1
M  END
>  <UniqueID>  (40) 
37

>  <SMILES>  (40) 
O=C([N-]S(=O)(=O)c1ccc2ccccc2c1)Nc1ccc(Cl)cc1

>  <Energy>  (40) 
47.02378815442685

>  <Genealogy>  (40) 
O=C([N-]S(=O)(=O)c1ccc2ccccc2c1)Nc1ccc(Cl)cc1 (protonated)
O=C([N-]S(=O)(=O)c1ccc2ccccc2c1)Nc1ccc(Cl)cc1 (3D coordinates assigned)
O=C([N-]S(=O)(=O)c1ccc2ccccc2c1)Nc1ccc(Cl)cc1 (optimized conformer: 47.02378815442685 kcal/mol)

>  <smiles>  (40) 
O=C(Nc1ccc(Cl)cc1)NS(=O)(=O)c1ccc2ccccc2c1

>  <score_type>  (40) 
oracle

>  <origin>  (40) 
adgpu

>  <m_score__min__energy>  (40) 
-11.01

>  <m_primary>  (40) 
energy

$$$$
40:0
     RDKit          3D

 45 48  0  0  0  0  0  0  0  0999 V2000
   -6.3080   14.1510  -34.2070 C   0  0  0  0  0  0  0  0  0  0  0  0
   -7.1040   15.3240  -34.3430 O   0  0  0  0  0  0  0  0  0  0  0  0
   -6.7110   16.6000  -33.9140 C   0  0  0  0  0  0  0  0  0  0  0  0
   -7.2450   17.0930  -32.7180 C   0  0  0  0  0  0  0  0  0  0  0  0
   -6.8860   18.3590  -32.2470 C   0  0  0  0  0  0  0  0  0  0  0  0
   -5.9840   19.1560  -32.9700 C   0  0  0  0  0  0  0  0  0  0  0  0
   -5.6080   20.4920  -32.4700 C   0  0  0  0  0  0  0  0  0  0  0  0
   -4.8310   20.7090  -31.3890 N   0  0  0  0  0  0  0  0  0  0  0  0
   -4.7890   22.0580  -31.3520 C   0  0  0  0  0  0  0  0  0  0  0  0
   -4.0470   22.8300  -30.3340 C   0  0  0  0  0  0  0  0  0  0  0  0
   -3.4300   22.1850  -29.2530 C   0  0  0  0  0  0  0  0  0  0  0  0
   -2.7320   22.9250  -28.2970 C   0  0  0  0  0  0  0  0  0  0  0  0
   -2.6420   24.3210  -28.4270 C   0  0  0  0  0  0  0  0  0  0  0  0
   -1.9140   25.1550  -27.4360 C   0  0  0  0  0  0  0  0  0  0  0  0
   -2.5220   25.4760  -26.2100 C   0  0  0  0  0  0  0  0  0  0  0  0
   -1.8550   26.2650  -25.2690 C   0  0  0  0  0  0  0  0  0  0  0  0
   -0.5740   26.7580  -25.5430 C   0  0  0  0  0  0  0  0  0  0  0  0
    0.2730   27.7400  -24.3510 S   0  0  0  0  0  0  0  0  0  0  0  0
   -0.0990   27.1730  -22.7610 N   0  0  0  0  0  0  0  0  0  0  0  0
   -0.1490   29.1770  -24.4830 O   0  0  0  0  0  0  0  0  0  0  0  0
    1.7560   27.6500  -24.5810 O   0  0  0  0  0  0  0  0  0  0  0  0
    0.0390   26.4470  -26.7630 C   0  0  0  0  0  0  0  0  0  0  0  0
   -0.6260   25.6570  -27.7060 C   0  0  0  0  0  0  0  0  0  0  0  0
   -3.2590   24.9250  -29.4820 N   0  0  0  0  0  0  0  0  0  0  0  0
   -3.9460   24.2270  -30.4230 C   0  0  0  0  0  0  0  0  0  0  0  0
   -5.5000   22.6200  -32.3510 N   0  0  0  0  0  0  0  0  0  0  0  0
   -5.9900   21.6210  -33.0180 O   0  0  0  0  0  0  0  0  0  0  0  0
   -5.4470   18.6640  -34.1710 C   0  0  0  0  0  0  0  0  0  0  0  0
   -5.8060   17.3960  -34.6400 C   0  0  0  0  0  0  0  0  0  0  0  0
   -6.1587   13.9309  -33.1396 H   0  0  0  0  0  0  0  0  0  0  0  0
   -6.8184   13.3037  -34.6882 H   0  0  0  0  0  0  0  0  0  0  0  0
   -5.3321   14.3123  -34.6882 H   0  0  0  0  0  0  0  0  0  0  0  0
   -7.9537   16.4785  -32.1434 H   0  0  0  0  0  0  0  0  0  0  0  0
   -7.3125   18.7331  -31.3046 H   0  0  0  0  0  0  0  0  0  0  0  0
   -3.4962   21.0911  -29.1577 H   0  0  0  0  0  0  0  0  0  0  0  0
   -2.2547   22.4174  -27.4458 H   0  0  0  0  0  0  0  0  0  0  0  0
   -3.5328   25.1025  -25.9891 H   0  0  0  0  0  0  0  0  0  0  0  0
   -2.3386   26.4995  -24.3092 H   0  0  0  0  0  0  0  0  0  0  0  0
   -0.1130   28.0100  -22.1350 H   0  0  0  0  0  0  0  0  0  0  0  0
    0.7050   26.5820  -22.4530 H   0  0  0  0  0  0  0  0  0  0  0  0
    1.0485   26.8259  -26.9806 H   0  0  0  0  0  0  0  0  0  0  0  0
   -0.1398   25.4260  -28.6653 H   0  0  0  0  0  0  0  0  0  0  0  0
   -4.4252   24.7588  -31.2582 H   0  0  0  0  0  0  0  0  0  0  0  0
   -4.7398   19.2796  -34.7463 H   0  0  0  0  0  0  0  0  0  0  0  0
   -5.3787   17.0193  -35.5810 H   0  0  0  0  0  0  0  0  0  0  0  0
  1  2  1  0
  2  3  1  0
  3  4  2  0
  4  5  1  0
  5  6  2  0
  6  7  1  0
  7  8  2  0
  8  9  1  0
  9 10  1  0
 10 11  2  0
 11 12  1  0
 12 13  2  0
 13 14  1  0
 14 15  2  0
 15 16  1  0
 16 17  2  0
 17 18  1  0
 18 19  1  0
 18 20  2  0
 18 21  2  0
 17 22  1  0
 22 23  2  0
 13 24  1  0
 24 25  2  0
  9 26  2  0
 26 27  1  0
  6 28  1  0
 28 29  2  0
 29  3  1  0
 27  7  1  0
 25 10  1  0
 23 14  1  0
  1 30  1  0
  1 31  1  0
  1 32  1  0
  4 33  1  0
  5 34  1  0
 11 35  1  0
 12 36  1  0
 15 37  1  0
 16 38  1  0
 19 39  1  0
 19 40  1  0
 22 41  1  0
 23 42  1  0
 25 43  1  0
 28 44  1  0
 29 45  1  0
M  END
>  <UniqueID>  (41) 
38

>  <SMILES>  (41) 
COc1ccc(-c2nc(-c3ccc(-c4ccc(S(N)(=O)=O)cc4)nc3)no2)cc1

>  <Energy>  (41) 
86.0380254629221

>  <Genealogy>  (41) 
COc1ccc(-c2nc(-c3ccc(-c4ccc(S(N)(=O)=O)cc4)nc3)no2)cc1 (3D coordinates assigned)
COc1ccc(-c2nc(-c3ccc(-c4ccc(S(N)(=O)=O)cc4)nc3)no2)cc1 (optimized conformer: 86.0380254629221 kcal/mol)

>  <smiles>  (41) 
COc1ccc(-c2nc(-c3ccc(-c4ccc(S(N)(=O)=O)cc4)nc3)no2)cc1

>  <score_type>  (41) 
oracle

>  <origin>  (41) 
adgpu

>  <m_score__min__energy>  (41) 
-8.8599999999999994

>  <m_primary>  (41) 
energy

$$$$
41:0
     RDKit          3D

 31 33  0  0  1  0  0  0  0  0999 V2000
   -0.6190   20.9080  -32.5020 Cl  0  0  0  0  0  0  0  0  0  0  0  0
   -2.0610   21.6550  -31.8580 C   0  0  0  0  0  0  0  0  0  0  0  0
   -3.1750   21.6780  -32.6350 C   0  0  0  0  0  0  0  0  0  0  0  0
   -4.3590   22.2860  -32.1360 C   0  0  0  0  0  0  0  0  0  0  0  0
   -4.2620   22.8090  -30.8890 C   0  0  0  0  0  0  0  0  0  0  0  0
   -5.3560   23.4090  -30.3310 C   0  0  0  0  0  0  0  0  0  0  0  0
   -6.4080   23.6600  -30.9610 N   0  0  0  0  0  0  0  0  0  0  0  0
   -6.6590   23.3940  -32.3280 C   0  0  0  0  0  0  0  0  0  0  0  0
   -7.5320   22.1350  -32.1770 C   0  0  0  0  0  0  0  0  0  0  0  0
   -8.7260   22.3030  -31.5080 C   0  0  0  0  0  0  0  0  0  0  0  0
   -9.5270   21.1950  -31.3730 C   0  0  0  0  0  0  0  0  0  0  0  0
   -9.1240   19.9910  -31.8970 C   0  0  0  0  0  0  0  0  0  0  0  0
   -7.9390   19.7990  -32.5690 C   0  0  0  0  0  0  0  0  0  0  0  0
   -7.1340   20.9360  -32.6960 C   0  0  0  0  0  0  0  0  0  0  0  0
   -5.2720   23.9160  -29.0690 N   0  0  0  0  0  0  0  0  0  0  0  0
   -4.1560   23.8670  -28.3290 C   0  0  0  0  0  0  0  0  0  0  0  0
   -4.1280   24.5380  -26.7170 Cl  0  0  0  0  0  0  0  0  0  0  0  0
   -3.0680   23.2890  -28.8620 N   0  0  0  0  0  0  0  0  0  0  0  0
   -3.1210   22.7790  -30.1040 C   0  0  0  0  0  0  0  0  0  0  0  0
   -1.9850   22.1900  -30.5900 C   0  0  0  0  0  0  0  0  0  0  0  0
   -3.1610   21.2308  -33.6399 H   0  0  0  0  0  0  0  0  0  0  0  0
   -5.2895   22.3292  -32.7211 H   0  0  0  0  0  0  0  0  0  0  0  0
   -7.2036   24.2167  -32.8143 H   0  0  0  0  0  0  0  0  0  0  0  0
   -5.7644   23.2746  -32.9569 H   0  0  0  0  0  0  0  0  0  0  0  0
   -9.0238   23.2804  -31.1006 H   0  0  0  0  0  0  0  0  0  0  0  0
  -10.4895   21.2720  -30.8461 H   0  0  0  0  0  0  0  0  0  0  0  0
   -9.7910   19.1254  -31.7714 H   0  0  0  0  0  0  0  0  0  0  0  0
   -7.6453   18.8208  -32.9775 H   0  0  0  0  0  0  0  0  0  0  0  0
   -6.1695   20.8636  -33.2198 H   0  0  0  0  0  0  0  0  0  0  0  0
   -6.1010   24.3700  -28.6320 H   0  0  0  0  0  0  0  0  0  0  0  0
   -1.0585   22.1459  -29.9987 H   0  0  0  0  0  0  0  0  0  0  0  0
  1  2  1  0
  2  3  2  0
  3  4  1  0
  4  5  2  0
  5  6  1  0
  6  7  2  0
  7  8  1  0
  8  9  1  0
  9 10  2  0
 10 11  1  0
 11 12  2  0
 12 13  1  0
 13 14  2  0
  6 15  1  0
 15 16  1  0
 16 17  1  0
 16 18  2  0
 18 19  1  0
 19 20  2  0
 20  2  1  0
 19  5  1  0
 14  9  1  0
  3 21  1  0
  4 22  1  0
  8 23  1  0
  8 24  1  0
 10 25  1  0
 11 26  1  0
 12 27  1  0
 13 28  1  0
 14 29  1  0
 15 30  1  0
 20 31  1  0
M  END
>  <smiles>  (42) 
Clc1ccc2c(=NCc3ccccc3)[nH]c(Cl)nc2c1

>  <score_type>  (42) 
oracle

>  <origin>  (42) 
adgpu

>  <m_score__min__energy>  (42) 
-7.7599999999999998

>  <m_primary>  (42) 
energy

$$$$
42:0
     RDKit          3D

 19 19  0  0  0  0  0  0  0  0999 V2000
   -7.2545   19.5376  -33.5300 H   0  0  0  0  0  0  0  0  0  0  0  0
   -6.6910   20.3650  -33.0740 C   0  0  0  0  0  0  0  0  0  0  0  0
   -7.3510   21.3390  -32.3240 C   0  0  0  0  0  0  0  0  0  0  0  0
   -8.7740   21.2520  -32.1240 C   0  0  0  0  0  0  0  0  0  0  0  0
   -9.9180   21.1820  -31.9630 N   0  0  0  0  0  0  0  0  0  0  0  0
   -6.6250   22.3920  -31.7570 C   0  0  0  0  0  0  0  0  0  0  0  0
   -7.1380   23.1581  -31.1571 H   0  0  0  0  0  0  0  0  0  0  0  0
   -5.2280   22.4650  -31.9600 C   0  0  0  0  0  0  0  0  0  0  0  0
   -4.4890   23.4170  -31.4570 N   0  0  0  0  0  0  0  0  0  0  0  0
   -4.8910   24.6020  -30.7500 C   0  0  0  0  0  0  0  0  0  0  0  0
   -4.2360   25.6740  -30.8440 O   0  0  0  0  0  0  0  0  0  0  0  0
   -6.0090   24.5160  -29.7670 C   0  0  0  0  0  0  0  0  0  0  0  0
   -5.6023   24.5473  -28.7454 H   0  0  0  0  0  0  0  0  0  0  0  0
   -6.6936   25.3641  -29.9152 H   0  0  0  0  0  0  0  0  0  0  0  0
   -6.5558   23.5731  -29.9152 H   0  0  0  0  0  0  0  0  0  0  0  0
   -4.6150   21.4810  -32.6810 N   0  0  0  0  0  0  0  0  0  0  0  0
   -3.5800   21.5150  -32.8250 H   0  0  0  0  0  0  0  0  0  0  0  0
   -5.3100   20.4520  -33.2390 C   0  0  0  0  0  0  0  0  0  0  0  0
   -4.7790   19.6857  -33.8228 H   0  0  0  0  0  0  0  0  0  0  0  0
  1  2  1  0
  2  3  1  0
  3  4  1  0
  4  5  3  0
  3  6  2  0
  6  7  1  0
  6  8  1  0
  8  9  2  0
  9 10  1  0
 10 11  2  0
 10 12  1  0
 12 13  1  0
 12 14  1  0
 12 15  1  0
  8 16  1  0
 16 17  1  0
 16 18  1  0
 18 19  1  0
 18  2  2  0
M  END
>  <UniqueID>  (43) 
39

>  <SMILES>  (43) 
CC(=O)/N=c1\cc(C#N)cc[nH]1

>  <Energy>  (43) 
22.71569681768259

>  <Genealogy>  (43) 
CC(=O)/N=c1\cc(C#N)cc[nH]1 (cis-trans isomerization)
CC(=O)/N=c1\cc(C#N)cc[nH]1 (3D coordinates assigned)
CC(=O)/N=c1\cc(C#N)cc[nH]1 (optimized conformer: 22.71569681768259 kcal/mol)

>  <smiles>  (43) 
CC(=O)N=c1cc(C#N)cc[nH]1

>  <score_type>  (43) 
oracle

>  <origin>  (43) 
adgpu

>  <m_score__min__energy>  (43) 
-5.9000000000000004

>  <m_primary>  (43) 
energy

$$$$
43:0
     RDKit          3D

 37 38  0  0  0  0  0  0  0  0999 V2000
   -7.1400   23.8000  -30.4240 C   0  0  0  0  0  0  0  0  0  0  0  0
   -6.0860   24.4900  -31.2850 C   0  0  0  0  0  0  0  0  0  0  0  0
   -5.2860   25.5070  -30.4720 C   0  0  0  0  0  0  0  0  0  0  0  0
   -3.8620   25.3010  -30.7030 N   0  0  0  0  0  0  0  0  0  0  0  0
   -3.0290   24.5610  -29.8060 C   0  0  0  0  0  0  0  0  0  0  0  0
   -2.1370   25.1470  -29.1390 O   0  0  0  0  0  0  0  0  0  0  0  0
   -3.2360   23.1580  -29.6150 N   0  0  0  0  0  0  0  0  0  0  0  0
   -3.4260   22.1970  -30.6640 C   0  0  0  0  0  0  0  0  0  0  0  0
   -4.6870   21.6230  -30.8310 C   0  0  0  0  0  0  0  0  0  0  0  0
   -4.9130   20.6670  -31.8320 C   0  0  0  0  0  0  0  0  0  0  0  0
   -6.2660   20.0850  -31.9790 C   0  0  0  0  0  0  0  0  0  0  0  0
   -7.3600   20.9120  -32.2860 C   0  0  0  0  0  0  0  0  0  0  0  0
   -8.6420   20.3660  -32.4140 C   0  0  0  0  0  0  0  0  0  0  0  0
   -8.8410   18.9950  -32.2280 C   0  0  0  0  0  0  0  0  0  0  0  0
   -7.7600   18.1680  -31.9090 C   0  0  0  0  0  0  0  0  0  0  0  0
   -6.4770   18.7100  -31.7800 C   0  0  0  0  0  0  0  0  0  0  0  0
   -3.8380   20.3050  -32.6760 C   0  0  0  0  0  0  0  0  0  0  0  0
   -4.0000   19.3240  -33.8000 C   0  0  0  0  0  0  0  0  0  0  0  0
   -2.6080   20.8460  -32.4610 N   0  0  0  0  0  0  0  0  0  0  0  0
   -2.3700   21.7590  -31.4840 C   0  0  0  0  0  0  0  0  0  0  0  0
   -1.1970   22.1800  -31.3090 O   0  0  0  0  0  0  0  0  0  0  0  0
   -6.9037   23.9547  -29.3609 H   0  0  0  0  0  0  0  0  0  0  0  0
   -8.1300   24.2254  -30.6452 H   0  0  0  0  0  0  0  0  0  0  0  0
   -7.1461   22.7225  -30.6452 H   0  0  0  0  0  0  0  0  0  0  0  0
   -5.3983   23.7313  -31.6867 H   0  0  0  0  0  0  0  0  0  0  0  0
   -6.5972   25.0218  -32.1010 H   0  0  0  0  0  0  0  0  0  0  0  0
   -5.5643   26.5250  -30.7822 H   0  0  0  0  0  0  0  0  0  0  0  0
   -5.5067   25.3766  -29.4023 H   0  0  0  0  0  0  0  0  0  0  0  0
   -5.5132   21.9238  -30.1700 H   0  0  0  0  0  0  0  0  0  0  0  0
   -7.2080   21.9924  -32.4262 H   0  0  0  0  0  0  0  0  0  0  0  0
   -9.4940   21.0163  -32.6612 H   0  0  0  0  0  0  0  0  0  0  0  0
   -9.8487   18.5666  -32.3327 H   0  0  0  0  0  0  0  0  0  0  0  0
   -7.9185   17.0898  -31.7593 H   0  0  0  0  0  0  0  0  0  0  0  0
   -5.6300   18.0574  -31.5218 H   0  0  0  0  0  0  0  0  0  0  0  0
   -4.1661   18.3179  -33.3875 H   0  0  0  0  0  0  0  0  0  0  0  0
   -4.8624   19.6138  -34.4182 H   0  0  0  0  0  0  0  0  0  0  0  0
   -3.0902   19.3212  -34.4182 H   0  0  0  0  0  0  0  0  0  0  0  0
  1  2  1  0
  2  3  1  0
  3  4  1  0
  4  5  1  0
  5  6  2  0
  5  7  1  0
  7  8  1  0
  8  9  2  0
  9 10  1  0
 10 11  1  0
 11 12  2  0
 12 13  1  0
 13 14  2  0
 14 15  1  0
 15 16  2  0
 10 17  2  0
 17 18  1  0
 17 19  1  0
 19 20  1  0
 20 21  2  0
 20  8  1  0
 16 11  1  0
  1 22  1  0
  1 23  1  0
  1 24  1  0
  2 25  1  0
  2 26  1  0
  3 27  1  0
  3 28  1  0
  9 29  1  0
 12 30  1  0
 13 31  1  0
 14 32  1  0
 15 33  1  0
 16 34  1  0
 18 35  1  0
 18 36  1  0
 18 37  1  0
M  CHG  3   4  -1   7  -1  19  -1
M  END
>  <UniqueID>  (44) 
40

>  <SMILES>  (44) 
CCC[N-]C(=O)[N-]c1cc(-c2ccccc2)c(C)[n-]c1=O

>  <Energy>  (44) 
42.32549853158508

>  <Genealogy>  (44) 
CCC[N-]C(=O)[N-]c1cc(-c2ccccc2)c(C)[n-]c1=O (protonated)
CCC[N-]C(=O)[N-]c1cc(-c2ccccc2)c(C)[n-]c1=O (3D coordinates assigned)
CCC[N-]C(=O)[N-]c1cc(-c2ccccc2)c(C)[n-]c1=O (optimized conformer: 42.32549853158508 kcal/mol)

>  <smiles>  (44) 
CCCNC(=O)Nc1cc(-c2ccccc2)c(C)[nH]c1=O

>  <score_type>  (44) 
oracle

>  <origin>  (44) 
adgpu

>  <m_score__min__energy>  (44) 
-10.890000000000001

>  <m_primary>  (44) 
energy

$$$$
44:0
     RDKit          3D

 37 39  0  0  0  0  0  0  0  0999 V2000
    0.2010   23.0700  -25.4530 C   0  0  0  0  0  0  0  0  0  0  0  0
    0.7960   22.8140  -26.7190 O   0  0  0  0  0  0  0  0  0  0  0  0
    0.6640   23.6860  -27.8060 C   0  0  0  0  0  0  0  0  0  0  0  0
    1.6760   24.3040  -28.2390 O   0  0  0  0  0  0  0  0  0  0  0  0
   -0.6660   23.8750  -28.4420 C   0  0  0  0  0  0  0  0  0  0  0  0
   -1.4060   22.7550  -28.8490 C   0  0  0  0  0  0  0  0  0  0  0  0
   -2.6570   22.9250  -29.4470 C   0  0  0  0  0  0  0  0  0  0  0  0
   -3.4240   21.8290  -29.8660 C   0  0  0  0  0  0  0  0  0  0  0  0
   -4.6730   22.0370  -30.4600 C   0  0  0  0  0  0  0  0  0  0  0  0
   -5.1700   23.3440  -30.6380 C   0  0  0  0  0  0  0  0  0  0  0  0
   -6.4190   23.6050  -31.2240 O   0  0  0  0  0  0  0  0  0  0  0  0
   -6.8600   23.1110  -32.4900 C   0  0  0  0  0  0  0  0  0  0  0  0
   -7.3950   21.7080  -32.3610 C   0  0  0  0  0  0  0  0  0  0  0  0
   -8.6210   21.4720  -31.7180 C   0  0  0  0  0  0  0  0  0  0  0  0
   -9.1150   20.1700  -31.5940 C   0  0  0  0  0  0  0  0  0  0  0  0
   -8.3850   19.0930  -32.1040 C   0  0  0  0  0  0  0  0  0  0  0  0
   -8.8650   17.8310  -31.9830 F   0  0  0  0  0  0  0  0  0  0  0  0
   -7.1580   19.3160  -32.7330 C   0  0  0  0  0  0  0  0  0  0  0  0
   -6.6590   20.6170  -32.8600 C   0  0  0  0  0  0  0  0  0  0  0  0
   -5.4610   20.8120  -33.4670 F   0  0  0  0  0  0  0  0  0  0  0  0
   -4.3960   24.4340  -30.2220 C   0  0  0  0  0  0  0  0  0  0  0  0
   -3.1460   24.2330  -29.6260 C   0  0  0  0  0  0  0  0  0  0  0  0
   -2.4240   25.2760  -29.2320 O   0  0  0  0  0  0  0  0  0  0  0  0
   -1.2300   25.1530  -28.6600 C   0  0  0  0  0  0  0  0  0  0  0  0
   -0.6140   26.1990  -28.3170 O   0  0  0  0  0  0  0  0  0  0  0  0
    0.8957   22.7711  -24.6542 H   0  0  0  0  0  0  0  0  0  0  0  0
   -0.0215   24.1435  -25.3628 H   0  0  0  0  0  0  0  0  0  0  0  0
   -0.7314   22.4934  -25.3628 H   0  0  0  0  0  0  0  0  0  0  0  0
   -1.0014   21.7434  -28.6974 H   0  0  0  0  0  0  0  0  0  0  0  0
   -3.0438   20.8061  -29.7277 H   0  0  0  0  0  0  0  0  0  0  0  0
   -5.2713   21.1751  -30.7904 H   0  0  0  0  0  0  0  0  0  0  0  0
   -7.6552   23.7660  -32.8754 H   0  0  0  0  0  0  0  0  0  0  0  0
   -6.0043   23.0995  -33.1811 H   0  0  0  0  0  0  0  0  0  0  0  0
   -9.1958   22.3163  -31.3096 H   0  0  0  0  0  0  0  0  0  0  0  0
  -10.0790   19.9932  -31.0946 H   0  0  0  0  0  0  0  0  0  0  0  0
   -6.5825   18.4666  -33.1296 H   0  0  0  0  0  0  0  0  0  0  0  0
   -4.7738   25.4572  -30.3649 H   0  0  0  0  0  0  0  0  0  0  0  0
  1  2  1  0
  2  3  1  0
  3  4  2  0
  3  5  1  0
  5  6  2  0
  6  7  1  0
  7  8  2  0
  8  9  1  0
  9 10  2  0
 10 11  1  0
 11 12  1  0
 12 13  1  0
 13 14  2  0
 14 15  1  0
 15 16  2  0
 16 17  1  0
 16 18  1  0
 18 19  2  0
 19 20  1  0
 10 21  1  0
 21 22  2  0
 22 23  1  0
 23 24  1  0
 24 25  2  0
 24  5  1  0
 22  7  1  0
 19 13  1  0
  1 26  1  0
  1 27  1  0
  1 28  1  0
  6 29  1  0
  8 30  1  0
  9 31  1  0
 12 32  1  0
 12 33  1  0
 14 34  1  0
 15 35  1  0
 18 36  1  0
 21 37  1  0
M  END
>  <UniqueID>  (45) 
41

>  <SMILES>  (45) 
COC(=O)c1cc2ccc(OCc3ccc(F)cc3F)cc2oc1=O

>  <Energy>  (45) 
44.02955323351786

>  <Genealogy>  (45) 
COC(=O)c1cc2ccc(OCc3ccc(F)cc3F)cc2oc1=O (3D coordinates assigned)
COC(=O)c1cc2ccc(OCc3ccc(F)cc3F)cc2oc1=O (optimized conformer: 44.02955323351786 kcal/mol)

>  <smiles>  (45) 
COC(=O)c1cc2ccc(OCc3ccc(F)cc3F)cc2oc1=O

>  <score_type>  (45) 
oracle

>  <origin>  (45) 
adgpu

>  <m_score__min__energy>  (45) 
-7.6900000000000004

>  <m_primary>  (45) 
energy

$$$$
45:0
     RDKit          3D

 52 55  0  0  0  0  0  0  0  0999 V2000
    0.0180   22.6620  -23.9470 C   0  0  0  0  0  0  0  0  0  0  0  0
   -0.2160   23.2310  -25.3160 C   0  0  0  0  0  0  0  0  0  0  0  0
    0.4750   22.7140  -26.4210 C   0  0  0  0  0  0  0  0  0  0  0  0
    0.2280   23.2120  -27.7050 C   0  0  0  0  0  0  0  0  0  0  0  0
   -0.7220   24.2280  -27.8990 C   0  0  0  0  0  0  0  0  0  0  0  0
   -1.0300   24.7310  -29.2860 C   0  0  0  0  0  0  0  0  0  0  0  0
   -2.3720   25.2970  -29.3210 N   0  0  0  0  0  0  0  0  0  0  0  0
   -3.5060   24.6020  -29.8530 C   0  0  0  0  0  0  0  0  0  0  0  0
   -4.1370   25.0690  -30.8420 O   0  0  0  0  0  0  0  0  0  0  0  0
   -3.9380   23.3100  -29.2320 C   0  0  0  0  0  0  0  0  0  0  0  0
   -2.9230   22.2780  -29.4780 N   0  0  0  0  0  0  0  0  0  0  0  0
   -2.4760   22.1270  -30.7380 N   0  0  0  0  0  0  0  0  0  0  0  0
   -1.4960   21.2370  -31.0770 C   0  0  0  0  0  0  0  0  0  0  0  0
   -1.0390   21.1520  -32.5010 C   0  0  0  0  0  0  0  0  0  0  0  0
   -0.9590   20.4540  -30.0500 C   0  0  0  0  0  0  0  0  0  0  0  0
    0.0040   19.4560  -29.9760 C   0  0  0  0  0  0  0  0  0  0  0  0
    0.7520   18.8350  -31.1180 C   0  0  0  0  0  0  0  0  0  0  0  0
    0.1150   19.0970  -28.6640 N   0  0  0  0  0  0  0  0  0  0  0  0
    1.0060   18.1250  -28.0900 C   0  0  0  0  0  0  0  0  0  0  0  0
    0.5120   16.8710  -27.6980 C   0  0  0  0  0  0  0  0  0  0  0  0
    1.3610   15.9300  -27.1060 C   0  0  0  0  0  0  0  0  0  0  0  0
    2.7070   16.2390  -26.8890 C   0  0  0  0  0  0  0  0  0  0  0  0
    3.2030   17.4940  -27.2580 C   0  0  0  0  0  0  0  0  0  0  0  0
    2.3550   18.4370  -27.8470 C   0  0  0  0  0  0  0  0  0  0  0  0
   -0.7480   19.7890  -27.9260 N   0  0  0  0  0  0  0  0  0  0  0  0
   -1.3970   20.6130  -28.7670 C   0  0  0  0  0  0  0  0  0  0  0  0
   -2.3880   21.5320  -28.4540 C   0  0  0  0  0  0  0  0  0  0  0  0
   -2.7790   21.6660  -27.2630 O   0  0  0  0  0  0  0  0  0  0  0  0
   -1.4280   24.7310  -26.7940 C   0  0  0  0  0  0  0  0  0  0  0  0
   -1.1810   24.2320  -25.5120 C   0  0  0  0  0  0  0  0  0  0  0  0
   -0.2846   23.3979  -23.1874 H   0  0  0  0  0  0  0  0  0  0  0  0
   -0.5756   21.7440  -23.8251 H   0  0  0  0  0  0  0  0  0  0  0  0
    1.0857   22.4272  -23.8251 H   0  0  0  0  0  0  0  0  0  0  0  0
    1.2150   21.9128  -26.2778 H   0  0  0  0  0  0  0  0  0  0  0  0
    0.7799   22.8063  -28.5657 H   0  0  0  0  0  0  0  0  0  0  0  0
   -0.3000   25.5056  -29.5636 H   0  0  0  0  0  0  0  0  0  0  0  0
   -0.9713   23.8934  -29.9966 H   0  0  0  0  0  0  0  0  0  0  0  0
   -4.0625   23.4491  -28.1480 H   0  0  0  0  0  0  0  0  0  0  0  0
   -4.8934   22.9941  -29.6764 H   0  0  0  0  0  0  0  0  0  0  0  0
    0.0421   20.9509  -32.5277 H   0  0  0  0  0  0  0  0  0  0  0  0
   -1.5760   20.3383  -33.0105 H   0  0  0  0  0  0  0  0  0  0  0  0
   -1.2475   22.1043  -33.0105 H   0  0  0  0  0  0  0  0  0  0  0  0
    1.5425   18.1787  -30.7249 H   0  0  0  0  0  0  0  0  0  0  0  0
    0.0574   18.2444  -31.7333 H   0  0  0  0  0  0  0  0  0  0  0  0
    1.2048   19.6264  -31.7333 H   0  0  0  0  0  0  0  0  0  0  0  0
   -0.5487   16.6269  -27.8572 H   0  0  0  0  0  0  0  0  0  0  0  0
    0.9690   14.9455  -26.8108 H   0  0  0  0  0  0  0  0  0  0  0  0
    3.3753   15.4963  -26.4287 H   0  0  0  0  0  0  0  0  0  0  0  0
    4.2612   17.7392  -27.0846 H   0  0  0  0  0  0  0  0  0  0  0  0
    2.7455   19.4280  -28.1216 H   0  0  0  0  0  0  0  0  0  0  0  0
   -2.1791   25.5216  -26.9382 H   0  0  0  0  0  0  0  0  0  0  0  0
   -1.7448   24.6250  -24.6532 H   0  0  0  0  0  0  0  0  0  0  0  0
  1  2  1  0
  2  3  2  0
  3  4  1  0
  4  5  2  0
  5  6  1  0
  6  7  1  0
  7  8  1  0
  8  9  2  0
  8 10  1  0
 10 11  1  0
 11 12  1  0
 12 13  2  0
 13 14  1  0
 13 15  1  0
 15 16  2  0
 16 17  1  0
 16 18  1  0
 18 19  1  0
 19 20  2  0
 20 21  1  0
 21 22  2  0
 22 23  1  0
 23 24  2  0
 18 25  1  0
 25 26  2  0
 26 27  1  0
 27 28  2  0
  5 29  1  0
 29 30  2  0
 30  2  1  0
 27 11  1  0
 26 15  1  0
 24 19  1  0
  1 31  1  0
  1 32  1  0
  1 33  1  0
  3 34  1  0
  4 35  1  0
  6 36  1  0
  6 37  1  0
 10 38  1  0
 10 39  1  0
 14 40  1  0
 14 41  1  0
 14 42  1  0
 17 43  1  0
 17 44  1  0
 17 45  1  0
 20 46  1  0
 21 47  1  0
 22 48  1  0
 23 49  1  0
 24 50  1  0
 29 51  1  0
 30 52  1  0
M  CHG  1   7  -1
M  END
>  <UniqueID>  (46) 
42

>  <SMILES>  (46) 
Cc1ccc(C[N-]C(=O)Cn2nc(C)c3c(C)n(-c4ccccc4)nc3c2=O)cc1

>  <Energy>  (46) 
97.33686033206148

>  <Genealogy>  (46) 
Cc1ccc(C[N-]C(=O)Cn2nc(C)c3c(C)n(-c4ccccc4)nc3c2=O)cc1 (protonated)
Cc1ccc(C[N-]C(=O)Cn2nc(C)c3c(C)n(-c4ccccc4)nc3c2=O)cc1 (3D coordinates assigned)
Cc1ccc(C[N-]C(=O)Cn2nc(C)c3c(C)n(-c4ccccc4)nc3c2=O)cc1 (optimized conformer: 97.33686033206148 kcal/mol)

>  <smiles>  (46) 
Cc1ccc(CNC(=O)Cn2nc(C)c3c(C)n(-c4ccccc4)nc3c2=O)cc1

>  <score_type>  (46) 
oracle

>  <origin>  (46) 
adgpu

>  <m_score__min__energy>  (46) 
-11.92

>  <m_primary>  (46) 
energy

$$$$
46:0
     RDKit          3D

 46 49  0  0  0  0  0  0  0  0999 V2000
   -1.8610   24.2000  -28.9350 C   0  0  0  0  0  0  0  0  0  0  0  0
   -3.1020   24.1970  -29.7590 C   0  0  0  0  0  0  0  0  0  0  0  0
   -3.9490   23.1540  -29.8420 N   0  0  0  0  0  0  0  0  0  0  0  0
   -4.9000   23.6470  -30.6650 C   0  0  0  0  0  0  0  0  0  0  0  0
   -6.0930   22.8860  -31.0950 C   0  0  0  0  0  0  0  0  0  0  0  0
   -6.0870   22.1720  -32.3040 C   0  0  0  0  0  0  0  0  0  0  0  0
   -7.2150   21.4540  -32.7080 C   0  0  0  0  0  0  0  0  0  0  0  0
   -8.3710   21.4370  -31.9190 C   0  0  0  0  0  0  0  0  0  0  0  0
   -9.4740   20.6970  -32.3760 O   0  0  0  0  0  0  0  0  0  0  0  0
   -9.4580   19.3120  -32.7230 C   0  0  0  0  0  0  0  0  0  0  0  0
   -8.8050   18.4860  -31.5960 C   0  0  0  0  0  0  0  0  0  0  0  0
   -7.5220   17.8650  -31.9860 N   0  0  0  0  0  0  0  0  0  0  0  0
   -6.4060   18.1070  -31.0360 C   0  0  0  0  0  0  0  0  0  0  0  0
   -5.3290   19.0330  -31.6090 C   0  0  0  0  0  0  0  0  0  0  0  0
   -4.8340   18.4580  -32.8990 C   0  0  0  0  0  0  0  0  0  0  0  0
   -3.4750   18.4950  -33.2430 C   0  0  0  0  0  0  0  0  0  0  0  0
   -3.0470   17.9490  -34.4570 C   0  0  0  0  0  0  0  0  0  0  0  0
   -3.9740   17.3790  -35.3350 C   0  0  0  0  0  0  0  0  0  0  0  0
   -5.3320   17.3540  -35.0010 C   0  0  0  0  0  0  0  0  0  0  0  0
   -5.7660   17.8820  -33.7760 C   0  0  0  0  0  0  0  0  0  0  0  0
   -7.2370   17.9510  -33.4430 C   0  0  0  0  0  0  0  0  0  0  0  0
   -8.3790   22.1480  -30.7030 C   0  0  0  0  0  0  0  0  0  0  0  0
   -7.2510   22.8660  -30.2990 C   0  0  0  0  0  0  0  0  0  0  0  0
   -4.6400   24.9140  -31.0480 N   0  0  0  0  0  0  0  0  0  0  0  0
   -3.5210   25.2170  -30.4640 O   0  0  0  0  0  0  0  0  0  0  0  0
   -2.1292   24.1994  -27.8682 H   0  0  0  0  0  0  0  0  0  0  0  0
   -1.2665   23.3033  -29.1642 H   0  0  0  0  0  0  0  0  0  0  0  0
   -1.2709   25.0996  -29.1642 H   0  0  0  0  0  0  0  0  0  0  0  0
   -5.1877   22.1781  -32.9374 H   0  0  0  0  0  0  0  0  0  0  0  0
   -7.1946   20.8962  -33.6559 H   0  0  0  0  0  0  0  0  0  0  0  0
  -10.4903   18.9643  -32.8765 H   0  0  0  0  0  0  0  0  0  0  0  0
   -8.8753   19.1810  -33.6467 H   0  0  0  0  0  0  0  0  0  0  0  0
   -8.6235   19.1503  -30.7382 H   0  0  0  0  0  0  0  0  0  0  0  0
   -9.4986   17.6680  -31.3517 H   0  0  0  0  0  0  0  0  0  0  0  0
   -6.8145   18.5656  -30.1234 H   0  0  0  0  0  0  0  0  0  0  0  0
   -5.9318   17.1365  -30.8280 H   0  0  0  0  0  0  0  0  0  0  0  0
   -5.7567   20.0303  -31.7889 H   0  0  0  0  0  0  0  0  0  0  0  0
   -4.4960   19.1229  -30.8962 H   0  0  0  0  0  0  0  0  0  0  0  0
   -2.7462   18.9532  -32.5583 H   0  0  0  0  0  0  0  0  0  0  0  0
   -1.9795   17.9679  -34.7217 H   0  0  0  0  0  0  0  0  0  0  0  0
   -3.6349   16.9498  -36.2894 H   0  0  0  0  0  0  0  0  0  0  0  0
   -6.0613   16.9193  -35.7005 H   0  0  0  0  0  0  0  0  0  0  0  0
   -7.6344   18.9051  -33.8194 H   0  0  0  0  0  0  0  0  0  0  0  0
   -7.7164   17.0820  -33.9174 H   0  0  0  0  0  0  0  0  0  0  0  0
   -9.2776   22.1377  -30.0687 H   0  0  0  0  0  0  0  0  0  0  0  0
   -7.2693   23.4207  -29.3493 H   0  0  0  0  0  0  0  0  0  0  0  0
  1  2  1  0
  2  3  2  0
  3  4  1  0
  4  5  1  0
  5  6  2  0
  6  7  1  0
  7  8  2  0
  8  9  1  0
  9 10  1  0
 10 11  1  0
 11 12  1  0
 12 13  1  0
 13 14  1  0
 14 15  1  0
 15 16  2  0
 16 17  1  0
 17 18  2  0
 18 19  1  0
 19 20  2  0
 20 21  1  0
  8 22  1  0
 22 23  2  0
  4 24  2  0
 24 25  1  0
 25  2  1  0
 23  5  1  0
 21 12  1  0
 20 15  1  0
  1 26  1  0
  1 27  1  0
  1 28  1  0
  6 29  1  0
  7 30  1  0
 10 31  1  0
 10 32  1  0
 11 33  1  0
 11 34  1  0
 13 35  1  0
 13 36  1  0
 14 37  1  0
 14 38  1  0
 16 39  1  0
 17 40  1  0
 18 41  1  0
 19 42  1  0
 21 43  1  0
 21 44  1  0
 22 45  1  0
 23 46  1  0
M  END
>  <UniqueID>  (47) 
43

>  <SMILES>  (47) 
Cc1nc(-c2ccc(OCCN3CCc4ccccc4C3)cc2)no1

>  <Energy>  (47) 
94.11206418006607

>  <Genealogy>  (47) 
Cc1nc(-c2ccc(OCCN3CCc4ccccc4C3)cc2)no1 (3D coordinates assigned)
Cc1nc(-c2ccc(OCCN3CCc4ccccc4C3)cc2)no1 (nonaromatic ring conformer: 94.11206418006607 kcal/mol)

>  <smiles>  (47) 
Cc1nc(-c2ccc(OCCN3CCc4ccccc4C3)cc2)no1

>  <score_type>  (47) 
oracle

>  <origin>  (47) 
adgpu

>  <m_score__min__energy>  (47) 
-9.5199999999999996

>  <m_primary>  (47) 
energy

$$$$
47:0
     RDKit          3D

 30 31  0  0  0  0  0  0  0  0999 V2000
  -10.3798   19.4685  -32.5702 H   0  0  0  0  0  0  0  0  0  0  0  0
   -9.4400   20.0080  -32.3810 C   0  0  0  0  0  0  0  0  0  0  0  0
   -9.5190   21.2400  -31.9620 N   0  0  0  0  0  0  0  0  0  0  0  0
   -8.4470   22.0740  -31.4930 C   0  0  0  0  0  0  0  0  0  0  0  0
   -8.0250   22.0430  -30.1520 C   0  0  0  0  0  0  0  0  0  0  0  0
   -8.5021   21.3500  -29.4434 H   0  0  0  0  0  0  0  0  0  0  0  0
   -7.0020   22.8890  -29.7160 C   0  0  0  0  0  0  0  0  0  0  0  0
   -6.6668   22.8497  -28.6691 H   0  0  0  0  0  0  0  0  0  0  0  0
   -6.4020   23.7870  -30.6080 C   0  0  0  0  0  0  0  0  0  0  0  0
   -5.1180   24.8560  -30.0530 S   0  0  0  0  0  0  0  0  0  0  0  0
   -3.8560   24.5810  -30.8220 O   0  0  0  0  0  0  0  0  0  0  0  0
   -5.5310   26.2840  -30.2650 O   0  0  0  0  0  0  0  0  0  0  0  0
   -4.8170   24.5850  -28.3720 N   0  0  0  0  0  0  0  0  0  0  0  0
   -5.7090   24.2410  -27.9520 H   0  0  0  0  0  0  0  0  0  0  0  0
   -4.6210   25.5170  -27.9420 H   0  0  0  0  0  0  0  0  0  0  0  0
   -6.8510   23.8490  -31.9340 C   0  0  0  0  0  0  0  0  0  0  0  0
   -6.3968   24.5658  -32.6339 H   0  0  0  0  0  0  0  0  0  0  0  0
   -7.8750   23.0020  -32.3700 C   0  0  0  0  0  0  0  0  0  0  0  0
   -8.2327   23.0658  -33.4083 H   0  0  0  0  0  0  0  0  0  0  0  0
   -8.1690   19.2870  -32.6190 C   0  0  0  0  0  0  0  0  0  0  0  0
   -7.8790   18.0740  -31.9680 C   0  0  0  0  0  0  0  0  0  0  0  0
   -8.6155   17.6313  -31.2813 H   0  0  0  0  0  0  0  0  0  0  0  0
   -6.6590   17.4290  -32.1900 C   0  0  0  0  0  0  0  0  0  0  0  0
   -6.4442   16.4723  -31.6914 H   0  0  0  0  0  0  0  0  0  0  0  0
   -5.7120   17.9990  -33.0450 C   0  0  0  0  0  0  0  0  0  0  0  0
   -4.7550   17.4872  -33.2247 H   0  0  0  0  0  0  0  0  0  0  0  0
   -5.9800   19.2190  -33.6720 C   0  0  0  0  0  0  0  0  0  0  0  0
   -5.2308   19.6705  -34.3389 H   0  0  0  0  0  0  0  0  0  0  0  0
   -7.2000   19.8660  -33.4520 C   0  0  0  0  0  0  0  0  0  0  0  0
   -7.4009   20.8339  -33.9345 H   0  0  0  0  0  0  0  0  0  0  0  0
  1  2  1  0
  2  3  2  0
  3  4  1  0
  4  5  2  0
  5  6  1  0
  5  7  1  0
  7  8  1  0
  7  9  2  0
  9 10  1  0
 10 11  2  0
 10 12  2  0
 10 13  1  0
 13 14  1  0
 13 15  1  0
  9 16  1  0
 16 17  1  0
 16 18  2  0
 18 19  1  0
  2 20  1  0
 20 21  2  0
 21 22  1  0
 21 23  1  0
 23 24  1  0
 23 25  2  0
 25 26  1  0
 25 27  1  0
 27 28  1  0
 27 29  2  0
 29 30  1  0
 18  4  1  0
 29 20  1  0
M  END
>  <UniqueID>  (48) 
44

>  <SMILES>  (48) 
NS(=O)(=O)c1ccc(/N=C\c2ccccc2)cc1

>  <Energy>  (48) 
40.34529792229846

>  <Genealogy>  (48) 
NS(=O)(=O)c1ccc(/N=C\c2ccccc2)cc1 (cis-trans isomerization)
NS(=O)(=O)c1ccc(/N=C\c2ccccc2)cc1 (3D coordinates assigned)
NS(=O)(=O)c1ccc(/N=C\c2ccccc2)cc1 (optimized conformer: 40.34529792229846 kcal/mol)

>  <smiles>  (48) 
NS(=O)(=O)c1ccc(N=Cc2ccccc2)cc1

>  <score_type>  (48) 
oracle

>  <origin>  (48) 
adgpu

>  <m_score__min__energy>  (48) 
-9.2699999999999996

>  <m_primary>  (48) 
energy

$$$$
48:0
     RDKit          3D

 47 50  0  0  0  0  0  0  0  0999 V2000
    0.7180   23.9610  -24.1400 N   0  0  0  0  0  0  0  0  0  0  0  0
    1.6070   24.5530  -25.1330 C   0  0  0  0  0  0  0  0  0  0  0  0
    0.8480   25.5390  -25.9790 C   0  0  0  0  0  0  0  0  0  0  0  0
    0.9420   26.9140  -25.7150 C   0  0  0  0  0  0  0  0  0  0  0  0
    0.1990   27.8260  -26.4660 C   0  0  0  0  0  0  0  0  0  0  0  0
   -0.6450   27.3750  -27.4830 C   0  0  0  0  0  0  0  0  0  0  0  0
   -0.7470   26.0050  -27.7670 C   0  0  0  0  0  0  0  0  0  0  0  0
   -1.6460   25.5630  -28.8000 N   0  0  0  0  0  0  0  0  0  0  0  0
   -2.4870   24.4030  -28.6850 C   0  0  0  0  0  0  0  0  0  0  0  0
   -2.2540   23.5320  -27.8040 O   0  0  0  0  0  0  0  0  0  0  0  0
   -3.6070   24.1880  -29.6150 C   0  0  0  0  0  0  0  0  0  0  0  0
   -4.3780   23.0520  -29.7480 C   0  0  0  0  0  0  0  0  0  0  0  0
   -5.2750   23.3750  -30.7530 C   0  0  0  0  0  0  0  0  0  0  0  0
   -6.3450   22.5010  -31.3070 C   0  0  0  0  0  0  0  0  0  0  0  0
   -7.6890   22.9190  -31.2590 C   0  0  0  0  0  0  0  0  0  0  0  0
   -8.7060   22.1080  -31.7610 C   0  0  0  0  0  0  0  0  0  0  0  0
   -8.4030   20.8710  -32.3260 C   0  0  0  0  0  0  0  0  0  0  0  0
   -7.0740   20.4290  -32.3990 C   0  0  0  0  0  0  0  0  0  0  0  0
   -6.7760   19.1150  -33.0180 C   0  0  0  0  0  0  0  0  0  0  0  0
   -6.0220   19.0350  -34.2030 C   0  0  0  0  0  0  0  0  0  0  0  0
   -5.7530   17.7930  -34.7870 C   0  0  0  0  0  0  0  0  0  0  0  0
   -6.2390   16.6230  -34.1990 C   0  0  0  0  0  0  0  0  0  0  0  0
   -6.9960   16.6910  -33.0270 C   0  0  0  0  0  0  0  0  0  0  0  0
   -7.2670   17.9310  -32.4400 C   0  0  0  0  0  0  0  0  0  0  0  0
   -6.0430   21.2430  -31.8790 C   0  0  0  0  0  0  0  0  0  0  0  0
   -4.7260   20.7900  -31.9210 O   0  0  0  0  0  0  0  0  0  0  0  0
   -5.0270   24.6320  -31.1740 N   0  0  0  0  0  0  0  0  0  0  0  0
   -4.0270   25.0850  -30.4760 O   0  0  0  0  0  0  0  0  0  0  0  0
   -0.0120   25.0880  -26.9930 C   0  0  0  0  0  0  0  0  0  0  0  0
    0.2410   24.7430  -23.6350 H   0  0  0  0  0  0  0  0  0  0  0  0
    1.3040   23.4640  -23.4310 H   0  0  0  0  0  0  0  0  0  0  0  0
    2.4317   25.0707  -24.6213 H   0  0  0  0  0  0  0  0  0  0  0  0
    2.0093   23.7578  -25.7778 H   0  0  0  0  0  0  0  0  0  0  0  0
    1.6036   27.2743  -24.9134 H   0  0  0  0  0  0  0  0  0  0  0  0
    0.2784   28.9029  -26.2563 H   0  0  0  0  0  0  0  0  0  0  0  0
   -1.2339   28.0989  -28.0654 H   0  0  0  0  0  0  0  0  0  0  0  0
   -1.6080   26.0570  -29.7190 H   0  0  0  0  0  0  0  0  0  0  0  0
   -4.2990   22.1092  -29.1868 H   0  0  0  0  0  0  0  0  0  0  0  0
   -7.9392   23.8963  -30.8205 H   0  0  0  0  0  0  0  0  0  0  0  0
   -9.7516   22.4461  -31.7108 H   0  0  0  0  0  0  0  0  0  0  0  0
   -9.2118   20.2366  -32.7176 H   0  0  0  0  0  0  0  0  0  0  0  0
   -5.6420   19.9542  -34.6727 H   0  0  0  0  0  0  0  0  0  0  0  0
   -5.1580   17.7375  -35.7105 H   0  0  0  0  0  0  0  0  0  0  0  0
   -6.0254   15.6470  -34.6593 H   0  0  0  0  0  0  0  0  0  0  0  0
   -7.3791   15.7688  -32.5656 H   0  0  0  0  0  0  0  0  0  0  0  0
   -7.8682   17.9804  -31.5201 H   0  0  0  0  0  0  0  0  0  0  0  0
   -0.1120   24.0093  -27.1839 H   0  0  0  0  0  0  0  0  0  0  0  0
  1  2  1  0
  2  3  1  0
  3  4  2  0
  4  5  1  0
  5  6  2  0
  6  7  1  0
  7  8  1  0
  8  9  1  0
  9 10  2  0
  9 11  1  0
 11 12  2  0
 12 13  1  0
 13 14  1  0
 14 15  2  0
 15 16  1  0
 16 17  2  0
 17 18  1  0
 18 19  1  0
 19 20  2  0
 20 21  1  0
 21 22  2  0
 22 23  1  0
 23 24  2  0
 18 25  2  0
 25 26  1  0
 13 27  2  0
 27 28  1  0
  7 29  2  0
 29  3  1  0
 28 11  1  0
 25 14  1  0
 24 19  1  0
  1 30  1  0
  1 31  1  0
  2 32  1  0
  2 33  1  0
  4 34  1  0
  5 35  1  0
  6 36  1  0
  8 37  1  0
 12 38  1  0
 15 39  1  0
 16 40  1  0
 17 41  1  0
 20 42  1  0
 21 43  1  0
 22 44  1  0
 23 45  1  0
 24 46  1  0
 29 47  1  0
M  CHG  1  26  -1
M  END
>  <UniqueID>  (49) 
45

>  <SMILES>  (49) 
NCc1cccc(NC(=O)c2cc(-c3cccc(-c4ccccc4)c3[O-])no2)c1

>  <Energy>  (49) 
93.129434344631

>  <Genealogy>  (49) 
NCc1cccc(NC(=O)c2cc(-c3cccc(-c4ccccc4)c3[O-])no2)c1 (protonated)
NCc1cccc(NC(=O)c2cc(-c3cccc(-c4ccccc4)c3[O-])no2)c1 (3D coordinates assigned)
NCc1cccc(NC(=O)c2cc(-c3cccc(-c4ccccc4)c3[O-])no2)c1 (optimized conformer: 93.129434344631 kcal/mol)

>  <smiles>  (49) 
NCc1cccc(NC(=O)c2cc(-c3cccc(-c4ccccc4)c3O)no2)c1

>  <score_type>  (49) 
oracle

>  <origin>  (49) 
adgpu

>  <m_score__min__energy>  (49) 
-12.17

>  <m_primary>  (49) 
energy

$$$$
49:0
     RDKit          3D

 30 31  0  0  0  0  0  0  0  0999 V2000
   -7.5560   18.8460  -31.6630 C   0  0  0  0  0  0  0  0  0  0  0  0
   -8.4430   20.1190  -32.6130 S   0  0  0  0  0  0  0  0  0  0  0  0
   -7.5190   21.4750  -31.8880 C   0  0  0  0  0  0  0  0  0  0  0  0
   -6.3490   21.9330  -32.5030 C   0  0  0  0  0  0  0  0  0  0  0  0
   -5.6270   22.9870  -31.9370 C   0  0  0  0  0  0  0  0  0  0  0  0
   -6.0700   23.5890  -30.7510 C   0  0  0  0  0  0  0  0  0  0  0  0
   -5.1750   24.9500  -30.0820 S   0  0  0  0  0  0  0  0  0  0  0  0
   -5.2720   24.9000  -28.5830 O   0  0  0  0  0  0  0  0  0  0  0  0
   -5.7640   26.2510  -30.5540 O   0  0  0  0  0  0  0  0  0  0  0  0
   -3.4990   24.8550  -30.5440 N   0  0  0  0  0  0  0  0  0  0  0  0
   -2.7270   24.0520  -29.5930 C   0  0  0  0  0  0  0  0  0  0  0  0
   -2.0140   24.9250  -28.6070 C   0  0  0  0  0  0  0  0  0  0  0  0
   -1.9290   24.7100  -27.2460 C   0  0  0  0  0  0  0  0  0  0  0  0
   -1.1780   25.7550  -26.7530 C   0  0  0  0  0  0  0  0  0  0  0  0
   -0.8600   26.5440  -27.8390 C   0  0  0  0  0  0  0  0  0  0  0  0
   -1.3740   26.0240  -28.9300 O   0  0  0  0  0  0  0  0  0  0  0  0
   -7.2400   23.1250  -30.1330 C   0  0  0  0  0  0  0  0  0  0  0  0
   -7.9620   22.0700  -30.6990 C   0  0  0  0  0  0  0  0  0  0  0  0
   -7.6868   19.0338  -30.5871 H   0  0  0  0  0  0  0  0  0  0  0  0
   -7.9593   17.8538  -31.9138 H   0  0  0  0  0  0  0  0  0  0  0  0
   -6.4855   18.8807  -31.9138 H   0  0  0  0  0  0  0  0  0  0  0  0
   -5.9970   21.4629  -33.4331 H   0  0  0  0  0  0  0  0  0  0  0  0
   -4.7080   23.3455  -32.4237 H   0  0  0  0  0  0  0  0  0  0  0  0
   -3.4100   23.3811  -29.0513 H   0  0  0  0  0  0  0  0  0  0  0  0
   -1.9784   23.4712  -30.1518 H   0  0  0  0  0  0  0  0  0  0  0  0
   -2.3685   23.8789  -26.6749 H   0  0  0  0  0  0  0  0  0  0  0  0
   -0.8902   25.9256  -25.7051 H   0  0  0  0  0  0  0  0  0  0  0  0
   -0.2658   27.4688  -27.7975 H   0  0  0  0  0  0  0  0  0  0  0  0
   -7.5906   23.5921  -29.2008 H   0  0  0  0  0  0  0  0  0  0  0  0
   -8.8783   21.7067  -30.2108 H   0  0  0  0  0  0  0  0  0  0  0  0
  1  2  1  0
  2  3  1  0
  3  4  2  0
  4  5  1  0
  5  6  2  0
  6  7  1  0
  7  8  2  0
  7  9  2  0
  7 10  1  0
 10 11  1  0
 11 12  1  0
 12 13  2  0
 13 14  1  0
 14 15  2  0
 15 16  1  0
  6 17  1  0
 17 18  2  0
 18  3  1  0
 16 12  1  0
  1 19  1  0
  1 20  1  0
  1 21  1  0
  4 22  1  0
  5 23  1  0
 11 24  1  0
 11 25  1  0
 13 26  1  0
 14 27  1  0
 15 28  1  0
 17 29  1  0
 18 30  1  0
M  CHG  1  10  -1
M  END
>  <UniqueID>  (50) 
46

>  <SMILES>  (50) 
CSc1ccc(S(=O)(=O)[N-]Cc2ccco2)cc1

>  <Energy>  (50) 
46.857145574865356

>  <Genealogy>  (50) 
CSc1ccc(S(=O)(=O)[N-]Cc2ccco2)cc1 (protonated)
CSc1ccc(S(=O)(=O)[N-]Cc2ccco2)cc1 (3D coordinates assigned)
CSc1ccc(S(=O)(=O)[N-]Cc2ccco2)cc1 (optimized conformer: 46.857145574865356 kcal/mol)

>  <smiles>  (50) 
CSc1ccc(S(=O)(=O)NCc2ccco2)cc1

>  <score_type>  (50) 
oracle

>  <origin>  (50) 
adgpu

>  <m_score__min__energy>  (50) 
-9.3800000000000008

>  <m_primary>  (50) 
energy

$$$$
