0:0
     RDKit          3D

 41 43  0  0  0  0  0  0  0  0999 V2000
   -9.2970   18.4587  -31.0664 H   0  0  0  0  0  0  0  0  0  0  0  0
   -8.5900   19.1150  -31.5950 C   0  0  0  0  0  0  0  0  0  0  0  0
   -8.6630   20.4980  -31.4240 C   0  0  0  0  0  0  0  0  0  0  0  0
   -9.4228   20.9262  -30.7536 H   0  0  0  0  0  0  0  0  0  0  0  0
   -7.7730   21.3470  -32.1020 C   0  0  0  0  0  0  0  0  0  0  0  0
   -7.9010   22.7790  -31.9710 N   0  0  0  0  0  0  0  0  0  0  0  0
   -6.8980   23.4960  -31.2230 C   0  0  0  0  0  0  0  0  0  0  0  0
   -5.5980   23.1020  -31.3020 N   0  0  0  0  0  0  0  0  0  0  0  0
   -4.6060   23.7530  -30.6360 C   0  0  0  0  0  0  0  0  0  0  0  0
   -3.3700   23.3500  -30.7160 N   0  0  0  0  0  0  0  0  0  0  0  0
   -2.8730   22.2860  -31.5470 C   0  0  0  0  0  0  0  0  0  0  0  0
   -3.5300   21.9000  -32.7330 C   0  0  0  0  0  0  0  0  0  0  0  0
   -4.4552   22.4111  -33.0378 H   0  0  0  0  0  0  0  0  0  0  0  0
   -3.0110   20.8710  -33.5230 C   0  0  0  0  0  0  0  0  0  0  0  0
   -3.5394   20.5604  -34.4365 H   0  0  0  0  0  0  0  0  0  0  0  0
   -1.8190   20.2340  -33.1540 C   0  0  0  0  0  0  0  0  0  0  0  0
   -1.2810   19.1780  -33.9700 C   0  0  0  0  0  0  0  0  0  0  0  0
   -0.8450   18.3280  -34.6220 N   0  0  0  0  0  0  0  0  0  0  0  0
   -1.1430   20.6410  -31.9960 C   0  0  0  0  0  0  0  0  0  0  0  0
   -0.2006   20.1511  -31.7099 H   0  0  0  0  0  0  0  0  0  0  0  0
   -1.6640   21.6690  -31.2030 C   0  0  0  0  0  0  0  0  0  0  0  0
   -1.1206   21.9946  -30.3037 H   0  0  0  0  0  0  0  0  0  0  0  0
   -4.9170   24.8200  -29.8470 N   0  0  0  0  0  0  0  0  0  0  0  0
   -4.1660   25.3200  -29.3200 H   0  0  0  0  0  0  0  0  0  0  0  0
   -6.1990   25.2610  -29.7480 C   0  0  0  0  0  0  0  0  0  0  0  0
   -6.4310   26.1331  -29.1190 H   0  0  0  0  0  0  0  0  0  0  0  0
   -7.2210   24.6130  -30.4400 C   0  0  0  0  0  0  0  0  0  0  0  0
   -8.2591   24.9707  -30.3730 H   0  0  0  0  0  0  0  0  0  0  0  0
   -9.1760   23.4250  -32.3050 C   0  0  0  0  0  0  0  0  0  0  0  0
   -9.7050   23.6930  -31.3785 H   0  0  0  0  0  0  0  0  0  0  0  0
   -8.9833   24.3342  -32.8934 H   0  0  0  0  0  0  0  0  0  0  0  0
   -9.7952   22.7319  -32.8934 H   0  0  0  0  0  0  0  0  0  0  0  0
   -6.7930   20.7840  -32.9410 C   0  0  0  0  0  0  0  0  0  0  0  0
   -6.0905   21.4394  -33.4766 H   0  0  0  0  0  0  0  0  0  0  0  0
   -6.7060   19.3910  -33.0990 C   0  0  0  0  0  0  0  0  0  0  0  0
   -5.6950   18.8040  -34.0400 C   0  0  0  0  0  0  0  0  0  0  0  0
   -4.8856   18.3341  -33.4620 H   0  0  0  0  0  0  0  0  0  0  0  0
   -6.1801   18.0471  -34.6739 H   0  0  0  0  0  0  0  0  0  0  0  0
   -5.2782   19.6006  -34.6739 H   0  0  0  0  0  0  0  0  0  0  0  0
   -7.6210   18.5620  -32.4360 C   0  0  0  0  0  0  0  0  0  0  0  0
   -7.5761   17.4722  -32.5782 H   0  0  0  0  0  0  0  0  0  0  0  0
  1  2  1  0
  2  3  2  0
  3  4  1  0
  3  5  1  0
  5  6  1  0
  6  7  1  0
  7  8  2  0
  8  9  1  0
  9 10  2  0
 10 11  1  0
 11 12  2  0
 12 13  1  0
 12 14  1  0
 14 15  1  0
 14 16  2  0
 16 17  1  0
 17 18  3  0
 16 19  1  0
 19 20  1  0
 19 21  2  0
 21 22  1  0
  9 23  1  0
 23 24  1  0
 23 25  1  0
 25 26  1  0
 25 27  2  0
 27 28  1  0
  6 29  1  0
 29 30  1  0
 29 31  1  0
 29 32  1  0
  5 33  2  0
 33 34  1  0
 33 35  1  0
 35 36  1  0
 36 37  1  0
 36 38  1  0
 36 39  1  0
 35 40  2  0
 40 41  1  0
 40  2  1  0
 27  7  1  0
 21 11  1  0
M  END
>  <UniqueID>  (1) 
1

>  <SMILES>  (1) 
Cc1cccc(N(C)c2cc[nH]/c(=N/c3ccc(C#N)cc3)n2)c1

>  <Energy>  (1) 
54.780431364095634

>  <Genealogy>  (1) 
Cc1cccc(N(C)c2cc[nH]/c(=N/c3ccc(C#N)cc3)n2)c1 (cis-trans isomerization)
Cc1cccc(N(C)c2cc[nH]/c(=N/c3ccc(C#N)cc3)n2)c1 (3D coordinates assigned)
Cc1cccc(N(C)c2cc[nH]/c(=N/c3ccc(C#N)cc3)n2)c1 (optimized conformer: 54.780431364095634 kcal/mol)

>  <smiles>  (1) 
Cc1cccc(N(C)c2cc[nH]c(=Nc3ccc(C#N)cc3)n2)c1

>  <score_type>  (1) 
oracle

>  <origin>  (1) 
adgpu

>  <m_score__min__energy>  (1) 
-8.5700000000000003

>  <m_primary>  (1) 
energy

$$$$
1:0
     RDKit          3D

 47 50  0  0  0  0  0  0  0  0999 V2000
   -4.3190   22.0870  -33.0570 C   0  0  0  0  0  0  0  0  0  0  0  0
   -5.3560   21.0080  -33.0090 C   0  0  0  0  0  0  0  0  0  0  0  0
   -6.6690   21.2700  -32.8320 N   0  0  0  0  0  0  0  0  0  0  0  0
   -7.2510   20.0530  -32.8170 C   0  0  0  0  0  0  0  0  0  0  0  0
   -6.2930   19.0790  -32.9860 C   0  0  0  0  0  0  0  0  0  0  0  0
   -5.1020   19.6850  -33.1240 N   0  0  0  0  0  0  0  0  0  0  0  0
   -3.8360   19.0280  -33.2980 C   0  0  0  0  0  0  0  0  0  0  0  0
   -2.8020   19.2600  -32.3780 C   0  0  0  0  0  0  0  0  0  0  0  0
   -1.5540   18.6300  -32.5250 C   0  0  0  0  0  0  0  0  0  0  0  0
   -0.4580   18.8880  -31.5570 C   0  0  0  0  0  0  0  0  0  0  0  0
    0.7900   18.2600  -31.7080 C   0  0  0  0  0  0  0  0  0  0  0  0
    1.8190   18.5030  -30.7980 C   0  0  0  0  0  0  0  0  0  0  0  0
    1.6200   19.3690  -29.7200 C   0  0  0  0  0  0  0  0  0  0  0  0
    2.6680   19.5990  -28.8350 O   0  0  0  0  0  0  0  0  0  0  0  0
    0.3710   19.9950  -29.5390 C   0  0  0  0  0  0  0  0  0  0  0  0
    0.1280   20.9450  -28.3900 C   0  0  0  0  0  0  0  0  0  0  0  0
   -1.3010   21.2270  -28.2380 N   0  0  0  0  0  0  0  0  0  0  0  0
   -1.9760   22.3510  -28.8380 C   0  0  0  0  0  0  0  0  0  0  0  0
   -3.1310   22.1900  -29.6280 C   0  0  0  0  0  0  0  0  0  0  0  0
   -3.7550   23.3010  -30.2010 C   0  0  0  0  0  0  0  0  0  0  0  0
   -3.2400   24.5830  -29.9910 C   0  0  0  0  0  0  0  0  0  0  0  0
   -3.8670   25.6830  -30.5660 O   0  0  0  0  0  0  0  0  0  0  0  0
   -2.0970   24.7560  -29.2030 C   0  0  0  0  0  0  0  0  0  0  0  0
   -1.5800   26.0280  -28.9900 O   0  0  0  0  0  0  0  0  0  0  0  0
   -1.4700   23.6450  -28.6290 C   0  0  0  0  0  0  0  0  0  0  0  0
   -0.6530   19.7630  -30.4740 C   0  0  0  0  0  0  0  0  0  0  0  0
   -1.3580   17.7520  -33.6060 C   0  0  0  0  0  0  0  0  0  0  0  0
   -2.3910   17.5050  -34.5130 C   0  0  0  0  0  0  0  0  0  0  0  0
   -3.6300   18.1310  -34.3590 C   0  0  0  0  0  0  0  0  0  0  0  0
   -4.6570   17.8390  -35.2490 O   0  0  0  0  0  0  0  0  0  0  0  0
   -4.0420   22.3752  -32.0322 H   0  0  0  0  0  0  0  0  0  0  0  0
   -3.4290   21.7169  -33.5870 H   0  0  0  0  0  0  0  0  0  0  0  0
   -4.7241   22.9616  -33.5870 H   0  0  0  0  0  0  0  0  0  0  0  0
   -8.3276   19.8672  -32.6891 H   0  0  0  0  0  0  0  0  0  0  0  0
   -6.4716   17.9938  -33.0048 H   0  0  0  0  0  0  0  0  0  0  0  0
   -2.9700   19.9427  -31.5320 H   0  0  0  0  0  0  0  0  0  0  0  0
    0.9567   17.5719  -32.5498 H   0  0  0  0  0  0  0  0  0  0  0  0
    2.7932   18.0096  -30.9301 H   0  0  0  0  0  0  0  0  0  0  0  0
    0.5063   20.4918  -27.4619 H   0  0  0  0  0  0  0  0  0  0  0  0
    0.6523   21.8894  -28.5981 H   0  0  0  0  0  0  0  0  0  0  0  0
   -1.8490   20.5930  -27.6130 H   0  0  0  0  0  0  0  0  0  0  0  0
   -3.5439   21.1842  -29.7947 H   0  0  0  0  0  0  0  0  0  0  0  0
   -4.6546   23.1661  -30.8195 H   0  0  0  0  0  0  0  0  0  0  0  0
   -0.5727   23.7857  -28.0084 H   0  0  0  0  0  0  0  0  0  0  0  0
   -1.6204   20.2733  -30.3565 H   0  0  0  0  0  0  0  0  0  0  0  0
   -0.3848   17.2566  -33.7380 H   0  0  0  0  0  0  0  0  0  0  0  0
   -2.2279   16.8138  -35.3530 H   0  0  0  0  0  0  0  0  0  0  0  0
  1  2  1  0
  2  3  2  0
  3  4  1  0
  4  5  2  0
  5  6  1  0
  6  7  1  0
  7  8  2  0
  8  9  1  0
  9 10  1  0
 10 11  2  0
 11 12  1  0
 12 13  2  0
 13 14  1  0
 13 15  1  0
 15 16  1  0
 16 17  1  0
 17 18  1  0
 18 19  2  0
 19 20  1  0
 20 21  2  0
 21 22  1  0
 21 23  1  0
 23 24  1  0
 23 25  2  0
 15 26  2  0
  9 27  2  0
 27 28  1  0
 28 29  2  0
 29 30  1  0
  6  2  1  0
 29  7  1  0
 26 10  1  0
 25 18  1  0
  1 31  1  0
  1 32  1  0
  1 33  1  0
  4 34  1  0
  5 35  1  0
  8 36  1  0
 11 37  1  0
 12 38  1  0
 16 39  1  0
 16 40  1  0
 17 41  1  0
 19 42  1  0
 20 43  1  0
 25 44  1  0
 26 45  1  0
 27 46  1  0
 28 47  1  0
M  CHG  4  14  -1  22  -1  24  -1  30  -1
M  END
>  <UniqueID>  (2) 
2

>  <SMILES>  (2) 
Cc1nccn1-c1cc(-c2ccc([O-])c(CNc3ccc([O-])c([O-])c3)c2)ccc1[O-]

>  <Energy>  (2) 
92.35856385100827

>  <Genealogy>  (2) 
Cc1nccn1-c1cc(-c2ccc([O-])c(CNc3ccc([O-])c([O-])c3)c2)ccc1[O-] (protonated)
Cc1nccn1-c1cc(-c2ccc([O-])c(CNc3ccc([O-])c([O-])c3)c2)ccc1[O-] (3D coordinates assigned)
Cc1nccn1-c1cc(-c2ccc([O-])c(CNc3ccc([O-])c([O-])c3)c2)ccc1[O-] (optimized conformer: 92.35856385100827 kcal/mol)

>  <smiles>  (2) 
Cc1nccn1-c1cc(-c2ccc(O)c(CNc3ccc(O)c(O)c3)c2)ccc1O

>  <score_type>  (2) 
oracle

>  <origin>  (2) 
adgpu

>  <m_score__min__energy>  (2) 
-14.220000000000001

>  <m_primary>  (2) 
energy

$$$$
2:0
     RDKit          3D

 42 45  0  0  0  0  0  0  0  0999 V2000
   -5.8800   16.1450  -33.8580 C   0  0  0  0  0  0  0  0  0  0  0  0
   -6.9700   16.5860  -33.0540 O   0  0  0  0  0  0  0  0  0  0  0  0
   -7.2870   17.9320  -32.8190 C   0  0  0  0  0  0  0  0  0  0  0  0
   -8.3720   18.2240  -31.9880 C   0  0  0  0  0  0  0  0  0  0  0  0
   -8.7290   19.5490  -31.7220 C   0  0  0  0  0  0  0  0  0  0  0  0
   -8.0030   20.6120  -32.2880 C   0  0  0  0  0  0  0  0  0  0  0  0
   -8.3820   22.0170  -32.0090 C   0  0  0  0  0  0  0  0  0  0  0  0
   -9.5420   22.2830  -31.5880 O   0  0  0  0  0  0  0  0  0  0  0  0
   -7.4180   23.0670  -32.1680 N   0  0  0  0  0  0  0  0  0  0  0  0
   -6.3910   23.4350  -31.2370 C   0  0  0  0  0  0  0  0  0  0  0  0
   -6.4960   24.5720  -30.4180 C   0  0  0  0  0  0  0  0  0  0  0  0
   -5.4620   24.9090  -29.5410 C   0  0  0  0  0  0  0  0  0  0  0  0
   -4.2960   24.1250  -29.4710 C   0  0  0  0  0  0  0  0  0  0  0  0
   -3.2090   24.4990  -28.5300 C   0  0  0  0  0  0  0  0  0  0  0  0
   -3.4000   24.5810  -27.1840 N   0  0  0  0  0  0  0  0  0  0  0  0
   -2.1880   24.9360  -26.7240 C   0  0  0  0  0  0  0  0  0  0  0  0
   -1.8090   25.1590  -25.4030 C   0  0  0  0  0  0  0  0  0  0  0  0
   -0.4690   25.5220  -25.1600 C   0  0  0  0  0  0  0  0  0  0  0  0
    0.4430   25.6490  -26.2330 C   0  0  0  0  0  0  0  0  0  0  0  0
    0.0240   25.4150  -27.5560 C   0  0  0  0  0  0  0  0  0  0  0  0
   -1.3080   25.0600  -27.7560 C   0  0  0  0  0  0  0  0  0  0  0  0
   -1.9330   24.7870  -28.9070 N   0  0  0  0  0  0  0  0  0  0  0  0
   -4.1840   23.0030  -30.3120 C   0  0  0  0  0  0  0  0  0  0  0  0
   -5.2200   22.6690  -31.1900 C   0  0  0  0  0  0  0  0  0  0  0  0
   -6.9120   20.3170  -33.1260 C   0  0  0  0  0  0  0  0  0  0  0  0
   -6.5570   18.9910  -33.3900 C   0  0  0  0  0  0  0  0  0  0  0  0
   -5.0568   15.8119  -33.2089 H   0  0  0  0  0  0  0  0  0  0  0  0
   -6.2076   15.3087  -34.4930 H   0  0  0  0  0  0  0  0  0  0  0  0
   -5.5339   16.9738  -34.4930 H   0  0  0  0  0  0  0  0  0  0  0  0
   -8.9506   17.4033  -31.5390 H   0  0  0  0  0  0  0  0  0  0  0  0
   -9.5848   19.7619  -31.0646 H   0  0  0  0  0  0  0  0  0  0  0  0
   -7.3975   25.2003  -30.4677 H   0  0  0  0  0  0  0  0  0  0  0  0
   -5.5606   25.7965  -28.8986 H   0  0  0  0  0  0  0  0  0  0  0  0
   -2.5297   25.0556  -24.5784 H   0  0  0  0  0  0  0  0  0  0  0  0
   -0.1308   25.7075  -24.1299 H   0  0  0  0  0  0  0  0  0  0  0  0
    1.4867   25.9325  -26.0324 H   0  0  0  0  0  0  0  0  0  0  0  0
    0.7224   25.5090  -28.4007 H   0  0  0  0  0  0  0  0  0  0  0  0
   -1.5120   24.7890  -29.8610 H   0  0  0  0  0  0  0  0  0  0  0  0
   -3.2753   22.3841  -30.2788 H   0  0  0  0  0  0  0  0  0  0  0  0
   -5.1138   21.7957  -31.8503 H   0  0  0  0  0  0  0  0  0  0  0  0
   -6.3336   21.1367  -33.5772 H   0  0  0  0  0  0  0  0  0  0  0  0
   -5.7024   18.7741  -34.0477 H   0  0  0  0  0  0  0  0  0  0  0  0
  1  2  1  0
  2  3  1  0
  3  4  2  0
  4  5  1  0
  5  6  2  0
  6  7  1  0
  7  8  2  0
  7  9  1  0
  9 10  1  0
 10 11  2  0
 11 12  1  0
 12 13  2  0
 13 14  1  0
 14 15  2  0
 15 16  1  0
 16 17  2  0
 17 18  1  0
 18 19  2  0
 19 20  1  0
 20 21  2  0
 21 22  1  0
 13 23  1  0
 23 24  2  0
  6 25  1  0
 25 26  2  0
 26  3  1  0
 24 10  1  0
 22 14  1  0
 21 16  1  0
  1 27  1  0
  1 28  1  0
  1 29  1  0
  4 30  1  0
  5 31  1  0
 11 32  1  0
 12 33  1  0
 17 34  1  0
 18 35  1  0
 19 36  1  0
 20 37  1  0
 22 38  1  0
 23 39  1  0
 24 40  1  0
 25 41  1  0
 26 42  1  0
M  CHG  1   9  -1
M  END
>  <UniqueID>  (3) 
3

>  <SMILES>  (3) 
COc1ccc(C(=O)[N-]c2ccc(-c3nc4ccccc4[nH]3)cc2)cc1

>  <Energy>  (3) 
88.6569367042348

>  <Genealogy>  (3) 
COc1ccc(C(=O)[N-]c2ccc(-c3nc4ccccc4[nH]3)cc2)cc1 (protonated)
COc1ccc(C(=O)[N-]c2ccc(-c3nc4ccccc4[nH]3)cc2)cc1 (3D coordinates assigned)
COc1ccc(C(=O)[N-]c2ccc(-c3nc4ccccc4[nH]3)cc2)cc1 (optimized conformer: 88.6569367042348 kcal/mol)

>  <smiles>  (3) 
COc1ccc(C(=O)Nc2ccc(-c3nc4ccccc4[nH]3)cc2)cc1

>  <score_type>  (3) 
oracle

>  <origin>  (3) 
adgpu

>  <m_score__min__energy>  (3) 
-9.6300000000000008

>  <m_primary>  (3) 
energy

$$$$
3:0
     RDKit          3D

 55 58  0  0  0  0  0  0  0  0999 V2000
   -0.3840   22.6180  -25.2740 C   0  0  0  0  0  0  0  0  0  0  0  0
   -0.6500   22.1240  -26.5830 O   0  0  0  0  0  0  0  0  0  0  0  0
   -1.5920   22.6780  -27.4620 C   0  0  0  0  0  0  0  0  0  0  0  0
   -1.2550   23.6740  -28.3980 C   0  0  0  0  0  0  0  0  0  0  0  0
   -2.2320   24.2080  -29.2420 C   0  0  0  0  0  0  0  0  0  0  0  0
   -3.5550   23.7500  -29.1680 C   0  0  0  0  0  0  0  0  0  0  0  0
   -4.8030   24.4680  -30.1820 S   0  0  0  0  0  0  0  0  0  0  0  0
   -5.9720   24.9020  -29.3420 O   0  0  0  0  0  0  0  0  0  0  0  0
   -4.2380   25.6820  -30.8660 O   0  0  0  0  0  0  0  0  0  0  0  0
   -5.3450   23.2990  -31.3510 N   0  0  0  0  0  0  0  0  0  0  0  0
   -6.6680   23.4650  -31.9650 C   0  0  0  0  0  0  0  0  0  0  0  0
   -7.4280   22.1650  -31.9270 C   0  0  0  0  0  0  0  0  0  0  0  0
   -8.4450   21.9660  -30.9800 C   0  0  0  0  0  0  0  0  0  0  0  0
   -9.1110   20.7400  -30.9090 C   0  0  0  0  0  0  0  0  0  0  0  0
   -8.7710   19.7060  -31.7860 C   0  0  0  0  0  0  0  0  0  0  0  0
   -7.7590   19.8940  -32.7260 C   0  0  0  0  0  0  0  0  0  0  0  0
   -7.0860   21.1180  -32.7970 C   0  0  0  0  0  0  0  0  0  0  0  0
   -4.4650   22.2400  -31.7700 C   0  0  0  0  0  0  0  0  0  0  0  0
   -3.8670   22.2780  -33.0380 C   0  0  0  0  0  0  0  0  0  0  0  0
   -3.0310   21.2400  -33.4590 C   0  0  0  0  0  0  0  0  0  0  0  0
   -2.7790   20.1480  -32.6110 C   0  0  0  0  0  0  0  0  0  0  0  0
   -1.9330   19.0970  -32.9960 O   0  0  0  0  0  0  0  0  0  0  0  0
   -2.3020   18.0270  -33.8240 C   0  0  0  0  0  0  0  0  0  0  0  0
   -1.2950   17.2260  -34.3770 C   0  0  0  0  0  0  0  0  0  0  0  0
   -1.6250   16.1380  -35.1920 C   0  0  0  0  0  0  0  0  0  0  0  0
   -2.9640   15.8350  -35.4500 C   0  0  0  0  0  0  0  0  0  0  0  0
   -3.9770   16.6140  -34.8820 C   0  0  0  0  0  0  0  0  0  0  0  0
   -3.6510   17.7010  -34.0650 C   0  0  0  0  0  0  0  0  0  0  0  0
   -3.3440   20.1280  -31.3330 C   0  0  0  0  0  0  0  0  0  0  0  0
   -4.1900   21.1600  -30.9170 C   0  0  0  0  0  0  0  0  0  0  0  0
   -3.8900   22.7530  -28.2450 C   0  0  0  0  0  0  0  0  0  0  0  0
   -2.9140   22.2220  -27.3980 C   0  0  0  0  0  0  0  0  0  0  0  0
   -0.7674   21.9059  -24.5284 H   0  0  0  0  0  0  0  0  0  0  0  0
    0.7012   22.7390  -25.1413 H   0  0  0  0  0  0  0  0  0  0  0  0
   -0.8803   23.5906  -25.1413 H   0  0  0  0  0  0  0  0  0  0  0  0
   -0.2176   24.0335  -28.4652 H   0  0  0  0  0  0  0  0  0  0  0  0
   -1.9623   24.9902  -29.9668 H   0  0  0  0  0  0  0  0  0  0  0  0
   -7.2313   24.2311  -31.4120 H   0  0  0  0  0  0  0  0  0  0  0  0
   -6.5403   23.7747  -33.0128 H   0  0  0  0  0  0  0  0  0  0  0  0
   -8.7186   22.7787  -30.2911 H   0  0  0  0  0  0  0  0  0  0  0  0
   -9.9040   20.5882  -30.1620 H   0  0  0  0  0  0  0  0  0  0  0  0
   -9.3020   18.7440  -31.7344 H   0  0  0  0  0  0  0  0  0  0  0  0
   -7.4893   19.0784  -33.4130 H   0  0  0  0  0  0  0  0  0  0  0  0
   -6.2854   21.2607  -33.5377 H   0  0  0  0  0  0  0  0  0  0  0  0
   -4.0573   23.1309  -33.7061 H   0  0  0  0  0  0  0  0  0  0  0  0
   -2.5691   21.2779  -34.4566 H   0  0  0  0  0  0  0  0  0  0  0  0
   -0.2390   17.4536  -34.1694 H   0  0  0  0  0  0  0  0  0  0  0  0
   -0.8281   15.5196  -35.6308 H   0  0  0  0  0  0  0  0  0  0  0  0
   -3.2212   14.9849  -36.0990 H   0  0  0  0  0  0  0  0  0  0  0  0
   -5.0318   16.3713  -35.0782 H   0  0  0  0  0  0  0  0  0  0  0  0
   -4.4505   18.3034  -33.6091 H   0  0  0  0  0  0  0  0  0  0  0  0
   -3.1216   19.2948  -30.6501 H   0  0  0  0  0  0  0  0  0  0  0  0
   -4.6429   21.1254  -29.9152 H   0  0  0  0  0  0  0  0  0  0  0  0
   -4.9253   22.3861  -28.1861 H   0  0  0  0  0  0  0  0  0  0  0  0
   -3.1866   21.4392  -26.6749 H   0  0  0  0  0  0  0  0  0  0  0  0
  1  2  1  0
  2  3  1  0
  3  4  2  0
  4  5  1  0
  5  6  2  0
  6  7  1  0
  7  8  2  0
  7  9  2  0
  7 10  1  0
 10 11  1  0
 11 12  1  0
 12 13  2  0
 13 14  1  0
 14 15  2  0
 15 16  1  0
 16 17  2  0
 10 18  1  0
 18 19  2  0
 19 20  1  0
 20 21  2  0
 21 22  1  0
 22 23  1  0
 23 24  2  0
 24 25  1  0
 25 26  2  0
 26 27  1  0
 27 28  2  0
 21 29  1  0
 29 30  2  0
  6 31  1  0
 31 32  2  0
 32  3  1  0
 17 12  1  0
 30 18  1  0
 28 23  1  0
  1 33  1  0
  1 34  1  0
  1 35  1  0
  4 36  1  0
  5 37  1  0
 11 38  1  0
 11 39  1  0
 13 40  1  0
 14 41  1  0
 15 42  1  0
 16 43  1  0
 17 44  1  0
 19 45  1  0
 20 46  1  0
 24 47  1  0
 25 48  1  0
 26 49  1  0
 27 50  1  0
 28 51  1  0
 29 52  1  0
 30 53  1  0
 31 54  1  0
 32 55  1  0
M  END
>  <UniqueID>  (4) 
4

>  <SMILES>  (4) 
COc1ccc(S(=O)(=O)N(Cc2ccccc2)c2ccc(Oc3ccccc3)cc2)cc1

>  <Energy>  (4) 
68.0713716901192

>  <Genealogy>  (4) 
COc1ccc(S(=O)(=O)N(Cc2ccccc2)c2ccc(Oc3ccccc3)cc2)cc1 (3D coordinates assigned)
COc1ccc(S(=O)(=O)N(Cc2ccccc2)c2ccc(Oc3ccccc3)cc2)cc1 (optimized conformer: 68.0713716901192 kcal/mol)

>  <smiles>  (4) 
COc1ccc(S(=O)(=O)N(Cc2ccccc2)c2ccc(Oc3ccccc3)cc2)cc1

>  <score_type>  (4) 
oracle

>  <origin>  (4) 
adgpu

>  <m_score__min__energy>  (4) 
-9.5199999999999996

>  <m_primary>  (4) 
energy

$$$$
4:0
     RDKit          3D

 51 55  0  0  0  0  0  0  0  0999 V2000
   -7.6688   25.2314  -29.8661 H   0  0  0  0  0  0  0  0  0  0  0  0
   -6.9930   24.4530  -30.2500 C   0  0  0  0  0  0  0  0  0  0  0  0
   -7.5540   23.3900  -30.8460 C   0  0  0  0  0  0  0  0  0  0  0  0
   -8.6474   23.2904  -30.7786 H   0  0  0  0  0  0  0  0  0  0  0  0
   -6.8200   22.3420  -31.5860 C   0  0  0  0  0  0  0  0  0  0  0  0
   -7.5370   21.3990  -32.3350 C   0  0  0  0  0  0  0  0  0  0  0  0
   -8.6367   21.4246  -32.3390 H   0  0  0  0  0  0  0  0  0  0  0  0
   -6.8610   20.4260  -33.0770 C   0  0  0  0  0  0  0  0  0  0  0  0
   -7.4310   19.6674  -33.6334 H   0  0  0  0  0  0  0  0  0  0  0  0
   -5.4570   20.4130  -33.1150 C   0  0  0  0  0  0  0  0  0  0  0  0
   -4.7420   19.3890  -33.8220 N   0  0  0  0  0  0  0  0  0  0  0  0
   -5.0270   18.1180  -33.8700 C   0  0  0  0  0  0  0  0  0  0  0  0
   -4.1660   17.2840  -34.5100 N   0  0  0  0  0  0  0  0  0  0  0  0
   -4.3960   15.9470  -34.6150 C   0  0  0  0  0  0  0  0  0  0  0  0
   -3.4050   15.0910  -35.3170 C   0  0  0  0  0  0  0  0  0  0  0  0
   -3.6810   13.7440  -35.6230 C   0  0  0  0  0  0  0  0  0  0  0  0
   -4.6452   13.2988  -35.3364 H   0  0  0  0  0  0  0  0  0  0  0  0
   -2.7250   12.9760  -36.2920 C   0  0  0  0  0  0  0  0  0  0  0  0
   -2.9353   11.9226  -36.5288 H   0  0  0  0  0  0  0  0  0  0  0  0
   -1.5360   13.5270  -36.6510 N   0  0  0  0  0  0  0  0  0  0  0  0
   -1.2420   14.8240  -36.3800 C   0  0  0  0  0  0  0  0  0  0  0  0
   -0.2715   15.2421  -36.6855 H   0  0  0  0  0  0  0  0  0  0  0  0
   -2.1690   15.6290  -35.7140 C   0  0  0  0  0  0  0  0  0  0  0  0
   -1.9321   16.6818  -35.5007 H   0  0  0  0  0  0  0  0  0  0  0  0
   -5.5570   15.4150  -34.0380 C   0  0  0  0  0  0  0  0  0  0  0  0
   -5.7626   14.3355  -34.0863 H   0  0  0  0  0  0  0  0  0  0  0  0
   -6.4460   16.2790  -33.4020 C   0  0  0  0  0  0  0  0  0  0  0  0
   -7.3683   15.8821  -32.9528 H   0  0  0  0  0  0  0  0  0  0  0  0
   -6.1790   17.6100  -33.3340 N   0  0  0  0  0  0  0  0  0  0  0  0
   -6.8960   18.2230  -32.8910 H   0  0  0  0  0  0  0  0  0  0  0  0
   -4.7410   21.3520  -32.3640 C   0  0  0  0  0  0  0  0  0  0  0  0
   -3.6414   21.3234  -32.3576 H   0  0  0  0  0  0  0  0  0  0  0  0
   -5.4150   22.3260  -31.6220 C   0  0  0  0  0  0  0  0  0  0  0  0
   -4.8438   23.0827  -31.0642 H   0  0  0  0  0  0  0  0  0  0  0  0
   -5.5430   24.6640  -30.0670 C   0  0  0  0  0  0  0  0  0  0  0  0
   -4.7340   25.2980  -30.9360 N   0  0  0  0  0  0  0  0  0  0  0  0
   -3.4950   25.2360  -30.4740 N   0  0  0  0  0  0  0  0  0  0  0  0
   -3.5030   24.5500  -29.3120 C   0  0  0  0  0  0  0  0  0  0  0  0
   -2.2850   24.2750  -28.5110 C   0  0  0  0  0  0  0  0  0  0  0  0
   -2.2710   24.5690  -27.1330 C   0  0  0  0  0  0  0  0  0  0  0  0
   -3.1635   25.0019  -26.6576 H   0  0  0  0  0  0  0  0  0  0  0  0
   -1.1300   24.3140  -26.3660 C   0  0  0  0  0  0  0  0  0  0  0  0
   -1.1285   24.5467  -25.2909 H   0  0  0  0  0  0  0  0  0  0  0  0
    0.0070   23.7650  -26.9610 C   0  0  0  0  0  0  0  0  0  0  0  0
    0.9033   23.5656  -26.3553 H   0  0  0  0  0  0  0  0  0  0  0  0
    0.0060   23.4690  -28.3260 C   0  0  0  0  0  0  0  0  0  0  0  0
    0.9028   23.0373  -28.7943 H   0  0  0  0  0  0  0  0  0  0  0  0
   -1.1320   23.7200  -29.0990 C   0  0  0  0  0  0  0  0  0  0  0  0
   -1.1265   23.4824  -30.1730 H   0  0  0  0  0  0  0  0  0  0  0  0
   -4.7990   24.1580  -29.0240 C   0  0  0  0  0  0  0  0  0  0  0  0
   -5.1534   23.5760  -28.1605 H   0  0  0  0  0  0  0  0  0  0  0  0
  1  2  1  0
  2  3  2  0
  3  4  1  0
  3  5  1  0
  5  6  2  0
  6  7  1  0
  6  8  1  0
  8  9  1  0
  8 10  2  0
 10 11  1  0
 11 12  2  0
 12 13  1  0
 13 14  2  0
 14 15  1  0
 15 16  2  0
 16 17  1  0
 16 18  1  0
 18 19  1  0
 18 20  2  0
 20 21  1  0
 21 22  1  0
 21 23  2  0
 23 24  1  0
 14 25  1  0
 25 26  1  0
 25 27  2  0
 27 28  1  0
 27 29  1  0
 29 30  1  0
 10 31  1  0
 31 32  1  0
 31 33  2  0
 33 34  1  0
  2 35  1  0
 35 36  2  0
 36 37  1  0
 37 38  1  0
 38 39  1  0
 39 40  2  0
 40 41  1  0
 40 42  1  0
 42 43  1  0
 42 44  2  0
 44 45  1  0
 44 46  1  0
 46 47  1  0
 46 48  2  0
 48 49  1  0
 38 50  2  0
 50 51  1  0
 33  5  1  0
 50 35  1  0
 29 12  1  0
 48 39  1  0
 23 15  1  0
M  CHG  1  37  -1
M  END
>  <UniqueID>  (5) 
5

>  <SMILES>  (5) 
C(=C\c1cc(-c2ccccc2)[n-]n1)\c1ccc(/N=c2/nc(-c3ccncc3)cc[nH]2)cc1

>  <Energy>  (5) 
110.2587241126243

>  <Genealogy>  (5) 
C(=Cc1cc(-c2ccccc2)[n-]n1)c1ccc(N=c2nc(-c3ccncc3)cc[nH]2)cc1 (protonated)
C(=C\c1cc(-c2ccccc2)[n-]n1)\c1ccc(/N=c2/nc(-c3ccncc3)cc[nH]2)cc1 (cis-trans isomerization)
C(=C\c1cc(-c2ccccc2)[n-]n1)\c1ccc(/N=c2/nc(-c3ccncc3)cc[nH]2)cc1 (3D coordinates assigned)
C(=C\c1cc(-c2ccccc2)[n-]n1)\c1ccc(/N=c2/nc(-c3ccncc3)cc[nH]2)cc1 (optimized conformer: 110.2587241126243 kcal/mol)

>  <smiles>  (5) 
C(=Cc1cc(-c2ccccc2)[nH]n1)c1ccc(N=c2nc(-c3ccncc3)cc[nH]2)cc1

>  <score_type>  (5) 
oracle

>  <origin>  (5) 
adgpu

>  <m_score__min__energy>  (5) 
-11.59

>  <m_primary>  (5) 
energy

$$$$
5:0
     RDKit          3D

 58 61  0  0  1  0  0  0  0  0999 V2000
   -0.8520   17.2130  -31.9980 C   0  0  0  0  0  0  0  0  0  0  0  0
   -1.3720   16.9470  -33.3620 C   0  0  0  0  0  0  0  0  0  0  0  0
   -2.7240   17.1790  -33.5660 C   0  0  0  0  0  0  0  0  0  0  0  0
   -3.2210   16.9380  -34.8270 C   0  0  0  0  0  0  0  0  0  0  0  0
   -4.4780   17.1350  -35.0870 N   0  0  0  0  0  0  0  0  0  0  0  0
   -5.3850   17.6010  -34.0950 C   0  0  0  0  0  0  0  0  0  0  0  0
   -6.4830   16.8790  -33.6760 C   0  0  0  0  0  0  0  0  0  0  0  0
   -7.3420   17.3480  -32.7220 C   0  0  0  0  0  0  0  0  0  0  0  0
   -7.1200   18.5810  -32.1460 C   0  0  0  0  0  0  0  0  0  0  0  0
   -6.0040   19.3040  -32.5790 C   0  0  0  0  0  0  0  0  0  0  0  0
   -5.7930   20.6090  -31.9530 C   0  0  0  0  0  0  0  0  0  0  0  0
   -4.5100   21.1190  -31.9020 C   0  0  0  0  0  0  0  0  0  0  0  0
   -4.2920   22.3500  -31.3140 C   0  0  0  0  0  0  0  0  0  0  0  0
   -5.3130   23.1090  -30.7650 C   0  0  0  0  0  0  0  0  0  0  0  0
   -4.9510   24.6630  -30.0850 S   0  0  0  0  0  0  0  0  0  0  0  0
   -4.6300   25.6760  -31.1550 O   0  0  0  0  0  0  0  0  0  0  0  0
   -6.2280   25.1020  -29.3630 O   0  0  0  0  0  0  0  0  0  0  0  0
   -3.7110   24.5460  -28.9260 N   0  0  0  0  0  0  0  0  0  0  0  0
   -3.1520   23.3900  -28.3670 C   0  0  0  0  0  0  0  0  0  0  0  0
   -3.7240   22.1490  -28.3000 C   0  0  0  0  0  0  0  0  0  0  0  0
   -3.0950   21.0440  -27.7330 C   0  0  0  0  0  0  0  0  0  0  0  0
   -1.8370   21.1780  -27.2080 C   0  0  0  0  0  0  0  0  0  0  0  0
   -1.2390   22.4140  -27.2620 C   0  0  0  0  0  0  0  0  0  0  0  0
   -1.8710   23.5050  -27.8260 C   0  0  0  0  0  0  0  0  0  0  0  0
   -1.0310   25.0370  -27.8530 S   0  0  0  0  0  0  0  0  0  0  0  0
   -1.2180   25.8480  -26.2860 C   0  0  0  0  0  0  0  0  0  0  0  0
   -1.5260   25.9390  -28.9280 O   0  0  0  0  0  0  0  0  0  0  0  0
    0.4470   24.7980  -28.1340 O   0  0  0  0  0  0  0  0  0  0  0  0
   -6.5820   22.5650  -30.8350 C   0  0  0  0  0  0  0  0  0  0  0  0
   -6.8250   21.3380  -31.4160 C   0  0  0  0  0  0  0  0  0  0  0  0
   -5.1450   18.8360  -33.5340 C   0  0  0  0  0  0  0  0  0  0  0  0
   -2.3810   16.5030  -35.7600 N   0  0  0  0  0  0  0  0  0  0  0  0
   -1.0700   16.2780  -35.5600 C   0  0  0  0  0  0  0  0  0  0  0  0
   -0.2700   15.8540  -36.4770 N   0  0  0  0  0  0  0  0  0  0  0  0
   -0.5610   16.5060  -34.3340 N   0  0  0  0  0  0  0  0  0  0  0  0
   -1.5723   16.8446  -31.2527 H   0  0  0  0  0  0  0  0  0  0  0  0
    0.1099   16.6962  -31.8651 H   0  0  0  0  0  0  0  0  0  0  0  0
   -0.7081   18.2954  -31.8651 H   0  0  0  0  0  0  0  0  0  0  0  0
   -3.3722   17.5405  -32.7541 H   0  0  0  0  0  0  0  0  0  0  0  0
   -6.6737   15.8929  -34.1246 H   0  0  0  0  0  0  0  0  0  0  0  0
   -8.2081   16.7435  -32.4145 H   0  0  0  0  0  0  0  0  0  0  0  0
   -7.7952   18.9808  -31.3751 H   0  0  0  0  0  0  0  0  0  0  0  0
   -3.6695   20.5499  -32.3258 H   0  0  0  0  0  0  0  0  0  0  0  0
   -3.2655   22.7439  -31.2803 H   0  0  0  0  0  0  0  0  0  0  0  0
   -3.3010   25.4690  -28.5830 H   0  0  0  0  0  0  0  0  0  0  0  0
   -4.7338   22.0174  -28.7159 H   0  0  0  0  0  0  0  0  0  0  0  0
   -3.6049   20.0697  -27.7068 H   0  0  0  0  0  0  0  0  0  0  0  0
   -1.3194   20.3194  -26.7554 H   0  0  0  0  0  0  0  0  0  0  0  0
   -0.2289   22.5380  -26.8445 H   0  0  0  0  0  0  0  0  0  0  0  0
   -1.0509   25.1231  -25.4757 H   0  0  0  0  0  0  0  0  0  0  0  0
   -0.4844   26.6636  -26.2054 H   0  0  0  0  0  0  0  0  0  0  0  0
   -2.2347   26.2600  -26.2054 H   0  0  0  0  0  0  0  0  0  0  0  0
   -7.4264   23.1298  -30.4131 H   0  0  0  0  0  0  0  0  0  0  0  0
   -7.8505   20.9416  -31.4493 H   0  0  0  0  0  0  0  0  0  0  0  0
   -4.2777   19.4349  -33.8488 H   0  0  0  0  0  0  0  0  0  0  0  0
   -2.7720   16.3190  -36.7250 H   0  0  0  0  0  0  0  0  0  0  0  0
   -0.5530   15.6490  -37.4450 H   0  0  0  0  0  0  0  0  0  0  0  0
    0.4430   16.3440  -34.1510 H   0  0  0  0  0  0  0  0  0  0  0  0
  1  2  1  0
  2  3  2  0
  3  4  1  0
  4  5  2  0
  5  6  1  0
  6  7  2  0
  7  8  1  0
  8  9  2  0
  9 10  1  0
 10 11  1  0
 11 12  2  0
 12 13  1  0
 13 14  2  0
 14 15  1  0
 15 16  2  0
 15 17  2  0
 15 18  1  0
 18 19  1  0
 19 20  2  0
 20 21  1  0
 21 22  2  0
 22 23  1  0
 23 24  2  0
 24 25  1  0
 25 26  1  0
 25 27  2  0
 25 28  2  0
 14 29  1  0
 29 30  2  0
 10 31  2  0
  4 32  1  0
 32 33  1  0
 33 34  2  3
 33 35  1  0
 35  2  1  0
 31  6  1  0
 30 11  1  0
 24 19  1  0
  1 36  1  0
  1 37  1  0
  1 38  1  0
  3 39  1  0
  7 40  1  0
  8 41  1  0
  9 42  1  0
 12 43  1  0
 13 44  1  0
 18 45  1  0
 20 46  1  0
 21 47  1  0
 22 48  1  0
 23 49  1  0
 26 50  1  0
 26 51  1  0
 26 52  1  0
 29 53  1  0
 30 54  1  0
 31 55  1  0
 32 56  1  0
 34 57  1  0
 35 58  1  0
M  END
>  <smiles>  (6) 
Cc1cc(=Nc2cccc(-c3ccc(S(=O)(=O)Nc4ccccc4S(C)(=O)=O)cc3)c2)[nH]c(=N)[nH]1

>  <score_type>  (6) 
oracle

>  <origin>  (6) 
adgpu

>  <m_score__min__energy>  (6) 
-12.01

>  <m_primary>  (6) 
energy

$$$$
6:0
     RDKit          3D

 51 54  0  0  0  0  0  0  0  0999 V2000
    0.8690   27.9290  -22.6130 N   0  0  0  0  0  0  0  0  0  0  0  0
    0.5980   26.7820  -23.4230 C   0  0  0  0  0  0  0  0  0  0  0  0
    1.6540   26.0310  -23.9610 C   0  0  0  0  0  0  0  0  0  0  0  0
    1.3890   24.9100  -24.7530 C   0  0  0  0  0  0  0  0  0  0  0  0
    0.0650   24.5250  -25.0110 C   0  0  0  0  0  0  0  0  0  0  0  0
   -0.2840   23.1250  -26.0200 S   0  0  0  0  0  0  0  0  0  0  0  0
    0.9840   22.5590  -26.5950 O   0  0  0  0  0  0  0  0  0  0  0  0
   -0.9390   22.0740  -25.1660 O   0  0  0  0  0  0  0  0  0  0  0  0
   -1.3530   23.5960  -27.3380 C   0  0  0  0  0  0  0  0  0  0  0  0
   -0.9630   23.3820  -28.6670 C   0  0  0  0  0  0  0  0  0  0  0  0
   -1.8110   23.7460  -29.7170 C   0  0  0  0  0  0  0  0  0  0  0  0
   -3.0650   24.3090  -29.4520 C   0  0  0  0  0  0  0  0  0  0  0  0
   -3.9080   24.6790  -30.5530 N   0  0  0  0  0  0  0  0  0  0  0  0
   -5.3420   24.6770  -30.5530 C   0  0  0  0  0  0  0  0  0  0  0  0
   -5.9460   25.6670  -30.0620 O   0  0  0  0  0  0  0  0  0  0  0  0
   -6.1250   23.5720  -31.1570 C   0  0  0  0  0  0  0  0  0  0  0  0
   -7.5290   23.5890  -31.1330 C   0  0  0  0  0  0  0  0  0  0  0  0
   -8.2590   22.5470  -31.7050 C   0  0  0  0  0  0  0  0  0  0  0  0
   -7.6010   21.4630  -32.3020 C   0  0  0  0  0  0  0  0  0  0  0  0
   -8.3440   20.4150  -32.8430 O   0  0  0  0  0  0  0  0  0  0  0  0
   -6.1920   21.4280  -32.3310 C   0  0  0  0  0  0  0  0  0  0  0  0
   -5.4670   20.3030  -32.9680 C   0  0  0  0  0  0  0  0  0  0  0  0
   -6.1530   19.1320  -33.3290 C   0  0  0  0  0  0  0  0  0  0  0  0
   -5.4710   18.0680  -33.9220 C   0  0  0  0  0  0  0  0  0  0  0  0
   -4.0940   18.1530  -34.1540 C   0  0  0  0  0  0  0  0  0  0  0  0
   -3.2690   16.7910  -34.9010 Cl  0  0  0  0  0  0  0  0  0  0  0  0
   -3.3960   19.3150  -33.7860 C   0  0  0  0  0  0  0  0  0  0  0  0
   -1.6620   19.4570  -34.0400 Cl  0  0  0  0  0  0  0  0  0  0  0  0
   -4.0830   20.3830  -33.1960 C   0  0  0  0  0  0  0  0  0  0  0  0
   -5.4660   22.4790  -31.7450 C   0  0  0  0  0  0  0  0  0  0  0  0
   -3.4480   24.5400  -28.1200 C   0  0  0  0  0  0  0  0  0  0  0  0
   -2.5990   24.1780  -27.0690 C   0  0  0  0  0  0  0  0  0  0  0  0
   -0.9900   25.2790  -24.4790 C   0  0  0  0  0  0  0  0  0  0  0  0
   -0.7260   26.4000  -23.6870 C   0  0  0  0  0  0  0  0  0  0  0  0
    0.3590   28.8270  -22.7710 H   0  0  0  0  0  0  0  0  0  0  0  0
    1.5830   27.8890  -21.8510 H   0  0  0  0  0  0  0  0  0  0  0  0
    2.6944   26.3254  -23.7588 H   0  0  0  0  0  0  0  0  0  0  0  0
    2.2214   24.3279  -25.1753 H   0  0  0  0  0  0  0  0  0  0  0  0
    0.0140   22.9259  -28.8847 H   0  0  0  0  0  0  0  0  0  0  0  0
   -1.4910   23.5891  -30.7577 H   0  0  0  0  0  0  0  0  0  0  0  0
   -8.0569   24.4300  -30.6597 H   0  0  0  0  0  0  0  0  0  0  0  0
   -9.3585   22.5763  -31.6874 H   0  0  0  0  0  0  0  0  0  0  0  0
   -8.2690   20.1590  -33.8210 H   0  0  0  0  0  0  0  0  0  0  0  0
   -7.2343   19.0527  -33.1434 H   0  0  0  0  0  0  0  0  0  0  0  0
   -6.0191   17.1582  -34.2083 H   0  0  0  0  0  0  0  0  0  0  0  0
   -3.5345   21.2922  -32.9086 H   0  0  0  0  0  0  0  0  0  0  0  0
   -4.3665   22.4456  -31.7466 H   0  0  0  0  0  0  0  0  0  0  0  0
   -4.4197   25.0076  -27.9028 H   0  0  0  0  0  0  0  0  0  0  0  0
   -2.9103   24.3507  -26.0282 H   0  0  0  0  0  0  0  0  0  0  0  0
   -2.0303   24.9872  -24.6857 H   0  0  0  0  0  0  0  0  0  0  0  0
   -1.5589   26.9846  -23.2693 H   0  0  0  0  0  0  0  0  0  0  0  0
  1  2  1  0
  2  3  2  0
  3  4  1  0
  4  5  2  0
  5  6  1  0
  6  7  2  0
  6  8  2  0
  6  9  1  0
  9 10  2  0
 10 11  1  0
 11 12  2  0
 12 13  1  0
 13 14  1  0
 14 15  2  0
 14 16  1  0
 16 17  2  0
 17 18  1  0
 18 19  2  0
 19 20  1  0
 19 21  1  0
 21 22  1  0
 22 23  2  0
 23 24  1  0
 24 25  2  0
 25 26  1  0
 25 27  1  0
 27 28  1  0
 27 29  2  0
 21 30  2  0
 12 31  1  0
 31 32  2  0
  5 33  1  0
 33 34  2  0
 34  2  1  0
 32  9  1  0
 30 16  1  0
 29 22  1  0
  1 35  1  0
  1 36  1  0
  3 37  1  0
  4 38  1  0
 10 39  1  0
 11 40  1  0
 17 41  1  0
 18 42  1  0
 20 43  1  0
 23 44  1  0
 24 45  1  0
 29 46  1  0
 30 47  1  0
 31 48  1  0
 32 49  1  0
 33 50  1  0
 34 51  1  0
M  CHG  1  13  -1
M  END
>  <UniqueID>  (7) 
6

>  <SMILES>  (7) 
Nc1ccc(S(=O)(=O)c2ccc([N-]C(=O)c3ccc(O)c(-c4ccc(Cl)c(Cl)c4)c3)cc2)cc1

>  <Energy>  (7) 
71.04306602463633

>  <Genealogy>  (7) 
Nc1ccc(S(=O)(=O)c2ccc([N-]C(=O)c3ccc(O)c(-c4ccc(Cl)c(Cl)c4)c3)cc2)cc1 (protonated)
Nc1ccc(S(=O)(=O)c2ccc([N-]C(=O)c3ccc(O)c(-c4ccc(Cl)c(Cl)c4)c3)cc2)cc1 (3D coordinates assigned)
Nc1ccc(S(=O)(=O)c2ccc([N-]C(=O)c3ccc(O)c(-c4ccc(Cl)c(Cl)c4)c3)cc2)cc1 (optimized conformer: 71.04306602463633 kcal/mol)

>  <smiles>  (7) 
Nc1ccc(S(=O)(=O)c2ccc(NC(=O)c3ccc(O)c(-c4ccc(Cl)c(Cl)c4)c3)cc2)cc1

>  <score_type>  (7) 
oracle

>  <origin>  (7) 
adgpu

>  <m_score__min__energy>  (7) 
-12.380000000000001

>  <m_primary>  (7) 
energy

$$$$
7:0
     RDKit          3D

 35 37  0  0  0  0  0  0  0  0999 V2000
   -0.7574   21.9451  -31.1263 H   0  0  0  0  0  0  0  0  0  0  0  0
   -1.7600   21.7570  -31.5380 C   0  0  0  0  0  0  0  0  0  0  0  0
   -1.9210   21.3600  -32.8690 C   0  0  0  0  0  0  0  0  0  0  0  0
   -0.7290   21.1780  -33.7540 C   0  0  0  0  0  0  0  0  0  0  0  0
    0.1698   21.0408  -33.1349 H   0  0  0  0  0  0  0  0  0  0  0  0
   -0.8757   20.2918  -34.3890 H   0  0  0  0  0  0  0  0  0  0  0  0
   -0.6045   22.0675  -34.3890 H   0  0  0  0  0  0  0  0  0  0  0  0
   -3.1710   21.1560  -33.3650 N   0  0  0  0  0  0  0  0  0  0  0  0
   -4.2730   21.3340  -32.5900 C   0  0  0  0  0  0  0  0  0  0  0  0
   -5.4490   21.1070  -33.0970 N   0  0  0  0  0  0  0  0  0  0  0  0
   -6.7170   21.2830  -32.4400 C   0  0  0  0  0  0  0  0  0  0  0  0
   -7.1410   22.5370  -31.9540 C   0  0  0  0  0  0  0  0  0  0  0  0
   -6.4864   23.4149  -32.0574 H   0  0  0  0  0  0  0  0  0  0  0  0
   -8.3910   22.6680  -31.3410 C   0  0  0  0  0  0  0  0  0  0  0  0
   -8.7099   23.6441  -30.9466 H   0  0  0  0  0  0  0  0  0  0  0  0
   -9.2350   21.5610  -31.2290 C   0  0  0  0  0  0  0  0  0  0  0  0
  -10.2144   21.6638  -30.7390 H   0  0  0  0  0  0  0  0  0  0  0  0
   -8.8360   20.3230  -31.7390 C   0  0  0  0  0  0  0  0  0  0  0  0
   -9.5054   19.4538  -31.6584 H   0  0  0  0  0  0  0  0  0  0  0  0
   -7.5860   20.1880  -32.3520 C   0  0  0  0  0  0  0  0  0  0  0  0
   -7.2834   19.2155  -32.7677 H   0  0  0  0  0  0  0  0  0  0  0  0
   -4.1240   21.7050  -31.2890 N   0  0  0  0  0  0  0  0  0  0  0  0
   -2.8960   21.9100  -30.7420 C   0  0  0  0  0  0  0  0  0  0  0  0
   -2.7460   22.3570  -29.3860 N   0  0  0  0  0  0  0  0  0  0  0  0
   -2.4340   23.5480  -28.9560 C   0  0  0  0  0  0  0  0  0  0  0  0
   -2.2500   23.8590  -27.6280 C   0  0  0  0  0  0  0  0  0  0  0  0
   -2.3137   23.1902  -26.7570 H   0  0  0  0  0  0  0  0  0  0  0  0
   -1.9660   25.2120  -27.6490 C   0  0  0  0  0  0  0  0  0  0  0  0
   -1.6150   26.0470  -26.4640 C   0  0  0  0  0  0  0  0  0  0  0  0
   -1.8480   25.4927  -25.5429 H   0  0  0  0  0  0  0  0  0  0  0  0
   -0.5411   26.2840  -26.4876 H   0  0  0  0  0  0  0  0  0  0  0  0
   -2.1970   26.9801  -26.4876 H   0  0  0  0  0  0  0  0  0  0  0  0
   -1.9750   25.6710  -28.9170 N   0  0  0  0  0  0  0  0  0  0  0  0
   -2.2710   24.6540  -29.7130 N   0  0  0  0  0  0  0  0  0  0  0  0
   -2.3800   24.7590  -30.7430 H   0  0  0  0  0  0  0  0  0  0  0  0
  1  2  1  0
  2  3  1  0
  3  4  1  0
  4  5  1  0
  4  6  1  0
  4  7  1  0
  3  8  2  0
  8  9  1  0
  9 10  2  0
 10 11  1  0
 11 12  2  0
 12 13  1  0
 12 14  1  0
 14 15  1  0
 14 16  2  0
 16 17  1  0
 16 18  1  0
 18 19  1  0
 18 20  2  0
 20 21  1  0
  9 22  1  0
 22 23  1  0
 23 24  1  0
 24 25  2  0
 25 26  1  0
 26 27  1  0
 26 28  2  0
 28 29  1  0
 29 30  1  0
 29 31  1  0
 29 32  1  0
 28 33  1  0
 33 34  1  0
 34 35  1  0
 23  2  2  0
 34 25  1  0
 20 11  1  0
M  CHG  2  22  -1  33  -1
M  END
>  <UniqueID>  (8) 
7

>  <SMILES>  (8) 
Cc1cc(/N=c2/cc(C)[n-][nH]2)[n-]/c(=N\c2ccccc2)n1

>  <Energy>  (8) 
76.50990867715618

>  <Genealogy>  (8) 
Cc1cc(N=c2cc(C)[n-][nH]2)[n-]c(=Nc2ccccc2)n1 (protonated)
Cc1cc(/N=c2/cc(C)[n-][nH]2)[n-]/c(=N\c2ccccc2)n1 (cis-trans isomerization)
Cc1cc(/N=c2/cc(C)[n-][nH]2)[n-]/c(=N\c2ccccc2)n1 (3D coordinates assigned)
Cc1cc(/N=c2/cc(C)[n-][nH]2)[n-]/c(=N\c2ccccc2)n1 (optimized conformer: 76.50990867715618 kcal/mol)

>  <smiles>  (8) 
Cc1cc(N=c2cc(C)[nH][nH]2)[nH]c(=Nc2ccccc2)n1

>  <score_type>  (8) 
oracle

>  <origin>  (8) 
adgpu

>  <m_score__min__energy>  (8) 
-9.3399999999999999

>  <m_primary>  (8) 
energy

$$$$
8:0
     RDKit          3D

 42 44  0  0  1  0  0  0  0  0999 V2000
   -7.2070   23.3900  -29.8060 C   0  0  0  0  0  0  0  0  0  0  0  0
   -6.3330   24.5440  -29.5800 N   0  0  0  0  0  0  0  0  0  0  0  0
   -4.9850   24.3580  -30.6650 S   0  0  0  0  0  0  0  0  0  0  0  0
   -4.2410   25.6720  -30.6550 O   0  0  0  0  0  0  0  0  0  0  0  0
   -5.4650   24.0920  -32.0460 O   0  0  0  0  0  0  0  0  0  0  0  0
   -3.9410   23.0820  -30.0850 C   0  0  0  0  0  0  0  0  0  0  0  0
   -4.0270   22.5670  -28.8090 C   0  0  0  0  0  0  0  0  0  0  0  0
   -3.1640   21.5470  -28.4220 C   0  0  0  0  0  0  0  0  0  0  0  0
   -2.2180   21.0200  -29.2630 C   0  0  0  0  0  0  0  0  0  0  0  0
   -2.1530   21.5600  -30.5450 C   0  0  0  0  0  0  0  0  0  0  0  0
   -1.1720   21.0180  -31.4360 N   0  0  0  0  0  0  0  0  0  0  0  0
   -1.5820   20.2390  -32.3950 C   0  0  0  0  0  0  0  0  0  0  0  0
   -2.9300   19.9340  -32.5630 C   0  0  0  0  0  0  0  0  0  0  0  0
   -3.3640   19.1060  -33.5800 C   0  0  0  0  0  0  0  0  0  0  0  0
   -4.7440   18.7970  -33.7770 N   0  0  0  0  0  0  0  0  0  0  0  0
   -5.8000   19.4170  -33.0580 C   0  0  0  0  0  0  0  0  0  0  0  0
   -6.6890   18.5620  -32.3950 C   0  0  0  0  0  0  0  0  0  0  0  0
   -7.7680   19.1030  -31.6810 C   0  0  0  0  0  0  0  0  0  0  0  0
   -7.9550   20.4900  -31.6310 C   0  0  0  0  0  0  0  0  0  0  0  0
   -7.0460   21.2760  -32.3030 C   0  0  0  0  0  0  0  0  0  0  0  0
   -5.9750   20.7920  -33.0150 C   0  0  0  0  0  0  0  0  0  0  0  0
   -2.4380   18.6090  -34.4010 N   0  0  0  0  0  0  0  0  0  0  0  0
   -1.1320   18.9040  -34.2410 C   0  0  0  0  0  0  0  0  0  0  0  0
   -0.7050   19.7080  -33.2540 N   0  0  0  0  0  0  0  0  0  0  0  0
   -3.0070   22.5810  -30.9510 C   0  0  0  0  0  0  0  0  0  0  0  0
   -7.5223   22.9737  -28.8379 H   0  0  0  0  0  0  0  0  0  0  0  0
   -8.0934   23.7072  -30.3749 H   0  0  0  0  0  0  0  0  0  0  0  0
   -6.6615   22.6227  -30.3749 H   0  0  0  0  0  0  0  0  0  0  0  0
   -6.0040   24.5420  -28.5960 H   0  0  0  0  0  0  0  0  0  0  0  0
   -4.7726   22.9598  -28.1021 H   0  0  0  0  0  0  0  0  0  0  0  0
   -3.2437   21.1472  -27.4003 H   0  0  0  0  0  0  0  0  0  0  0  0
   -1.5447   20.2118  -28.9414 H   0  0  0  0  0  0  0  0  0  0  0  0
   -3.6676   20.3629  -31.8688 H   0  0  0  0  0  0  0  0  0  0  0  0
   -4.9610   18.0610  -34.5130 H   0  0  0  0  0  0  0  0  0  0  0  0
   -6.5419   17.4726  -32.4340 H   0  0  0  0  0  0  0  0  0  0  0  0
   -8.4695   18.4359  -31.1587 H   0  0  0  0  0  0  0  0  0  0  0  0
   -8.7950   20.9340  -31.0767 H   0  0  0  0  0  0  0  0  0  0  0  0
   -7.1868   22.3664  -32.2675 H   0  0  0  0  0  0  0  0  0  0  0  0
   -5.2812   21.4710  -33.5324 H   0  0  0  0  0  0  0  0  0  0  0  0
   -2.6840   17.9930  -35.1830 H   0  0  0  0  0  0  0  0  0  0  0  0
   -0.3969   18.4746  -34.9376 H   0  0  0  0  0  0  0  0  0  0  0  0
   -2.9312   22.9865  -31.9707 H   0  0  0  0  0  0  0  0  0  0  0  0
  1  2  1  0
  2  3  1  0
  3  4  2  0
  3  5  2  0
  3  6  1  0
  6  7  2  0
  7  8  1  0
  8  9  2  0
  9 10  1  0
 10 11  1  0
 11 12  2  0
 12 13  1  0
 13 14  2  0
 14 15  1  0
 15 16  1  0
 16 17  2  0
 17 18  1  0
 18 19  2  0
 19 20  1  0
 20 21  2  0
 14 22  1  0
 22 23  1  0
 23 24  2  0
 10 25  2  0
 25  6  1  0
 24 12  1  0
 21 16  1  0
  1 26  1  0
  1 27  1  0
  1 28  1  0
  2 29  1  0
  7 30  1  0
  8 31  1  0
  9 32  1  0
 13 33  1  0
 15 34  1  0
 17 35  1  0
 18 36  1  0
 19 37  1  0
 20 38  1  0
 21 39  1  0
 22 40  1  0
 23 41  1  0
 25 42  1  0
M  END
>  <smiles>  (9) 
CNS(=O)(=O)c1cccc(N=c2cc(Nc3ccccc3)[nH]cn2)c1

>  <score_type>  (9) 
oracle

>  <origin>  (9) 
adgpu

>  <m_score__min__energy>  (9) 
-8.75

>  <m_primary>  (9) 
energy

$$$$
9:0
     RDKit          3D

 33 35  0  0  0  0  0  0  0  0999 V2000
   -0.9810   25.6750  -27.8940 C   0  0  0  0  0  0  0  0  0  0  0  0
   -1.6360   25.0580  -29.0390 N   0  0  0  0  0  0  0  0  0  0  0  0
   -1.7950   23.6370  -29.1420 C   0  0  0  0  0  0  0  0  0  0  0  0
   -1.3560   22.8800  -28.2340 O   0  0  0  0  0  0  0  0  0  0  0  0
   -2.4450   23.0390  -30.3510 C   0  0  0  0  0  0  0  0  0  0  0  0
   -3.7350   23.7410  -30.6360 C   0  0  0  0  0  0  0  0  0  0  0  0
   -3.9260   25.0780  -30.5250 N   0  0  0  0  0  0  0  0  0  0  0  0
   -5.1720   25.3400  -30.9230 N   0  0  0  0  0  0  0  0  0  0  0  0
   -5.7080   24.1560  -31.2750 C   0  0  0  0  0  0  0  0  0  0  0  0
   -6.9750   23.9100  -31.7800 C   0  0  0  0  0  0  0  0  0  0  0  0
   -7.2870   22.5780  -32.1020 C   0  0  0  0  0  0  0  0  0  0  0  0
   -6.3230   21.5510  -31.9030 C   0  0  0  0  0  0  0  0  0  0  0  0
   -6.6060   20.1330  -32.2420 C   0  0  0  0  0  0  0  0  0  0  0  0
   -7.7130   19.4830  -31.6650 C   0  0  0  0  0  0  0  0  0  0  0  0
   -7.9970   18.1520  -31.9780 C   0  0  0  0  0  0  0  0  0  0  0  0
   -7.1860   17.4530  -32.8740 C   0  0  0  0  0  0  0  0  0  0  0  0
   -6.0900   18.0870  -33.4640 C   0  0  0  0  0  0  0  0  0  0  0  0
   -5.0810   17.2130  -34.6030 Cl  0  0  0  0  0  0  0  0  0  0  0  0
   -5.8010   19.4210  -33.1540 C   0  0  0  0  0  0  0  0  0  0  0  0
   -5.0930   21.8880  -31.4070 N   0  0  0  0  0  0  0  0  0  0  0  0
   -4.8410   23.1590  -31.1110 N   0  0  0  0  0  0  0  0  0  0  0  0
   -1.4096   25.2712  -26.9649 H   0  0  0  0  0  0  0  0  0  0  0  0
    0.0965   25.4561  -27.9261 H   0  0  0  0  0  0  0  0  0  0  0  0
   -1.1351   26.7637  -27.9261 H   0  0  0  0  0  0  0  0  0  0  0  0
   -1.9910   25.6700  -29.8080 H   0  0  0  0  0  0  0  0  0  0  0  0
   -1.7735   23.1447  -31.2158 H   0  0  0  0  0  0  0  0  0  0  0  0
   -2.6462   21.9738  -30.1641 H   0  0  0  0  0  0  0  0  0  0  0  0
   -7.7041   24.7213  -31.9225 H   0  0  0  0  0  0  0  0  0  0  0  0
   -8.2783   22.3292  -32.5086 H   0  0  0  0  0  0  0  0  0  0  0  0
   -8.3598   20.0279  -30.9617 H   0  0  0  0  0  0  0  0  0  0  0  0
   -8.8622   17.6529  -31.5172 H   0  0  0  0  0  0  0  0  0  0  0  0
   -7.4100   16.4034  -33.1153 H   0  0  0  0  0  0  0  0  0  0  0  0
   -4.9398   19.9171  -33.6253 H   0  0  0  0  0  0  0  0  0  0  0  0
  1  2  1  0
  2  3  1  0
  3  4  2  0
  3  5  1  0
  5  6  1  0
  6  7  2  0
  7  8  1  0
  8  9  2  0
  9 10  1  0
 10 11  2  0
 11 12  1  0
 12 13  1  0
 13 14  2  0
 14 15  1  0
 15 16  2  0
 16 17  1  0
 17 18  1  0
 17 19  2  0
 12 20  2  0
 20 21  1  0
 21  6  1  0
 21  9  1  0
 19 13  1  0
  1 22  1  0
  1 23  1  0
  1 24  1  0
  2 25  1  0
  5 26  1  0
  5 27  1  0
 10 28  1  0
 11 29  1  0
 14 30  1  0
 15 31  1  0
 16 32  1  0
 19 33  1  0
M  END
>  <UniqueID>  (10) 
8

>  <SMILES>  (10) 
CNC(=O)Cc1nnc2ccc(-c3cccc(Cl)c3)nn12

>  <Energy>  (10) 
76.37658750749408

>  <Genealogy>  (10) 
CNC(=O)Cc1nnc2ccc(-c3cccc(Cl)c3)nn12 (3D coordinates assigned)
CNC(=O)Cc1nnc2ccc(-c3cccc(Cl)c3)nn12 (optimized conformer: 76.37658750749408 kcal/mol)

>  <smiles>  (10) 
CNC(=O)Cc1nnc2ccc(-c3cccc(Cl)c3)nn12

>  <score_type>  (10) 
oracle

>  <origin>  (10) 
adgpu

>  <m_score__min__energy>  (10) 
-9.2100000000000009

>  <m_primary>  (10) 
energy

$$$$
10:0
     RDKit          3D

 37 39  0  0  0  0  0  0  0  0999 V2000
   -1.4740   26.4350  -24.9360 C   0  0  0  0  0  0  0  0  0  0  0  0
   -0.4640   26.6260  -26.0630 C   0  0  0  0  0  0  0  0  0  0  0  0
   -0.7890   25.7580  -27.2390 C   0  0  0  0  0  0  0  0  0  0  0  0
   -2.0300   25.3270  -27.5330 N   0  0  0  0  0  0  0  0  0  0  0  0
   -1.8000   24.5730  -28.6310 C   0  0  0  0  0  0  0  0  0  0  0  0
   -2.8550   23.8440  -29.3660 C   0  0  0  0  0  0  0  0  0  0  0  0
   -2.8620   22.4400  -29.3990 C   0  0  0  0  0  0  0  0  0  0  0  0
   -3.8650   21.7520  -30.0870 C   0  0  0  0  0  0  0  0  0  0  0  0
   -4.8800   22.4570  -30.7500 C   0  0  0  0  0  0  0  0  0  0  0  0
   -5.9140   21.7490  -31.4530 N   0  0  0  0  0  0  0  0  0  0  0  0
   -5.5170   20.6790  -32.3810 C   0  0  0  0  0  0  0  0  0  0  0  0
   -6.6240   20.3610  -33.3860 C   0  0  0  0  0  0  0  0  0  0  0  0
   -7.9350   20.0820  -32.6540 C   0  0  0  0  0  0  0  0  0  0  0  0
   -8.4050   21.3210  -31.8910 C   0  0  0  0  0  0  0  0  0  0  0  0
   -7.2960   21.9330  -31.0800 C   0  0  0  0  0  0  0  0  0  0  0  0
   -7.6000   22.6990  -30.1230 O   0  0  0  0  0  0  0  0  0  0  0  0
   -4.8770   23.8600  -30.7220 C   0  0  0  0  0  0  0  0  0  0  0  0
   -5.8550   24.5610  -31.3490 F   0  0  0  0  0  0  0  0  0  0  0  0
   -3.8700   24.5470  -30.0370 C   0  0  0  0  0  0  0  0  0  0  0  0
   -0.4950   24.5490  -28.9700 N   0  0  0  0  0  0  0  0  0  0  0  0
    0.0980   25.2890  -28.0850 O   0  0  0  0  0  0  0  0  0  0  0  0
   -0.9639   26.5315  -23.9662 H   0  0  0  0  0  0  0  0  0  0  0  0
   -2.2601   27.2004  -25.0145 H   0  0  0  0  0  0  0  0  0  0  0  0
   -1.9263   25.4354  -25.0145 H   0  0  0  0  0  0  0  0  0  0  0  0
   -0.4768   27.6790  -26.3807 H   0  0  0  0  0  0  0  0  0  0  0  0
    0.5311   26.3441  -25.6884 H   0  0  0  0  0  0  0  0  0  0  0  0
   -2.0721   21.8778  -28.8794 H   0  0  0  0  0  0  0  0  0  0  0  0
   -3.8584   20.6522  -30.1087 H   0  0  0  0  0  0  0  0  0  0  0  0
   -4.6187   20.9984  -32.9297 H   0  0  0  0  0  0  0  0  0  0  0  0
   -5.3181   19.7714  -31.7922 H   0  0  0  0  0  0  0  0  0  0  0  0
   -6.7599   21.2190  -34.0608 H   0  0  0  0  0  0  0  0  0  0  0  0
   -6.3389   19.4701  -33.9649 H   0  0  0  0  0  0  0  0  0  0  0  0
   -8.7038   19.7968  -33.3872 H   0  0  0  0  0  0  0  0  0  0  0  0
   -7.7706   19.2662  -31.9347 H   0  0  0  0  0  0  0  0  0  0  0  0
   -8.7708   22.0660  -32.6129 H   0  0  0  0  0  0  0  0  0  0  0  0
   -9.2038   21.0138  -31.2000 H   0  0  0  0  0  0  0  0  0  0  0  0
   -3.8724   25.6469  -30.0233 H   0  0  0  0  0  0  0  0  0  0  0  0
  1  2  1  0
  2  3  1  0
  3  4  2  0
  4  5  1  0
  5  6  1  0
  6  7  2  0
  7  8  1  0
  8  9  2  0
  9 10  1  0
 10 11  1  0
 11 12  1  0
 12 13  1  0
 13 14  1  0
 14 15  1  0
 15 16  2  0
  9 17  1  0
 17 18  1  0
 17 19  2  0
  5 20  2  0
 20 21  1  0
 21  3  1  0
 19  6  1  0
 15 10  1  0
  1 22  1  0
  1 23  1  0
  1 24  1  0
  2 25  1  0
  2 26  1  0
  7 27  1  0
  8 28  1  0
 11 29  1  0
 11 30  1  0
 12 31  1  0
 12 32  1  0
 13 33  1  0
 13 34  1  0
 14 35  1  0
 14 36  1  0
 19 37  1  0
M  END
>  <UniqueID>  (11) 
9

>  <SMILES>  (11) 
CCc1nc(-c2ccc(N3CCCCC3=O)c(F)c2)no1

>  <Energy>  (11) 
72.12013544701561

>  <Genealogy>  (11) 
CCc1nc(-c2ccc(N3CCCCC3=O)c(F)c2)no1 (3D coordinates assigned)
CCc1nc(-c2ccc(N3CCCCC3=O)c(F)c2)no1 (nonaromatic ring conformer: 72.12013544701561 kcal/mol)

>  <smiles>  (11) 
CCc1nc(-c2ccc(N3CCCCC3=O)c(F)c2)no1

>  <score_type>  (11) 
oracle

>  <origin>  (11) 
adgpu

>  <m_score__min__energy>  (11) 
-7.1799999999999997

>  <m_primary>  (11) 
energy

$$$$
11:0
     RDKit          3D

 50 53  0  0  0  0  0  0  0  0999 V2000
   -0.7480   19.1210  -34.2710 C   0  0  0  0  0  0  0  0  0  0  0  0
   -2.1830   18.7080  -34.2210 C   0  0  0  0  0  0  0  0  0  0  0  0
   -2.6700   17.7060  -34.9160 O   0  0  0  0  0  0  0  0  0  0  0  0
   -3.9390   17.5440  -34.6880 N   0  0  0  0  0  0  0  0  0  0  0  0
   -4.3070   18.4830  -33.7960 C   0  0  0  0  0  0  0  0  0  0  0  0
   -5.6850   18.6160  -33.2920 C   0  0  0  0  0  0  0  0  0  0  0  0
   -6.4290   19.7640  -33.6080 C   0  0  0  0  0  0  0  0  0  0  0  0
   -7.7270   19.9220  -33.1160 C   0  0  0  0  0  0  0  0  0  0  0  0
   -8.2900   18.9400  -32.2980 C   0  0  0  0  0  0  0  0  0  0  0  0
   -7.5540   17.8000  -31.9670 C   0  0  0  0  0  0  0  0  0  0  0  0
   -6.2510   17.6330  -32.4550 C   0  0  0  0  0  0  0  0  0  0  0  0
   -5.3710   16.1700  -32.0260 Cl  0  0  0  0  0  0  0  0  0  0  0  0
   -3.2100   19.2720  -33.4770 C   0  0  0  0  0  0  0  0  0  0  0  0
   -3.1640   20.4610  -32.5950 C   0  0  0  0  0  0  0  0  0  0  0  0
   -3.3400   21.6090  -33.0860 O   0  0  0  0  0  0  0  0  0  0  0  0
   -2.8550   20.3280  -31.2010 N   0  0  0  0  0  0  0  0  0  0  0  0
   -3.2510   21.2800  -30.1990 C   0  0  0  0  0  0  0  0  0  0  0  0
   -2.7160   21.2400  -28.8980 C   0  0  0  0  0  0  0  0  0  0  0  0
   -3.1010   22.1900  -27.9490 C   0  0  0  0  0  0  0  0  0  0  0  0
   -4.0080   23.1960  -28.2900 C   0  0  0  0  0  0  0  0  0  0  0  0
   -4.5270   23.2670  -29.5900 C   0  0  0  0  0  0  0  0  0  0  0  0
   -5.6690   24.5440  -30.0250 S   0  0  0  0  0  0  0  0  0  0  0  0
   -5.7950   25.5000  -28.8720 O   0  0  0  0  0  0  0  0  0  0  0  0
   -5.1250   25.3050  -31.2020 O   0  0  0  0  0  0  0  0  0  0  0  0
   -7.2530   23.9280  -30.4290 N   0  0  0  0  0  0  0  0  0  0  0  0
   -7.4030   23.6940  -31.8630 C   0  0  0  0  0  0  0  0  0  0  0  0
   -8.4800   22.6290  -32.0140 C   0  0  0  0  0  0  0  0  0  0  0  0
   -8.5600   21.9430  -30.6570 C   0  0  0  0  0  0  0  0  0  0  0  0
   -7.5230   22.6420  -29.7910 C   0  0  0  0  0  0  0  0  0  0  0  0
   -4.1470   22.3050  -30.5380 C   0  0  0  0  0  0  0  0  0  0  0  0
   -0.3625   19.2320  -33.2468 H   0  0  0  0  0  0  0  0  0  0  0  0
   -0.1641   18.3544  -34.8015 H   0  0  0  0  0  0  0  0  0  0  0  0
   -0.6609   20.0807  -34.8015 H   0  0  0  0  0  0  0  0  0  0  0  0
   -5.9875   20.5433  -34.2465 H   0  0  0  0  0  0  0  0  0  0  0  0
   -8.3063   20.8210  -33.3732 H   0  0  0  0  0  0  0  0  0  0  0  0
   -9.3134   19.0644  -31.9143 H   0  0  0  0  0  0  0  0  0  0  0  0
   -7.9992   17.0296  -31.3202 H   0  0  0  0  0  0  0  0  0  0  0  0
   -2.2130   19.5540  -30.9170 H   0  0  0  0  0  0  0  0  0  0  0  0
   -1.9918   20.4576  -28.6273 H   0  0  0  0  0  0  0  0  0  0  0  0
   -2.6887   22.1457  -26.9302 H   0  0  0  0  0  0  0  0  0  0  0  0
   -4.3160   23.9350  -27.5357 H   0  0  0  0  0  0  0  0  0  0  0  0
   -7.7106   24.6207  -32.3696 H   0  0  0  0  0  0  0  0  0  0  0  0
   -6.4545   23.3691  -32.3155 H   0  0  0  0  0  0  0  0  0  0  0  0
   -9.4451   23.0906  -32.2698 H   0  0  0  0  0  0  0  0  0  0  0  0
   -8.2436   21.9182  -32.8195 H   0  0  0  0  0  0  0  0  0  0  0  0
   -9.5648   22.0601  -30.2249 H   0  0  0  0  0  0  0  0  0  0  0  0
   -8.3695   20.8622  -30.7324 H   0  0  0  0  0  0  0  0  0  0  0  0
   -7.9167   22.7962  -28.7755 H   0  0  0  0  0  0  0  0  0  0  0  0
   -6.6064   22.0404  -29.7021 H   0  0  0  0  0  0  0  0  0  0  0  0
   -4.5560   22.3550  -31.5579 H   0  0  0  0  0  0  0  0  0  0  0  0
  1  2  1  0
  2  3  1  0
  3  4  1  0
  4  5  2  0
  5  6  1  0
  6  7  2  0
  7  8  1  0
  8  9  2  0
  9 10  1  0
 10 11  2  0
 11 12  1  0
  5 13  1  0
 13 14  1  0
 14 15  2  0
 14 16  1  0
 16 17  1  0
 17 18  2  0
 18 19  1  0
 19 20  2  0
 20 21  1  0
 21 22  1  0
 22 23  2  0
 22 24  2  0
 22 25  1  0
 25 26  1  0
 26 27  1  0
 27 28  1  0
 28 29  1  0
 21 30  2  0
 13  2  2  0
 30 17  1  0
 11  6  1  0
 29 25  1  0
  1 31  1  0
  1 32  1  0
  1 33  1  0
  7 34  1  0
  8 35  1  0
  9 36  1  0
 10 37  1  0
 16 38  1  0
 18 39  1  0
 19 40  1  0
 20 41  1  0
 26 42  1  0
 26 43  1  0
 27 44  1  0
 27 45  1  0
 28 46  1  0
 28 47  1  0
 29 48  1  0
 29 49  1  0
 30 50  1  0
M  END
>  <UniqueID>  (12) 
10

>  <SMILES>  (12) 
Cc1onc(-c2ccccc2Cl)c1C(=O)Nc1cccc(S(=O)(=O)N2CCCC2)c1

>  <Energy>  (12) 
97.44976649028045

>  <Genealogy>  (12) 
Cc1onc(-c2ccccc2Cl)c1C(=O)Nc1cccc(S(=O)(=O)N2CCCC2)c1 (3D coordinates assigned)
Cc1onc(-c2ccccc2Cl)c1C(=O)Nc1cccc(S(=O)(=O)N2CCCC2)c1 (nonaromatic ring conformer: 97.44976649028045 kcal/mol)

>  <smiles>  (12) 
Cc1onc(-c2ccccc2Cl)c1C(=O)Nc1cccc(S(=O)(=O)N2CCCC2)c1

>  <score_type>  (12) 
oracle

>  <origin>  (12) 
adgpu

>  <m_score__min__energy>  (12) 
-10.92

>  <m_primary>  (12) 
energy

$$$$
12:0
     RDKit          3D

 47 50  0  0  0  0  0  0  0  0999 V2000
   -0.6850   20.9730  -26.7590 H   0  0  0  0  0  0  0  0  0  0  0  0
   -1.3540   21.7300  -26.7750 O   0  0  0  0  0  0  0  0  0  0  0  0
   -1.9150   22.2830  -27.9580 C   0  0  0  0  0  0  0  0  0  0  0  0
   -1.3460   23.5210  -28.3080 C   0  0  0  0  0  0  0  0  0  0  0  0
   -0.3044   23.7549  -28.0427 H   0  0  0  0  0  0  0  0  0  0  0  0
   -2.1200   24.4350  -28.9900 C   0  0  0  0  0  0  0  0  0  0  0  0
   -1.6210   25.6840  -29.3390 O   0  0  0  0  0  0  0  0  0  0  0  0
   -3.4380   24.0960  -29.2020 C   0  0  0  0  0  0  0  0  0  0  0  0
   -4.1445   24.8150  -29.6423 H   0  0  0  0  0  0  0  0  0  0  0  0
   -3.8520   22.8050  -28.8390 C   0  0  0  0  0  0  0  0  0  0  0  0
   -4.9124   22.6688  -28.5802 H   0  0  0  0  0  0  0  0  0  0  0  0
   -3.0070   21.6510  -28.7780 C   0  0  0  0  0  0  0  0  0  0  0  0
   -2.1210   20.4410  -28.7150 C   0  0  0  0  0  0  0  0  0  0  0  0
   -2.1108   19.8625  -27.7795 H   0  0  0  0  0  0  0  0  0  0  0  0
   -1.3610   20.0270  -29.6940 N   0  0  0  0  0  0  0  0  0  0  0  0
   -1.1520   20.4890  -31.0130 N   0  0  0  0  0  0  0  0  0  0  0  0
   -1.9200   21.1310  -31.9410 C   0  0  0  0  0  0  0  0  0  0  0  0
   -3.3670   21.3980  -31.9300 C   0  0  0  0  0  0  0  0  0  0  0  0
   -3.8830   22.6730  -32.1830 C   0  0  0  0  0  0  0  0  0  0  0  0
   -3.2013   23.4958  -32.4444 H   0  0  0  0  0  0  0  0  0  0  0  0
   -5.2610   22.9100  -32.1060 C   0  0  0  0  0  0  0  0  0  0  0  0
   -5.6645   23.8992  -32.3681 H   0  0  0  0  0  0  0  0  0  0  0  0
   -6.1300   21.8820  -31.6930 C   0  0  0  0  0  0  0  0  0  0  0  0
   -7.8650   22.1480  -31.5650 S   0  0  0  0  0  0  0  0  0  0  0  0
   -8.2150   22.3680  -30.1180 O   0  0  0  0  0  0  0  0  0  0  0  0
   -8.2660   23.3670  -32.3580 O   0  0  0  0  0  0  0  0  0  0  0  0
   -8.7120   20.7400  -32.1640 N   0  0  0  0  0  0  0  0  0  0  0  0
   -9.0860   19.8430  -31.0650 C   0  0  0  0  0  0  0  0  0  0  0  0
   -8.3772   19.9494  -30.2306 H   0  0  0  0  0  0  0  0  0  0  0  0
  -10.0894   20.0818  -30.6827 H   0  0  0  0  0  0  0  0  0  0  0  0
   -9.0340   18.4340  -31.6180 C   0  0  0  0  0  0  0  0  0  0  0  0
   -8.7326   17.7203  -30.8371 H   0  0  0  0  0  0  0  0  0  0  0  0
  -10.0122   18.0924  -31.9873 H   0  0  0  0  0  0  0  0  0  0  0  0
   -7.9930   18.4980  -32.7160 C   0  0  0  0  0  0  0  0  0  0  0  0
   -7.0252   18.1263  -32.3484 H   0  0  0  0  0  0  0  0  0  0  0  0
   -8.2740   17.8738  -33.5771 H   0  0  0  0  0  0  0  0  0  0  0  0
   -7.8850   19.9690  -33.1010 C   0  0  0  0  0  0  0  0  0  0  0  0
   -6.8374   20.2976  -33.0333 H   0  0  0  0  0  0  0  0  0  0  0  0
   -8.2303   20.1222  -34.1341 H   0  0  0  0  0  0  0  0  0  0  0  0
   -5.5990   20.6380  -31.3380 C   0  0  0  0  0  0  0  0  0  0  0  0
   -6.2642   19.8456  -30.9645 H   0  0  0  0  0  0  0  0  0  0  0  0
   -4.2310   20.3970  -31.4550 C   0  0  0  0  0  0  0  0  0  0  0  0
   -3.8244   19.4146  -31.1730 H   0  0  0  0  0  0  0  0  0  0  0  0
   -1.1950   21.4080  -33.0430 N   0  0  0  0  0  0  0  0  0  0  0  0
    0.0310   20.9520  -32.8510 N   0  0  0  0  0  0  0  0  0  0  0  0
    0.0440   20.3910  -31.6330 C   0  0  0  0  0  0  0  0  0  0  0  0
    1.3750   19.6870  -30.9880 S   0  0  0  0  0  0  0  0  0  0  0  0
  1  2  1  0
  2  3  1  0
  3  4  2  0
  4  5  1  0
  4  6  1  0
  6  7  1  0
  6  8  2  0
  8  9  1  0
  8 10  1  0
 10 11  1  0
 10 12  2  0
 12 13  1  0
 13 14  1  0
 13 15  2  0
 15 16  1  0
 16 17  1  0
 17 18  1  0
 18 19  2  0
 19 20  1  0
 19 21  1  0
 21 22  1  0
 21 23  2  0
 23 24  1  0
 24 25  2  0
 24 26  2  0
 24 27  1  0
 27 28  1  0
 28 29  1  0
 28 30  1  0
 28 31  1  0
 31 32  1  0
 31 33  1  0
 31 34  1  0
 34 35  1  0
 34 36  1  0
 34 37  1  0
 37 38  1  0
 37 39  1  0
 23 40  1  0
 40 41  1  0
 40 42  2  0
 42 43  1  0
 17 44  2  0
 44 45  1  0
 45 46  1  0
 46 47  2  0
 12  3  1  0
 46 16  1  0
 42 18  1  0
 37 27  1  0
M  CHG  2   7  -1  45  -1
M  END
>  <UniqueID>  (13) 
11

>  <SMILES>  (13) 
O=S(=O)(c1ccc(-c2n[n-]c(=S)n2/N=C\c2ccc([O-])cc2O)cc1)N1CCCC1

>  <Energy>  (13) 
268.23225066973373

>  <Genealogy>  (13) 
O=S(=O)(c1ccc(-c2n[n-]c(=S)n2N=Cc2ccc([O-])cc2O)cc1)N1CCCC1 (protonated)
O=S(=O)(c1ccc(-c2n[n-]c(=S)n2/N=C\c2ccc([O-])cc2O)cc1)N1CCCC1 (cis-trans isomerization)
O=S(=O)(c1ccc(-c2n[n-]c(=S)n2/N=C\c2ccc([O-])cc2O)cc1)N1CCCC1 (3D coordinates assigned)
O=S(=O)(c1ccc(-c2n[n-]c(=S)n2/N=C\c2ccc([O-])cc2O)cc1)N1CCCC1 (nonaromatic ring conformer: 268.23225066973373 kcal/mol)

>  <smiles>  (13) 
O=S(=O)(c1ccc(-c2n[nH]c(=S)n2N=Cc2ccc(O)cc2O)cc1)N1CCCC1

>  <score_type>  (13) 
oracle

>  <origin>  (13) 
adgpu

>  <m_score__min__energy>  (13) 
-11.23

>  <m_primary>  (13) 
energy

$$$$
13:0
     RDKit          3D

 43 46  0  0  0  0  0  0  0  0999 V2000
   -5.5480   26.5070  -30.4640 O   0  0  0  0  0  0  0  0  0  0  0  0
   -5.5080   25.2490  -30.5250 C   0  0  0  0  0  0  0  0  0  0  0  0
   -6.6690   24.5300  -30.8050 C   0  0  0  0  0  0  0  0  0  0  0  0
   -6.5970   23.1300  -30.8890 C   0  0  0  0  0  0  0  0  0  0  0  0
   -7.7280   22.3500  -31.1630 O   0  0  0  0  0  0  0  0  0  0  0  0
   -7.7130   21.0400  -31.6640 C   0  0  0  0  0  0  0  0  0  0  0  0
   -8.7200   20.1090  -31.3470 C   0  0  0  0  0  0  0  0  0  0  0  0
   -8.6770   18.8170  -31.8800 C   0  0  0  0  0  0  0  0  0  0  0  0
   -7.6400   18.4490  -32.7410 C   0  0  0  0  0  0  0  0  0  0  0  0
   -6.6470   19.3740  -33.0760 C   0  0  0  0  0  0  0  0  0  0  0  0
   -5.3540   18.9170  -34.1690 Cl  0  0  0  0  0  0  0  0  0  0  0  0
   -6.6880   20.6680  -32.5430 C   0  0  0  0  0  0  0  0  0  0  0  0
   -5.4400   22.5160  -30.6610 O   0  0  0  0  0  0  0  0  0  0  0  0
   -4.3070   23.1590  -30.3760 C   0  0  0  0  0  0  0  0  0  0  0  0
   -3.0810   22.3590  -30.1390 C   0  0  0  0  0  0  0  0  0  0  0  0
   -2.7540   21.3760  -30.9870 C   0  0  0  0  0  0  0  0  0  0  0  0
   -1.4920   20.5800  -30.8050 C   0  0  0  0  0  0  0  0  0  0  0  0
   -1.1670   20.3890  -29.3810 N   0  0  0  0  0  0  0  0  0  0  0  0
   -0.3040   19.3020  -28.9890 C   0  0  0  0  0  0  0  0  0  0  0  0
    0.8110   19.0120  -29.7150 N   0  0  0  0  0  0  0  0  0  0  0  0
    1.6360   17.9920  -29.3610 C   0  0  0  0  0  0  0  0  0  0  0  0
    1.3440   17.2200  -28.2390 C   0  0  0  0  0  0  0  0  0  0  0  0
    0.2010   17.5240  -27.5040 C   0  0  0  0  0  0  0  0  0  0  0  0
   -0.5980   18.5530  -27.8890 N   0  0  0  0  0  0  0  0  0  0  0  0
   -1.6710   21.3150  -28.3510 C   0  0  0  0  0  0  0  0  0  0  0  0
   -2.1840   22.6270  -28.9580 C   0  0  0  0  0  0  0  0  0  0  0  0
   -4.3080   24.5680  -30.3170 C   0  0  0  0  0  0  0  0  0  0  0  0
   -3.1380   25.2840  -30.0830 O   0  0  0  0  0  0  0  0  0  0  0  0
   -7.6259   25.0507  -30.9577 H   0  0  0  0  0  0  0  0  0  0  0  0
   -9.5435   20.3988  -30.6778 H   0  0  0  0  0  0  0  0  0  0  0  0
   -9.4605   18.0895  -31.6211 H   0  0  0  0  0  0  0  0  0  0  0  0
   -7.6050   17.4307  -33.1555 H   0  0  0  0  0  0  0  0  0  0  0  0
   -5.9106   21.3968  -32.8162 H   0  0  0  0  0  0  0  0  0  0  0  0
   -3.4204   21.1469  -31.8316 H   0  0  0  0  0  0  0  0  0  0  0  0
   -1.6215   19.5944  -31.2761 H   0  0  0  0  0  0  0  0  0  0  0  0
   -0.6662   21.1361  -31.2729 H   0  0  0  0  0  0  0  0  0  0  0  0
    2.5332   17.7762  -29.9597 H   0  0  0  0  0  0  0  0  0  0  0  0
    2.0009   16.3897  -27.9405 H   0  0  0  0  0  0  0  0  0  0  0  0
   -0.0546   16.9318  -26.6129 H   0  0  0  0  0  0  0  0  0  0  0  0
   -2.4953   20.8284  -27.8090 H   0  0  0  0  0  0  0  0  0  0  0  0
   -0.8376   21.5568  -27.6750 H   0  0  0  0  0  0  0  0  0  0  0  0
   -2.7501   23.1801  -28.1940 H   0  0  0  0  0  0  0  0  0  0  0  0
   -1.3208   23.2174  -29.2993 H   0  0  0  0  0  0  0  0  0  0  0  0
  1  2  2  0
  2  3  1  0
  3  4  2  0
  4  5  1  0
  5  6  1  0
  6  7  2  0
  7  8  1  0
  8  9  2  0
  9 10  1  0
 10 11  1  0
 10 12  2  0
  4 13  1  0
 13 14  1  0
 14 15  1  0
 15 16  2  0
 16 17  1  0
 17 18  1  0
 18 19  1  0
 19 20  2  0
 20 21  1  0
 21 22  2  0
 22 23  1  0
 23 24  2  0
 18 25  1  0
 25 26  1  0
 14 27  2  0
 27 28  1  0
 27  2  1  0
 12  6  1  0
 26 15  1  0
 24 19  1  0
  3 29  1  0
  7 30  1  0
  8 31  1  0
  9 32  1  0
 12 33  1  0
 16 34  1  0
 17 35  1  0
 17 36  1  0
 21 37  1  0
 22 38  1  0
 23 39  1  0
 25 40  1  0
 25 41  1  0
 26 42  1  0
 26 43  1  0
M  CHG  1  28  -1
M  END
>  <UniqueID>  (14) 
12

>  <SMILES>  (14) 
O=c1cc(Oc2cccc(Cl)c2)oc(C2=CCN(c3ncccn3)CC2)c1[O-]

>  <Energy>  (14) 
62.258883045031126

>  <Genealogy>  (14) 
O=c1cc(Oc2cccc(Cl)c2)oc(C2=CCN(c3ncccn3)CC2)c1[O-] (protonated)
O=c1cc(Oc2cccc(Cl)c2)oc(C2=CCN(c3ncccn3)CC2)c1[O-] (3D coordinates assigned)
O=c1cc(Oc2cccc(Cl)c2)oc(C2=CCN(c3ncccn3)CC2)c1[O-] (nonaromatic ring conformer: 62.258883045031126 kcal/mol)

>  <smiles>  (14) 
O=c1cc(Oc2cccc(Cl)c2)oc(C2=CCN(c3ncccn3)CC2)c1O

>  <score_type>  (14) 
oracle

>  <origin>  (14) 
adgpu

>  <m_score__min__energy>  (14) 
-11.75

>  <m_primary>  (14) 
energy

$$$$
14:0
     RDKit          3D

 28 30  0  0  0  0  0  0  0  0999 V2000
   -0.5770   23.4860  -29.0010 S   0  0  0  0  0  0  0  0  0  0  0  0
   -2.0330   23.8260  -29.6710 C   0  0  0  0  0  0  0  0  0  0  0  0
   -2.7400   24.9290  -29.3500 N   0  0  0  0  0  0  0  0  0  0  0  0
   -3.8650   24.8210  -30.0860 C   0  0  0  0  0  0  0  0  0  0  0  0
   -3.8240   23.6630  -30.8310 C   0  0  0  0  0  0  0  0  0  0  0  0
   -2.6610   23.0430  -30.5750 N   0  0  0  0  0  0  0  0  0  0  0  0
   -2.2430   21.7410  -31.0980 C   0  0  0  0  0  0  0  0  0  0  0  0
   -3.3750   21.1050  -31.8400 C   0  0  0  0  0  0  0  0  0  0  0  0
   -3.3680   20.7260  -33.1610 C   0  0  0  0  0  0  0  0  0  0  0  0
   -4.5670   20.2840  -33.4440 O   0  0  0  0  0  0  0  0  0  0  0  0
   -5.3000   20.3940  -32.3560 C   0  0  0  0  0  0  0  0  0  0  0  0
   -6.7270   19.9870  -32.2920 C   0  0  0  0  0  0  0  0  0  0  0  0
   -7.0330   18.6170  -32.4170 C   0  0  0  0  0  0  0  0  0  0  0  0
   -8.3550   18.1710  -32.3590 C   0  0  0  0  0  0  0  0  0  0  0  0
   -9.3930   19.0830  -32.1770 C   0  0  0  0  0  0  0  0  0  0  0  0
   -9.1130   20.4440  -32.0580 C   0  0  0  0  0  0  0  0  0  0  0  0
   -7.7920   20.9090  -32.1140 C   0  0  0  0  0  0  0  0  0  0  0  0
   -7.5530   22.6490  -31.9860 Cl  0  0  0  0  0  0  0  0  0  0  0  0
   -4.6010   20.9080  -31.3200 N   0  0  0  0  0  0  0  0  0  0  0  0
   -4.6906   25.5478  -30.0907 H   0  0  0  0  0  0  0  0  0  0  0  0
   -4.6078   23.3081  -31.5164 H   0  0  0  0  0  0  0  0  0  0  0  0
   -1.3908   21.8781  -31.7799 H   0  0  0  0  0  0  0  0  0  0  0  0
   -1.9476   21.0916  -30.2608 H   0  0  0  0  0  0  0  0  0  0  0  0
   -2.5139   20.7834  -33.8518 H   0  0  0  0  0  0  0  0  0  0  0  0
   -6.2204   17.8900  -32.5621 H   0  0  0  0  0  0  0  0  0  0  0  0
   -8.5774   17.0982  -32.4571 H   0  0  0  0  0  0  0  0  0  0  0  0
  -10.4334   18.7292  -32.1272 H   0  0  0  0  0  0  0  0  0  0  0  0
   -9.9369   21.1595  -31.9188 H   0  0  0  0  0  0  0  0  0  0  0  0
  1  2  2  0
  2  3  1  0
  3  4  1  0
  4  5  2  0
  5  6  1  0
  6  7  1  0
  7  8  1  0
  8  9  2  0
  9 10  1  0
 10 11  1  0
 11 12  1  0
 12 13  2  0
 13 14  1  0
 14 15  2  0
 15 16  1  0
 16 17  2  0
 17 18  1  0
 11 19  2  0
  6  2  1  0
 19  8  1  0
 17 12  1  0
  4 20  1  0
  5 21  1  0
  7 22  1  0
  7 23  1  0
  9 24  1  0
 13 25  1  0
 14 26  1  0
 15 27  1  0
 16 28  1  0
M  CHG  1   3  -1
M  END
>  <UniqueID>  (15) 
13

>  <SMILES>  (15) 
S=c1[n-]ccn1Cc1coc(-c2ccccc2Cl)n1

>  <Energy>  (15) 
91.67172163418665

>  <Genealogy>  (15) 
S=c1[n-]ccn1Cc1coc(-c2ccccc2Cl)n1 (protonated)
S=c1[n-]ccn1Cc1coc(-c2ccccc2Cl)n1 (3D coordinates assigned)
S=c1[n-]ccn1Cc1coc(-c2ccccc2Cl)n1 (optimized conformer: 91.67172163418665 kcal/mol)

>  <smiles>  (15) 
S=c1[nH]ccn1Cc1coc(-c2ccccc2Cl)n1

>  <score_type>  (15) 
oracle

>  <origin>  (15) 
adgpu

>  <m_score__min__energy>  (15) 
-8.0700000000000003

>  <m_primary>  (15) 
energy

$$$$
15:0
     RDKit          3D

 49 51  0  0  0  0  0  0  0  0999 V2000
    0.6750   18.5570  -27.8940 C   0  0  0  0  0  0  0  0  0  0  0  0
   -0.3580   18.7530  -28.8540 O   0  0  0  0  0  0  0  0  0  0  0  0
   -1.1900   19.8830  -28.9060 C   0  0  0  0  0  0  0  0  0  0  0  0
   -1.1870   20.7600  -30.0070 C   0  0  0  0  0  0  0  0  0  0  0  0
   -2.0190   21.8800  -30.0220 C   0  0  0  0  0  0  0  0  0  0  0  0
   -2.8760   22.1400  -28.9440 C   0  0  0  0  0  0  0  0  0  0  0  0
   -3.7290   23.3830  -28.9370 C   0  0  0  0  0  0  0  0  0  0  0  0
   -2.9800   24.5760  -29.5340 C   0  0  0  0  0  0  0  0  0  0  0  0
   -3.8410   25.2920  -30.4680 N   0  0  0  0  0  0  0  0  0  0  0  0
   -5.2600   25.1340  -30.5130 C   0  0  0  0  0  0  0  0  0  0  0  0
   -6.0060   26.0460  -30.0660 O   0  0  0  0  0  0  0  0  0  0  0  0
   -5.8470   23.9000  -31.0860 C   0  0  0  0  0  0  0  0  0  0  0  0
   -7.2290   23.6780  -31.0140 C   0  0  0  0  0  0  0  0  0  0  0  0
   -7.7790   22.5170  -31.5580 C   0  0  0  0  0  0  0  0  0  0  0  0
   -9.0230   22.3270  -31.4760 O   0  0  0  0  0  0  0  0  0  0  0  0
   -6.9440   21.5770  -32.1870 C   0  0  0  0  0  0  0  0  0  0  0  0
   -7.4650   20.3990  -32.7520 C   0  0  0  0  0  0  0  0  0  0  0  0
   -6.6160   19.4860  -33.3740 C   0  0  0  0  0  0  0  0  0  0  0  0
   -5.2460   19.7320  -33.4480 C   0  0  0  0  0  0  0  0  0  0  0  0
   -4.6960   20.9020  -32.8880 C   0  0  0  0  0  0  0  0  0  0  0  0
   -3.3180   21.1680  -32.9510 O   0  0  0  0  0  0  0  0  0  0  0  0
   -2.3240   20.2090  -33.2970 C   0  0  0  0  0  0  0  0  0  0  0  0
   -5.5500   21.8300  -32.2510 C   0  0  0  0  0  0  0  0  0  0  0  0
   -5.0450   22.9760  -31.6970 N   0  0  0  0  0  0  0  0  0  0  0  0
   -2.8800   21.2710  -27.8430 C   0  0  0  0  0  0  0  0  0  0  0  0
   -2.0440   20.1370  -27.8210 C   0  0  0  0  0  0  0  0  0  0  0  0
   -2.0290   19.2430  -26.7370 O   0  0  0  0  0  0  0  0  0  0  0  0
   -3.1770   18.8740  -25.9820 C   0  0  0  0  0  0  0  0  0  0  0  0
    0.2540   18.6369  -26.8809 H   0  0  0  0  0  0  0  0  0  0  0  0
    1.1171   17.5589  -28.0297 H   0  0  0  0  0  0  0  0  0  0  0  0
    1.4520   19.3237  -28.0297 H   0  0  0  0  0  0  0  0  0  0  0  0
   -0.5239   20.5609  -30.8618 H   0  0  0  0  0  0  0  0  0  0  0  0
   -2.0022   22.5625  -30.8845 H   0  0  0  0  0  0  0  0  0  0  0  0
   -4.6371   23.1975  -29.5294 H   0  0  0  0  0  0  0  0  0  0  0  0
   -3.9858   23.6214  -27.8943 H   0  0  0  0  0  0  0  0  0  0  0  0
   -2.6757   25.2564  -28.7250 H   0  0  0  0  0  0  0  0  0  0  0  0
   -2.0916   24.2114  -30.0705 H   0  0  0  0  0  0  0  0  0  0  0  0
   -7.8803   24.4195  -30.5283 H   0  0  0  0  0  0  0  0  0  0  0  0
   -8.5454   20.1981  -32.7027 H   0  0  0  0  0  0  0  0  0  0  0  0
   -7.0298   18.5646  -33.8097 H   0  0  0  0  0  0  0  0  0  0  0  0
   -4.5882   19.0060  -33.9482 H   0  0  0  0  0  0  0  0  0  0  0  0
   -1.8867   19.7871  -32.3801 H   0  0  0  0  0  0  0  0  0  0  0  0
   -2.7823   19.4032  -33.8891 H   0  0  0  0  0  0  0  0  0  0  0  0
   -1.5351   20.6959  -33.8891 H   0  0  0  0  0  0  0  0  0  0  0  0
   -4.0190   23.1570  -31.7510 H   0  0  0  0  0  0  0  0  0  0  0  0
   -3.5419   21.4767  -26.9888 H   0  0  0  0  0  0  0  0  0  0  0  0
   -2.9489   18.9473  -24.9084 H   0  0  0  0  0  0  0  0  0  0  0  0
   -4.0097   19.5498  -26.2269 H   0  0  0  0  0  0  0  0  0  0  0  0
   -3.4600   17.8396  -26.2269 H   0  0  0  0  0  0  0  0  0  0  0  0
  1  2  1  0
  2  3  1  0
  3  4  2  0
  4  5  1  0
  5  6  2  0
  6  7  1  0
  7  8  1  0
  8  9  1  0
  9 10  1  0
 10 11  2  0
 10 12  1  0
 12 13  2  0
 13 14  1  0
 14 15  2  0
 14 16  1  0
 16 17  2  0
 17 18  1  0
 18 19  2  0
 19 20  1  0
 20 21  1  0
 21 22  1  0
 20 23  2  0
 23 24  1  0
  6 25  1  0
 25 26  2  0
 26 27  1  0
 27 28  1  0
 26  3  1  0
 24 12  1  0
 23 16  1  0
  1 29  1  0
  1 30  1  0
  1 31  1  0
  4 32  1  0
  5 33  1  0
  7 34  1  0
  7 35  1  0
  8 36  1  0
  8 37  1  0
 13 38  1  0
 17 39  1  0
 18 40  1  0
 19 41  1  0
 22 42  1  0
 22 43  1  0
 22 44  1  0
 24 45  1  0
 25 46  1  0
 28 47  1  0
 28 48  1  0
 28 49  1  0
M  CHG  1   9  -1
M  END
>  <UniqueID>  (16) 
14

>  <SMILES>  (16) 
COc1ccc(CC[N-]C(=O)c2cc(=O)c3cccc(OC)c3[nH]2)cc1OC

>  <Energy>  (16) 
49.47918899668001

>  <Genealogy>  (16) 
COc1ccc(CC[N-]C(=O)c2cc(=O)c3cccc(OC)c3[nH]2)cc1OC (protonated)
COc1ccc(CC[N-]C(=O)c2cc(=O)c3cccc(OC)c3[nH]2)cc1OC (3D coordinates assigned)
COc1ccc(CC[N-]C(=O)c2cc(=O)c3cccc(OC)c3[nH]2)cc1OC (optimized conformer: 49.47918899668001 kcal/mol)

>  <smiles>  (16) 
COc1ccc(CCNC(=O)c2cc(=O)c3cccc(OC)c3[nH]2)cc1OC

>  <score_type>  (16) 
oracle

>  <origin>  (16) 
adgpu

>  <m_score__min__energy>  (16) 
-9.6300000000000008

>  <m_primary>  (16) 
energy

$$$$
16:0
     RDKit          3D

 61 64  0  0  0  0  0  0  0  0999 V2000
   -5.0970   16.0820  -32.4270 C   0  0  0  0  0  0  0  0  0  0  0  0
   -5.6900   17.1200  -31.5830 N   0  0  0  0  0  0  0  0  0  0  0  0
   -6.6310   17.9340  -32.3620 C   0  0  0  0  0  0  0  0  0  0  0  0
   -6.1840   19.3740  -32.3570 C   0  0  0  0  0  0  0  0  0  0  0  0
   -4.9010   19.6950  -31.8830 C   0  0  0  0  0  0  0  0  0  0  0  0
   -4.4650   21.0300  -31.8300 C   0  0  0  0  0  0  0  0  0  0  0  0
   -3.1040   21.3600  -31.3360 C   0  0  0  0  0  0  0  0  0  0  0  0
   -1.9650   20.7980  -31.9320 C   0  0  0  0  0  0  0  0  0  0  0  0
   -0.7250   21.1080  -31.4730 N   0  0  0  0  0  0  0  0  0  0  0  0
   -0.5370   21.9570  -30.4290 C   0  0  0  0  0  0  0  0  0  0  0  0
   -1.6360   22.5500  -29.7910 C   0  0  0  0  0  0  0  0  0  0  0  0
   -1.4430   23.4790  -28.6480 C   0  0  0  0  0  0  0  0  0  0  0  0
   -1.3260   24.8640  -28.8640 C   0  0  0  0  0  0  0  0  0  0  0  0
   -1.1440   25.7380  -27.7880 C   0  0  0  0  0  0  0  0  0  0  0  0
   -1.0780   25.2480  -26.4740 C   0  0  0  0  0  0  0  0  0  0  0  0
   -0.8880   26.1510  -25.3680 N   0  0  0  0  0  0  0  0  0  0  0  0
   -1.2340   27.5710  -25.5040 C   0  0  0  0  0  0  0  0  0  0  0  0
   -0.2340   28.4650  -24.7450 C   0  0  0  0  0  0  0  0  0  0  0  0
    0.3210   27.8580  -23.5000 N   0  0  0  0  0  0  0  0  0  0  0  0
    1.7360   27.4720  -23.6760 C   0  0  0  0  0  0  0  0  0  0  0  0
   -0.4890   26.7270  -22.9930 C   0  0  0  0  0  0  0  0  0  0  0  0
   -0.6130   25.6050  -24.0340 C   0  0  0  0  0  0  0  0  0  0  0  0
   -1.1960   23.8650  -26.2570 C   0  0  0  0  0  0  0  0  0  0  0  0
   -1.3750   22.9900  -27.3310 C   0  0  0  0  0  0  0  0  0  0  0  0
   -2.9260   22.2420  -30.2570 C   0  0  0  0  0  0  0  0  0  0  0  0
   -5.3360   22.0460  -32.2510 C   0  0  0  0  0  0  0  0  0  0  0  0
   -6.6180   21.7390  -32.7070 C   0  0  0  0  0  0  0  0  0  0  0  0
   -7.0600   20.4030  -32.7590 C   0  0  0  0  0  0  0  0  0  0  0  0
   -8.3510   20.0670  -33.1980 O   0  0  0  0  0  0  0  0  0  0  0  0
   -9.4900   19.9540  -32.3510 C   0  0  0  0  0  0  0  0  0  0  0  0
   -4.6517   15.3026  -31.7913 H   0  0  0  0  0  0  0  0  0  0  0  0
   -5.8766   15.6361  -33.0621 H   0  0  0  0  0  0  0  0  0  0  0  0
   -4.3169   16.5271  -33.0621 H   0  0  0  0  0  0  0  0  0  0  0  0
   -6.2270   16.6370  -30.8240 H   0  0  0  0  0  0  0  0  0  0  0  0
   -6.6630   17.5649  -33.3977 H   0  0  0  0  0  0  0  0  0  0  0  0
   -7.6325   17.8624  -31.9127 H   0  0  0  0  0  0  0  0  0  0  0  0
   -4.2289   18.8908  -31.5490 H   0  0  0  0  0  0  0  0  0  0  0  0
   -2.0770   20.1019  -32.7763 H   0  0  0  0  0  0  0  0  0  0  0  0
    0.4828   22.1804  -30.0824 H   0  0  0  0  0  0  0  0  0  0  0  0
   -1.3781   25.2627  -29.8879 H   0  0  0  0  0  0  0  0  0  0  0  0
   -1.0518   26.8185  -27.9725 H   0  0  0  0  0  0  0  0  0  0  0  0
   -1.2206   27.8428  -26.5698 H   0  0  0  0  0  0  0  0  0  0  0  0
   -2.2350   27.7275  -25.0756 H   0  0  0  0  0  0  0  0  0  0  0  0
    0.6047   28.6912  -25.4198 H   0  0  0  0  0  0  0  0  0  0  0  0
   -0.7909   29.3610  -24.4335 H   0  0  0  0  0  0  0  0  0  0  0  0
    0.3070   28.5940  -22.7540 H   0  0  0  0  0  0  0  0  0  0  0  0
    2.2064   27.3437  -22.6900 H   0  0  0  0  0  0  0  0  0  0  0  0
    1.7913   26.5260  -24.2345 H   0  0  0  0  0  0  0  0  0  0  0  0
    2.2640   28.2589  -24.2345 H   0  0  0  0  0  0  0  0  0  0  0  0
   -0.0103   26.3229  -22.0888 H   0  0  0  0  0  0  0  0  0  0  0  0
   -1.4991   27.1014  -22.7707 H   0  0  0  0  0  0  0  0  0  0  0  0
    0.3290   25.0378  -24.0650 H   0  0  0  0  0  0  0  0  0  0  0  0
   -1.4486   24.9506  -23.7449 H   0  0  0  0  0  0  0  0  0  0  0  0
   -1.1470   23.4677  -25.2324 H   0  0  0  0  0  0  0  0  0  0  0  0
   -1.4635   21.9094  -27.1452 H   0  0  0  0  0  0  0  0  0  0  0  0
   -3.8035   22.6954  -29.7728 H   0  0  0  0  0  0  0  0  0  0  0  0
   -5.0049   23.0946  -32.2212 H   0  0  0  0  0  0  0  0  0  0  0  0
   -7.2900   22.5481  -33.0290 H   0  0  0  0  0  0  0  0  0  0  0  0
   -9.1694   19.9858  -31.2992 H   0  0  0  0  0  0  0  0  0  0  0  0
  -10.1789   20.7882  -32.5497 H   0  0  0  0  0  0  0  0  0  0  0  0
  -10.0016   19.0007  -32.5497 H   0  0  0  0  0  0  0  0  0  0  0  0
  1  2  1  0
  2  3  1  0
  3  4  1  0
  4  5  2  0
  5  6  1  0
  6  7  1  0
  7  8  2  0
  8  9  1  0
  9 10  2  0
 10 11  1  0
 11 12  1  0
 12 13  2  0
 13 14  1  0
 14 15  2  0
 15 16  1  0
 16 17  1  0
 17 18  1  0
 18 19  1  0
 19 20  1  0
 19 21  1  0
 21 22  1  0
 15 23  1  0
 23 24  2  0
 11 25  2  0
  6 26  2  0
 26 27  1  0
 27 28  2  0
 28 29  1  0
 29 30  1  0
 28  4  1  0
 25  7  1  0
 24 12  1  0
 22 16  1  0
  1 31  1  0
  1 32  1  0
  1 33  1  0
  2 34  1  0
  3 35  1  0
  3 36  1  0
  5 37  1  0
  8 38  1  0
 10 39  1  0
 13 40  1  0
 14 41  1  0
 17 42  1  0
 17 43  1  0
 18 44  1  0
 18 45  1  0
 19 46  1  0
 20 47  1  0
 20 48  1  0
 20 49  1  0
 21 50  1  0
 21 51  1  0
 22 52  1  0
 22 53  1  0
 23 54  1  0
 24 55  1  0
 25 56  1  0
 26 57  1  0
 27 58  1  0
 30 59  1  0
 30 60  1  0
 30 61  1  0
M  CHG  1  19   1
M  END
>  <UniqueID>  (17) 
15

>  <SMILES>  (17) 
CNCc1cc(-c2cncc(-c3ccc(N4CC[NH+](C)CC4)cc3)c2)ccc1OC

>  <Energy>  (17) 
84.19003153675592

>  <Genealogy>  (17) 
CNCc1cc(-c2cncc(-c3ccc(N4CC[NH+](C)CC4)cc3)c2)ccc1OC (protonated)
CNCc1cc(-c2cncc(-c3ccc(N4CC[NH+](C)CC4)cc3)c2)ccc1OC (3D coordinates assigned)
CNCc1cc(-c2cncc(-c3ccc(N4CC[NH+](C)CC4)cc3)c2)ccc1OC (nonaromatic ring conformer: 84.19003153675592 kcal/mol)

>  <smiles>  (17) 
CNCc1cc(-c2cncc(-c3ccc(N4CCN(C)CC4)cc3)c2)ccc1OC

>  <score_type>  (17) 
oracle

>  <origin>  (17) 
adgpu

>  <m_score__min__energy>  (17) 
-9.5099999999999998

>  <m_primary>  (17) 
energy

$$$$
17:0
     RDKit          3D

 41 43  0  0  0  0  0  0  0  0999 V2000
   -8.9500   18.9660  -32.2870 Cl  0  0  0  0  0  0  0  0  0  0  0  0
   -7.5190   19.9750  -32.3830 C   0  0  0  0  0  0  0  0  0  0  0  0
   -7.6410   21.3690  -32.3510 C   0  0  0  0  0  0  0  0  0  0  0  0
   -6.5010   22.1740  -32.4260 C   0  0  0  0  0  0  0  0  0  0  0  0
   -5.2250   21.5900  -32.5420 C   0  0  0  0  0  0  0  0  0  0  0  0
   -4.0520   22.3570  -32.5910 O   0  0  0  0  0  0  0  0  0  0  0  0
   -2.7450   21.8610  -32.4590 C   0  0  0  0  0  0  0  0  0  0  0  0
   -2.1310   21.1540  -33.5080 C   0  0  0  0  0  0  0  0  0  0  0  0
   -0.8330   20.6590  -33.3630 C   0  0  0  0  0  0  0  0  0  0  0  0
   -0.1410   20.8530  -32.1670 C   0  0  0  0  0  0  0  0  0  0  0  0
   -0.7460   21.5370  -31.1100 C   0  0  0  0  0  0  0  0  0  0  0  0
   -2.0520   22.0390  -31.2410 C   0  0  0  0  0  0  0  0  0  0  0  0
   -2.6710   22.8010  -30.0900 C   0  0  0  0  0  0  0  0  0  0  0  0
   -3.2390   24.0900  -30.5140 N   0  0  0  0  0  0  0  0  0  0  0  0
   -4.5580   24.3730  -29.9100 C   0  0  0  0  0  0  0  0  0  0  0  0
   -5.4000   25.2300  -30.8430 C   0  0  0  0  0  0  0  0  0  0  0  0
   -6.8520   24.9100  -30.5030 C   0  0  0  0  0  0  0  0  0  0  0  0
   -6.8430   23.6130  -29.6940 C   0  0  0  0  0  0  0  0  0  0  0  0
   -5.4040   23.1200  -29.6880 C   0  0  0  0  0  0  0  0  0  0  0  0
   -5.1120   20.1940  -32.5560 C   0  0  0  0  0  0  0  0  0  0  0  0
   -6.2530   19.3890  -32.4830 C   0  0  0  0  0  0  0  0  0  0  0  0
   -8.6355   21.8315  -32.2667 H   0  0  0  0  0  0  0  0  0  0  0  0
   -6.6010   23.2690  -32.3943 H   0  0  0  0  0  0  0  0  0  0  0  0
   -2.6765   20.9897  -34.4490 H   0  0  0  0  0  0  0  0  0  0  0  0
   -0.3560   20.1159  -34.1922 H   0  0  0  0  0  0  0  0  0  0  0  0
    0.8829   20.4666  -32.0563 H   0  0  0  0  0  0  0  0  0  0  0  0
   -0.1963   21.6837  -30.1685 H   0  0  0  0  0  0  0  0  0  0  0  0
   -3.4725   22.1887  -29.6510 H   0  0  0  0  0  0  0  0  0  0  0  0
   -1.8764   23.0083  -29.3581 H   0  0  0  0  0  0  0  0  0  0  0  0
   -3.2680   24.1430  -31.5590 H   0  0  0  0  0  0  0  0  0  0  0  0
   -4.3236   24.8621  -28.9530 H   0  0  0  0  0  0  0  0  0  0  0  0
   -5.1932   26.2971  -30.6742 H   0  0  0  0  0  0  0  0  0  0  0  0
   -5.1755   25.0199  -31.8991 H   0  0  0  0  0  0  0  0  0  0  0  0
   -7.2893   25.7246  -29.9070 H   0  0  0  0  0  0  0  0  0  0  0  0
   -7.4553   24.8003  -31.4162 H   0  0  0  0  0  0  0  0  0  0  0  0
   -7.1840   23.8037  -28.6657 H   0  0  0  0  0  0  0  0  0  0  0  0
   -7.5189   22.8645  -30.1333 H   0  0  0  0  0  0  0  0  0  0  0  0
   -5.1588   22.6536  -28.7224 H   0  0  0  0  0  0  0  0  0  0  0  0
   -5.2245   22.3571  -30.4599 H   0  0  0  0  0  0  0  0  0  0  0  0
   -4.1182   19.7274  -32.6249 H   0  0  0  0  0  0  0  0  0  0  0  0
   -6.1548   18.2936  -32.5043 H   0  0  0  0  0  0  0  0  0  0  0  0
  1  2  1  0
  2  3  2  0
  3  4  1  0
  4  5  2  0
  5  6  1  0
  6  7  1  0
  7  8  2  0
  8  9  1  0
  9 10  2  0
 10 11  1  0
 11 12  2  0
 12 13  1  0
 13 14  1  0
 14 15  1  0
 15 16  1  0
 16 17  1  0
 17 18  1  0
 18 19  1  0
  5 20  1  0
 20 21  2  0
 21  2  1  0
 12  7  1  0
 19 15  1  0
  3 22  1  0
  4 23  1  0
  8 24  1  0
  9 25  1  0
 10 26  1  0
 11 27  1  0
 13 28  1  0
 13 29  1  0
 14 30  1  0
 15 31  1  0
 16 32  1  0
 16 33  1  0
 17 34  1  0
 17 35  1  0
 18 36  1  0
 18 37  1  0
 19 38  1  0
 19 39  1  0
 20 40  1  0
 21 41  1  0
M  END
>  <UniqueID>  (18) 
16

>  <SMILES>  (18) 
Clc1ccc(Oc2ccccc2CNC2CCCC2)cc1

>  <Energy>  (18) 
49.057047572325196

>  <Genealogy>  (18) 
Clc1ccc(Oc2ccccc2CNC2CCCC2)cc1 (3D coordinates assigned)
Clc1ccc(Oc2ccccc2CNC2CCCC2)cc1 (nonaromatic ring conformer: 49.057047572325196 kcal/mol)

>  <smiles>  (18) 
Clc1ccc(Oc2ccccc2CNC2CCCC2)cc1

>  <score_type>  (18) 
oracle

>  <origin>  (18) 
adgpu

>  <m_score__min__energy>  (18) 
-7.8300000000000001

>  <m_primary>  (18) 
energy

$$$$
18:0
     RDKit          3D

 36 38  0  0  0  0  0  0  0  0999 V2000
   -7.9790   23.0290  -31.9740 C   0  0  0  0  0  0  0  0  0  0  0  0
   -6.7300   23.7270  -31.4490 C   0  0  0  0  0  0  0  0  0  0  0  0
   -5.5660   23.2190  -32.0990 O   0  0  0  0  0  0  0  0  0  0  0  0
   -4.4020   22.8520  -31.4090 C   0  0  0  0  0  0  0  0  0  0  0  0
   -4.0020   21.5050  -31.3660 C   0  0  0  0  0  0  0  0  0  0  0  0
   -4.7580   20.4390  -32.0610 C   0  0  0  0  0  0  0  0  0  0  0  0
   -6.0490   20.0630  -31.6440 C   0  0  0  0  0  0  0  0  0  0  0  0
   -6.7460   19.0600  -32.3250 C   0  0  0  0  0  0  0  0  0  0  0  0
   -6.1700   18.4320  -33.4330 C   0  0  0  0  0  0  0  0  0  0  0  0
   -6.8630   17.4340  -34.1060 O   0  0  0  0  0  0  0  0  0  0  0  0
   -4.8960   18.8120  -33.8650 C   0  0  0  0  0  0  0  0  0  0  0  0
   -4.1950   19.8150  -33.1880 C   0  0  0  0  0  0  0  0  0  0  0  0
   -2.9330   21.1550  -30.6570 O   0  0  0  0  0  0  0  0  0  0  0  0
   -2.1790   22.0180  -29.9840 C   0  0  0  0  0  0  0  0  0  0  0  0
   -1.0590   21.5490  -29.2590 C   0  0  0  0  0  0  0  0  0  0  0  0
   -0.7410   20.1430  -29.2240 N   0  0  0  0  0  0  0  0  0  0  0  0
   -0.0790   19.6150  -30.1430 O   0  0  0  0  0  0  0  0  0  0  0  0
   -1.1640   19.3530  -28.1800 O   0  0  0  0  0  0  0  0  0  0  0  0
   -0.2520   22.4760  -28.5710 C   0  0  0  0  0  0  0  0  0  0  0  0
    0.8450   22.0540  -27.8290 O   0  0  0  0  0  0  0  0  0  0  0  0
   -0.5540   23.8380  -28.6060 C   0  0  0  0  0  0  0  0  0  0  0  0
   -1.6610   24.3070  -29.3140 C   0  0  0  0  0  0  0  0  0  0  0  0
   -1.9210   25.6740  -29.3100 O   0  0  0  0  0  0  0  0  0  0  0  0
   -2.4890   23.4000  -30.0100 C   0  0  0  0  0  0  0  0  0  0  0  0
   -3.6220   23.8090  -30.7450 C   0  0  0  0  0  0  0  0  0  0  0  0
   -3.9350   25.0280  -30.8270 O   0  0  0  0  0  0  0  0  0  0  0  0
   -8.5913   22.6868  -31.1267 H   0  0  0  0  0  0  0  0  0  0  0  0
   -8.5617   23.7322  -32.5871 H   0  0  0  0  0  0  0  0  0  0  0  0
   -7.6854   22.1642  -32.5871 H   0  0  0  0  0  0  0  0  0  0  0  0
   -6.8104   24.8070  -31.6415 H   0  0  0  0  0  0  0  0  0  0  0  0
   -6.6450   23.5410  -30.3682 H   0  0  0  0  0  0  0  0  0  0  0  0
   -6.5115   20.5604  -30.7787 H   0  0  0  0  0  0  0  0  0  0  0  0
   -7.7504   18.7644  -31.9878 H   0  0  0  0  0  0  0  0  0  0  0  0
   -4.4439   18.3210  -34.7394 H   0  0  0  0  0  0  0  0  0  0  0  0
   -3.1974   20.1174  -33.5393 H   0  0  0  0  0  0  0  0  0  0  0  0
    0.0888   24.5508  -28.0686 H   0  0  0  0  0  0  0  0  0  0  0  0
  1  2  1  0
  2  3  1  0
  3  4  1  0
  4  5  2  0
  5  6  1  0
  6  7  2  0
  7  8  1  0
  8  9  2  0
  9 10  1  0
  9 11  1  0
 11 12  2  0
  5 13  1  0
 13 14  1  0
 14 15  2  0
 15 16  1  0
 16 17  2  0
 16 18  1  0
 15 19  1  0
 19 20  1  0
 19 21  2  0
 21 22  1  0
 22 23  1  0
 22 24  2  0
 24 25  1  0
 25 26  2  0
 25  4  1  0
 12  6  1  0
 24 14  1  0
  1 27  1  0
  1 28  1  0
  1 29  1  0
  2 30  1  0
  2 31  1  0
  7 32  1  0
  8 33  1  0
 11 34  1  0
 12 35  1  0
 21 36  1  0
M  CHG  5  10  -1  16   1  18  -1  20  -1  23  -1
M  END
>  <UniqueID>  (19) 
17

>  <SMILES>  (19) 
CCOc1c(-c2ccc([O-])cc2)oc2c([N+](=O)[O-])c([O-])cc([O-])c2c1=O

>  <Energy>  (19) 
58.103224772238335

>  <Genealogy>  (19) 
CCOc1c(-c2ccc([O-])cc2)oc2c([N+](=O)[O-])c([O-])cc([O-])c2c1=O (protonated)
CCOc1c(-c2ccc([O-])cc2)oc2c([N+](=O)[O-])c([O-])cc([O-])c2c1=O (3D coordinates assigned)
CCOc1c(-c2ccc([O-])cc2)oc2c([N+](=O)[O-])c([O-])cc([O-])c2c1=O (optimized conformer: 58.103224772238335 kcal/mol)

>  <smiles>  (19) 
CCOc1c(-c2ccc(O)cc2)oc2c([N+](=O)[O-])c(O)cc(O)c2c1=O

>  <score_type>  (19) 
oracle

>  <origin>  (19) 
adgpu

>  <m_score__min__energy>  (19) 
-10.27

>  <m_primary>  (19) 
energy

$$$$
19:0
     RDKit          3D

 33 35  0  0  0  0  0  0  0  0999 V2000
   -3.7520   25.3090  -30.8120 N   0  0  0  0  0  0  0  0  0  0  0  0
   -5.2300   24.9320  -29.9990 S   0  0  0  0  0  0  0  0  0  0  0  0
   -4.9280   24.4900  -28.5940 O   0  0  0  0  0  0  0  0  0  0  0  0
   -6.0990   26.1560  -29.9430 O   0  0  0  0  0  0  0  0  0  0  0  0
   -6.0640   23.6440  -30.8630 C   0  0  0  0  0  0  0  0  0  0  0  0
   -7.4590   23.6700  -30.9870 C   0  0  0  0  0  0  0  0  0  0  0  0
   -8.1180   22.6540  -31.6830 C   0  0  0  0  0  0  0  0  0  0  0  0
   -7.3920   21.6120  -32.2620 C   0  0  0  0  0  0  0  0  0  0  0  0
   -5.9900   21.5740  -32.1540 C   0  0  0  0  0  0  0  0  0  0  0  0
   -5.2280   20.4670  -32.7760 C   0  0  0  0  0  0  0  0  0  0  0  0
   -5.7320   19.2280  -32.9640 N   0  0  0  0  0  0  0  0  0  0  0  0
   -4.8460   18.3770  -33.5550 C   0  0  0  0  0  0  0  0  0  0  0  0
   -5.2060   16.9640  -33.8430 C   0  0  0  0  0  0  0  0  0  0  0  0
   -4.1930   15.9940  -33.9700 C   0  0  0  0  0  0  0  0  0  0  0  0
   -4.5120   14.6600  -34.2380 C   0  0  0  0  0  0  0  0  0  0  0  0
   -5.8490   14.2710  -34.3800 C   0  0  0  0  0  0  0  0  0  0  0  0
   -6.1780   12.9440  -34.6480 O   0  0  0  0  0  0  0  0  0  0  0  0
   -6.8640   15.2220  -34.2510 C   0  0  0  0  0  0  0  0  0  0  0  0
   -6.5500   16.5580  -33.9820 C   0  0  0  0  0  0  0  0  0  0  0  0
   -3.6020   18.9500  -33.8400 C   0  0  0  0  0  0  0  0  0  0  0  0
   -3.6420   20.5520  -33.3370 S   0  0  0  0  0  0  0  0  0  0  0  0
   -5.3320   22.6020  -31.4510 C   0  0  0  0  0  0  0  0  0  0  0  0
   -3.8650   26.2630  -31.2210 H   0  0  0  0  0  0  0  0  0  0  0  0
   -8.0358   24.4909  -30.5360 H   0  0  0  0  0  0  0  0  0  0  0  0
   -9.2139   22.6752  -31.7752 H   0  0  0  0  0  0  0  0  0  0  0  0
   -7.9198   20.8151  -32.8065 H   0  0  0  0  0  0  0  0  0  0  0  0
   -3.1395   16.2895  -33.8571 H   0  0  0  0  0  0  0  0  0  0  0  0
   -3.7101   13.9137  -34.3376 H   0  0  0  0  0  0  0  0  0  0  0  0
   -6.2290   12.2520  -33.9090 H   0  0  0  0  0  0  0  0  0  0  0  0
   -7.9155   14.9185  -34.3615 H   0  0  0  0  0  0  0  0  0  0  0  0
   -7.3572   17.2980  -33.8780 H   0  0  0  0  0  0  0  0  0  0  0  0
   -2.7480   18.4410  -34.3107 H   0  0  0  0  0  0  0  0  0  0  0  0
   -4.2357   22.5875  -31.3624 H   0  0  0  0  0  0  0  0  0  0  0  0
  1  2  1  0
  2  3  2  0
  2  4  2  0
  2  5  1  0
  5  6  2  0
  6  7  1  0
  7  8  2  0
  8  9  1  0
  9 10  1  0
 10 11  2  0
 11 12  1  0
 12 13  1  0
 13 14  2  0
 14 15  1  0
 15 16  2  0
 16 17  1  0
 16 18  1  0
 18 19  2  0
 12 20  2  0
 20 21  1  0
  9 22  2  0
 22  5  1  0
 21 10  1  0
 19 13  1  0
  1 23  1  0
  6 24  1  0
  7 25  1  0
  8 26  1  0
 14 27  1  0
 15 28  1  0
 17 29  1  0
 18 30  1  0
 19 31  1  0
 20 32  1  0
 22 33  1  0
M  CHG  1   1  -1
M  END
>  <UniqueID>  (20) 
18

>  <SMILES>  (20) 
[NH-]S(=O)(=O)c1cccc(-c2nc(-c3ccc(O)cc3)cs2)c1

>  <Energy>  (20) 
67.93649034139929

>  <Genealogy>  (20) 
[NH-]S(=O)(=O)c1cccc(-c2nc(-c3ccc(O)cc3)cs2)c1 (protonated)
[NH-]S(=O)(=O)c1cccc(-c2nc(-c3ccc(O)cc3)cs2)c1 (3D coordinates assigned)
[NH-]S(=O)(=O)c1cccc(-c2nc(-c3ccc(O)cc3)cs2)c1 (optimized conformer: 67.93649034139929 kcal/mol)

>  <smiles>  (20) 
NS(=O)(=O)c1cccc(-c2nc(-c3ccc(O)cc3)cs2)c1

>  <score_type>  (20) 
oracle

>  <origin>  (20) 
adgpu

>  <m_score__min__energy>  (20) 
-10.06

>  <m_primary>  (20) 
energy

$$$$
20:0
     RDKit          3D

 44 46  0  0  0  0  0  0  0  0999 V2000
   -6.4155   24.0535  -32.7492 H   0  0  0  0  0  0  0  0  0  0  0  0
   -5.7250   23.9290  -31.9020 C   0  0  0  0  0  0  0  0  0  0  0  0
   -5.3720   24.9930  -31.1390 N   0  0  0  0  0  0  0  0  0  0  0  0
   -4.5240   24.8690  -30.1170 N   0  0  0  0  0  0  0  0  0  0  0  0
   -4.3290   25.7170  -29.5430 H   0  0  0  0  0  0  0  0  0  0  0  0
   -3.9710   23.6550  -29.8190 C   0  0  0  0  0  0  0  0  0  0  0  0
   -3.1410   23.4940  -28.8270 N   0  0  0  0  0  0  0  0  0  0  0  0
   -2.5650   24.5160  -27.9990 C   0  0  0  0  0  0  0  0  0  0  0  0
   -3.0910   24.7370  -26.7210 C   0  0  0  0  0  0  0  0  0  0  0  0
   -3.9646   24.1654  -26.3743 H   0  0  0  0  0  0  0  0  0  0  0  0
   -2.4970   25.6900  -25.8890 C   0  0  0  0  0  0  0  0  0  0  0  0
   -2.9165   25.8847  -24.8910 H   0  0  0  0  0  0  0  0  0  0  0  0
   -1.4020   26.3770  -26.3100 N   0  0  0  0  0  0  0  0  0  0  0  0
   -0.8530   26.1590  -27.5350 C   0  0  0  0  0  0  0  0  0  0  0  0
    0.0358   26.7270  -27.8471 H   0  0  0  0  0  0  0  0  0  0  0  0
   -1.4150   25.2160  -28.3970 C   0  0  0  0  0  0  0  0  0  0  0  0
   -0.9606   25.0229  -29.3800 H   0  0  0  0  0  0  0  0  0  0  0  0
   -4.3260   22.5720  -30.5540 N   0  0  0  0  0  0  0  0  0  0  0  0
   -5.1960   22.6680  -31.5940 C   0  0  0  0  0  0  0  0  0  0  0  0
   -5.5420   21.4540  -32.3760 C   0  0  0  0  0  0  0  0  0  0  0  0
   -6.8670   20.9860  -32.4620 C   0  0  0  0  0  0  0  0  0  0  0  0
   -7.6722   21.5307  -31.9473 H   0  0  0  0  0  0  0  0  0  0  0  0
   -7.1680   19.8350  -33.1960 C   0  0  0  0  0  0  0  0  0  0  0  0
   -8.2093   19.4873  -33.2647 H   0  0  0  0  0  0  0  0  0  0  0  0
   -6.1480   19.1190  -33.8470 C   0  0  0  0  0  0  0  0  0  0  0  0
   -6.4060   17.9680  -34.6050 O   0  0  0  0  0  0  0  0  0  0  0  0
   -6.2410   16.6480  -34.1610 C   0  0  0  0  0  0  0  0  0  0  0  0
   -7.2150   15.8450  -34.1730 O   0  0  0  0  0  0  0  0  0  0  0  0
   -4.9700   16.2290  -33.6330 N   0  0  0  0  0  0  0  0  0  0  0  0
   -3.7780   16.3320  -34.4800 C   0  0  0  0  0  0  0  0  0  0  0  0
   -2.8828   16.4094  -33.8454 H   0  0  0  0  0  0  0  0  0  0  0  0
   -3.7010   15.4372  -35.1151 H   0  0  0  0  0  0  0  0  0  0  0  0
   -3.8557   17.2268  -35.1151 H   0  0  0  0  0  0  0  0  0  0  0  0
   -4.8620   15.6970  -32.2680 C   0  0  0  0  0  0  0  0  0  0  0  0
   -5.8067   15.8763  -31.7337 H   0  0  0  0  0  0  0  0  0  0  0  0
   -4.0330   16.2043  -31.7528 H   0  0  0  0  0  0  0  0  0  0  0  0
   -4.5800   14.1990  -32.3000 C   0  0  0  0  0  0  0  0  0  0  0  0
   -4.5082   13.8174  -31.2708 H   0  0  0  0  0  0  0  0  0  0  0  0
   -5.3968   13.6833  -32.8261 H   0  0  0  0  0  0  0  0  0  0  0  0
   -3.6316   14.0156  -32.8261 H   0  0  0  0  0  0  0  0  0  0  0  0
   -4.8340   19.5880  -33.7720 C   0  0  0  0  0  0  0  0  0  0  0  0
   -4.0322   19.0476  -34.2966 H   0  0  0  0  0  0  0  0  0  0  0  0
   -4.5280   20.7370  -33.0370 C   0  0  0  0  0  0  0  0  0  0  0  0
   -3.4858   21.0834  -32.9749 H   0  0  0  0  0  0  0  0  0  0  0  0
  1  2  1  0
  2  3  2  0
  3  4  1  0
  4  5  1  0
  4  6  1  0
  6  7  2  0
  7  8  1  0
  8  9  2  0
  9 10  1  0
  9 11  1  0
 11 12  1  0
 11 13  2  0
 13 14  1  0
 14 15  1  0
 14 16  2  0
 16 17  1  0
  6 18  1  0
 18 19  2  0
 19 20  1  0
 20 21  2  0
 21 22  1  0
 21 23  1  0
 23 24  1  0
 23 25  2  0
 25 26  1  0
 26 27  1  0
 27 28  2  0
 27 29  1  0
 29 30  1  0
 30 31  1  0
 30 32  1  0
 30 33  1  0
 29 34  1  0
 34 35  1  0
 34 36  1  0
 34 37  1  0
 37 38  1  0
 37 39  1  0
 37 40  1  0
 25 41  1  0
 41 42  1  0
 41 43  2  0
 43 44  1  0
 19  2  1  0
 43 20  1  0
 16  8  1  0
M  END
>  <UniqueID>  (21) 
19

>  <SMILES>  (21) 
CCN(C)C(=O)Oc1ccc(-c2cn[nH]/c(=N\c3ccncc3)n2)cc1

>  <Energy>  (21) 
60.25981201764565

>  <Genealogy>  (21) 
CCN(C)C(=O)Oc1ccc(-c2cn[nH]/c(=N\c3ccncc3)n2)cc1 (cis-trans isomerization)
CCN(C)C(=O)Oc1ccc(-c2cn[nH]/c(=N\c3ccncc3)n2)cc1 (3D coordinates assigned)
CCN(C)C(=O)Oc1ccc(-c2cn[nH]/c(=N\c3ccncc3)n2)cc1 (optimized conformer: 60.25981201764565 kcal/mol)

>  <smiles>  (21) 
CCN(C)C(=O)Oc1ccc(-c2cn[nH]c(=Nc3ccncc3)n2)cc1

>  <score_type>  (21) 
oracle

>  <origin>  (21) 
adgpu

>  <m_score__min__energy>  (21) 
-7.3600000000000003

>  <m_primary>  (21) 
energy

$$$$
21:0
     RDKit          3D

 38 39  0  0  0  0  0  0  0  0999 V2000
   -5.3780   18.5610  -34.5820 C   0  0  0  0  0  0  0  0  0  0  0  0
   -5.8290   17.2540  -33.9490 C   0  0  0  0  0  0  0  0  0  0  0  0
   -7.2350   17.2700  -33.8090 O   0  0  0  0  0  0  0  0  0  0  0  0
   -7.5920   17.5100  -32.4610 C   0  0  0  0  0  0  0  0  0  0  0  0
   -7.9580   18.9580  -32.2610 C   0  0  0  0  0  0  0  0  0  0  0  0
   -9.2700   19.3870  -32.5060 C   0  0  0  0  0  0  0  0  0  0  0  0
   -9.6100   20.7320  -32.3460 C   0  0  0  0  0  0  0  0  0  0  0  0
   -8.6450   21.6580  -31.9450 C   0  0  0  0  0  0  0  0  0  0  0  0
   -7.3230   21.2490  -31.6980 C   0  0  0  0  0  0  0  0  0  0  0  0
   -6.2950   22.2320  -31.2730 C   0  0  0  0  0  0  0  0  0  0  0  0
   -6.6680   23.4200  -30.6200 C   0  0  0  0  0  0  0  0  0  0  0  0
   -5.6990   24.3450  -30.2230 C   0  0  0  0  0  0  0  0  0  0  0  0
   -4.3430   24.1060  -30.4660 C   0  0  0  0  0  0  0  0  0  0  0  0
   -3.4160   25.0710  -30.0470 O   0  0  0  0  0  0  0  0  0  0  0  0
   -2.3790   24.9070  -28.6960 S   0  0  0  0  0  0  0  0  0  0  0  0
   -3.3250   24.9180  -27.2500 N   0  0  0  0  0  0  0  0  0  0  0  0
   -1.4050   26.0510  -28.6580 O   0  0  0  0  0  0  0  0  0  0  0  0
   -1.6270   23.6080  -28.7850 O   0  0  0  0  0  0  0  0  0  0  0  0
   -3.9630   22.9180  -31.1180 C   0  0  0  0  0  0  0  0  0  0  0  0
   -4.9310   21.9920  -31.5170 C   0  0  0  0  0  0  0  0  0  0  0  0
   -6.9880   19.8910  -31.8620 C   0  0  0  0  0  0  0  0  0  0  0  0
   -5.1284   19.2842  -33.7917 H   0  0  0  0  0  0  0  0  0  0  0  0
   -4.4906   18.3791  -35.2061 H   0  0  0  0  0  0  0  0  0  0  0  0
   -6.1887   18.9651  -35.2061 H   0  0  0  0  0  0  0  0  0  0  0  0
   -5.5322   16.4118  -34.5913 H   0  0  0  0  0  0  0  0  0  0  0  0
   -5.3591   17.1387  -32.9611 H   0  0  0  0  0  0  0  0  0  0  0  0
   -8.4536   16.8792  -32.1970 H   0  0  0  0  0  0  0  0  0  0  0  0
   -6.7333   17.2683  -31.8174 H   0  0  0  0  0  0  0  0  0  0  0  0
  -10.0336   18.6623  -32.8251 H   0  0  0  0  0  0  0  0  0  0  0  0
  -10.6416   21.0630  -32.5365 H   0  0  0  0  0  0  0  0  0  0  0  0
   -8.9213   22.7155  -31.8214 H   0  0  0  0  0  0  0  0  0  0  0  0
   -7.7305   23.6227  -30.4202 H   0  0  0  0  0  0  0  0  0  0  0  0
   -6.0060   25.2706  -29.7141 H   0  0  0  0  0  0  0  0  0  0  0  0
   -4.2580   25.3130  -27.5020 H   0  0  0  0  0  0  0  0  0  0  0  0
   -2.8780   25.6040  -26.6010 H   0  0  0  0  0  0  0  0  0  0  0  0
   -2.8994   22.7173  -31.3145 H   0  0  0  0  0  0  0  0  0  0  0  0
   -4.6230   21.0670  -32.0265 H   0  0  0  0  0  0  0  0  0  0  0  0
   -5.9563   19.5582  -31.6756 H   0  0  0  0  0  0  0  0  0  0  0  0
  1  2  1  0
  2  3  1  0
  3  4  1  0
  4  5  1  0
  5  6  2  0
  6  7  1  0
  7  8  2  0
  8  9  1  0
  9 10  1  0
 10 11  2  0
 11 12  1  0
 12 13  2  0
 13 14  1  0
 14 15  1  0
 15 16  1  0
 15 17  2  0
 15 18  2  0
 13 19  1  0
 19 20  2  0
  9 21  2  0
 21  5  1  0
 20 10  1  0
  1 22  1  0
  1 23  1  0
  1 24  1  0
  2 25  1  0
  2 26  1  0
  4 27  1  0
  4 28  1  0
  6 29  1  0
  7 30  1  0
  8 31  1  0
 11 32  1  0
 12 33  1  0
 16 34  1  0
 16 35  1  0
 19 36  1  0
 20 37  1  0
 21 38  1  0
M  END
>  <UniqueID>  (22) 
20

>  <SMILES>  (22) 
CCOCc1cccc(-c2ccc(OS(N)(=O)=O)cc2)c1

>  <Energy>  (22) 
38.69537069233802

>  <Genealogy>  (22) 
CCOCc1cccc(-c2ccc(OS(N)(=O)=O)cc2)c1 (3D coordinates assigned)
CCOCc1cccc(-c2ccc(OS(N)(=O)=O)cc2)c1 (optimized conformer: 38.69537069233802 kcal/mol)

>  <smiles>  (22) 
CCOCc1cccc(-c2ccc(OS(N)(=O)=O)cc2)c1

>  <score_type>  (22) 
oracle

>  <origin>  (22) 
adgpu

>  <m_score__min__energy>  (22) 
-8.4499999999999993

>  <m_primary>  (22) 
energy

$$$$
22:0
     RDKit          3D

 32 33  0  0  0  0  0  0  0  0999 V2000
   -8.5670   19.4690  -33.5070 H   0  0  0  0  0  0  0  0  0  0  0  0
   -8.8930   20.0850  -32.7700 O   0  0  0  0  0  0  0  0  0  0  0  0
   -8.1200   21.1490  -32.3060 C   0  0  0  0  0  0  0  0  0  0  0  0
   -8.7480   22.3530  -31.9610 C   0  0  0  0  0  0  0  0  0  0  0  0
   -9.8398   22.4454  -32.0579 H   0  0  0  0  0  0  0  0  0  0  0  0
   -8.0020   23.4350  -31.4960 C   0  0  0  0  0  0  0  0  0  0  0  0
   -8.5094   24.3738  -31.2292 H   0  0  0  0  0  0  0  0  0  0  0  0
   -6.6090   23.3350  -31.3660 C   0  0  0  0  0  0  0  0  0  0  0  0
   -5.8410   24.4550  -30.8860 N   0  0  0  0  0  0  0  0  0  0  0  0
   -6.3690   25.3340  -30.1750 O   0  0  0  0  0  0  0  0  0  0  0  0
   -4.5070   24.5750  -31.2040 O   0  0  0  0  0  0  0  0  0  0  0  0
   -5.9760   22.1280  -31.7120 C   0  0  0  0  0  0  0  0  0  0  0  0
   -4.8837   22.0425  -31.6144 H   0  0  0  0  0  0  0  0  0  0  0  0
   -6.7170   21.0280  -32.1810 C   0  0  0  0  0  0  0  0  0  0  0  0
   -5.9850   19.7850  -32.5260 C   0  0  0  0  0  0  0  0  0  0  0  0
   -4.9946   19.6033  -32.0831 H   0  0  0  0  0  0  0  0  0  0  0  0
   -6.4880   18.9060  -33.3400 N   0  0  0  0  0  0  0  0  0  0  0  0
   -5.8730   17.6740  -33.7580 C   0  0  0  0  0  0  0  0  0  0  0  0
   -6.4260   16.4080  -33.4750 C   0  0  0  0  0  0  0  0  0  0  0  0
   -7.3725   16.3344  -32.9194 H   0  0  0  0  0  0  0  0  0  0  0  0
   -5.7740   15.2460  -33.8990 C   0  0  0  0  0  0  0  0  0  0  0  0
   -6.2117   14.2612  -33.6786 H   0  0  0  0  0  0  0  0  0  0  0  0
   -4.5680   15.3300  -34.6020 C   0  0  0  0  0  0  0  0  0  0  0  0
   -3.7330   13.8360  -35.1400 S   0  0  0  0  0  0  0  0  0  0  0  0
   -2.7440   14.6980  -36.4010 C   0  0  0  0  0  0  0  0  0  0  0  0
   -2.0029   15.3439  -35.9074 H   0  0  0  0  0  0  0  0  0  0  0  0
   -2.2255   13.9585  -37.0289 H   0  0  0  0  0  0  0  0  0  0  0  0
   -3.4057   15.3127  -37.0289 H   0  0  0  0  0  0  0  0  0  0  0  0
   -4.0060   16.5820  -34.8700 C   0  0  0  0  0  0  0  0  0  0  0  0
   -3.0528   16.6514  -35.4147 H   0  0  0  0  0  0  0  0  0  0  0  0
   -4.6550   17.7460  -34.4460 C   0  0  0  0  0  0  0  0  0  0  0  0
   -4.2046   18.7276  -34.6548 H   0  0  0  0  0  0  0  0  0  0  0  0
  1  2  1  0
  2  3  1  0
  3  4  2  0
  4  5  1  0
  4  6  1  0
  6  7  1  0
  6  8  2  0
  8  9  1  0
  9 10  2  0
  9 11  1  0
  8 12  1  0
 12 13  1  0
 12 14  2  0
 14 15  1  0
 15 16  1  0
 15 17  2  0
 17 18  1  0
 18 19  2  0
 19 20  1  0
 19 21  1  0
 21 22  1  0
 21 23  2  0
 23 24  1  0
 24 25  1  0
 25 26  1  0
 25 27  1  0
 25 28  1  0
 23 29  1  0
 29 30  1  0
 29 31  2  0
 31 32  1  0
 14  3  1  0
 31 18  1  0
M  CHG  2   9   1  11  -1
M  END
>  <UniqueID>  (23) 
21

>  <SMILES>  (23) 
CSc1ccc(/N=C/c2cc([N+](=O)[O-])ccc2O)cc1

>  <Energy>  (23) 
33.79073691070324

>  <Genealogy>  (23) 
CSc1ccc(/N=C/c2cc([N+](=O)[O-])ccc2O)cc1 (cis-trans isomerization)
CSc1ccc(/N=C/c2cc([N+](=O)[O-])ccc2O)cc1 (3D coordinates assigned)
CSc1ccc(/N=C/c2cc([N+](=O)[O-])ccc2O)cc1 (optimized conformer: 33.79073691070324 kcal/mol)

>  <smiles>  (23) 
CSc1ccc(N=Cc2cc([N+](=O)[O-])ccc2O)cc1

>  <score_type>  (23) 
oracle

>  <origin>  (23) 
adgpu

>  <m_score__min__energy>  (23) 
-7.4900000000000002

>  <m_primary>  (23) 
energy

$$$$
23:0
     RDKit          3D

 50 52  0  0  1  0  0  0  0  0999 V2000
    3.5970   25.0890  -23.0630 C   0  0  0  0  0  0  0  0  0  0  0  0
    3.3820   24.0900  -24.0670 O   0  0  0  0  0  0  0  0  0  0  0  0
    2.4950   24.4000  -25.0910 C   0  0  0  0  0  0  0  0  0  0  0  0
    2.9120   24.6550  -26.3890 C   0  0  0  0  0  0  0  0  0  0  0  0
    2.0110   24.9630  -27.3940 C   0  0  0  0  0  0  0  0  0  0  0  0
    0.6580   25.0240  -27.1260 C   0  0  0  0  0  0  0  0  0  0  0  0
   -0.2610   25.3410  -28.1710 N   0  0  0  0  0  0  0  0  0  0  0  0
   -1.1830   24.4730  -28.4080 C   0  0  0  0  0  0  0  0  0  0  0  0
   -1.2920   23.3170  -27.7160 N   0  0  0  0  0  0  0  0  0  0  0  0
   -2.2780   22.4370  -28.0010 C   0  0  0  0  0  0  0  0  0  0  0  0
   -2.3590   21.1720  -27.2090 C   0  0  0  0  0  0  0  0  0  0  0  0
   -3.1810   22.7190  -29.0060 C   0  0  0  0  0  0  0  0  0  0  0  0
   -3.0650   23.9000  -29.7090 C   0  0  0  0  0  0  0  0  0  0  0  0
   -3.9120   24.1450  -30.6390 N   0  0  0  0  0  0  0  0  0  0  0  0
   -4.9790   23.2780  -31.0070 C   0  0  0  0  0  0  0  0  0  0  0  0
   -6.2090   23.4920  -30.4190 C   0  0  0  0  0  0  0  0  0  0  0  0
   -7.2910   22.6950  -30.7220 C   0  0  0  0  0  0  0  0  0  0  0  0
   -7.1670   21.6610  -31.6260 C   0  0  0  0  0  0  0  0  0  0  0  0
   -8.5660   20.6760  -31.9800 S   0  0  0  0  0  0  0  0  0  0  0  0
   -8.2330   19.7390  -33.3990 N   0  0  0  0  0  0  0  0  0  0  0  0
   -8.8590   19.7550  -30.8410 O   0  0  0  0  0  0  0  0  0  0  0  0
   -9.7440   21.5570  -32.2810 O   0  0  0  0  0  0  0  0  0  0  0  0
   -5.9310   21.4470  -32.2160 C   0  0  0  0  0  0  0  0  0  0  0  0
   -4.8360   22.2470  -31.9140 C   0  0  0  0  0  0  0  0  0  0  0  0
   -2.0650   24.7660  -29.4010 N   0  0  0  0  0  0  0  0  0  0  0  0
    0.2170   24.7700  -25.8320 C   0  0  0  0  0  0  0  0  0  0  0  0
   -1.1460   24.8360  -25.5800 O   0  0  0  0  0  0  0  0  0  0  0  0
   -1.7770   26.0650  -25.2160 C   0  0  0  0  0  0  0  0  0  0  0  0
    1.1370   24.4650  -24.8390 C   0  0  0  0  0  0  0  0  0  0  0  0
    3.4991   24.6341  -22.0663 H   0  0  0  0  0  0  0  0  0  0  0  0
    4.6065   25.5110  -23.1759 H   0  0  0  0  0  0  0  0  0  0  0  0
    2.8505   25.8889  -23.1759 H   0  0  0  0  0  0  0  0  0  0  0  0
    3.9853   24.6114  -26.6258 H   0  0  0  0  0  0  0  0  0  0  0  0
    2.3755   25.1604  -28.4129 H   0  0  0  0  0  0  0  0  0  0  0  0
   -0.6020   23.1150  -26.9570 H   0  0  0  0  0  0  0  0  0  0  0  0
   -2.3438   21.4101  -26.1352 H   0  0  0  0  0  0  0  0  0  0  0  0
   -3.2927   20.6449  -27.4545 H   0  0  0  0  0  0  0  0  0  0  0  0
   -1.5001   20.5301  -27.4545 H   0  0  0  0  0  0  0  0  0  0  0  0
   -3.9860   22.0082  -29.2442 H   0  0  0  0  0  0  0  0  0  0  0  0
   -6.3274   24.3127  -29.6963 H   0  0  0  0  0  0  0  0  0  0  0  0
   -8.2610   22.8848  -30.2393 H   0  0  0  0  0  0  0  0  0  0  0  0
   -9.0320   19.0630  -33.4970 H   0  0  0  0  0  0  0  0  0  0  0  0
   -8.3140   20.3810  -34.2120 H   0  0  0  0  0  0  0  0  0  0  0  0
   -5.8147   20.6261  -32.9389 H   0  0  0  0  0  0  0  0  0  0  0  0
   -3.8636   22.0606  -32.3933 H   0  0  0  0  0  0  0  0  0  0  0  0
   -1.9820   25.6710  -29.9440 H   0  0  0  0  0  0  0  0  0  0  0  0
   -1.8183   26.1454  -24.1197 H   0  0  0  0  0  0  0  0  0  0  0  0
   -1.2003   26.9082  -25.6240 H   0  0  0  0  0  0  0  0  0  0  0  0
   -2.7983   26.0877  -25.6240 H   0  0  0  0  0  0  0  0  0  0  0  0
    0.7745   24.2687  -23.8192 H   0  0  0  0  0  0  0  0  0  0  0  0
  1  2  1  0
  2  3  1  0
  3  4  2  0
  4  5  1  0
  5  6  2  0
  6  7  1  0
  7  8  2  0
  8  9  1  0
  9 10  1  0
 10 11  1  0
 10 12  2  0
 12 13  1  0
 13 14  2  0
 14 15  1  0
 15 16  2  0
 16 17  1  0
 17 18  2  0
 18 19  1  0
 19 20  1  0
 19 21  2  0
 19 22  2  0
 18 23  1  0
 23 24  2  0
 13 25  1  0
  6 26  1  0
 26 27  1  0
 27 28  1  0
 26 29  2  0
 29  3  1  0
 25  8  1  0
 24 15  1  0
  1 30  1  0
  1 31  1  0
  1 32  1  0
  4 33  1  0
  5 34  1  0
  9 35  1  0
 11 36  1  0
 11 37  1  0
 11 38  1  0
 12 39  1  0
 16 40  1  0
 17 41  1  0
 20 42  1  0
 20 43  1  0
 23 44  1  0
 24 45  1  0
 25 46  1  0
 28 47  1  0
 28 48  1  0
 28 49  1  0
 29 50  1  0
M  END
>  <smiles>  (24) 
COc1ccc(N=c2[nH]c(C)cc(=Nc3ccc(S(N)(=O)=O)cc3)[nH]2)c(OC)c1

>  <score_type>  (24) 
oracle

>  <origin>  (24) 
adgpu

>  <m_score__min__energy>  (24) 
-9.1500000000000004

>  <m_primary>  (24) 
energy

$$$$
24:0
     RDKit          3D

 37 38  0  0  0  0  0  0  0  0999 V2000
   -3.8351   20.8511  -33.0918 H   0  0  0  0  0  0  0  0  0  0  0  0
   -4.6610   21.4070  -32.6240 C   0  0  0  0  0  0  0  0  0  0  0  0
   -4.4230   22.6610  -32.0630 C   0  0  0  0  0  0  0  0  0  0  0  0
   -3.4115   23.0921  -32.0952 H   0  0  0  0  0  0  0  0  0  0  0  0
   -5.4670   23.3750  -31.4580 C   0  0  0  0  0  0  0  0  0  0  0  0
   -5.2060   24.7080  -30.8590 C   0  0  0  0  0  0  0  0  0  0  0  0
   -6.1760   25.4760  -30.6160 O   0  0  0  0  0  0  0  0  0  0  0  0
   -3.8870   25.1290  -30.4800 N   0  0  0  0  0  0  0  0  0  0  0  0
   -3.1270   24.5510  -29.5970 C   0  0  0  0  0  0  0  0  0  0  0  0
   -1.9150   25.0390  -29.2650 N   0  0  0  0  0  0  0  0  0  0  0  0
   -1.2840   24.2610  -28.3440 C   0  0  0  0  0  0  0  0  0  0  0  0
    0.0740   24.6290  -27.8320 C   0  0  0  0  0  0  0  0  0  0  0  0
    0.0643   24.6264  -26.7320 H   0  0  0  0  0  0  0  0  0  0  0  0
    0.8126   23.8986  -28.1939 H   0  0  0  0  0  0  0  0  0  0  0  0
    0.3428   25.6324  -28.1939 H   0  0  0  0  0  0  0  0  0  0  0  0
   -2.0020   23.1230  -27.9410 C   0  0  0  0  0  0  0  0  0  0  0  0
   -1.5920   22.0910  -26.9630 C   0  0  0  0  0  0  0  0  0  0  0  0
   -0.8830   22.4000  -25.9690 O   0  0  0  0  0  0  0  0  0  0  0  0
   -2.0120   20.6650  -27.1390 C   0  0  0  0  0  0  0  0  0  0  0  0
   -2.1493   20.1987  -26.1522 H   0  0  0  0  0  0  0  0  0  0  0  0
   -2.9592   20.6279  -27.6971 H   0  0  0  0  0  0  0  0  0  0  0  0
   -1.2361   20.1204  -27.6971 H   0  0  0  0  0  0  0  0  0  0  0  0
   -3.4640   23.1150  -28.7800 S   0  0  0  0  0  0  0  0  0  0  0  0
   -6.7610   22.8240  -31.4490 C   0  0  0  0  0  0  0  0  0  0  0  0
   -7.5882   23.3937  -31.0005 H   0  0  0  0  0  0  0  0  0  0  0  0
   -7.0160   21.5520  -32.0060 C   0  0  0  0  0  0  0  0  0  0  0  0
   -8.3490   20.9760  -31.9720 N   0  0  0  0  0  0  0  0  0  0  0  0
   -8.5690   19.5740  -32.3490 C   0  0  0  0  0  0  0  0  0  0  0  0
   -8.6652   18.9609  -31.4408 H   0  0  0  0  0  0  0  0  0  0  0  0
   -9.4906   19.4947  -32.9443 H   0  0  0  0  0  0  0  0  0  0  0  0
   -7.7160   19.2162  -32.9443 H   0  0  0  0  0  0  0  0  0  0  0  0
   -9.5030   21.7900  -31.5690 C   0  0  0  0  0  0  0  0  0  0  0  0
   -9.5586   21.8292  -30.4711 H   0  0  0  0  0  0  0  0  0  0  0  0
   -9.3897   22.8092  -31.9670 H   0  0  0  0  0  0  0  0  0  0  0  0
  -10.4251   21.3413  -31.9670 H   0  0  0  0  0  0  0  0  0  0  0  0
   -5.9410   20.8540  -32.5950 C   0  0  0  0  0  0  0  0  0  0  0  0
   -6.1143   19.8616  -33.0367 H   0  0  0  0  0  0  0  0  0  0  0  0
  1  2  1  0
  2  3  2  0
  3  4  1  0
  3  5  1  0
  5  6  1  0
  6  7  2  0
  6  8  1  0
  8  9  2  0
  9 10  1  0
 10 11  1  0
 11 12  1  0
 12 13  1  0
 12 14  1  0
 12 15  1  0
 11 16  2  0
 16 17  1  0
 17 18  2  0
 17 19  1  0
 19 20  1  0
 19 21  1  0
 19 22  1  0
 16 23  1  0
  5 24  2  0
 24 25  1  0
 24 26  1  0
 26 27  1  0
 27 28  1  0
 28 29  1  0
 28 30  1  0
 28 31  1  0
 27 32  1  0
 32 33  1  0
 32 34  1  0
 32 35  1  0
 26 36  2  0
 36 37  1  0
 36  2  1  0
 23  9  1  0
M  CHG  1  10  -1
M  END
>  <UniqueID>  (25) 
22

>  <SMILES>  (25) 
CC(=O)c1s/c(=N\C(=O)c2cccc(N(C)C)c2)[n-]c1C

>  <Energy>  (25) 
74.87663327621163

>  <Genealogy>  (25) 
CC(=O)c1sc(=NC(=O)c2cccc(N(C)C)c2)[n-]c1C (protonated)
CC(=O)c1s/c(=N\C(=O)c2cccc(N(C)C)c2)[n-]c1C (cis-trans isomerization)
CC(=O)c1s/c(=N\C(=O)c2cccc(N(C)C)c2)[n-]c1C (3D coordinates assigned)
CC(=O)c1s/c(=N\C(=O)c2cccc(N(C)C)c2)[n-]c1C (optimized conformer: 74.87663327621163 kcal/mol)

>  <smiles>  (25) 
CC(=O)c1sc(=NC(=O)c2cccc(N(C)C)c2)[nH]c1C

>  <score_type>  (25) 
oracle

>  <origin>  (25) 
adgpu

>  <m_score__min__energy>  (25) 
-9.25

>  <m_primary>  (25) 
energy

$$$$
25:0
     RDKit          3D

 50 53  0  0  0  0  0  0  0  0999 V2000
   -9.8640   21.5790  -31.6970 C   0  0  0  0  0  0  0  0  0  0  0  0
   -9.5590   20.4000  -32.4330 O   0  0  0  0  0  0  0  0  0  0  0  0
   -8.2500   19.9630  -32.6550 C   0  0  0  0  0  0  0  0  0  0  0  0
   -7.2270   20.9030  -32.7800 C   0  0  0  0  0  0  0  0  0  0  0  0
   -5.9220   20.4710  -33.0160 C   0  0  0  0  0  0  0  0  0  0  0  0
   -5.6410   19.1030  -33.1310 C   0  0  0  0  0  0  0  0  0  0  0  0
   -4.2570   18.6720  -33.4170 C   0  0  0  0  0  0  0  0  0  0  0  0
   -3.9850   17.8740  -34.5390 C   0  0  0  0  0  0  0  0  0  0  0  0
   -4.9810   17.5170  -35.3890 F   0  0  0  0  0  0  0  0  0  0  0  0
   -2.6780   17.4540  -34.7990 C   0  0  0  0  0  0  0  0  0  0  0  0
   -1.6410   17.8110  -33.9360 C   0  0  0  0  0  0  0  0  0  0  0  0
   -1.9050   18.5830  -32.7920 C   0  0  0  0  0  0  0  0  0  0  0  0
   -0.8850   18.9580  -31.9040 O   0  0  0  0  0  0  0  0  0  0  0  0
   -0.8870   20.1150  -31.1050 C   0  0  0  0  0  0  0  0  0  0  0  0
   -1.2650   21.3670  -31.6270 C   0  0  0  0  0  0  0  0  0  0  0  0
   -1.2460   22.5050  -30.8180 C   0  0  0  0  0  0  0  0  0  0  0  0
   -0.8420   22.4140  -29.4830 C   0  0  0  0  0  0  0  0  0  0  0  0
   -0.8060   23.8570  -28.4760 S   0  0  0  0  0  0  0  0  0  0  0  0
   -1.0900   23.4650  -27.0540 O   0  0  0  0  0  0  0  0  0  0  0  0
    0.5470   24.5080  -28.5470 O   0  0  0  0  0  0  0  0  0  0  0  0
   -2.0040   24.9960  -28.9960 N   0  0  0  0  0  0  0  0  0  0  0  0
   -3.3010   24.6330  -29.4760 C   0  0  0  0  0  0  0  0  0  0  0  0
   -4.0800   23.6180  -28.9240 C   0  0  0  0  0  0  0  0  0  0  0  0
   -5.5070   23.5450  -29.8060 S   0  0  0  0  0  0  0  0  0  0  0  0
   -5.0820   24.7980  -30.8400 C   0  0  0  0  0  0  0  0  0  0  0  0
   -3.8610   25.2840  -30.5300 N   0  0  0  0  0  0  0  0  0  0  0  0
   -0.4420   21.1760  -28.9630 C   0  0  0  0  0  0  0  0  0  0  0  0
   -0.4580   20.0310  -29.7700 C   0  0  0  0  0  0  0  0  0  0  0  0
   -0.0490   18.7650  -29.2140 C   0  0  0  0  0  0  0  0  0  0  0  0
    0.2760   17.7500  -28.7650 N   0  0  0  0  0  0  0  0  0  0  0  0
   -3.2110   19.0260  -32.5470 C   0  0  0  0  0  0  0  0  0  0  0  0
   -3.4630   19.7630  -31.4370 F   0  0  0  0  0  0  0  0  0  0  0  0
   -6.6970   18.1790  -32.9730 C   0  0  0  0  0  0  0  0  0  0  0  0
   -6.4720   16.6970  -33.0550 C   0  0  0  0  0  0  0  0  0  0  0  0
   -7.9620   18.6360  -32.7520 N   0  0  0  0  0  0  0  0  0  0  0  0
   -9.8082   21.3635  -30.6198 H   0  0  0  0  0  0  0  0  0  0  0  0
   -9.1402   22.3674  -31.9511 H   0  0  0  0  0  0  0  0  0  0  0  0
  -10.8793   21.9175  -31.9511 H   0  0  0  0  0  0  0  0  0  0  0  0
   -7.4479   21.9771  -32.6931 H   0  0  0  0  0  0  0  0  0  0  0  0
   -5.1102   21.2070  -33.1122 H   0  0  0  0  0  0  0  0  0  0  0  0
   -2.4657   16.8400  -35.6867 H   0  0  0  0  0  0  0  0  0  0  0  0
   -0.6124   17.4866  -34.1523 H   0  0  0  0  0  0  0  0  0  0  0  0
   -1.5772   21.4491  -32.6786 H   0  0  0  0  0  0  0  0  0  0  0  0
   -1.5503   23.4772  -31.2331 H   0  0  0  0  0  0  0  0  0  0  0  0
   -3.8099   22.9819  -28.0682 H   0  0  0  0  0  0  0  0  0  0  0  0
   -5.7132   25.1724  -31.6594 H   0  0  0  0  0  0  0  0  0  0  0  0
   -0.1137   21.1027  -27.9157 H   0  0  0  0  0  0  0  0  0  0  0  0
   -6.4085   16.2790  -32.0395 H   0  0  0  0  0  0  0  0  0  0  0  0
   -7.3093   16.2282  -33.5928 H   0  0  0  0  0  0  0  0  0  0  0  0
   -5.5333   16.4978  -33.5928 H   0  0  0  0  0  0  0  0  0  0  0  0
  1  2  1  0
  2  3  1  0
  3  4  2  0
  4  5  1  0
  5  6  2  0
  6  7  1  0
  7  8  2  0
  8  9  1  0
  8 10  1  0
 10 11  2  0
 11 12  1  0
 12 13  1  0
 13 14  1  0
 14 15  2  0
 15 16  1  0
 16 17  2  0
 17 18  1  0
 18 19  2  0
 18 20  2  0
 18 21  1  0
 21 22  1  0
 22 23  2  0
 23 24  1  0
 24 25  1  0
 25 26  2  0
 17 27  1  0
 27 28  2  0
 28 29  1  0
 29 30  3  0
 12 31  2  0
 31 32  1  0
  6 33  1  0
 33 34  1  0
 33 35  2  0
 35  3  1  0
 31  7  1  0
 28 14  1  0
 26 22  1  0
  1 36  1  0
  1 37  1  0
  1 38  1  0
  4 39  1  0
  5 40  1  0
 10 41  1  0
 11 42  1  0
 15 43  1  0
 16 44  1  0
 23 45  1  0
 25 46  1  0
 27 47  1  0
 34 48  1  0
 34 49  1  0
 34 50  1  0
M  CHG  1  21  -1
M  END
>  <UniqueID>  (26) 
23

>  <SMILES>  (26) 
COc1ccc(-c2c(F)ccc(Oc3ccc(S(=O)(=O)[N-]c4cscn4)cc3C#N)c2F)c(C)n1

>  <Energy>  (26) 
98.50238276012972

>  <Genealogy>  (26) 
COc1ccc(-c2c(F)ccc(Oc3ccc(S(=O)(=O)[N-]c4cscn4)cc3C#N)c2F)c(C)n1 (protonated)
COc1ccc(-c2c(F)ccc(Oc3ccc(S(=O)(=O)[N-]c4cscn4)cc3C#N)c2F)c(C)n1 (3D coordinates assigned)
COc1ccc(-c2c(F)ccc(Oc3ccc(S(=O)(=O)[N-]c4cscn4)cc3C#N)c2F)c(C)n1 (optimized conformer: 98.50238276012972 kcal/mol)

>  <smiles>  (26) 
COc1ccc(-c2c(F)ccc(Oc3ccc(S(=O)(=O)Nc4cscn4)cc3C#N)c2F)c(C)n1

>  <score_type>  (26) 
oracle

>  <origin>  (26) 
adgpu

>  <m_score__min__energy>  (26) 
-10.869999999999999

>  <m_primary>  (26) 
energy

$$$$
26:0
     RDKit          3D

 37 39  0  0  0  0  0  0  0  0999 V2000
   -5.6600   14.3800  -33.8740 C   0  0  0  0  0  0  0  0  0  0  0  0
   -6.8580   15.2540  -34.2240 C   0  0  0  0  0  0  0  0  0  0  0  0
   -6.6220   16.6790  -33.7980 C   0  0  0  0  0  0  0  0  0  0  0  0
   -5.8350   17.5320  -34.5860 C   0  0  0  0  0  0  0  0  0  0  0  0
   -5.6420   18.8640  -34.2080 C   0  0  0  0  0  0  0  0  0  0  0  0
   -6.2400   19.3700  -33.0400 C   0  0  0  0  0  0  0  0  0  0  0  0
   -6.0360   20.7850  -32.6380 C   0  0  0  0  0  0  0  0  0  0  0  0
   -4.7400   21.2920  -32.4440 C   0  0  0  0  0  0  0  0  0  0  0  0
   -4.5460   22.6240  -32.0650 C   0  0  0  0  0  0  0  0  0  0  0  0
   -5.6510   23.4750  -31.8700 C   0  0  0  0  0  0  0  0  0  0  0  0
   -5.5140   24.8190  -31.4860 O   0  0  0  0  0  0  0  0  0  0  0  0
   -5.3900   25.2840  -30.1430 C   0  0  0  0  0  0  0  0  0  0  0  0
   -4.2220   24.6390  -29.4690 C   0  0  0  0  0  0  0  0  0  0  0  0
   -4.3240   23.6620  -28.5490 N   0  0  0  0  0  0  0  0  0  0  0  0
   -3.0830   23.3490  -28.2070 N   0  0  0  0  0  0  0  0  0  0  0  0
   -2.2730   24.1430  -28.9330 C   0  0  0  0  0  0  0  0  0  0  0  0
   -2.9690   24.9350  -29.7120 O   0  0  0  0  0  0  0  0  0  0  0  0
   -6.9400   22.9710  -32.0660 C   0  0  0  0  0  0  0  0  0  0  0  0
   -7.1350   21.6400  -32.4470 C   0  0  0  0  0  0  0  0  0  0  0  0
   -7.0400   18.5130  -32.2620 C   0  0  0  0  0  0  0  0  0  0  0  0
   -7.2330   17.1820  -32.6410 C   0  0  0  0  0  0  0  0  0  0  0  0
   -5.5642   14.3101  -32.7804 H   0  0  0  0  0  0  0  0  0  0  0  0
   -5.8048   13.3739  -34.2945 H   0  0  0  0  0  0  0  0  0  0  0  0
   -4.7461   14.8250  -34.2945 H   0  0  0  0  0  0  0  0  0  0  0  0
   -7.0205   15.2248  -35.3115 H   0  0  0  0  0  0  0  0  0  0  0  0
   -7.7422   14.8692  -33.6947 H   0  0  0  0  0  0  0  0  0  0  0  0
   -5.3674   17.1509  -35.5059 H   0  0  0  0  0  0  0  0  0  0  0  0
   -5.0170   19.5220  -34.8295 H   0  0  0  0  0  0  0  0  0  0  0  0
   -3.8701   20.6351  -32.5916 H   0  0  0  0  0  0  0  0  0  0  0  0
   -3.5259   23.0087  -31.9186 H   0  0  0  0  0  0  0  0  0  0  0  0
   -5.2466   26.3746  -30.1498 H   0  0  0  0  0  0  0  0  0  0  0  0
   -6.3057   25.0242  -29.5916 H   0  0  0  0  0  0  0  0  0  0  0  0
   -1.1744   24.1289  -28.8795 H   0  0  0  0  0  0  0  0  0  0  0  0
   -7.8097   23.6282  -31.9190 H   0  0  0  0  0  0  0  0  0  0  0  0
   -8.1559   21.2593  -32.5983 H   0  0  0  0  0  0  0  0  0  0  0  0
   -7.5177   18.8942  -31.3474 H   0  0  0  0  0  0  0  0  0  0  0  0
   -7.8679   16.5253  -32.0281 H   0  0  0  0  0  0  0  0  0  0  0  0
  1  2  1  0
  2  3  1  0
  3  4  2  0
  4  5  1  0
  5  6  2  0
  6  7  1  0
  7  8  2  0
  8  9  1  0
  9 10  2  0
 10 11  1  0
 11 12  1  0
 12 13  1  0
 13 14  2  0
 14 15  1  0
 15 16  2  0
 16 17  1  0
 10 18  1  0
 18 19  2  0
  6 20  1  0
 20 21  2  0
 21  3  1  0
 19  7  1  0
 17 13  1  0
  1 22  1  0
  1 23  1  0
  1 24  1  0
  2 25  1  0
  2 26  1  0
  4 27  1  0
  5 28  1  0
  8 29  1  0
  9 30  1  0
 12 31  1  0
 12 32  1  0
 16 33  1  0
 18 34  1  0
 19 35  1  0
 20 36  1  0
 21 37  1  0
M  END
>  <UniqueID>  (27) 
24

>  <SMILES>  (27) 
CCc1ccc(-c2ccc(OCc3nnco3)cc2)cc1

>  <Energy>  (27) 
74.71708032535311

>  <Genealogy>  (27) 
CCc1ccc(-c2ccc(OCc3nnco3)cc2)cc1 (3D coordinates assigned)
CCc1ccc(-c2ccc(OCc3nnco3)cc2)cc1 (optimized conformer: 74.71708032535311 kcal/mol)

>  <smiles>  (27) 
CCc1ccc(-c2ccc(OCc3nnco3)cc2)cc1

>  <score_type>  (27) 
oracle

>  <origin>  (27) 
adgpu

>  <m_score__min__energy>  (27) 
-7.6399999999999997

>  <m_primary>  (27) 
energy

$$$$
27:0
     RDKit          3D

 49 52  0  0  0  0  0  0  0  0999 V2000
   -1.4858   25.6284  -28.3842 H   0  0  0  0  0  0  0  0  0  0  0  0
   -2.1670   24.8050  -28.6450 C   0  0  0  0  0  0  0  0  0  0  0  0
   -2.9960   24.9260  -29.7150 N   0  0  0  0  0  0  0  0  0  0  0  0
   -3.8480   23.9350  -30.0940 C   0  0  0  0  0  0  0  0  0  0  0  0
   -4.6050   24.1340  -31.1360 N   0  0  0  0  0  0  0  0  0  0  0  0
   -5.6330   23.2710  -31.6480 C   0  0  0  0  0  0  0  0  0  0  0  0
   -5.3650   21.9300  -31.9660 C   0  0  0  0  0  0  0  0  0  0  0  0
   -4.3418   21.5397  -31.8629 H   0  0  0  0  0  0  0  0  0  0  0  0
   -6.3900   21.0830  -32.4140 C   0  0  0  0  0  0  0  0  0  0  0  0
   -6.1030   19.7150  -32.7660 N   0  0  0  0  0  0  0  0  0  0  0  0
   -4.7590   19.3040  -33.1840 C   0  0  0  0  0  0  0  0  0  0  0  0
   -4.1262   20.1967  -33.2961 H   0  0  0  0  0  0  0  0  0  0  0  0
   -4.3385   18.6340  -32.4196 H   0  0  0  0  0  0  0  0  0  0  0  0
   -4.8170   18.5510  -34.5290 C   0  0  0  0  0  0  0  0  0  0  0  0
   -4.6572   19.2768  -35.3400 H   0  0  0  0  0  0  0  0  0  0  0  0
   -4.0360   17.7770  -34.4967 H   0  0  0  0  0  0  0  0  0  0  0  0
   -6.1000   17.8580  -34.7700 N   0  0  0  0  0  0  0  0  0  0  0  0
   -6.7360   18.5000  -35.3000 H   0  0  0  0  0  0  0  0  0  0  0  0
   -6.7720   17.4620  -33.5250 C   0  0  0  0  0  0  0  0  0  0  0  0
   -7.6779   16.8879  -33.7692 H   0  0  0  0  0  0  0  0  0  0  0  0
   -6.0828   16.8463  -32.9285 H   0  0  0  0  0  0  0  0  0  0  0  0
   -7.1640   18.7020  -32.7090 C   0  0  0  0  0  0  0  0  0  0  0  0
   -8.0917   19.1267  -33.1200 H   0  0  0  0  0  0  0  0  0  0  0  0
   -7.3135   18.4039  -31.6608 H   0  0  0  0  0  0  0  0  0  0  0  0
   -7.6950   21.5890  -32.5340 C   0  0  0  0  0  0  0  0  0  0  0  0
   -8.5027   20.9354  -32.8951 H   0  0  0  0  0  0  0  0  0  0  0  0
   -7.9760   22.9210  -32.1970 C   0  0  0  0  0  0  0  0  0  0  0  0
   -9.3840   23.4350  -32.2670 C   0  0  0  0  0  0  0  0  0  0  0  0
   -9.7735   23.5772  -31.2481 H   0  0  0  0  0  0  0  0  0  0  0  0
   -9.3973   24.3960  -32.8021 H   0  0  0  0  0  0  0  0  0  0  0  0
  -10.0133   22.7086  -32.8021 H   0  0  0  0  0  0  0  0  0  0  0  0
   -6.9460   23.7480  -31.7280 C   0  0  0  0  0  0  0  0  0  0  0  0
   -7.1716   24.7798  -31.4205 H   0  0  0  0  0  0  0  0  0  0  0  0
   -3.8430   22.7200  -29.3770 C   0  0  0  0  0  0  0  0  0  0  0  0
   -4.4987   21.8920  -29.6845 H   0  0  0  0  0  0  0  0  0  0  0  0
   -2.9990   22.5770  -28.2740 C   0  0  0  0  0  0  0  0  0  0  0  0
   -2.9796   21.6287  -27.7169 H   0  0  0  0  0  0  0  0  0  0  0  0
   -2.1760   23.6400  -27.8750 C   0  0  0  0  0  0  0  0  0  0  0  0
   -1.2540   23.5060  -26.7830 N   0  0  0  0  0  0  0  0  0  0  0  0
   -0.0040   23.8840  -26.7430 C   0  0  0  0  0  0  0  0  0  0  0  0
    0.6750   24.3790  -27.8770 C   0  0  0  0  0  0  0  0  0  0  0  0
    0.1506   24.4681  -28.8399 H   0  0  0  0  0  0  0  0  0  0  0  0
    2.0150   24.7550  -27.7710 C   0  0  0  0  0  0  0  0  0  0  0  0
    2.5446   25.1506  -28.6502 H   0  0  0  0  0  0  0  0  0  0  0  0
    2.6670   24.6340  -26.5860 N   0  0  0  0  0  0  0  0  0  0  0  0
    2.0490   24.1450  -25.4790 C   0  0  0  0  0  0  0  0  0  0  0  0
    2.6056   24.0563  -24.5344 H   0  0  0  0  0  0  0  0  0  0  0  0
    0.7070   23.7540  -25.5370 C   0  0  0  0  0  0  0  0  0  0  0  0
   -0.0620   23.1220  -24.0850 Cl  0  0  0  0  0  0  0  0  0  0  0  0
  1  2  1  0
  2  3  1  0
  3  4  1  0
  4  5  2  0
  5  6  1  0
  6  7  2  0
  7  8  1  0
  7  9  1  0
  9 10  1  0
 10 11  1  0
 11 12  1  0
 11 13  1  0
 11 14  1  0
 14 15  1  0
 14 16  1  0
 14 17  1  0
 17 18  1  0
 17 19  1  0
 19 20  1  0
 19 21  1  0
 19 22  1  0
 22 23  1  0
 22 24  1  0
  9 25  2  0
 25 26  1  0
 25 27  1  0
 27 28  1  0
 28 29  1  0
 28 30  1  0
 28 31  1  0
 27 32  2  0
 32 33  1  0
  4 34  1  0
 34 35  1  0
 34 36  2  0
 36 37  1  0
 36 38  1  0
 38 39  1  0
 39 40  2  0
 40 41  1  0
 41 42  1  0
 41 43  2  0
 43 44  1  0
 43 45  1  0
 45 46  1  0
 46 47  1  0
 46 48  2  0
 48 49  1  0
 38  2  2  0
 48 40  1  0
 32  6  1  0
 22 10  1  0
M  CHG  2   3  -1  45  -1
M  END
>  <UniqueID>  (28) 
25

>  <SMILES>  (28) 
Cc1cc(/N=c2\ccc(/N=c3\cc[n-]cc3Cl)c[n-]2)cc(N2CCNCC2)c1

>  <Energy>  (28) 
81.1023811703678

>  <Genealogy>  (28) 
Cc1cc(N=c2ccc(N=c3cc[n-]cc3Cl)c[n-]2)cc(N2CCNCC2)c1 (protonated)
Cc1cc(/N=c2\ccc(/N=c3\cc[n-]cc3Cl)c[n-]2)cc(N2CCNCC2)c1 (cis-trans isomerization)
Cc1cc(/N=c2\ccc(/N=c3\cc[n-]cc3Cl)c[n-]2)cc(N2CCNCC2)c1 (3D coordinates assigned)
Cc1cc(/N=c2\ccc(/N=c3\cc[n-]cc3Cl)c[n-]2)cc(N2CCNCC2)c1 (nonaromatic ring conformer: 81.1023811703678 kcal/mol)

>  <smiles>  (28) 
Cc1cc(N=c2ccc(N=c3cc[nH]cc3Cl)c[nH]2)cc(N2CCNCC2)c1

>  <score_type>  (28) 
oracle

>  <origin>  (28) 
adgpu

>  <m_score__min__energy>  (28) 
-10.609999999999999

>  <m_primary>  (28) 
energy

$$$$
28:0
     RDKit          3D

 28 29  0  0  0  0  0  0  0  0999 V2000
   -3.0580   24.0940  -27.5810 C   0  0  0  0  0  0  0  0  0  0  0  0
   -2.1350   23.9140  -29.1390 S   0  0  0  0  0  0  0  0  0  0  0  0
   -3.6180   23.9210  -30.1550 C   0  0  0  0  0  0  0  0  0  0  0  0
   -4.1880   25.1130  -30.4720 N   0  0  0  0  0  0  0  0  0  0  0  0
   -5.2900   25.1880  -31.2190 N   0  0  0  0  0  0  0  0  0  0  0  0
   -5.8950   24.0740  -31.7020 C   0  0  0  0  0  0  0  0  0  0  0  0
   -5.3560   22.8150  -31.4250 C   0  0  0  0  0  0  0  0  0  0  0  0
   -6.0230   21.6080  -31.9620 C   0  0  0  0  0  0  0  0  0  0  0  0
   -5.3530   20.8400  -32.9260 C   0  0  0  0  0  0  0  0  0  0  0  0
   -5.9580   19.7060  -33.4710 C   0  0  0  0  0  0  0  0  0  0  0  0
   -7.2360   19.3280  -33.0580 C   0  0  0  0  0  0  0  0  0  0  0  0
   -7.9110   20.0780  -32.0920 C   0  0  0  0  0  0  0  0  0  0  0  0
   -7.3110   21.2150  -31.5240 C   0  0  0  0  0  0  0  0  0  0  0  0
   -8.0610   22.0060  -30.4850 C   0  0  0  0  0  0  0  0  0  0  0  0
   -4.1970   22.7320  -30.6300 C   0  0  0  0  0  0  0  0  0  0  0  0
   -3.6250   21.4490  -30.2900 C   0  0  0  0  0  0  0  0  0  0  0  0
   -3.1660   20.4210  -30.0180 N   0  0  0  0  0  0  0  0  0  0  0  0
   -2.3725   23.9603  -26.7312 H   0  0  0  0  0  0  0  0  0  0  0  0
   -3.5078   25.0968  -27.5350 H   0  0  0  0  0  0  0  0  0  0  0  0
   -3.8516   23.3337  -27.5350 H   0  0  0  0  0  0  0  0  0  0  0  0
   -6.8074   24.1616  -32.3101 H   0  0  0  0  0  0  0  0  0  0  0  0
   -4.3449   21.1331  -33.2544 H   0  0  0  0  0  0  0  0  0  0  0  0
   -5.4264   19.1096  -34.2271 H   0  0  0  0  0  0  0  0  0  0  0  0
   -7.7129   18.4377  -33.4939 H   0  0  0  0  0  0  0  0  0  0  0  0
   -8.9198   19.7764  -31.7734 H   0  0  0  0  0  0  0  0  0  0  0  0
   -7.7513   21.6794  -29.4813 H   0  0  0  0  0  0  0  0  0  0  0  0
   -7.8380   23.0762  -30.6074 H   0  0  0  0  0  0  0  0  0  0  0  0
   -9.1415   21.8403  -30.6074 H   0  0  0  0  0  0  0  0  0  0  0  0
  1  2  1  0
  2  3  1  0
  3  4  2  0
  4  5  1  0
  5  6  2  0
  6  7  1  0
  7  8  1  0
  8  9  2  0
  9 10  1  0
 10 11  2  0
 11 12  1  0
 12 13  2  0
 13 14  1  0
  7 15  2  0
 15 16  1  0
 16 17  3  0
 15  3  1  0
 13  8  1  0
  1 18  1  0
  1 19  1  0
  1 20  1  0
  6 21  1  0
  9 22  1  0
 10 23  1  0
 11 24  1  0
 12 25  1  0
 14 26  1  0
 14 27  1  0
 14 28  1  0
M  END
>  <UniqueID>  (29) 
26

>  <SMILES>  (29) 
CSc1nncc(-c2ccccc2C)c1C#N

>  <Energy>  (29) 
34.6229603888022

>  <Genealogy>  (29) 
CSc1nncc(-c2ccccc2C)c1C#N (3D coordinates assigned)
CSc1nncc(-c2ccccc2C)c1C#N (optimized conformer: 34.6229603888022 kcal/mol)

>  <smiles>  (29) 
CSc1nncc(-c2ccccc2C)c1C#N

>  <score_type>  (29) 
oracle

>  <origin>  (29) 
adgpu

>  <m_score__min__energy>  (29) 
-7.3200000000000003

>  <m_primary>  (29) 
energy

$$$$
29:0
     RDKit          3D

 43 46  0  0  0  0  0  0  0  0999 V2000
   -3.8620   25.6630  -30.4720 O   0  0  0  0  0  0  0  0  0  0  0  0
   -3.5550   24.3070  -30.4560 C   0  0  0  0  0  0  0  0  0  0  0  0
   -2.5700   23.7330  -29.6750 C   0  0  0  0  0  0  0  0  0  0  0  0
   -2.6210   22.3760  -29.9560 C   0  0  0  0  0  0  0  0  0  0  0  0
   -1.7530   21.3750  -29.3970 N   0  0  0  0  0  0  0  0  0  0  0  0
   -0.5770   20.9280  -30.1620 C   0  0  0  0  0  0  0  0  0  0  0  0
    0.5390   20.4320  -29.2380 C   0  0  0  0  0  0  0  0  0  0  0  0
    0.0090   19.4570  -28.2720 N   0  0  0  0  0  0  0  0  0  0  0  0
    0.8130   18.3410  -27.8380 C   0  0  0  0  0  0  0  0  0  0  0  0
    0.2440   17.1140  -27.6600 N   0  0  0  0  0  0  0  0  0  0  0  0
    0.9810   16.0480  -27.2500 C   0  0  0  0  0  0  0  0  0  0  0  0
    2.3430   16.1980  -27.0050 C   0  0  0  0  0  0  0  0  0  0  0  0
    2.9160   17.4570  -27.1910 C   0  0  0  0  0  0  0  0  0  0  0  0
    2.1450   18.4980  -27.6010 N   0  0  0  0  0  0  0  0  0  0  0  0
   -1.3140   19.6700  -27.6650 C   0  0  0  0  0  0  0  0  0  0  0  0
   -1.8580   21.0710  -27.9640 C   0  0  0  0  0  0  0  0  0  0  0  0
   -3.6420   22.1910  -30.8790 C   0  0  0  0  0  0  0  0  0  0  0  0
   -4.1020   20.9740  -31.3840 O   0  0  0  0  0  0  0  0  0  0  0  0
   -4.1950   23.3790  -31.1980 N   0  0  0  0  0  0  0  0  0  0  0  0
   -5.3590   23.5990  -32.0580 C   0  0  0  0  0  0  0  0  0  0  0  0
   -6.4540   22.6530  -31.6790 C   0  0  0  0  0  0  0  0  0  0  0  0
   -7.5280   22.9480  -30.8590 C   0  0  0  0  0  0  0  0  0  0  0  0
   -8.2900   21.8010  -30.8250 C   0  0  0  0  0  0  0  0  0  0  0  0
   -7.6370   20.8820  -31.6260 C   0  0  0  0  0  0  0  0  0  0  0  0
   -6.5480   21.4210  -32.1230 O   0  0  0  0  0  0  0  0  0  0  0  0
   -1.8896   24.2442  -28.9781 H   0  0  0  0  0  0  0  0  0  0  0  0
   -0.8768   20.1087  -30.8319 H   0  0  0  0  0  0  0  0  0  0  0  0
   -0.1938   21.7840  -30.7369 H   0  0  0  0  0  0  0  0  0  0  0  0
    1.3241   19.9538  -29.8421 H   0  0  0  0  0  0  0  0  0  0  0  0
    0.9549   21.2893  -28.6883 H   0  0  0  0  0  0  0  0  0  0  0  0
    0.5015   15.0677  -27.1119 H   0  0  0  0  0  0  0  0  0  0  0  0
    2.9529   15.3450  -26.6728 H   0  0  0  0  0  0  0  0  0  0  0  0
    3.9900   17.6063  -27.0060 H   0  0  0  0  0  0  0  0  0  0  0  0
   -2.0144   18.9228  -28.0664 H   0  0  0  0  0  0  0  0  0  0  0  0
   -1.2104   19.5688  -26.5746 H   0  0  0  0  0  0  0  0  0  0  0  0
   -2.9143   21.1202  -27.6611 H   0  0  0  0  0  0  0  0  0  0  0  0
   -1.2646   21.8075  -27.4024 H   0  0  0  0  0  0  0  0  0  0  0  0
   -5.0470   20.8560  -31.7190 H   0  0  0  0  0  0  0  0  0  0  0  0
   -5.7121   24.6338  -31.9372 H   0  0  0  0  0  0  0  0  0  0  0  0
   -5.0747   23.4248  -33.1062 H   0  0  0  0  0  0  0  0  0  0  0  0
   -7.7308   23.8980  -30.3429 H   0  0  0  0  0  0  0  0  0  0  0  0
   -9.2285   21.6471  -30.2723 H   0  0  0  0  0  0  0  0  0  0  0  0
   -7.9786   19.8541  -31.8178 H   0  0  0  0  0  0  0  0  0  0  0  0
  1  2  1  0
  2  3  2  0
  3  4  1  0
  4  5  1  0
  5  6  1  0
  6  7  1  0
  7  8  1  0
  8  9  1  0
  9 10  2  0
 10 11  1  0
 11 12  2  0
 12 13  1  0
 13 14  2  0
  8 15  1  0
 15 16  1  0
  4 17  2  0
 17 18  1  0
 17 19  1  0
 19 20  1  0
 20 21  1  0
 21 22  2  0
 22 23  1  0
 23 24  2  0
 24 25  1  0
 19  2  1  0
 25 21  1  0
 16  5  1  0
 14  9  1  0
  3 26  1  0
  6 27  1  0
  6 28  1  0
  7 29  1  0
  7 30  1  0
 11 31  1  0
 12 32  1  0
 13 33  1  0
 15 34  1  0
 15 35  1  0
 16 36  1  0
 16 37  1  0
 18 38  1  0
 20 39  1  0
 20 40  1  0
 22 41  1  0
 23 42  1  0
 24 43  1  0
M  CHG  1   1  -1
M  END
>  <UniqueID>  (30) 
27

>  <SMILES>  (30) 
[O-]c1cc(N2CCN(c3ncccn3)CC2)c(O)n1Cc1ccco1

>  <Energy>  (30) 
104.53929992705665

>  <Genealogy>  (30) 
[O-]c1cc(N2CCN(c3ncccn3)CC2)c(O)n1Cc1ccco1 (protonated)
[O-]c1cc(N2CCN(c3ncccn3)CC2)c(O)n1Cc1ccco1 (3D coordinates assigned)
[O-]c1cc(N2CCN(c3ncccn3)CC2)c(O)n1Cc1ccco1 (nonaromatic ring conformer: 104.53929992705665 kcal/mol)

>  <smiles>  (30) 
Oc1cc(N2CCN(c3ncccn3)CC2)c(O)n1Cc1ccco1

>  <score_type>  (30) 
oracle

>  <origin>  (30) 
adgpu

>  <m_score__min__energy>  (30) 
-8.9399999999999995

>  <m_primary>  (30) 
energy

$$$$
30:0
     RDKit          3D

 46 48  0  0  0  0  0  0  0  0999 V2000
   -9.0980   20.0170  -33.4460 N   0  0  0  0  0  0  0  0  0  0  0  0
   -8.2040   20.1100  -31.9670 S   0  0  0  0  0  0  0  0  0  0  0  0
   -8.9790   20.9460  -30.9860 O   0  0  0  0  0  0  0  0  0  0  0  0
   -8.0290   18.7220  -31.4170 O   0  0  0  0  0  0  0  0  0  0  0  0
   -6.6150   20.8360  -32.2350 C   0  0  0  0  0  0  0  0  0  0  0  0
   -6.2180   21.9450  -31.4700 C   0  0  0  0  0  0  0  0  0  0  0  0
   -4.9570   22.5350  -31.6560 C   0  0  0  0  0  0  0  0  0  0  0  0
   -4.5550   23.7120  -30.8520 C   0  0  0  0  0  0  0  0  0  0  0  0
   -4.9120   24.8650  -31.2190 O   0  0  0  0  0  0  0  0  0  0  0  0
   -3.7540   23.5650  -29.6680 N   0  0  0  0  0  0  0  0  0  0  0  0
   -2.6940   24.5470  -29.4020 C   0  0  0  0  0  0  0  0  0  0  0  0
   -1.5310   23.9390  -28.5840 C   0  0  0  0  0  0  0  0  0  0  0  0
   -1.8740   22.6250  -28.0020 N   0  0  0  0  0  0  0  0  0  0  0  0
   -0.8450   22.1130  -27.0690 C   0  0  0  0  0  0  0  0  0  0  0  0
   -0.4820   20.6580  -27.2870 C   0  0  0  0  0  0  0  0  0  0  0  0
    0.7320   20.3130  -27.9040 C   0  0  0  0  0  0  0  0  0  0  0  0
    1.0650   18.9700  -28.1070 C   0  0  0  0  0  0  0  0  0  0  0  0
    0.1860   17.9620  -27.7040 C   0  0  0  0  0  0  0  0  0  0  0  0
   -1.0290   18.2940  -27.1030 C   0  0  0  0  0  0  0  0  0  0  0  0
   -1.3670   19.6360  -26.8980 C   0  0  0  0  0  0  0  0  0  0  0  0
   -3.2330   22.6200  -27.4390 C   0  0  0  0  0  0  0  0  0  0  0  0
   -4.2370   22.6890  -28.5900 C   0  0  0  0  0  0  0  0  0  0  0  0
   -4.1000   22.0190  -32.6400 C   0  0  0  0  0  0  0  0  0  0  0  0
   -4.4880   20.9210  -33.4090 C   0  0  0  0  0  0  0  0  0  0  0  0
   -5.7370   20.3240  -33.2140 C   0  0  0  0  0  0  0  0  0  0  0  0
   -6.1690   18.9490  -34.2240 Cl  0  0  0  0  0  0  0  0  0  0  0  0
   -9.3690   19.0160  -33.5780 H   0  0  0  0  0  0  0  0  0  0  0  0
   -8.4340   20.2510  -34.2180 H   0  0  0  0  0  0  0  0  0  0  0  0
   -6.9038   22.3570  -30.7151 H   0  0  0  0  0  0  0  0  0  0  0  0
   -2.2998   24.9124  -30.3617 H   0  0  0  0  0  0  0  0  0  0  0  0
   -3.1311   25.3665  -28.8126 H   0  0  0  0  0  0  0  0  0  0  0  0
   -0.6612   23.8153  -29.2460 H   0  0  0  0  0  0  0  0  0  0  0  0
   -1.3127   24.6256  -27.7528 H   0  0  0  0  0  0  0  0  0  0  0  0
    0.0651   22.7184  -27.1923 H   0  0  0  0  0  0  0  0  0  0  0  0
   -1.2697   22.1860  -26.0569 H   0  0  0  0  0  0  0  0  0  0  0  0
    1.4244   21.1035  -28.2292 H   0  0  0  0  0  0  0  0  0  0  0  0
    2.0204   18.7071  -28.5847 H   0  0  0  0  0  0  0  0  0  0  0  0
    0.4516   16.9061  -27.8604 H   0  0  0  0  0  0  0  0  0  0  0  0
   -1.7220   17.4992  -26.7900 H   0  0  0  0  0  0  0  0  0  0  0  0
   -2.3290   19.8932  -26.4306 H   0  0  0  0  0  0  0  0  0  0  0  0
   -3.3923   21.6965  -26.8629 H   0  0  0  0  0  0  0  0  0  0  0  0
   -3.3666   23.4836  -26.7709 H   0  0  0  0  0  0  0  0  0  0  0  0
   -4.3909   21.6769  -28.9925 H   0  0  0  0  0  0  0  0  0  0  0  0
   -5.1806   23.1016  -28.2036 H   0  0  0  0  0  0  0  0  0  0  0  0
   -3.1165   22.4827  -32.8062 H   0  0  0  0  0  0  0  0  0  0  0  0
   -3.8059   20.5223  -34.1744 H   0  0  0  0  0  0  0  0  0  0  0  0
  1  2  1  0
  2  3  2  0
  2  4  2  0
  2  5  1  0
  5  6  2  0
  6  7  1  0
  7  8  1  0
  8  9  2  0
  8 10  1  0
 10 11  1  0
 11 12  1  0
 12 13  1  0
 13 14  1  0
 14 15  1  0
 15 16  2  0
 16 17  1  0
 17 18  2  0
 18 19  1  0
 19 20  2  0
 13 21  1  0
 21 22  1  0
  7 23  2  0
 23 24  1  0
 24 25  2  0
 25 26  1  0
 25  5  1  0
 22 10  1  0
 20 15  1  0
  1 27  1  0
  1 28  1  0
  6 29  1  0
 11 30  1  0
 11 31  1  0
 12 32  1  0
 12 33  1  0
 14 34  1  0
 14 35  1  0
 16 36  1  0
 17 37  1  0
 18 38  1  0
 19 39  1  0
 20 40  1  0
 21 41  1  0
 21 42  1  0
 22 43  1  0
 22 44  1  0
 23 45  1  0
 24 46  1  0
M  END
>  <UniqueID>  (31) 
28

>  <SMILES>  (31) 
NS(=O)(=O)c1cc(C(=O)N2CCN(Cc3ccccc3)CC2)ccc1Cl

>  <Energy>  (31) 
61.064232752151774

>  <Genealogy>  (31) 
NS(=O)(=O)c1cc(C(=O)N2CCN(Cc3ccccc3)CC2)ccc1Cl (3D coordinates assigned)
NS(=O)(=O)c1cc(C(=O)N2CCN(Cc3ccccc3)CC2)ccc1Cl (nonaromatic ring conformer: 61.064232752151774 kcal/mol)

>  <smiles>  (31) 
NS(=O)(=O)c1cc(C(=O)N2CCN(Cc3ccccc3)CC2)ccc1Cl

>  <score_type>  (31) 
oracle

>  <origin>  (31) 
adgpu

>  <m_score__min__energy>  (31) 
-9.7599999999999998

>  <m_primary>  (31) 
energy

$$$$
31:0
     RDKit          3D

 39 40  0  0  0  0  0  0  0  0999 V2000
    1.2150   17.3310  -29.1960 C   0  0  0  0  0  0  0  0  0  0  0  0
    1.0370   18.6440  -28.6750 O   0  0  0  0  0  0  0  0  0  0  0  0
   -0.2000   19.1910  -28.2960 C   0  0  0  0  0  0  0  0  0  0  0  0
   -0.7030   20.3710  -28.8740 C   0  0  0  0  0  0  0  0  0  0  0  0
   -1.9450   20.8920  -28.4740 C   0  0  0  0  0  0  0  0  0  0  0  0
   -2.4700   22.1390  -29.0870 C   0  0  0  0  0  0  0  0  0  0  0  0
   -1.7930   23.3580  -28.9130 C   0  0  0  0  0  0  0  0  0  0  0  0
   -2.2840   24.5300  -29.4940 C   0  0  0  0  0  0  0  0  0  0  0  0
   -1.6020   25.7270  -29.3110 O   0  0  0  0  0  0  0  0  0  0  0  0
   -3.4580   24.5010  -30.2560 C   0  0  0  0  0  0  0  0  0  0  0  0
   -3.9310   25.6760  -30.8320 O   0  0  0  0  0  0  0  0  0  0  0  0
   -4.1520   23.2910  -30.4340 C   0  0  0  0  0  0  0  0  0  0  0  0
   -5.4060   23.2420  -31.2730 C   0  0  0  0  0  0  0  0  0  0  0  0
   -6.6070   23.3930  -30.4230 N   0  0  0  0  0  0  0  0  0  0  0  0
   -7.7880   22.8680  -31.1260 C   0  0  0  0  0  0  0  0  0  0  0  0
   -6.8300   24.8070  -30.0760 C   0  0  0  0  0  0  0  0  0  0  0  0
   -3.6500   22.1160  -29.8520 C   0  0  0  0  0  0  0  0  0  0  0  0
   -2.6810   20.2200  -27.4850 C   0  0  0  0  0  0  0  0  0  0  0  0
   -2.1950   19.0420  -26.8980 C   0  0  0  0  0  0  0  0  0  0  0  0
   -3.0150   18.3810  -25.8580 C   0  0  0  0  0  0  0  0  0  0  0  0
   -4.2710   18.3430  -25.9310 O   0  0  0  0  0  0  0  0  0  0  0  0
   -0.9460   18.5310  -27.3100 C   0  0  0  0  0  0  0  0  0  0  0  0
   -0.4330   17.3650  -26.7490 O   0  0  0  0  0  0  0  0  0  0  0  0
    1.3118   16.6168  -28.3650 H   0  0  0  0  0  0  0  0  0  0  0  0
    0.3453   17.0602  -29.8128 H   0  0  0  0  0  0  0  0  0  0  0  0
    2.1254   17.3015  -29.8128 H   0  0  0  0  0  0  0  0  0  0  0  0
   -0.1179   20.8909  -29.6469 H   0  0  0  0  0  0  0  0  0  0  0  0
   -0.8701   23.3898  -28.3153 H   0  0  0  0  0  0  0  0  0  0  0  0
   -5.3799   24.0580  -32.0102 H   0  0  0  0  0  0  0  0  0  0  0  0
   -5.4531   22.2690  -31.7840 H   0  0  0  0  0  0  0  0  0  0  0  0
   -8.5351   22.5359  -30.3902 H   0  0  0  0  0  0  0  0  0  0  0  0
   -8.2208   23.6585  -31.7567 H   0  0  0  0  0  0  0  0  0  0  0  0
   -7.4911   22.0171  -31.7567 H   0  0  0  0  0  0  0  0  0  0  0  0
   -6.8475   24.9177  -28.9817 H   0  0  0  0  0  0  0  0  0  0  0  0
   -6.0174   25.4196  -30.4936 H   0  0  0  0  0  0  0  0  0  0  0  0
   -7.7917   25.1398  -30.4936 H   0  0  0  0  0  0  0  0  0  0  0  0
   -4.1859   21.1662  -29.9960 H   0  0  0  0  0  0  0  0  0  0  0  0
   -3.6533   20.6232  -27.1656 H   0  0  0  0  0  0  0  0  0  0  0  0
   -2.5138   17.9108  -24.9991 H   0  0  0  0  0  0  0  0  0  0  0  0
  1  2  1  0
  2  3  1  0
  3  4  2  0
  4  5  1  0
  5  6  1  0
  6  7  2  0
  7  8  1  0
  8  9  1  0
  8 10  2  0
 10 11  1  0
 10 12  1  0
 12 13  1  0
 13 14  1  0
 14 15  1  0
 14 16  1  0
 12 17  2  0
  5 18  2  0
 18 19  1  0
 19 20  1  0
 20 21  2  0
 19 22  2  0
 22 23  1  0
 22  3  1  0
 17  6  1  0
  1 24  1  0
  1 25  1  0
  1 26  1  0
  4 27  1  0
  7 28  1  0
 13 29  1  0
 13 30  1  0
 15 31  1  0
 15 32  1  0
 15 33  1  0
 16 34  1  0
 16 35  1  0
 16 36  1  0
 17 37  1  0
 18 38  1  0
 20 39  1  0
M  CHG  3   9  -1  11  -1  23  -1
M  END
>  <UniqueID>  (32) 
29

>  <SMILES>  (32) 
COc1cc(-c2cc([O-])c([O-])c(CN(C)C)c2)cc(C=O)c1[O-]

>  <Energy>  (32) 
46.05171677646527

>  <Genealogy>  (32) 
COc1cc(-c2cc([O-])c([O-])c(CN(C)C)c2)cc(C=O)c1[O-] (protonated)
COc1cc(-c2cc([O-])c([O-])c(CN(C)C)c2)cc(C=O)c1[O-] (3D coordinates assigned)
COc1cc(-c2cc([O-])c([O-])c(CN(C)C)c2)cc(C=O)c1[O-] (optimized conformer: 46.05171677646527 kcal/mol)

>  <smiles>  (32) 
COc1cc(-c2cc(O)c(O)c(CN(C)C)c2)cc(C=O)c1O

>  <score_type>  (32) 
oracle

>  <origin>  (32) 
adgpu

>  <m_score__min__energy>  (32) 
-12.75

>  <m_primary>  (32) 
energy

$$$$
32:0
     RDKit          3D

 48 50  0  0  0  0  0  0  0  0999 V2000
   -1.2350   20.2140  -29.0790 C   0  0  0  0  0  0  0  0  0  0  0  0
   -0.3890   20.5450  -30.1760 O   0  0  0  0  0  0  0  0  0  0  0  0
   -0.7950   20.5390  -31.5210 C   0  0  0  0  0  0  0  0  0  0  0  0
   -1.9770   19.9040  -31.9490 C   0  0  0  0  0  0  0  0  0  0  0  0
   -2.3330   19.9120  -33.3100 C   0  0  0  0  0  0  0  0  0  0  0  0
   -3.5230   19.2700  -33.7870 N   0  0  0  0  0  0  0  0  0  0  0  0
   -4.8580   19.4900  -33.3120 C   0  0  0  0  0  0  0  0  0  0  0  0
   -5.5940   18.5150  -32.9970 O   0  0  0  0  0  0  0  0  0  0  0  0
   -5.3780   20.8270  -33.2880 N   0  0  0  0  0  0  0  0  0  0  0  0
   -6.6510   21.1760  -32.7140 C   0  0  0  0  0  0  0  0  0  0  0  0
   -7.7270   20.2700  -32.7620 C   0  0  0  0  0  0  0  0  0  0  0  0
   -8.9620   20.6040  -32.2020 C   0  0  0  0  0  0  0  0  0  0  0  0
   -9.1390   21.8430  -31.5860 C   0  0  0  0  0  0  0  0  0  0  0  0
   -8.0770   22.7470  -31.5170 C   0  0  0  0  0  0  0  0  0  0  0  0
   -6.8270   22.4150  -32.0590 C   0  0  0  0  0  0  0  0  0  0  0  0
   -5.7250   23.3850  -31.9440 C   0  0  0  0  0  0  0  0  0  0  0  0
   -4.5500   23.0150  -32.2070 O   0  0  0  0  0  0  0  0  0  0  0  0
   -5.9620   24.7430  -31.5500 N   0  0  0  0  0  0  0  0  0  0  0  0
   -5.5620   25.3170  -30.2700 C   0  0  0  0  0  0  0  0  0  0  0  0
   -4.3750   24.5940  -29.7150 C   0  0  0  0  0  0  0  0  0  0  0  0
   -4.4210   23.4960  -28.8780 C   0  0  0  0  0  0  0  0  0  0  0  0
   -3.1050   23.1770  -28.6190 C   0  0  0  0  0  0  0  0  0  0  0  0
   -2.3420   24.0940  -29.3160 C   0  0  0  0  0  0  0  0  0  0  0  0
   -3.1280   24.9250  -29.9620 O   0  0  0  0  0  0  0  0  0  0  0  0
   -1.5360   20.6060  -34.2260 C   0  0  0  0  0  0  0  0  0  0  0  0
   -0.3520   21.2430  -33.8090 C   0  0  0  0  0  0  0  0  0  0  0  0
    0.4870   21.9310  -34.6990 O   0  0  0  0  0  0  0  0  0  0  0  0
    0.5760   21.6550  -36.0930 C   0  0  0  0  0  0  0  0  0  0  0  0
    0.0120   21.1930  -32.4590 C   0  0  0  0  0  0  0  0  0  0  0  0
   -0.7089   20.4198  -28.1351 H   0  0  0  0  0  0  0  0  0  0  0  0
   -2.1520   20.8197  -29.1273 H   0  0  0  0  0  0  0  0  0  0  0  0
   -1.4975   19.1469  -29.1273 H   0  0  0  0  0  0  0  0  0  0  0  0
   -2.6243   19.3999  -31.2163 H   0  0  0  0  0  0  0  0  0  0  0  0
   -4.8310   21.5610  -33.7920 H   0  0  0  0  0  0  0  0  0  0  0  0
   -7.5941   19.2905  -33.2447 H   0  0  0  0  0  0  0  0  0  0  0  0
   -9.7966   19.8888  -32.2467 H   0  0  0  0  0  0  0  0  0  0  0  0
  -10.1155   22.1080  -31.1545 H   0  0  0  0  0  0  0  0  0  0  0  0
   -8.2217   23.7250  -31.0348 H   0  0  0  0  0  0  0  0  0  0  0  0
   -5.3047   26.3768  -30.4139 H   0  0  0  0  0  0  0  0  0  0  0  0
   -6.3982   25.2206  -29.5619 H   0  0  0  0  0  0  0  0  0  0  0  0
   -5.3178   22.9845  -28.4985 H   0  0  0  0  0  0  0  0  0  0  0  0
   -2.7365   22.3572  -27.9849 H   0  0  0  0  0  0  0  0  0  0  0  0
   -1.2425   24.1237  -29.3282 H   0  0  0  0  0  0  0  0  0  0  0  0
   -1.8373   20.6546  -35.2828 H   0  0  0  0  0  0  0  0  0  0  0  0
    0.9105   20.6176  -36.2408 H   0  0  0  0  0  0  0  0  0  0  0  0
   -0.4117   21.7915  -36.5576 H   0  0  0  0  0  0  0  0  0  0  0  0
    1.2979   22.3427  -36.5576 H   0  0  0  0  0  0  0  0  0  0  0  0
    0.9450   21.6742  -32.1304 H   0  0  0  0  0  0  0  0  0  0  0  0
  1  2  1  0
  2  3  1  0
  3  4  2  0
  4  5  1  0
  5  6  1  0
  6  7  1  0
  7  8  2  0
  7  9  1  0
  9 10  1  0
 10 11  2  0
 11 12  1  0
 12 13  2  0
 13 14  1  0
 14 15  2  0
 15 16  1  0
 16 17  2  0
 16 18  1  0
 18 19  1  0
 19 20  1  0
 20 21  2  0
 21 22  1  0
 22 23  2  0
 23 24  1  0
  5 25  2  0
 25 26  1  0
 26 27  1  0
 27 28  1  0
 26 29  2  0
 29  3  1  0
 15 10  1  0
 24 20  1  0
  1 30  1  0
  1 31  1  0
  1 32  1  0
  4 33  1  0
  9 34  1  0
 11 35  1  0
 12 36  1  0
 13 37  1  0
 14 38  1  0
 19 39  1  0
 19 40  1  0
 21 41  1  0
 22 42  1  0
 23 43  1  0
 25 44  1  0
 28 45  1  0
 28 46  1  0
 28 47  1  0
 29 48  1  0
M  CHG  2   6  -1  18  -1
M  END
>  <UniqueID>  (33) 
30

>  <SMILES>  (33) 
COc1cc([N-]C(=O)Nc2ccccc2C(=O)[N-]Cc2ccco2)cc(OC)c1

>  <Energy>  (33) 
85.26301712147225

>  <Genealogy>  (33) 
COc1cc([N-]C(=O)Nc2ccccc2C(=O)[N-]Cc2ccco2)cc(OC)c1 (protonated)
COc1cc([N-]C(=O)Nc2ccccc2C(=O)[N-]Cc2ccco2)cc(OC)c1 (3D coordinates assigned)
COc1cc([N-]C(=O)Nc2ccccc2C(=O)[N-]Cc2ccco2)cc(OC)c1 (optimized conformer: 85.26301712147225 kcal/mol)

>  <smiles>  (33) 
COc1cc(NC(=O)Nc2ccccc2C(=O)NCc2ccco2)cc(OC)c1

>  <score_type>  (33) 
oracle

>  <origin>  (33) 
adgpu

>  <m_score__min__energy>  (33) 
-9.8200000000000003

>  <m_primary>  (33) 
energy

$$$$
33:0
     RDKit          3D

 42 44  0  0  0  0  0  0  0  0999 V2000
   -3.9650   16.1100  -34.9400 C   0  0  0  0  0  0  0  0  0  0  0  0
   -5.3360   16.3170  -34.6120 O   0  0  0  0  0  0  0  0  0  0  0  0
   -5.8020   17.3310  -33.7620 C   0  0  0  0  0  0  0  0  0  0  0  0
   -6.1420   17.0920  -32.4170 C   0  0  0  0  0  0  0  0  0  0  0  0
   -6.6020   18.1370  -31.6100 C   0  0  0  0  0  0  0  0  0  0  0  0
   -6.7330   19.4320  -32.1320 C   0  0  0  0  0  0  0  0  0  0  0  0
   -7.1980   20.5580  -31.2470 C   0  0  0  0  0  0  0  0  0  0  0  0
   -6.0980   21.4920  -31.0020 N   0  0  0  0  0  0  0  0  0  0  0  0
   -4.7810   21.1820  -31.0230 C   0  0  0  0  0  0  0  0  0  0  0  0
   -4.0120   22.3240  -30.8440 C   0  0  0  0  0  0  0  0  0  0  0  0
   -2.5420   22.3660  -30.8790 C   0  0  0  0  0  0  0  0  0  0  0  0
   -1.9610   22.5420  -31.9830 O   0  0  0  0  0  0  0  0  0  0  0  0
   -1.7280   22.2940  -29.6200 C   0  0  0  0  0  0  0  0  0  0  0  0
   -1.8840   23.5600  -28.8270 C   0  0  0  0  0  0  0  0  0  0  0  0
   -2.9170   23.7200  -28.1200 O   0  0  0  0  0  0  0  0  0  0  0  0
   -0.8790   24.6320  -28.8950 C   0  0  0  0  0  0  0  0  0  0  0  0
    0.3200   24.3930  -28.5920 O   0  0  0  0  0  0  0  0  0  0  0  0
   -1.2390   25.9140  -29.2900 O   0  0  0  0  0  0  0  0  0  0  0  0
   -4.9130   23.3710  -30.6950 C   0  0  0  0  0  0  0  0  0  0  0  0
   -4.7330   24.7330  -30.4210 C   0  0  0  0  0  0  0  0  0  0  0  0
   -3.4710   25.2780  -30.2170 O   0  0  0  0  0  0  0  0  0  0  0  0
   -5.8760   25.5460  -30.3250 C   0  0  0  0  0  0  0  0  0  0  0  0
   -7.1620   24.9910  -30.4750 C   0  0  0  0  0  0  0  0  0  0  0  0
   -7.3220   23.6160  -30.7110 C   0  0  0  0  0  0  0  0  0  0  0  0
   -6.1720   22.8270  -30.8100 C   0  0  0  0  0  0  0  0  0  0  0  0
   -6.3920   19.6700  -33.4730 C   0  0  0  0  0  0  0  0  0  0  0  0
   -5.9330   18.6250  -34.2790 C   0  0  0  0  0  0  0  0  0  0  0  0
   -3.3761   16.0211  -34.0152 H   0  0  0  0  0  0  0  0  0  0  0  0
   -3.8643   15.1865  -35.5290 H   0  0  0  0  0  0  0  0  0  0  0  0
   -3.5961   16.9626  -35.5290 H   0  0  0  0  0  0  0  0  0  0  0  0
   -6.0454   16.0790  -31.9992 H   0  0  0  0  0  0  0  0  0  0  0  0
   -6.8627   17.9422  -30.5593 H   0  0  0  0  0  0  0  0  0  0  0  0
   -8.0246   21.0906  -31.7399 H   0  0  0  0  0  0  0  0  0  0  0  0
   -7.5395   20.1439  -30.2868 H   0  0  0  0  0  0  0  0  0  0  0  0
   -4.3768   20.1685  -31.1622 H   0  0  0  0  0  0  0  0  0  0  0  0
   -2.0702   21.4418  -29.0146 H   0  0  0  0  0  0  0  0  0  0  0  0
   -0.6682   22.1655  -29.8852 H   0  0  0  0  0  0  0  0  0  0  0  0
   -5.7653   26.6231  -30.1314 H   0  0  0  0  0  0  0  0  0  0  0  0
   -8.0477   25.6397  -30.4067 H   0  0  0  0  0  0  0  0  0  0  0  0
   -8.3232   23.1725  -30.8150 H   0  0  0  0  0  0  0  0  0  0  0  0
   -6.4866   20.6832  -33.8908 H   0  0  0  0  0  0  0  0  0  0  0  0
   -5.6722   18.8211  -35.3295 H   0  0  0  0  0  0  0  0  0  0  0  0
  1  2  1  0
  2  3  1  0
  3  4  2  0
  4  5  1  0
  5  6  2  0
  6  7  1  0
  7  8  1  0
  8  9  1  0
  9 10  2  0
 10 11  1  0
 11 12  2  0
 11 13  1  0
 13 14  1  0
 14 15  2  0
 14 16  1  0
 16 17  2  0
 16 18  1  0
 10 19  1  0
 19 20  2  0
 20 21  1  0
 20 22  1  0
 22 23  2  0
 23 24  1  0
 24 25  2  0
  6 26  1  0
 26 27  2  0
 27  3  1  0
 25  8  1  0
 25 19  1  0
  1 28  1  0
  1 29  1  0
  1 30  1  0
  4 31  1  0
  5 32  1  0
  7 33  1  0
  7 34  1  0
  9 35  1  0
 13 36  1  0
 13 37  1  0
 22 38  1  0
 23 39  1  0
 24 40  1  0
 26 41  1  0
 27 42  1  0
M  CHG  2  18  -1  21  -1
M  END
>  <UniqueID>  (34) 
31

>  <SMILES>  (34) 
COc1ccc(Cn2cc(C(=O)CC(=O)C(=O)[O-])c3c([O-])cccc32)cc1

>  <Energy>  (34) 
79.20225099425417

>  <Genealogy>  (34) 
COc1ccc(Cn2cc(C(=O)CC(=O)C(=O)[O-])c3c([O-])cccc32)cc1 (protonated)
COc1ccc(Cn2cc(C(=O)CC(=O)C(=O)[O-])c3c([O-])cccc32)cc1 (3D coordinates assigned)
COc1ccc(Cn2cc(C(=O)CC(=O)C(=O)[O-])c3c([O-])cccc32)cc1 (optimized conformer: 79.20225099425417 kcal/mol)

>  <smiles>  (34) 
COc1ccc(Cn2cc(C(=O)CC(=O)C(=O)O)c3c(O)cccc32)cc1

>  <score_type>  (34) 
oracle

>  <origin>  (34) 
adgpu

>  <m_score__min__energy>  (34) 
-12.550000000000001

>  <m_primary>  (34) 
energy

$$$$
34:0
     RDKit          3D

 62 66  0  0  0  0  0  0  0  0999 V2000
   -1.6160   20.9500  -26.0700 O   0  0  0  0  0  0  0  0  0  0  0  0
   -1.6110   22.0340  -26.7170 C   0  0  0  0  0  0  0  0  0  0  0  0
   -2.2350   22.0650  -28.0610 C   0  0  0  0  0  0  0  0  0  0  0  0
   -3.3050   22.9320  -28.3410 C   0  0  0  0  0  0  0  0  0  0  0  0
   -3.8750   22.9660  -29.6180 C   0  0  0  0  0  0  0  0  0  0  0  0
   -3.3700   22.1550  -30.6460 C   0  0  0  0  0  0  0  0  0  0  0  0
   -3.9860   22.1830  -32.0240 C   0  0  0  0  0  0  0  0  0  0  0  0
   -5.4650   22.2490  -31.9410 N   0  0  0  0  0  0  0  0  0  0  0  0
   -6.0400   23.4830  -31.7300 C   0  0  0  0  0  0  0  0  0  0  0  0
   -5.3260   24.5130  -31.5820 O   0  0  0  0  0  0  0  0  0  0  0  0
   -7.3850   23.6240  -31.6730 N   0  0  0  0  0  0  0  0  0  0  0  0
   -8.2220   22.5750  -31.8240 C   0  0  0  0  0  0  0  0  0  0  0  0
   -9.4690   22.7700  -31.7690 O   0  0  0  0  0  0  0  0  0  0  0  0
   -7.6980   21.2970  -32.0420 C   0  0  0  0  0  0  0  0  0  0  0  0
   -8.5470   20.1870  -32.2080 C   0  0  0  0  0  0  0  0  0  0  0  0
   -8.0150   18.9190  -32.4260 C   0  0  0  0  0  0  0  0  0  0  0  0
   -6.6350   18.7440  -32.4810 C   0  0  0  0  0  0  0  0  0  0  0  0
   -5.7760   19.8330  -32.3200 C   0  0  0  0  0  0  0  0  0  0  0  0
   -6.2840   21.1410  -32.1000 C   0  0  0  0  0  0  0  0  0  0  0  0
   -2.2890   21.3020  -30.3710 C   0  0  0  0  0  0  0  0  0  0  0  0
   -1.7250   21.2590  -29.0930 C   0  0  0  0  0  0  0  0  0  0  0  0
   -0.9800   23.1950  -26.1410 N   0  0  0  0  0  0  0  0  0  0  0  0
   -1.4720   24.5480  -26.4040 C   0  0  0  0  0  0  0  0  0  0  0  0
   -1.4770   25.3840  -25.1120 C   0  0  0  0  0  0  0  0  0  0  0  0
   -0.2690   25.2230  -24.2400 N   0  0  0  0  0  0  0  0  0  0  0  0
    0.2590   26.5480  -23.7920 C   0  0  0  0  0  0  0  0  0  0  0  0
   -0.3700   27.7470  -24.5670 C   0  0  0  0  0  0  0  0  0  0  0  0
    0.4640   29.0500  -24.5090 C   0  0  0  0  0  0  0  0  0  0  0  0
    1.4040   29.0830  -23.3000 C   0  0  0  0  0  0  0  0  0  0  0  0
    2.3820   27.8910  -23.3110 C   0  0  0  0  0  0  0  0  0  0  0  0
    1.7980   26.6240  -23.9710 C   0  0  0  0  0  0  0  0  0  0  0  0
    0.7740   24.3720  -24.8660 C   0  0  0  0  0  0  0  0  0  0  0  0
    0.1900   23.0190  -25.2800 C   0  0  0  0  0  0  0  0  0  0  0  0
   -3.6971   23.5886  -27.5503 H   0  0  0  0  0  0  0  0  0  0  0  0
   -4.7259   23.6338  -29.8180 H   0  0  0  0  0  0  0  0  0  0  0  0
   -3.6159   23.0657  -32.5661 H   0  0  0  0  0  0  0  0  0  0  0  0
   -3.7044   21.2610  -32.5537 H   0  0  0  0  0  0  0  0  0  0  0  0
   -9.6378   20.3221  -32.1652 H   0  0  0  0  0  0  0  0  0  0  0  0
   -8.6847   18.0559  -32.5547 H   0  0  0  0  0  0  0  0  0  0  0  0
   -6.2183   17.7405  -32.6525 H   0  0  0  0  0  0  0  0  0  0  0  0
   -4.6883   19.6753  -32.3643 H   0  0  0  0  0  0  0  0  0  0  0  0
   -1.8827   20.6622  -31.1682 H   0  0  0  0  0  0  0  0  0  0  0  0
   -0.8755   20.5892  -28.8934 H   0  0  0  0  0  0  0  0  0  0  0  0
   -0.8192   25.0322  -27.1452 H   0  0  0  0  0  0  0  0  0  0  0  0
   -2.5008   24.4825  -26.7876 H   0  0  0  0  0  0  0  0  0  0  0  0
   -1.5537   26.4445  -25.3938 H   0  0  0  0  0  0  0  0  0  0  0  0
   -2.3302   25.0225  -24.5193 H   0  0  0  0  0  0  0  0  0  0  0  0
   -0.0156   26.6281  -22.7298 H   0  0  0  0  0  0  0  0  0  0  0  0
   -0.4809   27.4554  -25.6218 H   0  0  0  0  0  0  0  0  0  0  0  0
   -1.3322   27.9666  -24.0812 H   0  0  0  0  0  0  0  0  0  0  0  0
    1.0651   29.1269  -25.4271 H   0  0  0  0  0  0  0  0  0  0  0  0
   -0.2351   29.8941  -24.4159 H   0  0  0  0  0  0  0  0  0  0  0  0
    1.9813   30.0191  -23.3217 H   0  0  0  0  0  0  0  0  0  0  0  0
    0.7938   29.0200  -22.3869 H   0  0  0  0  0  0  0  0  0  0  0  0
    3.2859   28.1869  -23.8637 H   0  0  0  0  0  0  0  0  0  0  0  0
    2.5990   27.6398  -22.2623 H   0  0  0  0  0  0  0  0  0  0  0  0
    2.0325   26.6402  -25.0456 H   0  0  0  0  0  0  0  0  0  0  0  0
    2.2459   25.7442  -23.4858 H   0  0  0  0  0  0  0  0  0  0  0  0
    1.1702   24.8822  -25.7564 H   0  0  0  0  0  0  0  0  0  0  0  0
    1.5781   24.2019  -24.1349 H   0  0  0  0  0  0  0  0  0  0  0  0
    0.9558   22.4483  -25.8257 H   0  0  0  0  0  0  0  0  0  0  0  0
   -0.1198   22.4785  -24.3734 H   0  0  0  0  0  0  0  0  0  0  0  0
  1  2  2  0
  2  3  1  0
  3  4  2  0
  4  5  1  0
  5  6  2  0
  6  7  1  0
  7  8  1  0
  8  9  1  0
  9 10  2  0
  9 11  1  0
 11 12  1  0
 12 13  2  0
 12 14  1  0
 14 15  2  0
 15 16  1  0
 16 17  2  0
 17 18  1  0
 18 19  2  0
  6 20  1  0
 20 21  2  0
  2 22  1  0
 22 23  1  0
 23 24  1  0
 24 25  1  0
 25 26  1  0
 26 27  1  0
 27 28  1  0
 28 29  1  0
 29 30  1  0
 30 31  1  0
 25 32  1  0
 32 33  1  0
 21  3  1  0
 33 22  1  0
 19  8  1  0
 31 26  1  0
 19 14  1  0
  4 34  1  0
  5 35  1  0
  7 36  1  0
  7 37  1  0
 15 38  1  0
 16 39  1  0
 17 40  1  0
 18 41  1  0
 20 42  1  0
 21 43  1  0
 23 44  1  0
 23 45  1  0
 24 46  1  0
 24 47  1  0
 26 48  1  0
 27 49  1  0
 27 50  1  0
 28 51  1  0
 28 52  1  0
 29 53  1  0
 29 54  1  0
 30 55  1  0
 30 56  1  0
 31 57  1  0
 31 58  1  0
 32 59  1  0
 32 60  1  0
 33 61  1  0
 33 62  1  0
M  CHG  1  11  -1
M  END
>  <UniqueID>  (35) 
32

>  <SMILES>  (35) 
O=C(c1ccc(Cn2c(=O)[n-]c(=O)c3ccccc32)cc1)N1CCN(C2CCCCC2)CC1

>  <Energy>  (35) 
98.89355009240103

>  <Genealogy>  (35) 
O=C(c1ccc(Cn2c(=O)[n-]c(=O)c3ccccc32)cc1)N1CCN(C2CCCCC2)CC1 (protonated)
O=C(c1ccc(Cn2c(=O)[n-]c(=O)c3ccccc32)cc1)N1CCN(C2CCCCC2)CC1 (3D coordinates assigned)
O=C(c1ccc(Cn2c(=O)[n-]c(=O)c3ccccc32)cc1)N1CCN(C2CCCCC2)CC1 (nonaromatic ring conformer: 98.89355009240103 kcal/mol)

>  <smiles>  (35) 
O=C(c1ccc(Cn2c(=O)[nH]c(=O)c3ccccc32)cc1)N1CCN(C2CCCCC2)CC1

>  <score_type>  (35) 
oracle

>  <origin>  (35) 
adgpu

>  <m_score__min__energy>  (35) 
-10.68

>  <m_primary>  (35) 
energy

$$$$
35:0
     RDKit          3D

 34 35  0  0  0  0  0  0  0  0999 V2000
   -4.1710   18.7880  -33.4130 C   0  0  0  0  0  0  0  0  0  0  0  0
   -5.3850   19.5290  -32.9230 C   0  0  0  0  0  0  0  0  0  0  0  0
   -5.2610   20.8460  -32.4540 C   0  0  0  0  0  0  0  0  0  0  0  0
   -6.3800   21.5550  -31.9910 C   0  0  0  0  0  0  0  0  0  0  0  0
   -6.1790   23.2150  -31.4130 S   0  0  0  0  0  0  0  0  0  0  0  0
   -6.9380   24.1430  -32.3210 O   0  0  0  0  0  0  0  0  0  0  0  0
   -6.7090   23.3510  -30.0130 O   0  0  0  0  0  0  0  0  0  0  0  0
   -4.4930   23.6140  -31.4240 N   0  0  0  0  0  0  0  0  0  0  0  0
   -3.8690   24.4750  -30.4670 C   0  0  0  0  0  0  0  0  0  0  0  0
   -4.2370   25.6780  -30.4060 O   0  0  0  0  0  0  0  0  0  0  0  0
   -2.8120   23.9980  -29.6180 N   0  0  0  0  0  0  0  0  0  0  0  0
   -2.3980   24.6590  -28.4090 C   0  0  0  0  0  0  0  0  0  0  0  0
   -3.1900   24.5470  -27.2560 C   0  0  0  0  0  0  0  0  0  0  0  0
   -2.8210   25.1980  -26.0760 C   0  0  0  0  0  0  0  0  0  0  0  0
   -1.6640   25.9830  -26.0410 C   0  0  0  0  0  0  0  0  0  0  0  0
   -1.2030   26.8040  -24.5610 Cl  0  0  0  0  0  0  0  0  0  0  0  0
   -0.8800   26.1200  -27.1900 C   0  0  0  0  0  0  0  0  0  0  0  0
   -1.2470   25.4680  -28.3720 C   0  0  0  0  0  0  0  0  0  0  0  0
   -7.6450   20.9320  -32.0010 C   0  0  0  0  0  0  0  0  0  0  0  0
   -9.1260   21.7710  -31.4270 S   0  0  0  0  0  0  0  0  0  0  0  0
   -7.7690   19.6190  -32.4690 C   0  0  0  0  0  0  0  0  0  0  0  0
   -6.6520   18.9150  -32.9280 C   0  0  0  0  0  0  0  0  0  0  0  0
   -6.8740   17.2670  -33.5030 Cl  0  0  0  0  0  0  0  0  0  0  0  0
   -3.5868   18.4314  -32.5519 H   0  0  0  0  0  0  0  0  0  0  0  0
   -4.4872   17.9288  -34.0227 H   0  0  0  0  0  0  0  0  0  0  0  0
   -3.5513   19.4620  -34.0227 H   0  0  0  0  0  0  0  0  0  0  0  0
   -4.2728   21.3292  -32.4493 H   0  0  0  0  0  0  0  0  0  0  0  0
   -2.2470   23.1820  -29.9420 H   0  0  0  0  0  0  0  0  0  0  0  0
   -4.1084   23.9421  -27.2813 H   0  0  0  0  0  0  0  0  0  0  0  0
   -3.4412   25.0930  -25.1736 H   0  0  0  0  0  0  0  0  0  0  0  0
    0.0272   26.7416  -27.1648 H   0  0  0  0  0  0  0  0  0  0  0  0
   -0.6331   25.5882  -29.2768 H   0  0  0  0  0  0  0  0  0  0  0  0
   -8.4360   22.9860  -31.2530 H   0  0  0  0  0  0  0  0  0  0  0  0
   -8.7569   19.1353  -32.4758 H   0  0  0  0  0  0  0  0  0  0  0  0
  1  2  1  0
  2  3  2  0
  3  4  1  0
  4  5  1  0
  5  6  2  0
  5  7  2  0
  5  8  1  0
  8  9  1  0
  9 10  2  0
  9 11  1  0
 11 12  1  0
 12 13  2  0
 13 14  1  0
 14 15  2  0
 15 16  1  0
 15 17  1  0
 17 18  2  0
  4 19  2  0
 19 20  1  0
 19 21  1  0
 21 22  2  0
 22 23  1  0
 22  2  1  0
 18 12  1  0
  1 24  1  0
  1 25  1  0
  1 26  1  0
  3 27  1  0
 11 28  1  0
 13 29  1  0
 14 30  1  0
 17 31  1  0
 18 32  1  0
 20 33  1  0
 21 34  1  0
M  CHG  1   8  -1
M  END
>  <UniqueID>  (36) 
33

>  <SMILES>  (36) 
Cc1cc(S(=O)(=O)[N-]C(=O)Nc2ccc(Cl)cc2)c(S)cc1Cl

>  <Energy>  (36) 
41.58737406245144

>  <Genealogy>  (36) 
Cc1cc(S(=O)(=O)[N-]C(=O)Nc2ccc(Cl)cc2)c(S)cc1Cl (protonated)
Cc1cc(S(=O)(=O)[N-]C(=O)Nc2ccc(Cl)cc2)c(S)cc1Cl (3D coordinates assigned)
Cc1cc(S(=O)(=O)[N-]C(=O)Nc2ccc(Cl)cc2)c(S)cc1Cl (optimized conformer: 41.58737406245144 kcal/mol)

>  <smiles>  (36) 
Cc1cc(S(=O)(=O)NC(=O)Nc2ccc(Cl)cc2)c(S)cc1Cl

>  <score_type>  (36) 
oracle

>  <origin>  (36) 
adgpu

>  <m_score__min__energy>  (36) 
-10.15

>  <m_primary>  (36) 
energy

$$$$
36:0
     RDKit          3D

 45 46  0  0  0  0  0  0  0  0999 V2000
   -4.9980   12.5810  -31.2560 C   0  0  0  0  0  0  0  0  0  0  0  0
   -4.1400   13.7900  -31.6320 C   0  0  0  0  0  0  0  0  0  0  0  0
   -4.8150   14.6940  -32.6830 C   0  0  0  0  0  0  0  0  0  0  0  0
   -4.2170   16.1100  -32.7540 C   0  0  0  0  0  0  0  0  0  0  0  0
   -5.2710   17.1780  -32.8860 C   0  0  0  0  0  0  0  0  0  0  0  0
   -5.1810   18.1350  -33.9090 C   0  0  0  0  0  0  0  0  0  0  0  0
   -6.1440   19.1400  -34.0230 C   0  0  0  0  0  0  0  0  0  0  0  0
   -7.2200   19.2040  -33.1170 C   0  0  0  0  0  0  0  0  0  0  0  0
   -8.2310   20.2230  -33.2060 N   0  0  0  0  0  0  0  0  0  0  0  0
   -8.6350   21.3020  -31.9070 S   0  0  0  0  0  0  0  0  0  0  0  0
   -9.7550   22.2040  -32.3390 O   0  0  0  0  0  0  0  0  0  0  0  0
   -9.0870   20.4940  -30.7210 O   0  0  0  0  0  0  0  0  0  0  0  0
   -7.2380   22.2920  -31.4940 C   0  0  0  0  0  0  0  0  0  0  0  0
   -7.4240   23.5500  -30.9070 C   0  0  0  0  0  0  0  0  0  0  0  0
   -6.3230   24.3490  -30.5890 C   0  0  0  0  0  0  0  0  0  0  0  0
   -5.0190   23.8870  -30.8370 C   0  0  0  0  0  0  0  0  0  0  0  0
   -3.8680   24.6940  -30.5530 N   0  0  0  0  0  0  0  0  0  0  0  0
   -3.0440   24.6260  -29.3810 C   0  0  0  0  0  0  0  0  0  0  0  0
   -3.3900   23.7530  -28.2140 C   0  0  0  0  0  0  0  0  0  0  0  0
   -1.9780   25.2950  -29.3460 O   0  0  0  0  0  0  0  0  0  0  0  0
   -4.8380   22.6400  -31.4470 C   0  0  0  0  0  0  0  0  0  0  0  0
   -5.9390   21.8400  -31.7640 C   0  0  0  0  0  0  0  0  0  0  0  0
   -7.3010   18.2490  -32.0920 C   0  0  0  0  0  0  0  0  0  0  0  0
   -6.3380   17.2430  -31.9780 C   0  0  0  0  0  0  0  0  0  0  0  0
   -5.0561   12.4991  -30.1606 H   0  0  0  0  0  0  0  0  0  0  0  0
   -6.0099   12.7070  -31.6685 H   0  0  0  0  0  0  0  0  0  0  0  0
   -4.5450   11.6674  -31.6685 H   0  0  0  0  0  0  0  0  0  0  0  0
   -3.9520   14.3839  -30.7254 H   0  0  0  0  0  0  0  0  0  0  0  0
   -3.2052   13.4109  -32.0706 H   0  0  0  0  0  0  0  0  0  0  0  0
   -4.7060   14.2208  -33.6700 H   0  0  0  0  0  0  0  0  0  0  0  0
   -5.8682   14.8036  -32.3851 H   0  0  0  0  0  0  0  0  0  0  0  0
   -3.6406   16.2955  -31.8356 H   0  0  0  0  0  0  0  0  0  0  0  0
   -3.5800   16.1581  -33.6495 H   0  0  0  0  0  0  0  0  0  0  0  0
   -4.3470   18.0931  -34.6251 H   0  0  0  0  0  0  0  0  0  0  0  0
   -6.0613   19.8869  -34.8263 H   0  0  0  0  0  0  0  0  0  0  0  0
   -8.6990   20.3950  -34.1230 H   0  0  0  0  0  0  0  0  0  0  0  0
   -8.4415   23.9105  -30.6954 H   0  0  0  0  0  0  0  0  0  0  0  0
   -6.4771   25.3427  -30.1432 H   0  0  0  0  0  0  0  0  0  0  0  0
   -3.1770   24.2904  -27.2782 H   0  0  0  0  0  0  0  0  0  0  0  0
   -4.4585   23.4947  -28.2534 H   0  0  0  0  0  0  0  0  0  0  0  0
   -2.7886   22.8328  -28.2534 H   0  0  0  0  0  0  0  0  0  0  0  0
   -3.8220   22.2875  -31.6784 H   0  0  0  0  0  0  0  0  0  0  0  0
   -5.7860   20.8537  -32.2263 H   0  0  0  0  0  0  0  0  0  0  0  0
   -8.1308   18.2928  -31.3712 H   0  0  0  0  0  0  0  0  0  0  0  0
   -6.4171   16.4984  -31.1722 H   0  0  0  0  0  0  0  0  0  0  0  0
  1  2  1  0
  2  3  1  0
  3  4  1  0
  4  5  1  0
  5  6  2  0
  6  7  1  0
  7  8  2  0
  8  9  1  0
  9 10  1  0
 10 11  2  0
 10 12  2  0
 10 13  1  0
 13 14  2  0
 14 15  1  0
 15 16  2  0
 16 17  1  0
 17 18  1  0
 18 19  1  0
 18 20  2  0
 16 21  1  0
 21 22  2  0
  8 23  1  0
 23 24  2  0
 24  5  1  0
 22 13  1  0
  1 25  1  0
  1 26  1  0
  1 27  1  0
  2 28  1  0
  2 29  1  0
  3 30  1  0
  3 31  1  0
  4 32  1  0
  4 33  1  0
  6 34  1  0
  7 35  1  0
  9 36  1  0
 14 37  1  0
 15 38  1  0
 19 39  1  0
 19 40  1  0
 19 41  1  0
 21 42  1  0
 22 43  1  0
 23 44  1  0
 24 45  1  0
M  CHG  1  17  -1
M  END
>  <UniqueID>  (37) 
34

>  <SMILES>  (37) 
CCCCc1ccc(NS(=O)(=O)c2ccc([N-]C(C)=O)cc2)cc1

>  <Energy>  (37) 
45.60775511552145

>  <Genealogy>  (37) 
CCCCc1ccc(NS(=O)(=O)c2ccc([N-]C(C)=O)cc2)cc1 (protonated)
CCCCc1ccc(NS(=O)(=O)c2ccc([N-]C(C)=O)cc2)cc1 (3D coordinates assigned)
CCCCc1ccc(NS(=O)(=O)c2ccc([N-]C(C)=O)cc2)cc1 (optimized conformer: 45.60775511552145 kcal/mol)

>  <smiles>  (37) 
CCCCc1ccc(NS(=O)(=O)c2ccc(NC(C)=O)cc2)cc1

>  <score_type>  (37) 
oracle

>  <origin>  (37) 
adgpu

>  <m_score__min__energy>  (37) 
-10.52

>  <m_primary>  (37) 
energy

$$$$
37:0
     RDKit          3D

 50 53  0  0  0  0  0  0  0  0999 V2000
   -7.0980   20.0840  -33.6460 O   0  0  0  0  0  0  0  0  0  0  0  0
   -6.4230   20.1870  -32.5860 C   0  0  0  0  0  0  0  0  0  0  0  0
   -5.7130   19.0440  -32.0800 N   0  0  0  0  0  0  0  0  0  0  0  0
   -5.4080   17.8870  -32.8800 C   0  0  0  0  0  0  0  0  0  0  0  0
   -6.3660   16.8730  -33.0620 C   0  0  0  0  0  0  0  0  0  0  0  0
   -6.0910   15.7780  -33.8860 C   0  0  0  0  0  0  0  0  0  0  0  0
   -4.8650   15.6900  -34.5460 C   0  0  0  0  0  0  0  0  0  0  0  0
   -3.9100   16.6950  -34.3840 C   0  0  0  0  0  0  0  0  0  0  0  0
   -4.1710   17.7930  -33.5530 C   0  0  0  0  0  0  0  0  0  0  0  0
   -3.1620   18.7990  -33.3870 N   0  0  0  0  0  0  0  0  0  0  0  0
   -3.4250   20.1700  -33.8300 C   0  0  0  0  0  0  0  0  0  0  0  0
   -2.2830   21.0980  -33.4100 C   0  0  0  0  0  0  0  0  0  0  0  0
   -1.8890   20.8230  -32.0230 N   0  0  0  0  0  0  0  0  0  0  0  0
   -1.3330   19.4670  -31.8430 C   0  0  0  0  0  0  0  0  0  0  0  0
   -1.8420   18.4290  -32.8670 C   0  0  0  0  0  0  0  0  0  0  0  0
   -6.4120   21.4760  -31.8510 C   0  0  0  0  0  0  0  0  0  0  0  0
   -7.4920   22.3650  -31.9710 C   0  0  0  0  0  0  0  0  0  0  0  0
   -7.4870   23.5820  -31.2870 C   0  0  0  0  0  0  0  0  0  0  0  0
   -6.4080   23.9360  -30.4730 C   0  0  0  0  0  0  0  0  0  0  0  0
   -6.4420   25.6600  -29.6310 Br  0  0  0  0  0  0  0  0  0  0  0  0
   -5.3130   23.0560  -30.3410 C   0  0  0  0  0  0  0  0  0  0  0  0
   -4.1510   23.3860  -29.4880 C   0  0  0  0  0  0  0  0  0  0  0  0
   -3.8010   22.5460  -28.4170 C   0  0  0  0  0  0  0  0  0  0  0  0
   -2.7150   22.8660  -27.5960 C   0  0  0  0  0  0  0  0  0  0  0  0
   -1.9780   24.0290  -27.8310 C   0  0  0  0  0  0  0  0  0  0  0  0
   -2.3280   24.8780  -28.8860 C   0  0  0  0  0  0  0  0  0  0  0  0
   -1.5990   26.0390  -29.1150 O   0  0  0  0  0  0  0  0  0  0  0  0
   -3.4130   24.5600  -29.7090 C   0  0  0  0  0  0  0  0  0  0  0  0
   -5.3190   21.8380  -31.0420 C   0  0  0  0  0  0  0  0  0  0  0  0
   -5.5050   19.0050  -31.0580 H   0  0  0  0  0  0  0  0  0  0  0  0
   -7.3383   16.9424  -32.5523 H   0  0  0  0  0  0  0  0  0  0  0  0
   -6.8421   14.9847  -34.0143 H   0  0  0  0  0  0  0  0  0  0  0  0
   -4.6508   14.8278  -35.1946 H   0  0  0  0  0  0  0  0  0  0  0  0
   -2.9473   16.6249  -34.9114 H   0  0  0  0  0  0  0  0  0  0  0  0
   -3.5186   20.1845  -34.9259 H   0  0  0  0  0  0  0  0  0  0  0  0
   -4.3578   20.5212  -33.3647 H   0  0  0  0  0  0  0  0  0  0  0  0
   -1.4199   20.9343  -34.0720 H   0  0  0  0  0  0  0  0  0  0  0  0
   -2.6226   22.1415  -33.4860 H   0  0  0  0  0  0  0  0  0  0  0  0
   -2.7350   20.9260  -31.4120 H   0  0  0  0  0  0  0  0  0  0  0  0
   -0.2383   19.5293  -31.9311 H   0  0  0  0  0  0  0  0  0  0  0  0
   -1.6639   19.1203  -30.8529 H   0  0  0  0  0  0  0  0  0  0  0  0
   -1.1301   18.3717  -33.7036 H   0  0  0  0  0  0  0  0  0  0  0  0
   -1.9273   17.4553  -32.3623 H   0  0  0  0  0  0  0  0  0  0  0  0
   -8.3484   22.1007  -32.6087 H   0  0  0  0  0  0  0  0  0  0  0  0
   -8.3403   24.2685  -31.3898 H   0  0  0  0  0  0  0  0  0  0  0  0
   -4.3836   21.6332  -28.2237 H   0  0  0  0  0  0  0  0  0  0  0  0
   -2.4408   22.2008  -26.7639 H   0  0  0  0  0  0  0  0  0  0  0  0
   -1.1221   24.2773  -27.1862 H   0  0  0  0  0  0  0  0  0  0  0  0
   -3.6898   25.2331  -30.5338 H   0  0  0  0  0  0  0  0  0  0  0  0
   -4.4580   21.1587  -30.9572 H   0  0  0  0  0  0  0  0  0  0  0  0
  1  2  2  0
  2  3  1  0
  3  4  1  0
  4  5  2  0
  5  6  1  0
  6  7  2  0
  7  8  1  0
  8  9  2  0
  9 10  1  0
 10 11  1  0
 11 12  1  0
 12 13  1  0
 13 14  1  0
 14 15  1  0
  2 16  1  0
 16 17  2  0
 17 18  1  0
 18 19  2  0
 19 20  1  0
 19 21  1  0
 21 22  1  0
 22 23  2  0
 23 24  1  0
 24 25  2  0
 25 26  1  0
 26 27  1  0
 26 28  2  0
 21 29  2  0
  9  4  1  0
 15 10  1  0
 29 16  1  0
 28 22  1  0
  3 30  1  0
  5 31  1  0
  6 32  1  0
  7 33  1  0
  8 34  1  0
 11 35  1  0
 11 36  1  0
 12 37  1  0
 12 38  1  0
 13 39  1  0
 14 40  1  0
 14 41  1  0
 15 42  1  0
 15 43  1  0
 17 44  1  0
 18 45  1  0
 23 46  1  0
 24 47  1  0
 25 48  1  0
 28 49  1  0
 29 50  1  0
M  CHG  1  27  -1
M  END
>  <UniqueID>  (38) 
35

>  <SMILES>  (38) 
O=C(Nc1ccccc1N1CCNCC1)c1ccc(Br)c(-c2cccc([O-])c2)c1

>  <Energy>  (38) 
76.62169495258384

>  <Genealogy>  (38) 
O=C(Nc1ccccc1N1CCNCC1)c1ccc(Br)c(-c2cccc([O-])c2)c1 (protonated)
O=C(Nc1ccccc1N1CCNCC1)c1ccc(Br)c(-c2cccc([O-])c2)c1 (3D coordinates assigned)
O=C(Nc1ccccc1N1CCNCC1)c1ccc(Br)c(-c2cccc([O-])c2)c1 (nonaromatic ring conformer: 76.62169495258384 kcal/mol)

>  <smiles>  (38) 
O=C(Nc1ccccc1N1CCNCC1)c1ccc(Br)c(-c2cccc(O)c2)c1

>  <score_type>  (38) 
oracle

>  <origin>  (38) 
adgpu

>  <m_score__min__energy>  (38) 
-12.57

>  <m_primary>  (38) 
energy

$$$$
38:0
     RDKit          3D

 31 33  0  0  0  0  0  0  0  0999 V2000
   -2.6240   19.3010  -33.3700 C   0  0  0  0  0  0  0  0  0  0  0  0
   -3.8160   19.2180  -34.1450 O   0  0  0  0  0  0  0  0  0  0  0  0
   -4.8270   18.2590  -33.9600 C   0  0  0  0  0  0  0  0  0  0  0  0
   -4.6870   16.9460  -34.4580 C   0  0  0  0  0  0  0  0  0  0  0  0
   -5.6980   16.0040  -34.2680 C   0  0  0  0  0  0  0  0  0  0  0  0
   -6.8600   16.3530  -33.5830 C   0  0  0  0  0  0  0  0  0  0  0  0
   -7.0150   17.6470  -33.0830 C   0  0  0  0  0  0  0  0  0  0  0  0
   -6.0080   18.6140  -33.2630 C   0  0  0  0  0  0  0  0  0  0  0  0
   -6.2150   19.9800  -32.7150 C   0  0  0  0  0  0  0  0  0  0  0  0
   -7.4190   20.5680  -32.5670 N   0  0  0  0  0  0  0  0  0  0  0  0
   -7.1870   21.7610  -32.0560 N   0  0  0  0  0  0  0  0  0  0  0  0
   -5.8560   21.8900  -31.8970 C   0  0  0  0  0  0  0  0  0  0  0  0
   -5.1670   23.0850  -31.3480 C   0  0  0  0  0  0  0  0  0  0  0  0
   -5.7630   24.3580  -31.3850 C   0  0  0  0  0  0  0  0  0  0  0  0
   -5.0820   25.4580  -30.8580 C   0  0  0  0  0  0  0  0  0  0  0  0
   -3.8480   25.2990  -30.3120 N   0  0  0  0  0  0  0  0  0  0  0  0
   -3.2430   24.0840  -30.2590 C   0  0  0  0  0  0  0  0  0  0  0  0
   -2.0990   23.9760  -29.7450 O   0  0  0  0  0  0  0  0  0  0  0  0
   -3.8900   22.9570  -30.7760 C   0  0  0  0  0  0  0  0  0  0  0  0
   -5.2060   20.7800  -32.3050 N   0  0  0  0  0  0  0  0  0  0  0  0
   -2.8801   19.2832  -32.3004 H   0  0  0  0  0  0  0  0  0  0  0  0
   -1.9732   18.4460  -33.6055 H   0  0  0  0  0  0  0  0  0  0  0  0
   -2.0980   20.2379  -33.6055 H   0  0  0  0  0  0  0  0  0  0  0  0
   -3.7729   16.6631  -35.0006 H   0  0  0  0  0  0  0  0  0  0  0  0
   -5.5776   14.9832  -34.6599 H   0  0  0  0  0  0  0  0  0  0  0  0
   -7.6560   15.6081  -33.4361 H   0  0  0  0  0  0  0  0  0  0  0  0
   -7.9348   17.9142  -32.5420 H   0  0  0  0  0  0  0  0  0  0  0  0
   -7.9340   22.4520  -31.8300 H   0  0  0  0  0  0  0  0  0  0  0  0
   -6.7618   24.4872  -31.8273 H   0  0  0  0  0  0  0  0  0  0  0  0
   -5.5458   26.4551  -30.8851 H   0  0  0  0  0  0  0  0  0  0  0  0
   -3.4004   21.9728  -30.7349 H   0  0  0  0  0  0  0  0  0  0  0  0
  1  2  1  0
  2  3  1  0
  3  4  2  0
  4  5  1  0
  5  6  2  0
  6  7  1  0
  7  8  2  0
  8  9  1  0
  9 10  2  0
 10 11  1  0
 11 12  1  0
 12 13  1  0
 13 14  1  0
 14 15  2  0
 15 16  1  0
 16 17  1  0
 17 18  2  0
 17 19  1  0
 12 20  2  0
  8  3  1  0
 20  9  1  0
 19 13  2  0
  1 21  1  0
  1 22  1  0
  1 23  1  0
  4 24  1  0
  5 25  1  0
  6 26  1  0
  7 27  1  0
 11 28  1  0
 14 29  1  0
 15 30  1  0
 19 31  1  0
M  CHG  1  16  -1
M  END
>  <UniqueID>  (39) 
36

>  <SMILES>  (39) 
COc1ccccc1-c1n[nH]c(-c2cc[n-]c(=O)c2)n1

>  <Energy>  (39) 
70.40904346066549

>  <Genealogy>  (39) 
COc1ccccc1-c1n[nH]c(-c2cc[n-]c(=O)c2)n1 (protonated)
COc1ccccc1-c1n[nH]c(-c2cc[n-]c(=O)c2)n1 (3D coordinates assigned)
COc1ccccc1-c1n[nH]c(-c2cc[n-]c(=O)c2)n1 (optimized conformer: 70.40904346066549 kcal/mol)

>  <smiles>  (39) 
COc1ccccc1-c1n[nH]c(-c2cc[nH]c(=O)c2)n1

>  <score_type>  (39) 
oracle

>  <origin>  (39) 
adgpu

>  <m_score__min__energy>  (39) 
-8.4900000000000002

>  <m_primary>  (39) 
energy

$$$$
39:0
     RDKit          3D

 56 58  0  0  0  0  0  0  0  0999 V2000
   -7.8780   24.5402  -28.8898 H   0  0  0  0  0  0  0  0  0  0  0  0
   -7.1650   24.3910  -29.7140 C   0  0  0  0  0  0  0  0  0  0  0  0
   -5.9820   25.1340  -29.7570 C   0  0  0  0  0  0  0  0  0  0  0  0
   -5.7670   25.8716  -28.9698 H   0  0  0  0  0  0  0  0  0  0  0  0
   -5.0720   24.9400  -30.8000 C   0  0  0  0  0  0  0  0  0  0  0  0
   -3.8920   25.6730  -30.8390 O   0  0  0  0  0  0  0  0  0  0  0  0
   -5.3490   24.0070  -31.8060 C   0  0  0  0  0  0  0  0  0  0  0  0
   -4.6268   23.8507  -32.6208 H   0  0  0  0  0  0  0  0  0  0  0  0
   -6.5410   23.2710  -31.7810 C   0  0  0  0  0  0  0  0  0  0  0  0
   -6.7730   22.3330  -32.7970 O   0  0  0  0  0  0  0  0  0  0  0  0
   -6.3500   20.9950  -32.7800 C   0  0  0  0  0  0  0  0  0  0  0  0
   -7.2830   19.9430  -32.7550 C   0  0  0  0  0  0  0  0  0  0  0  0
   -8.3574   20.1674  -32.6829 H   0  0  0  0  0  0  0  0  0  0  0  0
   -6.8550   18.6160  -32.8210 C   0  0  0  0  0  0  0  0  0  0  0  0
   -7.5939   17.8013  -32.8039 H   0  0  0  0  0  0  0  0  0  0  0  0
   -5.4870   18.3160  -32.9090 C   0  0  0  0  0  0  0  0  0  0  0  0
   -5.0350   16.9590  -33.0430 N   0  0  0  0  0  0  0  0  0  0  0  0
   -4.5150   16.7440  -33.9220 H   0  0  0  0  0  0  0  0  0  0  0  0
   -5.2140   16.0230  -32.1430 C   0  0  0  0  0  0  0  0  0  0  0  0
   -5.7410   16.3370  -30.8450 N   0  0  0  0  0  0  0  0  0  0  0  0
   -5.9540   15.5690  -30.1710 H   0  0  0  0  0  0  0  0  0  0  0  0
   -5.8250   17.3170  -30.4980 H   0  0  0  0  0  0  0  0  0  0  0  0
   -4.8220   14.6600  -32.4020 N   0  0  0  0  0  0  0  0  0  0  0  0
   -4.8010   13.9970  -31.5960 H   0  0  0  0  0  0  0  0  0  0  0  0
   -4.5050   14.1150  -33.7240 C   0  0  0  0  0  0  0  0  0  0  0  0
   -3.5908   13.5072  -33.6546 H   0  0  0  0  0  0  0  0  0  0  0  0
   -4.3552   14.9496  -34.4247 H   0  0  0  0  0  0  0  0  0  0  0  0
   -5.6560   13.2380  -34.2380 C   0  0  0  0  0  0  0  0  0  0  0  0
   -5.8981   12.4883  -33.4703 H   0  0  0  0  0  0  0  0  0  0  0  0
   -5.3237   12.7659  -35.1743 H   0  0  0  0  0  0  0  0  0  0  0  0
   -6.9210   14.0500  -34.5490 C   0  0  0  0  0  0  0  0  0  0  0  0
   -6.6296   14.9633  -35.0885 H   0  0  0  0  0  0  0  0  0  0  0  0
   -7.4110   14.2829  -33.5921 H   0  0  0  0  0  0  0  0  0  0  0  0
   -7.9220   13.2740  -35.4050 C   0  0  0  0  0  0  0  0  0  0  0  0
   -8.6211   12.7321  -34.7511 H   0  0  0  0  0  0  0  0  0  0  0  0
   -8.4829   13.9756  -36.0399 H   0  0  0  0  0  0  0  0  0  0  0  0
   -7.3823   12.5559  -36.0399 H   0  0  0  0  0  0  0  0  0  0  0  0
   -4.5590   19.3620  -32.9740 C   0  0  0  0  0  0  0  0  0  0  0  0
   -3.4909   19.1335  -33.1044 H   0  0  0  0  0  0  0  0  0  0  0  0
   -4.9740   20.6960  -32.8750 C   0  0  0  0  0  0  0  0  0  0  0  0
   -3.9800   21.7280  -32.9300 N   0  0  0  0  0  0  0  0  0  0  0  0
   -2.6960   21.6720  -32.2930 C   0  0  0  0  0  0  0  0  0  0  0  0
   -1.6600   21.4740  -32.9870 O   0  0  0  0  0  0  0  0  0  0  0  0
   -2.5780   21.8910  -30.8330 C   0  0  0  0  0  0  0  0  0  0  0  0
   -2.3220   23.1770  -30.3220 C   0  0  0  0  0  0  0  0  0  0  0  0
   -2.2116   24.0268  -31.0117 H   0  0  0  0  0  0  0  0  0  0  0  0
   -2.2070   23.3820  -28.9430 C   0  0  0  0  0  0  0  0  0  0  0  0
   -1.8880   24.9910  -28.3200 Cl  0  0  0  0  0  0  0  0  0  0  0  0
   -2.3440   22.3070  -28.0610 C   0  0  0  0  0  0  0  0  0  0  0  0
   -2.2535   22.4700  -26.9769 H   0  0  0  0  0  0  0  0  0  0  0  0
   -2.5960   21.0250  -28.5560 C   0  0  0  0  0  0  0  0  0  0  0  0
   -2.7680   19.6760  -27.4460 Cl  0  0  0  0  0  0  0  0  0  0  0  0
   -2.7120   20.8150  -29.9350 C   0  0  0  0  0  0  0  0  0  0  0  0
   -2.9090   19.8033  -30.3194 H   0  0  0  0  0  0  0  0  0  0  0  0
   -7.4430   23.4580  -30.7180 C   0  0  0  0  0  0  0  0  0  0  0  0
   -8.3705   22.8682  -30.6763 H   0  0  0  0  0  0  0  0  0  0  0  0
  1  2  1  0
  2  3  2  0
  3  4  1  0
  3  5  1  0
  5  6  1  0
  5  7  2  0
  7  8  1  0
  7  9  1  0
  9 10  1  0
 10 11  1  0
 11 12  2  0
 12 13  1  0
 12 14  1  0
 14 15  1  0
 14 16  2  0
 16 17  1  0
 17 18  1  0
 17 19  2  0
 19 20  1  0
 20 21  1  0
 20 22  1  0
 19 23  1  0
 23 24  1  0
 23 25  1  0
 25 26  1  0
 25 27  1  0
 25 28  1  0
 28 29  1  0
 28 30  1  0
 28 31  1  0
 31 32  1  0
 31 33  1  0
 31 34  1  0
 34 35  1  0
 34 36  1  0
 34 37  1  0
 16 38  1  0
 38 39  1  0
 38 40  2  0
 40 41  1  0
 41 42  1  0
 42 43  2  0
 42 44  1  0
 44 45  2  0
 45 46  1  0
 45 47  1  0
 47 48  1  0
 47 49  2  0
 49 50  1  0
 49 51  1  0
 51 52  1  0
 51 53  2  0
 53 54  1  0
  9 55  2  0
 55 56  1  0
 55  2  1  0
 40 11  1  0
 53 44  1  0
M  CHG  3   6  -1  17   1  41  -1
M  END
>  <UniqueID>  (40) 
37

>  <SMILES>  (40) 
CCCCN/C(N)=[NH+]/c1ccc(Oc2cccc([O-])c2)c([N-]C(=O)c2cc(Cl)cc(Cl)c2)c1

>  <Energy>  (40) 
70.08772449583957

>  <Genealogy>  (40) 
CCCCNC(N)=[NH+]c1ccc(Oc2cccc([O-])c2)c([N-]C(=O)c2cc(Cl)cc(Cl)c2)c1 (protonated)
CCCCN/C(N)=[NH+]/c1ccc(Oc2cccc([O-])c2)c([N-]C(=O)c2cc(Cl)cc(Cl)c2)c1 (cis-trans isomerization)
CCCCN/C(N)=[NH+]/c1ccc(Oc2cccc([O-])c2)c([N-]C(=O)c2cc(Cl)cc(Cl)c2)c1 (3D coordinates assigned)
CCCCN/C(N)=[NH+]/c1ccc(Oc2cccc([O-])c2)c([N-]C(=O)c2cc(Cl)cc(Cl)c2)c1 (optimized conformer: 70.08772449583957 kcal/mol)

>  <smiles>  (40) 
CCCCNC(N)=Nc1ccc(Oc2cccc(O)c2)c(NC(=O)c2cc(Cl)cc(Cl)c2)c1

>  <score_type>  (40) 
oracle

>  <origin>  (40) 
adgpu

>  <m_score__min__energy>  (40) 
-11.35

>  <m_primary>  (40) 
energy

$$$$
40:0
     RDKit          3D

 39 40  0  0  0  0  0  0  0  0999 V2000
   -5.3540   25.6150  -30.5370 C   0  0  0  0  0  0  0  0  0  0  0  0
   -3.9350   25.2920  -30.3620 N   0  0  0  0  0  0  0  0  0  0  0  0
   -3.7460   23.9480  -29.7950 C   0  0  0  0  0  0  0  0  0  0  0  0
   -3.9540   22.8620  -30.8240 C   0  0  0  0  0  0  0  0  0  0  0  0
   -2.9040   22.4790  -31.6680 C   0  0  0  0  0  0  0  0  0  0  0  0
   -3.0820   21.4560  -32.6020 C   0  0  0  0  0  0  0  0  0  0  0  0
   -4.3200   20.7930  -32.7060 C   0  0  0  0  0  0  0  0  0  0  0  0
   -4.5290   19.7450  -33.6170 O   0  0  0  0  0  0  0  0  0  0  0  0
   -3.6810   18.6090  -33.7480 C   0  0  0  0  0  0  0  0  0  0  0  0
   -5.3800   21.1860  -31.8670 C   0  0  0  0  0  0  0  0  0  0  0  0
   -6.6920   20.5140  -31.9500 C   0  0  0  0  0  0  0  0  0  0  0  0
   -6.7220   19.1110  -31.9890 C   0  0  0  0  0  0  0  0  0  0  0  0
   -7.9390   18.4330  -32.0850 C   0  0  0  0  0  0  0  0  0  0  0  0
   -9.1340   19.1480  -32.1420 C   0  0  0  0  0  0  0  0  0  0  0  0
   -9.1190   20.5440  -32.0940 C   0  0  0  0  0  0  0  0  0  0  0  0
   -7.9050   21.2430  -31.9910 C   0  0  0  0  0  0  0  0  0  0  0  0
   -7.9350   23.0120  -31.8990 S   0  0  0  0  0  0  0  0  0  0  0  0
   -6.7540   23.6820  -32.9710 N   0  0  0  0  0  0  0  0  0  0  0  0
   -9.3000   23.5150  -32.2740 O   0  0  0  0  0  0  0  0  0  0  0  0
   -7.6190   23.4600  -30.5000 O   0  0  0  0  0  0  0  0  0  0  0  0
   -5.1890   22.2040  -30.9230 C   0  0  0  0  0  0  0  0  0  0  0  0
   -5.8297   25.7233  -29.5511 H   0  0  0  0  0  0  0  0  0  0  0  0
   -5.4493   26.5578  -31.0956 H   0  0  0  0  0  0  0  0  0  0  0  0
   -5.8479   24.8063  -31.0956 H   0  0  0  0  0  0  0  0  0  0  0  0
   -3.5050   26.0030  -29.7260 H   0  0  0  0  0  0  0  0  0  0  0  0
   -2.7224   23.8706  -29.3998 H   0  0  0  0  0  0  0  0  0  0  0  0
   -4.4929   23.8081  -28.9997 H   0  0  0  0  0  0  0  0  0  0  0  0
   -1.9315   22.9879  -31.5947 H   0  0  0  0  0  0  0  0  0  0  0  0
   -2.2499   21.1663  -33.2606 H   0  0  0  0  0  0  0  0  0  0  0  0
   -3.4055   18.2399  -32.7490 H   0  0  0  0  0  0  0  0  0  0  0  0
   -4.2109   17.8174  -34.2981 H   0  0  0  0  0  0  0  0  0  0  0  0
   -2.7714   18.8919  -34.2981 H   0  0  0  0  0  0  0  0  0  0  0  0
   -5.7814   18.5425  -31.9437 H   0  0  0  0  0  0  0  0  0  0  0  0
   -7.9545   17.3335  -32.1157 H   0  0  0  0  0  0  0  0  0  0  0  0
  -10.0909   18.6119  -32.2250 H   0  0  0  0  0  0  0  0  0  0  0  0
  -10.0666   21.1010  -32.1373 H   0  0  0  0  0  0  0  0  0  0  0  0
   -6.0210   22.9520  -33.1140 H   0  0  0  0  0  0  0  0  0  0  0  0
   -7.2240   23.8260  -33.8920 H   0  0  0  0  0  0  0  0  0  0  0  0
   -6.0143   22.4895  -30.2541 H   0  0  0  0  0  0  0  0  0  0  0  0
  1  2  1  0
  2  3  1  0
  3  4  1  0
  4  5  2  0
  5  6  1  0
  6  7  2  0
  7  8  1  0
  8  9  1  0
  7 10  1  0
 10 11  1  0
 11 12  2  0
 12 13  1  0
 13 14  2  0
 14 15  1  0
 15 16  2  0
 16 17  1  0
 17 18  1  0
 17 19  2  0
 17 20  2  0
 10 21  2  0
 21  4  1  0
 16 11  1  0
  1 22  1  0
  1 23  1  0
  1 24  1  0
  2 25  1  0
  3 26  1  0
  3 27  1  0
  5 28  1  0
  6 29  1  0
  9 30  1  0
  9 31  1  0
  9 32  1  0
 12 33  1  0
 13 34  1  0
 14 35  1  0
 15 36  1  0
 18 37  1  0
 18 38  1  0
 21 39  1  0
M  END
>  <UniqueID>  (41) 
38

>  <SMILES>  (41) 
CNCc1ccc(OC)c(-c2ccccc2S(N)(=O)=O)c1

>  <Energy>  (41) 
44.31147432778821

>  <Genealogy>  (41) 
CNCc1ccc(OC)c(-c2ccccc2S(N)(=O)=O)c1 (3D coordinates assigned)
CNCc1ccc(OC)c(-c2ccccc2S(N)(=O)=O)c1 (optimized conformer: 44.31147432778821 kcal/mol)

>  <smiles>  (41) 
CNCc1ccc(OC)c(-c2ccccc2S(N)(=O)=O)c1

>  <score_type>  (41) 
oracle

>  <origin>  (41) 
adgpu

>  <m_score__min__energy>  (41) 
-8.6400000000000006

>  <m_primary>  (41) 
energy

$$$$
41:0
     RDKit          3D

 44 46  0  0  0  0  0  0  0  0999 V2000
    4.1460   23.8870  -35.5260 C   0  0  0  0  0  0  0  0  0  0  0  0
    3.6550   22.6740  -36.0840 O   0  0  0  0  0  0  0  0  0  0  0  0
    2.4530   22.0560  -35.7090 C   0  0  0  0  0  0  0  0  0  0  0  0
    2.4150   20.7870  -35.1070 C   0  0  0  0  0  0  0  0  0  0  0  0
    1.1920   20.2150  -34.7450 C   0  0  0  0  0  0  0  0  0  0  0  0
   -0.0120   20.8980  -34.9850 C   0  0  0  0  0  0  0  0  0  0  0  0
   -1.2860   20.3590  -34.6100 N   0  0  0  0  0  0  0  0  0  0  0  0
   -2.0020   20.4740  -33.0330 S   0  0  0  0  0  0  0  0  0  0  0  0
   -1.9760   21.9090  -32.5870 O   0  0  0  0  0  0  0  0  0  0  0  0
   -1.2030   19.6600  -32.0510 O   0  0  0  0  0  0  0  0  0  0  0  0
   -3.6750   19.9300  -33.0910 C   0  0  0  0  0  0  0  0  0  0  0  0
   -3.9840   18.5640  -33.1320 C   0  0  0  0  0  0  0  0  0  0  0  0
   -5.3170   18.1510  -33.1780 C   0  0  0  0  0  0  0  0  0  0  0  0
   -6.3470   19.0950  -33.1600 C   0  0  0  0  0  0  0  0  0  0  0  0
   -6.0530   20.4600  -33.0990 C   0  0  0  0  0  0  0  0  0  0  0  0
   -7.1400   21.3940  -33.0310 N   0  0  0  0  0  0  0  0  0  0  0  0
   -7.5510   22.3460  -31.6390 S   0  0  0  0  0  0  0  0  0  0  0  0
   -8.0350   21.4400  -30.5440 O   0  0  0  0  0  0  0  0  0  0  0  0
   -8.6540   23.3040  -32.0070 O   0  0  0  0  0  0  0  0  0  0  0  0
   -6.1280   23.2120  -31.0640 C   0  0  0  0  0  0  0  0  0  0  0  0
   -5.0570   22.5180  -30.4770 C   0  0  0  0  0  0  0  0  0  0  0  0
   -3.9310   23.2150  -30.0240 C   0  0  0  0  0  0  0  0  0  0  0  0
   -3.8700   24.6050  -30.1570 C   0  0  0  0  0  0  0  0  0  0  0  0
   -2.7510   25.2960  -29.7090 O   0  0  0  0  0  0  0  0  0  0  0  0
   -4.9350   25.3000  -30.7410 C   0  0  0  0  0  0  0  0  0  0  0  0
   -6.0620   24.6050  -31.1930 C   0  0  0  0  0  0  0  0  0  0  0  0
   -4.7090   20.8750  -33.0860 C   0  0  0  0  0  0  0  0  0  0  0  0
    0.0290   22.1600  -35.5890 C   0  0  0  0  0  0  0  0  0  0  0  0
    1.2520   22.7350  -35.9490 C   0  0  0  0  0  0  0  0  0  0  0  0
    4.1199   23.8226  -34.4282 H   0  0  0  0  0  0  0  0  0  0  0  0
    5.1814   24.0512  -35.8592 H   0  0  0  0  0  0  0  0  0  0  0  0
    3.5163   24.7252  -35.8592 H   0  0  0  0  0  0  0  0  0  0  0  0
    3.3516   20.2414  -34.9198 H   0  0  0  0  0  0  0  0  0  0  0  0
    1.1722   19.2235  -34.2690 H   0  0  0  0  0  0  0  0  0  0  0  0
   -3.1765   17.8170  -33.1279 H   0  0  0  0  0  0  0  0  0  0  0  0
   -5.5571   17.0787  -33.2286 H   0  0  0  0  0  0  0  0  0  0  0  0
   -7.3949   18.7621  -33.1940 H   0  0  0  0  0  0  0  0  0  0  0  0
   -5.1034   21.4239  -30.3731 H   0  0  0  0  0  0  0  0  0  0  0  0
   -3.0944   22.6691  -29.5635 H   0  0  0  0  0  0  0  0  0  0  0  0
   -4.8860   26.3940  -30.8448 H   0  0  0  0  0  0  0  0  0  0  0  0
   -6.8982   25.1539  -31.6507 H   0  0  0  0  0  0  0  0  0  0  0  0
   -4.4685   21.9483  -33.0718 H   0  0  0  0  0  0  0  0  0  0  0  0
   -0.9076   22.7036  -35.7820 H   0  0  0  0  0  0  0  0  0  0  0  0
    1.2707   23.7271  -36.4238 H   0  0  0  0  0  0  0  0  0  0  0  0
  1  2  1  0
  2  3  1  0
  3  4  2  0
  4  5  1  0
  5  6  2  0
  6  7  1  0
  7  8  1  0
  8  9  2  0
  8 10  2  0
  8 11  1  0
 11 12  2  0
 12 13  1  0
 13 14  2  0
 14 15  1  0
 15 16  1  0
 16 17  1  0
 17 18  2  0
 17 19  2  0
 17 20  1  0
 20 21  2  0
 21 22  1  0
 22 23  2  0
 23 24  1  0
 23 25  1  0
 25 26  2  0
 15 27  2  0
  6 28  1  0
 28 29  2  0
 29  3  1  0
 27 11  1  0
 26 20  1  0
  1 30  1  0
  1 31  1  0
  1 32  1  0
  4 33  1  0
  5 34  1  0
 12 35  1  0
 13 36  1  0
 14 37  1  0
 21 38  1  0
 22 39  1  0
 25 40  1  0
 26 41  1  0
 27 42  1  0
 28 43  1  0
 29 44  1  0
M  CHG  3   7  -1  16  -1  24  -1
M  END
>  <UniqueID>  (42) 
39

>  <SMILES>  (42) 
COc1ccc([N-]S(=O)(=O)c2cccc([N-]S(=O)(=O)c3ccc([O-])cc3)c2)cc1

>  <Energy>  (42) 
52.23999194963102

>  <Genealogy>  (42) 
COc1ccc([N-]S(=O)(=O)c2cccc([N-]S(=O)(=O)c3ccc([O-])cc3)c2)cc1 (protonated)
COc1ccc([N-]S(=O)(=O)c2cccc([N-]S(=O)(=O)c3ccc([O-])cc3)c2)cc1 (3D coordinates assigned)
COc1ccc([N-]S(=O)(=O)c2cccc([N-]S(=O)(=O)c3ccc([O-])cc3)c2)cc1 (optimized conformer: 52.23999194963102 kcal/mol)

>  <smiles>  (42) 
COc1ccc(NS(=O)(=O)c2cccc(NS(=O)(=O)c3ccc(O)cc3)c2)cc1

>  <score_type>  (42) 
oracle

>  <origin>  (42) 
adgpu

>  <m_score__min__energy>  (42) 
-12.380000000000001

>  <m_primary>  (42) 
energy

$$$$
42:0
     RDKit          3D

 42 44  0  0  0  0  0  0  0  0999 V2000
   -8.3230   20.0190  -32.7210 C   0  0  0  0  0  0  0  0  0  0  0  0
   -6.8300   20.1630  -32.6910 C   0  0  0  0  0  0  0  0  0  0  0  0
   -6.0100   19.0810  -33.0340 C   0  0  0  0  0  0  0  0  0  0  0  0
   -4.6200   19.2230  -33.0410 C   0  0  0  0  0  0  0  0  0  0  0  0
   -4.0200   20.4560  -32.7140 C   0  0  0  0  0  0  0  0  0  0  0  0
   -2.5790   20.5890  -32.7180 N   0  0  0  0  0  0  0  0  0  0  0  0
   -1.8230   20.6130  -33.9750 C   0  0  0  0  0  0  0  0  0  0  0  0
   -1.9010   20.9640  -31.5080 C   0  0  0  0  0  0  0  0  0  0  0  0
   -2.2600   22.1130  -30.8780 N   0  0  0  0  0  0  0  0  0  0  0  0
   -1.6740   22.4950  -29.7140 C   0  0  0  0  0  0  0  0  0  0  0  0
   -2.1350   23.7340  -29.0190 C   0  0  0  0  0  0  0  0  0  0  0  0
   -3.4190   24.1990  -29.6240 C   0  0  0  0  0  0  0  0  0  0  0  0
   -4.6090   23.6060  -29.4110 N   0  0  0  0  0  0  0  0  0  0  0  0
   -5.4170   24.3610  -30.1840 C   0  0  0  0  0  0  0  0  0  0  0  0
   -6.8730   24.0920  -30.3660 C   0  0  0  0  0  0  0  0  0  0  0  0
   -4.7520   25.3320  -30.8400 N   0  0  0  0  0  0  0  0  0  0  0  0
   -3.5180   25.2000  -30.4630 O   0  0  0  0  0  0  0  0  0  0  0  0
   -0.7190   21.7100  -29.1490 N   0  0  0  0  0  0  0  0  0  0  0  0
   -0.3220   20.5480  -29.7330 C   0  0  0  0  0  0  0  0  0  0  0  0
    0.7240   19.7150  -29.0550 C   0  0  0  0  0  0  0  0  0  0  0  0
   -0.9190   20.1370  -30.9370 C   0  0  0  0  0  0  0  0  0  0  0  0
   -0.5060   18.5890  -31.6760 Cl  0  0  0  0  0  0  0  0  0  0  0  0
   -4.8560   21.5450  -32.3940 C   0  0  0  0  0  0  0  0  0  0  0  0
   -6.2450   21.3990  -32.3880 C   0  0  0  0  0  0  0  0  0  0  0  0
   -8.7085   19.9818  -31.6914 H   0  0  0  0  0  0  0  0  0  0  0  0
   -8.7638   20.8788  -33.2468 H   0  0  0  0  0  0  0  0  0  0  0  0
   -8.5914   19.0908  -33.2468 H   0  0  0  0  0  0  0  0  0  0  0  0
   -6.4625   18.1141  -33.2993 H   0  0  0  0  0  0  0  0  0  0  0  0
   -3.9868   18.3630  -33.3046 H   0  0  0  0  0  0  0  0  0  0  0  0
   -0.7459   20.6472  -33.7545 H   0  0  0  0  0  0  0  0  0  0  0  0
   -2.0496   19.7072  -34.5565 H   0  0  0  0  0  0  0  0  0  0  0  0
   -2.1066   21.5026  -34.5565 H   0  0  0  0  0  0  0  0  0  0  0  0
   -2.2900   23.5189  -27.9514 H   0  0  0  0  0  0  0  0  0  0  0  0
   -1.3733   24.5199  -29.1292 H   0  0  0  0  0  0  0  0  0  0  0  0
   -7.3553   24.0029  -29.3814 H   0  0  0  0  0  0  0  0  0  0  0  0
   -7.3318   24.9206  -30.9254 H   0  0  0  0  0  0  0  0  0  0  0  0
   -7.0055   23.1542  -30.9254 H   0  0  0  0  0  0  0  0  0  0  0  0
    0.6129   19.8034  -27.9642 H   0  0  0  0  0  0  0  0  0  0  0  0
    0.6038   18.6626  -29.3517 H   0  0  0  0  0  0  0  0  0  0  0  0
    1.7228   20.0678  -29.3517 H   0  0  0  0  0  0  0  0  0  0  0  0
   -4.4099   22.5196  -32.1465 H   0  0  0  0  0  0  0  0  0  0  0  0
   -6.8838   22.2605  -32.1437 H   0  0  0  0  0  0  0  0  0  0  0  0
  1  2  1  0
  2  3  2  0
  3  4  1  0
  4  5  2  0
  5  6  1  0
  6  7  1  0
  6  8  1  0
  8  9  2  0
  9 10  1  0
 10 11  1  0
 11 12  1  0
 12 13  2  0
 13 14  1  0
 14 15  1  0
 14 16  2  0
 16 17  1  0
 10 18  2  0
 18 19  1  0
 19 20  1  0
 19 21  2  0
 21 22  1  0
  5 23  1  0
 23 24  2  0
 24  2  1  0
 21  8  1  0
 17 12  1  0
  1 25  1  0
  1 26  1  0
  1 27  1  0
  3 28  1  0
  4 29  1  0
  7 30  1  0
  7 31  1  0
  7 32  1  0
 11 33  1  0
 11 34  1  0
 15 35  1  0
 15 36  1  0
 15 37  1  0
 20 38  1  0
 20 39  1  0
 20 40  1  0
 23 41  1  0
 24 42  1  0
M  END
>  <UniqueID>  (43) 
40

>  <SMILES>  (43) 
Cc1ccc(N(C)c2nc(Cc3nc(C)no3)nc(C)c2Cl)cc1

>  <Energy>  (43) 
81.37524380275752

>  <Genealogy>  (43) 
Cc1ccc(N(C)c2nc(Cc3nc(C)no3)nc(C)c2Cl)cc1 (3D coordinates assigned)
Cc1ccc(N(C)c2nc(Cc3nc(C)no3)nc(C)c2Cl)cc1 (optimized conformer: 81.37524380275752 kcal/mol)

>  <smiles>  (43) 
Cc1ccc(N(C)c2nc(Cc3nc(C)no3)nc(C)c2Cl)cc1

>  <score_type>  (43) 
oracle

>  <origin>  (43) 
adgpu

>  <m_score__min__energy>  (43) 
-8.6300000000000008

>  <m_primary>  (43) 
energy

$$$$
43:0
     RDKit          3D

 50 53  0  0  0  0  0  0  0  0999 V2000
   -0.4970   26.8000  -23.1270 C   0  0  0  0  0  0  0  0  0  0  0  0
   -0.7440   26.9770  -24.5940 C   0  0  0  0  0  0  0  0  0  0  0  0
   -1.2370   28.0610  -25.0030 O   0  0  0  0  0  0  0  0  0  0  0  0
   -0.4760   25.9360  -25.5430 N   0  0  0  0  0  0  0  0  0  0  0  0
   -1.3520   25.4730  -26.5800 C   0  0  0  0  0  0  0  0  0  0  0  0
   -2.6510   25.0190  -26.3010 C   0  0  0  0  0  0  0  0  0  0  0  0
   -3.4710   24.5470  -27.3310 C   0  0  0  0  0  0  0  0  0  0  0  0
   -3.0000   24.5020  -28.6550 C   0  0  0  0  0  0  0  0  0  0  0  0
   -3.8540   24.0040  -29.7620 C   0  0  0  0  0  0  0  0  0  0  0  0
   -4.3170   22.7120  -29.9450 C   0  0  0  0  0  0  0  0  0  0  0  0
   -5.0580   22.7870  -31.1110 C   0  0  0  0  0  0  0  0  0  0  0  0
   -5.7890   21.6910  -31.7890 C   0  0  0  0  0  0  0  0  0  0  0  0
   -7.1810   21.7860  -31.9510 C   0  0  0  0  0  0  0  0  0  0  0  0
   -7.8910   20.7650  -32.5860 C   0  0  0  0  0  0  0  0  0  0  0  0
   -7.2220   19.6380  -33.0670 C   0  0  0  0  0  0  0  0  0  0  0  0
   -5.8290   19.5200  -32.9180 C   0  0  0  0  0  0  0  0  0  0  0  0
   -5.1180   18.3230  -33.4310 C   0  0  0  0  0  0  0  0  0  0  0  0
   -5.7930   17.0980  -33.5680 C   0  0  0  0  0  0  0  0  0  0  0  0
   -5.1210   15.9530  -34.0250 C   0  0  0  0  0  0  0  0  0  0  0  0
   -5.8630   14.6490  -34.1960 C   0  0  0  0  0  0  0  0  0  0  0  0
   -5.7190   13.8530  -33.0720 F   0  0  0  0  0  0  0  0  0  0  0  0
   -7.2050   14.9130  -34.3930 F   0  0  0  0  0  0  0  0  0  0  0  0
   -5.3760   13.9480  -35.2850 F   0  0  0  0  0  0  0  0  0  0  0  0
   -3.7720   16.0550  -34.4030 C   0  0  0  0  0  0  0  0  0  0  0  0
   -3.0870   17.2770  -34.3000 C   0  0  0  0  0  0  0  0  0  0  0  0
   -1.6230   17.3640  -34.6520 C   0  0  0  0  0  0  0  0  0  0  0  0
   -0.8400   16.8780  -33.6180 F   0  0  0  0  0  0  0  0  0  0  0  0
   -1.3480   16.6210  -35.7870 F   0  0  0  0  0  0  0  0  0  0  0  0
   -1.2890   18.6840  -34.8860 F   0  0  0  0  0  0  0  0  0  0  0  0
   -3.7600   18.3970  -33.7860 C   0  0  0  0  0  0  0  0  0  0  0  0
   -5.1210   20.5520  -32.2760 C   0  0  0  0  0  0  0  0  0  0  0  0
   -5.0160   24.0230  -31.5500 O   0  0  0  0  0  0  0  0  0  0  0  0
   -4.3050   24.7800  -30.7670 N   0  0  0  0  0  0  0  0  0  0  0  0
   -1.6870   24.9290  -28.9220 C   0  0  0  0  0  0  0  0  0  0  0  0
   -0.8700   25.4010  -27.8900 C   0  0  0  0  0  0  0  0  0  0  0  0
   -1.2620   27.3482  -22.5576 H   0  0  0  0  0  0  0  0  0  0  0  0
   -0.5470   25.7309  -22.8731 H   0  0  0  0  0  0  0  0  0  0  0  0
    0.4993   27.1910  -22.8731 H   0  0  0  0  0  0  0  0  0  0  0  0
   -3.0257   25.0346  -25.2669 H   0  0  0  0  0  0  0  0  0  0  0  0
   -4.4925   24.2083  -27.1034 H   0  0  0  0  0  0  0  0  0  0  0  0
   -4.1375   21.8311  -29.3111 H   0  0  0  0  0  0  0  0  0  0  0  0
   -7.7155   22.6708  -31.5750 H   0  0  0  0  0  0  0  0  0  0  0  0
   -8.9810   20.8489  -32.7076 H   0  0  0  0  0  0  0  0  0  0  0  0
   -7.7882   18.8375  -33.5656 H   0  0  0  0  0  0  0  0  0  0  0  0
   -6.8614   17.0354  -33.3140 H   0  0  0  0  0  0  0  0  0  0  0  0
   -3.2458   15.1674  -34.7842 H   0  0  0  0  0  0  0  0  0  0  0  0
   -3.2171   19.3453  -33.6594 H   0  0  0  0  0  0  0  0  0  0  0  0
   -4.0312   20.4677  -32.1530 H   0  0  0  0  0  0  0  0  0  0  0  0
   -1.2996   24.8914  -29.9508 H   0  0  0  0  0  0  0  0  0  0  0  0
    0.1599   25.7181  -28.1108 H   0  0  0  0  0  0  0  0  0  0  0  0
  1  2  1  0
  2  3  2  0
  2  4  1  0
  4  5  1  0
  5  6  2  0
  6  7  1  0
  7  8  2  0
  8  9  1  0
  9 10  1  0
 10 11  2  0
 11 12  1  0
 12 13  2  0
 13 14  1  0
 14 15  2  0
 15 16  1  0
 16 17  1  0
 17 18  2  0
 18 19  1  0
 19 20  1  0
 20 21  1  0
 20 22  1  0
 20 23  1  0
 19 24  2  0
 24 25  1  0
 25 26  1  0
 26 27  1  0
 26 28  1  0
 26 29  1  0
 25 30  2  0
 16 31  2  0
 11 32  1  0
 32 33  1  0
  8 34  1  0
 34 35  2  0
 35  5  1  0
 33  9  2  0
 31 12  1  0
 30 17  1  0
  1 36  1  0
  1 37  1  0
  1 38  1  0
  6 39  1  0
  7 40  1  0
 10 41  1  0
 13 42  1  0
 14 43  1  0
 15 44  1  0
 18 45  1  0
 24 46  1  0
 30 47  1  0
 31 48  1  0
 34 49  1  0
 35 50  1  0
M  CHG  1   4  -1
M  END
>  <UniqueID>  (44) 
41

>  <SMILES>  (44) 
CC(=O)[N-]c1ccc(-c2cc(-c3cccc(-c4cc(C(F)(F)F)cc(C(F)(F)F)c4)c3)on2)cc1

>  <Energy>  (44) 
97.04566614337782

>  <Genealogy>  (44) 
CC(=O)[N-]c1ccc(-c2cc(-c3cccc(-c4cc(C(F)(F)F)cc(C(F)(F)F)c4)c3)on2)cc1 (protonated)
CC(=O)[N-]c1ccc(-c2cc(-c3cccc(-c4cc(C(F)(F)F)cc(C(F)(F)F)c4)c3)on2)cc1 (3D coordinates assigned)
CC(=O)[N-]c1ccc(-c2cc(-c3cccc(-c4cc(C(F)(F)F)cc(C(F)(F)F)c4)c3)on2)cc1 (optimized conformer: 97.04566614337782 kcal/mol)

>  <smiles>  (44) 
CC(=O)Nc1ccc(-c2cc(-c3cccc(-c4cc(C(F)(F)F)cc(C(F)(F)F)c4)c3)on2)cc1

>  <score_type>  (44) 
oracle

>  <origin>  (44) 
adgpu

>  <m_score__min__energy>  (44) 
-9.0600000000000005

>  <m_primary>  (44) 
energy

$$$$
44:0
     RDKit          3D

 34 36  0  0  0  0  0  0  0  0999 V2000
   -7.8290   17.8050  -31.9370 C   0  0  0  0  0  0  0  0  0  0  0  0
   -9.1330   18.5510  -32.1950 C   0  0  0  0  0  0  0  0  0  0  0  0
   -8.8770   19.8440  -32.7430 O   0  0  0  0  0  0  0  0  0  0  0  0
   -7.9620   20.7860  -32.2380 C   0  0  0  0  0  0  0  0  0  0  0  0
   -8.3110   21.7100  -31.2350 C   0  0  0  0  0  0  0  0  0  0  0  0
   -7.3750   22.6300  -30.7580 C   0  0  0  0  0  0  0  0  0  0  0  0
   -6.0690   22.6470  -31.2700 C   0  0  0  0  0  0  0  0  0  0  0  0
   -5.0790   23.6230  -30.7650 C   0  0  0  0  0  0  0  0  0  0  0  0
   -4.9730   24.8900  -31.2180 N   0  0  0  0  0  0  0  0  0  0  0  0
   -4.0030   25.4110  -30.5320 O   0  0  0  0  0  0  0  0  0  0  0  0
   -3.5270   24.5220  -29.6980 C   0  0  0  0  0  0  0  0  0  0  0  0
   -2.4230   24.7680  -28.7670 C   0  0  0  0  0  0  0  0  0  0  0  0
   -2.1360   24.0240  -27.6410 C   0  0  0  0  0  0  0  0  0  0  0  0
   -1.0240   24.6160  -27.0810 C   0  0  0  0  0  0  0  0  0  0  0  0
   -0.7040   25.6810  -27.9000 C   0  0  0  0  0  0  0  0  0  0  0  0
   -1.5560   25.7460  -28.8960 O   0  0  0  0  0  0  0  0  0  0  0  0
   -4.1770   23.3470  -29.7980 N   0  0  0  0  0  0  0  0  0  0  0  0
   -5.7150   21.7250  -32.2680 C   0  0  0  0  0  0  0  0  0  0  0  0
   -6.6510   20.7950  -32.7510 C   0  0  0  0  0  0  0  0  0  0  0  0
   -6.2550   19.8170  -33.8230 C   0  0  0  0  0  0  0  0  0  0  0  0
   -7.6677   17.7127  -30.8528 H   0  0  0  0  0  0  0  0  0  0  0  0
   -7.8851   16.8024  -32.3860 H   0  0  0  0  0  0  0  0  0  0  0  0
   -6.9932   18.3616  -32.3860 H   0  0  0  0  0  0  0  0  0  0  0  0
   -9.7448   17.9735  -32.9037 H   0  0  0  0  0  0  0  0  0  0  0  0
   -9.6652   18.6717  -31.2399 H   0  0  0  0  0  0  0  0  0  0  0  0
   -9.3309   21.7073  -30.8230 H   0  0  0  0  0  0  0  0  0  0  0  0
   -7.6638   23.3466  -29.9751 H   0  0  0  0  0  0  0  0  0  0  0  0
   -2.6801   23.1436  -27.2684 H   0  0  0  0  0  0  0  0  0  0  0  0
   -0.4981   24.3034  -26.1669 H   0  0  0  0  0  0  0  0  0  0  0  0
    0.1381   26.3708  -27.7414 H   0  0  0  0  0  0  0  0  0  0  0  0
   -4.6936   21.7308  -32.6763 H   0  0  0  0  0  0  0  0  0  0  0  0
   -5.8811   18.8935  -33.3568 H   0  0  0  0  0  0  0  0  0  0  0  0
   -7.1297   19.5841  -34.4481 H   0  0  0  0  0  0  0  0  0  0  0  0
   -5.4647   20.2582  -34.4481 H   0  0  0  0  0  0  0  0  0  0  0  0
  1  2  1  0
  2  3  1  0
  3  4  1  0
  4  5  2  0
  5  6  1  0
  6  7  2  0
  7  8  1  0
  8  9  2  0
  9 10  1  0
 10 11  1  0
 11 12  1  0
 12 13  2  0
 13 14  1  0
 14 15  2  0
 15 16  1  0
 11 17  2  0
  7 18  1  0
 18 19  2  0
 19 20  1  0
 19  4  1  0
 17  8  1  0
 16 12  1  0
  1 21  1  0
  1 22  1  0
  1 23  1  0
  2 24  1  0
  2 25  1  0
  5 26  1  0
  6 27  1  0
 13 28  1  0
 14 29  1  0
 15 30  1  0
 18 31  1  0
 20 32  1  0
 20 33  1  0
 20 34  1  0
M  END
>  <UniqueID>  (45) 
42

>  <SMILES>  (45) 
CCOc1ccc(-c2noc(-c3ccco3)n2)cc1C

>  <Energy>  (45) 
92.32753546845092

>  <Genealogy>  (45) 
CCOc1ccc(-c2noc(-c3ccco3)n2)cc1C (3D coordinates assigned)
CCOc1ccc(-c2noc(-c3ccco3)n2)cc1C (optimized conformer: 92.32753546845092 kcal/mol)

>  <smiles>  (45) 
CCOc1ccc(-c2noc(-c3ccco3)n2)cc1C

>  <score_type>  (45) 
oracle

>  <origin>  (45) 
adgpu

>  <m_score__min__energy>  (45) 
-8.7799999999999994

>  <m_primary>  (45) 
energy

$$$$
45:0
     RDKit          3D

 45 48  0  0  0  0  0  0  0  0999 V2000
   -4.1950   14.5690  -34.3110 C   0  0  0  0  0  0  0  0  0  0  0  0
   -4.9110   15.8750  -34.2570 C   0  0  0  0  0  0  0  0  0  0  0  0
   -4.6390   16.9100  -35.0750 N   0  0  0  0  0  0  0  0  0  0  0  0
   -5.4300   17.8600  -34.6790 O   0  0  0  0  0  0  0  0  0  0  0  0
   -6.1480   17.4450  -33.6640 C   0  0  0  0  0  0  0  0  0  0  0  0
   -7.1440   18.2750  -32.9690 C   0  0  0  0  0  0  0  0  0  0  0  0
   -7.0650   19.6760  -32.9930 C   0  0  0  0  0  0  0  0  0  0  0  0
   -8.0260   20.4370  -32.3200 C   0  0  0  0  0  0  0  0  0  0  0  0
   -7.9430   21.8360  -32.3800 O   0  0  0  0  0  0  0  0  0  0  0  0
   -6.8970   22.6100  -31.8570 C   0  0  0  0  0  0  0  0  0  0  0  0
   -7.2080   23.8100  -31.2080 C   0  0  0  0  0  0  0  0  0  0  0  0
   -6.1930   24.6170  -30.6840 C   0  0  0  0  0  0  0  0  0  0  0  0
   -4.8520   24.2320  -30.8010 C   0  0  0  0  0  0  0  0  0  0  0  0
   -3.8330   25.1020  -30.2880 N   0  0  0  0  0  0  0  0  0  0  0  0
   -3.0670   24.8860  -29.0980 C   0  0  0  0  0  0  0  0  0  0  0  0
   -3.5640   24.1840  -28.1790 O   0  0  0  0  0  0  0  0  0  0  0  0
   -1.7430   25.4350  -28.9660 N   0  0  0  0  0  0  0  0  0  0  0  0
   -0.9280   25.3000  -27.7890 C   0  0  0  0  0  0  0  0  0  0  0  0
    0.1340   24.3820  -27.7910 C   0  0  0  0  0  0  0  0  0  0  0  0
    0.9290   24.2160  -26.6530 C   0  0  0  0  0  0  0  0  0  0  0  0
    0.6600   24.9530  -25.4980 C   0  0  0  0  0  0  0  0  0  0  0  0
   -0.4110   25.8500  -25.4750 C   0  0  0  0  0  0  0  0  0  0  0  0
   -1.2090   26.0200  -26.6120 C   0  0  0  0  0  0  0  0  0  0  0  0
   -4.5330   23.0510  -31.4930 C   0  0  0  0  0  0  0  0  0  0  0  0
   -5.5490   22.2430  -32.0130 C   0  0  0  0  0  0  0  0  0  0  0  0
   -9.0720   19.7810  -31.6500 C   0  0  0  0  0  0  0  0  0  0  0  0
   -9.1170   18.3860  -31.6470 C   0  0  0  0  0  0  0  0  0  0  0  0
   -8.1630   17.6720  -32.2980 N   0  0  0  0  0  0  0  0  0  0  0  0
   -5.8530   16.1700  -33.3380 N   0  0  0  0  0  0  0  0  0  0  0  0
   -4.0008   14.2147  -33.2879 H   0  0  0  0  0  0  0  0  0  0  0  0
   -4.8154   13.8324  -34.8425 H   0  0  0  0  0  0  0  0  0  0  0  0
   -3.2403   14.6959  -34.8425 H   0  0  0  0  0  0  0  0  0  0  0  0
   -6.2501   20.1737  -33.5392 H   0  0  0  0  0  0  0  0  0  0  0  0
   -8.2585   24.1209  -31.1092 H   0  0  0  0  0  0  0  0  0  0  0  0
   -6.4496   25.5590  -30.1773 H   0  0  0  0  0  0  0  0  0  0  0  0
   -1.3700   26.0290  -29.7390 H   0  0  0  0  0  0  0  0  0  0  0  0
    0.3421   23.7893  -28.6940 H   0  0  0  0  0  0  0  0  0  0  0  0
    1.7673   23.5040  -26.6676 H   0  0  0  0  0  0  0  0  0  0  0  0
    1.2914   24.8274  -24.6060 H   0  0  0  0  0  0  0  0  0  0  0  0
   -0.6273   26.4236  -24.5616 H   0  0  0  0  0  0  0  0  0  0  0  0
   -2.0585   26.7183  -26.5861 H   0  0  0  0  0  0  0  0  0  0  0  0
   -3.4802   22.7612  -31.6260 H   0  0  0  0  0  0  0  0  0  0  0  0
   -5.2922   21.3160  -32.5466 H   0  0  0  0  0  0  0  0  0  0  0  0
   -9.8492   20.3620  -31.1320 H   0  0  0  0  0  0  0  0  0  0  0  0
   -9.9268   17.8640  -31.1163 H   0  0  0  0  0  0  0  0  0  0  0  0
  1  2  1  0
  2  3  2  0
  3  4  1  0
  4  5  1  0
  5  6  1  0
  6  7  2  0
  7  8  1  0
  8  9  1  0
  9 10  1  0
 10 11  2  0
 11 12  1  0
 12 13  2  0
 13 14  1  0
 14 15  1  0
 15 16  2  0
 15 17  1  0
 17 18  1  0
 18 19  2  0
 19 20  1  0
 20 21  2  0
 21 22  1  0
 22 23  2  0
 13 24  1  0
 24 25  2  0
  8 26  2  0
 26 27  1  0
 27 28  2  0
  5 29  2  0
 29  2  1  0
 28  6  1  0
 25 10  1  0
 23 18  1  0
  1 30  1  0
  1 31  1  0
  1 32  1  0
  7 33  1  0
 11 34  1  0
 12 35  1  0
 17 36  1  0
 19 37  1  0
 20 38  1  0
 21 39  1  0
 22 40  1  0
 23 41  1  0
 24 42  1  0
 25 43  1  0
 26 44  1  0
 27 45  1  0
M  CHG  1  14  -1
M  END
>  <UniqueID>  (46) 
43

>  <SMILES>  (46) 
Cc1noc(-c2cc(Oc3ccc([N-]C(=O)Nc4ccccc4)cc3)ccn2)n1

>  <Energy>  (46) 
96.15253634941404

>  <Genealogy>  (46) 
Cc1noc(-c2cc(Oc3ccc([N-]C(=O)Nc4ccccc4)cc3)ccn2)n1 (protonated)
Cc1noc(-c2cc(Oc3ccc([N-]C(=O)Nc4ccccc4)cc3)ccn2)n1 (3D coordinates assigned)
Cc1noc(-c2cc(Oc3ccc([N-]C(=O)Nc4ccccc4)cc3)ccn2)n1 (optimized conformer: 96.15253634941404 kcal/mol)

>  <smiles>  (46) 
Cc1noc(-c2cc(Oc3ccc(NC(=O)Nc4ccccc4)cc3)ccn2)n1

>  <score_type>  (46) 
oracle

>  <origin>  (46) 
adgpu

>  <m_score__min__energy>  (46) 
-10.98

>  <m_primary>  (46) 
energy

$$$$
46:0
     RDKit          3D

 33 35  0  0  0  0  0  0  0  0999 V2000
   -5.7500   25.6770  -30.3720 S   0  0  0  0  0  0  0  0  0  0  0  0
   -5.1350   24.1860  -30.6610 C   0  0  0  0  0  0  0  0  0  0  0  0
   -3.8600   23.9460  -30.8450 O   0  0  0  0  0  0  0  0  0  0  0  0
   -3.7790   22.6430  -31.0250 C   0  0  0  0  0  0  0  0  0  0  0  0
   -2.5200   21.9150  -31.2720 C   0  0  0  0  0  0  0  0  0  0  0  0
   -1.6760   21.5790  -30.1990 C   0  0  0  0  0  0  0  0  0  0  0  0
   -0.4820   20.8900  -30.4290 C   0  0  0  0  0  0  0  0  0  0  0  0
   -0.1190   20.5320  -31.7300 C   0  0  0  0  0  0  0  0  0  0  0  0
   -0.9500   20.8610  -32.8050 C   0  0  0  0  0  0  0  0  0  0  0  0
   -0.4530   20.3710  -34.5820 Br  0  0  0  0  0  0  0  0  0  0  0  0
   -2.1480   21.5490  -32.5780 C   0  0  0  0  0  0  0  0  0  0  0  0
   -4.9950   22.0590  -30.9530 N   0  0  0  0  0  0  0  0  0  0  0  0
   -5.8480   23.0460  -30.7390 N   0  0  0  0  0  0  0  0  0  0  0  0
   -7.2840   22.8600  -30.5270 C   0  0  0  0  0  0  0  0  0  0  0  0
   -7.8940   22.2330  -31.7000 N   0  0  0  0  0  0  0  0  0  0  0  0
   -7.6130   20.8890  -32.1340 C   0  0  0  0  0  0  0  0  0  0  0  0
   -6.5930   20.6720  -33.0760 C   0  0  0  0  0  0  0  0  0  0  0  0
   -6.3020   19.3790  -33.5220 C   0  0  0  0  0  0  0  0  0  0  0  0
   -7.0250   18.2890  -33.0310 C   0  0  0  0  0  0  0  0  0  0  0  0
   -6.6600   16.6670  -33.5930 Cl  0  0  0  0  0  0  0  0  0  0  0  0
   -8.0400   18.4920  -32.0920 C   0  0  0  0  0  0  0  0  0  0  0  0
   -8.3340   19.7830  -31.6430 C   0  0  0  0  0  0  0  0  0  0  0  0
   -1.9568   21.8598  -29.1732 H   0  0  0  0  0  0  0  0  0  0  0  0
    0.1730   20.6291  -29.5846 H   0  0  0  0  0  0  0  0  0  0  0  0
    0.8218   19.9906  -31.9085 H   0  0  0  0  0  0  0  0  0  0  0  0
   -2.8014   21.8045  -33.4252 H   0  0  0  0  0  0  0  0  0  0  0  0
   -7.4407   22.2163  -29.6489 H   0  0  0  0  0  0  0  0  0  0  0  0
   -7.7514   23.8421  -30.3628 H   0  0  0  0  0  0  0  0  0  0  0  0
   -8.5910   22.7990  -32.2360 H   0  0  0  0  0  0  0  0  0  0  0  0
   -6.0191   21.5258  -33.4655 H   0  0  0  0  0  0  0  0  0  0  0  0
   -5.5026   19.2198  -34.2606 H   0  0  0  0  0  0  0  0  0  0  0  0
   -8.6091   17.6338  -31.7052 H   0  0  0  0  0  0  0  0  0  0  0  0
   -9.1327   19.9359  -30.9023 H   0  0  0  0  0  0  0  0  0  0  0  0
  1  2  2  0
  2  3  1  0
  3  4  1  0
  4  5  1  0
  5  6  2  0
  6  7  1  0
  7  8  2  0
  8  9  1  0
  9 10  1  0
  9 11  2  0
  4 12  2  0
 12 13  1  0
 13 14  1  0
 14 15  1  0
 15 16  1  0
 16 17  2  0
 17 18  1  0
 18 19  2  0
 19 20  1  0
 19 21  1  0
 21 22  2  0
 13  2  1  0
 22 16  1  0
 11  5  1  0
  6 23  1  0
  7 24  1  0
  8 25  1  0
 11 26  1  0
 14 27  1  0
 14 28  1  0
 15 29  1  0
 17 30  1  0
 18 31  1  0
 21 32  1  0
 22 33  1  0
M  END
>  <UniqueID>  (47) 
44

>  <SMILES>  (47) 
S=c1oc(-c2cccc(Br)c2)nn1CNc1ccc(Cl)cc1

>  <Energy>  (47) 
71.33296594430266

>  <Genealogy>  (47) 
S=c1oc(-c2cccc(Br)c2)nn1CNc1ccc(Cl)cc1 (3D coordinates assigned)
S=c1oc(-c2cccc(Br)c2)nn1CNc1ccc(Cl)cc1 (optimized conformer: 71.33296594430266 kcal/mol)

>  <smiles>  (47) 
S=c1oc(-c2cccc(Br)c2)nn1CNc1ccc(Cl)cc1

>  <score_type>  (47) 
oracle

>  <origin>  (47) 
adgpu

>  <m_score__min__energy>  (47) 
-8.1099999999999994

>  <m_primary>  (47) 
energy

$$$$
47:0
     RDKit          3D

 29 30  0  0  0  0  0  0  0  0999 V2000
   -4.6280   19.1180  -33.6180 F   0  0  0  0  0  0  0  0  0  0  0  0
   -5.8360   18.5640  -34.0010 C   0  0  0  0  0  0  0  0  0  0  0  0
   -6.1080   18.9360  -35.3070 F   0  0  0  0  0  0  0  0  0  0  0  0
   -5.7340   17.1850  -33.9570 F   0  0  0  0  0  0  0  0  0  0  0  0
   -6.9210   19.0470  -33.0730 C   0  0  0  0  0  0  0  0  0  0  0  0
   -7.7670   18.1300  -32.4250 C   0  0  0  0  0  0  0  0  0  0  0  0
   -8.8020   18.5810  -31.6000 C   0  0  0  0  0  0  0  0  0  0  0  0
   -9.0140   19.9510  -31.4280 C   0  0  0  0  0  0  0  0  0  0  0  0
   -8.1950   20.8740  -32.0850 C   0  0  0  0  0  0  0  0  0  0  0  0
   -8.4810   22.6320  -31.8780 S   0  0  0  0  0  0  0  0  0  0  0  0
   -6.8700   23.1020  -32.5890 C   0  0  0  0  0  0  0  0  0  0  0  0
   -5.9060   23.4290  -31.4810 C   0  0  0  0  0  0  0  0  0  0  0  0
   -6.3380   24.2280  -30.4070 C   0  0  0  0  0  0  0  0  0  0  0  0
   -5.4720   24.5260  -29.3520 C   0  0  0  0  0  0  0  0  0  0  0  0
   -4.1700   24.0220  -29.3500 C   0  0  0  0  0  0  0  0  0  0  0  0
   -3.0850   24.3960  -28.0230 Cl  0  0  0  0  0  0  0  0  0  0  0  0
   -3.7330   23.2140  -30.4040 C   0  0  0  0  0  0  0  0  0  0  0  0
   -4.5930   22.9100  -31.4660 C   0  0  0  0  0  0  0  0  0  0  0  0
   -3.9940   21.8660  -32.7530 Cl  0  0  0  0  0  0  0  0  0  0  0  0
   -7.1590   20.4250  -32.9150 C   0  0  0  0  0  0  0  0  0  0  0  0
   -7.6137   17.0502  -32.5680 H   0  0  0  0  0  0  0  0  0  0  0  0
   -9.4501   17.8561  -31.0858 H   0  0  0  0  0  0  0  0  0  0  0  0
   -9.8260   20.3038  -30.7751 H   0  0  0  0  0  0  0  0  0  0  0  0
   -6.4742   22.2656  -33.1838 H   0  0  0  0  0  0  0  0  0  0  0  0
   -6.9984   23.9838  -33.2340 H   0  0  0  0  0  0  0  0  0  0  0  0
   -7.3653   24.6211  -30.3977 H   0  0  0  0  0  0  0  0  0  0  0  0
   -5.8167   25.1591  -28.5211 H   0  0  0  0  0  0  0  0  0  0  0  0
   -2.7079   22.8150  -30.3988 H   0  0  0  0  0  0  0  0  0  0  0  0
   -6.5285   21.1535  -33.4458 H   0  0  0  0  0  0  0  0  0  0  0  0
  1  2  1  0
  2  3  1  0
  2  4  1  0
  2  5  1  0
  5  6  2  0
  6  7  1  0
  7  8  2  0
  8  9  1  0
  9 10  1  0
 10 11  1  0
 11 12  1  0
 12 13  2  0
 13 14  1  0
 14 15  2  0
 15 16  1  0
 15 17  1  0
 17 18  2  0
 18 19  1  0
  9 20  2  0
 20  5  1  0
 18 12  1  0
  6 21  1  0
  7 22  1  0
  8 23  1  0
 11 24  1  0
 11 25  1  0
 13 26  1  0
 14 27  1  0
 17 28  1  0
 20 29  1  0
M  END
>  <UniqueID>  (48) 
45

>  <SMILES>  (48) 
FC(F)(F)c1cccc(SCc2ccc(Cl)cc2Cl)c1

>  <Energy>  (48) 
26.423045779256544

>  <Genealogy>  (48) 
FC(F)(F)c1cccc(SCc2ccc(Cl)cc2Cl)c1 (3D coordinates assigned)
FC(F)(F)c1cccc(SCc2ccc(Cl)cc2Cl)c1 (optimized conformer: 26.423045779256544 kcal/mol)

>  <smiles>  (48) 
FC(F)(F)c1cccc(SCc2ccc(Cl)cc2Cl)c1

>  <score_type>  (48) 
oracle

>  <origin>  (48) 
adgpu

>  <m_score__min__energy>  (48) 
-7.6299999999999999

>  <m_primary>  (48) 
energy

$$$$
48:0
     RDKit          3D

 48 50  0  0  0  0  0  0  0  0999 V2000
   -6.4840   16.4560  -33.8670 C   0  0  0  0  0  0  0  0  0  0  0  0
   -7.2540   17.0660  -32.8400 O   0  0  0  0  0  0  0  0  0  0  0  0
   -7.4060   18.4540  -32.6770 C   0  0  0  0  0  0  0  0  0  0  0  0
   -6.3260   19.2850  -32.9990 C   0  0  0  0  0  0  0  0  0  0  0  0
   -6.4230   20.6700  -32.8340 C   0  0  0  0  0  0  0  0  0  0  0  0
   -7.6050   21.2450  -32.3540 C   0  0  0  0  0  0  0  0  0  0  0  0
   -7.6730   22.9710  -31.9980 S   0  0  0  0  0  0  0  0  0  0  0  0
   -6.6750   23.7030  -32.8460 O   0  0  0  0  0  0  0  0  0  0  0  0
   -9.0460   23.5160  -32.2790 O   0  0  0  0  0  0  0  0  0  0  0  0
   -7.2730   23.1880  -30.3310 N   0  0  0  0  0  0  0  0  0  0  0  0
   -5.9330   23.4960  -29.9540 C   0  0  0  0  0  0  0  0  0  0  0  0
   -5.2640   24.5740  -30.5500 C   0  0  0  0  0  0  0  0  0  0  0  0
   -3.9730   24.9180  -30.1250 C   0  0  0  0  0  0  0  0  0  0  0  0
   -3.3510   24.1800  -29.1030 C   0  0  0  0  0  0  0  0  0  0  0  0
   -1.7620   24.6680  -28.5300 S   0  0  0  0  0  0  0  0  0  0  0  0
   -1.8730   25.1090  -27.0980 O   0  0  0  0  0  0  0  0  0  0  0  0
   -1.2310   25.8290  -29.3280 O   0  0  0  0  0  0  0  0  0  0  0  0
   -0.6810   23.3050  -28.6190 N   0  0  0  0  0  0  0  0  0  0  0  0
   -0.9290   21.9770  -28.1320 C   0  0  0  0  0  0  0  0  0  0  0  0
   -1.1690   21.7120  -26.7730 C   0  0  0  0  0  0  0  0  0  0  0  0
   -1.4770   20.4160  -26.3480 C   0  0  0  0  0  0  0  0  0  0  0  0
   -1.5420   19.3710  -27.2710 C   0  0  0  0  0  0  0  0  0  0  0  0
   -1.2760   19.6160  -28.6110 C   0  0  0  0  0  0  0  0  0  0  0  0
   -0.9730   20.9110  -29.0520 C   0  0  0  0  0  0  0  0  0  0  0  0
   -0.6310   21.1800  -30.8000 S   0  0  0  0  0  0  0  0  0  0  0  0
   -2.3710   21.5030  -31.2170 C   0  0  0  0  0  0  0  0  0  0  0  0
   -4.0260   23.0880  -28.5160 C   0  0  0  0  0  0  0  0  0  0  0  0
   -5.3110   22.7480  -28.9430 C   0  0  0  0  0  0  0  0  0  0  0  0
   -8.6940   20.4200  -32.0340 C   0  0  0  0  0  0  0  0  0  0  0  0
   -8.5970   19.0340  -32.1970 C   0  0  0  0  0  0  0  0  0  0  0  0
   -5.6979   15.8332  -33.4151 H   0  0  0  0  0  0  0  0  0  0  0  0
   -7.1368   15.8273  -34.4904 H   0  0  0  0  0  0  0  0  0  0  0  0
   -6.0213   17.2353  -34.4904 H   0  0  0  0  0  0  0  0  0  0  0  0
   -5.3945   18.8450  -33.3846 H   0  0  0  0  0  0  0  0  0  0  0  0
   -5.5649   21.3116  -33.0830 H   0  0  0  0  0  0  0  0  0  0  0  0
   -5.7516   25.1496  -31.3506 H   0  0  0  0  0  0  0  0  0  0  0  0
   -3.4473   25.7646  -30.5908 H   0  0  0  0  0  0  0  0  0  0  0  0
   -1.1142   22.5293  -26.0389 H   0  0  0  0  0  0  0  0  0  0  0  0
   -1.6687   20.2194  -25.2828 H   0  0  0  0  0  0  0  0  0  0  0  0
   -1.8034   18.3559  -26.9373 H   0  0  0  0  0  0  0  0  0  0  0  0
   -1.3033   18.7865  -29.3329 H   0  0  0  0  0  0  0  0  0  0  0  0
   -2.9558   21.6115  -30.2916 H   0  0  0  0  0  0  0  0  0  0  0  0
   -2.4410   22.4295  -31.8058 H   0  0  0  0  0  0  0  0  0  0  0  0
   -2.7689   20.6634  -31.8058 H   0  0  0  0  0  0  0  0  0  0  0  0
   -3.5389   22.5042  -27.7211 H   0  0  0  0  0  0  0  0  0  0  0  0
   -5.8351   21.8949  -28.4874 H   0  0  0  0  0  0  0  0  0  0  0  0
   -9.6260   20.8640  -31.6542 H   0  0  0  0  0  0  0  0  0  0  0  0
   -9.4558   18.3930  -31.9489 H   0  0  0  0  0  0  0  0  0  0  0  0
  1  2  1  0
  2  3  1  0
  3  4  2  0
  4  5  1  0
  5  6  2  0
  6  7  1  0
  7  8  2  0
  7  9  2  0
  7 10  1  0
 10 11  1  0
 11 12  2  0
 12 13  1  0
 13 14  2  0
 14 15  1  0
 15 16  2  0
 15 17  2  0
 15 18  1  0
 18 19  1  0
 19 20  2  0
 20 21  1  0
 21 22  2  0
 22 23  1  0
 23 24  2  0
 24 25  1  0
 25 26  1  0
 14 27  1  0
 27 28  2  0
  6 29  1  0
 29 30  2  0
 30  3  1  0
 28 11  1  0
 24 19  1  0
  1 31  1  0
  1 32  1  0
  1 33  1  0
  4 34  1  0
  5 35  1  0
 12 36  1  0
 13 37  1  0
 20 38  1  0
 21 39  1  0
 22 40  1  0
 23 41  1  0
 26 42  1  0
 26 43  1  0
 26 44  1  0
 27 45  1  0
 28 46  1  0
 29 47  1  0
 30 48  1  0
M  CHG  2  10  -1  18  -1
M  END
>  <UniqueID>  (49) 
46

>  <SMILES>  (49) 
COc1ccc(S(=O)(=O)[N-]c2ccc(S(=O)(=O)[N-]c3ccccc3SC)cc2)cc1

>  <Energy>  (49) 
57.45190939515792

>  <Genealogy>  (49) 
COc1ccc(S(=O)(=O)[N-]c2ccc(S(=O)(=O)[N-]c3ccccc3SC)cc2)cc1 (protonated)
COc1ccc(S(=O)(=O)[N-]c2ccc(S(=O)(=O)[N-]c3ccccc3SC)cc2)cc1 (3D coordinates assigned)
COc1ccc(S(=O)(=O)[N-]c2ccc(S(=O)(=O)[N-]c3ccccc3SC)cc2)cc1 (optimized conformer: 57.45190939515792 kcal/mol)

>  <smiles>  (49) 
COc1ccc(S(=O)(=O)Nc2ccc(S(=O)(=O)Nc3ccccc3SC)cc2)cc1

>  <score_type>  (49) 
oracle

>  <origin>  (49) 
adgpu

>  <m_score__min__energy>  (49) 
-10.68

>  <m_primary>  (49) 
energy

$$$$
