0:0
     RDKit          3D

 59 62  0  0  0  0  0  0  0  0999 V2000
   -4.8260   24.9690  -29.2290 O   0  0  0  0  0  0  0  0  0  0  0  0
   -3.8670   24.2970  -29.6950 C   0  0  0  0  0  0  0  0  0  0  0  0
   -3.8330   23.9740  -31.0930 N   0  0  0  0  0  0  0  0  0  0  0  0
   -4.3980   22.8170  -31.7260 C   0  0  0  0  0  0  0  0  0  0  0  0
   -3.5350   21.9030  -32.3420 C   0  0  0  0  0  0  0  0  0  0  0  0
   -4.0360   20.7430  -32.9400 C   0  0  0  0  0  0  0  0  0  0  0  0
   -5.4110   20.4750  -32.9150 C   0  0  0  0  0  0  0  0  0  0  0  0
   -6.0460   18.9990  -33.6460 S   0  0  0  0  0  0  0  0  0  0  0  0
   -6.1440   19.1840  -35.1360 O   0  0  0  0  0  0  0  0  0  0  0  0
   -7.4310   18.7450  -33.1170 O   0  0  0  0  0  0  0  0  0  0  0  0
   -5.0350   17.6160  -33.3010 N   0  0  0  0  0  0  0  0  0  0  0  0
   -5.7090   16.7080  -32.3550 C   0  0  0  0  0  0  0  0  0  0  0  0
   -4.9630   15.3620  -32.2610 C   0  0  0  0  0  0  0  0  0  0  0  0
   -3.6710   15.4580  -32.8280 O   0  0  0  0  0  0  0  0  0  0  0  0
   -3.7710   15.7090  -34.2210 C   0  0  0  0  0  0  0  0  0  0  0  0
   -4.6990   16.9000  -34.5390 C   0  0  0  0  0  0  0  0  0  0  0  0
   -6.2780   21.3790  -32.2870 C   0  0  0  0  0  0  0  0  0  0  0  0
   -5.7770   22.5380  -31.6870 C   0  0  0  0  0  0  0  0  0  0  0  0
   -2.7590   23.8780  -28.7970 C   0  0  0  0  0  0  0  0  0  0  0  0
   -2.7650   22.5770  -28.2520 C   0  0  0  0  0  0  0  0  0  0  0  0
   -1.7300   22.1470  -27.4090 C   0  0  0  0  0  0  0  0  0  0  0  0
   -1.7340   20.5210  -26.7320 S   0  0  0  0  0  0  0  0  0  0  0  0
   -3.0390   19.8610  -27.0820 O   0  0  0  0  0  0  0  0  0  0  0  0
   -1.6050   20.5800  -25.2340 O   0  0  0  0  0  0  0  0  0  0  0  0
   -0.4090   19.6010  -27.4010 N   0  0  0  0  0  0  0  0  0  0  0  0
   -0.6520   18.1560  -27.2000 C   0  0  0  0  0  0  0  0  0  0  0  0
    0.3060   17.2730  -28.0320 C   0  0  0  0  0  0  0  0  0  0  0  0
    1.5010   18.0730  -28.5560 C   0  0  0  0  0  0  0  0  0  0  0  0
    1.0340   19.2780  -29.3890 C   0  0  0  0  0  0  0  0  0  0  0  0
   -0.2540   19.9150  -28.8310 C   0  0  0  0  0  0  0  0  0  0  0  0
   -0.6800   23.0160  -27.1030 C   0  0  0  0  0  0  0  0  0  0  0  0
   -0.6610   24.3080  -27.6280 C   0  0  0  0  0  0  0  0  0  0  0  0
   -1.6890   24.7450  -28.4690 C   0  0  0  0  0  0  0  0  0  0  0  0
   -1.6360   26.0460  -28.9590 O   0  0  0  0  0  0  0  0  0  0  0  0
   -2.4528   22.0994  -32.3556 H   0  0  0  0  0  0  0  0  0  0  0  0
   -3.3488   20.0387  -33.4316 H   0  0  0  0  0  0  0  0  0  0  0  0
   -5.7332   17.1770  -31.3603 H   0  0  0  0  0  0  0  0  0  0  0  0
   -6.7313   16.5198  -32.7150 H   0  0  0  0  0  0  0  0  0  0  0  0
   -4.8712   15.0747  -31.2032 H   0  0  0  0  0  0  0  0  0  0  0  0
   -5.5347   14.6048  -32.8177 H   0  0  0  0  0  0  0  0  0  0  0  0
   -2.7671   15.9288  -34.6133 H   0  0  0  0  0  0  0  0  0  0  0  0
   -4.2011   14.8134  -34.6931 H   0  0  0  0  0  0  0  0  0  0  0  0
   -4.1879   17.5864  -35.2301 H   0  0  0  0  0  0  0  0  0  0  0  0
   -5.6232   16.5253  -35.0031 H   0  0  0  0  0  0  0  0  0  0  0  0
   -7.3588   21.1756  -32.2660 H   0  0  0  0  0  0  0  0  0  0  0  0
   -6.4630   23.2344  -31.1826 H   0  0  0  0  0  0  0  0  0  0  0  0
   -3.5914   21.8915  -28.4911 H   0  0  0  0  0  0  0  0  0  0  0  0
   -0.5135   17.9199  -26.1346 H   0  0  0  0  0  0  0  0  0  0  0  0
   -1.6783   17.9404  -27.5321 H   0  0  0  0  0  0  0  0  0  0  0  0
    0.6758   16.4532  -27.3986 H   0  0  0  0  0  0  0  0  0  0  0  0
   -0.2510   16.8825  -28.8964 H   0  0  0  0  0  0  0  0  0  0  0  0
    2.0945   18.4336  -27.7029 H   0  0  0  0  0  0  0  0  0  0  0  0
    2.1079   17.4172  -29.1976 H   0  0  0  0  0  0  0  0  0  0  0  0
    1.8309   20.0362  -29.3908 H   0  0  0  0  0  0  0  0  0  0  0  0
    0.8169   18.9187  -30.4057 H   0  0  0  0  0  0  0  0  0  0  0  0
   -0.2021   21.0064  -28.9581 H   0  0  0  0  0  0  0  0  0  0  0  0
   -1.1170   19.5091  -29.3791 H   0  0  0  0  0  0  0  0  0  0  0  0
    0.1352   22.6800  -26.4453 H   0  0  0  0  0  0  0  0  0  0  0  0
    0.1676   24.9872  -27.3790 H   0  0  0  0  0  0  0  0  0  0  0  0
  1  2  2  0
  2  3  1  0
  3  4  1  0
  4  5  2  0
  5  6  1  0
  6  7  2  0
  7  8  1  0
  8  9  2  0
  8 10  2  0
  8 11  1  0
 11 12  1  0
 12 13  1  0
 13 14  1  0
 14 15  1  0
 15 16  1  0
  7 17  1  0
 17 18  2  0
  2 19  1  0
 19 20  2  0
 20 21  1  0
 21 22  1  0
 22 23  2  0
 22 24  2  0
 22 25  1  0
 25 26  1  0
 26 27  1  0
 27 28  1  0
 28 29  1  0
 29 30  1  0
 21 31  2  0
 31 32  1  0
 32 33  2  0
 33 34  1  0
 18  4  1  0
 33 19  1  0
 16 11  1  0
 30 25  1  0
  5 35  1  0
  6 36  1  0
 12 37  1  0
 12 38  1  0
 13 39  1  0
 13 40  1  0
 15 41  1  0
 15 42  1  0
 16 43  1  0
 16 44  1  0
 17 45  1  0
 18 46  1  0
 20 47  1  0
 26 48  1  0
 26 49  1  0
 27 50  1  0
 27 51  1  0
 28 52  1  0
 28 53  1  0
 29 54  1  0
 29 55  1  0
 30 56  1  0
 30 57  1  0
 31 58  1  0
 32 59  1  0
M  CHG  2   3  -1  34  -1
M  END
>  <UniqueID>  (1) 
1

>  <SMILES>  (1) 
O=C([N-]c1ccc(S(=O)(=O)N2CCOCC2)cc1)c1cc(S(=O)(=O)N2CCCCC2)ccc1[O-]

>  <Energy>  (1) 
77.51731046087998

>  <Genealogy>  (1) 
O=C([N-]c1ccc(S(=O)(=O)N2CCOCC2)cc1)c1cc(S(=O)(=O)N2CCCCC2)ccc1[O-] (protonated)
O=C([N-]c1ccc(S(=O)(=O)N2CCOCC2)cc1)c1cc(S(=O)(=O)N2CCCCC2)ccc1[O-] (3D coordinates assigned)
O=C([N-]c1ccc(S(=O)(=O)N2CCOCC2)cc1)c1cc(S(=O)(=O)N2CCCCC2)ccc1[O-] (nonaromatic ring conformer: 77.51731046087998 kcal/mol)

>  <smiles>  (1) 
O=C(Nc1ccc(S(=O)(=O)N2CCOCC2)cc1)c1cc(S(=O)(=O)N2CCCCC2)ccc1O

>  <score_type>  (1) 
oracle

>  <origin>  (1) 
adgpu

>  <m_score__min__energy>  (1) 
-14.17

>  <m_primary>  (1) 
energy

$$$$
1:0
     RDKit          3D

 50 52  0  0  0  0  0  0  0  0999 V2000
   -1.1870   21.9970  -26.4080 C   0  0  0  0  0  0  0  0  0  0  0  0
   -1.8070   22.8870  -27.4530 C   0  0  0  0  0  0  0  0  0  0  0  0
   -3.0170   22.4820  -28.0380 C   0  0  0  0  0  0  0  0  0  0  0  0
   -3.6280   23.2540  -29.0230 C   0  0  0  0  0  0  0  0  0  0  0  0
   -3.0480   24.4590  -29.4380 C   0  0  0  0  0  0  0  0  0  0  0  0
   -3.6330   25.2520  -30.4830 N   0  0  0  0  0  0  0  0  0  0  0  0
   -5.0220   25.3020  -30.8290 C   0  0  0  0  0  0  0  0  0  0  0  0
   -5.8000   25.9980  -30.1250 O   0  0  0  0  0  0  0  0  0  0  0  0
   -5.5190   24.5660  -31.9550 N   0  0  0  0  0  0  0  0  0  0  0  0
   -5.9440   23.1960  -31.9680 C   0  0  0  0  0  0  0  0  0  0  0  0
   -4.9700   22.1920  -31.9180 C   0  0  0  0  0  0  0  0  0  0  0  0
   -5.3400   20.8440  -31.9090 C   0  0  0  0  0  0  0  0  0  0  0  0
   -6.6940   20.4850  -31.9320 C   0  0  0  0  0  0  0  0  0  0  0  0
   -7.1640   18.7840  -31.9060 S   0  0  0  0  0  0  0  0  0  0  0  0
   -6.3260   18.0540  -30.8940 O   0  0  0  0  0  0  0  0  0  0  0  0
   -8.6020   18.6750  -31.4810 O   0  0  0  0  0  0  0  0  0  0  0  0
   -6.9630   18.0350  -33.4720 N   0  0  0  0  0  0  0  0  0  0  0  0
   -6.0610   18.8460  -34.2990 C   0  0  0  0  0  0  0  0  0  0  0  0
   -6.4240   16.6800  -33.3110 C   0  0  0  0  0  0  0  0  0  0  0  0
   -7.6740   21.4860  -31.9580 C   0  0  0  0  0  0  0  0  0  0  0  0
   -7.3040   22.8340  -31.9680 C   0  0  0  0  0  0  0  0  0  0  0  0
   -1.8320   24.8710  -28.8740 C   0  0  0  0  0  0  0  0  0  0  0  0
   -1.2390   26.0390  -29.3450 O   0  0  0  0  0  0  0  0  0  0  0  0
   -1.2160   24.1160  -27.8510 C   0  0  0  0  0  0  0  0  0  0  0  0
    0.3050   24.6990  -27.1330 S   0  0  0  0  0  0  0  0  0  0  0  0
    1.3490   24.9040  -28.1960 O   0  0  0  0  0  0  0  0  0  0  0  0
    0.8410   23.6820  -26.1640 O   0  0  0  0  0  0  0  0  0  0  0  0
   -0.0290   26.2180  -26.2400 C   0  0  0  0  0  0  0  0  0  0  0  0
   -0.4880   26.0640  -24.7980 C   0  0  0  0  0  0  0  0  0  0  0  0
   -1.4940   26.4080  -25.8840 C   0  0  0  0  0  0  0  0  0  0  0  0
   -1.4474   22.3707  -25.4067 H   0  0  0  0  0  0  0  0  0  0  0  0
   -1.5674   20.9717  -26.5270 H   0  0  0  0  0  0  0  0  0  0  0  0
   -0.0935   21.9985  -26.5270 H   0  0  0  0  0  0  0  0  0  0  0  0
   -3.4888   21.5426  -27.7142 H   0  0  0  0  0  0  0  0  0  0  0  0
   -4.5709   22.9155  -29.4772 H   0  0  0  0  0  0  0  0  0  0  0  0
   -3.9051   22.4659  -31.8855 H   0  0  0  0  0  0  0  0  0  0  0  0
   -4.5659   20.0629  -31.8838 H   0  0  0  0  0  0  0  0  0  0  0  0
   -5.4013   19.4392  -33.6487 H   0  0  0  0  0  0  0  0  0  0  0  0
   -5.4524   18.1854  -34.9340 H   0  0  0  0  0  0  0  0  0  0  0  0
   -6.6534   19.5211  -34.9340 H   0  0  0  0  0  0  0  0  0  0  0  0
   -6.3314   16.4471  -32.2399 H   0  0  0  0  0  0  0  0  0  0  0  0
   -7.1028   15.9565  -33.7862 H   0  0  0  0  0  0  0  0  0  0  0  0
   -5.4337   16.6205  -33.7862 H   0  0  0  0  0  0  0  0  0  0  0  0
   -8.7388   21.2101  -31.9706 H   0  0  0  0  0  0  0  0  0  0  0  0
   -8.0788   23.6148  -31.9759 H   0  0  0  0  0  0  0  0  0  0  0  0
    0.7521   26.8136  -26.7351 H   0  0  0  0  0  0  0  0  0  0  0  0
   -0.5035   25.0692  -24.3289 H   0  0  0  0  0  0  0  0  0  0  0  0
   -0.1969   26.5126  -23.8367 H   0  0  0  0  0  0  0  0  0  0  0  0
   -2.2380   25.6621  -26.2006 H   0  0  0  0  0  0  0  0  0  0  0  0
   -2.2329   27.2090  -26.0338 H   0  0  0  0  0  0  0  0  0  0  0  0
  1  2  1  0
  2  3  2  0
  3  4  1  0
  4  5  2  0
  5  6  1  0
  6  7  1  0
  7  8  2  0
  7  9  1  0
  9 10  1  0
 10 11  2  0
 11 12  1  0
 12 13  2  0
 13 14  1  0
 14 15  2  0
 14 16  2  0
 14 17  1  0
 17 18  1  0
 17 19  1  0
 13 20  1  0
 20 21  2  0
  5 22  1  0
 22 23  1  0
 22 24  2  0
 24 25  1  0
 25 26  2  0
 25 27  2  0
 25 28  1  0
 28 29  1  0
 29 30  1  0
 24  2  1  0
 30 28  1  0
 21 10  1  0
  1 31  1  0
  1 32  1  0
  1 33  1  0
  3 34  1  0
  4 35  1  0
 11 36  1  0
 12 37  1  0
 18 38  1  0
 18 39  1  0
 18 40  1  0
 19 41  1  0
 19 42  1  0
 19 43  1  0
 20 44  1  0
 21 45  1  0
 28 46  1  0
 29 47  1  0
 29 48  1  0
 30 49  1  0
 30 50  1  0
M  CHG  3   6  -1   9  -1  23  -1
M  END
>  <UniqueID>  (2) 
2

>  <SMILES>  (2) 
Cc1ccc([N-]C(=O)[N-]c2ccc(S(=O)(=O)N(C)C)cc2)c([O-])c1S(=O)(=O)C1CC1

>  <Energy>  (2) 
322.2650739067011

>  <Genealogy>  (2) 
Cc1ccc([N-]C(=O)[N-]c2ccc(S(=O)(=O)N(C)C)cc2)c([O-])c1S(=O)(=O)C1CC1 (protonated)
Cc1ccc([N-]C(=O)[N-]c2ccc(S(=O)(=O)N(C)C)cc2)c([O-])c1S(=O)(=O)C1CC1 (3D coordinates assigned)
Cc1ccc([N-]C(=O)[N-]c2ccc(S(=O)(=O)N(C)C)cc2)c([O-])c1S(=O)(=O)C1CC1 (nonaromatic ring conformer: 322.2650739067011 kcal/mol)

>  <smiles>  (2) 
Cc1ccc(NC(=O)Nc2ccc(S(=O)(=O)N(C)C)cc2)c(O)c1S(=O)(=O)C1CC1

>  <score_type>  (2) 
oracle

>  <origin>  (2) 
adgpu

>  <m_score__min__energy>  (2) 
-16.260000000000002

>  <m_primary>  (2) 
energy

$$$$
2:0
     RDKit          3D

 36 38  0  0  0  0  0  0  0  0999 V2000
   -7.1650   17.2540  -33.0840 C   0  0  0  0  0  0  0  0  0  0  0  0
   -8.1950   17.9730  -32.3500 N   0  0  0  0  0  0  0  0  0  0  0  0
   -8.5450   19.3330  -32.6320 C   0  0  0  0  0  0  0  0  0  0  0  0
   -9.6860   19.5920  -33.1030 O   0  0  0  0  0  0  0  0  0  0  0  0
   -7.5690   20.4240  -32.3690 C   0  0  0  0  0  0  0  0  0  0  0  0
   -6.2070   20.2300  -32.6690 C   0  0  0  0  0  0  0  0  0  0  0  0
   -5.2700   21.2370  -32.4300 C   0  0  0  0  0  0  0  0  0  0  0  0
   -5.6730   22.4640  -31.8810 C   0  0  0  0  0  0  0  0  0  0  0  0
   -4.7430   23.5220  -31.6100 N   0  0  0  0  0  0  0  0  0  0  0  0
   -4.6430   24.4090  -30.1230 S   0  0  0  0  0  0  0  0  0  0  0  0
   -4.2370   25.8260  -30.4230 O   0  0  0  0  0  0  0  0  0  0  0  0
   -5.9940   24.4210  -29.4650 O   0  0  0  0  0  0  0  0  0  0  0  0
   -3.4870   23.6370  -29.0350 C   0  0  0  0  0  0  0  0  0  0  0  0
   -3.7940   22.3970  -28.4590 C   0  0  0  0  0  0  0  0  0  0  0  0
   -2.8950   21.7870  -27.5860 C   0  0  0  0  0  0  0  0  0  0  0  0
   -1.6820   22.4040  -27.2810 C   0  0  0  0  0  0  0  0  0  0  0  0
   -1.3480   23.6470  -27.8500 C   0  0  0  0  0  0  0  0  0  0  0  0
   -0.0500   24.2770  -27.5040 C   0  0  0  0  0  0  0  0  0  0  0  0
    0.3170   24.6650  -26.2670 N   0  0  0  0  0  0  0  0  0  0  0  0
    1.5310   25.1670  -26.4120 N   0  0  0  0  0  0  0  0  0  0  0  0
    1.8960   25.0920  -27.6820 N   0  0  0  0  0  0  0  0  0  0  0  0
    0.9270   24.5390  -28.3930 N   0  0  0  0  0  0  0  0  0  0  0  0
   -2.2610   24.2610  -28.7370 C   0  0  0  0  0  0  0  0  0  0  0  0
   -1.9580   25.4860  -29.3240 O   0  0  0  0  0  0  0  0  0  0  0  0
   -7.0230   22.6680  -31.5850 C   0  0  0  0  0  0  0  0  0  0  0  0
   -7.9690   21.6650  -31.8210 C   0  0  0  0  0  0  0  0  0  0  0  0
   -9.3000   21.9200  -31.5080 O   0  0  0  0  0  0  0  0  0  0  0  0
   -6.4764   16.7733  -32.3736 H   0  0  0  0  0  0  0  0  0  0  0  0
   -7.6340   16.4861  -33.7167 H   0  0  0  0  0  0  0  0  0  0  0  0
   -6.6058   17.9590  -33.7167 H   0  0  0  0  0  0  0  0  0  0  0  0
   -5.8768   19.2722  -33.0974 H   0  0  0  0  0  0  0  0  0  0  0  0
   -4.2107   21.0678  -32.6732 H   0  0  0  0  0  0  0  0  0  0  0  0
   -4.7478   21.9034  -28.6967 H   0  0  0  0  0  0  0  0  0  0  0  0
   -3.1433   20.8146  -27.1356 H   0  0  0  0  0  0  0  0  0  0  0  0
   -0.9802   21.9147  -26.5896 H   0  0  0  0  0  0  0  0  0  0  0  0
   -7.3463   23.6300  -31.1608 H   0  0  0  0  0  0  0  0  0  0  0  0
  1  2  1  0
  2  3  1  0
  3  4  2  0
  3  5  1  0
  5  6  2  0
  6  7  1  0
  7  8  2  0
  8  9  1  0
  9 10  1  0
 10 11  2  0
 10 12  2  0
 10 13  1  0
 13 14  2  0
 14 15  1  0
 15 16  2  0
 16 17  1  0
 17 18  1  0
 18 19  1  0
 19 20  2  0
 20 21  1  0
 21 22  1  0
 17 23  2  0
 23 24  1  0
  8 25  1  0
 25 26  2  0
 26 27  1  0
 26  5  1  0
 23 13  1  0
 22 18  2  0
  1 28  1  0
  1 29  1  0
  1 30  1  0
  6 31  1  0
  7 32  1  0
 14 33  1  0
 15 34  1  0
 16 35  1  0
 25 36  1  0
M  CHG  5   2  -1   9  -1  21  -1  24  -1  27  -1
M  END
>  <UniqueID>  (3) 
3

>  <SMILES>  (3) 
C[N-]C(=O)c1ccc([N-]S(=O)(=O)c2cccc(-c3nn[n-]n3)c2[O-])cc1[O-]

>  <Energy>  (3) 
82.75307856756741

>  <Genealogy>  (3) 
C[N-]C(=O)c1ccc([N-]S(=O)(=O)c2cccc(-c3nn[n-]n3)c2[O-])cc1[O-] (protonated)
C[N-]C(=O)c1ccc([N-]S(=O)(=O)c2cccc(-c3nn[n-]n3)c2[O-])cc1[O-] (3D coordinates assigned)
C[N-]C(=O)c1ccc([N-]S(=O)(=O)c2cccc(-c3nn[n-]n3)c2[O-])cc1[O-] (optimized conformer: 82.75307856756741 kcal/mol)

>  <smiles>  (3) 
CNC(=O)c1ccc(NS(=O)(=O)c2cccc(-c3nn[nH]n3)c2O)cc1O

>  <score_type>  (3) 
oracle

>  <origin>  (3) 
adgpu

>  <m_score__min__energy>  (3) 
-12.699999999999999

>  <m_primary>  (3) 
energy

$$$$
3:0
     RDKit          3D

 61 65  0  0  0  0  0  0  0  0999 V2000
   -4.6380   25.7250  -30.6510 O   0  0  0  0  0  0  0  0  0  0  0  0
   -4.0300   24.6360  -30.4700 C   0  0  0  0  0  0  0  0  0  0  0  0
   -4.2490   23.5210  -31.3410 N   0  0  0  0  0  0  0  0  0  0  0  0
   -5.4900   22.8360  -31.5650 C   0  0  0  0  0  0  0  0  0  0  0  0
   -6.7280   23.4090  -31.2330 C   0  0  0  0  0  0  0  0  0  0  0  0
   -7.9110   22.7020  -31.4600 C   0  0  0  0  0  0  0  0  0  0  0  0
   -7.8760   21.4100  -31.9950 C   0  0  0  0  0  0  0  0  0  0  0  0
   -9.4100   20.6030  -32.3030 Cl  0  0  0  0  0  0  0  0  0  0  0  0
   -6.6340   20.8030  -32.2830 C   0  0  0  0  0  0  0  0  0  0  0  0
   -6.5370   19.1700  -32.9570 S   0  0  0  0  0  0  0  0  0  0  0  0
   -6.4660   19.2870  -34.4540 O   0  0  0  0  0  0  0  0  0  0  0  0
   -7.7480   18.3680  -32.5670 O   0  0  0  0  0  0  0  0  0  0  0  0
   -5.1280   18.3480  -32.3590 N   0  0  0  0  0  0  0  0  0  0  0  0
   -3.8670   18.3580  -33.0410 C   0  0  0  0  0  0  0  0  0  0  0  0
   -3.5790   17.3470  -33.9690 C   0  0  0  0  0  0  0  0  0  0  0  0
   -2.3510   17.3290  -34.6350 C   0  0  0  0  0  0  0  0  0  0  0  0
   -1.4080   18.3310  -34.3950 C   0  0  0  0  0  0  0  0  0  0  0  0
   -1.6950   19.3680  -33.4970 C   0  0  0  0  0  0  0  0  0  0  0  0
   -0.5250   20.6640  -33.2330 S   0  0  0  0  0  0  0  0  0  0  0  0
   -0.9670   21.8910  -33.9820 O   0  0  0  0  0  0  0  0  0  0  0  0
    0.8130   20.2440  -33.7790 O   0  0  0  0  0  0  0  0  0  0  0  0
   -0.3670   21.0500  -31.5340 N   0  0  0  0  0  0  0  0  0  0  0  0
   -1.4770   21.9180  -31.0660 C   0  0  0  0  0  0  0  0  0  0  0  0
   -2.5440   21.1470  -30.2740 C   0  0  0  0  0  0  0  0  0  0  0  0
   -1.9300   20.4640  -29.0390 C   0  0  0  0  0  0  0  0  0  0  0  0
   -0.4650   20.0470  -29.2560 C   0  0  0  0  0  0  0  0  0  0  0  0
   -0.1710   19.8150  -30.7410 C   0  0  0  0  0  0  0  0  0  0  0  0
   -2.9230   19.3780  -32.8210 C   0  0  0  0  0  0  0  0  0  0  0  0
   -5.4530   21.5340  -32.0760 C   0  0  0  0  0  0  0  0  0  0  0  0
   -3.0460   24.5320  -29.3880 C   0  0  0  0  0  0  0  0  0  0  0  0
   -3.1010   23.6290  -28.3280 C   0  0  0  0  0  0  0  0  0  0  0  0
   -1.9770   23.9090  -27.5860 C   0  0  0  0  0  0  0  0  0  0  0  0
   -1.4910   23.3360  -26.4150 C   0  0  0  0  0  0  0  0  0  0  0  0
   -0.2910   23.8470  -25.8840 C   0  0  0  0  0  0  0  0  0  0  0  0
    0.3830   24.9080  -26.5320 C   0  0  0  0  0  0  0  0  0  0  0  0
   -0.1340   25.4630  -27.7170 C   0  0  0  0  0  0  0  0  0  0  0  0
   -1.3230   24.9350  -28.2170 C   0  0  0  0  0  0  0  0  0  0  0  0
   -1.9740   25.3000  -29.2950 O   0  0  0  0  0  0  0  0  0  0  0  0
   -6.7663   24.4166  -30.7933 H   0  0  0  0  0  0  0  0  0  0  0  0
   -8.8784   23.1651  -31.2160 H   0  0  0  0  0  0  0  0  0  0  0  0
   -5.1870   17.8990  -31.4170 H   0  0  0  0  0  0  0  0  0  0  0  0
   -4.3239   16.5639  -34.1737 H   0  0  0  0  0  0  0  0  0  0  0  0
   -2.1263   16.5239  -35.3500 H   0  0  0  0  0  0  0  0  0  0  0  0
   -0.4375   18.3061  -34.9122 H   0  0  0  0  0  0  0  0  0  0  0  0
   -1.0596   22.7041  -30.4196 H   0  0  0  0  0  0  0  0  0  0  0  0
   -1.9661   22.3385  -31.9570 H   0  0  0  0  0  0  0  0  0  0  0  0
   -3.3249   21.8487  -29.9456 H   0  0  0  0  0  0  0  0  0  0  0  0
   -2.9715   20.3713  -30.9264 H   0  0  0  0  0  0  0  0  0  0  0  0
   -1.9745   21.1639  -28.1916 H   0  0  0  0  0  0  0  0  0  0  0  0
   -2.5095   19.5497  -28.8434 H   0  0  0  0  0  0  0  0  0  0  0  0
    0.1944   20.8428  -28.8794 H   0  0  0  0  0  0  0  0  0  0  0  0
   -0.2858   19.1069  -28.7137 H   0  0  0  0  0  0  0  0  0  0  0  0
    0.8715   19.4817  -30.8509 H   0  0  0  0  0  0  0  0  0  0  0  0
   -0.8686   19.0512  -31.1150 H   0  0  0  0  0  0  0  0  0  0  0  0
   -3.1503   20.1890  -32.1135 H   0  0  0  0  0  0  0  0  0  0  0  0
   -4.4832   21.0756  -32.3195 H   0  0  0  0  0  0  0  0  0  0  0  0
   -3.8683   22.8662  -28.1298 H   0  0  0  0  0  0  0  0  0  0  0  0
   -2.0260   22.5117  -25.9207 H   0  0  0  0  0  0  0  0  0  0  0  0
    0.1244   23.4185  -24.9600 H   0  0  0  0  0  0  0  0  0  0  0  0
    1.3178   25.3020  -26.1067 H   0  0  0  0  0  0  0  0  0  0  0  0
    0.3830   26.2863  -28.2317 H   0  0  0  0  0  0  0  0  0  0  0  0
  1  2  2  0
  2  3  1  0
  3  4  1  0
  4  5  2  0
  5  6  1  0
  6  7  2  0
  7  8  1  0
  7  9  1  0
  9 10  1  0
 10 11  2  0
 10 12  2  0
 10 13  1  0
 13 14  1  0
 14 15  2  0
 15 16  1  0
 16 17  2  0
 17 18  1  0
 18 19  1  0
 19 20  2  0
 19 21  2  0
 19 22  1  0
 22 23  1  0
 23 24  1  0
 24 25  1  0
 25 26  1  0
 26 27  1  0
 18 28  2  0
  9 29  2  0
  2 30  1  0
 30 31  2  0
 31 32  1  0
 32 33  2  0
 33 34  1  0
 34 35  2  0
 35 36  1  0
 36 37  2  0
 37 38  1  0
 29  4  1  0
 38 30  1  0
 28 14  1  0
 37 32  1  0
 27 22  1  0
  5 39  1  0
  6 40  1  0
 13 41  1  0
 15 42  1  0
 16 43  1  0
 17 44  1  0
 23 45  1  0
 23 46  1  0
 24 47  1  0
 24 48  1  0
 25 49  1  0
 25 50  1  0
 26 51  1  0
 26 52  1  0
 27 53  1  0
 27 54  1  0
 28 55  1  0
 29 56  1  0
 31 57  1  0
 33 58  1  0
 34 59  1  0
 35 60  1  0
 36 61  1  0
M  CHG  1   3  -1
M  END
>  <UniqueID>  (4) 
4

>  <SMILES>  (4) 
O=C([N-]c1ccc(Cl)c(S(=O)(=O)Nc2cccc(S(=O)(=O)N3CCCCC3)c2)c1)c1cc2ccccc2o1

>  <Energy>  (4) 
113.77270951746193

>  <Genealogy>  (4) 
O=C([N-]c1ccc(Cl)c(S(=O)(=O)Nc2cccc(S(=O)(=O)N3CCCCC3)c2)c1)c1cc2ccccc2o1 (protonated)
O=C([N-]c1ccc(Cl)c(S(=O)(=O)Nc2cccc(S(=O)(=O)N3CCCCC3)c2)c1)c1cc2ccccc2o1 (3D coordinates assigned)
O=C([N-]c1ccc(Cl)c(S(=O)(=O)Nc2cccc(S(=O)(=O)N3CCCCC3)c2)c1)c1cc2ccccc2o1 (nonaromatic ring conformer: 113.77270951746193 kcal/mol)

>  <smiles>  (4) 
O=C(Nc1ccc(Cl)c(S(=O)(=O)Nc2cccc(S(=O)(=O)N3CCCCC3)c2)c1)c1cc2ccccc2o1

>  <score_type>  (4) 
oracle

>  <origin>  (4) 
adgpu

>  <m_score__min__energy>  (4) 
-12.98

>  <m_primary>  (4) 
energy

$$$$
4:0
     RDKit          3D

 60 64  0  0  0  0  0  0  0  0999 V2000
   -0.2810   17.5520  -31.6240 C   0  0  0  0  0  0  0  0  0  0  0  0
   -0.9270   18.5490  -32.5340 C   0  0  0  0  0  0  0  0  0  0  0  0
   -0.2290   19.0630  -33.6320 C   0  0  0  0  0  0  0  0  0  0  0  0
   -0.8430   20.0130  -34.4480 C   0  0  0  0  0  0  0  0  0  0  0  0
   -2.1430   20.4380  -34.1660 C   0  0  0  0  0  0  0  0  0  0  0  0
   -2.8260   19.8870  -33.0710 C   0  0  0  0  0  0  0  0  0  0  0  0
   -4.1880   20.3210  -32.7130 C   0  0  0  0  0  0  0  0  0  0  0  0
   -5.2860   19.8240  -33.3140 N   0  0  0  0  0  0  0  0  0  0  0  0
   -6.3110   20.3920  -32.6440 C   0  0  0  0  0  0  0  0  0  0  0  0
   -7.7520   20.1410  -32.9760 C   0  0  0  0  0  0  0  0  0  0  0  0
   -8.2270   18.7580  -32.5060 C   0  0  0  0  0  0  0  0  0  0  0  0
   -7.1460   17.7100  -32.6360 C   0  0  0  0  0  0  0  0  0  0  0  0
   -6.8460   17.1560  -33.8890 C   0  0  0  0  0  0  0  0  0  0  0  0
   -5.8390   16.1970  -34.0130 C   0  0  0  0  0  0  0  0  0  0  0  0
   -5.0950   15.7980  -32.8850 C   0  0  0  0  0  0  0  0  0  0  0  0
   -4.0780   14.8320  -32.9680 O   0  0  0  0  0  0  0  0  0  0  0  0
   -2.7780   15.0560  -33.4470 C   0  0  0  0  0  0  0  0  0  0  0  0
   -2.6020   15.8600  -34.5830 C   0  0  0  0  0  0  0  0  0  0  0  0
   -1.3200   16.1030  -35.0780 C   0  0  0  0  0  0  0  0  0  0  0  0
   -0.2200   15.5280  -34.4330 C   0  0  0  0  0  0  0  0  0  0  0  0
   -0.4040   14.7270  -33.3460 N   0  0  0  0  0  0  0  0  0  0  0  0
   -1.6460   14.4720  -32.8500 C   0  0  0  0  0  0  0  0  0  0  0  0
   -5.4090   16.3370  -31.6320 C   0  0  0  0  0  0  0  0  0  0  0  0
   -6.4220   17.2930  -31.5060 C   0  0  0  0  0  0  0  0  0  0  0  0
   -5.9240   21.2420  -31.6690 N   0  0  0  0  0  0  0  0  0  0  0  0
   -4.5810   21.2020  -31.7140 C   0  0  0  0  0  0  0  0  0  0  0  0
   -3.7320   22.0880  -30.8890 C   0  0  0  0  0  0  0  0  0  0  0  0
   -4.3040   23.0440  -30.0310 C   0  0  0  0  0  0  0  0  0  0  0  0
   -3.4910   23.8460  -29.2250 C   0  0  0  0  0  0  0  0  0  0  0  0
   -2.0980   23.6900  -29.2510 C   0  0  0  0  0  0  0  0  0  0  0  0
   -1.0810   24.6980  -28.2270 S   0  0  0  0  0  0  0  0  0  0  0  0
   -1.2780   26.3590  -28.6700 N   0  0  0  0  0  0  0  0  0  0  0  0
   -1.4770   24.5120  -26.7880 O   0  0  0  0  0  0  0  0  0  0  0  0
    0.3630   24.3030  -28.3870 O   0  0  0  0  0  0  0  0  0  0  0  0
   -1.5230   22.7310  -30.0980 C   0  0  0  0  0  0  0  0  0  0  0  0
   -2.3370   21.9280  -30.9050 C   0  0  0  0  0  0  0  0  0  0  0  0
   -2.1940   18.9770  -32.2780 N   0  0  0  0  0  0  0  0  0  0  0  0
   -0.4657   17.8370  -30.5777 H   0  0  0  0  0  0  0  0  0  0  0  0
   -0.7050   16.5547  -31.8127 H   0  0  0  0  0  0  0  0  0  0  0  0
    0.8025   17.5315  -31.8127 H   0  0  0  0  0  0  0  0  0  0  0  0
    0.7937   18.7214  -33.8496 H   0  0  0  0  0  0  0  0  0  0  0  0
   -0.3038   20.4270  -35.3128 H   0  0  0  0  0  0  0  0  0  0  0  0
   -2.6274   21.1980  -34.7967 H   0  0  0  0  0  0  0  0  0  0  0  0
   -8.3668   20.9110  -32.4871 H   0  0  0  0  0  0  0  0  0  0  0  0
   -7.8562   20.1782  -34.0704 H   0  0  0  0  0  0  0  0  0  0  0  0
   -8.5290   18.8267  -31.4505 H   0  0  0  0  0  0  0  0  0  0  0  0
   -9.0703   18.4551  -33.1441 H   0  0  0  0  0  0  0  0  0  0  0  0
   -7.4069   17.4787  -34.7785 H   0  0  0  0  0  0  0  0  0  0  0  0
   -5.6255   15.7510  -34.9956 H   0  0  0  0  0  0  0  0  0  0  0  0
   -3.4765   16.2999  -35.0848 H   0  0  0  0  0  0  0  0  0  0  0  0
   -1.1764   16.7387  -35.9642 H   0  0  0  0  0  0  0  0  0  0  0  0
    0.7969   15.7230  -34.8044 H   0  0  0  0  0  0  0  0  0  0  0  0
   -1.7645   13.8082  -31.9809 H   0  0  0  0  0  0  0  0  0  0  0  0
   -4.8555   16.0066  -30.7407 H   0  0  0  0  0  0  0  0  0  0  0  0
   -6.6529   17.7200  -30.5189 H   0  0  0  0  0  0  0  0  0  0  0  0
   -5.3971   23.1613  -29.9939 H   0  0  0  0  0  0  0  0  0  0  0  0
   -3.9457   24.6021  -28.5681 H   0  0  0  0  0  0  0  0  0  0  0  0
   -1.2260   26.4040  -29.7140 H   0  0  0  0  0  0  0  0  0  0  0  0
   -0.4301   22.6099  -30.1280 H   0  0  0  0  0  0  0  0  0  0  0  0
   -1.8813   21.1670  -31.5556 H   0  0  0  0  0  0  0  0  0  0  0  0
  1  2  1  0
  2  3  2  0
  3  4  1  0
  4  5  2  0
  5  6  1  0
  6  7  1  0
  7  8  1  0
  8  9  1  0
  9 10  1  0
 10 11  1  0
 11 12  1  0
 12 13  2  0
 13 14  1  0
 14 15  2  0
 15 16  1  0
 16 17  1  0
 17 18  2  0
 18 19  1  0
 19 20  2  0
 20 21  1  0
 21 22  2  0
 15 23  1  0
 23 24  2  0
  9 25  2  0
 25 26  1  0
 26 27  1  0
 27 28  2  0
 28 29  1  0
 29 30  2  0
 30 31  1  0
 31 32  1  0
 31 33  2  0
 31 34  2  0
 30 35  1  0
 35 36  2  0
  6 37  2  0
 37  2  1  0
 26  7  2  0
 36 27  1  0
 24 12  1  0
 22 17  1  0
  1 38  1  0
  1 39  1  0
  1 40  1  0
  3 41  1  0
  4 42  1  0
  5 43  1  0
 10 44  1  0
 10 45  1  0
 11 46  1  0
 11 47  1  0
 13 48  1  0
 14 49  1  0
 18 50  1  0
 19 51  1  0
 20 52  1  0
 22 53  1  0
 23 54  1  0
 24 55  1  0
 28 56  1  0
 29 57  1  0
 32 58  1  0
 35 59  1  0
 36 60  1  0
M  CHG  2   8  -1  32  -1
M  END
>  <UniqueID>  (5) 
5

>  <SMILES>  (5) 
Cc1cccc(-c2[n-]c(CCc3ccc(Oc4cccnc4)cc3)nc2-c2ccc(S([NH-])(=O)=O)cc2)n1

>  <Energy>  (5) 
103.99831688314532

>  <Genealogy>  (5) 
Cc1cccc(-c2[n-]c(CCc3ccc(Oc4cccnc4)cc3)nc2-c2ccc(S([NH-])(=O)=O)cc2)n1 (protonated)
Cc1cccc(-c2[n-]c(CCc3ccc(Oc4cccnc4)cc3)nc2-c2ccc(S([NH-])(=O)=O)cc2)n1 (3D coordinates assigned)
Cc1cccc(-c2[n-]c(CCc3ccc(Oc4cccnc4)cc3)nc2-c2ccc(S([NH-])(=O)=O)cc2)n1 (optimized conformer: 103.99831688314532 kcal/mol)

>  <smiles>  (5) 
Cc1cccc(-c2[nH]c(CCc3ccc(Oc4cccnc4)cc3)nc2-c2ccc(S(N)(=O)=O)cc2)n1

>  <score_type>  (5) 
oracle

>  <origin>  (5) 
adgpu

>  <m_score__min__energy>  (5) 
-13.470000000000001

>  <m_primary>  (5) 
energy

$$$$
5:0
     RDKit          3D

 41 43  0  0  0  0  0  0  0  0999 V2000
   -4.5350   25.5430  -30.8430 O   0  0  0  0  0  0  0  0  0  0  0  0
   -3.8950   24.6240  -30.2610 C   0  0  0  0  0  0  0  0  0  0  0  0
   -2.6760   24.9190  -29.5740 N   0  0  0  0  0  0  0  0  0  0  0  0
   -2.3370   24.3740  -28.2640 C   0  0  0  0  0  0  0  0  0  0  0  0
   -2.0660   22.8970  -28.3660 C   0  0  0  0  0  0  0  0  0  0  0  0
   -2.7280   22.0000  -27.5120 C   0  0  0  0  0  0  0  0  0  0  0  0
   -2.4950   20.6250  -27.6170 C   0  0  0  0  0  0  0  0  0  0  0  0
   -1.6050   20.1370  -28.5760 C   0  0  0  0  0  0  0  0  0  0  0  0
   -0.9460   21.0220  -29.4340 C   0  0  0  0  0  0  0  0  0  0  0  0
   -1.1750   22.3980  -29.3330 C   0  0  0  0  0  0  0  0  0  0  0  0
   -4.3710   23.2730  -30.2980 N   0  0  0  0  0  0  0  0  0  0  0  0
   -5.6120   22.9050  -30.9140 C   0  0  0  0  0  0  0  0  0  0  0  0
   -6.7550   23.6750  -30.6520 C   0  0  0  0  0  0  0  0  0  0  0  0
   -7.9800   23.3480  -31.2390 C   0  0  0  0  0  0  0  0  0  0  0  0
   -8.0700   22.2550  -32.1040 C   0  0  0  0  0  0  0  0  0  0  0  0
   -6.9350   21.4970  -32.3940 C   0  0  0  0  0  0  0  0  0  0  0  0
   -5.6990   21.8200  -31.8160 C   0  0  0  0  0  0  0  0  0  0  0  0
   -4.2490   20.8710  -32.3000 S   0  0  0  0  0  0  0  0  0  0  0  0
   -5.2080   19.4000  -32.6590 C   0  0  0  0  0  0  0  0  0  0  0  0
   -5.3690   18.9720  -33.9840 C   0  0  0  0  0  0  0  0  0  0  0  0
   -6.1140   17.8220  -34.2620 C   0  0  0  0  0  0  0  0  0  0  0  0
   -6.7030   17.1000  -33.2190 C   0  0  0  0  0  0  0  0  0  0  0  0
   -6.5490   17.5290  -31.8970 C   0  0  0  0  0  0  0  0  0  0  0  0
   -5.8040   18.6790  -31.6170 C   0  0  0  0  0  0  0  0  0  0  0  0
   -1.4395   24.8818  -27.8810 H   0  0  0  0  0  0  0  0  0  0  0  0
   -3.1829   24.5358  -27.5797 H   0  0  0  0  0  0  0  0  0  0  0  0
   -3.4325   22.3803  -26.7576 H   0  0  0  0  0  0  0  0  0  0  0  0
   -3.0135   19.9270  -26.9432 H   0  0  0  0  0  0  0  0  0  0  0  0
   -1.4224   19.0552  -28.6563 H   0  0  0  0  0  0  0  0  0  0  0  0
   -0.2463   20.6357  -30.1897 H   0  0  0  0  0  0  0  0  0  0  0  0
   -0.6569   23.0917  -30.0116 H   0  0  0  0  0  0  0  0  0  0  0  0
   -3.7070   22.5130  -30.0280 H   0  0  0  0  0  0  0  0  0  0  0  0
   -6.6863   24.5427  -29.9794 H   0  0  0  0  0  0  0  0  0  0  0  0
   -8.8734   23.9512  -31.0200 H   0  0  0  0  0  0  0  0  0  0  0  0
   -9.0370   21.9914  -32.5572 H   0  0  0  0  0  0  0  0  0  0  0  0
   -7.0103   20.6407  -33.0803 H   0  0  0  0  0  0  0  0  0  0  0  0
   -4.9091   19.5411  -34.8054 H   0  0  0  0  0  0  0  0  0  0  0  0
   -6.2370   17.4848  -35.3018 H   0  0  0  0  0  0  0  0  0  0  0  0
   -7.2876   16.1944  -33.4387 H   0  0  0  0  0  0  0  0  0  0  0  0
   -7.0139   16.9618  -31.0771 H   0  0  0  0  0  0  0  0  0  0  0  0
   -5.6861   19.0175  -30.5770 H   0  0  0  0  0  0  0  0  0  0  0  0
  1  2  2  0
  2  3  1  0
  3  4  1  0
  4  5  1  0
  5  6  2  0
  6  7  1  0
  7  8  2  0
  8  9  1  0
  9 10  2  0
  2 11  1  0
 11 12  1  0
 12 13  2  0
 13 14  1  0
 14 15  2  0
 15 16  1  0
 16 17  2  0
 17 18  1  0
 18 19  1  0
 19 20  2  0
 20 21  1  0
 21 22  2  0
 22 23  1  0
 23 24  2  0
 10  5  1  0
 17 12  1  0
 24 19  1  0
  4 25  1  0
  4 26  1  0
  6 27  1  0
  7 28  1  0
  8 29  1  0
  9 30  1  0
 10 31  1  0
 11 32  1  0
 13 33  1  0
 14 34  1  0
 15 35  1  0
 16 36  1  0
 20 37  1  0
 21 38  1  0
 22 39  1  0
 23 40  1  0
 24 41  1  0
M  CHG  1   3  -1
M  END
>  <UniqueID>  (6) 
6

>  <SMILES>  (6) 
O=C([N-]Cc1ccccc1)Nc1ccccc1Sc1ccccc1

>  <Energy>  (6) 
41.91302704815035

>  <Genealogy>  (6) 
O=C([N-]Cc1ccccc1)Nc1ccccc1Sc1ccccc1 (protonated)
O=C([N-]Cc1ccccc1)Nc1ccccc1Sc1ccccc1 (3D coordinates assigned)
O=C([N-]Cc1ccccc1)Nc1ccccc1Sc1ccccc1 (optimized conformer: 41.91302704815035 kcal/mol)

>  <smiles>  (6) 
O=C(NCc1ccccc1)Nc1ccccc1Sc1ccccc1

>  <score_type>  (6) 
oracle

>  <origin>  (6) 
adgpu

>  <m_score__min__energy>  (6) 
-10.34

>  <m_primary>  (6) 
energy

$$$$
6:0
     RDKit          3D

 47 49  0  0  0  0  0  0  0  0999 V2000
   -4.1250   22.8380  -27.6880 O   0  0  0  0  0  0  0  0  0  0  0  0
   -3.8410   22.8240  -28.9160 C   0  0  0  0  0  0  0  0  0  0  0  0
   -2.5630   22.3330  -29.3390 N   0  0  0  0  0  0  0  0  0  0  0  0
   -1.3350   23.1190  -29.2910 C   0  0  0  0  0  0  0  0  0  0  0  0
   -1.2070   23.8060  -27.9550 C   0  0  0  0  0  0  0  0  0  0  0  0
   -0.9810   23.0280  -26.8060 C   0  0  0  0  0  0  0  0  0  0  0  0
   -0.8360   23.6360  -25.5570 C   0  0  0  0  0  0  0  0  0  0  0  0
   -0.9130   25.0250  -25.4410 C   0  0  0  0  0  0  0  0  0  0  0  0
   -1.1340   25.8100  -26.5750 C   0  0  0  0  0  0  0  0  0  0  0  0
   -1.2810   25.2090  -27.8350 C   0  0  0  0  0  0  0  0  0  0  0  0
   -1.4980   26.0040  -28.9600 O   0  0  0  0  0  0  0  0  0  0  0  0
   -4.8200   23.3120  -29.9230 C   0  0  0  0  0  0  0  0  0  0  0  0
   -5.9810   22.5610  -30.1860 C   0  0  0  0  0  0  0  0  0  0  0  0
   -6.9260   22.9990  -31.1240 C   0  0  0  0  0  0  0  0  0  0  0  0
   -8.3900   22.0570  -31.4190 S   0  0  0  0  0  0  0  0  0  0  0  0
   -9.3970   22.9140  -32.1340 O   0  0  0  0  0  0  0  0  0  0  0  0
   -8.9860   21.6420  -30.1000 O   0  0  0  0  0  0  0  0  0  0  0  0
   -8.0550   20.6340  -32.3780 N   0  0  0  0  0  0  0  0  0  0  0  0
   -8.5550   19.4220  -31.6930 C   0  0  0  0  0  0  0  0  0  0  0  0
   -7.9300   18.1520  -32.2750 C   0  0  0  0  0  0  0  0  0  0  0  0
   -6.4030   18.1470  -32.0830 C   0  0  0  0  0  0  0  0  0  0  0  0
   -5.8140   19.5640  -31.9660 C   0  0  0  0  0  0  0  0  0  0  0  0
   -6.6300   20.5730  -32.7870 C   0  0  0  0  0  0  0  0  0  0  0  0
   -6.7060   24.1930  -31.8200 C   0  0  0  0  0  0  0  0  0  0  0  0
   -5.5590   24.9460  -31.5740 C   0  0  0  0  0  0  0  0  0  0  0  0
   -4.6180   24.5190  -30.6330 C   0  0  0  0  0  0  0  0  0  0  0  0
   -3.4930   25.3070  -30.4110 O   0  0  0  0  0  0  0  0  0  0  0  0
   -0.4720   22.4538  -29.4414 H   0  0  0  0  0  0  0  0  0  0  0  0
   -1.3657   23.8806  -30.0842 H   0  0  0  0  0  0  0  0  0  0  0  0
   -0.9180   21.9331  -26.8913 H   0  0  0  0  0  0  0  0  0  0  0  0
   -0.6608   23.0193  -24.6632 H   0  0  0  0  0  0  0  0  0  0  0  0
   -0.7996   25.5015  -24.4561 H   0  0  0  0  0  0  0  0  0  0  0  0
   -1.1931   26.9043  -26.4802 H   0  0  0  0  0  0  0  0  0  0  0  0
   -2.0450   25.6720  -29.7470 H   0  0  0  0  0  0  0  0  0  0  0  0
   -6.1492   21.6166  -29.6476 H   0  0  0  0  0  0  0  0  0  0  0  0
   -8.3044   19.4864  -30.6239 H   0  0  0  0  0  0  0  0  0  0  0  0
   -9.6442   19.3683  -31.8368 H   0  0  0  0  0  0  0  0  0  0  0  0
   -8.3587   17.2755  -31.7671 H   0  0  0  0  0  0  0  0  0  0  0  0
   -8.1464   18.1188  -33.3530 H   0  0  0  0  0  0  0  0  0  0  0  0
   -6.1657   17.5904  -31.1644 H   0  0  0  0  0  0  0  0  0  0  0  0
   -5.9582   17.6748  -32.9714 H   0  0  0  0  0  0  0  0  0  0  0  0
   -5.8227   19.8703  -30.9095 H   0  0  0  0  0  0  0  0  0  0  0  0
   -4.7856   19.5475  -32.3561 H   0  0  0  0  0  0  0  0  0  0  0  0
   -6.1852   21.5709  -32.6587 H   0  0  0  0  0  0  0  0  0  0  0  0
   -6.6021   20.2434  -33.8361 H   0  0  0  0  0  0  0  0  0  0  0  0
   -7.4400   24.5382  -32.5630 H   0  0  0  0  0  0  0  0  0  0  0  0
   -5.3932   25.8836  -32.1248 H   0  0  0  0  0  0  0  0  0  0  0  0
  1  2  2  0
  2  3  1  0
  3  4  1  0
  4  5  1  0
  5  6  2  0
  6  7  1  0
  7  8  2  0
  8  9  1  0
  9 10  2  0
 10 11  1  0
  2 12  1  0
 12 13  2  0
 13 14  1  0
 14 15  1  0
 15 16  2  0
 15 17  2  0
 15 18  1  0
 18 19  1  0
 19 20  1  0
 20 21  1  0
 21 22  1  0
 22 23  1  0
 14 24  2  0
 24 25  1  0
 25 26  2  0
 26 27  1  0
 10  5  1  0
 26 12  1  0
 23 18  1  0
  4 28  1  0
  4 29  1  0
  6 30  1  0
  7 31  1  0
  8 32  1  0
  9 33  1  0
 11 34  1  0
 13 35  1  0
 19 36  1  0
 19 37  1  0
 20 38  1  0
 20 39  1  0
 21 40  1  0
 21 41  1  0
 22 42  1  0
 22 43  1  0
 23 44  1  0
 23 45  1  0
 24 46  1  0
 25 47  1  0
M  CHG  2   3  -1  27  -1
M  END
>  <UniqueID>  (7) 
7

>  <SMILES>  (7) 
O=C([N-]Cc1ccccc1O)c1cc(S(=O)(=O)N2CCCCC2)ccc1[O-]

>  <Energy>  (7) 
53.271927554541215

>  <Genealogy>  (7) 
O=C([N-]Cc1ccccc1O)c1cc(S(=O)(=O)N2CCCCC2)ccc1[O-] (protonated)
O=C([N-]Cc1ccccc1O)c1cc(S(=O)(=O)N2CCCCC2)ccc1[O-] (3D coordinates assigned)
O=C([N-]Cc1ccccc1O)c1cc(S(=O)(=O)N2CCCCC2)ccc1[O-] (nonaromatic ring conformer: 53.271927554541215 kcal/mol)

>  <smiles>  (7) 
O=C(NCc1ccccc1O)c1cc(S(=O)(=O)N2CCCCC2)ccc1O

>  <score_type>  (7) 
oracle

>  <origin>  (7) 
adgpu

>  <m_score__min__energy>  (7) 
-13.92

>  <m_primary>  (7) 
energy

$$$$
7:0
     RDKit          3D

 34 36  0  0  0  0  0  0  0  0999 V2000
   -7.3080   22.9850  -29.3630 O   0  0  0  0  0  0  0  0  0  0  0  0
   -6.9310   22.6980  -30.5330 C   0  0  0  0  0  0  0  0  0  0  0  0
   -7.6560   21.6240  -31.2650 C   0  0  0  0  0  0  0  0  0  0  0  0
   -7.0450   20.3950  -31.5850 C   0  0  0  0  0  0  0  0  0  0  0  0
   -7.7580   19.4040  -32.2670 C   0  0  0  0  0  0  0  0  0  0  0  0
   -9.0840   19.6250  -32.6430 C   0  0  0  0  0  0  0  0  0  0  0  0
   -9.6990   20.8420  -32.3420 C   0  0  0  0  0  0  0  0  0  0  0  0
   -8.9910   21.8360  -31.6610 C   0  0  0  0  0  0  0  0  0  0  0  0
   -5.7010   23.3780  -31.1090 C   0  0  2  0  0  0  0  0  0  0  0  0
   -4.6500   22.3390  -31.4400 C   0  0  0  0  0  0  0  0  0  0  0  0
   -4.5570   21.8400  -32.7510 C   0  0  0  0  0  0  0  0  0  0  0  0
   -3.6200   20.8570  -33.0730 C   0  0  0  0  0  0  0  0  0  0  0  0
   -2.7680   20.3550  -32.0900 C   0  0  0  0  0  0  0  0  0  0  0  0
   -2.8470   20.8350  -30.7810 C   0  0  0  0  0  0  0  0  0  0  0  0
   -3.7800   21.8310  -30.4430 C   0  0  0  0  0  0  0  0  0  0  0  0
   -3.8560   22.3300  -29.0180 C   0  0  0  0  0  0  0  0  0  0  0  0
   -3.7750   23.8560  -28.9510 C   0  0  0  0  0  0  0  0  0  0  0  0
   -4.9970   24.6180  -30.0110 S   0  0  0  0  0  0  0  0  0  0  0  0
   -6.0670   25.2670  -29.1790 O   0  0  0  0  0  0  0  0  0  0  0  0
   -4.3220   25.6730  -30.8420 O   0  0  0  0  0  0  0  0  0  0  0  0
   -5.9992   20.2139  -31.2961 H   0  0  0  0  0  0  0  0  0  0  0  0
   -7.2722   18.4470  -32.5080 H   0  0  0  0  0  0  0  0  0  0  0  0
   -9.6435   18.8418  -33.1755 H   0  0  0  0  0  0  0  0  0  0  0  0
  -10.7426   21.0186  -32.6414 H   0  0  0  0  0  0  0  0  0  0  0  0
   -9.4813   22.7937  -31.4319 H   0  0  0  0  0  0  0  0  0  0  0  0
   -6.0262   23.9032  -32.0192 H   0  0  0  0  0  0  0  0  0  0  0  0
   -5.2292   22.2280  -33.5305 H   0  0  0  0  0  0  0  0  0  0  0  0
   -3.5536   20.4779  -34.1035 H   0  0  0  0  0  0  0  0  0  0  0  0
   -2.0318   19.5789  -32.3463 H   0  0  0  0  0  0  0  0  0  0  0  0
   -2.1750   20.4313  -30.0094 H   0  0  0  0  0  0  0  0  0  0  0  0
   -4.8087   22.0033  -28.5756 H   0  0  0  0  0  0  0  0  0  0  0  0
   -3.0022   21.9153  -28.4621 H   0  0  0  0  0  0  0  0  0  0  0  0
   -3.9487   24.1790  -27.9139 H   0  0  0  0  0  0  0  0  0  0  0  0
   -2.7766   24.1663  -29.2929 H   0  0  0  0  0  0  0  0  0  0  0  0
  1  2  2  0
  2  3  1  0
  3  4  2  0
  4  5  1  0
  5  6  2  0
  6  7  1  0
  7  8  2  0
  2  9  1  0
  9 10  1  0
 10 11  2  0
 11 12  1  0
 12 13  2  0
 13 14  1  0
 14 15  2  0
 15 16  1  0
 16 17  1  0
 17 18  1  0
 18 19  2  0
 18 20  2  0
  8  3  1  0
 18  9  1  0
 15 10  1  0
  4 21  1  0
  5 22  1  0
  6 23  1  0
  7 24  1  0
  8 25  1  0
  9 26  1  6
 11 27  1  0
 12 28  1  0
 13 29  1  0
 14 30  1  0
 16 31  1  0
 16 32  1  0
 17 33  1  0
 17 34  1  0
M  END
>  <UniqueID>  (8) 
8

>  <SMILES>  (8) 
O=C(c1ccccc1)[C@@H]1c2ccccc2CCS1(=O)=O

>  <Energy>  (8) 
38.015720726177555

>  <Genealogy>  (8) 
O=C(c1ccccc1)[C@@H]1c2ccccc2CCS1(=O)=O (chirality)
O=C(c1ccccc1)[C@@H]1c2ccccc2CCS1(=O)=O (3D coordinates assigned)
O=C(c1ccccc1)[C@@H]1c2ccccc2CCS1(=O)=O (nonaromatic ring conformer: 38.015720726177555 kcal/mol)

>  <smiles>  (8) 
O=C(c1ccccc1)C1c2ccccc2CCS1(=O)=O

>  <score_type>  (8) 
oracle

>  <origin>  (8) 
adgpu

>  <m_score__min__energy>  (8) 
-8.6199999999999992

>  <m_primary>  (8) 
energy

$$$$
8:0
     RDKit          3D

 51 54  0  0  0  0  0  0  0  0999 V2000
   -7.2750   26.2510  -28.9910 H   0  0  0  0  0  0  0  0  0  0  0  0
   -7.1760   25.4370  -29.6390 N   0  0  0  0  0  0  0  0  0  0  0  0
   -6.1230   24.6750  -29.6410 C   0  0  0  0  0  0  0  0  0  0  0  0
   -6.0390   23.5920  -30.5370 C   0  0  0  0  0  0  0  0  0  0  0  0
   -7.1060   23.3530  -31.4880 C   0  0  0  0  0  0  0  0  0  0  0  0
   -7.9580   23.1630  -32.2470 N   0  0  0  0  0  0  0  0  0  0  0  0
   -4.8860   22.7780  -30.5250 C   0  0  0  0  0  0  0  0  0  0  0  0
   -4.7340   21.6120  -31.4300 C   0  0  0  0  0  0  0  0  0  0  0  0
   -5.6330   20.5370  -31.3640 C   0  0  0  0  0  0  0  0  0  0  0  0
   -6.4651   20.5628  -30.6450 H   0  0  0  0  0  0  0  0  0  0  0  0
   -5.4770   19.4350  -32.2060 C   0  0  0  0  0  0  0  0  0  0  0  0
   -6.1901   18.5992  -32.1506 H   0  0  0  0  0  0  0  0  0  0  0  0
   -4.4180   19.3870  -33.1210 C   0  0  0  0  0  0  0  0  0  0  0  0
   -4.2880   18.2490  -33.9810 N   0  0  0  0  0  0  0  0  0  0  0  0
   -5.4620   17.7310  -34.6900 C   0  0  0  0  0  0  0  0  0  0  0  0
   -6.3735   18.1552  -34.2437 H   0  0  0  0  0  0  0  0  0  0  0  0
   -5.3981   18.0162  -35.7505 H   0  0  0  0  0  0  0  0  0  0  0  0
   -5.5080   16.2020  -34.5820 C   0  0  0  0  0  0  0  0  0  0  0  0
   -5.8251   15.9350  -33.5631 H   0  0  0  0  0  0  0  0  0  0  0  0
   -6.2135   15.8464  -35.3474 H   0  0  0  0  0  0  0  0  0  0  0  0
   -4.1490   15.5180  -34.8660 C   0  0  0  0  0  0  0  0  0  0  0  0
   -3.8594   14.9386  -33.9769 H   0  0  0  0  0  0  0  0  0  0  0  0
   -4.2880   14.8836  -35.7538 H   0  0  0  0  0  0  0  0  0  0  0  0
   -3.0170   16.5040  -35.1920 C   0  0  0  0  0  0  0  0  0  0  0  0
   -2.0574   15.9663  -35.1817 H   0  0  0  0  0  0  0  0  0  0  0  0
   -3.2049   16.9376  -36.1853 H   0  0  0  0  0  0  0  0  0  0  0  0
   -2.9660   17.6400  -34.1650 C   0  0  0  0  0  0  0  0  0  0  0  0
   -2.6192   17.2375  -33.2018 H   0  0  0  0  0  0  0  0  0  0  0  0
   -2.2752   18.4123  -34.5341 H   0  0  0  0  0  0  0  0  0  0  0  0
   -3.4990   20.4540  -33.1860 C   0  0  0  0  0  0  0  0  0  0  0  0
   -2.3950   20.4240  -34.0990 N   0  0  0  0  0  0  0  0  0  0  0  0
   -2.3040   21.1470  -34.8470 H   0  0  0  0  0  0  0  0  0  0  0  0
   -1.6480   19.6980  -34.0320 H   0  0  0  0  0  0  0  0  0  0  0  0
   -3.6630   21.5580  -32.3370 C   0  0  0  0  0  0  0  0  0  0  0  0
   -2.9453   22.3904  -32.3819 H   0  0  0  0  0  0  0  0  0  0  0  0
   -3.8490   23.0790  -29.6330 C   0  0  0  0  0  0  0  0  0  0  0  0
   -2.9392   22.4607  -29.6225 H   0  0  0  0  0  0  0  0  0  0  0  0
   -3.9650   24.1650  -28.7530 C   0  0  0  0  0  0  0  0  0  0  0  0
   -2.8730   24.4740  -27.7970 C   0  0  0  0  0  0  0  0  0  0  0  0
   -1.5290   24.2800  -28.1680 C   0  0  0  0  0  0  0  0  0  0  0  0
   -1.2884   23.8980  -29.1711 H   0  0  0  0  0  0  0  0  0  0  0  0
   -0.4980   24.5700  -27.2690 C   0  0  0  0  0  0  0  0  0  0  0  0
    0.5496   24.4177  -27.5681 H   0  0  0  0  0  0  0  0  0  0  0  0
   -0.7950   25.0530  -25.9910 C   0  0  0  0  0  0  0  0  0  0  0  0
    0.5010   25.4160  -24.8660 Cl  0  0  0  0  0  0  0  0  0  0  0  0
   -2.1270   25.2480  -25.6130 C   0  0  0  0  0  0  0  0  0  0  0  0
   -2.3618   25.6278  -24.6077 H   0  0  0  0  0  0  0  0  0  0  0  0
   -3.1600   24.9620  -26.5080 C   0  0  0  0  0  0  0  0  0  0  0  0
   -4.2053   25.1191  -26.2037 H   0  0  0  0  0  0  0  0  0  0  0  0
   -5.0970   24.9290  -28.7780 N   0  0  0  0  0  0  0  0  0  0  0  0
   -5.1690   25.7500  -28.1340 H   0  0  0  0  0  0  0  0  0  0  0  0
  1  2  1  0
  2  3  2  0
  3  4  1  0
  4  5  1  0
  5  6  3  0
  4  7  2  0
  7  8  1  0
  8  9  2  0
  9 10  1  0
  9 11  1  0
 11 12  1  0
 11 13  2  0
 13 14  1  0
 14 15  1  0
 15 16  1  0
 15 17  1  0
 15 18  1  0
 18 19  1  0
 18 20  1  0
 18 21  1  0
 21 22  1  0
 21 23  1  0
 21 24  1  0
 24 25  1  0
 24 26  1  0
 24 27  1  0
 27 28  1  0
 27 29  1  0
 13 30  1  0
 30 31  1  0
 31 32  1  0
 31 33  1  0
 30 34  2  0
 34 35  1  0
  7 36  1  0
 36 37  1  0
 36 38  2  0
 38 39  1  0
 39 40  2  0
 40 41  1  0
 40 42  1  0
 42 43  1  0
 42 44  2  0
 44 45  1  0
 44 46  1  0
 46 47  1  0
 46 48  2  0
 48 49  1  0
 38 50  1  0
 50 51  1  0
 50  3  1  0
 34  8  1  0
 48 39  1  0
 27 14  1  0
M  END
>  <UniqueID>  (9) 
9

>  <SMILES>  (9) 
[H]/N=c1\[nH]c(-c2ccc(Cl)cc2)cc(-c2ccc(N3CCCCC3)c(N)c2)c1C#N

>  <Energy>  (9) 
74.05770900593521

>  <Genealogy>  (9) 
[H]/N=c1\[nH]c(-c2ccc(Cl)cc2)cc(-c2ccc(N3CCCCC3)c(N)c2)c1C#N (cis-trans isomerization)
[H]/N=c1\[nH]c(-c2ccc(Cl)cc2)cc(-c2ccc(N3CCCCC3)c(N)c2)c1C#N (3D coordinates assigned)
[H]/N=c1\[nH]c(-c2ccc(Cl)cc2)cc(-c2ccc(N3CCCCC3)c(N)c2)c1C#N (nonaromatic ring conformer: 74.05770900593521 kcal/mol)

>  <smiles>  (9) 
N#Cc1c(-c2ccc(N3CCCCC3)c(N)c2)cc(-c2ccc(Cl)cc2)[nH]c1=N

>  <score_type>  (9) 
oracle

>  <origin>  (9) 
adgpu

>  <m_score__min__energy>  (9) 
-9.7599999999999998

>  <m_primary>  (9) 
energy

$$$$
9:0
     RDKit          3D

 70 73  0  0  0  0  0  0  0  0999 V2000
   -3.8020   18.5560  -26.2320 C   0  0  0  0  0  0  0  0  0  0  0  0
   -2.5510   18.8720  -26.5810 C   0  0  0  0  0  0  0  0  0  0  0  0
   -1.9680   20.2350  -26.3250 C   0  0  0  0  0  0  0  0  0  0  0  0
   -1.5510   20.8950  -27.6180 C   0  0  0  0  0  0  0  0  0  0  0  0
   -0.7170   20.2050  -28.5180 C   0  0  0  0  0  0  0  0  0  0  0  0
   -0.3360   20.7940  -29.7350 C   0  0  0  0  0  0  0  0  0  0  0  0
    0.5540   20.0520  -30.6980 C   0  0  0  0  0  0  0  0  0  0  0  0
   -0.2580   19.3590  -31.7680 C   0  0  0  0  0  0  0  0  0  0  0  0
   -0.4100   17.9640  -31.7280 C   0  0  0  0  0  0  0  0  0  0  0  0
   -1.1400   17.3020  -32.7160 C   0  0  0  0  0  0  0  0  0  0  0  0
   -1.7510   18.0130  -33.7540 C   0  0  0  0  0  0  0  0  0  0  0  0
   -2.3890   17.2670  -34.7580 O   0  0  0  0  0  0  0  0  0  0  0  0
   -3.7960   17.1890  -34.9910 C   0  0  0  0  0  0  0  0  0  0  0  0
   -4.4450   16.1780  -34.0360 C   0  0  0  0  0  0  0  0  0  0  0  0
   -5.8330   16.6190  -33.5700 C   0  0  0  0  0  0  0  0  0  0  0  0
   -6.1330   17.9220  -34.0740 O   0  0  0  0  0  0  0  0  0  0  0  0
   -5.9550   19.1270  -33.3680 C   0  0  0  0  0  0  0  0  0  0  0  0
   -4.8050   19.9240  -33.5350 C   0  0  0  0  0  0  0  0  0  0  0  0
   -4.6880   21.1630  -32.8980 C   0  0  0  0  0  0  0  0  0  0  0  0
   -3.5560   21.9380  -33.1660 O   0  0  0  0  0  0  0  0  0  0  0  0
   -5.7130   21.6090  -32.0390 C   0  0  0  0  0  0  0  0  0  0  0  0
   -5.6350   22.9040  -31.3280 C   0  0  0  0  0  0  0  0  0  0  0  0
   -4.4040   23.3760  -30.8410 C   0  0  0  0  0  0  0  0  0  0  0  0
   -4.3450   24.5740  -30.1240 C   0  0  0  0  0  0  0  0  0  0  0  0
   -5.5130   25.3030  -29.8820 C   0  0  0  0  0  0  0  0  0  0  0  0
   -6.7410   24.8410  -30.3630 C   0  0  0  0  0  0  0  0  0  0  0  0
   -6.8040   23.6470  -31.0870 C   0  0  0  0  0  0  0  0  0  0  0  0
   -6.8390   20.7990  -31.8400 C   0  0  0  0  0  0  0  0  0  0  0  0
   -6.9670   19.5610  -32.4880 C   0  0  0  0  0  0  0  0  0  0  0  0
   -8.2040   18.7310  -32.2460 C   0  0  0  0  0  0  0  0  0  0  0  0
   -9.4650   19.5620  -32.4600 C   0  0  0  0  0  0  0  0  0  0  0  0
   -1.6260   19.4200  -33.7860 C   0  0  0  0  0  0  0  0  0  0  0  0
   -2.1960   20.1740  -34.8010 O   0  0  0  0  0  0  0  0  0  0  0  0
   -0.8790   20.0840  -32.8020 C   0  0  0  0  0  0  0  0  0  0  0  0
   -0.7510   21.4680  -32.8700 O   0  0  0  0  0  0  0  0  0  0  0  0
   -0.8170   22.0710  -30.0620 C   0  0  0  0  0  0  0  0  0  0  0  0
   -1.6540   22.7560  -29.1800 C   0  0  0  0  0  0  0  0  0  0  0  0
   -2.0220   22.1770  -27.9620 C   0  0  0  0  0  0  0  0  0  0  0  0
   -2.8580   22.8860  -27.1030 O   0  0  0  0  0  0  0  0  0  0  0  0
   -4.1921   17.5480  -26.4364 H   0  0  0  0  0  0  0  0  0  0  0  0
   -4.4415   19.3040  -25.7404 H   0  0  0  0  0  0  0  0  0  0  0  0
   -1.9272   18.1103  -27.0716 H   0  0  0  0  0  0  0  0  0  0  0  0
   -2.7229   20.8619  -25.8279 H   0  0  0  0  0  0  0  0  0  0  0  0
   -1.0799   20.1227  -25.6857 H   0  0  0  0  0  0  0  0  0  0  0  0
   -0.3604   19.1954  -28.2660 H   0  0  0  0  0  0  0  0  0  0  0  0
    1.2412   20.7663  -31.1750 H   0  0  0  0  0  0  0  0  0  0  0  0
    1.1153   19.2898  -30.1376 H   0  0  0  0  0  0  0  0  0  0  0  0
    0.0500   17.3882  -30.9114 H   0  0  0  0  0  0  0  0  0  0  0  0
   -1.2362   16.2069  -32.6780 H   0  0  0  0  0  0  0  0  0  0  0  0
   -4.2451   18.1799  -34.8285 H   0  0  0  0  0  0  0  0  0  0  0  0
   -3.9669   16.8597  -36.0266 H   0  0  0  0  0  0  0  0  0  0  0  0
   -4.5375   15.2123  -34.5545 H   0  0  0  0  0  0  0  0  0  0  0  0
   -3.8032   16.0999  -33.1460 H   0  0  0  0  0  0  0  0  0  0  0  0
   -6.5839   15.9050  -33.9393 H   0  0  0  0  0  0  0  0  0  0  0  0
   -5.8498   16.6473  -32.4705 H   0  0  0  0  0  0  0  0  0  0  0  0
   -3.9865   19.5657  -34.1766 H   0  0  0  0  0  0  0  0  0  0  0  0
   -2.7490   21.5800  -33.6610 H   0  0  0  0  0  0  0  0  0  0  0  0
   -3.4845   22.8008  -31.0247 H   0  0  0  0  0  0  0  0  0  0  0  0
   -3.3789   24.9436  -29.7498 H   0  0  0  0  0  0  0  0  0  0  0  0
   -5.4653   26.2424  -29.3117 H   0  0  0  0  0  0  0  0  0  0  0  0
   -7.6583   25.4171  -30.1718 H   0  0  0  0  0  0  0  0  0  0  0  0
   -7.7708   23.2877  -31.4693 H   0  0  0  0  0  0  0  0  0  0  0  0
   -7.6368   21.1397  -31.1637 H   0  0  0  0  0  0  0  0  0  0  0  0
   -8.2098   17.8807  -32.9438 H   0  0  0  0  0  0  0  0  0  0  0  0
   -8.1902   18.3731  -31.2060 H   0  0  0  0  0  0  0  0  0  0  0  0
   -9.8896   19.8418  -31.4846 H   0  0  0  0  0  0  0  0  0  0  0  0
   -9.2132   20.4717  -33.0249 H   0  0  0  0  0  0  0  0  0  0  0  0
  -10.2016   18.9718  -33.0249 H   0  0  0  0  0  0  0  0  0  0  0  0
   -0.5329   22.5345  -31.0183 H   0  0  0  0  0  0  0  0  0  0  0  0
   -2.0261   23.7568  -29.4446 H   0  0  0  0  0  0  0  0  0  0  0  0
  1  2  2  0
  2  3  1  0
  3  4  1  0
  4  5  2  0
  5  6  1  0
  6  7  1  0
  7  8  1  0
  8  9  2  0
  9 10  1  0
 10 11  2  0
 11 12  1  0
 12 13  1  0
 13 14  1  0
 14 15  1  0
 15 16  1  0
 16 17  1  0
 17 18  2  0
 18 19  1  0
 19 20  1  0
 19 21  2  0
 21 22  1  0
 22 23  2  0
 23 24  1  0
 24 25  2  0
 25 26  1  0
 26 27  2  0
 21 28  1  0
 28 29  2  0
 29 30  1  0
 30 31  1  0
 11 32  1  0
 32 33  1  0
 32 34  2  0
 34 35  1  0
  6 36  2  0
 36 37  1  0
 37 38  2  0
 38 39  1  0
 38  4  1  0
 34  8  1  0
 29 17  1  0
 27 22  1  0
  1 40  1  0
  1 41  1  0
  2 42  1  0
  3 43  1  0
  3 44  1  0
  5 45  1  0
  7 46  1  0
  7 47  1  0
  9 48  1  0
 10 49  1  0
 13 50  1  0
 13 51  1  0
 14 52  1  0
 14 53  1  0
 15 54  1  0
 15 55  1  0
 18 56  1  0
 20 57  1  0
 23 58  1  0
 24 59  1  0
 25 60  1  0
 26 61  1  0
 27 62  1  0
 28 63  1  0
 30 64  1  0
 30 65  1  0
 31 66  1  0
 31 67  1  0
 31 68  1  0
 36 69  1  0
 37 70  1  0
M  CHG  3  33  -1  35  -1  39  -1
M  END
>  <UniqueID>  (10) 
10

>  <SMILES>  (10) 
C=CCc1cc(Cc2ccc(OCCCOc3cc(O)c(-c4ccccc4)cc3CC)c([O-])c2[O-])ccc1[O-]

>  <Energy>  (10) 
74.91806578116149

>  <Genealogy>  (10) 
C=CCc1cc(Cc2ccc(OCCCOc3cc(O)c(-c4ccccc4)cc3CC)c([O-])c2[O-])ccc1[O-] (protonated)
C=CCc1cc(Cc2ccc(OCCCOc3cc(O)c(-c4ccccc4)cc3CC)c([O-])c2[O-])ccc1[O-] (3D coordinates assigned)
C=CCc1cc(Cc2ccc(OCCCOc3cc(O)c(-c4ccccc4)cc3CC)c([O-])c2[O-])ccc1[O-] (optimized conformer: 74.91806578116149 kcal/mol)

>  <smiles>  (10) 
C=CCc1cc(Cc2ccc(OCCCOc3cc(O)c(-c4ccccc4)cc3CC)c(O)c2O)ccc1O

>  <score_type>  (10) 
oracle

>  <origin>  (10) 
adgpu

>  <m_score__min__energy>  (10) 
-15.550000000000001

>  <m_primary>  (10) 
energy

$$$$
10:0
     RDKit          3D

 55 58  0  0  0  0  0  0  0  0999 V2000
    1.0640   18.2390  -28.7230 C   0  0  0  0  0  0  0  0  0  0  0  0
   -0.2020   18.6330  -28.0200 C   0  0  0  0  0  0  0  0  0  0  0  0
   -0.7660   17.7800  -27.0600 C   0  0  0  0  0  0  0  0  0  0  0  0
   -1.9400   18.1480  -26.3990 C   0  0  0  0  0  0  0  0  0  0  0  0
   -2.5530   19.3710  -26.6790 C   0  0  0  0  0  0  0  0  0  0  0  0
   -2.0200   20.2270  -27.6540 C   0  0  0  0  0  0  0  0  0  0  0  0
   -2.6290   21.5520  -27.8840 C   0  0  0  0  0  0  0  0  0  0  0  0
   -2.0420   22.5880  -28.6000 C   0  0  0  0  0  0  0  0  0  0  0  0
   -2.9800   23.6040  -28.6260 C   0  0  0  0  0  0  0  0  0  0  0  0
   -2.8500   24.8880  -29.3430 C   0  0  0  0  0  0  0  0  0  0  0  0
   -1.9910   25.7370  -28.9680 O   0  0  0  0  0  0  0  0  0  0  0  0
   -3.7080   25.2070  -30.4480 N   0  0  0  0  0  0  0  0  0  0  0  0
   -4.7780   24.3410  -30.8520 C   0  0  0  0  0  0  0  0  0  0  0  0
   -6.0980   24.8090  -30.8680 C   0  0  0  0  0  0  0  0  0  0  0  0
   -7.1180   24.0240  -31.4180 C   0  0  0  0  0  0  0  0  0  0  0  0
   -6.8230   22.7650  -31.9510 C   0  0  0  0  0  0  0  0  0  0  0  0
   -5.5100   22.2700  -31.9030 C   0  0  0  0  0  0  0  0  0  0  0  0
   -5.1090   20.6840  -32.5820 S   0  0  0  0  0  0  0  0  0  0  0  0
   -4.7460   19.7610  -31.4490 O   0  0  0  0  0  0  0  0  0  0  0  0
   -3.9050   20.8370  -33.4680 O   0  0  0  0  0  0  0  0  0  0  0  0
   -6.4630   20.0020  -33.4660 N   0  0  0  0  0  0  0  0  0  0  0  0
   -7.6480   19.8030  -32.5900 C   0  0  0  0  0  0  0  0  0  0  0  0
   -7.5100   18.6160  -31.6170 C   0  0  0  0  0  0  0  0  0  0  0  0
   -6.7420   17.4290  -32.2200 C   0  0  0  0  0  0  0  0  0  0  0  0
   -6.7410   17.4780  -33.7480 C   0  0  0  0  0  0  0  0  0  0  0  0
   -6.0860   18.7810  -34.2370 C   0  0  0  0  0  0  0  0  0  0  0  0
   -4.5020   23.0480  -31.3160 C   0  0  0  0  0  0  0  0  0  0  0  0
   -4.0880   23.1560  -27.9210 C   0  0  0  0  0  0  0  0  0  0  0  0
   -3.8690   21.9010  -27.4880 N   0  0  0  0  0  0  0  0  0  0  0  0
   -0.8520   19.8410  -28.3430 C   0  0  0  0  0  0  0  0  0  0  0  0
    1.8372   17.9984  -27.9785 H   0  0  0  0  0  0  0  0  0  0  0  0
    0.8745   17.3573  -29.3529 H   0  0  0  0  0  0  0  0  0  0  0  0
    1.4083   19.0725  -29.3529 H   0  0  0  0  0  0  0  0  0  0  0  0
   -0.2829   16.8196  -26.8273 H   0  0  0  0  0  0  0  0  0  0  0  0
   -2.3839   17.4711  -25.6542 H   0  0  0  0  0  0  0  0  0  0  0  0
   -3.4603   19.6652  -26.1311 H   0  0  0  0  0  0  0  0  0  0  0  0
   -1.0393   22.5980  -29.0523 H   0  0  0  0  0  0  0  0  0  0  0  0
   -6.3340   25.7973  -30.4467 H   0  0  0  0  0  0  0  0  0  0  0  0
   -8.1525   24.3976  -31.4311 H   0  0  0  0  0  0  0  0  0  0  0  0
   -7.6209   22.1617  -32.4085 H   0  0  0  0  0  0  0  0  0  0  0  0
   -6.7320   20.7400  -34.1610 H   0  0  0  0  0  0  0  0  0  0  0  0
   -7.8010   20.7189  -32.0002 H   0  0  0  0  0  0  0  0  0  0  0  0
   -8.4997   19.5795  -33.2492 H   0  0  0  0  0  0  0  0  0  0  0  0
   -6.9751   18.9594  -30.7192 H   0  0  0  0  0  0  0  0  0  0  0  0
   -8.5255   18.2646  -31.3818 H   0  0  0  0  0  0  0  0  0  0  0  0
   -5.7026   17.4568  -31.8612 H   0  0  0  0  0  0  0  0  0  0  0  0
   -7.2411   16.5005  -31.9056 H   0  0  0  0  0  0  0  0  0  0  0  0
   -6.1765   16.6186  -34.1388 H   0  0  0  0  0  0  0  0  0  0  0  0
   -7.7794   17.4406  -34.1091 H   0  0  0  0  0  0  0  0  0  0  0  0
   -4.9946   18.6598  -34.1727 H   0  0  0  0  0  0  0  0  0  0  0  0
   -6.4468   18.9410  -35.2638 H   0  0  0  0  0  0  0  0  0  0  0  0
   -3.4853   22.6396  -31.2189 H   0  0  0  0  0  0  0  0  0  0  0  0
   -5.0047   23.7375  -27.7434 H   0  0  0  0  0  0  0  0  0  0  0  0
   -4.5370   21.3220  -26.9270 H   0  0  0  0  0  0  0  0  0  0  0  0
   -0.4462   20.4858  -29.1364 H   0  0  0  0  0  0  0  0  0  0  0  0
  1  2  1  0
  2  3  2  0
  3  4  1  0
  4  5  2  0
  5  6  1  0
  6  7  1  0
  7  8  2  0
  8  9  1  0
  9 10  1  0
 10 11  2  0
 10 12  1  0
 12 13  1  0
 13 14  2  0
 14 15  1  0
 15 16  2  0
 16 17  1  0
 17 18  1  0
 18 19  2  0
 18 20  2  0
 18 21  1  0
 21 22  1  0
 22 23  1  0
 23 24  1  0
 24 25  1  0
 25 26  1  0
 17 27  2  0
  9 28  2  0
 28 29  1  0
  6 30  2  0
 30  2  1  0
 29  7  1  0
 27 13  1  0
 26 21  1  0
  1 31  1  0
  1 32  1  0
  1 33  1  0
  3 34  1  0
  4 35  1  0
  5 36  1  0
  8 37  1  0
 14 38  1  0
 15 39  1  0
 16 40  1  0
 21 41  1  0
 22 42  1  0
 22 43  1  0
 23 44  1  0
 23 45  1  0
 24 46  1  0
 24 47  1  0
 25 48  1  0
 25 49  1  0
 26 50  1  0
 26 51  1  0
 27 52  1  0
 28 53  1  0
 29 54  1  0
 30 55  1  0
M  CHG  2  12  -1  21   1
M  END
>  <UniqueID>  (11) 
11

>  <SMILES>  (11) 
Cc1cccc(-c2cc(C(=O)[N-]c3cccc(S(=O)(=O)[NH+]4CCCCC4)c3)c[nH]2)c1

>  <Energy>  (11) 
99.9470979411657

>  <Genealogy>  (11) 
Cc1cccc(-c2cc(C(=O)[N-]c3cccc(S(=O)(=O)[NH+]4CCCCC4)c3)c[nH]2)c1 (protonated)
Cc1cccc(-c2cc(C(=O)[N-]c3cccc(S(=O)(=O)[NH+]4CCCCC4)c3)c[nH]2)c1 (3D coordinates assigned)
Cc1cccc(-c2cc(C(=O)[N-]c3cccc(S(=O)(=O)[NH+]4CCCCC4)c3)c[nH]2)c1 (nonaromatic ring conformer: 99.9470979411657 kcal/mol)

>  <smiles>  (11) 
Cc1cccc(-c2cc(C(=O)Nc3cccc(S(=O)(=O)N4CCCCC4)c3)c[nH]2)c1

>  <score_type>  (11) 
oracle

>  <origin>  (11) 
adgpu

>  <m_score__min__energy>  (11) 
-11.98

>  <m_primary>  (11) 
energy

$$$$
11:0
     RDKit          3D

 47 49  0  0  0  0  0  0  0  0999 V2000
   -9.1100   21.9290  -30.2440 O   0  0  0  0  0  0  0  0  0  0  0  0
   -8.0880   22.3360  -31.2670 S   0  0  0  0  0  0  0  0  0  0  0  0
   -8.7510   23.2350  -32.2720 O   0  0  0  0  0  0  0  0  0  0  0  0
   -7.4910   20.8810  -32.0620 C   0  0  0  0  0  0  0  0  0  0  0  0
   -6.4520   20.9490  -33.0020 C   0  0  0  0  0  0  0  0  0  0  0  0
   -5.9750   19.7820  -33.6040 C   0  0  0  0  0  0  0  0  0  0  0  0
   -6.5320   18.5390  -33.2770 C   0  0  0  0  0  0  0  0  0  0  0  0
   -5.8950   17.0750  -34.0240 S   0  0  0  0  0  0  0  0  0  0  0  0
   -5.3300   17.4340  -35.3700 O   0  0  0  0  0  0  0  0  0  0  0  0
   -7.0010   16.0740  -34.2180 O   0  0  0  0  0  0  0  0  0  0  0  0
   -4.6370   16.3950  -33.0150 N   0  0  0  0  0  0  0  0  0  0  0  0
   -3.3150   16.5720  -33.6290 C   0  0  0  0  0  0  0  0  0  0  0  0
   -3.0040   15.3130  -34.4260 C   0  0  0  0  0  0  0  0  0  0  0  0
   -3.9760   14.2590  -33.9230 C   0  0  0  0  0  0  0  0  0  0  0  0
   -4.8100   14.9460  -32.8520 C   0  0  0  0  0  0  0  0  0  0  0  0
   -7.5700   18.4710  -32.3370 C   0  0  0  0  0  0  0  0  0  0  0  0
   -8.0480   19.6380  -31.7340 C   0  0  0  0  0  0  0  0  0  0  0  0
   -6.7630   23.1580  -30.4740 N   0  0  0  0  0  0  0  0  0  0  0  0
   -5.5830   22.3240  -30.1690 C   0  0  0  0  0  0  0  0  0  0  0  0
   -4.3210   22.6540  -30.9900 C   0  0  0  0  0  0  0  0  0  0  0  0
   -3.5160   23.8730  -30.5090 C   0  0  0  0  0  0  0  0  0  0  0  0
   -4.1180   25.1010  -30.8650 O   0  0  0  0  0  0  0  0  0  0  0  0
   -5.3770   25.2490  -30.2370 C   0  0  0  0  0  0  0  0  0  0  0  0
   -6.4680   24.5000  -31.0060 C   0  0  0  0  0  0  0  0  0  0  0  0
   -6.0123   21.9223  -33.2654 H   0  0  0  0  0  0  0  0  0  0  0  0
   -5.1580   19.8395  -34.3384 H   0  0  0  0  0  0  0  0  0  0  0  0
   -4.6680   16.8720  -32.0820 H   0  0  0  0  0  0  0  0  0  0  0  0
   -3.3260   17.4456  -34.2974 H   0  0  0  0  0  0  0  0  0  0  0  0
   -2.5499   16.7383  -32.8564 H   0  0  0  0  0  0  0  0  0  0  0  0
   -3.1546   15.4922  -35.5008 H   0  0  0  0  0  0  0  0  0  0  0  0
   -1.9584   14.9971  -34.2955 H   0  0  0  0  0  0  0  0  0  0  0  0
   -4.6191   13.9077  -34.7433 H   0  0  0  0  0  0  0  0  0  0  0  0
   -3.4502   13.3784  -33.5255 H   0  0  0  0  0  0  0  0  0  0  0  0
   -5.8701   14.6789  -32.9736 H   0  0  0  0  0  0  0  0  0  0  0  0
   -4.4874   14.6291  -31.8492 H   0  0  0  0  0  0  0  0  0  0  0  0
   -8.0091   17.4975  -32.0735 H   0  0  0  0  0  0  0  0  0  0  0  0
   -8.8645   19.5802  -30.9992 H   0  0  0  0  0  0  0  0  0  0  0  0
   -5.3403   22.4530  -29.1039 H   0  0  0  0  0  0  0  0  0  0  0  0
   -5.8597   21.2925  -30.4327 H   0  0  0  0  0  0  0  0  0  0  0  0
   -3.6580   21.7768  -30.9590 H   0  0  0  0  0  0  0  0  0  0  0  0
   -4.6763   22.9071  -31.9998 H   0  0  0  0  0  0  0  0  0  0  0  0
   -3.4306   23.8279  -29.4132 H   0  0  0  0  0  0  0  0  0  0  0  0
   -2.5308   23.8331  -30.9966 H   0  0  0  0  0  0  0  0  0  0  0  0
   -5.3179   24.8474  -29.2147 H   0  0  0  0  0  0  0  0  0  0  0  0
   -5.6344   26.3183  -30.2181 H   0  0  0  0  0  0  0  0  0  0  0  0
   -7.3906   25.0977  -30.9675 H   0  0  0  0  0  0  0  0  0  0  0  0
   -6.0957   24.3608  -32.0317 H   0  0  0  0  0  0  0  0  0  0  0  0
  1  2  2  0
  2  3  2  0
  2  4  1  0
  4  5  2  0
  5  6  1  0
  6  7  2  0
  7  8  1  0
  8  9  2  0
  8 10  2  0
  8 11  1  0
 11 12  1  0
 12 13  1  0
 13 14  1  0
 14 15  1  0
  7 16  1  0
 16 17  2  0
  2 18  1  0
 18 19  1  0
 19 20  1  0
 20 21  1  0
 21 22  1  0
 22 23  1  0
 23 24  1  0
 17  4  1  0
 24 18  1  0
 15 11  1  0
  5 25  1  0
  6 26  1  0
 11 27  1  0
 12 28  1  0
 12 29  1  0
 13 30  1  0
 13 31  1  0
 14 32  1  0
 14 33  1  0
 15 34  1  0
 15 35  1  0
 16 36  1  0
 17 37  1  0
 19 38  1  0
 19 39  1  0
 20 40  1  0
 20 41  1  0
 21 42  1  0
 21 43  1  0
 23 44  1  0
 23 45  1  0
 24 46  1  0
 24 47  1  0
M  CHG  1  11   1
M  END
>  <UniqueID>  (12) 
12

>  <SMILES>  (12) 
O=S(=O)(c1ccc(S(=O)(=O)[NH+]2CCCC2)cc1)N1CCCOCC1

>  <Energy>  (12) 
61.470504059116706

>  <Genealogy>  (12) 
O=S(=O)(c1ccc(S(=O)(=O)[NH+]2CCCC2)cc1)N1CCCOCC1 (protonated)
O=S(=O)(c1ccc(S(=O)(=O)[NH+]2CCCC2)cc1)N1CCCOCC1 (3D coordinates assigned)
O=S(=O)(c1ccc(S(=O)(=O)[NH+]2CCCC2)cc1)N1CCCOCC1 (nonaromatic ring conformer: 61.470504059116706 kcal/mol)

>  <smiles>  (12) 
O=S(=O)(c1ccc(S(=O)(=O)N2CCCOCC2)cc1)N1CCCC1

>  <score_type>  (12) 
oracle

>  <origin>  (12) 
adgpu

>  <m_score__min__energy>  (12) 
-6.9299999999999997

>  <m_primary>  (12) 
energy

$$$$
12:0
     RDKit          3D

 57 60  0  0  0  0  0  0  0  0999 V2000
   -0.1510   23.5880  -25.2160 C   0  0  0  0  0  0  0  0  0  0  0  0
   -0.9680   24.0210  -26.4050 C   0  0  0  0  0  0  0  0  0  0  0  0
   -2.0420   23.2110  -26.8050 C   0  0  0  0  0  0  0  0  0  0  0  0
   -2.7900   23.5260  -27.9380 C   0  0  0  0  0  0  0  0  0  0  0  0
   -2.4780   24.6540  -28.6940 C   0  0  0  0  0  0  0  0  0  0  0  0
   -3.1980   24.8920  -29.9120 N   0  0  0  0  0  0  0  0  0  0  0  0
   -3.5450   23.8550  -30.8350 C   0  0  0  0  0  0  0  0  0  0  0  0
   -4.7040   23.8300  -31.3270 O   0  0  0  0  0  0  0  0  0  0  0  0
   -2.6050   22.8090  -31.1180 N   0  0  0  0  0  0  0  0  0  0  0  0
   -2.7820   21.6720  -31.9740 C   0  0  0  0  0  0  0  0  0  0  0  0
   -1.6980   20.9890  -32.5550 C   0  0  0  0  0  0  0  0  0  0  0  0
   -1.9240   19.8540  -33.3390 C   0  0  0  0  0  0  0  0  0  0  0  0
   -3.2230   19.3800  -33.5360 C   0  0  0  0  0  0  0  0  0  0  0  0
   -4.3080   20.0410  -32.9400 C   0  0  0  0  0  0  0  0  0  0  0  0
   -5.9520   19.4470  -33.1470 S   0  0  0  0  0  0  0  0  0  0  0  0
   -6.3570   19.5310  -34.5930 O   0  0  0  0  0  0  0  0  0  0  0  0
   -6.0010   18.0100  -32.7090 O   0  0  0  0  0  0  0  0  0  0  0  0
   -7.0400   20.4040  -32.1720 N   0  0  0  0  0  0  0  0  0  0  0  0
   -6.9850   21.8130  -32.5970 C   0  0  0  0  0  0  0  0  0  0  0  0
   -7.7660   22.7030  -31.6110 C   0  0  0  0  0  0  0  0  0  0  0  0
   -8.8500   21.9230  -30.8490 C   0  0  0  0  0  0  0  0  0  0  0  0
   -9.4780   20.8440  -31.7350 C   0  0  0  0  0  0  0  0  0  0  0  0
   -8.4140   19.8700  -32.2890 C   0  0  0  0  0  0  0  0  0  0  0  0
   -4.0800   21.1830  -32.1630 C   0  0  0  0  0  0  0  0  0  0  0  0
   -1.4690   25.5320  -28.2550 C   0  0  0  0  0  0  0  0  0  0  0  0
   -1.2500   26.7170  -28.9510 O   0  0  0  0  0  0  0  0  0  0  0  0
   -0.6950   25.2200  -27.1160 C   0  0  0  0  0  0  0  0  0  0  0  0
    0.6570   26.2910  -26.6560 S   0  0  0  0  0  0  0  0  0  0  0  0
    1.0640   26.0280  -25.2330 O   0  0  0  0  0  0  0  0  0  0  0  0
    1.8520   26.0010  -27.5180 O   0  0  0  0  0  0  0  0  0  0  0  0
    0.2500   28.0330  -26.8120 C   0  0  0  0  0  0  0  0  0  0  0  0
    0.6800   28.8730  -25.6200 C   0  0  0  0  0  0  0  0  0  0  0  0
   -0.7930   28.5920  -25.8550 C   0  0  0  0  0  0  0  0  0  0  0  0
   -0.6755   23.8660  -24.2899 H   0  0  0  0  0  0  0  0  0  0  0  0
   -0.0110   22.4973  -25.2449 H   0  0  0  0  0  0  0  0  0  0  0  0
    0.8302   24.0845  -25.2449 H   0  0  0  0  0  0  0  0  0  0  0  0
   -2.2965   22.3167  -26.2172 H   0  0  0  0  0  0  0  0  0  0  0  0
   -3.6300   22.8815  -28.2365 H   0  0  0  0  0  0  0  0  0  0  0  0
   -0.6713   21.3486  -32.3921 H   0  0  0  0  0  0  0  0  0  0  0  0
   -1.0745   19.3315  -33.8031 H   0  0  0  0  0  0  0  0  0  0  0  0
   -3.3954   18.4892  -34.1579 H   0  0  0  0  0  0  0  0  0  0  0  0
   -5.9356   22.1413  -32.6283 H   0  0  0  0  0  0  0  0  0  0  0  0
   -7.4393   21.9024  -33.5948 H   0  0  0  0  0  0  0  0  0  0  0  0
   -7.0593   23.1282  -30.8831 H   0  0  0  0  0  0  0  0  0  0  0  0
   -8.2667   23.4900  -32.1941 H   0  0  0  0  0  0  0  0  0  0  0  0
   -8.3966   21.4454  -29.9679 H   0  0  0  0  0  0  0  0  0  0  0  0
   -9.6381   22.6272  -30.5443 H   0  0  0  0  0  0  0  0  0  0  0  0
  -10.2077   20.2746  -31.1406 H   0  0  0  0  0  0  0  0  0  0  0  0
   -9.9657   21.3404  -32.5869 H   0  0  0  0  0  0  0  0  0  0  0  0
   -8.4742   18.9258  -31.7279 H   0  0  0  0  0  0  0  0  0  0  0  0
   -8.6237   19.7198  -33.3583 H   0  0  0  0  0  0  0  0  0  0  0  0
   -4.9301   21.7017  -31.6959 H   0  0  0  0  0  0  0  0  0  0  0  0
    0.3780   28.0696  -27.9039 H   0  0  0  0  0  0  0  0  0  0  0  0
    1.2016   28.4009  -24.7744 H   0  0  0  0  0  0  0  0  0  0  0  0
    1.2864   29.7812  -25.4876 H   0  0  0  0  0  0  0  0  0  0  0  0
   -1.3384   27.9160  -25.1800 H   0  0  0  0  0  0  0  0  0  0  0  0
   -1.6953   29.2117  -25.9636 H   0  0  0  0  0  0  0  0  0  0  0  0
  1  2  1  0
  2  3  2  0
  3  4  1  0
  4  5  2  0
  5  6  1  0
  6  7  1  0
  7  8  2  0
  7  9  1  0
  9 10  1  0
 10 11  2  0
 11 12  1  0
 12 13  2  0
 13 14  1  0
 14 15  1  0
 15 16  2  0
 15 17  2  0
 15 18  1  0
 18 19  1  0
 19 20  1  0
 20 21  1  0
 21 22  1  0
 22 23  1  0
 14 24  2  0
  5 25  1  0
 25 26  1  0
 25 27  2  0
 27 28  1  0
 28 29  2  0
 28 30  2  0
 28 31  1  0
 31 32  1  0
 32 33  1  0
 27  2  1  0
 33 31  1  0
 24 10  1  0
 23 18  1  0
  1 34  1  0
  1 35  1  0
  1 36  1  0
  3 37  1  0
  4 38  1  0
 11 39  1  0
 12 40  1  0
 13 41  1  0
 19 42  1  0
 19 43  1  0
 20 44  1  0
 20 45  1  0
 21 46  1  0
 21 47  1  0
 22 48  1  0
 22 49  1  0
 23 50  1  0
 23 51  1  0
 24 52  1  0
 31 53  1  0
 32 54  1  0
 32 55  1  0
 33 56  1  0
 33 57  1  0
M  CHG  3   6  -1   9  -1  26  -1
M  END
>  <UniqueID>  (13) 
13

>  <SMILES>  (13) 
Cc1ccc([N-]C(=O)[N-]c2cccc(S(=O)(=O)N3CCCCC3)c2)c([O-])c1S(=O)(=O)C1CC1

>  <Energy>  (13) 
335.0020409179937

>  <Genealogy>  (13) 
Cc1ccc([N-]C(=O)[N-]c2cccc(S(=O)(=O)N3CCCCC3)c2)c([O-])c1S(=O)(=O)C1CC1 (protonated)
Cc1ccc([N-]C(=O)[N-]c2cccc(S(=O)(=O)N3CCCCC3)c2)c([O-])c1S(=O)(=O)C1CC1 (3D coordinates assigned)
Cc1ccc([N-]C(=O)[N-]c2cccc(S(=O)(=O)N3CCCCC3)c2)c([O-])c1S(=O)(=O)C1CC1 (nonaromatic ring conformer: 335.0020409179937 kcal/mol)

>  <smiles>  (13) 
Cc1ccc(NC(=O)Nc2cccc(S(=O)(=O)N3CCCCC3)c2)c(O)c1S(=O)(=O)C1CC1

>  <score_type>  (13) 
oracle

>  <origin>  (13) 
adgpu

>  <m_score__min__energy>  (13) 
-16.739999999999998

>  <m_primary>  (13) 
energy

$$$$
13:0
     RDKit          3D

 45 47  0  0  0  0  0  0  0  0999 V2000
   -3.9010   25.3820  -30.8440 O   0  0  0  0  0  0  0  0  0  0  0  0
   -4.5980   24.2530  -30.1390 S   0  0  0  0  0  0  0  0  0  0  0  0
   -6.0780   24.5140  -30.1340 O   0  0  0  0  0  0  0  0  0  0  0  0
   -4.0490   24.1600  -28.4930 N   0  0  0  0  0  0  0  0  0  0  0  0
   -2.7160   23.7820  -28.1310 C   0  0  0  0  0  0  0  0  0  0  0  0
   -2.5270   22.6890  -27.2740 C   0  0  0  0  0  0  0  0  0  0  0  0
   -1.2370   22.2820  -26.9230 C   0  0  0  0  0  0  0  0  0  0  0  0
   -0.1280   22.9820  -27.4030 C   0  0  0  0  0  0  0  0  0  0  0  0
   -0.3100   24.1030  -28.2180 C   0  0  0  0  0  0  0  0  0  0  0  0
   -1.5990   24.5170  -28.5710 C   0  0  0  0  0  0  0  0  0  0  0  0
   -1.7600   25.6740  -29.3230 O   0  0  0  0  0  0  0  0  0  0  0  0
   -4.2690   22.7420  -30.9960 C   0  0  0  0  0  0  0  0  0  0  0  0
   -5.3470   21.9500  -31.4220 C   0  0  0  0  0  0  0  0  0  0  0  0
   -5.1280   20.7030  -32.0170 C   0  0  0  0  0  0  0  0  0  0  0  0
   -6.4990   19.6870  -32.4690 S   0  0  0  0  0  0  0  0  0  0  0  0
   -7.3200   20.3970  -33.5100 O   0  0  0  0  0  0  0  0  0  0  0  0
   -7.3710   19.4650  -31.2640 O   0  0  0  0  0  0  0  0  0  0  0  0
   -5.9740   18.1450  -33.1020 N   0  0  0  0  0  0  0  0  0  0  0  0
   -7.1380   17.3080  -33.4370 C   0  0  0  0  0  0  0  0  0  0  0  0
   -6.6890   15.8730  -33.7740 C   0  0  0  0  0  0  0  0  0  0  0  0
   -5.2120   15.8010  -34.1920 C   0  0  0  0  0  0  0  0  0  0  0  0
   -4.8140   17.0220  -35.0250 C   0  0  0  0  0  0  0  0  0  0  0  0
   -5.1170   18.3460  -34.2890 C   0  0  0  0  0  0  0  0  0  0  0  0
   -3.8200   20.2540  -32.2200 C   0  0  0  0  0  0  0  0  0  0  0  0
   -2.7390   21.0480  -31.8350 C   0  0  0  0  0  0  0  0  0  0  0  0
   -2.9480   22.2910  -31.2270 C   0  0  0  0  0  0  0  0  0  0  0  0
   -1.8290   23.0450  -30.8720 O   0  0  0  0  0  0  0  0  0  0  0  0
   -3.3986   22.1489  -26.8757 H   0  0  0  0  0  0  0  0  0  0  0  0
   -1.0950   21.4096  -26.2682 H   0  0  0  0  0  0  0  0  0  0  0  0
    0.8877   22.6516  -27.1400 H   0  0  0  0  0  0  0  0  0  0  0  0
    0.5640   24.6621  -28.5834 H   0  0  0  0  0  0  0  0  0  0  0  0
   -6.3760   22.3143  -31.2863 H   0  0  0  0  0  0  0  0  0  0  0  0
   -7.8240   17.2806  -32.5776 H   0  0  0  0  0  0  0  0  0  0  0  0
   -7.6461   17.7377  -34.3129 H   0  0  0  0  0  0  0  0  0  0  0  0
   -6.8356   15.2400  -32.8864 H   0  0  0  0  0  0  0  0  0  0  0  0
   -7.2941   15.5246  -34.6240 H   0  0  0  0  0  0  0  0  0  0  0  0
   -4.5848   15.7623  -33.2892 H   0  0  0  0  0  0  0  0  0  0  0  0
   -5.0660   14.8985  -34.8037 H   0  0  0  0  0  0  0  0  0  0  0  0
   -3.7358   16.9717  -35.2368 H   0  0  0  0  0  0  0  0  0  0  0  0
   -5.4022   17.0066  -35.9544 H   0  0  0  0  0  0  0  0  0  0  0  0
   -4.1668   18.7970  -33.9669 H   0  0  0  0  0  0  0  0  0  0  0  0
   -5.6575   19.0025  -34.9867 H   0  0  0  0  0  0  0  0  0  0  0  0
   -3.6424   19.2727  -32.6842 H   0  0  0  0  0  0  0  0  0  0  0  0
   -1.7127   20.6934  -32.0111 H   0  0  0  0  0  0  0  0  0  0  0  0
   -1.8760   24.0160  -30.5940 H   0  0  0  0  0  0  0  0  0  0  0  0
  1  2  2  0
  2  3  2  0
  2  4  1  0
  4  5  1  0
  5  6  2  0
  6  7  1  0
  7  8  2  0
  8  9  1  0
  9 10  2  0
 10 11  1  0
  2 12  1  0
 12 13  2  0
 13 14  1  0
 14 15  1  0
 15 16  2  0
 15 17  2  0
 15 18  1  0
 18 19  1  0
 19 20  1  0
 20 21  1  0
 21 22  1  0
 22 23  1  0
 14 24  2  0
 24 25  1  0
 25 26  2  0
 26 27  1  0
 10  5  1  0
 26 12  1  0
 23 18  1  0
  6 28  1  0
  7 29  1  0
  8 30  1  0
  9 31  1  0
 13 32  1  0
 19 33  1  0
 19 34  1  0
 20 35  1  0
 20 36  1  0
 21 37  1  0
 21 38  1  0
 22 39  1  0
 22 40  1  0
 23 41  1  0
 23 42  1  0
 24 43  1  0
 25 44  1  0
 27 45  1  0
M  CHG  2   4  -1  11  -1
M  END
>  <UniqueID>  (14) 
14

>  <SMILES>  (14) 
O=S(=O)([N-]c1ccccc1[O-])c1cc(S(=O)(=O)N2CCCCC2)ccc1O

>  <Energy>  (14) 
58.90121697136604

>  <Genealogy>  (14) 
O=S(=O)([N-]c1ccccc1[O-])c1cc(S(=O)(=O)N2CCCCC2)ccc1O (protonated)
O=S(=O)([N-]c1ccccc1[O-])c1cc(S(=O)(=O)N2CCCCC2)ccc1O (3D coordinates assigned)
O=S(=O)([N-]c1ccccc1[O-])c1cc(S(=O)(=O)N2CCCCC2)ccc1O (nonaromatic ring conformer: 58.90121697136604 kcal/mol)

>  <smiles>  (14) 
O=S(=O)(Nc1ccccc1O)c1cc(S(=O)(=O)N2CCCCC2)ccc1O

>  <score_type>  (14) 
oracle

>  <origin>  (14) 
adgpu

>  <m_score__min__energy>  (14) 
-13.609999999999999

>  <m_primary>  (14) 
energy

$$$$
14:0
     RDKit          3D

 42 44  0  0  0  0  0  0  0  0999 V2000
   -6.1910   24.8150  -31.9390 O   0  0  0  0  0  0  0  0  0  0  0  0
   -5.9310   23.5850  -31.8760 C   0  0  0  0  0  0  0  0  0  0  0  0
   -4.5600   23.1730  -31.8040 N   0  0  0  0  0  0  0  0  0  0  0  0
   -3.7310   23.2110  -30.6310 C   0  0  0  0  0  0  0  0  0  0  0  0
   -3.2840   22.0290  -30.0110 C   0  0  0  0  0  0  0  0  0  0  0  0
   -2.4870   22.0930  -28.8650 C   0  0  0  0  0  0  0  0  0  0  0  0
   -2.1450   23.3320  -28.3180 C   0  0  0  0  0  0  0  0  0  0  0  0
   -2.6060   24.5090  -28.9120 C   0  0  0  0  0  0  0  0  0  0  0  0
   -3.4030   24.4530  -30.0650 C   0  0  0  0  0  0  0  0  0  0  0  0
   -3.8680   25.6280  -30.6550 O   0  0  0  0  0  0  0  0  0  0  0  0
   -7.0390   22.6050  -31.9210 C   0  0  0  0  0  0  0  0  0  0  0  0
   -8.3770   23.0330  -31.9150 C   0  0  0  0  0  0  0  0  0  0  0  0
   -9.4160   22.1030  -31.9840 C   0  0  0  0  0  0  0  0  0  0  0  0
   -9.1310   20.7380  -32.0620 C   0  0  0  0  0  0  0  0  0  0  0  0
   -7.8020   20.2950  -32.0680 C   0  0  0  0  0  0  0  0  0  0  0  0
   -7.4420   18.5760  -32.2250 S   0  0  0  0  0  0  0  0  0  0  0  0
   -6.4580   18.1780  -31.1610 O   0  0  0  0  0  0  0  0  0  0  0  0
   -8.7050   17.7930  -31.9960 O   0  0  0  0  0  0  0  0  0  0  0  0
   -6.7940   18.1690  -33.8020 N   0  0  0  0  0  0  0  0  0  0  0  0
   -6.4160   16.7480  -33.9120 C   0  0  0  0  0  0  0  0  0  0  0  0
   -5.0130   16.4470  -33.3300 C   0  0  0  0  0  0  0  0  0  0  0  0
   -4.2900   17.6110  -32.9840 O   0  0  0  0  0  0  0  0  0  0  0  0
   -4.3170   18.5220  -34.0580 C   0  0  0  0  0  0  0  0  0  0  0  0
   -5.7320   19.0990  -34.2410 C   0  0  0  0  0  0  0  0  0  0  0  0
   -6.7600   21.2290  -31.9750 C   0  0  0  0  0  0  0  0  0  0  0  0
   -3.5632   21.0511  -30.4303 H   0  0  0  0  0  0  0  0  0  0  0  0
   -2.1284   21.1664  -28.3929 H   0  0  0  0  0  0  0  0  0  0  0  0
   -1.5125   23.3807  -27.4193 H   0  0  0  0  0  0  0  0  0  0  0  0
   -2.3432   25.4833  -28.4742 H   0  0  0  0  0  0  0  0  0  0  0  0
   -4.2190   25.6410  -31.6050 H   0  0  0  0  0  0  0  0  0  0  0  0
   -8.6074   24.1070  -31.8556 H   0  0  0  0  0  0  0  0  0  0  0  0
  -10.4611   22.4460  -31.9769 H   0  0  0  0  0  0  0  0  0  0  0  0
   -9.9525   20.0086  -32.1189 H   0  0  0  0  0  0  0  0  0  0  0  0
   -7.1578   16.1451  -33.3677 H   0  0  0  0  0  0  0  0  0  0  0  0
   -6.3881   16.4975  -34.9827 H   0  0  0  0  0  0  0  0  0  0  0  0
   -5.1344   15.8301  -32.4274 H   0  0  0  0  0  0  0  0  0  0  0  0
   -4.4400   15.9281  -34.1126 H   0  0  0  0  0  0  0  0  0  0  0  0
   -3.6149   19.3436  -33.8533 H   0  0  0  0  0  0  0  0  0  0  0  0
   -4.0263   17.9948  -34.9786 H   0  0  0  0  0  0  0  0  0  0  0  0
   -5.8119   20.0255  -33.6534 H   0  0  0  0  0  0  0  0  0  0  0  0
   -5.8773   19.2820  -35.3159 H   0  0  0  0  0  0  0  0  0  0  0  0
   -5.7167   20.8818  -31.9441 H   0  0  0  0  0  0  0  0  0  0  0  0
  1  2  2  0
  2  3  1  0
  3  4  1  0
  4  5  2  0
  5  6  1  0
  6  7  2  0
  7  8  1  0
  8  9  2  0
  9 10  1  0
  2 11  1  0
 11 12  2  0
 12 13  1  0
 13 14  2  0
 14 15  1  0
 15 16  1  0
 16 17  2  0
 16 18  2  0
 16 19  1  0
 19 20  1  0
 20 21  1  0
 21 22  1  0
 22 23  1  0
 23 24  1  0
 15 25  2  0
  9  4  1  0
 25 11  1  0
 24 19  1  0
  5 26  1  0
  6 27  1  0
  7 28  1  0
  8 29  1  0
 10 30  1  0
 12 31  1  0
 13 32  1  0
 14 33  1  0
 20 34  1  0
 20 35  1  0
 21 36  1  0
 21 37  1  0
 23 38  1  0
 23 39  1  0
 24 40  1  0
 24 41  1  0
 25 42  1  0
M  CHG  1   3  -1
M  END
>  <UniqueID>  (15) 
15

>  <SMILES>  (15) 
O=C([N-]c1ccccc1O)c1cccc(S(=O)(=O)N2CCOCC2)c1

>  <Energy>  (15) 
59.82224528401366

>  <Genealogy>  (15) 
O=C([N-]c1ccccc1O)c1cccc(S(=O)(=O)N2CCOCC2)c1 (protonated)
O=C([N-]c1ccccc1O)c1cccc(S(=O)(=O)N2CCOCC2)c1 (3D coordinates assigned)
O=C([N-]c1ccccc1O)c1cccc(S(=O)(=O)N2CCOCC2)c1 (nonaromatic ring conformer: 59.82224528401366 kcal/mol)

>  <smiles>  (15) 
O=C(Nc1ccccc1O)c1cccc(S(=O)(=O)N2CCOCC2)c1

>  <score_type>  (15) 
oracle

>  <origin>  (15) 
adgpu

>  <m_score__min__energy>  (15) 
-12.06

>  <m_primary>  (15) 
energy

$$$$
15:0
     RDKit          3D

 50 53  0  0  0  0  0  0  0  0999 V2000
   -6.1590   19.4890  -34.0350 C   0  0  0  0  0  0  0  0  0  0  0  0
   -5.7260   20.5230  -32.9900 C   0  0  0  0  0  0  0  0  0  0  0  0
   -4.4540   21.2550  -33.4470 C   0  0  0  0  0  0  0  0  0  0  0  0
   -4.0810   22.3360  -32.4280 C   0  0  0  0  0  0  0  0  0  0  0  0
   -4.0940   21.8170  -31.0530 N   0  0  0  0  0  0  0  0  0  0  0  0
   -3.4570   22.5880  -30.0230 C   0  0  0  0  0  0  0  0  0  0  0  0
   -2.1140   22.0790  -29.1480 S   0  0  0  0  0  0  0  0  0  0  0  0
   -2.0490   23.4910  -28.2250 C   0  0  0  0  0  0  0  0  0  0  0  0
   -1.0570   23.7850  -27.1660 C   0  0  0  0  0  0  0  0  0  0  0  0
   -0.4530   25.0520  -27.0700 C   0  0  0  0  0  0  0  0  0  0  0  0
    0.4830   25.3170  -26.0650 C   0  0  0  0  0  0  0  0  0  0  0  0
    0.8270   24.3210  -25.1420 C   0  0  0  0  0  0  0  0  0  0  0  0
    1.7580   24.5750  -24.1380 O   0  0  0  0  0  0  0  0  0  0  0  0
    0.2320   23.0610  -25.2300 C   0  0  0  0  0  0  0  0  0  0  0  0
   -0.7030   22.7910  -26.2330 C   0  0  0  0  0  0  0  0  0  0  0  0
   -3.0460   24.3400  -28.5670 N   0  0  0  0  0  0  0  0  0  0  0  0
   -3.8330   23.8520  -29.5630 C   0  0  0  0  0  0  0  0  0  0  0  0
   -5.2490   24.7420  -30.1050 S   0  0  0  0  0  0  0  0  0  0  0  0
   -5.7840   25.5600  -28.9640 O   0  0  0  0  0  0  0  0  0  0  0  0
   -4.8490   25.6690  -31.2190 O   0  0  0  0  0  0  0  0  0  0  0  0
   -6.5160   23.6360  -30.6300 C   0  0  0  0  0  0  0  0  0  0  0  0
   -7.0520   22.7120  -29.7210 C   0  0  0  0  0  0  0  0  0  0  0  0
   -8.0710   21.8410  -30.1220 C   0  0  0  0  0  0  0  0  0  0  0  0
   -8.5580   21.8910  -31.4310 C   0  0  0  0  0  0  0  0  0  0  0  0
   -8.0300   22.8140  -32.3390 C   0  0  0  0  0  0  0  0  0  0  0  0
   -7.0130   23.6870  -31.9390 C   0  0  0  0  0  0  0  0  0  0  0  0
   -4.3350   20.3900  -30.8040 C   0  0  0  0  0  0  0  0  0  0  0  0
   -5.5510   19.8700  -31.5930 C   0  0  0  0  0  0  0  0  0  0  0  0
   -6.5357   18.5893  -33.5264 H   0  0  0  0  0  0  0  0  0  0  0  0
   -6.9545   19.9147  -34.6643 H   0  0  0  0  0  0  0  0  0  0  0  0
   -5.2976   19.2208  -34.6643 H   0  0  0  0  0  0  0  0  0  0  0  0
   -6.5239   21.2741  -32.8941 H   0  0  0  0  0  0  0  0  0  0  0  0
   -3.6283   20.5332  -33.5320 H   0  0  0  0  0  0  0  0  0  0  0  0
   -4.6379   21.7258  -34.4240 H   0  0  0  0  0  0  0  0  0  0  0  0
   -3.0723   22.7095  -32.6582 H   0  0  0  0  0  0  0  0  0  0  0  0
   -4.8261   23.1423  -32.4964 H   0  0  0  0  0  0  0  0  0  0  0  0
   -0.7187   25.8397  -27.7903 H   0  0  0  0  0  0  0  0  0  0  0  0
    0.9504   26.3106  -25.9992 H   0  0  0  0  0  0  0  0  0  0  0  0
    1.4820   24.9740  -23.2480 H   0  0  0  0  0  0  0  0  0  0  0  0
    0.5004   22.2771  -24.5065 H   0  0  0  0  0  0  0  0  0  0  0  0
   -1.1658   21.7950  -26.2942 H   0  0  0  0  0  0  0  0  0  0  0  0
   -6.6703   22.6720  -28.6901 H   0  0  0  0  0  0  0  0  0  0  0  0
   -8.4888   21.1170  -29.4070 H   0  0  0  0  0  0  0  0  0  0  0  0
   -9.3569   21.2041  -31.7471 H   0  0  0  0  0  0  0  0  0  0  0  0
   -8.4148   22.8536  -33.3688 H   0  0  0  0  0  0  0  0  0  0  0  0
   -6.6024   24.4153  -32.6538 H   0  0  0  0  0  0  0  0  0  0  0  0
   -3.4440   19.8202  -31.1064 H   0  0  0  0  0  0  0  0  0  0  0  0
   -4.5418   20.2599  -29.7315 H   0  0  0  0  0  0  0  0  0  0  0  0
   -5.4350   18.7849  -31.7309 H   0  0  0  0  0  0  0  0  0  0  0  0
   -6.4446   20.1305  -31.0068 H   0  0  0  0  0  0  0  0  0  0  0  0
  1  2  1  0
  2  3  1  0
  3  4  1  0
  4  5  1  0
  5  6  1  0
  6  7  1  0
  7  8  1  0
  8  9  1  0
  9 10  2  0
 10 11  1  0
 11 12  2  0
 12 13  1  0
 12 14  1  0
 14 15  2  0
  8 16  2  0
 16 17  1  0
 17 18  1  0
 18 19  2  0
 18 20  2  0
 18 21  1  0
 21 22  2  0
 22 23  1  0
 23 24  2  0
 24 25  1  0
 25 26  2  0
  5 27  1  0
 27 28  1  0
 28  2  1  0
 17  6  2  0
 26 21  1  0
 15  9  1  0
  1 29  1  0
  1 30  1  0
  1 31  1  0
  2 32  1  0
  3 33  1  0
  3 34  1  0
  4 35  1  0
  4 36  1  0
 10 37  1  0
 11 38  1  0
 13 39  1  0
 14 40  1  0
 15 41  1  0
 22 42  1  0
 23 43  1  0
 24 44  1  0
 25 45  1  0
 26 46  1  0
 27 47  1  0
 27 48  1  0
 28 49  1  0
 28 50  1  0
M  END
>  <UniqueID>  (16) 
16

>  <SMILES>  (16) 
CC1CCN(c2sc(-c3ccc(O)cc3)nc2S(=O)(=O)c2ccccc2)CC1

>  <Energy>  (16) 
86.73342484589716

>  <Genealogy>  (16) 
CC1CCN(c2sc(-c3ccc(O)cc3)nc2S(=O)(=O)c2ccccc2)CC1 (3D coordinates assigned)
CC1CCN(c2sc(-c3ccc(O)cc3)nc2S(=O)(=O)c2ccccc2)CC1 (nonaromatic ring conformer: 86.73342484589716 kcal/mol)

>  <smiles>  (16) 
CC1CCN(c2sc(-c3ccc(O)cc3)nc2S(=O)(=O)c2ccccc2)CC1

>  <score_type>  (16) 
oracle

>  <origin>  (16) 
adgpu

>  <m_score__min__energy>  (16) 
-8.7599999999999998

>  <m_primary>  (16) 
energy

$$$$
16:0
     RDKit          3D

 56 60  0  0  0  0  0  0  0  0999 V2000
   -9.0740   18.8260  -31.7630 C   0  0  0  0  0  0  0  0  0  0  0  0
   -7.7660   19.0970  -32.3630 N   0  0  0  0  0  0  0  0  0  0  0  0
   -6.9770   18.2490  -33.0760 C   0  0  0  0  0  0  0  0  0  0  0  0
   -7.2190   16.9110  -33.4140 C   0  0  0  0  0  0  0  0  0  0  0  0
   -6.2440   16.2310  -34.1680 C   0  0  0  0  0  0  0  0  0  0  0  0
   -5.0590   16.8840  -34.5690 C   0  0  0  0  0  0  0  0  0  0  0  0
   -4.8320   18.2260  -34.2210 C   0  0  0  0  0  0  0  0  0  0  0  0
   -5.8120   18.8760  -33.4730 C   0  0  0  0  0  0  0  0  0  0  0  0
   -5.8810   20.1610  -32.9870 C   0  0  0  0  0  0  0  0  0  0  0  0
   -5.0110   21.2350  -33.0770 C   0  0  0  0  0  0  0  0  0  0  0  0
   -5.3820   22.3990  -32.4750 N   0  0  0  0  0  0  0  0  0  0  0  0
   -6.5410   22.5290  -31.8060 N   0  0  0  0  0  0  0  0  0  0  0  0
   -6.8610   23.8370  -31.2230 C   0  0  0  0  0  0  0  0  0  0  0  0
   -5.6570   24.4050  -30.5370 C   0  0  0  0  0  0  0  0  0  0  0  0
   -4.9780   25.2980  -31.1130 O   0  0  0  0  0  0  0  0  0  0  0  0
   -5.3100   23.9620  -29.2160 N   0  0  0  0  0  0  0  0  0  0  0  0
   -4.0270   24.1740  -28.6050 C   0  0  0  0  0  0  0  0  0  0  0  0
   -2.8860   24.2690  -29.4170 C   0  0  0  0  0  0  0  0  0  0  0  0
   -1.6320   24.5090  -28.8510 C   0  0  0  0  0  0  0  0  0  0  0  0
   -1.5010   24.6690  -27.4660 C   0  0  0  0  0  0  0  0  0  0  0  0
    0.0840   24.9990  -26.7720 S   0  0  0  0  0  0  0  0  0  0  0  0
    1.1230   24.8030  -27.8420 O   0  0  0  0  0  0  0  0  0  0  0  0
    0.3660   24.0370  -25.6490 O   0  0  0  0  0  0  0  0  0  0  0  0
    0.1420   26.6480  -26.1900 N   0  0  0  0  0  0  0  0  0  0  0  0
   -1.1750   27.0700  -25.7000 C   0  0  0  0  0  0  0  0  0  0  0  0
   -1.2370   26.7910  -24.2060 C   0  0  0  0  0  0  0  0  0  0  0  0
    0.2030   26.6090  -23.7690 C   0  0  0  0  0  0  0  0  0  0  0  0
    1.0380   26.7530  -25.0330 C   0  0  0  0  0  0  0  0  0  0  0  0
   -2.6390   24.5980  -26.6520 C   0  0  0  0  0  0  0  0  0  0  0  0
   -3.8950   24.3590  -27.2160 C   0  0  0  0  0  0  0  0  0  0  0  0
   -7.4220   21.4760  -31.7080 C   0  0  0  0  0  0  0  0  0  0  0  0
   -8.5140   21.5990  -31.0900 O   0  0  0  0  0  0  0  0  0  0  0  0
   -7.0740   20.2660  -32.3170 C   0  0  0  0  0  0  0  0  0  0  0  0
   -8.9854   18.8444  -30.6667 H   0  0  0  0  0  0  0  0  0  0  0  0
   -9.7918   19.5945  -32.0858 H   0  0  0  0  0  0  0  0  0  0  0  0
   -9.4274   17.8356  -32.0858 H   0  0  0  0  0  0  0  0  0  0  0  0
   -8.1443   16.4064  -33.0992 H   0  0  0  0  0  0  0  0  0  0  0  0
   -6.4075   15.1797  -34.4475 H   0  0  0  0  0  0  0  0  0  0  0  0
   -4.3075   16.3382  -35.1584 H   0  0  0  0  0  0  0  0  0  0  0  0
   -3.9126   18.7458  -34.5283 H   0  0  0  0  0  0  0  0  0  0  0  0
   -4.0553   21.1509  -33.6151 H   0  0  0  0  0  0  0  0  0  0  0  0
   -7.1815   24.5223  -32.0215 H   0  0  0  0  0  0  0  0  0  0  0  0
   -7.6693   23.7143  -30.4871 H   0  0  0  0  0  0  0  0  0  0  0  0
   -6.0560   23.4980  -28.6480 H   0  0  0  0  0  0  0  0  0  0  0  0
   -2.9802   24.1536  -30.5069 H   0  0  0  0  0  0  0  0  0  0  0  0
   -0.7432   24.5726  -29.4960 H   0  0  0  0  0  0  0  0  0  0  0  0
   -1.3139   28.1455  -25.8842 H   0  0  0  0  0  0  0  0  0  0  0  0
   -1.9701   26.5185  -26.2232 H   0  0  0  0  0  0  0  0  0  0  0  0
   -1.6959   27.6382  -23.6752 H   0  0  0  0  0  0  0  0  0  0  0  0
   -1.8474   25.9040  -23.9810 H   0  0  0  0  0  0  0  0  0  0  0  0
    0.4816   27.3798  -23.0354 H   0  0  0  0  0  0  0  0  0  0  0  0
    0.3608   25.6329  -23.2871 H   0  0  0  0  0  0  0  0  0  0  0  0
    1.5395   27.7320  -25.0383 H   0  0  0  0  0  0  0  0  0  0  0  0
    1.8042   25.9647  -25.0736 H   0  0  0  0  0  0  0  0  0  0  0  0
   -2.5434   24.7310  -25.5643 H   0  0  0  0  0  0  0  0  0  0  0  0
   -4.7851   24.3152  -26.5711 H   0  0  0  0  0  0  0  0  0  0  0  0
  1  2  1  0
  2  3  1  0
  3  4  2  0
  4  5  1  0
  5  6  2  0
  6  7  1  0
  7  8  2  0
  8  9  1  0
  9 10  1  0
 10 11  2  0
 11 12  1  0
 12 13  1  0
 13 14  1  0
 14 15  2  0
 14 16  1  0
 16 17  1  0
 17 18  2  0
 18 19  1  0
 19 20  2  0
 20 21  1  0
 21 22  2  0
 21 23  2  0
 21 24  1  0
 24 25  1  0
 25 26  1  0
 26 27  1  0
 27 28  1  0
 20 29  1  0
 29 30  2  0
 12 31  1  0
 31 32  2  0
 31 33  1  0
 33  2  1  0
  8  3  1  0
 33  9  2  0
 30 17  1  0
 28 24  1  0
  1 34  1  0
  1 35  1  0
  1 36  1  0
  4 37  1  0
  5 38  1  0
  6 39  1  0
  7 40  1  0
 10 41  1  0
 13 42  1  0
 13 43  1  0
 16 44  1  0
 18 45  1  0
 19 46  1  0
 25 47  1  0
 25 48  1  0
 26 49  1  0
 26 50  1  0
 27 51  1  0
 27 52  1  0
 28 53  1  0
 28 54  1  0
 29 55  1  0
 30 56  1  0
M  END
>  <UniqueID>  (17) 
17

>  <SMILES>  (17) 
Cn1c2ccccc2c2cnn(CC(=O)Nc3ccc(S(=O)(=O)N4CCCC4)cc3)c(=O)c21

>  <Energy>  (17) 
110.03426273285022

>  <Genealogy>  (17) 
Cn1c2ccccc2c2cnn(CC(=O)Nc3ccc(S(=O)(=O)N4CCCC4)cc3)c(=O)c21 (3D coordinates assigned)
Cn1c2ccccc2c2cnn(CC(=O)Nc3ccc(S(=O)(=O)N4CCCC4)cc3)c(=O)c21 (nonaromatic ring conformer: 110.03426273285022 kcal/mol)

>  <smiles>  (17) 
Cn1c2ccccc2c2cnn(CC(=O)Nc3ccc(S(=O)(=O)N4CCCC4)cc3)c(=O)c21

>  <score_type>  (17) 
oracle

>  <origin>  (17) 
adgpu

>  <m_score__min__energy>  (17) 
-11.890000000000001

>  <m_primary>  (17) 
energy

$$$$
17:0
     RDKit          3D

 52 54  0  0  0  0  0  0  0  0999 V2000
   -9.4410   18.9810  -32.3600 C   0  0  0  0  0  0  0  0  0  0  0  0
   -8.3490   19.9770  -32.0970 C   0  0  0  0  0  0  0  0  0  0  0  0
   -8.6640   21.2840  -31.7100 C   0  0  0  0  0  0  0  0  0  0  0  0
   -7.6490   22.1970  -31.4320 C   0  0  0  0  0  0  0  0  0  0  0  0
   -6.3030   21.8170  -31.5170 C   0  0  0  0  0  0  0  0  0  0  0  0
   -5.0580   23.0170  -31.1430 S   0  0  0  0  0  0  0  0  0  0  0  0
   -5.5430   24.3640  -31.6010 O   0  0  0  0  0  0  0  0  0  0  0  0
   -3.7620   22.7000  -31.8330 O   0  0  0  0  0  0  0  0  0  0  0  0
   -4.7770   23.0620  -29.4320 N   0  0  0  0  0  0  0  0  0  0  0  0
   -3.5350   22.6480  -28.8360 C   0  0  0  0  0  0  0  0  0  0  0  0
   -3.4280   21.3650  -28.2670 C   0  0  0  0  0  0  0  0  0  0  0  0
   -2.2130   20.9130  -27.7510 C   0  0  0  0  0  0  0  0  0  0  0  0
   -1.0860   21.7290  -27.8050 C   0  0  0  0  0  0  0  0  0  0  0  0
   -1.1720   23.0050  -28.3610 C   0  0  0  0  0  0  0  0  0  0  0  0
   -2.3930   23.4890  -28.8680 C   0  0  0  0  0  0  0  0  0  0  0  0
   -2.4510   24.8830  -29.3680 C   0  0  0  0  0  0  0  0  0  0  0  0
   -1.6180   25.7370  -28.9640 O   0  0  0  0  0  0  0  0  0  0  0  0
   -3.4520   25.2840  -30.2460 O   0  0  0  0  0  0  0  0  0  0  0  0
   -5.9710   20.5040  -31.9090 C   0  0  0  0  0  0  0  0  0  0  0  0
   -4.6170   20.1510  -32.0260 O   0  0  0  0  0  0  0  0  0  0  0  0
   -3.9720   19.1000  -33.2130 S   0  0  0  0  0  0  0  0  0  0  0  0
   -3.7560   17.7430  -32.6080 O   0  0  0  0  0  0  0  0  0  0  0  0
   -4.9490   18.9840  -34.3510 O   0  0  0  0  0  0  0  0  0  0  0  0
   -2.4310   19.7260  -33.7930 C   0  0  0  0  0  0  0  0  0  0  0  0
   -1.5530   18.8830  -34.4870 C   0  0  0  0  0  0  0  0  0  0  0  0
   -0.3160   19.3650  -34.9250 C   0  0  0  0  0  0  0  0  0  0  0  0
    0.0490   20.6970  -34.6800 C   0  0  0  0  0  0  0  0  0  0  0  0
    1.6180   21.2920  -35.2080 S   0  0  0  0  0  0  0  0  0  0  0  0
    2.9000   20.4610  -34.2970 C   0  0  0  0  0  0  0  0  0  0  0  0
    1.7930   21.0300  -36.6770 O   0  0  0  0  0  0  0  0  0  0  0  0
    1.7100   22.7730  -34.9670 O   0  0  0  0  0  0  0  0  0  0  0  0
   -0.8310   21.5380  -33.9850 C   0  0  0  0  0  0  0  0  0  0  0  0
   -2.0670   21.0570  -33.5470 C   0  0  0  0  0  0  0  0  0  0  0  0
   -7.0050   19.5860  -32.1780 C   0  0  0  0  0  0  0  0  0  0  0  0
   -9.8420   18.6153  -31.4032 H   0  0  0  0  0  0  0  0  0  0  0  0
  -10.2458   19.4625  -32.9348 H   0  0  0  0  0  0  0  0  0  0  0  0
   -9.0354   18.1354  -32.9348 H   0  0  0  0  0  0  0  0  0  0  0  0
   -9.7166   21.5918  -31.6249 H   0  0  0  0  0  0  0  0  0  0  0  0
   -7.9069   23.2265  -31.1429 H   0  0  0  0  0  0  0  0  0  0  0  0
   -5.5600   23.3920  -28.8250 H   0  0  0  0  0  0  0  0  0  0  0  0
   -4.3120   20.7115  -28.2287 H   0  0  0  0  0  0  0  0  0  0  0  0
   -2.1454   19.9114  -27.3013 H   0  0  0  0  0  0  0  0  0  0  0  0
   -0.1262   21.3665  -27.4084 H   0  0  0  0  0  0  0  0  0  0  0  0
   -0.2754   23.6408  -28.4039 H   0  0  0  0  0  0  0  0  0  0  0  0
   -1.8377   17.8396  -34.6877 H   0  0  0  0  0  0  0  0  0  0  0  0
    0.3731   18.6977  -35.4634 H   0  0  0  0  0  0  0  0  0  0  0  0
    2.7186   20.5786  -33.2185 H   0  0  0  0  0  0  0  0  0  0  0  0
    2.8986   19.3916  -34.5546 H   0  0  0  0  0  0  0  0  0  0  0  0
    3.8756   20.8989  -34.5546 H   0  0  0  0  0  0  0  0  0  0  0  0
   -0.5469   22.5814  -33.7836 H   0  0  0  0  0  0  0  0  0  0  0  0
   -2.7560   21.7240  -33.0080 H   0  0  0  0  0  0  0  0  0  0  0  0
   -6.7553   18.5511  -32.4546 H   0  0  0  0  0  0  0  0  0  0  0  0
  1  2  1  0
  2  3  2  0
  3  4  1  0
  4  5  2  0
  5  6  1  0
  6  7  2  0
  6  8  2  0
  6  9  1  0
  9 10  1  0
 10 11  2  0
 11 12  1  0
 12 13  2  0
 13 14  1  0
 14 15  2  0
 15 16  1  0
 16 17  2  0
 16 18  1  0
  5 19  1  0
 19 20  1  0
 20 21  1  0
 21 22  2  0
 21 23  2  0
 21 24  1  0
 24 25  2  0
 25 26  1  0
 26 27  2  0
 27 28  1  0
 28 29  1  0
 28 30  2  0
 28 31  2  0
 27 32  1  0
 32 33  2  0
 19 34  2  0
 34  2  1  0
 15 10  1  0
 33 24  1  0
  1 35  1  0
  1 36  1  0
  1 37  1  0
  3 38  1  0
  4 39  1  0
  9 40  1  0
 11 41  1  0
 12 42  1  0
 13 43  1  0
 14 44  1  0
 25 45  1  0
 26 46  1  0
 29 47  1  0
 29 48  1  0
 29 49  1  0
 32 50  1  0
 33 51  1  0
 34 52  1  0
M  CHG  1  18  -1
M  END
>  <UniqueID>  (18) 
18

>  <SMILES>  (18) 
Cc1ccc(S(=O)(=O)Nc2ccccc2C(=O)[O-])c(OS(=O)(=O)c2ccc(S(C)(=O)=O)cc2)c1

>  <Energy>  (18) 
59.399265003574804

>  <Genealogy>  (18) 
Cc1ccc(S(=O)(=O)Nc2ccccc2C(=O)[O-])c(OS(=O)(=O)c2ccc(S(C)(=O)=O)cc2)c1 (protonated)
Cc1ccc(S(=O)(=O)Nc2ccccc2C(=O)[O-])c(OS(=O)(=O)c2ccc(S(C)(=O)=O)cc2)c1 (3D coordinates assigned)
Cc1ccc(S(=O)(=O)Nc2ccccc2C(=O)[O-])c(OS(=O)(=O)c2ccc(S(C)(=O)=O)cc2)c1 (optimized conformer: 59.399265003574804 kcal/mol)

>  <smiles>  (18) 
Cc1ccc(S(=O)(=O)Nc2ccccc2C(=O)O)c(OS(=O)(=O)c2ccc(S(C)(=O)=O)cc2)c1

>  <score_type>  (18) 
oracle

>  <origin>  (18) 
adgpu

>  <m_score__min__energy>  (18) 
-13.27

>  <m_primary>  (18) 
energy

$$$$
18:0
     RDKit          3D

 29 30  0  0  0  0  0  0  0  0999 V2000
   -6.8920   17.5640  -32.7220 C   0  0  0  0  0  0  0  0  0  0  0  0
   -7.4230   18.9200  -32.3360 C   0  0  0  0  0  0  0  0  0  0  0  0
   -8.5930   18.9920  -31.5630 C   0  0  0  0  0  0  0  0  0  0  0  0
   -9.1130   20.2250  -31.1770 C   0  0  0  0  0  0  0  0  0  0  0  0
   -8.4840   21.4040  -31.5700 C   0  0  0  0  0  0  0  0  0  0  0  0
   -7.3240   21.3640  -32.3520 C   0  0  0  0  0  0  0  0  0  0  0  0
   -6.7340   22.6070  -32.7590 N   0  0  0  0  0  0  0  0  0  0  0  0
   -5.7590   23.3170  -31.9740 C   0  0  0  0  0  0  0  0  0  0  0  0
   -4.5700   22.6760  -31.6100 C   0  0  0  0  0  0  0  0  0  0  0  0
   -3.6350   23.3760  -30.8490 C   0  0  0  0  0  0  0  0  0  0  0  0
   -2.5530   22.8280  -30.5120 O   0  0  0  0  0  0  0  0  0  0  0  0
   -3.8920   24.6540  -30.4700 N   0  0  0  0  0  0  0  0  0  0  0  0
   -5.0540   25.2650  -30.8170 C   0  0  0  0  0  0  0  0  0  0  0  0
   -5.2700   26.4490  -30.4470 O   0  0  0  0  0  0  0  0  0  0  0  0
   -5.9810   24.6000  -31.5600 N   0  0  0  0  0  0  0  0  0  0  0  0
   -6.7470   20.1140  -32.6980 C   0  0  0  0  0  0  0  0  0  0  0  0
   -5.4410   20.0580  -33.4580 C   0  0  0  0  0  0  0  0  0  0  0  0
   -6.6659   16.9866  -31.8135 H   0  0  0  0  0  0  0  0  0  0  0  0
   -7.6475   17.0302  -33.3172 H   0  0  0  0  0  0  0  0  0  0  0  0
   -5.9749   17.6852  -33.3172 H   0  0  0  0  0  0  0  0  0  0  0  0
   -9.1035   18.0661  -31.2595 H   0  0  0  0  0  0  0  0  0  0  0  0
  -10.0228   20.2679  -30.5602 H   0  0  0  0  0  0  0  0  0  0  0  0
   -8.9022   22.3741  -31.2633 H   0  0  0  0  0  0  0  0  0  0  0  0
   -6.9340   22.9450  -33.7270 H   0  0  0  0  0  0  0  0  0  0  0  0
   -4.3763   21.6381  -31.9188 H   0  0  0  0  0  0  0  0  0  0  0  0
   -6.8750   25.0860  -31.7980 H   0  0  0  0  0  0  0  0  0  0  0  0
   -4.6035   20.0221  -32.7457 H   0  0  0  0  0  0  0  0  0  0  0  0
   -5.4232   19.1583  -34.0906 H   0  0  0  0  0  0  0  0  0  0  0  0
   -5.3462   20.9529  -34.0906 H   0  0  0  0  0  0  0  0  0  0  0  0
  1  2  1  0
  2  3  2  0
  3  4  1  0
  4  5  2  0
  5  6  1  0
  6  7  1  0
  7  8  1  0
  8  9  2  0
  9 10  1  0
 10 11  2  0
 10 12  1  0
 12 13  1  0
 13 14  2  0
 13 15  1  0
  6 16  2  0
 16 17  1  0
 16  2  1  0
 15  8  1  0
  1 18  1  0
  1 19  1  0
  1 20  1  0
  3 21  1  0
  4 22  1  0
  5 23  1  0
  7 24  1  0
  9 25  1  0
 15 26  1  0
 17 27  1  0
 17 28  1  0
 17 29  1  0
M  CHG  1  12  -1
M  END
>  <UniqueID>  (19) 
19

>  <SMILES>  (19) 
Cc1cccc(Nc2cc(=O)[n-]c(=O)[nH]2)c1C

>  <Energy>  (19) 
38.264175593807785

>  <Genealogy>  (19) 
Cc1cccc(Nc2cc(=O)[n-]c(=O)[nH]2)c1C (protonated)
Cc1cccc(Nc2cc(=O)[n-]c(=O)[nH]2)c1C (3D coordinates assigned)
Cc1cccc(Nc2cc(=O)[n-]c(=O)[nH]2)c1C (optimized conformer: 38.264175593807785 kcal/mol)

>  <smiles>  (19) 
Cc1cccc(Nc2cc(=O)[nH]c(=O)[nH]2)c1C

>  <score_type>  (19) 
oracle

>  <origin>  (19) 
adgpu

>  <m_score__min__energy>  (19) 
-8.1899999999999995

>  <m_primary>  (19) 
energy

$$$$
19:0
     RDKit          3D

 65 69  0  0  0  0  0  0  0  0999 V2000
   -3.8760   25.3170  -30.5060 O   0  0  0  0  0  0  0  0  0  0  0  0
   -4.1750   24.1090  -30.7000 C   0  0  0  0  0  0  0  0  0  0  0  0
   -5.1060   23.7820  -31.7370 N   0  0  0  0  0  0  0  0  0  0  0  0
   -5.4590   22.4300  -32.0480 C   0  0  0  0  0  0  0  0  0  0  0  0
   -6.7540   21.9600  -31.7800 C   0  0  0  0  0  0  0  0  0  0  0  0
   -7.0830   20.6150  -32.0120 C   0  0  0  0  0  0  0  0  0  0  0  0
   -8.4700   20.1090  -31.6980 C   0  0  0  0  0  0  0  0  0  0  0  0
   -8.4240   18.8060  -31.2330 F   0  0  0  0  0  0  0  0  0  0  0  0
   -9.0420   20.9140  -30.7280 F   0  0  0  0  0  0  0  0  0  0  0  0
   -9.2620   20.1300  -32.8310 F   0  0  0  0  0  0  0  0  0  0  0  0
   -6.0760   19.7310  -32.4350 C   0  0  0  0  0  0  0  0  0  0  0  0
   -4.7760   20.1960  -32.6830 C   0  0  0  0  0  0  0  0  0  0  0  0
   -3.5040   19.0520  -33.1040 S   0  0  0  0  0  0  0  0  0  0  0  0
   -3.3380   19.0060  -34.5980 O   0  0  0  0  0  0  0  0  0  0  0  0
   -3.8910   17.6890  -32.6030 O   0  0  0  0  0  0  0  0  0  0  0  0
   -2.0050   19.5600  -32.3640 N   0  0  0  0  0  0  0  0  0  0  0  0
   -1.2740   20.4680  -33.2640 C   0  0  0  0  0  0  0  0  0  0  0  0
   -0.1210   21.1370  -32.4960 C   0  0  0  0  0  0  0  0  0  0  0  0
    0.4320   20.2420  -31.3710 C   0  0  0  0  0  0  0  0  0  0  0  0
    0.2830   18.7550  -31.7120 C   0  0  0  0  0  0  0  0  0  0  0  0
   -1.1850   18.3820  -32.0190 C   0  0  0  0  0  0  0  0  0  0  0  0
   -4.4860   21.5550  -32.5380 C   0  0  0  0  0  0  0  0  0  0  0  0
   -3.5610   23.0490  -29.8620 C   0  0  0  0  0  0  0  0  0  0  0  0
   -4.1440   22.6840  -28.6350 C   0  0  0  0  0  0  0  0  0  0  0  0
   -3.5400   21.7300  -27.8180 C   0  0  0  0  0  0  0  0  0  0  0  0
   -2.3640   21.0900  -28.2300 C   0  0  0  0  0  0  0  0  0  0  0  0
   -1.6170   19.8450  -27.2310 S   0  0  0  0  0  0  0  0  0  0  0  0
   -1.6800   20.2500  -25.7850 O   0  0  0  0  0  0  0  0  0  0  0  0
   -2.3670   18.5550  -27.4120 O   0  0  0  0  0  0  0  0  0  0  0  0
    0.0440   19.6020  -27.6760 N   0  0  0  0  0  0  0  0  0  0  0  0
    1.0000   20.6780  -27.9180 C   0  0  0  0  0  0  0  0  0  0  0  0
    2.3500   19.9820  -28.2230 C   0  0  0  0  0  0  0  0  0  0  0  0
    2.0390   18.5350  -28.0500 C   0  0  0  0  0  0  0  0  0  0  0  0
    2.9160   17.4500  -28.1160 C   0  0  0  0  0  0  0  0  0  0  0  0
    2.4130   16.1640  -27.8620 C   0  0  0  0  0  0  0  0  0  0  0  0
    1.0530   15.9850  -27.5420 C   0  0  0  0  0  0  0  0  0  0  0  0
    0.1910   17.0930  -27.4800 C   0  0  0  0  0  0  0  0  0  0  0  0
    0.7180   18.3600  -27.7440 C   0  0  0  0  0  0  0  0  0  0  0  0
   -1.7900   21.4300  -29.4620 C   0  0  0  0  0  0  0  0  0  0  0  0
   -2.3810   22.4060  -30.2730 C   0  0  0  0  0  0  0  0  0  0  0  0
   -7.5154   22.6492  -31.3860 H   0  0  0  0  0  0  0  0  0  0  0  0
   -6.3092   18.6649  -32.5729 H   0  0  0  0  0  0  0  0  0  0  0  0
   -0.8667   19.8953  -34.1102 H   0  0  0  0  0  0  0  0  0  0  0  0
   -1.9603   21.2413  -33.6395 H   0  0  0  0  0  0  0  0  0  0  0  0
    0.6922   21.3592  -33.2027 H   0  0  0  0  0  0  0  0  0  0  0  0
   -0.5140   22.0540  -32.0327 H   0  0  0  0  0  0  0  0  0  0  0  0
    1.4980   20.4700  -31.2242 H   0  0  0  0  0  0  0  0  0  0  0  0
   -0.1416   20.4452  -30.4547 H   0  0  0  0  0  0  0  0  0  0  0  0
    0.9001   18.5282  -32.5939 H   0  0  0  0  0  0  0  0  0  0  0  0
    0.6099   18.1694  -30.8401 H   0  0  0  0  0  0  0  0  0  0  0  0
   -1.2014   17.6800  -32.8657 H   0  0  0  0  0  0  0  0  0  0  0  0
   -1.6127   17.9299  -31.1120 H   0  0  0  0  0  0  0  0  0  0  0  0
   -3.4907   21.9365  -32.8098 H   0  0  0  0  0  0  0  0  0  0  0  0
   -5.0855   23.1560  -28.3173 H   0  0  0  0  0  0  0  0  0  0  0  0
   -3.9886   21.4786  -26.8456 H   0  0  0  0  0  0  0  0  0  0  0  0
    0.6811   21.2881  -28.7760 H   0  0  0  0  0  0  0  0  0  0  0  0
    1.0784   21.3523  -27.0525 H   0  0  0  0  0  0  0  0  0  0  0  0
    2.6787   20.1938  -29.2512 H   0  0  0  0  0  0  0  0  0  0  0  0
    3.1675   20.3264  -27.5725 H   0  0  0  0  0  0  0  0  0  0  0  0
    3.9777   17.5997  -28.3616 H   0  0  0  0  0  0  0  0  0  0  0  0
    3.0833   15.2933  -27.9131 H   0  0  0  0  0  0  0  0  0  0  0  0
    0.6649   14.9757  -27.3402 H   0  0  0  0  0  0  0  0  0  0  0  0
   -0.8726   16.9661  -27.2298 H   0  0  0  0  0  0  0  0  0  0  0  0
   -0.8697   20.9271  -29.7939 H   0  0  0  0  0  0  0  0  0  0  0  0
   -1.9198   22.6707  -31.2359 H   0  0  0  0  0  0  0  0  0  0  0  0
  1  2  2  0
  2  3  1  0
  3  4  1  0
  4  5  2  0
  5  6  1  0
  6  7  1  0
  7  8  1  0
  7  9  1  0
  7 10  1  0
  6 11  2  0
 11 12  1  0
 12 13  1  0
 13 14  2  0
 13 15  2  0
 13 16  1  0
 16 17  1  0
 17 18  1  0
 18 19  1  0
 19 20  1  0
 20 21  1  0
 12 22  2  0
  2 23  1  0
 23 24  2  0
 24 25  1  0
 25 26  2  0
 26 27  1  0
 27 28  2  0
 27 29  2  0
 27 30  1  0
 30 31  1  0
 31 32  1  0
 32 33  1  0
 33 34  2  0
 34 35  1  0
 35 36  2  0
 36 37  1  0
 37 38  2  0
 26 39  1  0
 39 40  2  0
 22  4  1  0
 40 23  1  0
 21 16  1  0
 38 30  1  0
 38 33  1  0
  5 41  1  0
 11 42  1  0
 17 43  1  0
 17 44  1  0
 18 45  1  0
 18 46  1  0
 19 47  1  0
 19 48  1  0
 20 49  1  0
 20 50  1  0
 21 51  1  0
 21 52  1  0
 22 53  1  0
 24 54  1  0
 25 55  1  0
 31 56  1  0
 31 57  1  0
 32 58  1  0
 32 59  1  0
 34 60  1  0
 35 61  1  0
 36 62  1  0
 37 63  1  0
 39 64  1  0
 40 65  1  0
M  CHG  1   3  -1
M  END
>  <UniqueID>  (20) 
20

>  <SMILES>  (20) 
O=C([N-]c1cc(C(F)(F)F)cc(S(=O)(=O)N2CCCCC2)c1)c1ccc(S(=O)(=O)N2CCc3ccccc32)cc1

>  <Energy>  (20) 
96.89136647108805

>  <Genealogy>  (20) 
O=C([N-]c1cc(C(F)(F)F)cc(S(=O)(=O)N2CCCCC2)c1)c1ccc(S(=O)(=O)N2CCc3ccccc32)cc1 (protonated)
O=C([N-]c1cc(C(F)(F)F)cc(S(=O)(=O)N2CCCCC2)c1)c1ccc(S(=O)(=O)N2CCc3ccccc32)cc1 (3D coordinates assigned)
O=C([N-]c1cc(C(F)(F)F)cc(S(=O)(=O)N2CCCCC2)c1)c1ccc(S(=O)(=O)N2CCc3ccccc32)cc1 (nonaromatic ring conformer: 96.89136647108805 kcal/mol)

>  <smiles>  (20) 
O=C(Nc1cc(C(F)(F)F)cc(S(=O)(=O)N2CCCCC2)c1)c1ccc(S(=O)(=O)N2CCc3ccccc32)cc1

>  <score_type>  (20) 
oracle

>  <origin>  (20) 
adgpu

>  <m_score__min__energy>  (20) 
-13.35

>  <m_primary>  (20) 
energy

$$$$
20:0
     RDKit          3D

 54 57  0  0  0  0  0  0  0  0999 V2000
   -8.8530   23.0460  -31.8550 C   0  0  0  0  0  0  0  0  0  0  0  0
   -7.4620   23.4700  -31.4900 C   0  0  0  0  0  0  0  0  0  0  0  0
   -7.2460   24.3120  -30.3890 C   0  0  0  0  0  0  0  0  0  0  0  0
   -5.9530   24.7380  -30.0700 C   0  0  0  0  0  0  0  0  0  0  0  0
   -4.8640   24.3500  -30.8580 C   0  0  0  0  0  0  0  0  0  0  0  0
   -3.5810   24.7820  -30.4940 O   0  0  0  0  0  0  0  0  0  0  0  0
   -2.7410   24.1450  -29.5680 C   0  0  0  0  0  0  0  0  0  0  0  0
   -2.3820   24.7760  -28.3630 C   0  0  0  0  0  0  0  0  0  0  0  0
   -1.5870   24.1160  -27.4120 C   0  0  0  0  0  0  0  0  0  0  0  0
   -1.2460   24.7870  -26.1060 C   0  0  0  0  0  0  0  0  0  0  0  0
   -0.2580   25.7390  -26.2880 F   0  0  0  0  0  0  0  0  0  0  0  0
   -2.3600   25.4160  -25.5770 F   0  0  0  0  0  0  0  0  0  0  0  0
   -0.7970   23.8370  -25.2100 F   0  0  0  0  0  0  0  0  0  0  0  0
   -1.2080   22.7850  -27.6490 C   0  0  0  0  0  0  0  0  0  0  0  0
   -1.5720   22.1470  -28.8370 C   0  0  0  0  0  0  0  0  0  0  0  0
   -2.3140   22.8250  -29.8120 C   0  0  0  0  0  0  0  0  0  0  0  0
   -2.6670   22.1400  -31.0230 N   0  0  0  0  0  0  0  0  0  0  0  0
   -1.7050   21.5080  -31.8780 C   0  0  0  0  0  0  0  0  0  0  0  0
   -0.4960   21.4280  -31.5290 O   0  0  0  0  0  0  0  0  0  0  0  0
   -2.1300   20.9790  -33.1390 N   0  0  0  0  0  0  0  0  0  0  0  0
   -2.8240   19.7380  -33.3260 C   0  0  0  0  0  0  0  0  0  0  0  0
   -2.1500   18.6880  -33.9520 C   0  0  0  0  0  0  0  0  0  0  0  0
   -2.7870   17.4680  -34.1660 C   0  0  0  0  0  0  0  0  0  0  0  0
   -4.1110   17.2780  -33.7630 C   0  0  0  0  0  0  0  0  0  0  0  0
   -4.8550   15.7210  -34.1180 Cl  0  0  0  0  0  0  0  0  0  0  0  0
   -4.8200   18.3320  -33.1410 C   0  0  0  0  0  0  0  0  0  0  0  0
   -6.5120   18.1130  -32.6310 S   0  0  0  0  0  0  0  0  0  0  0  0
   -6.5620   17.4710  -31.2720 O   0  0  0  0  0  0  0  0  0  0  0  0
   -7.2000   17.1830  -33.5900 O   0  0  0  0  0  0  0  0  0  0  0  0
   -7.4410   19.6480  -32.5580 C   0  0  0  0  0  0  0  0  0  0  0  0
   -8.9460   19.4570  -32.6650 C   0  0  0  0  0  0  0  0  0  0  0  0
   -8.3260   19.8690  -31.3400 C   0  0  0  0  0  0  0  0  0  0  0  0
   -4.1740   19.5760  -32.9570 C   0  0  0  0  0  0  0  0  0  0  0  0
   -4.8820   20.6620  -32.4510 O   0  0  0  0  0  0  0  0  0  0  0  0
   -5.0790   23.5040  -31.9610 C   0  0  0  0  0  0  0  0  0  0  0  0
   -6.3720   23.0780  -32.2810 C   0  0  0  0  0  0  0  0  0  0  0  0
   -9.4347   22.8687  -30.9384 H   0  0  0  0  0  0  0  0  0  0  0  0
   -9.3343   23.8382  -32.4472 H   0  0  0  0  0  0  0  0  0  0  0  0
   -8.8106   22.1200  -32.4472 H   0  0  0  0  0  0  0  0  0  0  0  0
   -8.0975   24.6385  -29.7739 H   0  0  0  0  0  0  0  0  0  0  0  0
   -5.7909   25.3826  -29.1935 H   0  0  0  0  0  0  0  0  0  0  0  0
   -2.7288   25.8005  -28.1630 H   0  0  0  0  0  0  0  0  0  0  0  0
   -0.6207   22.2413  -26.8943 H   0  0  0  0  0  0  0  0  0  0  0  0
   -1.2731   21.1023  -29.0083 H   0  0  0  0  0  0  0  0  0  0  0  0
   -3.6790   21.9610  -31.2150 H   0  0  0  0  0  0  0  0  0  0  0  0
   -1.1086   18.8251  -34.2785 H   0  0  0  0  0  0  0  0  0  0  0  0
   -2.2430   16.6473  -34.6564 H   0  0  0  0  0  0  0  0  0  0  0  0
   -6.6739   20.2560  -33.0599 H   0  0  0  0  0  0  0  0  0  0  0  0
   -9.5523   20.1760  -33.2355 H   0  0  0  0  0  0  0  0  0  0  0  0
   -9.6045   18.6398  -32.9945 H   0  0  0  0  0  0  0  0  0  0  0  0
   -8.4834   20.8861  -30.9518 H   0  0  0  0  0  0  0  0  0  0  0  0
   -8.3498   19.4736  -30.3138 H   0  0  0  0  0  0  0  0  0  0  0  0
   -4.2267   23.1762  -32.5743 H   0  0  0  0  0  0  0  0  0  0  0  0
   -6.5349   22.4327  -33.1568 H   0  0  0  0  0  0  0  0  0  0  0  0
  1  2  1  0
  2  3  2  0
  3  4  1  0
  4  5  2  0
  5  6  1  0
  6  7  1  0
  7  8  2  0
  8  9  1  0
  9 10  1  0
 10 11  1  0
 10 12  1  0
 10 13  1  0
  9 14  2  0
 14 15  1  0
 15 16  2  0
 16 17  1  0
 17 18  1  0
 18 19  2  0
 18 20  1  0
 20 21  1  0
 21 22  2  0
 22 23  1  0
 23 24  2  0
 24 25  1  0
 24 26  1  0
 26 27  1  0
 27 28  2  0
 27 29  2  0
 27 30  1  0
 30 31  1  0
 31 32  1  0
 26 33  2  0
 33 34  1  0
  5 35  1  0
 35 36  2  0
 36  2  1  0
 16  7  1  0
 33 21  1  0
 32 30  1  0
  1 37  1  0
  1 38  1  0
  1 39  1  0
  3 40  1  0
  4 41  1  0
  8 42  1  0
 14 43  1  0
 15 44  1  0
 17 45  1  0
 22 46  1  0
 23 47  1  0
 30 48  1  0
 31 49  1  0
 31 50  1  0
 32 51  1  0
 32 52  1  0
 35 53  1  0
 36 54  1  0
M  CHG  2  20  -1  34  -1
M  END
>  <UniqueID>  (21) 
21

>  <SMILES>  (21) 
Cc1ccc(Oc2cc(C(F)(F)F)ccc2NC(=O)[N-]c2ccc(Cl)c(S(=O)(=O)C3CC3)c2[O-])cc1

>  <Energy>  (21) 
339.87052544260973

>  <Genealogy>  (21) 
Cc1ccc(Oc2cc(C(F)(F)F)ccc2NC(=O)[N-]c2ccc(Cl)c(S(=O)(=O)C3CC3)c2[O-])cc1 (protonated)
Cc1ccc(Oc2cc(C(F)(F)F)ccc2NC(=O)[N-]c2ccc(Cl)c(S(=O)(=O)C3CC3)c2[O-])cc1 (3D coordinates assigned)
Cc1ccc(Oc2cc(C(F)(F)F)ccc2NC(=O)[N-]c2ccc(Cl)c(S(=O)(=O)C3CC3)c2[O-])cc1 (nonaromatic ring conformer: 339.87052544260973 kcal/mol)

>  <smiles>  (21) 
Cc1ccc(Oc2cc(C(F)(F)F)ccc2NC(=O)Nc2ccc(Cl)c(S(=O)(=O)C3CC3)c2O)cc1

>  <score_type>  (21) 
oracle

>  <origin>  (21) 
adgpu

>  <m_score__min__energy>  (21) 
-13.24

>  <m_primary>  (21) 
energy

$$$$
21:0
     RDKit          3D

 31 32  0  0  0  0  0  0  0  0999 V2000
   -5.5160   26.9240  -30.4600 O   0  0  0  0  0  0  0  0  0  0  0  0
   -5.2290   25.6990  -30.4300 C   0  0  0  0  0  0  0  0  0  0  0  0
   -3.8610   25.3020  -30.5900 N   0  0  0  0  0  0  0  0  0  0  0  0
   -3.1610   24.3760  -29.7450 C   0  0  0  0  0  0  0  0  0  0  0  0
   -3.5460   23.0290  -29.7560 C   0  0  0  0  0  0  0  0  0  0  0  0
   -2.8970   22.1010  -28.9370 C   0  0  0  0  0  0  0  0  0  0  0  0
   -1.8460   22.5090  -28.1130 C   0  0  0  0  0  0  0  0  0  0  0  0
   -1.4310   23.8440  -28.1180 C   0  0  0  0  0  0  0  0  0  0  0  0
   -2.0710   24.7760  -28.9430 C   0  0  0  0  0  0  0  0  0  0  0  0
   -1.5990   26.0830  -28.9760 O   0  0  0  0  0  0  0  0  0  0  0  0
   -6.3040   24.7020  -30.2680 C   0  0  0  0  0  0  0  0  0  0  0  0
   -7.2250   24.9120  -29.4330 O   0  0  0  0  0  0  0  0  0  0  0  0
   -6.3170   23.5090  -31.0640 N   0  0  0  0  0  0  0  0  0  0  0  0
   -7.5170   22.6880  -31.2040 C   0  0  0  0  0  0  0  0  0  0  0  0
   -7.1820   21.4120  -31.9190 C   0  0  0  0  0  0  0  0  0  0  0  0
   -8.1200   20.3720  -32.0170 C   0  0  0  0  0  0  0  0  0  0  0  0
   -7.8020   19.2290  -32.7520 C   0  0  0  0  0  0  0  0  0  0  0  0
   -6.5590   19.1310  -33.3800 C   0  0  0  0  0  0  0  0  0  0  0  0
   -5.6500   20.1840  -33.2630 C   0  0  0  0  0  0  0  0  0  0  0  0
   -5.9800   21.2930  -32.5500 N   0  0  0  0  0  0  0  0  0  0  0  0
   -4.3642   22.6998  -30.4134 H   0  0  0  0  0  0  0  0  0  0  0  0
   -3.2145   21.0478  -28.9415 H   0  0  0  0  0  0  0  0  0  0  0  0
   -1.3445   21.7798  -27.4598 H   0  0  0  0  0  0  0  0  0  0  0  0
   -0.5996   24.1626  -27.4721 H   0  0  0  0  0  0  0  0  0  0  0  0
   -5.4850   23.2720  -31.6500 H   0  0  0  0  0  0  0  0  0  0  0  0
   -7.9167   22.4531  -30.2065 H   0  0  0  0  0  0  0  0  0  0  0  0
   -8.2692   23.2420  -31.7848 H   0  0  0  0  0  0  0  0  0  0  0  0
   -9.0970   20.4573  -31.5188 H   0  0  0  0  0  0  0  0  0  0  0  0
   -8.5288   18.4076  -32.8363 H   0  0  0  0  0  0  0  0  0  0  0  0
   -6.2987   18.2338  -33.9607 H   0  0  0  0  0  0  0  0  0  0  0  0
   -4.6653   20.1161  -33.7485 H   0  0  0  0  0  0  0  0  0  0  0  0
  1  2  2  0
  2  3  1  0
  3  4  1  0
  4  5  2  0
  5  6  1  0
  6  7  2  0
  7  8  1  0
  8  9  2  0
  9 10  1  0
  2 11  1  0
 11 12  2  0
 11 13  1  0
 13 14  1  0
 14 15  1  0
 15 16  2  0
 16 17  1  0
 17 18  2  0
 18 19  1  0
 19 20  2  0
  9  4  1  0
 20 15  1  0
  5 21  1  0
  6 22  1  0
  7 23  1  0
  8 24  1  0
 13 25  1  0
 14 26  1  0
 14 27  1  0
 16 28  1  0
 17 29  1  0
 18 30  1  0
 19 31  1  0
M  CHG  2   3  -1  10  -1
M  END
>  <UniqueID>  (22) 
22

>  <SMILES>  (22) 
O=C([N-]c1ccccc1[O-])C(=O)NCc1ccccn1

>  <Energy>  (22) 
35.2059595680173

>  <Genealogy>  (22) 
O=C([N-]c1ccccc1[O-])C(=O)NCc1ccccn1 (protonated)
O=C([N-]c1ccccc1[O-])C(=O)NCc1ccccn1 (3D coordinates assigned)
O=C([N-]c1ccccc1[O-])C(=O)NCc1ccccn1 (optimized conformer: 35.2059595680173 kcal/mol)

>  <smiles>  (22) 
O=C(NCc1ccccn1)C(=O)Nc1ccccc1O

>  <score_type>  (22) 
oracle

>  <origin>  (22) 
adgpu

>  <m_score__min__energy>  (22) 
-12.02

>  <m_primary>  (22) 
energy

$$$$
22:0
     RDKit          3D

 28 29  0  0  0  0  0  0  0  0999 V2000
   -1.2870   26.0660  -28.9830 N   0  0  0  0  0  0  0  0  0  0  0  0
   -0.8590   24.4910  -28.4130 S   0  0  0  0  0  0  0  0  0  0  0  0
   -1.4610   24.2830  -27.0520 O   0  0  0  0  0  0  0  0  0  0  0  0
    0.6360   24.3780  -28.3290 O   0  0  0  0  0  0  0  0  0  0  0  0
   -1.4770   23.2790  -29.5170 C   0  0  0  0  0  0  0  0  0  0  0  0
   -0.8040   22.1290  -29.9090 C   0  0  0  0  0  0  0  0  0  0  0  0
   -1.5350   21.3520  -30.8140 C   0  0  0  0  0  0  0  0  0  0  0  0
   -2.7730   21.8980  -31.1220 C   0  0  0  0  0  0  0  0  0  0  0  0
   -3.9390   21.2140  -32.2370 S   0  0  0  0  0  0  0  0  0  0  0  0
   -4.3160   19.8230  -31.8100 O   0  0  0  0  0  0  0  0  0  0  0  0
   -3.3270   21.1590  -33.6090 O   0  0  0  0  0  0  0  0  0  0  0  0
   -5.3610   22.2050  -32.2870 N   0  0  0  0  0  0  0  0  0  0  0  0
   -6.7100   21.7320  -32.1540 C   0  0  0  0  0  0  0  0  0  0  0  0
   -7.6500   22.4010  -31.3450 C   0  0  0  0  0  0  0  0  0  0  0  0
   -8.9580   21.9210  -31.2390 C   0  0  0  0  0  0  0  0  0  0  0  0
   -9.3420   20.7720  -31.9320 C   0  0  0  0  0  0  0  0  0  0  0  0
   -8.4170   20.0980  -32.7330 C   0  0  0  0  0  0  0  0  0  0  0  0
   -7.1050   20.5710  -32.8500 C   0  0  0  0  0  0  0  0  0  0  0  0
   -6.2120   19.8740  -33.6640 O   0  0  0  0  0  0  0  0  0  0  0  0
   -2.9720   23.3440  -30.2860 S   0  0  0  0  0  0  0  0  0  0  0  0
   -1.2340   26.0370  -30.0260 H   0  0  0  0  0  0  0  0  0  0  0  0
    0.1983   21.8577  -29.5460 H   0  0  0  0  0  0  0  0  0  0  0  0
   -1.1665   20.4061  -31.2376 H   0  0  0  0  0  0  0  0  0  0  0  0
   -7.3526   23.3055  -30.7942 H   0  0  0  0  0  0  0  0  0  0  0  0
   -9.6870   22.4501  -30.6077 H   0  0  0  0  0  0  0  0  0  0  0  0
  -10.3727   20.3972  -31.8475 H   0  0  0  0  0  0  0  0  0  0  0  0
   -8.7215   19.1904  -33.2748 H   0  0  0  0  0  0  0  0  0  0  0  0
   -5.2330   20.1260  -33.7380 H   0  0  0  0  0  0  0  0  0  0  0  0
  1  2  1  0
  2  3  2  0
  2  4  2  0
  2  5  1  0
  5  6  2  0
  6  7  1  0
  7  8  2  0
  8  9  1  0
  9 10  2  0
  9 11  2  0
  9 12  1  0
 12 13  1  0
 13 14  2  0
 14 15  1  0
 15 16  2  0
 16 17  1  0
 17 18  2  0
 18 19  1  0
  8 20  1  0
 20  5  1  0
 18 13  1  0
  1 21  1  0
  6 22  1  0
  7 23  1  0
 14 24  1  0
 15 25  1  0
 16 26  1  0
 17 27  1  0
 19 28  1  0
M  CHG  2   1  -1  12  -1
M  END
>  <UniqueID>  (23) 
23

>  <SMILES>  (23) 
[NH-]S(=O)(=O)c1ccc(S(=O)(=O)[N-]c2ccccc2O)s1

>  <Energy>  (23) 
57.94903987373496

>  <Genealogy>  (23) 
[NH-]S(=O)(=O)c1ccc(S(=O)(=O)[N-]c2ccccc2O)s1 (protonated)
[NH-]S(=O)(=O)c1ccc(S(=O)(=O)[N-]c2ccccc2O)s1 (3D coordinates assigned)
[NH-]S(=O)(=O)c1ccc(S(=O)(=O)[N-]c2ccccc2O)s1 (optimized conformer: 57.94903987373496 kcal/mol)

>  <smiles>  (23) 
NS(=O)(=O)c1ccc(S(=O)(=O)Nc2ccccc2O)s1

>  <score_type>  (23) 
oracle

>  <origin>  (23) 
adgpu

>  <m_score__min__energy>  (23) 
-9.2599999999999998

>  <m_primary>  (23) 
energy

$$$$
23:0
     RDKit          3D

 32 33  0  0  0  0  0  0  0  0999 V2000
   -4.6420   25.7250  -29.4320 H   0  0  0  0  0  0  0  0  0  0  0  0
   -4.0740   25.6570  -30.2680 O   0  0  0  0  0  0  0  0  0  0  0  0
   -4.3110   24.6560  -31.1800 N   0  0  0  0  0  0  0  0  0  0  0  0
   -4.2920   23.4150  -30.8170 C   0  0  0  0  0  0  0  0  0  0  0  0
   -4.0877   23.1613  -29.7663 H   0  0  0  0  0  0  0  0  0  0  0  0
   -4.5400   22.3340  -31.7900 C   0  0  0  0  0  0  0  0  0  0  0  0
   -3.6160   21.5100  -32.4230 C   0  0  0  0  0  0  0  0  0  0  0  0
   -2.1270   21.5440  -32.2780 C   0  0  0  0  0  0  0  0  0  0  0  0
   -1.8626   21.5500  -31.2103 H   0  0  0  0  0  0  0  0  0  0  0  0
   -1.6914   20.6556  -32.7586 H   0  0  0  0  0  0  0  0  0  0  0  0
   -1.7324   22.4514  -32.7586 H   0  0  0  0  0  0  0  0  0  0  0  0
   -4.2590   20.6270  -33.2100 N   0  0  0  0  0  0  0  0  0  0  0  0
   -5.5590   20.8500  -33.0950 N   0  0  0  0  0  0  0  0  0  0  0  0
   -6.5700   20.0910  -33.8360 C   0  0  0  0  0  0  0  0  0  0  0  0
   -7.5460   20.2130  -33.3436 H   0  0  0  0  0  0  0  0  0  0  0  0
   -6.6128   20.4716  -34.8672 H   0  0  0  0  0  0  0  0  0  0  0  0
   -6.2140   18.6250  -33.8740 C   0  0  0  0  0  0  0  0  0  0  0  0
   -5.1750   18.1850  -34.7120 C   0  0  0  0  0  0  0  0  0  0  0  0
   -4.6448   18.9073  -35.3501 H   0  0  0  0  0  0  0  0  0  0  0  0
   -4.8110   16.8360  -34.7400 C   0  0  0  0  0  0  0  0  0  0  0  0
   -4.0000   16.4998  -35.4028 H   0  0  0  0  0  0  0  0  0  0  0  0
   -5.4750   15.9140  -33.9280 C   0  0  0  0  0  0  0  0  0  0  0  0
   -5.0140   14.2210  -33.9650 Cl  0  0  0  0  0  0  0  0  0  0  0  0
   -6.5020   16.3410  -33.0820 C   0  0  0  0  0  0  0  0  0  0  0  0
   -7.0214   15.6133  -32.4412 H   0  0  0  0  0  0  0  0  0  0  0  0
   -6.8730   17.6900  -33.0460 C   0  0  0  0  0  0  0  0  0  0  0  0
   -8.1600   18.1760  -31.9460 Cl  0  0  0  0  0  0  0  0  0  0  0  0
   -5.7700   21.8970  -32.2660 C   0  0  0  0  0  0  0  0  0  0  0  0
   -7.1200   22.4370  -31.8890 C   0  0  0  0  0  0  0  0  0  0  0  0
   -7.2079   22.4721  -30.7931 H   0  0  0  0  0  0  0  0  0  0  0  0
   -7.2368   23.4511  -32.2989 H   0  0  0  0  0  0  0  0  0  0  0  0
   -7.9039   21.7832  -32.2989 H   0  0  0  0  0  0  0  0  0  0  0  0
  1  2  1  0
  2  3  1  0
  3  4  2  0
  4  5  1  0
  4  6  1  0
  6  7  1  0
  7  8  1  0
  8  9  1  0
  8 10  1  0
  8 11  1  0
  7 12  2  0
 12 13  1  0
 13 14  1  0
 14 15  1  0
 14 16  1  0
 14 17  1  0
 17 18  2  0
 18 19  1  0
 18 20  1  0
 20 21  1  0
 20 22  2  0
 22 23  1  0
 22 24  1  0
 24 25  1  0
 24 26  2  0
 26 27  1  0
 13 28  1  0
 28 29  1  0
 29 30  1  0
 29 31  1  0
 29 32  1  0
 28  6  2  0
 26 17  1  0
M  END
>  <UniqueID>  (24) 
24

>  <SMILES>  (24) 
Cc1nn(Cc2ccc(Cl)cc2Cl)c(C)c1/C=N/O

>  <Energy>  (24) 
60.05349318163897

>  <Genealogy>  (24) 
Cc1nn(Cc2ccc(Cl)cc2Cl)c(C)c1/C=N/O (cis-trans isomerization)
Cc1nn(Cc2ccc(Cl)cc2Cl)c(C)c1/C=N/O (3D coordinates assigned)
Cc1nn(Cc2ccc(Cl)cc2Cl)c(C)c1/C=N/O (optimized conformer: 60.05349318163897 kcal/mol)

>  <smiles>  (24) 
Cc1nn(Cc2ccc(Cl)cc2Cl)c(C)c1C=NO

>  <score_type>  (24) 
oracle

>  <origin>  (24) 
adgpu

>  <m_score__min__energy>  (24) 
-8.7899999999999991

>  <m_primary>  (24) 
energy

$$$$
24:0
     RDKit          3D

 28 28  0  0  0  0  0  0  0  0999 V2000
   -5.8690   18.9590  -34.0360 C   0  0  0  0  0  0  0  0  0  0  0  0
   -6.9190   19.4430  -33.0890 C   0  0  0  0  0  0  0  0  0  0  0  0
   -7.7560   18.5380  -32.4310 C   0  0  0  0  0  0  0  0  0  0  0  0
   -8.7390   19.0390  -31.5770 C   0  0  0  0  0  0  0  0  0  0  0  0
   -8.8760   20.3800  -31.4130 N   0  0  0  0  0  0  0  0  0  0  0  0
   -8.0640   21.2490  -32.0720 C   0  0  0  0  0  0  0  0  0  0  0  0
   -8.2760   23.0140  -31.8550 S   0  0  0  0  0  0  0  0  0  0  0  0
   -6.5190   23.4330  -32.1540 C   0  0  0  0  0  0  0  0  0  0  0  0
   -6.0360   24.5500  -31.2210 C   0  0  0  0  0  0  0  0  0  0  0  0
   -4.6170   24.3700  -30.8450 N   0  0  0  0  0  0  0  0  0  0  0  0
   -4.4220   24.5500  -29.3960 C   0  0  0  0  0  0  0  0  0  0  0  0
   -4.1480   23.0330  -31.2410 C   0  0  0  0  0  0  0  0  0  0  0  0
   -7.0920   20.7780  -32.8960 N   0  0  0  0  0  0  0  0  0  0  0  0
   -5.0146   18.5652  -33.4660 H   0  0  0  0  0  0  0  0  0  0  0  0
   -6.2858   18.1621  -34.6695 H   0  0  0  0  0  0  0  0  0  0  0  0
   -5.5338   19.7935  -34.6695 H   0  0  0  0  0  0  0  0  0  0  0  0
   -7.6424   17.4545  -32.5830 H   0  0  0  0  0  0  0  0  0  0  0  0
   -9.4028   18.3480  -31.0368 H   0  0  0  0  0  0  0  0  0  0  0  0
   -5.9048   22.5363  -31.9845 H   0  0  0  0  0  0  0  0  0  0  0  0
   -6.4223   23.7865  -33.1911 H   0  0  0  0  0  0  0  0  0  0  0  0
   -6.1497   25.5169  -31.7331 H   0  0  0  0  0  0  0  0  0  0  0  0
   -6.6418   24.5177  -30.3034 H   0  0  0  0  0  0  0  0  0  0  0  0
   -5.1231   23.9029  -28.8485 H   0  0  0  0  0  0  0  0  0  0  0  0
   -3.3895   24.2808  -29.1287 H   0  0  0  0  0  0  0  0  0  0  0  0
   -4.6079   25.6007  -29.1287 H   0  0  0  0  0  0  0  0  0  0  0  0
   -3.9387   22.4364  -30.3409 H   0  0  0  0  0  0  0  0  0  0  0  0
   -4.9248   22.5342  -31.8391 H   0  0  0  0  0  0  0  0  0  0  0  0
   -3.2298   23.1288  -31.8391 H   0  0  0  0  0  0  0  0  0  0  0  0
  1  2  1  0
  2  3  2  0
  3  4  1  0
  4  5  2  0
  5  6  1  0
  6  7  1  0
  7  8  1  0
  8  9  1  0
  9 10  1  0
 10 11  1  0
 10 12  1  0
  6 13  2  0
 13  2  1  0
  1 14  1  0
  1 15  1  0
  1 16  1  0
  3 17  1  0
  4 18  1  0
  8 19  1  0
  8 20  1  0
  9 21  1  0
  9 22  1  0
 11 23  1  0
 11 24  1  0
 11 25  1  0
 12 26  1  0
 12 27  1  0
 12 28  1  0
M  END
>  <UniqueID>  (25) 
25

>  <SMILES>  (25) 
Cc1ccnc(SCCN(C)C)n1

>  <Energy>  (25) 
20.186102543324424

>  <Genealogy>  (25) 
Cc1ccnc(SCCN(C)C)n1 (3D coordinates assigned)
Cc1ccnc(SCCN(C)C)n1 (optimized conformer: 20.186102543324424 kcal/mol)

>  <smiles>  (25) 
Cc1ccnc(SCCN(C)C)n1

>  <score_type>  (25) 
oracle

>  <origin>  (25) 
adgpu

>  <m_score__min__energy>  (25) 
-5.7000000000000002

>  <m_primary>  (25) 
energy

$$$$
25:0
     RDKit          3D

 63 66  0  0  0  0  0  0  0  0999 V2000
   -9.4670   18.9240  -32.3420 C   0  0  0  0  0  0  0  0  0  0  0  0
   -8.7650   20.2490  -32.2320 C   0  0  0  0  0  0  0  0  0  0  0  0
   -9.4680   21.3700  -31.7610 C   0  0  0  0  0  0  0  0  0  0  0  0
   -8.8310   22.6090  -31.6490 C   0  0  0  0  0  0  0  0  0  0  0  0
   -7.4890   22.7420  -32.0100 C   0  0  0  0  0  0  0  0  0  0  0  0
   -6.7830   21.6380  -32.4920 C   0  0  0  0  0  0  0  0  0  0  0  0
   -7.4130   20.3920  -32.6140 C   0  0  0  0  0  0  0  0  0  0  0  0
   -6.6590   19.2720  -33.0990 N   0  0  0  0  0  0  0  0  0  0  0  0
   -6.1160   19.3060  -34.4580 C   0  0  0  0  0  0  0  0  0  0  0  0
   -5.5730   17.9260  -34.8720 C   0  0  0  0  0  0  0  0  0  0  0  0
   -4.6720   17.3040  -33.8570 N   0  0  0  0  0  0  0  0  0  0  0  0
   -3.2240   17.4900  -34.1560 C   0  0  0  0  0  0  0  0  0  0  0  0
   -2.5850   18.6700  -33.4470 C   0  0  0  0  0  0  0  0  0  0  0  0
   -2.8690   19.9860  -33.8530 C   0  0  0  0  0  0  0  0  0  0  0  0
   -2.3950   21.0720  -33.1120 C   0  0  0  0  0  0  0  0  0  0  0  0
   -1.6000   20.8600  -31.9750 C   0  0  0  0  0  0  0  0  0  0  0  0
   -1.2100   22.0080  -31.0850 C   0  0  0  0  0  0  0  0  0  0  0  0
   -2.2090   22.1750  -30.0090 N   0  0  0  0  0  0  0  0  0  0  0  0
   -2.2050   23.5680  -29.5110 C   0  0  0  0  0  0  0  0  0  0  0  0
   -3.4470   23.8480  -28.6540 C   0  0  0  0  0  0  0  0  0  0  0  0
   -4.7150   23.6470  -29.4000 N   0  0  0  0  0  0  0  0  0  0  0  0
   -5.3620   24.9280  -29.7200 C   0  0  0  0  0  0  0  0  0  0  0  0
   -4.5610   22.8300  -30.6240 C   0  0  0  0  0  0  0  0  0  0  0  0
   -3.5580   21.6890  -30.4050 C   0  0  0  0  0  0  0  0  0  0  0  0
   -1.2250   19.5530  -31.6340 C   0  0  0  0  0  0  0  0  0  0  0  0
   -1.7020   18.4670  -32.3730 C   0  0  0  0  0  0  0  0  0  0  0  0
   -5.0110   17.6130  -32.4380 C   0  0  0  0  0  0  0  0  0  0  0  0
   -6.4550   18.0920  -32.2630 C   0  0  0  0  0  0  0  0  0  0  0  0
   -9.6737   18.5338  -31.3345 H   0  0  0  0  0  0  0  0  0  0  0  0
  -10.4141   19.0549  -32.8860 H   0  0  0  0  0  0  0  0  0  0  0  0
   -8.8268   18.2139  -32.8860 H   0  0  0  0  0  0  0  0  0  0  0  0
  -10.5266   21.2722  -31.4785 H   0  0  0  0  0  0  0  0  0  0  0  0
   -9.3881   23.4810  -31.2757 H   0  0  0  0  0  0  0  0  0  0  0  0
   -6.9878   23.7165  -31.9147 H   0  0  0  0  0  0  0  0  0  0  0  0
   -5.7263   21.7468  -32.7776 H   0  0  0  0  0  0  0  0  0  0  0  0
   -6.9127   19.6029  -35.1560 H   0  0  0  0  0  0  0  0  0  0  0  0
   -5.2884   20.0301  -34.4858 H   0  0  0  0  0  0  0  0  0  0  0  0
   -6.4269   17.2525  -35.0369 H   0  0  0  0  0  0  0  0  0  0  0  0
   -4.9742   18.0771  -35.7823 H   0  0  0  0  0  0  0  0  0  0  0  0
   -4.8270   16.2710  -33.9580 H   0  0  0  0  0  0  0  0  0  0  0  0
   -2.6901   16.5768  -33.8542 H   0  0  0  0  0  0  0  0  0  0  0  0
   -3.1492   17.6932  -35.2345 H   0  0  0  0  0  0  0  0  0  0  0  0
   -3.4676   20.1617  -34.7590 H   0  0  0  0  0  0  0  0  0  0  0  0
   -2.6461   22.0973  -33.4212 H   0  0  0  0  0  0  0  0  0  0  0  0
   -0.2250   21.8052  -30.6393 H   0  0  0  0  0  0  0  0  0  0  0  0
   -1.1659   22.9300  -31.6832 H   0  0  0  0  0  0  0  0  0  0  0  0
   -1.3034   23.7299  -28.9019 H   0  0  0  0  0  0  0  0  0  0  0  0
   -2.2135   24.2494  -30.3745 H   0  0  0  0  0  0  0  0  0  0  0  0
   -3.4370   23.1701  -27.7878 H   0  0  0  0  0  0  0  0  0  0  0  0
   -3.4067   24.9030  -28.3453 H   0  0  0  0  0  0  0  0  0  0  0  0
   -5.6251   25.4489  -28.7876 H   0  0  0  0  0  0  0  0  0  0  0  0
   -4.6708   25.5516  -30.3059 H   0  0  0  0  0  0  0  0  0  0  0  0
   -6.2742   24.7418  -30.3059 H   0  0  0  0  0  0  0  0  0  0  0  0
   -5.5375   22.4026  -30.8957 H   0  0  0  0  0  0  0  0  0  0  0  0
   -4.1838   23.4765  -31.4301 H   0  0  0  0  0  0  0  0  0  0  0  0
   -3.9417   21.0314  -29.6110 H   0  0  0  0  0  0  0  0  0  0  0  0
   -3.4502   21.1551  -31.3607 H   0  0  0  0  0  0  0  0  0  0  0  0
   -0.5522   19.3814  -30.7808 H   0  0  0  0  0  0  0  0  0  0  0  0
   -1.3842   17.4467  -32.1122 H   0  0  0  0  0  0  0  0  0  0  0  0
   -4.8672   16.7034  -31.8363 H   0  0  0  0  0  0  0  0  0  0  0  0
   -4.3497   18.4285  -32.1098 H   0  0  0  0  0  0  0  0  0  0  0  0
   -7.1493   17.2959  -32.5699 H   0  0  0  0  0  0  0  0  0  0  0  0
   -6.6429   18.3416  -31.2083 H   0  0  0  0  0  0  0  0  0  0  0  0
  1  2  1  0
  2  3  2  0
  3  4  1  0
  4  5  2  0
  5  6  1  0
  6  7  2  0
  7  8  1  0
  8  9  1  0
  9 10  1  0
 10 11  1  0
 11 12  1  0
 12 13  1  0
 13 14  2  0
 14 15  1  0
 15 16  2  0
 16 17  1  0
 17 18  1  0
 18 19  1  0
 19 20  1  0
 20 21  1  0
 21 22  1  0
 21 23  1  0
 23 24  1  0
 16 25  1  0
 25 26  2  0
 11 27  1  0
 27 28  1  0
  7  2  1  0
 28  8  1  0
 26 13  1  0
 24 18  1  0
  1 29  1  0
  1 30  1  0
  1 31  1  0
  3 32  1  0
  4 33  1  0
  5 34  1  0
  6 35  1  0
  9 36  1  0
  9 37  1  0
 10 38  1  0
 10 39  1  0
 11 40  1  0
 12 41  1  0
 12 42  1  0
 14 43  1  0
 15 44  1  0
 17 45  1  0
 17 46  1  0
 19 47  1  0
 19 48  1  0
 20 49  1  0
 20 50  1  0
 22 51  1  0
 22 52  1  0
 22 53  1  0
 23 54  1  0
 23 55  1  0
 24 56  1  0
 24 57  1  0
 25 58  1  0
 26 59  1  0
 27 60  1  0
 27 61  1  0
 28 62  1  0
 28 63  1  0
M  CHG  1  11   1
M  END
>  <UniqueID>  (26) 
26

>  <SMILES>  (26) 
Cc1ccccc1N1CC[NH+](Cc2ccc(CN3CCN(C)CC3)cc2)CC1

>  <Energy>  (26) 
89.56378762628587

>  <Genealogy>  (26) 
Cc1ccccc1N1CC[NH+](Cc2ccc(CN3CCN(C)CC3)cc2)CC1 (protonated)
Cc1ccccc1N1CC[NH+](Cc2ccc(CN3CCN(C)CC3)cc2)CC1 (3D coordinates assigned)
Cc1ccccc1N1CC[NH+](Cc2ccc(CN3CCN(C)CC3)cc2)CC1 (nonaromatic ring conformer: 89.56378762628587 kcal/mol)

>  <smiles>  (26) 
Cc1ccccc1N1CCN(Cc2ccc(CN3CCN(C)CC3)cc2)CC1

>  <score_type>  (26) 
oracle

>  <origin>  (26) 
adgpu

>  <m_score__min__energy>  (26) 
-8.2899999999999991

>  <m_primary>  (26) 
energy

$$$$
26:0
     RDKit          3D

 41 43  0  0  0  0  0  0  0  0999 V2000
   -3.5260   21.8200  -29.9080 C   0  0  0  0  0  0  0  0  0  0  0  0
   -2.6120   22.8720  -29.3360 C   0  0  0  0  0  0  0  0  0  0  0  0
   -1.2220   22.7180  -29.4910 C   0  0  0  0  0  0  0  0  0  0  0  0
   -0.3390   23.6560  -28.9550 C   0  0  0  0  0  0  0  0  0  0  0  0
   -0.8270   24.7550  -28.2510 C   0  0  0  0  0  0  0  0  0  0  0  0
   -2.2020   24.9200  -28.0800 C   0  0  0  0  0  0  0  0  0  0  0  0
   -3.1100   23.9860  -28.6110 C   0  0  0  0  0  0  0  0  0  0  0  0
   -4.5880   24.2440  -28.4300 C   0  0  0  0  0  0  0  0  0  0  0  0
   -5.2980   24.9360  -29.9180 S   0  0  0  0  0  0  0  0  0  0  0  0
   -6.3880   25.9000  -29.5440 O   0  0  0  0  0  0  0  0  0  0  0  0
   -4.2440   25.6760  -30.6900 O   0  0  0  0  0  0  0  0  0  0  0  0
   -5.9660   23.6710  -30.9310 C   0  0  0  0  0  0  0  0  0  0  0  0
   -5.4680   23.3470  -32.1430 N   0  0  0  0  0  0  0  0  0  0  0  0
   -6.1020   22.3240  -32.7140 N   0  0  0  0  0  0  0  0  0  0  0  0
   -7.1010   21.8230  -31.9530 C   0  0  0  0  0  0  0  0  0  0  0  0
   -7.9370   20.7260  -32.3680 N   0  0  0  0  0  0  0  0  0  0  0  0
   -9.3810   20.7940  -32.1330 C   0  0  0  0  0  0  0  0  0  0  0  0
   -7.3590   19.5180  -32.8950 C   0  0  0  0  0  0  0  0  0  0  0  0
   -6.4100   19.5800  -33.9310 C   0  0  0  0  0  0  0  0  0  0  0  0
   -5.8540   18.4070  -34.4500 C   0  0  0  0  0  0  0  0  0  0  0  0
   -6.2450   17.1630  -33.9440 C   0  0  0  0  0  0  0  0  0  0  0  0
   -7.1930   17.0930  -32.9190 C   0  0  0  0  0  0  0  0  0  0  0  0
   -7.7520   18.2640  -32.3980 C   0  0  0  0  0  0  0  0  0  0  0  0
   -7.2520   22.6740  -30.5010 S   0  0  0  0  0  0  0  0  0  0  0  0
   -4.0067   21.2667  -29.0878 H   0  0  0  0  0  0  0  0  0  0  0  0
   -4.2973   22.3016  -30.5269 H   0  0  0  0  0  0  0  0  0  0  0  0
   -2.9413   21.1235  -30.5269 H   0  0  0  0  0  0  0  0  0  0  0  0
   -0.8278   21.8500  -30.0399 H   0  0  0  0  0  0  0  0  0  0  0  0
    0.7453   23.5276  -29.0886 H   0  0  0  0  0  0  0  0  0  0  0  0
   -0.1281   25.4927  -27.8299 H   0  0  0  0  0  0  0  0  0  0  0  0
   -2.5802   25.7903  -27.5237 H   0  0  0  0  0  0  0  0  0  0  0  0
   -5.0938   23.2955  -28.1963 H   0  0  0  0  0  0  0  0  0  0  0  0
   -4.7227   24.9622  -27.6078 H   0  0  0  0  0  0  0  0  0  0  0  0
   -9.5763   20.8032  -31.0505 H   0  0  0  0  0  0  0  0  0  0  0  0
   -9.7834   21.7121  -32.5860 H   0  0  0  0  0  0  0  0  0  0  0  0
   -9.8679   19.9178  -32.5860 H   0  0  0  0  0  0  0  0  0  0  0  0
   -6.1037   20.5562  -34.3349 H   0  0  0  0  0  0  0  0  0  0  0  0
   -5.1085   18.4624  -35.2569 H   0  0  0  0  0  0  0  0  0  0  0  0
   -5.8068   16.2404  -34.3523 H   0  0  0  0  0  0  0  0  0  0  0  0
   -7.4999   16.1144  -32.5214 H   0  0  0  0  0  0  0  0  0  0  0  0
   -8.5023   18.2032  -31.5959 H   0  0  0  0  0  0  0  0  0  0  0  0
  1  2  1  0
  2  3  2  0
  3  4  1  0
  4  5  2  0
  5  6  1  0
  6  7  2  0
  7  8  1  0
  8  9  1  0
  9 10  2  0
  9 11  2  0
  9 12  1  0
 12 13  2  0
 13 14  1  0
 14 15  2  0
 15 16  1  0
 16 17  1  0
 16 18  1  0
 18 19  2  0
 19 20  1  0
 20 21  2  0
 21 22  1  0
 22 23  2  0
 15 24  1  0
  7  2  1  0
 24 12  1  0
 23 18  1  0
  1 25  1  0
  1 26  1  0
  1 27  1  0
  3 28  1  0
  4 29  1  0
  5 30  1  0
  6 31  1  0
  8 32  1  0
  8 33  1  0
 17 34  1  0
 17 35  1  0
 17 36  1  0
 19 37  1  0
 20 38  1  0
 21 39  1  0
 22 40  1  0
 23 41  1  0
M  END
>  <UniqueID>  (27) 
27

>  <SMILES>  (27) 
Cc1ccccc1CS(=O)(=O)c1nnc(N(C)c2ccccc2)s1

>  <Energy>  (27) 
79.2722638537816

>  <Genealogy>  (27) 
Cc1ccccc1CS(=O)(=O)c1nnc(N(C)c2ccccc2)s1 (3D coordinates assigned)
Cc1ccccc1CS(=O)(=O)c1nnc(N(C)c2ccccc2)s1 (optimized conformer: 79.2722638537816 kcal/mol)

>  <smiles>  (27) 
Cc1ccccc1CS(=O)(=O)c1nnc(N(C)c2ccccc2)s1

>  <score_type>  (27) 
oracle

>  <origin>  (27) 
adgpu

>  <m_score__min__energy>  (27) 
-9.7699999999999996

>  <m_primary>  (27) 
energy

$$$$
27:0
     RDKit          3D

 51 53  0  0  0  0  0  0  0  0999 V2000
   -5.7890   18.2240  -34.2350 C   0  0  0  0  0  0  0  0  0  0  0  0
   -4.8090   19.3130  -33.7910 C   0  0  0  0  0  0  0  0  0  0  0  0
   -3.3640   18.8310  -33.9350 C   0  0  0  0  0  0  0  0  0  0  0  0
   -5.1350   19.8030  -32.0950 S   0  0  0  0  0  0  0  0  0  0  0  0
   -5.7160   18.6410  -31.3400 O   0  0  0  0  0  0  0  0  0  0  0  0
   -3.8430   20.1690  -31.4200 O   0  0  0  0  0  0  0  0  0  0  0  0
   -6.2370   21.2050  -32.0640 C   0  0  0  0  0  0  0  0  0  0  0  0
   -7.6450   21.0300  -32.0620 C   0  0  0  0  0  0  0  0  0  0  0  0
   -8.4230   19.4600  -32.2310 Cl  0  0  0  0  0  0  0  0  0  0  0  0
   -8.4890   22.1390  -31.9580 C   0  0  0  0  0  0  0  0  0  0  0  0
   -7.9630   23.4200  -31.8270 C   0  0  0  0  0  0  0  0  0  0  0  0
   -6.5830   23.6180  -31.8160 C   0  0  0  0  0  0  0  0  0  0  0  0
   -6.0850   24.9450  -31.5890 N   0  0  0  0  0  0  0  0  0  0  0  0
   -5.2940   25.3580  -30.4630 C   0  0  0  0  0  0  0  0  0  0  0  0
   -5.8750   25.8080  -29.4430 O   0  0  0  0  0  0  0  0  0  0  0  0
   -3.8600   25.2860  -30.4720 N   0  0  0  0  0  0  0  0  0  0  0  0
   -3.0670   24.4740  -29.5950 C   0  0  0  0  0  0  0  0  0  0  0  0
   -2.0070   25.0220  -28.8580 C   0  0  0  0  0  0  0  0  0  0  0  0
   -1.3100   24.2360  -27.9400 C   0  0  0  0  0  0  0  0  0  0  0  0
   -1.6560   22.8890  -27.7510 C   0  0  0  0  0  0  0  0  0  0  0  0
   -2.6750   22.3160  -28.5410 C   0  0  0  0  0  0  0  0  0  0  0  0
   -3.3750   23.1170  -29.4550 C   0  0  0  0  0  0  0  0  0  0  0  0
   -3.1080   20.8830  -28.3280 C   0  0  0  0  0  0  0  0  0  0  0  0
   -2.0780   20.0590  -27.6660 N   0  0  0  0  0  0  0  0  0  0  0  0
   -1.0110   19.6540  -28.5980 C   0  0  0  0  0  0  0  0  0  0  0  0
   -1.5550   20.7240  -26.4560 C   0  0  0  0  0  0  0  0  0  0  0  0
   -0.8700   22.0610  -26.7700 C   0  0  0  0  0  0  0  0  0  0  0  0
   -5.7150   22.5250  -32.0150 C   0  0  0  0  0  0  0  0  0  0  0  0
   -4.3540   22.7920  -32.1850 O   0  0  0  0  0  0  0  0  0  0  0  0
   -6.2249   17.7396  -33.3488 H   0  0  0  0  0  0  0  0  0  0  0  0
   -6.5907   18.6758  -34.8376 H   0  0  0  0  0  0  0  0  0  0  0  0
   -5.2555   17.4742  -34.8376 H   0  0  0  0  0  0  0  0  0  0  0  0
   -4.9514   20.1881  -34.4421 H   0  0  0  0  0  0  0  0  0  0  0  0
   -2.9251   18.6846  -32.9370 H   0  0  0  0  0  0  0  0  0  0  0  0
   -3.3482   17.8789  -34.4858 H   0  0  0  0  0  0  0  0  0  0  0  0
   -2.7798   19.5829  -34.4858 H   0  0  0  0  0  0  0  0  0  0  0  0
   -9.5796   21.9975  -31.9799 H   0  0  0  0  0  0  0  0  0  0  0  0
   -8.6398   24.2819  -31.7315 H   0  0  0  0  0  0  0  0  0  0  0  0
   -1.7243   26.0749  -29.0043 H   0  0  0  0  0  0  0  0  0  0  0  0
   -0.4842   24.6747  -27.3607 H   0  0  0  0  0  0  0  0  0  0  0  0
   -4.1739   22.6737  -30.0676 H   0  0  0  0  0  0  0  0  0  0  0  0
   -4.0134   20.8801  -27.7033 H   0  0  0  0  0  0  0  0  0  0  0  0
   -3.2907   20.4447  -29.3203 H   0  0  0  0  0  0  0  0  0  0  0  0
   -0.1322   19.3204  -28.0266 H   0  0  0  0  0  0  0  0  0  0  0  0
   -1.3708   18.8299  -29.2316 H   0  0  0  0  0  0  0  0  0  0  0  0
   -0.7334   20.5093  -29.2316 H   0  0  0  0  0  0  0  0  0  0  0  0
   -2.3913   20.9096  -25.7660 H   0  0  0  0  0  0  0  0  0  0  0  0
   -0.8015   20.0593  -26.0084 H   0  0  0  0  0  0  0  0  0  0  0  0
   -0.7598   22.6301  -25.8352 H   0  0  0  0  0  0  0  0  0  0  0  0
    0.1075   21.8400  -27.2234 H   0  0  0  0  0  0  0  0  0  0  0  0
   -3.9160   23.6690  -31.9460 H   0  0  0  0  0  0  0  0  0  0  0  0
  1  2  1  0
  2  3  1  0
  2  4  1  0
  4  5  2  0
  4  6  2  0
  4  7  1  0
  7  8  2  0
  8  9  1  0
  8 10  1  0
 10 11  2  0
 11 12  1  0
 12 13  1  0
 13 14  1  0
 14 15  2  0
 14 16  1  0
 16 17  1  0
 17 18  2  0
 18 19  1  0
 19 20  2  0
 20 21  1  0
 21 22  2  0
 21 23  1  0
 23 24  1  0
 24 25  1  0
 24 26  1  0
 26 27  1  0
 12 28  2  0
 28 29  1  0
 28  7  1  0
 22 17  1  0
 27 20  1  0
  1 30  1  0
  1 31  1  0
  1 32  1  0
  2 33  1  0
  3 34  1  0
  3 35  1  0
  3 36  1  0
 10 37  1  0
 11 38  1  0
 18 39  1  0
 19 40  1  0
 22 41  1  0
 23 42  1  0
 23 43  1  0
 25 44  1  0
 25 45  1  0
 25 46  1  0
 26 47  1  0
 26 48  1  0
 27 49  1  0
 27 50  1  0
 29 51  1  0
M  CHG  2  13  -1  16  -1
M  END
>  <UniqueID>  (28) 
28

>  <SMILES>  (28) 
CC(C)S(=O)(=O)c1c(Cl)ccc([N-]C(=O)[N-]c2ccc3c(c2)CN(C)CC3)c1O

>  <Energy>  (28) 
62.7190338136596

>  <Genealogy>  (28) 
CC(C)S(=O)(=O)c1c(Cl)ccc([N-]C(=O)[N-]c2ccc3c(c2)CN(C)CC3)c1O (protonated)
CC(C)S(=O)(=O)c1c(Cl)ccc([N-]C(=O)[N-]c2ccc3c(c2)CN(C)CC3)c1O (3D coordinates assigned)
CC(C)S(=O)(=O)c1c(Cl)ccc([N-]C(=O)[N-]c2ccc3c(c2)CN(C)CC3)c1O (nonaromatic ring conformer: 62.7190338136596 kcal/mol)

>  <smiles>  (28) 
CC(C)S(=O)(=O)c1c(Cl)ccc(NC(=O)Nc2ccc3c(c2)CN(C)CC3)c1O

>  <score_type>  (28) 
oracle

>  <origin>  (28) 
adgpu

>  <m_score__min__energy>  (28) 
-14.33

>  <m_primary>  (28) 
energy

$$$$
28:0
     RDKit          3D

 38 41  0  0  0  0  0  0  0  0999 V2000
    1.1190   19.6520  -27.4960 O   0  0  0  0  0  0  0  0  0  0  0  0
    0.2180   20.3410  -28.0460 C   0  0  0  0  0  0  0  0  0  0  0  0
   -0.9050   19.7150  -28.5980 C   0  0  0  0  0  0  0  0  0  0  0  0
   -1.8930   20.4920  -29.2080 C   0  0  0  0  0  0  0  0  0  0  0  0
   -1.7510   21.8850  -29.2620 C   0  0  0  0  0  0  0  0  0  0  0  0
   -2.7250   22.6930  -29.8660 C   0  0  0  0  0  0  0  0  0  0  0  0
   -2.5620   24.0900  -29.9070 C   0  0  0  0  0  0  0  0  0  0  0  0
   -3.5350   24.9500  -30.5180 N   0  0  0  0  0  0  0  0  0  0  0  0
   -5.2130   25.0260  -30.0880 S   0  0  0  0  0  0  0  0  0  0  0  0
   -5.3530   24.8510  -28.6000 O   0  0  0  0  0  0  0  0  0  0  0  0
   -5.7610   26.3700  -30.4720 O   0  0  0  0  0  0  0  0  0  0  0  0
   -6.1010   23.7790  -30.9600 C   0  0  0  0  0  0  0  0  0  0  0  0
   -7.5010   23.8040  -31.0140 C   0  0  0  0  0  0  0  0  0  0  0  0
   -8.1920   22.7910  -31.6820 C   0  0  0  0  0  0  0  0  0  0  0  0
   -7.4920   21.7520  -32.3010 C   0  0  0  0  0  0  0  0  0  0  0  0
   -6.0860   21.7180  -32.2620 C   0  0  0  0  0  0  0  0  0  0  0  0
   -5.3400   20.6170  -32.9210 C   0  0  0  0  0  0  0  0  0  0  0  0
   -3.9360   20.5120  -32.9100 C   0  0  0  0  0  0  0  0  0  0  0  0
   -3.4510   19.4070  -33.5930 C   0  0  0  0  0  0  0  0  0  0  0  0
   -4.7620   18.5560  -34.2070 S   0  0  0  0  0  0  0  0  0  0  0  0
   -5.9570   19.5790  -33.6190 C   0  0  0  0  0  0  0  0  0  0  0  0
   -5.3990   22.7410  -31.5840 C   0  0  0  0  0  0  0  0  0  0  0  0
   -1.4220   24.6680  -29.3250 C   0  0  0  0  0  0  0  0  0  0  0  0
   -1.2530   26.0470  -29.3450 O   0  0  0  0  0  0  0  0  0  0  0  0
   -0.4480   23.8640  -28.7220 C   0  0  0  0  0  0  0  0  0  0  0  0
   -0.6040   22.4760  -28.6900 C   0  0  0  0  0  0  0  0  0  0  0  0
    0.3420   21.6930  -28.1020 N   0  0  0  0  0  0  0  0  0  0  0  0
   -1.0091   18.6209  -28.5521 H   0  0  0  0  0  0  0  0  0  0  0  0
   -2.7806   20.0112  -29.6450 H   0  0  0  0  0  0  0  0  0  0  0  0
   -3.6202   22.2328  -30.3096 H   0  0  0  0  0  0  0  0  0  0  0  0
   -8.0556   24.6215  -30.5302 H   0  0  0  0  0  0  0  0  0  0  0  0
   -9.2911   22.8110  -31.7211 H   0  0  0  0  0  0  0  0  0  0  0  0
   -8.0437   20.9557  -32.8220 H   0  0  0  0  0  0  0  0  0  0  0  0
   -3.2835   21.2400  -32.4057 H   0  0  0  0  0  0  0  0  0  0  0  0
   -2.3918   19.1352  -33.7119 H   0  0  0  0  0  0  0  0  0  0  0  0
   -7.0405   19.4522  -33.7601 H   0  0  0  0  0  0  0  0  0  0  0  0
   -4.2999   22.7253  -31.5437 H   0  0  0  0  0  0  0  0  0  0  0  0
    0.4429   24.3262  -28.2719 H   0  0  0  0  0  0  0  0  0  0  0  0
  1  2  2  0
  2  3  1  0
  3  4  2  0
  4  5  1  0
  5  6  2  0
  6  7  1  0
  7  8  1  0
  8  9  1  0
  9 10  2  0
  9 11  2  0
  9 12  1  0
 12 13  2  0
 13 14  1  0
 14 15  2  0
 15 16  1  0
 16 17  1  0
 17 18  1  0
 18 19  2  0
 19 20  1  0
 20 21  1  0
 16 22  2  0
  7 23  2  0
 23 24  1  0
 23 25  1  0
 25 26  2  0
 26 27  1  0
 27  2  1  0
 26  5  1  0
 22 12  1  0
 21 17  2  0
  3 28  1  0
  4 29  1  0
  6 30  1  0
 13 31  1  0
 14 32  1  0
 15 33  1  0
 18 34  1  0
 19 35  1  0
 21 36  1  0
 22 37  1  0
 25 38  1  0
M  CHG  3   8  -1  24  -1  27  -1
M  END
>  <UniqueID>  (29) 
29

>  <SMILES>  (29) 
O=c1ccc2cc([N-]S(=O)(=O)c3cccc(-c4ccsc4)c3)c([O-])cc2[n-]1

>  <Energy>  (29) 
78.6770916838763

>  <Genealogy>  (29) 
O=c1ccc2cc([N-]S(=O)(=O)c3cccc(-c4ccsc4)c3)c([O-])cc2[n-]1 (protonated)
O=c1ccc2cc([N-]S(=O)(=O)c3cccc(-c4ccsc4)c3)c([O-])cc2[n-]1 (3D coordinates assigned)
O=c1ccc2cc([N-]S(=O)(=O)c3cccc(-c4ccsc4)c3)c([O-])cc2[n-]1 (optimized conformer: 78.6770916838763 kcal/mol)

>  <smiles>  (29) 
O=c1ccc2cc(NS(=O)(=O)c3cccc(-c4ccsc4)c3)c(O)cc2[nH]1

>  <score_type>  (29) 
oracle

>  <origin>  (29) 
adgpu

>  <m_score__min__energy>  (29) 
-13.92

>  <m_primary>  (29) 
energy

$$$$
29:0
     RDKit          3D

 82 87  0  0  0  0  0  0  0  0999 V2000
   -2.8720   21.8630  -30.3240 C   0  0  0  0  0  0  0  0  0  0  0  0
   -1.7010   21.2490  -31.0370 C   0  0  0  0  0  0  0  0  0  0  0  0
   -0.7770   20.4680  -30.3330 C   0  0  0  0  0  0  0  0  0  0  0  0
    0.3280   19.9210  -30.9890 C   0  0  0  0  0  0  0  0  0  0  0  0
    0.5390   20.1630  -32.3550 C   0  0  0  0  0  0  0  0  0  0  0  0
    1.7220   19.5670  -33.0040 C   0  0  0  0  0  0  0  0  0  0  0  0
    2.3780   20.2590  -33.8260 O   0  0  0  0  0  0  0  0  0  0  0  0
    2.1700   18.1660  -32.6650 C   0  0  0  0  0  0  0  0  0  0  0  0
    1.2430   17.1200  -33.1460 N   0  0  0  0  0  0  0  0  0  0  0  0
    0.3170   16.6160  -32.1090 C   0  0  0  0  0  0  0  0  0  0  0  0
   -0.8490   15.8570  -32.7350 C   0  0  0  0  0  0  0  0  0  0  0  0
   -1.5920   16.7870  -33.5900 N   0  0  0  0  0  0  0  0  0  0  0  0
   -2.9710   17.1070  -33.3080 C   0  0  0  0  0  0  0  0  0  0  0  0
   -3.4180   18.4370  -33.3840 C   0  0  0  0  0  0  0  0  0  0  0  0
   -4.7770   18.7700  -33.1830 C   0  0  0  0  0  0  0  0  0  0  0  0
   -5.6990   17.7220  -32.9340 C   0  0  0  0  0  0  0  0  0  0  0  0
   -5.2430   16.3940  -32.8520 C   0  0  0  0  0  0  0  0  0  0  0  0
   -3.8920   16.0920  -33.0200 C   0  0  0  0  0  0  0  0  0  0  0  0
   -3.4840   14.8070  -32.8870 F   0  0  0  0  0  0  0  0  0  0  0  0
   -7.0630   18.0240  -32.7710 C   0  0  0  0  0  0  0  0  0  0  0  0
   -7.9080   17.0950  -32.6390 O   0  0  0  0  0  0  0  0  0  0  0  0
   -7.4850   19.3610  -32.7730 C   0  0  0  0  0  0  0  0  0  0  0  0
   -8.9000   19.7430  -32.5320 C   0  0  0  0  0  0  0  0  0  0  0  0
   -9.8100   18.9140  -32.8030 O   0  0  0  0  0  0  0  0  0  0  0  0
   -9.2730   21.0140  -31.9770 N   0  0  0  0  0  0  0  0  0  0  0  0
   -8.3840   22.0360  -31.5040 C   0  0  0  0  0  0  0  0  0  0  0  0
   -7.9090   23.0530  -32.3500 C   0  0  0  0  0  0  0  0  0  0  0  0
   -6.9880   23.9900  -31.8740 C   0  0  0  0  0  0  0  0  0  0  0  0
   -6.5500   23.9370  -30.5450 C   0  0  0  0  0  0  0  0  0  0  0  0
   -5.3090   25.0600  -29.9950 S   0  0  0  0  0  0  0  0  0  0  0  0
   -4.2540   25.1820  -31.0580 O   0  0  0  0  0  0  0  0  0  0  0  0
   -5.8940   26.4200  -29.7360 O   0  0  0  0  0  0  0  0  0  0  0  0
   -4.5840   24.4630  -28.5340 N   0  0  0  0  0  0  0  0  0  0  0  0
   -3.3080   24.4980  -28.2930 C   0  0  0  0  0  0  0  0  0  0  0  0
   -2.8200   23.9940  -27.0820 C   0  0  0  0  0  0  0  0  0  0  0  0
   -1.4460   24.0270  -26.8280 C   0  0  0  0  0  0  0  0  0  0  0  0
   -0.5760   24.5640  -27.7760 C   0  0  0  0  0  0  0  0  0  0  0  0
   -1.0960   25.0610  -28.9720 C   0  0  0  0  0  0  0  0  0  0  0  0
   -2.4360   25.0180  -29.2030 N   0  0  0  0  0  0  0  0  0  0  0  0
   -7.0620   22.9540  -29.6870 C   0  0  0  0  0  0  0  0  0  0  0  0
   -7.9820   22.0150  -30.1650 C   0  0  0  0  0  0  0  0  0  0  0  0
   -6.5410   20.3660  -33.0210 C   0  0  0  0  0  0  0  0  0  0  0  0
   -5.2210   20.0760  -33.2300 N   0  0  0  0  0  0  0  0  0  0  0  0
   -4.2950   21.1940  -33.4770 C   0  0  0  0  0  0  0  0  0  0  0  0
   -0.8410   17.6570  -34.5060 C   0  0  0  0  0  0  0  0  0  0  0  0
    0.6750   17.3560  -34.4990 C   0  0  0  0  0  0  0  0  0  0  0  0
   -0.3920   20.9450  -33.0760 C   0  0  0  0  0  0  0  0  0  0  0  0
   -0.2320   21.1970  -34.5540 C   0  0  0  0  0  0  0  0  0  0  0  0
   -1.4950   21.5000  -32.4010 C   0  0  0  0  0  0  0  0  0  0  0  0
   -2.7219   21.7843  -29.2371 H   0  0  0  0  0  0  0  0  0  0  0  0
   -2.9587   22.9226  -30.6064 H   0  0  0  0  0  0  0  0  0  0  0  0
   -3.7929   21.3317  -30.6064 H   0  0  0  0  0  0  0  0  0  0  0  0
   -0.9219   20.2842  -29.2582 H   0  0  0  0  0  0  0  0  0  0  0  0
    1.0391   19.2950  -30.4300 H   0  0  0  0  0  0  0  0  0  0  0  0
    3.1558   17.9951  -33.1221 H   0  0  0  0  0  0  0  0  0  0  0  0
    2.2015   18.0920  -31.5679 H   0  0  0  0  0  0  0  0  0  0  0  0
    0.8651   15.9406  -31.4357 H   0  0  0  0  0  0  0  0  0  0  0  0
   -0.0846   17.4754  -31.5521 H   0  0  0  0  0  0  0  0  0  0  0  0
   -0.4679   15.0197  -33.3381 H   0  0  0  0  0  0  0  0  0  0  0  0
   -1.5059   15.4535  -31.9503 H   0  0  0  0  0  0  0  0  0  0  0  0
   -2.6950   19.2361  -33.6046 H   0  0  0  0  0  0  0  0  0  0  0  0
   -5.9604   15.5842  -32.6530 H   0  0  0  0  0  0  0  0  0  0  0  0
   -8.2633   23.1115  -33.3897 H   0  0  0  0  0  0  0  0  0  0  0  0
   -6.6055   24.7724  -32.5460 H   0  0  0  0  0  0  0  0  0  0  0  0
   -3.5120   23.5754  -26.3364 H   0  0  0  0  0  0  0  0  0  0  0  0
   -1.0514   23.6297  -25.8812 H   0  0  0  0  0  0  0  0  0  0  0  0
    0.5066   24.5955  -27.5837 H   0  0  0  0  0  0  0  0  0  0  0  0
   -0.4215   25.4880  -29.7288 H   0  0  0  0  0  0  0  0  0  0  0  0
   -6.7397   22.9209  -28.6358 H   0  0  0  0  0  0  0  0  0  0  0  0
   -8.3918   21.2553  -29.4832 H   0  0  0  0  0  0  0  0  0  0  0  0
   -6.8700   21.4153  -33.0483 H   0  0  0  0  0  0  0  0  0  0  0  0
   -3.9535   21.6064  -32.5161 H   0  0  0  0  0  0  0  0  0  0  0  0
   -3.4282   20.8325  -34.0497 H   0  0  0  0  0  0  0  0  0  0  0  0
   -4.8116   21.9783  -34.0497 H   0  0  0  0  0  0  0  0  0  0  0  0
   -1.2251   17.5101  -35.5263 H   0  0  0  0  0  0  0  0  0  0  0  0
   -0.9771   18.6949  -34.1680 H   0  0  0  0  0  0  0  0  0  0  0  0
    0.8511   16.4575  -35.1086 H   0  0  0  0  0  0  0  0  0  0  0  0
    1.1764   18.2488  -34.9010 H   0  0  0  0  0  0  0  0  0  0  0  0
    0.3518   22.1165  -34.7081 H   0  0  0  0  0  0  0  0  0  0  0  0
    0.2927   20.3478  -35.0161 H   0  0  0  0  0  0  0  0  0  0  0  0
   -1.2238   21.3106  -35.0161 H   0  0  0  0  0  0  0  0  0  0  0  0
   -2.2036   22.1379  -32.9496 H   0  0  0  0  0  0  0  0  0  0  0  0
  1  2  1  0
  2  3  2  0
  3  4  1  0
  4  5  2  0
  5  6  1  0
  6  7  2  0
  6  8  1  0
  8  9  1  0
  9 10  1  0
 10 11  1  0
 11 12  1  0
 12 13  1  0
 13 14  2  0
 14 15  1  0
 15 16  2  0
 16 17  1  0
 17 18  2  0
 18 19  1  0
 16 20  1  0
 20 21  2  0
 20 22  1  0
 22 23  1  0
 23 24  2  0
 23 25  1  0
 25 26  1  0
 26 27  2  0
 27 28  1  0
 28 29  2  0
 29 30  1  0
 30 31  2  0
 30 32  2  0
 30 33  1  0
 33 34  2  3
 34 35  1  0
 35 36  2  0
 36 37  1  0
 37 38  2  0
 38 39  1  0
 29 40  1  0
 40 41  2  0
 22 42  2  0
 42 43  1  0
 43 44  1  0
 12 45  1  0
 45 46  1  0
  5 47  1  0
 47 48  1  0
 47 49  2  0
 49  2  1  0
 46  9  1  0
 18 13  1  0
 41 26  1  0
 43 15  1  0
 39 34  1  0
  1 50  1  0
  1 51  1  0
  1 52  1  0
  3 53  1  0
  4 54  1  0
  8 55  1  0
  8 56  1  0
 10 57  1  0
 10 58  1  0
 11 59  1  0
 11 60  1  0
 14 61  1  0
 17 62  1  0
 27 63  1  0
 28 64  1  0
 35 65  1  0
 36 66  1  0
 37 67  1  0
 38 68  1  0
 40 69  1  0
 41 70  1  0
 42 71  1  0
 44 72  1  0
 44 73  1  0
 44 74  1  0
 45 75  1  0
 45 76  1  0
 46 77  1  0
 46 78  1  0
 48 79  1  0
 48 80  1  0
 48 81  1  0
 49 82  1  0
M  CHG  2  25  -1  39  -1
M  END
>  <UniqueID>  (30) 
30

>  <SMILES>  (30) 
Cc1ccc(C(=O)CN2CCN(c3cc4c(cc3F)c(=O)c(C(=O)[N-]c3ccc(S(=O)(=O)N=c5cccc[n-]5)cc3)cn4C)CC2)c(C)c1

>  <Energy>  (30) 
130.0626830657732

>  <Genealogy>  (30) 
Cc1ccc(C(=O)CN2CCN(c3cc4c(cc3F)c(=O)c(C(=O)[N-]c3ccc(S(=O)(=O)N=c5cccc[n-]5)cc3)cn4C)CC2)c(C)c1 (protonated)
Cc1ccc(C(=O)CN2CCN(c3cc4c(cc3F)c(=O)c(C(=O)[N-]c3ccc(S(=O)(=O)N=c5cccc[n-]5)cc3)cn4C)CC2)c(C)c1 (3D coordinates assigned)
Cc1ccc(C(=O)CN2CCN(c3cc4c(cc3F)c(=O)c(C(=O)[N-]c3ccc(S(=O)(=O)N=c5cccc[n-]5)cc3)cn4C)CC2)c(C)c1 (nonaromatic ring conformer: 130.0626830657732 kcal/mol)

>  <smiles>  (30) 
Cc1ccc(C(=O)CN2CCN(c3cc4c(cc3F)c(=O)c(C(=O)Nc3ccc(S(=O)(=O)N=c5cccc[nH]5)cc3)cn4C)CC2)c(C)c1

>  <score_type>  (30) 
oracle

>  <origin>  (30) 
adgpu

>  <m_score__min__energy>  (30) 
-13.24

>  <m_primary>  (30) 
energy

$$$$
30:0
     RDKit          3D

 69 72  0  0  0  0  0  0  0  0999 V2000
   -2.7130   14.1720  -34.4530 C   0  0  0  0  0  0  0  0  0  0  0  0
   -2.2190   15.5340  -34.0640 C   0  0  0  0  0  0  0  0  0  0  0  0
   -2.9400   16.6730  -34.4510 C   0  0  0  0  0  0  0  0  0  0  0  0
   -2.4920   17.9460  -34.0880 C   0  0  0  0  0  0  0  0  0  0  0  0
   -1.3230   18.1000  -33.3270 C   0  0  0  0  0  0  0  0  0  0  0  0
   -0.8490   19.4190  -32.9770 N   0  0  0  0  0  0  0  0  0  0  0  0
   -1.2670   20.0410  -31.7450 C   0  0  0  0  0  0  0  0  0  0  0  0
   -2.0460   21.0320  -31.7800 O   0  0  0  0  0  0  0  0  0  0  0  0
   -0.7880   19.5540  -30.4810 N   0  0  0  0  0  0  0  0  0  0  0  0
   -1.3460   20.0000  -29.2070 C   0  0  0  0  0  0  0  0  0  0  0  0
   -1.5270   21.4930  -29.2170 C   0  0  0  0  0  0  0  0  0  0  0  0
   -0.4320   22.3430  -29.0020 C   0  0  0  0  0  0  0  0  0  0  0  0
   -0.5990   23.7280  -29.0370 C   0  0  0  0  0  0  0  0  0  0  0  0
   -1.8610   24.2820  -29.2720 C   0  0  0  0  0  0  0  0  0  0  0  0
   -1.9980   25.6670  -29.2810 O   0  0  0  0  0  0  0  0  0  0  0  0
   -2.9710   23.4430  -29.4790 C   0  0  0  0  0  0  0  0  0  0  0  0
   -4.6020   24.1010  -29.6940 S   0  0  0  0  0  0  0  0  0  0  0  0
   -4.5940   25.0560  -30.8570 O   0  0  0  0  0  0  0  0  0  0  0  0
   -5.0070   24.8770  -28.4720 O   0  0  0  0  0  0  0  0  0  0  0  0
   -5.7870   22.8420  -29.9960 N   0  0  0  0  0  0  0  0  0  0  0  0
   -5.5170   22.1530  -31.2600 C   0  0  0  0  0  0  0  0  0  0  0  0
   -6.3870   22.7810  -32.3390 C   0  0  0  0  0  0  0  0  0  0  0  0
   -7.4830   23.5180  -31.5980 C   0  0  0  0  0  0  0  0  0  0  0  0
   -7.1400   23.4020  -30.1190 C   0  0  0  0  0  0  0  0  0  0  0  0
   -2.7890   22.0500  -29.4780 C   0  0  0  0  0  0  0  0  0  0  0  0
    0.0230   20.1370  -33.8750 C   0  0  0  0  0  0  0  0  0  0  0  0
    1.4180   20.0400  -33.7360 C   0  0  0  0  0  0  0  0  0  0  0  0
    2.2640   20.7540  -34.5860 C   0  0  0  0  0  0  0  0  0  0  0  0
    1.7340   21.5950  -35.5780 C   0  0  0  0  0  0  0  0  0  0  0  0
    2.6390   22.3620  -36.4630 C   0  0  0  0  0  0  0  0  0  0  0  0
    2.2970   23.5220  -36.8190 O   0  0  0  0  0  0  0  0  0  0  0  0
    3.9030   21.8280  -36.9060 N   0  0  0  0  0  0  0  0  0  0  0  0
    4.0610   20.4090  -37.2390 C   0  0  0  0  0  0  0  0  0  0  0  0
    5.0000   22.7480  -37.2160 C   0  0  0  0  0  0  0  0  0  0  0  0
    0.3410   21.6670  -35.7390 C   0  0  0  0  0  0  0  0  0  0  0  0
   -0.5060   20.9410  -34.8970 C   0  0  0  0  0  0  0  0  0  0  0  0
   -0.6180   16.9540  -32.9170 C   0  0  0  0  0  0  0  0  0  0  0  0
   -1.0640   15.6810  -33.2800 C   0  0  0  0  0  0  0  0  0  0  0  0
   -2.9254   13.5863  -33.5465 H   0  0  0  0  0  0  0  0  0  0  0  0
   -3.6322   14.2717  -35.0489 H   0  0  0  0  0  0  0  0  0  0  0  0
   -1.9436   13.6593  -35.0489 H   0  0  0  0  0  0  0  0  0  0  0  0
   -3.8612   16.5640  -35.0422 H   0  0  0  0  0  0  0  0  0  0  0  0
   -3.0602   18.8343  -34.4012 H   0  0  0  0  0  0  0  0  0  0  0  0
   -0.0060   18.8640  -30.4600 H   0  0  0  0  0  0  0  0  0  0  0  0
   -2.3210   19.5163  -29.0475 H   0  0  0  0  0  0  0  0  0  0  0  0
   -0.6554   19.7263  -28.3957 H   0  0  0  0  0  0  0  0  0  0  0  0
    0.5624   21.9160  -28.8050 H   0  0  0  0  0  0  0  0  0  0  0  0
    0.2670   24.3875  -28.8788 H   0  0  0  0  0  0  0  0  0  0  0  0
   -4.4554   22.2648  -31.5257 H   0  0  0  0  0  0  0  0  0  0  0  0
   -5.7445   21.0810  -31.1646 H   0  0  0  0  0  0  0  0  0  0  0  0
   -5.7973   23.4813  -32.9488 H   0  0  0  0  0  0  0  0  0  0  0  0
   -6.7960   22.0243  -33.0247 H   0  0  0  0  0  0  0  0  0  0  0  0
   -7.5071   24.5745  -31.9032 H   0  0  0  0  0  0  0  0  0  0  0  0
   -8.4737   23.0930  -31.8167 H   0  0  0  0  0  0  0  0  0  0  0  0
   -7.1735   24.3971  -29.6513 H   0  0  0  0  0  0  0  0  0  0  0  0
   -7.8658   22.7475  -29.6143 H   0  0  0  0  0  0  0  0  0  0  0  0
   -3.6439   21.3891  -29.6838 H   0  0  0  0  0  0  0  0  0  0  0  0
    1.8459   19.3974  -32.9524 H   0  0  0  0  0  0  0  0  0  0  0  0
    3.3544   20.6572  -34.4781 H   0  0  0  0  0  0  0  0  0  0  0  0
    4.1266   19.8200  -36.3123 H   0  0  0  0  0  0  0  0  0  0  0  0
    3.1949   20.0718  -37.8273 H   0  0  0  0  0  0  0  0  0  0  0  0
    4.9801   20.2706  -37.8273 H   0  0  0  0  0  0  0  0  0  0  0  0
    5.4427   23.1193  -36.2800 H   0  0  0  0  0  0  0  0  0  0  0  0
    5.7676   22.2196  -37.8004 H   0  0  0  0  0  0  0  0  0  0  0  0
    4.6134   23.5959  -37.8004 H   0  0  0  0  0  0  0  0  0  0  0  0
   -0.0860   22.2983  -36.5322 H   0  0  0  0  0  0  0  0  0  0  0  0
   -1.5956   21.0001  -35.0362 H   0  0  0  0  0  0  0  0  0  0  0  0
    0.2907   17.0610  -32.3064 H   0  0  0  0  0  0  0  0  0  0  0  0
   -0.5082   14.7908  -32.9504 H   0  0  0  0  0  0  0  0  0  0  0  0
  1  2  1  0
  2  3  2  0
  3  4  1  0
  4  5  2  0
  5  6  1  0
  6  7  1  0
  7  8  2  0
  7  9  1  0
  9 10  1  0
 10 11  1  0
 11 12  2  0
 12 13  1  0
 13 14  2  0
 14 15  1  0
 14 16  1  0
 16 17  1  0
 17 18  2  0
 17 19  2  0
 17 20  1  0
 20 21  1  0
 21 22  1  0
 22 23  1  0
 23 24  1  0
 16 25  2  0
  6 26  1  0
 26 27  2  0
 27 28  1  0
 28 29  2  0
 29 30  1  0
 30 31  2  0
 30 32  1  0
 32 33  1  0
 32 34  1  0
 29 35  1  0
 35 36  2  0
  5 37  1  0
 37 38  2  0
 38  2  1  0
 25 11  1  0
 36 26  1  0
 24 20  1  0
  1 39  1  0
  1 40  1  0
  1 41  1  0
  3 42  1  0
  4 43  1  0
  9 44  1  0
 10 45  1  0
 10 46  1  0
 12 47  1  0
 13 48  1  0
 21 49  1  0
 21 50  1  0
 22 51  1  0
 22 52  1  0
 23 53  1  0
 23 54  1  0
 24 55  1  0
 24 56  1  0
 25 57  1  0
 27 58  1  0
 28 59  1  0
 33 60  1  0
 33 61  1  0
 33 62  1  0
 34 63  1  0
 34 64  1  0
 34 65  1  0
 35 66  1  0
 36 67  1  0
 37 68  1  0
 38 69  1  0
M  CHG  1  15  -1
M  END
>  <UniqueID>  (31) 
31

>  <SMILES>  (31) 
Cc1ccc(N(C(=O)NCc2ccc([O-])c(S(=O)(=O)N3CCCC3)c2)c2ccc(C(=O)N(C)C)cc2)cc1

>  <Energy>  (31) 
83.26700354462155

>  <Genealogy>  (31) 
Cc1ccc(N(C(=O)NCc2ccc([O-])c(S(=O)(=O)N3CCCC3)c2)c2ccc(C(=O)N(C)C)cc2)cc1 (protonated)
Cc1ccc(N(C(=O)NCc2ccc([O-])c(S(=O)(=O)N3CCCC3)c2)c2ccc(C(=O)N(C)C)cc2)cc1 (3D coordinates assigned)
Cc1ccc(N(C(=O)NCc2ccc([O-])c(S(=O)(=O)N3CCCC3)c2)c2ccc(C(=O)N(C)C)cc2)cc1 (nonaromatic ring conformer: 83.26700354462155 kcal/mol)

>  <smiles>  (31) 
Cc1ccc(N(C(=O)NCc2ccc(O)c(S(=O)(=O)N3CCCC3)c2)c2ccc(C(=O)N(C)C)cc2)cc1

>  <score_type>  (31) 
oracle

>  <origin>  (31) 
adgpu

>  <m_score__min__energy>  (31) 
-13.619999999999999

>  <m_primary>  (31) 
energy

$$$$
31:0
     RDKit          3D

 48 50  0  0  0  0  0  0  0  0999 V2000
   -7.3220   23.7890  -31.3010 C   0  0  0  0  0  0  0  0  0  0  0  0
   -8.4920   23.1020  -32.0010 C   0  0  0  0  0  0  0  0  0  0  0  0
   -8.9420   21.8580  -31.2300 C   0  0  0  0  0  0  0  0  0  0  0  0
   -9.1860   20.7500  -32.1470 N   0  0  0  0  0  0  0  0  0  0  0  0
   -8.2270   19.7240  -32.4260 C   0  0  0  0  0  0  0  0  0  0  0  0
   -8.6070   18.5530  -32.6980 O   0  0  0  0  0  0  0  0  0  0  0  0
   -6.7960   20.0440  -32.4040 C   0  0  0  0  0  0  0  0  0  0  0  0
   -5.8460   19.5950  -33.3030 C   0  0  0  0  0  0  0  0  0  0  0  0
   -4.6620   20.1510  -32.8550 C   0  0  0  0  0  0  0  0  0  0  0  0
   -3.3280   19.8700  -33.4300 C   0  0  0  0  0  0  0  0  0  0  0  0
   -2.4070   20.9090  -33.6480 C   0  0  0  0  0  0  0  0  0  0  0  0
   -1.1420   20.6320  -34.1710 C   0  0  0  0  0  0  0  0  0  0  0  0
   -0.7790   19.3180  -34.4710 C   0  0  0  0  0  0  0  0  0  0  0  0
   -1.6840   18.2690  -34.2570 C   0  0  0  0  0  0  0  0  0  0  0  0
   -1.2770   16.8510  -34.5320 C   0  0  0  0  0  0  0  0  0  0  0  0
   -2.9500   18.5470  -33.7170 C   0  0  0  0  0  0  0  0  0  0  0  0
   -4.9240   20.8990  -31.7550 N   0  0  0  0  0  0  0  0  0  0  0  0
   -4.0160   21.7260  -31.0080 C   0  0  0  0  0  0  0  0  0  0  0  0
   -4.2090   23.1150  -30.9230 C   0  0  0  0  0  0  0  0  0  0  0  0
   -3.3270   23.9070  -30.1840 C   0  0  0  0  0  0  0  0  0  0  0  0
   -2.2440   23.3200  -29.5140 C   0  0  0  0  0  0  0  0  0  0  0  0
   -1.1350   24.3110  -28.5720 S   0  0  0  0  0  0  0  0  0  0  0  0
   -1.3730   25.9770  -28.9660 N   0  0  0  0  0  0  0  0  0  0  0  0
   -1.3920   24.0990  -27.1050 O   0  0  0  0  0  0  0  0  0  0  0  0
    0.2860   23.9210  -28.8760 O   0  0  0  0  0  0  0  0  0  0  0  0
   -2.0680   21.9320  -29.5700 C   0  0  0  0  0  0  0  0  0  0  0  0
   -2.9510   21.1380  -30.3090 C   0  0  0  0  0  0  0  0  0  0  0  0
   -6.2180   20.8310  -31.4770 N   0  0  0  0  0  0  0  0  0  0  0  0
   -7.4511   23.7132  -30.2112 H   0  0  0  0  0  0  0  0  0  0  0  0
   -6.3812   23.2999  -31.5937 H   0  0  0  0  0  0  0  0  0  0  0  0
   -7.2908   24.8489  -31.5937 H   0  0  0  0  0  0  0  0  0  0  0  0
   -9.3339   23.8067  -32.0689 H   0  0  0  0  0  0  0  0  0  0  0  0
   -8.1654   22.7919  -33.0046 H   0  0  0  0  0  0  0  0  0  0  0  0
   -8.1563   21.5707  -30.5158 H   0  0  0  0  0  0  0  0  0  0  0  0
   -9.8747   22.0890  -30.6945 H   0  0  0  0  0  0  0  0  0  0  0  0
   -5.9978   18.9435  -34.1762 H   0  0  0  0  0  0  0  0  0  0  0  0
   -2.6839   21.9456  -33.4055 H   0  0  0  0  0  0  0  0  0  0  0  0
   -0.4298   21.4516  -34.3470 H   0  0  0  0  0  0  0  0  0  0  0  0
    0.2209   19.1048  -34.8769 H   0  0  0  0  0  0  0  0  0  0  0  0
   -1.1251   16.3219  -33.5797 H   0  0  0  0  0  0  0  0  0  0  0  0
   -2.0671   16.3481  -35.1090 H   0  0  0  0  0  0  0  0  0  0  0  0
   -0.3405   16.8437  -35.1090 H   0  0  0  0  0  0  0  0  0  0  0  0
   -3.6511   17.7233  -33.5171 H   0  0  0  0  0  0  0  0  0  0  0  0
   -5.0596   23.5816  -31.4414 H   0  0  0  0  0  0  0  0  0  0  0  0
   -3.4825   24.9945  -30.1275 H   0  0  0  0  0  0  0  0  0  0  0  0
   -1.2230   26.0730  -29.9960 H   0  0  0  0  0  0  0  0  0  0  0  0
   -1.2315   21.4640  -29.0304 H   0  0  0  0  0  0  0  0  0  0  0  0
   -2.8098   20.0476  -30.3423 H   0  0  0  0  0  0  0  0  0  0  0  0
  1  2  1  0
  2  3  1  0
  3  4  1  0
  4  5  1  0
  5  6  2  0
  5  7  1  0
  7  8  1  0
  8  9  2  0
  9 10  1  0
 10 11  2  0
 11 12  1  0
 12 13  2  0
 13 14  1  0
 14 15  1  0
 14 16  2  0
  9 17  1  0
 17 18  1  0
 18 19  2  0
 19 20  1  0
 20 21  2  0
 21 22  1  0
 22 23  1  0
 22 24  2  0
 22 25  2  0
 21 26  1  0
 26 27  2  0
 17 28  1  0
 28  7  2  0
 16 10  1  0
 27 18  1  0
  1 29  1  0
  1 30  1  0
  1 31  1  0
  2 32  1  0
  2 33  1  0
  3 34  1  0
  3 35  1  0
  8 36  1  0
 11 37  1  0
 12 38  1  0
 13 39  1  0
 15 40  1  0
 15 41  1  0
 15 42  1  0
 16 43  1  0
 19 44  1  0
 20 45  1  0
 23 46  1  0
 26 47  1  0
 27 48  1  0
M  CHG  2   4  -1  23  -1
M  END
>  <UniqueID>  (32) 
32

>  <SMILES>  (32) 
CCC[N-]C(=O)c1cc(-c2cccc(C)c2)n(-c2ccc(S([NH-])(=O)=O)cc2)n1

>  <Energy>  (32) 
80.07909826496073

>  <Genealogy>  (32) 
CCC[N-]C(=O)c1cc(-c2cccc(C)c2)n(-c2ccc(S([NH-])(=O)=O)cc2)n1 (protonated)
CCC[N-]C(=O)c1cc(-c2cccc(C)c2)n(-c2ccc(S([NH-])(=O)=O)cc2)n1 (3D coordinates assigned)
CCC[N-]C(=O)c1cc(-c2cccc(C)c2)n(-c2ccc(S([NH-])(=O)=O)cc2)n1 (optimized conformer: 80.07909826496073 kcal/mol)

>  <smiles>  (32) 
CCCNC(=O)c1cc(-c2cccc(C)c2)n(-c2ccc(S(N)(=O)=O)cc2)n1

>  <score_type>  (32) 
oracle

>  <origin>  (32) 
adgpu

>  <m_score__min__energy>  (32) 
-10.779999999999999

>  <m_primary>  (32) 
energy

$$$$
32:0
     RDKit          3D

 48 51  0  0  0  0  0  0  0  0999 V2000
   -0.2730   22.2140  -27.1880 O   0  0  0  0  0  0  0  0  0  0  0  0
   -1.0720   22.2760  -28.1600 C   0  0  0  0  0  0  0  0  0  0  0  0
   -2.4560   22.8130  -27.9210 C   0  0  0  0  0  0  0  0  0  0  0  0
   -2.5000   24.6080  -28.2540 S   0  0  0  0  0  0  0  0  0  0  0  0
   -3.8070   24.5070  -29.4760 C   0  0  0  0  0  0  0  0  0  0  0  0
   -3.8620   25.2900  -30.5670 N   0  0  0  0  0  0  0  0  0  0  0  0
   -4.9620   24.9490  -31.2150 N   0  0  0  0  0  0  0  0  0  0  0  0
   -5.5410   23.9620  -30.5030 C   0  0  0  0  0  0  0  0  0  0  0  0
   -6.8210   23.3240  -30.8750 C   0  0  0  0  0  0  0  0  0  0  0  0
   -7.3610   22.2950  -30.0820 C   0  0  0  0  0  0  0  0  0  0  0  0
   -8.5950   21.7240  -30.4080 C   0  0  0  0  0  0  0  0  0  0  0  0
   -9.3000   22.1710  -31.5280 C   0  0  0  0  0  0  0  0  0  0  0  0
   -8.7690   23.1870  -32.3270 C   0  0  0  0  0  0  0  0  0  0  0  0
   -7.5370   23.7620  -32.0050 C   0  0  0  0  0  0  0  0  0  0  0  0
   -4.8410   23.6500  -29.3940 N   0  0  0  0  0  0  0  0  0  0  0  0
   -0.5840   21.9600  -29.4700 N   0  0  0  0  0  0  0  0  0  0  0  0
   -1.3570   21.4960  -30.5850 C   0  0  0  0  0  0  0  0  0  0  0  0
   -2.3510   22.2910  -31.1750 C   0  0  0  0  0  0  0  0  0  0  0  0
   -3.0840   21.8080  -32.2640 C   0  0  0  0  0  0  0  0  0  0  0  0
   -2.8490   20.5220  -32.7660 C   0  0  0  0  0  0  0  0  0  0  0  0
   -3.5920   20.0980  -33.8800 O   0  0  0  0  0  0  0  0  0  0  0  0
   -4.2480   18.8360  -34.0020 C   0  0  0  0  0  0  0  0  0  0  0  0
   -5.5660   18.8350  -33.2740 C   0  0  0  0  0  0  0  0  0  0  0  0
   -5.7980   17.9310  -32.2240 C   0  0  0  0  0  0  0  0  0  0  0  0
   -7.0290   17.9230  -31.5610 C   0  0  0  0  0  0  0  0  0  0  0  0
   -8.0390   18.8060  -31.9490 C   0  0  0  0  0  0  0  0  0  0  0  0
   -7.8220   19.6970  -33.0040 C   0  0  0  0  0  0  0  0  0  0  0  0
   -6.5920   19.7100  -33.6680 C   0  0  0  0  0  0  0  0  0  0  0  0
   -1.8870   19.7080  -32.1390 C   0  0  0  0  0  0  0  0  0  0  0  0
   -1.1650   20.1890  -31.0440 C   0  0  0  0  0  0  0  0  0  0  0  0
   -3.1648   22.3017  -28.5890 H   0  0  0  0  0  0  0  0  0  0  0  0
   -2.7347   22.6349  -26.8719 H   0  0  0  0  0  0  0  0  0  0  0  0
   -6.8091   21.9375  -29.2002 H   0  0  0  0  0  0  0  0  0  0  0  0
   -9.0113   20.9214  -29.7814 H   0  0  0  0  0  0  0  0  0  0  0  0
  -10.2725   21.7235  -31.7808 H   0  0  0  0  0  0  0  0  0  0  0  0
   -9.3223   23.5350  -33.2117 H   0  0  0  0  0  0  0  0  0  0  0  0
   -7.1243   24.5614  -32.6380 H   0  0  0  0  0  0  0  0  0  0  0  0
   -2.5546   23.2973  -30.7800 H   0  0  0  0  0  0  0  0  0  0  0  0
   -3.8514   22.4436  -32.7299 H   0  0  0  0  0  0  0  0  0  0  0  0
   -4.4261   18.6256  -35.0669 H   0  0  0  0  0  0  0  0  0  0  0  0
   -3.6034   18.0638  -33.5567 H   0  0  0  0  0  0  0  0  0  0  0  0
   -5.0084   17.2270  -31.9224 H   0  0  0  0  0  0  0  0  0  0  0  0
   -7.2022   17.2202  -30.7327 H   0  0  0  0  0  0  0  0  0  0  0  0
   -9.0057   18.8004  -31.4242 H   0  0  0  0  0  0  0  0  0  0  0  0
   -8.6200   20.3886  -33.3120 H   0  0  0  0  0  0  0  0  0  0  0  0
   -6.4269   20.4079  -34.5021 H   0  0  0  0  0  0  0  0  0  0  0  0
   -1.7031   18.6898  -32.5124 H   0  0  0  0  0  0  0  0  0  0  0  0
   -0.4396   19.5344  -30.5387 H   0  0  0  0  0  0  0  0  0  0  0  0
  1  2  2  0
  2  3  1  0
  3  4  1  0
  4  5  1  0
  5  6  2  0
  6  7  1  0
  7  8  1  0
  8  9  1  0
  9 10  2  0
 10 11  1  0
 11 12  2  0
 12 13  1  0
 13 14  2  0
  8 15  2  0
  2 16  1  0
 16 17  1  0
 17 18  2  0
 18 19  1  0
 19 20  2  0
 20 21  1  0
 21 22  1  0
 22 23  1  0
 23 24  2  0
 24 25  1  0
 25 26  2  0
 26 27  1  0
 27 28  2  0
 20 29  1  0
 29 30  2  0
 15  5  1  0
 30 17  1  0
 14  9  1  0
 28 23  1  0
  3 31  1  0
  3 32  1  0
 10 33  1  0
 11 34  1  0
 12 35  1  0
 13 36  1  0
 14 37  1  0
 18 38  1  0
 19 39  1  0
 22 40  1  0
 22 41  1  0
 24 42  1  0
 25 43  1  0
 26 44  1  0
 27 45  1  0
 28 46  1  0
 29 47  1  0
 30 48  1  0
M  CHG  2   7  -1  16  -1
M  END
>  <UniqueID>  (33) 
33

>  <SMILES>  (33) 
O=C(CSc1n[n-]c(-c2ccccc2)n1)[N-]c1ccc(OCc2ccccc2)cc1

>  <Energy>  (33) 
80.59456014369735

>  <Genealogy>  (33) 
O=C(CSc1n[n-]c(-c2ccccc2)n1)[N-]c1ccc(OCc2ccccc2)cc1 (protonated)
O=C(CSc1n[n-]c(-c2ccccc2)n1)[N-]c1ccc(OCc2ccccc2)cc1 (3D coordinates assigned)
O=C(CSc1n[n-]c(-c2ccccc2)n1)[N-]c1ccc(OCc2ccccc2)cc1 (optimized conformer: 80.59456014369735 kcal/mol)

>  <smiles>  (33) 
O=C(CSc1n[nH]c(-c2ccccc2)n1)Nc1ccc(OCc2ccccc2)cc1

>  <score_type>  (33) 
oracle

>  <origin>  (33) 
adgpu

>  <m_score__min__energy>  (33) 
-11.73

>  <m_primary>  (33) 
energy

$$$$
33:0
     RDKit          3D

 58 61  0  0  0  0  0  0  0  0999 V2000
   -0.6470   19.3280  -30.4900 O   0  0  0  0  0  0  0  0  0  0  0  0
   -1.2370   20.1400  -31.2540 C   0  0  0  0  0  0  0  0  0  0  0  0
   -1.4860   19.7760  -32.6230 N   0  0  0  0  0  0  0  0  0  0  0  0
   -1.5420   18.4150  -33.0820 C   0  0  0  0  0  0  0  0  0  0  0  0
   -0.3850   17.8120  -33.5980 C   0  0  0  0  0  0  0  0  0  0  0  0
   -0.4200   16.4920  -34.0550 C   0  0  0  0  0  0  0  0  0  0  0  0
   -1.6130   15.7670  -34.0150 C   0  0  0  0  0  0  0  0  0  0  0  0
   -2.7830   16.3650  -33.5300 C   0  0  0  0  0  0  0  0  0  0  0  0
   -4.2840   15.4420  -33.4870 S   0  0  0  0  0  0  0  0  0  0  0  0
   -4.1810   14.2490  -34.3970 O   0  0  0  0  0  0  0  0  0  0  0  0
   -4.5130   14.9560  -32.0830 O   0  0  0  0  0  0  0  0  0  0  0  0
   -5.6120   16.4620  -33.9870 N   0  0  0  0  0  0  0  0  0  0  0  0
   -6.3380   17.0090  -32.8170 C   0  0  0  0  0  0  0  0  0  0  0  0
   -6.0070   18.4910  -32.5700 C   0  0  0  0  0  0  0  0  0  0  0  0
   -6.3050   19.3250  -33.6800 O   0  0  0  0  0  0  0  0  0  0  0  0
   -6.0990   18.6980  -34.9410 C   0  0  0  0  0  0  0  0  0  0  0  0
   -5.1210   17.5120  -34.9010 C   0  0  0  0  0  0  0  0  0  0  0  0
   -2.7460   17.6890  -33.0680 C   0  0  0  0  0  0  0  0  0  0  0  0
   -1.6260   21.4750  -30.7400 C   0  0  0  0  0  0  0  0  0  0  0  0
   -0.7090   22.2740  -30.0360 C   0  0  0  0  0  0  0  0  0  0  0  0
   -1.0790   23.5380  -29.5750 C   0  0  0  0  0  0  0  0  0  0  0  0
   -2.3670   24.0260  -29.8080 C   0  0  0  0  0  0  0  0  0  0  0  0
   -2.7030   25.2970  -29.3540 O   0  0  0  0  0  0  0  0  0  0  0  0
   -3.3010   23.2390  -30.5020 C   0  0  0  0  0  0  0  0  0  0  0  0
   -4.9360   23.8330  -30.8120 S   0  0  0  0  0  0  0  0  0  0  0  0
   -5.7630   23.7030  -29.5620 O   0  0  0  0  0  0  0  0  0  0  0  0
   -4.8460   25.2830  -31.2000 O   0  0  0  0  0  0  0  0  0  0  0  0
   -5.6670   22.9060  -32.1080 N   0  0  0  0  0  0  0  0  0  0  0  0
   -5.9270   21.5060  -31.7050 C   0  0  0  0  0  0  0  0  0  0  0  0
   -7.3950   21.2640  -31.3080 C   0  0  0  0  0  0  0  0  0  0  0  0
   -7.9380   22.4210  -30.7150 O   0  0  0  0  0  0  0  0  0  0  0  0
   -8.0780   23.4480  -31.6800 C   0  0  0  0  0  0  0  0  0  0  0  0
   -6.8710   23.5670  -32.6410 C   0  0  0  0  0  0  0  0  0  0  0  0
   -2.9210   21.9750  -30.9770 C   0  0  0  0  0  0  0  0  0  0  0  0
   -1.5090   20.5360  -33.3380 H   0  0  0  0  0  0  0  0  0  0  0  0
    0.5550   18.3816  -33.6430 H   0  0  0  0  0  0  0  0  0  0  0  0
    0.4943   16.0228  -34.4472 H   0  0  0  0  0  0  0  0  0  0  0  0
   -1.6338   14.7244  -34.3650 H   0  0  0  0  0  0  0  0  0  0  0  0
   -7.4194   16.9120  -32.9938 H   0  0  0  0  0  0  0  0  0  0  0  0
   -6.0255   16.4401  -31.9289 H   0  0  0  0  0  0  0  0  0  0  0  0
   -6.5900   18.8396  -31.7048 H   0  0  0  0  0  0  0  0  0  0  0  0
   -4.9233   18.5581  -32.3934 H   0  0  0  0  0  0  0  0  0  0  0  0
   -7.0697   18.3329  -35.3078 H   0  0  0  0  0  0  0  0  0  0  0  0
   -5.6521   19.4551  -35.6021 H   0  0  0  0  0  0  0  0  0  0  0  0
   -5.0208   17.0922  -35.9128 H   0  0  0  0  0  0  0  0  0  0  0  0
   -4.1460   17.8694  -34.5381 H   0  0  0  0  0  0  0  0  0  0  0  0
   -3.6651   18.1624  -32.6923 H   0  0  0  0  0  0  0  0  0  0  0  0
    0.3081   21.9002  -29.8469 H   0  0  0  0  0  0  0  0  0  0  0  0
   -0.3522   24.1537  -29.0249 H   0  0  0  0  0  0  0  0  0  0  0  0
   -5.6770   20.8451  -32.5480 H   0  0  0  0  0  0  0  0  0  0  0  0
   -5.3052   21.2936  -30.8228 H   0  0  0  0  0  0  0  0  0  0  0  0
   -7.9767   21.0094  -32.2063 H   0  0  0  0  0  0  0  0  0  0  0  0
   -7.4384   20.4368  -30.5842 H   0  0  0  0  0  0  0  0  0  0  0  0
   -8.9786   23.2429  -32.2773 H   0  0  0  0  0  0  0  0  0  0  0  0
   -8.1464   24.3984  -31.1305 H   0  0  0  0  0  0  0  0  0  0  0  0
   -7.1355   23.1001  -33.6012 H   0  0  0  0  0  0  0  0  0  0  0  0
   -6.6423   24.6358  -32.7646 H   0  0  0  0  0  0  0  0  0  0  0  0
   -3.6433   21.3670  -31.5414 H   0  0  0  0  0  0  0  0  0  0  0  0
  1  2  2  0
  2  3  1  0
  3  4  1  0
  4  5  2  0
  5  6  1  0
  6  7  2  0
  7  8  1  0
  8  9  1  0
  9 10  2  0
  9 11  2  0
  9 12  1  0
 12 13  1  0
 13 14  1  0
 14 15  1  0
 15 16  1  0
 16 17  1  0
  8 18  2  0
  2 19  1  0
 19 20  2  0
 20 21  1  0
 21 22  2  0
 22 23  1  0
 22 24  1  0
 24 25  1  0
 25 26  2  0
 25 27  2  0
 25 28  1  0
 28 29  1  0
 29 30  1  0
 30 31  1  0
 31 32  1  0
 32 33  1  0
 24 34  2  0
 18  4  1  0
 34 19  1  0
 17 12  1  0
 33 28  1  0
  3 35  1  0
  5 36  1  0
  6 37  1  0
  7 38  1  0
 13 39  1  0
 13 40  1  0
 14 41  1  0
 14 42  1  0
 16 43  1  0
 16 44  1  0
 17 45  1  0
 17 46  1  0
 18 47  1  0
 20 48  1  0
 21 49  1  0
 29 50  1  0
 29 51  1  0
 30 52  1  0
 30 53  1  0
 32 54  1  0
 32 55  1  0
 33 56  1  0
 33 57  1  0
 34 58  1  0
M  CHG  1  23  -1
M  END
>  <UniqueID>  (34) 
34

>  <SMILES>  (34) 
O=C(Nc1cccc(S(=O)(=O)N2CCOCC2)c1)c1ccc([O-])c(S(=O)(=O)N2CCOCC2)c1

>  <Energy>  (34) 
89.89845203100961

>  <Genealogy>  (34) 
O=C(Nc1cccc(S(=O)(=O)N2CCOCC2)c1)c1ccc([O-])c(S(=O)(=O)N2CCOCC2)c1 (protonated)
O=C(Nc1cccc(S(=O)(=O)N2CCOCC2)c1)c1ccc([O-])c(S(=O)(=O)N2CCOCC2)c1 (3D coordinates assigned)
O=C(Nc1cccc(S(=O)(=O)N2CCOCC2)c1)c1ccc([O-])c(S(=O)(=O)N2CCOCC2)c1 (nonaromatic ring conformer: 89.89845203100961 kcal/mol)

>  <smiles>  (34) 
O=C(Nc1cccc(S(=O)(=O)N2CCOCC2)c1)c1ccc(O)c(S(=O)(=O)N2CCOCC2)c1

>  <score_type>  (34) 
oracle

>  <origin>  (34) 
adgpu

>  <m_score__min__energy>  (34) 
-11.59

>  <m_primary>  (34) 
energy

$$$$
34:0
     RDKit          3D

 38 40  0  0  0  0  0  0  0  0999 V2000
   -2.0410   22.6100  -30.8230 C   0  0  0  0  0  0  0  0  0  0  0  0
   -3.4940   22.8140  -30.8490 N   0  0  0  0  0  0  0  0  0  0  0  0
   -4.3080   21.8030  -31.2850 C   0  0  0  0  0  0  0  0  0  0  0  0
   -5.7030   21.9590  -31.3080 C   0  0  0  0  0  0  0  0  0  0  0  0
   -6.5600   20.8960  -31.7690 N   0  0  0  0  0  0  0  0  0  0  0  0
   -7.8330   21.0230  -32.2040 C   0  0  0  0  0  0  0  0  0  0  0  0
   -8.2870   19.7710  -32.5670 C   0  0  0  0  0  0  0  0  0  0  0  0
   -9.5860   19.4850  -33.0840 N   0  0  0  0  0  0  0  0  0  0  0  0
   -7.3110   18.8590  -32.3650 N   0  0  0  0  0  0  0  0  0  0  0  0
   -7.3290   17.4290  -32.6860 C   0  0  0  0  0  0  0  0  0  0  0  0
   -6.1100   17.0580  -33.4880 C   0  0  0  0  0  0  0  0  0  0  0  0
   -5.7220   17.8280  -34.5990 C   0  0  0  0  0  0  0  0  0  0  0  0
   -4.5790   17.4840  -35.3290 C   0  0  0  0  0  0  0  0  0  0  0  0
   -3.8180   16.3720  -34.9580 C   0  0  0  0  0  0  0  0  0  0  0  0
   -4.1980   15.6010  -33.8560 C   0  0  0  0  0  0  0  0  0  0  0  0
   -5.3400   15.9410  -33.1240 C   0  0  0  0  0  0  0  0  0  0  0  0
   -6.2730   19.5790  -31.8900 C   0  0  0  0  0  0  0  0  0  0  0  0
   -5.1460   19.0790  -31.6220 O   0  0  0  0  0  0  0  0  0  0  0  0
   -6.2490   23.1640  -30.8510 C   0  0  0  0  0  0  0  0  0  0  0  0
   -5.4170   24.1850  -30.3970 C   0  0  0  0  0  0  0  0  0  0  0  0
   -6.1240   25.6910  -29.8290 Cl  0  0  0  0  0  0  0  0  0  0  0  0
   -4.0290   23.9940  -30.3980 C   0  0  0  0  0  0  0  0  0  0  0  0
   -3.2760   24.9170  -29.9800 O   0  0  0  0  0  0  0  0  0  0  0  0
   -1.6962   22.5616  -29.7796 H   0  0  0  0  0  0  0  0  0  0  0  0
   -1.7937   21.6683  -31.3350 H   0  0  0  0  0  0  0  0  0  0  0  0
   -1.5440   23.4472  -31.3350 H   0  0  0  0  0  0  0  0  0  0  0  0
   -3.8627   20.8553  -31.6220 H   0  0  0  0  0  0  0  0  0  0  0  0
   -8.4069   21.9598  -32.2592 H   0  0  0  0  0  0  0  0  0  0  0  0
  -10.4180   19.4230  -32.4570 H   0  0  0  0  0  0  0  0  0  0  0  0
   -9.7250   19.3510  -34.1100 H   0  0  0  0  0  0  0  0  0  0  0  0
   -7.3398   16.8476  -31.7523 H   0  0  0  0  0  0  0  0  0  0  0  0
   -8.2285   17.2067  -33.2788 H   0  0  0  0  0  0  0  0  0  0  0  0
   -6.3189   18.7033  -34.8950 H   0  0  0  0  0  0  0  0  0  0  0  0
   -4.2788   18.0899  -36.1966 H   0  0  0  0  0  0  0  0  0  0  0  0
   -2.9198   16.1036  -35.5335 H   0  0  0  0  0  0  0  0  0  0  0  0
   -3.5984   14.7262  -33.5642 H   0  0  0  0  0  0  0  0  0  0  0  0
   -5.6369   15.3304  -32.2585 H   0  0  0  0  0  0  0  0  0  0  0  0
   -7.3399   23.3055  -30.8503 H   0  0  0  0  0  0  0  0  0  0  0  0
  1  2  1  0
  2  3  1  0
  3  4  2  0
  4  5  1  0
  5  6  1  0
  6  7  2  0
  7  8  1  0
  7  9  1  0
  9 10  1  0
 10 11  1  0
 11 12  2  0
 12 13  1  0
 13 14  2  0
 14 15  1  0
 15 16  2  0
  9 17  1  0
 17 18  2  0
  4 19  1  0
 19 20  2  0
 20 21  1  0
 20 22  1  0
 22 23  2  0
 22  2  1  0
 17  5  1  0
 16 11  1  0
  1 24  1  0
  1 25  1  0
  1 26  1  0
  3 27  1  0
  6 28  1  0
  8 29  1  0
  8 30  1  0
 10 31  1  0
 10 32  1  0
 12 33  1  0
 13 34  1  0
 14 35  1  0
 15 36  1  0
 16 37  1  0
 19 38  1  0
M  END
>  <UniqueID>  (35) 
35

>  <SMILES>  (35) 
Cn1cc(-n2cc(N)n(Cc3ccccc3)c2=O)cc(Cl)c1=O

>  <Energy>  (35) 
79.30079319949142

>  <Genealogy>  (35) 
Cn1cc(-n2cc(N)n(Cc3ccccc3)c2=O)cc(Cl)c1=O (3D coordinates assigned)
Cn1cc(-n2cc(N)n(Cc3ccccc3)c2=O)cc(Cl)c1=O (optimized conformer: 79.30079319949142 kcal/mol)

>  <smiles>  (35) 
Cn1cc(-n2cc(N)n(Cc3ccccc3)c2=O)cc(Cl)c1=O

>  <score_type>  (35) 
oracle

>  <origin>  (35) 
adgpu

>  <m_score__min__energy>  (35) 
-7.8600000000000003

>  <m_primary>  (35) 
energy

$$$$
35:0
     RDKit          3D

 46 48  0  0  0  0  0  0  0  0999 V2000
   -3.5340   25.0720  -30.7270 N   0  0  0  0  0  0  0  0  0  0  0  0
   -5.0750   24.9550  -29.9540 S   0  0  0  0  0  0  0  0  0  0  0  0
   -4.8840   24.6880  -28.4870 O   0  0  0  0  0  0  0  0  0  0  0  0
   -5.8140   26.2530  -30.1160 O   0  0  0  0  0  0  0  0  0  0  0  0
   -5.9990   23.6440  -30.6810 C   0  0  0  0  0  0  0  0  0  0  0  0
   -7.3820   23.7720  -30.8700 C   0  0  0  0  0  0  0  0  0  0  0  0
   -8.1090   22.7340  -31.4600 C   0  0  0  0  0  0  0  0  0  0  0  0
   -7.4630   21.5560  -31.8640 C   0  0  0  0  0  0  0  0  0  0  0  0
   -8.2430   20.4510  -32.5300 C   0  0  0  0  0  0  0  0  0  0  0  0
   -7.6590   19.0720  -32.2030 C   0  0  0  0  0  0  0  0  0  0  0  0
   -7.2840   18.3510  -33.4230 N   0  0  0  0  0  0  0  0  0  0  0  0
   -6.0710   17.1460  -33.1010 S   0  0  0  0  0  0  0  0  0  0  0  0
   -6.3740   15.8930  -33.8750 O   0  0  0  0  0  0  0  0  0  0  0  0
   -6.0820   16.8180  -31.6360 O   0  0  0  0  0  0  0  0  0  0  0  0
   -4.4790   17.7660  -33.5320 C   0  0  0  0  0  0  0  0  0  0  0  0
   -3.5240   16.9010  -34.0660 C   0  0  0  0  0  0  0  0  0  0  0  0
   -2.2560   17.3760  -34.4020 C   0  0  0  0  0  0  0  0  0  0  0  0
   -1.9120   18.7190  -34.1990 C   0  0  0  0  0  0  0  0  0  0  0  0
   -2.8750   19.6030  -33.6550 C   0  0  0  0  0  0  0  0  0  0  0  0
   -4.1540   19.1130  -33.3280 C   0  0  0  0  0  0  0  0  0  0  0  0
   -2.5620   21.0470  -33.3880 C   0  0  0  0  0  0  0  0  0  0  0  0
   -1.3420   21.1450  -32.4660 C   0  0  0  0  0  0  0  0  0  0  0  0
   -0.0440   21.2750  -33.2550 C   0  0  0  0  0  0  0  0  0  0  0  0
    0.3260   20.1000  -34.1240 C   0  0  0  0  0  0  0  0  0  0  0  0
    1.5500   19.9090  -34.3440 O   0  0  0  0  0  0  0  0  0  0  0  0
   -0.6020   19.1270  -34.6290 N   0  0  0  0  0  0  0  0  0  0  0  0
   -6.0750   21.4380  -31.6900 C   0  0  0  0  0  0  0  0  0  0  0  0
   -5.3480   22.4760  -31.1000 C   0  0  0  0  0  0  0  0  0  0  0  0
   -3.5150   25.9880  -31.2300 H   0  0  0  0  0  0  0  0  0  0  0  0
   -7.8964   24.6913  -30.5533 H   0  0  0  0  0  0  0  0  0  0  0  0
   -9.1936   22.8414  -31.6083 H   0  0  0  0  0  0  0  0  0  0  0  0
   -9.2854   20.4892  -32.1807 H   0  0  0  0  0  0  0  0  0  0  0  0
   -8.1879   20.5987  -33.6186 H   0  0  0  0  0  0  0  0  0  0  0  0
   -6.7660   19.2008  -31.5738 H   0  0  0  0  0  0  0  0  0  0  0  0
   -8.4254   18.4861  -31.6744 H   0  0  0  0  0  0  0  0  0  0  0  0
   -3.7714   15.8407  -34.2227 H   0  0  0  0  0  0  0  0  0  0  0  0
   -1.5154   16.6860  -34.8326 H   0  0  0  0  0  0  0  0  0  0  0  0
   -4.9066   19.7961  -32.9074 H   0  0  0  0  0  0  0  0  0  0  0  0
   -2.3449   21.5566  -34.3384 H   0  0  0  0  0  0  0  0  0  0  0  0
   -3.4261   21.5252  -32.9036 H   0  0  0  0  0  0  0  0  0  0  0  0
   -1.4550   22.0273  -31.8188 H   0  0  0  0  0  0  0  0  0  0  0  0
   -1.2888   20.2216  -31.8706 H   0  0  0  0  0  0  0  0  0  0  0  0
   -0.1329   22.1583  -33.9046 H   0  0  0  0  0  0  0  0  0  0  0  0
    0.7536   21.3467  -32.5008 H   0  0  0  0  0  0  0  0  0  0  0  0
   -5.5574   20.5250  -32.0193 H   0  0  0  0  0  0  0  0  0  0  0  0
   -4.2610   22.3756  -30.9642 H   0  0  0  0  0  0  0  0  0  0  0  0
  1  2  1  0
  2  3  2  0
  2  4  2  0
  2  5  1  0
  5  6  2  0
  6  7  1  0
  7  8  2  0
  8  9  1  0
  9 10  1  0
 10 11  1  0
 11 12  1  0
 12 13  2  0
 12 14  2  0
 12 15  1  0
 15 16  2  0
 16 17  1  0
 17 18  2  0
 18 19  1  0
 19 20  2  0
 19 21  1  0
 21 22  1  0
 22 23  1  0
 23 24  1  0
 24 25  2  0
 24 26  1  0
  8 27  1  0
 27 28  2  0
 28  5  1  0
 20 15  1  0
 26 18  1  0
  1 29  1  0
  6 30  1  0
  7 31  1  0
  9 32  1  0
  9 33  1  0
 10 34  1  0
 10 35  1  0
 16 36  1  0
 17 37  1  0
 20 38  1  0
 21 39  1  0
 21 40  1  0
 22 41  1  0
 22 42  1  0
 23 43  1  0
 23 44  1  0
 27 45  1  0
 28 46  1  0
M  CHG  3   1  -1  11  -1  26  -1
M  END
>  <UniqueID>  (36) 
36

>  <SMILES>  (36) 
[NH-]S(=O)(=O)c1ccc(CC[N-]S(=O)(=O)c2ccc3c(c2)CCCC(=O)[N-]3)cc1

>  <Energy>  (36) 
55.133272236527496

>  <Genealogy>  (36) 
[NH-]S(=O)(=O)c1ccc(CC[N-]S(=O)(=O)c2ccc3c(c2)CCCC(=O)[N-]3)cc1 (protonated)
[NH-]S(=O)(=O)c1ccc(CC[N-]S(=O)(=O)c2ccc3c(c2)CCCC(=O)[N-]3)cc1 (3D coordinates assigned)
[NH-]S(=O)(=O)c1ccc(CC[N-]S(=O)(=O)c2ccc3c(c2)CCCC(=O)[N-]3)cc1 (nonaromatic ring conformer: 55.133272236527496 kcal/mol)

>  <smiles>  (36) 
NS(=O)(=O)c1ccc(CCNS(=O)(=O)c2ccc3c(c2)CCCC(=O)N3)cc1

>  <score_type>  (36) 
oracle

>  <origin>  (36) 
adgpu

>  <m_score__min__energy>  (36) 
-9.3100000000000005

>  <m_primary>  (36) 
energy

$$$$
36:0
     RDKit          3D

 60 64  0  0  0  0  0  0  0  0999 V2000
   -8.9150   22.6100  -31.9670 C   0  0  0  0  0  0  0  0  0  0  0  0
   -7.7530   22.0100  -31.3990 O   0  0  0  0  0  0  0  0  0  0  0  0
   -6.8890   21.1260  -32.0680 C   0  0  0  0  0  0  0  0  0  0  0  0
   -7.3590   19.8270  -32.2940 C   0  0  0  0  0  0  0  0  0  0  0  0
   -6.5410   18.8510  -32.8790 C   0  0  0  0  0  0  0  0  0  0  0  0
   -5.2310   19.1880  -33.2560 C   0  0  0  0  0  0  0  0  0  0  0  0
   -4.7620   20.4890  -33.0670 C   0  0  0  0  0  0  0  0  0  0  0  0
   -5.5830   21.4750  -32.4950 C   0  0  0  0  0  0  0  0  0  0  0  0
   -5.1290   22.8340  -32.4560 N   0  0  0  0  0  0  0  0  0  0  0  0
   -4.7070   23.6320  -30.9750 S   0  0  0  0  0  0  0  0  0  0  0  0
   -5.7190   23.2760  -29.9230 O   0  0  0  0  0  0  0  0  0  0  0  0
   -4.7360   25.1170  -31.1990 O   0  0  0  0  0  0  0  0  0  0  0  0
   -3.0950   23.1510  -30.4440 C   0  0  0  0  0  0  0  0  0  0  0  0
   -2.5960   21.8820  -30.7750 C   0  0  0  0  0  0  0  0  0  0  0  0
   -1.3140   21.4920  -30.3630 C   0  0  0  0  0  0  0  0  0  0  0  0
   -0.6870   19.9020  -30.8020 S   0  0  0  0  0  0  0  0  0  0  0  0
    0.7830   20.0130  -31.1000 O   0  0  0  0  0  0  0  0  0  0  0  0
   -0.8550   18.9650  -29.6380 O   0  0  0  0  0  0  0  0  0  0  0  0
   -1.5160   19.2500  -32.1970 N   0  0  0  0  0  0  0  0  0  0  0  0
   -0.9740   17.9150  -32.5380 C   0  0  0  0  0  0  0  0  0  0  0  0
   -1.3620   17.5020  -33.9610 C   0  0  0  0  0  0  0  0  0  0  0  0
   -0.7730   18.4750  -34.9990 C   0  0  0  0  0  0  0  0  0  0  0  0
   -0.5240   19.8800  -34.4240 C   0  0  0  0  0  0  0  0  0  0  0  0
   -1.5400   20.2180  -33.3220 C   0  0  0  0  0  0  0  0  0  0  0  0
   -0.5310   22.3770  -29.6100 C   0  0  0  0  0  0  0  0  0  0  0  0
   -1.0210   23.6430  -29.2810 C   0  0  0  0  0  0  0  0  0  0  0  0
   -2.2970   24.0350  -29.6980 C   0  0  0  0  0  0  0  0  0  0  0  0
   -2.7620   25.3030  -29.3680 O   0  0  0  0  0  0  0  0  0  0  0  0
   -4.3890   18.2370  -33.8370 O   0  0  0  0  0  0  0  0  0  0  0  0
   -4.7990   16.9230  -34.0670 C   0  0  0  0  0  0  0  0  0  0  0  0
   -3.9330   16.0430  -34.6380 N   0  0  0  0  0  0  0  0  0  0  0  0
   -4.2810   14.7530  -34.8850 C   0  0  0  0  0  0  0  0  0  0  0  0
   -5.5570   14.2960  -34.5520 C   0  0  0  0  0  0  0  0  0  0  0  0
   -6.4660   15.1770  -33.9640 C   0  0  0  0  0  0  0  0  0  0  0  0
   -6.0960   16.5060  -33.7150 C   0  0  0  0  0  0  0  0  0  0  0  0
   -7.0800   17.4550  -33.0800 C   0  0  0  0  0  0  0  0  0  0  0  0
   -9.5809   22.9539  -31.1618 H   0  0  0  0  0  0  0  0  0  0  0  0
   -8.6182   23.4676  -32.5887 H   0  0  0  0  0  0  0  0  0  0  0  0
   -9.4423   21.8715  -32.5887 H   0  0  0  0  0  0  0  0  0  0  0  0
   -8.3888   19.5676  -32.0073 H   0  0  0  0  0  0  0  0  0  0  0  0
   -3.7361   20.7456  -33.3699 H   0  0  0  0  0  0  0  0  0  0  0  0
   -4.9840   23.3510  -33.3500 H   0  0  0  0  0  0  0  0  0  0  0  0
   -3.2154   21.1880  -31.3622 H   0  0  0  0  0  0  0  0  0  0  0  0
    0.1229   17.9433  -32.4599 H   0  0  0  0  0  0  0  0  0  0  0  0
   -1.3961   17.1802  -31.8367 H   0  0  0  0  0  0  0  0  0  0  0  0
   -0.9788   16.4900  -34.1588 H   0  0  0  0  0  0  0  0  0  0  0  0
   -2.4586   17.5225  -34.0447 H   0  0  0  0  0  0  0  0  0  0  0  0
    0.1833   18.0680  -35.3594 H   0  0  0  0  0  0  0  0  0  0  0  0
   -1.5061   18.5751  -35.8130 H   0  0  0  0  0  0  0  0  0  0  0  0
    0.4906   19.9198  -34.0009 H   0  0  0  0  0  0  0  0  0  0  0  0
   -0.6348   20.6133  -35.2364 H   0  0  0  0  0  0  0  0  0  0  0  0
   -1.3106   21.2192  -32.9284 H   0  0  0  0  0  0  0  0  0  0  0  0
   -2.5424   20.1749  -33.7730 H   0  0  0  0  0  0  0  0  0  0  0  0
    0.4726   22.0739  -29.2769 H   0  0  0  0  0  0  0  0  0  0  0  0
   -0.4008   24.3343  -28.6916 H   0  0  0  0  0  0  0  0  0  0  0  0
   -3.5559   14.0677  -35.3482 H   0  0  0  0  0  0  0  0  0  0  0  0
   -5.8432   13.2527  -34.7508 H   0  0  0  0  0  0  0  0  0  0  0  0
   -7.4741   14.8280  -33.6956 H   0  0  0  0  0  0  0  0  0  0  0  0
   -7.9682   17.5163  -33.7260 H   0  0  0  0  0  0  0  0  0  0  0  0
   -7.3107   17.0550  -32.0816 H   0  0  0  0  0  0  0  0  0  0  0  0
  1  2  1  0
  2  3  1  0
  3  4  2  0
  4  5  1  0
  5  6  2  0
  6  7  1  0
  7  8  2  0
  8  9  1  0
  9 10  1  0
 10 11  2  0
 10 12  2  0
 10 13  1  0
 13 14  2  0
 14 15  1  0
 15 16  1  0
 16 17  2  0
 16 18  2  0
 16 19  1  0
 19 20  1  0
 20 21  1  0
 21 22  1  0
 22 23  1  0
 23 24  1  0
 15 25  2  0
 25 26  1  0
 26 27  2  0
 27 28  1  0
  6 29  1  0
 29 30  1  0
 30 31  2  0
 31 32  1  0
 32 33  2  0
 33 34  1  0
 34 35  2  0
 35 36  1  0
  8  3  1  0
 27 13  1  0
 35 30  1  0
 36  5  1  0
 24 19  1  0
  1 37  1  0
  1 38  1  0
  1 39  1  0
  4 40  1  0
  7 41  1  0
  9 42  1  0
 14 43  1  0
 20 44  1  0
 20 45  1  0
 21 46  1  0
 21 47  1  0
 22 48  1  0
 22 49  1  0
 23 50  1  0
 23 51  1  0
 24 52  1  0
 24 53  1  0
 25 54  1  0
 26 55  1  0
 32 56  1  0
 33 57  1  0
 34 58  1  0
 36 59  1  0
 36 60  1  0
M  CHG  1  28  -1
M  END
>  <UniqueID>  (37) 
37

>  <SMILES>  (37) 
COc1cc2c(cc1NS(=O)(=O)c1cc(S(=O)(=O)N3CCCCC3)ccc1[O-])Oc1ncccc1C2

>  <Energy>  (37) 
83.2114808516812

>  <Genealogy>  (37) 
COc1cc2c(cc1NS(=O)(=O)c1cc(S(=O)(=O)N3CCCCC3)ccc1[O-])Oc1ncccc1C2 (protonated)
COc1cc2c(cc1NS(=O)(=O)c1cc(S(=O)(=O)N3CCCCC3)ccc1[O-])Oc1ncccc1C2 (3D coordinates assigned)
COc1cc2c(cc1NS(=O)(=O)c1cc(S(=O)(=O)N3CCCCC3)ccc1[O-])Oc1ncccc1C2 (nonaromatic ring conformer: 83.2114808516812 kcal/mol)

>  <smiles>  (37) 
COc1cc2c(cc1NS(=O)(=O)c1cc(S(=O)(=O)N3CCCCC3)ccc1O)Oc1ncccc1C2

>  <score_type>  (37) 
oracle

>  <origin>  (37) 
adgpu

>  <m_score__min__energy>  (37) 
-13.34

>  <m_primary>  (37) 
energy

$$$$
37:0
     RDKit          3D

 43 45  0  0  0  0  0  0  0  0999 V2000
   -4.7480   25.5960  -31.2120 O   0  0  0  0  0  0  0  0  0  0  0  0
   -4.3670   24.8210  -30.2940 C   0  0  0  0  0  0  0  0  0  0  0  0
   -5.2490   23.6910  -29.8710 C   0  0  0  0  0  0  0  0  0  0  0  0
   -5.4690   22.7710  -30.9910 N   0  0  0  0  0  0  0  0  0  0  0  0
   -4.3740   22.0190  -31.5400 C   0  0  0  0  0  0  0  0  0  0  0  0
   -3.9860   22.2080  -32.8780 C   0  0  0  0  0  0  0  0  0  0  0  0
   -2.9230   21.4740  -33.4130 C   0  0  0  0  0  0  0  0  0  0  0  0
   -2.2390   20.5480  -32.6190 C   0  0  0  0  0  0  0  0  0  0  0  0
   -1.1840   19.8200  -33.1540 O   0  0  0  0  0  0  0  0  0  0  0  0
   -2.6210   20.3550  -31.2880 C   0  0  0  0  0  0  0  0  0  0  0  0
   -3.6840   21.0860  -30.7510 C   0  0  0  0  0  0  0  0  0  0  0  0
   -7.0920   22.4520  -31.5320 S   0  0  0  0  0  0  0  0  0  0  0  0
   -8.0650   22.7110  -30.4150 O   0  0  0  0  0  0  0  0  0  0  0  0
   -7.4160   23.3620  -32.6840 O   0  0  0  0  0  0  0  0  0  0  0  0
   -7.2460   20.7660  -32.0150 C   0  0  0  0  0  0  0  0  0  0  0  0
   -8.1290   19.9060  -31.3450 C   0  0  0  0  0  0  0  0  0  0  0  0
   -8.2450   18.5700  -31.7450 C   0  0  0  0  0  0  0  0  0  0  0  0
   -7.4800   18.0890  -32.8100 C   0  0  0  0  0  0  0  0  0  0  0  0
   -6.5940   18.9410  -33.4770 C   0  0  0  0  0  0  0  0  0  0  0  0
   -6.4760   20.2760  -33.0780 C   0  0  0  0  0  0  0  0  0  0  0  0
   -3.0690   24.9640  -29.7020 N   0  0  0  0  0  0  0  0  0  0  0  0
   -2.3050   23.9390  -29.0450 C   0  0  0  0  0  0  0  0  0  0  0  0
   -1.2780   23.2410  -29.7100 C   0  0  0  0  0  0  0  0  0  0  0  0
   -0.5390   22.2650  -29.0360 C   0  0  0  0  0  0  0  0  0  0  0  0
   -0.8040   21.9860  -27.6940 C   0  0  0  0  0  0  0  0  0  0  0  0
   -1.8030   22.6900  -27.0180 C   0  0  0  0  0  0  0  0  0  0  0  0
   -2.5480   23.6700  -27.6860 C   0  0  0  0  0  0  0  0  0  0  0  0
   -3.7890   24.5440  -26.8000 Cl  0  0  0  0  0  0  0  0  0  0  0  0
   -4.7703   23.1472  -29.0433 H   0  0  0  0  0  0  0  0  0  0  0  0
   -6.2183   24.0962  -29.5448 H   0  0  0  0  0  0  0  0  0  0  0  0
   -4.5205   22.9358  -33.5061 H   0  0  0  0  0  0  0  0  0  0  0  0
   -2.6241   21.6252  -34.4607 H   0  0  0  0  0  0  0  0  0  0  0  0
   -2.0840   19.6267  -30.6626 H   0  0  0  0  0  0  0  0  0  0  0  0
   -3.9816   20.9291  -29.7037 H   0  0  0  0  0  0  0  0  0  0  0  0
   -8.7307   20.2822  -30.5045 H   0  0  0  0  0  0  0  0  0  0  0  0
   -8.9396   17.8978  -31.2200 H   0  0  0  0  0  0  0  0  0  0  0  0
   -7.5745   17.0391  -33.1244 H   0  0  0  0  0  0  0  0  0  0  0  0
   -5.9905   18.5614  -34.3147 H   0  0  0  0  0  0  0  0  0  0  0  0
   -5.7758   20.9441  -33.6008 H   0  0  0  0  0  0  0  0  0  0  0  0
   -1.0568   23.4650  -30.7640 H   0  0  0  0  0  0  0  0  0  0  0  0
    0.2537   21.7150  -29.5644 H   0  0  0  0  0  0  0  0  0  0  0  0
   -0.2258   21.2115  -27.1689 H   0  0  0  0  0  0  0  0  0  0  0  0
   -2.0052   22.4743  -25.9585 H   0  0  0  0  0  0  0  0  0  0  0  0
  1  2  2  0
  2  3  1  0
  3  4  1  0
  4  5  1  0
  5  6  2  0
  6  7  1  0
  7  8  2  0
  8  9  1  0
  8 10  1  0
 10 11  2  0
  4 12  1  0
 12 13  2  0
 12 14  2  0
 12 15  1  0
 15 16  2  0
 16 17  1  0
 17 18  2  0
 18 19  1  0
 19 20  2  0
  2 21  1  0
 21 22  1  0
 22 23  2  0
 23 24  1  0
 24 25  2  0
 25 26  1  0
 26 27  2  0
 27 28  1  0
 11  5  1  0
 20 15  1  0
 27 22  1  0
  3 29  1  0
  3 30  1  0
  6 31  1  0
  7 32  1  0
 10 33  1  0
 11 34  1  0
 16 35  1  0
 17 36  1  0
 18 37  1  0
 19 38  1  0
 20 39  1  0
 23 40  1  0
 24 41  1  0
 25 42  1  0
 26 43  1  0
M  CHG  2   9  -1  21  -1
M  END
>  <UniqueID>  (38) 
38

>  <SMILES>  (38) 
O=C(CN(c1ccc([O-])cc1)S(=O)(=O)c1ccccc1)[N-]c1ccccc1Cl

>  <Energy>  (38) 
52.84254434674442

>  <Genealogy>  (38) 
O=C(CN(c1ccc([O-])cc1)S(=O)(=O)c1ccccc1)[N-]c1ccccc1Cl (protonated)
O=C(CN(c1ccc([O-])cc1)S(=O)(=O)c1ccccc1)[N-]c1ccccc1Cl (3D coordinates assigned)
O=C(CN(c1ccc([O-])cc1)S(=O)(=O)c1ccccc1)[N-]c1ccccc1Cl (optimized conformer: 52.84254434674442 kcal/mol)

>  <smiles>  (38) 
O=C(CN(c1ccc(O)cc1)S(=O)(=O)c1ccccc1)Nc1ccccc1Cl

>  <score_type>  (38) 
oracle

>  <origin>  (38) 
adgpu

>  <m_score__min__energy>  (38) 
-10.82

>  <m_primary>  (38) 
energy

$$$$
38:0
     RDKit          3D

 49 52  0  0  0  0  0  0  0  0999 V2000
   -7.6450   25.6670  -29.4890 O   0  0  0  0  0  0  0  0  0  0  0  0
   -7.0540   24.7820  -30.1620 C   0  0  0  0  0  0  0  0  0  0  0  0
   -7.8370   23.8090  -30.8660 N   0  0  0  0  0  0  0  0  0  0  0  0
   -7.3330   22.6170  -31.4850 C   0  0  0  0  0  0  0  0  0  0  0  0
   -6.1040   22.6080  -32.1700 C   0  0  0  0  0  0  0  0  0  0  0  0
   -5.6390   21.4310  -32.7650 C   0  0  0  0  0  0  0  0  0  0  0  0
   -6.4010   20.2570  -32.6970 C   0  0  0  0  0  0  0  0  0  0  0  0
   -5.8090   18.7630  -33.4190 S   0  0  0  0  0  0  0  0  0  0  0  0
   -6.0550   18.7780  -34.9020 O   0  0  0  0  0  0  0  0  0  0  0  0
   -6.5620   17.6070  -32.8210 O   0  0  0  0  0  0  0  0  0  0  0  0
   -4.1020   18.5900  -33.0920 N   0  0  0  0  0  0  0  0  0  0  0  0
   -3.3450   19.6240  -33.8180 C   0  0  0  0  0  0  0  0  0  0  0  0
   -1.8740   19.6310  -33.3610 C   0  0  0  0  0  0  0  0  0  0  0  0
   -1.4280   18.2690  -32.8040 C   0  0  0  0  0  0  0  0  0  0  0  0
   -2.1140   17.1190  -33.5450 C   0  0  0  0  0  0  0  0  0  0  0  0
   -3.6540   17.2370  -33.4840 C   0  0  0  0  0  0  0  0  0  0  0  0
   -7.6340   20.2710  -32.0320 C   0  0  0  0  0  0  0  0  0  0  0  0
   -8.1010   21.4490  -31.4400 C   0  0  0  0  0  0  0  0  0  0  0  0
   -5.5800   24.7430  -30.1580 C   0  0  0  0  0  0  0  0  0  0  0  0
   -4.7760   24.1920  -29.1810 C   0  0  0  0  0  0  0  0  0  0  0  0
   -3.4890   24.4260  -29.6320 C   0  0  0  0  0  0  0  0  0  0  0  0
   -2.2210   24.0490  -28.9610 C   0  0  0  0  0  0  0  0  0  0  0  0
   -2.0910   22.7550  -28.4230 C   0  0  0  0  0  0  0  0  0  0  0  0
   -0.9100   22.3640  -27.7860 C   0  0  0  0  0  0  0  0  0  0  0  0
    0.1530   23.2600  -27.6710 C   0  0  0  0  0  0  0  0  0  0  0  0
    0.0350   24.5520  -28.1850 C   0  0  0  0  0  0  0  0  0  0  0  0
   -1.1440   24.9560  -28.8220 C   0  0  0  0  0  0  0  0  0  0  0  0
   -1.2370   26.2620  -29.2850 O   0  0  0  0  0  0  0  0  0  0  0  0
   -3.5440   25.1050  -30.7960 N   0  0  0  0  0  0  0  0  0  0  0  0
   -4.8140   25.2980  -31.1160 N   0  0  0  0  0  0  0  0  0  0  0  0
   -5.5072   23.5295  -32.2377 H   0  0  0  0  0  0  0  0  0  0  0  0
   -4.6715   21.4267  -33.2883 H   0  0  0  0  0  0  0  0  0  0  0  0
   -3.3885   19.4148  -34.8971 H   0  0  0  0  0  0  0  0  0  0  0  0
   -3.7898   20.6075  -33.6060 H   0  0  0  0  0  0  0  0  0  0  0  0
   -1.2378   19.8866  -34.2212 H   0  0  0  0  0  0  0  0  0  0  0  0
   -1.7765   20.3721  -32.5540 H   0  0  0  0  0  0  0  0  0  0  0  0
   -0.3385   18.1724  -32.9209 H   0  0  0  0  0  0  0  0  0  0  0  0
   -1.7091   18.2171  -31.7418 H   0  0  0  0  0  0  0  0  0  0  0  0
   -1.7968   17.1341  -34.5982 H   0  0  0  0  0  0  0  0  0  0  0  0
   -1.8230   16.1761  -33.0589 H   0  0  0  0  0  0  0  0  0  0  0  0
   -4.0655   17.0028  -34.4769 H   0  0  0  0  0  0  0  0  0  0  0  0
   -4.0138   16.5312  -32.7209 H   0  0  0  0  0  0  0  0  0  0  0  0
   -8.2368   19.3526  -31.9753 H   0  0  0  0  0  0  0  0  0  0  0  0
   -9.0786   21.4569  -30.9358 H   0  0  0  0  0  0  0  0  0  0  0  0
   -5.0868   23.6837  -28.2563 H   0  0  0  0  0  0  0  0  0  0  0  0
   -2.9269   22.0446  -28.5046 H   0  0  0  0  0  0  0  0  0  0  0  0
   -0.8186   21.3479  -27.3746 H   0  0  0  0  0  0  0  0  0  0  0  0
    1.0841   22.9481  -27.1752 H   0  0  0  0  0  0  0  0  0  0  0  0
    0.8737   25.2572  -28.0890 H   0  0  0  0  0  0  0  0  0  0  0  0
  1  2  2  0
  2  3  1  0
  3  4  1  0
  4  5  2  0
  5  6  1  0
  6  7  2  0
  7  8  1  0
  8  9  2  0
  8 10  2  0
  8 11  1  0
 11 12  1  0
 12 13  1  0
 13 14  1  0
 14 15  1  0
 15 16  1  0
  7 17  1  0
 17 18  2  0
  2 19  1  0
 19 20  1  0
 20 21  2  0
 21 22  1  0
 22 23  2  0
 23 24  1  0
 24 25  2  0
 25 26  1  0
 26 27  2  0
 27 28  1  0
 21 29  1  0
 29 30  1  0
 18  4  1  0
 30 19  2  0
 16 11  1  0
 27 22  1  0
  5 31  1  0
  6 32  1  0
 12 33  1  0
 12 34  1  0
 13 35  1  0
 13 36  1  0
 14 37  1  0
 14 38  1  0
 15 39  1  0
 15 40  1  0
 16 41  1  0
 16 42  1  0
 17 43  1  0
 18 44  1  0
 20 45  1  0
 23 46  1  0
 24 47  1  0
 25 48  1  0
 26 49  1  0
M  CHG  3   3  -1  28  -1  29  -1
M  END
>  <UniqueID>  (39) 
39

>  <SMILES>  (39) 
O=C([N-]c1ccc(S(=O)(=O)N2CCCCC2)cc1)c1cc(-c2ccccc2[O-])[n-]n1

>  <Energy>  (39) 
91.71502873579443

>  <Genealogy>  (39) 
O=C([N-]c1ccc(S(=O)(=O)N2CCCCC2)cc1)c1cc(-c2ccccc2[O-])[n-]n1 (protonated)
O=C([N-]c1ccc(S(=O)(=O)N2CCCCC2)cc1)c1cc(-c2ccccc2[O-])[n-]n1 (3D coordinates assigned)
O=C([N-]c1ccc(S(=O)(=O)N2CCCCC2)cc1)c1cc(-c2ccccc2[O-])[n-]n1 (nonaromatic ring conformer: 91.71502873579443 kcal/mol)

>  <smiles>  (39) 
O=C(Nc1ccc(S(=O)(=O)N2CCCCC2)cc1)c1cc(-c2ccccc2O)[nH]n1

>  <score_type>  (39) 
oracle

>  <origin>  (39) 
adgpu

>  <m_score__min__energy>  (39) 
-14.9

>  <m_primary>  (39) 
energy

$$$$
39:0
     RDKit          3D

 60 63  0  0  0  0  0  0  0  0999 V2000
   -8.5690   19.1960  -32.3610 C   0  0  0  0  0  0  0  0  0  0  0  0
   -7.1170   19.1770  -32.7350 C   0  0  0  0  0  0  0  0  0  0  0  0
   -6.5910   18.1130  -33.4790 C   0  0  0  0  0  0  0  0  0  0  0  0
   -5.2280   18.0730  -33.8020 C   0  0  0  0  0  0  0  0  0  0  0  0
   -4.6740   16.9010  -34.5540 C   0  0  0  0  0  0  0  0  0  0  0  0
   -4.3830   19.1060  -33.3660 C   0  0  0  0  0  0  0  0  0  0  0  0
   -4.8970   20.1660  -32.6130 C   0  0  0  0  0  0  0  0  0  0  0  0
   -3.8190   21.4560  -32.0760 S   0  0  0  0  0  0  0  0  0  0  0  0
   -4.3150   22.7480  -32.6690 O   0  0  0  0  0  0  0  0  0  0  0  0
   -3.8380   21.5770  -30.5750 O   0  0  0  0  0  0  0  0  0  0  0  0
   -2.1560   21.1330  -32.6040 C   0  0  0  0  0  0  0  0  0  0  0  0
   -1.9500   20.7260  -33.9330 C   0  0  0  0  0  0  0  0  0  0  0  0
   -0.6750   20.3820  -34.3830 C   0  0  0  0  0  0  0  0  0  0  0  0
    0.4130   20.4310  -33.5110 C   0  0  0  0  0  0  0  0  0  0  0  0
    0.2330   20.8420  -32.1900 C   0  0  0  0  0  0  0  0  0  0  0  0
   -1.0410   21.2160  -31.7220 C   0  0  0  0  0  0  0  0  0  0  0  0
   -1.1560   21.6820  -30.3240 C   0  0  0  0  0  0  0  0  0  0  0  0
   -1.3320   20.8530  -29.3960 O   0  0  0  0  0  0  0  0  0  0  0  0
   -1.0560   23.0860  -30.0440 N   0  0  0  0  0  0  0  0  0  0  0  0
   -0.6470   23.7270  -28.8220 C   0  0  0  0  0  0  0  0  0  0  0  0
    0.5840   23.4440  -28.1970 C   0  0  0  0  0  0  0  0  0  0  0  0
    0.9370   24.0900  -27.0090 C   0  0  0  0  0  0  0  0  0  0  0  0
    0.0530   24.9870  -26.4110 C   0  0  0  0  0  0  0  0  0  0  0  0
   -1.1850   25.2490  -26.9980 C   0  0  0  0  0  0  0  0  0  0  0  0
   -1.5360   24.6380  -28.2160 C   0  0  0  0  0  0  0  0  0  0  0  0
   -2.8120   24.8830  -28.8340 N   0  0  0  0  0  0  0  0  0  0  0  0
   -4.0370   24.1750  -28.5970 C   0  0  0  0  0  0  0  0  0  0  0  0
   -4.1780   23.5700  -27.5030 O   0  0  0  0  0  0  0  0  0  0  0  0
   -5.0730   24.0500  -29.6480 C   0  0  0  0  0  0  0  0  0  0  0  0
   -6.0960   23.1720  -29.4380 N   0  0  0  0  0  0  0  0  0  0  0  0
   -7.1090   23.0020  -30.3280 C   0  0  0  0  0  0  0  0  0  0  0  0
   -8.1840   22.0010  -30.0530 C   0  0  0  0  0  0  0  0  0  0  0  0
   -7.1390   23.7690  -31.4960 C   0  0  0  0  0  0  0  0  0  0  0  0
   -6.1040   24.6690  -31.7490 C   0  0  0  0  0  0  0  0  0  0  0  0
   -5.0490   24.8080  -30.8430 C   0  0  0  0  0  0  0  0  0  0  0  0
   -3.9980   25.6670  -31.1770 O   0  0  0  0  0  0  0  0  0  0  0  0
   -6.2610   20.1910  -32.2890 C   0  0  0  0  0  0  0  0  0  0  0  0
   -8.6654   19.1973  -31.2652 H   0  0  0  0  0  0  0  0  0  0  0  0
   -9.0416   20.1004  -32.7717 H   0  0  0  0  0  0  0  0  0  0  0  0
   -9.0651   18.3043  -32.7717 H   0  0  0  0  0  0  0  0  0  0  0  0
   -7.2541   17.3013  -33.8128 H   0  0  0  0  0  0  0  0  0  0  0  0
   -4.3161   16.1438  -33.8409 H   0  0  0  0  0  0  0  0  0  0  0  0
   -5.4617   16.4657  -35.1865 H   0  0  0  0  0  0  0  0  0  0  0  0
   -3.8377   17.2333  -35.1865 H   0  0  0  0  0  0  0  0  0  0  0  0
   -3.3125   19.0813  -33.6178 H   0  0  0  0  0  0  0  0  0  0  0  0
   -2.8030   20.6781  -34.6259 H   0  0  0  0  0  0  0  0  0  0  0  0
   -0.5272   20.0714  -35.4278 H   0  0  0  0  0  0  0  0  0  0  0  0
    1.4143   20.1451  -33.8656 H   0  0  0  0  0  0  0  0  0  0  0  0
    1.0950   20.8741  -31.5074 H   0  0  0  0  0  0  0  0  0  0  0  0
    1.2703   22.7111  -28.6464 H   0  0  0  0  0  0  0  0  0  0  0  0
    1.9141   23.8903  -26.5449 H   0  0  0  0  0  0  0  0  0  0  0  0
    0.3326   25.4897  -25.4734 H   0  0  0  0  0  0  0  0  0  0  0  0
   -1.8897   25.9360  -26.5067 H   0  0  0  0  0  0  0  0  0  0  0  0
   -8.3081   21.8855  -28.9661 H   0  0  0  0  0  0  0  0  0  0  0  0
   -9.1297   22.3477  -30.4952 H   0  0  0  0  0  0  0  0  0  0  0  0
   -7.9055   21.0331  -30.4952 H   0  0  0  0  0  0  0  0  0  0  0  0
   -7.9705   23.6639  -32.2085 H   0  0  0  0  0  0  0  0  0  0  0  0
   -6.1182   25.2735  -32.6679 H   0  0  0  0  0  0  0  0  0  0  0  0
   -3.1110   25.6730  -30.6900 H   0  0  0  0  0  0  0  0  0  0  0  0
   -6.6618   21.0142  -31.6793 H   0  0  0  0  0  0  0  0  0  0  0  0
  1  2  1  0
  2  3  2  0
  3  4  1  0
  4  5  1  0
  4  6  2  0
  6  7  1  0
  7  8  1  0
  8  9  2  0
  8 10  2  0
  8 11  1  0
 11 12  2  0
 12 13  1  0
 13 14  2  0
 14 15  1  0
 15 16  2  0
 16 17  1  0
 17 18  2  0
 17 19  1  0
 19 20  1  0
 20 21  2  0
 21 22  1  0
 22 23  2  0
 23 24  1  0
 24 25  2  0
 25 26  1  0
 26 27  1  0
 27 28  2  0
 27 29  1  0
 29 30  2  0
 30 31  1  0
 31 32  1  0
 31 33  2  0
 33 34  1  0
 34 35  2  0
 35 36  1  0
  7 37  2  0
 37  2  1  0
 16 11  1  0
 25 20  1  0
 35 29  1  0
  1 38  1  0
  1 39  1  0
  1 40  1  0
  3 41  1  0
  5 42  1  0
  5 43  1  0
  5 44  1  0
  6 45  1  0
 12 46  1  0
 13 47  1  0
 14 48  1  0
 15 49  1  0
 21 50  1  0
 22 51  1  0
 23 52  1  0
 24 53  1  0
 32 54  1  0
 32 55  1  0
 32 56  1  0
 33 57  1  0
 34 58  1  0
 36 59  1  0
 37 60  1  0
M  CHG  2  19  -1  26  -1
M  END
>  <UniqueID>  (40) 
40

>  <SMILES>  (40) 
Cc1cc(C)cc(S(=O)(=O)c2ccccc2C(=O)[N-]c2ccccc2[N-]C(=O)c2nc(C)ccc2O)c1

>  <Energy>  (40) 
79.03083497603198

>  <Genealogy>  (40) 
Cc1cc(C)cc(S(=O)(=O)c2ccccc2C(=O)[N-]c2ccccc2[N-]C(=O)c2nc(C)ccc2O)c1 (protonated)
Cc1cc(C)cc(S(=O)(=O)c2ccccc2C(=O)[N-]c2ccccc2[N-]C(=O)c2nc(C)ccc2O)c1 (3D coordinates assigned)
Cc1cc(C)cc(S(=O)(=O)c2ccccc2C(=O)[N-]c2ccccc2[N-]C(=O)c2nc(C)ccc2O)c1 (optimized conformer: 79.03083497603198 kcal/mol)

>  <smiles>  (40) 
Cc1cc(C)cc(S(=O)(=O)c2ccccc2C(=O)Nc2ccccc2NC(=O)c2nc(C)ccc2O)c1

>  <score_type>  (40) 
oracle

>  <origin>  (40) 
adgpu

>  <m_score__min__energy>  (40) 
-12.49

>  <m_primary>  (40) 
energy

$$$$
40:0
     RDKit          3D

 39 41  0  0  0  0  0  0  0  0999 V2000
   -3.4280   25.0160  -29.7360 N   0  0  0  0  0  0  0  0  0  0  0  0
   -3.3000   23.6080  -29.5640 C   0  0  0  0  0  0  0  0  0  0  0  0
   -3.9700   23.0320  -28.6650 O   0  0  0  0  0  0  0  0  0  0  0  0
   -2.3820   22.8270  -30.4200 C   0  0  0  0  0  0  0  0  0  0  0  0
   -1.0750   22.4680  -30.1390 C   0  0  0  0  0  0  0  0  0  0  0  0
   -0.1270   22.8190  -28.6590 S   0  0  0  0  0  0  0  0  0  0  0  0
   -0.5760   21.2620  -27.8900 C   0  0  0  0  0  0  0  0  0  0  0  0
   -1.6320   21.2100  -26.9700 C   0  0  0  0  0  0  0  0  0  0  0  0
   -1.9800   19.9940  -26.3720 C   0  0  0  0  0  0  0  0  0  0  0  0
   -1.2720   18.8300  -26.6880 C   0  0  0  0  0  0  0  0  0  0  0  0
   -0.2180   18.8790  -27.6080 C   0  0  0  0  0  0  0  0  0  0  0  0
    0.1310   20.0940  -28.2090 C   0  0  0  0  0  0  0  0  0  0  0  0
   -0.6210   21.7290  -31.2130 C   0  0  0  0  0  0  0  0  0  0  0  0
   -1.5800   21.6100  -32.1520 N   0  0  0  0  0  0  0  0  0  0  0  0
   -2.6530   22.2700  -31.6630 C   0  0  0  0  0  0  0  0  0  0  0  0
   -3.8630   22.4580  -32.4120 N   0  0  0  0  0  0  0  0  0  0  0  0
   -5.0030   21.5900  -32.3040 C   0  0  0  0  0  0  0  0  0  0  0  0
   -6.3140   22.0950  -32.3710 C   0  0  0  0  0  0  0  0  0  0  0  0
   -7.4080   21.2260  -32.3100 C   0  0  0  0  0  0  0  0  0  0  0  0
   -7.2080   19.8450  -32.1880 C   0  0  0  0  0  0  0  0  0  0  0  0
   -8.5820   18.7450  -32.1380 S   0  0  0  0  0  0  0  0  0  0  0  0
   -9.8640   19.3490  -33.1300 N   0  0  0  0  0  0  0  0  0  0  0  0
   -9.0780   18.6230  -30.7250 O   0  0  0  0  0  0  0  0  0  0  0  0
   -8.1590   17.3920  -32.6390 O   0  0  0  0  0  0  0  0  0  0  0  0
   -5.9030   19.3380  -32.1440 C   0  0  0  0  0  0  0  0  0  0  0  0
   -4.8080   20.2050  -32.2080 C   0  0  0  0  0  0  0  0  0  0  0  0
   -2.7350   25.6730  -29.3170 H   0  0  0  0  0  0  0  0  0  0  0  0
   -2.1873   22.1255  -26.7180 H   0  0  0  0  0  0  0  0  0  0  0  0
   -2.8112   19.9534  -25.6527 H   0  0  0  0  0  0  0  0  0  0  0  0
   -1.5435   17.8755  -26.2134 H   0  0  0  0  0  0  0  0  0  0  0  0
    0.3361   17.9624  -27.8587 H   0  0  0  0  0  0  0  0  0  0  0  0
    0.9597   20.1325  -28.9314 H   0  0  0  0  0  0  0  0  0  0  0  0
    0.3871   21.2959  -31.2916 H   0  0  0  0  0  0  0  0  0  0  0  0
   -3.8760   23.1910  -33.1550 H   0  0  0  0  0  0  0  0  0  0  0  0
   -6.4795   23.1778  -32.4718 H   0  0  0  0  0  0  0  0  0  0  0  0
   -8.4304   21.6289  -32.3581 H   0  0  0  0  0  0  0  0  0  0  0  0
   -9.4360   19.6550  -34.0340 H   0  0  0  0  0  0  0  0  0  0  0  0
   -5.7390   18.2536  -32.0588 H   0  0  0  0  0  0  0  0  0  0  0  0
   -3.7865   19.7976  -32.1829 H   0  0  0  0  0  0  0  0  0  0  0  0
  1  2  1  0
  2  3  2  0
  2  4  1  0
  4  5  1  0
  5  6  1  0
  6  7  1  0
  7  8  2  0
  8  9  1  0
  9 10  2  0
 10 11  1  0
 11 12  2  0
  5 13  2  0
 13 14  1  0
 14 15  1  0
 15 16  1  0
 16 17  1  0
 17 18  2  0
 18 19  1  0
 19 20  2  0
 20 21  1  0
 21 22  1  0
 21 23  2  0
 21 24  2  0
 20 25  1  0
 25 26  2  0
 15  4  2  0
 26 17  1  0
 12  7  1  0
  1 27  1  0
  8 28  1  0
  9 29  1  0
 10 30  1  0
 11 31  1  0
 12 32  1  0
 13 33  1  0
 16 34  1  0
 18 35  1  0
 19 36  1  0
 22 37  1  0
 25 38  1  0
 26 39  1  0
M  CHG  3   1  -1  14  -1  22  -1
M  END
>  <UniqueID>  (41) 
41

>  <SMILES>  (41) 
[NH-]C(=O)c1c(Sc2ccccc2)c[n-]c1Nc1ccc(S([NH-])(=O)=O)cc1

>  <Energy>  (41) 
67.56932400624792

>  <Genealogy>  (41) 
[NH-]C(=O)c1c(Sc2ccccc2)c[n-]c1Nc1ccc(S([NH-])(=O)=O)cc1 (protonated)
[NH-]C(=O)c1c(Sc2ccccc2)c[n-]c1Nc1ccc(S([NH-])(=O)=O)cc1 (3D coordinates assigned)
[NH-]C(=O)c1c(Sc2ccccc2)c[n-]c1Nc1ccc(S([NH-])(=O)=O)cc1 (optimized conformer: 67.56932400624792 kcal/mol)

>  <smiles>  (41) 
NC(=O)c1c(Sc2ccccc2)c[nH]c1Nc1ccc(S(N)(=O)=O)cc1

>  <score_type>  (41) 
oracle

>  <origin>  (41) 
adgpu

>  <m_score__min__energy>  (41) 
-10.73

>  <m_primary>  (41) 
energy

$$$$
41:0
     RDKit          3D

 62 65  0  0  0  0  0  0  0  0999 V2000
   -4.9840   20.4540  -31.9690 C   0  0  0  0  0  0  0  0  0  0  0  0
   -6.0970   21.4810  -31.9630 C   0  0  0  0  0  0  0  0  0  0  0  0
   -5.7950   22.8670  -31.9010 C   0  0  0  0  0  0  0  0  0  0  0  0
   -4.4480   23.3570  -31.9370 N   0  0  0  0  0  0  0  0  0  0  0  0
   -3.7370   23.8280  -30.7870 C   0  0  0  0  0  0  0  0  0  0  0  0
   -3.8900   25.0140  -30.3900 O   0  0  0  0  0  0  0  0  0  0  0  0
   -2.8280   22.9460  -30.1160 N   0  0  0  0  0  0  0  0  0  0  0  0
   -2.1900   23.2560  -28.8660 C   0  0  0  0  0  0  0  0  0  0  0  0
   -1.8770   22.3700  -27.8450 C   0  0  0  0  0  0  0  0  0  0  0  0
   -2.0410   20.8800  -27.8730 C   0  0  0  0  0  0  0  0  0  0  0  0
   -1.3510   23.0720  -26.8120 N   0  0  0  0  0  0  0  0  0  0  0  0
   -0.8650   22.5010  -25.5530 C   0  0  0  0  0  0  0  0  0  0  0  0
   -1.3140   24.3620  -27.1390 N   0  0  0  0  0  0  0  0  0  0  0  0
   -0.8000   25.4290  -26.3230 C   0  0  0  0  0  0  0  0  0  0  0  0
   -1.5060   25.8540  -25.1860 C   0  0  0  0  0  0  0  0  0  0  0  0
   -1.0080   26.8940  -24.3960 C   0  0  0  0  0  0  0  0  0  0  0  0
    0.1880   27.5280  -24.7470 C   0  0  0  0  0  0  0  0  0  0  0  0
    0.8890   27.1170  -25.8860 C   0  0  0  0  0  0  0  0  0  0  0  0
    0.3980   26.0720  -26.6730 C   0  0  0  0  0  0  0  0  0  0  0  0
   -1.8400   24.4980  -28.3740 C   0  0  0  0  0  0  0  0  0  0  0  0
   -1.9920   25.6000  -28.9620 O   0  0  0  0  0  0  0  0  0  0  0  0
   -6.8280   23.8010  -31.7750 C   0  0  0  0  0  0  0  0  0  0  0  0
   -8.1580   23.3900  -31.7840 C   0  0  0  0  0  0  0  0  0  0  0  0
   -8.4710   22.0400  -31.9230 C   0  0  0  0  0  0  0  0  0  0  0  0
   -7.4560   21.0770  -32.0240 C   0  0  0  0  0  0  0  0  0  0  0  0
   -7.9260   19.3740  -32.1920 S   0  0  0  0  0  0  0  0  0  0  0  0
   -9.1460   19.2830  -33.0680 O   0  0  0  0  0  0  0  0  0  0  0  0
   -8.2660   18.7990  -30.8440 O   0  0  0  0  0  0  0  0  0  0  0  0
   -6.6140   18.4710  -32.9080 N   0  0  0  0  0  0  0  0  0  0  0  0
   -6.9510   17.0380  -32.9700 C   0  0  0  0  0  0  0  0  0  0  0  0
   -5.7160   16.2110  -33.3840 C   0  0  0  0  0  0  0  0  0  0  0  0
   -4.6870   17.0460  -34.1670 C   0  0  0  0  0  0  0  0  0  0  0  0
   -5.3850   18.0710  -35.0660 C   0  0  0  0  0  0  0  0  0  0  0  0
   -6.3100   19.0040  -34.2530 C   0  0  0  0  0  0  0  0  0  0  0  0
   -4.7115   20.2026  -30.9334 H   0  0  0  0  0  0  0  0  0  0  0  0
   -5.3251   19.5467  -32.4890 H   0  0  0  0  0  0  0  0  0  0  0  0
   -4.1070   20.8668  -32.4890 H   0  0  0  0  0  0  0  0  0  0  0  0
   -2.5680   22.0590  -30.6010 H   0  0  0  0  0  0  0  0  0  0  0  0
   -2.0832   20.4963  -26.8429 H   0  0  0  0  0  0  0  0  0  0  0  0
   -2.9728   20.6235  -28.3983 H   0  0  0  0  0  0  0  0  0  0  0  0
   -1.1873   20.4270  -28.3983 H   0  0  0  0  0  0  0  0  0  0  0  0
   -1.3209   23.0367  -24.7073 H   0  0  0  0  0  0  0  0  0  0  0  0
   -1.1386   21.4367  -25.5033 H   0  0  0  0  0  0  0  0  0  0  0  0
    0.2293   22.6010  -25.5033 H   0  0  0  0  0  0  0  0  0  0  0  0
   -2.4545   25.3667  -24.9160 H   0  0  0  0  0  0  0  0  0  0  0  0
   -1.5570   27.2138  -23.4980 H   0  0  0  0  0  0  0  0  0  0  0  0
    0.5775   28.3495  -24.1278 H   0  0  0  0  0  0  0  0  0  0  0  0
    1.8287   27.6176  -26.1625 H   0  0  0  0  0  0  0  0  0  0  0  0
    0.9512   25.7525  -27.5685 H   0  0  0  0  0  0  0  0  0  0  0  0
   -6.5877   24.8691  -31.6679 H   0  0  0  0  0  0  0  0  0  0  0  0
   -8.9630   24.1326  -31.6812 H   0  0  0  0  0  0  0  0  0  0  0  0
   -9.5247   21.7258  -31.9539 H   0  0  0  0  0  0  0  0  0  0  0  0
   -7.2955   16.7038  -31.9802 H   0  0  0  0  0  0  0  0  0  0  0  0
   -7.7450   16.8908  -33.7169 H   0  0  0  0  0  0  0  0  0  0  0  0
   -5.2345   15.8168  -32.4770 H   0  0  0  0  0  0  0  0  0  0  0  0
   -6.0606   15.3998  -34.0421 H   0  0  0  0  0  0  0  0  0  0  0  0
   -4.0362   17.5752  -33.4553 H   0  0  0  0  0  0  0  0  0  0  0  0
   -4.0941   16.3694  -34.8001 H   0  0  0  0  0  0  0  0  0  0  0  0
   -4.6217   18.6790  -35.5737 H   0  0  0  0  0  0  0  0  0  0  0  0
   -6.0017   17.5254  -35.7954 H   0  0  0  0  0  0  0  0  0  0  0  0
   -5.8159   19.9805  -34.1417 H   0  0  0  0  0  0  0  0  0  0  0  0
   -7.2604   19.0906  -34.8000 H   0  0  0  0  0  0  0  0  0  0  0  0
  1  2  1  0
  2  3  2  0
  3  4  1  0
  4  5  1  0
  5  6  2  0
  5  7  1  0
  7  8  1  0
  8  9  2  0
  9 10  1  0
  9 11  1  0
 11 12  1  0
 11 13  1  0
 13 14  1  0
 14 15  2  0
 15 16  1  0
 16 17  2  0
 17 18  1  0
 18 19  2  0
 13 20  1  0
 20 21  2  0
  3 22  1  0
 22 23  2  0
 23 24  1  0
 24 25  2  0
 25 26  1  0
 26 27  2  0
 26 28  2  0
 26 29  1  0
 29 30  1  0
 30 31  1  0
 31 32  1  0
 32 33  1  0
 33 34  1  0
 25  2  1  0
 34 29  1  0
 20  8  1  0
 19 14  1  0
  1 35  1  0
  1 36  1  0
  1 37  1  0
  7 38  1  0
 10 39  1  0
 10 40  1  0
 10 41  1  0
 12 42  1  0
 12 43  1  0
 12 44  1  0
 15 45  1  0
 16 46  1  0
 17 47  1  0
 18 48  1  0
 19 49  1  0
 22 50  1  0
 23 51  1  0
 24 52  1  0
 30 53  1  0
 30 54  1  0
 31 55  1  0
 31 56  1  0
 32 57  1  0
 32 58  1  0
 33 59  1  0
 33 60  1  0
 34 61  1  0
 34 62  1  0
M  CHG  1   4  -1
M  END
>  <UniqueID>  (42) 
42

>  <SMILES>  (42) 
Cc1c([N-]C(=O)Nc2c(C)n(C)n(-c3ccccc3)c2=O)cccc1S(=O)(=O)N1CCCCC1

>  <Energy>  (42) 
120.59734392193455

>  <Genealogy>  (42) 
Cc1c([N-]C(=O)Nc2c(C)n(C)n(-c3ccccc3)c2=O)cccc1S(=O)(=O)N1CCCCC1 (protonated)
Cc1c([N-]C(=O)Nc2c(C)n(C)n(-c3ccccc3)c2=O)cccc1S(=O)(=O)N1CCCCC1 (3D coordinates assigned)
Cc1c([N-]C(=O)Nc2c(C)n(C)n(-c3ccccc3)c2=O)cccc1S(=O)(=O)N1CCCCC1 (nonaromatic ring conformer: 120.59734392193455 kcal/mol)

>  <smiles>  (42) 
Cc1c(NC(=O)Nc2c(C)n(C)n(-c3ccccc3)c2=O)cccc1S(=O)(=O)N1CCCCC1

>  <score_type>  (42) 
oracle

>  <origin>  (42) 
adgpu

>  <m_score__min__energy>  (42) 
-12.42

>  <m_primary>  (42) 
energy

$$$$
42:0
     RDKit          3D

 43 45  0  0  0  0  0  0  0  0999 V2000
   -8.9640   18.7250  -31.6090 C   0  0  0  0  0  0  0  0  0  0  0  0
   -7.5490   18.8840  -31.5810 O   0  0  0  0  0  0  0  0  0  0  0  0
   -6.6740   18.4100  -32.5720 C   0  0  0  0  0  0  0  0  0  0  0  0
   -6.5830   17.0410  -32.8940 C   0  0  0  0  0  0  0  0  0  0  0  0
   -5.7230   16.6090  -33.9060 C   0  0  0  0  0  0  0  0  0  0  0  0
   -4.9460   17.5320  -34.6070 C   0  0  0  0  0  0  0  0  0  0  0  0
   -5.0240   18.8910  -34.2940 C   0  0  0  0  0  0  0  0  0  0  0  0
   -5.8770   19.3370  -33.2730 C   0  0  0  0  0  0  0  0  0  0  0  0
   -5.9480   20.7380  -32.9570 N   0  0  0  0  0  0  0  0  0  0  0  0
   -4.7390   21.5680  -33.0230 C   0  0  0  0  0  0  0  0  0  0  0  0
   -4.6610   22.5410  -31.8260 C   0  0  0  0  0  0  0  0  0  0  0  0
   -5.9540   22.6690  -31.1190 N   0  0  0  0  0  0  0  0  0  0  0  0
   -5.9620   23.7420  -30.0990 C   0  0  0  0  0  0  0  0  0  0  0  0
   -4.6620   23.8680  -29.3230 C   0  0  0  0  0  0  0  0  0  0  0  0
   -4.4190   23.0260  -28.2250 C   0  0  0  0  0  0  0  0  0  0  0  0
   -3.2300   23.1310  -27.5000 C   0  0  0  0  0  0  0  0  0  0  0  0
   -2.2630   24.0690  -27.8680 C   0  0  0  0  0  0  0  0  0  0  0  0
   -1.0840   24.1690  -27.1400 O   0  0  0  0  0  0  0  0  0  0  0  0
   -2.4830   24.9030  -28.9690 C   0  0  0  0  0  0  0  0  0  0  0  0
   -1.5170   25.8320  -29.3400 O   0  0  0  0  0  0  0  0  0  0  0  0
   -3.6750   24.8020  -29.7020 C   0  0  0  0  0  0  0  0  0  0  0  0
   -3.8690   25.6310  -30.8020 O   0  0  0  0  0  0  0  0  0  0  0  0
   -7.0900   22.7340  -32.0540 C   0  0  0  0  0  0  0  0  0  0  0  0
   -7.2540   21.3670  -32.7240 C   0  0  0  0  0  0  0  0  0  0  0  0
   -9.3486   18.6818  -30.5793 H   0  0  0  0  0  0  0  0  0  0  0  0
   -9.4185   19.5777  -32.1347 H   0  0  0  0  0  0  0  0  0  0  0  0
   -9.2179   17.7927  -32.1347 H   0  0  0  0  0  0  0  0  0  0  0  0
   -7.1929   16.3084  -32.3450 H   0  0  0  0  0  0  0  0  0  0  0  0
   -5.6580   15.5386  -34.1511 H   0  0  0  0  0  0  0  0  0  0  0  0
   -4.2721   17.1894  -35.4060 H   0  0  0  0  0  0  0  0  0  0  0  0
   -4.4129   19.6162  -34.8514 H   0  0  0  0  0  0  0  0  0  0  0  0
   -3.8544   20.9143  -33.0118 H   0  0  0  0  0  0  0  0  0  0  0  0
   -4.7737   22.1594  -33.9498 H   0  0  0  0  0  0  0  0  0  0  0  0
   -3.9060   22.1697  -31.1174 H   0  0  0  0  0  0  0  0  0  0  0  0
   -4.3926   23.5335  -32.2171 H   0  0  0  0  0  0  0  0  0  0  0  0
   -6.1564   24.6989  -30.6054 H   0  0  0  0  0  0  0  0  0  0  0  0
   -6.7434   23.4815  -29.3699 H   0  0  0  0  0  0  0  0  0  0  0  0
   -5.1712   22.2780  -27.9340 H   0  0  0  0  0  0  0  0  0  0  0  0
   -3.0546   22.4728  -26.6363 H   0  0  0  0  0  0  0  0  0  0  0  0
   -8.0078   22.9890  -31.5040 H   0  0  0  0  0  0  0  0  0  0  0  0
   -6.9040   23.5048  -32.8164 H   0  0  0  0  0  0  0  0  0  0  0  0
   -7.8560   20.7165  -32.0725 H   0  0  0  0  0  0  0  0  0  0  0  0
   -7.7541   21.5084  -33.6935 H   0  0  0  0  0  0  0  0  0  0  0  0
  1  2  1  0
  2  3  1  0
  3  4  2  0
  4  5  1  0
  5  6  2  0
  6  7  1  0
  7  8  2  0
  8  9  1  0
  9 10  1  0
 10 11  1  0
 11 12  1  0
 12 13  1  0
 13 14  1  0
 14 15  2  0
 15 16  1  0
 16 17  2  0
 17 18  1  0
 17 19  1  0
 19 20  1  0
 19 21  2  0
 21 22  1  0
 12 23  1  0
 23 24  1  0
  8  3  1  0
 24  9  1  0
 21 14  1  0
  1 25  1  0
  1 26  1  0
  1 27  1  0
  4 28  1  0
  5 29  1  0
  6 30  1  0
  7 31  1  0
 10 32  1  0
 10 33  1  0
 11 34  1  0
 11 35  1  0
 13 36  1  0
 13 37  1  0
 15 38  1  0
 16 39  1  0
 23 40  1  0
 23 41  1  0
 24 42  1  0
 24 43  1  0
M  CHG  3  18  -1  20  -1  22  -1
M  END
>  <UniqueID>  (43) 
43

>  <SMILES>  (43) 
COc1ccccc1N1CCN(Cc2ccc([O-])c([O-])c2[O-])CC1

>  <Energy>  (43) 
58.463826589426674

>  <Genealogy>  (43) 
COc1ccccc1N1CCN(Cc2ccc([O-])c([O-])c2[O-])CC1 (protonated)
COc1ccccc1N1CCN(Cc2ccc([O-])c([O-])c2[O-])CC1 (3D coordinates assigned)
COc1ccccc1N1CCN(Cc2ccc([O-])c([O-])c2[O-])CC1 (nonaromatic ring conformer: 58.463826589426674 kcal/mol)

>  <smiles>  (43) 
COc1ccccc1N1CCN(Cc2ccc(O)c(O)c2O)CC1

>  <score_type>  (43) 
oracle

>  <origin>  (43) 
adgpu

>  <m_score__min__energy>  (43) 
-14.539999999999999

>  <m_primary>  (43) 
energy

$$$$
43:0
     RDKit          3D

 52 55  0  0  0  0  0  0  0  0999 V2000
   -3.5500   22.2170  -31.9460 N   0  0  0  0  0  0  0  0  0  0  0  0
   -2.8290   22.7750  -30.8390 C   0  0  0  0  0  0  0  0  0  0  0  0
   -1.7730   22.0490  -30.2710 C   0  0  0  0  0  0  0  0  0  0  0  0
   -1.0530   22.5710  -29.1960 C   0  0  0  0  0  0  0  0  0  0  0  0
   -1.3730   23.8290  -28.6800 C   0  0  0  0  0  0  0  0  0  0  0  0
   -0.4310   24.4870  -27.3450 S   0  0  0  0  0  0  0  0  0  0  0  0
    0.9470   24.8180  -27.8500 O   0  0  0  0  0  0  0  0  0  0  0  0
   -0.3070   23.4630  -26.2530 O   0  0  0  0  0  0  0  0  0  0  0  0
   -1.2230   25.9290  -26.7460 N   0  0  0  0  0  0  0  0  0  0  0  0
   -1.8350   25.7120  -25.4090 C   0  0  0  0  0  0  0  0  0  0  0  0
   -1.2290   26.5790  -24.2920 C   0  0  0  0  0  0  0  0  0  0  0  0
    0.2950   26.6060  -24.3960 C   0  0  0  0  0  0  0  0  0  0  0  0
    0.7710   27.1070  -25.7710 C   0  0  0  0  0  0  0  0  0  0  0  0
   -0.3450   27.1130  -26.8330 C   0  0  0  0  0  0  0  0  0  0  0  0
   -2.4200   24.5670  -29.2480 C   0  0  0  0  0  0  0  0  0  0  0  0
   -3.1730   24.0360  -30.3120 C   0  0  0  0  0  0  0  0  0  0  0  0
   -4.2440   24.7820  -30.9140 N   0  0  0  0  0  0  0  0  0  0  0  0
   -5.6320   24.7350  -30.5610 C   0  0  0  0  0  0  0  0  0  0  0  0
   -6.1180   25.5530  -29.7330 O   0  0  0  0  0  0  0  0  0  0  0  0
   -6.4810   23.6840  -31.1320 C   0  0  0  0  0  0  0  0  0  0  0  0
   -7.8330   23.7810  -31.3920 C   0  0  0  0  0  0  0  0  0  0  0  0
   -8.2020   22.5610  -31.9200 C   0  0  0  0  0  0  0  0  0  0  0  0
   -7.0470   21.7940  -31.9510 C   0  0  0  0  0  0  0  0  0  0  0  0
   -6.9140   20.4000  -32.4350 C   0  0  0  0  0  0  0  0  0  0  0  0
   -5.9380   20.0910  -33.4000 C   0  0  0  0  0  0  0  0  0  0  0  0
   -5.8020   18.7840  -33.8760 C   0  0  0  0  0  0  0  0  0  0  0  0
   -6.6390   17.7720  -33.4000 C   0  0  0  0  0  0  0  0  0  0  0  0
   -6.4690   16.1340  -34.0000 Cl  0  0  0  0  0  0  0  0  0  0  0  0
   -7.6140   18.0690  -32.4420 C   0  0  0  0  0  0  0  0  0  0  0  0
   -7.7520   19.3730  -31.9610 C   0  0  0  0  0  0  0  0  0  0  0  0
   -6.0420   22.4950  -31.4730 O   0  0  0  0  0  0  0  0  0  0  0  0
   -4.3960   22.6990  -32.3260 H   0  0  0  0  0  0  0  0  0  0  0  0
   -3.2550   21.3240  -32.3980 H   0  0  0  0  0  0  0  0  0  0  0  0
   -1.5101   21.0605  -30.6758 H   0  0  0  0  0  0  0  0  0  0  0  0
   -0.2306   21.9900  -28.7533 H   0  0  0  0  0  0  0  0  0  0  0  0
   -2.9087   25.9405  -25.4795 H   0  0  0  0  0  0  0  0  0  0  0  0
   -1.6403   24.6639  -25.1376 H   0  0  0  0  0  0  0  0  0  0  0  0
   -1.6153   27.6050  -24.3815 H   0  0  0  0  0  0  0  0  0  0  0  0
   -1.5095   26.1491  -23.3191 H   0  0  0  0  0  0  0  0  0  0  0  0
    0.6921   27.2743  -23.6177 H   0  0  0  0  0  0  0  0  0  0  0  0
    0.6625   25.5777  -24.2636 H   0  0  0  0  0  0  0  0  0  0  0  0
    1.1511   28.1329  -25.6571 H   0  0  0  0  0  0  0  0  0  0  0  0
    1.5511   26.4144  -26.1198 H   0  0  0  0  0  0  0  0  0  0  0  0
   -0.9576   28.0160  -26.6941 H   0  0  0  0  0  0  0  0  0  0  0  0
    0.1377   27.0959  -27.8213 H   0  0  0  0  0  0  0  0  0  0  0  0
   -2.6552   25.5688  -28.8594 H   0  0  0  0  0  0  0  0  0  0  0  0
   -8.4822   24.6512  -31.2148 H   0  0  0  0  0  0  0  0  0  0  0  0
   -9.2070   22.2584  -32.2492 H   0  0  0  0  0  0  0  0  0  0  0  0
   -5.2776   20.8833  -33.7824 H   0  0  0  0  0  0  0  0  0  0  0  0
   -5.0334   18.5515  -34.6278 H   0  0  0  0  0  0  0  0  0  0  0  0
   -8.2740   17.2732  -32.0663 H   0  0  0  0  0  0  0  0  0  0  0  0
   -8.5204   19.5989  -31.2070 H   0  0  0  0  0  0  0  0  0  0  0  0
  1  2  1  0
  2  3  2  0
  3  4  1  0
  4  5  2  0
  5  6  1  0
  6  7  2  0
  6  8  2  0
  6  9  1  0
  9 10  1  0
 10 11  1  0
 11 12  1  0
 12 13  1  0
 13 14  1  0
  5 15  1  0
 15 16  2  0
 16 17  1  0
 17 18  1  0
 18 19  2  0
 18 20  1  0
 20 21  2  0
 21 22  1  0
 22 23  2  0
 23 24  1  0
 24 25  2  0
 25 26  1  0
 26 27  2  0
 27 28  1  0
 27 29  1  0
 29 30  2  0
 23 31  1  0
 16  2  1  0
 31 20  1  0
 14  9  1  0
 30 24  1  0
  1 32  1  0
  1 33  1  0
  3 34  1  0
  4 35  1  0
 10 36  1  0
 10 37  1  0
 11 38  1  0
 11 39  1  0
 12 40  1  0
 12 41  1  0
 13 42  1  0
 13 43  1  0
 14 44  1  0
 14 45  1  0
 15 46  1  0
 21 47  1  0
 22 48  1  0
 25 49  1  0
 26 50  1  0
 29 51  1  0
 30 52  1  0
M  CHG  1  17  -1
M  END
>  <UniqueID>  (44) 
44

>  <SMILES>  (44) 
Nc1ccc(S(=O)(=O)N2CCCCC2)cc1[N-]C(=O)c1ccc(-c2ccc(Cl)cc2)o1

>  <Energy>  (44) 
91.73730282224997

>  <Genealogy>  (44) 
Nc1ccc(S(=O)(=O)N2CCCCC2)cc1[N-]C(=O)c1ccc(-c2ccc(Cl)cc2)o1 (protonated)
Nc1ccc(S(=O)(=O)N2CCCCC2)cc1[N-]C(=O)c1ccc(-c2ccc(Cl)cc2)o1 (3D coordinates assigned)
Nc1ccc(S(=O)(=O)N2CCCCC2)cc1[N-]C(=O)c1ccc(-c2ccc(Cl)cc2)o1 (nonaromatic ring conformer: 91.73730282224997 kcal/mol)

>  <smiles>  (44) 
Nc1ccc(S(=O)(=O)N2CCCCC2)cc1NC(=O)c1ccc(-c2ccc(Cl)cc2)o1

>  <score_type>  (44) 
oracle

>  <origin>  (44) 
adgpu

>  <m_score__min__energy>  (44) 
-11.93

>  <m_primary>  (44) 
energy

$$$$
44:0
     RDKit          3D

 38 39  0  0  0  0  0  0  0  0999 V2000
   -8.1840   23.3520  -31.7050 C   0  0  0  0  0  0  0  0  0  0  0  0
   -8.1220   21.8720  -31.9480 C   0  0  0  0  0  0  0  0  0  0  0  0
   -7.0460   21.3120  -32.6550 C   0  0  0  0  0  0  0  0  0  0  0  0
   -6.9750   19.9250  -32.8590 C   0  0  0  0  0  0  0  0  0  0  0  0
   -5.6310   19.2130  -33.7500 S   0  0  0  0  0  0  0  0  0  0  0  0
   -5.2180   17.9120  -33.1180 O   0  0  0  0  0  0  0  0  0  0  0  0
   -6.0850   18.9380  -35.1560 O   0  0  0  0  0  0  0  0  0  0  0  0
   -4.2630   20.2900  -33.7980 N   0  0  0  0  0  0  0  0  0  0  0  0
   -3.1980   19.8630  -32.8810 C   0  0  0  0  0  0  0  0  0  0  0  0
   -3.1760   20.6720  -31.6170 C   0  0  0  0  0  0  0  0  0  0  0  0
   -4.1740   21.5000  -31.2440 N   0  0  0  0  0  0  0  0  0  0  0  0
   -3.9180   22.1030  -30.0500 C   0  0  0  0  0  0  0  0  0  0  0  0
   -4.8600   23.0960  -29.4380 C   0  0  0  0  0  0  0  0  0  0  0  0
   -4.9970   24.5730  -30.4360 S   0  0  0  0  0  0  0  0  0  0  0  0
   -6.2470   25.6560  -29.7740 C   0  0  0  0  0  0  0  0  0  0  0  0
   -5.3850   24.1820  -31.8340 O   0  0  0  0  0  0  0  0  0  0  0  0
   -3.6780   25.2910  -30.4740 O   0  0  0  0  0  0  0  0  0  0  0  0
   -2.6950   21.7670  -29.4730 C   0  0  0  0  0  0  0  0  0  0  0  0
   -1.9310   20.6640  -30.4870 S   0  0  0  0  0  0  0  0  0  0  0  0
   -7.9820   19.0980  -32.3440 C   0  0  0  0  0  0  0  0  0  0  0  0
   -9.0540   19.6500  -31.6400 C   0  0  0  0  0  0  0  0  0  0  0  0
   -9.1250   21.0310  -31.4370 C   0  0  0  0  0  0  0  0  0  0  0  0
  -10.1710   21.5480  -30.7440 F   0  0  0  0  0  0  0  0  0  0  0  0
   -8.1921   23.5458  -30.6222 H   0  0  0  0  0  0  0  0  0  0  0  0
   -7.3053   23.8350  -32.1573 H   0  0  0  0  0  0  0  0  0  0  0  0
   -9.1000   23.7598  -32.1573 H   0  0  0  0  0  0  0  0  0  0  0  0
   -6.2538   21.9641  -33.0515 H   0  0  0  0  0  0  0  0  0  0  0  0
   -4.5870   21.2550  -33.5580 H   0  0  0  0  0  0  0  0  0  0  0  0
   -3.3573   18.8060  -32.6217 H   0  0  0  0  0  0  0  0  0  0  0  0
   -2.2350   20.0108  -33.3918 H   0  0  0  0  0  0  0  0  0  0  0  0
   -5.8542   22.6346  -29.3446 H   0  0  0  0  0  0  0  0  0  0  0  0
   -4.4660   23.3820  -28.4516 H   0  0  0  0  0  0  0  0  0  0  0  0
   -6.2130   25.6265  -28.6749 H   0  0  0  0  0  0  0  0  0  0  0  0
   -6.0618   26.6839  -30.1192 H   0  0  0  0  0  0  0  0  0  0  0  0
   -7.2380   25.3263  -30.1192 H   0  0  0  0  0  0  0  0  0  0  0  0
   -2.2993   22.1545  -28.5226 H   0  0  0  0  0  0  0  0  0  0  0  0
   -7.9278   18.0097  -32.4949 H   0  0  0  0  0  0  0  0  0  0  0  0
   -9.8449   18.9961  -31.2440 H   0  0  0  0  0  0  0  0  0  0  0  0
  1  2  1  0
  2  3  2  0
  3  4  1  0
  4  5  1  0
  5  6  2  0
  5  7  2  0
  5  8  1  0
  8  9  1  0
  9 10  1  0
 10 11  2  0
 11 12  1  0
 12 13  1  0
 13 14  1  0
 14 15  1  0
 14 16  2  0
 14 17  2  0
 12 18  2  0
 18 19  1  0
  4 20  2  0
 20 21  1  0
 21 22  2  0
 22 23  1  0
 22  2  1  0
 19 10  1  0
  1 24  1  0
  1 25  1  0
  1 26  1  0
  3 27  1  0
  8 28  1  0
  9 29  1  0
  9 30  1  0
 13 31  1  0
 13 32  1  0
 15 33  1  0
 15 34  1  0
 15 35  1  0
 18 36  1  0
 20 37  1  0
 21 38  1  0
M  END
>  <UniqueID>  (45) 
45

>  <SMILES>  (45) 
Cc1cc(S(=O)(=O)NCc2nc(CS(C)(=O)=O)cs2)ccc1F

>  <Energy>  (45) 
52.69647900321915

>  <Genealogy>  (45) 
Cc1cc(S(=O)(=O)NCc2nc(CS(C)(=O)=O)cs2)ccc1F (3D coordinates assigned)
Cc1cc(S(=O)(=O)NCc2nc(CS(C)(=O)=O)cs2)ccc1F (optimized conformer: 52.69647900321915 kcal/mol)

>  <smiles>  (45) 
Cc1cc(S(=O)(=O)NCc2nc(CS(C)(=O)=O)cs2)ccc1F

>  <score_type>  (45) 
oracle

>  <origin>  (45) 
adgpu

>  <m_score__min__energy>  (45) 
-8.7300000000000004

>  <m_primary>  (45) 
energy

$$$$
45:0
     RDKit          3D

 66 69  0  0  0  0  0  0  0  0999 V2000
    0.2180   22.4190  -23.8160 C   0  0  0  0  0  0  0  0  0  0  0  0
    0.8700   23.4400  -24.7080 C   0  0  0  0  0  0  0  0  0  0  0  0
    1.9180   24.2290  -24.2070 C   0  0  0  0  0  0  0  0  0  0  0  0
    2.4990   25.2190  -25.0000 C   0  0  0  0  0  0  0  0  0  0  0  0
    2.0450   25.4300  -26.3040 C   0  0  0  0  0  0  0  0  0  0  0  0
    1.0120   24.6460  -26.8310 C   0  0  0  0  0  0  0  0  0  0  0  0
    0.5490   24.9270  -28.1580 N   0  0  0  0  0  0  0  0  0  0  0  0
   -0.7450   25.4480  -28.4650 C   0  0  0  0  0  0  0  0  0  0  0  0
   -1.1360   26.4940  -27.8840 O   0  0  0  0  0  0  0  0  0  0  0  0
   -1.5780   24.7730  -29.4180 N   0  0  0  0  0  0  0  0  0  0  0  0
   -2.8210   24.0890  -29.1930 C   0  0  0  0  0  0  0  0  0  0  0  0
   -2.9400   23.0150  -28.2930 C   0  0  0  0  0  0  0  0  0  0  0  0
   -4.1740   22.3880  -28.1070 C   0  0  0  0  0  0  0  0  0  0  0  0
   -5.2980   22.8230  -28.8120 C   0  0  0  0  0  0  0  0  0  0  0  0
   -5.1990   23.8950  -29.7110 C   0  0  0  0  0  0  0  0  0  0  0  0
   -6.4010   24.3440  -30.4450 C   0  0  0  0  0  0  0  0  0  0  0  0
   -6.6180   25.5810  -30.5550 O   0  0  0  0  0  0  0  0  0  0  0  0
   -7.3320   23.4040  -31.0180 N   0  0  0  0  0  0  0  0  0  0  0  0
   -7.9610   23.6850  -32.3120 C   0  0  0  0  0  0  0  0  0  0  0  0
   -9.3880   23.1260  -32.3270 C   0  0  0  0  0  0  0  0  0  0  0  0
   -9.4030   21.7660  -31.9340 O   0  0  0  0  0  0  0  0  0  0  0  0
   -8.9920   21.6530  -30.5860 C   0  0  0  0  0  0  0  0  0  0  0  0
   -7.5290   22.0740  -30.4290 C   0  0  0  0  0  0  0  0  0  0  0  0
   -3.9610   24.5470  -29.8730 C   0  0  0  0  0  0  0  0  0  0  0  0
   -3.8620   25.6680  -30.6920 O   0  0  0  0  0  0  0  0  0  0  0  0
    0.3920   23.6700  -26.0170 C   0  0  0  0  0  0  0  0  0  0  0  0
   -0.7610   22.9600  -26.4920 N   0  0  0  0  0  0  0  0  0  0  0  0
   -0.7670   21.5510  -26.7980 C   0  0  0  0  0  0  0  0  0  0  0  0
   -1.8780   20.7860  -26.4070 C   0  0  0  0  0  0  0  0  0  0  0  0
   -1.9400   19.4210  -26.6880 C   0  0  0  0  0  0  0  0  0  0  0  0
   -0.9000   18.8000  -27.3780 C   0  0  0  0  0  0  0  0  0  0  0  0
    0.2160   19.5410  -27.7910 C   0  0  0  0  0  0  0  0  0  0  0  0
    1.3070   18.8620  -28.5220 C   0  0  0  0  0  0  0  0  0  0  0  0
    2.0630   18.0750  -27.8910 O   0  0  0  0  0  0  0  0  0  0  0  0
    1.5100   19.0720  -29.9340 N   0  0  0  0  0  0  0  0  0  0  0  0
    2.8390   18.8340  -30.5050 C   0  0  0  0  0  0  0  0  0  0  0  0
    0.3720   19.3820  -30.8070 C   0  0  0  0  0  0  0  0  0  0  0  0
    0.3020   20.9100  -27.4690 C   0  0  0  0  0  0  0  0  0  0  0  0
    1.4630   21.6080  -27.7870 O   0  0  0  0  0  0  0  0  0  0  0  0
    0.3900   22.6884  -22.7635 H   0  0  0  0  0  0  0  0  0  0  0  0
   -0.8634   22.3944  -24.0162 H   0  0  0  0  0  0  0  0  0  0  0  0
    0.6506   21.4276  -24.0162 H   0  0  0  0  0  0  0  0  0  0  0  0
    2.2833   24.0654  -23.1824 H   0  0  0  0  0  0  0  0  0  0  0  0
    3.3166   25.8349  -24.5973 H   0  0  0  0  0  0  0  0  0  0  0  0
    2.5023   26.2176  -26.9210 H   0  0  0  0  0  0  0  0  0  0  0  0
   -2.0586   22.6678  -27.7339 H   0  0  0  0  0  0  0  0  0  0  0  0
   -4.2608   21.5480  -27.4022 H   0  0  0  0  0  0  0  0  0  0  0  0
   -6.2659   22.3225  -28.6616 H   0  0  0  0  0  0  0  0  0  0  0  0
   -7.9929   24.7725  -32.4742 H   0  0  0  0  0  0  0  0  0  0  0  0
   -7.3754   23.2084  -33.1120 H   0  0  0  0  0  0  0  0  0  0  0  0
  -10.0101   23.7085  -31.6316 H   0  0  0  0  0  0  0  0  0  0  0  0
   -9.7832   23.1999  -33.3509 H   0  0  0  0  0  0  0  0  0  0  0  0
   -9.6233   22.3012  -29.9605 H   0  0  0  0  0  0  0  0  0  0  0  0
   -9.0935   20.6036  -30.2723 H   0  0  0  0  0  0  0  0  0  0  0  0
   -7.2699   22.1051  -29.3604 H   0  0  0  0  0  0  0  0  0  0  0  0
   -6.8832   21.3477  -30.9442 H   0  0  0  0  0  0  0  0  0  0  0  0
   -1.5490   23.5420  -26.8510 H   0  0  0  0  0  0  0  0  0  0  0  0
   -2.7094   21.2690  -25.8727 H   0  0  0  0  0  0  0  0  0  0  0  0
   -2.8117   18.8332  -26.3643 H   0  0  0  0  0  0  0  0  0  0  0  0
   -0.9553   17.7239  -27.5993 H   0  0  0  0  0  0  0  0  0  0  0  0
    3.5691   18.7033  -29.6926 H   0  0  0  0  0  0  0  0  0  0  0  0
    2.8143   17.9260  -31.1254 H   0  0  0  0  0  0  0  0  0  0  0  0
    3.1309   19.6942  -31.1254 H   0  0  0  0  0  0  0  0  0  0  0  0
   -0.5077   19.6216  -30.1915 H   0  0  0  0  0  0  0  0  0  0  0  0
    0.6214   20.2449  -31.4419 H   0  0  0  0  0  0  0  0  0  0  0  0
    0.1492   18.5118  -31.4419 H   0  0  0  0  0  0  0  0  0  0  0  0
  1  2  1  0
  2  3  2  0
  3  4  1  0
  4  5  2  0
  5  6  1  0
  6  7  1  0
  7  8  1  0
  8  9  2  0
  8 10  1  0
 10 11  1  0
 11 12  2  0
 12 13  1  0
 13 14  2  0
 14 15  1  0
 15 16  1  0
 16 17  2  0
 16 18  1  0
 18 19  1  0
 19 20  1  0
 20 21  1  0
 21 22  1  0
 22 23  1  0
 15 24  2  0
 24 25  1  0
  6 26  2  0
 26 27  1  0
 27 28  1  0
 28 29  2  0
 29 30  1  0
 30 31  2  0
 31 32  1  0
 32 33  1  0
 33 34  2  0
 33 35  1  0
 35 36  1  0
 35 37  1  0
 32 38  2  0
 38 39  1  0
 26  2  1  0
 38 28  1  0
 24 11  1  0
 23 18  1  0
  1 40  1  0
  1 41  1  0
  1 42  1  0
  3 43  1  0
  4 44  1  0
  5 45  1  0
 12 46  1  0
 13 47  1  0
 14 48  1  0
 19 49  1  0
 19 50  1  0
 20 51  1  0
 20 52  1  0
 22 53  1  0
 22 54  1  0
 23 55  1  0
 23 56  1  0
 27 57  1  0
 29 58  1  0
 30 59  1  0
 31 60  1  0
 36 61  1  0
 36 62  1  0
 36 63  1  0
 37 64  1  0
 37 65  1  0
 37 66  1  0
M  CHG  4   7  -1  10  -1  25  -1  39  -1
M  END
>  <UniqueID>  (46) 
46

>  <SMILES>  (46) 
Cc1cccc([N-]C(=O)[N-]c2cccc(C(=O)N3CCOCC3)c2[O-])c1Nc1cccc(C(=O)N(C)C)c1[O-]

>  <Energy>  (46) 
99.55795831781573

>  <Genealogy>  (46) 
Cc1cccc([N-]C(=O)[N-]c2cccc(C(=O)N3CCOCC3)c2[O-])c1Nc1cccc(C(=O)N(C)C)c1[O-] (protonated)
Cc1cccc([N-]C(=O)[N-]c2cccc(C(=O)N3CCOCC3)c2[O-])c1Nc1cccc(C(=O)N(C)C)c1[O-] (3D coordinates assigned)
Cc1cccc([N-]C(=O)[N-]c2cccc(C(=O)N3CCOCC3)c2[O-])c1Nc1cccc(C(=O)N(C)C)c1[O-] (nonaromatic ring conformer: 99.55795831781573 kcal/mol)

>  <smiles>  (46) 
Cc1cccc(NC(=O)Nc2cccc(C(=O)N3CCOCC3)c2O)c1Nc1cccc(C(=O)N(C)C)c1O

>  <score_type>  (46) 
oracle

>  <origin>  (46) 
adgpu

>  <m_score__min__energy>  (46) 
-16.550000000000001

>  <m_primary>  (46) 
energy

$$$$
46:0
     RDKit          3D

 41 43  0  0  0  0  0  0  0  0999 V2000
   -2.4180   23.1670  -31.1000 O   0  0  0  0  0  0  0  0  0  0  0  0
   -2.9310   23.8090  -30.1460 C   0  0  0  0  0  0  0  0  0  0  0  0
   -4.2170   24.4250  -30.3110 N   0  0  0  0  0  0  0  0  0  0  0  0
   -5.4270   23.7810  -30.7390 C   0  0  0  0  0  0  0  0  0  0  0  0
   -5.8620   23.8180  -32.0740 C   0  0  0  0  0  0  0  0  0  0  0  0
   -7.0590   23.1990  -32.4420 C   0  0  0  0  0  0  0  0  0  0  0  0
   -7.8590   22.5600  -31.4800 C   0  0  0  0  0  0  0  0  0  0  0  0
   -9.1580   21.8920  -31.8880 C   0  0  0  0  0  0  0  0  0  0  0  0
   -9.0080   20.4760  -32.2970 N   0  0  0  0  0  0  0  0  0  0  0  0
   -9.0940   19.5170  -31.1770 C   0  0  0  0  0  0  0  0  0  0  0  0
   -8.6060   18.1310  -31.6260 C   0  0  0  0  0  0  0  0  0  0  0  0
   -7.2560   18.1110  -32.0750 O   0  0  0  0  0  0  0  0  0  0  0  0
   -6.7870   19.3670  -32.5500 C   0  0  0  0  0  0  0  0  0  0  0  0
   -7.8820   20.2130  -33.2210 C   0  0  0  0  0  0  0  0  0  0  0  0
   -7.4180   22.5230  -30.1460 C   0  0  0  0  0  0  0  0  0  0  0  0
   -6.2220   23.1430  -29.7790 C   0  0  0  0  0  0  0  0  0  0  0  0
   -2.2380   23.8840  -28.8320 C   0  0  0  0  0  0  0  0  0  0  0  0
   -2.3890   22.8330  -27.9030 C   0  0  0  0  0  0  0  0  0  0  0  0
   -1.7490   22.8810  -26.6610 C   0  0  0  0  0  0  0  0  0  0  0  0
   -0.9500   23.9730  -26.3270 C   0  0  0  0  0  0  0  0  0  0  0  0
   -0.7890   25.0230  -27.2330 C   0  0  0  0  0  0  0  0  0  0  0  0
   -1.4250   24.9880  -28.4780 C   0  0  0  0  0  0  0  0  0  0  0  0
   -1.2400   26.0560  -29.3490 O   0  0  0  0  0  0  0  0  0  0  0  0
   -5.2576   24.3365  -32.8328 H   0  0  0  0  0  0  0  0  0  0  0  0
   -7.3781   23.2120  -33.4946 H   0  0  0  0  0  0  0  0  0  0  0  0
   -9.8506   21.9334  -31.0344 H   0  0  0  0  0  0  0  0  0  0  0  0
   -9.5329   22.4377  -32.7665 H   0  0  0  0  0  0  0  0  0  0  0  0
   -8.4663   19.8716  -30.3462 H   0  0  0  0  0  0  0  0  0  0  0  0
  -10.1415   19.4400  -30.8503 H   0  0  0  0  0  0  0  0  0  0  0  0
   -8.6981   17.4395  -30.7755 H   0  0  0  0  0  0  0  0  0  0  0  0
   -9.2307   17.8351  -32.4816 H   0  0  0  0  0  0  0  0  0  0  0  0
   -6.3819   19.9329  -31.6981 H   0  0  0  0  0  0  0  0  0  0  0  0
   -6.0221   19.1608  -33.3132 H   0  0  0  0  0  0  0  0  0  0  0  0
   -7.4481   21.1729  -33.5377 H   0  0  0  0  0  0  0  0  0  0  0  0
   -8.2688   19.6534  -34.0854 H   0  0  0  0  0  0  0  0  0  0  0  0
   -8.0190   22.0022  -29.3861 H   0  0  0  0  0  0  0  0  0  0  0  0
   -5.9016   23.1301  -28.7268 H   0  0  0  0  0  0  0  0  0  0  0  0
   -3.0169   21.9667  -28.1586 H   0  0  0  0  0  0  0  0  0  0  0  0
   -1.8763   22.0550  -25.9458 H   0  0  0  0  0  0  0  0  0  0  0  0
   -0.4463   24.0076  -25.3497 H   0  0  0  0  0  0  0  0  0  0  0  0
   -0.1578   25.8834  -26.9658 H   0  0  0  0  0  0  0  0  0  0  0  0
  1  2  2  0
  2  3  1  0
  3  4  1  0
  4  5  2  0
  5  6  1  0
  6  7  2  0
  7  8  1  0
  8  9  1  0
  9 10  1  0
 10 11  1  0
 11 12  1  0
 12 13  1  0
 13 14  1  0
  7 15  1  0
 15 16  2  0
  2 17  1  0
 17 18  2  0
 18 19  1  0
 19 20  2  0
 20 21  1  0
 21 22  2  0
 22 23  1  0
 16  4  1  0
 22 17  1  0
 14  9  1  0
  5 24  1  0
  6 25  1  0
  8 26  1  0
  8 27  1  0
 10 28  1  0
 10 29  1  0
 11 30  1  0
 11 31  1  0
 13 32  1  0
 13 33  1  0
 14 34  1  0
 14 35  1  0
 15 36  1  0
 16 37  1  0
 18 38  1  0
 19 39  1  0
 20 40  1  0
 21 41  1  0
M  CHG  2   3  -1  23  -1
M  END
>  <UniqueID>  (47) 
47

>  <SMILES>  (47) 
O=C([N-]c1ccc(CN2CCOCC2)cc1)c1ccccc1[O-]

>  <Energy>  (47) 
65.62434997743254

>  <Genealogy>  (47) 
O=C([N-]c1ccc(CN2CCOCC2)cc1)c1ccccc1[O-] (protonated)
O=C([N-]c1ccc(CN2CCOCC2)cc1)c1ccccc1[O-] (3D coordinates assigned)
O=C([N-]c1ccc(CN2CCOCC2)cc1)c1ccccc1[O-] (nonaromatic ring conformer: 65.62434997743254 kcal/mol)

>  <smiles>  (47) 
O=C(Nc1ccc(CN2CCOCC2)cc1)c1ccccc1O

>  <score_type>  (47) 
oracle

>  <origin>  (47) 
adgpu

>  <m_score__min__energy>  (47) 
-12.18

>  <m_primary>  (47) 
energy

$$$$
47:0
     RDKit          3D

 51 53  0  0  0  0  0  0  0  0999 V2000
   -5.1010   24.1100  -29.2970 C   0  0  0  0  0  0  0  0  0  0  0  0
   -3.9880   24.8400  -29.9860 C   0  0  0  0  0  0  0  0  0  0  0  0
   -4.2690   25.6490  -30.9080 O   0  0  0  0  0  0  0  0  0  0  0  0
   -2.6110   24.6140  -29.6580 N   0  0  0  0  0  0  0  0  0  0  0  0
   -2.0270   23.3820  -29.2130 C   0  0  0  0  0  0  0  0  0  0  0  0
   -1.8780   23.0880  -27.8500 C   0  0  0  0  0  0  0  0  0  0  0  0
   -1.2990   21.8840  -27.4500 C   0  0  0  0  0  0  0  0  0  0  0  0
   -0.8420   20.9630  -28.3990 C   0  0  0  0  0  0  0  0  0  0  0  0
   -0.3230   19.7510  -27.9400 O   0  0  0  0  0  0  0  0  0  0  0  0
   -0.9320   21.2770  -29.7750 C   0  0  0  0  0  0  0  0  0  0  0  0
   -0.3540   20.1660  -31.0250 S   0  0  0  0  0  0  0  0  0  0  0  0
    1.0830   20.4500  -31.3570 O   0  0  0  0  0  0  0  0  0  0  0  0
   -0.4520   18.7510  -30.5260 O   0  0  0  0  0  0  0  0  0  0  0  0
   -1.3050   20.3470  -32.4580 N   0  0  0  0  0  0  0  0  0  0  0  0
   -2.6880   20.6810  -32.3590 C   0  0  0  0  0  0  0  0  0  0  0  0
   -3.1580   21.8690  -32.9280 C   0  0  0  0  0  0  0  0  0  0  0  0
   -4.4880   22.2550  -32.7460 C   0  0  0  0  0  0  0  0  0  0  0  0
   -5.3570   21.4560  -31.9870 C   0  0  0  0  0  0  0  0  0  0  0  0
   -7.0090   21.9860  -31.6760 S   0  0  0  0  0  0  0  0  0  0  0  0
   -7.2210   22.0650  -30.1890 O   0  0  0  0  0  0  0  0  0  0  0  0
   -7.2010   23.3660  -32.2410 O   0  0  0  0  0  0  0  0  0  0  0  0
   -8.1960   20.9010  -32.3680 N   0  0  0  0  0  0  0  0  0  0  0  0
   -9.0420   20.2330  -31.3490 C   0  0  0  0  0  0  0  0  0  0  0  0
   -9.0340   18.7010  -31.4400 C   0  0  0  0  0  0  0  0  0  0  0  0
   -7.6080   18.1940  -31.6190 C   0  0  0  0  0  0  0  0  0  0  0  0
   -6.9820   18.7390  -32.9090 C   0  0  0  0  0  0  0  0  0  0  0  0
   -7.6450   20.0330  -33.4290 C   0  0  0  0  0  0  0  0  0  0  0  0
   -4.8980   20.2370  -31.4690 C   0  0  0  0  0  0  0  0  0  0  0  0
   -3.5670   19.8530  -31.6510 C   0  0  0  0  0  0  0  0  0  0  0  0
   -1.5310   22.4860  -30.1660 C   0  0  0  0  0  0  0  0  0  0  0  0
   -4.9746   24.1929  -28.2074 H   0  0  0  0  0  0  0  0  0  0  0  0
   -6.0652   24.5517  -29.5889 H   0  0  0  0  0  0  0  0  0  0  0  0
   -5.0800   23.0497  -29.5889 H   0  0  0  0  0  0  0  0  0  0  0  0
   -2.2192   23.8099  -27.0934 H   0  0  0  0  0  0  0  0  0  0  0  0
   -1.2007   21.6563  -26.3783 H   0  0  0  0  0  0  0  0  0  0  0  0
   -0.1270   18.9650  -28.5450 H   0  0  0  0  0  0  0  0  0  0  0  0
   -2.4791   22.5005  -33.5199 H   0  0  0  0  0  0  0  0  0  0  0  0
   -4.8553   23.1878  -33.1988 H   0  0  0  0  0  0  0  0  0  0  0  0
   -8.6772   20.5225  -30.3525 H   0  0  0  0  0  0  0  0  0  0  0  0
  -10.0770   20.5578  -31.5312 H   0  0  0  0  0  0  0  0  0  0  0  0
   -9.4566   18.2795  -30.5160 H   0  0  0  0  0  0  0  0  0  0  0  0
   -9.6381   18.3887  -32.3046 H   0  0  0  0  0  0  0  0  0  0  0  0
   -7.0015   18.5192  -30.7609 H   0  0  0  0  0  0  0  0  0  0  0  0
   -7.6346   17.0961  -31.6822 H   0  0  0  0  0  0  0  0  0  0  0  0
   -5.9192   18.9477  -32.7168 H   0  0  0  0  0  0  0  0  0  0  0  0
   -7.1288   17.9719  -33.6836 H   0  0  0  0  0  0  0  0  0  0  0  0
   -6.8903   20.6070  -33.9867 H   0  0  0  0  0  0  0  0  0  0  0  0
   -8.4942   19.7227  -34.0556 H   0  0  0  0  0  0  0  0  0  0  0  0
   -5.5876   19.5809  -30.9177 H   0  0  0  0  0  0  0  0  0  0  0  0
   -3.2093   18.8986  -31.2373 H   0  0  0  0  0  0  0  0  0  0  0  0
   -1.6111   22.7313  -31.2353 H   0  0  0  0  0  0  0  0  0  0  0  0
  1  2  1  0
  2  3  2  0
  2  4  1  0
  4  5  1  0
  5  6  2  0
  6  7  1  0
  7  8  2  0
  8  9  1  0
  8 10  1  0
 10 11  1  0
 11 12  2  0
 11 13  2  0
 11 14  1  0
 14 15  1  0
 15 16  2  0
 16 17  1  0
 17 18  2  0
 18 19  1  0
 19 20  2  0
 19 21  2  0
 19 22  1  0
 22 23  1  0
 23 24  1  0
 24 25  1  0
 25 26  1  0
 26 27  1  0
 18 28  1  0
 28 29  2  0
 10 30  2  0
 30  5  1  0
 29 15  1  0
 27 22  1  0
  1 31  1  0
  1 32  1  0
  1 33  1  0
  6 34  1  0
  7 35  1  0
  9 36  1  0
 16 37  1  0
 17 38  1  0
 23 39  1  0
 23 40  1  0
 24 41  1  0
 24 42  1  0
 25 43  1  0
 25 44  1  0
 26 45  1  0
 26 46  1  0
 27 47  1  0
 27 48  1  0
 28 49  1  0
 29 50  1  0
 30 51  1  0
M  CHG  2   4  -1  14  -1
M  END
>  <UniqueID>  (48) 
48

>  <SMILES>  (48) 
CC(=O)[N-]c1ccc(O)c(S(=O)(=O)[N-]c2ccc(S(=O)(=O)N3CCCCC3)cc2)c1

>  <Energy>  (48) 
70.34566227759572

>  <Genealogy>  (48) 
CC(=O)[N-]c1ccc(O)c(S(=O)(=O)[N-]c2ccc(S(=O)(=O)N3CCCCC3)cc2)c1 (protonated)
CC(=O)[N-]c1ccc(O)c(S(=O)(=O)[N-]c2ccc(S(=O)(=O)N3CCCCC3)cc2)c1 (3D coordinates assigned)
CC(=O)[N-]c1ccc(O)c(S(=O)(=O)[N-]c2ccc(S(=O)(=O)N3CCCCC3)cc2)c1 (nonaromatic ring conformer: 70.34566227759572 kcal/mol)

>  <smiles>  (48) 
CC(=O)Nc1ccc(O)c(S(=O)(=O)Nc2ccc(S(=O)(=O)N3CCCCC3)cc2)c1

>  <score_type>  (48) 
oracle

>  <origin>  (48) 
adgpu

>  <m_score__min__energy>  (48) 
-11.4

>  <m_primary>  (48) 
energy

$$$$
48:0
     RDKit          3D

 38 41  0  0  0  0  0  0  0  0999 V2000
   -5.9710   16.5570  -33.6080 C   0  0  0  0  0  0  0  0  0  0  0  0
   -4.7380   17.4200  -33.6520 C   0  0  0  0  0  0  0  0  0  0  0  0
   -3.5360   17.0010  -34.2590 C   0  0  0  0  0  0  0  0  0  0  0  0
   -3.3140   15.7960  -35.0820 C   0  0  0  0  0  0  0  0  0  0  0  0
   -2.3280   15.7730  -36.1140 N   0  0  0  0  0  0  0  0  0  0  0  0
   -3.9720   14.7500  -34.8330 O   0  0  0  0  0  0  0  0  0  0  0  0
   -2.3010   18.0860  -33.8790 S   0  0  0  0  0  0  0  0  0  0  0  0
   -3.2800   19.1150  -33.0010 C   0  0  0  0  0  0  0  0  0  0  0  0
   -2.8740   20.2350  -32.3600 N   0  0  0  0  0  0  0  0  0  0  0  0
   -3.7650   20.9900  -31.6560 C   0  0  0  0  0  0  0  0  0  0  0  0
   -3.2850   22.2090  -30.9570 C   0  0  0  0  0  0  0  0  0  0  0  0
   -1.9980   22.2690  -30.3850 C   0  0  0  0  0  0  0  0  0  0  0  0
   -1.5700   23.4240  -29.7240 C   0  0  0  0  0  0  0  0  0  0  0  0
   -2.4180   24.5300  -29.6200 C   0  0  0  0  0  0  0  0  0  0  0  0
   -1.9890   25.6770  -28.9640 O   0  0  0  0  0  0  0  0  0  0  0  0
   -3.7000   24.4790  -30.1740 C   0  0  0  0  0  0  0  0  0  0  0  0
   -4.1340   23.3260  -30.8350 C   0  0  0  0  0  0  0  0  0  0  0  0
   -5.1200   20.5940  -31.6090 C   0  0  0  0  0  0  0  0  0  0  0  0
   -5.5540   19.4390  -32.2900 C   0  0  0  0  0  0  0  0  0  0  0  0
   -6.9980   19.1620  -32.3250 C   0  0  0  0  0  0  0  0  0  0  0  0
   -7.6530   18.1880  -31.5830 C   0  0  0  0  0  0  0  0  0  0  0  0
   -9.0450   18.2350  -31.7230 C   0  0  0  0  0  0  0  0  0  0  0  0
   -9.4890   19.2590  -32.5490 C   0  0  0  0  0  0  0  0  0  0  0  0
   -8.1490   20.1120  -33.1030 S   0  0  0  0  0  0  0  0  0  0  0  0
   -4.5920   18.6630  -32.9780 C   0  0  0  0  0  0  0  0  0  0  0  0
   -6.2464   16.3642  -32.5606 H   0  0  0  0  0  0  0  0  0  0  0  0
   -6.7987   17.0740  -34.1156 H   0  0  0  0  0  0  0  0  0  0  0  0
   -5.7687   15.6023  -34.1156 H   0  0  0  0  0  0  0  0  0  0  0  0
   -1.6470   16.5550  -36.2270 H   0  0  0  0  0  0  0  0  0  0  0  0
   -2.2180   14.9260  -36.7130 H   0  0  0  0  0  0  0  0  0  0  0  0
   -1.3261   21.4012  -30.4593 H   0  0  0  0  0  0  0  0  0  0  0  0
   -0.5624   23.4625  -29.2843 H   0  0  0  0  0  0  0  0  0  0  0  0
   -4.3691   25.3480  -30.0898 H   0  0  0  0  0  0  0  0  0  0  0  0
   -5.1466   23.2910  -31.2632 H   0  0  0  0  0  0  0  0  0  0  0  0
   -5.8431   21.1926  -31.0356 H   0  0  0  0  0  0  0  0  0  0  0  0
   -7.1315   17.4548  -30.9502 H   0  0  0  0  0  0  0  0  0  0  0  0
   -9.7237   17.5269  -31.2251 H   0  0  0  0  0  0  0  0  0  0  0  0
  -10.5382   19.4756  -32.7986 H   0  0  0  0  0  0  0  0  0  0  0  0
  1  2  1  0
  2  3  2  0
  3  4  1  0
  4  5  1  0
  4  6  2  0
  3  7  1  0
  7  8  1  0
  8  9  2  0
  9 10  1  0
 10 11  1  0
 11 12  2  0
 12 13  1  0
 13 14  2  0
 14 15  1  0
 14 16  1  0
 16 17  2  0
 10 18  2  0
 18 19  1  0
 19 20  1  0
 20 21  2  0
 21 22  1  0
 22 23  2  0
 23 24  1  0
 19 25  2  0
 25  2  1  0
 25  8  1  0
 17 11  1  0
 24 20  1  0
  1 26  1  0
  1 27  1  0
  1 28  1  0
  5 29  1  0
  5 30  1  0
 12 31  1  0
 13 32  1  0
 16 33  1  0
 17 34  1  0
 18 35  1  0
 21 36  1  0
 22 37  1  0
 23 38  1  0
M  CHG  1  15  -1
M  END
>  <UniqueID>  (49) 
49

>  <SMILES>  (49) 
Cc1c(C(N)=O)sc2nc(-c3ccc([O-])cc3)cc(-c3cccs3)c12

>  <Energy>  (49) 
117.4685120992043

>  <Genealogy>  (49) 
Cc1c(C(N)=O)sc2nc(-c3ccc([O-])cc3)cc(-c3cccs3)c12 (protonated)
Cc1c(C(N)=O)sc2nc(-c3ccc([O-])cc3)cc(-c3cccs3)c12 (3D coordinates assigned)
Cc1c(C(N)=O)sc2nc(-c3ccc([O-])cc3)cc(-c3cccs3)c12 (optimized conformer: 117.4685120992043 kcal/mol)

>  <smiles>  (49) 
Cc1c(C(N)=O)sc2nc(-c3ccc(O)cc3)cc(-c3cccs3)c12

>  <score_type>  (49) 
oracle

>  <origin>  (49) 
adgpu

>  <m_score__min__energy>  (49) 
-10.619999999999999

>  <m_primary>  (49) 
energy

$$$$
