0:0
     RDKit          3D

 40 42  0  0  0  0  0  0  0  0999 V2000
   -6.3640   15.8990  -33.8580 C   0  0  0  0  0  0  0  0  0  0  0  0
   -7.2680   16.6910  -33.0940 O   0  0  0  0  0  0  0  0  0  0  0  0
   -7.2100   18.0880  -33.0000 C   0  0  0  0  0  0  0  0  0  0  0  0
   -6.1790   18.8420  -33.5890 C   0  0  0  0  0  0  0  0  0  0  0  0
   -6.1640   20.2340  -33.4670 C   0  0  0  0  0  0  0  0  0  0  0  0
   -7.1760   20.9010  -32.7530 C   0  0  0  0  0  0  0  0  0  0  0  0
   -7.1870   22.3350  -32.6070 N   0  0  0  0  0  0  0  0  0  0  0  0
   -7.1750   23.0350  -31.3220 C   0  0  0  0  0  0  0  0  0  0  0  0
   -5.8890   23.7920  -31.1330 C   0  0  0  0  0  0  0  0  0  0  0  0
   -5.7270   25.1610  -31.1460 C   0  0  0  0  0  0  0  0  0  0  0  0
   -4.4380   25.4250  -30.8530 N   0  0  0  0  0  0  0  0  0  0  0  0
   -3.8360   24.2610  -30.6540 N   0  0  0  0  0  0  0  0  0  0  0  0
   -4.6940   23.2640  -30.8030 N   0  0  0  0  0  0  0  0  0  0  0  0
   -4.3340   21.8540  -30.6610 C   0  0  0  0  0  0  0  0  0  0  0  0
   -3.1150   21.5360  -31.4860 C   0  0  0  0  0  0  0  0  0  0  0  0
   -1.8580   21.4140  -30.8700 C   0  0  0  0  0  0  0  0  0  0  0  0
   -0.7180   21.1600  -31.6380 C   0  0  0  0  0  0  0  0  0  0  0  0
   -0.8240   21.0180  -33.0240 C   0  0  0  0  0  0  0  0  0  0  0  0
   -2.0730   21.1220  -33.6440 C   0  0  0  0  0  0  0  0  0  0  0  0
   -3.2160   21.3760  -32.8790 C   0  0  0  0  0  0  0  0  0  0  0  0
   -8.2040   20.1440  -32.1700 C   0  0  0  0  0  0  0  0  0  0  0  0
   -8.2190   18.7520  -32.2920 C   0  0  0  0  0  0  0  0  0  0  0  0
   -5.7128   15.3285  -33.1795 H   0  0  0  0  0  0  0  0  0  0  0  0
   -6.9323   15.2028  -34.4923 H   0  0  0  0  0  0  0  0  0  0  0  0
   -5.7486   16.5540  -34.4923 H   0  0  0  0  0  0  0  0  0  0  0  0
   -5.3803   18.3332  -34.1486 H   0  0  0  0  0  0  0  0  0  0  0  0
   -5.3536   20.8133  -33.9335 H   0  0  0  0  0  0  0  0  0  0  0  0
   -7.2300   22.9240  -33.4700 H   0  0  0  0  0  0  0  0  0  0  0  0
   -8.0169   23.7422  -31.2897 H   0  0  0  0  0  0  0  0  0  0  0  0
   -7.2656   22.2912  -30.5167 H   0  0  0  0  0  0  0  0  0  0  0  0
   -6.5094   25.9047  -31.3576 H   0  0  0  0  0  0  0  0  0  0  0  0
   -4.1215   21.6392  -29.6033 H   0  0  0  0  0  0  0  0  0  0  0  0
   -5.1729   21.2352  -31.0121 H   0  0  0  0  0  0  0  0  0  0  0  0
   -1.7707   21.5188  -29.7785 H   0  0  0  0  0  0  0  0  0  0  0  0
    0.2641   21.0718  -31.1505 H   0  0  0  0  0  0  0  0  0  0  0  0
    0.0751   20.8244  -33.6274 H   0  0  0  0  0  0  0  0  0  0  0  0
   -2.1567   21.0039  -34.7344 H   0  0  0  0  0  0  0  0  0  0  0  0
   -4.1979   21.4509  -33.3693 H   0  0  0  0  0  0  0  0  0  0  0  0
   -9.0051   20.6509  -31.6120 H   0  0  0  0  0  0  0  0  0  0  0  0
   -9.0307   18.1728  -31.8277 H   0  0  0  0  0  0  0  0  0  0  0  0
  1  2  1  0
  2  3  1  0
  3  4  2  0
  4  5  1  0
  5  6  2  0
  6  7  1  0
  7  8  1  0
  8  9  1  0
  9 10  2  0
 10 11  1  0
 11 12  2  0
 12 13  1  0
 13 14  1  0
 14 15  1  0
 15 16  2  0
 16 17  1  0
 17 18  2  0
 18 19  1  0
 19 20  2  0
  6 21  1  0
 21 22  2  0
 22  3  1  0
 13  9  1  0
 20 15  1  0
  1 23  1  0
  1 24  1  0
  1 25  1  0
  4 26  1  0
  5 27  1  0
  7 28  1  0
  8 29  1  0
  8 30  1  0
 10 31  1  0
 14 32  1  0
 14 33  1  0
 16 34  1  0
 17 35  1  0
 18 36  1  0
 19 37  1  0
 20 38  1  0
 21 39  1  0
 22 40  1  0
M  END
>  <UniqueID>  (1) 
1

>  <SMILES>  (1) 
COc1ccc(NCc2cnnn2Cc2ccccc2)cc1

>  <Energy>  (1) 
72.35330215878393

>  <Genealogy>  (1) 
COc1ccc(NCc2cnnn2Cc2ccccc2)cc1 (3D coordinates assigned)
COc1ccc(NCc2cnnn2Cc2ccccc2)cc1 (optimized conformer: 72.35330215878393 kcal/mol)

>  <smiles>  (1) 
COc1ccc(NCc2cnnn2Cc2ccccc2)cc1

>  <score_type>  (1) 
oracle

>  <origin>  (1) 
adgpu

>  <m_score__min__energy>  (1) 
-8.0099999999999998

>  <m_primary>  (1) 
energy

$$$$
1:0
     RDKit          3D

 37 39  0  0  0  0  0  0  0  0999 V2000
   -1.7070   24.9290  -28.1830 C   0  0  0  0  0  0  0  0  0  0  0  0
   -2.4560   25.2740  -29.3430 O   0  0  0  0  0  0  0  0  0  0  0  0
   -3.6040   24.5940  -29.7760 C   0  0  0  0  0  0  0  0  0  0  0  0
   -3.7720   23.2070  -29.6000 C   0  0  0  0  0  0  0  0  0  0  0  0
   -4.9350   22.5750  -30.0510 C   0  0  0  0  0  0  0  0  0  0  0  0
   -5.9470   23.3140  -30.6850 C   0  0  0  0  0  0  0  0  0  0  0  0
   -7.1760   22.6520  -31.1640 C   0  0  0  0  0  0  0  0  0  0  0  0
   -7.3470   21.3110  -31.1860 N   0  0  0  0  0  0  0  0  0  0  0  0
   -8.5840   21.1690  -31.6980 C   0  0  0  0  0  0  0  0  0  0  0  0
   -9.2660   19.8520  -31.8980 C   0  0  0  0  0  0  0  0  0  0  0  0
   -8.6600   19.1270  -33.0150 N   0  0  0  0  0  0  0  0  0  0  0  0
   -7.2960   18.6620  -33.0410 C   0  0  0  0  0  0  0  0  0  0  0  0
   -6.8870   17.5120  -32.3360 C   0  0  0  0  0  0  0  0  0  0  0  0
   -5.5550   17.0890  -32.3870 C   0  0  0  0  0  0  0  0  0  0  0  0
   -4.6200   17.8050  -33.1360 C   0  0  0  0  0  0  0  0  0  0  0  0
   -5.0130   18.9480  -33.8360 C   0  0  0  0  0  0  0  0  0  0  0  0
   -6.3430   19.3750  -33.7880 C   0  0  0  0  0  0  0  0  0  0  0  0
   -9.1240   22.4100  -31.9530 C   0  0  0  0  0  0  0  0  0  0  0  0
   -8.2270   23.3020  -31.6160 O   0  0  0  0  0  0  0  0  0  0  0  0
   -5.7760   24.6980  -30.8600 C   0  0  0  0  0  0  0  0  0  0  0  0
   -4.6140   25.3280  -30.4090 C   0  0  0  0  0  0  0  0  0  0  0  0
   -2.2818   25.1938  -27.2833 H   0  0  0  0  0  0  0  0  0  0  0  0
   -1.5059   23.8475  -28.1846 H   0  0  0  0  0  0  0  0  0  0  0  0
   -0.7544   25.4791  -28.1846 H   0  0  0  0  0  0  0  0  0  0  0  0
   -2.9852   22.6183  -29.1057 H   0  0  0  0  0  0  0  0  0  0  0  0
   -5.0581   21.4913  -29.9082 H   0  0  0  0  0  0  0  0  0  0  0  0
   -9.1698   19.2514  -30.9815 H   0  0  0  0  0  0  0  0  0  0  0  0
  -10.3276   20.0311  -32.1235 H   0  0  0  0  0  0  0  0  0  0  0  0
   -9.2720   18.9240  -33.8390 H   0  0  0  0  0  0  0  0  0  0  0  0
   -7.6191   16.9445  -31.7428 H   0  0  0  0  0  0  0  0  0  0  0  0
   -5.2434   16.1897  -31.8354 H   0  0  0  0  0  0  0  0  0  0  0  0
   -3.5733   17.4691  -33.1751 H   0  0  0  0  0  0  0  0  0  0  0  0
   -4.2754   19.5124  -34.4254 H   0  0  0  0  0  0  0  0  0  0  0  0
   -6.6463   20.2770  -34.3397 H   0  0  0  0  0  0  0  0  0  0  0  0
  -10.1238   22.6139  -32.3638 H   0  0  0  0  0  0  0  0  0  0  0  0
   -6.5615   25.2881  -31.3548 H   0  0  0  0  0  0  0  0  0  0  0  0
   -4.4912   26.4117  -30.5526 H   0  0  0  0  0  0  0  0  0  0  0  0
  1  2  1  0
  2  3  1  0
  3  4  2  0
  4  5  1  0
  5  6  2  0
  6  7  1  0
  7  8  2  0
  8  9  1  0
  9 10  1  0
 10 11  1  0
 11 12  1  0
 12 13  2  0
 13 14  1  0
 14 15  2  0
 15 16  1  0
 16 17  2  0
  9 18  2  0
 18 19  1  0
  6 20  1  0
 20 21  2  0
 21  3  1  0
 19  7  1  0
 17 12  1  0
  1 22  1  0
  1 23  1  0
  1 24  1  0
  4 25  1  0
  5 26  1  0
 10 27  1  0
 10 28  1  0
 11 29  1  0
 13 30  1  0
 14 31  1  0
 15 32  1  0
 16 33  1  0
 17 34  1  0
 18 35  1  0
 20 36  1  0
 21 37  1  0
M  END
>  <UniqueID>  (2) 
2

>  <SMILES>  (2) 
COc1ccc(-c2nc(CNc3ccccc3)co2)cc1

>  <Energy>  (2) 
66.94345465124506

>  <Genealogy>  (2) 
COc1ccc(-c2nc(CNc3ccccc3)co2)cc1 (3D coordinates assigned)
COc1ccc(-c2nc(CNc3ccccc3)co2)cc1 (optimized conformer: 66.94345465124506 kcal/mol)

>  <smiles>  (2) 
COc1ccc(-c2nc(CNc3ccccc3)co2)cc1

>  <score_type>  (2) 
oracle

>  <origin>  (2) 
adgpu

>  <m_score__min__energy>  (2) 
-7.9400000000000004

>  <m_primary>  (2) 
energy

$$$$
2:0
     RDKit          3D

 39 41  0  0  0  0  0  0  0  0999 V2000
   -6.1900   25.8740  -29.2220 O   0  0  0  0  0  0  0  0  0  0  0  0
   -5.2750   24.8900  -29.8970 S   0  0  0  0  0  0  0  0  0  0  0  0
   -4.3580   25.6090  -30.8460 O   0  0  0  0  0  0  0  0  0  0  0  0
   -4.3430   24.0410  -28.7080 N   0  0  0  0  0  0  0  0  0  0  0  0
   -2.9230   24.1460  -28.5220 C   0  0  0  0  0  0  0  0  0  0  0  0
   -2.3790   24.9750  -27.5210 C   0  0  0  0  0  0  0  0  0  0  0  0
   -0.9970   25.0940  -27.3750 C   0  0  0  0  0  0  0  0  0  0  0  0
   -0.1390   24.3920  -28.2190 C   0  0  0  0  0  0  0  0  0  0  0  0
   -0.6610   23.5660  -29.2150 C   0  0  0  0  0  0  0  0  0  0  0  0
   -2.0520   23.4310  -29.3800 C   0  0  0  0  0  0  0  0  0  0  0  0
   -2.5850   22.5310  -30.4340 C   0  0  0  0  0  0  0  0  0  0  0  0
   -2.4530   21.1360  -30.3340 C   0  0  0  0  0  0  0  0  0  0  0  0
   -2.9620   20.3220  -31.3480 C   0  0  0  0  0  0  0  0  0  0  0  0
   -3.5880   20.8910  -32.4580 C   0  0  0  0  0  0  0  0  0  0  0  0
   -4.0980   20.0490  -33.4590 O   0  0  0  0  0  0  0  0  0  0  0  0
   -5.2610   19.2720  -33.3510 C   0  0  0  0  0  0  0  0  0  0  0  0
   -5.2900   17.9180  -33.7340 C   0  0  0  0  0  0  0  0  0  0  0  0
   -6.4650   17.1730  -33.5950 C   0  0  0  0  0  0  0  0  0  0  0  0
   -6.4880   15.8690  -33.9680 F   0  0  0  0  0  0  0  0  0  0  0  0
   -7.6130   17.7680  -33.0650 C   0  0  0  0  0  0  0  0  0  0  0  0
   -7.5850   19.1070  -32.6650 C   0  0  0  0  0  0  0  0  0  0  0  0
   -9.0240   19.8510  -31.9880 Cl  0  0  0  0  0  0  0  0  0  0  0  0
   -6.4100   19.8550  -32.8020 C   0  0  0  0  0  0  0  0  0  0  0  0
   -3.7230   22.2870  -32.5150 C   0  0  0  0  0  0  0  0  0  0  0  0
   -3.2210   23.0610  -31.5160 N   0  0  0  0  0  0  0  0  0  0  0  0
   -6.2520   23.7120  -30.8050 C   0  0  0  0  0  0  0  0  0  0  0  0
   -6.0660   23.9050  -32.1610 F   0  0  0  0  0  0  0  0  0  0  0  0
   -7.5880   23.8820  -30.4960 F   0  0  0  0  0  0  0  0  0  0  0  0
   -5.8620   22.4300  -30.4670 F   0  0  0  0  0  0  0  0  0  0  0  0
   -3.0490   25.5324  -26.8498 H   0  0  0  0  0  0  0  0  0  0  0  0
   -0.5829   25.7445  -26.5906 H   0  0  0  0  0  0  0  0  0  0  0  0
    0.9502   24.4890  -28.1001 H   0  0  0  0  0  0  0  0  0  0  0  0
    0.0218   23.0146  -29.8781 H   0  0  0  0  0  0  0  0  0  0  0  0
   -1.9522   20.6881  -29.4631 H   0  0  0  0  0  0  0  0  0  0  0  0
   -2.8692   19.2286  -31.2716 H   0  0  0  0  0  0  0  0  0  0  0  0
   -4.3857   17.4445  -34.1439 H   0  0  0  0  0  0  0  0  0  0  0  0
   -8.5387   17.1826  -32.9626 H   0  0  0  0  0  0  0  0  0  0  0  0
   -6.3889   20.9057  -32.4770 H   0  0  0  0  0  0  0  0  0  0  0  0
   -4.2353   22.7552  -33.3684 H   0  0  0  0  0  0  0  0  0  0  0  0
  1  2  2  0
  2  3  2  0
  2  4  1  0
  4  5  1  0
  5  6  2  0
  6  7  1  0
  7  8  2  0
  8  9  1  0
  9 10  2  0
 10 11  1  0
 11 12  2  0
 12 13  1  0
 13 14  2  0
 14 15  1  0
 15 16  1  0
 16 17  2  0
 17 18  1  0
 18 19  1  0
 18 20  2  0
 20 21  1  0
 21 22  1  0
 21 23  2  0
 14 24  1  0
 24 25  2  0
  2 26  1  0
 26 27  1  0
 26 28  1  0
 26 29  1  0
 10  5  1  0
 25 11  1  0
 23 16  1  0
  6 30  1  0
  7 31  1  0
  8 32  1  0
  9 33  1  0
 12 34  1  0
 13 35  1  0
 17 36  1  0
 20 37  1  0
 23 38  1  0
 24 39  1  0
M  CHG  1   4  -1
M  END
>  <UniqueID>  (3) 
3

>  <SMILES>  (3) 
O=S(=O)([N-]c1ccccc1-c1ccc(Oc2cc(F)cc(Cl)c2)cn1)C(F)(F)F

>  <Energy>  (3) 
53.422708029008945

>  <Genealogy>  (3) 
O=S(=O)([N-]c1ccccc1-c1ccc(Oc2cc(F)cc(Cl)c2)cn1)C(F)(F)F (protonated)
O=S(=O)([N-]c1ccccc1-c1ccc(Oc2cc(F)cc(Cl)c2)cn1)C(F)(F)F (3D coordinates assigned)
O=S(=O)([N-]c1ccccc1-c1ccc(Oc2cc(F)cc(Cl)c2)cn1)C(F)(F)F (optimized conformer: 53.422708029008945 kcal/mol)

>  <smiles>  (3) 
O=S(=O)(Nc1ccccc1-c1ccc(Oc2cc(F)cc(Cl)c2)cn1)C(F)(F)F

>  <score_type>  (3) 
oracle

>  <origin>  (3) 
adgpu

>  <m_score__min__energy>  (3) 
-9.5199999999999996

>  <m_primary>  (3) 
energy

$$$$
3:0
     RDKit          3D

 33 34  0  0  0  0  0  0  0  0999 V2000
   -0.8500   26.9740  -27.9430 C   0  0  0  0  0  0  0  0  0  0  0  0
   -1.3830   26.1270  -28.9550 O   0  0  0  0  0  0  0  0  0  0  0  0
   -1.7620   24.7890  -28.7600 C   0  0  0  0  0  0  0  0  0  0  0  0
   -1.0810   23.9530  -27.8550 C   0  0  0  0  0  0  0  0  0  0  0  0
   -1.5200   22.6470  -27.6280 C   0  0  0  0  0  0  0  0  0  0  0  0
   -2.6570   22.1600  -28.2830 C   0  0  0  0  0  0  0  0  0  0  0  0
   -3.1140   20.7490  -28.0560 C   0  0  0  0  0  0  0  0  0  0  0  0
   -3.3230   22.9770  -29.2070 C   0  0  0  0  0  0  0  0  0  0  0  0
   -2.8710   24.2770  -29.4670 C   0  0  0  0  0  0  0  0  0  0  0  0
   -3.5980   25.0730  -30.4140 N   0  0  0  0  0  0  0  0  0  0  0  0
   -5.0260   25.1610  -30.4950 C   0  0  0  0  0  0  0  0  0  0  0  0
   -5.6120   26.2270  -30.1620 O   0  0  0  0  0  0  0  0  0  0  0  0
   -5.7990   24.0350  -31.0600 C   0  0  0  0  0  0  0  0  0  0  0  0
   -7.1870   23.9890  -30.8350 C   0  0  0  0  0  0  0  0  0  0  0  0
   -7.9480   22.9120  -31.2950 C   0  0  0  0  0  0  0  0  0  0  0  0
   -7.3340   21.8670  -31.9840 C   0  0  0  0  0  0  0  0  0  0  0  0
   -5.9610   21.9050  -32.2330 C   0  0  0  0  0  0  0  0  0  0  0  0
   -5.1880   22.9880  -31.7960 C   0  0  0  0  0  0  0  0  0  0  0  0
   -3.8350   23.0030  -32.1400 O   0  0  0  0  0  0  0  0  0  0  0  0
   -1.1054   26.5681  -26.9531 H   0  0  0  0  0  0  0  0  0  0  0  0
    0.2439   27.0259  -28.0469 H   0  0  0  0  0  0  0  0  0  0  0  0
   -1.2765   27.9826  -28.0469 H   0  0  0  0  0  0  0  0  0  0  0  0
   -0.1961   24.3315  -27.3224 H   0  0  0  0  0  0  0  0  0  0  0  0
   -0.9696   21.9979  -26.9311 H   0  0  0  0  0  0  0  0  0  0  0  0
   -3.1773   20.5535  -26.9754 H   0  0  0  0  0  0  0  0  0  0  0  0
   -4.1043   20.6063  -28.5131 H   0  0  0  0  0  0  0  0  0  0  0  0
   -2.3954   20.0528  -28.5131 H   0  0  0  0  0  0  0  0  0  0  0  0
   -4.2095   22.5934  -29.7332 H   0  0  0  0  0  0  0  0  0  0  0  0
   -7.6779   24.8096  -30.2913 H   0  0  0  0  0  0  0  0  0  0  0  0
   -9.0327   22.8882  -31.1135 H   0  0  0  0  0  0  0  0  0  0  0  0
   -7.9321   21.0118  -32.3317 H   0  0  0  0  0  0  0  0  0  0  0  0
   -5.4822   21.0774  -32.7770 H   0  0  0  0  0  0  0  0  0  0  0  0
   -3.2240   23.7900  -31.9670 H   0  0  0  0  0  0  0  0  0  0  0  0
  1  2  1  0
  2  3  1  0
  3  4  2  0
  4  5  1  0
  5  6  2  0
  6  7  1  0
  6  8  1  0
  8  9  2  0
  9 10  1  0
 10 11  1  0
 11 12  2  0
 11 13  1  0
 13 14  2  0
 14 15  1  0
 15 16  2  0
 16 17  1  0
 17 18  2  0
 18 19  1  0
  9  3  1  0
 18 13  1  0
  1 20  1  0
  1 21  1  0
  1 22  1  0
  4 23  1  0
  5 24  1  0
  7 25  1  0
  7 26  1  0
  7 27  1  0
  8 28  1  0
 14 29  1  0
 15 30  1  0
 16 31  1  0
 17 32  1  0
 19 33  1  0
M  CHG  1  10  -1
M  END
>  <UniqueID>  (4) 
4

>  <SMILES>  (4) 
COc1ccc(C)cc1[N-]C(=O)c1ccccc1O

>  <Energy>  (4) 
42.756667691720885

>  <Genealogy>  (4) 
COc1ccc(C)cc1[N-]C(=O)c1ccccc1O (protonated)
COc1ccc(C)cc1[N-]C(=O)c1ccccc1O (3D coordinates assigned)
COc1ccc(C)cc1[N-]C(=O)c1ccccc1O (optimized conformer: 42.756667691720885 kcal/mol)

>  <smiles>  (4) 
COc1ccc(C)cc1NC(=O)c1ccccc1O

>  <score_type>  (4) 
oracle

>  <origin>  (4) 
adgpu

>  <m_score__min__energy>  (4) 
-8.5600000000000005

>  <m_primary>  (4) 
energy

$$$$
4:0
     RDKit          3D

 35 36  0  0  0  0  0  0  0  0999 V2000
   -5.8400   18.5920  -34.1730 C   0  0  0  0  0  0  0  0  0  0  0  0
   -6.8810   19.0420  -33.1920 C   0  0  0  0  0  0  0  0  0  0  0  0
   -7.6380   18.0990  -32.4800 C   0  0  0  0  0  0  0  0  0  0  0  0
   -8.6340   18.5180  -31.5960 C   0  0  0  0  0  0  0  0  0  0  0  0
   -8.8890   19.8810  -31.4220 C   0  0  0  0  0  0  0  0  0  0  0  0
   -8.1450   20.8370  -32.1310 C   0  0  0  0  0  0  0  0  0  0  0  0
   -8.4270   22.3060  -31.9610 C   0  0  0  0  0  0  0  0  0  0  0  0
   -7.2730   23.0860  -32.2780 O   0  0  0  0  0  0  0  0  0  0  0  0
   -6.3460   23.5920  -31.3470 C   0  0  0  0  0  0  0  0  0  0  0  0
   -6.7120   24.5630  -30.3960 C   0  0  0  0  0  0  0  0  0  0  0  0
   -5.7830   25.0350  -29.4730 C   0  0  0  0  0  0  0  0  0  0  0  0
   -4.4810   24.5410  -29.4740 C   0  0  0  0  0  0  0  0  0  0  0  0
   -4.0870   23.5680  -30.4040 C   0  0  0  0  0  0  0  0  0  0  0  0
   -2.6700   23.0570  -30.3660 C   0  0  0  0  0  0  0  0  0  0  0  0
   -5.0170   23.1090  -31.3730 C   0  0  0  0  0  0  0  0  0  0  0  0
   -4.6180   22.0570  -32.3820 C   0  0  0  0  0  0  0  0  0  0  0  0
   -7.1530   20.4100  -33.0290 C   0  0  0  0  0  0  0  0  0  0  0  0
   -4.9627   18.2128  -33.6285 H   0  0  0  0  0  0  0  0  0  0  0  0
   -6.2532   17.7922  -34.8051 H   0  0  0  0  0  0  0  0  0  0  0  0
   -5.5405   19.4410  -34.8051 H   0  0  0  0  0  0  0  0  0  0  0  0
   -7.4458   17.0249  -32.6190 H   0  0  0  0  0  0  0  0  0  0  0  0
   -9.2191   17.7740  -31.0355 H   0  0  0  0  0  0  0  0  0  0  0  0
   -9.6765   20.2061  -30.7262 H   0  0  0  0  0  0  0  0  0  0  0  0
   -9.2515   22.5943  -32.6296 H   0  0  0  0  0  0  0  0  0  0  0  0
   -8.7003   22.4926  -30.9120 H   0  0  0  0  0  0  0  0  0  0  0  0
   -7.7408   24.9521  -30.3820 H   0  0  0  0  0  0  0  0  0  0  0  0
   -6.0783   25.8007  -28.7405 H   0  0  0  0  0  0  0  0  0  0  0  0
   -3.7548   24.9175  -28.7385 H   0  0  0  0  0  0  0  0  0  0  0  0
   -2.3498   22.9415  -29.3200 H   0  0  0  0  0  0  0  0  0  0  0  0
   -2.6176   22.0833  -30.8751 H   0  0  0  0  0  0  0  0  0  0  0  0
   -2.0082   23.7731  -30.8751 H   0  0  0  0  0  0  0  0  0  0  0  0
   -4.2756   21.1544  -31.8547 H   0  0  0  0  0  0  0  0  0  0  0  0
   -5.4837   21.8070  -33.0129 H   0  0  0  0  0  0  0  0  0  0  0  0
   -3.8042   22.4440  -33.0129 H   0  0  0  0  0  0  0  0  0  0  0  0
   -6.5851   21.1525  -33.6088 H   0  0  0  0  0  0  0  0  0  0  0  0
  1  2  1  0
  2  3  2  0
  3  4  1  0
  4  5  2  0
  5  6  1  0
  6  7  1  0
  7  8  1  0
  8  9  1  0
  9 10  2  0
 10 11  1  0
 11 12  2  0
 12 13  1  0
 13 14  1  0
 13 15  2  0
 15 16  1  0
  6 17  2  0
 17  2  1  0
 15  9  1  0
  1 18  1  0
  1 19  1  0
  1 20  1  0
  3 21  1  0
  4 22  1  0
  5 23  1  0
  7 24  1  0
  7 25  1  0
 10 26  1  0
 11 27  1  0
 12 28  1  0
 14 29  1  0
 14 30  1  0
 14 31  1  0
 16 32  1  0
 16 33  1  0
 16 34  1  0
 17 35  1  0
M  END
>  <UniqueID>  (5) 
5

>  <SMILES>  (5) 
Cc1cccc(COc2cccc(C)c2C)c1

>  <Energy>  (5) 
35.32781271982032

>  <Genealogy>  (5) 
Cc1cccc(COc2cccc(C)c2C)c1 (3D coordinates assigned)
Cc1cccc(COc2cccc(C)c2C)c1 (optimized conformer: 35.32781271982032 kcal/mol)

>  <smiles>  (5) 
Cc1cccc(COc2cccc(C)c2C)c1

>  <score_type>  (5) 
oracle

>  <origin>  (5) 
adgpu

>  <m_score__min__energy>  (5) 
-7.0499999999999998

>  <m_primary>  (5) 
energy

$$$$
5:0
     RDKit          3D

 29 30  0  0  0  0  0  0  0  0999 V2000
   -2.5910   24.5350  -28.4660 C   0  0  0  0  0  0  0  0  0  0  0  0
   -3.1150   25.0100  -29.7020 O   0  0  0  0  0  0  0  0  0  0  0  0
   -4.2480   24.4830  -30.3380 C   0  0  0  0  0  0  0  0  0  0  0  0
   -5.4900   25.0750  -30.0830 C   0  0  0  0  0  0  0  0  0  0  0  0
   -6.6500   24.5860  -30.6920 C   0  0  0  0  0  0  0  0  0  0  0  0
   -6.5820   23.4890  -31.5640 C   0  0  0  0  0  0  0  0  0  0  0  0
   -7.8270   22.9880  -32.2480 C   0  0  0  0  0  0  0  0  0  0  0  0
   -7.8830   21.5180  -32.1930 N   0  0  0  0  0  0  0  0  0  0  0  0
   -7.0720   20.7930  -33.0250 C   0  0  0  0  0  0  0  0  0  0  0  0
   -7.0710   19.3960  -32.9830 C   0  0  0  0  0  0  0  0  0  0  0  0
   -6.0300   18.4790  -34.0560 Cl  0  0  0  0  0  0  0  0  0  0  0  0
   -7.9010   18.7390  -32.0790 C   0  0  0  0  0  0  0  0  0  0  0  0
   -8.7190   19.4790  -31.2280 C   0  0  0  0  0  0  0  0  0  0  0  0
   -8.6980   20.8760  -31.2920 C   0  0  0  0  0  0  0  0  0  0  0  0
   -9.4390   21.5340  -30.5100 O   0  0  0  0  0  0  0  0  0  0  0  0
   -5.3370   22.8980  -31.8290 C   0  0  0  0  0  0  0  0  0  0  0  0
   -4.1780   23.3860  -31.2190 C   0  0  0  0  0  0  0  0  0  0  0  0
   -3.1230   25.0172  -27.6327 H   0  0  0  0  0  0  0  0  0  0  0  0
   -2.7258   23.4450  -28.4053 H   0  0  0  0  0  0  0  0  0  0  0  0
   -1.5194   24.7759  -28.4053 H   0  0  0  0  0  0  0  0  0  0  0  0
   -5.5545   25.9327  -29.3973 H   0  0  0  0  0  0  0  0  0  0  0  0
   -7.6195   25.0633  -30.4866 H   0  0  0  0  0  0  0  0  0  0  0  0
   -8.7111   23.4041  -31.7429 H   0  0  0  0  0  0  0  0  0  0  0  0
   -7.8101   23.3066  -33.3007 H   0  0  0  0  0  0  0  0  0  0  0  0
   -6.4139   21.3161  -33.7344 H   0  0  0  0  0  0  0  0  0  0  0  0
   -7.9110   17.6399  -32.0367 H   0  0  0  0  0  0  0  0  0  0  0  0
   -9.3773   18.9677  -30.5102 H   0  0  0  0  0  0  0  0  0  0  0  0
   -5.2729   22.0454  -32.5211 H   0  0  0  0  0  0  0  0  0  0  0  0
   -3.2077   22.9117  -31.4276 H   0  0  0  0  0  0  0  0  0  0  0  0
  1  2  1  0
  2  3  1  0
  3  4  2  0
  4  5  1  0
  5  6  2  0
  6  7  1  0
  7  8  1  0
  8  9  1  0
  9 10  2  0
 10 11  1  0
 10 12  1  0
 12 13  2  0
 13 14  1  0
 14 15  2  0
  6 16  1  0
 16 17  2  0
 17  3  1  0
 14  8  1  0
  1 18  1  0
  1 19  1  0
  1 20  1  0
  4 21  1  0
  5 22  1  0
  7 23  1  0
  7 24  1  0
  9 25  1  0
 12 26  1  0
 13 27  1  0
 16 28  1  0
 17 29  1  0
M  END
>  <UniqueID>  (6) 
6

>  <SMILES>  (6) 
COc1ccc(Cn2cc(Cl)ccc2=O)cc1

>  <Energy>  (6) 
30.260293550352987

>  <Genealogy>  (6) 
COc1ccc(Cn2cc(Cl)ccc2=O)cc1 (3D coordinates assigned)
COc1ccc(Cn2cc(Cl)ccc2=O)cc1 (optimized conformer: 30.260293550352987 kcal/mol)

>  <smiles>  (6) 
COc1ccc(Cn2cc(Cl)ccc2=O)cc1

>  <score_type>  (6) 
oracle

>  <origin>  (6) 
adgpu

>  <m_score__min__energy>  (6) 
-7.4299999999999997

>  <m_primary>  (6) 
energy

$$$$
6:0
     RDKit          3D

 33 35  0  0  0  0  0  0  0  0999 V2000
   -4.0390   25.6680  -31.5960 H   0  0  0  0  0  0  0  0  0  0  0  0
   -4.5740   25.4180  -30.7330 N   0  0  0  0  0  0  0  0  0  0  0  0
   -5.4170   24.4370  -30.7310 C   0  0  0  0  0  0  0  0  0  0  0  0
   -5.7660   23.4610  -32.0550 S   0  0  0  0  0  0  0  0  0  0  0  0
   -6.8730   22.5680  -31.1340 C   0  0  0  0  0  0  0  0  0  0  0  0
   -7.6800   21.4240  -31.6200 C   0  0  0  0  0  0  0  0  0  0  0  0
   -9.0760   21.5290  -31.7510 C   0  0  0  0  0  0  0  0  0  0  0  0
   -9.5801   22.4717  -31.4918 H   0  0  0  0  0  0  0  0  0  0  0  0
   -9.8260   20.4440  -32.2080 C   0  0  0  0  0  0  0  0  0  0  0  0
  -10.9172   20.5367  -32.3115 H   0  0  0  0  0  0  0  0  0  0  0  0
   -9.1960   19.2420  -32.5340 C   0  0  0  0  0  0  0  0  0  0  0  0
   -9.7946   18.3920  -32.8936 H   0  0  0  0  0  0  0  0  0  0  0  0
   -7.8100   19.1100  -32.4070 C   0  0  0  0  0  0  0  0  0  0  0  0
   -7.2290   17.8760  -32.7410 O   0  0  0  0  0  0  0  0  0  0  0  0
   -6.4710   17.6110  -33.9220 C   0  0  0  0  0  0  0  0  0  0  0  0
   -6.5140   16.5344  -34.1437 H   0  0  0  0  0  0  0  0  0  0  0  0
   -6.8993   18.1914  -34.7525 H   0  0  0  0  0  0  0  0  0  0  0  0
   -5.0330   18.0200  -33.7400 C   0  0  0  0  0  0  0  0  0  0  0  0
   -4.6720   19.3770  -33.7230 C   0  0  0  0  0  0  0  0  0  0  0  0
   -5.4444   20.1513  -33.8407 H   0  0  0  0  0  0  0  0  0  0  0  0
   -3.3340   19.7470  -33.5570 C   0  0  0  0  0  0  0  0  0  0  0  0
   -3.0579   20.8116  -33.5366 H   0  0  0  0  0  0  0  0  0  0  0  0
   -2.3470   18.7690  -33.4170 C   0  0  0  0  0  0  0  0  0  0  0  0
   -1.2953   19.0632  -33.2848 H   0  0  0  0  0  0  0  0  0  0  0  0
   -2.6970   17.4150  -33.4450 C   0  0  0  0  0  0  0  0  0  0  0  0
   -1.7380   16.4650  -33.3130 F   0  0  0  0  0  0  0  0  0  0  0  0
   -4.0340   17.0400  -33.6090 C   0  0  0  0  0  0  0  0  0  0  0  0
   -4.3050   15.9742  -33.6356 H   0  0  0  0  0  0  0  0  0  0  0  0
   -7.0530   20.2100  -31.9560 C   0  0  0  0  0  0  0  0  0  0  0  0
   -5.9605   20.1185  -31.8657 H   0  0  0  0  0  0  0  0  0  0  0  0
   -6.9370   23.0400  -29.8640 N   0  0  0  0  0  0  0  0  0  0  0  0
   -6.1290   24.0760  -29.6450 N   0  0  0  0  0  0  0  0  0  0  0  0
   -6.0650   24.5500  -28.7170 H   0  0  0  0  0  0  0  0  0  0  0  0
  1  2  1  0
  2  3  2  0
  3  4  1  0
  4  5  1  0
  5  6  1  0
  6  7  2  0
  7  8  1  0
  7  9  1  0
  9 10  1  0
  9 11  2  0
 11 12  1  0
 11 13  1  0
 13 14  1  0
 14 15  1  0
 15 16  1  0
 15 17  1  0
 15 18  1  0
 18 19  2  0
 19 20  1  0
 19 21  1  0
 21 22  1  0
 21 23  2  0
 23 24  1  0
 23 25  1  0
 25 26  1  0
 25 27  2  0
 27 28  1  0
 13 29  2  0
 29 30  1  0
  5 31  2  0
 31 32  1  0
 32 33  1  0
 32  3  1  0
 29  6  1  0
 27 18  1  0
M  END
>  <UniqueID>  (7) 
7

>  <SMILES>  (7) 
[H]/N=c1/[nH]nc(-c2cccc(OCc3cccc(F)c3)c2)s1

>  <Energy>  (7) 
70.0635385148123

>  <Genealogy>  (7) 
[H]/N=c1/[nH]nc(-c2cccc(OCc3cccc(F)c3)c2)s1 (cis-trans isomerization)
[H]/N=c1/[nH]nc(-c2cccc(OCc3cccc(F)c3)c2)s1 (3D coordinates assigned)
[H]/N=c1/[nH]nc(-c2cccc(OCc3cccc(F)c3)c2)s1 (optimized conformer: 70.0635385148123 kcal/mol)

>  <smiles>  (7) 
N=c1[nH]nc(-c2cccc(OCc3cccc(F)c3)c2)s1

>  <score_type>  (7) 
oracle

>  <origin>  (7) 
adgpu

>  <m_score__min__energy>  (7) 
-8.5399999999999991

>  <m_primary>  (7) 
energy

$$$$
7:0
     RDKit          3D

 28 29  0  0  0  0  0  0  0  0999 V2000
   -1.8340   25.4790  -28.9620 O   0  0  0  0  0  0  0  0  0  0  0  0
   -2.5690   24.5790  -29.4470 C   0  0  0  0  0  0  0  0  0  0  0  0
   -3.5120   24.9390  -30.4660 N   0  0  0  0  0  0  0  0  0  0  0  0
   -4.7340   24.2510  -30.7710 C   0  0  0  0  0  0  0  0  0  0  0  0
   -5.9380   24.7510  -30.2630 C   0  0  0  0  0  0  0  0  0  0  0  0
   -7.1450   24.1000  -30.5300 C   0  0  0  0  0  0  0  0  0  0  0  0
   -7.1630   22.9130  -31.2840 C   0  0  0  0  0  0  0  0  0  0  0  0
   -8.4700   22.2380  -31.6160 C   0  0  0  0  0  0  0  0  0  0  0  0
   -9.1010   21.8670  -30.4440 F   0  0  0  0  0  0  0  0  0  0  0  0
   -8.2550   21.1090  -32.3890 F   0  0  0  0  0  0  0  0  0  0  0  0
   -9.2960   23.0940  -32.3230 F   0  0  0  0  0  0  0  0  0  0  0  0
   -5.9530   22.4130  -31.7940 C   0  0  0  0  0  0  0  0  0  0  0  0
   -4.7470   23.0660  -31.5270 C   0  0  0  0  0  0  0  0  0  0  0  0
   -2.3980   23.1780  -28.9930 C   0  0  0  0  0  0  0  0  0  0  0  0
   -3.2470   22.6290  -28.0140 C   0  0  0  0  0  0  0  0  0  0  0  0
   -3.0790   21.3050  -27.5950 C   0  0  0  0  0  0  0  0  0  0  0  0
   -2.0720   20.5150  -28.1540 C   0  0  0  0  0  0  0  0  0  0  0  0
   -1.9140   19.2320  -27.7450 F   0  0  0  0  0  0  0  0  0  0  0  0
   -1.2330   21.0470  -29.1390 C   0  0  0  0  0  0  0  0  0  0  0  0
   -0.2580   20.2800  -29.6860 F   0  0  0  0  0  0  0  0  0  0  0  0
   -1.3970   22.3700  -29.5590 C   0  0  0  0  0  0  0  0  0  0  0  0
   -5.9342   25.6635  -29.6488 H   0  0  0  0  0  0  0  0  0  0  0  0
   -8.0877   24.5187  -30.1479 H   0  0  0  0  0  0  0  0  0  0  0  0
   -5.9552   21.5004  -32.4082 H   0  0  0  0  0  0  0  0  0  0  0  0
   -3.8032   22.6508  -31.9102 H   0  0  0  0  0  0  0  0  0  0  0  0
   -4.0468   23.2442  -27.5760 H   0  0  0  0  0  0  0  0  0  0  0  0
   -3.7414   20.8852  -26.8236 H   0  0  0  0  0  0  0  0  0  0  0  0
   -0.7382   22.7816  -30.3378 H   0  0  0  0  0  0  0  0  0  0  0  0
  1  2  2  0
  2  3  1  0
  3  4  1  0
  4  5  2  0
  5  6  1  0
  6  7  2  0
  7  8  1  0
  8  9  1  0
  8 10  1  0
  8 11  1  0
  7 12  1  0
 12 13  2  0
  2 14  1  0
 14 15  2  0
 15 16  1  0
 16 17  2  0
 17 18  1  0
 17 19  1  0
 19 20  1  0
 19 21  2  0
 13  4  1  0
 21 14  1  0
  5 22  1  0
  6 23  1  0
 12 24  1  0
 13 25  1  0
 15 26  1  0
 16 27  1  0
 21 28  1  0
M  CHG  1   3  -1
M  END
>  <UniqueID>  (8) 
8

>  <SMILES>  (8) 
O=C([N-]c1ccc(C(F)(F)F)cc1)c1ccc(F)c(F)c1

>  <Energy>  (8) 
36.403805652993874

>  <Genealogy>  (8) 
O=C([N-]c1ccc(C(F)(F)F)cc1)c1ccc(F)c(F)c1 (protonated)
O=C([N-]c1ccc(C(F)(F)F)cc1)c1ccc(F)c(F)c1 (3D coordinates assigned)
O=C([N-]c1ccc(C(F)(F)F)cc1)c1ccc(F)c(F)c1 (optimized conformer: 36.403805652993874 kcal/mol)

>  <smiles>  (8) 
O=C(Nc1ccc(C(F)(F)F)cc1)c1ccc(F)c(F)c1

>  <score_type>  (8) 
oracle

>  <origin>  (8) 
adgpu

>  <m_score__min__energy>  (8) 
-7.9100000000000001

>  <m_primary>  (8) 
energy

$$$$
8:0
     RDKit          3D

 48 51  0  0  0  0  0  0  0  0999 V2000
   -3.9560   24.7350  -30.6240 O   0  0  0  0  0  0  0  0  0  0  0  0
   -3.6890   24.0630  -29.5920 C   0  0  0  0  0  0  0  0  0  0  0  0
   -4.2710   22.7600  -29.4190 N   0  0  0  0  0  0  0  0  0  0  0  0
   -5.0670   22.1220  -30.4730 C   0  0  0  0  0  0  0  0  0  0  0  0
   -6.2940   22.9940  -30.8200 C   0  0  0  0  0  0  0  0  0  0  0  0
   -6.6790   22.9260  -32.3120 C   0  0  0  0  0  0  0  0  0  0  0  0
   -6.4470   21.5880  -32.9020 N   0  0  0  0  0  0  0  0  0  0  0  0
   -7.3900   20.5600  -32.4040 C   0  0  0  0  0  0  0  0  0  0  0  0
   -6.8260   19.1740  -32.5870 C   0  0  0  0  0  0  0  0  0  0  0  0
   -6.6340   18.3280  -31.4810 C   0  0  0  0  0  0  0  0  0  0  0  0
   -6.1260   17.0390  -31.6610 C   0  0  0  0  0  0  0  0  0  0  0  0
   -5.8080   16.5840  -32.9450 C   0  0  0  0  0  0  0  0  0  0  0  0
   -6.0010   17.4180  -34.0500 C   0  0  0  0  0  0  0  0  0  0  0  0
   -6.5090   18.7090  -33.8730 C   0  0  0  0  0  0  0  0  0  0  0  0
   -5.0260   21.1530  -32.8160 C   0  0  0  0  0  0  0  0  0  0  0  0
   -4.2100   21.8690  -31.7200 C   0  0  0  0  0  0  0  0  0  0  0  0
   -2.7860   24.6380  -28.5740 C   0  0  0  0  0  0  0  0  0  0  0  0
   -2.7990   24.2930  -27.2230 C   0  0  0  0  0  0  0  0  0  0  0  0
   -1.8190   25.0690  -26.6450 C   0  0  0  0  0  0  0  0  0  0  0  0
   -1.3880   25.1510  -25.3220 C   0  0  0  0  0  0  0  0  0  0  0  0
   -0.3540   26.0590  -25.0250 C   0  0  0  0  0  0  0  0  0  0  0  0
    0.0970   26.1710  -23.7520 F   0  0  0  0  0  0  0  0  0  0  0  0
    0.2150   26.8540  -26.0450 C   0  0  0  0  0  0  0  0  0  0  0  0
   -0.2430   26.7480  -27.3710 C   0  0  0  0  0  0  0  0  0  0  0  0
   -1.2670   25.8380  -27.6350 C   0  0  0  0  0  0  0  0  0  0  0  0
   -1.8480   25.5860  -28.8200 N   0  0  0  0  0  0  0  0  0  0  0  0
   -4.1680   22.2740  -28.5000 H   0  0  0  0  0  0  0  0  0  0  0  0
   -5.4245   21.1503  -30.1016 H   0  0  0  0  0  0  0  0  0  0  0  0
   -7.1498   22.6491  -30.2211 H   0  0  0  0  0  0  0  0  0  0  0  0
   -6.0298   24.0380  -30.5956 H   0  0  0  0  0  0  0  0  0  0  0  0
   -7.7460   23.1743  -32.4117 H   0  0  0  0  0  0  0  0  0  0  0  0
   -6.0423   23.6421  -32.8522 H   0  0  0  0  0  0  0  0  0  0  0  0
   -7.5784   20.7331  -31.3342 H   0  0  0  0  0  0  0  0  0  0  0  0
   -8.3254   20.6358  -32.9778 H   0  0  0  0  0  0  0  0  0  0  0  0
   -6.8846   18.6821  -30.4701 H   0  0  0  0  0  0  0  0  0  0  0  0
   -5.9759   16.3813  -30.7922 H   0  0  0  0  0  0  0  0  0  0  0  0
   -5.4060   15.5697  -33.0851 H   0  0  0  0  0  0  0  0  0  0  0  0
   -5.7531   17.0586  -35.0597 H   0  0  0  0  0  0  0  0  0  0  0  0
   -6.6607   19.3624  -34.7448 H   0  0  0  0  0  0  0  0  0  0  0  0
   -5.0080   20.0728  -32.6091 H   0  0  0  0  0  0  0  0  0  0  0  0
   -4.5580   21.4110  -33.7775 H   0  0  0  0  0  0  0  0  0  0  0  0
   -3.3499   21.2412  -31.4440 H   0  0  0  0  0  0  0  0  0  0  0  0
   -3.8694   22.8381  -32.1136 H   0  0  0  0  0  0  0  0  0  0  0  0
   -3.4511   23.5595  -26.7262 H   0  0  0  0  0  0  0  0  0  0  0  0
   -1.8404   24.5275  -24.5368 H   0  0  0  0  0  0  0  0  0  0  0  0
    1.0217   27.5608  -25.8007 H   0  0  0  0  0  0  0  0  0  0  0  0
    0.1919   27.3623  -28.1731 H   0  0  0  0  0  0  0  0  0  0  0  0
   -1.6240   26.0510  -29.7280 H   0  0  0  0  0  0  0  0  0  0  0  0
  1  2  2  0
  2  3  1  0
  3  4  1  0
  4  5  1  0
  5  6  1  0
  6  7  1  0
  7  8  1  0
  8  9  1  0
  9 10  2  0
 10 11  1  0
 11 12  2  0
 12 13  1  0
 13 14  2  0
  7 15  1  0
 15 16  1  0
  2 17  1  0
 17 18  2  0
 18 19  1  0
 19 20  2  0
 20 21  1  0
 21 22  1  0
 21 23  2  0
 23 24  1  0
 24 25  2  0
 25 26  1  0
 16  4  1  0
 26 17  1  0
 14  9  1  0
 25 19  1  0
  3 27  1  0
  4 28  1  0
  5 29  1  0
  5 30  1  0
  6 31  1  0
  6 32  1  0
  8 33  1  0
  8 34  1  0
 10 35  1  0
 11 36  1  0
 12 37  1  0
 13 38  1  0
 14 39  1  0
 15 40  1  0
 15 41  1  0
 16 42  1  0
 16 43  1  0
 18 44  1  0
 20 45  1  0
 23 46  1  0
 24 47  1  0
 26 48  1  0
M  END
>  <UniqueID>  (9) 
9

>  <SMILES>  (9) 
O=C(NC1CCN(Cc2ccccc2)CC1)c1cc2cc(F)ccc2[nH]1

>  <Energy>  (9) 
91.66081103389529

>  <Genealogy>  (9) 
O=C(NC1CCN(Cc2ccccc2)CC1)c1cc2cc(F)ccc2[nH]1 (3D coordinates assigned)
O=C(NC1CCN(Cc2ccccc2)CC1)c1cc2cc(F)ccc2[nH]1 (nonaromatic ring conformer: 91.66081103389529 kcal/mol)

>  <smiles>  (9) 
O=C(NC1CCN(Cc2ccccc2)CC1)c1cc2cc(F)ccc2[nH]1

>  <score_type>  (9) 
oracle

>  <origin>  (9) 
adgpu

>  <m_score__min__energy>  (9) 
-9.6899999999999995

>  <m_primary>  (9) 
energy

$$$$
9:0
     RDKit          3D

 43 46  0  0  0  0  0  0  0  0999 V2000
   -1.6864   19.6463  -34.3795 H   0  0  0  0  0  0  0  0  0  0  0  0
   -1.3530   20.0300  -33.4040 C   0  0  0  0  0  0  0  0  0  0  0  0
   -0.2570   19.4960  -32.8050 N   0  0  0  0  0  0  0  0  0  0  0  0
    0.1860   19.9450  -31.6020 C   0  0  0  0  0  0  0  0  0  0  0  0
    1.0775   19.4939  -31.1419 H   0  0  0  0  0  0  0  0  0  0  0  0
   -0.4890   20.9790  -30.9480 C   0  0  0  0  0  0  0  0  0  0  0  0
   -0.1255   21.3474  -29.9774 H   0  0  0  0  0  0  0  0  0  0  0  0
   -1.6330   21.5470  -31.5330 C   0  0  0  0  0  0  0  0  0  0  0  0
   -2.3410   22.6590  -30.8470 C   0  0  0  0  0  0  0  0  0  0  0  0
   -3.5420   23.0760  -31.3300 N   0  0  0  0  0  0  0  0  0  0  0  0
   -4.2380   24.0860  -30.7430 C   0  0  0  0  0  0  0  0  0  0  0  0
   -5.3890   24.4640  -31.2120 N   0  0  0  0  0  0  0  0  0  0  0  0
   -6.0510   23.8750  -32.3760 C   0  0  0  0  0  0  0  0  0  0  0  0
   -6.6754   24.6395  -32.8614 H   0  0  0  0  0  0  0  0  0  0  0  0
   -5.2820   23.5108  -33.0731 H   0  0  0  0  0  0  0  0  0  0  0  0
   -6.9200   22.7150  -31.9650 C   0  0  0  0  0  0  0  0  0  0  0  0
   -8.2600   22.9220  -31.5930 C   0  0  0  0  0  0  0  0  0  0  0  0
   -8.6734   23.9413  -31.5781 H   0  0  0  0  0  0  0  0  0  0  0  0
   -9.0690   21.8370  -31.2420 C   0  0  0  0  0  0  0  0  0  0  0  0
  -10.1169   22.0039  -30.9523 H   0  0  0  0  0  0  0  0  0  0  0  0
   -8.5470   20.5400  -31.2590 C   0  0  0  0  0  0  0  0  0  0  0  0
   -9.1841   19.6871  -30.9821 H   0  0  0  0  0  0  0  0  0  0  0  0
   -7.2150   20.3270  -31.6280 C   0  0  0  0  0  0  0  0  0  0  0  0
   -6.8044   19.3066  -31.6397 H   0  0  0  0  0  0  0  0  0  0  0  0
   -6.4050   21.4100  -31.9820 C   0  0  0  0  0  0  0  0  0  0  0  0
   -5.3588   21.2382  -32.2753 H   0  0  0  0  0  0  0  0  0  0  0  0
   -3.7260   24.7060  -29.6500 N   0  0  0  0  0  0  0  0  0  0  0  0
   -2.5270   24.3410  -29.1170 C   0  0  0  0  0  0  0  0  0  0  0  0
   -2.0120   25.0640  -27.9260 C   0  0  0  0  0  0  0  0  0  0  0  0
   -2.7040   24.9810  -26.7020 C   0  0  0  0  0  0  0  0  0  0  0  0
   -3.6259   24.3846  -26.6355 H   0  0  0  0  0  0  0  0  0  0  0  0
   -2.2280   25.6510  -25.5710 C   0  0  0  0  0  0  0  0  0  0  0  0
   -2.7802   25.5858  -24.6219 H   0  0  0  0  0  0  0  0  0  0  0  0
   -1.0530   26.4030  -25.6430 C   0  0  0  0  0  0  0  0  0  0  0  0
   -0.4570   27.2400  -24.2210 Cl  0  0  0  0  0  0  0  0  0  0  0  0
   -0.3500   26.4820  -26.8480 C   0  0  0  0  0  0  0  0  0  0  0  0
    0.5778   27.0703  -26.9040 H   0  0  0  0  0  0  0  0  0  0  0  0
   -0.8220   25.8160  -27.9820 C   0  0  0  0  0  0  0  0  0  0  0  0
   -0.2602   25.8793  -28.9256 H   0  0  0  0  0  0  0  0  0  0  0  0
   -1.8000   23.3030  -29.7230 C   0  0  0  0  0  0  0  0  0  0  0  0
   -0.8214   22.9993  -29.3228 H   0  0  0  0  0  0  0  0  0  0  0  0
   -2.0580   21.0650  -32.7850 C   0  0  0  0  0  0  0  0  0  0  0  0
   -2.9414   21.5013  -33.2740 H   0  0  0  0  0  0  0  0  0  0  0  0
  1  2  1  0
  2  3  2  0
  3  4  1  0
  4  5  1  0
  4  6  2  0
  6  7  1  0
  6  8  1  0
  8  9  1  0
  9 10  2  0
 10 11  1  0
 11 12  2  0
 12 13  1  0
 13 14  1  0
 13 15  1  0
 13 16  1  0
 16 17  2  0
 17 18  1  0
 17 19  1  0
 19 20  1  0
 19 21  2  0
 21 22  1  0
 21 23  1  0
 23 24  1  0
 23 25  2  0
 25 26  1  0
 11 27  1  0
 27 28  1  0
 28 29  1  0
 29 30  2  0
 30 31  1  0
 30 32  1  0
 32 33  1  0
 32 34  2  0
 34 35  1  0
 34 36  1  0
 36 37  1  0
 36 38  2  0
 38 39  1  0
 28 40  2  0
 40 41  1  0
  8 42  2  0
 42 43  1  0
 42  2  1  0
 40  9  1  0
 25 16  1  0
 38 29  1  0
M  CHG  1  27  -1
M  END
>  <UniqueID>  (10) 
10

>  <SMILES>  (10) 
Clc1ccc(-c2cc(-c3ccncc3)n/c(=N\Cc3ccccc3)[n-]2)cc1

>  <Energy>  (10) 
55.35205091525101

>  <Genealogy>  (10) 
Clc1ccc(-c2cc(-c3ccncc3)nc(=NCc3ccccc3)[n-]2)cc1 (protonated)
Clc1ccc(-c2cc(-c3ccncc3)n/c(=N\Cc3ccccc3)[n-]2)cc1 (cis-trans isomerization)
Clc1ccc(-c2cc(-c3ccncc3)n/c(=N\Cc3ccccc3)[n-]2)cc1 (3D coordinates assigned)
Clc1ccc(-c2cc(-c3ccncc3)n/c(=N\Cc3ccccc3)[n-]2)cc1 (optimized conformer: 55.35205091525101 kcal/mol)

>  <smiles>  (10) 
Clc1ccc(-c2cc(-c3ccncc3)nc(=NCc3ccccc3)[nH]2)cc1

>  <score_type>  (10) 
oracle

>  <origin>  (10) 
adgpu

>  <m_score__min__energy>  (10) 
-9.8900000000000006

>  <m_primary>  (10) 
energy

$$$$
10:0
     RDKit          3D

 34 36  0  0  0  0  0  0  0  0999 V2000
   -0.4330   21.8190  -29.2050 O   0  0  0  0  0  0  0  0  0  0  0  0
   -0.9450   22.9670  -29.1320 C   0  0  0  0  0  0  0  0  0  0  0  0
   -2.2510   23.1820  -29.5740 C   0  0  0  0  0  0  0  0  0  0  0  0
   -2.7870   24.4760  -29.4880 C   0  0  0  0  0  0  0  0  0  0  0  0
   -4.1370   24.7510  -29.8970 N   0  0  0  0  0  0  0  0  0  0  0  0
   -4.9810   23.8220  -30.6000 C   0  0  0  0  0  0  0  0  0  0  0  0
   -6.3610   23.8210  -30.3530 C   0  0  0  0  0  0  0  0  0  0  0  0
   -7.2030   22.9450  -31.0440 C   0  0  0  0  0  0  0  0  0  0  0  0
   -6.6750   22.0590  -31.9980 C   0  0  0  0  0  0  0  0  0  0  0  0
   -7.4900   21.1760  -32.7220 O   0  0  0  0  0  0  0  0  0  0  0  0
   -7.2070   19.8230  -32.9670 C   0  0  0  0  0  0  0  0  0  0  0  0
   -6.3430   19.4180  -34.0020 C   0  0  0  0  0  0  0  0  0  0  0  0
   -6.1010   18.0590  -34.2240 C   0  0  0  0  0  0  0  0  0  0  0  0
   -6.7260   17.0960  -33.4260 C   0  0  0  0  0  0  0  0  0  0  0  0
   -6.4920   15.7780  -33.6440 F   0  0  0  0  0  0  0  0  0  0  0  0
   -7.6010   17.4930  -32.4110 C   0  0  0  0  0  0  0  0  0  0  0  0
   -7.8450   18.8510  -32.1860 C   0  0  0  0  0  0  0  0  0  0  0  0
   -5.3050   22.0900  -32.2760 C   0  0  0  0  0  0  0  0  0  0  0  0
   -4.4600   22.9640  -31.5860 C   0  0  0  0  0  0  0  0  0  0  0  0
   -2.0340   25.4730  -28.9450 N   0  0  0  0  0  0  0  0  0  0  0  0
   -0.7600   25.2420  -28.5220 C   0  0  0  0  0  0  0  0  0  0  0  0
   -0.0740   26.1790  -28.0370 O   0  0  0  0  0  0  0  0  0  0  0  0
   -0.2250   23.9970  -28.6200 N   0  0  0  0  0  0  0  0  0  0  0  0
   -2.8486   22.3534  -29.9818 H   0  0  0  0  0  0  0  0  0  0  0  0
   -4.5300   25.6920  -29.6690 H   0  0  0  0  0  0  0  0  0  0  0  0
   -6.7839   24.5140  -29.6107 H   0  0  0  0  0  0  0  0  0  0  0  0
   -8.2839   22.9493  -30.8399 H   0  0  0  0  0  0  0  0  0  0  0  0
   -5.8570   20.1727  -34.6377 H   0  0  0  0  0  0  0  0  0  0  0  0
   -5.4179   17.7470  -35.0277 H   0  0  0  0  0  0  0  0  0  0  0  0
   -8.0987   16.7353  -31.7879 H   0  0  0  0  0  0  0  0  0  0  0  0
   -8.5415   19.1577  -31.3917 H   0  0  0  0  0  0  0  0  0  0  0  0
   -4.8888   21.4212  -33.0438 H   0  0  0  0  0  0  0  0  0  0  0  0
   -3.3842   22.9811  -31.8146 H   0  0  0  0  0  0  0  0  0  0  0  0
   -2.4350   26.4360  -28.8610 H   0  0  0  0  0  0  0  0  0  0  0  0
  1  2  2  0
  2  3  1  0
  3  4  2  0
  4  5  1  0
  5  6  1  0
  6  7  2  0
  7  8  1  0
  8  9  2  0
  9 10  1  0
 10 11  1  0
 11 12  2  0
 12 13  1  0
 13 14  2  0
 14 15  1  0
 14 16  1  0
 16 17  2  0
  9 18  1  0
 18 19  2  0
  4 20  1  0
 20 21  1  0
 21 22  2  0
 21 23  1  0
 23  2  1  0
 19  6  1  0
 17 11  1  0
  3 24  1  0
  5 25  1  0
  7 26  1  0
  8 27  1  0
 12 28  1  0
 13 29  1  0
 16 30  1  0
 17 31  1  0
 18 32  1  0
 19 33  1  0
 20 34  1  0
M  CHG  1  23  -1
M  END
>  <UniqueID>  (11) 
11

>  <SMILES>  (11) 
O=c1cc(Nc2ccc(Oc3ccc(F)cc3)cc2)[nH]c(=O)[n-]1

>  <Energy>  (11) 
49.653425017554

>  <Genealogy>  (11) 
O=c1cc(Nc2ccc(Oc3ccc(F)cc3)cc2)[nH]c(=O)[n-]1 (protonated)
O=c1cc(Nc2ccc(Oc3ccc(F)cc3)cc2)[nH]c(=O)[n-]1 (3D coordinates assigned)
O=c1cc(Nc2ccc(Oc3ccc(F)cc3)cc2)[nH]c(=O)[n-]1 (optimized conformer: 49.653425017554 kcal/mol)

>  <smiles>  (11) 
O=c1cc(Nc2ccc(Oc3ccc(F)cc3)cc2)[nH]c(=O)[nH]1

>  <score_type>  (11) 
oracle

>  <origin>  (11) 
adgpu

>  <m_score__min__energy>  (11) 
-9.2400000000000002

>  <m_primary>  (11) 
energy

$$$$
11:0
     RDKit          3D

 31 32  0  0  0  0  0  0  0  0999 V2000
   -0.6360   27.1580  -28.2190 H   0  0  0  0  0  0  0  0  0  0  0  0
   -1.2810   26.4450  -28.5880 N   0  0  0  0  0  0  0  0  0  0  0  0
   -0.9890   25.1970  -28.5090 C   0  0  0  0  0  0  0  0  0  0  0  0
   -0.0398   24.8849  -28.0490 H   0  0  0  0  0  0  0  0  0  0  0  0
   -1.9360   24.1630  -29.0410 C   0  0  0  0  0  0  0  0  0  0  0  0
   -1.5591   23.7926  -30.0057 H   0  0  0  0  0  0  0  0  0  0  0  0
   -2.0033   23.3417  -28.3123 H   0  0  0  0  0  0  0  0  0  0  0  0
   -3.2740   24.7260  -29.2340 N   0  0  0  0  0  0  0  0  0  0  0  0
   -3.4920   25.6620  -28.8200 H   0  0  0  0  0  0  0  0  0  0  0  0
   -4.3110   24.0570  -29.9760 C   0  0  0  0  0  0  0  0  0  0  0  0
   -4.0360   22.8220  -30.5840 C   0  0  0  0  0  0  0  0  0  0  0  0
   -3.0336   22.3791  -30.4886 H   0  0  0  0  0  0  0  0  0  0  0  0
   -5.0230   22.1500  -31.3090 C   0  0  0  0  0  0  0  0  0  0  0  0
   -4.7889   21.1876  -31.7875 H   0  0  0  0  0  0  0  0  0  0  0  0
   -6.3070   22.6920  -31.4310 C   0  0  0  0  0  0  0  0  0  0  0  0
   -7.2650   21.9930  -32.1800 O   0  0  0  0  0  0  0  0  0  0  0  0
   -7.1830   20.6410  -32.5460 C   0  0  0  0  0  0  0  0  0  0  0  0
   -6.2120   20.2540  -33.4780 C   0  0  0  0  0  0  0  0  0  0  0  0
   -5.5414   21.0088  -33.9145 H   0  0  0  0  0  0  0  0  0  0  0  0
   -6.0900   18.9130  -33.8570 C   0  0  0  0  0  0  0  0  0  0  0  0
   -5.3321   18.6180  -34.5976 H   0  0  0  0  0  0  0  0  0  0  0  0
   -6.9310   17.9470  -33.2950 C   0  0  0  0  0  0  0  0  0  0  0  0
   -6.7750   16.2650  -33.7690 Cl  0  0  0  0  0  0  0  0  0  0  0  0
   -7.8900   18.3220  -32.3490 C   0  0  0  0  0  0  0  0  0  0  0  0
   -8.5477   17.5617  -31.9024 H   0  0  0  0  0  0  0  0  0  0  0  0
   -8.0140   19.6620  -31.9700 C   0  0  0  0  0  0  0  0  0  0  0  0
   -8.7636   19.9521  -31.2191 H   0  0  0  0  0  0  0  0  0  0  0  0
   -6.5840   23.9380  -30.8430 C   0  0  0  0  0  0  0  0  0  0  0  0
   -7.5825   24.3857  -30.9554 H   0  0  0  0  0  0  0  0  0  0  0  0
   -5.5980   24.6120  -30.1160 C   0  0  0  0  0  0  0  0  0  0  0  0
   -5.8288   25.5816  -29.6505 H   0  0  0  0  0  0  0  0  0  0  0  0
  1  2  1  0
  2  3  2  0
  3  4  1  0
  3  5  1  0
  5  6  1  0
  5  7  1  0
  5  8  1  0
  8  9  1  0
  8 10  1  0
 10 11  2  0
 11 12  1  0
 11 13  1  0
 13 14  1  0
 13 15  2  0
 15 16  1  0
 16 17  1  0
 17 18  2  0
 18 19  1  0
 18 20  1  0
 20 21  1  0
 20 22  2  0
 22 23  1  0
 22 24  1  0
 24 25  1  0
 24 26  2  0
 26 27  1  0
 15 28  1  0
 28 29  1  0
 28 30  2  0
 30 31  1  0
 30 10  1  0
 26 17  1  0
M  END
>  <UniqueID>  (12) 
12

>  <SMILES>  (12) 
[H]/N=C/CNc1ccc(Oc2ccc(Cl)cc2)cc1

>  <Energy>  (12) 
35.44035452036808

>  <Genealogy>  (12) 
[H]/N=C/CNc1ccc(Oc2ccc(Cl)cc2)cc1 (cis-trans isomerization)
[H]/N=C/CNc1ccc(Oc2ccc(Cl)cc2)cc1 (3D coordinates assigned)
[H]/N=C/CNc1ccc(Oc2ccc(Cl)cc2)cc1 (optimized conformer: 35.44035452036808 kcal/mol)

>  <smiles>  (12) 
N=CCNc1ccc(Oc2ccc(Cl)cc2)cc1

>  <score_type>  (12) 
oracle

>  <origin>  (12) 
adgpu

>  <m_score__min__energy>  (12) 
-7.3799999999999999

>  <m_primary>  (12) 
energy

$$$$
12:0
     RDKit          3D

 49 51  0  0  0  0  0  0  0  0999 V2000
   -6.8530   24.8980  -29.7300 C   0  0  0  0  0  0  0  0  0  0  0  0
   -5.4270   25.2670  -30.1220 C   0  0  0  0  0  0  0  0  0  0  0  0
   -4.7360   24.1190  -30.8020 C   0  0  0  0  0  0  0  0  0  0  0  0
   -3.4680   23.7660  -30.4900 N   0  0  0  0  0  0  0  0  0  0  0  0
   -3.1880   22.7420  -31.3170 C   0  0  0  0  0  0  0  0  0  0  0  0
   -4.2870   22.4850  -32.1000 C   0  0  0  0  0  0  0  0  0  0  0  0
   -4.3240   21.5190  -33.1590 N   0  0  0  0  0  0  0  0  0  0  0  0
   -3.2240   20.5800  -33.3890 C   0  0  0  0  0  0  0  0  0  0  0  0
   -3.4390   19.3300  -32.6160 N   0  0  0  0  0  0  0  0  0  0  0  0
   -3.0200   18.1360  -33.3840 C   0  0  0  0  0  0  0  0  0  0  0  0
   -3.9160   17.8790  -34.6110 C   0  0  0  0  0  0  0  0  0  0  0  0
   -5.3960   18.2020  -34.3500 C   0  0  0  0  0  0  0  0  0  0  0  0
   -5.7170   18.2080  -32.8580 C   0  0  0  0  0  0  0  0  0  0  0  0
   -4.8340   19.2180  -32.0950 C   0  0  0  0  0  0  0  0  0  0  0  0
   -5.2650   23.3670  -31.8020 N   0  0  0  0  0  0  0  0  0  0  0  0
   -6.5470   23.5640  -32.4950 C   0  0  0  0  0  0  0  0  0  0  0  0
   -7.5110   22.4290  -32.2450 C   0  0  0  0  0  0  0  0  0  0  0  0
   -7.2590   21.1340  -32.7330 C   0  0  0  0  0  0  0  0  0  0  0  0
   -8.1870   20.1110  -32.5290 C   0  0  0  0  0  0  0  0  0  0  0  0
   -9.3830   20.3730  -31.8580 C   0  0  0  0  0  0  0  0  0  0  0  0
   -9.6570   21.6600  -31.3960 C   0  0  0  0  0  0  0  0  0  0  0  0
   -8.7310   22.6880  -31.5980 C   0  0  0  0  0  0  0  0  0  0  0  0
   -6.9378   24.8761  -28.6335 H   0  0  0  0  0  0  0  0  0  0  0  0
   -7.5501   25.6453  -30.1368 H   0  0  0  0  0  0  0  0  0  0  0  0
   -7.1001   23.9063  -30.1368 H   0  0  0  0  0  0  0  0  0  0  0  0
   -5.4545   26.1264  -30.8080 H   0  0  0  0  0  0  0  0  0  0  0  0
   -4.8684   25.5178  -29.2082 H   0  0  0  0  0  0  0  0  0  0  0  0
   -2.2327   22.1982  -31.3592 H   0  0  0  0  0  0  0  0  0  0  0  0
   -4.9730   21.7100  -33.9550 H   0  0  0  0  0  0  0  0  0  0  0  0
   -3.1718   20.3387  -34.4609 H   0  0  0  0  0  0  0  0  0  0  0  0
   -2.2833   21.0454  -33.0597 H   0  0  0  0  0  0  0  0  0  0  0  0
   -2.8030   19.3700  -31.7860 H   0  0  0  0  0  0  0  0  0  0  0  0
   -1.9853   18.2827  -33.7273 H   0  0  0  0  0  0  0  0  0  0  0  0
   -3.1058   17.2639  -32.7191 H   0  0  0  0  0  0  0  0  0  0  0  0
   -3.5613   18.5063  -35.4421 H   0  0  0  0  0  0  0  0  0  0  0  0
   -3.8494   16.8072  -34.8493 H   0  0  0  0  0  0  0  0  0  0  0  0
   -5.6236   19.1938  -34.7678 H   0  0  0  0  0  0  0  0  0  0  0  0
   -6.0071   17.4231  -34.8294 H   0  0  0  0  0  0  0  0  0  0  0  0
   -6.7736   18.4813  -32.7205 H   0  0  0  0  0  0  0  0  0  0  0  0
   -5.5179   17.2030  -32.4575 H   0  0  0  0  0  0  0  0  0  0  0  0
   -5.3073   20.2087  -32.1616 H   0  0  0  0  0  0  0  0  0  0  0  0
   -4.7559   18.8505  -31.0611 H   0  0  0  0  0  0  0  0  0  0  0  0
   -7.0020   24.5001  -32.1389 H   0  0  0  0  0  0  0  0  0  0  0  0
   -6.3442   23.6030  -33.5754 H   0  0  0  0  0  0  0  0  0  0  0  0
   -6.3263   20.9263  -33.2780 H   0  0  0  0  0  0  0  0  0  0  0  0
   -7.9754   19.0965  -32.8977 H   0  0  0  0  0  0  0  0  0  0  0  0
  -10.1097   19.5637  -31.6936 H   0  0  0  0  0  0  0  0  0  0  0  0
  -10.6021   21.8665  -30.8724 H   0  0  0  0  0  0  0  0  0  0  0  0
   -8.9590   23.7057  -31.2483 H   0  0  0  0  0  0  0  0  0  0  0  0
  1  2  1  0
  2  3  1  0
  3  4  2  0
  4  5  1  0
  5  6  2  0
  6  7  1  0
  7  8  1  0
  8  9  1  0
  9 10  1  0
 10 11  1  0
 11 12  1  0
 12 13  1  0
 13 14  1  0
  6 15  1  0
 15 16  1  0
 16 17  1  0
 17 18  2  0
 18 19  1  0
 19 20  2  0
 20 21  1  0
 21 22  2  0
 15  3  1  0
 22 17  1  0
 14  9  1  0
  1 23  1  0
  1 24  1  0
  1 25  1  0
  2 26  1  0
  2 27  1  0
  5 28  1  0
  7 29  1  0
  8 30  1  0
  8 31  1  0
  9 32  1  0
 10 33  1  0
 10 34  1  0
 11 35  1  0
 11 36  1  0
 12 37  1  0
 12 38  1  0
 13 39  1  0
 13 40  1  0
 14 41  1  0
 14 42  1  0
 16 43  1  0
 16 44  1  0
 18 45  1  0
 19 46  1  0
 20 47  1  0
 21 48  1  0
 22 49  1  0
M  CHG  1   9   1
M  END
>  <UniqueID>  (13) 
13

>  <SMILES>  (13) 
CCc1ncc(NC[NH+]2CCCCC2)n1Cc1ccccc1

>  <Energy>  (13) 
88.08677997479099

>  <Genealogy>  (13) 
CCc1ncc(NC[NH+]2CCCCC2)n1Cc1ccccc1 (protonated)
CCc1ncc(NC[NH+]2CCCCC2)n1Cc1ccccc1 (3D coordinates assigned)
CCc1ncc(NC[NH+]2CCCCC2)n1Cc1ccccc1 (nonaromatic ring conformer: 88.08677997479099 kcal/mol)

>  <smiles>  (13) 
CCc1ncc(NCN2CCCCC2)n1Cc1ccccc1

>  <score_type>  (13) 
oracle

>  <origin>  (13) 
adgpu

>  <m_score__min__energy>  (13) 
-7.1699999999999999

>  <m_primary>  (13) 
energy

$$$$
13:0
     RDKit          3D

 24 25  0  0  0  0  0  0  0  0999 V2000
   -7.7926   23.5972  -30.7991 H   0  0  0  0  0  0  0  0  0  0  0  0
   -7.4210   22.7090  -31.3310 C   0  0  0  0  0  0  0  0  0  0  0  0
   -8.2660   21.6130  -31.5290 C   0  0  0  0  0  0  0  0  0  0  0  0
   -9.2996   21.6454  -31.1539 H   0  0  0  0  0  0  0  0  0  0  0  0
   -7.8040   20.4700  -32.2040 C   0  0  0  0  0  0  0  0  0  0  0  0
   -8.7000   19.2680  -32.3730 C   0  0  0  0  0  0  0  0  0  0  0  0
   -9.0840   18.7690  -31.1410 F   0  0  0  0  0  0  0  0  0  0  0  0
   -9.8420   19.6060  -33.0790 F   0  0  0  0  0  0  0  0  0  0  0  0
   -8.0170   18.2860  -33.0650 F   0  0  0  0  0  0  0  0  0  0  0  0
   -6.4630   20.4240  -32.6240 C   0  0  0  0  0  0  0  0  0  0  0  0
   -6.0748   19.5186  -33.1135 H   0  0  0  0  0  0  0  0  0  0  0  0
   -5.6200   21.5200  -32.4240 C   0  0  0  0  0  0  0  0  0  0  0  0
   -4.5716   21.4693  -32.7532 H   0  0  0  0  0  0  0  0  0  0  0  0
   -6.0990   22.6820  -31.8080 C   0  0  0  0  0  0  0  0  0  0  0  0
   -5.1940   23.7720  -31.5820 N   0  0  0  0  0  0  0  0  0  0  0  0
   -4.3670   23.8980  -30.5860 C   0  0  0  0  0  0  0  0  0  0  0  0
   -3.5240   24.9470  -30.4800 N   0  0  0  0  0  0  0  0  0  0  0  0
   -2.7940   24.9250  -29.3660 N   0  0  0  0  0  0  0  0  0  0  0  0
   -3.0480   23.8530  -28.5810 C   0  0  0  0  0  0  0  0  0  0  0  0
   -2.4140   23.6400  -27.2490 C   0  0  0  0  0  0  0  0  0  0  0  0
   -3.1366   23.8828  -26.4560 H   0  0  0  0  0  0  0  0  0  0  0  0
   -2.1048   22.5886  -27.1540 H   0  0  0  0  0  0  0  0  0  0  0  0
   -1.5327   24.2914  -27.1540 H   0  0  0  0  0  0  0  0  0  0  0  0
   -4.2520   22.8770  -29.2410 S   0  0  0  0  0  0  0  0  0  0  0  0
  1  2  1  0
  2  3  2  0
  3  4  1  0
  3  5  1  0
  5  6  1  0
  6  7  1  0
  6  8  1  0
  6  9  1  0
  5 10  2  0
 10 11  1  0
 10 12  1  0
 12 13  1  0
 12 14  2  0
 14 15  1  0
 15 16  2  0
 16 17  1  0
 17 18  1  0
 18 19  2  0
 19 20  1  0
 20 21  1  0
 20 22  1  0
 20 23  1  0
 19 24  1  0
 14  2  1  0
 24 16  1  0
M  CHG  1  17  -1
M  END
>  <UniqueID>  (14) 
14

>  <SMILES>  (14) 
Cc1n[n-]/c(=N/c2ccc(C(F)(F)F)cc2)s1

>  <Energy>  (14) 
64.75510879259592

>  <Genealogy>  (14) 
Cc1n[n-]c(=Nc2ccc(C(F)(F)F)cc2)s1 (protonated)
Cc1n[n-]/c(=N/c2ccc(C(F)(F)F)cc2)s1 (cis-trans isomerization)
Cc1n[n-]/c(=N/c2ccc(C(F)(F)F)cc2)s1 (3D coordinates assigned)
Cc1n[n-]/c(=N/c2ccc(C(F)(F)F)cc2)s1 (optimized conformer: 64.75510879259592 kcal/mol)

>  <smiles>  (14) 
Cc1n[nH]c(=Nc2ccc(C(F)(F)F)cc2)s1

>  <score_type>  (14) 
oracle

>  <origin>  (14) 
adgpu

>  <m_score__min__energy>  (14) 
-8

>  <m_primary>  (14) 
energy

$$$$
14:0
     RDKit          3D

 19 19  0  0  0  0  0  0  0  0999 V2000
   -4.9670   23.4880  -29.1750 C   0  0  0  0  0  0  0  0  0  0  0  0
   -5.1810   24.6160  -30.5370 S   0  0  0  0  0  0  0  0  0  0  0  0
   -3.8650   25.2850  -30.8180 O   0  0  0  0  0  0  0  0  0  0  0  0
   -6.1960   25.6650  -30.1830 O   0  0  0  0  0  0  0  0  0  0  0  0
   -5.6750   23.7650  -31.9380 O   0  0  0  0  0  0  0  0  0  0  0  0
   -6.6660   22.7720  -31.9770 C   0  0  0  0  0  0  0  0  0  0  0  0
   -7.9770   23.1380  -31.6490 C   0  0  0  0  0  0  0  0  0  0  0  0
   -9.0070   22.1920  -31.6710 C   0  0  0  0  0  0  0  0  0  0  0  0
   -8.7310   20.8680  -32.0180 C   0  0  0  0  0  0  0  0  0  0  0  0
   -7.4260   20.4860  -32.3400 C   0  0  0  0  0  0  0  0  0  0  0  0
   -7.0810   18.8210  -32.7680 Cl  0  0  0  0  0  0  0  0  0  0  0  0
   -6.3930   21.4320  -32.3190 C   0  0  0  0  0  0  0  0  0  0  0  0
   -5.0708   24.0349  -28.2262 H   0  0  0  0  0  0  0  0  0  0  0  0
   -5.7315   22.6989  -29.2289 H   0  0  0  0  0  0  0  0  0  0  0  0
   -3.9666   23.0337  -29.2289 H   0  0  0  0  0  0  0  0  0  0  0  0
   -8.1990   24.1790  -31.3715 H   0  0  0  0  0  0  0  0  0  0  0  0
  -10.0342   22.4910  -31.4150 H   0  0  0  0  0  0  0  0  0  0  0  0
   -9.5417   20.1248  -32.0379 H   0  0  0  0  0  0  0  0  0  0  0  0
   -5.3660   21.1283  -32.5701 H   0  0  0  0  0  0  0  0  0  0  0  0
  1  2  1  0
  2  3  2  0
  2  4  2  0
  2  5  1  0
  5  6  1  0
  6  7  2  0
  7  8  1  0
  8  9  2  0
  9 10  1  0
 10 11  1  0
 10 12  2  0
 12  6  1  0
  1 13  1  0
  1 14  1  0
  1 15  1  0
  7 16  1  0
  8 17  1  0
  9 18  1  0
 12 19  1  0
M  END
>  <UniqueID>  (15) 
15

>  <SMILES>  (15) 
CS(=O)(=O)Oc1cccc(Cl)c1

>  <Energy>  (15) 
13.211699496291516

>  <Genealogy>  (15) 
CS(=O)(=O)Oc1cccc(Cl)c1 (3D coordinates assigned)
CS(=O)(=O)Oc1cccc(Cl)c1 (optimized conformer: 13.211699496291516 kcal/mol)

>  <smiles>  (15) 
CS(=O)(=O)Oc1cccc(Cl)c1

>  <score_type>  (15) 
oracle

>  <origin>  (15) 
adgpu

>  <m_score__min__energy>  (15) 
-6.4800000000000004

>  <m_primary>  (15) 
energy

$$$$
15:0
     RDKit          3D

 28 29  0  0  0  0  0  0  0  0999 V2000
   -0.8000   26.7630  -27.8360 C   0  0  0  0  0  0  0  0  0  0  0  0
   -1.3320   26.0870  -28.9710 O   0  0  0  0  0  0  0  0  0  0  0  0
   -1.6830   24.7290  -28.9920 C   0  0  0  0  0  0  0  0  0  0  0  0
   -0.9670   23.7570  -28.2670 C   0  0  0  0  0  0  0  0  0  0  0  0
   -1.3550   22.4170  -28.3130 C   0  0  0  0  0  0  0  0  0  0  0  0
   -2.4550   22.0290  -29.0790 C   0  0  0  0  0  0  0  0  0  0  0  0
   -3.1770   22.9810  -29.8160 C   0  0  0  0  0  0  0  0  0  0  0  0
   -4.3880   22.5410  -30.6090 C   0  0  0  0  0  0  0  0  0  0  0  0
   -5.2920   23.6680  -30.8860 N   0  0  0  0  0  0  0  0  0  0  0  0
   -6.5840   23.1920  -31.1910 N   0  0  0  0  0  0  0  0  0  0  0  0
   -7.4320   22.5410  -30.3780 C   0  0  0  0  0  0  0  0  0  0  0  0
   -8.5970   22.3000  -31.0100 N   0  0  0  0  0  0  0  0  0  0  0  0
   -8.4930   22.8050  -32.2340 N   0  0  0  0  0  0  0  0  0  0  0  0
   -7.2650   23.3510  -32.3380 C   0  0  0  0  0  0  0  0  0  0  0  0
   -2.7880   24.3350  -29.7640 C   0  0  0  0  0  0  0  0  0  0  0  0
   -3.4960   25.2990  -30.4740 O   0  0  0  0  0  0  0  0  0  0  0  0
   -1.1742   26.2875  -26.9174 H   0  0  0  0  0  0  0  0  0  0  0  0
    0.2983   26.7064  -27.8570 H   0  0  0  0  0  0  0  0  0  0  0  0
   -1.1132   27.8172  -27.8570 H   0  0  0  0  0  0  0  0  0  0  0  0
   -0.0982   24.0551  -27.6618 H   0  0  0  0  0  0  0  0  0  0  0  0
   -0.7913   21.6637  -27.7431 H   0  0  0  0  0  0  0  0  0  0  0  0
   -2.7579   20.9719  -29.1055 H   0  0  0  0  0  0  0  0  0  0  0  0
   -4.0523   22.1096  -31.5636 H   0  0  0  0  0  0  0  0  0  0  0  0
   -4.9376   21.7970  -30.0137 H   0  0  0  0  0  0  0  0  0  0  0  0
   -5.3530   24.2790  -30.0370 H   0  0  0  0  0  0  0  0  0  0  0  0
   -4.9330   24.2430  -31.6850 H   0  0  0  0  0  0  0  0  0  0  0  0
   -7.2070   22.2463  -29.3424 H   0  0  0  0  0  0  0  0  0  0  0  0
   -6.8757   23.8552  -33.2348 H   0  0  0  0  0  0  0  0  0  0  0  0
  1  2  1  0
  2  3  1  0
  3  4  2  0
  4  5  1  0
  5  6  2  0
  6  7  1  0
  7  8  1  0
  8  9  1  0
  9 10  1  0
 10 11  1  0
 11 12  2  0
 12 13  1  0
 13 14  2  0
  7 15  2  0
 15 16  1  0
 15  3  1  0
 14 10  1  0
  1 17  1  0
  1 18  1  0
  1 19  1  0
  4 20  1  0
  5 21  1  0
  6 22  1  0
  8 23  1  0
  8 24  1  0
  9 25  1  0
  9 26  1  0
 11 27  1  0
 14 28  1  0
M  CHG  2   9   1  16  -1
M  END
>  <UniqueID>  (16) 
16

>  <SMILES>  (16) 
COc1cccc(C[NH2+]n2cnnc2)c1[O-]

>  <Energy>  (16) 
63.762963813505785

>  <Genealogy>  (16) 
COc1cccc(C[NH2+]n2cnnc2)c1[O-] (protonated)
COc1cccc(C[NH2+]n2cnnc2)c1[O-] (3D coordinates assigned)
COc1cccc(C[NH2+]n2cnnc2)c1[O-] (optimized conformer: 63.762963813505785 kcal/mol)

>  <smiles>  (16) 
COc1cccc(CNn2cnnc2)c1O

>  <score_type>  (16) 
oracle

>  <origin>  (16) 
adgpu

>  <m_score__min__energy>  (16) 
-7.4100000000000001

>  <m_primary>  (16) 
energy

$$$$
16:0
     RDKit          3D

 38 40  0  0  0  0  0  0  0  0999 V2000
   -5.6850   16.9640  -32.1510 C   0  0  0  0  0  0  0  0  0  0  0  0
   -6.2930   17.8390  -33.1500 N   0  0  0  0  0  0  0  0  0  0  0  0
   -5.6620   17.9500  -34.4640 C   0  0  0  0  0  0  0  0  0  0  0  0
   -7.1920   18.8730  -32.7220 C   0  0  0  0  0  0  0  0  0  0  0  0
   -8.5710   18.6160  -32.6900 C   0  0  0  0  0  0  0  0  0  0  0  0
   -9.4650   19.6020  -32.2680 C   0  0  0  0  0  0  0  0  0  0  0  0
   -8.9890   20.8530  -31.8740 C   0  0  0  0  0  0  0  0  0  0  0  0
   -7.6190   21.1240  -31.9060 C   0  0  0  0  0  0  0  0  0  0  0  0
   -6.7070   20.1460  -32.3420 C   0  0  0  0  0  0  0  0  0  0  0  0
   -5.2310   20.4740  -32.3840 C   0  0  0  0  0  0  0  0  0  0  0  0
   -5.0140   21.9050  -32.6020 N   0  0  0  0  0  0  0  0  0  0  0  0
   -4.3900   22.7870  -31.6510 C   0  0  0  0  0  0  0  0  0  0  0  0
   -5.0690   23.9250  -31.1290 C   0  0  0  0  0  0  0  0  0  0  0  0
   -4.4360   24.7820  -30.2100 C   0  0  0  0  0  0  0  0  0  0  0  0
   -3.1340   24.4730  -29.8320 C   0  0  0  0  0  0  0  0  0  0  0  0
   -2.3360   25.1310  -28.9820 N   0  0  0  0  0  0  0  0  0  0  0  0
   -1.1980   24.3970  -28.9890 C   0  0  0  0  0  0  0  0  0  0  0  0
   -0.1870   24.6990  -28.3010 O   0  0  0  0  0  0  0  0  0  0  0  0
   -1.2360   23.3080  -29.7980 N   0  0  0  0  0  0  0  0  0  0  0  0
   -2.4750   23.3830  -30.3180 C   0  0  0  0  0  0  0  0  0  0  0  0
   -3.0690   22.5130  -31.2280 C   0  0  0  0  0  0  0  0  0  0  0  0
   -5.9371   17.3269  -31.1436 H   0  0  0  0  0  0  0  0  0  0  0  0
   -6.0675   15.9406  -32.2785 H   0  0  0  0  0  0  0  0  0  0  0  0
   -4.5924   16.9656  -32.2785 H   0  0  0  0  0  0  0  0  0  0  0  0
   -4.5856   18.1393  -34.3391 H   0  0  0  0  0  0  0  0  0  0  0  0
   -5.8072   17.0125  -35.0208 H   0  0  0  0  0  0  0  0  0  0  0  0
   -6.1184   18.7817  -35.0208 H   0  0  0  0  0  0  0  0  0  0  0  0
   -8.9504   17.6310  -32.9995 H   0  0  0  0  0  0  0  0  0  0  0  0
  -10.5447   19.3925  -32.2462 H   0  0  0  0  0  0  0  0  0  0  0  0
   -9.6940   21.6274  -31.5375 H   0  0  0  0  0  0  0  0  0  0  0  0
   -7.2504   22.1103  -31.5876 H   0  0  0  0  0  0  0  0  0  0  0  0
   -4.7711   20.1826  -31.4282 H   0  0  0  0  0  0  0  0  0  0  0  0
   -4.7743   19.9209  -33.2180 H   0  0  0  0  0  0  0  0  0  0  0  0
   -5.3990   22.3180  -33.4820 H   0  0  0  0  0  0  0  0  0  0  0  0
   -6.1003   24.1364  -31.4480 H   0  0  0  0  0  0  0  0  0  0  0  0
   -4.9525   25.6647  -29.8051 H   0  0  0  0  0  0  0  0  0  0  0  0
   -2.5410   26.0030  -28.4440 H   0  0  0  0  0  0  0  0  0  0  0  0
   -2.5251   21.6356  -31.6079 H   0  0  0  0  0  0  0  0  0  0  0  0
  1  2  1  0
  2  3  1  0
  2  4  1  0
  4  5  2  0
  5  6  1  0
  6  7  2  0
  7  8  1  0
  8  9  2  0
  9 10  1  0
 10 11  1  0
 11 12  1  0
 12 13  2  0
 13 14  1  0
 14 15  2  0
 15 16  1  0
 16 17  1  0
 17 18  2  0
 17 19  1  0
 19 20  1  0
 20 21  2  0
  9  4  1  0
 21 12  1  0
 20 15  1  0
  1 22  1  0
  1 23  1  0
  1 24  1  0
  3 25  1  0
  3 26  1  0
  3 27  1  0
  5 28  1  0
  6 29  1  0
  7 30  1  0
  8 31  1  0
 10 32  1  0
 10 33  1  0
 11 34  1  0
 13 35  1  0
 14 36  1  0
 16 37  1  0
 21 38  1  0
M  CHG  1  19  -1
M  END
>  <UniqueID>  (17) 
17

>  <SMILES>  (17) 
CN(C)c1ccccc1CNc1ccc2[nH]c(=O)[n-]c2c1

>  <Energy>  (17) 
79.84822198666112

>  <Genealogy>  (17) 
CN(C)c1ccccc1CNc1ccc2[nH]c(=O)[n-]c2c1 (protonated)
CN(C)c1ccccc1CNc1ccc2[nH]c(=O)[n-]c2c1 (3D coordinates assigned)
CN(C)c1ccccc1CNc1ccc2[nH]c(=O)[n-]c2c1 (optimized conformer: 79.84822198666112 kcal/mol)

>  <smiles>  (17) 
CN(C)c1ccccc1CNc1ccc2[nH]c(=O)[nH]c2c1

>  <score_type>  (17) 
oracle

>  <origin>  (17) 
adgpu

>  <m_score__min__energy>  (17) 
-9.1600000000000001

>  <m_primary>  (17) 
energy

$$$$
17:0
     RDKit          3D

 21 21  0  0  0  0  0  0  0  0999 V2000
   -3.1970   20.1240  -33.2210 C   0  0  0  0  0  0  0  0  0  0  0  0
   -3.3790   21.4830  -32.5520 C   0  0  0  0  0  0  0  0  0  0  0  0
   -4.5980   22.1380  -33.0270 N   0  0  0  0  0  0  0  0  0  0  0  0
   -5.8760   22.0870  -32.3500 C   0  0  0  0  0  0  0  0  0  0  0  0
   -6.7950   21.0480  -32.6070 C   0  0  0  0  0  0  0  0  0  0  0  0
   -8.0310   21.0120  -31.9580 C   0  0  0  0  0  0  0  0  0  0  0  0
   -8.3730   22.0090  -31.0450 C   0  0  0  0  0  0  0  0  0  0  0  0
   -7.4800   23.0480  -30.7790 C   0  0  0  0  0  0  0  0  0  0  0  0
   -6.2360   23.0960  -31.4240 C   0  0  0  0  0  0  0  0  0  0  0  0
   -5.3410   24.1810  -31.1060 C   0  0  0  0  0  0  0  0  0  0  0  0
   -4.6220   25.0520  -30.8500 N   0  0  0  0  0  0  0  0  0  0  0  0
   -3.0929   19.3466  -32.4497 H   0  0  0  0  0  0  0  0  0  0  0  0
   -4.0736   19.9035  -33.8478 H   0  0  0  0  0  0  0  0  0  0  0  0
   -2.2932   20.1420  -33.8478 H   0  0  0  0  0  0  0  0  0  0  0  0
   -3.4462   21.3426  -31.4631 H   0  0  0  0  0  0  0  0  0  0  0  0
   -2.5169   22.1179  -32.8043 H   0  0  0  0  0  0  0  0  0  0  0  0
   -4.5160   22.6730  -33.9200 H   0  0  0  0  0  0  0  0  0  0  0  0
   -6.5352   20.2575  -33.3265 H   0  0  0  0  0  0  0  0  0  0  0  0
   -8.7369   20.1948  -32.1676 H   0  0  0  0  0  0  0  0  0  0  0  0
   -9.3468   21.9765  -30.5344 H   0  0  0  0  0  0  0  0  0  0  0  0
   -7.7536   23.8336  -30.0593 H   0  0  0  0  0  0  0  0  0  0  0  0
  1  2  1  0
  2  3  1  0
  3  4  1  0
  4  5  2  0
  5  6  1  0
  6  7  2  0
  7  8  1  0
  8  9  2  0
  9 10  1  0
 10 11  3  0
  9  4  1  0
  1 12  1  0
  1 13  1  0
  1 14  1  0
  2 15  1  0
  2 16  1  0
  3 17  1  0
  5 18  1  0
  6 19  1  0
  7 20  1  0
  8 21  1  0
M  END
>  <UniqueID>  (18) 
18

>  <SMILES>  (18) 
CCNc1ccccc1C#N

>  <Energy>  (18) 
17.414239180174295

>  <Genealogy>  (18) 
CCNc1ccccc1C#N (3D coordinates assigned)
CCNc1ccccc1C#N (optimized conformer: 17.414239180174295 kcal/mol)

>  <smiles>  (18) 
CCNc1ccccc1C#N

>  <score_type>  (18) 
oracle

>  <origin>  (18) 
adgpu

>  <m_score__min__energy>  (18) 
-5.4199999999999999

>  <m_primary>  (18) 
energy

$$$$
18:0
     RDKit          3D

 34 36  0  0  1  0  0  0  0  0999 V2000
   -4.4800   17.7570  -34.9380 C   0  0  0  0  0  0  0  0  0  0  0  0
   -5.3670   17.7440  -33.7560 C   0  0  0  0  0  0  0  0  0  0  0  0
   -5.1200   16.9680  -32.6490 C   0  0  0  0  0  0  0  0  0  0  0  0
   -5.9880   16.9930  -31.5610 C   0  0  0  0  0  0  0  0  0  0  0  0
   -7.0980   17.8060  -31.6040 C   0  0  0  0  0  0  0  0  0  0  0  0
   -7.3760   18.6070  -32.7170 C   0  0  0  0  0  0  0  0  0  0  0  0
   -8.5350   19.4370  -32.7260 N   0  0  0  0  0  0  0  0  0  0  0  0
   -8.4240   20.6610  -32.3310 C   0  0  0  0  0  0  0  0  0  0  0  0
   -7.2340   21.2140  -31.8980 C   0  0  0  0  0  0  0  0  0  0  0  0
   -7.1340   22.5240  -31.4810 C   0  0  0  0  0  0  0  0  0  0  0  0
   -5.8910   23.1290  -31.0210 C   0  0  0  0  0  0  0  0  0  0  0  0
   -4.8930   22.4300  -30.3800 C   0  0  0  0  0  0  0  0  0  0  0  0
   -3.7290   23.0410  -29.9580 C   0  0  0  0  0  0  0  0  0  0  0  0
   -3.6080   24.3970  -30.2110 C   0  0  0  0  0  0  0  0  0  0  0  0
   -4.5660   25.1050  -30.8350 N   0  0  0  0  0  0  0  0  0  0  0  0
   -5.7040   24.4790  -31.2390 C   0  0  0  0  0  0  0  0  0  0  0  0
   -8.2960   23.2410  -31.5240 N   0  0  0  0  0  0  0  0  0  0  0  0
   -9.4460   22.6970  -31.9460 C   0  0  0  0  0  0  0  0  0  0  0  0
   -9.5370   21.4100  -32.3550 N   0  0  0  0  0  0  0  0  0  0  0  0
   -6.4880   18.5510  -33.7770 C   0  0  0  0  0  0  0  0  0  0  0  0
   -3.4305   17.7724  -34.6087 H   0  0  0  0  0  0  0  0  0  0  0  0
   -4.6615   16.8561  -35.5425 H   0  0  0  0  0  0  0  0  0  0  0  0
   -4.6878   18.6522  -35.5425 H   0  0  0  0  0  0  0  0  0  0  0  0
   -4.2298   16.3223  -32.6225 H   0  0  0  0  0  0  0  0  0  0  0  0
   -5.7891   16.3699  -30.6766 H   0  0  0  0  0  0  0  0  0  0  0  0
   -7.7825   17.8264  -30.7431 H   0  0  0  0  0  0  0  0  0  0  0  0
   -6.3319   20.5847  -31.8856 H   0  0  0  0  0  0  0  0  0  0  0  0
   -5.0269   21.3533  -30.1988 H   0  0  0  0  0  0  0  0  0  0  0  0
   -2.9356   22.4775  -29.4453 H   0  0  0  0  0  0  0  0  0  0  0  0
   -2.6927   24.9152  -29.8891 H   0  0  0  0  0  0  0  0  0  0  0  0
   -6.4884   25.0584  -31.7480 H   0  0  0  0  0  0  0  0  0  0  0  0
  -10.3516   23.3212  -31.9605 H   0  0  0  0  0  0  0  0  0  0  0  0
  -10.4650   21.0640  -32.6660 H   0  0  0  0  0  0  0  0  0  0  0  0
   -6.6812   19.1696  -34.6658 H   0  0  0  0  0  0  0  0  0  0  0  0
  1  2  1  0
  2  3  2  0
  3  4  1  0
  4  5  2  0
  5  6  1  0
  6  7  1  0
  7  8  2  0
  8  9  1  0
  9 10  2  0
 10 11  1  0
 11 12  2  0
 12 13  1  0
 13 14  2  0
 14 15  1  0
 15 16  2  0
 10 17  1  0
 17 18  2  0
 18 19  1  0
  6 20  2  0
 20  2  1  0
 19  8  1  0
 16 11  1  0
  1 21  1  0
  1 22  1  0
  1 23  1  0
  3 24  1  0
  4 25  1  0
  5 26  1  0
  9 27  1  0
 12 28  1  0
 13 29  1  0
 14 30  1  0
 16 31  1  0
 18 32  1  0
 19 33  1  0
 20 34  1  0
M  END
>  <smiles>  (19) 
Cc1cccc(N=c2cc(-c3cccnc3)nc[nH]2)c1

>  <score_type>  (19) 
oracle

>  <origin>  (19) 
adgpu

>  <m_score__min__energy>  (19) 
-7.9900000000000002

>  <m_primary>  (19) 
energy

$$$$
19:0
     RDKit          3D

 32 34  0  0  0  0  0  0  0  0999 V2000
    0.2869   24.3414  -23.8797 H   0  0  0  0  0  0  0  0  0  0  0  0
   -0.2150   24.5410  -24.8380 C   0  0  0  0  0  0  0  0  0  0  0  0
   -1.1000   25.6160  -24.9520 C   0  0  0  0  0  0  0  0  0  0  0  0
   -1.3015   26.2568  -24.0809 H   0  0  0  0  0  0  0  0  0  0  0  0
   -1.7300   25.8780  -26.1730 C   0  0  0  0  0  0  0  0  0  0  0  0
   -2.4408   26.7134  -26.2553 H   0  0  0  0  0  0  0  0  0  0  0  0
   -1.4570   25.0760  -27.2960 C   0  0  0  0  0  0  0  0  0  0  0  0
   -2.1340   25.2880  -28.5450 N   0  0  0  0  0  0  0  0  0  0  0  0
   -3.0930   24.5690  -29.0640 C   0  0  0  0  0  0  0  0  0  0  0  0
   -3.7130   23.5160  -28.3690 C   0  0  0  0  0  0  0  0  0  0  0  0
   -3.3911   23.2605  -27.3487 H   0  0  0  0  0  0  0  0  0  0  0  0
   -4.7370   22.7990  -28.9810 C   0  0  0  0  0  0  0  0  0  0  0  0
   -5.2271   21.9699  -28.4496 H   0  0  0  0  0  0  0  0  0  0  0  0
   -5.1390   23.1410  -30.2790 C   0  0  0  0  0  0  0  0  0  0  0  0
   -6.2280   22.4140  -30.9820 C   0  0  0  0  0  0  0  0  0  0  0  0
   -7.5710   22.6660  -30.6400 C   0  0  0  0  0  0  0  0  0  0  0  0
   -7.8058   23.3950  -29.8505 H   0  0  0  0  0  0  0  0  0  0  0  0
   -8.6080   21.9960  -31.2970 C   0  0  0  0  0  0  0  0  0  0  0  0
   -9.6532   22.1956  -31.0184 H   0  0  0  0  0  0  0  0  0  0  0  0
   -8.3200   21.0740  -32.3060 C   0  0  0  0  0  0  0  0  0  0  0  0
   -9.1370   20.5458  -32.8193 H   0  0  0  0  0  0  0  0  0  0  0  0
   -6.9930   20.8240  -32.6620 C   0  0  0  0  0  0  0  0  0  0  0  0
   -6.7667   20.1001  -33.4587 H   0  0  0  0  0  0  0  0  0  0  0  0
   -5.9510   21.4900  -32.0100 C   0  0  0  0  0  0  0  0  0  0  0  0
   -4.9088   21.2919  -32.3008 H   0  0  0  0  0  0  0  0  0  0  0  0
   -4.5250   24.1870  -30.8950 N   0  0  0  0  0  0  0  0  0  0  0  0
   -3.5440   24.8790  -30.3110 N   0  0  0  0  0  0  0  0  0  0  0  0
   -3.1120   25.6720  -30.8380 H   0  0  0  0  0  0  0  0  0  0  0  0
   -0.5960   23.9790  -27.1630 C   0  0  0  0  0  0  0  0  0  0  0  0
   -0.4137   23.3188  -28.0238 H   0  0  0  0  0  0  0  0  0  0  0  0
    0.0330   23.7190  -25.9410 C   0  0  0  0  0  0  0  0  0  0  0  0
    0.7230   22.8674  -25.8480 H   0  0  0  0  0  0  0  0  0  0  0  0
  1  2  1  0
  2  3  2  0
  3  4  1  0
  3  5  1  0
  5  6  1  0
  5  7  2  0
  7  8  1  0
  8  9  2  0
  9 10  1  0
 10 11  1  0
 10 12  2  0
 12 13  1  0
 12 14  1  0
 14 15  1  0
 15 16  2  0
 16 17  1  0
 16 18  1  0
 18 19  1  0
 18 20  2  0
 20 21  1  0
 20 22  1  0
 22 23  1  0
 22 24  2  0
 24 25  1  0
 14 26  2  0
 26 27  1  0
 27 28  1  0
  7 29  1  0
 29 30  1  0
 29 31  2  0
 31 32  1  0
 31  2  1  0
 27  9  1  0
 24 15  1  0
M  END
>  <UniqueID>  (20) 
19

>  <SMILES>  (20) 
c1ccc(/N=c2\ccc(-c3ccccc3)n[nH]2)cc1

>  <Energy>  (20) 
49.03597345852921

>  <Genealogy>  (20) 
c1ccc(/N=c2\ccc(-c3ccccc3)n[nH]2)cc1 (cis-trans isomerization)
c1ccc(/N=c2\ccc(-c3ccccc3)n[nH]2)cc1 (3D coordinates assigned)
c1ccc(/N=c2\ccc(-c3ccccc3)n[nH]2)cc1 (optimized conformer: 49.03597345852921 kcal/mol)

>  <smiles>  (20) 
c1ccc(N=c2ccc(-c3ccccc3)n[nH]2)cc1

>  <score_type>  (20) 
oracle

>  <origin>  (20) 
adgpu

>  <m_score__min__energy>  (20) 
-8.3100000000000005

>  <m_primary>  (20) 
energy

$$$$
20:0
     RDKit          3D

 49 50  0  0  0  0  0  0  0  0999 V2000
   -7.4520   22.9950  -30.2850 C   0  0  0  0  0  0  0  0  0  0  0  0
   -8.0600   22.5050  -31.4750 O   0  0  0  0  0  0  0  0  0  0  0  0
   -8.0300   21.1640  -31.8910 C   0  0  0  0  0  0  0  0  0  0  0  0
   -9.2030   20.3910  -32.0030 C   0  0  0  0  0  0  0  0  0  0  0  0
   -9.1350   19.0560  -32.4120 C   0  0  0  0  0  0  0  0  0  0  0  0
   -7.9020   18.4800  -32.7190 C   0  0  0  0  0  0  0  0  0  0  0  0
   -6.7330   19.2350  -32.6110 C   0  0  0  0  0  0  0  0  0  0  0  0
   -6.7850   20.5750  -32.1880 C   0  0  0  0  0  0  0  0  0  0  0  0
   -5.5820   21.3580  -32.1030 N   0  0  0  0  0  0  0  0  0  0  0  0
   -4.3180   20.9240  -32.6270 C   0  0  0  0  0  0  0  0  0  0  0  0
   -4.1190   19.7040  -32.8700 O   0  0  0  0  0  0  0  0  0  0  0  0
   -3.1960   21.9160  -32.8210 C   0  0  0  0  0  0  0  0  0  0  0  0
   -2.5130   22.3150  -31.5710 N   0  0  0  0  0  0  0  0  0  0  0  0
   -1.6740   21.2680  -30.9750 C   0  0  0  0  0  0  0  0  0  0  0  0
   -3.5890   23.0370  -30.3930 S   0  0  0  0  0  0  0  0  0  0  0  0
   -4.4650   21.9600  -29.8190 O   0  0  0  0  0  0  0  0  0  0  0  0
   -4.4800   24.0380  -31.0770 O   0  0  0  0  0  0  0  0  0  0  0  0
   -2.7330   23.8560  -29.0830 C   0  0  0  0  0  0  0  0  0  0  0  0
   -3.4270   24.2890  -27.9470 C   0  0  0  0  0  0  0  0  0  0  0  0
   -2.7460   24.9220  -26.9050 C   0  0  0  0  0  0  0  0  0  0  0  0
   -1.3570   25.1340  -26.9870 C   0  0  0  0  0  0  0  0  0  0  0  0
   -0.6320   25.7480  -25.9520 O   0  0  0  0  0  0  0  0  0  0  0  0
   -1.2250   26.4340  -24.8530 C   0  0  0  0  0  0  0  0  0  0  0  0
   -0.6600   24.7190  -28.1310 C   0  0  0  0  0  0  0  0  0  0  0  0
    0.7290   24.9240  -28.1760 O   0  0  0  0  0  0  0  0  0  0  0  0
    1.6660   24.2890  -27.3090 C   0  0  0  0  0  0  0  0  0  0  0  0
   -1.3580   24.0970  -29.1850 C   0  0  0  0  0  0  0  0  0  0  0  0
   -7.9705   22.5771  -29.4095 H   0  0  0  0  0  0  0  0  0  0  0  0
   -6.3942   22.6940  -30.2629 H   0  0  0  0  0  0  0  0  0  0  0  0
   -7.5214   24.0926  -30.2629 H   0  0  0  0  0  0  0  0  0  0  0  0
  -10.1786   20.8411  -31.7670 H   0  0  0  0  0  0  0  0  0  0  0  0
  -10.0552   18.4587  -32.4919 H   0  0  0  0  0  0  0  0  0  0  0  0
   -7.8511   17.4310  -33.0461 H   0  0  0  0  0  0  0  0  0  0  0  0
   -5.7635   18.7782  -32.8587 H   0  0  0  0  0  0  0  0  0  0  0  0
   -5.6110   22.2630  -31.5830 H   0  0  0  0  0  0  0  0  0  0  0  0
   -2.4501   21.4655  -33.4924 H   0  0  0  0  0  0  0  0  0  0  0  0
   -3.6501   22.8277  -33.2366 H   0  0  0  0  0  0  0  0  0  0  0  0
   -1.7277   21.3351  -29.8784 H   0  0  0  0  0  0  0  0  0  0  0  0
   -2.0337   20.2806  -31.3000 H   0  0  0  0  0  0  0  0  0  0  0  0
   -0.6319   21.4039  -31.3000 H   0  0  0  0  0  0  0  0  0  0  0  0
   -4.5131   24.1300  -27.8748 H   0  0  0  0  0  0  0  0  0  0  0  0
   -3.2985   25.2570  -26.0147 H   0  0  0  0  0  0  0  0  0  0  0  0
   -0.8545   26.0054  -23.9101 H   0  0  0  0  0  0  0  0  0  0  0  0
   -0.9597   27.5005  -24.9002 H   0  0  0  0  0  0  0  0  0  0  0  0
   -2.3186   26.3258  -24.9002 H   0  0  0  0  0  0  0  0  0  0  0  0
    1.3849   24.4795  -26.2627 H   0  0  0  0  0  0  0  0  0  0  0  0
    1.6641   23.2053  -27.4977 H   0  0  0  0  0  0  0  0  0  0  0  0
    2.6719   24.6923  -27.4977 H   0  0  0  0  0  0  0  0  0  0  0  0
   -0.8179   23.7983  -30.0956 H   0  0  0  0  0  0  0  0  0  0  0  0
  1  2  1  0
  2  3  1  0
  3  4  2  0
  4  5  1  0
  5  6  2  0
  6  7  1  0
  7  8  2  0
  8  9  1  0
  9 10  1  0
 10 11  2  0
 10 12  1  0
 12 13  1  0
 13 14  1  0
 13 15  1  0
 15 16  2  0
 15 17  2  0
 15 18  1  0
 18 19  2  0
 19 20  1  0
 20 21  2  0
 21 22  1  0
 22 23  1  0
 21 24  1  0
 24 25  1  0
 25 26  1  0
 24 27  2  0
  8  3  1  0
 27 18  1  0
  1 28  1  0
  1 29  1  0
  1 30  1  0
  4 31  1  0
  5 32  1  0
  6 33  1  0
  7 34  1  0
  9 35  1  0
 12 36  1  0
 12 37  1  0
 14 38  1  0
 14 39  1  0
 14 40  1  0
 19 41  1  0
 20 42  1  0
 23 43  1  0
 23 44  1  0
 23 45  1  0
 26 46  1  0
 26 47  1  0
 26 48  1  0
 27 49  1  0
M  END
>  <UniqueID>  (21) 
20

>  <SMILES>  (21) 
COc1ccccc1NC(=O)CN(C)S(=O)(=O)c1ccc(OC)c(OC)c1

>  <Energy>  (21) 
51.137520233449024

>  <Genealogy>  (21) 
COc1ccccc1NC(=O)CN(C)S(=O)(=O)c1ccc(OC)c(OC)c1 (3D coordinates assigned)
COc1ccccc1NC(=O)CN(C)S(=O)(=O)c1ccc(OC)c(OC)c1 (optimized conformer: 51.137520233449024 kcal/mol)

>  <smiles>  (21) 
COc1ccccc1NC(=O)CN(C)S(=O)(=O)c1ccc(OC)c(OC)c1

>  <score_type>  (21) 
oracle

>  <origin>  (21) 
adgpu

>  <m_score__min__energy>  (21) 
-8.3800000000000008

>  <m_primary>  (21) 
energy

$$$$
21:0
     RDKit          3D

 39 41  0  0  0  0  0  0  0  0999 V2000
   -4.2530   25.6790  -30.9730 O   0  0  0  0  0  0  0  0  0  0  0  0
   -5.0390   24.7200  -30.7540 C   0  0  0  0  0  0  0  0  0  0  0  0
   -4.9790   24.0240  -29.4160 C   0  0  0  0  0  0  0  0  0  0  0  0
   -3.6640   23.3360  -29.1960 C   0  0  0  0  0  0  0  0  0  0  0  0
   -3.4700   21.6900  -28.9020 S   0  0  0  0  0  0  0  0  0  0  0  0
   -1.8060   21.8260  -28.6830 C   0  0  0  0  0  0  0  0  0  0  0  0
   -0.9400   20.7450  -28.3160 N   0  0  0  0  0  0  0  0  0  0  0  0
    0.5010   20.7770  -28.4870 C   0  0  0  0  0  0  0  0  0  0  0  0
    0.9790   19.3630  -28.1790 C   0  0  0  0  0  0  0  0  0  0  0  0
   -0.1770   18.6780  -27.4520 C   0  0  0  0  0  0  0  0  0  0  0  0
   -1.4240   19.4800  -27.7970 C   0  0  0  0  0  0  0  0  0  0  0  0
   -1.3770   23.0980  -28.8450 N   0  0  0  0  0  0  0  0  0  0  0  0
   -2.4070   23.9360  -29.1330 C   0  0  0  0  0  0  0  0  0  0  0  0
   -2.2070   25.2950  -29.3360 O   0  0  0  0  0  0  0  0  0  0  0  0
   -5.9810   24.3570  -31.7760 N   0  0  0  0  0  0  0  0  0  0  0  0
   -6.6450   23.0920  -31.8870 C   0  0  0  0  0  0  0  0  0  0  0  0
   -7.9880   22.9940  -31.5190 C   0  0  0  0  0  0  0  0  0  0  0  0
   -8.6370   21.7610  -31.5580 C   0  0  0  0  0  0  0  0  0  0  0  0
   -7.9590   20.6150  -31.9870 C   0  0  0  0  0  0  0  0  0  0  0  0
   -8.8310   19.0850  -31.9730 Cl  0  0  0  0  0  0  0  0  0  0  0  0
   -6.6120   20.7050  -32.4080 C   0  0  0  0  0  0  0  0  0  0  0  0
   -5.8650   19.4750  -32.8730 C   0  0  0  0  0  0  0  0  0  0  0  0
   -4.5630   19.8180  -33.1930 F   0  0  0  0  0  0  0  0  0  0  0  0
   -5.8520   18.5280  -31.8650 F   0  0  0  0  0  0  0  0  0  0  0  0
   -6.4520   18.9090  -33.9920 F   0  0  0  0  0  0  0  0  0  0  0  0
   -5.9690   21.9590  -32.3620 C   0  0  0  0  0  0  0  0  0  0  0  0
   -5.1263   24.7701  -28.6212 H   0  0  0  0  0  0  0  0  0  0  0  0
   -5.7690   23.2588  -29.3966 H   0  0  0  0  0  0  0  0  0  0  0  0
    0.7595   21.0538  -29.5197 H   0  0  0  0  0  0  0  0  0  0  0  0
    0.9738   21.5202  -27.8281 H   0  0  0  0  0  0  0  0  0  0  0  0
    1.2157   18.8279  -29.1105 H   0  0  0  0  0  0  0  0  0  0  0  0
    1.8928   19.3705  -27.5667 H   0  0  0  0  0  0  0  0  0  0  0  0
   -0.2833   17.6389  -27.7970 H   0  0  0  0  0  0  0  0  0  0  0  0
   -0.0068   18.6453  -26.3657 H   0  0  0  0  0  0  0  0  0  0  0  0
   -2.0203   18.9552  -28.5579 H   0  0  0  0  0  0  0  0  0  0  0  0
   -2.0742   19.6203  -26.9209 H   0  0  0  0  0  0  0  0  0  0  0  0
   -8.5356   23.8922  -31.1974 H   0  0  0  0  0  0  0  0  0  0  0  0
   -9.6903   21.6885  -31.2491 H   0  0  0  0  0  0  0  0  0  0  0  0
   -4.9268   22.0494  -32.7021 H   0  0  0  0  0  0  0  0  0  0  0  0
  1  2  2  0
  2  3  1  0
  3  4  1  0
  4  5  1  0
  5  6  1  0
  6  7  1  0
  7  8  1  0
  8  9  1  0
  9 10  1  0
 10 11  1  0
  6 12  2  0
 12 13  1  0
 13 14  1  0
  2 15  1  0
 15 16  1  0
 16 17  2  0
 17 18  1  0
 18 19  2  0
 19 20  1  0
 19 21  1  0
 21 22  1  0
 22 23  1  0
 22 24  1  0
 22 25  1  0
 21 26  2  0
 13  4  2  0
 26 16  1  0
 11  7  1  0
  3 27  1  0
  3 28  1  0
  8 29  1  0
  8 30  1  0
  9 31  1  0
  9 32  1  0
 10 33  1  0
 10 34  1  0
 11 35  1  0
 11 36  1  0
 17 37  1  0
 18 38  1  0
 26 39  1  0
M  CHG  2  14  -1  15  -1
M  END
>  <UniqueID>  (22) 
21

>  <SMILES>  (22) 
O=C(Cc1sc(N2CCCC2)nc1[O-])[N-]c1ccc(Cl)c(C(F)(F)F)c1

>  <Energy>  (22) 
72.76577793652373

>  <Genealogy>  (22) 
O=C(Cc1sc(N2CCCC2)nc1[O-])[N-]c1ccc(Cl)c(C(F)(F)F)c1 (protonated)
O=C(Cc1sc(N2CCCC2)nc1[O-])[N-]c1ccc(Cl)c(C(F)(F)F)c1 (3D coordinates assigned)
O=C(Cc1sc(N2CCCC2)nc1[O-])[N-]c1ccc(Cl)c(C(F)(F)F)c1 (nonaromatic ring conformer: 72.76577793652373 kcal/mol)

>  <smiles>  (22) 
O=C(Cc1sc(N2CCCC2)nc1O)Nc1ccc(Cl)c(C(F)(F)F)c1

>  <score_type>  (22) 
oracle

>  <origin>  (22) 
adgpu

>  <m_score__min__energy>  (22) 
-11.77

>  <m_primary>  (22) 
energy

$$$$
22:0
     RDKit          3D

 22 22  0  0  0  0  0  0  0  0999 V2000
    1.5880   25.8500  -35.3900 C   0  0  0  0  0  0  0  0  0  0  0  0
    0.7440   27.0440  -35.7490 C   0  0  0  0  0  0  0  0  0  0  0  0
   -0.4350   26.8450  -36.4830 C   0  0  0  0  0  0  0  0  0  0  0  0
   -1.2480   27.9240  -36.8380 C   0  0  0  0  0  0  0  0  0  0  0  0
   -2.4480   27.7050  -37.5870 N   0  0  0  0  0  0  0  0  0  0  0  0
   -0.8860   29.2180  -36.4570 C   0  0  0  0  0  0  0  0  0  0  0  0
    0.2870   29.4490  -35.7210 C   0  0  0  0  0  0  0  0  0  0  0  0
    0.6360   30.8620  -35.3330 C   0  0  0  0  0  0  0  0  0  0  0  0
    1.1160   28.3560  -35.3590 C   0  0  0  0  0  0  0  0  0  0  0  0
    2.3230   28.5770  -34.6050 N   0  0  0  0  0  0  0  0  0  0  0  0
    1.6508   25.7612  -34.2954 H   0  0  0  0  0  0  0  0  0  0  0  0
    1.1315   24.9398  -35.8062 H   0  0  0  0  0  0  0  0  0  0  0  0
    2.5983   25.9767  -35.8062 H   0  0  0  0  0  0  0  0  0  0  0  0
   -0.7228   25.8265  -36.7827 H   0  0  0  0  0  0  0  0  0  0  0  0
   -3.1080   26.9380  -37.3300 H   0  0  0  0  0  0  0  0  0  0  0  0
   -2.6830   28.3080  -38.4070 H   0  0  0  0  0  0  0  0  0  0  0  0
   -1.5277   30.0664  -36.7370 H   0  0  0  0  0  0  0  0  0  0  0  0
    0.6569   30.9466  -34.2365 H   0  0  0  0  0  0  0  0  0  0  0  0
    1.6249   31.1203  -35.7396 H   0  0  0  0  0  0  0  0  0  0  0  0
   -0.1190   31.5510  -35.7396 H   0  0  0  0  0  0  0  0  0  0  0  0
    3.1520   29.0590  -35.0150 H   0  0  0  0  0  0  0  0  0  0  0  0
    2.4230   28.2670  -33.6150 H   0  0  0  0  0  0  0  0  0  0  0  0
  1  2  1  0
  2  3  2  0
  3  4  1  0
  4  5  1  0
  4  6  2  0
  6  7  1  0
  7  8  1  0
  7  9  2  0
  9 10  1  0
  9  2  1  0
  1 11  1  0
  1 12  1  0
  1 13  1  0
  3 14  1  0
  5 15  1  0
  5 16  1  0
  6 17  1  0
  8 18  1  0
  8 19  1  0
  8 20  1  0
 10 21  1  0
 10 22  1  0
M  END
>  <UniqueID>  (23) 
22

>  <SMILES>  (23) 
Cc1cc(N)cc(C)c1N

>  <Energy>  (23) 
20.83328418116954

>  <Genealogy>  (23) 
Cc1cc(N)cc(C)c1N (3D coordinates assigned)
Cc1cc(N)cc(C)c1N (optimized conformer: 20.83328418116954 kcal/mol)

>  <smiles>  (23) 
Cc1cc(N)cc(C)c1N

>  <score_type>  (23) 
oracle

>  <origin>  (23) 
adgpu

>  <m_score__min__energy>  (23) 
-4.6500000000000004

>  <m_primary>  (23) 
energy

$$$$
23:0
     RDKit          3D

 43 46  0  0  0  0  0  0  0  0999 V2000
    0.5920   25.9316  -22.8411 H   0  0  0  0  0  0  0  0  0  0  0  0
   -0.0120   26.1910  -23.7230 C   0  0  0  0  0  0  0  0  0  0  0  0
   -0.2020   27.4400  -24.1950 N   0  0  0  0  0  0  0  0  0  0  0  0
   -1.0020   27.2730  -25.2680 C   0  0  0  0  0  0  0  0  0  0  0  0
   -1.3566   28.1009  -25.8996 H   0  0  0  0  0  0  0  0  0  0  0  0
   -1.3200   25.9780  -25.4820 N   0  0  0  0  0  0  0  0  0  0  0  0
   -2.1190   25.4320  -26.5490 C   0  0  0  0  0  0  0  0  0  0  0  0
   -1.5910   25.2480  -27.8410 C   0  0  0  0  0  0  0  0  0  0  0  0
   -0.2780   25.6340  -28.1280 O   0  0  0  0  0  0  0  0  0  0  0  0
    0.8530   25.0620  -27.4830 C   0  0  0  0  0  0  0  0  0  0  0  0
    0.7249   25.1268  -26.3924 H   0  0  0  0  0  0  0  0  0  0  0  0
    0.9491   24.0069  -27.7788 H   0  0  0  0  0  0  0  0  0  0  0  0
    1.7598   25.6098  -27.7788 H   0  0  0  0  0  0  0  0  0  0  0  0
   -2.3760   24.7140  -28.8200 N   0  0  0  0  0  0  0  0  0  0  0  0
   -3.6690   24.3470  -28.6110 C   0  0  0  0  0  0  0  0  0  0  0  0
   -4.4450   23.7750  -29.7390 C   0  0  0  0  0  0  0  0  0  0  0  0
   -3.8350   23.3300  -30.9150 C   0  0  0  0  0  0  0  0  0  0  0  0
   -2.7566   23.3592  -31.1300 H   0  0  0  0  0  0  0  0  0  0  0  0
   -5.0270   22.7420  -31.9470 S   0  0  0  0  0  0  0  0  0  0  0  0
   -6.2710   23.0670  -30.8580 C   0  0  0  0  0  0  0  0  0  0  0  0
   -7.5330   22.8250  -31.0510 N   0  0  0  0  0  0  0  0  0  0  0  0
   -8.0760   22.2280  -32.2670 C   0  0  0  0  0  0  0  0  0  0  0  0
   -9.1421   22.4835  -32.3574 H   0  0  0  0  0  0  0  0  0  0  0  0
   -7.5328   22.6150  -33.1418 H   0  0  0  0  0  0  0  0  0  0  0  0
   -7.9220   20.7370  -32.1990 C   0  0  0  0  0  0  0  0  0  0  0  0
   -6.7900   20.1150  -32.7510 C   0  0  0  0  0  0  0  0  0  0  0  0
   -5.9987   20.7256  -33.2103 H   0  0  0  0  0  0  0  0  0  0  0  0
   -6.6650   18.7220  -32.7190 C   0  0  0  0  0  0  0  0  0  0  0  0
   -5.7721   18.2407  -33.1446 H   0  0  0  0  0  0  0  0  0  0  0  0
   -7.6730   17.9410  -32.1470 C   0  0  0  0  0  0  0  0  0  0  0  0
   -7.5709   16.8461  -32.1185 H   0  0  0  0  0  0  0  0  0  0  0  0
   -8.8110   18.5510  -31.6110 C   0  0  0  0  0  0  0  0  0  0  0  0
   -9.6065   17.9352  -31.1660 H   0  0  0  0  0  0  0  0  0  0  0  0
   -8.9390   19.9440  -31.6400 C   0  0  0  0  0  0  0  0  0  0  0  0
   -9.8389   20.4203  -31.2238 H   0  0  0  0  0  0  0  0  0  0  0  0
   -5.8010   23.6180  -29.7190 N   0  0  0  0  0  0  0  0  0  0  0  0
   -6.4220   23.8660  -28.9180 H   0  0  0  0  0  0  0  0  0  0  0  0
   -4.2340   24.5400  -27.3410 C   0  0  0  0  0  0  0  0  0  0  0  0
   -5.2827   24.2656  -27.1539 H   0  0  0  0  0  0  0  0  0  0  0  0
   -3.4570   25.0820  -26.3180 C   0  0  0  0  0  0  0  0  0  0  0  0
   -3.8972   25.2363  -25.3218 H   0  0  0  0  0  0  0  0  0  0  0  0
   -0.6890   25.2910  -24.5130 C   0  0  0  0  0  0  0  0  0  0  0  0
   -0.7105   24.1998  -24.3761 H   0  0  0  0  0  0  0  0  0  0  0  0
  1  2  1  0
  2  3  1  0
  3  4  2  0
  4  5  1  0
  4  6  1  0
  6  7  1  0
  7  8  2  0
  8  9  1  0
  9 10  1  0
 10 11  1  0
 10 12  1  0
 10 13  1  0
  8 14  1  0
 14 15  2  0
 15 16  1  0
 16 17  2  0
 17 18  1  0
 17 19  1  0
 19 20  1  0
 20 21  2  0
 21 22  1  0
 22 23  1  0
 22 24  1  0
 22 25  1  0
 25 26  2  0
 26 27  1  0
 26 28  1  0
 28 29  1  0
 28 30  2  0
 30 31  1  0
 30 32  1  0
 32 33  1  0
 32 34  2  0
 34 35  1  0
 20 36  1  0
 36 37  1  0
 15 38  1  0
 38 39  1  0
 38 40  2  0
 40 41  1  0
  6 42  1  0
 42 43  1  0
 42  2  2  0
 40  7  1  0
 36 16  1  0
 34 25  1  0
M  END
>  <UniqueID>  (24) 
23

>  <SMILES>  (24) 
COc1nc(-c2cs/c(=N\Cc3ccccc3)[nH]2)ccc1-n1ccnc1

>  <Energy>  (24) 
110.27497718887317

>  <Genealogy>  (24) 
COc1nc(-c2cs/c(=N\Cc3ccccc3)[nH]2)ccc1-n1ccnc1 (cis-trans isomerization)
COc1nc(-c2cs/c(=N\Cc3ccccc3)[nH]2)ccc1-n1ccnc1 (3D coordinates assigned)
COc1nc(-c2cs/c(=N\Cc3ccccc3)[nH]2)ccc1-n1ccnc1 (optimized conformer: 110.27497718887317 kcal/mol)

>  <smiles>  (24) 
COc1nc(-c2csc(=NCc3ccccc3)[nH]2)ccc1-n1ccnc1

>  <score_type>  (24) 
oracle

>  <origin>  (24) 
adgpu

>  <m_score__min__energy>  (24) 
-8.6199999999999992

>  <m_primary>  (24) 
energy

$$$$
24:0
     RDKit          3D

 21 22  0  0  0  0  0  0  0  0999 V2000
   -9.4710   19.0020  -32.3410 C   0  0  0  0  0  0  0  0  0  0  0  0
   -8.5470   20.1220  -32.4580 N   0  0  0  0  0  0  0  0  0  0  0  0
   -7.1680   20.0340  -32.8240 C   0  0  0  0  0  0  0  0  0  0  0  0
   -6.6530   19.0410  -33.4040 O   0  0  0  0  0  0  0  0  0  0  0  0
   -6.4570   21.2330  -32.4000 C   0  0  0  0  0  0  0  0  0  0  0  0
   -5.1220   21.5970  -32.5450 C   0  0  0  0  0  0  0  0  0  0  0  0
   -4.7080   22.8290  -32.0080 C   0  0  0  0  0  0  0  0  0  0  0  0
   -5.6280   23.6740  -31.3320 C   0  0  0  0  0  0  0  0  0  0  0  0
   -5.1900   24.9320  -30.7850 N   0  0  0  0  0  0  0  0  0  0  0  0
   -6.0060   25.7170  -30.2600 O   0  0  0  0  0  0  0  0  0  0  0  0
   -3.8610   25.2900  -30.8340 O   0  0  0  0  0  0  0  0  0  0  0  0
   -6.9770   23.2670  -31.2010 C   0  0  0  0  0  0  0  0  0  0  0  0
   -7.3580   22.0440  -31.7470 C   0  0  0  0  0  0  0  0  0  0  0  0
   -8.6470   21.3640  -31.7540 C   0  0  0  0  0  0  0  0  0  0  0  0
   -9.6990   21.7800  -31.1990 O   0  0  0  0  0  0  0  0  0  0  0  0
   -9.6506   18.7843  -31.2778 H   0  0  0  0  0  0  0  0  0  0  0  0
  -10.4229   19.2595  -32.8284 H   0  0  0  0  0  0  0  0  0  0  0  0
   -9.0373   18.1164  -32.8284 H   0  0  0  0  0  0  0  0  0  0  0  0
   -4.4101   20.9393  -33.0653 H   0  0  0  0  0  0  0  0  0  0  0  0
   -3.6587   23.1421  -32.1128 H   0  0  0  0  0  0  0  0  0  0  0  0
   -7.7081   23.9024  -30.6796 H   0  0  0  0  0  0  0  0  0  0  0  0
  1  2  1  0
  2  3  1  0
  3  4  2  0
  3  5  1  0
  5  6  2  0
  6  7  1  0
  7  8  2  0
  8  9  1  0
  9 10  2  0
  9 11  1  0
  8 12  1  0
 12 13  2  0
 13 14  1  0
 14 15  2  0
 14  2  1  0
 13  5  1  0
  1 16  1  0
  1 17  1  0
  1 18  1  0
  6 19  1  0
  7 20  1  0
 12 21  1  0
M  CHG  2   9   1  11  -1
M  END
>  <UniqueID>  (25) 
24

>  <SMILES>  (25) 
CN1C(=O)c2ccc([N+](=O)[O-])cc2C1=O

>  <Energy>  (25) 
53.61654385846666

>  <Genealogy>  (25) 
CN1C(=O)c2ccc([N+](=O)[O-])cc2C1=O (3D coordinates assigned)
CN1C(=O)c2ccc([N+](=O)[O-])cc2C1=O (nonaromatic ring conformer: 53.61654385846666 kcal/mol)

>  <smiles>  (25) 
CN1C(=O)c2ccc([N+](=O)[O-])cc2C1=O

>  <score_type>  (25) 
oracle

>  <origin>  (25) 
adgpu

>  <m_score__min__energy>  (25) 
-7.2400000000000002

>  <m_primary>  (25) 
energy

$$$$
25:0
     RDKit          3D

 53 56  0  0  0  0  0  0  0  0999 V2000
    1.1230   24.6140  -26.4210 C   0  0  0  0  0  0  0  0  0  0  0  0
    0.9550   24.4270  -27.8230 O   0  0  0  0  0  0  0  0  0  0  0  0
   -0.2820   24.2270  -28.4530 C   0  0  0  0  0  0  0  0  0  0  0  0
   -1.4290   24.9580  -28.1090 C   0  0  0  0  0  0  0  0  0  0  0  0
   -2.6390   24.7270  -28.7630 C   0  0  0  0  0  0  0  0  0  0  0  0
   -2.7440   23.7550  -29.7850 C   0  0  0  0  0  0  0  0  0  0  0  0
   -1.5810   23.0150  -30.1290 C   0  0  0  0  0  0  0  0  0  0  0  0
   -0.3660   23.2620  -29.4570 C   0  0  0  0  0  0  0  0  0  0  0  0
   -1.6550   22.0420  -31.1410 C   0  0  0  0  0  0  0  0  0  0  0  0
   -0.6270   21.3860  -31.4690 O   0  0  0  0  0  0  0  0  0  0  0  0
   -2.8740   21.8020  -31.7880 C   0  0  0  0  0  0  0  0  0  0  0  0
   -3.0010   20.7710  -32.8900 C   0  0  0  0  0  0  0  0  0  0  0  0
   -4.3500   20.7800  -33.4600 N   0  0  0  0  0  0  0  0  0  0  0  0
   -5.4300   19.9410  -33.0070 C   0  0  0  0  0  0  0  0  0  0  0  0
   -6.7440   20.0920  -33.4950 C   0  0  0  0  0  0  0  0  0  0  0  0
   -7.7670   19.2560  -33.0370 C   0  0  0  0  0  0  0  0  0  0  0  0
   -7.4950   18.2680  -32.0890 C   0  0  0  0  0  0  0  0  0  0  0  0
   -6.1980   18.1140  -31.5950 C   0  0  0  0  0  0  0  0  0  0  0  0
   -5.1720   18.9480  -32.0490 C   0  0  0  0  0  0  0  0  0  0  0  0
   -3.9910   22.5680  -31.4360 C   0  0  0  0  0  0  0  0  0  0  0  0
   -3.9310   23.5170  -30.4510 N   0  0  0  0  0  0  0  0  0  0  0  0
   -5.1670   24.2760  -30.1640 C   0  0  0  0  0  0  0  0  0  0  0  0
   -6.3890   23.5300  -30.6430 C   0  0  0  0  0  0  0  0  0  0  0  0
   -6.9310   23.7950  -31.9120 C   0  0  0  0  0  0  0  0  0  0  0  0
   -8.0720   23.1150  -32.3490 C   0  0  0  0  0  0  0  0  0  0  0  0
   -8.6870   22.1620  -31.5250 C   0  0  0  0  0  0  0  0  0  0  0  0
   -9.9350   21.4630  -31.9790 C   0  0  0  0  0  0  0  0  0  0  0  0
   -8.1700   21.9240  -30.2430 C   0  0  0  0  0  0  0  0  0  0  0  0
   -7.0290   22.6020  -29.8050 C   0  0  0  0  0  0  0  0  0  0  0  0
    0.4840   23.9028  -25.8771 H   0  0  0  0  0  0  0  0  0  0  0  0
    2.1755   24.4416  -26.1516 H   0  0  0  0  0  0  0  0  0  0  0  0
    0.8392   25.6421  -26.1516 H   0  0  0  0  0  0  0  0  0  0  0  0
   -1.3735   25.7195  -27.3171 H   0  0  0  0  0  0  0  0  0  0  0  0
   -3.5270   25.3109  -28.4790 H   0  0  0  0  0  0  0  0  0  0  0  0
    0.5299   22.6845  -29.7288 H   0  0  0  0  0  0  0  0  0  0  0  0
   -2.2734   20.9994  -33.6827 H   0  0  0  0  0  0  0  0  0  0  0  0
   -2.8054   19.7756  -32.4647 H   0  0  0  0  0  0  0  0  0  0  0  0
   -4.5430   21.4750  -34.2170 H   0  0  0  0  0  0  0  0  0  0  0  0
   -6.9655   20.8710  -34.2394 H   0  0  0  0  0  0  0  0  0  0  0  0
   -8.7892   19.3772  -33.4249 H   0  0  0  0  0  0  0  0  0  0  0  0
   -8.3018   17.6113  -31.7314 H   0  0  0  0  0  0  0  0  0  0  0  0
   -5.9834   17.3357  -30.8479 H   0  0  0  0  0  0  0  0  0  0  0  0
   -4.1535   18.8250  -31.6520 H   0  0  0  0  0  0  0  0  0  0  0  0
   -4.9417   22.4034  -31.9643 H   0  0  0  0  0  0  0  0  0  0  0  0
   -5.2464   24.4353  -29.0785 H   0  0  0  0  0  0  0  0  0  0  0  0
   -5.1161   25.2383  -30.6944 H   0  0  0  0  0  0  0  0  0  0  0  0
   -6.4552   24.5413  -32.5651 H   0  0  0  0  0  0  0  0  0  0  0  0
   -8.4891   23.3289  -33.3441 H   0  0  0  0  0  0  0  0  0  0  0  0
  -10.5136   21.1389  -31.1014 H   0  0  0  0  0  0  0  0  0  0  0  0
  -10.5419   22.1525  -32.5842 H   0  0  0  0  0  0  0  0  0  0  0  0
   -9.6642   20.5853  -32.5842 H   0  0  0  0  0  0  0  0  0  0  0  0
   -8.6651   21.2001  -29.5790 H   0  0  0  0  0  0  0  0  0  0  0  0
   -6.6300   22.4078  -28.7985 H   0  0  0  0  0  0  0  0  0  0  0  0
  1  2  1  0
  2  3  1  0
  3  4  2  0
  4  5  1  0
  5  6  2  0
  6  7  1  0
  7  8  2  0
  7  9  1  0
  9 10  2  0
  9 11  1  0
 11 12  1  0
 12 13  1  0
 13 14  1  0
 14 15  2  0
 15 16  1  0
 16 17  2  0
 17 18  1  0
 18 19  2  0
 11 20  2  0
 20 21  1  0
 21 22  1  0
 22 23  1  0
 23 24  2  0
 24 25  1  0
 25 26  2  0
 26 27  1  0
 26 28  1  0
 28 29  2  0
  8  3  1  0
 19 14  1  0
 29 23  1  0
 21  6  1  0
  1 30  1  0
  1 31  1  0
  1 32  1  0
  4 33  1  0
  5 34  1  0
  8 35  1  0
 12 36  1  0
 12 37  1  0
 13 38  1  0
 15 39  1  0
 16 40  1  0
 17 41  1  0
 18 42  1  0
 19 43  1  0
 20 44  1  0
 22 45  1  0
 22 46  1  0
 24 47  1  0
 25 48  1  0
 27 49  1  0
 27 50  1  0
 27 51  1  0
 28 52  1  0
 29 53  1  0
M  END
>  <UniqueID>  (26) 
25

>  <SMILES>  (26) 
COc1ccc2c(c1)c(=O)c(CNc1ccccc1)cn2Cc1ccc(C)cc1

>  <Energy>  (26) 
65.26420750317344

>  <Genealogy>  (26) 
COc1ccc2c(c1)c(=O)c(CNc1ccccc1)cn2Cc1ccc(C)cc1 (3D coordinates assigned)
COc1ccc2c(c1)c(=O)c(CNc1ccccc1)cn2Cc1ccc(C)cc1 (optimized conformer: 65.26420750317344 kcal/mol)

>  <smiles>  (26) 
COc1ccc2c(c1)c(=O)c(CNc1ccccc1)cn2Cc1ccc(C)cc1

>  <score_type>  (26) 
oracle

>  <origin>  (26) 
adgpu

>  <m_score__min__energy>  (26) 
-9.1099999999999994

>  <m_primary>  (26) 
energy

$$$$
26:0
     RDKit          3D

 54 57  0  0  0  0  0  0  0  0999 V2000
  -10.1679   19.7659  -31.7175 H   0  0  0  0  0  0  0  0  0  0  0  0
   -9.1260   19.7770  -32.0700 C   0  0  0  0  0  0  0  0  0  0  0  0
   -8.4650   20.9930  -32.2590 C   0  0  0  0  0  0  0  0  0  0  0  0
   -8.9841   21.9390  -32.0455 H   0  0  0  0  0  0  0  0  0  0  0  0
   -7.1450   21.0100  -32.7190 C   0  0  0  0  0  0  0  0  0  0  0  0
   -6.6245   21.9699  -32.8518 H   0  0  0  0  0  0  0  0  0  0  0  0
   -6.4810   19.8110  -33.0120 C   0  0  0  0  0  0  0  0  0  0  0  0
   -5.1150   19.8680  -33.4570 N   0  0  0  0  0  0  0  0  0  0  0  0
   -4.1330   20.4950  -32.8790 C   0  0  0  0  0  0  0  0  0  0  0  0
   -2.9090   20.4870  -33.4590 N   0  0  0  0  0  0  0  0  0  0  0  0
   -1.8500   21.1020  -32.8680 C   0  0  0  0  0  0  0  0  0  0  0  0
   -0.5500   21.0590  -33.5020 N   0  0  0  0  0  0  0  0  0  0  0  0
    0.5330   20.2360  -32.9360 C   0  0  0  0  0  0  0  0  0  0  0  0
    0.9116   20.7239  -32.0257 H   0  0  0  0  0  0  0  0  0  0  0  0
    0.1224   19.2405  -32.7114 H   0  0  0  0  0  0  0  0  0  0  0  0
    1.6950   20.0590  -33.9240 C   0  0  0  0  0  0  0  0  0  0  0  0
    2.2979   20.9788  -33.9445 H   0  0  0  0  0  0  0  0  0  0  0  0
    2.3157   19.2106  -33.6002 H   0  0  0  0  0  0  0  0  0  0  0  0
    1.1550   19.7760  -35.3300 C   0  0  0  0  0  0  0  0  0  0  0  0
    2.0052   19.6727  -36.0203 H   0  0  0  0  0  0  0  0  0  0  0  0
    0.5602   18.8520  -35.2801 H   0  0  0  0  0  0  0  0  0  0  0  0
    0.2320   20.9010  -35.8460 C   0  0  0  0  0  0  0  0  0  0  0  0
    0.7950   21.5099  -36.5687 H   0  0  0  0  0  0  0  0  0  0  0  0
   -0.6444   20.4179  -36.3026 H   0  0  0  0  0  0  0  0  0  0  0  0
   -0.2880   21.8240  -34.7320 C   0  0  0  0  0  0  0  0  0  0  0  0
    0.4658   22.5972  -34.5226 H   0  0  0  0  0  0  0  0  0  0  0  0
   -1.2277   22.2876  -35.0669 H   0  0  0  0  0  0  0  0  0  0  0  0
   -2.0300   21.7320  -31.6700 N   0  0  0  0  0  0  0  0  0  0  0  0
   -1.2140   22.1750  -31.1990 H   0  0  0  0  0  0  0  0  0  0  0  0
   -3.2630   21.7540  -31.0820 C   0  0  0  0  0  0  0  0  0  0  0  0
   -3.4760   22.3380  -29.9350 N   0  0  0  0  0  0  0  0  0  0  0  0
   -2.5510   23.1430  -29.1880 C   0  0  0  0  0  0  0  0  0  0  0  0
   -1.5750   22.5410  -28.3730 C   0  0  0  0  0  0  0  0  0  0  0  0
   -1.5399   21.4453  -28.2828 H   0  0  0  0  0  0  0  0  0  0  0  0
   -0.6470   23.3260  -27.6750 C   0  0  0  0  0  0  0  0  0  0  0  0
    0.4040   22.6740  -26.8270 C   0  0  0  0  0  0  0  0  0  0  0  0
    0.1626   22.8237  -25.7643 H   0  0  0  0  0  0  0  0  0  0  0  0
    0.4367   21.5968  -27.0473 H   0  0  0  0  0  0  0  0  0  0  0  0
    1.3836   23.1232  -27.0473 H   0  0  0  0  0  0  0  0  0  0  0  0
   -0.6630   24.7170  -27.8380 C   0  0  0  0  0  0  0  0  0  0  0  0
    0.0718   25.3383  -27.3050 H   0  0  0  0  0  0  0  0  0  0  0  0
   -1.6060   25.3200  -28.6730 C   0  0  0  0  0  0  0  0  0  0  0  0
   -1.6101   26.4134  -28.7934 H   0  0  0  0  0  0  0  0  0  0  0  0
   -2.5520   24.5360  -29.3620 C   0  0  0  0  0  0  0  0  0  0  0  0
   -3.5070   25.1040  -30.2210 O   0  0  0  0  0  0  0  0  0  0  0  0
   -4.9140   24.9180  -30.0970 C   0  0  0  0  0  0  0  0  0  0  0  0
   -5.1866   24.8820  -29.0319 H   0  0  0  0  0  0  0  0  0  0  0  0
   -5.4386   25.7546  -30.5817 H   0  0  0  0  0  0  0  0  0  0  0  0
   -5.2032   23.9738  -30.5817 H   0  0  0  0  0  0  0  0  0  0  0  0
   -4.2980   21.1180  -31.6840 N   0  0  0  0  0  0  0  0  0  0  0  0
   -7.1420   18.5870  -32.7890 C   0  0  0  0  0  0  0  0  0  0  0  0
   -6.6180   17.6383  -32.9771 H   0  0  0  0  0  0  0  0  0  0  0  0
   -8.4630   18.5750  -32.3290 C   0  0  0  0  0  0  0  0  0  0  0  0
   -8.9806   17.6174  -32.1709 H   0  0  0  0  0  0  0  0  0  0  0  0
  1  2  1  0
  2  3  2  0
  3  4  1  0
  3  5  1  0
  5  6  1  0
  5  7  2  0
  7  8  1  0
  8  9  2  0
  9 10  1  0
 10 11  2  0
 11 12  1  0
 12 13  1  0
 13 14  1  0
 13 15  1  0
 13 16  1  0
 16 17  1  0
 16 18  1  0
 16 19  1  0
 19 20  1  0
 19 21  1  0
 19 22  1  0
 22 23  1  0
 22 24  1  0
 22 25  1  0
 25 26  1  0
 25 27  1  0
 11 28  1  0
 28 29  1  0
 28 30  1  0
 30 31  2  0
 31 32  1  0
 32 33  2  0
 33 34  1  0
 33 35  1  0
 35 36  1  0
 36 37  1  0
 36 38  1  0
 36 39  1  0
 35 40  2  0
 40 41  1  0
 40 42  1  0
 42 43  1  0
 42 44  2  0
 44 45  1  0
 45 46  1  0
 46 47  1  0
 46 48  1  0
 46 49  1  0
 30 50  1  0
  7 51  1  0
 51 52  1  0
 51 53  2  0
 53 54  1  0
 53  2  1  0
 50  9  1  0
 25 12  1  0
 44 32  1  0
M  CHG  1  50  -1
M  END
>  <UniqueID>  (27) 
26

>  <SMILES>  (27) 
COc1ccc(C)cc1/N=c1/[n-]/c(=N\c2ccccc2)nc(N2CCCCC2)[nH]1

>  <Energy>  (27) 
74.09496404047142

>  <Genealogy>  (27) 
COc1ccc(C)cc1N=c1[n-]c(=Nc2ccccc2)nc(N2CCCCC2)[nH]1 (protonated)
COc1ccc(C)cc1/N=c1/[n-]/c(=N\c2ccccc2)nc(N2CCCCC2)[nH]1 (cis-trans isomerization)
COc1ccc(C)cc1/N=c1/[n-]/c(=N\c2ccccc2)nc(N2CCCCC2)[nH]1 (3D coordinates assigned)
COc1ccc(C)cc1/N=c1/[n-]/c(=N\c2ccccc2)nc(N2CCCCC2)[nH]1 (nonaromatic ring conformer: 74.09496404047142 kcal/mol)

>  <smiles>  (27) 
COc1ccc(C)cc1N=c1[nH]c(N2CCCCC2)nc(=Nc2ccccc2)[nH]1

>  <score_type>  (27) 
oracle

>  <origin>  (27) 
adgpu

>  <m_score__min__energy>  (27) 
-9.2100000000000009

>  <m_primary>  (27) 
energy

$$$$
27:0
     RDKit          3D

 54 58  0  0  1  0  0  0  0  0999 V2000
   -4.1930   18.5900  -33.3040 C   0  0  0  0  0  0  0  0  0  0  0  0
   -5.4450   19.4070  -33.7120 C   0  0  0  0  0  0  0  0  0  0  0  0
   -5.8490   20.4180  -32.6940 C   0  0  0  0  0  0  0  0  0  0  0  0
   -4.9020   21.3700  -32.4040 C   0  0  0  0  0  0  0  0  0  0  0  0
   -3.4670   21.1380  -32.4040 C   0  0  0  0  0  0  0  0  0  0  0  0
   -2.5610   20.9580  -31.3940 C   0  0  0  0  0  0  0  0  0  0  0  0
   -1.3000   20.7830  -31.9520 C   0  0  0  0  0  0  0  0  0  0  0  0
   -1.5060   20.8680  -33.3080 C   0  0  0  0  0  0  0  0  0  0  0  0
   -0.5140   20.7540  -34.3350 N   0  0  0  0  0  0  0  0  0  0  0  0
   -0.0640   21.9330  -35.0570 C   0  0  0  0  0  0  0  0  0  0  0  0
    1.2670   21.6020  -35.6900 C   0  0  0  0  0  0  0  0  0  0  0  0
    1.2330   20.5290  -36.5410 O   0  0  0  0  0  0  0  0  0  0  0  0
    0.5790   19.4140  -36.0890 C   0  0  0  0  0  0  0  0  0  0  0  0
    0.0680   19.4900  -34.6820 C   0  0  0  0  0  0  0  0  0  0  0  0
   -2.7570   21.0710  -33.5060 O   0  0  0  0  0  0  0  0  0  0  0  0
   -5.3490   22.6010  -31.9520 C   0  0  0  0  0  0  0  0  0  0  0  0
   -6.6680   22.9220  -31.7760 C   0  0  0  0  0  0  0  0  0  0  0  0
   -7.5950   21.9970  -32.0450 C   0  0  0  0  0  0  0  0  0  0  0  0
   -8.9330   22.3120  -31.8880 C   0  0  0  0  0  0  0  0  0  0  0  0
   -9.8630   21.3750  -32.1620 N   0  0  0  0  0  0  0  0  0  0  0  0
   -9.5300   20.1290  -32.5770 N   0  0  0  0  0  0  0  0  0  0  0  0
   -8.2130   19.8690  -32.7100 C   0  0  0  0  0  0  0  0  0  0  0  0
   -7.8800   18.6910  -32.6040 N   0  0  0  0  0  0  0  0  0  0  0  0
   -7.0260   17.7640  -32.5850 C   0  0  0  0  0  0  0  0  0  0  0  0
   -6.7800   16.9150  -33.7150 C   0  0  0  0  0  0  0  0  0  0  0  0
   -5.9710   15.8660  -33.6210 N   0  0  0  0  0  0  0  0  0  0  0  0
   -5.3640   15.5640  -32.4890 C   0  0  0  0  0  0  0  0  0  0  0  0
   -4.5830   14.5340  -32.4380 N   0  0  0  0  0  0  0  0  0  0  0  0
   -5.5370   16.2990  -31.3860 N   0  0  0  0  0  0  0  0  0  0  0  0
   -6.3350   17.3770  -31.3830 C   0  0  0  0  0  0  0  0  0  0  0  0
   -7.1750   20.7430  -32.4920 C   0  0  0  0  0  0  0  0  0  0  0  0
   -4.1254   18.5459  -32.2070 H   0  0  0  0  0  0  0  0  0  0  0  0
   -4.2733   17.5699  -33.7077 H   0  0  0  0  0  0  0  0  0  0  0  0
   -3.2916   19.0742  -33.7077 H   0  0  0  0  0  0  0  0  0  0  0  0
   -5.2284   19.9294  -34.6555 H   0  0  0  0  0  0  0  0  0  0  0  0
   -6.2784   18.6961  -33.8126 H   0  0  0  0  0  0  0  0  0  0  0  0
   -2.7925   20.9527  -30.3186 H   0  0  0  0  0  0  0  0  0  0  0  0
   -0.3491   20.6141  -31.4255 H   0  0  0  0  0  0  0  0  0  0  0  0
   -0.7943   22.1970  -35.8361 H   0  0  0  0  0  0  0  0  0  0  0  0
    0.0360   22.7891  -34.3736 H   0  0  0  0  0  0  0  0  0  0  0  0
    1.6075   22.4811  -36.2568 H   0  0  0  0  0  0  0  0  0  0  0  0
    1.9489   21.3333  -34.8697 H   0  0  0  0  0  0  0  0  0  0  0  0
   -0.2800   19.2332  -36.7519 H   0  0  0  0  0  0  0  0  0  0  0  0
    1.3236   18.6043  -36.0959 H   0  0  0  0  0  0  0  0  0  0  0  0
   -0.6967   18.7104  -34.5502 H   0  0  0  0  0  0  0  0  0  0  0  0
    0.9371   19.3506  -34.0223 H   0  0  0  0  0  0  0  0  0  0  0  0
   -4.5964   23.3689  -31.7199 H   0  0  0  0  0  0  0  0  0  0  0  0
   -6.9594   23.9213  -31.4203 H   0  0  0  0  0  0  0  0  0  0  0  0
   -9.2338   23.3127  -31.5445 H   0  0  0  0  0  0  0  0  0  0  0  0
  -10.3090   19.5090  -32.7520 H   0  0  0  0  0  0  0  0  0  0  0  0
   -7.2694   17.1365  -34.6749 H   0  0  0  0  0  0  0  0  0  0  0  0
   -4.3780   13.9020  -33.2200 H   0  0  0  0  0  0  0  0  0  0  0  0
   -5.0460   16.0450  -30.4880 H   0  0  0  0  0  0  0  0  0  0  0  0
   -6.4614   17.9653  -30.4622 H   0  0  0  0  0  0  0  0  0  0  0  0
  1  2  1  0
  2  3  1  0
  3  4  2  0
  4  5  1  0
  5  6  2  0
  6  7  1  0
  7  8  2  0
  8  9  1  0
  9 10  1  0
 10 11  1  0
 11 12  1  0
 12 13  1  0
 13 14  1  0
  8 15  1  0
  4 16  1  0
 16 17  2  0
 17 18  1  0
 18 19  1  0
 19 20  2  0
 20 21  1  0
 21 22  1  0
 22 23  2  0
 23 24  1  0
 24 25  1  0
 25 26  2  0
 26 27  1  0
 27 28  2  3
 27 29  1  0
 29 30  1  0
 22 31  1  0
 31  3  1  0
 15  5  1  0
 31 18  2  0
 14  9  1  0
 30 24  2  0
  1 32  1  0
  1 33  1  0
  1 34  1  0
  2 35  1  0
  2 36  1  0
  6 37  1  0
  7 38  1  0
 10 39  1  0
 10 40  1  0
 11 41  1  0
 11 42  1  0
 13 43  1  0
 13 44  1  0
 14 45  1  0
 14 46  1  0
 16 47  1  0
 17 48  1  0
 19 49  1  0
 21 50  1  0
 25 51  1  0
 28 52  1  0
 29 53  1  0
 30 54  1  0
M  END
>  <smiles>  (28) 
CCc1c(-c2ccc(N3CCOCC3)o2)ccc2cn[nH]c(=Nc3cnc(=N)[nH]c3)c12

>  <score_type>  (28) 
oracle

>  <origin>  (28) 
adgpu

>  <m_score__min__energy>  (28) 
-8.9900000000000002

>  <m_primary>  (28) 
energy

$$$$
28:0
     RDKit          3D

 28 30  0  0  0  0  0  0  0  0999 V2000
   -3.1000   24.3760  -30.4440 F   0  0  0  0  0  0  0  0  0  0  0  0
   -4.4520   24.2790  -30.4530 C   0  0  0  0  0  0  0  0  0  0  0  0
   -5.2260   25.2960  -29.8910 C   0  0  0  0  0  0  0  0  0  0  0  0
   -6.6180   25.1980  -29.8990 C   0  0  0  0  0  0  0  0  0  0  0  0
   -7.2420   24.0840  -30.4700 C   0  0  0  0  0  0  0  0  0  0  0  0
   -6.4740   23.0480  -31.0420 C   0  0  0  0  0  0  0  0  0  0  0  0
   -7.1080   21.8490  -31.6580 C   0  0  0  0  0  0  0  0  0  0  0  0
   -8.4880   21.6420  -31.7590 C   0  0  0  0  0  0  0  0  0  0  0  0
   -8.7380   20.1640  -32.5190 S   0  0  0  0  0  0  0  0  0  0  0  0
   -7.0970   19.8350  -32.6950 C   0  0  0  0  0  0  0  0  0  0  0  0
   -6.5160   18.6270  -33.3210 C   0  0  0  0  0  0  0  0  0  0  0  0
   -5.5700   18.7530  -34.3570 C   0  0  0  0  0  0  0  0  0  0  0  0
   -5.0160   17.6160  -34.9530 C   0  0  0  0  0  0  0  0  0  0  0  0
   -5.3970   16.3430  -34.5250 C   0  0  0  0  0  0  0  0  0  0  0  0
   -6.3350   16.2040  -33.4980 C   0  0  0  0  0  0  0  0  0  0  0  0
   -6.8920   17.3380  -32.8990 C   0  0  0  0  0  0  0  0  0  0  0  0
   -6.3530   20.8400  -32.1800 N   0  0  0  0  0  0  0  0  0  0  0  0
   -5.0700   23.1630  -31.0250 C   0  0  0  0  0  0  0  0  0  0  0  0
   -4.7388   26.1741  -29.4421 H   0  0  0  0  0  0  0  0  0  0  0  0
   -7.2265   25.9995  -29.4548 H   0  0  0  0  0  0  0  0  0  0  0  0
   -8.3398   24.0152  -30.4731 H   0  0  0  0  0  0  0  0  0  0  0  0
   -9.2720   22.3267  -31.4033 H   0  0  0  0  0  0  0  0  0  0  0  0
   -5.2650   19.7528  -34.6995 H   0  0  0  0  0  0  0  0  0  0  0  0
   -4.2779   17.7248  -35.7613 H   0  0  0  0  0  0  0  0  0  0  0  0
   -4.9595   15.4501  -34.9955 H   0  0  0  0  0  0  0  0  0  0  0  0
   -6.6354   15.2010  -33.1606 H   0  0  0  0  0  0  0  0  0  0  0  0
   -7.6299   17.2218  -32.0915 H   0  0  0  0  0  0  0  0  0  0  0  0
   -4.4534   22.3662  -31.4665 H   0  0  0  0  0  0  0  0  0  0  0  0
  1  2  1  0
  2  3  2  0
  3  4  1  0
  4  5  2  0
  5  6  1  0
  6  7  1  0
  7  8  2  0
  8  9  1  0
  9 10  1  0
 10 11  1  0
 11 12  2  0
 12 13  1  0
 13 14  2  0
 14 15  1  0
 15 16  2  0
 10 17  2  0
  6 18  2  0
 18  2  1  0
 17  7  1  0
 16 11  1  0
  3 19  1  0
  4 20  1  0
  5 21  1  0
  8 22  1  0
 12 23  1  0
 13 24  1  0
 14 25  1  0
 15 26  1  0
 16 27  1  0
 18 28  1  0
M  END
>  <UniqueID>  (29) 
27

>  <SMILES>  (29) 
Fc1cccc(-c2csc(-c3ccccc3)n2)c1

>  <Energy>  (29) 
63.79370383728147

>  <Genealogy>  (29) 
Fc1cccc(-c2csc(-c3ccccc3)n2)c1 (3D coordinates assigned)
Fc1cccc(-c2csc(-c3ccccc3)n2)c1 (optimized conformer: 63.79370383728147 kcal/mol)

>  <smiles>  (29) 
Fc1cccc(-c2csc(-c3ccccc3)n2)c1

>  <score_type>  (29) 
oracle

>  <origin>  (29) 
adgpu

>  <m_score__min__energy>  (29) 
-7.46

>  <m_primary>  (29) 
energy

$$$$
29:0
     RDKit          3D

 39 40  0  0  0  0  0  0  0  0999 V2000
   -7.4310   22.5870  -30.0460 C   0  0  0  0  0  0  0  0  0  0  0  0
   -6.3800   22.6770  -31.0820 N   0  0  2  0  0  0  0  0  0  0  0  0
   -5.8830   24.0700  -31.2020 C   0  0  0  0  0  0  0  0  0  0  0  0
   -4.4700   24.2200  -30.6870 C   0  0  0  0  0  0  0  0  0  0  0  0
   -3.8810   25.3240  -30.8330 O   0  0  0  0  0  0  0  0  0  0  0  0
   -3.8110   23.1810  -29.9490 N   0  0  0  0  0  0  0  0  0  0  0  0
   -2.8650   22.2420  -30.4750 C   0  0  0  0  0  0  0  0  0  0  0  0
   -2.1660   21.4160  -29.5900 C   0  0  0  0  0  0  0  0  0  0  0  0
   -1.2180   20.5120  -30.0720 C   0  0  0  0  0  0  0  0  0  0  0  0
   -0.9480   20.4400  -31.4410 C   0  0  0  0  0  0  0  0  0  0  0  0
   -1.6180   21.2840  -32.3440 C   0  0  0  0  0  0  0  0  0  0  0  0
   -1.3280   21.2210  -33.7520 N   0  0  0  0  0  0  0  0  0  0  0  0
   -0.4230   21.9220  -34.2490 O   0  0  0  0  0  0  0  0  0  0  0  0
   -2.0520   20.3910  -34.5770 O   0  0  0  0  0  0  0  0  0  0  0  0
   -2.5700   22.1950  -31.8470 C   0  0  0  0  0  0  0  0  0  0  0  0
   -6.8990   22.2180  -32.3950 C   0  0  0  0  0  0  0  0  0  0  0  0
   -6.4780   20.7970  -32.7140 C   0  0  0  0  0  0  0  0  0  0  0  0
   -5.1430   20.5360  -33.0700 C   0  0  0  0  0  0  0  0  0  0  0  0
   -4.7340   19.2390  -33.3900 C   0  0  0  0  0  0  0  0  0  0  0  0
   -5.6520   18.1880  -33.3590 C   0  0  0  0  0  0  0  0  0  0  0  0
   -6.9810   18.4320  -33.0050 C   0  0  0  0  0  0  0  0  0  0  0  0
   -7.4020   19.7280  -32.6840 C   0  0  0  0  0  0  0  0  0  0  0  0
   -9.0870   19.9660  -32.2310 Cl  0  0  0  0  0  0  0  0  0  0  0  0
   -6.9676   22.6267  -29.0492 H   0  0  0  0  0  0  0  0  0  0  0  0
   -8.1303   23.4285  -30.1590 H   0  0  0  0  0  0  0  0  0  0  0  0
   -7.9770   21.6388  -30.1590 H   0  0  0  0  0  0  0  0  0  0  0  0
   -5.5860   22.0570  -30.8000 H   0  0  0  0  0  0  0  0  0  0  0  0
   -5.9066   24.3642  -32.2617 H   0  0  0  0  0  0  0  0  0  0  0  0
   -6.5340   24.7138  -30.5924 H   0  0  0  0  0  0  0  0  0  0  0  0
   -2.3638   21.4787  -28.5097 H   0  0  0  0  0  0  0  0  0  0  0  0
   -0.6819   19.8543  -29.3720 H   0  0  0  0  0  0  0  0  0  0  0  0
   -0.2066   19.7184  -31.8146 H   0  0  0  0  0  0  0  0  0  0  0  0
   -3.0869   22.8756  -32.5395 H   0  0  0  0  0  0  0  0  0  0  0  0
   -7.9978   22.2662  -32.3777 H   0  0  0  0  0  0  0  0  0  0  0  0
   -6.4808   22.8757  -33.1712 H   0  0  0  0  0  0  0  0  0  0  0  0
   -4.4146   21.3598  -33.0968 H   0  0  0  0  0  0  0  0  0  0  0  0
   -3.6871   19.0458  -33.6668 H   0  0  0  0  0  0  0  0  0  0  0  0
   -5.3289   17.1677  -33.6133 H   0  0  0  0  0  0  0  0  0  0  0  0
   -7.7011   17.6009  -32.9783 H   0  0  0  0  0  0  0  0  0  0  0  0
  1  2  1  0
  2  3  1  0
  3  4  1  0
  4  5  2  0
  4  6  1  0
  6  7  1  0
  7  8  2  0
  8  9  1  0
  9 10  2  0
 10 11  1  0
 11 12  1  0
 12 13  2  0
 12 14  1  0
 11 15  2  0
  2 16  1  0
 16 17  1  0
 17 18  2  0
 18 19  1  0
 19 20  2  0
 20 21  1  0
 21 22  2  0
 22 23  1  0
 15  7  1  0
 22 17  1  0
  1 24  1  0
  1 25  1  0
  1 26  1  0
  2 27  1  1
  3 28  1  0
  3 29  1  0
  8 30  1  0
  9 31  1  0
 10 32  1  0
 15 33  1  0
 16 34  1  0
 16 35  1  0
 18 36  1  0
 19 37  1  0
 20 38  1  0
 21 39  1  0
M  CHG  4   2   1   6  -1  12   1  14  -1
M  END
>  <UniqueID>  (30) 
28

>  <SMILES>  (30) 
C[N@H+](CC(=O)[N-]c1cccc([N+](=O)[O-])c1)Cc1ccccc1Cl

>  <Energy>  (30) 
47.33814875609613

>  <Genealogy>  (30) 
C[NH+](CC(=O)[N-]c1cccc([N+](=O)[O-])c1)Cc1ccccc1Cl (protonated)
C[N@H+](CC(=O)[N-]c1cccc([N+](=O)[O-])c1)Cc1ccccc1Cl (chirality)
C[N@H+](CC(=O)[N-]c1cccc([N+](=O)[O-])c1)Cc1ccccc1Cl (3D coordinates assigned)
C[N@H+](CC(=O)[N-]c1cccc([N+](=O)[O-])c1)Cc1ccccc1Cl (optimized conformer: 47.33814875609613 kcal/mol)

>  <smiles>  (30) 
CN(CC(=O)Nc1cccc([N+](=O)[O-])c1)Cc1ccccc1Cl

>  <score_type>  (30) 
oracle

>  <origin>  (30) 
adgpu

>  <m_score__min__energy>  (30) 
-8.6300000000000008

>  <m_primary>  (30) 
energy

$$$$
30:0
     RDKit          3D

 28 30  0  0  0  0  0  0  0  0999 V2000
   -9.2840   19.7440  -32.7110 Cl  0  0  0  0  0  0  0  0  0  0  0  0
   -8.0560   20.8360  -32.0940 C   0  0  0  0  0  0  0  0  0  0  0  0
   -6.7380   20.7350  -32.5480 C   0  0  0  0  0  0  0  0  0  0  0  0
   -5.7580   21.6030  -32.0580 C   0  0  0  0  0  0  0  0  0  0  0  0
   -6.0860   22.5870  -31.1050 C   0  0  0  0  0  0  0  0  0  0  0  0
   -5.0620   23.5170  -30.5720 C   0  0  0  0  0  0  0  0  0  0  0  0
   -4.3780   23.4120  -29.3720 C   0  0  0  0  0  0  0  0  0  0  0  0
   -3.5520   24.5210  -29.3630 C   0  0  0  0  0  0  0  0  0  0  0  0
   -2.5890   24.9210  -28.3100 C   0  0  0  0  0  0  0  0  0  0  0  0
   -1.2730   25.3080  -28.6260 C   0  0  0  0  0  0  0  0  0  0  0  0
   -0.3840   25.6800  -27.6140 C   0  0  0  0  0  0  0  0  0  0  0  0
   -0.7950   25.6720  -26.2790 C   0  0  0  0  0  0  0  0  0  0  0  0
   -2.0990   25.2900  -25.9540 C   0  0  0  0  0  0  0  0  0  0  0  0
   -2.9930   24.9160  -26.9630 C   0  0  0  0  0  0  0  0  0  0  0  0
   -3.7530   25.1980  -30.4690 O   0  0  0  0  0  0  0  0  0  0  0  0
   -4.6490   24.6260  -31.2180 N   0  0  0  0  0  0  0  0  0  0  0  0
   -7.4170   22.6770  -30.6550 C   0  0  0  0  0  0  0  0  0  0  0  0
   -8.3940   21.8070  -31.1480 C   0  0  0  0  0  0  0  0  0  0  0  0
   -6.4712   19.9706  -33.2927 H   0  0  0  0  0  0  0  0  0  0  0  0
   -4.7226   21.5170  -32.4194 H   0  0  0  0  0  0  0  0  0  0  0  0
   -4.4704   22.6289  -28.6050 H   0  0  0  0  0  0  0  0  0  0  0  0
   -0.9426   25.3177  -29.6752 H   0  0  0  0  0  0  0  0  0  0  0  0
    0.6429   25.9801  -27.8696 H   0  0  0  0  0  0  0  0  0  0  0  0
   -0.0930   25.9660  -25.4848 H   0  0  0  0  0  0  0  0  0  0  0  0
   -2.4233   25.2833  -24.9029 H   0  0  0  0  0  0  0  0  0  0  0  0
   -4.0184   24.6161  -26.7011 H   0  0  0  0  0  0  0  0  0  0  0  0
   -7.6904   23.4381  -29.9094 H   0  0  0  0  0  0  0  0  0  0  0  0
   -9.4311   21.8871  -30.7903 H   0  0  0  0  0  0  0  0  0  0  0  0
  1  2  1  0
  2  3  2  0
  3  4  1  0
  4  5  2  0
  5  6  1  0
  6  7  1  0
  7  8  2  0
  8  9  1  0
  9 10  2  0
 10 11  1  0
 11 12  2  0
 12 13  1  0
 13 14  2  0
  8 15  1  0
 15 16  1  0
  5 17  1  0
 17 18  2  0
 18  2  1  0
 16  6  2  0
 14  9  1  0
  3 19  1  0
  4 20  1  0
  7 21  1  0
 10 22  1  0
 11 23  1  0
 12 24  1  0
 13 25  1  0
 14 26  1  0
 17 27  1  0
 18 28  1  0
M  END
>  <UniqueID>  (31) 
29

>  <SMILES>  (31) 
Clc1ccc(-c2cc(-c3ccccc3)on2)cc1

>  <Energy>  (31) 
63.532138960045785

>  <Genealogy>  (31) 
Clc1ccc(-c2cc(-c3ccccc3)on2)cc1 (3D coordinates assigned)
Clc1ccc(-c2cc(-c3ccccc3)on2)cc1 (optimized conformer: 63.532138960045785 kcal/mol)

>  <smiles>  (31) 
Clc1ccc(-c2cc(-c3ccccc3)on2)cc1

>  <score_type>  (31) 
oracle

>  <origin>  (31) 
adgpu

>  <m_score__min__energy>  (31) 
-8.7200000000000006

>  <m_primary>  (31) 
energy

$$$$
31:0
     RDKit          3D

 40 43  0  0  0  0  0  0  0  0999 V2000
   -9.5060   21.5740  -30.8070 C   0  0  0  0  0  0  0  0  0  0  0  0
   -8.5890   20.6520  -31.5460 C   0  0  0  0  0  0  0  0  0  0  0  0
   -8.7670   19.3050  -31.5520 N   0  0  0  0  0  0  0  0  0  0  0  0
   -7.7810   18.8780  -32.3620 C   0  0  0  0  0  0  0  0  0  0  0  0
   -7.4910   17.5710  -32.7400 C   0  0  0  0  0  0  0  0  0  0  0  0
   -6.4460   17.3680  -33.5960 N   0  0  0  0  0  0  0  0  0  0  0  0
   -5.6920   18.4050  -34.0800 C   0  0  0  0  0  0  0  0  0  0  0  0
   -5.9790   19.7320  -33.7060 C   0  0  0  0  0  0  0  0  0  0  0  0
   -7.0480   19.9240  -32.8300 C   0  0  0  0  0  0  0  0  0  0  0  0
   -7.5440   21.0650  -32.3190 N   0  0  0  0  0  0  0  0  0  0  0  0
   -7.1190   22.4400  -32.5990 C   0  0  0  0  0  0  0  0  0  0  0  0
   -6.2160   22.9440  -31.5050 C   0  0  0  0  0  0  0  0  0  0  0  0
   -5.1060   22.1910  -31.0930 C   0  0  0  0  0  0  0  0  0  0  0  0
   -4.2840   22.6500  -30.0610 C   0  0  0  0  0  0  0  0  0  0  0  0
   -4.5550   23.8760  -29.4260 C   0  0  0  0  0  0  0  0  0  0  0  0
   -3.6850   24.3570  -28.3250 C   0  0  0  0  0  0  0  0  0  0  0  0
   -4.2360   24.6160  -27.0560 C   0  0  0  0  0  0  0  0  0  0  0  0
   -3.4270   25.0750  -26.0130 C   0  0  0  0  0  0  0  0  0  0  0  0
   -2.0610   25.2770  -26.2220 C   0  0  0  0  0  0  0  0  0  0  0  0
   -1.5010   25.0180  -27.4750 C   0  0  0  0  0  0  0  0  0  0  0  0
   -2.3040   24.5580  -28.5250 C   0  0  0  0  0  0  0  0  0  0  0  0
   -1.7250   24.2780  -29.7200 F   0  0  0  0  0  0  0  0  0  0  0  0
   -5.6690   24.6260  -29.8380 C   0  0  0  0  0  0  0  0  0  0  0  0
   -6.4920   24.1640  -30.8690 C   0  0  0  0  0  0  0  0  0  0  0  0
   -9.3695   21.4367  -29.7242 H   0  0  0  0  0  0  0  0  0  0  0  0
   -9.2747   22.6150  -31.0767 H   0  0  0  0  0  0  0  0  0  0  0  0
  -10.5483   21.3483  -31.0767 H   0  0  0  0  0  0  0  0  0  0  0  0
   -8.0853   16.7265  -32.3610 H   0  0  0  0  0  0  0  0  0  0  0  0
   -4.8567   18.1994  -34.7655 H   0  0  0  0  0  0  0  0  0  0  0  0
   -5.3879   20.5779  -34.0868 H   0  0  0  0  0  0  0  0  0  0  0  0
   -6.5771   22.4640  -33.5559 H   0  0  0  0  0  0  0  0  0  0  0  0
   -8.0089   23.0844  -32.6519 H   0  0  0  0  0  0  0  0  0  0  0  0
   -4.8817   21.2334  -31.5857 H   0  0  0  0  0  0  0  0  0  0  0  0
   -3.4193   22.0491  -29.7428 H   0  0  0  0  0  0  0  0  0  0  0  0
   -5.3106   24.4560  -26.8840 H   0  0  0  0  0  0  0  0  0  0  0  0
   -3.8670   25.2776  -25.0254 H   0  0  0  0  0  0  0  0  0  0  0  0
   -1.4264   25.6399  -25.4001 H   0  0  0  0  0  0  0  0  0  0  0  0
   -0.4246   25.1762  -27.6373 H   0  0  0  0  0  0  0  0  0  0  0  0
   -5.8952   25.5834  -29.3459 H   0  0  0  0  0  0  0  0  0  0  0  0
   -7.3612   24.7603  -31.1837 H   0  0  0  0  0  0  0  0  0  0  0  0
  1  2  1  0
  2  3  2  0
  3  4  1  0
  4  5  2  0
  5  6  1  0
  6  7  2  0
  7  8  1  0
  8  9  2  0
  9 10  1  0
 10 11  1  0
 11 12  1  0
 12 13  2  0
 13 14  1  0
 14 15  2  0
 15 16  1  0
 16 17  2  0
 17 18  1  0
 18 19  2  0
 19 20  1  0
 20 21  2  0
 21 22  1  0
 15 23  1  0
 23 24  2  0
 10  2  1  0
 24 12  1  0
  9  4  1  0
 21 16  1  0
  1 25  1  0
  1 26  1  0
  1 27  1  0
  5 28  1  0
  7 29  1  0
  8 30  1  0
 11 31  1  0
 11 32  1  0
 13 33  1  0
 14 34  1  0
 17 35  1  0
 18 36  1  0
 19 37  1  0
 20 38  1  0
 23 39  1  0
 24 40  1  0
M  END
>  <UniqueID>  (32) 
30

>  <SMILES>  (32) 
Cc1nc2cnccc2n1Cc1ccc(-c2ccccc2F)cc1

>  <Energy>  (32) 
87.46714928286623

>  <Genealogy>  (32) 
Cc1nc2cnccc2n1Cc1ccc(-c2ccccc2F)cc1 (3D coordinates assigned)
Cc1nc2cnccc2n1Cc1ccc(-c2ccccc2F)cc1 (optimized conformer: 87.46714928286623 kcal/mol)

>  <smiles>  (32) 
Cc1nc2cnccc2n1Cc1ccc(-c2ccccc2F)cc1

>  <score_type>  (32) 
oracle

>  <origin>  (32) 
adgpu

>  <m_score__min__energy>  (32) 
-8.5299999999999994

>  <m_primary>  (32) 
energy

$$$$
32:0
     RDKit          3D

 22 22  0  0  0  0  0  0  0  0999 V2000
   -3.1880   22.6540  -29.5700 C   0  0  0  0  0  0  0  0  0  0  0  0
   -3.6430   22.5300  -30.9550 N   0  0  0  0  0  0  0  0  0  0  0  0
   -2.7420   21.9200  -31.9320 C   0  0  0  0  0  0  0  0  0  0  0  0
   -5.0500   22.5810  -31.2460 C   0  0  0  0  0  0  0  0  0  0  0  0
   -5.6920   21.4290  -31.7330 C   0  0  0  0  0  0  0  0  0  0  0  0
   -7.0410   21.4660  -32.0870 C   0  0  0  0  0  0  0  0  0  0  0  0
   -7.7630   22.6520  -31.9650 C   0  0  0  0  0  0  0  0  0  0  0  0
   -7.1420   23.8030  -31.4780 C   0  0  0  0  0  0  0  0  0  0  0  0
   -5.7840   23.7830  -31.1010 C   0  0  0  0  0  0  0  0  0  0  0  0
   -5.1800   24.9720  -30.5570 N   0  0  0  0  0  0  0  0  0  0  0  0
   -5.8000   25.6730  -29.7300 O   0  0  0  0  0  0  0  0  0  0  0  0
   -3.8710   25.2890  -30.8410 O   0  0  0  0  0  0  0  0  0  0  0  0
   -4.0212   22.4269  -28.8886 H   0  0  0  0  0  0  0  0  0  0  0  0
   -2.3642   21.9476  -29.3900 H   0  0  0  0  0  0  0  0  0  0  0  0
   -2.8365   23.6807  -29.3900 H   0  0  0  0  0  0  0  0  0  0  0  0
   -1.9423   21.3786  -31.4053 H   0  0  0  0  0  0  0  0  0  0  0  0
   -3.3065   21.2175  -32.5628 H   0  0  0  0  0  0  0  0  0  0  0  0
   -2.2994   22.7050  -32.5628 H   0  0  0  0  0  0  0  0  0  0  0  0
   -5.1263   20.4912  -31.8357 H   0  0  0  0  0  0  0  0  0  0  0  0
   -7.5354   20.5581  -32.4628 H   0  0  0  0  0  0  0  0  0  0  0  0
   -8.8242   22.6808  -32.2531 H   0  0  0  0  0  0  0  0  0  0  0  0
   -7.7183   24.7355  -31.3874 H   0  0  0  0  0  0  0  0  0  0  0  0
  1  2  1  0
  2  3  1  0
  2  4  1  0
  4  5  2  0
  5  6  1  0
  6  7  2  0
  7  8  1  0
  8  9  2  0
  9 10  1  0
 10 11  2  0
 10 12  1  0
  9  4  1  0
  1 13  1  0
  1 14  1  0
  1 15  1  0
  3 16  1  0
  3 17  1  0
  3 18  1  0
  5 19  1  0
  6 20  1  0
  7 21  1  0
  8 22  1  0
M  CHG  2  10   1  12  -1
M  END
>  <UniqueID>  (33) 
31

>  <SMILES>  (33) 
CN(C)c1ccccc1[N+](=O)[O-]

>  <Energy>  (33) 
27.54405935801843

>  <Genealogy>  (33) 
CN(C)c1ccccc1[N+](=O)[O-] (3D coordinates assigned)
CN(C)c1ccccc1[N+](=O)[O-] (optimized conformer: 27.54405935801843 kcal/mol)

>  <smiles>  (33) 
CN(C)c1ccccc1[N+](=O)[O-]

>  <score_type>  (33) 
oracle

>  <origin>  (33) 
adgpu

>  <m_score__min__energy>  (33) 
-5.2300000000000004

>  <m_primary>  (33) 
energy

$$$$
33:0
     RDKit          3D

 25 26  0  0  0  0  0  0  0  0999 V2000
   -9.6150   22.1720  -31.3060 O   0  0  0  0  0  0  0  0  0  0  0  0
   -8.5210   21.9920  -31.9070 C   0  0  0  0  0  0  0  0  0  0  0  0
   -7.7020   23.0820  -32.2330 O   0  0  0  0  0  0  0  0  0  0  0  0
   -6.6210   23.5440  -31.4680 C   0  0  0  0  0  0  0  0  0  0  0  0
   -6.8610   24.5260  -30.4990 C   0  0  0  0  0  0  0  0  0  0  0  0
   -5.8160   25.0100  -29.7050 C   0  0  0  0  0  0  0  0  0  0  0  0
   -4.5240   24.5050  -29.8670 C   0  0  0  0  0  0  0  0  0  0  0  0
   -4.2760   23.5100  -30.8160 C   0  0  0  0  0  0  0  0  0  0  0  0
   -5.3190   23.0250  -31.6120 C   0  0  0  0  0  0  0  0  0  0  0  0
   -8.0690   20.6170  -32.2190 C   0  0  0  0  0  0  0  0  0  0  0  0
   -8.7410   19.5080  -31.6720 C   0  0  0  0  0  0  0  0  0  0  0  0
   -8.3150   18.2080  -31.9630 C   0  0  0  0  0  0  0  0  0  0  0  0
   -7.2180   18.0020  -32.8020 C   0  0  0  0  0  0  0  0  0  0  0  0
   -6.5420   19.0950  -33.3500 C   0  0  0  0  0  0  0  0  0  0  0  0
   -6.9630   20.3970  -33.0610 C   0  0  0  0  0  0  0  0  0  0  0  0
   -7.8788   24.9197  -30.3612 H   0  0  0  0  0  0  0  0  0  0  0  0
   -6.0119   25.7885  -28.9529 H   0  0  0  0  0  0  0  0  0  0  0  0
   -3.7012   24.8908  -29.2471 H   0  0  0  0  0  0  0  0  0  0  0  0
   -3.2595   23.1076  -30.9373 H   0  0  0  0  0  0  0  0  0  0  0  0
   -5.1221   22.2359  -32.3527 H   0  0  0  0  0  0  0  0  0  0  0  0
   -9.6066   19.6646  -31.0115 H   0  0  0  0  0  0  0  0  0  0  0  0
   -8.8449   17.3466  -31.5303 H   0  0  0  0  0  0  0  0  0  0  0  0
   -6.8859   16.9788  -33.0316 H   0  0  0  0  0  0  0  0  0  0  0  0
   -5.6772   18.9312  -34.0098 H   0  0  0  0  0  0  0  0  0  0  0  0
   -6.4266   21.2540  -33.4943 H   0  0  0  0  0  0  0  0  0  0  0  0
  1  2  2  0
  2  3  1  0
  3  4  1  0
  4  5  2  0
  5  6  1  0
  6  7  2  0
  7  8  1  0
  8  9  2  0
  2 10  1  0
 10 11  2  0
 11 12  1  0
 12 13  2  0
 13 14  1  0
 14 15  2  0
  9  4  1  0
 15 10  1  0
  5 16  1  0
  6 17  1  0
  7 18  1  0
  8 19  1  0
  9 20  1  0
 11 21  1  0
 12 22  1  0
 13 23  1  0
 14 24  1  0
 15 25  1  0
M  END
>  <UniqueID>  (34) 
32

>  <SMILES>  (34) 
O=C(Oc1ccccc1)c1ccccc1

>  <Energy>  (34) 
30.91589058151129

>  <Genealogy>  (34) 
O=C(Oc1ccccc1)c1ccccc1 (3D coordinates assigned)
O=C(Oc1ccccc1)c1ccccc1 (optimized conformer: 30.91589058151129 kcal/mol)

>  <smiles>  (34) 
O=C(Oc1ccccc1)c1ccccc1

>  <score_type>  (34) 
oracle

>  <origin>  (34) 
adgpu

>  <m_score__min__energy>  (34) 
-6.21

>  <m_primary>  (34) 
energy

$$$$
34:0
     RDKit          3D

 49 52  0  0  0  0  0  0  0  0999 V2000
   -3.9150   25.5650  -30.6240 N   0  0  0  0  0  0  0  0  0  0  0  0
   -3.6950   24.2570  -30.0770 C   0  0  0  0  0  0  0  0  0  0  0  0
   -4.3470   23.1090  -30.5460 C   0  0  0  0  0  0  0  0  0  0  0  0
   -5.2090   22.9950  -31.7410 C   0  0  0  0  0  0  0  0  0  0  0  0
   -5.5550   24.0440  -32.3490 O   0  0  0  0  0  0  0  0  0  0  0  0
   -5.6380   21.6780  -32.2710 C   0  0  0  0  0  0  0  0  0  0  0  0
   -6.9800   21.2620  -32.1790 C   0  0  0  0  0  0  0  0  0  0  0  0
   -7.3720   20.0220  -32.6930 C   0  0  0  0  0  0  0  0  0  0  0  0
   -6.4360   19.1900  -33.3100 C   0  0  0  0  0  0  0  0  0  0  0  0
   -6.8190   17.9890  -33.8070 F   0  0  0  0  0  0  0  0  0  0  0  0
   -5.1040   19.5990  -33.4200 C   0  0  0  0  0  0  0  0  0  0  0  0
   -4.7060   20.8380  -32.9090 C   0  0  0  0  0  0  0  0  0  0  0  0
   -3.8910   21.8080  -29.5800 S   0  0  0  0  0  0  0  0  0  0  0  0
   -2.9040   22.6840  -28.5370 C   0  0  0  0  0  0  0  0  0  0  0  0
   -2.0620   22.1100  -27.5260 N   0  0  0  0  0  0  0  0  0  0  0  0
   -1.5060   20.7880  -27.6060 C   0  0  0  0  0  0  0  0  0  0  0  0
   -2.0430   19.7640  -26.8100 C   0  0  0  0  0  0  0  0  0  0  0  0
   -1.5320   18.4640  -26.8900 C   0  0  0  0  0  0  0  0  0  0  0  0
   -0.4930   18.1740  -27.7770 C   0  0  0  0  0  0  0  0  0  0  0  0
    0.0320   19.1810  -28.5910 C   0  0  0  0  0  0  0  0  0  0  0  0
   -0.4750   20.4820  -28.5140 C   0  0  0  0  0  0  0  0  0  0  0  0
   -2.8750   24.0180  -28.9500 C   0  0  0  0  0  0  0  0  0  0  0  0
   -2.0720   25.0570  -28.2770 C   0  0  0  0  0  0  0  0  0  0  0  0
   -1.5730   25.9890  -28.9620 O   0  0  0  0  0  0  0  0  0  0  0  0
   -1.8280   24.9810  -26.8610 N   0  0  0  0  0  0  0  0  0  0  0  0
   -1.1020   25.9690  -26.1140 C   0  0  0  0  0  0  0  0  0  0  0  0
    0.1050   26.4680  -26.6270 C   0  0  0  0  0  0  0  0  0  0  0  0
    0.8420   27.4140  -25.9090 C   0  0  0  0  0  0  0  0  0  0  0  0
    0.3900   27.8590  -24.6630 C   0  0  0  0  0  0  0  0  0  0  0  0
    1.3170   29.0430  -23.7630 Cl  0  0  0  0  0  0  0  0  0  0  0  0
   -0.8000   27.3490  -24.1320 C   0  0  0  0  0  0  0  0  0  0  0  0
   -1.5400   26.4030  -24.8490 C   0  0  0  0  0  0  0  0  0  0  0  0
   -4.2190   25.6950  -31.6130 H   0  0  0  0  0  0  0  0  0  0  0  0
   -3.8700   26.4170  -30.0270 H   0  0  0  0  0  0  0  0  0  0  0  0
   -7.7239   21.9158  -31.7003 H   0  0  0  0  0  0  0  0  0  0  0  0
   -8.4210   19.7012  -32.6109 H   0  0  0  0  0  0  0  0  0  0  0  0
   -4.3675   18.9448  -33.9095 H   0  0  0  0  0  0  0  0  0  0  0  0
   -3.6582   21.1583  -33.0061 H   0  0  0  0  0  0  0  0  0  0  0  0
   -1.7820   22.7130  -26.7190 H   0  0  0  0  0  0  0  0  0  0  0  0
   -2.8702   19.9849  -26.1194 H   0  0  0  0  0  0  0  0  0  0  0  0
   -1.9490   17.6696  -26.2536 H   0  0  0  0  0  0  0  0  0  0  0  0
   -0.0880   17.1529  -27.8348 H   0  0  0  0  0  0  0  0  0  0  0  0
    0.8459   18.9499  -29.2939 H   0  0  0  0  0  0  0  0  0  0  0  0
   -0.0667   21.2689  -29.1652 H   0  0  0  0  0  0  0  0  0  0  0  0
   -2.1370   24.1220  -26.3520 H   0  0  0  0  0  0  0  0  0  0  0  0
    0.4735   26.1124  -27.6005 H   0  0  0  0  0  0  0  0  0  0  0  0
    1.7802   27.8095  -26.3254 H   0  0  0  0  0  0  0  0  0  0  0  0
   -1.1542   27.6927  -23.1489 H   0  0  0  0  0  0  0  0  0  0  0  0
   -2.4687   25.9964  -24.4221 H   0  0  0  0  0  0  0  0  0  0  0  0
  1  2  1  0
  2  3  2  0
  3  4  1  0
  4  5  2  0
  4  6  1  0
  6  7  2  0
  7  8  1  0
  8  9  2  0
  9 10  1  0
  9 11  1  0
 11 12  2  0
  3 13  1  0
 13 14  1  0
 14 15  1  0
 15 16  1  0
 16 17  2  0
 17 18  1  0
 18 19  2  0
 19 20  1  0
 20 21  2  0
 14 22  2  0
 22 23  1  0
 23 24  2  0
 23 25  1  0
 25 26  1  0
 26 27  2  0
 27 28  1  0
 28 29  2  0
 29 30  1  0
 29 31  1  0
 31 32  2  0
 22  2  1  0
 32 26  1  0
 12  6  1  0
 21 16  1  0
  1 33  1  0
  1 34  1  0
  7 35  1  0
  8 36  1  0
 11 37  1  0
 12 38  1  0
 15 39  1  0
 17 40  1  0
 18 41  1  0
 19 42  1  0
 20 43  1  0
 21 44  1  0
 25 45  1  0
 27 46  1  0
 28 47  1  0
 31 48  1  0
 32 49  1  0
M  END
>  <UniqueID>  (35) 
33

>  <SMILES>  (35) 
Nc1c(C(=O)c2ccc(F)cc2)sc(Nc2ccccc2)c1C(=O)Nc1ccc(Cl)cc1

>  <Energy>  (35) 
98.78825905899127

>  <Genealogy>  (35) 
Nc1c(C(=O)c2ccc(F)cc2)sc(Nc2ccccc2)c1C(=O)Nc1ccc(Cl)cc1 (3D coordinates assigned)
Nc1c(C(=O)c2ccc(F)cc2)sc(Nc2ccccc2)c1C(=O)Nc1ccc(Cl)cc1 (optimized conformer: 98.78825905899127 kcal/mol)

>  <smiles>  (35) 
Nc1c(C(=O)c2ccc(F)cc2)sc(Nc2ccccc2)c1C(=O)Nc1ccc(Cl)cc1

>  <score_type>  (35) 
oracle

>  <origin>  (35) 
adgpu

>  <m_score__min__energy>  (35) 
-10.4

>  <m_primary>  (35) 
energy

$$$$
35:0
     RDKit          3D

 43 45  0  0  0  0  0  0  0  0999 V2000
   -1.6010   25.4530  -28.5900 C   0  0  0  0  0  0  0  0  0  0  0  0
   -1.5950   24.1160  -27.8980 C   0  0  0  0  0  0  0  0  0  0  0  0
   -0.9420   24.0100  -26.6620 C   0  0  0  0  0  0  0  0  0  0  0  0
   -0.9480   22.8080  -25.9560 C   0  0  0  0  0  0  0  0  0  0  0  0
   -0.0760   22.6920  -24.2600 Br  0  0  0  0  0  0  0  0  0  0  0  0
   -1.6100   21.6950  -26.4760 C   0  0  0  0  0  0  0  0  0  0  0  0
   -2.2430   21.7620  -27.7250 C   0  0  0  0  0  0  0  0  0  0  0  0
   -3.0030   20.5580  -28.2170 C   0  0  0  0  0  0  0  0  0  0  0  0
   -2.2240   22.9740  -28.4550 C   0  0  0  0  0  0  0  0  0  0  0  0
   -2.8610   23.0480  -29.7430 N   0  0  0  0  0  0  0  0  0  0  0  0
   -2.3040   22.3280  -30.8630 C   0  0  0  0  0  0  0  0  0  0  0  0
   -3.0280   22.1870  -32.0610 C   0  0  0  0  0  0  0  0  0  0  0  0
   -2.4740   21.5040  -33.1480 C   0  0  0  0  0  0  0  0  0  0  0  0
   -1.1910   20.9610  -33.0540 C   0  0  0  0  0  0  0  0  0  0  0  0
   -0.4580   21.1030  -31.8740 C   0  0  0  0  0  0  0  0  0  0  0  0
   -1.0080   21.7860  -30.7850 C   0  0  0  0  0  0  0  0  0  0  0  0
   -4.2490   24.0870  -29.9270 S   0  0  0  0  0  0  0  0  0  0  0  0
   -4.7160   24.5540  -28.5760 O   0  0  0  0  0  0  0  0  0  0  0  0
   -3.8820   25.3010  -30.7330 O   0  0  0  0  0  0  0  0  0  0  0  0
   -5.5430   23.2290  -30.7580 C   0  0  0  0  0  0  0  0  0  0  0  0
   -6.4830   23.9220  -31.5350 C   0  0  0  0  0  0  0  0  0  0  0  0
   -7.5140   23.2280  -32.1750 C   0  0  0  0  0  0  0  0  0  0  0  0
   -7.6090   21.8390  -32.0450 C   0  0  0  0  0  0  0  0  0  0  0  0
   -6.6710   21.1430  -31.2770 C   0  0  0  0  0  0  0  0  0  0  0  0
   -5.6390   21.8350  -30.6370 C   0  0  0  0  0  0  0  0  0  0  0  0
   -1.6046   26.2553  -27.8375 H   0  0  0  0  0  0  0  0  0  0  0  0
   -0.7033   25.5443  -29.2191 H   0  0  0  0  0  0  0  0  0  0  0  0
   -2.4995   25.5363  -29.2191 H   0  0  0  0  0  0  0  0  0  0  0  0
   -0.4198   24.8838  -26.2452 H   0  0  0  0  0  0  0  0  0  0  0  0
   -1.6353   20.7575  -25.9012 H   0  0  0  0  0  0  0  0  0  0  0  0
   -3.3688   19.9785  -27.3565 H   0  0  0  0  0  0  0  0  0  0  0  0
   -3.8571   20.8876  -28.8269 H   0  0  0  0  0  0  0  0  0  0  0  0
   -2.3381   19.9287  -28.8269 H   0  0  0  0  0  0  0  0  0  0  0  0
   -4.0371   22.6171  -32.1431 H   0  0  0  0  0  0  0  0  0  0  0  0
   -3.0498   21.3942  -34.0788 H   0  0  0  0  0  0  0  0  0  0  0  0
   -0.7579   20.4216  -33.9092 H   0  0  0  0  0  0  0  0  0  0  0  0
    0.5535   20.6769  -31.8011 H   0  0  0  0  0  0  0  0  0  0  0  0
   -0.4231   21.9004  -29.8604 H   0  0  0  0  0  0  0  0  0  0  0  0
   -6.4087   25.0144  -31.6410 H   0  0  0  0  0  0  0  0  0  0  0  0
   -8.2510   23.7750  -32.7813 H   0  0  0  0  0  0  0  0  0  0  0  0
   -8.4219   21.2940  -32.5471 H   0  0  0  0  0  0  0  0  0  0  0  0
   -6.7451   20.0501  -31.1763 H   0  0  0  0  0  0  0  0  0  0  0  0
   -4.8998   21.2846  -30.0365 H   0  0  0  0  0  0  0  0  0  0  0  0
  1  2  1  0
  2  3  2  0
  3  4  1  0
  4  5  1  0
  4  6  2  0
  6  7  1  0
  7  8  1  0
  7  9  2  0
  9 10  1  0
 10 11  1  0
 11 12  2  0
 12 13  1  0
 13 14  2  0
 14 15  1  0
 15 16  2  0
 10 17  1  0
 17 18  2  0
 17 19  2  0
 17 20  1  0
 20 21  2  0
 21 22  1  0
 22 23  2  0
 23 24  1  0
 24 25  2  0
  9  2  1  0
 16 11  1  0
 25 20  1  0
  1 26  1  0
  1 27  1  0
  1 28  1  0
  3 29  1  0
  6 30  1  0
  8 31  1  0
  8 32  1  0
  8 33  1  0
 12 34  1  0
 13 35  1  0
 14 36  1  0
 15 37  1  0
 16 38  1  0
 21 39  1  0
 22 40  1  0
 23 41  1  0
 24 42  1  0
 25 43  1  0
M  END
>  <UniqueID>  (36) 
34

>  <SMILES>  (36) 
Cc1cc(Br)cc(C)c1N(c1ccccc1)S(=O)(=O)c1ccccc1

>  <Energy>  (36) 
55.77969656699434

>  <Genealogy>  (36) 
Cc1cc(Br)cc(C)c1N(c1ccccc1)S(=O)(=O)c1ccccc1 (3D coordinates assigned)
Cc1cc(Br)cc(C)c1N(c1ccccc1)S(=O)(=O)c1ccccc1 (optimized conformer: 55.77969656699434 kcal/mol)

>  <smiles>  (36) 
Cc1cc(Br)cc(C)c1N(c1ccccc1)S(=O)(=O)c1ccccc1

>  <score_type>  (36) 
oracle

>  <origin>  (36) 
adgpu

>  <m_score__min__energy>  (36) 
-8.9600000000000009

>  <m_primary>  (36) 
energy

$$$$
36:0
     RDKit          3D

 35 36  0  0  0  0  0  0  0  0999 V2000
   -8.3200   20.3270  -32.4010 C   0  0  0  0  0  0  0  0  0  0  0  0
   -7.5640   21.5020  -31.8580 C   0  0  0  0  0  0  0  0  0  0  0  0
   -6.4470   22.0100  -32.5420 C   0  0  0  0  0  0  0  0  0  0  0  0
   -5.7320   23.0900  -32.0180 C   0  0  0  0  0  0  0  0  0  0  0  0
   -6.1160   23.6670  -30.8010 C   0  0  0  0  0  0  0  0  0  0  0  0
   -5.2390   25.0610  -30.1740 S   0  0  0  0  0  0  0  0  0  0  0  0
   -5.7370   26.3200  -30.8290 O   0  0  0  0  0  0  0  0  0  0  0  0
   -5.4800   25.1690  -28.6940 O   0  0  0  0  0  0  0  0  0  0  0  0
   -3.5300   24.8950  -30.4610 N   0  0  0  0  0  0  0  0  0  0  0  0
   -3.0970   23.5060  -30.2840 C   0  0  0  0  0  0  0  0  0  0  0  0
   -3.1670   23.1210  -28.8050 C   0  0  0  0  0  0  0  0  0  0  0  0
   -2.5360   24.1860  -27.9490 C   0  0  0  0  0  0  0  0  0  0  0  0
   -1.3330   24.7930  -28.3470 C   0  0  0  0  0  0  0  0  0  0  0  0
   -0.7660   25.8090  -27.5700 C   0  0  0  0  0  0  0  0  0  0  0  0
   -1.3990   26.2290  -26.3980 C   0  0  0  0  0  0  0  0  0  0  0  0
   -2.6030   25.6370  -26.0010 C   0  0  0  0  0  0  0  0  0  0  0  0
   -3.1730   24.6230  -26.7760 C   0  0  0  0  0  0  0  0  0  0  0  0
   -7.2210   23.1530  -30.1090 C   0  0  0  0  0  0  0  0  0  0  0  0
   -7.9370   22.0720  -30.6320 C   0  0  0  0  0  0  0  0  0  0  0  0
   -8.7082   19.7237  -31.5672 H   0  0  0  0  0  0  0  0  0  0  0  0
   -9.1586   20.6835  -33.0172 H   0  0  0  0  0  0  0  0  0  0  0  0
   -7.6480   19.7116  -33.0172 H   0  0  0  0  0  0  0  0  0  0  0  0
   -6.1341   21.5558  -33.4937 H   0  0  0  0  0  0  0  0  0  0  0  0
   -4.8640   23.4887  -32.5635 H   0  0  0  0  0  0  0  0  0  0  0  0
   -3.7547   22.8425  -30.8647 H   0  0  0  0  0  0  0  0  0  0  0  0
   -2.0597   23.4034  -30.6353 H   0  0  0  0  0  0  0  0  0  0  0  0
   -4.2205   22.9996  -28.5127 H   0  0  0  0  0  0  0  0  0  0  0  0
   -2.6198   22.1781  -28.6581 H   0  0  0  0  0  0  0  0  0  0  0  0
   -0.8352   24.4683  -29.2726 H   0  0  0  0  0  0  0  0  0  0  0  0
    0.1790   26.2774  -27.8824 H   0  0  0  0  0  0  0  0  0  0  0  0
   -0.9506   27.0259  -25.7865 H   0  0  0  0  0  0  0  0  0  0  0  0
   -3.1012   25.9698  -25.0785 H   0  0  0  0  0  0  0  0  0  0  0  0
   -4.1241   24.1655  -26.4660 H   0  0  0  0  0  0  0  0  0  0  0  0
   -7.5258   23.6012  -29.1518 H   0  0  0  0  0  0  0  0  0  0  0  0
   -8.7972   21.6665  -30.0792 H   0  0  0  0  0  0  0  0  0  0  0  0
  1  2  1  0
  2  3  2  0
  3  4  1  0
  4  5  2  0
  5  6  1  0
  6  7  2  0
  6  8  2  0
  6  9  1  0
  9 10  1  0
 10 11  1  0
 11 12  1  0
 12 13  2  0
 13 14  1  0
 14 15  2  0
 15 16  1  0
 16 17  2  0
  5 18  1  0
 18 19  2  0
 19  2  1  0
 17 12  1  0
  1 20  1  0
  1 21  1  0
  1 22  1  0
  3 23  1  0
  4 24  1  0
 10 25  1  0
 10 26  1  0
 11 27  1  0
 11 28  1  0
 13 29  1  0
 14 30  1  0
 15 31  1  0
 16 32  1  0
 17 33  1  0
 18 34  1  0
 19 35  1  0
M  CHG  1   9  -1
M  END
>  <UniqueID>  (37) 
35

>  <SMILES>  (37) 
Cc1ccc(S(=O)(=O)[N-]CCc2ccccc2)cc1

>  <Energy>  (37) 
30.026523444995785

>  <Genealogy>  (37) 
Cc1ccc(S(=O)(=O)[N-]CCc2ccccc2)cc1 (protonated)
Cc1ccc(S(=O)(=O)[N-]CCc2ccccc2)cc1 (3D coordinates assigned)
Cc1ccc(S(=O)(=O)[N-]CCc2ccccc2)cc1 (optimized conformer: 30.026523444995785 kcal/mol)

>  <smiles>  (37) 
Cc1ccc(S(=O)(=O)NCCc2ccccc2)cc1

>  <score_type>  (37) 
oracle

>  <origin>  (37) 
adgpu

>  <m_score__min__energy>  (37) 
-8.6400000000000006

>  <m_primary>  (37) 
energy

$$$$
37:0
     RDKit          3D

 40 42  0  0  0  0  0  0  0  0999 V2000
   -5.9560   15.4340  -34.7400 H   0  0  0  0  0  0  0  0  0  0  0  0
   -6.6550   15.6810  -34.0050 N   0  0  0  0  0  0  0  0  0  0  0  0
   -6.8230   16.8730  -33.5200 C   0  0  0  0  0  0  0  0  0  0  0  0
   -7.7880   17.0530  -32.5780 N   0  0  0  0  0  0  0  0  0  0  0  0
   -8.0510   18.2660  -32.0290 C   0  0  0  0  0  0  0  0  0  0  0  0
   -8.8289   18.3627  -31.2573 H   0  0  0  0  0  0  0  0  0  0  0  0
   -7.3380   19.3870  -32.4410 C   0  0  0  0  0  0  0  0  0  0  0  0
   -7.5504   20.3708  -31.9971 H   0  0  0  0  0  0  0  0  0  0  0  0
   -6.3520   19.2580  -33.4200 C   0  0  0  0  0  0  0  0  0  0  0  0
   -5.6830   20.4160  -33.8410 O   0  0  0  0  0  0  0  0  0  0  0  0
   -4.6940   21.0750  -33.0920 C   0  0  0  0  0  0  0  0  0  0  0  0
   -3.3600   20.6310  -33.0610 C   0  0  0  0  0  0  0  0  0  0  0  0
   -3.0637   19.7431  -33.6388 H   0  0  0  0  0  0  0  0  0  0  0  0
   -2.4100   21.3150  -32.2980 C   0  0  0  0  0  0  0  0  0  0  0  0
   -0.7500   20.7500  -32.2580 Cl  0  0  0  0  0  0  0  0  0  0  0  0
   -2.7800   22.4500  -31.5700 C   0  0  0  0  0  0  0  0  0  0  0  0
   -2.0277   22.9831  -30.9702 H   0  0  0  0  0  0  0  0  0  0  0  0
   -4.1070   22.9150  -31.5990 C   0  0  0  0  0  0  0  0  0  0  0  0
   -4.4990   24.1190  -30.8280 C   0  0  0  0  0  0  0  0  0  0  0  0
   -5.7200   24.3520  -30.6150 O   0  0  0  0  0  0  0  0  0  0  0  0
   -3.4860   24.9640  -30.2560 N   0  0  0  0  0  0  0  0  0  0  0  0
   -2.7020   24.7380  -29.2380 C   0  0  0  0  0  0  0  0  0  0  0  0
   -1.7480   25.6610  -28.9420 N   0  0  0  0  0  0  0  0  0  0  0  0
   -0.8950   25.5070  -27.8970 C   0  0  0  0  0  0  0  0  0  0  0  0
   -0.1328   26.2714  -27.6855 H   0  0  0  0  0  0  0  0  0  0  0  0
   -0.9940   24.3680  -27.0920 C   0  0  0  0  0  0  0  0  0  0  0  0
   -0.0870   24.1780  -25.9190 C   0  0  0  0  0  0  0  0  0  0  0  0
   -0.6610   24.2982  -24.9884 H   0  0  0  0  0  0  0  0  0  0  0  0
    0.3496   23.1689  -25.9527 H   0  0  0  0  0  0  0  0  0  0  0  0
    0.7179   24.9270  -25.9527 H   0  0  0  0  0  0  0  0  0  0  0  0
   -1.9630   23.4520  -27.3610 N   0  0  0  0  0  0  0  0  0  0  0  0
   -2.8170   23.6040  -28.4070 C   0  0  0  0  0  0  0  0  0  0  0  0
   -3.5919   22.8486  -28.6042 H   0  0  0  0  0  0  0  0  0  0  0  0
   -5.0560   22.2170  -32.3690 C   0  0  0  0  0  0  0  0  0  0  0  0
   -6.0959   22.5739  -32.4029 H   0  0  0  0  0  0  0  0  0  0  0  0
   -6.0420   17.9800  -33.9450 C   0  0  0  0  0  0  0  0  0  0  0  0
   -4.9050   17.8060  -34.9250 C   0  0  0  0  0  0  0  0  0  0  0  0
   -3.9643   17.6620  -34.3734 H   0  0  0  0  0  0  0  0  0  0  0  0
   -5.0974   16.9268  -35.5575 H   0  0  0  0  0  0  0  0  0  0  0  0
   -4.8257   18.7025  -35.5575 H   0  0  0  0  0  0  0  0  0  0  0  0
  1  2  1  0
  2  3  2  0
  3  4  1  0
  4  5  1  0
  5  6  1  0
  5  7  2  0
  7  8  1  0
  7  9  1  0
  9 10  1  0
 10 11  1  0
 11 12  2  0
 12 13  1  0
 12 14  1  0
 14 15  1  0
 14 16  2  0
 16 17  1  0
 16 18  1  0
 18 19  1  0
 19 20  2  0
 19 21  1  0
 21 22  2  3
 22 23  1  0
 23 24  1  0
 24 25  1  0
 24 26  2  0
 26 27  1  0
 27 28  1  0
 27 29  1  0
 27 30  1  0
 26 31  1  0
 31 32  2  0
 32 33  1  0
 18 34  2  0
 34 35  1  0
  9 36  2  0
 36 37  1  0
 37 38  1  0
 37 39  1  0
 37 40  1  0
 36  3  1  0
 34 11  1  0
 32 22  1  0
M  CHG  2   4  -1  23  -1
M  END
>  <UniqueID>  (38) 
36

>  <SMILES>  (38) 
[H]/N=c1/[n-]ccc(Oc2cc(Cl)cc(C(=O)N=c3cnc(C)c[n-]3)c2)c1C

>  <Energy>  (38) 
63.60806737530738

>  <Genealogy>  (38) 
Cc1c[n-]c(=NC(=O)c2cc(Cl)cc(Oc3cc[n-]c(=N)c3C)c2)cn1 (protonated)
[H]/N=c1/[n-]ccc(Oc2cc(Cl)cc(C(=O)N=c3cnc(C)c[n-]3)c2)c1C (cis-trans isomerization)
[H]/N=c1/[n-]ccc(Oc2cc(Cl)cc(C(=O)N=c3cnc(C)c[n-]3)c2)c1C (3D coordinates assigned)
[H]/N=c1/[n-]ccc(Oc2cc(Cl)cc(C(=O)N=c3cnc(C)c[n-]3)c2)c1C (optimized conformer: 63.60806737530738 kcal/mol)

>  <smiles>  (38) 
Cc1c[nH]c(=NC(=O)c2cc(Cl)cc(Oc3cc[nH]c(=N)c3C)c2)cn1

>  <score_type>  (38) 
oracle

>  <origin>  (38) 
adgpu

>  <m_score__min__energy>  (38) 
-10.31

>  <m_primary>  (38) 
energy

$$$$
38:0
     RDKit          3D

 29 30  0  0  0  0  0  0  0  0999 V2000
    2.6741   24.5224  -28.1358 H   0  0  0  0  0  0  0  0  0  0  0  0
    1.6530   24.2430  -27.8370 C   0  0  0  0  0  0  0  0  0  0  0  0
    0.5610   24.8870  -28.1800 O   0  0  0  0  0  0  0  0  0  0  0  0
   -0.4730   24.2750  -27.6510 C   0  0  0  0  0  0  0  0  0  0  0  0
   -1.8700   24.7180  -27.8080 C   0  0  0  0  0  0  0  0  0  0  0  0
   -2.6230   24.7610  -26.8000 O   0  0  0  0  0  0  0  0  0  0  0  0
   -2.3700   25.1880  -29.0670 N   0  0  0  0  0  0  0  0  0  0  0  0
   -3.4920   24.8330  -29.6220 C   0  0  0  0  0  0  0  0  0  0  0  0
   -3.8680   25.2880  -30.8350 N   0  0  0  0  0  0  0  0  0  0  0  0
   -5.0650   24.8400  -31.2140 N   0  0  0  0  0  0  0  0  0  0  0  0
   -5.6550   24.0450  -30.2940 C   0  0  0  0  0  0  0  0  0  0  0  0
   -6.9720   23.3700  -30.5080 C   0  0  0  0  0  0  0  0  0  0  0  0
   -7.7813   24.1027  -30.3733 H   0  0  0  0  0  0  0  0  0  0  0  0
   -7.0778   22.5530  -29.7790 H   0  0  0  0  0  0  0  0  0  0  0  0
   -7.0480   22.7870  -31.9250 C   0  0  0  0  0  0  0  0  0  0  0  0
   -6.0250   22.6109  -32.2890 H   0  0  0  0  0  0  0  0  0  0  0  0
   -7.5834   23.5120  -32.5557 H   0  0  0  0  0  0  0  0  0  0  0  0
   -7.8240   21.4620  -31.9770 C   0  0  0  0  0  0  0  0  0  0  0  0
   -7.2389   20.6907  -31.4547 H   0  0  0  0  0  0  0  0  0  0  0  0
   -7.9776   21.2082  -33.0362 H   0  0  0  0  0  0  0  0  0  0  0  0
   -9.2010   21.5590  -31.3210 C   0  0  0  0  0  0  0  0  0  0  0  0
   -9.0873   21.5510  -30.2269 H   0  0  0  0  0  0  0  0  0  0  0  0
   -9.6903   22.4938  -31.6320 H   0  0  0  0  0  0  0  0  0  0  0  0
   -9.8165   20.7020  -31.6320 H   0  0  0  0  0  0  0  0  0  0  0  0
   -4.6770   23.8400  -28.9370 S   0  0  0  0  0  0  0  0  0  0  0  0
   -0.0490   23.1810  -26.9200 C   0  0  0  0  0  0  0  0  0  0  0  0
   -0.6754   22.4735  -26.3569 H   0  0  0  0  0  0  0  0  0  0  0  0
    1.3240   23.1630  -27.0450 C   0  0  0  0  0  0  0  0  0  0  0  0
    2.0178   22.4335  -26.6019 H   0  0  0  0  0  0  0  0  0  0  0  0
  1  2  1  0
  2  3  1  0
  3  4  1  0
  4  5  1  0
  5  6  2  0
  5  7  1  0
  7  8  2  0
  8  9  1  0
  9 10  1  0
 10 11  2  0
 11 12  1  0
 12 13  1  0
 12 14  1  0
 12 15  1  0
 15 16  1  0
 15 17  1  0
 15 18  1  0
 18 19  1  0
 18 20  1  0
 18 21  1  0
 21 22  1  0
 21 23  1  0
 21 24  1  0
 11 25  1  0
  4 26  2  0
 26 27  1  0
 26 28  1  0
 28 29  1  0
 28  2  2  0
 25  8  1  0
M  CHG  1   9  -1
M  END
>  <UniqueID>  (39) 
37

>  <SMILES>  (39) 
CCCCc1n[n-]/c(=N/C(=O)c2ccco2)s1

>  <Energy>  (39) 
87.85597971738353

>  <Genealogy>  (39) 
CCCCc1n[n-]c(=NC(=O)c2ccco2)s1 (protonated)
CCCCc1n[n-]/c(=N/C(=O)c2ccco2)s1 (cis-trans isomerization)
CCCCc1n[n-]/c(=N/C(=O)c2ccco2)s1 (3D coordinates assigned)
CCCCc1n[n-]/c(=N/C(=O)c2ccco2)s1 (optimized conformer: 87.85597971738353 kcal/mol)

>  <smiles>  (39) 
CCCCc1n[nH]c(=NC(=O)c2ccco2)s1

>  <score_type>  (39) 
oracle

>  <origin>  (39) 
adgpu

>  <m_score__min__energy>  (39) 
-8.1500000000000004

>  <m_primary>  (39) 
energy

$$$$
39:0
     RDKit          3D

 26 27  0  0  0  0  0  0  0  0999 V2000
   -4.3080   25.5130  -30.9220 O   0  0  0  0  0  0  0  0  0  0  0  0
   -5.3940   24.7410  -30.2260 S   0  0  0  0  0  0  0  0  0  0  0  0
   -6.5970   25.6290  -30.0660 O   0  0  0  0  0  0  0  0  0  0  0  0
   -4.8350   24.2540  -28.6570 N   0  0  0  0  0  0  0  0  0  0  0  0
   -3.6290   23.4980  -28.4320 C   0  0  0  0  0  0  0  0  0  0  0  0
   -3.6580   22.2090  -27.8640 C   0  0  0  0  0  0  0  0  0  0  0  0
   -2.4730   21.4970  -27.6610 C   0  0  0  0  0  0  0  0  0  0  0  0
   -1.2460   22.0610  -28.0170 C   0  0  0  0  0  0  0  0  0  0  0  0
   -1.2030   23.3400  -28.5750 C   0  0  0  0  0  0  0  0  0  0  0  0
   -2.3850   24.0580  -28.7820 C   0  0  0  0  0  0  0  0  0  0  0  0
   -2.3160   25.2970  -29.3300 F   0  0  0  0  0  0  0  0  0  0  0  0
   -5.7880   23.3230  -31.1920 C   0  0  0  0  0  0  0  0  0  0  0  0
   -4.8030   22.7070  -31.9730 C   0  0  0  0  0  0  0  0  0  0  0  0
   -5.1060   21.6060  -32.7110 N   0  0  0  0  0  0  0  0  0  0  0  0
   -6.3580   21.0740  -32.7190 C   0  0  0  0  0  0  0  0  0  0  0  0
   -7.3720   21.6600  -31.9570 C   0  0  0  0  0  0  0  0  0  0  0  0
   -9.1320   20.9210  -31.9620 Br  0  0  0  0  0  0  0  0  0  0  0  0
   -7.0840   22.7930  -31.1910 C   0  0  0  0  0  0  0  0  0  0  0  0
   -5.3820   24.6000  -27.8380 H   0  0  0  0  0  0  0  0  0  0  0  0
   -4.6206   21.7598  -27.5782 H   0  0  0  0  0  0  0  0  0  0  0  0
   -2.5066   20.4899  -27.2198 H   0  0  0  0  0  0  0  0  0  0  0  0
   -0.3144   21.4981  -27.8579 H   0  0  0  0  0  0  0  0  0  0  0  0
   -0.2359   23.7845  -28.8528 H   0  0  0  0  0  0  0  0  0  0  0  0
   -3.7815   23.1147  -31.9897 H   0  0  0  0  0  0  0  0  0  0  0  0
   -6.5722   20.1819  -33.3258 H   0  0  0  0  0  0  0  0  0  0  0  0
   -7.8733   23.2670  -30.5890 H   0  0  0  0  0  0  0  0  0  0  0  0
  1  2  2  0
  2  3  2  0
  2  4  1  0
  4  5  1  0
  5  6  2  0
  6  7  1  0
  7  8  2  0
  8  9  1  0
  9 10  2  0
 10 11  1  0
  2 12  1  0
 12 13  2  0
 13 14  1  0
 14 15  2  0
 15 16  1  0
 16 17  1  0
 16 18  2  0
 10  5  1  0
 18 12  1  0
  4 19  1  0
  6 20  1  0
  7 21  1  0
  8 22  1  0
  9 23  1  0
 13 24  1  0
 15 25  1  0
 18 26  1  0
M  END
>  <UniqueID>  (40) 
38

>  <SMILES>  (40) 
O=S(=O)(Nc1ccccc1F)c1cncc(Br)c1

>  <Energy>  (40) 
30.70169782420963

>  <Genealogy>  (40) 
O=S(=O)(Nc1ccccc1F)c1cncc(Br)c1 (3D coordinates assigned)
O=S(=O)(Nc1ccccc1F)c1cncc(Br)c1 (optimized conformer: 30.70169782420963 kcal/mol)

>  <smiles>  (40) 
O=S(=O)(Nc1ccccc1F)c1cncc(Br)c1

>  <score_type>  (40) 
oracle

>  <origin>  (40) 
adgpu

>  <m_score__min__energy>  (40) 
-8.1300000000000008

>  <m_primary>  (40) 
energy

$$$$
40:0
     RDKit          3D

 22 23  0  0  0  0  0  0  0  0999 V2000
   -7.9000   21.6770  -32.3410 O   0  0  0  0  0  0  0  0  0  0  0  0
   -6.8680   21.0130  -32.0500 C   0  0  0  0  0  0  0  0  0  0  0  0
   -5.9270   21.5400  -31.1010 N   0  0  0  0  0  0  0  0  0  0  0  0
   -5.8330   22.9320  -30.7530 C   0  0  0  0  0  0  0  0  0  0  0  0
   -6.8790   23.6010  -30.0930 C   0  0  0  0  0  0  0  0  0  0  0  0
   -6.7600   24.9600  -29.7950 C   0  0  0  0  0  0  0  0  0  0  0  0
   -5.6030   25.6440  -30.1690 C   0  0  0  0  0  0  0  0  0  0  0  0
   -4.6080   24.9910  -30.8250 N   0  0  0  0  0  0  0  0  0  0  0  0
   -4.7000   23.6680  -31.1270 C   0  0  0  0  0  0  0  0  0  0  0  0
   -6.6540   19.6810  -32.6610 C   0  0  0  0  0  0  0  0  0  0  0  0
   -5.5370   19.3750  -33.4610 C   0  0  0  0  0  0  0  0  0  0  0  0
   -5.5440   18.0750  -33.9410 C   0  0  0  0  0  0  0  0  0  0  0  0
   -4.3190   17.3600  -34.9680 Cl  0  0  0  0  0  0  0  0  0  0  0  0
   -6.9210   17.2900  -33.3940 S   0  0  0  0  0  0  0  0  0  0  0  0
   -7.5340   18.5990  -32.5350 C   0  0  0  0  0  0  0  0  0  0  0  0
   -9.0270   18.5380  -31.6150 Cl  0  0  0  0  0  0  0  0  0  0  0  0
   -5.3490   20.8620  -30.5530 H   0  0  0  0  0  0  0  0  0  0  0  0
   -7.7908   23.0539  -29.8115 H   0  0  0  0  0  0  0  0  0  0  0  0
   -7.5709   25.4863  -29.2703 H   0  0  0  0  0  0  0  0  0  0  0  0
   -5.4960   26.7130  -29.9326 H   0  0  0  0  0  0  0  0  0  0  0  0
   -3.8804   23.1725  -31.6680 H   0  0  0  0  0  0  0  0  0  0  0  0
   -4.7372   20.0968  -33.6833 H   0  0  0  0  0  0  0  0  0  0  0  0
  1  2  2  0
  2  3  1  0
  3  4  1  0
  4  5  2  0
  5  6  1  0
  6  7  2  0
  7  8  1  0
  8  9  2  0
  2 10  1  0
 10 11  1  0
 11 12  2  0
 12 13  1  0
 12 14  1  0
 14 15  1  0
 15 16  1  0
  9  4  1  0
 15 10  2  0
  3 17  1  0
  5 18  1  0
  6 19  1  0
  7 20  1  0
  9 21  1  0
 11 22  1  0
M  END
>  <UniqueID>  (41) 
39

>  <SMILES>  (41) 
O=C(Nc1cccnc1)c1cc(Cl)sc1Cl

>  <Energy>  (41) 
55.526422435861896

>  <Genealogy>  (41) 
O=C(Nc1cccnc1)c1cc(Cl)sc1Cl (3D coordinates assigned)
O=C(Nc1cccnc1)c1cc(Cl)sc1Cl (optimized conformer: 55.526422435861896 kcal/mol)

>  <smiles>  (41) 
O=C(Nc1cccnc1)c1cc(Cl)sc1Cl

>  <score_type>  (41) 
oracle

>  <origin>  (41) 
adgpu

>  <m_score__min__energy>  (41) 
-7.1500000000000004

>  <m_primary>  (41) 
energy

$$$$
41:0
     RDKit          3D

 48 51  0  0  0  0  0  0  0  0999 V2000
   -0.6290   26.6420  -25.4600 C   0  0  0  0  0  0  0  0  0  0  0  0
   -1.5160   25.9340  -26.4410 C   0  0  0  0  0  0  0  0  0  0  0  0
   -1.1800   25.8710  -27.7970 C   0  0  0  0  0  0  0  0  0  0  0  0
   -1.9740   25.1900  -28.6620 N   0  0  0  0  0  0  0  0  0  0  0  0
   -3.0990   24.5490  -28.2370 C   0  0  0  0  0  0  0  0  0  0  0  0
   -3.9270   23.8370  -29.1790 N   0  0  0  0  0  0  0  0  0  0  0  0
   -4.7100   24.5990  -30.1670 C   0  0  0  0  0  0  0  0  0  0  0  0
   -5.7460   23.7160  -30.8730 C   0  0  0  0  0  0  0  0  0  0  0  0
   -5.0900   22.4560  -31.4700 C   0  0  0  0  0  0  0  0  0  0  0  0
   -6.1370   21.4960  -32.0030 C   0  0  0  0  0  0  0  0  0  0  0  0
   -7.4940   21.6190  -31.7710 C   0  0  0  0  0  0  0  0  0  0  0  0
   -8.0530   20.5210  -32.3930 C   0  0  0  0  0  0  0  0  0  0  0  0
   -9.4950   20.1440  -32.3690 C   0  0  0  0  0  0  0  0  0  0  0  0
   -7.0880   19.7610  -32.9440 N   0  0  0  0  0  0  0  0  0  0  0  0
   -5.9300   20.3580  -32.7120 N   0  0  0  0  0  0  0  0  0  0  0  0
   -4.6860   19.8050  -33.1560 C   0  0  0  0  0  0  0  0  0  0  0  0
   -3.6080   20.6500  -33.4570 C   0  0  0  0  0  0  0  0  0  0  0  0
   -2.4050   20.1120  -33.9280 C   0  0  0  0  0  0  0  0  0  0  0  0
   -2.2830   18.7330  -34.1220 C   0  0  0  0  0  0  0  0  0  0  0  0
   -1.1170   18.2130  -34.5780 F   0  0  0  0  0  0  0  0  0  0  0  0
   -3.3700   17.8920  -33.8610 C   0  0  0  0  0  0  0  0  0  0  0  0
   -4.5730   18.4280  -33.3940 C   0  0  0  0  0  0  0  0  0  0  0  0
   -4.0730   21.7720  -30.5170 C   0  0  0  0  0  0  0  0  0  0  0  0
   -4.0680   22.3740  -29.1060 C   0  0  0  0  0  0  0  0  0  0  0  0
   -3.4280   24.5880  -26.9160 N   0  0  0  0  0  0  0  0  0  0  0  0
   -2.6630   25.2550  -26.0150 C   0  0  0  0  0  0  0  0  0  0  0  0
   -0.9422   26.3920  -24.4356 H   0  0  0  0  0  0  0  0  0  0  0  0
    0.4131   26.3246  -25.6125 H   0  0  0  0  0  0  0  0  0  0  0  0
   -0.7075   27.7285  -25.6125 H   0  0  0  0  0  0  0  0  0  0  0  0
   -0.2723   26.3733  -28.1626 H   0  0  0  0  0  0  0  0  0  0  0  0
   -5.2321   25.4190  -29.6522 H   0  0  0  0  0  0  0  0  0  0  0  0
   -4.0167   24.9886  -30.9270 H   0  0  0  0  0  0  0  0  0  0  0  0
   -6.5128   23.4110  -30.1457 H   0  0  0  0  0  0  0  0  0  0  0  0
   -6.1971   24.2953  -31.6921 H   0  0  0  0  0  0  0  0  0  0  0  0
   -4.4843   22.7920  -32.3245 H   0  0  0  0  0  0  0  0  0  0  0  0
   -8.0124   22.4141  -31.2150 H   0  0  0  0  0  0  0  0  0  0  0  0
   -9.8335   20.0555  -31.3261 H   0  0  0  0  0  0  0  0  0  0  0  0
  -10.0850   20.9181  -32.8816 H   0  0  0  0  0  0  0  0  0  0  0  0
   -9.6306   19.1802  -32.8816 H   0  0  0  0  0  0  0  0  0  0  0  0
   -3.7082   21.7372  -33.3227 H   0  0  0  0  0  0  0  0  0  0  0  0
   -1.5546   20.7749  -34.1458 H   0  0  0  0  0  0  0  0  0  0  0  0
   -3.2777   16.8080  -34.0235 H   0  0  0  0  0  0  0  0  0  0  0  0
   -5.4338   17.7676  -33.2126 H   0  0  0  0  0  0  0  0  0  0  0  0
   -4.3284   20.7048  -30.4409 H   0  0  0  0  0  0  0  0  0  0  0  0
   -3.0706   21.9276  -30.9424 H   0  0  0  0  0  0  0  0  0  0  0  0
   -5.0129   22.1246  -28.6011 H   0  0  0  0  0  0  0  0  0  0  0  0
   -3.2200   21.9591  -28.5414 H   0  0  0  0  0  0  0  0  0  0  0  0
   -2.9442   25.2618  -24.9516 H   0  0  0  0  0  0  0  0  0  0  0  0
  1  2  1  0
  2  3  2  0
  3  4  1  0
  4  5  2  0
  5  6  1  0
  6  7  1  0
  7  8  1  0
  8  9  1  0
  9 10  1  0
 10 11  2  0
 11 12  1  0
 12 13  1  0
 12 14  2  0
 14 15  1  0
 15 16  1  0
 16 17  2  0
 17 18  1  0
 18 19  2  0
 19 20  1  0
 19 21  1  0
 21 22  2  0
  9 23  1  0
 23 24  1  0
  5 25  1  0
 25 26  2  0
 26  2  1  0
 24  6  1  0
 15 10  1  0
 22 16  1  0
  1 27  1  0
  1 28  1  0
  1 29  1  0
  3 30  1  0
  7 31  1  0
  7 32  1  0
  8 33  1  0
  8 34  1  0
  9 35  1  0
 11 36  1  0
 13 37  1  0
 13 38  1  0
 13 39  1  0
 17 40  1  0
 18 41  1  0
 21 42  1  0
 22 43  1  0
 23 44  1  0
 23 45  1  0
 24 46  1  0
 24 47  1  0
 26 48  1  0
M  END
>  <UniqueID>  (42) 
40

>  <SMILES>  (42) 
Cc1cnc(N2CCC(c3cc(C)nn3-c3ccc(F)cc3)CC2)nc1

>  <Energy>  (42) 
89.94363619470424

>  <Genealogy>  (42) 
Cc1cnc(N2CCC(c3cc(C)nn3-c3ccc(F)cc3)CC2)nc1 (3D coordinates assigned)
Cc1cnc(N2CCC(c3cc(C)nn3-c3ccc(F)cc3)CC2)nc1 (nonaromatic ring conformer: 89.94363619470424 kcal/mol)

>  <smiles>  (42) 
Cc1cnc(N2CCC(c3cc(C)nn3-c3ccc(F)cc3)CC2)nc1

>  <score_type>  (42) 
oracle

>  <origin>  (42) 
adgpu

>  <m_score__min__energy>  (42) 
-8.1300000000000008

>  <m_primary>  (42) 
energy

$$$$
42:0
     RDKit          3D

 34 36  0  0  0  0  0  0  0  0999 V2000
  -10.6868   21.6081  -31.3107 H   0  0  0  0  0  0  0  0  0  0  0  0
   -9.6640   21.3250  -31.6000 C   0  0  0  0  0  0  0  0  0  0  0  0
   -9.4510   20.1930  -32.3860 C   0  0  0  0  0  0  0  0  0  0  0  0
  -10.3070   19.5916  -32.7259 H   0  0  0  0  0  0  0  0  0  0  0  0
   -8.1540   19.8220  -32.7420 C   0  0  0  0  0  0  0  0  0  0  0  0
   -7.9943   18.9296  -33.3650 H   0  0  0  0  0  0  0  0  0  0  0  0
   -7.0490   20.5780  -32.3120 C   0  0  0  0  0  0  0  0  0  0  0  0
   -5.6660   20.1120  -32.6880 C   0  0  0  0  0  0  0  0  0  0  0  0
   -5.0843   19.9160  -31.7752 H   0  0  0  0  0  0  0  0  0  0  0  0
   -5.7389   19.1888  -33.2816 H   0  0  0  0  0  0  0  0  0  0  0  0
   -5.1653   20.8911  -33.2816 H   0  0  0  0  0  0  0  0  0  0  0  0
   -7.2680   21.7530  -31.5470 C   0  0  0  0  0  0  0  0  0  0  0  0
   -6.1640   22.6270  -31.0970 C   0  0  0  0  0  0  0  0  0  0  0  0
   -5.1220   22.0910  -30.4050 N   0  0  0  0  0  0  0  0  0  0  0  0
   -4.1150   22.8450  -29.9600 N   0  0  0  0  0  0  0  0  0  0  0  0
   -4.0800   24.1890  -30.1740 C   0  0  0  0  0  0  0  0  0  0  0  0
   -3.1060   24.9250  -29.7190 N   0  0  0  0  0  0  0  0  0  0  0  0
   -1.9220   24.4690  -29.0440 C   0  0  0  0  0  0  0  0  0  0  0  0
   -1.3600   25.2810  -28.0490 C   0  0  0  0  0  0  0  0  0  0  0  0
   -1.8433   26.2328  -27.7834 H   0  0  0  0  0  0  0  0  0  0  0  0
   -0.1900   24.8900  -27.3920 C   0  0  0  0  0  0  0  0  0  0  0  0
    0.2347   25.5257  -26.6011 H   0  0  0  0  0  0  0  0  0  0  0  0
    0.4410   23.6920  -27.7390 C   0  0  0  0  0  0  0  0  0  0  0  0
    1.5780   23.3150  -27.1040 F   0  0  0  0  0  0  0  0  0  0  0  0
   -0.0930   22.8900  -28.7520 C   0  0  0  0  0  0  0  0  0  0  0  0
    0.4086   21.9518  -29.0318 H   0  0  0  0  0  0  0  0  0  0  0  0
   -1.2640   23.2790  -29.4100 C   0  0  0  0  0  0  0  0  0  0  0  0
   -1.6728   22.6529  -30.2168 H   0  0  0  0  0  0  0  0  0  0  0  0
   -5.1400   24.7950  -30.8510 C   0  0  0  0  0  0  0  0  0  0  0  0
   -5.1439   25.8825  -31.0165 H   0  0  0  0  0  0  0  0  0  0  0  0
   -6.1930   24.0090  -31.3150 C   0  0  0  0  0  0  0  0  0  0  0  0
   -7.0382   24.4701  -31.8471 H   0  0  0  0  0  0  0  0  0  0  0  0
   -8.5820   22.0990  -31.1800 C   0  0  0  0  0  0  0  0  0  0  0  0
   -8.7574   22.9879  -30.5562 H   0  0  0  0  0  0  0  0  0  0  0  0
  1  2  1  0
  2  3  2  0
  3  4  1  0
  3  5  1  0
  5  6  1  0
  5  7  2  0
  7  8  1  0
  8  9  1  0
  8 10  1  0
  8 11  1  0
  7 12  1  0
 12 13  1  0
 13 14  2  0
 14 15  1  0
 15 16  1  0
 16 17  2  0
 17 18  1  0
 18 19  2  0
 19 20  1  0
 19 21  1  0
 21 22  1  0
 21 23  2  0
 23 24  1  0
 23 25  1  0
 25 26  1  0
 25 27  2  0
 27 28  1  0
 16 29  1  0
 29 30  1  0
 29 31  2  0
 31 32  1  0
 12 33  2  0
 33 34  1  0
 33  2  1  0
 31 13  1  0
 27 18  1  0
M  CHG  1  15  -1
M  END
>  <UniqueID>  (43) 
41

>  <SMILES>  (43) 
Cc1ccccc1-c1cc/c(=N/c2ccc(F)cc2)[n-]n1

>  <Energy>  (43) 
51.49559962270964

>  <Genealogy>  (43) 
Cc1ccccc1-c1ccc(=Nc2ccc(F)cc2)[n-]n1 (protonated)
Cc1ccccc1-c1cc/c(=N/c2ccc(F)cc2)[n-]n1 (cis-trans isomerization)
Cc1ccccc1-c1cc/c(=N/c2ccc(F)cc2)[n-]n1 (3D coordinates assigned)
Cc1ccccc1-c1cc/c(=N/c2ccc(F)cc2)[n-]n1 (optimized conformer: 51.49559962270964 kcal/mol)

>  <smiles>  (43) 
Cc1ccccc1-c1ccc(=Nc2ccc(F)cc2)[nH]n1

>  <score_type>  (43) 
oracle

>  <origin>  (43) 
adgpu

>  <m_score__min__energy>  (43) 
-8.7300000000000004

>  <m_primary>  (43) 
energy

$$$$
43:0
     RDKit          3D

 35 37  0  0  0  0  0  0  0  0999 V2000
   -0.1990   24.5490  -29.3280 O   0  0  0  0  0  0  0  0  0  0  0  0
   -1.1560   25.0120  -28.6540 C   0  0  0  0  0  0  0  0  0  0  0  0
   -2.3920   25.2980  -29.3260 N   0  0  0  0  0  0  0  0  0  0  0  0
   -3.2850   24.3510  -29.9300 C   0  0  0  0  0  0  0  0  0  0  0  0
   -2.7570   23.1580  -30.4390 C   0  0  0  0  0  0  0  0  0  0  0  0
   -3.5940   22.2150  -31.0470 C   0  0  0  0  0  0  0  0  0  0  0  0
   -2.9250   20.7170  -31.6650 Cl  0  0  0  0  0  0  0  0  0  0  0  0
   -4.9650   22.4690  -31.1600 C   0  0  0  0  0  0  0  0  0  0  0  0
   -5.4970   23.6680  -30.6770 C   0  0  0  0  0  0  0  0  0  0  0  0
   -7.2130   23.9940  -30.8370 Cl  0  0  0  0  0  0  0  0  0  0  0  0
   -4.6610   24.6120  -30.0720 C   0  0  0  0  0  0  0  0  0  0  0  0
   -1.0080   25.1590  -27.1840 C   0  0  0  0  0  0  0  0  0  0  0  0
   -1.0410   26.4500  -26.6250 C   0  0  0  0  0  0  0  0  0  0  0  0
   -0.9600   26.6330  -25.2450 C   0  0  0  0  0  0  0  0  0  0  0  0
   -0.8580   25.5300  -24.3980 C   0  0  0  0  0  0  0  0  0  0  0  0
   -0.8320   24.2410  -24.9300 C   0  0  0  0  0  0  0  0  0  0  0  0
   -0.8990   24.0350  -26.3200 C   0  0  0  0  0  0  0  0  0  0  0  0
   -0.8210   22.6450  -26.8320 C   0  0  0  0  0  0  0  0  0  0  0  0
   -1.9670   21.8320  -26.8760 C   0  0  0  0  0  0  0  0  0  0  0  0
   -1.8880   20.5280  -27.3730 C   0  0  0  0  0  0  0  0  0  0  0  0
   -0.6680   20.0280  -27.8360 C   0  0  0  0  0  0  0  0  0  0  0  0
    0.4740   20.8320  -27.8050 C   0  0  0  0  0  0  0  0  0  0  0  0
    0.4000   22.1370  -27.3100 C   0  0  0  0  0  0  0  0  0  0  0  0
   -1.6777   22.9607  -30.3605 H   0  0  0  0  0  0  0  0  0  0  0  0
   -5.6250   21.7246  -31.6293 H   0  0  0  0  0  0  0  0  0  0  0  0
   -5.0799   25.5610  -29.7061 H   0  0  0  0  0  0  0  0  0  0  0  0
   -1.1318   27.3255  -27.2847 H   0  0  0  0  0  0  0  0  0  0  0  0
   -0.9766   27.6491  -24.8239 H   0  0  0  0  0  0  0  0  0  0  0  0
   -0.7980   25.6766  -23.3095 H   0  0  0  0  0  0  0  0  0  0  0  0
   -0.7583   23.3756  -24.2550 H   0  0  0  0  0  0  0  0  0  0  0  0
   -2.9303   22.2239  -26.5176 H   0  0  0  0  0  0  0  0  0  0  0  0
   -2.7870   19.8947  -27.3997 H   0  0  0  0  0  0  0  0  0  0  0  0
   -0.6069   19.0009  -28.2250 H   0  0  0  0  0  0  0  0  0  0  0  0
    1.4333   20.4373  -28.1709 H   0  0  0  0  0  0  0  0  0  0  0  0
    1.3002   22.7690  -27.2943 H   0  0  0  0  0  0  0  0  0  0  0  0
  1  2  2  0
  2  3  1  0
  3  4  1  0
  4  5  2  0
  5  6  1  0
  6  7  1  0
  6  8  2  0
  8  9  1  0
  9 10  1  0
  9 11  2  0
  2 12  1  0
 12 13  2  0
 13 14  1  0
 14 15  2  0
 15 16  1  0
 16 17  2  0
 17 18  1  0
 18 19  2  0
 19 20  1  0
 20 21  2  0
 21 22  1  0
 22 23  2  0
 11  4  1  0
 17 12  1  0
 23 18  1  0
  5 24  1  0
  8 25  1  0
 11 26  1  0
 13 27  1  0
 14 28  1  0
 15 29  1  0
 16 30  1  0
 19 31  1  0
 20 32  1  0
 21 33  1  0
 22 34  1  0
 23 35  1  0
M  CHG  1   3  -1
M  END
>  <UniqueID>  (44) 
42

>  <SMILES>  (44) 
O=C([N-]c1cc(Cl)cc(Cl)c1)c1ccccc1-c1ccccc1

>  <Energy>  (44) 
52.60643064259018

>  <Genealogy>  (44) 
O=C([N-]c1cc(Cl)cc(Cl)c1)c1ccccc1-c1ccccc1 (protonated)
O=C([N-]c1cc(Cl)cc(Cl)c1)c1ccccc1-c1ccccc1 (3D coordinates assigned)
O=C([N-]c1cc(Cl)cc(Cl)c1)c1ccccc1-c1ccccc1 (optimized conformer: 52.60643064259018 kcal/mol)

>  <smiles>  (44) 
O=C(Nc1cc(Cl)cc(Cl)c1)c1ccccc1-c1ccccc1

>  <score_type>  (44) 
oracle

>  <origin>  (44) 
adgpu

>  <m_score__min__energy>  (44) 
-9.4299999999999997

>  <m_primary>  (44) 
energy

$$$$
44:0
     RDKit          3D

 39 41  0  0  0  0  0  0  0  0999 V2000
   -0.7470   25.4990  -24.8830 C   0  0  0  0  0  0  0  0  0  0  0  0
   -1.5890   25.1560  -26.0840 C   0  0  0  0  0  0  0  0  0  0  0  0
   -2.9890   25.1880  -25.9760 C   0  0  0  0  0  0  0  0  0  0  0  0
   -3.7950   24.8790  -27.0740 C   0  0  0  0  0  0  0  0  0  0  0  0
   -3.2180   24.5340  -28.3030 C   0  0  0  0  0  0  0  0  0  0  0  0
   -4.0790   24.2060  -29.4570 C   0  0  0  0  0  0  0  0  0  0  0  0
   -4.1570   24.9390  -30.5850 N   0  0  0  0  0  0  0  0  0  0  0  0
   -5.0270   24.3240  -31.3700 N   0  0  0  0  0  0  0  0  0  0  0  0
   -5.4490   23.2380  -30.6930 C   0  0  0  0  0  0  0  0  0  0  0  0
   -6.4310   22.2610  -31.2040 C   0  0  0  0  0  0  0  0  0  0  0  0
   -7.7660   22.3260  -30.7980 C   0  0  0  0  0  0  0  0  0  0  0  0
   -8.6880   21.4050  -31.2850 C   0  0  0  0  0  0  0  0  0  0  0  0
   -8.2770   20.4130  -32.1870 C   0  0  0  0  0  0  0  0  0  0  0  0
   -9.2990   19.4270  -32.6970 C   0  0  0  0  0  0  0  0  0  0  0  0
   -6.9560   20.3450  -32.5750 N   0  0  0  0  0  0  0  0  0  0  0  0
   -6.5000   19.3130  -33.5180 C   0  0  0  0  0  0  0  0  0  0  0  0
   -6.0480   21.2540  -32.1020 C   0  0  0  0  0  0  0  0  0  0  0  0
   -4.8700   23.1600  -29.5180 O   0  0  0  0  0  0  0  0  0  0  0  0
   -1.8200   24.5050  -28.4210 C   0  0  0  0  0  0  0  0  0  0  0  0
   -0.9970   24.8180  -27.3250 C   0  0  0  0  0  0  0  0  0  0  0  0
    0.5000   24.7730  -27.4880 C   0  0  0  0  0  0  0  0  0  0  0  0
   -1.3078   25.2705  -23.9647 H   0  0  0  0  0  0  0  0  0  0  0  0
    0.1797   24.9067  -24.9036 H   0  0  0  0  0  0  0  0  0  0  0  0
   -0.4980   26.5702  -24.9036 H   0  0  0  0  0  0  0  0  0  0  0  0
   -3.4552   25.4591  -25.0173 H   0  0  0  0  0  0  0  0  0  0  0  0
   -4.8900   24.9067  -26.9731 H   0  0  0  0  0  0  0  0  0  0  0  0
   -8.0885   23.1060  -30.0927 H   0  0  0  0  0  0  0  0  0  0  0  0
   -9.7386   21.4549  -30.9628 H   0  0  0  0  0  0  0  0  0  0  0  0
   -9.7996   18.9440  -31.8449 H   0  0  0  0  0  0  0  0  0  0  0  0
  -10.0448   19.9555  -33.3090 H   0  0  0  0  0  0  0  0  0  0  0  0
   -8.7976   18.6627  -33.3090 H   0  0  0  0  0  0  0  0  0  0  0  0
   -6.1175   18.4473  -32.9574 H   0  0  0  0  0  0  0  0  0  0  0  0
   -7.3422   18.9968  -34.1510 H   0  0  0  0  0  0  0  0  0  0  0  0
   -5.6992   19.7228  -34.1510 H   0  0  0  0  0  0  0  0  0  0  0  0
   -5.0004   21.1935  -32.4318 H   0  0  0  0  0  0  0  0  0  0  0  0
   -1.3621   24.2338  -29.3837 H   0  0  0  0  0  0  0  0  0  0  0  0
    0.9765   24.7587  -26.4967 H   0  0  0  0  0  0  0  0  0  0  0  0
    0.7813   23.8660  -28.0432 H   0  0  0  0  0  0  0  0  0  0  0  0
    0.8353   25.6615  -28.0432 H   0  0  0  0  0  0  0  0  0  0  0  0
  1  2  1  0
  2  3  2  0
  3  4  1  0
  4  5  2  0
  5  6  1  0
  6  7  2  0
  7  8  1  0
  8  9  2  0
  9 10  1  0
 10 11  2  0
 11 12  1  0
 12 13  2  0
 13 14  1  0
 13 15  1  0
 15 16  1  0
 15 17  2  0
  9 18  1  0
  5 19  1  0
 19 20  2  0
 20 21  1  0
 20  2  1  0
 18  6  1  0
 17 10  1  0
  1 22  1  0
  1 23  1  0
  1 24  1  0
  3 25  1  0
  4 26  1  0
 11 27  1  0
 12 28  1  0
 14 29  1  0
 14 30  1  0
 14 31  1  0
 16 32  1  0
 16 33  1  0
 16 34  1  0
 17 35  1  0
 19 36  1  0
 21 37  1  0
 21 38  1  0
 21 39  1  0
M  CHG  1  15   1
M  END
>  <UniqueID>  (45) 
43

>  <SMILES>  (45) 
Cc1ccc(-c2nnc(-c3ccc(C)[n+](C)c3)o2)cc1C

>  <Energy>  (45) 
78.12899511284088

>  <Genealogy>  (45) 
Cc1ccc(-c2nnc(-c3ccc(C)[n+](C)c3)o2)cc1C (3D coordinates assigned)
Cc1ccc(-c2nnc(-c3ccc(C)[n+](C)c3)o2)cc1C (optimized conformer: 78.12899511284088 kcal/mol)

>  <smiles>  (45) 
Cc1ccc(-c2nnc(-c3ccc(C)[n+](C)c3)o2)cc1C

>  <score_type>  (45) 
oracle

>  <origin>  (45) 
adgpu

>  <m_score__min__energy>  (45) 
-7.7199999999999998

>  <m_primary>  (45) 
energy

$$$$
45:0
     RDKit          3D

 29 31  0  0  0  0  0  0  0  0999 V2000
    0.0114   27.1224  -28.3540 H   0  0  0  0  0  0  0  0  0  0  0  0
   -0.5830   26.6320  -27.5690 C   0  0  0  0  0  0  0  0  0  0  0  0
   -1.6020   25.7980  -27.9090 N   0  0  0  0  0  0  0  0  0  0  0  0
   -2.3740   25.1800  -26.9700 C   0  0  0  0  0  0  0  0  0  0  0  0
   -3.4140   24.2640  -27.3400 N   0  0  0  0  0  0  0  0  0  0  0  0
   -3.9650   24.1010  -28.5090 C   0  0  0  0  0  0  0  0  0  0  0  0
   -4.8680   23.1740  -28.7340 O   0  0  0  0  0  0  0  0  0  0  0  0
   -5.2290   23.2850  -29.9930 C   0  0  0  0  0  0  0  0  0  0  0  0
   -6.2360   22.4170  -30.6470 C   0  0  0  0  0  0  0  0  0  0  0  0
   -5.8360   21.5400  -31.6700 C   0  0  0  0  0  0  0  0  0  0  0  0
   -4.7803   21.5040  -31.9770 H   0  0  0  0  0  0  0  0  0  0  0  0
   -6.7710   20.7130  -32.3000 C   0  0  0  0  0  0  0  0  0  0  0  0
   -6.4487   20.0308  -33.1004 H   0  0  0  0  0  0  0  0  0  0  0  0
   -8.1150   20.7510  -31.9150 C   0  0  0  0  0  0  0  0  0  0  0  0
   -9.2850   19.7120  -32.7060 Cl  0  0  0  0  0  0  0  0  0  0  0  0
   -8.5230   21.6200  -30.8990 C   0  0  0  0  0  0  0  0  0  0  0  0
   -9.5800   21.6515  -30.5960 H   0  0  0  0  0  0  0  0  0  0  0  0
   -7.5920   22.4490  -30.2670 C   0  0  0  0  0  0  0  0  0  0  0  0
   -7.9201   23.1304  -29.4682 H   0  0  0  0  0  0  0  0  0  0  0  0
   -4.5170   24.3300  -30.5550 C   0  0  0  0  0  0  0  0  0  0  0  0
   -4.5936   24.6774  -31.5959 H   0  0  0  0  0  0  0  0  0  0  0  0
   -3.7150   24.8470  -29.6070 N   0  0  0  0  0  0  0  0  0  0  0  0
   -3.0910   25.6740  -29.7270 H   0  0  0  0  0  0  0  0  0  0  0  0
   -2.0920   25.3770  -25.6130 C   0  0  0  0  0  0  0  0  0  0  0  0
   -2.6866   24.8624  -24.8438 H   0  0  0  0  0  0  0  0  0  0  0  0
   -1.0510   26.2310  -25.2420 C   0  0  0  0  0  0  0  0  0  0  0  0
   -0.8311   26.4024  -24.1779 H   0  0  0  0  0  0  0  0  0  0  0  0
   -0.2910   26.8660  -26.2240 C   0  0  0  0  0  0  0  0  0  0  0  0
    0.5288   27.5432  -25.9421 H   0  0  0  0  0  0  0  0  0  0  0  0
  1  2  1  0
  2  3  2  0
  3  4  1  0
  4  5  1  0
  5  6  2  0
  6  7  1  0
  7  8  1  0
  8  9  1  0
  9 10  2  0
 10 11  1  0
 10 12  1  0
 12 13  1  0
 12 14  2  0
 14 15  1  0
 14 16  1  0
 16 17  1  0
 16 18  2  0
 18 19  1  0
  8 20  2  0
 20 21  1  0
 20 22  1  0
 22 23  1  0
  4 24  2  0
 24 25  1  0
 24 26  1  0
 26 27  1  0
 26 28  2  0
 28 29  1  0
 28  2  1  0
 22  6  1  0
 18  9  1  0
M  END
>  <UniqueID>  (46) 
44

>  <SMILES>  (46) 
Clc1ccc(-c2c[nH]/c(=N\c3ccccn3)o2)cc1

>  <Energy>  (46) 
70.08948435290091

>  <Genealogy>  (46) 
Clc1ccc(-c2c[nH]/c(=N\c3ccccn3)o2)cc1 (cis-trans isomerization)
Clc1ccc(-c2c[nH]/c(=N\c3ccccn3)o2)cc1 (3D coordinates assigned)
Clc1ccc(-c2c[nH]/c(=N\c3ccccn3)o2)cc1 (optimized conformer: 70.08948435290091 kcal/mol)

>  <smiles>  (46) 
Clc1ccc(-c2c[nH]c(=Nc3ccccn3)o2)cc1

>  <score_type>  (46) 
oracle

>  <origin>  (46) 
adgpu

>  <m_score__min__energy>  (46) 
-7.0300000000000002

>  <m_primary>  (46) 
energy

$$$$
46:0
     RDKit          3D

 26 28  0  0  0  0  0  0  0  0999 V2000
   -5.9440   16.5130  -34.5270 C   0  0  0  0  0  0  0  0  0  0  0  0
   -5.3810   17.7210  -34.9460 C   0  0  0  0  0  0  0  0  0  0  0  0
   -5.7360   18.9170  -34.3140 C   0  0  0  0  0  0  0  0  0  0  0  0
   -6.6600   18.9120  -33.2540 C   0  0  0  0  0  0  0  0  0  0  0  0
   -7.0400   20.1690  -32.5820 C   0  0  0  0  0  0  0  0  0  0  0  0
   -8.3020   20.5040  -32.2440 N   0  0  0  0  0  0  0  0  0  0  0  0
   -8.2300   21.6930  -31.6670 N   0  0  0  0  0  0  0  0  0  0  0  0
   -6.9280   22.0410  -31.6720 C   0  0  0  0  0  0  0  0  0  0  0  0
   -6.3970   23.3010  -31.1200 C   0  0  0  0  0  0  0  0  0  0  0  0
   -7.1990   24.1130  -30.3040 C   0  0  0  0  0  0  0  0  0  0  0  0
   -6.6890   25.3050  -29.7860 C   0  0  0  0  0  0  0  0  0  0  0  0
   -5.3780   25.6770  -30.0900 C   0  0  0  0  0  0  0  0  0  0  0  0
   -4.6110   24.8820  -30.8820 N   0  0  0  0  0  0  0  0  0  0  0  0
   -5.0850   23.7160  -31.3990 C   0  0  0  0  0  0  0  0  0  0  0  0
   -6.1940   21.1090  -32.2320 O   0  0  0  0  0  0  0  0  0  0  0  0
   -7.2210   17.6920  -32.8400 C   0  0  0  0  0  0  0  0  0  0  0  0
   -6.8630   16.4980  -33.4750 C   0  0  0  0  0  0  0  0  0  0  0  0
   -5.6636   15.5734  -35.0256 H   0  0  0  0  0  0  0  0  0  0  0  0
   -4.6573   17.7314  -35.7744 H   0  0  0  0  0  0  0  0  0  0  0  0
   -5.2905   19.8658  -34.6476 H   0  0  0  0  0  0  0  0  0  0  0  0
   -8.2307   23.8102  -30.0721 H   0  0  0  0  0  0  0  0  0  0  0  0
   -7.3136   25.9445  -29.1450 H   0  0  0  0  0  0  0  0  0  0  0  0
   -4.9655   26.6142  -29.6882 H   0  0  0  0  0  0  0  0  0  0  0  0
   -4.4382   23.0965  -32.0376 H   0  0  0  0  0  0  0  0  0  0  0  0
   -7.9454   17.6757  -32.0124 H   0  0  0  0  0  0  0  0  0  0  0  0
   -7.3056   15.5464  -33.1456 H   0  0  0  0  0  0  0  0  0  0  0  0
  1  2  2  0
  2  3  1  0
  3  4  2  0
  4  5  1  0
  5  6  2  0
  6  7  1  0
  7  8  2  0
  8  9  1  0
  9 10  2  0
 10 11  1  0
 11 12  2  0
 12 13  1  0
 13 14  2  0
  8 15  1  0
  4 16  1  0
 16 17  2  0
 17  1  1  0
 15  5  1  0
 14  9  1  0
  1 18  1  0
  2 19  1  0
  3 20  1  0
 10 21  1  0
 11 22  1  0
 12 23  1  0
 14 24  1  0
 16 25  1  0
 17 26  1  0
M  END
>  <UniqueID>  (47) 
45

>  <SMILES>  (47) 
c1ccc(-c2nnc(-c3cccnc3)o2)cc1

>  <Energy>  (47) 
64.50341153037795

>  <Genealogy>  (47) 
c1ccc(-c2nnc(-c3cccnc3)o2)cc1 (3D coordinates assigned)
c1ccc(-c2nnc(-c3cccnc3)o2)cc1 (optimized conformer: 64.50341153037795 kcal/mol)

>  <smiles>  (47) 
c1ccc(-c2nnc(-c3cccnc3)o2)cc1

>  <score_type>  (47) 
oracle

>  <origin>  (47) 
adgpu

>  <m_score__min__energy>  (47) 
-7.1500000000000004

>  <m_primary>  (47) 
energy

$$$$
47:0
     RDKit          3D

 25 26  0  0  0  0  0  0  0  0999 V2000
   -6.2270   25.6920  -29.4620 C   0  0  0  0  0  0  0  0  0  0  0  0
   -6.0640   24.5120  -30.3810 C   0  0  0  0  0  0  0  0  0  0  0  0
   -7.1890   23.7640  -30.7680 C   0  0  0  0  0  0  0  0  0  0  0  0
   -7.0480   22.6680  -31.6210 C   0  0  0  0  0  0  0  0  0  0  0  0
   -5.7890   22.3130  -32.1020 C   0  0  0  0  0  0  0  0  0  0  0  0
   -4.6610   23.0460  -31.7230 C   0  0  0  0  0  0  0  0  0  0  0  0
   -4.7840   24.1380  -30.8440 C   0  0  0  0  0  0  0  0  0  0  0  0
   -3.6400   24.9180  -30.4570 N   0  0  0  0  0  0  0  0  0  0  0  0
   -2.7010   24.6050  -29.4220 C   0  0  0  0  0  0  0  0  0  0  0  0
   -1.9300   25.4900  -28.9620 O   0  0  0  0  0  0  0  0  0  0  0  0
   -2.5910   23.2280  -28.9290 C   0  0  0  0  0  0  0  0  0  0  0  0
   -3.3950   22.6410  -27.9710 C   0  0  0  0  0  0  0  0  0  0  0  0
   -2.9260   21.3540  -27.8320 C   0  0  0  0  0  0  0  0  0  0  0  0
   -1.8680   21.2330  -28.7090 C   0  0  0  0  0  0  0  0  0  0  0  0
   -1.6920   22.3670  -29.3490 O   0  0  0  0  0  0  0  0  0  0  0  0
   -6.1800   25.3520  -28.4169 H   0  0  0  0  0  0  0  0  0  0  0  0
   -5.4204   26.4162  -29.6486 H   0  0  0  0  0  0  0  0  0  0  0  0
   -7.1998   26.1704  -29.6486 H   0  0  0  0  0  0  0  0  0  0  0  0
   -8.1860   24.0436  -30.3968 H   0  0  0  0  0  0  0  0  0  0  0  0
   -7.9324   22.0833  -31.9141 H   0  0  0  0  0  0  0  0  0  0  0  0
   -5.6829   21.4543  -32.7812 H   0  0  0  0  0  0  0  0  0  0  0  0
   -3.6713   22.7677  -32.1141 H   0  0  0  0  0  0  0  0  0  0  0  0
   -4.2343   23.1048  -27.4320 H   0  0  0  0  0  0  0  0  0  0  0  0
   -3.3165   20.5781  -27.1572 H   0  0  0  0  0  0  0  0  0  0  0  0
   -1.2635   20.3250  -28.8510 H   0  0  0  0  0  0  0  0  0  0  0  0
  1  2  1  0
  2  3  2  0
  3  4  1  0
  4  5  2  0
  5  6  1  0
  6  7  2  0
  7  8  1  0
  8  9  1  0
  9 10  2  0
  9 11  1  0
 11 12  2  0
 12 13  1  0
 13 14  2  0
 14 15  1  0
  7  2  1  0
 15 11  1  0
  1 16  1  0
  1 17  1  0
  1 18  1  0
  3 19  1  0
  4 20  1  0
  5 21  1  0
  6 22  1  0
 12 23  1  0
 13 24  1  0
 14 25  1  0
M  CHG  1   8  -1
M  END
>  <UniqueID>  (48) 
46

>  <SMILES>  (48) 
Cc1ccccc1[N-]C(=O)c1ccco1

>  <Energy>  (48) 
53.68802122071577

>  <Genealogy>  (48) 
Cc1ccccc1[N-]C(=O)c1ccco1 (protonated)
Cc1ccccc1[N-]C(=O)c1ccco1 (3D coordinates assigned)
Cc1ccccc1[N-]C(=O)c1ccco1 (optimized conformer: 53.68802122071577 kcal/mol)

>  <smiles>  (48) 
Cc1ccccc1NC(=O)c1ccco1

>  <score_type>  (48) 
oracle

>  <origin>  (48) 
adgpu

>  <m_score__min__energy>  (48) 
-7.4900000000000002

>  <m_primary>  (48) 
energy

$$$$
48:0
     RDKit          3D

 36 38  0  0  0  0  0  0  0  0999 V2000
    0.0501   25.5296  -28.2661 H   0  0  0  0  0  0  0  0  0  0  0  0
   -0.9470   25.0650  -28.2610 C   0  0  0  0  0  0  0  0  0  0  0  0
   -1.7950   25.2660  -29.3040 N   0  0  0  0  0  0  0  0  0  0  0  0
   -3.0390   24.7150  -29.3490 C   0  0  0  0  0  0  0  0  0  0  0  0
   -3.7840   24.9530  -30.3880 N   0  0  0  0  0  0  0  0  0  0  0  0
   -5.3900   24.3520  -30.6710 S   0  0  0  0  0  0  0  0  0  0  0  0
   -6.1280   24.2830  -29.3630 O   0  0  0  0  0  0  0  0  0  0  0  0
   -6.1130   25.2980  -31.5880 O   0  0  0  0  0  0  0  0  0  0  0  0
   -5.3230   22.7660  -31.4330 C   0  0  0  0  0  0  0  0  0  0  0  0
   -6.4550   22.2330  -32.0620 C   0  0  0  0  0  0  0  0  0  0  0  0
   -7.3910   22.8103  -32.0877 H   0  0  0  0  0  0  0  0  0  0  0  0
   -6.3990   20.9700  -32.6570 C   0  0  0  0  0  0  0  0  0  0  0  0
   -7.2895   20.5630  -33.1583 H   0  0  0  0  0  0  0  0  0  0  0  0
   -5.2160   20.2170  -32.6200 C   0  0  0  0  0  0  0  0  0  0  0  0
   -5.1800   18.9280  -33.2570 N   0  0  0  0  0  0  0  0  0  0  0  0
   -4.4550   18.7670  -33.9920 H   0  0  0  0  0  0  0  0  0  0  0  0
   -6.1510   17.8930  -33.0320 C   0  0  0  0  0  0  0  0  0  0  0  0
   -7.2320   18.1490  -32.4340 O   0  0  0  0  0  0  0  0  0  0  0  0
   -5.9090   16.5330  -33.5360 C   0  0  0  0  0  0  0  0  0  0  0  0
   -4.7150   16.0270  -33.7410 O   0  0  0  0  0  0  0  0  0  0  0  0
   -4.8500   14.8000  -34.1880 C   0  0  0  0  0  0  0  0  0  0  0  0
   -4.0208   14.1254  -34.4474 H   0  0  0  0  0  0  0  0  0  0  0  0
   -6.1910   14.4850  -34.2830 C   0  0  0  0  0  0  0  0  0  0  0  0
   -6.6240   13.5336  -34.6256 H   0  0  0  0  0  0  0  0  0  0  0  0
   -6.8770   15.6030  -33.8620 C   0  0  0  0  0  0  0  0  0  0  0  0
   -7.9679   15.7289  -33.7986 H   0  0  0  0  0  0  0  0  0  0  0  0
   -4.0740   20.7680  -32.0120 C   0  0  0  0  0  0  0  0  0  0  0  0
   -3.1316   20.2008  -32.0029 H   0  0  0  0  0  0  0  0  0  0  0  0
   -4.1300   22.0330  -31.4190 C   0  0  0  0  0  0  0  0  0  0  0  0
   -3.2337   22.4538  -30.9398 H   0  0  0  0  0  0  0  0  0  0  0  0
   -3.4670   23.9070  -28.2740 C   0  0  0  0  0  0  0  0  0  0  0  0
   -4.4687   23.4527  -28.2864 H   0  0  0  0  0  0  0  0  0  0  0  0
   -2.6090   23.6890  -27.1950 C   0  0  0  0  0  0  0  0  0  0  0  0
   -2.9329   23.0593  -26.3533 H   0  0  0  0  0  0  0  0  0  0  0  0
   -1.3400   24.2700  -27.1840 C   0  0  0  0  0  0  0  0  0  0  0  0
   -0.2530   24.0030  -25.8340 Cl  0  0  0  0  0  0  0  0  0  0  0  0
  1  2  1  0
  2  3  1  0
  3  4  1  0
  4  5  2  0
  5  6  1  0
  6  7  2  0
  6  8  2  0
  6  9  1  0
  9 10  2  0
 10 11  1  0
 10 12  1  0
 12 13  1  0
 12 14  2  0
 14 15  1  0
 15 16  1  0
 15 17  1  0
 17 18  2  0
 17 19  1  0
 19 20  1  0
 20 21  1  0
 21 22  1  0
 21 23  2  0
 23 24  1  0
 23 25  1  0
 25 26  1  0
 14 27  1  0
 27 28  1  0
 27 29  2  0
 29 30  1  0
  4 31  1  0
 31 32  1  0
 31 33  2  0
 33 34  1  0
 33 35  1  0
 35 36  1  0
 35  2  2  0
 29  9  1  0
 25 19  2  0
M  CHG  1   3  -1
M  END
>  <UniqueID>  (49) 
47

>  <SMILES>  (49) 
O=C(Nc1ccc(S(=O)(=O)/N=c2\ccc(Cl)c[n-]2)cc1)c1ccco1

>  <Energy>  (49) 
73.02766655202628

>  <Genealogy>  (49) 
O=C(Nc1ccc(S(=O)(=O)N=c2ccc(Cl)c[n-]2)cc1)c1ccco1 (protonated)
O=C(Nc1ccc(S(=O)(=O)/N=c2\ccc(Cl)c[n-]2)cc1)c1ccco1 (cis-trans isomerization)
O=C(Nc1ccc(S(=O)(=O)/N=c2\ccc(Cl)c[n-]2)cc1)c1ccco1 (3D coordinates assigned)
O=C(Nc1ccc(S(=O)(=O)/N=c2\ccc(Cl)c[n-]2)cc1)c1ccco1 (optimized conformer: 73.02766655202628 kcal/mol)

>  <smiles>  (49) 
O=C(Nc1ccc(S(=O)(=O)N=c2ccc(Cl)c[nH]2)cc1)c1ccco1

>  <score_type>  (49) 
oracle

>  <origin>  (49) 
adgpu

>  <m_score__min__energy>  (49) 
-9.6699999999999999

>  <m_primary>  (49) 
energy

$$$$
49:0
     RDKit          3D

 26 27  0  0  0  0  0  0  0  0999 V2000
   -2.6250   23.5740  -28.8350 O   0  0  0  0  0  0  0  0  0  0  0  0
   -2.5760   24.6920  -29.4130 C   0  0  0  0  0  0  0  0  0  0  0  0
   -3.5390   25.0320  -30.4190 N   0  0  0  0  0  0  0  0  0  0  0  0
   -4.7620   24.3390  -30.7030 C   0  0  0  0  0  0  0  0  0  0  0  0
   -5.9630   24.8670  -30.2090 C   0  0  0  0  0  0  0  0  0  0  0  0
   -7.1800   24.2340  -30.4800 C   0  0  0  0  0  0  0  0  0  0  0  0
   -7.2070   23.0750  -31.2620 C   0  0  0  0  0  0  0  0  0  0  0  0
   -8.7350   22.2840  -31.6060 Cl  0  0  0  0  0  0  0  0  0  0  0  0
   -6.0170   22.5540  -31.7790 C   0  0  0  0  0  0  0  0  0  0  0  0
   -4.7990   23.1850  -31.5090 C   0  0  0  0  0  0  0  0  0  0  0  0
   -1.6160   25.6570  -28.9710 N   0  0  0  0  0  0  0  0  0  0  0  0
   -1.3710   26.0440  -27.6120 C   0  0  0  0  0  0  0  0  0  0  0  0
   -2.0200   25.4180  -26.5310 C   0  0  0  0  0  0  0  0  0  0  0  0
   -1.7720   25.8400  -25.2210 C   0  0  0  0  0  0  0  0  0  0  0  0
   -0.8880   26.8960  -24.9800 C   0  0  0  0  0  0  0  0  0  0  0  0
   -0.6520   27.3040  -23.7080 F   0  0  0  0  0  0  0  0  0  0  0  0
   -0.2600   27.5390  -26.0510 C   0  0  0  0  0  0  0  0  0  0  0  0
    0.5880   28.5720  -25.8210 F   0  0  0  0  0  0  0  0  0  0  0  0
   -0.5070   27.1190  -27.3620 C   0  0  0  0  0  0  0  0  0  0  0  0
   -5.9479   25.7856  -29.6040 H   0  0  0  0  0  0  0  0  0  0  0  0
   -8.1165   24.6479  -30.0779 H   0  0  0  0  0  0  0  0  0  0  0  0
   -6.0391   21.6459  -32.3994 H   0  0  0  0  0  0  0  0  0  0  0  0
   -3.8665   22.7786  -31.9276 H   0  0  0  0  0  0  0  0  0  0  0  0
   -2.7246   24.5941  -26.7173 H   0  0  0  0  0  0  0  0  0  0  0  0
   -2.2732   25.3403  -24.3789 H   0  0  0  0  0  0  0  0  0  0  0  0
   -0.0201   27.6356  -28.2023 H   0  0  0  0  0  0  0  0  0  0  0  0
  1  2  2  0
  2  3  1  0
  3  4  1  0
  4  5  2  0
  5  6  1  0
  6  7  2  0
  7  8  1  0
  7  9  1  0
  9 10  2  0
  2 11  1  0
 11 12  1  0
 12 13  2  0
 13 14  1  0
 14 15  2  0
 15 16  1  0
 15 17  1  0
 17 18  1  0
 17 19  2  0
 10  4  1  0
 19 12  1  0
  5 20  1  0
  6 21  1  0
  9 22  1  0
 10 23  1  0
 13 24  1  0
 14 25  1  0
 19 26  1  0
M  CHG  2   3  -1  11  -1
M  END
>  <UniqueID>  (50) 
48

>  <SMILES>  (50) 
O=C([N-]c1ccc(Cl)cc1)[N-]c1ccc(F)c(F)c1

>  <Energy>  (50) 
33.564473650413845

>  <Genealogy>  (50) 
O=C([N-]c1ccc(Cl)cc1)[N-]c1ccc(F)c(F)c1 (protonated)
O=C([N-]c1ccc(Cl)cc1)[N-]c1ccc(F)c(F)c1 (3D coordinates assigned)
O=C([N-]c1ccc(Cl)cc1)[N-]c1ccc(F)c(F)c1 (optimized conformer: 33.564473650413845 kcal/mol)

>  <smiles>  (50) 
O=C(Nc1ccc(Cl)cc1)Nc1ccc(F)c(F)c1

>  <score_type>  (50) 
oracle

>  <origin>  (50) 
adgpu

>  <m_score__min__energy>  (50) 
-9.7100000000000009

>  <m_primary>  (50) 
energy

$$$$
