0:0
     RDKit          3D

 41 44  0  0  0  0  0  0  0  0999 V2000
   -9.3360   22.2090  -31.6520 C   0  0  0  0  0  0  0  0  0  0  0  0
   -7.9550   21.7940  -31.9730 N   0  0  0  0  0  0  0  0  0  0  0  0
   -7.7400   20.6190  -32.6590 C   0  0  0  0  0  0  0  0  0  0  0  0
   -8.7040   19.8920  -33.0220 O   0  0  0  0  0  0  0  0  0  0  0  0
   -6.4440   20.2010  -32.9700 C   0  0  0  0  0  0  0  0  0  0  0  0
   -5.3570   20.9710  -32.5880 C   0  0  0  0  0  0  0  0  0  0  0  0
   -5.5590   22.1660  -31.8980 C   0  0  0  0  0  0  0  0  0  0  0  0
   -4.4600   22.9480  -31.5120 C   0  0  0  0  0  0  0  0  0  0  0  0
   -4.6450   24.1470  -30.8210 C   0  0  0  0  0  0  0  0  0  0  0  0
   -3.4890   24.9030  -30.4380 N   0  0  0  0  0  0  0  0  0  0  0  0
   -2.5500   24.6400  -29.0040 S   0  0  0  0  0  0  0  0  0  0  0  0
   -3.4040   24.9220  -27.7990 O   0  0  0  0  0  0  0  0  0  0  0  0
   -1.3780   25.5810  -29.0030 O   0  0  0  0  0  0  0  0  0  0  0  0
   -1.9500   22.9850  -28.9680 C   0  0  0  0  0  0  0  0  0  0  0  0
   -1.2200   22.4730  -30.0520 C   0  0  0  0  0  0  0  0  0  0  0  0
   -0.7300   21.1620  -30.0130 C   0  0  0  0  0  0  0  0  0  0  0  0
   -0.9680   20.3630  -28.8920 C   0  0  0  0  0  0  0  0  0  0  0  0
   -1.7260   20.8600  -27.8230 C   0  0  0  0  0  0  0  0  0  0  0  0
   -2.2060   22.1720  -27.8540 C   0  0  0  0  0  0  0  0  0  0  0  0
   -1.9900   20.0260  -26.7320 O   0  0  0  0  0  0  0  0  0  0  0  0
   -1.7480   18.6190  -26.8030 C   0  0  0  0  0  0  0  0  0  0  0  0
   -0.4570   18.3400  -27.5840 C   0  0  0  0  0  0  0  0  0  0  0  0
   -0.4590   19.0630  -28.8180 O   0  0  0  0  0  0  0  0  0  0  0  0
   -5.9480   24.5710  -30.5200 C   0  0  0  0  0  0  0  0  0  0  0  0
   -7.0510   23.8000  -30.8960 C   0  0  0  0  0  0  0  0  0  0  0  0
   -6.8810   22.5790  -31.5910 C   0  0  0  0  0  0  0  0  0  0  0  0
   -9.4629   22.2471  -30.5600 H   0  0  0  0  0  0  0  0  0  0  0  0
   -9.5282   23.2046  -32.0785 H   0  0  0  0  0  0  0  0  0  0  0  0
  -10.0452   21.4843  -32.0785 H   0  0  0  0  0  0  0  0  0  0  0  0
   -6.2862   19.2605  -33.5182 H   0  0  0  0  0  0  0  0  0  0  0  0
   -4.3360   20.6400  -32.8288 H   0  0  0  0  0  0  0  0  0  0  0  0
   -3.4413   22.6128  -31.7565 H   0  0  0  0  0  0  0  0  0  0  0  0
   -1.0325   23.1030  -30.9340 H   0  0  0  0  0  0  0  0  0  0  0  0
   -0.1586   20.7618  -30.8635 H   0  0  0  0  0  0  0  0  0  0  0  0
   -2.7841   22.5669  -27.0055 H   0  0  0  0  0  0  0  0  0  0  0  0
   -1.6503   18.2156  -25.7843 H   0  0  0  0  0  0  0  0  0  0  0  0
   -2.5906   18.1364  -27.3199 H   0  0  0  0  0  0  0  0  0  0  0  0
    0.4075   18.6539  -26.9806 H   0  0  0  0  0  0  0  0  0  0  0  0
   -0.3941   17.2632  -27.7996 H   0  0  0  0  0  0  0  0  0  0  0  0
   -6.1027   25.5187  -29.9833 H   0  0  0  0  0  0  0  0  0  0  0  0
   -8.0651   24.1468  -30.6485 H   0  0  0  0  0  0  0  0  0  0  0  0
  1  2  1  0
  2  3  1  0
  3  4  2  0
  3  5  1  0
  5  6  2  0
  6  7  1  0
  7  8  2  0
  8  9  1  0
  9 10  1  0
 10 11  1  0
 11 12  2  0
 11 13  2  0
 11 14  1  0
 14 15  2  0
 15 16  1  0
 16 17  2  0
 17 18  1  0
 18 19  2  0
 18 20  1  0
 20 21  1  0
 21 22  1  0
 22 23  1  0
  9 24  2  0
 24 25  1  0
 25 26  2  0
 26  2  1  0
 26  7  1  0
 19 14  1  0
 23 17  1  0
  1 27  1  0
  1 28  1  0
  1 29  1  0
  5 30  1  0
  6 31  1  0
  8 32  1  0
 15 33  1  0
 16 34  1  0
 19 35  1  0
 21 36  1  0
 21 37  1  0
 22 38  1  0
 22 39  1  0
 24 40  1  0
 25 41  1  0
M  CHG  1  10  -1
M  END
>  <UniqueID>  (1) 
1

>  <SMILES>  (1) 
Cn1c(=O)ccc2cc([N-]S(=O)(=O)c3ccc4c(c3)OCCO4)ccc21

>  <Energy>  (1) 
58.513894624397174

>  <Genealogy>  (1) 
Cn1c(=O)ccc2cc([N-]S(=O)(=O)c3ccc4c(c3)OCCO4)ccc21 (protonated)
Cn1c(=O)ccc2cc([N-]S(=O)(=O)c3ccc4c(c3)OCCO4)ccc21 (3D coordinates assigned)
Cn1c(=O)ccc2cc([N-]S(=O)(=O)c3ccc4c(c3)OCCO4)ccc21 (nonaromatic ring conformer: 58.513894624397174 kcal/mol)

>  <smiles>  (1) 
Cn1c(=O)ccc2cc(NS(=O)(=O)c3ccc4c(c3)OCCO4)ccc21

>  <score_type>  (1) 
oracle

>  <origin>  (1) 
adgpu

>  <m_score__min__energy>  (1) 
-10.26

>  <m_primary>  (1) 
energy

$$$$
1:0
     RDKit          3D

 49 51  0  0  0  0  0  0  0  0999 V2000
   -2.9860   20.5190  -33.4290 C   0  0  0  0  0  0  0  0  0  0  0  0
   -2.4470   20.6960  -32.0490 C   0  0  0  0  0  0  0  0  0  0  0  0
   -1.6480   19.7990  -31.4360 N   0  0  0  0  0  0  0  0  0  0  0  0
   -1.2800   20.3140  -30.2710 N   0  0  0  0  0  0  0  0  0  0  0  0
   -0.3910   19.6350  -29.3360 C   0  0  0  0  0  0  0  0  0  0  0  0
   -1.8320   21.5370  -30.1140 C   0  0  0  0  0  0  0  0  0  0  0  0
   -1.5100   22.4980  -29.0110 C   0  0  0  0  0  0  0  0  0  0  0  0
   -2.5730   21.8120  -31.2420 C   0  0  0  0  0  0  0  0  0  0  0  0
   -3.1910   23.0580  -31.5650 N   0  0  0  0  0  0  0  0  0  0  0  0
   -4.5260   23.6720  -30.6490 S   0  0  0  0  0  0  0  0  0  0  0  0
   -4.3300   23.3860  -29.1870 O   0  0  0  0  0  0  0  0  0  0  0  0
   -4.6020   25.1600  -30.8430 O   0  0  0  0  0  0  0  0  0  0  0  0
   -6.0150   22.9210  -31.2150 C   0  0  0  0  0  0  0  0  0  0  0  0
   -7.2290   23.6220  -31.1950 C   0  0  0  0  0  0  0  0  0  0  0  0
   -8.3890   23.0290  -31.7040 C   0  0  0  0  0  0  0  0  0  0  0  0
   -8.3420   21.7400  -32.2390 C   0  0  0  0  0  0  0  0  0  0  0  0
   -7.1360   21.0270  -32.2520 C   0  0  0  0  0  0  0  0  0  0  0  0
   -7.0680   19.7350  -32.8810 N   0  0  0  0  0  0  0  0  0  0  0  0
   -6.1000   19.5520  -33.9700 C   0  0  0  0  0  0  0  0  0  0  0  0
   -5.4470   18.1630  -33.8810 C   0  0  0  0  0  0  0  0  0  0  0  0
   -5.2460   17.8010  -32.4710 N   0  0  0  0  0  0  0  0  0  0  0  0
   -6.5200   17.6110  -31.7480 C   0  0  0  0  0  0  0  0  0  0  0  0
   -7.6520   18.5200  -32.2850 C   0  0  1  0  0  0  0  0  0  0  0  0
   -8.7320   18.7990  -31.2270 C   0  0  0  0  0  0  0  0  0  0  0  0
   -5.9750   21.6250  -31.7430 C   0  0  0  0  0  0  0  0  0  0  0  0
   -4.0298   20.1762  -33.3738 H   0  0  0  0  0  0  0  0  0  0  0  0
   -2.9430   21.4784  -33.9653 H   0  0  0  0  0  0  0  0  0  0  0  0
   -2.3826   19.7718  -33.9653 H   0  0  0  0  0  0  0  0  0  0  0  0
   -0.6960   19.8679  -28.3051 H   0  0  0  0  0  0  0  0  0  0  0  0
   -0.4483   18.5486  -29.4987 H   0  0  0  0  0  0  0  0  0  0  0  0
    0.6420   19.9761  -29.4987 H   0  0  0  0  0  0  0  0  0  0  0  0
   -1.6738   22.0091  -28.0393 H   0  0  0  0  0  0  0  0  0  0  0  0
   -0.4583   22.8099  -29.0919 H   0  0  0  0  0  0  0  0  0  0  0  0
   -2.1615   23.3806  -29.0919 H   0  0  0  0  0  0  0  0  0  0  0  0
   -7.2693   24.6393  -30.7786 H   0  0  0  0  0  0  0  0  0  0  0  0
   -9.3410   23.5796  -31.6828 H   0  0  0  0  0  0  0  0  0  0  0  0
   -9.2539   21.2834  -32.6512 H   0  0  0  0  0  0  0  0  0  0  0  0
   -6.6187   19.6472  -34.9354 H   0  0  0  0  0  0  0  0  0  0  0  0
   -5.3171   20.3198  -33.8833 H   0  0  0  0  0  0  0  0  0  0  0  0
   -6.1014   17.4197  -34.3599 H   0  0  0  0  0  0  0  0  0  0  0  0
   -4.4745   18.1835  -34.3946 H   0  0  0  0  0  0  0  0  0  0  0  0
   -4.7090   16.9030  -32.4360 H   0  0  0  0  0  0  0  0  0  0  0  0
   -6.8315   16.5613  -31.8534 H   0  0  0  0  0  0  0  0  0  0  0  0
   -6.3484   17.8802  -30.6953 H   0  0  0  0  0  0  0  0  0  0  0  0
   -8.1906   17.9897  -33.0842 H   0  0  0  0  0  0  0  0  0  0  0  0
   -8.2986   18.6870  -30.2222 H   0  0  0  0  0  0  0  0  0  0  0  0
   -9.1104   19.8244  -31.3509 H   0  0  0  0  0  0  0  0  0  0  0  0
   -9.5597   18.0852  -31.3509 H   0  0  0  0  0  0  0  0  0  0  0  0
   -5.0246   21.0714  -31.7585 H   0  0  0  0  0  0  0  0  0  0  0  0
  1  2  1  0
  2  3  2  0
  3  4  1  0
  4  5  1  0
  4  6  1  0
  6  7  1  0
  6  8  2  0
  8  9  1  0
  9 10  1  0
 10 11  2  0
 10 12  2  0
 10 13  1  0
 13 14  2  0
 14 15  1  0
 15 16  2  0
 16 17  1  0
 17 18  1  0
 18 19  1  0
 19 20  1  0
 20 21  1  0
 21 22  1  0
 22 23  1  0
 23 24  1  0
 17 25  2  0
  8  2  1  0
 25 13  1  0
 23 18  1  0
  1 26  1  0
  1 27  1  0
  1 28  1  0
  5 29  1  0
  5 30  1  0
  5 31  1  0
  7 32  1  0
  7 33  1  0
  7 34  1  0
 14 35  1  0
 15 36  1  0
 16 37  1  0
 19 38  1  0
 19 39  1  0
 20 40  1  0
 20 41  1  0
 21 42  1  0
 22 43  1  0
 22 44  1  0
 23 45  1  6
 24 46  1  0
 24 47  1  0
 24 48  1  0
 25 49  1  0
M  CHG  1   9  -1
M  END
>  <UniqueID>  (2) 
2

>  <SMILES>  (2) 
Cc1nn(C)c(C)c1[N-]S(=O)(=O)c1cccc(N2CCNC[C@H]2C)c1

>  <Energy>  (2) 
94.15699446783613

>  <Genealogy>  (2) 
Cc1nn(C)c(C)c1[N-]S(=O)(=O)c1cccc(N2CCNCC2C)c1 (protonated)
Cc1nn(C)c(C)c1[N-]S(=O)(=O)c1cccc(N2CCNC[C@H]2C)c1 (chirality)
Cc1nn(C)c(C)c1[N-]S(=O)(=O)c1cccc(N2CCNC[C@H]2C)c1 (3D coordinates assigned)
Cc1nn(C)c(C)c1[N-]S(=O)(=O)c1cccc(N2CCNC[C@H]2C)c1 (nonaromatic ring conformer: 94.15699446783613 kcal/mol)

>  <smiles>  (2) 
Cc1nn(C)c(C)c1NS(=O)(=O)c1cccc(N2CCNCC2C)c1

>  <score_type>  (2) 
oracle

>  <origin>  (2) 
adgpu

>  <m_score__min__energy>  (2) 
-9.7200000000000006

>  <m_primary>  (2) 
energy

$$$$
2:0
     RDKit          3D

 44 46  0  0  0  0  0  0  0  0999 V2000
   -0.7080   21.5700  -31.2650 C   0  0  0  0  0  0  0  0  0  0  0  0
   -1.8110   21.7980  -30.3930 O   0  0  0  0  0  0  0  0  0  0  0  0
   -3.1050   22.1460  -30.8140 C   0  0  0  0  0  0  0  0  0  0  0  0
   -3.5000   22.0230  -32.1610 C   0  0  0  0  0  0  0  0  0  0  0  0
   -4.7930   22.3650  -32.5550 C   0  0  0  0  0  0  0  0  0  0  0  0
   -5.7250   22.8180  -31.6190 C   0  0  0  0  0  0  0  0  0  0  0  0
   -7.0370   23.1790  -32.0740 N   0  0  0  0  0  0  0  0  0  0  0  0
   -8.1610   22.3010  -32.2250 C   0  0  0  0  0  0  0  0  0  0  0  0
   -9.3310   22.7750  -32.2650 O   0  0  0  0  0  0  0  0  0  0  0  0
   -7.9560   20.8350  -32.2770 C   0  0  0  0  0  0  0  0  0  0  0  0
   -8.6860   19.9810  -31.4320 C   0  0  0  0  0  0  0  0  0  0  0  0
   -8.4780   18.6000  -31.4720 C   0  0  0  0  0  0  0  0  0  0  0  0
   -7.5500   18.0530  -32.3590 C   0  0  0  0  0  0  0  0  0  0  0  0
   -6.8280   18.8830  -33.2320 C   0  0  0  0  0  0  0  0  0  0  0  0
   -5.7880   18.2990  -34.1560 C   0  0  0  0  0  0  0  0  0  0  0  0
   -5.8580   16.9170  -34.1560 F   0  0  0  0  0  0  0  0  0  0  0  0
   -4.5140   18.6660  -33.7550 F   0  0  0  0  0  0  0  0  0  0  0  0
   -6.0070   18.7620  -35.4390 F   0  0  0  0  0  0  0  0  0  0  0  0
   -7.0210   20.2750  -33.1690 C   0  0  0  0  0  0  0  0  0  0  0  0
   -5.3340   22.9690  -30.2790 C   0  0  0  0  0  0  0  0  0  0  0  0
   -4.0330   22.6300  -29.8660 C   0  0  0  0  0  0  0  0  0  0  0  0
   -3.6460   22.8280  -28.4180 C   0  0  0  0  0  0  0  0  0  0  0  0
   -2.2270   23.3410  -28.3060 C   0  0  0  0  0  0  0  0  0  0  0  0
   -1.8300   24.5330  -28.9380 C   0  0  0  0  0  0  0  0  0  0  0  0
   -2.7410   25.2970  -29.6610 O   0  0  0  0  0  0  0  0  0  0  0  0
   -0.5420   24.9550  -28.8470 N   0  0  0  0  0  0  0  0  0  0  0  0
    0.3840   24.2450  -28.1520 C   0  0  0  0  0  0  0  0  0  0  0  0
    1.6050   24.6640  -28.0770 N   0  0  0  0  0  0  0  0  0  0  0  0
    0.0270   23.0920  -27.5330 N   0  0  0  0  0  0  0  0  0  0  0  0
   -1.2460   22.6250  -27.5940 C   0  0  0  0  0  0  0  0  0  0  0  0
   -1.5350   21.5500  -27.0040 O   0  0  0  0  0  0  0  0  0  0  0  0
    0.1977   21.3828  -30.6694 H   0  0  0  0  0  0  0  0  0  0  0  0
   -0.9168   20.6960  -31.8995 H   0  0  0  0  0  0  0  0  0  0  0  0
   -0.5531   22.4551  -31.8995 H   0  0  0  0  0  0  0  0  0  0  0  0
   -2.7820   21.6540  -32.9082 H   0  0  0  0  0  0  0  0  0  0  0  0
   -5.0816   22.2772  -33.6128 H   0  0  0  0  0  0  0  0  0  0  0  0
   -9.4254   20.4026  -30.7352 H   0  0  0  0  0  0  0  0  0  0  0  0
   -9.0485   17.9408  -30.8011 H   0  0  0  0  0  0  0  0  0  0  0  0
   -7.3831   16.9658  -32.3745 H   0  0  0  0  0  0  0  0  0  0  0  0
   -6.4340   20.9347  -33.8250 H   0  0  0  0  0  0  0  0  0  0  0  0
   -6.0538   23.3571  -29.5433 H   0  0  0  0  0  0  0  0  0  0  0  0
   -4.3301   23.5565  -27.9583 H   0  0  0  0  0  0  0  0  0  0  0  0
   -3.7127   21.8600  -27.8999 H   0  0  0  0  0  0  0  0  0  0  0  0
    1.9090   25.5480  -28.5430 H   0  0  0  0  0  0  0  0  0  0  0  0
  1  2  1  0
  2  3  1  0
  3  4  2  0
  4  5  1  0
  5  6  2  0
  6  7  1  0
  7  8  1  0
  8  9  2  0
  8 10  1  0
 10 11  2  0
 11 12  1  0
 12 13  2  0
 13 14  1  0
 14 15  1  0
 15 16  1  0
 15 17  1  0
 15 18  1  0
 14 19  2  0
  6 20  1  0
 20 21  2  0
 21 22  1  0
 22 23  1  0
 23 24  2  0
 24 25  1  0
 24 26  1  0
 26 27  1  0
 27 28  2  3
 27 29  1  0
 29 30  1  0
 30 31  2  0
 21  3  1  0
 30 23  1  0
 19 10  1  0
  1 32  1  0
  1 33  1  0
  1 34  1  0
  4 35  1  0
  5 36  1  0
 11 37  1  0
 12 38  1  0
 13 39  1  0
 19 40  1  0
 20 41  1  0
 22 42  1  0
 22 43  1  0
 28 44  1  0
M  CHG  4   7  -1  25  -1  26  -1  29  -1
M  END
>  <UniqueID>  (3) 
3

>  <SMILES>  (3) 
COc1ccc([N-]C(=O)c2cccc(C(F)(F)F)c2)cc1Cc1c([O-])[n-]c(=N)[n-]c1=O

>  <Energy>  (3) 
53.296886761472884

>  <Genealogy>  (3) 
COc1ccc([N-]C(=O)c2cccc(C(F)(F)F)c2)cc1Cc1c([O-])[n-]c(=N)[n-]c1=O (protonated)
COc1ccc([N-]C(=O)c2cccc(C(F)(F)F)c2)cc1Cc1c([O-])[n-]c(=N)[n-]c1=O (3D coordinates assigned)
COc1ccc([N-]C(=O)c2cccc(C(F)(F)F)c2)cc1Cc1c([O-])[n-]c(=N)[n-]c1=O (optimized conformer: 53.296886761472884 kcal/mol)

>  <smiles>  (3) 
COc1ccc(NC(=O)c2cccc(C(F)(F)F)c2)cc1Cc1c(O)[nH]c(=N)[nH]c1=O

>  <score_type>  (3) 
oracle

>  <origin>  (3) 
adgpu

>  <m_score__min__energy>  (3) 
-12.960000000000001

>  <m_primary>  (3) 
energy

$$$$
3:0
     RDKit          3D

 45 47  0  0  0  0  0  0  0  0999 V2000
   -0.9885   22.7516  -28.8315 H   0  0  0  0  0  0  0  0  0  0  0  0
   -1.8380   22.8920  -29.5160 C   0  0  0  0  0  0  0  0  0  0  0  0
   -2.3030   21.8160  -30.2740 C   0  0  0  0  0  0  0  0  0  0  0  0
   -1.8134   20.8346  -30.1892 H   0  0  0  0  0  0  0  0  0  0  0  0
   -3.3900   21.9800  -31.1420 C   0  0  0  0  0  0  0  0  0  0  0  0
   -3.8920   20.8370  -31.9390 C   0  0  0  0  0  0  0  0  0  0  0  0
   -5.1270   20.2660  -31.5920 C   0  0  0  0  0  0  0  0  0  0  0  0
   -5.7057   20.6869  -30.7566 H   0  0  0  0  0  0  0  0  0  0  0  0
   -5.6280   19.1700  -32.2960 C   0  0  0  0  0  0  0  0  0  0  0  0
   -6.5948   18.7300  -32.0101 H   0  0  0  0  0  0  0  0  0  0  0  0
   -4.9050   18.6300  -33.3630 C   0  0  0  0  0  0  0  0  0  0  0  0
   -5.5220   17.2280  -34.2320 S   0  0  0  0  0  0  0  0  0  0  0  0
   -5.3650   17.4370  -35.7110 O   0  0  0  0  0  0  0  0  0  0  0  0
   -6.9810   17.0370  -33.9240 O   0  0  0  0  0  0  0  0  0  0  0  0
   -4.6170   15.7800  -33.7340 C   0  0  0  0  0  0  0  0  0  0  0  0
   -4.5843   15.7277  -32.6357 H   0  0  0  0  0  0  0  0  0  0  0  0
   -5.1151   14.8824  -34.1291 H   0  0  0  0  0  0  0  0  0  0  0  0
   -3.5919   15.8344  -34.1291 H   0  0  0  0  0  0  0  0  0  0  0  0
   -3.6740   19.1920  -33.7220 C   0  0  0  0  0  0  0  0  0  0  0  0
   -3.0981   18.7555  -34.5514 H   0  0  0  0  0  0  0  0  0  0  0  0
   -3.1660   20.3070  -33.0350 C   0  0  0  0  0  0  0  0  0  0  0  0
   -1.8500   20.8950  -33.4750 C   0  0  0  0  0  0  0  0  0  0  0  0
   -1.2534   21.1616  -32.5901 H   0  0  0  0  0  0  0  0  0  0  0  0
   -1.3016   20.1563  -34.0780 H   0  0  0  0  0  0  0  0  0  0  0  0
   -2.0344   21.7963  -34.0780 H   0  0  0  0  0  0  0  0  0  0  0  0
   -4.0290   23.2260  -31.2180 C   0  0  0  0  0  0  0  0  0  0  0  0
   -4.8995   23.3523  -31.8785 H   0  0  0  0  0  0  0  0  0  0  0  0
   -3.5670   24.3170  -30.4570 C   0  0  0  0  0  0  0  0  0  0  0  0
   -4.1860   25.5770  -30.5090 O   0  0  0  0  0  0  0  0  0  0  0  0
   -5.5920   25.7890  -30.4310 C   0  0  0  0  0  0  0  0  0  0  0  0
   -5.8978   25.8351  -29.3754 H   0  0  0  0  0  0  0  0  0  0  0  0
   -5.8482   26.7359  -30.9287 H   0  0  0  0  0  0  0  0  0  0  0  0
   -6.1160   24.9597  -30.9287 H   0  0  0  0  0  0  0  0  0  0  0  0
   -2.4490   24.1550  -29.6220 C   0  0  0  0  0  0  0  0  0  0  0  0
   -2.0100   25.2730  -28.8290 N   0  0  0  0  0  0  0  0  0  0  0  0
   -0.8590   25.3970  -28.2370 C   0  0  0  0  0  0  0  0  0  0  0  0
    0.1630   24.5210  -28.3440 N   0  0  0  0  0  0  0  0  0  0  0  0
    1.1700   25.0110  -27.6400 N   0  0  0  0  0  0  0  0  0  0  0  0
    2.0990   24.5460  -27.5370 H   0  0  0  0  0  0  0  0  0  0  0  0
    0.7970   26.1860  -27.1020 C   0  0  0  0  0  0  0  0  0  0  0  0
    1.6420   26.9980  -26.2890 N   0  0  0  0  0  0  0  0  0  0  0  0
    2.6240   27.1950  -26.5820 H   0  0  0  0  0  0  0  0  0  0  0  0
    1.2850   27.4020  -25.3950 H   0  0  0  0  0  0  0  0  0  0  0  0
   -0.5000   26.4820  -27.4610 C   0  0  0  0  0  0  0  0  0  0  0  0
   -1.1010   27.3642  -27.1953 H   0  0  0  0  0  0  0  0  0  0  0  0
  1  2  1  0
  2  3  2  0
  3  4  1  0
  3  5  1  0
  5  6  1  0
  6  7  2  0
  7  8  1  0
  7  9  1  0
  9 10  1  0
  9 11  2  0
 11 12  1  0
 12 13  2  0
 12 14  2  0
 12 15  1  0
 15 16  1  0
 15 17  1  0
 15 18  1  0
 11 19  1  0
 19 20  1  0
 19 21  2  0
 21 22  1  0
 22 23  1  0
 22 24  1  0
 22 25  1  0
  5 26  2  0
 26 27  1  0
 26 28  1  0
 28 29  1  0
 29 30  1  0
 30 31  1  0
 30 32  1  0
 30 33  1  0
 28 34  2  0
 34 35  1  0
 35 36  2  0
 36 37  1  0
 37 38  1  0
 38 39  1  0
 38 40  1  0
 40 41  1  0
 41 42  1  0
 41 43  1  0
 40 44  2  0
 44 45  1  0
 34  2  1  0
 44 36  1  0
 21  6  1  0
M  CHG  1  37  -1
M  END
>  <UniqueID>  (4) 
4

>  <SMILES>  (4) 
COc1cc(-c2ccc(S(C)(=O)=O)cc2C)ccc1/N=c1/cc(N)[nH][n-]1

>  <Energy>  (4) 
86.7724146022847

>  <Genealogy>  (4) 
COc1cc(-c2ccc(S(C)(=O)=O)cc2C)ccc1N=c1cc(N)[nH][n-]1 (protonated)
COc1cc(-c2ccc(S(C)(=O)=O)cc2C)ccc1/N=c1/cc(N)[nH][n-]1 (cis-trans isomerization)
COc1cc(-c2ccc(S(C)(=O)=O)cc2C)ccc1/N=c1/cc(N)[nH][n-]1 (3D coordinates assigned)
COc1cc(-c2ccc(S(C)(=O)=O)cc2C)ccc1/N=c1/cc(N)[nH][n-]1 (optimized conformer: 86.7724146022847 kcal/mol)

>  <smiles>  (4) 
COc1cc(-c2ccc(S(C)(=O)=O)cc2C)ccc1N=c1cc(N)[nH][nH]1

>  <score_type>  (4) 
oracle

>  <origin>  (4) 
adgpu

>  <m_score__min__energy>  (4) 
-9.3200000000000003

>  <m_primary>  (4) 
energy

$$$$
4:0
     RDKit          3D

 44 46  0  0  1  0  0  0  0  0999 V2000
   -6.1900   25.6800  -30.0960 O   0  0  0  0  0  0  0  0  0  0  0  0
   -5.1040   24.6400  -30.1630 S   0  0  0  0  0  0  0  0  0  0  0  0
   -3.9250   25.2910  -30.8300 O   0  0  0  0  0  0  0  0  0  0  0  0
   -4.7080   24.1940  -28.5670 N   0  0  0  0  0  0  0  0  0  0  0  0
   -3.3160   24.2770  -28.2440 C   0  0  0  0  0  0  0  0  0  0  0  0
   -2.8590   22.8950  -27.8580 C   0  0  0  0  0  0  0  0  0  0  0  0
   -1.8170   22.7090  -26.9680 C   0  0  0  0  0  0  0  0  0  0  0  0
   -1.3980   21.4320  -26.6130 C   0  0  0  0  0  0  0  0  0  0  0  0
   -2.0440   20.3560  -27.1700 C   0  0  0  0  0  0  0  0  0  0  0  0
   -1.6350   19.0000  -26.8240 C   0  0  0  0  0  0  0  0  0  0  0  0
   -2.3520   18.2000  -25.9770 O   0  0  0  0  0  0  0  0  0  0  0  0
   -0.5270   18.5660  -27.3700 N   0  0  0  0  0  0  0  0  0  0  0  0
   -0.0610   17.3000  -27.1030 O   0  0  0  0  0  0  0  0  0  0  0  0
   -3.0960   20.5040  -28.0690 C   0  0  0  0  0  0  0  0  0  0  0  0
   -3.4960   21.7980  -28.4070 C   0  0  0  0  0  0  0  0  0  0  0  0
   -5.7170   23.3010  -31.0900 C   0  0  0  0  0  0  0  0  0  0  0  0
   -4.8190   22.5200  -31.8210 C   0  0  0  0  0  0  0  0  0  0  0  0
   -5.2680   21.4370  -32.5790 C   0  0  0  0  0  0  0  0  0  0  0  0
   -6.6030   21.1820  -32.5700 C   0  0  0  0  0  0  0  0  0  0  0  0
   -7.5290   21.9450  -31.8490 C   0  0  0  0  0  0  0  0  0  0  0  0
   -7.0680   23.0140  -31.1040 C   0  0  0  0  0  0  0  0  0  0  0  0
   -8.9350   21.5450  -31.9450 C   0  0  0  0  0  0  0  0  0  0  0  0
   -9.1940   20.1460  -31.9720 N   0  0  0  0  0  0  0  0  0  0  0  0
   -8.0580   19.3080  -32.2820 C   0  0  0  0  0  0  0  0  0  0  0  0
   -7.2230   20.0410  -33.3410 C   0  0  0  0  0  0  0  0  0  0  0  0
   -5.3570   24.4800  -27.8330 H   0  0  0  0  0  0  0  0  0  0  0  0
   -2.7480   24.6304  -29.1172 H   0  0  0  0  0  0  0  0  0  0  0  0
   -3.1508   24.9849  -27.4184 H   0  0  0  0  0  0  0  0  0  0  0  0
   -1.3121   23.5848  -26.5344 H   0  0  0  0  0  0  0  0  0  0  0  0
   -0.5698   21.2871  -25.9037 H   0  0  0  0  0  0  0  0  0  0  0  0
   -1.9910   17.3370  -25.6220 H   0  0  0  0  0  0  0  0  0  0  0  0
   -0.5300   16.6610  -26.4740 H   0  0  0  0  0  0  0  0  0  0  0  0
   -3.5982   19.6259  -28.5011 H   0  0  0  0  0  0  0  0  0  0  0  0
   -4.3243   21.9458  -29.1155 H   0  0  0  0  0  0  0  0  0  0  0  0
   -3.7459   22.7609  -31.7992 H   0  0  0  0  0  0  0  0  0  0  0  0
   -4.5702   20.8157  -33.1595 H   0  0  0  0  0  0  0  0  0  0  0  0
   -7.7717   23.6316  -30.5266 H   0  0  0  0  0  0  0  0  0  0  0  0
   -9.4630   21.9665  -31.0769 H   0  0  0  0  0  0  0  0  0  0  0  0
   -9.2814   21.9253  -32.9173 H   0  0  0  0  0  0  0  0  0  0  0  0
  -10.0310   19.8900  -32.5670 H   0  0  0  0  0  0  0  0  0  0  0  0
   -7.4554   19.1415  -31.3770 H   0  0  0  0  0  0  0  0  0  0  0  0
   -8.3887   18.3284  -32.6575 H   0  0  0  0  0  0  0  0  0  0  0  0
   -6.4482   19.3806  -33.7576 H   0  0  0  0  0  0  0  0  0  0  0  0
   -7.8204   20.3783  -34.2008 H   0  0  0  0  0  0  0  0  0  0  0  0
  1  2  2  0
  2  3  2  0
  2  4  1  0
  4  5  1  0
  5  6  1  0
  6  7  2  0
  7  8  1  0
  8  9  2  0
  9 10  1  0
 10 11  1  0
 10 12  2  0
 12 13  1  0
  9 14  1  0
 14 15  2  0
  2 16  1  0
 16 17  2  0
 17 18  1  0
 18 19  2  0
 19 20  1  0
 20 21  2  0
 20 22  1  0
 22 23  1  0
 23 24  1  0
 24 25  1  0
 15  6  1  0
 21 16  1  0
 25 19  1  0
  4 26  1  0
  5 27  1  0
  5 28  1  0
  7 29  1  0
  8 30  1  0
 11 31  1  0
 13 32  1  0
 14 33  1  0
 15 34  1  0
 17 35  1  0
 18 36  1  0
 21 37  1  0
 22 38  1  0
 22 39  1  0
 23 40  1  0
 24 41  1  0
 24 42  1  0
 25 43  1  0
 25 44  1  0
M  END
>  <smiles>  (5) 
O=S(=O)(NCc1ccc(C(O)=NO)cc1)c1ccc2c(c1)CNCC2

>  <score_type>  (5) 
oracle

>  <origin>  (5) 
adgpu

>  <m_score__min__energy>  (5) 
-10.529999999999999

>  <m_primary>  (5) 
energy

$$$$
5:0
     RDKit          3D

 33 33  0  0  0  0  0  0  0  0999 V2000
   -3.5930   21.7340  -33.3560 C   0  0  0  0  0  0  0  0  0  0  0  0
   -4.8000   21.9870  -32.5100 C   0  0  0  0  0  0  0  0  0  0  0  0
   -5.9670   21.2410  -32.7000 C   0  0  0  0  0  0  0  0  0  0  0  0
   -7.0820   21.5060  -31.8870 C   0  0  0  0  0  0  0  0  0  0  0  0
   -8.3230   20.7730  -32.0270 N   0  0  0  0  0  0  0  0  0  0  0  0
   -9.5930   21.4940  -31.8880 C   0  0  0  0  0  0  0  0  0  0  0  0
   -8.3310   19.3320  -32.3050 C   0  0  0  0  0  0  0  0  0  0  0  0
   -6.9830   22.4810  -30.9410 N   0  0  0  0  0  0  0  0  0  0  0  0
   -5.8430   23.2030  -30.7630 C   0  0  0  0  0  0  0  0  0  0  0  0
   -5.7830   24.2260  -29.7490 N   0  0  0  0  0  0  0  0  0  0  0  0
   -6.8050   25.2770  -29.7220 C   0  0  0  0  0  0  0  0  0  0  0  0
   -4.7120   24.2210  -28.7420 C   0  0  0  0  0  0  0  0  0  0  0  0
   -3.3530   24.4270  -29.4070 C   0  0  0  0  0  0  0  0  0  0  0  0
   -3.4920   25.3000  -30.4940 O   0  0  0  0  0  0  0  0  0  0  0  0
   -4.7640   22.9470  -31.5500 N   0  0  0  0  0  0  0  0  0  0  0  0
   -2.7229   21.5516  -32.7082 H   0  0  0  0  0  0  0  0  0  0  0  0
   -3.7684   20.8531  -33.9910 H   0  0  0  0  0  0  0  0  0  0  0  0
   -3.3999   22.6112  -33.9910 H   0  0  0  0  0  0  0  0  0  0  0  0
   -6.0116   20.4597  -33.4730 H   0  0  0  0  0  0  0  0  0  0  0  0
   -9.8250   21.6257  -30.8208 H   0  0  0  0  0  0  0  0  0  0  0  0
   -9.5097   22.4795  -32.3695 H   0  0  0  0  0  0  0  0  0  0  0  0
  -10.3966   20.9174  -32.3695 H   0  0  0  0  0  0  0  0  0  0  0  0
   -8.3341   18.7755  -31.3561 H   0  0  0  0  0  0  0  0  0  0  0  0
   -9.2306   19.0752  -32.8836 H   0  0  0  0  0  0  0  0  0  0  0  0
   -7.4343   19.0652  -32.8836 H   0  0  0  0  0  0  0  0  0  0  0  0
   -7.0473   25.5261  -28.6783 H   0  0  0  0  0  0  0  0  0  0  0  0
   -6.4233   26.1728  -30.2337 H   0  0  0  0  0  0  0  0  0  0  0  0
   -7.7111   24.9205  -30.2337 H   0  0  0  0  0  0  0  0  0  0  0  0
   -4.8891   25.0326  -28.0209 H   0  0  0  0  0  0  0  0  0  0  0  0
   -4.7125   23.2494  -28.2263 H   0  0  0  0  0  0  0  0  0  0  0  0
   -2.6500   24.8575  -28.6787 H   0  0  0  0  0  0  0  0  0  0  0  0
   -2.9678   23.4594  -29.7610 H   0  0  0  0  0  0  0  0  0  0  0  0
   -3.5030   24.7280  -31.3060 H   0  0  0  0  0  0  0  0  0  0  0  0
  1  2  1  0
  2  3  2  0
  3  4  1  0
  4  5  1  0
  5  6  1  0
  5  7  1  0
  4  8  2  0
  8  9  1  0
  9 10  1  0
 10 11  1  0
 10 12  1  0
 12 13  1  0
 13 14  1  0
  9 15  2  0
 15  2  1  0
  1 16  1  0
  1 17  1  0
  1 18  1  0
  3 19  1  0
  6 20  1  0
  6 21  1  0
  6 22  1  0
  7 23  1  0
  7 24  1  0
  7 25  1  0
 11 26  1  0
 11 27  1  0
 11 28  1  0
 12 29  1  0
 12 30  1  0
 13 31  1  0
 13 32  1  0
 14 33  1  0
M  END
>  <UniqueID>  (6) 
5

>  <SMILES>  (6) 
Cc1cc(N(C)C)nc(N(C)CCO)n1

>  <Energy>  (6) 
23.60877972979131

>  <Genealogy>  (6) 
Cc1cc(N(C)C)nc(N(C)CCO)n1 (3D coordinates assigned)
Cc1cc(N(C)C)nc(N(C)CCO)n1 (optimized conformer: 23.60877972979131 kcal/mol)

>  <smiles>  (6) 
Cc1cc(N(C)C)nc(N(C)CCO)n1

>  <score_type>  (6) 
oracle

>  <origin>  (6) 
adgpu

>  <m_score__min__energy>  (6) 
-6.1900000000000004

>  <m_primary>  (6) 
energy

$$$$
6:0
     RDKit          3D

 51 53  0  0  0  0  0  0  0  0999 V2000
   -0.7740   19.0630  -32.9790 C   0  0  0  0  0  0  0  0  0  0  0  0
   -1.6200   20.6080  -33.2310 S   0  0  0  0  0  0  0  0  0  0  0  0
   -0.6640   21.6270  -33.7840 O   0  0  0  0  0  0  0  0  0  0  0  0
   -2.7360   20.4020  -34.2170 O   0  0  0  0  0  0  0  0  0  0  0  0
   -2.2590   21.1780  -31.6940 C   0  0  0  0  0  0  0  0  0  0  0  0
   -1.9130   20.5430  -30.4930 C   0  0  0  0  0  0  0  0  0  0  0  0
   -2.4360   21.0020  -29.2810 C   0  0  0  0  0  0  0  0  0  0  0  0
   -3.2890   22.1080  -29.2610 C   0  0  0  0  0  0  0  0  0  0  0  0
   -3.6120   22.7770  -30.4510 C   0  0  0  0  0  0  0  0  0  0  0  0
   -4.5050   23.9500  -30.4120 C   0  0  0  0  0  0  0  0  0  0  0  0
   -4.0540   25.2130  -30.5470 N   0  0  0  0  0  0  0  0  0  0  0  0
   -5.0960   26.0250  -30.4770 N   0  0  0  0  0  0  0  0  0  0  0  0
   -6.2210   25.3090  -30.3110 C   0  0  0  0  0  0  0  0  0  0  0  0
   -5.8910   23.9680  -30.2760 C   0  0  0  0  0  0  0  0  0  0  0  0
   -6.8610   22.8150  -30.1910 C   0  0  0  0  0  0  0  0  0  0  0  0
   -7.3520   22.3560  -31.5080 N   0  0  0  0  0  0  0  0  0  0  0  0
   -8.7320   21.8290  -31.5340 C   0  0  0  0  0  0  0  0  0  0  0  0
   -8.8140   20.2970  -31.3720 C   0  0  0  0  0  0  0  0  0  0  0  0
   -7.6060   19.5330  -31.9540 C   0  0  0  0  0  0  0  0  0  0  0  0
   -8.0540   18.3330  -32.5690 O   0  0  0  0  0  0  0  0  0  0  0  0
   -7.0240   17.3670  -32.6510 C   0  0  0  0  0  0  0  0  0  0  0  0
   -6.4470   17.3060  -34.0430 C   0  0  0  0  0  0  0  0  0  0  0  0
   -5.2520   17.8220  -34.3520 C   0  0  0  0  0  0  0  0  0  0  0  0
   -4.7830   17.7180  -35.6220 F   0  0  0  0  0  0  0  0  0  0  0  0
   -4.4950   18.4560  -33.4170 F   0  0  0  0  0  0  0  0  0  0  0  0
   -6.8850   20.3800  -33.0010 C   0  0  0  0  0  0  0  0  0  0  0  0
   -6.3530   21.6690  -32.3610 C   0  0  0  0  0  0  0  0  0  0  0  0
   -3.1160   22.2870  -31.6690 C   0  0  0  0  0  0  0  0  0  0  0  0
   -0.6702   18.8735  -31.9004 H   0  0  0  0  0  0  0  0  0  0  0  0
   -1.3522   18.2489  -33.4404 H   0  0  0  0  0  0  0  0  0  0  0  0
    0.2234   19.1116  -33.4404 H   0  0  0  0  0  0  0  0  0  0  0  0
   -1.2286   19.6819  -30.5046 H   0  0  0  0  0  0  0  0  0  0  0  0
   -2.1757   20.4918  -28.3419 H   0  0  0  0  0  0  0  0  0  0  0  0
   -3.7100   22.4565  -28.3064 H   0  0  0  0  0  0  0  0  0  0  0  0
   -5.0360   27.0640  -30.5480 H   0  0  0  0  0  0  0  0  0  0  0  0
   -7.2362   25.7222  -30.2184 H   0  0  0  0  0  0  0  0  0  0  0  0
   -6.3570   21.9725  -29.6949 H   0  0  0  0  0  0  0  0  0  0  0  0
   -7.7358   23.1704  -29.6267 H   0  0  0  0  0  0  0  0  0  0  0  0
   -9.2975   22.2957  -30.7140 H   0  0  0  0  0  0  0  0  0  0  0  0
   -9.1497   22.0705  -32.5225 H   0  0  0  0  0  0  0  0  0  0  0  0
   -8.8828   20.0670  -30.2985 H   0  0  0  0  0  0  0  0  0  0  0  0
   -9.6983   19.9667  -31.9366 H   0  0  0  0  0  0  0  0  0  0  0  0
   -6.9115   19.3056  -31.1318 H   0  0  0  0  0  0  0  0  0  0  0  0
   -6.2255   17.6321  -31.9423 H   0  0  0  0  0  0  0  0  0  0  0  0
   -7.4479   16.3823  -32.4049 H   0  0  0  0  0  0  0  0  0  0  0  0
   -7.0322   16.8176  -34.8361 H   0  0  0  0  0  0  0  0  0  0  0  0
   -6.0437   19.8061  -33.4167 H   0  0  0  0  0  0  0  0  0  0  0  0
   -7.5921   20.6410  -33.8021 H   0  0  0  0  0  0  0  0  0  0  0  0
   -5.4797   21.4166  -31.7416 H   0  0  0  0  0  0  0  0  0  0  0  0
   -6.0957   22.3570  -33.1798 H   0  0  0  0  0  0  0  0  0  0  0  0
   -3.4020   22.7770  -32.6114 H   0  0  0  0  0  0  0  0  0  0  0  0
  1  2  1  0
  2  3  2  0
  2  4  2  0
  2  5  1  0
  5  6  2  0
  6  7  1  0
  7  8  2  0
  8  9  1  0
  9 10  1  0
 10 11  2  0
 11 12  1  0
 12 13  1  0
 13 14  2  0
 14 15  1  0
 15 16  1  0
 16 17  1  0
 17 18  1  0
 18 19  1  0
 19 20  1  0
 20 21  1  0
 21 22  1  0
 22 23  2  3
 23 24  1  0
 23 25  1  0
 19 26  1  0
 26 27  1  0
  9 28  2  0
 28  5  1  0
 14 10  1  0
 27 16  1  0
  1 29  1  0
  1 30  1  0
  1 31  1  0
  6 32  1  0
  7 33  1  0
  8 34  1  0
 12 35  1  0
 13 36  1  0
 15 37  1  0
 15 38  1  0
 17 39  1  0
 17 40  1  0
 18 41  1  0
 18 42  1  0
 19 43  1  0
 21 44  1  0
 21 45  1  0
 22 46  1  0
 26 47  1  0
 26 48  1  0
 27 49  1  0
 27 50  1  0
 28 51  1  0
M  END
>  <UniqueID>  (7) 
6

>  <SMILES>  (7) 
CS(=O)(=O)c1cccc(-c2n[nH]cc2CN2CCC(OCC=C(F)F)CC2)c1

>  <Energy>  (7) 
94.8078409980926

>  <Genealogy>  (7) 
CS(=O)(=O)c1cccc(-c2n[nH]cc2CN2CCC(OCC=C(F)F)CC2)c1 (3D coordinates assigned)
CS(=O)(=O)c1cccc(-c2n[nH]cc2CN2CCC(OCC=C(F)F)CC2)c1 (nonaromatic ring conformer: 94.8078409980926 kcal/mol)

>  <smiles>  (7) 
CS(=O)(=O)c1cccc(-c2n[nH]cc2CN2CCC(OCC=C(F)F)CC2)c1

>  <score_type>  (7) 
oracle

>  <origin>  (7) 
adgpu

>  <m_score__min__energy>  (7) 
-9.2799999999999994

>  <m_primary>  (7) 
energy

$$$$
7:0
     RDKit          3D

 43 45  0  0  0  0  0  0  0  0999 V2000
   -9.2420   22.4320  -32.2710 O   0  0  0  0  0  0  0  0  0  0  0  0
   -8.6910   21.6140  -31.4890 C   0  0  0  0  0  0  0  0  0  0  0  0
   -8.2090   22.0920  -30.1440 C   0  0  0  0  0  0  0  0  0  0  0  0
   -6.9610   22.9340  -30.2440 C   0  0  0  0  0  0  0  0  0  0  0  0
   -6.8600   23.9550  -31.2060 C   0  0  0  0  0  0  0  0  0  0  0  0
   -5.7000   24.7320  -31.2900 C   0  0  0  0  0  0  0  0  0  0  0  0
   -4.6400   24.5090  -30.4070 C   0  0  0  0  0  0  0  0  0  0  0  0
   -3.4870   25.2810  -30.4970 O   0  0  0  0  0  0  0  0  0  0  0  0
   -4.7410   23.5120  -29.4330 C   0  0  0  0  0  0  0  0  0  0  0  0
   -5.8970   22.7320  -29.3460 C   0  0  0  0  0  0  0  0  0  0  0  0
   -8.6220   20.2330  -31.8660 N   0  0  0  0  0  0  0  0  0  0  0  0
   -7.4660   19.5880  -32.4090 C   0  0  0  0  0  0  0  0  0  0  0  0
   -7.5850   18.3110  -32.9660 C   0  0  0  0  0  0  0  0  0  0  0  0
   -6.4650   17.6730  -33.5080 C   0  0  0  0  0  0  0  0  0  0  0  0
   -5.2250   18.3180  -33.5120 C   0  0  0  0  0  0  0  0  0  0  0  0
   -5.1030   19.6130  -32.9900 C   0  0  0  0  0  0  0  0  0  0  0  0
   -3.5400   20.4240  -33.0230 S   0  0  0  0  0  0  0  0  0  0  0  0
   -2.7520   19.9840  -34.2270 O   0  0  0  0  0  0  0  0  0  0  0  0
   -3.7780   21.9060  -33.1120 O   0  0  0  0  0  0  0  0  0  0  0  0
   -2.6540   20.0540  -31.5590 N   0  0  0  0  0  0  0  0  0  0  0  0
   -1.2090   20.1760  -31.7880 C   0  0  0  0  0  0  0  0  0  0  0  0
   -0.7820   21.5800  -31.3890 C   0  0  0  0  0  0  0  0  0  0  0  0
   -1.9280   22.1400  -30.5690 C   0  0  0  0  0  0  0  0  0  0  0  0
   -2.9670   21.0290  -30.5100 C   0  0  0  0  0  0  0  0  0  0  0  0
   -6.2300   20.2510  -32.4550 C   0  0  0  0  0  0  0  0  0  0  0  0
   -9.0036   22.6928  -29.6775 H   0  0  0  0  0  0  0  0  0  0  0  0
   -7.9664   21.2047  -29.5409 H   0  0  0  0  0  0  0  0  0  0  0  0
   -7.6966   24.1432  -31.8950 H   0  0  0  0  0  0  0  0  0  0  0  0
   -5.6219   25.5205  -32.0530 H   0  0  0  0  0  0  0  0  0  0  0  0
   -3.9092   23.3410  -28.7338 H   0  0  0  0  0  0  0  0  0  0  0  0
   -5.9756   21.9555  -28.5709 H   0  0  0  0  0  0  0  0  0  0  0  0
   -8.5626   17.8068  -32.9778 H   0  0  0  0  0  0  0  0  0  0  0  0
   -6.5599   16.6623  -33.9317 H   0  0  0  0  0  0  0  0  0  0  0  0
   -4.3426   17.8080  -33.9259 H   0  0  0  0  0  0  0  0  0  0  0  0
   -0.6713   19.4356  -31.1775 H   0  0  0  0  0  0  0  0  0  0  0  0
   -0.9753   19.9942  -32.8474 H   0  0  0  0  0  0  0  0  0  0  0  0
    0.1384   21.5446  -30.7877 H   0  0  0  0  0  0  0  0  0  0  0  0
   -0.5690   22.2050  -32.2688 H   0  0  0  0  0  0  0  0  0  0  0  0
   -1.5852   22.3999  -29.5566 H   0  0  0  0  0  0  0  0  0  0  0  0
   -2.3377   23.0586  -31.0144 H   0  0  0  0  0  0  0  0  0  0  0  0
   -2.9340   20.5401  -29.5252 H   0  0  0  0  0  0  0  0  0  0  0  0
   -3.9748   21.4423  -30.6634 H   0  0  0  0  0  0  0  0  0  0  0  0
   -6.1454   21.2775  -32.0688 H   0  0  0  0  0  0  0  0  0  0  0  0
  1  2  2  0
  2  3  1  0
  3  4  1  0
  4  5  2  0
  5  6  1  0
  6  7  2  0
  7  8  1  0
  7  9  1  0
  9 10  2  0
  2 11  1  0
 11 12  1  0
 12 13  2  0
 13 14  1  0
 14 15  2  0
 15 16  1  0
 16 17  1  0
 17 18  2  0
 17 19  2  0
 17 20  1  0
 20 21  1  0
 21 22  1  0
 22 23  1  0
 23 24  1  0
 16 25  2  0
 10  4  1  0
 25 12  1  0
 24 20  1  0
  3 26  1  0
  3 27  1  0
  5 28  1  0
  6 29  1  0
  9 30  1  0
 10 31  1  0
 13 32  1  0
 14 33  1  0
 15 34  1  0
 21 35  1  0
 21 36  1  0
 22 37  1  0
 22 38  1  0
 23 39  1  0
 23 40  1  0
 24 41  1  0
 24 42  1  0
 25 43  1  0
M  CHG  2   8  -1  11  -1
M  END
>  <UniqueID>  (8) 
7

>  <SMILES>  (8) 
O=C(Cc1ccc([O-])cc1)[N-]c1cccc(S(=O)(=O)N2CCCC2)c1

>  <Energy>  (8) 
48.13949651627562

>  <Genealogy>  (8) 
O=C(Cc1ccc([O-])cc1)[N-]c1cccc(S(=O)(=O)N2CCCC2)c1 (protonated)
O=C(Cc1ccc([O-])cc1)[N-]c1cccc(S(=O)(=O)N2CCCC2)c1 (3D coordinates assigned)
O=C(Cc1ccc([O-])cc1)[N-]c1cccc(S(=O)(=O)N2CCCC2)c1 (nonaromatic ring conformer: 48.13949651627562 kcal/mol)

>  <smiles>  (8) 
O=C(Cc1ccc(O)cc1)Nc1cccc(S(=O)(=O)N2CCCC2)c1

>  <score_type>  (8) 
oracle

>  <origin>  (8) 
adgpu

>  <m_score__min__energy>  (8) 
-11.49

>  <m_primary>  (8) 
energy

$$$$
8:0
     RDKit          3D

 50 53  0  0  0  0  0  0  0  0999 V2000
   -1.2400   25.9370  -29.0060 N   0  0  0  0  0  0  0  0  0  0  0  0
   -2.0290   24.7700  -29.2250 C   0  0  0  0  0  0  0  0  0  0  0  0
   -3.1190   24.8710  -29.8470 O   0  0  0  0  0  0  0  0  0  0  0  0
   -1.5530   23.4510  -28.7580 C   0  0  0  0  0  0  0  0  0  0  0  0
   -1.1780   23.1750  -27.4230 C   0  0  0  0  0  0  0  0  0  0  0  0
   -1.4080   24.0630  -26.3180 N   0  0  0  0  0  0  0  0  0  0  0  0
   -0.5720   24.0000  -25.1160 C   0  0  0  0  0  0  0  0  0  0  0  0
   -0.3400   25.4160  -24.5800 C   0  0  0  0  0  0  0  0  0  0  0  0
   -1.5710   26.0980  -24.4190 O   0  0  0  0  0  0  0  0  0  0  0  0
   -2.1760   26.2990  -25.6840 C   0  0  0  0  0  0  0  0  0  0  0  0
   -2.5640   24.9610  -26.3210 C   0  0  0  0  0  0  0  0  0  0  0  0
   -0.6320   21.9100  -27.2360 C   0  0  0  0  0  0  0  0  0  0  0  0
   -0.6210   21.1130  -28.7150 S   0  0  0  0  0  0  0  0  0  0  0  0
   -1.2930   22.3720  -29.6070 C   0  0  0  0  0  0  0  0  0  0  0  0
   -1.5910   22.3110  -31.0110 N   0  0  0  0  0  0  0  0  0  0  0  0
   -2.5760   21.4300  -31.5760 C   0  0  0  0  0  0  0  0  0  0  0  0
   -3.4640   20.7540  -30.7270 C   0  0  0  0  0  0  0  0  0  0  0  0
   -4.4580   19.9260  -31.2550 C   0  0  0  0  0  0  0  0  0  0  0  0
   -4.5830   19.7710  -32.6420 C   0  0  0  0  0  0  0  0  0  0  0  0
   -5.8720   18.7600  -33.2910 S   0  0  0  0  0  0  0  0  0  0  0  0
   -5.9200   18.8430  -34.7920 O   0  0  0  0  0  0  0  0  0  0  0  0
   -5.6150   17.3330  -32.8950 O   0  0  0  0  0  0  0  0  0  0  0  0
   -7.4030   19.2600  -32.6360 N   0  0  0  0  0  0  0  0  0  0  0  0
   -7.7810   20.4820  -32.3880 C   0  0  0  0  0  0  0  0  0  0  0  0
   -6.9600   21.6000  -32.6470 C   0  0  0  0  0  0  0  0  0  0  0  0
   -7.4300   22.8810  -32.3470 C   0  0  0  0  0  0  0  0  0  0  0  0
   -8.7030   23.0460  -31.8010 C   0  0  0  0  0  0  0  0  0  0  0  0
   -9.4930   21.9210  -31.5600 C   0  0  0  0  0  0  0  0  0  0  0  0
   -9.0190   20.6800  -31.8560 N   0  0  0  0  0  0  0  0  0  0  0  0
   -3.7070   20.4530  -33.4970 C   0  0  0  0  0  0  0  0  0  0  0  0
   -2.7160   21.2850  -32.9680 C   0  0  0  0  0  0  0  0  0  0  0  0
   -0.9090   26.5210  -29.8060 H   0  0  0  0  0  0  0  0  0  0  0  0
   -1.0782   23.3959  -24.3486 H   0  0  0  0  0  0  0  0  0  0  0  0
    0.3953   23.5398  -25.3661 H   0  0  0  0  0  0  0  0  0  0  0  0
    0.1690   25.3549  -23.6068 H   0  0  0  0  0  0  0  0  0  0  0  0
    0.2797   25.9699  -25.3005 H   0  0  0  0  0  0  0  0  0  0  0  0
   -3.0795   26.9137  -25.5579 H   0  0  0  0  0  0  0  0  0  0  0  0
   -1.4557   26.8068  -26.3423 H   0  0  0  0  0  0  0  0  0  0  0  0
   -3.3832   24.5053  -25.7455 H   0  0  0  0  0  0  0  0  0  0  0  0
   -2.8923   25.1309  -27.3570 H   0  0  0  0  0  0  0  0  0  0  0  0
   -0.2689   21.5006  -26.2818 H   0  0  0  0  0  0  0  0  0  0  0  0
   -1.1510   23.0220  -31.6380 H   0  0  0  0  0  0  0  0  0  0  0  0
   -3.3774   20.8765  -29.6373 H   0  0  0  0  0  0  0  0  0  0  0  0
   -5.1445   19.3942  -30.5798 H   0  0  0  0  0  0  0  0  0  0  0  0
   -5.9586   21.4641  -33.0814 H   0  0  0  0  0  0  0  0  0  0  0  0
   -6.7965   23.7591  -32.5413 H   0  0  0  0  0  0  0  0  0  0  0  0
   -9.0800   24.0516  -31.5630 H   0  0  0  0  0  0  0  0  0  0  0  0
  -10.4991   22.0373  -31.1307 H   0  0  0  0  0  0  0  0  0  0  0  0
   -3.7993   20.3334  -34.5866 H   0  0  0  0  0  0  0  0  0  0  0  0
   -2.0413   21.8298  -33.6448 H   0  0  0  0  0  0  0  0  0  0  0  0
  1  2  1  0
  2  3  2  0
  2  4  1  0
  4  5  1  0
  5  6  1  0
  6  7  1  0
  7  8  1  0
  8  9  1  0
  9 10  1  0
 10 11  1  0
  5 12  2  0
 12 13  1  0
 13 14  1  0
 14 15  1  0
 15 16  1  0
 16 17  2  0
 17 18  1  0
 18 19  2  0
 19 20  1  0
 20 21  2  0
 20 22  2  0
 20 23  1  0
 23 24  2  3
 24 25  1  0
 25 26  2  0
 26 27  1  0
 27 28  2  0
 28 29  1  0
 19 30  1  0
 30 31  2  0
 14  4  2  0
 31 16  1  0
 11  6  1  0
 29 24  1  0
  1 32  1  0
  7 33  1  0
  7 34  1  0
  8 35  1  0
  8 36  1  0
 10 37  1  0
 10 38  1  0
 11 39  1  0
 11 40  1  0
 12 41  1  0
 15 42  1  0
 17 43  1  0
 18 44  1  0
 25 45  1  0
 26 46  1  0
 27 47  1  0
 28 48  1  0
 30 49  1  0
 31 50  1  0
M  CHG  2   1  -1  29  -1
M  END
>  <UniqueID>  (9) 
8

>  <SMILES>  (9) 
[NH-]C(=O)c1c(N2CCOCC2)csc1Nc1ccc(S(=O)(=O)N=c2cccc[n-]2)cc1

>  <Energy>  (9) 
100.88900263492165

>  <Genealogy>  (9) 
[NH-]C(=O)c1c(N2CCOCC2)csc1Nc1ccc(S(=O)(=O)N=c2cccc[n-]2)cc1 (protonated)
[NH-]C(=O)c1c(N2CCOCC2)csc1Nc1ccc(S(=O)(=O)N=c2cccc[n-]2)cc1 (3D coordinates assigned)
[NH-]C(=O)c1c(N2CCOCC2)csc1Nc1ccc(S(=O)(=O)N=c2cccc[n-]2)cc1 (nonaromatic ring conformer: 100.88900263492165 kcal/mol)

>  <smiles>  (9) 
NC(=O)c1c(N2CCOCC2)csc1Nc1ccc(S(=O)(=O)N=c2cccc[nH]2)cc1

>  <score_type>  (9) 
oracle

>  <origin>  (9) 
adgpu

>  <m_score__min__energy>  (9) 
-11.69

>  <m_primary>  (9) 
energy

$$$$
9:0
     RDKit          3D

 53 56  0  0  0  0  0  0  0  0999 V2000
   -4.7790   17.7020  -35.3490 C   0  0  0  0  0  0  0  0  0  0  0  0
   -5.8140   17.9400  -34.2890 C   0  0  0  0  0  0  0  0  0  0  0  0
   -6.5110   16.8600  -33.7280 C   0  0  0  0  0  0  0  0  0  0  0  0
   -7.4530   17.0790  -32.7200 C   0  0  0  0  0  0  0  0  0  0  0  0
   -7.6940   18.3740  -32.2540 C   0  0  0  0  0  0  0  0  0  0  0  0
   -6.9780   19.4640  -32.7810 C   0  0  0  0  0  0  0  0  0  0  0  0
   -7.2280   20.8060  -32.3210 N   0  0  0  0  0  0  0  0  0  0  0  0
   -6.1940   21.5130  -31.8540 N   0  0  0  0  0  0  0  0  0  0  0  0
   -6.3220   22.7880  -31.3980 C   0  0  0  0  0  0  0  0  0  0  0  0
   -5.1360   23.5090  -30.8910 C   0  0  0  0  0  0  0  0  0  0  0  0
   -4.9680   24.7240  -31.1900 O   0  0  0  0  0  0  0  0  0  0  0  0
   -4.1560   22.8230  -30.0930 N   0  0  0  0  0  0  0  0  0  0  0  0
   -3.1360   23.4880  -29.3270 C   0  0  0  0  0  0  0  0  0  0  0  0
   -1.7890   23.4760  -29.7320 C   0  0  0  0  0  0  0  0  0  0  0  0
   -0.8210   24.1520  -28.9840 C   0  0  0  0  0  0  0  0  0  0  0  0
   -1.1860   24.8600  -27.8330 C   0  0  0  0  0  0  0  0  0  0  0  0
    0.0250   25.7190  -26.8840 S   0  0  0  0  0  0  0  0  0  0  0  0
    1.3800   25.4160  -27.4590 O   0  0  0  0  0  0  0  0  0  0  0  0
   -0.2210   27.2010  -26.9590 O   0  0  0  0  0  0  0  0  0  0  0  0
   -0.0440   25.1870  -25.2170 N   0  0  0  0  0  0  0  0  0  0  0  0
   -1.2170   25.7560  -24.5420 C   0  0  0  0  0  0  0  0  0  0  0  0
   -0.7870   27.0360  -23.8400 C   0  0  0  0  0  0  0  0  0  0  0  0
    0.7290   26.9980  -23.8100 C   0  0  0  0  0  0  0  0  0  0  0  0
    1.1170   25.6830  -24.4710 C   0  0  0  0  0  0  0  0  0  0  0  0
   -2.5280   24.8890  -27.4360 C   0  0  0  0  0  0  0  0  0  0  0  0
   -3.4980   24.2150  -28.1840 C   0  0  0  0  0  0  0  0  0  0  0  0
   -7.5880   23.3850  -31.4140 C   0  0  0  0  0  0  0  0  0  0  0  0
   -8.6760   22.6580  -31.8840 C   0  0  0  0  0  0  0  0  0  0  0  0
   -8.4860   21.3510  -32.3320 C   0  0  0  0  0  0  0  0  0  0  0  0
   -9.4830   20.6820  -32.7220 O   0  0  0  0  0  0  0  0  0  0  0  0
   -6.0440   19.2370  -33.8060 C   0  0  0  0  0  0  0  0  0  0  0  0
   -3.8121   17.4797  -34.8740 H   0  0  0  0  0  0  0  0  0  0  0  0
   -5.0844   16.8506  -35.9750 H   0  0  0  0  0  0  0  0  0  0  0  0
   -4.6818   18.6012  -35.9750 H   0  0  0  0  0  0  0  0  0  0  0  0
   -6.3153   15.8374  -34.0828 H   0  0  0  0  0  0  0  0  0  0  0  0
   -8.0063   16.2300  -32.2921 H   0  0  0  0  0  0  0  0  0  0  0  0
   -8.4478   18.5420  -31.4707 H   0  0  0  0  0  0  0  0  0  0  0  0
   -4.1250   21.7790  -30.1380 H   0  0  0  0  0  0  0  0  0  0  0  0
   -1.4960   22.9319  -30.6420 H   0  0  0  0  0  0  0  0  0  0  0  0
    0.2320   24.1275  -29.3011 H   0  0  0  0  0  0  0  0  0  0  0  0
   -1.9993   25.9817  -25.2817 H   0  0  0  0  0  0  0  0  0  0  0  0
   -1.6202   25.0390  -23.8117 H   0  0  0  0  0  0  0  0  0  0  0  0
   -1.1376   27.9163  -24.3987 H   0  0  0  0  0  0  0  0  0  0  0  0
   -1.2116   27.1062  -22.8277 H   0  0  0  0  0  0  0  0  0  0  0  0
    1.1458   27.8476  -24.3707 H   0  0  0  0  0  0  0  0  0  0  0  0
    1.1184   27.0688  -22.7837 H   0  0  0  0  0  0  0  0  0  0  0  0
    1.9599   25.8460  -25.1587 H   0  0  0  0  0  0  0  0  0  0  0  0
    1.4220   24.9498  -23.7098 H   0  0  0  0  0  0  0  0  0  0  0  0
   -2.8204   25.4440  -26.5324 H   0  0  0  0  0  0  0  0  0  0  0  0
   -4.5525   24.2553  -27.8736 H   0  0  0  0  0  0  0  0  0  0  0  0
   -7.7206   24.4176  -31.0588 H   0  0  0  0  0  0  0  0  0  0  0  0
   -9.6786   23.1101  -31.9023 H   0  0  0  0  0  0  0  0  0  0  0  0
   -5.4879   20.0842  -34.2338 H   0  0  0  0  0  0  0  0  0  0  0  0
  1  2  1  0
  2  3  2  0
  3  4  1  0
  4  5  2  0
  5  6  1  0
  6  7  1  0
  7  8  1  0
  8  9  2  0
  9 10  1  0
 10 11  2  0
 10 12  1  0
 12 13  1  0
 13 14  2  0
 14 15  1  0
 15 16  2  0
 16 17  1  0
 17 18  2  0
 17 19  2  0
 17 20  1  0
 20 21  1  0
 21 22  1  0
 22 23  1  0
 23 24  1  0
 16 25  1  0
 25 26  2  0
  9 27  1  0
 27 28  2  0
 28 29  1  0
 29 30  2  0
  6 31  2  0
 31  2  1  0
 29  7  1  0
 26 13  1  0
 24 20  1  0
  1 32  1  0
  1 33  1  0
  1 34  1  0
  3 35  1  0
  4 36  1  0
  5 37  1  0
 12 38  1  0
 14 39  1  0
 15 40  1  0
 21 41  1  0
 21 42  1  0
 22 43  1  0
 22 44  1  0
 23 45  1  0
 23 46  1  0
 24 47  1  0
 24 48  1  0
 25 49  1  0
 26 50  1  0
 27 51  1  0
 28 52  1  0
 31 53  1  0
M  END
>  <UniqueID>  (10) 
9

>  <SMILES>  (10) 
Cc1cccc(-n2nc(C(=O)Nc3ccc(S(=O)(=O)N4CCCC4)cc3)ccc2=O)c1

>  <Energy>  (10) 
67.93923347995315

>  <Genealogy>  (10) 
Cc1cccc(-n2nc(C(=O)Nc3ccc(S(=O)(=O)N4CCCC4)cc3)ccc2=O)c1 (3D coordinates assigned)
Cc1cccc(-n2nc(C(=O)Nc3ccc(S(=O)(=O)N4CCCC4)cc3)ccc2=O)c1 (nonaromatic ring conformer: 67.93923347995315 kcal/mol)

>  <smiles>  (10) 
Cc1cccc(-n2nc(C(=O)Nc3ccc(S(=O)(=O)N4CCCC4)cc3)ccc2=O)c1

>  <score_type>  (10) 
oracle

>  <origin>  (10) 
adgpu

>  <m_score__min__energy>  (10) 
-10.48

>  <m_primary>  (10) 
energy

$$$$
10:0
     RDKit          3D

 40 42  0  0  0  0  0  0  0  0999 V2000
   -5.6670   16.2110  -34.1930 C   0  0  0  0  0  0  0  0  0  0  0  0
   -5.8140   17.6040  -33.6570 C   0  0  0  0  0  0  0  0  0  0  0  0
   -4.7360   18.5010  -33.7170 C   0  0  0  0  0  0  0  0  0  0  0  0
   -4.8770   19.8140  -33.2520 C   0  0  0  0  0  0  0  0  0  0  0  0
   -3.5000   20.9060  -33.3370 Cl  0  0  0  0  0  0  0  0  0  0  0  0
   -6.1060   20.2430  -32.7330 C   0  0  0  0  0  0  0  0  0  0  0  0
   -6.2570   21.5170  -32.2840 N   0  0  0  0  0  0  0  0  0  0  0  0
   -7.4350   21.9790  -31.7870 C   0  0  0  0  0  0  0  0  0  0  0  0
   -7.5210   23.6890  -31.2360 S   0  0  0  0  0  0  0  0  0  0  0  0
   -5.7950   24.1040  -31.6720 C   0  0  0  0  0  0  0  0  0  0  0  0
   -5.2370   25.1800  -30.7820 C   0  0  0  0  0  0  0  0  0  0  0  0
   -6.0280   26.0230  -30.2810 O   0  0  0  0  0  0  0  0  0  0  0  0
   -3.8410   25.2780  -30.4690 N   0  0  0  0  0  0  0  0  0  0  0  0
   -3.0530   24.2980  -29.7290 C   0  0  0  0  0  0  0  0  0  0  0  0
   -2.2080   24.9730  -28.6970 C   0  0  0  0  0  0  0  0  0  0  0  0
   -2.0320   24.5520  -27.3950 C   0  0  0  0  0  0  0  0  0  0  0  0
   -1.1670   25.4620  -26.8250 C   0  0  0  0  0  0  0  0  0  0  0  0
   -0.8650   26.3750  -27.8150 C   0  0  0  0  0  0  0  0  0  0  0  0
   -1.4980   26.0550  -28.9200 O   0  0  0  0  0  0  0  0  0  0  0  0
   -8.5490   21.1180  -31.6990 C   0  0  0  0  0  0  0  0  0  0  0  0
   -9.8560   21.5810  -31.1160 C   0  0  0  0  0  0  0  0  0  0  0  0
   -8.4200   19.8010  -32.1680 C   0  0  0  0  0  0  0  0  0  0  0  0
   -7.2000   19.3530  -32.6860 C   0  0  0  0  0  0  0  0  0  0  0  0
   -7.0510   18.0390  -33.1540 C   0  0  0  0  0  0  0  0  0  0  0  0
   -5.5922   15.5019  -33.3554 H   0  0  0  0  0  0  0  0  0  0  0  0
   -6.5437   15.9605  -34.8083 H   0  0  0  0  0  0  0  0  0  0  0  0
   -4.7573   16.1490  -34.8083 H   0  0  0  0  0  0  0  0  0  0  0  0
   -3.7729   18.1697  -34.1326 H   0  0  0  0  0  0  0  0  0  0  0  0
   -5.1752   23.2010  -31.5703 H   0  0  0  0  0  0  0  0  0  0  0  0
   -5.7841   24.4768  -32.7069 H   0  0  0  0  0  0  0  0  0  0  0  0
   -3.7318   23.5887  -29.2329 H   0  0  0  0  0  0  0  0  0  0  0  0
   -2.3958   23.7668  -30.4332 H   0  0  0  0  0  0  0  0  0  0  0  0
   -2.4866   23.6741  -26.9126 H   0  0  0  0  0  0  0  0  0  0  0  0
   -0.7932   25.4606  -25.7905 H   0  0  0  0  0  0  0  0  0  0  0  0
   -0.1955   27.2397  -27.6963 H   0  0  0  0  0  0  0  0  0  0  0  0
   -9.7957   21.5596  -30.0179 H   0  0  0  0  0  0  0  0  0  0  0  0
  -10.0642   22.6076  -31.4519 H   0  0  0  0  0  0  0  0  0  0  0  0
  -10.6640   20.9144  -31.4519 H   0  0  0  0  0  0  0  0  0  0  0  0
   -9.2817   19.1185  -32.1280 H   0  0  0  0  0  0  0  0  0  0  0  0
   -7.9057   17.3471  -33.1269 H   0  0  0  0  0  0  0  0  0  0  0  0
  1  2  1  0
  2  3  2  0
  3  4  1  0
  4  5  1  0
  4  6  2  0
  6  7  1  0
  7  8  2  0
  8  9  1  0
  9 10  1  0
 10 11  1  0
 11 12  2  0
 11 13  1  0
 13 14  1  0
 14 15  1  0
 15 16  2  0
 16 17  1  0
 17 18  2  0
 18 19  1  0
  8 20  1  0
 20 21  1  0
 20 22  2  0
 22 23  1  0
 23 24  2  0
 24  2  1  0
 23  6  1  0
 19 15  1  0
  1 25  1  0
  1 26  1  0
  1 27  1  0
  3 28  1  0
 10 29  1  0
 10 30  1  0
 14 31  1  0
 14 32  1  0
 16 33  1  0
 17 34  1  0
 18 35  1  0
 21 36  1  0
 21 37  1  0
 21 38  1  0
 22 39  1  0
 24 40  1  0
M  CHG  1  13  -1
M  END
>  <UniqueID>  (11) 
10

>  <SMILES>  (11) 
Cc1cc(Cl)c2nc(SCC(=O)[N-]Cc3ccco3)c(C)cc2c1

>  <Energy>  (11) 
62.65983750617326

>  <Genealogy>  (11) 
Cc1cc(Cl)c2nc(SCC(=O)[N-]Cc3ccco3)c(C)cc2c1 (protonated)
Cc1cc(Cl)c2nc(SCC(=O)[N-]Cc3ccco3)c(C)cc2c1 (3D coordinates assigned)
Cc1cc(Cl)c2nc(SCC(=O)[N-]Cc3ccco3)c(C)cc2c1 (optimized conformer: 62.65983750617326 kcal/mol)

>  <smiles>  (11) 
Cc1cc(Cl)c2nc(SCC(=O)NCc3ccco3)c(C)cc2c1

>  <score_type>  (11) 
oracle

>  <origin>  (11) 
adgpu

>  <m_score__min__energy>  (11) 
-12.08

>  <m_primary>  (11) 
energy

$$$$
11:0
     RDKit          3D

 49 51  0  0  0  0  0  0  0  0999 V2000
   -4.2840   25.6680  -30.7970 O   0  0  0  0  0  0  0  0  0  0  0  0
   -4.6310   24.4580  -30.8130 C   0  0  0  0  0  0  0  0  0  0  0  0
   -5.7130   24.0580  -31.6670 N   0  0  0  0  0  0  0  0  0  0  0  0
   -6.9840   23.4860  -31.2180 C   0  0  0  0  0  0  0  0  0  0  0  0
   -7.0620   22.0180  -31.5490 C   0  0  0  0  0  0  0  0  0  0  0  0
   -5.9300   21.3320  -32.0240 C   0  0  0  0  0  0  0  0  0  0  0  0
   -6.0200   19.9850  -32.3820 C   0  0  0  0  0  0  0  0  0  0  0  0
   -7.2370   19.3050  -32.2550 C   0  0  0  0  0  0  0  0  0  0  0  0
   -7.3480   17.6160  -32.7120 Cl  0  0  0  0  0  0  0  0  0  0  0  0
   -8.3620   19.9750  -31.7670 C   0  0  0  0  0  0  0  0  0  0  0  0
   -8.2770   21.3250  -31.4120 C   0  0  0  0  0  0  0  0  0  0  0  0
   -3.8800   23.4840  -30.0030 C   0  0  0  0  0  0  0  0  0  0  0  0
   -2.9240   22.6450  -30.5940 C   0  0  0  0  0  0  0  0  0  0  0  0
   -2.1710   21.7720  -29.8040 C   0  0  0  0  0  0  0  0  0  0  0  0
   -2.3670   21.7280  -28.4180 C   0  0  0  0  0  0  0  0  0  0  0  0
   -1.4050   20.6280  -27.4340 S   0  0  0  0  0  0  0  0  0  0  0  0
   -2.3350   19.8720  -26.5270 O   0  0  0  0  0  0  0  0  0  0  0  0
   -0.6960   19.6430  -28.3220 O   0  0  0  0  0  0  0  0  0  0  0  0
   -0.2450   21.5320  -26.4850 N   0  0  0  0  0  0  0  0  0  0  0  0
    0.3650   22.6200  -27.2850 C   0  0  0  0  0  0  0  0  0  0  0  0
   -0.2610   24.0200  -27.0830 C   0  0  0  0  0  0  0  0  0  0  0  0
    0.2990   24.8560  -25.9040 C   0  0  0  0  0  0  0  0  0  0  0  0
   -0.0530   24.3320  -24.5020 C   0  0  0  0  0  0  0  0  0  0  0  0
    0.0710   22.8010  -24.3330 C   0  0  0  0  0  0  0  0  0  0  0  0
   -0.8630   21.9470  -25.2100 C   0  0  0  0  0  0  0  0  0  0  0  0
   -3.3440   22.5420  -27.8310 C   0  0  0  0  0  0  0  0  0  0  0  0
   -4.1010   23.4120  -28.6190 C   0  0  0  0  0  0  0  0  0  0  0  0
   -7.0716   23.6144  -30.1290 H   0  0  0  0  0  0  0  0  0  0  0  0
   -7.8044   24.0059  -31.7344 H   0  0  0  0  0  0  0  0  0  0  0  0
   -4.9687   21.8590  -32.1141 H   0  0  0  0  0  0  0  0  0  0  0  0
   -5.1335   19.4578  -32.7642 H   0  0  0  0  0  0  0  0  0  0  0  0
   -9.3169   19.4392  -31.6618 H   0  0  0  0  0  0  0  0  0  0  0  0
   -9.1645   21.8465  -31.0241 H   0  0  0  0  0  0  0  0  0  0  0  0
   -2.7665   22.6742  -31.6823 H   0  0  0  0  0  0  0  0  0  0  0  0
   -1.4217   21.1171  -30.2725 H   0  0  0  0  0  0  0  0  0  0  0  0
    1.4302   22.6823  -27.0176 H   0  0  0  0  0  0  0  0  0  0  0  0
    0.1897   22.3577  -28.3388 H   0  0  0  0  0  0  0  0  0  0  0  0
   -0.1027   24.5950  -28.0073 H   0  0  0  0  0  0  0  0  0  0  0  0
   -1.3179   23.8376  -26.8389 H   0  0  0  0  0  0  0  0  0  0  0  0
    1.3951   24.8780  -25.9934 H   0  0  0  0  0  0  0  0  0  0  0  0
   -0.1695   25.8480  -25.9847 H   0  0  0  0  0  0  0  0  0  0  0  0
    0.6216   24.8121  -23.7778 H   0  0  0  0  0  0  0  0  0  0  0  0
   -1.1125   24.5772  -24.3365 H   0  0  0  0  0  0  0  0  0  0  0  0
    1.1072   22.5190  -24.5712 H   0  0  0  0  0  0  0  0  0  0  0  0
   -0.2250   22.5925  -23.2943 H   0  0  0  0  0  0  0  0  0  0  0  0
   -1.1428   21.0444  -24.6470 H   0  0  0  0  0  0  0  0  0  0  0  0
   -1.7372   22.5673  -25.4570 H   0  0  0  0  0  0  0  0  0  0  0  0
   -3.5158   22.4960  -26.7455 H   0  0  0  0  0  0  0  0  0  0  0  0
   -4.8727   24.0426  -28.1534 H   0  0  0  0  0  0  0  0  0  0  0  0
  1  2  2  0
  2  3  1  0
  3  4  1  0
  4  5  1  0
  5  6  2  0
  6  7  1  0
  7  8  2  0
  8  9  1  0
  8 10  1  0
 10 11  2  0
  2 12  1  0
 12 13  2  0
 13 14  1  0
 14 15  2  0
 15 16  1  0
 16 17  2  0
 16 18  2  0
 16 19  1  0
 19 20  1  0
 20 21  1  0
 21 22  1  0
 22 23  1  0
 23 24  1  0
 24 25  1  0
 15 26  1  0
 26 27  2  0
 11  5  1  0
 27 12  1  0
 25 19  1  0
  4 28  1  0
  4 29  1  0
  6 30  1  0
  7 31  1  0
 10 32  1  0
 11 33  1  0
 13 34  1  0
 14 35  1  0
 20 36  1  0
 20 37  1  0
 21 38  1  0
 21 39  1  0
 22 40  1  0
 22 41  1  0
 23 42  1  0
 23 43  1  0
 24 44  1  0
 24 45  1  0
 25 46  1  0
 25 47  1  0
 26 48  1  0
 27 49  1  0
M  CHG  1   3  -1
M  END
>  <UniqueID>  (12) 
11

>  <SMILES>  (12) 
O=C([N-]Cc1ccc(Cl)cc1)c1ccc(S(=O)(=O)N2CCCCCC2)cc1

>  <Energy>  (12) 
64.56560126253318

>  <Genealogy>  (12) 
O=C([N-]Cc1ccc(Cl)cc1)c1ccc(S(=O)(=O)N2CCCCCC2)cc1 (protonated)
O=C([N-]Cc1ccc(Cl)cc1)c1ccc(S(=O)(=O)N2CCCCCC2)cc1 (3D coordinates assigned)
O=C([N-]Cc1ccc(Cl)cc1)c1ccc(S(=O)(=O)N2CCCCCC2)cc1 (nonaromatic ring conformer: 64.56560126253318 kcal/mol)

>  <smiles>  (12) 
O=C(NCc1ccc(Cl)cc1)c1ccc(S(=O)(=O)N2CCCCCC2)cc1

>  <score_type>  (12) 
oracle

>  <origin>  (12) 
adgpu

>  <m_score__min__energy>  (12) 
-9.4499999999999993

>  <m_primary>  (12) 
energy

$$$$
12:0
     RDKit          3D

 56 59  0  0  0  0  0  0  0  0999 V2000
   -5.5040   23.3200  -29.3600 C   0  0  0  0  0  0  0  0  0  0  0  0
   -5.8070   24.7140  -30.4250 S   0  0  0  0  0  0  0  0  0  0  0  0
   -4.5100   25.3180  -30.8840 O   0  0  0  0  0  0  0  0  0  0  0  0
   -6.5750   25.7470  -29.6510 O   0  0  0  0  0  0  0  0  0  0  0  0
   -6.7550   24.2280  -31.7930 N   0  0  0  0  0  0  0  0  0  0  0  0
   -7.4400   22.9750  -31.9330 C   0  0  0  0  0  0  0  0  0  0  0  0
   -8.8400   22.9680  -31.8770 C   0  0  0  0  0  0  0  0  0  0  0  0
   -9.5470   21.7670  -31.9780 C   0  0  0  0  0  0  0  0  0  0  0  0
   -8.8620   20.5620  -32.1420 C   0  0  0  0  0  0  0  0  0  0  0  0
   -7.4600   20.5530  -32.2160 C   0  0  0  0  0  0  0  0  0  0  0  0
   -6.7520   19.3110  -32.3900 N   0  0  0  0  0  0  0  0  0  0  0  0
   -7.0910   18.2450  -31.6030 C   0  0  0  0  0  0  0  0  0  0  0  0
   -6.4140   17.0320  -31.7230 C   0  0  0  0  0  0  0  0  0  0  0  0
   -5.3750   16.9140  -32.6410 C   0  0  0  0  0  0  0  0  0  0  0  0
   -5.0130   18.0070  -33.4410 C   0  0  0  0  0  0  0  0  0  0  0  0
   -3.8730   17.8740  -34.3800 C   0  0  0  0  0  0  0  0  0  0  0  0
   -3.9460   17.0400  -35.3220 O   0  0  0  0  0  0  0  0  0  0  0  0
   -2.6930   18.6840  -34.2710 N   0  0  0  0  0  0  0  0  0  0  0  0
   -2.4310   19.6690  -33.2590 C   0  0  0  0  0  0  0  0  0  0  0  0
   -1.6680   19.3110  -32.1490 C   0  0  0  0  0  0  0  0  0  0  0  0
   -1.3630   20.2520  -31.1610 C   0  0  0  0  0  0  0  0  0  0  0  0
   -1.8260   21.5870  -31.2540 C   0  0  0  0  0  0  0  0  0  0  0  0
   -1.4900   22.5810  -30.2350 N   0  0  0  0  0  0  0  0  0  0  0  0
   -0.1220   22.5910  -29.6700 C   0  0  0  0  0  0  0  0  0  0  0  0
    0.0970   23.6080  -28.5430 C   0  0  0  0  0  0  0  0  0  0  0  0
   -0.6330   24.8480  -28.7880 N   0  0  0  0  0  0  0  0  0  0  0  0
   -2.0640   24.5630  -28.7610 C   0  0  0  0  0  0  0  0  0  0  0  0
   -2.4770   23.6340  -29.9080 C   0  0  0  0  0  0  0  0  0  0  0  0
   -2.6390   21.9180  -32.3650 C   0  0  0  0  0  0  0  0  0  0  0  0
   -2.9420   20.9710  -33.3460 C   0  0  0  0  0  0  0  0  0  0  0  0
   -5.7510   19.2040  -33.3230 C   0  0  0  0  0  0  0  0  0  0  0  0
   -5.5070   20.1700  -34.0990 O   0  0  0  0  0  0  0  0  0  0  0  0
   -6.7520   21.7620  -32.1190 C   0  0  0  0  0  0  0  0  0  0  0  0
   -5.5734   23.6392  -28.3096 H   0  0  0  0  0  0  0  0  0  0  0  0
   -6.2534   22.5390  -29.5562 H   0  0  0  0  0  0  0  0  0  0  0  0
   -4.4981   22.9205  -29.5562 H   0  0  0  0  0  0  0  0  0  0  0  0
   -9.3864   23.9146  -31.7527 H   0  0  0  0  0  0  0  0  0  0  0  0
  -10.6459   21.7712  -31.9282 H   0  0  0  0  0  0  0  0  0  0  0  0
   -9.4216   19.6177  -32.2134 H   0  0  0  0  0  0  0  0  0  0  0  0
   -7.9044   18.3454  -30.8693 H   0  0  0  0  0  0  0  0  0  0  0  0
   -6.6993   16.1742  -31.0963 H   0  0  0  0  0  0  0  0  0  0  0  0
   -4.8360   15.9602  -32.7394 H   0  0  0  0  0  0  0  0  0  0  0  0
   -1.3023   18.2784  -32.0493 H   0  0  0  0  0  0  0  0  0  0  0  0
   -0.7530   19.9502  -30.2968 H   0  0  0  0  0  0  0  0  0  0  0  0
    0.0924   21.5878  -29.2730 H   0  0  0  0  0  0  0  0  0  0  0  0
    0.5510   22.8844  -30.4892 H   0  0  0  0  0  0  0  0  0  0  0  0
   -0.2503   23.1707  -27.5953 H   0  0  0  0  0  0  0  0  0  0  0  0
    1.1703   23.8443  -28.4970 H   0  0  0  0  0  0  0  0  0  0  0  0
   -0.3710   25.2300  -29.7280 H   0  0  0  0  0  0  0  0  0  0  0  0
   -2.3139   24.0814  -27.8041 H   0  0  0  0  0  0  0  0  0  0  0  0
   -2.6059   25.5133  -28.8764 H   0  0  0  0  0  0  0  0  0  0  0  0
   -3.4216   23.1440  -29.6292 H   0  0  0  0  0  0  0  0  0  0  0  0
   -2.5662   24.2661  -30.8038 H   0  0  0  0  0  0  0  0  0  0  0  0
   -3.0389   22.9386  -32.4571 H   0  0  0  0  0  0  0  0  0  0  0  0
   -3.5864   21.2492  -34.1930 H   0  0  0  0  0  0  0  0  0  0  0  0
   -5.6542   21.7605  -32.1888 H   0  0  0  0  0  0  0  0  0  0  0  0
  1  2  1  0
  2  3  2  0
  2  4  2  0
  2  5  1  0
  5  6  1  0
  6  7  2  0
  7  8  1  0
  8  9  2  0
  9 10  1  0
 10 11  1  0
 11 12  1  0
 12 13  2  0
 13 14  1  0
 14 15  2  0
 15 16  1  0
 16 17  2  0
 16 18  1  0
 18 19  1  0
 19 20  2  0
 20 21  1  0
 21 22  2  0
 22 23  1  0
 23 24  1  0
 24 25  1  0
 25 26  1  0
 26 27  1  0
 27 28  1  0
 22 29  1  0
 29 30  2  0
 15 31  1  0
 31 32  2  0
 10 33  2  0
 33  6  1  0
 31 11  1  0
 30 19  1  0
 28 23  1  0
  1 34  1  0
  1 35  1  0
  1 36  1  0
  7 37  1  0
  8 38  1  0
  9 39  1  0
 12 40  1  0
 13 41  1  0
 14 42  1  0
 20 43  1  0
 21 44  1  0
 24 45  1  0
 24 46  1  0
 25 47  1  0
 25 48  1  0
 26 49  1  0
 27 50  1  0
 27 51  1  0
 28 52  1  0
 28 53  1  0
 29 54  1  0
 30 55  1  0
 33 56  1  0
M  CHG  2   5  -1  18  -1
M  END
>  <UniqueID>  (13) 
12

>  <SMILES>  (13) 
CS(=O)(=O)[N-]c1cccc(-n2cccc(C(=O)[N-]c3ccc(N4CCNCC4)cc3)c2=O)c1

>  <Energy>  (13) 
81.97208525801135

>  <Genealogy>  (13) 
CS(=O)(=O)[N-]c1cccc(-n2cccc(C(=O)[N-]c3ccc(N4CCNCC4)cc3)c2=O)c1 (protonated)
CS(=O)(=O)[N-]c1cccc(-n2cccc(C(=O)[N-]c3ccc(N4CCNCC4)cc3)c2=O)c1 (3D coordinates assigned)
CS(=O)(=O)[N-]c1cccc(-n2cccc(C(=O)[N-]c3ccc(N4CCNCC4)cc3)c2=O)c1 (nonaromatic ring conformer: 81.97208525801135 kcal/mol)

>  <smiles>  (13) 
CS(=O)(=O)Nc1cccc(-n2cccc(C(=O)Nc3ccc(N4CCNCC4)cc3)c2=O)c1

>  <score_type>  (13) 
oracle

>  <origin>  (13) 
adgpu

>  <m_score__min__energy>  (13) 
-11.81

>  <m_primary>  (13) 
energy

$$$$
13:0
     RDKit          3D

 64 67  0  0  0  0  0  0  0  0999 V2000
   -1.0460   21.3930  -27.0530 C   0  0  0  0  0  0  0  0  0  0  0  0
   -1.7780   22.3660  -27.9420 C   0  0  0  0  0  0  0  0  0  0  0  0
   -2.9580   21.9410  -28.5710 C   0  0  0  0  0  0  0  0  0  0  0  0
   -3.6730   22.8000  -29.4010 C   0  0  0  0  0  0  0  0  0  0  0  0
   -3.2340   24.1150  -29.6060 C   0  0  0  0  0  0  0  0  0  0  0  0
   -3.9340   25.0130  -30.4810 N   0  0  0  0  0  0  0  0  0  0  0  0
   -5.2880   24.8840  -30.9300 C   0  0  0  0  0  0  0  0  0  0  0  0
   -6.2150   25.3300  -30.2030 O   0  0  0  0  0  0  0  0  0  0  0  0
   -5.5960   24.1640  -32.1280 N   0  0  0  0  0  0  0  0  0  0  0  0
   -6.1940   22.8640  -32.1750 C   0  0  0  0  0  0  0  0  0  0  0  0
   -7.5400   22.5160  -32.1120 C   0  0  0  0  0  0  0  0  0  0  0  0
   -8.7080   23.4460  -31.9680 C   0  0  0  0  0  0  0  0  0  0  0  0
   -7.6360   21.1690  -32.2650 N   0  0  0  0  0  0  0  0  0  0  0  0
   -8.8750   20.3880  -32.2210 C   0  0  0  0  0  0  0  0  0  0  0  0
   -6.4200   20.6720  -32.4830 N   0  0  0  0  0  0  0  0  0  0  0  0
   -6.1060   19.2960  -32.7610 C   0  0  0  0  0  0  0  0  0  0  0  0
   -6.1180   18.3460  -31.7260 C   0  0  0  0  0  0  0  0  0  0  0  0
   -5.8060   17.0090  -31.9930 C   0  0  0  0  0  0  0  0  0  0  0  0
   -5.4740   16.6120  -33.2910 C   0  0  0  0  0  0  0  0  0  0  0  0
   -5.4500   17.5530  -34.3240 C   0  0  0  0  0  0  0  0  0  0  0  0
   -5.7600   18.8910  -34.0600 C   0  0  0  0  0  0  0  0  0  0  0  0
   -5.5350   21.6870  -32.4370 C   0  0  0  0  0  0  0  0  0  0  0  0
   -4.2940   21.5670  -32.6300 O   0  0  0  0  0  0  0  0  0  0  0  0
   -2.0480   24.5500  -28.9990 C   0  0  0  0  0  0  0  0  0  0  0  0
   -1.6020   25.8420  -29.2610 O   0  0  0  0  0  0  0  0  0  0  0  0
   -1.3160   23.6930  -28.1450 C   0  0  0  0  0  0  0  0  0  0  0  0
    0.1910   24.2580  -27.3740 S   0  0  0  0  0  0  0  0  0  0  0  0
    0.6790   23.2640  -26.3580 O   0  0  0  0  0  0  0  0  0  0  0  0
    1.2380   24.3830  -28.4450 O   0  0  0  0  0  0  0  0  0  0  0  0
   -0.0840   25.8130  -26.6000 N   0  0  0  0  0  0  0  0  0  0  0  0
   -1.4700   25.8480  -26.0660 C   0  0  0  0  0  0  0  0  0  0  0  0
   -1.6330   26.8020  -24.8770 C   0  0  0  0  0  0  0  0  0  0  0  0
   -0.7280   26.3770  -23.7090 C   0  0  0  0  0  0  0  0  0  0  0  0
    0.6060   25.7620  -24.1800 C   0  0  0  0  0  0  0  0  0  0  0  0
    0.9550   26.2260  -25.6070 C   0  0  1  0  0  0  0  0  0  0  0  0
    2.3960   25.8480  -25.9840 C   0  0  0  0  0  0  0  0  0  0  0  0
   -1.2356   21.6451  -25.9992 H   0  0  0  0  0  0  0  0  0  0  0  0
   -1.4019   20.3721  -27.2556 H   0  0  0  0  0  0  0  0  0  0  0  0
    0.0336   21.4520  -27.2556 H   0  0  0  0  0  0  0  0  0  0  0  0
   -3.3227   20.9164  -28.4062 H   0  0  0  0  0  0  0  0  0  0  0  0
   -4.5874   22.4447  -29.8986 H   0  0  0  0  0  0  0  0  0  0  0  0
   -8.9156   23.6113  -30.9005 H   0  0  0  0  0  0  0  0  0  0  0  0
   -8.4730   24.4070  -32.4489 H   0  0  0  0  0  0  0  0  0  0  0  0
   -9.5919   23.0017  -32.4489 H   0  0  0  0  0  0  0  0  0  0  0  0
   -9.1587   20.2092  -31.1734 H   0  0  0  0  0  0  0  0  0  0  0  0
   -9.6772   20.9441  -32.7283 H   0  0  0  0  0  0  0  0  0  0  0  0
   -8.7193   19.4245  -32.7283 H   0  0  0  0  0  0  0  0  0  0  0  0
   -6.3738   18.6549  -30.7017 H   0  0  0  0  0  0  0  0  0  0  0  0
   -5.8220   16.2686  -31.1797 H   0  0  0  0  0  0  0  0  0  0  0  0
   -5.2317   15.5595  -33.4996 H   0  0  0  0  0  0  0  0  0  0  0  0
   -5.1871   17.2410  -35.3455 H   0  0  0  0  0  0  0  0  0  0  0  0
   -5.7326   19.6299  -34.8744 H   0  0  0  0  0  0  0  0  0  0  0  0
   -2.1468   26.1722  -26.8702 H   0  0  0  0  0  0  0  0  0  0  0  0
   -1.7094   24.8354  -25.7090 H   0  0  0  0  0  0  0  0  0  0  0  0
   -1.3615   27.8204  -25.1917 H   0  0  0  0  0  0  0  0  0  0  0  0
   -2.6801   26.7718  -24.5413 H   0  0  0  0  0  0  0  0  0  0  0  0
   -0.5092   27.2622  -23.0937 H   0  0  0  0  0  0  0  0  0  0  0  0
   -1.2650   25.6056  -23.1375 H   0  0  0  0  0  0  0  0  0  0  0  0
    1.4077   26.0737  -23.4943 H   0  0  0  0  0  0  0  0  0  0  0  0
    0.5051   24.6666  -24.1827 H   0  0  0  0  0  0  0  0  0  0  0  0
    0.9331   27.3256  -25.6296 H   0  0  0  0  0  0  0  0  0  0  0  0
    2.9859   25.6933  -25.0686 H   0  0  0  0  0  0  0  0  0  0  0  0
    2.3889   24.9213  -26.5767 H   0  0  0  0  0  0  0  0  0  0  0  0
    2.8447   26.6588  -26.5767 H   0  0  0  0  0  0  0  0  0  0  0  0
  1  2  1  0
  2  3  2  0
  3  4  1  0
  4  5  2  0
  5  6  1  0
  6  7  1  0
  7  8  2  0
  7  9  1  0
  9 10  1  0
 10 11  2  0
 11 12  1  0
 11 13  1  0
 13 14  1  0
 13 15  1  0
 15 16  1  0
 16 17  2  0
 17 18  1  0
 18 19  2  0
 19 20  1  0
 20 21  2  0
 15 22  1  0
 22 23  2  0
  5 24  1  0
 24 25  1  0
 24 26  2  0
 26 27  1  0
 27 28  2  0
 27 29  2  0
 27 30  1  0
 30 31  1  0
 31 32  1  0
 32 33  1  0
 33 34  1  0
 34 35  1  0
 35 36  1  0
 26  2  1  0
 35 30  1  0
 22 10  1  0
 21 16  1  0
  1 37  1  0
  1 38  1  0
  1 39  1  0
  3 40  1  0
  4 41  1  0
 12 42  1  0
 12 43  1  0
 12 44  1  0
 14 45  1  0
 14 46  1  0
 14 47  1  0
 17 48  1  0
 18 49  1  0
 19 50  1  0
 20 51  1  0
 21 52  1  0
 31 53  1  0
 31 54  1  0
 32 55  1  0
 32 56  1  0
 33 57  1  0
 33 58  1  0
 34 59  1  0
 34 60  1  0
 35 61  1  1
 36 62  1  0
 36 63  1  0
 36 64  1  0
M  CHG  3   6  -1   9  -1  25  -1
M  END
>  <UniqueID>  (14) 
13

>  <SMILES>  (14) 
Cc1ccc([N-]C(=O)[N-]c2c(C)n(C)n(-c3ccccc3)c2=O)c([O-])c1S(=O)(=O)N1CCCC[C@H]1C

>  <Energy>  (14) 
129.22665331559134

>  <Genealogy>  (14) 
Cc1ccc([N-]C(=O)[N-]c2c(C)n(C)n(-c3ccccc3)c2=O)c([O-])c1S(=O)(=O)N1CCCCC1C (protonated)
Cc1ccc([N-]C(=O)[N-]c2c(C)n(C)n(-c3ccccc3)c2=O)c([O-])c1S(=O)(=O)N1CCCC[C@H]1C (chirality)
Cc1ccc([N-]C(=O)[N-]c2c(C)n(C)n(-c3ccccc3)c2=O)c([O-])c1S(=O)(=O)N1CCCC[C@H]1C (3D coordinates assigned)
Cc1ccc([N-]C(=O)[N-]c2c(C)n(C)n(-c3ccccc3)c2=O)c([O-])c1S(=O)(=O)N1CCCC[C@H]1C (nonaromatic ring conformer: 129.22665331559134 kcal/mol)

>  <smiles>  (14) 
Cc1ccc(NC(=O)Nc2c(C)n(C)n(-c3ccccc3)c2=O)c(O)c1S(=O)(=O)N1CCCCC1C

>  <score_type>  (14) 
oracle

>  <origin>  (14) 
adgpu

>  <m_score__min__energy>  (14) 
-16.98

>  <m_primary>  (14) 
energy

$$$$
14:0
     RDKit          3D

 77 81  0  0  0  0  0  0  0  0999 V2000
    1.3700   15.8640  -27.1520 C   0  0  0  0  0  0  0  0  0  0  0  0
    0.9750   16.8150  -28.1330 O   0  0  0  0  0  0  0  0  0  0  0  0
    0.3780   18.0530  -27.8440 C   0  0  0  0  0  0  0  0  0  0  0  0
   -0.8450   18.1590  -27.1540 C   0  0  0  0  0  0  0  0  0  0  0  0
   -1.3980   19.4160  -26.8910 C   0  0  0  0  0  0  0  0  0  0  0  0
   -0.7350   20.5810  -27.2910 C   0  0  0  0  0  0  0  0  0  0  0  0
   -1.3210   21.8240  -27.0100 O   0  0  0  0  0  0  0  0  0  0  0  0
   -2.2710   22.4730  -27.8160 C   0  0  0  0  0  0  0  0  0  0  0  0
   -3.6000   22.0170  -27.8940 C   0  0  0  0  0  0  0  0  0  0  0  0
   -4.5250   22.6660  -28.7140 C   0  0  0  0  0  0  0  0  0  0  0  0
   -4.1360   23.7750  -29.4740 C   0  0  0  0  0  0  0  0  0  0  0  0
   -5.3070   24.5590  -30.5260 S   0  0  0  0  0  0  0  0  0  0  0  0
   -5.0010   24.2580  -31.9660 O   0  0  0  0  0  0  0  0  0  0  0  0
   -5.2350   26.0460  -30.3320 O   0  0  0  0  0  0  0  0  0  0  0  0
   -6.8960   24.0020  -30.1090 N   0  0  0  0  0  0  0  0  0  0  0  0
   -7.4870   22.8740  -30.7610 C   0  0  0  0  0  0  0  0  0  0  0  0
   -8.6650   23.0400  -31.5000 C   0  0  0  0  0  0  0  0  0  0  0  0
   -9.2550   21.9480  -32.1420 C   0  0  0  0  0  0  0  0  0  0  0  0
   -8.6670   20.6770  -32.0690 C   0  0  0  0  0  0  0  0  0  0  0  0
   -7.4530   20.5150  -31.3720 C   0  0  0  0  0  0  0  0  0  0  0  0
   -6.8810   21.6110  -30.7070 C   0  0  0  0  0  0  0  0  0  0  0  0
   -6.8020   19.1580  -31.2620 C   0  0  0  0  0  0  0  0  0  0  0  0
   -7.1690   18.2640  -32.3790 N   0  0  0  0  0  0  0  0  0  0  0  0
   -6.4790   18.6320  -33.6370 C   0  0  0  0  0  0  0  0  0  0  0  0
   -5.1140   19.2020  -33.3520 C   0  0  0  0  0  0  0  0  0  0  0  0
   -4.9070   20.5870  -33.3370 C   0  0  0  0  0  0  0  0  0  0  0  0
   -3.6350   21.1120  -33.0970 C   0  0  0  0  0  0  0  0  0  0  0  0
   -2.5290   20.2600  -32.8600 C   0  0  0  0  0  0  0  0  0  0  0  0
   -1.1120   20.7950  -32.5650 C   0  0  0  0  0  0  0  0  0  0  0  0
   -0.1260   19.6870  -32.1230 C   0  0  0  0  0  0  0  0  0  0  0  0
   -1.1790   21.8420  -31.4320 C   0  0  0  0  0  0  0  0  0  0  0  0
   -0.5410   21.4540  -33.8390 C   0  0  0  0  0  0  0  0  0  0  0  0
   -2.7570   18.8670  -32.8830 C   0  0  0  0  0  0  0  0  0  0  0  0
   -4.0290   18.3460  -33.1320 C   0  0  0  0  0  0  0  0  0  0  0  0
   -8.6400   18.1760  -32.5110 C   0  0  0  0  0  0  0  0  0  0  0  0
   -9.2960   19.5340  -32.8240 C   0  0  0  0  0  0  0  0  0  0  0  0
   -2.8070   24.2180  -29.4250 C   0  0  0  0  0  0  0  0  0  0  0  0
   -1.8760   23.5710  -28.6020 C   0  0  0  0  0  0  0  0  0  0  0  0
   -0.5150   24.0440  -28.5630 C   0  0  0  0  0  0  0  0  0  0  0  0
    0.5770   24.4250  -28.5300 N   0  0  0  0  0  0  0  0  0  0  0  0
    0.4750   20.4750  -27.9990 C   0  0  0  0  0  0  0  0  0  0  0  0
    1.0260   19.2190  -28.2670 C   0  0  0  0  0  0  0  0  0  0  0  0
    1.1974   16.2794  -26.1482 H   0  0  0  0  0  0  0  0  0  0  0  0
    0.7796   14.9440  -27.2745 H   0  0  0  0  0  0  0  0  0  0  0  0
    2.4385   15.6330  -27.2745 H   0  0  0  0  0  0  0  0  0  0  0  0
   -1.3670   17.2499  -26.8208 H   0  0  0  0  0  0  0  0  0  0  0  0
   -2.3616   19.4893  -26.3656 H   0  0  0  0  0  0  0  0  0  0  0  0
   -3.9125   21.1425  -27.3044 H   0  0  0  0  0  0  0  0  0  0  0  0
   -5.5628   22.3046  -28.7629 H   0  0  0  0  0  0  0  0  0  0  0  0
   -7.2410   24.2610  -29.1580 H   0  0  0  0  0  0  0  0  0  0  0  0
   -9.1281   24.0349  -31.5754 H   0  0  0  0  0  0  0  0  0  0  0  0
  -10.1875   22.0864  -32.7088 H   0  0  0  0  0  0  0  0  0  0  0  0
   -5.9489   21.4776  -30.1384 H   0  0  0  0  0  0  0  0  0  0  0  0
   -5.7099   19.2895  -31.2593 H   0  0  0  0  0  0  0  0  0  0  0  0
   -7.1548   18.6919  -30.3302 H   0  0  0  0  0  0  0  0  0  0  0  0
   -6.3713   17.7352  -34.2648 H   0  0  0  0  0  0  0  0  0  0  0  0
   -7.0776   19.3943  -34.1572 H   0  0  0  0  0  0  0  0  0  0  0  0
   -5.7530   21.2670  -33.5157 H   0  0  0  0  0  0  0  0  0  0  0  0
   -3.4904   22.2024  -33.0920 H   0  0  0  0  0  0  0  0  0  0  0  0
   -0.0893   19.6458  -31.0244 H   0  0  0  0  0  0  0  0  0  0  0  0
   -0.4649   18.7168  -32.5152 H   0  0  0  0  0  0  0  0  0  0  0  0
    0.8770   19.9109  -32.5152 H   0  0  0  0  0  0  0  0  0  0  0  0
   -1.1463   21.3312  -30.4583 H   0  0  0  0  0  0  0  0  0  0  0  0
   -0.3229   22.5277  -31.5153 H   0  0  0  0  0  0  0  0  0  0  0  0
   -2.1155   22.4130  -31.5153 H   0  0  0  0  0  0  0  0  0  0  0  0
    0.1550   22.2573  -33.5558 H   0  0  0  0  0  0  0  0  0  0  0  0
   -0.0068   20.6990  -34.4345 H   0  0  0  0  0  0  0  0  0  0  0  0
   -1.3644   21.8753  -34.4345 H   0  0  0  0  0  0  0  0  0  0  0  0
   -1.9178   18.1794  -32.7016 H   0  0  0  0  0  0  0  0  0  0  0  0
   -4.1786   17.2565  -33.1553 H   0  0  0  0  0  0  0  0  0  0  0  0
   -8.8781   17.4753  -33.3249 H   0  0  0  0  0  0  0  0  0  0  0  0
   -9.0381   17.8319  -31.5450 H   0  0  0  0  0  0  0  0  0  0  0  0
   -9.1997   19.7302  -33.9021 H   0  0  0  0  0  0  0  0  0  0  0  0
  -10.3489   19.4718  -32.5118 H   0  0  0  0  0  0  0  0  0  0  0  0
   -2.4936   25.0776  -30.0356 H   0  0  0  0  0  0  0  0  0  0  0  0
    0.9899   21.3840  -28.3433 H   0  0  0  0  0  0  0  0  0  0  0  0
    1.9770   19.1463  -28.8150 H   0  0  0  0  0  0  0  0  0  0  0  0
  1  2  1  0
  2  3  1  0
  3  4  2  0
  4  5  1  0
  5  6  2  0
  6  7  1  0
  7  8  1  0
  8  9  2  0
  9 10  1  0
 10 11  2  0
 11 12  1  0
 12 13  2  0
 12 14  2  0
 12 15  1  0
 15 16  1  0
 16 17  2  0
 17 18  1  0
 18 19  2  0
 19 20  1  0
 20 21  2  0
 20 22  1  0
 22 23  1  0
 23 24  1  0
 24 25  1  0
 25 26  2  0
 26 27  1  0
 27 28  2  0
 28 29  1  0
 29 30  1  0
 29 31  1  0
 29 32  1  0
 28 33  1  0
 33 34  2  0
 23 35  1  0
 35 36  1  0
 11 37  1  0
 37 38  2  0
 38 39  1  0
 39 40  3  0
  6 41  1  0
 41 42  2  0
 42  3  1  0
 38  8  1  0
 21 16  1  0
 34 25  1  0
 36 19  1  0
  1 43  1  0
  1 44  1  0
  1 45  1  0
  4 46  1  0
  5 47  1  0
  9 48  1  0
 10 49  1  0
 15 50  1  0
 17 51  1  0
 18 52  1  0
 21 53  1  0
 22 54  1  0
 22 55  1  0
 24 56  1  0
 24 57  1  0
 26 58  1  0
 27 59  1  0
 30 60  1  0
 30 61  1  0
 30 62  1  0
 31 63  1  0
 31 64  1  0
 31 65  1  0
 32 66  1  0
 32 67  1  0
 32 68  1  0
 33 69  1  0
 34 70  1  0
 35 71  1  0
 35 72  1  0
 36 73  1  0
 36 74  1  0
 37 75  1  0
 41 76  1  0
 42 77  1  0
M  END
>  <UniqueID>  (15) 
14

>  <SMILES>  (15) 
COc1ccc(Oc2ccc(S(=O)(=O)Nc3ccc4c(c3)CN(Cc3ccc(C(C)(C)C)cc3)CC4)cc2C#N)cc1

>  <Energy>  (15) 
100.9217839024803

>  <Genealogy>  (15) 
COc1ccc(Oc2ccc(S(=O)(=O)Nc3ccc4c(c3)CN(Cc3ccc(C(C)(C)C)cc3)CC4)cc2C#N)cc1 (3D coordinates assigned)
COc1ccc(Oc2ccc(S(=O)(=O)Nc3ccc4c(c3)CN(Cc3ccc(C(C)(C)C)cc3)CC4)cc2C#N)cc1 (nonaromatic ring conformer: 100.9217839024803 kcal/mol)

>  <smiles>  (15) 
COc1ccc(Oc2ccc(S(=O)(=O)Nc3ccc4c(c3)CN(Cc3ccc(C(C)(C)C)cc3)CC4)cc2C#N)cc1

>  <score_type>  (15) 
oracle

>  <origin>  (15) 
adgpu

>  <m_score__min__energy>  (15) 
-12.59

>  <m_primary>  (15) 
energy

$$$$
15:0
     RDKit          3D

 49 53  0  0  0  0  0  0  0  0999 V2000
   -3.3150   23.2390  -31.6150 O   0  0  0  0  0  0  0  0  0  0  0  0
   -3.9950   23.7450  -30.6820 C   0  0  0  0  0  0  0  0  0  0  0  0
   -3.4040   24.6890  -29.7810 N   0  0  0  0  0  0  0  0  0  0  0  0
   -2.5970   24.3840  -28.6330 C   0  0  0  0  0  0  0  0  0  0  0  0
   -2.7470   23.1810  -27.9270 C   0  0  0  0  0  0  0  0  0  0  0  0
   -1.9450   22.9130  -26.8190 C   0  0  0  0  0  0  0  0  0  0  0  0
   -0.9670   23.8230  -26.4110 C   0  0  0  0  0  0  0  0  0  0  0  0
   -0.0430   23.4310  -24.9630 Cl  0  0  0  0  0  0  0  0  0  0  0  0
   -0.7680   25.0190  -27.1370 C   0  0  0  0  0  0  0  0  0  0  0  0
    0.4840   26.1840  -26.6420 S   0  0  0  0  0  0  0  0  0  0  0  0
    0.3790   27.4390  -27.4620 O   0  0  0  0  0  0  0  0  0  0  0  0
    1.8410   25.5920  -26.9020 O   0  0  0  0  0  0  0  0  0  0  0  0
    0.3810   26.6400  -24.9090 C   0  0  0  0  0  0  0  0  0  0  0  0
   -0.3810   27.9320  -24.6630 C   0  0  0  0  0  0  0  0  0  0  0  0
   -0.9940   26.6030  -24.2580 C   0  0  0  0  0  0  0  0  0  0  0  0
   -1.5990   25.2920  -28.2460 C   0  0  0  0  0  0  0  0  0  0  0  0
   -1.4560   26.4750  -28.9660 O   0  0  0  0  0  0  0  0  0  0  0  0
   -5.3690   23.3740  -30.5000 N   0  0  0  0  0  0  0  0  0  0  0  0
   -6.0190   22.2980  -31.1980 C   0  0  0  0  0  0  0  0  0  0  0  0
   -7.4360   22.2600  -31.2430 C   0  0  0  0  0  0  0  0  0  0  0  0
   -8.1080   21.2090  -31.8940 C   0  0  0  0  0  0  0  0  0  0  0  0
   -9.8620   21.1660  -31.9600 Cl  0  0  0  0  0  0  0  0  0  0  0  0
   -7.3350   20.2070  -32.4760 C   0  0  0  0  0  0  0  0  0  0  0  0
   -7.7580   19.1150  -33.1310 N   0  0  0  0  0  0  0  0  0  0  0  0
   -6.5920   18.5000  -33.4540 C   0  0  0  0  0  0  0  0  0  0  0  0
   -6.5740   17.3770  -34.1110 N   0  0  0  0  0  0  0  0  0  0  0  0
   -5.4060   16.6400  -34.5050 C   0  0  0  0  0  0  0  0  0  0  0  0
   -4.6820   17.0360  -35.4610 O   0  0  0  0  0  0  0  0  0  0  0  0
   -5.0680   15.3820  -33.7530 C   0  0  0  0  0  0  0  0  0  0  0  0
   -3.7150   15.3760  -33.0570 C   0  0  0  0  0  0  0  0  0  0  0  0
   -4.9920   15.5060  -32.2380 C   0  0  0  0  0  0  0  0  0  0  0  0
   -5.4700   19.1460  -33.0360 N   0  0  0  0  0  0  0  0  0  0  0  0
   -5.9760   20.2260  -32.4210 C   0  0  0  0  0  0  0  0  0  0  0  0
   -5.2750   21.2470  -31.7860 C   0  0  0  0  0  0  0  0  0  0  0  0
   -3.5001   22.4467  -28.2490 H   0  0  0  0  0  0  0  0  0  0  0  0
   -2.0836   21.9756  -26.2604 H   0  0  0  0  0  0  0  0  0  0  0  0
    1.3618   26.2239  -24.6354 H   0  0  0  0  0  0  0  0  0  0  0  0
   -0.0352   28.6357  -23.8915 H   0  0  0  0  0  0  0  0  0  0  0  0
   -0.7016   28.7767  -25.2904 H   0  0  0  0  0  0  0  0  0  0  0  0
   -1.0917   26.3440  -23.1934 H   0  0  0  0  0  0  0  0  0  0  0  0
   -1.9416   26.0865  -24.4706 H   0  0  0  0  0  0  0  0  0  0  0  0
   -5.9520   23.9850  -29.8830 H   0  0  0  0  0  0  0  0  0  0  0  0
   -8.0166   23.0617  -30.7633 H   0  0  0  0  0  0  0  0  0  0  0  0
   -5.5915   14.7123  -34.4512 H   0  0  0  0  0  0  0  0  0  0  0  0
   -3.1241   14.4493  -33.0112 H   0  0  0  0  0  0  0  0  0  0  0  0
   -2.7888   15.9618  -33.1520 H   0  0  0  0  0  0  0  0  0  0  0  0
   -5.3239   14.6732  -31.6006 H   0  0  0  0  0  0  0  0  0  0  0  0
   -5.3708   16.2245  -31.4962 H   0  0  0  0  0  0  0  0  0  0  0  0
   -4.1759   21.2375  -31.7424 H   0  0  0  0  0  0  0  0  0  0  0  0
  1  2  2  0
  2  3  1  0
  3  4  1  0
  4  5  2  0
  5  6  1  0
  6  7  2  0
  7  8  1  0
  7  9  1  0
  9 10  1  0
 10 11  2  0
 10 12  2  0
 10 13  1  0
 13 14  1  0
 14 15  1  0
  9 16  2  0
 16 17  1  0
  2 18  1  0
 18 19  1  0
 19 20  2  0
 20 21  1  0
 21 22  1  0
 21 23  2  0
 23 24  1  0
 24 25  1  0
 25 26  2  3
 26 27  1  0
 27 28  2  0
 27 29  1  0
 29 30  1  0
 30 31  1  0
 25 32  1  0
 32 33  1  0
 33 34  2  0
 16  4  1  0
 34 19  1  0
 15 13  1  0
 33 23  1  0
 31 29  1  0
  5 35  1  0
  6 36  1  0
 13 37  1  0
 14 38  1  0
 14 39  1  0
 15 40  1  0
 15 41  1  0
 18 42  1  0
 20 43  1  0
 29 44  1  0
 30 45  1  0
 30 46  1  0
 31 47  1  0
 31 48  1  0
 34 49  1  0
M  CHG  4   3  -1  17  -1  24  -1  32  -1
M  END
>  <UniqueID>  (16) 
15

>  <SMILES>  (16) 
O=C([N-]c1ccc(Cl)c(S(=O)(=O)C2CC2)c1[O-])Nc1cc(Cl)c2[n-]c(=NC(=O)C3CC3)[n-]c2c1

>  <Energy>  (16) 
628.7822753060709

>  <Genealogy>  (16) 
O=C([N-]c1ccc(Cl)c(S(=O)(=O)C2CC2)c1[O-])Nc1cc(Cl)c2[n-]c(=NC(=O)C3CC3)[n-]c2c1 (protonated)
O=C([N-]c1ccc(Cl)c(S(=O)(=O)C2CC2)c1[O-])Nc1cc(Cl)c2[n-]c(=NC(=O)C3CC3)[n-]c2c1 (3D coordinates assigned)
O=C([N-]c1ccc(Cl)c(S(=O)(=O)C2CC2)c1[O-])Nc1cc(Cl)c2[n-]c(=NC(=O)C3CC3)[n-]c2c1 (nonaromatic ring conformer: 628.7822753060709 kcal/mol)

>  <smiles>  (16) 
O=C(Nc1cc(Cl)c2[nH]c(=NC(=O)C3CC3)[nH]c2c1)Nc1ccc(Cl)c(S(=O)(=O)C2CC2)c1O

>  <score_type>  (16) 
oracle

>  <origin>  (16) 
adgpu

>  <m_score__min__energy>  (16) 
-13.42

>  <m_primary>  (16) 
energy

$$$$
16:0
     RDKit          3D

 44 46  0  0  0  0  0  0  0  0999 V2000
   -5.4550   15.5730  -33.1240 C   0  0  0  0  0  0  0  0  0  0  0  0
   -5.2030   17.0230  -33.5330 C   0  0  1  0  0  0  0  0  0  0  0  0
   -6.5190   17.7090  -33.9750 C   0  0  0  0  0  0  0  0  0  0  0  0
   -6.4600   19.1880  -33.8640 N   0  0  0  0  0  0  0  0  0  0  0  0
   -7.3080   19.7600  -32.4410 S   0  0  0  0  0  0  0  0  0  0  0  0
   -8.7710   19.9440  -32.7340 O   0  0  0  0  0  0  0  0  0  0  0  0
   -7.1650   18.7730  -31.3160 O   0  0  0  0  0  0  0  0  0  0  0  0
   -6.6110   21.2960  -31.9280 C   0  0  0  0  0  0  0  0  0  0  0  0
   -5.3740   21.3350  -31.2710 C   0  0  0  0  0  0  0  0  0  0  0  0
   -4.8370   22.5570  -30.8540 C   0  0  0  0  0  0  0  0  0  0  0  0
   -5.5260   23.7570  -31.0990 C   0  0  0  0  0  0  0  0  0  0  0  0
   -4.9550   25.0470  -30.6460 C   0  0  0  0  0  0  0  0  0  0  0  0
   -5.7230   26.0270  -30.4520 O   0  0  0  0  0  0  0  0  0  0  0  0
   -3.5450   25.2340  -30.4620 N   0  0  0  0  0  0  0  0  0  0  0  0
   -2.7960   24.8160  -29.3160 C   0  0  0  0  0  0  0  0  0  0  0  0
   -3.1990   23.9860  -28.2930 C   0  0  0  0  0  0  0  0  0  0  0  0
   -2.2090   23.9280  -27.3810 N   0  0  0  0  0  0  0  0  0  0  0  0
   -1.2080   24.6980  -27.7880 N   0  0  0  0  0  0  0  0  0  0  0  0
   -1.5450   25.2600  -28.9650 C   0  0  0  0  0  0  0  0  0  0  0  0
   -6.7770   23.7080  -31.7370 C   0  0  0  0  0  0  0  0  0  0  0  0
   -7.3110   22.4870  -32.1520 C   0  0  0  0  0  0  0  0  0  0  0  0
   -5.0730   19.6900  -33.9040 C   0  0  0  0  0  0  0  0  0  0  0  0
   -4.1910   19.0180  -32.8160 C   0  0  2  0  0  0  0  0  0  0  0  0
   -2.7140   18.9940  -33.2170 C   0  0  0  0  0  0  0  0  0  0  0  0
   -4.6240   17.7150  -32.4440 O   0  0  0  0  0  0  0  0  0  0  0  0
   -5.4679   15.4985  -32.0266 H   0  0  0  0  0  0  0  0  0  0  0  0
   -6.4241   15.2419  -33.5254 H   0  0  0  0  0  0  0  0  0  0  0  0
   -4.6544   14.9344  -33.5254 H   0  0  0  0  0  0  0  0  0  0  0  0
   -4.5135   17.0423  -34.3899 H   0  0  0  0  0  0  0  0  0  0  0  0
   -6.7198   17.4426  -35.0232 H   0  0  0  0  0  0  0  0  0  0  0  0
   -7.3178   17.3574  -33.3054 H   0  0  0  0  0  0  0  0  0  0  0  0
   -6.9630   19.5970  -34.6860 H   0  0  0  0  0  0  0  0  0  0  0  0
   -4.8236   20.4014  -31.0826 H   0  0  0  0  0  0  0  0  0  0  0  0
   -3.8695   22.5790  -30.3311 H   0  0  0  0  0  0  0  0  0  0  0  0
   -4.1635   23.4608  -28.2313 H   0  0  0  0  0  0  0  0  0  0  0  0
   -0.9232   25.9567  -29.5465 H   0  0  0  0  0  0  0  0  0  0  0  0
   -7.3389   24.6376  -31.9105 H   0  0  0  0  0  0  0  0  0  0  0  0
   -8.2874   22.4607  -32.6579 H   0  0  0  0  0  0  0  0  0  0  0  0
   -4.6441   19.4757  -34.8940 H   0  0  0  0  0  0  0  0  0  0  0  0
   -5.0929   20.7727  -33.7109 H   0  0  0  0  0  0  0  0  0  0  0  0
   -4.3090   19.6524  -31.9251 H   0  0  0  0  0  0  0  0  0  0  0  0
   -2.0885   18.9838  -32.3122 H   0  0  0  0  0  0  0  0  0  0  0  0
   -2.5106   18.0924  -33.8135 H   0  0  0  0  0  0  0  0  0  0  0  0
   -2.4814   19.8885  -33.8135 H   0  0  0  0  0  0  0  0  0  0  0  0
  1  2  1  0
  2  3  1  0
  3  4  1  0
  4  5  1  0
  5  6  2  0
  5  7  2  0
  5  8  1  0
  8  9  2  0
  9 10  1  0
 10 11  2  0
 11 12  1  0
 12 13  2  0
 12 14  1  0
 14 15  1  0
 15 16  1  0
 16 17  2  0
 17 18  1  0
 18 19  1  0
 11 20  1  0
 20 21  2  0
  4 22  1  0
 22 23  1  0
 23 24  1  0
 23 25  1  0
 25  2  1  0
 21  8  1  0
 19 15  2  0
  1 26  1  0
  1 27  1  0
  1 28  1  0
  2 29  1  6
  3 30  1  0
  3 31  1  0
  4 32  1  0
  9 33  1  0
 10 34  1  0
 16 35  1  0
 19 36  1  0
 20 37  1  0
 21 38  1  0
 22 39  1  0
 22 40  1  0
 23 41  1  1
 24 42  1  0
 24 43  1  0
 24 44  1  0
M  CHG  3   4   1  14  -1  18  -1
M  END
>  <UniqueID>  (17) 
16

>  <SMILES>  (17) 
C[C@H]1C[NH+](S(=O)(=O)c2ccc(C(=O)[N-]c3cn[n-]c3)cc2)C[C@H](C)O1

>  <Energy>  (17) 
89.11800918496314

>  <Genealogy>  (17) 
CC1C[NH+](S(=O)(=O)c2ccc(C(=O)[N-]c3cn[n-]c3)cc2)CC(C)O1 (protonated)
C[C@H]1C[NH+](S(=O)(=O)c2ccc(C(=O)[N-]c3cn[n-]c3)cc2)C[C@H](C)O1 (chirality)
C[C@H]1C[NH+](S(=O)(=O)c2ccc(C(=O)[N-]c3cn[n-]c3)cc2)C[C@H](C)O1 (3D coordinates assigned)
C[C@H]1C[NH+](S(=O)(=O)c2ccc(C(=O)[N-]c3cn[n-]c3)cc2)C[C@H](C)O1 (nonaromatic ring conformer: 89.11800918496314 kcal/mol)

>  <smiles>  (17) 
CC1CN(S(=O)(=O)c2ccc(C(=O)Nc3cn[nH]c3)cc2)CC(C)O1

>  <score_type>  (17) 
oracle

>  <origin>  (17) 
adgpu

>  <m_score__min__energy>  (17) 
-10.77

>  <m_primary>  (17) 
energy

$$$$
17:0
     RDKit          3D

 53 56  0  0  0  0  0  0  0  0999 V2000
   -4.6300   23.8290  -28.4600 O   0  0  0  0  0  0  0  0  0  0  0  0
   -4.3750   23.5790  -29.9200 S   0  0  0  0  0  0  0  0  0  0  0  0
   -3.8390   24.8360  -30.5480 O   0  0  0  0  0  0  0  0  0  0  0  0
   -5.8820   23.1310  -30.7130 C   0  0  0  0  0  0  0  0  0  0  0  0
   -6.8410   24.1070  -31.0170 C   0  0  0  0  0  0  0  0  0  0  0  0
   -8.0440   23.7420  -31.6280 C   0  0  0  0  0  0  0  0  0  0  0  0
   -8.2990   22.4010  -31.9290 C   0  0  0  0  0  0  0  0  0  0  0  0
   -7.3530   21.4170  -31.6130 C   0  0  0  0  0  0  0  0  0  0  0  0
   -7.6520   19.7240  -31.9990 S   0  0  0  0  0  0  0  0  0  0  0  0
   -8.3700   19.0950  -30.8360 O   0  0  0  0  0  0  0  0  0  0  0  0
   -8.5350   19.6280  -33.2140 O   0  0  0  0  0  0  0  0  0  0  0  0
   -6.1350   18.8970  -32.2860 N   0  0  0  0  0  0  0  0  0  0  0  0
   -6.2900   17.4310  -32.0860 C   0  0  0  0  0  0  0  0  0  0  0  0
   -5.0060   16.5970  -32.3120 C   0  0  0  0  0  0  0  0  0  0  0  0
   -4.3260   16.7460  -33.6960 C   0  0  0  0  0  0  0  0  0  0  0  0
   -5.2770   17.0370  -34.8700 C   0  0  0  0  0  0  0  0  0  0  0  0
   -6.0280   18.3810  -34.7590 C   0  0  0  0  0  0  0  0  0  0  0  0
   -5.5960   19.3040  -33.6020 C   0  0  0  0  0  0  0  0  0  0  0  0
   -6.1450   21.7860  -31.0070 C   0  0  0  0  0  0  0  0  0  0  0  0
   -3.2200   22.3000  -30.0970 N   0  0  0  0  0  0  0  0  0  0  0  0
   -2.4250   21.7370  -29.0080 C   0  0  0  0  0  0  0  0  0  0  0  0
   -1.5470   20.6350  -29.6520 C   0  0  0  0  0  0  0  0  0  0  0  0
   -1.9400   20.6760  -31.0900 C   0  0  0  0  0  0  0  0  0  0  0  0
   -1.4600   19.8890  -32.1380 C   0  0  0  0  0  0  0  0  0  0  0  0
   -1.9770   20.1030  -33.4280 C   0  0  0  0  0  0  0  0  0  0  0  0
   -2.9560   21.0920  -33.6440 C   0  0  0  0  0  0  0  0  0  0  0  0
   -3.4240   21.8710  -32.5720 C   0  0  0  0  0  0  0  0  0  0  0  0
   -2.8920   21.6360  -31.3010 C   0  0  0  0  0  0  0  0  0  0  0  0
   -6.6465   25.1621  -30.7743 H   0  0  0  0  0  0  0  0  0  0  0  0
   -8.7913   24.5113  -31.8724 H   0  0  0  0  0  0  0  0  0  0  0  0
   -9.2443   22.1177  -32.4149 H   0  0  0  0  0  0  0  0  0  0  0  0
   -5.4750   19.2460  -31.5520 H   0  0  0  0  0  0  0  0  0  0  0  0
   -6.6284   17.2621  -31.0530 H   0  0  0  0  0  0  0  0  0  0  0  0
   -7.0114   17.0934  -32.8447 H   0  0  0  0  0  0  0  0  0  0  0  0
   -4.2747   16.8932  -31.5456 H   0  0  0  0  0  0  0  0  0  0  0  0
   -5.3247   15.5458  -32.2532 H   0  0  0  0  0  0  0  0  0  0  0  0
   -3.6031   17.5726  -33.6318 H   0  0  0  0  0  0  0  0  0  0  0  0
   -3.8646   15.7715  -33.9138 H   0  0  0  0  0  0  0  0  0  0  0  0
   -4.6862   17.0478  -35.7978 H   0  0  0  0  0  0  0  0  0  0  0  0
   -6.0417   16.2463  -34.8603 H   0  0  0  0  0  0  0  0  0  0  0  0
   -5.8776   18.9292  -35.7007 H   0  0  0  0  0  0  0  0  0  0  0  0
   -7.0761   18.1185  -34.5529 H   0  0  0  0  0  0  0  0  0  0  0  0
   -4.4975   19.2985  -33.5445 H   0  0  0  0  0  0  0  0  0  0  0  0
   -5.9989   20.3041  -33.8199 H   0  0  0  0  0  0  0  0  0  0  0  0
   -5.3990   21.0161  -30.7606 H   0  0  0  0  0  0  0  0  0  0  0  0
   -1.7925   22.5141  -28.5541 H   0  0  0  0  0  0  0  0  0  0  0  0
   -3.0629   21.3309  -28.2092 H   0  0  0  0  0  0  0  0  0  0  0  0
   -0.4777   20.8622  -29.5296 H   0  0  0  0  0  0  0  0  0  0  0  0
   -1.6954   19.6458  -29.1944 H   0  0  0  0  0  0  0  0  0  0  0  0
   -0.6950   19.1192  -31.9589 H   0  0  0  0  0  0  0  0  0  0  0  0
   -1.6156   19.4960  -34.2711 H   0  0  0  0  0  0  0  0  0  0  0  0
   -3.3559   21.2554  -34.6556 H   0  0  0  0  0  0  0  0  0  0  0  0
   -4.1891   22.6456  -32.7291 H   0  0  0  0  0  0  0  0  0  0  0  0
  1  2  2  0
  2  3  2  0
  2  4  1  0
  4  5  2  0
  5  6  1  0
  6  7  2  0
  7  8  1  0
  8  9  1  0
  9 10  2  0
  9 11  2  0
  9 12  1  0
 12 13  1  0
 13 14  1  0
 14 15  1  0
 15 16  1  0
 16 17  1  0
 17 18  1  0
  8 19  2  0
  2 20  1  0
 20 21  1  0
 21 22  1  0
 22 23  1  0
 23 24  2  0
 24 25  1  0
 25 26  2  0
 26 27  1  0
 27 28  2  0
 19  4  1  0
 28 20  1  0
 18 12  1  0
 28 23  1  0
  5 29  1  0
  6 30  1  0
  7 31  1  0
 12 32  1  0
 13 33  1  0
 13 34  1  0
 14 35  1  0
 14 36  1  0
 15 37  1  0
 15 38  1  0
 16 39  1  0
 16 40  1  0
 17 41  1  0
 17 42  1  0
 18 43  1  0
 18 44  1  0
 19 45  1  0
 21 46  1  0
 21 47  1  0
 22 48  1  0
 22 49  1  0
 24 50  1  0
 25 51  1  0
 26 52  1  0
 27 53  1  0
M  CHG  1  12   1
M  END
>  <UniqueID>  (18) 
17

>  <SMILES>  (18) 
O=S(=O)(c1cccc(S(=O)(=O)[NH+]2CCCCCC2)c1)N1CCc2ccccc21

>  <Energy>  (18) 
83.55553819134478

>  <Genealogy>  (18) 
O=S(=O)(c1cccc(S(=O)(=O)[NH+]2CCCCCC2)c1)N1CCc2ccccc21 (protonated)
O=S(=O)(c1cccc(S(=O)(=O)[NH+]2CCCCCC2)c1)N1CCc2ccccc21 (3D coordinates assigned)
O=S(=O)(c1cccc(S(=O)(=O)[NH+]2CCCCCC2)c1)N1CCc2ccccc21 (nonaromatic ring conformer: 83.55553819134478 kcal/mol)

>  <smiles>  (18) 
O=S(=O)(c1cccc(S(=O)(=O)N2CCc3ccccc32)c1)N1CCCCCC1

>  <score_type>  (18) 
oracle

>  <origin>  (18) 
adgpu

>  <m_score__min__energy>  (18) 
-8.1500000000000004

>  <m_primary>  (18) 
energy

$$$$
18:0
     RDKit          3D

 40 42  0  0  0  0  0  0  0  0999 V2000
   -1.5300   22.9800  -29.5610 O   0  0  0  0  0  0  0  0  0  0  0  0
   -2.3320   23.9340  -29.7590 C   0  0  0  0  0  0  0  0  0  0  0  0
   -1.9920   25.2510  -29.3050 N   0  0  0  0  0  0  0  0  0  0  0  0
   -1.6590   25.6370  -27.9640 C   0  0  0  0  0  0  0  0  0  0  0  0
   -0.6090   26.5260  -27.6740 C   0  0  0  0  0  0  0  0  0  0  0  0
   -0.3140   26.8460  -26.3470 C   0  0  0  0  0  0  0  0  0  0  0  0
   -1.0590   26.2650  -25.3210 C   0  0  0  0  0  0  0  0  0  0  0  0
   -2.0560   25.3890  -25.6150 N   0  0  0  0  0  0  0  0  0  0  0  0
   -2.3620   25.0610  -26.8990 C   0  0  0  0  0  0  0  0  0  0  0  0
   -3.5920   23.6920  -30.5120 C   0  0  0  0  0  0  0  0  0  0  0  0
   -3.9100   22.3810  -30.9230 C   0  0  0  0  0  0  0  0  0  0  0  0
   -5.0890   22.1150  -31.6310 C   0  0  0  0  0  0  0  0  0  0  0  0
   -5.4600   20.4660  -32.1290 S   0  0  0  0  0  0  0  0  0  0  0  0
   -4.3380   19.5670  -31.6920 O   0  0  0  0  0  0  0  0  0  0  0  0
   -5.5920   20.4020  -33.6270 O   0  0  0  0  0  0  0  0  0  0  0  0
   -6.9570   19.9490  -31.3920 N   0  0  0  0  0  0  0  0  0  0  0  0
   -8.0530   20.9040  -31.6760 C   0  0  0  0  0  0  0  0  0  0  0  0
   -9.0570   20.3510  -32.7030 C   0  0  0  0  0  0  0  0  0  0  0  0
   -9.6480   19.1260  -32.2990 O   0  0  0  0  0  0  0  0  0  0  0  0
   -8.7630   18.2660  -31.5910 C   0  0  0  0  0  0  0  0  0  0  0  0
   -7.2720   18.5700  -31.8110 C   0  0  0  0  0  0  0  0  0  0  0  0
   -5.9610   23.1620  -31.9450 C   0  0  0  0  0  0  0  0  0  0  0  0
   -5.6620   24.4630  -31.5450 C   0  0  0  0  0  0  0  0  0  0  0  0
   -4.4910   24.7370  -30.8300 C   0  0  0  0  0  0  0  0  0  0  0  0
   -4.2440   26.0490  -30.4420 O   0  0  0  0  0  0  0  0  0  0  0  0
   -0.0207   26.9688  -28.4912 H   0  0  0  0  0  0  0  0  0  0  0  0
    0.4984   27.5498  -26.1131 H   0  0  0  0  0  0  0  0  0  0  0  0
   -0.8395   26.5159  -24.2727 H   0  0  0  0  0  0  0  0  0  0  0  0
   -3.1666   24.3389  -27.1019 H   0  0  0  0  0  0  0  0  0  0  0  0
   -3.2227   21.5560  -30.6843 H   0  0  0  0  0  0  0  0  0  0  0  0
   -8.5874   21.1184  -30.7387 H   0  0  0  0  0  0  0  0  0  0  0  0
   -7.6048   21.8148  -32.0998 H   0  0  0  0  0  0  0  0  0  0  0  0
   -9.8552   21.0940  -32.8475 H   0  0  0  0  0  0  0  0  0  0  0  0
   -8.5021   20.1568  -33.6327 H   0  0  0  0  0  0  0  0  0  0  0  0
   -8.9784   18.3596  -30.5164 H   0  0  0  0  0  0  0  0  0  0  0  0
   -8.9368   17.2503  -31.9759 H   0  0  0  0  0  0  0  0  0  0  0  0
   -6.6682   17.8656  -31.2201 H   0  0  0  0  0  0  0  0  0  0  0  0
   -7.0419   18.4628  -32.8813 H   0  0  0  0  0  0  0  0  0  0  0  0
   -6.8837   22.9586  -32.5082 H   0  0  0  0  0  0  0  0  0  0  0  0
   -6.3529   25.2820  -31.7937 H   0  0  0  0  0  0  0  0  0  0  0  0
  1  2  2  0
  2  3  1  0
  3  4  1  0
  4  5  2  0
  5  6  1  0
  6  7  2  0
  7  8  1  0
  8  9  2  0
  2 10  1  0
 10 11  2  0
 11 12  1  0
 12 13  1  0
 13 14  2  0
 13 15  2  0
 13 16  1  0
 16 17  1  0
 17 18  1  0
 18 19  1  0
 19 20  1  0
 20 21  1  0
 12 22  2  0
 22 23  1  0
 23 24  2  0
 24 25  1  0
  9  4  1  0
 24 10  1  0
 21 16  1  0
  5 26  1  0
  6 27  1  0
  7 28  1  0
  9 29  1  0
 11 30  1  0
 17 31  1  0
 17 32  1  0
 18 33  1  0
 18 34  1  0
 20 35  1  0
 20 36  1  0
 21 37  1  0
 21 38  1  0
 22 39  1  0
 23 40  1  0
M  CHG  2   3  -1  25  -1
M  END
>  <UniqueID>  (19) 
18

>  <SMILES>  (19) 
O=C([N-]c1cccnc1)c1cc(S(=O)(=O)N2CCOCC2)ccc1[O-]

>  <Energy>  (19) 
61.07892843318423

>  <Genealogy>  (19) 
O=C([N-]c1cccnc1)c1cc(S(=O)(=O)N2CCOCC2)ccc1[O-] (protonated)
O=C([N-]c1cccnc1)c1cc(S(=O)(=O)N2CCOCC2)ccc1[O-] (3D coordinates assigned)
O=C([N-]c1cccnc1)c1cc(S(=O)(=O)N2CCOCC2)ccc1[O-] (nonaromatic ring conformer: 61.07892843318423 kcal/mol)

>  <smiles>  (19) 
O=C(Nc1cccnc1)c1cc(S(=O)(=O)N2CCOCC2)ccc1O

>  <score_type>  (19) 
oracle

>  <origin>  (19) 
adgpu

>  <m_score__min__energy>  (19) 
-11.99

>  <m_primary>  (19) 
energy

$$$$
19:0
     RDKit          3D

 27 29  0  0  0  0  0  0  0  0999 V2000
   -5.3092   18.8795  -34.9775 H   0  0  0  0  0  0  0  0  0  0  0  0
   -5.6710   19.2940  -34.0250 C   0  0  0  0  0  0  0  0  0  0  0  0
   -5.3900   20.5820  -33.6940 N   0  0  0  0  0  0  0  0  0  0  0  0
   -5.8070   21.1470  -32.5270 C   0  0  0  0  0  0  0  0  0  0  0  0
   -5.4940   22.3920  -32.3030 N   0  0  0  0  0  0  0  0  0  0  0  0
   -5.7260   23.1920  -31.1300 C   0  0  0  0  0  0  0  0  0  0  0  0
   -6.8700   23.6480  -30.8690 O   0  0  0  0  0  0  0  0  0  0  0  0
   -4.6370   23.4090  -30.1680 C   0  0  0  0  0  0  0  0  0  0  0  0
   -4.2890   22.5280  -29.2440 O   0  0  0  0  0  0  0  0  0  0  0  0
   -3.2890   23.0380  -28.5600 C   0  0  0  0  0  0  0  0  0  0  0  0
   -2.6080   22.4580  -27.4930 C   0  0  0  0  0  0  0  0  0  0  0  0
   -2.8797   21.4587  -27.1220 H   0  0  0  0  0  0  0  0  0  0  0  0
   -1.5600   23.1920  -26.9040 C   0  0  0  0  0  0  0  0  0  0  0  0
   -1.0012   22.7637  -26.0588 H   0  0  0  0  0  0  0  0  0  0  0  0
   -1.2210   24.4750  -27.3910 C   0  0  0  0  0  0  0  0  0  0  0  0
   -0.4002   25.0385  -26.9232 H   0  0  0  0  0  0  0  0  0  0  0  0
   -1.9280   25.0350  -28.4710 C   0  0  0  0  0  0  0  0  0  0  0  0
   -1.6050   26.2960  -28.9590 O   0  0  0  0  0  0  0  0  0  0  0  0
   -2.9600   24.2830  -29.0320 C   0  0  0  0  0  0  0  0  0  0  0  0
   -3.8230   24.5330  -30.0700 C   0  0  0  0  0  0  0  0  0  0  0  0
   -3.8710   25.6780  -30.8570 O   0  0  0  0  0  0  0  0  0  0  0  0
   -6.5820   20.3710  -31.6360 C   0  0  0  0  0  0  0  0  0  0  0  0
   -6.9487   20.8082  -30.6956 H   0  0  0  0  0  0  0  0  0  0  0  0
   -6.8790   19.0450  -31.9580 C   0  0  0  0  0  0  0  0  0  0  0  0
   -7.4760   18.4321  -31.2667 H   0  0  0  0  0  0  0  0  0  0  0  0
   -6.4190   18.4970  -33.1560 C   0  0  0  0  0  0  0  0  0  0  0  0
   -6.8210   16.6870  -33.6100 Br  0  0  0  0  0  0  0  0  0  0  0  0
  1  2  1  0
  2  3  1  0
  3  4  1  0
  4  5  2  0
  5  6  1  0
  6  7  2  0
  6  8  1  0
  8  9  1  0
  9 10  1  0
 10 11  2  0
 11 12  1  0
 11 13  1  0
 13 14  1  0
 13 15  2  0
 15 16  1  0
 15 17  1  0
 17 18  1  0
 17 19  2  0
 19 20  1  0
 20 21  1  0
  4 22  1  0
 22 23  1  0
 22 24  2  0
 24 25  1  0
 24 26  1  0
 26 27  1  0
 26  2  2  0
 20  8  2  0
 19 10  1  0
M  CHG  3   3  -1  18  -1  21  -1
M  END
>  <UniqueID>  (20) 
19

>  <SMILES>  (20) 
O=C(/N=c1\ccc(Br)c[n-]1)c1oc2cccc([O-])c2c1[O-]

>  <Energy>  (20) 
73.98592215894149

>  <Genealogy>  (20) 
O=C(N=c1ccc(Br)c[n-]1)c1oc2cccc([O-])c2c1[O-] (protonated)
O=C(/N=c1\ccc(Br)c[n-]1)c1oc2cccc([O-])c2c1[O-] (cis-trans isomerization)
O=C(/N=c1\ccc(Br)c[n-]1)c1oc2cccc([O-])c2c1[O-] (3D coordinates assigned)
O=C(/N=c1\ccc(Br)c[n-]1)c1oc2cccc([O-])c2c1[O-] (optimized conformer: 73.98592215894149 kcal/mol)

>  <smiles>  (20) 
O=C(N=c1ccc(Br)c[nH]1)c1oc2cccc(O)c2c1O

>  <score_type>  (20) 
oracle

>  <origin>  (20) 
adgpu

>  <m_score__min__energy>  (20) 
-13.91

>  <m_primary>  (20) 
energy

$$$$
20:0
     RDKit          3D

 42 44  0  0  0  0  0  0  0  0999 V2000
   -3.8900   20.2150  -33.8460 N   0  0  0  0  0  0  0  0  0  0  0  0
   -4.8000   18.7450  -33.8730 S   0  0  0  0  0  0  0  0  0  0  0  0
   -5.0010   18.3240  -35.3010 O   0  0  0  0  0  0  0  0  0  0  0  0
   -4.0290   17.6840  -33.1370 O   0  0  0  0  0  0  0  0  0  0  0  0
   -6.3740   18.9720  -33.0990 C   0  0  0  0  0  0  0  0  0  0  0  0
   -6.7290   20.2370  -32.6060 C   0  0  0  0  0  0  0  0  0  0  0  0
   -7.9680   20.4390  -31.9860 C   0  0  0  0  0  0  0  0  0  0  0  0
   -8.3720   22.0270  -31.3440 S   0  0  0  0  0  0  0  0  0  0  0  0
   -9.1300   22.8090  -32.3800 O   0  0  0  0  0  0  0  0  0  0  0  0
   -9.2390   21.8980  -30.1230 O   0  0  0  0  0  0  0  0  0  0  0  0
   -6.8800   22.8570  -30.9190 C   0  0  0  0  0  0  0  0  0  0  0  0
   -5.7860   22.1230  -30.4440 C   0  0  0  0  0  0  0  0  0  0  0  0
   -4.5830   22.7680  -30.1420 C   0  0  0  0  0  0  0  0  0  0  0  0
   -4.4570   24.1540  -30.3330 C   0  0  0  0  0  0  0  0  0  0  0  0
   -3.2360   24.8470  -30.0370 N   0  0  0  0  0  0  0  0  0  0  0  0
   -2.0920   24.2930  -29.3720 C   0  0  0  0  0  0  0  0  0  0  0  0
   -1.5040   23.3140  -29.9040 O   0  0  0  0  0  0  0  0  0  0  0  0
   -1.6290   24.7970  -28.0560 C   0  0  0  0  0  0  0  0  0  0  0  0
   -1.5870   23.9310  -26.9470 C   0  0  0  0  0  0  0  0  0  0  0  0
   -1.1510   24.3940  -25.7030 C   0  0  0  0  0  0  0  0  0  0  0  0
   -0.7420   25.7200  -25.5520 C   0  0  0  0  0  0  0  0  0  0  0  0
   -0.7670   26.5870  -26.6470 C   0  0  0  0  0  0  0  0  0  0  0  0
   -1.2070   26.1340  -27.8960 C   0  0  0  0  0  0  0  0  0  0  0  0
   -1.2370   27.0230  -28.9660 O   0  0  0  0  0  0  0  0  0  0  0  0
   -5.5610   24.8880  -30.7850 C   0  0  0  0  0  0  0  0  0  0  0  0
   -6.7630   24.2430  -31.0880 C   0  0  0  0  0  0  0  0  0  0  0  0
   -8.8570   19.3670  -31.8470 C   0  0  0  0  0  0  0  0  0  0  0  0
   -8.5140   18.1050  -32.3360 C   0  0  0  0  0  0  0  0  0  0  0  0
   -7.2800   17.8990  -32.9620 C   0  0  0  0  0  0  0  0  0  0  0  0
   -6.9060   16.2830  -33.5530 Cl  0  0  0  0  0  0  0  0  0  0  0  0
   -3.4970   20.3130  -32.8830 H   0  0  0  0  0  0  0  0  0  0  0  0
   -6.0272   21.0779  -32.7076 H   0  0  0  0  0  0  0  0  0  0  0  0
   -5.8736   21.0350  -30.3080 H   0  0  0  0  0  0  0  0  0  0  0  0
   -3.7325   22.1884  -29.7536 H   0  0  0  0  0  0  0  0  0  0  0  0
   -1.8996   22.8825  -27.0606 H   0  0  0  0  0  0  0  0  0  0  0  0
   -1.1300   23.7118  -24.8403 H   0  0  0  0  0  0  0  0  0  0  0  0
   -0.4001   26.0821  -24.5712 H   0  0  0  0  0  0  0  0  0  0  0  0
   -0.4395   27.6302  -26.5271 H   0  0  0  0  0  0  0  0  0  0  0  0
   -5.4813   25.9788  -30.9022 H   0  0  0  0  0  0  0  0  0  0  0  0
   -7.6193   24.8247  -31.4600 H   0  0  0  0  0  0  0  0  0  0  0  0
   -9.8274   19.5189  -31.3518 H   0  0  0  0  0  0  0  0  0  0  0  0
   -9.2187   17.2672  -32.2283 H   0  0  0  0  0  0  0  0  0  0  0  0
  1  2  1  0
  2  3  2  0
  2  4  2  0
  2  5  1  0
  5  6  2  0
  6  7  1  0
  7  8  1  0
  8  9  2  0
  8 10  2  0
  8 11  1  0
 11 12  2  0
 12 13  1  0
 13 14  2  0
 14 15  1  0
 15 16  1  0
 16 17  2  0
 16 18  1  0
 18 19  2  0
 19 20  1  0
 20 21  2  0
 21 22  1  0
 22 23  2  0
 23 24  1  0
 14 25  1  0
 25 26  2  0
  7 27  2  0
 27 28  1  0
 28 29  2  0
 29 30  1  0
 29  5  1  0
 26 11  1  0
 23 18  1  0
  1 31  1  0
  6 32  1  0
 12 33  1  0
 13 34  1  0
 19 35  1  0
 20 36  1  0
 21 37  1  0
 22 38  1  0
 25 39  1  0
 26 40  1  0
 27 41  1  0
 28 42  1  0
M  CHG  3   1  -1  15  -1  24  -1
M  END
>  <UniqueID>  (21) 
20

>  <SMILES>  (21) 
[NH-]S(=O)(=O)c1cc(S(=O)(=O)c2ccc([N-]C(=O)c3ccccc3[O-])cc2)ccc1Cl

>  <Energy>  (21) 
56.07903053915431

>  <Genealogy>  (21) 
[NH-]S(=O)(=O)c1cc(S(=O)(=O)c2ccc([N-]C(=O)c3ccccc3[O-])cc2)ccc1Cl (protonated)
[NH-]S(=O)(=O)c1cc(S(=O)(=O)c2ccc([N-]C(=O)c3ccccc3[O-])cc2)ccc1Cl (3D coordinates assigned)
[NH-]S(=O)(=O)c1cc(S(=O)(=O)c2ccc([N-]C(=O)c3ccccc3[O-])cc2)ccc1Cl (optimized conformer: 56.07903053915431 kcal/mol)

>  <smiles>  (21) 
NS(=O)(=O)c1cc(S(=O)(=O)c2ccc(NC(=O)c3ccccc3O)cc2)ccc1Cl

>  <score_type>  (21) 
oracle

>  <origin>  (21) 
adgpu

>  <m_score__min__energy>  (21) 
-13.800000000000001

>  <m_primary>  (21) 
energy

$$$$
21:0
     RDKit          3D

 50 54  0  0  1  0  0  0  0  0999 V2000
   -3.5800   24.8400  -30.4760 O   0  0  0  0  0  0  0  0  0  0  0  0
   -4.0480   23.4950  -29.9750 S   0  0  0  0  0  0  0  0  0  0  0  0
   -4.2260   23.5800  -28.4750 O   0  0  0  0  0  0  0  0  0  0  0  0
   -2.8250   22.3430  -30.3270 N   0  0  0  0  0  0  0  0  0  0  0  0
   -2.3550   21.3800  -29.3910 C   0  0  0  0  0  0  0  0  0  0  0  0
   -3.0780   20.9800  -28.2870 C   0  0  0  0  0  0  0  0  0  0  0  0
   -2.5810   20.0290  -27.3930 C   0  0  0  0  0  0  0  0  0  0  0  0
   -1.3370   19.4570  -27.5950 C   0  0  0  0  0  0  0  0  0  0  0  0
   -0.6080   19.8500  -28.6940 C   0  0  0  0  0  0  0  0  0  0  0  0
   -1.1130   20.7970  -29.5750 C   0  0  0  0  0  0  0  0  0  0  0  0
   -5.5600   23.1450  -30.7720 C   0  0  0  0  0  0  0  0  0  0  0  0
   -6.7860   23.3250  -30.1670 C   0  0  0  0  0  0  0  0  0  0  0  0
   -7.9880   23.0470  -30.7830 C   0  0  0  0  0  0  0  0  0  0  0  0
   -7.9840   22.5610  -32.0730 C   0  0  0  0  0  0  0  0  0  0  0  0
   -6.7980   22.3630  -32.7180 C   0  0  0  0  0  0  0  0  0  0  0  0
   -5.5550   22.6450  -32.0990 C   0  0  0  0  0  0  0  0  0  0  0  0
   -4.4140   22.3230  -32.7680 N   0  0  0  0  0  0  0  0  0  0  0  0
   -3.8740   21.2610  -33.0950 C   0  0  0  0  0  0  0  0  0  0  0  0
   -2.6970   21.3230  -33.7810 N   0  0  0  0  0  0  0  0  0  0  0  0
   -2.0200   20.2430  -34.1820 C   0  0  0  0  0  0  0  0  0  0  0  0
   -0.7900   20.3770  -34.8970 C   0  0  0  0  0  0  0  0  0  0  0  0
   -0.0850   21.4540  -35.3290 C   0  0  0  0  0  0  0  0  0  0  0  0
    1.0600   21.2690  -35.9880 C   0  0  0  0  0  0  0  0  0  0  0  0
    1.4750   19.9670  -36.1990 C   0  0  0  0  0  0  0  0  0  0  0  0
    0.1770   18.9350  -35.4250 S   0  0  0  0  0  0  0  0  0  0  0  0
   -2.5470   19.0420  -33.8840 N   0  0  0  0  0  0  0  0  0  0  0  0
   -3.7060   18.9390  -33.2110 C   0  0  0  0  0  0  0  0  0  0  0  0
   -4.1840   17.6980  -32.9440 C   0  0  0  0  0  0  0  0  0  0  0  0
   -5.3710   17.6000  -32.2570 C   0  0  0  0  0  0  0  0  0  0  0  0
   -6.1090   18.6540  -31.8220 C   0  0  0  0  0  0  0  0  0  0  0  0
   -5.6020   19.9340  -32.1040 C   0  0  0  0  0  0  0  0  0  0  0  0
   -4.4250   20.0570  -32.7840 C   0  0  0  0  0  0  0  0  0  0  0  0
   -2.3570   22.3020  -31.2810 H   0  0  0  0  0  0  0  0  0  0  0  0
   -4.0697   21.4204  -28.1062 H   0  0  0  0  0  0  0  0  0  0  0  0
   -3.1830   19.7323  -26.5215 H   0  0  0  0  0  0  0  0  0  0  0  0
   -0.9409   18.7070  -26.8946 H   0  0  0  0  0  0  0  0  0  0  0  0
    0.3836   19.4100  -28.8762 H   0  0  0  0  0  0  0  0  0  0  0  0
   -0.5082   21.0927  -30.4449 H   0  0  0  0  0  0  0  0  0  0  0  0
   -6.8063   23.7113  -29.1372 H   0  0  0  0  0  0  0  0  0  0  0  0
   -8.9374   23.2109  -30.2521 H   0  0  0  0  0  0  0  0  0  0  0  0
   -8.9332   22.3337  -32.5804 H   0  0  0  0  0  0  0  0  0  0  0  0
   -6.8071   21.9738  -33.7468 H   0  0  0  0  0  0  0  0  0  0  0  0
   -2.2750   22.2540  -34.0200 H   0  0  0  0  0  0  0  0  0  0  0  0
   -0.4554   22.4718  -35.1369 H   0  0  0  0  0  0  0  0  0  0  0  0
    1.6528   22.1217  -36.3506 H   0  0  0  0  0  0  0  0  0  0  0  0
    2.3838   19.6270  -36.7172 H   0  0  0  0  0  0  0  0  0  0  0  0
   -3.6393   16.7985  -33.2668 H   0  0  0  0  0  0  0  0  0  0  0  0
   -5.7522   16.5905  -32.0433 H   0  0  0  0  0  0  0  0  0  0  0  0
   -7.0543   18.5131  -31.2774 H   0  0  0  0  0  0  0  0  0  0  0  0
   -6.1500   20.8307  -31.7789 H   0  0  0  0  0  0  0  0  0  0  0  0
  1  2  2  0
  2  3  2  0
  2  4  1  0
  4  5  1  0
  5  6  2  0
  6  7  1  0
  7  8  2  0
  8  9  1  0
  9 10  2  0
  2 11  1  0
 11 12  2  0
 12 13  1  0
 13 14  2  0
 14 15  1  0
 15 16  2  0
 16 17  1  0
 17 18  2  0
 18 19  1  0
 19 20  1  0
 20 21  1  0
 21 22  2  0
 22 23  1  0
 23 24  2  0
 24 25  1  0
 20 26  2  0
 26 27  1  0
 27 28  2  0
 28 29  1  0
 29 30  2  0
 30 31  1  0
 31 32  2  0
 10  5  1  0
 16 11  1  0
 32 18  1  0
 25 21  1  0
 32 27  1  0
  4 33  1  0
  6 34  1  0
  7 35  1  0
  8 36  1  0
  9 37  1  0
 10 38  1  0
 12 39  1  0
 13 40  1  0
 14 41  1  0
 15 42  1  0
 19 43  1  0
 22 44  1  0
 23 45  1  0
 24 46  1  0
 28 47  1  0
 29 48  1  0
 30 49  1  0
 31 50  1  0
M  END
>  <smiles>  (22) 
O=S(=O)(Nc1ccccc1)c1ccccc1N=c1[nH]c(-c2cccs2)nc2ccccc12

>  <score_type>  (22) 
oracle

>  <origin>  (22) 
adgpu

>  <m_score__min__energy>  (22) 
-10.25

>  <m_primary>  (22) 
energy

$$$$
22:0
     RDKit          3D

 50 52  0  0  0  0  0  0  0  0999 V2000
   -2.2760   24.1800  -29.2600 C   0  0  0  0  0  0  0  0  0  0  0  0
   -3.1730   24.8990  -30.0990 O   0  0  0  0  0  0  0  0  0  0  0  0
   -4.5350   24.5960  -30.2470 C   0  0  0  0  0  0  0  0  0  0  0  0
   -5.5520   25.4250  -29.7380 C   0  0  0  0  0  0  0  0  0  0  0  0
   -6.8940   25.0820  -29.9210 C   0  0  0  0  0  0  0  0  0  0  0  0
   -7.2340   23.9120  -30.6030 C   0  0  0  0  0  0  0  0  0  0  0  0
   -6.2300   23.0630  -31.0970 C   0  0  0  0  0  0  0  0  0  0  0  0
   -6.5640   21.8680  -31.8210 N   0  0  0  0  0  0  0  0  0  0  0  0
   -7.7420   21.2710  -31.7070 N   0  0  0  0  0  0  0  0  0  0  0  0
   -7.7290   20.1770  -32.4900 C   0  0  0  0  0  0  0  0  0  0  0  0
   -8.9040   19.2620  -32.6380 C   0  0  0  0  0  0  0  0  0  0  0  0
   -6.5120   20.0870  -33.1500 C   0  0  0  0  0  0  0  0  0  0  0  0
   -6.0710   19.0230  -34.1290 C   0  0  0  0  0  0  0  0  0  0  0  0
   -5.3290   17.9180  -33.4730 N   0  0  0  0  0  0  0  0  0  0  0  0
   -4.3430   17.3430  -34.4280 C   0  0  0  0  0  0  0  0  0  0  0  0
   -4.0010   15.8890  -34.0810 C   0  0  0  0  0  0  0  0  0  0  0  0
   -5.1930   15.0200  -34.2010 N   0  0  0  0  0  0  0  0  0  0  0  0
   -5.0120   13.7890  -33.4160 C   0  0  0  0  0  0  0  0  0  0  0  0
   -6.4630   15.7050  -33.8510 C   0  0  0  0  0  0  0  0  0  0  0  0
   -6.2410   16.8900  -32.8970 C   0  0  0  0  0  0  0  0  0  0  0  0
   -5.7940   21.1870  -32.7020 C   0  0  0  0  0  0  0  0  0  0  0  0
   -4.3960   21.5630  -33.1090 C   0  0  0  0  0  0  0  0  0  0  0  0
   -4.8840   23.4240  -30.9300 C   0  0  0  0  0  0  0  0  0  0  0  0
   -2.5220   24.3771  -28.2061 H   0  0  0  0  0  0  0  0  0  0  0  0
   -2.3681   23.1028  -29.4627 H   0  0  0  0  0  0  0  0  0  0  0  0
   -1.2446   24.5044  -29.4627 H   0  0  0  0  0  0  0  0  0  0  0  0
   -5.2898   26.3450  -29.1949 H   0  0  0  0  0  0  0  0  0  0  0  0
   -7.6855   25.7360  -29.5264 H   0  0  0  0  0  0  0  0  0  0  0  0
   -8.2926   23.6541  -30.7540 H   0  0  0  0  0  0  0  0  0  0  0  0
   -9.2728   18.9748  -31.6423 H   0  0  0  0  0  0  0  0  0  0  0  0
   -9.7032   19.7780  -33.1903 H   0  0  0  0  0  0  0  0  0  0  0  0
   -8.5996   18.3607  -33.1903 H   0  0  0  0  0  0  0  0  0  0  0  0
   -6.9619   18.6059  -34.6213 H   0  0  0  0  0  0  0  0  0  0  0  0
   -5.3923   19.4968  -34.8535 H   0  0  0  0  0  0  0  0  0  0  0  0
   -4.7780   18.3230  -32.6790 H   0  0  0  0  0  0  0  0  0  0  0  0
   -4.7670   17.3774  -35.4424 H   0  0  0  0  0  0  0  0  0  0  0  0
   -3.4192   17.9371  -34.3673 H   0  0  0  0  0  0  0  0  0  0  0  0
   -3.2224   15.5286  -34.7694 H   0  0  0  0  0  0  0  0  0  0  0  0
   -3.6438   15.8518  -33.0413 H   0  0  0  0  0  0  0  0  0  0  0  0
   -5.0474   14.0297  -32.3432 H   0  0  0  0  0  0  0  0  0  0  0  0
   -5.8152   13.0778  -33.6589 H   0  0  0  0  0  0  0  0  0  0  0  0
   -4.0380   13.3391  -33.6589 H   0  0  0  0  0  0  0  0  0  0  0  0
   -6.9309   16.0768  -34.7745 H   0  0  0  0  0  0  0  0  0  0  0  0
   -7.1092   14.9766  -33.3394 H   0  0  0  0  0  0  0  0  0  0  0  0
   -7.2128   17.3592  -32.6839 H   0  0  0  0  0  0  0  0  0  0  0  0
   -5.7727   16.5007  -31.9810 H   0  0  0  0  0  0  0  0  0  0  0  0
   -3.7841   21.7276  -32.2099 H   0  0  0  0  0  0  0  0  0  0  0  0
   -3.9574   20.7509  -33.7074 H   0  0  0  0  0  0  0  0  0  0  0  0
   -4.4239   22.4856  -33.7074 H   0  0  0  0  0  0  0  0  0  0  0  0
   -4.0935   22.7786  -31.3405 H   0  0  0  0  0  0  0  0  0  0  0  0
  1  2  1  0
  2  3  1  0
  3  4  2  0
  4  5  1  0
  5  6  2  0
  6  7  1  0
  7  8  1  0
  8  9  1  0
  9 10  2  0
 10 11  1  0
 10 12  1  0
 12 13  1  0
 13 14  1  0
 14 15  1  0
 15 16  1  0
 16 17  1  0
 17 18  1  0
 17 19  1  0
 19 20  1  0
 12 21  2  0
 21 22  1  0
  7 23  2  0
 23  3  1  0
 21  8  1  0
 20 14  1  0
  1 24  1  0
  1 25  1  0
  1 26  1  0
  4 27  1  0
  5 28  1  0
  6 29  1  0
 11 30  1  0
 11 31  1  0
 11 32  1  0
 13 33  1  0
 13 34  1  0
 14 35  1  0
 15 36  1  0
 15 37  1  0
 16 38  1  0
 16 39  1  0
 18 40  1  0
 18 41  1  0
 18 42  1  0
 19 43  1  0
 19 44  1  0
 20 45  1  0
 20 46  1  0
 22 47  1  0
 22 48  1  0
 22 49  1  0
 23 50  1  0
M  CHG  1  14   1
M  END
>  <UniqueID>  (23) 
21

>  <SMILES>  (23) 
COc1cccc(-n2nc(C)c(C[NH+]3CCN(C)CC3)c2C)c1

>  <Energy>  (23) 
96.63332611901343

>  <Genealogy>  (23) 
COc1cccc(-n2nc(C)c(C[NH+]3CCN(C)CC3)c2C)c1 (protonated)
COc1cccc(-n2nc(C)c(C[NH+]3CCN(C)CC3)c2C)c1 (3D coordinates assigned)
COc1cccc(-n2nc(C)c(C[NH+]3CCN(C)CC3)c2C)c1 (nonaromatic ring conformer: 96.63332611901343 kcal/mol)

>  <smiles>  (23) 
COc1cccc(-n2nc(C)c(CN3CCN(C)CC3)c2C)c1

>  <score_type>  (23) 
oracle

>  <origin>  (23) 
adgpu

>  <m_score__min__energy>  (23) 
-7.9000000000000004

>  <m_primary>  (23) 
energy

$$$$
23:0
     RDKit          3D

 46 49  0  0  0  0  0  0  0  0999 V2000
   -3.6470   24.0530  -27.0760 C   0  0  0  0  0  0  0  0  0  0  0  0
   -3.8540   22.8220  -27.7570 O   0  0  0  0  0  0  0  0  0  0  0  0
   -2.8720   21.8350  -27.9380 C   0  0  0  0  0  0  0  0  0  0  0  0
   -2.9310   20.6010  -27.2590 C   0  0  0  0  0  0  0  0  0  0  0  0
   -1.9450   19.6320  -27.4630 C   0  0  0  0  0  0  0  0  0  0  0  0
   -0.8920   19.8790  -28.3420 C   0  0  0  0  0  0  0  0  0  0  0  0
   -0.8200   21.0940  -29.0220 C   0  0  0  0  0  0  0  0  0  0  0  0
   -1.7990   22.0820  -28.8230 C   0  0  0  0  0  0  0  0  0  0  0  0
   -1.7190   23.3540  -29.6310 C   0  0  0  0  0  0  0  0  0  0  0  0
   -2.6710   23.3060  -30.6910 O   0  0  0  0  0  0  0  0  0  0  0  0
   -3.9700   23.8090  -30.5740 C   0  0  0  0  0  0  0  0  0  0  0  0
   -5.0360   22.9190  -30.4190 C   0  0  0  0  0  0  0  0  0  0  0  0
   -6.3330   23.4190  -30.2230 C   0  0  0  0  0  0  0  0  0  0  0  0
   -7.4170   22.5670  -29.9720 O   0  0  0  0  0  0  0  0  0  0  0  0
   -7.9570   21.6690  -30.9060 C   0  0  0  0  0  0  0  0  0  0  0  0
   -9.3070   21.7860  -31.2520 C   0  0  0  0  0  0  0  0  0  0  0  0
   -9.8770   20.9090  -32.1790 C   0  0  0  0  0  0  0  0  0  0  0  0
   -9.1030   19.9000  -32.7590 C   0  0  0  0  0  0  0  0  0  0  0  0
   -7.7500   19.7500  -32.4090 C   0  0  0  0  0  0  0  0  0  0  0  0
   -6.9290   18.6900  -33.0380 C   0  0  0  0  0  0  0  0  0  0  0  0
   -7.0620   17.3750  -32.7520 N   0  0  0  0  0  0  0  0  0  0  0  0
   -6.2140   16.6000  -33.4810 C   0  0  0  0  0  0  0  0  0  0  0  0
   -5.3930   17.2910  -34.3640 C   0  0  0  0  0  0  0  0  0  0  0  0
   -5.7460   18.9260  -34.2180 S   0  0  0  0  0  0  0  0  0  0  0  0
   -7.1880   20.6330  -31.4690 C   0  0  0  0  0  0  0  0  0  0  0  0
   -6.5490   24.7990  -30.2850 C   0  0  0  0  0  0  0  0  0  0  0  0
   -5.4620   25.6580  -30.4660 C   0  0  0  0  0  0  0  0  0  0  0  0
   -4.2070   25.1510  -30.5930 N   0  0  0  0  0  0  0  0  0  0  0  0
   -3.6760   23.8806  -25.9900 H   0  0  0  0  0  0  0  0  0  0  0  0
   -2.6667   24.4664  -27.3556 H   0  0  0  0  0  0  0  0  0  0  0  0
   -4.4382   24.7643  -27.3556 H   0  0  0  0  0  0  0  0  0  0  0  0
   -3.7591   20.3994  -26.5636 H   0  0  0  0  0  0  0  0  0  0  0  0
   -2.0001   18.6721  -26.9286 H   0  0  0  0  0  0  0  0  0  0  0  0
   -0.1169   19.1145  -28.4994 H   0  0  0  0  0  0  0  0  0  0  0  0
    0.0097   21.2806  -29.7197 H   0  0  0  0  0  0  0  0  0  0  0  0
   -1.9367   24.2148  -28.9817 H   0  0  0  0  0  0  0  0  0  0  0  0
   -0.7079   23.4575  -30.0516 H   0  0  0  0  0  0  0  0  0  0  0  0
   -4.8600   21.8336  -30.4504 H   0  0  0  0  0  0  0  0  0  0  0  0
   -9.9235   22.5724  -30.7921 H   0  0  0  0  0  0  0  0  0  0  0  0
  -10.9373   21.0131  -32.4528 H   0  0  0  0  0  0  0  0  0  0  0  0
   -9.5558   19.2187  -33.4944 H   0  0  0  0  0  0  0  0  0  0  0  0
   -6.1807   15.5053  -33.3788 H   0  0  0  0  0  0  0  0  0  0  0  0
   -4.6458   16.8465  -35.0378 H   0  0  0  0  0  0  0  0  0  0  0  0
   -6.1361   20.5126  -31.1707 H   0  0  0  0  0  0  0  0  0  0  0  0
   -7.5670   25.2053  -30.1920 H   0  0  0  0  0  0  0  0  0  0  0  0
   -5.6218   26.7456  -30.5058 H   0  0  0  0  0  0  0  0  0  0  0  0
  1  2  1  0
  2  3  1  0
  3  4  2  0
  4  5  1  0
  5  6  2  0
  6  7  1  0
  7  8  2  0
  8  9  1  0
  9 10  1  0
 10 11  1  0
 11 12  2  0
 12 13  1  0
 13 14  1  0
 14 15  1  0
 15 16  2  0
 16 17  1  0
 17 18  2  0
 18 19  1  0
 19 20  1  0
 20 21  2  0
 21 22  1  0
 22 23  2  0
 23 24  1  0
 19 25  2  0
 13 26  2  0
 26 27  1  0
 27 28  2  0
  8  3  1  0
 28 11  1  0
 25 15  1  0
 24 20  1  0
  1 29  1  0
  1 30  1  0
  1 31  1  0
  4 32  1  0
  5 33  1  0
  6 34  1  0
  7 35  1  0
  9 36  1  0
  9 37  1  0
 12 38  1  0
 16 39  1  0
 17 40  1  0
 18 41  1  0
 22 42  1  0
 23 43  1  0
 25 44  1  0
 26 45  1  0
 27 46  1  0
M  END
>  <UniqueID>  (24) 
22

>  <SMILES>  (24) 
COc1ccccc1COc1cc(Oc2cccc(-c3nccs3)c2)ccn1

>  <Energy>  (24) 
85.96072032697248

>  <Genealogy>  (24) 
COc1ccccc1COc1cc(Oc2cccc(-c3nccs3)c2)ccn1 (3D coordinates assigned)
COc1ccccc1COc1cc(Oc2cccc(-c3nccs3)c2)ccn1 (optimized conformer: 85.96072032697248 kcal/mol)

>  <smiles>  (24) 
COc1ccccc1COc1cc(Oc2cccc(-c3nccs3)c2)ccn1

>  <score_type>  (24) 
oracle

>  <origin>  (24) 
adgpu

>  <m_score__min__energy>  (24) 
-9.7400000000000002

>  <m_primary>  (24) 
energy

$$$$
24:0
     RDKit          3D

 47 49  0  0  0  0  0  0  0  0999 V2000
   -2.4260   19.3470  -26.4430 C   0  0  0  0  0  0  0  0  0  0  0  0
   -2.4830   20.4280  -27.9060 S   0  0  0  0  0  0  0  0  0  0  0  0
   -1.7470   21.8270  -27.0500 C   0  0  0  0  0  0  0  0  0  0  0  0
   -0.8760   21.5800  -25.9800 C   0  0  0  0  0  0  0  0  0  0  0  0
   -0.3460   22.6400  -25.2410 C   0  0  0  0  0  0  0  0  0  0  0  0
   -0.6880   23.9550  -25.5610 C   0  0  0  0  0  0  0  0  0  0  0  0
   -1.5500   24.2130  -26.6310 C   0  0  0  0  0  0  0  0  0  0  0  0
   -2.0660   23.1590  -27.3970 C   0  0  0  0  0  0  0  0  0  0  0  0
   -2.9380   23.4590  -28.4950 N   0  0  0  0  0  0  0  0  0  0  0  0
   -2.7720   24.6290  -29.3110 C   0  0  0  0  0  0  0  0  0  0  0  0
   -1.9500   25.5220  -28.9750 O   0  0  0  0  0  0  0  0  0  0  0  0
   -3.5880   24.8390  -30.4700 N   0  0  0  0  0  0  0  0  0  0  0  0
   -4.7830   24.1140  -30.7890 C   0  0  0  0  0  0  0  0  0  0  0  0
   -4.8180   23.1780  -31.8370 C   0  0  0  0  0  0  0  0  0  0  0  0
   -6.0020   22.4970  -32.1340 C   0  0  0  0  0  0  0  0  0  0  0  0
   -7.1660   22.7500  -31.3940 C   0  0  0  0  0  0  0  0  0  0  0  0
   -8.6510   21.8640  -31.7440 S   0  0  0  0  0  0  0  0  0  0  0  0
   -9.6580   22.8070  -32.3420 O   0  0  0  0  0  0  0  0  0  0  0  0
   -9.2190   21.3450  -30.4520 O   0  0  0  0  0  0  0  0  0  0  0  0
   -8.3900   20.5210  -32.8370 N   0  0  0  0  0  0  0  0  0  0  0  0
   -7.0450   19.9330  -32.7030 C   0  0  0  0  0  0  0  0  0  0  0  0
   -6.9380   18.9240  -31.5350 C   0  0  0  0  0  0  0  0  0  0  0  0
   -8.1870   18.5990  -30.9590 O   0  0  0  0  0  0  0  0  0  0  0  0
   -9.1060   18.2700  -31.9740 C   0  0  0  0  0  0  0  0  0  0  0  0
   -9.4790   19.5220  -32.7860 C   0  0  0  0  0  0  0  0  0  0  0  0
   -7.1410   23.7120  -30.3750 C   0  0  0  0  0  0  0  0  0  0  0  0
   -5.9580   24.3940  -30.0810 C   0  0  0  0  0  0  0  0  0  0  0  0
   -2.4584   19.9617  -25.5314 H   0  0  0  0  0  0  0  0  0  0  0  0
   -3.2895   18.6656  -26.4567 H   0  0  0  0  0  0  0  0  0  0  0  0
   -1.4957   18.7602  -26.4567 H   0  0  0  0  0  0  0  0  0  0  0  0
   -0.6083   20.5451  -25.7207 H   0  0  0  0  0  0  0  0  0  0  0  0
    0.3414   22.4385  -24.4062 H   0  0  0  0  0  0  0  0  0  0  0  0
   -0.2791   24.7885  -24.9711 H   0  0  0  0  0  0  0  0  0  0  0  0
   -1.8250   25.2502  -26.8732 H   0  0  0  0  0  0  0  0  0  0  0  0
   -3.8420   22.9380  -28.5590 H   0  0  0  0  0  0  0  0  0  0  0  0
   -3.9100   22.9806  -32.4258 H   0  0  0  0  0  0  0  0  0  0  0  0
   -6.0208   21.7604  -32.9507 H   0  0  0  0  0  0  0  0  0  0  0  0
   -6.7955   19.4125  -33.6394 H   0  0  0  0  0  0  0  0  0  0  0  0
   -6.3466   20.7560  -32.4909 H   0  0  0  0  0  0  0  0  0  0  0  0
   -6.4773   17.9996  -31.9136 H   0  0  0  0  0  0  0  0  0  0  0  0
   -6.3315   19.3988  -30.7497 H   0  0  0  0  0  0  0  0  0  0  0  0
   -8.6538   17.5245  -32.6446 H   0  0  0  0  0  0  0  0  0  0  0  0
  -10.0162   17.8601  -31.5120 H   0  0  0  0  0  0  0  0  0  0  0  0
   -9.7212   19.2142  -33.8139 H   0  0  0  0  0  0  0  0  0  0  0  0
  -10.3375   19.9951  -32.2869 H   0  0  0  0  0  0  0  0  0  0  0  0
   -8.0560   23.9306  -29.8049 H   0  0  0  0  0  0  0  0  0  0  0  0
   -5.9495   25.1562  -29.2879 H   0  0  0  0  0  0  0  0  0  0  0  0
  1  2  1  0
  2  3  1  0
  3  4  2  0
  4  5  1  0
  5  6  2  0
  6  7  1  0
  7  8  2  0
  8  9  1  0
  9 10  1  0
 10 11  2  0
 10 12  1  0
 12 13  1  0
 13 14  2  0
 14 15  1  0
 15 16  2  0
 16 17  1  0
 17 18  2  0
 17 19  2  0
 17 20  1  0
 20 21  1  0
 21 22  1  0
 22 23  1  0
 23 24  1  0
 24 25  1  0
 16 26  1  0
 26 27  2  0
  8  3  1  0
 27 13  1  0
 25 20  1  0
  1 28  1  0
  1 29  1  0
  1 30  1  0
  4 31  1  0
  5 32  1  0
  6 33  1  0
  7 34  1  0
  9 35  1  0
 14 36  1  0
 15 37  1  0
 21 38  1  0
 21 39  1  0
 22 40  1  0
 22 41  1  0
 24 42  1  0
 24 43  1  0
 25 44  1  0
 25 45  1  0
 26 46  1  0
 27 47  1  0
M  CHG  1  12  -1
M  END
>  <UniqueID>  (25) 
23

>  <SMILES>  (25) 
CSc1ccccc1NC(=O)[N-]c1ccc(S(=O)(=O)N2CCOCC2)cc1

>  <Energy>  (25) 
63.30028723841301

>  <Genealogy>  (25) 
CSc1ccccc1NC(=O)[N-]c1ccc(S(=O)(=O)N2CCOCC2)cc1 (protonated)
CSc1ccccc1NC(=O)[N-]c1ccc(S(=O)(=O)N2CCOCC2)cc1 (3D coordinates assigned)
CSc1ccccc1NC(=O)[N-]c1ccc(S(=O)(=O)N2CCOCC2)cc1 (nonaromatic ring conformer: 63.30028723841301 kcal/mol)

>  <smiles>  (25) 
CSc1ccccc1NC(=O)Nc1ccc(S(=O)(=O)N2CCOCC2)cc1

>  <score_type>  (25) 
oracle

>  <origin>  (25) 
adgpu

>  <m_score__min__energy>  (25) 
-10.949999999999999

>  <m_primary>  (25) 
energy

$$$$
25:0
     RDKit          3D

 53 55  0  0  0  0  0  0  0  0999 V2000
    0.3500   26.7820  -26.4840 N   0  0  0  0  0  0  0  0  0  0  0  0
   -1.0100   26.2930  -26.6860 C   0  0  0  0  0  0  0  0  0  0  0  0
   -1.0300   25.2960  -27.8020 C   0  0  0  0  0  0  0  0  0  0  0  0
    0.0600   24.9040  -28.3000 O   0  0  0  0  0  0  0  0  0  0  0  0
   -2.2820   24.8610  -28.3540 N   0  0  0  0  0  0  0  0  0  0  0  0
   -2.3900   23.8170  -29.3350 C   0  0  0  0  0  0  0  0  0  0  0  0
   -1.5500   22.7000  -29.2350 C   0  0  0  0  0  0  0  0  0  0  0  0
   -1.6310   21.6650  -30.1680 C   0  0  0  0  0  0  0  0  0  0  0  0
   -2.5440   21.7420  -31.2250 C   0  0  0  0  0  0  0  0  0  0  0  0
   -2.6630   20.4450  -32.4120 S   0  0  0  0  0  0  0  0  0  0  0  0
   -2.7560   21.0160  -33.8000 O   0  0  0  0  0  0  0  0  0  0  0  0
   -1.4280   19.5940  -32.3160 O   0  0  0  0  0  0  0  0  0  0  0  0
   -4.0810   19.4820  -32.0770 N   0  0  0  0  0  0  0  0  0  0  0  0
   -5.3160   20.3060  -32.1420 C   0  0  0  0  0  0  0  0  0  0  0  0
   -6.0890   20.1220  -33.4560 C   0  0  0  0  0  0  0  0  0  0  0  0
   -6.4930   18.6510  -33.6630 C   0  0  0  0  0  0  0  0  0  0  0  0
   -5.4920   17.6660  -33.0340 C   0  0  0  0  0  0  0  0  0  0  0  0
   -4.0920   18.2840  -32.9470 C   0  0  0  0  0  0  0  0  0  0  0  0
   -3.3660   22.8680  -31.3520 C   0  0  0  0  0  0  0  0  0  0  0  0
   -3.2880   23.9200  -30.4180 C   0  0  0  0  0  0  0  0  0  0  0  0
   -4.0620   25.0820  -30.5490 O   0  0  0  0  0  0  0  0  0  0  0  0
   -5.3790   25.2480  -30.0350 C   0  0  0  0  0  0  0  0  0  0  0  0
   -6.2580   24.1680  -30.5940 C   0  0  0  0  0  0  0  0  0  0  0  0
   -6.4950   24.0880  -31.9770 C   0  0  0  0  0  0  0  0  0  0  0  0
   -7.3530   23.1090  -32.4880 C   0  0  0  0  0  0  0  0  0  0  0  0
   -7.9900   22.2140  -31.6220 C   0  0  0  0  0  0  0  0  0  0  0  0
   -7.7720   22.3000  -30.2440 C   0  0  0  0  0  0  0  0  0  0  0  0
   -6.9140   23.2770  -29.7290 C   0  0  0  0  0  0  0  0  0  0  0  0
    0.8550   26.7090  -27.3980 H   0  0  0  0  0  0  0  0  0  0  0  0
    0.8370   26.1350  -25.8220 H   0  0  0  0  0  0  0  0  0  0  0  0
   -1.3668   25.8142  -25.7622 H   0  0  0  0  0  0  0  0  0  0  0  0
   -1.6654   27.1383  -26.9425 H   0  0  0  0  0  0  0  0  0  0  0  0
   -3.1350   25.4260  -28.1420 H   0  0  0  0  0  0  0  0  0  0  0  0
   -0.8204   22.6382  -28.4141 H   0  0  0  0  0  0  0  0  0  0  0  0
   -0.9755   20.7869  -30.0719 H   0  0  0  0  0  0  0  0  0  0  0  0
   -5.9721   20.0216  -31.3061 H   0  0  0  0  0  0  0  0  0  0  0  0
   -5.0119   21.3615  -32.0831 H   0  0  0  0  0  0  0  0  0  0  0  0
   -6.9966   20.7429  -33.4283 H   0  0  0  0  0  0  0  0  0  0  0  0
   -5.4372   20.4247  -34.2888 H   0  0  0  0  0  0  0  0  0  0  0  0
   -7.4803   18.4895  -33.2056 H   0  0  0  0  0  0  0  0  0  0  0  0
   -6.5104   18.4605  -34.7462 H   0  0  0  0  0  0  0  0  0  0  0  0
   -5.8330   17.4045  -32.0214 H   0  0  0  0  0  0  0  0  0  0  0  0
   -5.4394   16.7683  -33.6676 H   0  0  0  0  0  0  0  0  0  0  0  0
   -3.3966   17.5374  -32.5360 H   0  0  0  0  0  0  0  0  0  0  0  0
   -3.7859   18.5891  -33.9585 H   0  0  0  0  0  0  0  0  0  0  0  0
   -4.0785   22.9320  -32.1876 H   0  0  0  0  0  0  0  0  0  0  0  0
   -5.3589   25.1767  -28.9375 H   0  0  0  0  0  0  0  0  0  0  0  0
   -5.7706   26.2345  -30.3241 H   0  0  0  0  0  0  0  0  0  0  0  0
   -6.0042   24.7975  -32.6595 H   0  0  0  0  0  0  0  0  0  0  0  0
   -7.5272   23.0427  -33.5721 H   0  0  0  0  0  0  0  0  0  0  0  0
   -8.6624   21.4426  -32.0254 H   0  0  0  0  0  0  0  0  0  0  0  0
   -8.2761   21.5980  -29.5635 H   0  0  0  0  0  0  0  0  0  0  0  0
   -6.7525   23.3478  -28.6432 H   0  0  0  0  0  0  0  0  0  0  0  0
  1  2  1  0
  2  3  1  0
  3  4  2  0
  3  5  1  0
  5  6  1  0
  6  7  2  0
  7  8  1  0
  8  9  2  0
  9 10  1  0
 10 11  2  0
 10 12  2  0
 10 13  1  0
 13 14  1  0
 14 15  1  0
 15 16  1  0
 16 17  1  0
 17 18  1  0
  9 19  1  0
 19 20  2  0
 20 21  1  0
 21 22  1  0
 22 23  1  0
 23 24  2  0
 24 25  1  0
 25 26  2  0
 26 27  1  0
 27 28  2  0
 20  6  1  0
 28 23  1  0
 18 13  1  0
  1 29  1  0
  1 30  1  0
  2 31  1  0
  2 32  1  0
  5 33  1  0
  7 34  1  0
  8 35  1  0
 14 36  1  0
 14 37  1  0
 15 38  1  0
 15 39  1  0
 16 40  1  0
 16 41  1  0
 17 42  1  0
 17 43  1  0
 18 44  1  0
 18 45  1  0
 19 46  1  0
 22 47  1  0
 22 48  1  0
 24 49  1  0
 25 50  1  0
 26 51  1  0
 27 52  1  0
 28 53  1  0
M  END
>  <UniqueID>  (26) 
24

>  <SMILES>  (26) 
NCC(=O)Nc1ccc(S(=O)(=O)N2CCCCC2)cc1OCc1ccccc1

>  <Energy>  (26) 
59.11620502418617

>  <Genealogy>  (26) 
NCC(=O)Nc1ccc(S(=O)(=O)N2CCCCC2)cc1OCc1ccccc1 (3D coordinates assigned)
NCC(=O)Nc1ccc(S(=O)(=O)N2CCCCC2)cc1OCc1ccccc1 (nonaromatic ring conformer: 59.11620502418617 kcal/mol)

>  <smiles>  (26) 
NCC(=O)Nc1ccc(S(=O)(=O)N2CCCCC2)cc1OCc1ccccc1

>  <score_type>  (26) 
oracle

>  <origin>  (26) 
adgpu

>  <m_score__min__energy>  (26) 
-9.8000000000000007

>  <m_primary>  (26) 
energy

$$$$
26:0
     RDKit          3D

 44 47  0  0  0  0  0  0  0  0999 V2000
   -5.5600   18.9580  -34.3050 O   0  0  0  0  0  0  0  0  0  0  0  0
   -5.7400   19.9450  -33.5460 C   0  0  0  0  0  0  0  0  0  0  0  0
   -6.9760   20.3360  -33.1440 N   0  0  0  0  0  0  0  0  0  0  0  0
   -6.6950   21.3960  -32.3720 C   0  0  0  0  0  0  0  0  0  0  0  0
   -7.5940   22.2170  -31.6960 C   0  0  0  0  0  0  0  0  0  0  0  0
   -7.0670   23.2940  -30.9590 C   0  0  0  0  0  0  0  0  0  0  0  0
   -5.6700   23.5220  -30.9140 C   0  0  0  0  0  0  0  0  0  0  0  0
   -5.0570   24.9590  -30.0970 S   0  0  0  0  0  0  0  0  0  0  0  0
   -5.5500   26.1790  -30.8220 O   0  0  0  0  0  0  0  0  0  0  0  0
   -5.5240   25.0100  -28.6690 O   0  0  0  0  0  0  0  0  0  0  0  0
   -3.3250   24.9190  -30.1400 N   0  0  0  0  0  0  0  0  0  0  0  0
   -2.5310   24.7660  -28.9580 C   0  0  0  0  0  0  0  0  0  0  0  0
   -2.9740   23.9850  -27.8780 C   0  0  0  0  0  0  0  0  0  0  0  0
   -2.1260   23.7320  -26.7990 C   0  0  0  0  0  0  0  0  0  0  0  0
   -0.8230   24.2470  -26.7900 C   0  0  0  0  0  0  0  0  0  0  0  0
    0.2970   23.7990  -25.5010 S   0  0  0  0  0  0  0  0  0  0  0  0
    1.6600   23.5690  -26.0930 O   0  0  0  0  0  0  0  0  0  0  0  0
   -0.1630   22.5130  -24.8740 O   0  0  0  0  0  0  0  0  0  0  0  0
    0.4080   25.0310  -24.2650 N   0  0  0  0  0  0  0  0  0  0  0  0
    1.4270   26.0380  -24.5670 C   0  0  0  0  0  0  0  0  0  0  0  0
    1.0240   27.2940  -23.8130 C   0  0  0  0  0  0  0  0  0  0  0  0
   -0.4750   27.1630  -23.5910 C   0  0  0  0  0  0  0  0  0  0  0  0
   -0.8460   25.7720  -24.0960 C   0  0  0  0  0  0  0  0  0  0  0  0
   -0.4070   25.0870  -27.8330 C   0  0  0  0  0  0  0  0  0  0  0  0
   -1.2620   25.3510  -28.9080 C   0  0  0  0  0  0  0  0  0  0  0  0
   -4.7920   22.6590  -31.6050 C   0  0  0  0  0  0  0  0  0  0  0  0
   -5.3510   21.6070  -32.3270 C   0  0  0  0  0  0  0  0  0  0  0  0
   -4.7110   20.6930  -33.0710 N   0  0  0  0  0  0  0  0  0  0  0  0
   -8.6773   22.0304  -31.7366 H   0  0  0  0  0  0  0  0  0  0  0  0
   -7.7465   23.9649  -30.4129 H   0  0  0  0  0  0  0  0  0  0  0  0
   -3.9932   23.5712  -27.8827 H   0  0  0  0  0  0  0  0  0  0  0  0
   -2.4818   23.1262  -25.9526 H   0  0  0  0  0  0  0  0  0  0  0  0
    0.6510   24.5630  -23.3590 H   0  0  0  0  0  0  0  0  0  0  0  0
    2.4154   25.6923  -24.2299 H   0  0  0  0  0  0  0  0  0  0  0  0
    1.4942   26.2260  -25.6487 H   0  0  0  0  0  0  0  0  0  0  0  0
    1.5528   27.3522  -22.8502 H   0  0  0  0  0  0  0  0  0  0  0  0
    1.2785   28.2074  -24.3706 H   0  0  0  0  0  0  0  0  0  0  0  0
   -0.7144   27.2595  -22.5217 H   0  0  0  0  0  0  0  0  0  0  0  0
   -1.0343   27.9495  -24.1188 H   0  0  0  0  0  0  0  0  0  0  0  0
   -1.4901   25.2632  -23.3637 H   0  0  0  0  0  0  0  0  0  0  0  0
   -1.3983   25.8324  -25.0454 H   0  0  0  0  0  0  0  0  0  0  0  0
    0.5951   25.5398  -27.8056 H   0  0  0  0  0  0  0  0  0  0  0  0
   -0.9350   26.0211  -29.7168 H   0  0  0  0  0  0  0  0  0  0  0  0
   -3.7031   22.8122  -31.5743 H   0  0  0  0  0  0  0  0  0  0  0  0
  1  2  2  0
  2  3  1  0
  3  4  1  0
  4  5  2  0
  5  6  1  0
  6  7  2  0
  7  8  1  0
  8  9  2  0
  8 10  2  0
  8 11  1  0
 11 12  1  0
 12 13  2  0
 13 14  1  0
 14 15  2  0
 15 16  1  0
 16 17  2  0
 16 18  2  0
 16 19  1  0
 19 20  1  0
 20 21  1  0
 21 22  1  0
 22 23  1  0
 15 24  1  0
 24 25  2  0
  7 26  1  0
 26 27  2  0
 27 28  1  0
 28  2  1  0
 27  4  1  0
 25 12  1  0
 23 19  1  0
  5 29  1  0
  6 30  1  0
 13 31  1  0
 14 32  1  0
 19 33  1  0
 20 34  1  0
 20 35  1  0
 21 36  1  0
 21 37  1  0
 22 38  1  0
 22 39  1  0
 23 40  1  0
 23 41  1  0
 24 42  1  0
 25 43  1  0
 26 44  1  0
M  CHG  4   3  -1  11  -1  19   1  28  -1
M  END
>  <UniqueID>  (27) 
25

>  <SMILES>  (27) 
O=c1[n-]c2ccc(S(=O)(=O)[N-]c3ccc(S(=O)(=O)[NH+]4CCCC4)cc3)cc2[n-]1

>  <Energy>  (27) 
87.00415136370842

>  <Genealogy>  (27) 
O=c1[n-]c2ccc(S(=O)(=O)[N-]c3ccc(S(=O)(=O)[NH+]4CCCC4)cc3)cc2[n-]1 (protonated)
O=c1[n-]c2ccc(S(=O)(=O)[N-]c3ccc(S(=O)(=O)[NH+]4CCCC4)cc3)cc2[n-]1 (3D coordinates assigned)
O=c1[n-]c2ccc(S(=O)(=O)[N-]c3ccc(S(=O)(=O)[NH+]4CCCC4)cc3)cc2[n-]1 (nonaromatic ring conformer: 87.00415136370842 kcal/mol)

>  <smiles>  (27) 
O=c1[nH]c2ccc(S(=O)(=O)Nc3ccc(S(=O)(=O)N4CCCC4)cc3)cc2[nH]1

>  <score_type>  (27) 
oracle

>  <origin>  (27) 
adgpu

>  <m_score__min__energy>  (27) 
-11.07

>  <m_primary>  (27) 
energy

$$$$
27:0
     RDKit          3D

 61 64  0  0  0  0  0  0  0  0999 V2000
   -0.0640   21.9390  -26.3860 C   0  0  0  0  0  0  0  0  0  0  0  0
   -1.2090   22.5330  -27.1630 C   0  0  0  0  0  0  0  0  0  0  0  0
   -2.3070   21.7040  -27.4400 C   0  0  0  0  0  0  0  0  0  0  0  0
   -3.3940   22.1730  -28.1690 C   0  0  0  0  0  0  0  0  0  0  0  0
   -3.3960   23.4770  -28.6760 C   0  0  0  0  0  0  0  0  0  0  0  0
   -4.5380   24.0040  -29.3680 N   0  0  0  0  0  0  0  0  0  0  0  0
   -4.5660   24.6580  -30.6430 C   0  0  0  0  0  0  0  0  0  0  0  0
   -3.9170   25.7190  -30.8350 O   0  0  0  0  0  0  0  0  0  0  0  0
   -5.3330   24.1030  -31.7180 N   0  0  0  0  0  0  0  0  0  0  0  0
   -5.8840   22.7790  -31.7210 C   0  0  0  0  0  0  0  0  0  0  0  0
   -7.2570   22.6110  -31.9310 C   0  0  0  0  0  0  0  0  0  0  0  0
   -7.8070   21.3270  -32.0130 C   0  0  0  0  0  0  0  0  0  0  0  0
   -6.9860   20.2000  -31.8660 C   0  0  0  0  0  0  0  0  0  0  0  0
   -7.6380   18.5770  -32.0590 S   0  0  0  0  0  0  0  0  0  0  0  0
   -7.2550   17.7480  -30.8640 O   0  0  0  0  0  0  0  0  0  0  0  0
   -9.1380   18.6330  -32.1590 O   0  0  0  0  0  0  0  0  0  0  0  0
   -6.9680   17.8640  -33.5070 N   0  0  0  0  0  0  0  0  0  0  0  0
   -6.1180   16.7180  -33.1880 C   0  0  0  0  0  0  0  0  0  0  0  0
   -5.1220   16.5930  -34.3290 C   0  0  0  0  0  0  0  0  0  0  0  0
   -5.0660   17.9750  -34.9610 C   0  0  0  0  0  0  0  0  0  0  0  0
   -6.1060   18.8060  -34.2210 C   0  0  0  0  0  0  0  0  0  0  0  0
   -5.6230   20.3670  -31.5930 C   0  0  0  0  0  0  0  0  0  0  0  0
   -5.0740   21.6500  -31.5140 C   0  0  0  0  0  0  0  0  0  0  0  0
   -2.3020   24.3220  -28.4190 C   0  0  0  0  0  0  0  0  0  0  0  0
   -2.2950   25.6230  -28.9300 O   0  0  0  0  0  0  0  0  0  0  0  0
   -1.2060   23.8730  -27.6440 C   0  0  0  0  0  0  0  0  0  0  0  0
    0.1260   25.0220  -27.3050 S   0  0  0  0  0  0  0  0  0  0  0  0
   -0.2250   26.3500  -27.9160 O   0  0  0  0  0  0  0  0  0  0  0  0
    1.4000   24.5740  -27.9630 O   0  0  0  0  0  0  0  0  0  0  0  0
    0.4430   25.2480  -25.5920 N   0  0  0  0  0  0  0  0  0  0  0  0
    1.2320   26.4580  -25.2830 C   0  0  0  0  0  0  0  0  0  0  0  0
    0.3590   27.6330  -24.8070 C   0  0  0  0  0  0  0  0  0  0  0  0
   -0.9490   27.5240  -25.3180 O   0  0  0  0  0  0  0  0  0  0  0  0
   -1.6070   26.4180  -24.7310 C   0  0  0  0  0  0  0  0  0  0  0  0
   -0.7620   25.1220  -24.7580 C   0  0  0  0  0  0  0  0  0  0  0  0
   -0.2602   22.0408  -25.3084 H   0  0  0  0  0  0  0  0  0  0  0  0
    0.0387   20.8739  -26.6410 H   0  0  0  0  0  0  0  0  0  0  0  0
    0.8659   22.4684  -26.6410 H   0  0  0  0  0  0  0  0  0  0  0  0
   -2.3076   20.6665  -27.0745 H   0  0  0  0  0  0  0  0  0  0  0  0
   -4.2572   21.5152  -28.3482 H   0  0  0  0  0  0  0  0  0  0  0  0
   -7.9072   23.4925  -32.0321 H   0  0  0  0  0  0  0  0  0  0  0  0
   -8.8849   21.2016  -32.1930 H   0  0  0  0  0  0  0  0  0  0  0  0
   -5.5895   16.8887  -32.2385 H   0  0  0  0  0  0  0  0  0  0  0  0
   -6.7124   15.7994  -33.0746 H   0  0  0  0  0  0  0  0  0  0  0  0
   -4.1321   16.3029  -33.9471 H   0  0  0  0  0  0  0  0  0  0  0  0
   -5.4207   15.8209  -35.0534 H   0  0  0  0  0  0  0  0  0  0  0  0
   -4.0649   18.4137  -34.8370 H   0  0  0  0  0  0  0  0  0  0  0  0
   -5.2689   17.9371  -36.0415 H   0  0  0  0  0  0  0  0  0  0  0  0
   -5.6126   19.4832  -33.5083 H   0  0  0  0  0  0  0  0  0  0  0  0
   -6.6891   19.4233  -34.9203 H   0  0  0  0  0  0  0  0  0  0  0  0
   -4.9823   19.4860  -31.4402 H   0  0  0  0  0  0  0  0  0  0  0  0
   -4.0046   21.7760  -31.2891 H   0  0  0  0  0  0  0  0  0  0  0  0
   -3.1100   26.0570  -29.3460 H   0  0  0  0  0  0  0  0  0  0  0  0
    1.9549   26.2135  -24.4907 H   0  0  0  0  0  0  0  0  0  0  0  0
    1.7339   26.7722  -26.2100 H   0  0  0  0  0  0  0  0  0  0  0  0
    0.3181   27.6296  -23.7078 H   0  0  0  0  0  0  0  0  0  0  0  0
    0.8024   28.5715  -25.1710 H   0  0  0  0  0  0  0  0  0  0  0  0
   -1.8373   26.6636  -23.6838 H   0  0  0  0  0  0  0  0  0  0  0  0
   -2.5163   26.2280  -25.3201 H   0  0  0  0  0  0  0  0  0  0  0  0
   -0.4548   24.8806  -23.7297 H   0  0  0  0  0  0  0  0  0  0  0  0
   -1.3859   24.3273  -25.1930 H   0  0  0  0  0  0  0  0  0  0  0  0
  1  2  1  0
  2  3  2  0
  3  4  1  0
  4  5  2  0
  5  6  1  0
  6  7  1  0
  7  8  2  0
  7  9  1  0
  9 10  1  0
 10 11  2  0
 11 12  1  0
 12 13  2  0
 13 14  1  0
 14 15  2  0
 14 16  2  0
 14 17  1  0
 17 18  1  0
 18 19  1  0
 19 20  1  0
 20 21  1  0
 13 22  1  0
 22 23  2  0
  5 24  1  0
 24 25  1  0
 24 26  2  0
 26 27  1  0
 27 28  2  0
 27 29  2  0
 27 30  1  0
 30 31  1  0
 31 32  1  0
 32 33  1  0
 33 34  1  0
 34 35  1  0
 26  2  1  0
 35 30  1  0
 23 10  1  0
 21 17  1  0
  1 36  1  0
  1 37  1  0
  1 38  1  0
  3 39  1  0
  4 40  1  0
 11 41  1  0
 12 42  1  0
 18 43  1  0
 18 44  1  0
 19 45  1  0
 19 46  1  0
 20 47  1  0
 20 48  1  0
 21 49  1  0
 21 50  1  0
 22 51  1  0
 23 52  1  0
 25 53  1  0
 31 54  1  0
 31 55  1  0
 32 56  1  0
 32 57  1  0
 34 58  1  0
 34 59  1  0
 35 60  1  0
 35 61  1  0
M  CHG  2   6  -1   9  -1
M  END
>  <UniqueID>  (28) 
26

>  <SMILES>  (28) 
Cc1ccc([N-]C(=O)[N-]c2ccc(S(=O)(=O)N3CCCC3)cc2)c(O)c1S(=O)(=O)N1CCOCC1

>  <Energy>  (28) 
86.46879505960698

>  <Genealogy>  (28) 
Cc1ccc([N-]C(=O)[N-]c2ccc(S(=O)(=O)N3CCCC3)cc2)c(O)c1S(=O)(=O)N1CCOCC1 (protonated)
Cc1ccc([N-]C(=O)[N-]c2ccc(S(=O)(=O)N3CCCC3)cc2)c(O)c1S(=O)(=O)N1CCOCC1 (3D coordinates assigned)
Cc1ccc([N-]C(=O)[N-]c2ccc(S(=O)(=O)N3CCCC3)cc2)c(O)c1S(=O)(=O)N1CCOCC1 (nonaromatic ring conformer: 86.46879505960698 kcal/mol)

>  <smiles>  (28) 
Cc1ccc(NC(=O)Nc2ccc(S(=O)(=O)N3CCCC3)cc2)c(O)c1S(=O)(=O)N1CCOCC1

>  <score_type>  (28) 
oracle

>  <origin>  (28) 
adgpu

>  <m_score__min__energy>  (28) 
-14.380000000000001

>  <m_primary>  (28) 
energy

$$$$
28:0
     RDKit          3D

 49 52  0  0  0  0  0  0  0  0999 V2000
   -7.7508   12.3671  -35.1009 H   0  0  0  0  0  0  0  0  0  0  0  0
   -6.9470   13.0810  -34.8680 C   0  0  0  0  0  0  0  0  0  0  0  0
   -5.6090   12.6770  -34.9420 C   0  0  0  0  0  0  0  0  0  0  0  0
   -5.3614   11.6449  -35.2308 H   0  0  0  0  0  0  0  0  0  0  0  0
   -4.5870   13.5850  -34.6490 C   0  0  0  0  0  0  0  0  0  0  0  0
   -3.5357   13.2661  -34.7050 H   0  0  0  0  0  0  0  0  0  0  0  0
   -4.9010   14.9010  -34.2840 C   0  0  0  0  0  0  0  0  0  0  0  0
   -3.5910   16.0680  -33.9160 S   0  0  0  0  0  0  0  0  0  0  0  0
   -4.7470   17.3690  -33.4860 C   0  0  0  0  0  0  0  0  0  0  0  0
   -5.1990   18.2580  -34.4690 C   0  0  0  0  0  0  0  0  0  0  0  0
   -4.8396   18.1612  -35.5041 H   0  0  0  0  0  0  0  0  0  0  0  0
   -6.1060   19.2680  -34.1370 C   0  0  0  0  0  0  0  0  0  0  0  0
   -6.4669   19.9579  -34.9141 H   0  0  0  0  0  0  0  0  0  0  0  0
   -6.5580   19.4050  -32.8150 C   0  0  0  0  0  0  0  0  0  0  0  0
   -7.5270   20.4640  -32.4620 C   0  0  0  0  0  0  0  0  0  0  0  0
   -8.8800   20.1110  -32.3250 C   0  0  0  0  0  0  0  0  0  0  0  0
   -9.1847   19.0610  -32.4459 H   0  0  0  0  0  0  0  0  0  0  0  0
   -9.8400   21.0810  -32.0370 C   0  0  0  0  0  0  0  0  0  0  0  0
  -10.8963   20.7936  -31.9289 H   0  0  0  0  0  0  0  0  0  0  0  0
   -9.4620   22.4150  -31.8860 C   0  0  0  0  0  0  0  0  0  0  0  0
  -10.2226   23.1805  -31.6727 H   0  0  0  0  0  0  0  0  0  0  0  0
   -8.1210   22.7800  -32.0050 C   0  0  0  0  0  0  0  0  0  0  0  0
   -7.8309   23.8343  -31.8856 H   0  0  0  0  0  0  0  0  0  0  0  0
   -7.1370   21.8140  -32.2760 C   0  0  0  0  0  0  0  0  0  0  0  0
   -5.4410   22.3290  -32.3340 S   0  0  0  0  0  0  0  0  0  0  0  0
   -4.6620   21.5030  -33.3190 O   0  0  0  0  0  0  0  0  0  0  0  0
   -5.3790   23.7740  -32.7410 O   0  0  0  0  0  0  0  0  0  0  0  0
   -4.7070   22.1560  -30.7750 N   0  0  0  0  0  0  0  0  0  0  0  0
   -4.0360   23.1140  -30.2140 C   0  0  0  0  0  0  0  0  0  0  0  0
   -3.8360   24.2980  -30.7440 O   0  0  0  0  0  0  0  0  0  0  0  0
   -3.1400   25.0490  -29.9390 N   0  0  0  0  0  0  0  0  0  0  0  0
   -2.8780   24.3120  -28.8370 C   0  0  0  0  0  0  0  0  0  0  0  0
   -2.1220   24.8220  -27.6540 C   0  0  0  0  0  0  0  0  0  0  0  0
   -2.6173   24.4878  -26.7304 H   0  0  0  0  0  0  0  0  0  0  0  0
   -1.0937   24.4323  -27.6802 H   0  0  0  0  0  0  0  0  0  0  0  0
   -2.0982   25.9214  -27.6802 H   0  0  0  0  0  0  0  0  0  0  0  0
   -3.4270   23.0520  -28.9830 C   0  0  0  0  0  0  0  0  0  0  0  0
   -3.4700   21.9380  -27.9830 C   0  0  0  0  0  0  0  0  0  0  0  0
   -3.4538   22.3572  -26.9662 H   0  0  0  0  0  0  0  0  0  0  0  0
   -4.3914   21.3539  -28.1242 H   0  0  0  0  0  0  0  0  0  0  0  0
   -2.5964   21.2846  -28.1242 H   0  0  0  0  0  0  0  0  0  0  0  0
   -6.1090   18.5060  -31.8350 C   0  0  0  0  0  0  0  0  0  0  0  0
   -6.4728   18.5957  -30.8008 H   0  0  0  0  0  0  0  0  0  0  0  0
   -5.2010   17.4970  -32.1690 C   0  0  0  0  0  0  0  0  0  0  0  0
   -4.8428   16.8024  -31.3949 H   0  0  0  0  0  0  0  0  0  0  0  0
   -6.2410   15.3020  -34.2040 C   0  0  0  0  0  0  0  0  0  0  0  0
   -6.4902   16.3323  -33.9100 H   0  0  0  0  0  0  0  0  0  0  0  0
   -7.2620   14.3920  -34.4980 C   0  0  0  0  0  0  0  0  0  0  0  0
   -8.3139   14.7082  -34.4380 H   0  0  0  0  0  0  0  0  0  0  0  0
  1  2  1  0
  2  3  2  0
  3  4  1  0
  3  5  1  0
  5  6  1  0
  5  7  2  0
  7  8  1  0
  8  9  1  0
  9 10  2  0
 10 11  1  0
 10 12  1  0
 12 13  1  0
 12 14  2  0
 14 15  1  0
 15 16  2  0
 16 17  1  0
 16 18  1  0
 18 19  1  0
 18 20  2  0
 20 21  1  0
 20 22  1  0
 22 23  1  0
 22 24  2  0
 24 25  1  0
 25 26  2  0
 25 27  2  0
 25 28  1  0
 28 29  2  0
 29 30  1  0
 30 31  1  0
 31 32  1  0
 32 33  1  0
 33 34  1  0
 33 35  1  0
 33 36  1  0
 32 37  2  0
 37 38  1  0
 38 39  1  0
 38 40  1  0
 38 41  1  0
 14 42  1  0
 42 43  1  0
 42 44  2  0
 44 45  1  0
  7 46  1  0
 46 47  1  0
 46 48  2  0
 48 49  1  0
 48  2  1  0
 44  9  1  0
 24 15  1  0
 37 29  1  0
M  CHG  1  31  -1
M  END
>  <UniqueID>  (29) 
27

>  <SMILES>  (29) 
Cc1[n-]o/c(=N\S(=O)(=O)c2ccccc2-c2ccc(Sc3ccccc3)cc2)c1C

>  <Energy>  (29) 
89.40283786512937

>  <Genealogy>  (29) 
Cc1[n-]oc(=NS(=O)(=O)c2ccccc2-c2ccc(Sc3ccccc3)cc2)c1C (protonated)
Cc1[n-]o/c(=N\S(=O)(=O)c2ccccc2-c2ccc(Sc3ccccc3)cc2)c1C (cis-trans isomerization)
Cc1[n-]o/c(=N\S(=O)(=O)c2ccccc2-c2ccc(Sc3ccccc3)cc2)c1C (3D coordinates assigned)
Cc1[n-]o/c(=N\S(=O)(=O)c2ccccc2-c2ccc(Sc3ccccc3)cc2)c1C (optimized conformer: 89.40283786512937 kcal/mol)

>  <smiles>  (29) 
Cc1[nH]oc(=NS(=O)(=O)c2ccccc2-c2ccc(Sc3ccccc3)cc2)c1C

>  <score_type>  (29) 
oracle

>  <origin>  (29) 
adgpu

>  <m_score__min__energy>  (29) 
-12.67

>  <m_primary>  (29) 
energy

$$$$
29:0
     RDKit          3D

 37 39  0  0  0  0  0  0  0  0999 V2000
    0.4780   21.6530  -36.0450 C   0  0  0  0  0  0  0  0  0  0  0  0
    0.6560   21.9300  -34.6240 N   0  0  0  0  0  0  0  0  0  0  0  0
   -0.1210   20.6940  -33.6840 S   0  0  0  0  0  0  0  0  0  0  0  0
   -0.7130   19.6690  -34.6090 O   0  0  0  0  0  0  0  0  0  0  0  0
    0.8930   20.0130  -32.8060 O   0  0  0  0  0  0  0  0  0  0  0  0
   -1.4080   21.3930  -32.7020 C   0  0  0  0  0  0  0  0  0  0  0  0
   -2.7350   21.3780  -33.1500 C   0  0  0  0  0  0  0  0  0  0  0  0
   -3.7550   21.9230  -32.3600 C   0  0  0  0  0  0  0  0  0  0  0  0
   -5.1090   21.9030  -32.8180 N   0  0  0  0  0  0  0  0  0  0  0  0
   -3.4410   22.4840  -31.1130 C   0  0  0  0  0  0  0  0  0  0  0  0
   -2.1150   22.4980  -30.6500 C   0  0  0  0  0  0  0  0  0  0  0  0
   -1.7970   23.0670  -29.3680 N   0  0  0  0  0  0  0  0  0  0  0  0
   -1.1550   22.4610  -28.3430 C   0  0  0  0  0  0  0  0  0  0  0  0
   -0.7130   21.1430  -28.3600 O   0  0  0  0  0  0  0  0  0  0  0  0
   -1.0300   23.3250  -27.2730 C   0  0  0  0  0  0  0  0  0  0  0  0
   -1.6180   24.5050  -27.6520 C   0  0  0  0  0  0  0  0  0  0  0  0
   -2.0770   24.3210  -28.9410 C   0  0  0  0  0  0  0  0  0  0  0  0
   -2.7140   25.2900  -29.7080 O   0  0  0  0  0  0  0  0  0  0  0  0
   -1.6970   25.7210  -26.7860 C   0  0  0  0  0  0  0  0  0  0  0  0
   -1.0600   25.4850  -25.4300 C   0  0  0  0  0  0  0  0  0  0  0  0
   -0.4870   24.3200  -25.0540 C   0  0  0  0  0  0  0  0  0  0  0  0
   -0.4050   23.0900  -25.9360 C   0  0  0  0  0  0  0  0  0  0  0  0
   -1.1030   21.9480  -31.4540 C   0  0  0  0  0  0  0  0  0  0  0  0
   -0.1129   20.7334  -36.1681 H   0  0  0  0  0  0  0  0  0  0  0  0
   -0.0492   22.4939  -36.5193 H   0  0  0  0  0  0  0  0  0  0  0  0
    1.4619   21.5228  -36.5193 H   0  0  0  0  0  0  0  0  0  0  0  0
   -2.9773   20.9358  -34.1276 H   0  0  0  0  0  0  0  0  0  0  0  0
   -5.4670   22.6430  -33.4620 H   0  0  0  0  0  0  0  0  0  0  0  0
   -5.7640   21.1480  -32.5150 H   0  0  0  0  0  0  0  0  0  0  0  0
   -4.2399   22.9165  -30.4927 H   0  0  0  0  0  0  0  0  0  0  0  0
   -1.1744   26.5497  -27.2862 H   0  0  0  0  0  0  0  0  0  0  0  0
   -2.7586   25.9625  -26.6293 H   0  0  0  0  0  0  0  0  0  0  0  0
   -1.0646   26.3141  -24.7071 H   0  0  0  0  0  0  0  0  0  0  0  0
   -0.0531   24.2608  -24.0449 H   0  0  0  0  0  0  0  0  0  0  0  0
    0.6527   22.8239  -26.0789 H   0  0  0  0  0  0  0  0  0  0  0  0
   -0.9533   22.2756  -25.4399 H   0  0  0  0  0  0  0  0  0  0  0  0
   -0.0617   21.9536  -31.0996 H   0  0  0  0  0  0  0  0  0  0  0  0
  1  2  1  0
  2  3  1  0
  3  4  2  0
  3  5  2  0
  3  6  1  0
  6  7  2  0
  7  8  1  0
  8  9  1  0
  8 10  2  0
 10 11  1  0
 11 12  1  0
 12 13  1  0
 13 14  1  0
 13 15  2  0
 15 16  1  0
 16 17  2  0
 17 18  1  0
 16 19  1  0
 19 20  1  0
 20 21  2  0
 21 22  1  0
 11 23  2  0
 23  6  1  0
 17 12  1  0
 22 15  1  0
  1 24  1  0
  1 25  1  0
  1 26  1  0
  7 27  1  0
  9 28  1  0
  9 29  1  0
 10 30  1  0
 19 31  1  0
 19 32  1  0
 20 33  1  0
 21 34  1  0
 22 35  1  0
 22 36  1  0
 23 37  1  0
M  CHG  3   2  -1  14  -1  18  -1
M  END
>  <UniqueID>  (30) 
28

>  <SMILES>  (30) 
C[N-]S(=O)(=O)c1cc(N)cc(-n2c([O-])c3c(c2[O-])CC=CC3)c1

>  <Energy>  (30) 
73.65096170711001

>  <Genealogy>  (30) 
C[N-]S(=O)(=O)c1cc(N)cc(-n2c([O-])c3c(c2[O-])CC=CC3)c1 (protonated)
C[N-]S(=O)(=O)c1cc(N)cc(-n2c([O-])c3c(c2[O-])CC=CC3)c1 (3D coordinates assigned)
C[N-]S(=O)(=O)c1cc(N)cc(-n2c([O-])c3c(c2[O-])CC=CC3)c1 (nonaromatic ring conformer: 73.65096170711001 kcal/mol)

>  <smiles>  (30) 
CNS(=O)(=O)c1cc(N)cc(-n2c(O)c3c(c2O)CC=CC3)c1

>  <score_type>  (30) 
oracle

>  <origin>  (30) 
adgpu

>  <m_score__min__energy>  (30) 
-9.8900000000000006

>  <m_primary>  (30) 
energy

$$$$
30:0
     RDKit          3D

 49 52  0  0  0  0  0  0  0  0999 V2000
   -4.7100   16.5760  -33.0530 C   0  0  0  0  0  0  0  0  0  0  0  0
   -4.7620   17.4840  -34.2120 N   0  0  0  0  0  0  0  0  0  0  0  0
   -6.1430   17.8460  -34.5890 C   0  0  0  0  0  0  0  0  0  0  0  0
   -6.8510   18.6700  -33.5020 C   0  0  0  0  0  0  0  0  0  0  0  0
   -5.9650   19.7410  -32.9260 C   0  0  0  0  0  0  0  0  0  0  0  0
   -6.5340   20.7450  -32.1280 C   0  0  0  0  0  0  0  0  0  0  0  0
   -5.7310   21.7180  -31.5340 C   0  0  0  0  0  0  0  0  0  0  0  0
   -4.3410   21.6960  -31.7070 C   0  0  0  0  0  0  0  0  0  0  0  0
   -3.5390   22.7280  -31.1060 N   0  0  0  0  0  0  0  0  0  0  0  0
   -4.0190   24.0510  -30.8170 C   0  0  0  0  0  0  0  0  0  0  0  0
   -5.0220   24.5080  -31.4270 O   0  0  0  0  0  0  0  0  0  0  0  0
   -3.3100   24.9070  -29.9130 N   0  0  0  0  0  0  0  0  0  0  0  0
   -2.5150   24.4780  -28.7970 C   0  0  0  0  0  0  0  0  0  0  0  0
   -2.7910   23.2790  -28.1250 C   0  0  0  0  0  0  0  0  0  0  0  0
   -2.0320   22.9030  -27.0180 C   0  0  0  0  0  0  0  0  0  0  0  0
   -0.9930   23.7170  -26.5610 C   0  0  0  0  0  0  0  0  0  0  0  0
   -0.1240   23.1950  -25.1200 Cl  0  0  0  0  0  0  0  0  0  0  0  0
   -0.7030   24.9340  -27.2210 C   0  0  0  0  0  0  0  0  0  0  0  0
    0.6120   25.9870  -26.6450 S   0  0  0  0  0  0  0  0  0  0  0  0
    1.9240   25.2760  -26.8160 O   0  0  0  0  0  0  0  0  0  0  0  0
    0.6710   27.2420  -27.4700 O   0  0  0  0  0  0  0  0  0  0  0  0
    0.4370   26.4570  -24.9210 C   0  0  0  0  0  0  0  0  0  0  0  0
   -0.9660   26.4440  -24.3320 C   0  0  0  0  0  0  0  0  0  0  0  0
   -0.3170   27.7620  -24.7200 C   0  0  0  0  0  0  0  0  0  0  0  0
   -1.4920   25.3160  -28.3280 C   0  0  0  0  0  0  0  0  0  0  0  0
   -1.2710   26.5280  -28.9720 O   0  0  0  0  0  0  0  0  0  0  0  0
   -3.7670   20.6980  -32.5140 C   0  0  0  0  0  0  0  0  0  0  0  0
   -4.5670   19.7070  -33.1040 C   0  0  0  0  0  0  0  0  0  0  0  0
   -3.9250   18.6830  -34.0130 C   0  0  0  0  0  0  0  0  0  0  0  0
   -4.7437   17.1646  -32.1243 H   0  0  0  0  0  0  0  0  0  0  0  0
   -5.5704   15.8914  -33.0847 H   0  0  0  0  0  0  0  0  0  0  0  0
   -3.7771   15.9941  -33.0847 H   0  0  0  0  0  0  0  0  0  0  0  0
   -6.1125   18.4369  -35.5163 H   0  0  0  0  0  0  0  0  0  0  0  0
   -6.7091   16.9125  -34.7238 H   0  0  0  0  0  0  0  0  0  0  0  0
   -7.7398   19.1457  -33.9421 H   0  0  0  0  0  0  0  0  0  0  0  0
   -7.1231   17.9848  -32.6856 H   0  0  0  0  0  0  0  0  0  0  0  0
   -7.6224   20.7647  -31.9697 H   0  0  0  0  0  0  0  0  0  0  0  0
   -6.1926   22.5091  -30.9248 H   0  0  0  0  0  0  0  0  0  0  0  0
   -2.5240   22.5350  -30.9490 H   0  0  0  0  0  0  0  0  0  0  0  0
   -3.6100   22.6322  -28.4728 H   0  0  0  0  0  0  0  0  0  0  0  0
   -2.2530   21.9579  -26.5003 H   0  0  0  0  0  0  0  0  0  0  0  0
    1.3982   26.0290  -24.6000 H   0  0  0  0  0  0  0  0  0  0  0  0
   -1.8066   26.0501  -24.9221 H   0  0  0  0  0  0  0  0  0  0  0  0
   -1.4210   26.0412  -23.4151 H   0  0  0  0  0  0  0  0  0  0  0  0
   -0.6882   28.3223  -25.5908 H   0  0  0  0  0  0  0  0  0  0  0  0
   -0.1080   28.7084  -24.1998 H   0  0  0  0  0  0  0  0  0  0  0  0
   -2.6803   20.6938  -32.6847 H   0  0  0  0  0  0  0  0  0  0  0  0
   -3.7419   19.1493  -34.9923 H   0  0  0  0  0  0  0  0  0  0  0  0
   -2.9907   18.3564  -33.5329 H   0  0  0  0  0  0  0  0  0  0  0  0
  1  2  1  0
  2  3  1  0
  3  4  1  0
  4  5  1  0
  5  6  2  0
  6  7  1  0
  7  8  2  0
  8  9  1  0
  9 10  1  0
 10 11  2  0
 10 12  1  0
 12 13  1  0
 13 14  2  0
 14 15  1  0
 15 16  2  0
 16 17  1  0
 16 18  1  0
 18 19  1  0
 19 20  2  0
 19 21  2  0
 19 22  1  0
 22 23  1  0
 23 24  1  0
 18 25  2  0
 25 26  1  0
  8 27  1  0
 27 28  2  0
 28 29  1  0
 29  2  1  0
 28  5  1  0
 25 13  1  0
 24 22  1  0
  1 30  1  0
  1 31  1  0
  1 32  1  0
  3 33  1  0
  3 34  1  0
  4 35  1  0
  4 36  1  0
  6 37  1  0
  7 38  1  0
  9 39  1  0
 14 40  1  0
 15 41  1  0
 22 42  1  0
 23 43  1  0
 23 44  1  0
 24 45  1  0
 24 46  1  0
 27 47  1  0
 29 48  1  0
 29 49  1  0
M  CHG  2  12  -1  26  -1
M  END
>  <UniqueID>  (31) 
29

>  <SMILES>  (31) 
CN1CCc2ccc(NC(=O)[N-]c3ccc(Cl)c(S(=O)(=O)C4CC4)c3[O-])cc2C1

>  <Energy>  (31) 
330.49146308235044

>  <Genealogy>  (31) 
CN1CCc2ccc(NC(=O)[N-]c3ccc(Cl)c(S(=O)(=O)C4CC4)c3[O-])cc2C1 (protonated)
CN1CCc2ccc(NC(=O)[N-]c3ccc(Cl)c(S(=O)(=O)C4CC4)c3[O-])cc2C1 (3D coordinates assigned)
CN1CCc2ccc(NC(=O)[N-]c3ccc(Cl)c(S(=O)(=O)C4CC4)c3[O-])cc2C1 (nonaromatic ring conformer: 330.49146308235044 kcal/mol)

>  <smiles>  (31) 
CN1CCc2ccc(NC(=O)Nc3ccc(Cl)c(S(=O)(=O)C4CC4)c3O)cc2C1

>  <score_type>  (31) 
oracle

>  <origin>  (31) 
adgpu

>  <m_score__min__energy>  (31) 
-13.83

>  <m_primary>  (31) 
energy

$$$$
31:0
     RDKit          3D

 55 58  0  0  0  0  0  0  0  0999 V2000
   -0.5120   12.6540  -30.8080 C   0  0  0  0  0  0  0  0  0  0  0  0
   -1.4990   12.9970  -31.8850 C   0  0  0  0  0  0  0  0  0  0  0  0
   -2.8180   12.5420  -31.8060 C   0  0  0  0  0  0  0  0  0  0  0  0
   -3.7470   12.8340  -32.8160 C   0  0  0  0  0  0  0  0  0  0  0  0
   -5.1670   12.3580  -32.6290 C   0  0  0  0  0  0  0  0  0  0  0  0
   -3.3270   13.5450  -33.9760 C   0  0  0  0  0  0  0  0  0  0  0  0
   -4.3100   13.8390  -35.1020 C   0  0  0  0  0  0  0  0  0  0  0  0
   -5.5090   14.4450  -34.6160 O   0  0  0  0  0  0  0  0  0  0  0  0
   -5.6070   15.7330  -34.0640 C   0  0  0  0  0  0  0  0  0  0  0  0
   -4.4230   16.4110  -33.7600 C   0  0  0  0  0  0  0  0  0  0  0  0
   -4.4590   17.7010  -33.2240 C   0  0  0  0  0  0  0  0  0  0  0  0
   -5.6870   18.3450  -32.9910 C   0  0  0  0  0  0  0  0  0  0  0  0
   -5.7250   19.7250  -32.4360 C   0  0  0  0  0  0  0  0  0  0  0  0
   -4.7120   20.6490  -32.7500 C   0  0  0  0  0  0  0  0  0  0  0  0
   -4.7460   21.9440  -32.2270 C   0  0  0  0  0  0  0  0  0  0  0  0
   -5.8010   22.3440  -31.3960 C   0  0  0  0  0  0  0  0  0  0  0  0
   -5.8360   23.9670  -30.7110 S   0  0  0  0  0  0  0  0  0  0  0  0
   -7.2660   24.4080  -30.5810 O   0  0  0  0  0  0  0  0  0  0  0  0
   -5.1080   24.9230  -31.6150 O   0  0  0  0  0  0  0  0  0  0  0  0
   -5.0970   23.9940  -29.1420 N   0  0  0  0  0  0  0  0  0  0  0  0
   -3.8960   24.4340  -28.9280 C   0  0  0  0  0  0  0  0  0  0  0  0
   -3.2810   24.4700  -27.7000 C   0  0  0  0  0  0  0  0  0  0  0  0
   -2.0460   25.0160  -27.9820 C   0  0  0  0  0  0  0  0  0  0  0  0
   -1.9810   25.2590  -29.2730 O   0  0  0  0  0  0  0  0  0  0  0  0
   -3.0820   24.9220  -29.8800 N   0  0  0  0  0  0  0  0  0  0  0  0
   -6.8110   21.4320  -31.0780 C   0  0  0  0  0  0  0  0  0  0  0  0
   -6.7770   20.1340  -31.5950 C   0  0  0  0  0  0  0  0  0  0  0  0
   -6.8780   17.6610  -33.3010 C   0  0  0  0  0  0  0  0  0  0  0  0
   -6.8390   16.3660  -33.8270 C   0  0  0  0  0  0  0  0  0  0  0  0
   -1.9940   14.0460  -34.0270 C   0  0  0  0  0  0  0  0  0  0  0  0
   -1.4910   14.8850  -35.1760 C   0  0  0  0  0  0  0  0  0  0  0  0
   -1.0930   13.7360  -32.9970 C   0  0  0  0  0  0  0  0  0  0  0  0
   -0.9739   12.8145  -29.8227 H   0  0  0  0  0  0  0  0  0  0  0  0
   -0.2141   11.5996  -30.9059 H   0  0  0  0  0  0  0  0  0  0  0  0
    0.3755   13.2964  -30.9059 H   0  0  0  0  0  0  0  0  0  0  0  0
   -3.1331   11.9450  -30.9375 H   0  0  0  0  0  0  0  0  0  0  0  0
   -5.3901   12.2832  -31.5545 H   0  0  0  0  0  0  0  0  0  0  0  0
   -5.8584   13.0735  -33.0981 H   0  0  0  0  0  0  0  0  0  0  0  0
   -5.2874   11.3704  -33.0981 H   0  0  0  0  0  0  0  0  0  0  0  0
   -3.8332   14.5206  -35.8218 H   0  0  0  0  0  0  0  0  0  0  0  0
   -4.5786   12.8847  -35.5787 H   0  0  0  0  0  0  0  0  0  0  0  0
   -3.4538   15.9245  -33.9444 H   0  0  0  0  0  0  0  0  0  0  0  0
   -3.5182   18.2173  -32.9822 H   0  0  0  0  0  0  0  0  0  0  0  0
   -3.8866   20.3496  -33.4126 H   0  0  0  0  0  0  0  0  0  0  0  0
   -3.9406   22.6532  -32.4687 H   0  0  0  0  0  0  0  0  0  0  0  0
   -3.6774   24.1427  -26.7275 H   0  0  0  0  0  0  0  0  0  0  0  0
   -1.2493   25.2148  -27.2501 H   0  0  0  0  0  0  0  0  0  0  0  0
   -7.6363   21.7371  -30.4179 H   0  0  0  0  0  0  0  0  0  0  0  0
   -7.5797   19.4256  -31.3424 H   0  0  0  0  0  0  0  0  0  0  0  0
   -7.8481   18.1499  -33.1278 H   0  0  0  0  0  0  0  0  0  0  0  0
   -7.7775   15.8401  -34.0564 H   0  0  0  0  0  0  0  0  0  0  0  0
   -0.9627   15.7661  -34.7829 H   0  0  0  0  0  0  0  0  0  0  0  0
   -0.8015   14.2884  -35.7913 H   0  0  0  0  0  0  0  0  0  0  0  0
   -2.3421   15.2120  -35.7913 H   0  0  0  0  0  0  0  0  0  0  0  0
   -0.0508   14.0807  -33.0671 H   0  0  0  0  0  0  0  0  0  0  0  0
  1  2  1  0
  2  3  2  0
  3  4  1  0
  4  5  1  0
  4  6  2  0
  6  7  1  0
  7  8  1  0
  8  9  1  0
  9 10  2  0
 10 11  1  0
 11 12  2  0
 12 13  1  0
 13 14  2  0
 14 15  1  0
 15 16  2  0
 16 17  1  0
 17 18  2  0
 17 19  2  0
 17 20  1  0
 20 21  2  3
 21 22  1  0
 22 23  2  0
 23 24  1  0
 24 25  1  0
 16 26  1  0
 26 27  2  0
 12 28  1  0
 28 29  2  0
  6 30  1  0
 30 31  1  0
 30 32  2  0
 32  2  1  0
 29  9  1  0
 27 13  1  0
 25 21  1  0
  1 33  1  0
  1 34  1  0
  1 35  1  0
  3 36  1  0
  5 37  1  0
  5 38  1  0
  5 39  1  0
  7 40  1  0
  7 41  1  0
 10 42  1  0
 11 43  1  0
 14 44  1  0
 15 45  1  0
 22 46  1  0
 23 47  1  0
 26 48  1  0
 27 49  1  0
 28 50  1  0
 29 51  1  0
 31 52  1  0
 31 53  1  0
 31 54  1  0
 32 55  1  0
M  CHG  1  25  -1
M  END
>  <UniqueID>  (32) 
30

>  <SMILES>  (32) 
Cc1cc(C)c(COc2ccc(-c3ccc(S(=O)(=O)N=c4cco[n-]4)cc3)cc2)c(C)c1

>  <Energy>  (32) 
102.04736957300165

>  <Genealogy>  (32) 
Cc1cc(C)c(COc2ccc(-c3ccc(S(=O)(=O)N=c4cco[n-]4)cc3)cc2)c(C)c1 (protonated)
Cc1cc(C)c(COc2ccc(-c3ccc(S(=O)(=O)N=c4cco[n-]4)cc3)cc2)c(C)c1 (3D coordinates assigned)
Cc1cc(C)c(COc2ccc(-c3ccc(S(=O)(=O)N=c4cco[n-]4)cc3)cc2)c(C)c1 (optimized conformer: 102.04736957300165 kcal/mol)

>  <smiles>  (32) 
Cc1cc(C)c(COc2ccc(-c3ccc(S(=O)(=O)N=c4cco[nH]4)cc3)cc2)c(C)c1

>  <score_type>  (32) 
oracle

>  <origin>  (32) 
adgpu

>  <m_score__min__energy>  (32) 
-10.800000000000001

>  <m_primary>  (32) 
energy

$$$$
32:0
     RDKit          3D

 59 62  0  0  0  0  0  0  0  0999 V2000
   -1.5230   23.4840  -29.5850 O   0  0  0  0  0  0  0  0  0  0  0  0
   -2.2580   24.4500  -29.2370 C   0  0  0  0  0  0  0  0  0  0  0  0
   -3.2570   24.9440  -30.1390 N   0  0  0  0  0  0  0  0  0  0  0  0
   -4.5020   24.3060  -30.4610 C   0  0  0  0  0  0  0  0  0  0  0  0
   -4.5350   23.3870  -31.5160 C   0  0  0  0  0  0  0  0  0  0  0  0
   -5.7260   22.7390  -31.8540 C   0  0  0  0  0  0  0  0  0  0  0  0
   -6.8990   22.9930  -31.1310 C   0  0  0  0  0  0  0  0  0  0  0  0
   -8.4120   22.2030  -31.5790 S   0  0  0  0  0  0  0  0  0  0  0  0
   -9.2950   23.1900  -32.2920 O   0  0  0  0  0  0  0  0  0  0  0  0
   -9.1260   21.7540  -30.3350 O   0  0  0  0  0  0  0  0  0  0  0  0
   -8.1280   20.8200  -32.6130 N   0  0  0  0  0  0  0  0  0  0  0  0
   -9.3070   19.9190  -32.6540 C   0  0  0  0  0  0  0  0  0  0  0  0
   -9.1200   18.6510  -31.8060 C   0  0  0  0  0  0  0  0  0  0  0  0
   -7.8900   17.8490  -32.2680 C   0  0  0  0  0  0  0  0  0  0  0  0
   -6.7730   18.7450  -32.8330 C   0  0  0  0  0  0  0  0  0  0  0  0
   -6.8540   20.1600  -32.2510 C   0  0  0  0  0  0  0  0  0  0  0  0
   -6.8610   23.8850  -30.0500 C   0  0  0  0  0  0  0  0  0  0  0  0
   -5.6710   24.5350  -29.7120 C   0  0  0  0  0  0  0  0  0  0  0  0
   -2.1230   25.0200  -27.8710 C   0  0  0  0  0  0  0  0  0  0  0  0
   -0.9870   25.7890  -27.5520 C   0  0  0  0  0  0  0  0  0  0  0  0
   -0.8250   26.3370  -26.2730 C   0  0  0  0  0  0  0  0  0  0  0  0
    0.6320   27.2520  -25.8890 S   0  0  0  0  0  0  0  0  0  0  0  0
    0.3540   28.1920  -24.7490 O   0  0  0  0  0  0  0  0  0  0  0  0
    1.0100   28.0700  -27.0920 O   0  0  0  0  0  0  0  0  0  0  0  0
    1.9530   26.1710  -25.4900 N   0  0  0  0  0  0  0  0  0  0  0  0
    3.1060   26.3490  -26.3930 C   0  0  0  0  0  0  0  0  0  0  0  0
    2.8410   25.7630  -27.8020 C   0  0  0  0  0  0  0  0  0  0  0  0
    1.7660   24.8390  -27.8410 O   0  0  0  0  0  0  0  0  0  0  0  0
    1.8220   23.9810  -26.7220 C   0  0  0  0  0  0  0  0  0  0  0  0
    1.5080   24.7610  -25.4300 C   0  0  0  0  0  0  0  0  0  0  0  0
   -1.8030   26.1170  -25.2960 C   0  0  0  0  0  0  0  0  0  0  0  0
   -2.9350   25.3630  -25.5980 C   0  0  0  0  0  0  0  0  0  0  0  0
   -3.1060   24.8160  -26.8750 C   0  0  0  0  0  0  0  0  0  0  0  0
   -4.2580   24.0830  -27.1340 O   0  0  0  0  0  0  0  0  0  0  0  0
   -3.6170   23.1733  -32.0831 H   0  0  0  0  0  0  0  0  0  0  0  0
   -5.7427   22.0262  -32.6916 H   0  0  0  0  0  0  0  0  0  0  0  0
  -10.1819   20.4683  -32.2760 H   0  0  0  0  0  0  0  0  0  0  0  0
   -9.4434   19.6009  -33.6981 H   0  0  0  0  0  0  0  0  0  0  0  0
   -8.9852   18.9400  -30.7532 H   0  0  0  0  0  0  0  0  0  0  0  0
  -10.0124   18.0187  -31.9233 H   0  0  0  0  0  0  0  0  0  0  0  0
   -7.4915   17.2900  -31.4085 H   0  0  0  0  0  0  0  0  0  0  0  0
   -8.2163   17.1768  -33.0753 H   0  0  0  0  0  0  0  0  0  0  0  0
   -5.7970   18.3067  -32.5775 H   0  0  0  0  0  0  0  0  0  0  0  0
   -6.8943   18.8085  -33.9244 H   0  0  0  0  0  0  0  0  0  0  0  0
   -6.7801   20.1011  -31.1551 H   0  0  0  0  0  0  0  0  0  0  0  0
   -6.0262   20.7534  -32.6664 H   0  0  0  0  0  0  0  0  0  0  0  0
   -7.7729   24.0742  -29.4647 H   0  0  0  0  0  0  0  0  0  0  0  0
   -5.6481   25.2278  -28.8579 H   0  0  0  0  0  0  0  0  0  0  0  0
   -0.2164   25.9617  -28.3177 H   0  0  0  0  0  0  0  0  0  0  0  0
    3.3171   27.4241  -26.4904 H   0  0  0  0  0  0  0  0  0  0  0  0
    3.9615   25.8110  -25.9587 H   0  0  0  0  0  0  0  0  0  0  0  0
    2.6106   26.5932  -28.4859 H   0  0  0  0  0  0  0  0  0  0  0  0
    3.7475   25.2150  -28.0985 H   0  0  0  0  0  0  0  0  0  0  0  0
    1.0846   23.1744  -26.8466 H   0  0  0  0  0  0  0  0  0  0  0  0
    2.8350   23.5590  -26.6465 H   0  0  0  0  0  0  0  0  0  0  0  0
    0.4209   24.7422  -25.2633 H   0  0  0  0  0  0  0  0  0  0  0  0
    2.0548   24.2754  -24.6083 H   0  0  0  0  0  0  0  0  0  0  0  0
   -1.6776   26.5400  -24.2884 H   0  0  0  0  0  0  0  0  0  0  0  0
   -3.7009   25.1962  -24.8263 H   0  0  0  0  0  0  0  0  0  0  0  0
  1  2  2  0
  2  3  1  0
  3  4  1  0
  4  5  2  0
  5  6  1  0
  6  7  2  0
  7  8  1  0
  8  9  2  0
  8 10  2  0
  8 11  1  0
 11 12  1  0
 12 13  1  0
 13 14  1  0
 14 15  1  0
 15 16  1  0
  7 17  1  0
 17 18  2  0
  2 19  1  0
 19 20  2  0
 20 21  1  0
 21 22  1  0
 22 23  2  0
 22 24  2  0
 22 25  1  0
 25 26  1  0
 26 27  1  0
 27 28  1  0
 28 29  1  0
 29 30  1  0
 21 31  2  0
 31 32  1  0
 32 33  2  0
 33 34  1  0
 18  4  1  0
 33 19  1  0
 16 11  1  0
 30 25  1  0
  5 35  1  0
  6 36  1  0
 12 37  1  0
 12 38  1  0
 13 39  1  0
 13 40  1  0
 14 41  1  0
 14 42  1  0
 15 43  1  0
 15 44  1  0
 16 45  1  0
 16 46  1  0
 17 47  1  0
 18 48  1  0
 20 49  1  0
 26 50  1  0
 26 51  1  0
 27 52  1  0
 27 53  1  0
 29 54  1  0
 29 55  1  0
 30 56  1  0
 30 57  1  0
 31 58  1  0
 32 59  1  0
M  CHG  2   3  -1  34  -1
M  END
>  <UniqueID>  (33) 
31

>  <SMILES>  (33) 
O=C([N-]c1ccc(S(=O)(=O)N2CCCCC2)cc1)c1cc(S(=O)(=O)N2CCOCC2)ccc1[O-]

>  <Energy>  (33) 
82.96061468011008

>  <Genealogy>  (33) 
O=C([N-]c1ccc(S(=O)(=O)N2CCCCC2)cc1)c1cc(S(=O)(=O)N2CCOCC2)ccc1[O-] (protonated)
O=C([N-]c1ccc(S(=O)(=O)N2CCCCC2)cc1)c1cc(S(=O)(=O)N2CCOCC2)ccc1[O-] (3D coordinates assigned)
O=C([N-]c1ccc(S(=O)(=O)N2CCCCC2)cc1)c1cc(S(=O)(=O)N2CCOCC2)ccc1[O-] (nonaromatic ring conformer: 82.96061468011008 kcal/mol)

>  <smiles>  (33) 
O=C(Nc1ccc(S(=O)(=O)N2CCCCC2)cc1)c1cc(S(=O)(=O)N2CCOCC2)ccc1O

>  <score_type>  (33) 
oracle

>  <origin>  (33) 
adgpu

>  <m_score__min__energy>  (33) 
-14.130000000000001

>  <m_primary>  (33) 
energy

$$$$
33:0
     RDKit          3D

 57 60  0  0  0  0  0  0  0  0999 V2000
   -5.7210   26.4220  -30.6920 O   0  0  0  0  0  0  0  0  0  0  0  0
   -5.1530   25.2980  -30.6970 C   0  0  0  0  0  0  0  0  0  0  0  0
   -3.7520   25.2220  -30.3930 N   0  0  0  0  0  0  0  0  0  0  0  0
   -3.2060   24.5290  -29.2620 C   0  0  0  0  0  0  0  0  0  0  0  0
   -3.9490   23.5500  -28.5790 C   0  0  0  0  0  0  0  0  0  0  0  0
   -3.3810   22.8600  -27.5050 C   0  0  0  0  0  0  0  0  0  0  0  0
   -2.0720   23.1370  -27.1070 C   0  0  0  0  0  0  0  0  0  0  0  0
   -1.3240   24.1140  -27.7790 C   0  0  0  0  0  0  0  0  0  0  0  0
    0.3550   24.4080  -27.3230 S   0  0  0  0  0  0  0  0  0  0  0  0
    1.1810   24.5340  -28.5720 O   0  0  0  0  0  0  0  0  0  0  0  0
    0.8710   23.2270  -26.5490 O   0  0  0  0  0  0  0  0  0  0  0  0
    0.5430   25.8630  -26.3640 N   0  0  0  0  0  0  0  0  0  0  0  0
    0.8000   25.5770  -24.9410 C   0  0  0  0  0  0  0  0  0  0  0  0
   -0.4890   25.2840  -24.1370 C   0  0  0  0  0  0  0  0  0  0  0  0
   -1.6740   25.5490  -24.8610 O   0  0  0  0  0  0  0  0  0  0  0  0
   -1.5940   26.8260  -25.4510 C   0  0  0  0  0  0  0  0  0  0  0  0
   -0.5480   26.8360  -26.5790 C   0  0  0  0  0  0  0  0  0  0  0  0
   -1.9050   24.8270  -28.8370 C   0  0  0  0  0  0  0  0  0  0  0  0
   -5.9280   24.0860  -31.0420 C   0  0  0  0  0  0  0  0  0  0  0  0
   -5.6690   23.3970  -32.2390 C   0  0  0  0  0  0  0  0  0  0  0  0
   -6.3240   22.1990  -32.5200 C   0  0  0  0  0  0  0  0  0  0  0  0
   -7.2560   21.6770  -31.6140 C   0  0  0  0  0  0  0  0  0  0  0  0
   -7.9760   20.0940  -31.8950 S   0  0  0  0  0  0  0  0  0  0  0  0
   -9.1120   19.9070  -30.9280 O   0  0  0  0  0  0  0  0  0  0  0  0
   -8.5310   20.0340  -33.2920 O   0  0  0  0  0  0  0  0  0  0  0  0
   -6.7950   18.8220  -31.6470 N   0  0  0  0  0  0  0  0  0  0  0  0
   -5.4340   19.2440  -32.0290 C   0  0  0  0  0  0  0  0  0  0  0  0
   -5.2610   19.3370  -33.5650 C   0  0  0  0  0  0  0  0  0  0  0  0
   -6.2450   18.6180  -34.2900 O   0  0  0  0  0  0  0  0  0  0  0  0
   -6.4910   17.3710  -33.6780 C   0  0  0  0  0  0  0  0  0  0  0  0
   -7.1960   17.5680  -32.3220 C   0  0  0  0  0  0  0  0  0  0  0  0
   -7.5500   22.3820  -30.4390 C   0  0  0  0  0  0  0  0  0  0  0  0
   -6.8980   23.5870  -30.1600 C   0  0  0  0  0  0  0  0  0  0  0  0
   -4.9799   23.3268  -28.8910 H   0  0  0  0  0  0  0  0  0  0  0  0
   -3.9667   22.0967  -26.9718 H   0  0  0  0  0  0  0  0  0  0  0  0
   -1.6265   22.5877  -26.2645 H   0  0  0  0  0  0  0  0  0  0  0  0
    1.4609   24.7002  -24.8742 H   0  0  0  0  0  0  0  0  0  0  0  0
    1.2610   26.4753  -24.5046 H   0  0  0  0  0  0  0  0  0  0  0  0
   -0.4865   24.2225  -23.8486 H   0  0  0  0  0  0  0  0  0  0  0  0
   -0.4858   25.9520  -23.2630 H   0  0  0  0  0  0  0  0  0  0  0  0
   -2.5765   27.0946  -25.8665 H   0  0  0  0  0  0  0  0  0  0  0  0
   -1.2943   27.5538  -24.6826 H   0  0  0  0  0  0  0  0  0  0  0  0
   -1.0519   26.5938  -27.5263 H   0  0  0  0  0  0  0  0  0  0  0  0
   -0.0954   27.8384  -26.5989 H   0  0  0  0  0  0  0  0  0  0  0  0
   -1.3359   25.6251  -29.3363 H   0  0  0  0  0  0  0  0  0  0  0  0
   -4.9447   23.8057  -32.9590 H   0  0  0  0  0  0  0  0  0  0  0  0
   -6.1084   21.6622  -33.4556 H   0  0  0  0  0  0  0  0  0  0  0  0
   -5.2327   20.2320  -31.5892 H   0  0  0  0  0  0  0  0  0  0  0  0
   -4.7280   18.4882  -31.6544 H   0  0  0  0  0  0  0  0  0  0  0  0
   -5.3170   20.3957  -33.8581 H   0  0  0  0  0  0  0  0  0  0  0  0
   -4.2871   18.8874  -33.8085 H   0  0  0  0  0  0  0  0  0  0  0  0
   -7.1320   16.7649  -34.3351 H   0  0  0  0  0  0  0  0  0  0  0  0
   -5.5313   16.8602  -33.5104 H   0  0  0  0  0  0  0  0  0  0  0  0
   -8.2828   17.5910  -32.4904 H   0  0  0  0  0  0  0  0  0  0  0  0
   -6.9030   16.7315  -31.6705 H   0  0  0  0  0  0  0  0  0  0  0  0
   -8.2960   21.9862  -29.7341 H   0  0  0  0  0  0  0  0  0  0  0  0
   -7.1466   24.1457  -29.2456 H   0  0  0  0  0  0  0  0  0  0  0  0
  1  2  2  0
  2  3  1  0
  3  4  1  0
  4  5  2  0
  5  6  1  0
  6  7  2  0
  7  8  1  0
  8  9  1  0
  9 10  2  0
  9 11  2  0
  9 12  1  0
 12 13  1  0
 13 14  1  0
 14 15  1  0
 15 16  1  0
 16 17  1  0
  8 18  2  0
  2 19  1  0
 19 20  2  0
 20 21  1  0
 21 22  2  0
 22 23  1  0
 23 24  2  0
 23 25  2  0
 23 26  1  0
 26 27  1  0
 27 28  1  0
 28 29  1  0
 29 30  1  0
 30 31  1  0
 22 32  1  0
 32 33  2  0
 18  4  1  0
 33 19  1  0
 17 12  1  0
 31 26  1  0
  5 34  1  0
  6 35  1  0
  7 36  1  0
 13 37  1  0
 13 38  1  0
 14 39  1  0
 14 40  1  0
 16 41  1  0
 16 42  1  0
 17 43  1  0
 17 44  1  0
 18 45  1  0
 20 46  1  0
 21 47  1  0
 27 48  1  0
 27 49  1  0
 28 50  1  0
 28 51  1  0
 30 52  1  0
 30 53  1  0
 31 54  1  0
 31 55  1  0
 32 56  1  0
 33 57  1  0
M  CHG  1   3  -1
M  END
>  <UniqueID>  (34) 
32

>  <SMILES>  (34) 
O=C([N-]c1cccc(S(=O)(=O)N2CCOCC2)c1)c1ccc(S(=O)(=O)N2CCOCC2)cc1

>  <Energy>  (34) 
85.46515324938288

>  <Genealogy>  (34) 
O=C([N-]c1cccc(S(=O)(=O)N2CCOCC2)c1)c1ccc(S(=O)(=O)N2CCOCC2)cc1 (protonated)
O=C([N-]c1cccc(S(=O)(=O)N2CCOCC2)c1)c1ccc(S(=O)(=O)N2CCOCC2)cc1 (3D coordinates assigned)
O=C([N-]c1cccc(S(=O)(=O)N2CCOCC2)c1)c1ccc(S(=O)(=O)N2CCOCC2)cc1 (nonaromatic ring conformer: 85.46515324938288 kcal/mol)

>  <smiles>  (34) 
O=C(Nc1cccc(S(=O)(=O)N2CCOCC2)c1)c1ccc(S(=O)(=O)N2CCOCC2)cc1

>  <score_type>  (34) 
oracle

>  <origin>  (34) 
adgpu

>  <m_score__min__energy>  (34) 
-12.67

>  <m_primary>  (34) 
energy

$$$$
34:0
     RDKit          3D

 48 51  0  0  0  0  0  0  0  0999 V2000
   -6.3180   23.0980  -32.5050 O   0  0  0  0  0  0  0  0  0  0  0  0
   -5.3380   22.6170  -31.8740 C   0  0  0  0  0  0  0  0  0  0  0  0
   -5.0180   21.2230  -31.9730 N   0  0  0  0  0  0  0  0  0  0  0  0
   -5.9300   20.1500  -32.2500 C   0  0  0  0  0  0  0  0  0  0  0  0
   -5.5480   19.0470  -33.0360 C   0  0  0  0  0  0  0  0  0  0  0  0
   -6.4420   17.9930  -33.2700 C   0  0  0  0  0  0  0  0  0  0  0  0
   -5.9460   16.6040  -34.2430 S   0  0  0  0  0  0  0  0  0  0  0  0
   -7.1630   15.8030  -34.6170 O   0  0  0  0  0  0  0  0  0  0  0  0
   -5.3030   17.0920  -35.5120 O   0  0  0  0  0  0  0  0  0  0  0  0
   -4.8230   15.5770  -33.3800 N   0  0  0  0  0  0  0  0  0  0  0  0
   -4.6580   14.2660  -34.0440 C   0  0  0  0  0  0  0  0  0  0  0  0
   -5.3920   13.1410  -33.2910 C   0  0  0  0  0  0  0  0  0  0  0  0
   -4.9600   12.9930  -31.9460 O   0  0  0  0  0  0  0  0  0  0  0  0
   -4.5800   14.2150  -31.3250 C   0  0  0  0  0  0  0  0  0  0  0  0
   -5.2130   15.4630  -31.9620 C   0  0  0  0  0  0  0  0  0  0  0  0
   -7.7270   18.0430  -32.7160 C   0  0  0  0  0  0  0  0  0  0  0  0
   -8.1070   19.1210  -31.9160 C   0  0  0  0  0  0  0  0  0  0  0  0
   -7.2140   20.1700  -31.6720 C   0  0  0  0  0  0  0  0  0  0  0  0
   -7.6280   21.2260  -30.8590 O   0  0  0  0  0  0  0  0  0  0  0  0
   -4.5530   23.4830  -30.9870 C   0  0  0  0  0  0  0  0  0  0  0  0
   -3.7020   23.0640  -29.9870 C   0  0  0  0  0  0  0  0  0  0  0  0
   -3.2020   24.2420  -29.4590 C   0  0  0  0  0  0  0  0  0  0  0  0
   -2.2050   24.3860  -28.3700 C   0  0  0  0  0  0  0  0  0  0  0  0
   -2.1660   23.4160  -27.3500 C   0  0  0  0  0  0  0  0  0  0  0  0
   -1.2480   23.5230  -26.3020 C   0  0  0  0  0  0  0  0  0  0  0  0
   -0.3540   24.5930  -26.2600 C   0  0  0  0  0  0  0  0  0  0  0  0
   -0.3690   25.5550  -27.2720 C   0  0  0  0  0  0  0  0  0  0  0  0
   -1.2810   25.4550  -28.3290 C   0  0  0  0  0  0  0  0  0  0  0  0
   -1.2360   26.4080  -29.3390 O   0  0  0  0  0  0  0  0  0  0  0  0
   -3.7280   25.2870  -30.1290 N   0  0  0  0  0  0  0  0  0  0  0  0
   -4.5530   24.8260  -31.0560 N   0  0  0  0  0  0  0  0  0  0  0  0
   -4.5382   19.0116  -33.4709 H   0  0  0  0  0  0  0  0  0  0  0  0
   -5.0617   14.3319  -35.0651 H   0  0  0  0  0  0  0  0  0  0  0  0
   -3.5851   14.0235  -34.0549 H   0  0  0  0  0  0  0  0  0  0  0  0
   -6.4687   13.3660  -33.2895 H   0  0  0  0  0  0  0  0  0  0  0  0
   -5.1674   12.1986  -33.8119 H   0  0  0  0  0  0  0  0  0  0  0  0
   -4.8825   14.1747  -30.2682 H   0  0  0  0  0  0  0  0  0  0  0  0
   -3.4914   14.3109  -31.4504 H   0  0  0  0  0  0  0  0  0  0  0  0
   -6.3083   15.3878  -31.8933 H   0  0  0  0  0  0  0  0  0  0  0  0
   -4.8581   16.3544  -31.4240 H   0  0  0  0  0  0  0  0  0  0  0  0
   -8.4400   17.2287  -32.9124 H   0  0  0  0  0  0  0  0  0  0  0  0
   -9.1143   19.1463  -31.4747 H   0  0  0  0  0  0  0  0  0  0  0  0
   -7.0830   22.0730  -30.7500 H   0  0  0  0  0  0  0  0  0  0  0  0
   -3.4732   22.0329  -29.6798 H   0  0  0  0  0  0  0  0  0  0  0  0
   -2.8643   22.5666  -27.3785 H   0  0  0  0  0  0  0  0  0  0  0  0
   -1.2303   22.7617  -25.5082 H   0  0  0  0  0  0  0  0  0  0  0  0
    0.3626   24.6789  -25.4299 H   0  0  0  0  0  0  0  0  0  0  0  0
    0.3396   26.3957  -27.2383 H   0  0  0  0  0  0  0  0  0  0  0  0
  1  2  2  0
  2  3  1  0
  3  4  1  0
  4  5  2  0
  5  6  1  0
  6  7  1  0
  7  8  2  0
  7  9  2  0
  7 10  1  0
 10 11  1  0
 11 12  1  0
 12 13  1  0
 13 14  1  0
 14 15  1  0
  6 16  2  0
 16 17  1  0
 17 18  2  0
 18 19  1  0
  2 20  1  0
 20 21  1  0
 21 22  2  0
 22 23  1  0
 23 24  2  0
 24 25  1  0
 25 26  2  0
 26 27  1  0
 27 28  2  0
 28 29  1  0
 22 30  1  0
 30 31  1  0
 18  4  1  0
 31 20  2  0
 15 10  1  0
 28 23  1  0
  5 32  1  0
 11 33  1  0
 11 34  1  0
 12 35  1  0
 12 36  1  0
 14 37  1  0
 14 38  1  0
 15 39  1  0
 15 40  1  0
 16 41  1  0
 17 42  1  0
 19 43  1  0
 21 44  1  0
 24 45  1  0
 25 46  1  0
 26 47  1  0
 27 48  1  0
M  CHG  3   3  -1  29  -1  30  -1
M  END
>  <UniqueID>  (35) 
33

>  <SMILES>  (35) 
O=C([N-]c1cc(S(=O)(=O)N2CCOCC2)ccc1O)c1cc(-c2ccccc2[O-])[n-]n1

>  <Energy>  (35) 
99.59271415017145

>  <Genealogy>  (35) 
O=C([N-]c1cc(S(=O)(=O)N2CCOCC2)ccc1O)c1cc(-c2ccccc2[O-])[n-]n1 (protonated)
O=C([N-]c1cc(S(=O)(=O)N2CCOCC2)ccc1O)c1cc(-c2ccccc2[O-])[n-]n1 (3D coordinates assigned)
O=C([N-]c1cc(S(=O)(=O)N2CCOCC2)ccc1O)c1cc(-c2ccccc2[O-])[n-]n1 (nonaromatic ring conformer: 99.59271415017145 kcal/mol)

>  <smiles>  (35) 
O=C(Nc1cc(S(=O)(=O)N2CCOCC2)ccc1O)c1cc(-c2ccccc2O)[nH]n1

>  <score_type>  (35) 
oracle

>  <origin>  (35) 
adgpu

>  <m_score__min__energy>  (35) 
-14.85

>  <m_primary>  (35) 
energy

$$$$
35:0
     RDKit          3D

 47 49  0  0  0  0  0  0  0  0999 V2000
   -2.9940   25.2450  -26.2500 C   0  0  0  0  0  0  0  0  0  0  0  0
   -4.0480   24.4980  -27.0670 C   0  0  0  0  0  0  0  0  0  0  0  0
   -3.4390   23.6930  -28.2220 C   0  0  0  0  0  0  0  0  0  0  0  0
   -3.0620   24.5780  -29.3710 C   0  0  0  0  0  0  0  0  0  0  0  0
   -1.9880   25.2350  -29.3210 O   0  0  0  0  0  0  0  0  0  0  0  0
   -3.9790   24.7420  -30.4610 N   0  0  0  0  0  0  0  0  0  0  0  0
   -4.9920   23.8130  -30.8710 C   0  0  0  0  0  0  0  0  0  0  0  0
   -4.6110   22.5040  -31.1890 C   0  0  0  0  0  0  0  0  0  0  0  0
   -5.5750   21.5480  -31.5260 C   0  0  0  0  0  0  0  0  0  0  0  0
   -6.9300   21.8980  -31.5510 C   0  0  0  0  0  0  0  0  0  0  0  0
   -8.1850   20.6390  -31.7940 S   0  0  0  0  0  0  0  0  0  0  0  0
   -7.1030   19.7070  -32.8790 C   0  0  0  0  0  0  0  0  0  0  0  0
   -6.8630   20.0660  -34.1540 N   0  0  0  0  0  0  0  0  0  0  0  0
   -5.8600   19.3170  -34.5840 N   0  0  0  0  0  0  0  0  0  0  0  0
   -5.5070   18.5050  -33.5680 C   0  0  0  0  0  0  0  0  0  0  0  0
   -4.2400   17.7010  -33.5760 C   0  0  0  0  0  0  0  0  0  0  0  0
   -3.0520   18.6250  -33.6540 C   0  0  0  0  0  0  0  0  0  0  0  0
   -1.8100   18.1560  -34.1190 C   0  0  0  0  0  0  0  0  0  0  0  0
   -0.7000   19.0080  -34.1420 C   0  0  0  0  0  0  0  0  0  0  0  0
   -0.8200   20.3280  -33.7010 C   0  0  0  0  0  0  0  0  0  0  0  0
   -2.0490   20.8000  -33.2340 C   0  0  0  0  0  0  0  0  0  0  0  0
   -3.1620   19.9540  -33.2090 C   0  0  0  0  0  0  0  0  0  0  0  0
   -6.2840   18.7100  -32.4850 N   0  0  0  0  0  0  0  0  0  0  0  0
   -6.1330   18.1420  -31.1470 C   0  0  0  0  0  0  0  0  0  0  0  0
   -7.3080   23.2240  -31.3090 C   0  0  0  0  0  0  0  0  0  0  0  0
   -6.3450   24.1790  -30.9730 C   0  0  0  0  0  0  0  0  0  0  0  0
   -3.1934   25.1037  -25.1775 H   0  0  0  0  0  0  0  0  0  0  0  0
   -1.9957   24.8517  -26.4923 H   0  0  0  0  0  0  0  0  0  0  0  0
   -3.0344   26.3172  -26.4923 H   0  0  0  0  0  0  0  0  0  0  0  0
   -4.5852   23.8068  -26.4009 H   0  0  0  0  0  0  0  0  0  0  0  0
   -4.7234   25.2482  -27.5041 H   0  0  0  0  0  0  0  0  0  0  0  0
   -2.5389   23.1743  -27.8603 H   0  0  0  0  0  0  0  0  0  0  0  0
   -4.1918   22.9726  -28.5745 H   0  0  0  0  0  0  0  0  0  0  0  0
   -3.5470   22.2255  -31.1738 H   0  0  0  0  0  0  0  0  0  0  0  0
   -5.2680   20.5206  -31.7715 H   0  0  0  0  0  0  0  0  0  0  0  0
   -4.1795   17.1049  -32.6535 H   0  0  0  0  0  0  0  0  0  0  0  0
   -4.2388   17.0320  -34.4492 H   0  0  0  0  0  0  0  0  0  0  0  0
   -1.7110   17.1167  -34.4655 H   0  0  0  0  0  0  0  0  0  0  0  0
    0.2689   18.6375  -34.5081 H   0  0  0  0  0  0  0  0  0  0  0  0
    0.0537   20.9961  -33.7215 H   0  0  0  0  0  0  0  0  0  0  0  0
   -2.1414   21.8392  -32.8853 H   0  0  0  0  0  0  0  0  0  0  0  0
   -4.1276   20.3299  -32.8396 H   0  0  0  0  0  0  0  0  0  0  0  0
   -6.3391   18.9171  -30.3942 H   0  0  0  0  0  0  0  0  0  0  0  0
   -6.8411   17.3099  -31.0198 H   0  0  0  0  0  0  0  0  0  0  0  0
   -5.1051   17.7714  -31.0198 H   0  0  0  0  0  0  0  0  0  0  0  0
   -8.3662   23.5149  -31.3836 H   0  0  0  0  0  0  0  0  0  0  0  0
   -6.6468   25.2204  -30.7878 H   0  0  0  0  0  0  0  0  0  0  0  0
  1  2  1  0
  2  3  1  0
  3  4  1  0
  4  5  2  0
  4  6  1  0
  6  7  1  0
  7  8  2  0
  8  9  1  0
  9 10  2  0
 10 11  1  0
 11 12  1  0
 12 13  2  0
 13 14  1  0
 14 15  2  0
 15 16  1  0
 16 17  1  0
 17 18  2  0
 18 19  1  0
 19 20  2  0
 20 21  1  0
 21 22  2  0
 15 23  1  0
 23 24  1  0
 10 25  1  0
 25 26  2  0
 26  7  1  0
 23 12  1  0
 22 17  1  0
  1 27  1  0
  1 28  1  0
  1 29  1  0
  2 30  1  0
  2 31  1  0
  3 32  1  0
  3 33  1  0
  8 34  1  0
  9 35  1  0
 16 36  1  0
 16 37  1  0
 18 38  1  0
 19 39  1  0
 20 40  1  0
 21 41  1  0
 22 42  1  0
 24 43  1  0
 24 44  1  0
 24 45  1  0
 25 46  1  0
 26 47  1  0
M  CHG  1   6  -1
M  END
>  <UniqueID>  (36) 
34

>  <SMILES>  (36) 
CCCC(=O)[N-]c1ccc(Sc2nnc(Cc3ccccc3)n2C)cc1

>  <Energy>  (36) 
73.05884876590433

>  <Genealogy>  (36) 
CCCC(=O)[N-]c1ccc(Sc2nnc(Cc3ccccc3)n2C)cc1 (protonated)
CCCC(=O)[N-]c1ccc(Sc2nnc(Cc3ccccc3)n2C)cc1 (3D coordinates assigned)
CCCC(=O)[N-]c1ccc(Sc2nnc(Cc3ccccc3)n2C)cc1 (optimized conformer: 73.05884876590433 kcal/mol)

>  <smiles>  (36) 
CCCC(=O)Nc1ccc(Sc2nnc(Cc3ccccc3)n2C)cc1

>  <score_type>  (36) 
oracle

>  <origin>  (36) 
adgpu

>  <m_score__min__energy>  (36) 
-10.869999999999999

>  <m_primary>  (36) 
energy

$$$$
36:0
     RDKit          3D

 43 46  0  0  0  0  0  0  0  0999 V2000
   -4.4570   24.5400  -31.1930 O   0  0  0  0  0  0  0  0  0  0  0  0
   -3.7940   23.5830  -30.7060 C   0  0  0  0  0  0  0  0  0  0  0  0
   -2.4170   23.7630  -30.3620 N   0  0  0  0  0  0  0  0  0  0  0  0
   -1.9040   23.8460  -29.0250 C   0  0  0  0  0  0  0  0  0  0  0  0
   -1.9260   22.6980  -28.2320 C   0  0  0  0  0  0  0  0  0  0  0  0
   -1.4570   22.7360  -26.9210 C   0  0  0  0  0  0  0  0  0  0  0  0
   -0.9340   23.9180  -26.3890 C   0  0  0  0  0  0  0  0  0  0  0  0
   -0.4390   23.8970  -24.7000 Cl  0  0  0  0  0  0  0  0  0  0  0  0
   -0.8470   25.0790  -27.1930 C   0  0  0  0  0  0  0  0  0  0  0  0
   -0.1560   26.5870  -26.5410 S   0  0  0  0  0  0  0  0  0  0  0  0
   -0.1970   27.6680  -27.5840 O   0  0  0  0  0  0  0  0  0  0  0  0
    1.2870   26.3620  -26.1890 O   0  0  0  0  0  0  0  0  0  0  0  0
   -1.0150   27.1880  -25.0840 C   0  0  0  0  0  0  0  0  0  0  0  0
   -0.1480   27.2270  -23.8360 C   0  0  0  0  0  0  0  0  0  0  0  0
   -0.5650   28.5230  -24.5120 C   0  0  0  0  0  0  0  0  0  0  0  0
   -1.3360   25.0330  -28.5180 C   0  0  0  0  0  0  0  0  0  0  0  0
   -1.2370   26.1500  -29.3400 O   0  0  0  0  0  0  0  0  0  0  0  0
   -4.4330   22.3330  -30.4100 N   0  0  0  0  0  0  0  0  0  0  0  0
   -5.7380   21.9600  -30.8860 C   0  0  0  0  0  0  0  0  0  0  0  0
   -6.7760   22.9070  -30.8610 C   0  0  0  0  0  0  0  0  0  0  0  0
   -8.0590   22.5670  -31.3040 C   0  0  0  0  0  0  0  0  0  0  0  0
   -8.3170   21.2740  -31.7620 C   0  0  0  0  0  0  0  0  0  0  0  0
   -7.3030   20.3070  -31.7420 C   0  0  0  0  0  0  0  0  0  0  0  0
   -6.0160   20.6480  -31.3150 C   0  0  0  0  0  0  0  0  0  0  0  0
   -7.6000   19.0030  -32.1500 O   0  0  0  0  0  0  0  0  0  0  0  0
   -8.9520   18.5740  -32.3240 C   0  0  0  0  0  0  0  0  0  0  0  0
   -9.7910   19.6980  -32.9460 C   0  0  0  0  0  0  0  0  0  0  0  0
   -9.5840   20.9220  -32.2370 O   0  0  0  0  0  0  0  0  0  0  0  0
   -2.3165   21.7563  -28.6452 H   0  0  0  0  0  0  0  0  0  0  0  0
   -1.4985   21.8292  -26.2998 H   0  0  0  0  0  0  0  0  0  0  0  0
   -1.9945   26.7737  -25.3648 H   0  0  0  0  0  0  0  0  0  0  0  0
   -0.5759   26.9532  -22.8603 H   0  0  0  0  0  0  0  0  0  0  0  0
    0.8117   26.7773  -23.5414 H   0  0  0  0  0  0  0  0  0  0  0  0
   -1.2947   29.1870  -24.0256 H   0  0  0  0  0  0  0  0  0  0  0  0
   -0.0322   29.3996  -24.9092 H   0  0  0  0  0  0  0  0  0  0  0  0
   -3.9440   21.6880  -29.7490 H   0  0  0  0  0  0  0  0  0  0  0  0
   -6.5783   23.9236  -30.4902 H   0  0  0  0  0  0  0  0  0  0  0  0
   -8.8630   23.3176  -31.2913 H   0  0  0  0  0  0  0  0  0  0  0  0
   -5.2191   19.8898  -31.3142 H   0  0  0  0  0  0  0  0  0  0  0  0
   -8.9719   17.6967  -32.9872 H   0  0  0  0  0  0  0  0  0  0  0  0
   -9.3741   18.3135  -31.3422 H   0  0  0  0  0  0  0  0  0  0  0  0
   -9.4950   19.8328  -33.9968 H   0  0  0  0  0  0  0  0  0  0  0  0
  -10.8550   19.4254  -32.8862 H   0  0  0  0  0  0  0  0  0  0  0  0
  1  2  2  0
  2  3  1  0
  3  4  1  0
  4  5  2  0
  5  6  1  0
  6  7  2  0
  7  8  1  0
  7  9  1  0
  9 10  1  0
 10 11  2  0
 10 12  2  0
 10 13  1  0
 13 14  1  0
 14 15  1  0
  9 16  2  0
 16 17  1  0
  2 18  1  0
 18 19  1  0
 19 20  2  0
 20 21  1  0
 21 22  2  0
 22 23  1  0
 23 24  2  0
 23 25  1  0
 25 26  1  0
 26 27  1  0
 27 28  1  0
 16  4  1  0
 24 19  1  0
 15 13  1  0
 28 22  1  0
  5 29  1  0
  6 30  1  0
 13 31  1  0
 14 32  1  0
 14 33  1  0
 15 34  1  0
 15 35  1  0
 18 36  1  0
 20 37  1  0
 21 38  1  0
 24 39  1  0
 26 40  1  0
 26 41  1  0
 27 42  1  0
 27 43  1  0
M  CHG  2   3  -1  17  -1
M  END
>  <UniqueID>  (37) 
35

>  <SMILES>  (37) 
O=C([N-]c1ccc(Cl)c(S(=O)(=O)C2CC2)c1[O-])Nc1ccc2c(c1)OCCO2

>  <Energy>  (37) 
322.1309407178537

>  <Genealogy>  (37) 
O=C([N-]c1ccc(Cl)c(S(=O)(=O)C2CC2)c1[O-])Nc1ccc2c(c1)OCCO2 (protonated)
O=C([N-]c1ccc(Cl)c(S(=O)(=O)C2CC2)c1[O-])Nc1ccc2c(c1)OCCO2 (3D coordinates assigned)
O=C([N-]c1ccc(Cl)c(S(=O)(=O)C2CC2)c1[O-])Nc1ccc2c(c1)OCCO2 (nonaromatic ring conformer: 322.1309407178537 kcal/mol)

>  <smiles>  (37) 
O=C(Nc1ccc2c(c1)OCCO2)Nc1ccc(Cl)c(S(=O)(=O)C2CC2)c1O

>  <score_type>  (37) 
oracle

>  <origin>  (37) 
adgpu

>  <m_score__min__energy>  (37) 
-12.57

>  <m_primary>  (37) 
energy

$$$$
37:0
     RDKit          3D

 55 58  0  0  0  0  0  0  0  0999 V2000
   -1.7240   25.3050  -27.8840 C   0  0  0  0  0  0  0  0  0  0  0  0
   -2.1610   25.3020  -29.2380 O   0  0  0  0  0  0  0  0  0  0  0  0
   -3.2480   24.5430  -29.6790 C   0  0  0  0  0  0  0  0  0  0  0  0
   -3.6240   23.4000  -28.9780 C   0  0  0  0  0  0  0  0  0  0  0  0
   -4.7080   22.6480  -29.4270 C   0  0  0  0  0  0  0  0  0  0  0  0
   -5.4050   23.0580  -30.5730 C   0  0  0  0  0  0  0  0  0  0  0  0
   -6.5580   22.2900  -31.1120 C   0  0  0  0  0  0  0  0  0  0  0  0
   -7.8600   22.8280  -31.1170 C   0  0  0  0  0  0  0  0  0  0  0  0
   -8.9290   22.0870  -31.6240 C   0  0  0  0  0  0  0  0  0  0  0  0
   -8.7170   20.8090  -32.1410 C   0  0  0  0  0  0  0  0  0  0  0  0
   -7.4240   20.2580  -32.1680 C   0  0  0  0  0  0  0  0  0  0  0  0
   -7.1670   18.9460  -32.7020 N   0  0  0  0  0  0  0  0  0  0  0  0
   -6.0130   18.6190  -33.9560 S   0  0  0  0  0  0  0  0  0  0  0  0
   -5.9160   17.1350  -34.1680 O   0  0  0  0  0  0  0  0  0  0  0  0
   -6.4770   19.2640  -35.2330 O   0  0  0  0  0  0  0  0  0  0  0  0
   -4.4310   19.2270  -33.4810 C   0  0  0  0  0  0  0  0  0  0  0  0
   -4.1890   20.6060  -33.4810 C   0  0  0  0  0  0  0  0  0  0  0  0
   -2.9330   21.1000  -33.1180 C   0  0  0  0  0  0  0  0  0  0  0  0
   -1.9080   20.2190  -32.7480 C   0  0  0  0  0  0  0  0  0  0  0  0
   -0.3250   20.8430  -32.2760 S   0  0  0  0  0  0  0  0  0  0  0  0
    0.4760   19.7330  -31.6520 O   0  0  0  0  0  0  0  0  0  0  0  0
   -0.5070   21.9220  -31.2440 O   0  0  0  0  0  0  0  0  0  0  0  0
    0.5530   21.4890  -33.6410 N   0  0  0  0  0  0  0  0  0  0  0  0
   -0.3090   21.5390  -34.8320 C   0  0  0  0  0  0  0  0  0  0  0  0
    0.4860   22.0750  -36.0410 C   0  0  0  0  0  0  0  0  0  0  0  0
    1.8410   22.3270  -35.7170 O   0  0  0  0  0  0  0  0  0  0  0  0
    2.4400   21.1480  -35.2120 C   0  0  0  0  0  0  0  0  0  0  0  0
    1.7490   20.6770  -33.9140 C   0  0  0  0  0  0  0  0  0  0  0  0
   -2.1490   18.8380  -32.7500 C   0  0  0  0  0  0  0  0  0  0  0  0
   -3.4060   18.3440  -33.1100 C   0  0  0  0  0  0  0  0  0  0  0  0
   -6.3540   21.0050  -31.6490 C   0  0  0  0  0  0  0  0  0  0  0  0
   -4.9870   24.1820  -31.2210 N   0  0  0  0  0  0  0  0  0  0  0  0
   -3.9480   24.9000  -30.7900 N   0  0  0  0  0  0  0  0  0  0  0  0
   -2.5983   25.2990  -27.2165 H   0  0  0  0  0  0  0  0  0  0  0  0
   -1.1117   24.4110  -27.6943 H   0  0  0  0  0  0  0  0  0  0  0  0
   -1.1241   26.2073  -27.6943 H   0  0  0  0  0  0  0  0  0  0  0  0
   -3.0705   23.0935  -28.0782 H   0  0  0  0  0  0  0  0  0  0  0  0
   -5.0146   21.7401  -28.8869 H   0  0  0  0  0  0  0  0  0  0  0  0
   -8.0354   23.8383  -30.7189 H   0  0  0  0  0  0  0  0  0  0  0  0
   -9.9431   22.5130  -31.6157 H   0  0  0  0  0  0  0  0  0  0  0  0
   -9.5667   20.2288  -32.5300 H   0  0  0  0  0  0  0  0  0  0  0  0
   -7.6330   18.1200  -32.2640 H   0  0  0  0  0  0  0  0  0  0  0  0
   -4.9902   21.3031  -33.7677 H   0  0  0  0  0  0  0  0  0  0  0  0
   -2.7484   22.1844  -33.1228 H   0  0  0  0  0  0  0  0  0  0  0  0
   -0.6761   20.5270  -35.0579 H   0  0  0  0  0  0  0  0  0  0  0  0
   -1.1578   22.2100  -34.6337 H   0  0  0  0  0  0  0  0  0  0  0  0
    0.4471   21.3303  -36.8496 H   0  0  0  0  0  0  0  0  0  0  0  0
    0.0293   23.0260  -36.3525 H   0  0  0  0  0  0  0  0  0  0  0  0
    2.3601   20.3536  -35.9686 H   0  0  0  0  0  0  0  0  0  0  0  0
    3.4940   21.3652  -34.9841 H   0  0  0  0  0  0  0  0  0  0  0  0
    1.4534   19.6232  -34.0236 H   0  0  0  0  0  0  0  0  0  0  0  0
    2.4530   20.7892  -33.0763 H   0  0  0  0  0  0  0  0  0  0  0  0
   -1.3463   18.1410  -32.4674 H   0  0  0  0  0  0  0  0  0  0  0  0
   -3.5920   17.2599  -33.1024 H   0  0  0  0  0  0  0  0  0  0  0  0
   -5.3400   20.5789  -31.6624 H   0  0  0  0  0  0  0  0  0  0  0  0
  1  2  1  0
  2  3  1  0
  3  4  2  0
  4  5  1  0
  5  6  2  0
  6  7  1  0
  7  8  2  0
  8  9  1  0
  9 10  2  0
 10 11  1  0
 11 12  1  0
 12 13  1  0
 13 14  2  0
 13 15  2  0
 13 16  1  0
 16 17  2  0
 17 18  1  0
 18 19  2  0
 19 20  1  0
 20 21  2  0
 20 22  2  0
 20 23  1  0
 23 24  1  0
 24 25  1  0
 25 26  1  0
 26 27  1  0
 27 28  1  0
 19 29  1  0
 29 30  2  0
 11 31  2  0
  6 32  1  0
 32 33  2  0
 33  3  1  0
 31  7  1  0
 30 16  1  0
 28 23  1  0
  1 34  1  0
  1 35  1  0
  1 36  1  0
  4 37  1  0
  5 38  1  0
  8 39  1  0
  9 40  1  0
 10 41  1  0
 12 42  1  0
 17 43  1  0
 18 44  1  0
 24 45  1  0
 24 46  1  0
 25 47  1  0
 25 48  1  0
 27 49  1  0
 27 50  1  0
 28 51  1  0
 28 52  1  0
 29 53  1  0
 30 54  1  0
 31 55  1  0
M  END
>  <UniqueID>  (38) 
36

>  <SMILES>  (38) 
COc1ccc(-c2cccc(NS(=O)(=O)c3ccc(S(=O)(=O)N4CCOCC4)cc3)c2)nn1

>  <Energy>  (38) 
71.17307712331471

>  <Genealogy>  (38) 
COc1ccc(-c2cccc(NS(=O)(=O)c3ccc(S(=O)(=O)N4CCOCC4)cc3)c2)nn1 (3D coordinates assigned)
COc1ccc(-c2cccc(NS(=O)(=O)c3ccc(S(=O)(=O)N4CCOCC4)cc3)c2)nn1 (nonaromatic ring conformer: 71.17307712331471 kcal/mol)

>  <smiles>  (38) 
COc1ccc(-c2cccc(NS(=O)(=O)c3ccc(S(=O)(=O)N4CCOCC4)cc3)c2)nn1

>  <score_type>  (38) 
oracle

>  <origin>  (38) 
adgpu

>  <m_score__min__energy>  (38) 
-11.609999999999999

>  <m_primary>  (38) 
energy

$$$$
38:0
     RDKit          3D

 62 65  0  0  0  0  0  0  0  0999 V2000
   -2.1220   22.9140  -30.5590 O   0  0  0  0  0  0  0  0  0  0  0  0
   -3.1000   22.5190  -31.2480 C   0  0  0  0  0  0  0  0  0  0  0  0
   -2.9190   21.4990  -32.2460 N   0  0  0  0  0  0  0  0  0  0  0  0
   -1.6390   21.0130  -32.6780 C   0  0  0  0  0  0  0  0  0  0  0  0
   -1.1930   21.3220  -33.9700 C   0  0  0  0  0  0  0  0  0  0  0  0
    0.0800   20.9280  -34.3920 C   0  0  0  0  0  0  0  0  0  0  0  0
    0.9410   20.2530  -33.5140 C   0  0  0  0  0  0  0  0  0  0  0  0
    2.5880   19.8500  -34.0130 S   0  0  0  0  0  0  0  0  0  0  0  0
    3.4130   19.5620  -32.7860 O   0  0  0  0  0  0  0  0  0  0  0  0
    3.2030   21.0300  -34.7190 O   0  0  0  0  0  0  0  0  0  0  0  0
    2.6210   18.4620  -35.0830 N   0  0  0  0  0  0  0  0  0  0  0  0
    1.8890   17.3120  -34.4950 C   0  0  0  0  0  0  0  0  0  0  0  0
    1.2860   16.3960  -35.5630 C   0  0  0  0  0  0  0  0  0  0  0  0
    0.2500   17.1740  -36.3800 C   0  0  0  0  0  0  0  0  0  0  0  0
    0.7560   18.5780  -36.8000 C   0  0  0  0  0  0  0  0  0  0  0  0
    2.2450   18.8160  -36.4760 C   0  0  0  0  0  0  0  0  0  0  0  0
    0.4960   19.9340  -32.2220 C   0  0  0  0  0  0  0  0  0  0  0  0
   -0.7850   20.3130  -31.8060 C   0  0  0  0  0  0  0  0  0  0  0  0
   -4.4350   23.1150  -31.0100 C   0  0  0  0  0  0  0  0  0  0  0  0
   -5.5820   22.3340  -31.2360 C   0  0  0  0  0  0  0  0  0  0  0  0
   -6.8610   22.8490  -30.9750 C   0  0  0  0  0  0  0  0  0  0  0  0
   -8.2890   21.8420  -31.2340 S   0  0  0  0  0  0  0  0  0  0  0  0
   -9.1280   21.8300  -29.9830 O   0  0  0  0  0  0  0  0  0  0  0  0
   -9.1120   22.4410  -32.3410 O   0  0  0  0  0  0  0  0  0  0  0  0
   -7.8530   20.2020  -31.6570 N   0  0  0  0  0  0  0  0  0  0  0  0
   -7.0470   20.1920  -32.8950 C   0  0  0  0  0  0  0  0  0  0  0  0
   -6.8120   18.7590  -33.4300 C   0  0  0  0  0  0  0  0  0  0  0  0
   -7.2300   17.6870  -32.4150 C   0  0  0  0  0  0  0  0  0  0  0  0
   -8.6870   17.8880  -31.9600 C   0  0  0  0  0  0  0  0  0  0  0  0
   -9.0620   19.3770  -31.8210 C   0  0  0  0  0  0  0  0  0  0  0  0
   -6.9970   24.1590  -30.5010 C   0  0  0  0  0  0  0  0  0  0  0  0
   -5.8660   24.9550  -30.3070 C   0  0  0  0  0  0  0  0  0  0  0  0
   -4.5890   24.4480  -30.5720 C   0  0  0  0  0  0  0  0  0  0  0  0
   -3.4880   25.2870  -30.4250 O   0  0  0  0  0  0  0  0  0  0  0  0
   -3.7600   21.0920  -32.7110 H   0  0  0  0  0  0  0  0  0  0  0  0
   -1.8487   21.8780  -34.6563 H   0  0  0  0  0  0  0  0  0  0  0  0
    0.4085   21.1485  -35.4184 H   0  0  0  0  0  0  0  0  0  0  0  0
    2.5877   16.7256  -33.8803 H   0  0  0  0  0  0  0  0  0  0  0  0
    1.0614   17.7142  -33.8922 H   0  0  0  0  0  0  0  0  0  0  0  0
    2.0835   16.0364  -36.2299 H   0  0  0  0  0  0  0  0  0  0  0  0
    0.7989   15.5381  -35.0765 H   0  0  0  0  0  0  0  0  0  0  0  0
    0.0124   16.5990  -37.2871 H   0  0  0  0  0  0  0  0  0  0  0  0
   -0.6376   17.3151  -35.7457 H   0  0  0  0  0  0  0  0  0  0  0  0
    0.6133   18.6896  -37.8850 H   0  0  0  0  0  0  0  0  0  0  0  0
    0.1772   19.3164  -36.2257 H   0  0  0  0  0  0  0  0  0  0  0  0
    2.8508   18.2077  -37.1637 H   0  0  0  0  0  0  0  0  0  0  0  0
    2.4293   19.8942  -36.5927 H   0  0  0  0  0  0  0  0  0  0  0  0
    1.1559   19.3846  -31.5345 H   0  0  0  0  0  0  0  0  0  0  0  0
   -1.1266   20.0621  -30.7909 H   0  0  0  0  0  0  0  0  0  0  0  0
   -5.4758   21.3091  -31.6212 H   0  0  0  0  0  0  0  0  0  0  0  0
   -7.5735   20.7753  -33.6648 H   0  0  0  0  0  0  0  0  0  0  0  0
   -6.0652   20.6297  -32.6615 H   0  0  0  0  0  0  0  0  0  0  0  0
   -7.3988   18.6236  -34.3505 H   0  0  0  0  0  0  0  0  0  0  0  0
   -5.7352   18.6418  -33.6216 H   0  0  0  0  0  0  0  0  0  0  0  0
   -7.1332   16.6951  -32.8806 H   0  0  0  0  0  0  0  0  0  0  0  0
   -6.5761   17.7679  -31.5342 H   0  0  0  0  0  0  0  0  0  0  0  0
   -9.3550   17.4236  -32.7003 H   0  0  0  0  0  0  0  0  0  0  0  0
   -8.7951   17.4222  -30.9694 H   0  0  0  0  0  0  0  0  0  0  0  0
   -9.6006   19.7001  -32.7240 H   0  0  0  0  0  0  0  0  0  0  0  0
   -9.6996   19.5012  -30.9333 H   0  0  0  0  0  0  0  0  0  0  0  0
   -7.9965   24.5622  -30.2809 H   0  0  0  0  0  0  0  0  0  0  0  0
   -5.9798   25.9870  -29.9436 H   0  0  0  0  0  0  0  0  0  0  0  0
  1  2  2  0
  2  3  1  0
  3  4  1  0
  4  5  2  0
  5  6  1  0
  6  7  2  0
  7  8  1  0
  8  9  2  0
  8 10  2  0
  8 11  1  0
 11 12  1  0
 12 13  1  0
 13 14  1  0
 14 15  1  0
 15 16  1  0
  7 17  1  0
 17 18  2  0
  2 19  1  0
 19 20  2  0
 20 21  1  0
 21 22  1  0
 22 23  2  0
 22 24  2  0
 22 25  1  0
 25 26  1  0
 26 27  1  0
 27 28  1  0
 28 29  1  0
 29 30  1  0
 21 31  2  0
 31 32  1  0
 32 33  2  0
 33 34  1  0
 18  4  1  0
 33 19  1  0
 16 11  1  0
 30 25  1  0
  3 35  1  0
  5 36  1  0
  6 37  1  0
 12 38  1  0
 12 39  1  0
 13 40  1  0
 13 41  1  0
 14 42  1  0
 14 43  1  0
 15 44  1  0
 15 45  1  0
 16 46  1  0
 16 47  1  0
 17 48  1  0
 18 49  1  0
 20 50  1  0
 26 51  1  0
 26 52  1  0
 27 53  1  0
 27 54  1  0
 28 55  1  0
 28 56  1  0
 29 57  1  0
 29 58  1  0
 30 59  1  0
 30 60  1  0
 31 61  1  0
 32 62  1  0
M  CHG  1  34  -1
M  END
>  <UniqueID>  (39) 
37

>  <SMILES>  (39) 
O=C(Nc1ccc(S(=O)(=O)N2CCCCC2)cc1)c1cc(S(=O)(=O)N2CCCCC2)ccc1[O-]

>  <Energy>  (39) 
81.94877560890127

>  <Genealogy>  (39) 
O=C(Nc1ccc(S(=O)(=O)N2CCCCC2)cc1)c1cc(S(=O)(=O)N2CCCCC2)ccc1[O-] (protonated)
O=C(Nc1ccc(S(=O)(=O)N2CCCCC2)cc1)c1cc(S(=O)(=O)N2CCCCC2)ccc1[O-] (3D coordinates assigned)
O=C(Nc1ccc(S(=O)(=O)N2CCCCC2)cc1)c1cc(S(=O)(=O)N2CCCCC2)ccc1[O-] (nonaromatic ring conformer: 81.94877560890127 kcal/mol)

>  <smiles>  (39) 
O=C(Nc1ccc(S(=O)(=O)N2CCCCC2)cc1)c1cc(S(=O)(=O)N2CCCCC2)ccc1O

>  <score_type>  (39) 
oracle

>  <origin>  (39) 
adgpu

>  <m_score__min__energy>  (39) 
-13.19

>  <m_primary>  (39) 
energy

$$$$
39:0
     RDKit          3D

 35 37  0  0  0  0  0  0  0  0999 V2000
   -2.8460   20.6110  -33.8170 O   0  0  0  0  0  0  0  0  0  0  0  0
   -3.9300   20.4340  -33.2010 C   0  0  0  0  0  0  0  0  0  0  0  0
   -4.3670   21.3630  -32.2010 N   0  0  0  0  0  0  0  0  0  0  0  0
   -5.7150   21.7990  -31.9600 C   0  0  0  0  0  0  0  0  0  0  0  0
   -6.7950   20.8960  -31.9620 C   0  0  0  0  0  0  0  0  0  0  0  0
   -8.0900   21.3450  -31.6950 C   0  0  0  0  0  0  0  0  0  0  0  0
   -8.3180   22.6900  -31.4010 C   0  0  0  0  0  0  0  0  0  0  0  0
   -7.2520   23.5910  -31.3720 C   0  0  0  0  0  0  0  0  0  0  0  0
   -5.9450   23.1560  -31.6630 C   0  0  0  0  0  0  0  0  0  0  0  0
   -4.8240   24.0530  -31.6130 N   0  0  0  0  0  0  0  0  0  0  0  0
   -4.3340   24.7570  -30.4630 C   0  0  0  0  0  0  0  0  0  0  0  0
   -4.4740   26.0070  -30.3870 O   0  0  0  0  0  0  0  0  0  0  0  0
   -3.6110   24.0160  -29.3950 C   0  0  0  0  0  0  0  0  0  0  0  0
   -4.1610   22.8260  -28.8770 C   0  0  0  0  0  0  0  0  0  0  0  0
   -3.5010   22.1120  -27.8750 C   0  0  0  0  0  0  0  0  0  0  0  0
   -2.2830   22.5700  -27.3730 C   0  0  0  0  0  0  0  0  0  0  0  0
   -1.7230   23.7460  -27.8710 C   0  0  0  0  0  0  0  0  0  0  0  0
   -2.3760   24.4730  -28.8750 C   0  0  0  0  0  0  0  0  0  0  0  0
   -1.7850   25.6420  -29.3400 O   0  0  0  0  0  0  0  0  0  0  0  0
   -4.7220   19.2290  -33.4700 C   0  0  0  0  0  0  0  0  0  0  0  0
   -5.0280   18.2360  -32.5590 C   0  0  0  0  0  0  0  0  0  0  0  0
   -5.7840   17.3160  -33.2540 C   0  0  0  0  0  0  0  0  0  0  0  0
   -5.8920   17.8020  -34.5410 C   0  0  0  0  0  0  0  0  0  0  0  0
   -5.2500   18.9440  -34.6390 O   0  0  0  0  0  0  0  0  0  0  0  0
   -6.6179   19.8314  -32.1749 H   0  0  0  0  0  0  0  0  0  0  0  0
   -8.9318   20.6373  -31.7165 H   0  0  0  0  0  0  0  0  0  0  0  0
   -9.3393   23.0408  -31.1918 H   0  0  0  0  0  0  0  0  0  0  0  0
   -7.4342   24.6462  -31.1205 H   0  0  0  0  0  0  0  0  0  0  0  0
   -5.1208   22.4558  -29.2665 H   0  0  0  0  0  0  0  0  0  0  0  0
   -3.9430   21.1853  -27.4802 H   0  0  0  0  0  0  0  0  0  0  0  0
   -1.7646   22.0041  -26.5850 H   0  0  0  0  0  0  0  0  0  0  0  0
   -0.7625   24.1052  -27.4730 H   0  0  0  0  0  0  0  0  0  0  0  0
   -4.7307   18.1893  -31.5010 H   0  0  0  0  0  0  0  0  0  0  0  0
   -6.2143   16.3828  -32.8617 H   0  0  0  0  0  0  0  0  0  0  0  0
   -6.4338   17.3079  -35.3610 H   0  0  0  0  0  0  0  0  0  0  0  0
  1  2  2  0
  2  3  1  0
  3  4  1  0
  4  5  2  0
  5  6  1  0
  6  7  2  0
  7  8  1  0
  8  9  2  0
  9 10  1  0
 10 11  1  0
 11 12  2  0
 11 13  1  0
 13 14  2  0
 14 15  1  0
 15 16  2  0
 16 17  1  0
 17 18  2  0
 18 19  1  0
  2 20  1  0
 20 21  2  0
 21 22  1  0
 22 23  2  0
 23 24  1  0
  9  4  1  0
 18 13  1  0
 24 20  1  0
  5 25  1  0
  6 26  1  0
  7 27  1  0
  8 28  1  0
 14 29  1  0
 15 30  1  0
 16 31  1  0
 17 32  1  0
 21 33  1  0
 22 34  1  0
 23 35  1  0
M  CHG  3   3  -1  10  -1  19  -1
M  END
>  <UniqueID>  (40) 
38

>  <SMILES>  (40) 
O=C([N-]c1ccccc1[N-]C(=O)c1ccccc1[O-])c1ccco1

>  <Energy>  (40) 
72.54378259858026

>  <Genealogy>  (40) 
O=C([N-]c1ccccc1[N-]C(=O)c1ccccc1[O-])c1ccco1 (protonated)
O=C([N-]c1ccccc1[N-]C(=O)c1ccccc1[O-])c1ccco1 (3D coordinates assigned)
O=C([N-]c1ccccc1[N-]C(=O)c1ccccc1[O-])c1ccco1 (optimized conformer: 72.54378259858026 kcal/mol)

>  <smiles>  (40) 
O=C(Nc1ccccc1NC(=O)c1ccccc1O)c1ccco1

>  <score_type>  (40) 
oracle

>  <origin>  (40) 
adgpu

>  <m_score__min__energy>  (40) 
-11.949999999999999

>  <m_primary>  (40) 
energy

$$$$
40:0
     RDKit          3D

 43 45  0  0  0  0  0  0  0  0999 V2000
   -1.5720   20.4520  -26.3580 N   0  0  0  0  0  0  0  0  0  0  0  0
   -1.5090   21.5100  -26.8210 C   0  0  0  0  0  0  0  0  0  0  0  0
   -1.4330   22.8300  -27.3930 C   0  0  0  0  0  0  0  0  0  0  0  0
   -0.5130   23.7570  -26.8890 C   0  0  0  0  0  0  0  0  0  0  0  0
   -0.4500   25.0430  -27.4290 C   0  0  0  0  0  0  0  0  0  0  0  0
   -1.3060   25.4110  -28.4720 C   0  0  0  0  0  0  0  0  0  0  0  0
   -1.2400   26.7000  -28.9900 O   0  0  0  0  0  0  0  0  0  0  0  0
   -2.2340   24.4900  -28.9860 C   0  0  0  0  0  0  0  0  0  0  0  0
   -3.1080   24.9060  -30.0460 N   0  0  0  0  0  0  0  0  0  0  0  0
   -4.5290   24.0560  -30.5630 S   0  0  0  0  0  0  0  0  0  0  0  0
   -5.3520   24.9610  -31.4380 O   0  0  0  0  0  0  0  0  0  0  0  0
   -5.3380   23.6670  -29.3570 O   0  0  0  0  0  0  0  0  0  0  0  0
   -4.0740   22.5960  -31.4360 C   0  0  0  0  0  0  0  0  0  0  0  0
   -2.7360   22.3640  -31.7770 C   0  0  0  0  0  0  0  0  0  0  0  0
   -2.3780   21.1940  -32.4520 C   0  0  0  0  0  0  0  0  0  0  0  0
   -3.3530   20.2550  -32.7990 C   0  0  0  0  0  0  0  0  0  0  0  0
   -2.9780   19.1280  -33.4540 F   0  0  0  0  0  0  0  0  0  0  0  0
   -4.7020   20.4890  -32.4770 C   0  0  0  0  0  0  0  0  0  0  0  0
   -5.9610   19.3330  -32.9290 S   0  0  0  0  0  0  0  0  0  0  0  0
   -5.3280   17.9900  -33.1670 O   0  0  0  0  0  0  0  0  0  0  0  0
   -6.5920   19.7720  -34.2220 O   0  0  0  0  0  0  0  0  0  0  0  0
   -7.2060   19.1740  -31.7050 N   0  0  0  0  0  0  0  0  0  0  0  0
   -8.2770   18.2300  -32.0890 C   0  0  0  0  0  0  0  0  0  0  0  0
   -9.5400   18.9340  -32.6100 C   0  0  0  0  0  0  0  0  0  0  0  0
   -9.2170   20.1830  -33.1740 O   0  0  0  0  0  0  0  0  0  0  0  0
   -8.8040   21.0710  -32.1540 C   0  0  0  0  0  0  0  0  0  0  0  0
   -7.7110   20.4770  -31.2360 C   0  0  0  0  0  0  0  0  0  0  0  0
   -5.0530   21.6580  -31.7880 C   0  0  0  0  0  0  0  0  0  0  0  0
   -2.2880   23.1920  -28.4420 C   0  0  0  0  0  0  0  0  0  0  0  0
    0.1605   23.4721  -26.0673 H   0  0  0  0  0  0  0  0  0  0  0  0
    0.2752   25.7691  -27.0328 H   0  0  0  0  0  0  0  0  0  0  0  0
   -1.9657   23.1036  -31.5132 H   0  0  0  0  0  0  0  0  0  0  0  0
   -1.3247   21.0115  -32.7112 H   0  0  0  0  0  0  0  0  0  0  0  0
   -7.8937   17.5677  -32.8792 H   0  0  0  0  0  0  0  0  0  0  0  0
   -8.5614   17.6701  -31.1859 H   0  0  0  0  0  0  0  0  0  0  0  0
  -10.0146   18.3036  -33.3764 H   0  0  0  0  0  0  0  0  0  0  0  0
  -10.2287   19.0941  -31.7673 H   0  0  0  0  0  0  0  0  0  0  0  0
   -8.4082   21.9835  -32.6238 H   0  0  0  0  0  0  0  0  0  0  0  0
   -9.6824   21.2781  -31.5251 H   0  0  0  0  0  0  0  0  0  0  0  0
   -6.8689   21.1834  -31.1922 H   0  0  0  0  0  0  0  0  0  0  0  0
   -8.1657   20.3155  -30.2475 H   0  0  0  0  0  0  0  0  0  0  0  0
   -6.1046   21.8401  -31.5218 H   0  0  0  0  0  0  0  0  0  0  0  0
   -3.0044   22.4596  -28.8424 H   0  0  0  0  0  0  0  0  0  0  0  0
  1  2  3  0
  2  3  1  0
  3  4  2  0
  4  5  1  0
  5  6  2  0
  6  7  1  0
  6  8  1  0
  8  9  1  0
  9 10  1  0
 10 11  2  0
 10 12  2  0
 10 13  1  0
 13 14  2  0
 14 15  1  0
 15 16  2  0
 16 17  1  0
 16 18  1  0
 18 19  1  0
 19 20  2  0
 19 21  2  0
 19 22  1  0
 22 23  1  0
 23 24  1  0
 24 25  1  0
 25 26  1  0
 26 27  1  0
 18 28  2  0
  8 29  2  0
 29  3  1  0
 28 13  1  0
 27 22  1  0
  4 30  1  0
  5 31  1  0
 14 32  1  0
 15 33  1  0
 23 34  1  0
 23 35  1  0
 24 36  1  0
 24 37  1  0
 26 38  1  0
 26 39  1  0
 27 40  1  0
 27 41  1  0
 28 42  1  0
 29 43  1  0
M  CHG  2   7  -1   9  -1
M  END
>  <UniqueID>  (41) 
39

>  <SMILES>  (41) 
N#Cc1ccc([O-])c([N-]S(=O)(=O)c2ccc(F)c(S(=O)(=O)N3CCOCC3)c2)c1

>  <Energy>  (41) 
57.94586525304736

>  <Genealogy>  (41) 
N#Cc1ccc([O-])c([N-]S(=O)(=O)c2ccc(F)c(S(=O)(=O)N3CCOCC3)c2)c1 (protonated)
N#Cc1ccc([O-])c([N-]S(=O)(=O)c2ccc(F)c(S(=O)(=O)N3CCOCC3)c2)c1 (3D coordinates assigned)
N#Cc1ccc([O-])c([N-]S(=O)(=O)c2ccc(F)c(S(=O)(=O)N3CCOCC3)c2)c1 (nonaromatic ring conformer: 57.94586525304736 kcal/mol)

>  <smiles>  (41) 
N#Cc1ccc(O)c(NS(=O)(=O)c2ccc(F)c(S(=O)(=O)N3CCOCC3)c2)c1

>  <score_type>  (41) 
oracle

>  <origin>  (41) 
adgpu

>  <m_score__min__energy>  (41) 
-14.17

>  <m_primary>  (41) 
energy

$$$$
41:0
     RDKit          3D

 49 51  0  0  0  0  0  0  0  0999 V2000
   -9.1070   19.1760  -32.5330 C   0  0  0  0  0  0  0  0  0  0  0  0
   -8.2400   20.2890  -32.0240 C   0  0  0  0  0  0  0  0  0  0  0  0
   -8.7790   21.2770  -31.1920 C   0  0  0  0  0  0  0  0  0  0  0  0
   -7.9820   22.3300  -30.7420 C   0  0  0  0  0  0  0  0  0  0  0  0
   -6.6310   22.4190  -31.1170 C   0  0  0  0  0  0  0  0  0  0  0  0
   -5.6660   23.7730  -30.5000 S   0  0  0  0  0  0  0  0  0  0  0  0
   -4.6300   24.1750  -31.5140 O   0  0  0  0  0  0  0  0  0  0  0  0
   -6.5860   24.9340  -30.2390 O   0  0  0  0  0  0  0  0  0  0  0  0
   -4.8590   23.3210  -29.0160 N   0  0  0  0  0  0  0  0  0  0  0  0
   -3.7080   22.4260  -29.2870 C   0  0  0  0  0  0  0  0  0  0  0  0
   -2.3590   23.1530  -29.1800 C   0  0  0  0  0  0  0  0  0  0  0  0
   -2.1630   23.7310  -27.8290 N   0  0  0  0  0  0  0  0  0  0  0  0
   -0.9580   24.9960  -27.8980 S   0  0  0  0  0  0  0  0  0  0  0  0
    0.3840   24.4090  -28.2380 O   0  0  0  0  0  0  0  0  0  0  0  0
   -1.3300   25.9920  -28.9600 O   0  0  0  0  0  0  0  0  0  0  0  0
   -0.8710   25.8280  -26.3470 C   0  0  0  0  0  0  0  0  0  0  0  0
   -0.8830   27.2300  -26.3060 C   0  0  0  0  0  0  0  0  0  0  0  0
   -0.8350   27.8970  -25.0780 C   0  0  0  0  0  0  0  0  0  0  0  0
   -0.7820   27.1690  -23.8860 C   0  0  0  0  0  0  0  0  0  0  0  0
   -0.7770   25.7710  -23.9220 C   0  0  0  0  0  0  0  0  0  0  0  0
   -0.8240   25.1010  -25.1480 C   0  0  0  0  0  0  0  0  0  0  0  0
   -3.4180   24.2300  -27.2080 C   0  0  0  0  0  0  0  0  0  0  0  0
   -4.5030   24.5330  -28.2510 C   0  0  0  0  0  0  0  0  0  0  0  0
   -6.0940   21.4530  -32.0030 C   0  0  0  0  0  0  0  0  0  0  0  0
   -4.6640   21.5120  -32.4740 C   0  0  0  0  0  0  0  0  0  0  0  0
   -6.9050   20.3900  -32.4380 C   0  0  0  0  0  0  0  0  0  0  0  0
   -9.5352   18.6263  -31.6819 H   0  0  0  0  0  0  0  0  0  0  0  0
   -9.9194   19.5947  -33.1452 H   0  0  0  0  0  0  0  0  0  0  0  0
   -8.5023   18.4908  -33.1452 H   0  0  0  0  0  0  0  0  0  0  0  0
   -9.8358   21.2230  -30.8915 H   0  0  0  0  0  0  0  0  0  0  0  0
   -8.4162   23.0991  -30.0863 H   0  0  0  0  0  0  0  0  0  0  0  0
   -3.7231   21.6017  -28.5588 H   0  0  0  0  0  0  0  0  0  0  0  0
   -3.8076   22.0567  -30.3184 H   0  0  0  0  0  0  0  0  0  0  0  0
   -1.5492   22.4371  -29.3841 H   0  0  0  0  0  0  0  0  0  0  0  0
   -2.3481   23.9732  -29.9129 H   0  0  0  0  0  0  0  0  0  0  0  0
   -1.7730   22.9800  -27.2100 H   0  0  0  0  0  0  0  0  0  0  0  0
   -0.9303   27.8060  -27.2419 H   0  0  0  0  0  0  0  0  0  0  0  0
   -0.8390   28.9966  -25.0500 H   0  0  0  0  0  0  0  0  0  0  0  0
   -0.7443   27.6951  -22.9207 H   0  0  0  0  0  0  0  0  0  0  0  0
   -0.7360   25.1977  -22.9841 H   0  0  0  0  0  0  0  0  0  0  0  0
   -0.8241   24.0013  -25.1727 H   0  0  0  0  0  0  0  0  0  0  0  0
   -3.7978   23.4655  -26.5142 H   0  0  0  0  0  0  0  0  0  0  0  0
   -3.1842   25.1679  -26.6830 H   0  0  0  0  0  0  0  0  0  0  0  0
   -5.3997   24.9098  -27.7373 H   0  0  0  0  0  0  0  0  0  0  0  0
   -4.1133   25.2862  -28.9516 H   0  0  0  0  0  0  0  0  0  0  0  0
   -3.9921   21.5397  -31.6035 H   0  0  0  0  0  0  0  0  0  0  0  0
   -4.4409   20.6223  -33.0812 H   0  0  0  0  0  0  0  0  0  0  0  0
   -4.5150   22.4171  -33.0812 H   0  0  0  0  0  0  0  0  0  0  0  0
   -6.4863   19.6280  -33.1118 H   0  0  0  0  0  0  0  0  0  0  0  0
  1  2  1  0
  2  3  2  0
  3  4  1  0
  4  5  2  0
  5  6  1  0
  6  7  2  0
  6  8  2  0
  6  9  1  0
  9 10  1  0
 10 11  1  0
 11 12  1  0
 12 13  1  0
 13 14  2  0
 13 15  2  0
 13 16  1  0
 16 17  2  0
 17 18  1  0
 18 19  2  0
 19 20  1  0
 20 21  2  0
 12 22  1  0
 22 23  1  0
  5 24  1  0
 24 25  1  0
 24 26  2  0
 26  2  1  0
 23  9  1  0
 21 16  1  0
  1 27  1  0
  1 28  1  0
  1 29  1  0
  3 30  1  0
  4 31  1  0
 10 32  1  0
 10 33  1  0
 11 34  1  0
 11 35  1  0
 12 36  1  0
 17 37  1  0
 18 38  1  0
 19 39  1  0
 20 40  1  0
 21 41  1  0
 22 42  1  0
 22 43  1  0
 23 44  1  0
 23 45  1  0
 25 46  1  0
 25 47  1  0
 25 48  1  0
 26 49  1  0
M  CHG  1  12   1
M  END
>  <UniqueID>  (42) 
40

>  <SMILES>  (42) 
Cc1ccc(S(=O)(=O)N2CC[NH+](S(=O)(=O)c3ccccc3)CC2)c(C)c1

>  <Energy>  (42) 
59.839378649051845

>  <Genealogy>  (42) 
Cc1ccc(S(=O)(=O)N2CC[NH+](S(=O)(=O)c3ccccc3)CC2)c(C)c1 (protonated)
Cc1ccc(S(=O)(=O)N2CC[NH+](S(=O)(=O)c3ccccc3)CC2)c(C)c1 (3D coordinates assigned)
Cc1ccc(S(=O)(=O)N2CC[NH+](S(=O)(=O)c3ccccc3)CC2)c(C)c1 (nonaromatic ring conformer: 59.839378649051845 kcal/mol)

>  <smiles>  (42) 
Cc1ccc(S(=O)(=O)N2CCN(S(=O)(=O)c3ccccc3)CC2)c(C)c1

>  <score_type>  (42) 
oracle

>  <origin>  (42) 
adgpu

>  <m_score__min__energy>  (42) 
-10

>  <m_primary>  (42) 
energy

$$$$
42:0
     RDKit          3D

 41 43  0  0  0  0  0  0  0  0999 V2000
   -8.5820   21.4120  -30.7970 O   0  0  0  0  0  0  0  0  0  0  0  0
   -7.5870   21.5240  -31.5630 C   0  0  0  0  0  0  0  0  0  0  0  0
   -7.4710   20.6890  -32.7230 N   0  0  0  0  0  0  0  0  0  0  0  0
   -6.9130   19.3690  -32.7710 C   0  0  0  0  0  0  0  0  0  0  0  0
   -6.9960   18.4830  -31.6810 C   0  0  0  0  0  0  0  0  0  0  0  0
   -6.4170   17.2120  -31.7600 C   0  0  0  0  0  0  0  0  0  0  0  0
   -5.7420   16.8160  -32.9210 C   0  0  0  0  0  0  0  0  0  0  0  0
   -4.9930   15.2230  -33.0030 S   0  0  0  0  0  0  0  0  0  0  0  0
   -4.9280   14.6370  -31.6210 O   0  0  0  0  0  0  0  0  0  0  0  0
   -5.8230   14.3160  -33.8690 O   0  0  0  0  0  0  0  0  0  0  0  0
   -3.3770   15.3790  -33.6470 N   0  0  0  0  0  0  0  0  0  0  0  0
   -2.7190   16.5850  -33.1450 C   0  0  0  0  0  0  0  0  0  0  0  0
   -1.7000   16.9910  -34.1980 C   0  0  0  0  0  0  0  0  0  0  0  0
   -2.1460   16.3010  -35.4780 C   0  0  0  0  0  0  0  0  0  0  0  0
   -3.3970   15.5230  -35.1020 C   0  0  0  0  0  0  0  0  0  0  0  0
   -5.6310   17.7070  -33.9950 C   0  0  0  0  0  0  0  0  0  0  0  0
   -6.2080   18.9780  -33.9170 C   0  0  0  0  0  0  0  0  0  0  0  0
   -6.5910   22.5920  -31.3310 C   0  0  0  0  0  0  0  0  0  0  0  0
   -7.0380   23.8390  -30.8540 C   0  0  0  0  0  0  0  0  0  0  0  0
   -6.1280   24.8560  -30.5570 C   0  0  0  0  0  0  0  0  0  0  0  0
   -4.7600   24.6450  -30.7310 C   0  0  0  0  0  0  0  0  0  0  0  0
   -3.8560   25.6550  -30.4250 O   0  0  0  0  0  0  0  0  0  0  0  0
   -4.3010   23.4210  -31.2200 C   0  0  0  0  0  0  0  0  0  0  0  0
   -5.2010   22.3970  -31.5420 C   0  0  0  0  0  0  0  0  0  0  0  0
   -4.6840   21.2250  -32.0950 O   0  0  0  0  0  0  0  0  0  0  0  0
   -7.5182   18.7910  -30.7632 H   0  0  0  0  0  0  0  0  0  0  0  0
   -6.4923   16.5214  -30.9071 H   0  0  0  0  0  0  0  0  0  0  0  0
   -3.4566   17.3881  -33.0004 H   0  0  0  0  0  0  0  0  0  0  0  0
   -2.2357   16.3997  -32.1744 H   0  0  0  0  0  0  0  0  0  0  0  0
   -1.6973   18.0830  -34.3302 H   0  0  0  0  0  0  0  0  0  0  0  0
   -0.6781   16.7016  -33.9117 H   0  0  0  0  0  0  0  0  0  0  0  0
   -2.3742   17.0440  -36.2564 H   0  0  0  0  0  0  0  0  0  0  0  0
   -1.3621   15.6444  -35.8835 H   0  0  0  0  0  0  0  0  0  0  0  0
   -4.2956   16.0739  -35.4167 H   0  0  0  0  0  0  0  0  0  0  0  0
   -3.4180   14.5413  -35.5978 H   0  0  0  0  0  0  0  0  0  0  0  0
   -5.0881   17.4061  -34.9031 H   0  0  0  0  0  0  0  0  0  0  0  0
   -6.1078   19.6760  -34.7612 H   0  0  0  0  0  0  0  0  0  0  0  0
   -8.1149   24.0140  -30.7138 H   0  0  0  0  0  0  0  0  0  0  0  0
   -6.4908   25.8256  -30.1850 H   0  0  0  0  0  0  0  0  0  0  0  0
   -3.2213   23.2587  -31.3539 H   0  0  0  0  0  0  0  0  0  0  0  0
   -5.2300   20.5830  -32.6530 H   0  0  0  0  0  0  0  0  0  0  0  0
  1  2  2  0
  2  3  1  0
  3  4  1  0
  4  5  2  0
  5  6  1  0
  6  7  2  0
  7  8  1  0
  8  9  2  0
  8 10  2  0
  8 11  1  0
 11 12  1  0
 12 13  1  0
 13 14  1  0
 14 15  1  0
  7 16  1  0
 16 17  2  0
  2 18  1  0
 18 19  2  0
 19 20  1  0
 20 21  2  0
 21 22  1  0
 21 23  1  0
 23 24  2  0
 24 25  1  0
 17  4  1  0
 24 18  1  0
 15 11  1  0
  5 26  1  0
  6 27  1  0
 12 28  1  0
 12 29  1  0
 13 30  1  0
 13 31  1  0
 14 32  1  0
 14 33  1  0
 15 34  1  0
 15 35  1  0
 16 36  1  0
 17 37  1  0
 19 38  1  0
 20 39  1  0
 23 40  1  0
 25 41  1  0
M  CHG  2   3  -1  22  -1
M  END
>  <UniqueID>  (43) 
41

>  <SMILES>  (43) 
O=C([N-]c1ccc(S(=O)(=O)N2CCCC2)cc1)c1ccc([O-])cc1O

>  <Energy>  (43) 
51.985667294538786

>  <Genealogy>  (43) 
O=C([N-]c1ccc(S(=O)(=O)N2CCCC2)cc1)c1ccc([O-])cc1O (protonated)
O=C([N-]c1ccc(S(=O)(=O)N2CCCC2)cc1)c1ccc([O-])cc1O (3D coordinates assigned)
O=C([N-]c1ccc(S(=O)(=O)N2CCCC2)cc1)c1ccc([O-])cc1O (nonaromatic ring conformer: 51.985667294538786 kcal/mol)

>  <smiles>  (43) 
O=C(Nc1ccc(S(=O)(=O)N2CCCC2)cc1)c1ccc(O)cc1O

>  <score_type>  (43) 
oracle

>  <origin>  (43) 
adgpu

>  <m_score__min__energy>  (43) 
-10.31

>  <m_primary>  (43) 
energy

$$$$
43:0
     RDKit          3D

 51 53  0  0  0  0  0  0  0  0999 V2000
   -5.5140   16.5310  -34.2020 C   0  0  0  0  0  0  0  0  0  0  0  0
   -6.1270   17.7700  -33.6180 C   0  0  0  0  0  0  0  0  0  0  0  0
   -5.5570   19.0240  -33.8650 C   0  0  0  0  0  0  0  0  0  0  0  0
   -6.1140   20.1730  -33.3020 C   0  0  0  0  0  0  0  0  0  0  0  0
   -7.2440   20.0900  -32.4740 C   0  0  0  0  0  0  0  0  0  0  0  0
   -7.9450   21.5870  -31.8330 S   0  0  0  0  0  0  0  0  0  0  0  0
   -9.3910   21.6690  -32.2310 O   0  0  0  0  0  0  0  0  0  0  0  0
   -7.8640   21.6200  -30.3320 O   0  0  0  0  0  0  0  0  0  0  0  0
   -7.0850   22.9480  -32.4770 N   0  0  0  0  0  0  0  0  0  0  0  0
   -5.9980   23.5610  -31.7690 C   0  0  0  0  0  0  0  0  0  0  0  0
   -6.1260   24.8390  -31.2020 C   0  0  0  0  0  0  0  0  0  0  0  0
   -5.0590   25.4100  -30.5060 C   0  0  0  0  0  0  0  0  0  0  0  0
   -3.8610   24.7080  -30.3500 C   0  0  0  0  0  0  0  0  0  0  0  0
   -2.8200   25.2970  -29.6410 O   0  0  0  0  0  0  0  0  0  0  0  0
   -3.7260   23.4160  -30.8950 C   0  0  0  0  0  0  0  0  0  0  0  0
   -2.2510   22.4640  -30.6660 S   0  0  0  0  0  0  0  0  0  0  0  0
   -1.1670   23.3330  -30.0930 O   0  0  0  0  0  0  0  0  0  0  0  0
   -1.7810   21.9780  -32.0080 O   0  0  0  0  0  0  0  0  0  0  0  0
   -2.5070   21.0840  -29.6190 N   0  0  0  0  0  0  0  0  0  0  0  0
   -1.3570   20.1550  -29.5850 C   0  0  0  0  0  0  0  0  0  0  0  0
   -0.2710   20.5340  -28.5560 C   0  0  0  0  0  0  0  0  0  0  0  0
   -0.8170   21.2240  -27.2990 C   0  0  0  0  0  0  0  0  0  0  0  0
   -2.2990   20.9330  -27.1030 C   0  0  0  0  0  0  0  0  0  0  0  0
   -3.0980   21.4460  -28.3080 C   0  0  0  0  0  0  0  0  0  0  0  0
   -4.7880   22.8670  -31.6290 C   0  0  0  0  0  0  0  0  0  0  0  0
   -7.8150   18.8220  -32.2030 C   0  0  0  0  0  0  0  0  0  0  0  0
   -9.0380   18.6700  -31.3360 C   0  0  0  0  0  0  0  0  0  0  0  0
   -7.2390   17.6730  -32.7720 C   0  0  0  0  0  0  0  0  0  0  0  0
   -5.1852   15.8665  -33.3894 H   0  0  0  0  0  0  0  0  0  0  0  0
   -6.2587   16.0109  -34.8224 H   0  0  0  0  0  0  0  0  0  0  0  0
   -4.6487   16.8074  -34.8224 H   0  0  0  0  0  0  0  0  0  0  0  0
   -4.6663   19.1043  -34.5055 H   0  0  0  0  0  0  0  0  0  0  0  0
   -5.6624   21.1543  -33.5095 H   0  0  0  0  0  0  0  0  0  0  0  0
   -7.2040   23.1480  -33.4940 H   0  0  0  0  0  0  0  0  0  0  0  0
   -7.0708   25.3926  -31.3066 H   0  0  0  0  0  0  0  0  0  0  0  0
   -5.1620   26.4181  -30.0781 H   0  0  0  0  0  0  0  0  0  0  0  0
   -1.7315   19.1506  -29.3380 H   0  0  0  0  0  0  0  0  0  0  0  0
   -0.8836   20.1998  -30.5769 H   0  0  0  0  0  0  0  0  0  0  0  0
    0.2495   19.6152  -28.2479 H   0  0  0  0  0  0  0  0  0  0  0  0
    0.3981   21.2542  -29.0496 H   0  0  0  0  0  0  0  0  0  0  0  0
   -0.2620   20.8602  -26.4217 H   0  0  0  0  0  0  0  0  0  0  0  0
   -0.6910   22.3102  -27.4186 H   0  0  0  0  0  0  0  0  0  0  0  0
   -2.4471   19.8476  -27.0031 H   0  0  0  0  0  0  0  0  0  0  0  0
   -2.6500   21.4426  -26.1935 H   0  0  0  0  0  0  0  0  0  0  0  0
   -4.1121   21.0230  -28.2566 H   0  0  0  0  0  0  0  0  0  0  0  0
   -3.0951   22.5444  -28.2488 H   0  0  0  0  0  0  0  0  0  0  0  0
   -4.6699   21.8801  -32.1003 H   0  0  0  0  0  0  0  0  0  0  0  0
   -8.7434   18.7066  -30.2768 H   0  0  0  0  0  0  0  0  0  0  0  0
   -9.7425   19.4875  -31.5491 H   0  0  0  0  0  0  0  0  0  0  0  0
   -9.5209   17.7049  -31.5491 H   0  0  0  0  0  0  0  0  0  0  0  0
   -7.6673   16.6844  -32.5499 H   0  0  0  0  0  0  0  0  0  0  0  0
  1  2  1  0
  2  3  2  0
  3  4  1  0
  4  5  2  0
  5  6  1  0
  6  7  2  0
  6  8  2  0
  6  9  1  0
  9 10  1  0
 10 11  2  0
 11 12  1  0
 12 13  2  0
 13 14  1  0
 13 15  1  0
 15 16  1  0
 16 17  2  0
 16 18  2  0
 16 19  1  0
 19 20  1  0
 20 21  1  0
 21 22  1  0
 22 23  1  0
 23 24  1  0
 15 25  2  0
  5 26  1  0
 26 27  1  0
 26 28  2  0
 28  2  1  0
 25 10  1  0
 24 19  1  0
  1 29  1  0
  1 30  1  0
  1 31  1  0
  3 32  1  0
  4 33  1  0
  9 34  1  0
 11 35  1  0
 12 36  1  0
 20 37  1  0
 20 38  1  0
 21 39  1  0
 21 40  1  0
 22 41  1  0
 22 42  1  0
 23 43  1  0
 23 44  1  0
 24 45  1  0
 24 46  1  0
 25 47  1  0
 27 48  1  0
 27 49  1  0
 27 50  1  0
 28 51  1  0
M  CHG  1  14  -1
M  END
>  <UniqueID>  (44) 
42

>  <SMILES>  (44) 
Cc1ccc(S(=O)(=O)Nc2ccc([O-])c(S(=O)(=O)N3CCCCC3)c2)c(C)c1

>  <Energy>  (44) 
60.49069438183148

>  <Genealogy>  (44) 
Cc1ccc(S(=O)(=O)Nc2ccc([O-])c(S(=O)(=O)N3CCCCC3)c2)c(C)c1 (protonated)
Cc1ccc(S(=O)(=O)Nc2ccc([O-])c(S(=O)(=O)N3CCCCC3)c2)c(C)c1 (3D coordinates assigned)
Cc1ccc(S(=O)(=O)Nc2ccc([O-])c(S(=O)(=O)N3CCCCC3)c2)c(C)c1 (nonaromatic ring conformer: 60.49069438183148 kcal/mol)

>  <smiles>  (44) 
Cc1ccc(S(=O)(=O)Nc2ccc(O)c(S(=O)(=O)N3CCCCC3)c2)c(C)c1

>  <score_type>  (44) 
oracle

>  <origin>  (44) 
adgpu

>  <m_score__min__energy>  (44) 
-13.380000000000001

>  <m_primary>  (44) 
energy

$$$$
44:0
     RDKit          3D

 49 52  0  0  0  0  0  0  0  0999 V2000
   -8.4190   22.4820  -32.3220 C   0  0  0  0  0  0  0  0  0  0  0  0
   -8.3920   20.9850  -32.2070 C   0  0  0  0  0  0  0  0  0  0  0  0
   -9.0910   20.3420  -31.1760 C   0  0  0  0  0  0  0  0  0  0  0  0
   -9.0240   18.9530  -31.0410 C   0  0  0  0  0  0  0  0  0  0  0  0
   -8.2510   18.1990  -31.9260 C   0  0  0  0  0  0  0  0  0  0  0  0
   -7.5380   18.8270  -32.9600 C   0  0  0  0  0  0  0  0  0  0  0  0
   -6.7200   18.0520  -33.8560 N   0  0  0  0  0  0  0  0  0  0  0  0
   -6.0710   18.6620  -35.0190 C   0  0  0  0  0  0  0  0  0  0  0  0
   -4.5420   18.4730  -34.9420 C   0  0  0  0  0  0  0  0  0  0  0  0
   -4.1180   17.2490  -34.1980 N   0  0  0  0  0  0  0  0  0  0  0  0
   -3.7230   17.5500  -32.7980 C   0  0  0  0  0  0  0  0  0  0  0  0
   -3.4230   19.0100  -32.6030 C   0  0  0  0  0  0  0  0  0  0  0  0
   -2.3310   19.6890  -33.0930 C   0  0  0  0  0  0  0  0  0  0  0  0
   -2.4540   20.9400  -32.7280 O   0  0  0  0  0  0  0  0  0  0  0  0
   -3.5740   21.0410  -32.0440 C   0  0  0  0  0  0  0  0  0  0  0  0
   -4.0670   22.3060  -31.4620 C   0  0  0  0  0  0  0  0  0  0  0  0
   -5.4360   22.6260  -31.5000 C   0  0  0  0  0  0  0  0  0  0  0  0
   -5.8950   23.8260  -30.9480 C   0  0  0  0  0  0  0  0  0  0  0  0
   -4.9960   24.7140  -30.3540 C   0  0  0  0  0  0  0  0  0  0  0  0
   -3.6330   24.4060  -30.3110 C   0  0  0  0  0  0  0  0  0  0  0  0
   -2.7390   25.2910  -29.7210 O   0  0  0  0  0  0  0  0  0  0  0  0
   -3.1690   23.2070  -30.8620 C   0  0  0  0  0  0  0  0  0  0  0  0
   -4.2240   19.8630  -31.9350 N   0  0  0  0  0  0  0  0  0  0  0  0
   -5.1490   16.1840  -34.2440 C   0  0  0  0  0  0  0  0  0  0  0  0
   -6.4660   16.6330  -33.5850 C   0  0  0  0  0  0  0  0  0  0  0  0
   -7.6040   20.2260  -33.0860 C   0  0  0  0  0  0  0  0  0  0  0  0
   -8.4270   22.9269  -31.3160 H   0  0  0  0  0  0  0  0  0  0  0  0
   -7.5269   22.8240  -32.8671 H   0  0  0  0  0  0  0  0  0  0  0  0
   -9.3229   22.7916  -32.8671 H   0  0  0  0  0  0  0  0  0  0  0  0
   -9.6942   20.9329  -30.4710 H   0  0  0  0  0  0  0  0  0  0  0  0
   -9.5815   18.4524  -30.2357 H   0  0  0  0  0  0  0  0  0  0  0  0
   -8.2002   17.1060  -31.8126 H   0  0  0  0  0  0  0  0  0  0  0  0
   -6.4493   18.1866  -35.9360 H   0  0  0  0  0  0  0  0  0  0  0  0
   -6.2974   19.7384  -35.0303 H   0  0  0  0  0  0  0  0  0  0  0  0
   -4.1494   18.4079  -35.9675 H   0  0  0  0  0  0  0  0  0  0  0  0
   -4.1420   19.3359  -34.3894 H   0  0  0  0  0  0  0  0  0  0  0  0
   -3.2770   16.8570  -34.6860 H   0  0  0  0  0  0  0  0  0  0  0  0
   -4.5457   17.2630  -32.1266 H   0  0  0  0  0  0  0  0  0  0  0  0
   -2.8097   16.9805  -32.5710 H   0  0  0  0  0  0  0  0  0  0  0  0
   -1.5072   19.2599  -33.6823 H   0  0  0  0  0  0  0  0  0  0  0  0
   -6.1486   21.9294  -31.9659 H   0  0  0  0  0  0  0  0  0  0  0  0
   -6.9668   24.0710  -30.9818 H   0  0  0  0  0  0  0  0  0  0  0  0
   -5.3605   25.6566  -29.9196 H   0  0  0  0  0  0  0  0  0  0  0  0
   -2.0960   22.9675  -30.8259 H   0  0  0  0  0  0  0  0  0  0  0  0
   -5.3469   15.9254  -35.2947 H   0  0  0  0  0  0  0  0  0  0  0  0
   -4.7676   15.3152  -33.6876 H   0  0  0  0  0  0  0  0  0  0  0  0
   -7.2953   16.0335  -33.9887 H   0  0  0  0  0  0  0  0  0  0  0  0
   -6.3865   16.4878  -32.4975 H   0  0  0  0  0  0  0  0  0  0  0  0
   -7.0333   20.7296  -33.8801 H   0  0  0  0  0  0  0  0  0  0  0  0
  1  2  1  0
  2  3  2  0
  3  4  1  0
  4  5  2  0
  5  6  1  0
  6  7  1  0
  7  8  1  0
  8  9  1  0
  9 10  1  0
 10 11  1  0
 11 12  1  0
 12 13  2  0
 13 14  1  0
 14 15  1  0
 15 16  1  0
 16 17  2  0
 17 18  1  0
 18 19  2  0
 19 20  1  0
 20 21  1  0
 20 22  2  0
 15 23  2  0
 10 24  1  0
 24 25  1  0
  6 26  2  0
 26  2  1  0
 25  7  1  0
 23 12  1  0
 22 16  1  0
  1 27  1  0
  1 28  1  0
  1 29  1  0
  3 30  1  0
  4 31  1  0
  5 32  1  0
  8 33  1  0
  8 34  1  0
  9 35  1  0
  9 36  1  0
 10 37  1  0
 11 38  1  0
 11 39  1  0
 13 40  1  0
 17 41  1  0
 18 42  1  0
 19 43  1  0
 22 44  1  0
 24 45  1  0
 24 46  1  0
 25 47  1  0
 25 48  1  0
 26 49  1  0
M  CHG  2  10   1  21  -1
M  END
>  <UniqueID>  (45) 
43

>  <SMILES>  (45) 
Cc1cccc(N2CC[NH+](Cc3coc(-c4cccc([O-])c4)n3)CC2)c1

>  <Energy>  (45) 
93.14121881250709

>  <Genealogy>  (45) 
Cc1cccc(N2CC[NH+](Cc3coc(-c4cccc([O-])c4)n3)CC2)c1 (protonated)
Cc1cccc(N2CC[NH+](Cc3coc(-c4cccc([O-])c4)n3)CC2)c1 (3D coordinates assigned)
Cc1cccc(N2CC[NH+](Cc3coc(-c4cccc([O-])c4)n3)CC2)c1 (nonaromatic ring conformer: 93.14121881250709 kcal/mol)

>  <smiles>  (45) 
Cc1cccc(N2CCN(Cc3coc(-c4cccc(O)c4)n3)CC2)c1

>  <score_type>  (45) 
oracle

>  <origin>  (45) 
adgpu

>  <m_score__min__energy>  (45) 
-10.630000000000001

>  <m_primary>  (45) 
energy

$$$$
45:0
     RDKit          3D

 57 62  0  0  0  0  0  0  0  0999 V2000
   -6.4085   15.6813  -32.7464 H   0  0  0  0  0  0  0  0  0  0  0  0
   -6.1680   15.6390  -33.8190 C   0  0  0  0  0  0  0  0  0  0  0  0
   -5.7170   16.7610  -34.3980 C   0  0  0  0  0  0  0  0  0  0  0  0
   -5.4502   16.7355  -35.4649 H   0  0  0  0  0  0  0  0  0  0  0  0
   -5.5650   18.0280  -33.6590 C   0  0  0  0  0  0  0  0  0  0  0  0
   -4.3740   18.6550  -33.5200 N   0  0  0  0  0  0  0  0  0  0  0  0
   -4.5430   19.7630  -32.8040 N   0  0  0  0  0  0  0  0  0  0  0  0
   -5.8470   19.8370  -32.4760 C   0  0  0  0  0  0  0  0  0  0  0  0
   -6.5270   18.7620  -32.9810 C   0  0  0  0  0  0  0  0  0  0  0  0
   -7.8840   18.5570  -32.7180 C   0  0  0  0  0  0  0  0  0  0  0  0
   -8.4073   17.6672  -33.0981 H   0  0  0  0  0  0  0  0  0  0  0  0
   -8.5600   19.5240  -31.9520 C   0  0  0  0  0  0  0  0  0  0  0  0
   -9.6328   19.4007  -31.7425 H   0  0  0  0  0  0  0  0  0  0  0  0
   -7.8720   20.6550  -31.4480 C   0  0  0  0  0  0  0  0  0  0  0  0
   -8.5460   21.6240  -30.6930 C   0  0  0  0  0  0  0  0  0  0  0  0
   -9.6232   21.5154  -30.4982 H   0  0  0  0  0  0  0  0  0  0  0  0
   -7.8540   22.7290  -30.1860 C   0  0  0  0  0  0  0  0  0  0  0  0
   -8.3957   23.4915  -29.6070 H   0  0  0  0  0  0  0  0  0  0  0  0
   -6.4770   22.8750  -30.4080 C   0  0  0  0  0  0  0  0  0  0  0  0
   -5.8090   24.0260  -29.8720 N   0  0  0  0  0  0  0  0  0  0  0  0
   -5.0170   24.9560  -30.6170 C   0  0  0  0  0  0  0  0  0  0  0  0
   -5.5970   25.8460  -31.2930 O   0  0  0  0  0  0  0  0  0  0  0  0
   -3.5880   24.9410  -30.5070 N   0  0  0  0  0  0  0  0  0  0  0  0
   -2.7870   24.1150  -29.6460 C   0  0  0  0  0  0  0  0  0  0  0  0
   -3.0250   22.7390  -29.5090 C   0  0  0  0  0  0  0  0  0  0  0  0
   -3.8181   22.2584  -30.1006 H   0  0  0  0  0  0  0  0  0  0  0  0
   -2.2600   21.9790  -28.6260 C   0  0  0  0  0  0  0  0  0  0  0  0
   -2.4494   20.8995  -28.5319 H   0  0  0  0  0  0  0  0  0  0  0  0
   -1.2550   22.5740  -27.8590 C   0  0  0  0  0  0  0  0  0  0  0  0
   -0.3840   21.5470  -26.7250 Cl  0  0  0  0  0  0  0  0  0  0  0  0
   -1.0010   23.9600  -27.9810 C   0  0  0  0  0  0  0  0  0  0  0  0
    0.2530   24.7520  -27.0010 S   0  0  0  0  0  0  0  0  0  0  0  0
    0.9230   25.8430  -27.7890 O   0  0  0  0  0  0  0  0  0  0  0  0
    1.3110   23.7580  -26.6080 O   0  0  0  0  0  0  0  0  0  0  0  0
   -0.5280   25.4860  -25.5640 C   0  0  0  0  0  0  0  0  0  0  0  0
    0.2403   25.1699  -24.8430 H   0  0  0  0  0  0  0  0  0  0  0  0
   -2.0460   25.4780  -25.6160 C   0  0  0  0  0  0  0  0  0  0  0  0
   -2.5647   25.0126  -26.4671 H   0  0  0  0  0  0  0  0  0  0  0  0
   -2.8454   25.1365  -24.9420 H   0  0  0  0  0  0  0  0  0  0  0  0
   -1.2860   26.7810  -25.8090 C   0  0  0  0  0  0  0  0  0  0  0  0
   -1.2545   27.2580  -26.7997 H   0  0  0  0  0  0  0  0  0  0  0  0
   -1.3074   27.7723  -25.3327 H   0  0  0  0  0  0  0  0  0  0  0  0
   -1.7950   24.7250  -28.8630 C   0  0  0  0  0  0  0  0  0  0  0  0
   -1.6120   26.1000  -28.9670 O   0  0  0  0  0  0  0  0  0  0  0  0
   -5.7960   21.9250  -31.1920 C   0  0  0  0  0  0  0  0  0  0  0  0
   -4.7241   22.0534  -31.4032 H   0  0  0  0  0  0  0  0  0  0  0  0
   -6.4830   20.8150  -31.7040 C   0  0  0  0  0  0  0  0  0  0  0  0
   -6.3670   14.3450  -34.5160 C   0  0  0  0  0  0  0  0  0  0  0  0
   -7.6200   14.0590  -34.9690 N   0  0  0  0  0  0  0  0  0  0  0  0
   -7.9150   12.9020  -35.6180 C   0  0  0  0  0  0  0  0  0  0  0  0
   -8.9401   12.7149  -35.9705 H   0  0  0  0  0  0  0  0  0  0  0  0
   -6.9180   11.9520  -35.8370 C   0  0  0  0  0  0  0  0  0  0  0  0
   -7.1506   11.0115  -36.3578 H   0  0  0  0  0  0  0  0  0  0  0  0
   -5.6220   12.2080  -35.3880 C   0  0  0  0  0  0  0  0  0  0  0  0
   -4.8252   11.4686  -35.5564 H   0  0  0  0  0  0  0  0  0  0  0  0
   -5.3370   13.4030  -34.7250 C   0  0  0  0  0  0  0  0  0  0  0  0
   -4.3171   13.6089  -34.3681 H   0  0  0  0  0  0  0  0  0  0  0  0
  1  2  1  0
  2  3  2  0
  3  4  1  0
  3  5  1  0
  5  6  1  0
  6  7  1  0
  7  8  2  0
  8  9  1  0
  9 10  1  0
 10 11  1  0
 10 12  2  0
 12 13  1  0
 12 14  1  0
 14 15  2  0
 15 16  1  0
 15 17  1  0
 17 18  1  0
 17 19  2  0
 19 20  1  0
 20 21  1  0
 21 22  2  0
 21 23  1  0
 23 24  1  0
 24 25  2  0
 25 26  1  0
 25 27  1  0
 27 28  1  0
 27 29  2  0
 29 30  1  0
 29 31  1  0
 31 32  1  0
 32 33  2  0
 32 34  2  0
 32 35  1  0
 35 36  1  0
 35 37  1  0
 37 38  1  0
 37 39  1  0
 37 40  1  0
 40 41  1  0
 40 42  1  0
 31 43  2  0
 43 44  1  0
 19 45  1  0
 45 46  1  0
 45 47  2  0
  2 48  1  0
 48 49  2  0
 49 50  1  0
 50 51  1  0
 50 52  2  0
 52 53  1  0
 52 54  1  0
 54 55  1  0
 54 56  2  0
 56 57  1  0
  9  5  2  0
 47 14  1  0
 56 48  1  0
 47  8  1  0
 43 24  1  0
 40 35  1  0
M  CHG  4   6  -1  20  -1  23  -1  44  -1
M  END
>  <UniqueID>  (46) 
44

>  <SMILES>  (46) 
O=C([N-]c1ccc2ccc3c(/C=C/c4ccccn4)[n-]nc3c2c1)[N-]c1ccc(Cl)c(S(=O)(=O)C2CC2)c1[O-]

>  <Energy>  (46) 
384.8991030192991

>  <Genealogy>  (46) 
O=C([N-]c1ccc2ccc3c(C=Cc4ccccn4)[n-]nc3c2c1)[N-]c1ccc(Cl)c(S(=O)(=O)C2CC2)c1[O-] (protonated)
O=C([N-]c1ccc2ccc3c(/C=C/c4ccccn4)[n-]nc3c2c1)[N-]c1ccc(Cl)c(S(=O)(=O)C2CC2)c1[O-] (cis-trans isomerization)
O=C([N-]c1ccc2ccc3c(/C=C/c4ccccn4)[n-]nc3c2c1)[N-]c1ccc(Cl)c(S(=O)(=O)C2CC2)c1[O-] (3D coordinates assigned)
O=C([N-]c1ccc2ccc3c(/C=C/c4ccccn4)[n-]nc3c2c1)[N-]c1ccc(Cl)c(S(=O)(=O)C2CC2)c1[O-] (nonaromatic ring conformer: 384.8991030192991 kcal/mol)

>  <smiles>  (46) 
O=C(Nc1ccc2ccc3c(C=Cc4ccccn4)[nH]nc3c2c1)Nc1ccc(Cl)c(S(=O)(=O)C2CC2)c1O

>  <score_type>  (46) 
oracle

>  <origin>  (46) 
adgpu

>  <m_score__min__energy>  (46) 
-17.989999999999998

>  <m_primary>  (46) 
energy

$$$$
46:0
     RDKit          3D

 41 43  0  0  0  0  0  0  0  0999 V2000
   -4.8410   18.3000  -33.1510 C   0  0  0  0  0  0  0  0  0  0  0  0
   -6.0020   19.0960  -33.6610 C   0  0  0  0  0  0  0  0  0  0  0  0
   -6.1740   19.1970  -34.9050 O   0  0  0  0  0  0  0  0  0  0  0  0
   -6.8830   19.7920  -32.7620 N   0  0  0  0  0  0  0  0  0  0  0  0
   -8.2820   19.3310  -32.7190 C   0  0  0  0  0  0  0  0  0  0  0  0
   -9.0860   20.0170  -31.6120 C   0  0  0  0  0  0  0  0  0  0  0  0
   -8.9180   21.5330  -31.6930 C   0  0  0  0  0  0  0  0  0  0  0  0
   -7.4640   21.8960  -31.5870 C   0  0  0  0  0  0  0  0  0  0  0  0
   -7.0860   23.1100  -30.9950 C   0  0  0  0  0  0  0  0  0  0  0  0
   -5.7340   23.4490  -30.8780 C   0  0  0  0  0  0  0  0  0  0  0  0
   -5.2760   24.9870  -30.1510 S   0  0  0  0  0  0  0  0  0  0  0  0
   -6.4760   25.8760  -29.9840 O   0  0  0  0  0  0  0  0  0  0  0  0
   -4.2810   25.6670  -31.0480 O   0  0  0  0  0  0  0  0  0  0  0  0
   -4.5530   24.7130  -28.5960 N   0  0  0  0  0  0  0  0  0  0  0  0
   -3.3760   23.9070  -28.3940 C   0  0  0  0  0  0  0  0  0  0  0  0
   -3.4550   22.6210  -27.8220 C   0  0  0  0  0  0  0  0  0  0  0  0
   -2.3020   21.8530  -27.6440 C   0  0  0  0  0  0  0  0  0  0  0  0
   -1.0570   22.3560  -28.0250 C   0  0  0  0  0  0  0  0  0  0  0  0
   -0.9620   23.6330  -28.5830 C   0  0  0  0  0  0  0  0  0  0  0  0
   -2.1130   24.4080  -28.7680 C   0  0  0  0  0  0  0  0  0  0  0  0
   -1.9920   25.6740  -29.3320 O   0  0  0  0  0  0  0  0  0  0  0  0
   -4.7550   22.5640  -31.3400 C   0  0  0  0  0  0  0  0  0  0  0  0
   -5.1240   21.3610  -31.9460 C   0  0  0  0  0  0  0  0  0  0  0  0
   -6.4830   21.0300  -32.1150 C   0  0  0  0  0  0  0  0  0  0  0  0
   -4.8480   18.3048  -32.0510 H   0  0  0  0  0  0  0  0  0  0  0  0
   -4.9189   17.2644  -33.5136 H   0  0  0  0  0  0  0  0  0  0  0  0
   -3.9031   18.7459  -33.5136 H   0  0  0  0  0  0  0  0  0  0  0  0
   -8.7561   19.5488  -33.6874 H   0  0  0  0  0  0  0  0  0  0  0  0
   -8.2741   18.2512  -32.5093 H   0  0  0  0  0  0  0  0  0  0  0  0
  -10.1502   19.7637  -31.7269 H   0  0  0  0  0  0  0  0  0  0  0  0
   -8.7178   19.6689  -30.6357 H   0  0  0  0  0  0  0  0  0  0  0  0
   -9.3139   21.8924  -32.6543 H   0  0  0  0  0  0  0  0  0  0  0  0
   -9.4682   22.0018  -30.8638 H   0  0  0  0  0  0  0  0  0  0  0  0
   -7.8571   23.7994  -30.6206 H   0  0  0  0  0  0  0  0  0  0  0  0
   -4.9520   25.2500  -27.7950 H   0  0  0  0  0  0  0  0  0  0  0  0
   -4.4316   22.2195  -27.5137 H   0  0  0  0  0  0  0  0  0  0  0  0
   -2.3754   20.8484  -27.2021 H   0  0  0  0  0  0  0  0  0  0  0  0
   -0.1514   21.7473  -27.8860 H   0  0  0  0  0  0  0  0  0  0  0  0
    0.0202   24.0309  -28.8779 H   0  0  0  0  0  0  0  0  0  0  0  0
   -3.6904   22.8162  -31.2258 H   0  0  0  0  0  0  0  0  0  0  0  0
   -4.3464   20.6655  -32.2946 H   0  0  0  0  0  0  0  0  0  0  0  0
  1  2  1  0
  2  3  2  0
  2  4  1  0
  4  5  1  0
  5  6  1  0
  6  7  1  0
  7  8  1  0
  8  9  2  0
  9 10  1  0
 10 11  1  0
 11 12  2  0
 11 13  2  0
 11 14  1  0
 14 15  1  0
 15 16  2  0
 16 17  1  0
 17 18  2  0
 18 19  1  0
 19 20  2  0
 20 21  1  0
 10 22  2  0
 22 23  1  0
 23 24  2  0
 24  4  1  0
 24  8  1  0
 20 15  1  0
  1 25  1  0
  1 26  1  0
  1 27  1  0
  5 28  1  0
  5 29  1  0
  6 30  1  0
  6 31  1  0
  7 32  1  0
  7 33  1  0
  9 34  1  0
 14 35  1  0
 16 36  1  0
 17 37  1  0
 18 38  1  0
 19 39  1  0
 22 40  1  0
 23 41  1  0
M  CHG  1  21  -1
M  END
>  <UniqueID>  (47) 
45

>  <SMILES>  (47) 
CC(=O)N1CCCc2cc(S(=O)(=O)Nc3ccccc3[O-])ccc21

>  <Energy>  (47) 
51.39389784770726

>  <Genealogy>  (47) 
CC(=O)N1CCCc2cc(S(=O)(=O)Nc3ccccc3[O-])ccc21 (protonated)
CC(=O)N1CCCc2cc(S(=O)(=O)Nc3ccccc3[O-])ccc21 (3D coordinates assigned)
CC(=O)N1CCCc2cc(S(=O)(=O)Nc3ccccc3[O-])ccc21 (nonaromatic ring conformer: 51.39389784770726 kcal/mol)

>  <smiles>  (47) 
CC(=O)N1CCCc2cc(S(=O)(=O)Nc3ccccc3O)ccc21

>  <score_type>  (47) 
oracle

>  <origin>  (47) 
adgpu

>  <m_score__min__energy>  (47) 
-13.34

>  <m_primary>  (47) 
energy

$$$$
47:0
     RDKit          3D

 52 54  0  0  0  0  0  0  0  0999 V2000
   -7.2570   20.4160  -33.1160 C   0  0  0  0  0  0  0  0  0  0  0  0
   -7.9510   20.3510  -31.8230 N   0  0  0  0  0  0  0  0  0  0  0  0
   -9.1750   19.5490  -31.9460 C   0  0  0  0  0  0  0  0  0  0  0  0
   -8.3510   21.9640  -31.2830 S   0  0  0  0  0  0  0  0  0  0  0  0
   -9.2220   22.6330  -32.3090 O   0  0  0  0  0  0  0  0  0  0  0  0
   -9.1280   21.8810  -29.9980 O   0  0  0  0  0  0  0  0  0  0  0  0
   -6.9030   22.9390  -31.0250 C   0  0  0  0  0  0  0  0  0  0  0  0
   -7.0010   24.2000  -30.4210 C   0  0  0  0  0  0  0  0  0  0  0  0
   -5.8550   24.9730  -30.2200 C   0  0  0  0  0  0  0  0  0  0  0  0
   -4.6020   24.4910  -30.6110 C   0  0  0  0  0  0  0  0  0  0  0  0
   -3.4810   25.2980  -30.4480 O   0  0  0  0  0  0  0  0  0  0  0  0
   -4.4890   23.2100  -31.1870 C   0  0  0  0  0  0  0  0  0  0  0  0
   -3.2190   22.6870  -31.6020 N   0  0  0  0  0  0  0  0  0  0  0  0
   -3.0830   21.6830  -32.6240 C   0  0  0  0  0  0  0  0  0  0  0  0
   -4.1110   21.2520  -33.2160 O   0  0  0  0  0  0  0  0  0  0  0  0
   -1.7560   21.1420  -33.0030 C   0  0  0  0  0  0  0  0  0  0  0  0
   -0.6500   21.2320  -32.1370 C   0  0  0  0  0  0  0  0  0  0  0  0
    0.5920   20.7180  -32.5180 C   0  0  0  0  0  0  0  0  0  0  0  0
    0.7520   20.1080  -33.7660 C   0  0  0  0  0  0  0  0  0  0  0  0
    2.3280   19.4860  -34.2470 S   0  0  0  0  0  0  0  0  0  0  0  0
    3.2230   19.4230  -33.0400 O   0  0  0  0  0  0  0  0  0  0  0  0
    2.1780   18.0960  -34.8030 O   0  0  0  0  0  0  0  0  0  0  0  0
    3.0310   20.5510  -35.4380 N   0  0  0  0  0  0  0  0  0  0  0  0
    4.3670   20.9890  -35.0360 C   0  0  0  0  0  0  0  0  0  0  0  0
    4.5980   22.3360  -35.7010 C   0  0  0  0  0  0  0  0  0  0  0  0
    3.2110   22.8560  -36.0490 C   0  0  0  0  0  0  0  0  0  0  0  0
    2.2470   21.7750  -35.5860 C   0  0  0  0  0  0  0  0  0  0  0  0
   -0.3370   20.0320  -34.6430 C   0  0  0  0  0  0  0  0  0  0  0  0
   -1.5800   20.5460  -34.2660 C   0  0  0  0  0  0  0  0  0  0  0  0
   -5.6470   22.4530  -31.4130 C   0  0  0  0  0  0  0  0  0  0  0  0
   -6.1749   20.5174  -32.9466 H   0  0  0  0  0  0  0  0  0  0  0  0
   -7.4545   19.4954  -33.6848 H   0  0  0  0  0  0  0  0  0  0  0  0
   -7.6220   21.2839  -33.6848 H   0  0  0  0  0  0  0  0  0  0  0  0
   -9.5533   19.3011  -30.9433 H   0  0  0  0  0  0  0  0  0  0  0  0
   -9.9365   20.1238  -32.4934 H   0  0  0  0  0  0  0  0  0  0  0  0
   -8.9521   18.6213  -32.4934 H   0  0  0  0  0  0  0  0  0  0  0  0
   -7.9828   24.5819  -30.1045 H   0  0  0  0  0  0  0  0  0  0  0  0
   -5.9386   25.9650  -29.7522 H   0  0  0  0  0  0  0  0  0  0  0  0
   -2.3670   23.1350  -31.1990 H   0  0  0  0  0  0  0  0  0  0  0  0
   -0.7644   21.7105  -31.1531 H   0  0  0  0  0  0  0  0  0  0  0  0
    1.4488   20.7936  -31.8323 H   0  0  0  0  0  0  0  0  0  0  0  0
    4.4202   21.0912  -33.9421 H   0  0  0  0  0  0  0  0  0  0  0  0
    5.1326   20.2595  -35.3388 H   0  0  0  0  0  0  0  0  0  0  0  0
    5.1053   23.0249  -35.0096 H   0  0  0  0  0  0  0  0  0  0  0  0
    5.2383   22.2491  -36.5912 H   0  0  0  0  0  0  0  0  0  0  0  0
    3.0110   23.8011  -35.5229 H   0  0  0  0  0  0  0  0  0  0  0  0
    3.1091   23.0618  -37.1248 H   0  0  0  0  0  0  0  0  0  0  0  0
    1.7964   22.0558  -34.6226 H   0  0  0  0  0  0  0  0  0  0  0  0
    1.4293   21.6370  -36.3088 H   0  0  0  0  0  0  0  0  0  0  0  0
   -0.2133   19.5661  -35.6318 H   0  0  0  0  0  0  0  0  0  0  0  0
   -2.4291   20.4844  -34.9626 H   0  0  0  0  0  0  0  0  0  0  0  0
   -5.5692   21.4692  -31.8990 H   0  0  0  0  0  0  0  0  0  0  0  0
  1  2  1  0
  2  3  1  0
  2  4  1  0
  4  5  2  0
  4  6  2  0
  4  7  1  0
  7  8  2  0
  8  9  1  0
  9 10  2  0
 10 11  1  0
 10 12  1  0
 12 13  1  0
 13 14  1  0
 14 15  2  0
 14 16  1  0
 16 17  2  0
 17 18  1  0
 18 19  2  0
 19 20  1  0
 20 21  2  0
 20 22  2  0
 20 23  1  0
 23 24  1  0
 24 25  1  0
 25 26  1  0
 26 27  1  0
 19 28  1  0
 28 29  2  0
 12 30  2  0
 30  7  1  0
 29 16  1  0
 27 23  1  0
  1 31  1  0
  1 32  1  0
  1 33  1  0
  3 34  1  0
  3 35  1  0
  3 36  1  0
  8 37  1  0
  9 38  1  0
 13 39  1  0
 17 40  1  0
 18 41  1  0
 24 42  1  0
 24 43  1  0
 25 44  1  0
 25 45  1  0
 26 46  1  0
 26 47  1  0
 27 48  1  0
 27 49  1  0
 28 50  1  0
 29 51  1  0
 30 52  1  0
M  CHG  1  11  -1
M  END
>  <UniqueID>  (48) 
46

>  <SMILES>  (48) 
CN(C)S(=O)(=O)c1ccc([O-])c(NC(=O)c2ccc(S(=O)(=O)N3CCCC3)cc2)c1

>  <Energy>  (48) 
59.39645640300215

>  <Genealogy>  (48) 
CN(C)S(=O)(=O)c1ccc([O-])c(NC(=O)c2ccc(S(=O)(=O)N3CCCC3)cc2)c1 (protonated)
CN(C)S(=O)(=O)c1ccc([O-])c(NC(=O)c2ccc(S(=O)(=O)N3CCCC3)cc2)c1 (3D coordinates assigned)
CN(C)S(=O)(=O)c1ccc([O-])c(NC(=O)c2ccc(S(=O)(=O)N3CCCC3)cc2)c1 (nonaromatic ring conformer: 59.39645640300215 kcal/mol)

>  <smiles>  (48) 
CN(C)S(=O)(=O)c1ccc(O)c(NC(=O)c2ccc(S(=O)(=O)N3CCCC3)cc2)c1

>  <score_type>  (48) 
oracle

>  <origin>  (48) 
adgpu

>  <m_score__min__energy>  (48) 
-11.18

>  <m_primary>  (48) 
energy

$$$$
48:0
     RDKit          3D

 58 60  0  0  0  0  0  0  0  0999 V2000
   -7.0540   23.3720  -32.3450 C   0  0  0  0  0  0  0  0  0  0  0  0
   -7.4080   23.0600  -30.8920 C   0  0  0  0  0  0  0  0  0  0  0  0
   -7.9910   21.6480  -30.7010 C   0  0  0  0  0  0  0  0  0  0  0  0
   -9.3500   21.4110  -31.3830 C   0  0  0  0  0  0  0  0  0  0  0  0
   -9.4910   19.9980  -31.9650 C   0  0  0  0  0  0  0  0  0  0  0  0
   -8.1480   19.4730  -32.3970 C   0  0  0  0  0  0  0  0  0  0  0  0
   -7.4610   20.0700  -33.4650 C   0  0  0  0  0  0  0  0  0  0  0  0
   -6.2330   19.5540  -33.8910 C   0  0  0  0  0  0  0  0  0  0  0  0
   -5.6840   18.4300  -33.2610 C   0  0  0  0  0  0  0  0  0  0  0  0
   -4.1330   17.7960  -33.8010 S   0  0  0  0  0  0  0  0  0  0  0  0
   -3.8800   16.4330  -33.2180 O   0  0  0  0  0  0  0  0  0  0  0  0
   -4.1460   17.6880  -35.2990 O   0  0  0  0  0  0  0  0  0  0  0  0
   -2.8550   18.8650  -33.3150 N   0  0  0  0  0  0  0  0  0  0  0  0
   -3.0530   20.0670  -32.5490 C   0  0  0  0  0  0  0  0  0  0  0  0
   -2.6920   20.0780  -31.1930 C   0  0  0  0  0  0  0  0  0  0  0  0
   -2.8710   21.2260  -30.4170 C   0  0  0  0  0  0  0  0  0  0  0  0
   -3.4120   22.3860  -30.9890 C   0  0  0  0  0  0  0  0  0  0  0  0
   -3.6480   23.8320  -30.0030 S   0  0  0  0  0  0  0  0  0  0  0  0
   -4.6290   23.5250  -28.9040 O   0  0  0  0  0  0  0  0  0  0  0  0
   -4.2380   24.9200  -30.8570 O   0  0  0  0  0  0  0  0  0  0  0  0
   -2.1540   24.3950  -29.2940 N   0  0  0  0  0  0  0  0  0  0  0  0
   -1.1200   23.3500  -29.3590 C   0  0  0  0  0  0  0  0  0  0  0  0
    0.1440   23.7990  -28.5990 C   0  0  0  0  0  0  0  0  0  0  0  0
    0.0450   25.1480  -28.1850 O   0  0  0  0  0  0  0  0  0  0  0  0
   -1.0420   25.2970  -27.2870 C   0  0  0  0  0  0  0  0  0  0  0  0
   -2.3670   24.8040  -27.8980 C   0  0  0  0  0  0  0  0  0  0  0  0
   -3.7690   22.3850  -32.3410 C   0  0  0  0  0  0  0  0  0  0  0  0
   -3.5960   21.2360  -33.1180 C   0  0  0  0  0  0  0  0  0  0  0  0
   -6.3750   17.8180  -32.2080 C   0  0  0  0  0  0  0  0  0  0  0  0
   -7.6020   18.3350  -31.7790 C   0  0  0  0  0  0  0  0  0  0  0  0
   -6.2290   24.0991  -32.3734 H   0  0  0  0  0  0  0  0  0  0  0  0
   -6.7452   22.4470  -32.8539 H   0  0  0  0  0  0  0  0  0  0  0  0
   -7.9329   23.7946  -32.8539 H   0  0  0  0  0  0  0  0  0  0  0  0
   -6.4960   23.1472  -30.2832 H   0  0  0  0  0  0  0  0  0  0  0  0
   -8.1812   23.7783  -30.5819 H   0  0  0  0  0  0  0  0  0  0  0  0
   -7.2721   20.9231  -31.1105 H   0  0  0  0  0  0  0  0  0  0  0  0
   -8.1625   21.5283  -29.6211 H   0  0  0  0  0  0  0  0  0  0  0  0
  -10.1465   21.5651  -30.6402 H   0  0  0  0  0  0  0  0  0  0  0  0
   -9.4260   22.1205  -32.2201 H   0  0  0  0  0  0  0  0  0  0  0  0
   -9.9119   19.3305  -31.1986 H   0  0  0  0  0  0  0  0  0  0  0  0
  -10.1575   20.0366  -32.8392 H   0  0  0  0  0  0  0  0  0  0  0  0
   -7.8904   20.9481  -33.9696 H   0  0  0  0  0  0  0  0  0  0  0  0
   -5.6965   20.0325  -34.7236 H   0  0  0  0  0  0  0  0  0  0  0  0
   -1.8850   18.5960  -33.5930 H   0  0  0  0  0  0  0  0  0  0  0  0
   -2.2637   19.1736  -30.7363 H   0  0  0  0  0  0  0  0  0  0  0  0
   -2.5867   21.2196  -29.3544 H   0  0  0  0  0  0  0  0  0  0  0  0
   -1.5081   22.4268  -28.9039 H   0  0  0  0  0  0  0  0  0  0  0  0
   -0.8589   23.1704  -30.4124 H   0  0  0  0  0  0  0  0  0  0  0  0
    0.2741   23.1611  -27.7124 H   0  0  0  0  0  0  0  0  0  0  0  0
    1.0062   23.7068  -29.2759 H   0  0  0  0  0  0  0  0  0  0  0  0
   -0.8328   24.7160  -26.3767 H   0  0  0  0  0  0  0  0  0  0  0  0
   -1.1504   26.3677  -27.0595 H   0  0  0  0  0  0  0  0  0  0  0  0
   -2.7382   23.9454  -27.3192 H   0  0  0  0  0  0  0  0  0  0  0  0
   -3.1044   25.6197  -27.8686 H   0  0  0  0  0  0  0  0  0  0  0  0
   -4.1887   23.2943  -32.7960 H   0  0  0  0  0  0  0  0  0  0  0  0
   -3.8853   21.2445  -34.1792 H   0  0  0  0  0  0  0  0  0  0  0  0
   -5.9522   16.9290  -31.7172 H   0  0  0  0  0  0  0  0  0  0  0  0
   -8.1423   17.8483  -30.9537 H   0  0  0  0  0  0  0  0  0  0  0  0
  1  2  1  0
  2  3  1  0
  3  4  1  0
  4  5  1  0
  5  6  1  0
  6  7  2  0
  7  8  1  0
  8  9  2  0
  9 10  1  0
 10 11  2  0
 10 12  2  0
 10 13  1  0
 13 14  1  0
 14 15  2  0
 15 16  1  0
 16 17  2  0
 17 18  1  0
 18 19  2  0
 18 20  2  0
 18 21  1  0
 21 22  1  0
 22 23  1  0
 23 24  1  0
 24 25  1  0
 25 26  1  0
 17 27  1  0
 27 28  2  0
  9 29  1  0
 29 30  2  0
 30  6  1  0
 28 14  1  0
 26 21  1  0
  1 31  1  0
  1 32  1  0
  1 33  1  0
  2 34  1  0
  2 35  1  0
  3 36  1  0
  3 37  1  0
  4 38  1  0
  4 39  1  0
  5 40  1  0
  5 41  1  0
  7 42  1  0
  8 43  1  0
 13 44  1  0
 15 45  1  0
 16 46  1  0
 22 47  1  0
 22 48  1  0
 23 49  1  0
 23 50  1  0
 25 51  1  0
 25 52  1  0
 26 53  1  0
 26 54  1  0
 27 55  1  0
 28 56  1  0
 29 57  1  0
 30 58  1  0
M  END
>  <UniqueID>  (49) 
47

>  <SMILES>  (49) 
CCCCCc1ccc(S(=O)(=O)Nc2ccc(S(=O)(=O)N3CCOCC3)cc2)cc1

>  <Energy>  (49) 
60.71799721056029

>  <Genealogy>  (49) 
CCCCCc1ccc(S(=O)(=O)Nc2ccc(S(=O)(=O)N3CCOCC3)cc2)cc1 (3D coordinates assigned)
CCCCCc1ccc(S(=O)(=O)Nc2ccc(S(=O)(=O)N3CCOCC3)cc2)cc1 (nonaromatic ring conformer: 60.71799721056029 kcal/mol)

>  <smiles>  (49) 
CCCCCc1ccc(S(=O)(=O)Nc2ccc(S(=O)(=O)N3CCOCC3)cc2)cc1

>  <score_type>  (49) 
oracle

>  <origin>  (49) 
adgpu

>  <m_score__min__energy>  (49) 
-10.19

>  <m_primary>  (49) 
energy

$$$$
