0:0
     RDKit          3D

 32 33  0  0  0  0  0  0  0  0999 V2000
   -4.0520   24.2780  -27.1180 C   0  0  0  0  0  0  0  0  0  0  0  0
   -3.0780   23.8090  -28.1970 C   0  0  0  0  0  0  0  0  0  0  0  0
   -2.7860   24.9040  -29.1870 C   0  0  0  0  0  0  0  0  0  0  0  0
   -1.8140   25.6760  -28.9730 O   0  0  0  0  0  0  0  0  0  0  0  0
   -3.4920   25.0180  -30.4300 N   0  0  0  0  0  0  0  0  0  0  0  0
   -4.6540   24.2790  -30.8300 C   0  0  0  0  0  0  0  0  0  0  0  0
   -5.9500   24.7710  -30.6100 C   0  0  0  0  0  0  0  0  0  0  0  0
   -7.0610   24.0350  -31.0250 C   0  0  0  0  0  0  0  0  0  0  0  0
   -6.8880   22.8160  -31.6870 C   0  0  0  0  0  0  0  0  0  0  0  0
   -5.6000   22.3350  -31.9630 C   0  0  0  0  0  0  0  0  0  0  0  0
   -5.4470   21.0750  -32.6390 N   0  0  0  0  0  0  0  0  0  0  0  0
   -6.2420   19.9130  -32.3610 C   0  0  0  0  0  0  0  0  0  0  0  0
   -6.9690   19.8650  -31.3310 O   0  0  0  0  0  0  0  0  0  0  0  0
   -6.1830   18.7490  -33.2580 C   0  0  0  0  0  0  0  0  0  0  0  0
   -6.8320   17.5430  -33.0690 C   0  0  0  0  0  0  0  0  0  0  0  0
   -6.4900   16.7630  -34.1520 C   0  0  0  0  0  0  0  0  0  0  0  0
   -5.6550   17.5370  -34.9340 C   0  0  0  0  0  0  0  0  0  0  0  0
   -5.4930   18.7140  -34.3750 O   0  0  0  0  0  0  0  0  0  0  0  0
   -4.4840   23.0720  -31.5220 C   0  0  0  0  0  0  0  0  0  0  0  0
   -3.6257   24.0727  -26.1249 H   0  0  0  0  0  0  0  0  0  0  0  0
   -4.2262   25.3587  -27.2260 H   0  0  0  0  0  0  0  0  0  0  0  0
   -5.0055   23.7403  -27.2260 H   0  0  0  0  0  0  0  0  0  0  0  0
   -2.1371   23.4983  -27.7192 H   0  0  0  0  0  0  0  0  0  0  0  0
   -3.5381   22.9682  -28.7367 H   0  0  0  0  0  0  0  0  0  0  0  0
   -6.0906   25.7400  -30.1088 H   0  0  0  0  0  0  0  0  0  0  0  0
   -8.0748   24.4150  -30.8307 H   0  0  0  0  0  0  0  0  0  0  0  0
   -7.7675   22.2306  -31.9933 H   0  0  0  0  0  0  0  0  0  0  0  0
   -4.6510   20.9750  -33.3090 H   0  0  0  0  0  0  0  0  0  0  0  0
   -7.4853   17.2643  -32.2290 H   0  0  0  0  0  0  0  0  0  0  0  0
   -6.8161   15.7319  -34.3533 H   0  0  0  0  0  0  0  0  0  0  0  0
   -5.1958   17.2163  -35.8807 H   0  0  0  0  0  0  0  0  0  0  0  0
   -3.4695   22.6970  -31.7224 H   0  0  0  0  0  0  0  0  0  0  0  0
  1  2  1  0
  2  3  1  0
  3  4  2  0
  3  5  1  0
  5  6  1  0
  6  7  2  0
  7  8  1  0
  8  9  2  0
  9 10  1  0
 10 11  1  0
 11 12  1  0
 12 13  2  0
 12 14  1  0
 14 15  2  0
 15 16  1  0
 16 17  2  0
 17 18  1  0
 10 19  2  0
 19  6  1  0
 18 14  1  0
  1 20  1  0
  1 21  1  0
  1 22  1  0
  2 23  1  0
  2 24  1  0
  7 25  1  0
  8 26  1  0
  9 27  1  0
 11 28  1  0
 15 29  1  0
 16 30  1  0
 17 31  1  0
 19 32  1  0
M  CHG  1   5  -1
M  END
>  <UniqueID>  (1) 
1

>  <SMILES>  (1) 
CCC(=O)[N-]c1cccc(NC(=O)c2ccco2)c1

>  <Energy>  (1) 
62.57192908640325

>  <Genealogy>  (1) 
CCC(=O)[N-]c1cccc(NC(=O)c2ccco2)c1 (protonated)
CCC(=O)[N-]c1cccc(NC(=O)c2ccco2)c1 (3D coordinates assigned)
CCC(=O)[N-]c1cccc(NC(=O)c2ccco2)c1 (optimized conformer: 62.57192908640325 kcal/mol)

>  <smiles>  (1) 
CCC(=O)Nc1cccc(NC(=O)c2ccco2)c1

>  <score_type>  (1) 
oracle

>  <origin>  (1) 
adgpu

>  <m_score__min__energy>  (1) 
-8.5899999999999999

>  <m_primary>  (1) 
energy

$$$$
1:0
     RDKit          3D

 31 32  0  0  0  0  0  0  0  0999 V2000
   -3.5010   20.6840  -33.1300 C   0  0  0  0  0  0  0  0  0  0  0  0
   -5.2080   20.2930  -32.8120 S   0  0  0  0  0  0  0  0  0  0  0  0
   -5.8730   19.9540  -34.1180 O   0  0  0  0  0  0  0  0  0  0  0  0
   -5.3020   19.0960  -31.9100 O   0  0  0  0  0  0  0  0  0  0  0  0
   -6.0110   21.6820  -32.0670 C   0  0  0  0  0  0  0  0  0  0  0  0
   -5.2380   22.7880  -31.6770 C   0  0  0  0  0  0  0  0  0  0  0  0
   -5.8300   23.9030  -31.0620 C   0  0  0  0  0  0  0  0  0  0  0  0
   -4.9950   25.0590  -30.6580 C   0  0  0  0  0  0  0  0  0  0  0  0
   -5.5450   26.1680  -30.4270 O   0  0  0  0  0  0  0  0  0  0  0  0
   -3.5770   24.9460  -30.4730 N   0  0  0  0  0  0  0  0  0  0  0  0
   -2.9150   24.3260  -29.3600 C   0  0  0  0  0  0  0  0  0  0  0  0
   -3.4720   23.1660  -28.8070 C   0  0  0  0  0  0  0  0  0  0  0  0
   -2.8580   22.5340  -27.7220 C   0  0  0  0  0  0  0  0  0  0  0  0
   -1.6910   23.0680  -27.1700 C   0  0  0  0  0  0  0  0  0  0  0  0
   -1.0980   22.4550  -26.1160 F   0  0  0  0  0  0  0  0  0  0  0  0
   -1.1430   24.2420  -27.6950 C   0  0  0  0  0  0  0  0  0  0  0  0
   -1.7530   24.8780  -28.7810 C   0  0  0  0  0  0  0  0  0  0  0  0
   -1.2350   26.0480  -29.2300 F   0  0  0  0  0  0  0  0  0  0  0  0
   -7.2180   23.9130  -30.8580 C   0  0  0  0  0  0  0  0  0  0  0  0
   -7.9930   22.8160  -31.2340 C   0  0  0  0  0  0  0  0  0  0  0  0
   -7.4030   21.6970  -31.8310 C   0  0  0  0  0  0  0  0  0  0  0  0
   -8.5510   20.2310  -32.2930 Br  0  0  0  0  0  0  0  0  0  0  0  0
   -2.9687   20.8059  -32.1751 H   0  0  0  0  0  0  0  0  0  0  0  0
   -3.0391   19.8684  -33.7057 H   0  0  0  0  0  0  0  0  0  0  0  0
   -3.4402   21.6193  -33.7057 H   0  0  0  0  0  0  0  0  0  0  0  0
   -4.1527   22.7806  -31.8560 H   0  0  0  0  0  0  0  0  0  0  0  0
   -4.3985   22.7497  -29.2292 H   0  0  0  0  0  0  0  0  0  0  0  0
   -3.2940   21.6154  -27.3024 H   0  0  0  0  0  0  0  0  0  0  0  0
   -0.2297   24.6667  -27.2528 H   0  0  0  0  0  0  0  0  0  0  0  0
   -7.6974   24.7903  -30.3993 H   0  0  0  0  0  0  0  0  0  0  0  0
   -9.0789   22.8310  -31.0593 H   0  0  0  0  0  0  0  0  0  0  0  0
  1  2  1  0
  2  3  2  0
  2  4  2  0
  2  5  1  0
  5  6  2  0
  6  7  1  0
  7  8  1  0
  8  9  2  0
  8 10  1  0
 10 11  1  0
 11 12  2  0
 12 13  1  0
 13 14  2  0
 14 15  1  0
 14 16  1  0
 16 17  2  0
 17 18  1  0
  7 19  2  0
 19 20  1  0
 20 21  2  0
 21 22  1  0
 21  5  1  0
 17 11  1  0
  1 23  1  0
  1 24  1  0
  1 25  1  0
  6 26  1  0
 12 27  1  0
 13 28  1  0
 16 29  1  0
 19 30  1  0
 20 31  1  0
M  CHG  1  10  -1
M  END
>  <UniqueID>  (2) 
2

>  <SMILES>  (2) 
CS(=O)(=O)c1cc(C(=O)[N-]c2ccc(F)cc2F)ccc1Br

>  <Energy>  (2) 
39.34685950035132

>  <Genealogy>  (2) 
CS(=O)(=O)c1cc(C(=O)[N-]c2ccc(F)cc2F)ccc1Br (protonated)
CS(=O)(=O)c1cc(C(=O)[N-]c2ccc(F)cc2F)ccc1Br (3D coordinates assigned)
CS(=O)(=O)c1cc(C(=O)[N-]c2ccc(F)cc2F)ccc1Br (optimized conformer: 39.34685950035132 kcal/mol)

>  <smiles>  (2) 
CS(=O)(=O)c1cc(C(=O)Nc2ccc(F)cc2F)ccc1Br

>  <score_type>  (2) 
oracle

>  <origin>  (2) 
adgpu

>  <m_score__min__energy>  (2) 
-10.26

>  <m_primary>  (2) 
energy

$$$$
2:0
     RDKit          3D

 52 57  0  0  0  0  0  0  0  0999 V2000
   -2.1290   29.0400  -36.0930 O   0  0  0  0  0  0  0  0  0  0  0  0
   -0.9480   28.2990  -36.0710 C   0  0  0  0  0  0  0  0  0  0  0  0
   -0.8770   27.0500  -36.7020 C   0  0  0  0  0  0  0  0  0  0  0  0
    0.3090   26.3130  -36.6770 C   0  0  0  0  0  0  0  0  0  0  0  0
    1.4430   26.8190  -36.0160 C   0  0  0  0  0  0  0  0  0  0  0  0
    2.6570   26.1060  -35.9780 C   0  0  0  0  0  0  0  0  0  0  0  0
    2.7430   24.8440  -36.5870 O   0  0  0  0  0  0  0  0  0  0  0  0
    2.1750   23.6610  -36.0930 C   0  0  0  0  0  0  0  0  0  0  0  0
    0.7930   23.4100  -36.1690 C   0  0  0  0  0  0  0  0  0  0  0  0
    0.2630   22.2250  -35.6520 C   0  0  0  0  0  0  0  0  0  0  0  0
    1.0990   21.2760  -35.0530 C   0  0  0  0  0  0  0  0  0  0  0  0
    0.5270   20.1050  -34.5340 O   0  0  0  0  0  0  0  0  0  0  0  0
   -0.8200   19.9490  -34.1760 C   0  0  0  0  0  0  0  0  0  0  0  0
   -1.4580   20.9870  -33.4900 C   0  0  0  0  0  0  0  0  0  0  0  0
   -2.8030   20.8760  -33.1270 C   0  0  0  0  0  0  0  0  0  0  0  0
   -3.5380   19.7250  -33.4570 C   0  0  0  0  0  0  0  0  0  0  0  0
   -4.9620   19.6060  -33.0730 C   0  0  0  0  0  0  0  0  0  0  0  0
   -5.7930   20.6800  -32.9760 N   0  0  0  0  0  0  0  0  0  0  0  0
   -6.9550   20.1200  -32.6100 C   0  0  0  0  0  0  0  0  0  0  0  0
   -8.1700   20.7570  -32.3650 C   0  0  0  0  0  0  0  0  0  0  0  0
   -9.2640   19.9540  -31.9900 C   0  0  0  0  0  0  0  0  0  0  0  0
   -9.1150   18.5530  -31.8710 C   0  0  0  0  0  0  0  0  0  0  0  0
   -7.8710   17.9450  -32.1290 C   0  0  0  0  0  0  0  0  0  0  0  0
   -6.8130   18.7720  -32.4970 C   0  0  0  0  0  0  0  0  0  0  0  0
   -5.5540   18.4140  -32.7860 N   0  0  0  0  0  0  0  0  0  0  0  0
   -2.9010   18.6910  -34.1640 C   0  0  0  0  0  0  0  0  0  0  0  0
   -1.5560   18.8030  -34.5260 C   0  0  0  0  0  0  0  0  0  0  0  0
    2.4750   21.5450  -34.9420 C   0  0  0  0  0  0  0  0  0  0  0  0
    3.0050   22.7300  -35.4590 C   0  0  0  0  0  0  0  0  0  0  0  0
    3.7490   26.6580  -35.2860 C   0  0  0  0  0  0  0  0  0  0  0  0
    3.6270   27.9060  -34.6760 C   0  0  0  0  0  0  0  0  0  0  0  0
    2.4530   28.5850  -34.7360 N   0  0  0  0  0  0  0  0  0  0  0  0
    1.3670   28.0810  -35.3810 C   0  0  0  0  0  0  0  0  0  0  0  0
    0.1740   28.8120  -35.4130 C   0  0  0  0  0  0  0  0  0  0  0  0
   -2.2980   29.7450  -36.8000 H   0  0  0  0  0  0  0  0  0  0  0  0
   -1.7602   26.6478  -37.2199 H   0  0  0  0  0  0  0  0  0  0  0  0
    0.3566   25.3337  -37.1758 H   0  0  0  0  0  0  0  0  0  0  0  0
    0.1269   24.1496  -36.6373 H   0  0  0  0  0  0  0  0  0  0  0  0
   -0.8189   22.0368  -35.7163 H   0  0  0  0  0  0  0  0  0  0  0  0
   -0.8970   21.8979  -33.2341 H   0  0  0  0  0  0  0  0  0  0  0  0
   -3.2899   21.6960  -32.5788 H   0  0  0  0  0  0  0  0  0  0  0  0
   -8.2707   21.8482  -32.4612 H   0  0  0  0  0  0  0  0  0  0  0  0
  -10.2402   20.4192  -31.7884 H   0  0  0  0  0  0  0  0  0  0  0  0
   -9.9753   17.9345  -31.5753 H   0  0  0  0  0  0  0  0  0  0  0  0
   -7.7400   16.8562  -32.0429 H   0  0  0  0  0  0  0  0  0  0  0  0
   -3.4655   17.7865  -34.4345 H   0  0  0  0  0  0  0  0  0  0  0  0
   -1.0707   17.9910  -35.0873 H   0  0  0  0  0  0  0  0  0  0  0  0
    3.1367   20.8195  -34.4461 H   0  0  0  0  0  0  0  0  0  0  0  0
    4.0823   22.9323  -35.3669 H   0  0  0  0  0  0  0  0  0  0  0  0
    4.6986   26.1061  -35.2258 H   0  0  0  0  0  0  0  0  0  0  0  0
    4.4855   28.3420  -34.1441 H   0  0  0  0  0  0  0  0  0  0  0  0
    0.1188   29.7932  -34.9189 H   0  0  0  0  0  0  0  0  0  0  0  0
  1  2  1  0
  2  3  2  0
  3  4  1  0
  4  5  2  0
  5  6  1  0
  6  7  1  0
  7  8  1  0
  8  9  2  0
  9 10  1  0
 10 11  2  0
 11 12  1  0
 12 13  1  0
 13 14  2  0
 14 15  1  0
 15 16  2  0
 16 17  1  0
 17 18  2  0
 18 19  1  0
 19 20  2  0
 20 21  1  0
 21 22  2  0
 22 23  1  0
 23 24  2  0
 24 25  1  0
 16 26  1  0
 26 27  2  0
 11 28  1  0
 28 29  2  0
  6 30  2  0
 30 31  1  0
 31 32  2  0
 32 33  1  0
 33 34  2  0
 34  2  1  0
 33  5  1  0
 29  8  1  0
 27 13  1  0
 25 17  1  0
 24 19  1  0
  1 35  1  0
  3 36  1  0
  4 37  1  0
  9 38  1  0
 10 39  1  0
 14 40  1  0
 15 41  1  0
 20 42  1  0
 21 43  1  0
 22 44  1  0
 23 45  1  0
 26 46  1  0
 27 47  1  0
 28 48  1  0
 29 49  1  0
 30 50  1  0
 31 51  1  0
 34 52  1  0
M  CHG  1  25  -1
M  END
>  <UniqueID>  (3) 
3

>  <SMILES>  (3) 
Oc1ccc2c(Oc3ccc(Oc4ccc(-c5nc6ccccc6[n-]5)cc4)cc3)ccnc2c1

>  <Energy>  (3) 
113.27916327420067

>  <Genealogy>  (3) 
Oc1ccc2c(Oc3ccc(Oc4ccc(-c5nc6ccccc6[n-]5)cc4)cc3)ccnc2c1 (protonated)
Oc1ccc2c(Oc3ccc(Oc4ccc(-c5nc6ccccc6[n-]5)cc4)cc3)ccnc2c1 (3D coordinates assigned)
Oc1ccc2c(Oc3ccc(Oc4ccc(-c5nc6ccccc6[n-]5)cc4)cc3)ccnc2c1 (optimized conformer: 113.27916327420067 kcal/mol)

>  <smiles>  (3) 
Oc1ccc2c(Oc3ccc(Oc4ccc(-c5nc6ccccc6[nH]5)cc4)cc3)ccnc2c1

>  <score_type>  (3) 
oracle

>  <origin>  (3) 
adgpu

>  <m_score__min__energy>  (3) 
-9.6400000000000006

>  <m_primary>  (3) 
energy

$$$$
3:0
     RDKit          3D

 29 30  0  0  0  0  0  0  0  0999 V2000
   -5.3650   26.4020  -30.4680 O   0  0  0  0  0  0  0  0  0  0  0  0
   -5.0130   25.2120  -30.6040 N   0  0  0  0  0  0  0  0  0  0  0  0
   -3.6770   24.8980  -30.4890 O   0  0  0  0  0  0  0  0  0  0  0  0
   -5.9840   24.1860  -30.8810 C   0  0  0  0  0  0  0  0  0  0  0  0
   -6.6670   23.5420  -29.8330 C   0  0  0  0  0  0  0  0  0  0  0  0
   -7.6090   22.5460  -30.1040 C   0  0  0  0  0  0  0  0  0  0  0  0
   -7.8920   22.1750  -31.4310 C   0  0  0  0  0  0  0  0  0  0  0  0
   -8.8600   21.1550  -31.7480 N   0  0  0  0  0  0  0  0  0  0  0  0
   -8.7080   19.7360  -31.4210 C   0  0  0  0  0  0  0  0  0  0  0  0
   -7.7070   19.0830  -32.3370 C   0  0  0  0  0  0  0  0  0  0  0  0
   -7.0940   19.8280  -33.3580 C   0  0  0  0  0  0  0  0  0  0  0  0
   -6.1600   19.2270  -34.2080 C   0  0  0  0  0  0  0  0  0  0  0  0
   -5.8250   17.8800  -34.0390 C   0  0  0  0  0  0  0  0  0  0  0  0
   -4.9190   17.2990  -34.8630 F   0  0  0  0  0  0  0  0  0  0  0  0
   -6.4210   17.1340  -33.0190 C   0  0  0  0  0  0  0  0  0  0  0  0
   -7.3560   17.7320  -32.1680 C   0  0  0  0  0  0  0  0  0  0  0  0
   -7.2050   22.8130  -32.4750 C   0  0  0  0  0  0  0  0  0  0  0  0
   -6.2630   23.8080  -32.2040 C   0  0  0  0  0  0  0  0  0  0  0  0
   -6.4576   23.8251  -28.7909 H   0  0  0  0  0  0  0  0  0  0  0  0
   -8.1326   22.0488  -29.2742 H   0  0  0  0  0  0  0  0  0  0  0  0
   -9.7550   21.4430  -32.2060 H   0  0  0  0  0  0  0  0  0  0  0  0
   -8.3622   19.6401  -30.3812 H   0  0  0  0  0  0  0  0  0  0  0  0
   -9.6806   19.2378  -31.5473 H   0  0  0  0  0  0  0  0  0  0  0  0
   -7.3499   20.8897  -33.4897 H   0  0  0  0  0  0  0  0  0  0  0  0
   -5.6887   19.8143  -35.0099 H   0  0  0  0  0  0  0  0  0  0  0  0
   -6.1545   16.0752  -32.8851 H   0  0  0  0  0  0  0  0  0  0  0  0
   -7.8189   17.1427  -31.3628 H   0  0  0  0  0  0  0  0  0  0  0  0
   -7.4103   22.5267  -33.5171 H   0  0  0  0  0  0  0  0  0  0  0  0
   -5.7351   24.2997  -33.0344 H   0  0  0  0  0  0  0  0  0  0  0  0
  1  2  2  0
  2  3  1  0
  2  4  1  0
  4  5  2  0
  5  6  1  0
  6  7  2  0
  7  8  1  0
  8  9  1  0
  9 10  1  0
 10 11  2  0
 11 12  1  0
 12 13  2  0
 13 14  1  0
 13 15  1  0
 15 16  2  0
  7 17  1  0
 17 18  2  0
 18  4  1  0
 16 10  1  0
  5 19  1  0
  6 20  1  0
  8 21  1  0
  9 22  1  0
  9 23  1  0
 11 24  1  0
 12 25  1  0
 15 26  1  0
 16 27  1  0
 17 28  1  0
 18 29  1  0
M  CHG  2   2   1   3  -1
M  END
>  <UniqueID>  (4) 
4

>  <SMILES>  (4) 
O=[N+]([O-])c1ccc(NCc2ccc(F)cc2)cc1

>  <Energy>  (4) 
30.122730354269976

>  <Genealogy>  (4) 
O=[N+]([O-])c1ccc(NCc2ccc(F)cc2)cc1 (3D coordinates assigned)
O=[N+]([O-])c1ccc(NCc2ccc(F)cc2)cc1 (optimized conformer: 30.122730354269976 kcal/mol)

>  <smiles>  (4) 
O=[N+]([O-])c1ccc(NCc2ccc(F)cc2)cc1

>  <score_type>  (4) 
oracle

>  <origin>  (4) 
adgpu

>  <m_score__min__energy>  (4) 
-7.8099999999999996

>  <m_primary>  (4) 
energy

$$$$
4:0
     RDKit          3D

 34 35  0  0  0  0  0  0  0  0999 V2000
   -2.4870   24.1990  -28.4870 C   0  0  0  0  0  0  0  0  0  0  0  0
   -2.7890   24.9270  -29.7110 N   0  0  0  0  0  0  0  0  0  0  0  0
   -3.9710   24.7540  -30.5030 C   0  0  0  0  0  0  0  0  0  0  0  0
   -4.6420   25.7720  -30.8170 O   0  0  0  0  0  0  0  0  0  0  0  0
   -4.4030   23.4370  -31.0050 C   0  0  0  0  0  0  0  0  0  0  0  0
   -5.7540   23.1520  -31.2380 C   0  0  0  0  0  0  0  0  0  0  0  0
   -6.1160   21.8990  -31.7370 C   0  0  0  0  0  0  0  0  0  0  0  0
   -5.1330   20.9370  -32.0190 C   0  0  0  0  0  0  0  0  0  0  0  0
   -5.5050   19.6010  -32.5530 C   0  0  0  0  0  0  0  0  0  0  0  0
   -5.7620   19.4270  -33.9240 C   0  0  0  0  0  0  0  0  0  0  0  0
   -6.1140   18.1710  -34.4270 C   0  0  0  0  0  0  0  0  0  0  0  0
   -6.2100   17.0630  -33.5680 C   0  0  0  0  0  0  0  0  0  0  0  0
   -6.5650   15.7560  -34.0420 N   0  0  0  0  0  0  0  0  0  0  0  0
   -5.4790   14.4190  -34.2430 S   0  0  0  0  0  0  0  0  0  0  0  0
   -4.9510   13.8140  -32.6540 C   0  0  0  0  0  0  0  0  0  0  0  0
   -6.2020   13.3150  -34.9620 O   0  0  0  0  0  0  0  0  0  0  0  0
   -4.2930   14.8370  -35.0670 O   0  0  0  0  0  0  0  0  0  0  0  0
   -5.9560   17.2350  -32.2000 C   0  0  0  0  0  0  0  0  0  0  0  0
   -6.0420   16.1780  -31.3550 F   0  0  0  0  0  0  0  0  0  0  0  0
   -5.6060   18.4910  -31.6970 C   0  0  0  0  0  0  0  0  0  0  0  0
   -3.7870   21.2770  -31.7960 C   0  0  0  0  0  0  0  0  0  0  0  0
   -3.4600   22.5030  -31.3050 N   0  0  0  0  0  0  0  0  0  0  0  0
   -2.7450   24.8211  -27.6173 H   0  0  0  0  0  0  0  0  0  0  0  0
   -3.0735   23.2688  -28.4594 H   0  0  0  0  0  0  0  0  0  0  0  0
   -1.4143   23.9571  -28.4594 H   0  0  0  0  0  0  0  0  0  0  0  0
   -6.5242   23.9092  -31.0296 H   0  0  0  0  0  0  0  0  0  0  0  0
   -7.1767   21.6645  -31.9100 H   0  0  0  0  0  0  0  0  0  0  0  0
   -5.6855   20.2861  -34.6067 H   0  0  0  0  0  0  0  0  0  0  0  0
   -6.3170   18.0494  -35.5012 H   0  0  0  0  0  0  0  0  0  0  0  0
   -5.4509   14.3868  -31.8590 H   0  0  0  0  0  0  0  0  0  0  0  0
   -5.2146   12.7501  -32.5606 H   0  0  0  0  0  0  0  0  0  0  0  0
   -3.8613   13.9313  -32.5606 H   0  0  0  0  0  0  0  0  0  0  0  0
   -5.4078   18.6118  -30.6218 H   0  0  0  0  0  0  0  0  0  0  0  0
   -2.9942   20.5480  -32.0197 H   0  0  0  0  0  0  0  0  0  0  0  0
  1  2  1  0
  2  3  1  0
  3  4  2  0
  3  5  1  0
  5  6  2  0
  6  7  1  0
  7  8  2  0
  8  9  1  0
  9 10  2  0
 10 11  1  0
 11 12  2  0
 12 13  1  0
 13 14  1  0
 14 15  1  0
 14 16  2  0
 14 17  2  0
 12 18  1  0
 18 19  1  0
 18 20  2  0
  8 21  1  0
 21 22  2  0
 22  5  1  0
 20  9  1  0
  1 23  1  0
  1 24  1  0
  1 25  1  0
  6 26  1  0
  7 27  1  0
 10 28  1  0
 11 29  1  0
 15 30  1  0
 15 31  1  0
 15 32  1  0
 20 33  1  0
 21 34  1  0
M  CHG  2   2  -1  13  -1
M  END
>  <UniqueID>  (5) 
5

>  <SMILES>  (5) 
C[N-]C(=O)c1ccc(-c2ccc([N-]S(C)(=O)=O)c(F)c2)cn1

>  <Energy>  (5) 
42.75465946106658

>  <Genealogy>  (5) 
C[N-]C(=O)c1ccc(-c2ccc([N-]S(C)(=O)=O)c(F)c2)cn1 (protonated)
C[N-]C(=O)c1ccc(-c2ccc([N-]S(C)(=O)=O)c(F)c2)cn1 (3D coordinates assigned)
C[N-]C(=O)c1ccc(-c2ccc([N-]S(C)(=O)=O)c(F)c2)cn1 (optimized conformer: 42.75465946106658 kcal/mol)

>  <smiles>  (5) 
CNC(=O)c1ccc(-c2ccc(NS(C)(=O)=O)c(F)c2)cn1

>  <score_type>  (5) 
oracle

>  <origin>  (5) 
adgpu

>  <m_score__min__energy>  (5) 
-9.0199999999999996

>  <m_primary>  (5) 
energy

$$$$
5:0
     RDKit          3D

 35 38  0  0  0  0  0  0  0  0999 V2000
   -6.1160   17.2320  -34.6530 Cl  0  0  0  0  0  0  0  0  0  0  0  0
   -5.4440   18.4530  -33.5880 C   0  0  0  0  0  0  0  0  0  0  0  0
   -6.2760   19.1500  -32.7090 C   0  0  0  0  0  0  0  0  0  0  0  0
   -5.7420   20.1240  -31.8590 C   0  0  0  0  0  0  0  0  0  0  0  0
   -4.3640   20.4120  -31.8810 C   0  0  0  0  0  0  0  0  0  0  0  0
   -3.7940   21.4460  -30.9800 C   0  0  0  0  0  0  0  0  0  0  0  0
   -4.5190   22.6120  -30.6790 C   0  0  0  0  0  0  0  0  0  0  0  0
   -3.9840   23.5850  -29.8320 C   0  0  0  0  0  0  0  0  0  0  0  0
   -2.7100   23.4140  -29.2600 C   0  0  0  0  0  0  0  0  0  0  0  0
   -2.1220   24.4360  -28.3560 C   0  0  0  0  0  0  0  0  0  0  0  0
   -2.0190   24.2510  -27.0110 N   0  0  0  0  0  0  0  0  0  0  0  0
   -1.4490   25.3930  -26.5880 C   0  0  0  0  0  0  0  0  0  0  0  0
   -1.1130   25.7470  -25.2840 C   0  0  0  0  0  0  0  0  0  0  0  0
   -0.5250   27.0100  -25.0810 C   0  0  0  0  0  0  0  0  0  0  0  0
   -0.2920   27.8760  -26.1760 C   0  0  0  0  0  0  0  0  0  0  0  0
   -0.6470   27.4840  -27.4800 C   0  0  0  0  0  0  0  0  0  0  0  0
   -1.2250   26.2270  -27.6400 C   0  0  0  0  0  0  0  0  0  0  0  0
   -1.6430   25.6410  -28.7680 N   0  0  0  0  0  0  0  0  0  0  0  0
   -1.9860   22.2490  -29.5630 C   0  0  0  0  0  0  0  0  0  0  0  0
   -2.5200   21.2760  -30.4110 C   0  0  0  0  0  0  0  0  0  0  0  0
   -3.5360   19.7040  -32.7710 C   0  0  0  0  0  0  0  0  0  0  0  0
   -4.0750   18.7310  -33.6190 C   0  0  0  0  0  0  0  0  0  0  0  0
   -7.3540   18.9324  -32.6851 H   0  0  0  0  0  0  0  0  0  0  0  0
   -6.4030   20.6686  -31.1687 H   0  0  0  0  0  0  0  0  0  0  0  0
   -5.5180   22.7596  -31.1151 H   0  0  0  0  0  0  0  0  0  0  0  0
   -4.5638   24.4931  -29.6101 H   0  0  0  0  0  0  0  0  0  0  0  0
   -1.3003   25.0641  -24.4423 H   0  0  0  0  0  0  0  0  0  0  0  0
   -0.2450   27.3257  -24.0652 H   0  0  0  0  0  0  0  0  0  0  0  0
    0.1689   28.8604  -26.0068 H   0  0  0  0  0  0  0  0  0  0  0  0
   -0.4743   28.1460  -28.3413 H   0  0  0  0  0  0  0  0  0  0  0  0
   -1.6110   26.0450  -29.7300 H   0  0  0  0  0  0  0  0  0  0  0  0
   -0.9868   22.1012  -29.1273 H   0  0  0  0  0  0  0  0  0  0  0  0
   -1.9389   20.3694  -30.6353 H   0  0  0  0  0  0  0  0  0  0  0  0
   -2.4572   19.9171  -32.8002 H   0  0  0  0  0  0  0  0  0  0  0  0
   -3.4195   18.1833  -34.3121 H   0  0  0  0  0  0  0  0  0  0  0  0
  1  2  1  0
  2  3  2  0
  3  4  1  0
  4  5  2  0
  5  6  1  0
  6  7  2  0
  7  8  1  0
  8  9  2  0
  9 10  1  0
 10 11  2  0
 11 12  1  0
 12 13  2  0
 13 14  1  0
 14 15  2  0
 15 16  1  0
 16 17  2  0
 17 18  1  0
  9 19  1  0
 19 20  2  0
  5 21  1  0
 21 22  2  0
 22  2  1  0
 20  6  1  0
 18 10  1  0
 17 12  1  0
  3 23  1  0
  4 24  1  0
  7 25  1  0
  8 26  1  0
 13 27  1  0
 14 28  1  0
 15 29  1  0
 16 30  1  0
 18 31  1  0
 19 32  1  0
 20 33  1  0
 21 34  1  0
 22 35  1  0
M  END
>  <UniqueID>  (6) 
6

>  <SMILES>  (6) 
Clc1ccc(-c2ccc(-c3nc4ccccc4[nH]3)cc2)cc1

>  <Energy>  (6) 
83.25560435025967

>  <Genealogy>  (6) 
Clc1ccc(-c2ccc(-c3nc4ccccc4[nH]3)cc2)cc1 (3D coordinates assigned)
Clc1ccc(-c2ccc(-c3nc4ccccc4[nH]3)cc2)cc1 (optimized conformer: 83.25560435025967 kcal/mol)

>  <smiles>  (6) 
Clc1ccc(-c2ccc(-c3nc4ccccc4[nH]3)cc2)cc1

>  <score_type>  (6) 
oracle

>  <origin>  (6) 
adgpu

>  <m_score__min__energy>  (6) 
-7.71

>  <m_primary>  (6) 
energy

$$$$
6:0
     RDKit          3D

 31 33  0  0  0  0  0  0  0  0999 V2000
   -2.3600   19.1020  -33.8960 C   0  0  0  0  0  0  0  0  0  0  0  0
   -3.6740   19.6150  -34.0880 O   0  0  0  0  0  0  0  0  0  0  0  0
   -4.8540   18.9370  -33.7400 C   0  0  0  0  0  0  0  0  0  0  0  0
   -5.1980   17.6980  -34.3160 C   0  0  0  0  0  0  0  0  0  0  0  0
   -6.3640   17.0860  -33.9830 N   0  0  0  0  0  0  0  0  0  0  0  0
   -7.2300   17.6340  -33.0930 C   0  0  0  0  0  0  0  0  0  0  0  0
   -6.9340   18.8560  -32.4900 C   0  0  0  0  0  0  0  0  0  0  0  0
   -5.7350   19.5140  -32.8020 C   0  0  0  0  0  0  0  0  0  0  0  0
   -5.4250   20.8080  -32.1450 C   0  0  0  0  0  0  0  0  0  0  0  0
   -6.4610   21.6550  -31.7270 C   0  0  0  0  0  0  0  0  0  0  0  0
   -6.1570   22.8770  -31.1200 C   0  0  0  0  0  0  0  0  0  0  0  0
   -7.1870   23.7290  -30.6940 C   0  0  0  0  0  0  0  0  0  0  0  0
   -6.8830   24.9500  -30.0880 C   0  0  0  0  0  0  0  0  0  0  0  0
   -5.5530   25.3300  -29.9050 C   0  0  0  0  0  0  0  0  0  0  0  0
   -4.5130   24.4950  -30.3250 C   0  0  0  0  0  0  0  0  0  0  0  0
   -3.2340   24.9050  -30.1280 F   0  0  0  0  0  0  0  0  0  0  0  0
   -4.8040   23.2560  -30.9400 C   0  0  0  0  0  0  0  0  0  0  0  0
   -3.7940   22.3760  -31.3860 C   0  0  0  0  0  0  0  0  0  0  0  0
   -2.5750   22.6700  -31.2480 O   0  0  0  0  0  0  0  0  0  0  0  0
   -4.1280   21.1930  -31.9730 N   0  0  0  0  0  0  0  0  0  0  0  0
   -2.1519   19.0207  -32.8189 H   0  0  0  0  0  0  0  0  0  0  0  0
   -2.2830   18.1078  -34.3604 H   0  0  0  0  0  0  0  0  0  0  0  0
   -1.6298   19.7811  -34.3604 H   0  0  0  0  0  0  0  0  0  0  0  0
   -4.5185   17.2237  -35.0394 H   0  0  0  0  0  0  0  0  0  0  0  0
   -8.1671   17.1131  -32.8469 H   0  0  0  0  0  0  0  0  0  0  0  0
   -7.6381   19.3024  -31.7723 H   0  0  0  0  0  0  0  0  0  0  0  0
   -7.5098   21.3589  -31.8762 H   0  0  0  0  0  0  0  0  0  0  0  0
   -8.2370   23.4345  -30.8377 H   0  0  0  0  0  0  0  0  0  0  0  0
   -7.6941   25.6138  -29.7541 H   0  0  0  0  0  0  0  0  0  0  0  0
   -5.3210   26.2932  -29.4270 H   0  0  0  0  0  0  0  0  0  0  0  0
   -3.3590   20.5560  -32.2830 H   0  0  0  0  0  0  0  0  0  0  0  0
  1  2  1  0
  2  3  1  0
  3  4  2  0
  4  5  1  0
  5  6  2  0
  6  7  1  0
  7  8  2  0
  8  9  1  0
  9 10  2  0
 10 11  1  0
 11 12  2  0
 12 13  1  0
 13 14  2  0
 14 15  1  0
 15 16  1  0
 15 17  2  0
 17 18  1  0
 18 19  2  0
 18 20  1  0
  8  3  1  0
 20  9  1  0
 17 11  1  0
  1 21  1  0
  1 22  1  0
  1 23  1  0
  4 24  1  0
  6 25  1  0
  7 26  1  0
 10 27  1  0
 12 28  1  0
 13 29  1  0
 14 30  1  0
 20 31  1  0
M  END
>  <UniqueID>  (7) 
7

>  <SMILES>  (7) 
COc1cnccc1-c1cc2cccc(F)c2c(=O)[nH]1

>  <Energy>  (7) 
46.0844932329455

>  <Genealogy>  (7) 
COc1cnccc1-c1cc2cccc(F)c2c(=O)[nH]1 (3D coordinates assigned)
COc1cnccc1-c1cc2cccc(F)c2c(=O)[nH]1 (optimized conformer: 46.0844932329455 kcal/mol)

>  <smiles>  (7) 
COc1cnccc1-c1cc2cccc(F)c2c(=O)[nH]1

>  <score_type>  (7) 
oracle

>  <origin>  (7) 
adgpu

>  <m_score__min__energy>  (7) 
-6.75

>  <m_primary>  (7) 
energy

$$$$
7:0
     RDKit          3D

 49 51  0  0  0  0  0  0  0  0999 V2000
   -6.8420   15.9240  -33.8980 C   0  0  0  0  0  0  0  0  0  0  0  0
   -6.2090   17.2390  -33.5480 C   0  0  0  0  0  0  0  0  0  0  0  0
   -4.8140   17.3890  -33.6110 C   0  0  0  0  0  0  0  0  0  0  0  0
   -4.2150   18.6160  -33.2900 C   0  0  0  0  0  0  0  0  0  0  0  0
   -2.4770   18.8470  -33.4740 S   0  0  0  0  0  0  0  0  0  0  0  0
   -2.1810   19.9840  -34.4120 O   0  0  0  0  0  0  0  0  0  0  0  0
   -1.8730   17.5920  -34.0380 O   0  0  0  0  0  0  0  0  0  0  0  0
   -1.7860   19.1650  -31.9160 N   0  0  0  0  0  0  0  0  0  0  0  0
   -1.9810   20.3940  -31.2090 C   0  0  0  0  0  0  0  0  0  0  0  0
   -1.0460   21.4400  -31.2830 C   0  0  0  0  0  0  0  0  0  0  0  0
   -1.3130   22.6670  -30.6730 C   0  0  0  0  0  0  0  0  0  0  0  0
   -2.5160   22.8640  -29.9870 C   0  0  0  0  0  0  0  0  0  0  0  0
   -2.9070   24.4630  -29.3650 S   0  0  0  0  0  0  0  0  0  0  0  0
   -1.6280   25.2150  -29.1330 O   0  0  0  0  0  0  0  0  0  0  0  0
   -3.6480   24.3460  -28.0600 O   0  0  0  0  0  0  0  0  0  0  0  0
   -3.8690   25.3260  -30.5370 N   0  0  0  0  0  0  0  0  0  0  0  0
   -5.1750   24.6990  -30.7830 C   0  0  0  0  0  0  0  0  0  0  0  0
   -4.9890   23.5860  -31.8450 C   0  0  0  0  0  0  0  0  0  0  0  0
   -6.0160   22.4410  -31.7410 C   0  0  0  0  0  0  0  0  0  0  0  0
   -7.3410   22.9240  -31.1490 C   0  0  0  0  0  0  0  0  0  0  0  0
   -7.1510   23.4680  -29.7210 C   0  0  0  0  0  0  0  0  0  0  0  0
   -5.7720   24.1170  -29.4850 C   0  0  0  0  0  0  0  0  0  0  0  0
   -3.4230   21.8040  -29.8590 C   0  0  0  0  0  0  0  0  0  0  0  0
   -3.1500   20.5710  -30.4600 C   0  0  0  0  0  0  0  0  0  0  0  0
   -5.0170   19.6900  -32.8810 C   0  0  0  0  0  0  0  0  0  0  0  0
   -6.4010   19.5360  -32.7810 C   0  0  0  0  0  0  0  0  0  0  0  0
   -6.9990   18.3150  -33.1070 C   0  0  0  0  0  0  0  0  0  0  0  0
   -8.3450   18.1840  -32.9970 F   0  0  0  0  0  0  0  0  0  0  0  0
   -7.1016   15.3848  -32.9750 H   0  0  0  0  0  0  0  0  0  0  0  0
   -7.7535   16.1012  -34.4878 H   0  0  0  0  0  0  0  0  0  0  0  0
   -6.1349   15.3221  -34.4878 H   0  0  0  0  0  0  0  0  0  0  0  0
   -4.1865   16.5379  -33.9143 H   0  0  0  0  0  0  0  0  0  0  0  0
   -0.0997   21.2916  -31.8238 H   0  0  0  0  0  0  0  0  0  0  0  0
   -0.5755   23.4810  -30.7320 H   0  0  0  0  0  0  0  0  0  0  0  0
   -5.8810   25.4584  -31.1502 H   0  0  0  0  0  0  0  0  0  0  0  0
   -5.0786   24.0413  -32.8423 H   0  0  0  0  0  0  0  0  0  0  0  0
   -3.9983   23.1414  -31.6693 H   0  0  0  0  0  0  0  0  0  0  0  0
   -6.2012   22.0354  -32.7466 H   0  0  0  0  0  0  0  0  0  0  0  0
   -5.6034   21.6686  -31.0753 H   0  0  0  0  0  0  0  0  0  0  0  0
   -7.7476   23.7235  -31.7858 H   0  0  0  0  0  0  0  0  0  0  0  0
   -8.0335   22.0704  -31.1059 H   0  0  0  0  0  0  0  0  0  0  0  0
   -7.9278   24.2232  -29.5305 H   0  0  0  0  0  0  0  0  0  0  0  0
   -7.2245   22.6098  -29.0368 H   0  0  0  0  0  0  0  0  0  0  0  0
   -5.8828   24.9284  -28.7506 H   0  0  0  0  0  0  0  0  0  0  0  0
   -5.0888   23.3370  -29.1178 H   0  0  0  0  0  0  0  0  0  0  0  0
   -4.3512   21.9417  -29.2850 H   0  0  0  0  0  0  0  0  0  0  0  0
   -3.8572   19.7366  -30.3435 H   0  0  0  0  0  0  0  0  0  0  0  0
   -4.5544   20.6579  -32.6379 H   0  0  0  0  0  0  0  0  0  0  0  0
   -7.0232   20.3784  -32.4445 H   0  0  0  0  0  0  0  0  0  0  0  0
  1  2  1  0
  2  3  2  0
  3  4  1  0
  4  5  1  0
  5  6  2  0
  5  7  2  0
  5  8  1  0
  8  9  1  0
  9 10  2  0
 10 11  1  0
 11 12  2  0
 12 13  1  0
 13 14  2  0
 13 15  2  0
 13 16  1  0
 16 17  1  0
 17 18  1  0
 18 19  1  0
 19 20  1  0
 20 21  1  0
 21 22  1  0
 12 23  1  0
 23 24  2  0
  4 25  2  0
 25 26  1  0
 26 27  2  0
 27 28  1  0
 27  2  1  0
 24  9  1  0
 22 17  1  0
  1 29  1  0
  1 30  1  0
  1 31  1  0
  3 32  1  0
 10 33  1  0
 11 34  1  0
 17 35  1  0
 18 36  1  0
 18 37  1  0
 19 38  1  0
 19 39  1  0
 20 40  1  0
 20 41  1  0
 21 42  1  0
 21 43  1  0
 22 44  1  0
 22 45  1  0
 23 46  1  0
 24 47  1  0
 25 48  1  0
 26 49  1  0
M  CHG  2   8  -1  16  -1
M  END
>  <UniqueID>  (8) 
8

>  <SMILES>  (8) 
Cc1cc(S(=O)(=O)[N-]c2ccc(S(=O)(=O)[N-]C3CCCCC3)cc2)ccc1F

>  <Energy>  (8) 
53.74397636696295

>  <Genealogy>  (8) 
Cc1cc(S(=O)(=O)[N-]c2ccc(S(=O)(=O)[N-]C3CCCCC3)cc2)ccc1F (protonated)
Cc1cc(S(=O)(=O)[N-]c2ccc(S(=O)(=O)[N-]C3CCCCC3)cc2)ccc1F (3D coordinates assigned)
Cc1cc(S(=O)(=O)[N-]c2ccc(S(=O)(=O)[N-]C3CCCCC3)cc2)ccc1F (nonaromatic ring conformer: 53.74397636696295 kcal/mol)

>  <smiles>  (8) 
Cc1cc(S(=O)(=O)Nc2ccc(S(=O)(=O)NC3CCCCC3)cc2)ccc1F

>  <score_type>  (8) 
oracle

>  <origin>  (8) 
adgpu

>  <m_score__min__energy>  (8) 
-11.48

>  <m_primary>  (8) 
energy

$$$$
8:0
     RDKit          3D

 28 28  0  0  0  0  0  0  0  0999 V2000
   -7.5160   23.9100  -30.2280 N   0  0  0  0  0  0  0  0  0  0  0  0
   -8.0160   22.6500  -31.3010 S   0  0  0  0  0  0  0  0  0  0  0  0
   -8.8950   23.2380  -32.3710 O   0  0  0  0  0  0  0  0  0  0  0  0
   -8.8090   21.6240  -30.5420 O   0  0  0  0  0  0  0  0  0  0  0  0
   -6.5970   21.8870  -32.0290 C   0  0  0  0  0  0  0  0  0  0  0  0
   -6.7000   20.5870  -32.5490 C   0  0  0  0  0  0  0  0  0  0  0  0
   -5.5970   19.9770  -33.1480 C   0  0  0  0  0  0  0  0  0  0  0  0
   -4.3840   20.6580  -33.2390 C   0  0  0  0  0  0  0  0  0  0  0  0
   -3.3150   20.0620  -33.8220 F   0  0  0  0  0  0  0  0  0  0  0  0
   -4.2690   21.9550  -32.7320 C   0  0  0  0  0  0  0  0  0  0  0  0
   -5.3740   22.5840  -32.1250 C   0  0  0  0  0  0  0  0  0  0  0  0
   -5.2800   23.9200  -31.6090 N   0  0  0  0  0  0  0  0  0  0  0  0
   -4.7310   24.3450  -30.0210 S   0  0  0  0  0  0  0  0  0  0  0  0
   -5.6210   25.4230  -29.4670 O   0  0  0  0  0  0  0  0  0  0  0  0
   -4.8070   23.1420  -29.1240 O   0  0  0  0  0  0  0  0  0  0  0  0
   -3.0960   24.9250  -30.0840 N   0  0  0  0  0  0  0  0  0  0  0  0
   -2.2390   24.0690  -29.2680 C   0  0  0  0  0  0  0  0  0  0  0  0
   -1.3130   24.9290  -28.4150 C   0  0  0  0  0  0  0  0  0  0  0  0
   -1.8260   25.0320  -27.1350 F   0  0  0  0  0  0  0  0  0  0  0  0
   -1.2070   26.1950  -28.9640 F   0  0  0  0  0  0  0  0  0  0  0  0
   -0.0570   24.3520  -28.3520 F   0  0  0  0  0  0  0  0  0  0  0  0
   -6.7030   23.5480  -29.6820 H   0  0  0  0  0  0  0  0  0  0  0  0
   -7.1550   24.6910  -30.8220 H   0  0  0  0  0  0  0  0  0  0  0  0
   -7.6556   20.0461  -32.4839 H   0  0  0  0  0  0  0  0  0  0  0  0
   -5.6849   18.9566  -33.5492 H   0  0  0  0  0  0  0  0  0  0  0  0
   -3.3098   22.4882  -32.8072 H   0  0  0  0  0  0  0  0  0  0  0  0
   -2.8641   23.4446  -28.6128 H   0  0  0  0  0  0  0  0  0  0  0  0
   -1.6350   23.4267  -29.9257 H   0  0  0  0  0  0  0  0  0  0  0  0
  1  2  1  0
  2  3  2  0
  2  4  2  0
  2  5  1  0
  5  6  2  0
  6  7  1  0
  7  8  2  0
  8  9  1  0
  8 10  1  0
 10 11  2  0
 11 12  1  0
 12 13  1  0
 13 14  2  0
 13 15  2  0
 13 16  1  0
 16 17  1  0
 17 18  1  0
 18 19  1  0
 18 20  1  0
 18 21  1  0
 11  5  1  0
  1 22  1  0
  1 23  1  0
  6 24  1  0
  7 25  1  0
 10 26  1  0
 17 27  1  0
 17 28  1  0
M  CHG  2  12  -1  16  -1
M  END
>  <UniqueID>  (9) 
9

>  <SMILES>  (9) 
NS(=O)(=O)c1ccc(F)cc1[N-]S(=O)(=O)[N-]CC(F)(F)F

>  <Energy>  (9) 
22.036301020871434

>  <Genealogy>  (9) 
NS(=O)(=O)c1ccc(F)cc1[N-]S(=O)(=O)[N-]CC(F)(F)F (protonated)
NS(=O)(=O)c1ccc(F)cc1[N-]S(=O)(=O)[N-]CC(F)(F)F (3D coordinates assigned)
NS(=O)(=O)c1ccc(F)cc1[N-]S(=O)(=O)[N-]CC(F)(F)F (optimized conformer: 22.036301020871434 kcal/mol)

>  <smiles>  (9) 
NS(=O)(=O)c1ccc(F)cc1NS(=O)(=O)NCC(F)(F)F

>  <score_type>  (9) 
oracle

>  <origin>  (9) 
adgpu

>  <m_score__min__energy>  (9) 
-8.2300000000000004

>  <m_primary>  (9) 
energy

$$$$
9:0
     RDKit          3D

 41 43  0  0  0  0  0  0  0  0999 V2000
   -8.2240   20.6360  -32.3730 C   0  0  0  0  0  0  0  0  0  0  0  0
   -7.1660   21.3330  -31.5700 C   0  0  0  0  0  0  0  0  0  0  0  0
   -5.8140   21.0120  -31.7530 C   0  0  0  0  0  0  0  0  0  0  0  0
   -4.8250   21.6890  -31.0310 C   0  0  0  0  0  0  0  0  0  0  0  0
   -5.1730   22.6930  -30.1150 C   0  0  0  0  0  0  0  0  0  0  0  0
   -4.1360   23.3890  -29.4040 N   0  0  0  0  0  0  0  0  0  0  0  0
   -3.4550   24.5490  -29.9110 C   0  0  0  0  0  0  0  0  0  0  0  0
   -3.9900   25.2560  -30.8060 O   0  0  0  0  0  0  0  0  0  0  0  0
   -2.2150   24.9800  -29.3390 N   0  0  0  0  0  0  0  0  0  0  0  0
   -1.7000   24.5960  -28.0550 C   0  0  0  0  0  0  0  0  0  0  0  0
   -1.7830   25.4610  -26.9490 C   0  0  0  0  0  0  0  0  0  0  0  0
   -1.2960   25.0610  -25.7020 C   0  0  0  0  0  0  0  0  0  0  0  0
   -0.7340   23.7920  -25.5440 C   0  0  0  0  0  0  0  0  0  0  0  0
   -0.6710   22.9160  -26.6300 C   0  0  0  0  0  0  0  0  0  0  0  0
   -1.1640   23.3060  -27.8820 C   0  0  0  0  0  0  0  0  0  0  0  0
   -1.0770   22.1490  -29.2540 S   0  0  0  0  0  0  0  0  0  0  0  0
   -1.5000   20.7420  -28.2250 C   0  0  0  0  0  0  0  0  0  0  0  0
   -0.5480   19.7500  -27.9630 C   0  0  0  0  0  0  0  0  0  0  0  0
   -0.8810   18.6520  -27.1640 C   0  0  0  0  0  0  0  0  0  0  0  0
   -2.1660   18.5460  -26.6220 C   0  0  0  0  0  0  0  0  0  0  0  0
   -3.1170   19.5390  -26.8770 C   0  0  0  0  0  0  0  0  0  0  0  0
   -2.7850   20.6370  -27.6760 C   0  0  0  0  0  0  0  0  0  0  0  0
   -6.5280   23.0390  -29.9620 C   0  0  0  0  0  0  0  0  0  0  0  0
   -7.5160   22.3630  -30.6850 C   0  0  0  0  0  0  0  0  0  0  0  0
   -8.9462   20.1602  -31.6933 H   0  0  0  0  0  0  0  0  0  0  0  0
   -8.7449   21.3684  -33.0073 H   0  0  0  0  0  0  0  0  0  0  0  0
   -7.7567   19.8683  -33.0073 H   0  0  0  0  0  0  0  0  0  0  0  0
   -5.5294   20.2250  -32.4668 H   0  0  0  0  0  0  0  0  0  0  0  0
   -3.7663   21.4320  -31.1828 H   0  0  0  0  0  0  0  0  0  0  0  0
   -3.9210   23.0900  -28.4270 H   0  0  0  0  0  0  0  0  0  0  0  0
   -2.2337   26.4576  -27.0664 H   0  0  0  0  0  0  0  0  0  0  0  0
   -1.3552   25.7463  -24.8436 H   0  0  0  0  0  0  0  0  0  0  0  0
   -0.3411   23.4826  -24.5643 H   0  0  0  0  0  0  0  0  0  0  0  0
   -0.2323   21.9154  -26.5017 H   0  0  0  0  0  0  0  0  0  0  0  0
    0.4638   19.8343  -28.3864 H   0  0  0  0  0  0  0  0  0  0  0  0
   -0.1325   17.8717  -26.9617 H   0  0  0  0  0  0  0  0  0  0  0  0
   -2.4286   17.6812  -25.9949 H   0  0  0  0  0  0  0  0  0  0  0  0
   -4.1268   19.4561  -26.4487 H   0  0  0  0  0  0  0  0  0  0  0  0
   -3.5329   21.4190  -27.8739 H   0  0  0  0  0  0  0  0  0  0  0  0
   -6.8119   23.8456  -29.2700 H   0  0  0  0  0  0  0  0  0  0  0  0
   -8.5729   22.6406  -30.5589 H   0  0  0  0  0  0  0  0  0  0  0  0
  1  2  1  0
  2  3  2  0
  3  4  1  0
  4  5  2  0
  5  6  1  0
  6  7  1  0
  7  8  2  0
  7  9  1  0
  9 10  1  0
 10 11  2  0
 11 12  1  0
 12 13  2  0
 13 14  1  0
 14 15  2  0
 15 16  1  0
 16 17  1  0
 17 18  2  0
 18 19  1  0
 19 20  2  0
 20 21  1  0
 21 22  2  0
  5 23  1  0
 23 24  2  0
 24  2  1  0
 15 10  1  0
 22 17  1  0
  1 25  1  0
  1 26  1  0
  1 27  1  0
  3 28  1  0
  4 29  1  0
  6 30  1  0
 11 31  1  0
 12 32  1  0
 13 33  1  0
 14 34  1  0
 18 35  1  0
 19 36  1  0
 20 37  1  0
 21 38  1  0
 22 39  1  0
 23 40  1  0
 24 41  1  0
M  CHG  1   9  -1
M  END
>  <UniqueID>  (10) 
10

>  <SMILES>  (10) 
Cc1ccc(NC(=O)[N-]c2ccccc2Sc2ccccc2)cc1

>  <Energy>  (10) 
45.4501254747772

>  <Genealogy>  (10) 
Cc1ccc(NC(=O)[N-]c2ccccc2Sc2ccccc2)cc1 (protonated)
Cc1ccc(NC(=O)[N-]c2ccccc2Sc2ccccc2)cc1 (3D coordinates assigned)
Cc1ccc(NC(=O)[N-]c2ccccc2Sc2ccccc2)cc1 (optimized conformer: 45.4501254747772 kcal/mol)

>  <smiles>  (10) 
Cc1ccc(NC(=O)Nc2ccccc2Sc2ccccc2)cc1

>  <score_type>  (10) 
oracle

>  <origin>  (10) 
adgpu

>  <m_score__min__energy>  (10) 
-10.5

>  <m_primary>  (10) 
energy

$$$$
10:0
     RDKit          3D

 22 23  0  0  0  0  0  0  0  0999 V2000
   -0.4120   21.0740  -29.0170 H   0  0  0  0  0  0  0  0  0  0  0  0
   -0.1150   22.0450  -28.7670 N   0  0  0  0  0  0  0  0  0  0  0  0
   -0.8750   23.0770  -28.9540 C   0  0  0  0  0  0  0  0  0  0  0  0
   -0.4120   24.3450  -28.5960 C   0  0  0  0  0  0  0  0  0  0  0  0
    0.5903   24.4676  -28.1596 H   0  0  0  0  0  0  0  0  0  0  0  0
   -1.2320   25.4530  -28.7970 C   0  0  0  0  0  0  0  0  0  0  0  0
   -0.8778   26.4563  -28.5179 H   0  0  0  0  0  0  0  0  0  0  0  0
   -2.4680   25.2960  -29.3370 N   0  0  0  0  0  0  0  0  0  0  0  0
   -2.9670   24.0790  -29.7040 C   0  0  0  0  0  0  0  0  0  0  0  0
   -4.3450   24.0130  -30.2910 C   0  0  0  0  0  0  0  0  0  0  0  0
   -4.6250   23.0600  -31.2950 C   0  0  0  0  0  0  0  0  0  0  0  0
   -3.8297   22.3794  -31.6331 H   0  0  0  0  0  0  0  0  0  0  0  0
   -5.8970   22.9690  -31.8650 C   0  0  0  0  0  0  0  0  0  0  0  0
   -6.0958   22.2208  -32.6464 H   0  0  0  0  0  0  0  0  0  0  0  0
   -6.9150   23.8240  -31.4460 C   0  0  0  0  0  0  0  0  0  0  0  0
   -7.9164   23.7499  -31.8951 H   0  0  0  0  0  0  0  0  0  0  0  0
   -6.6620   24.7730  -30.4570 C   0  0  0  0  0  0  0  0  0  0  0  0
   -7.4660   25.4477  -30.1277 H   0  0  0  0  0  0  0  0  0  0  0  0
   -5.3910   24.8720  -29.8810 C   0  0  0  0  0  0  0  0  0  0  0  0
   -5.2034   25.6253  -29.1016 H   0  0  0  0  0  0  0  0  0  0  0  0
   -2.1570   22.9380  -29.5100 C   0  0  0  0  0  0  0  0  0  0  0  0
   -2.5297   21.9428  -29.7939 H   0  0  0  0  0  0  0  0  0  0  0  0
  1  2  1  0
  2  3  2  0
  3  4  1  0
  4  5  1  0
  4  6  2  0
  6  7  1  0
  6  8  1  0
  8  9  1  0
  9 10  1  0
 10 11  2  0
 11 12  1  0
 11 13  1  0
 13 14  1  0
 13 15  2  0
 15 16  1  0
 15 17  1  0
 17 18  1  0
 17 19  2  0
 19 20  1  0
  9 21  2  0
 21 22  1  0
 21  3  1  0
 19 10  1  0
M  CHG  1   8  -1
M  END
>  <UniqueID>  (11) 
11

>  <SMILES>  (11) 
[H]/N=c1/cc[n-]c(-c2ccccc2)c1

>  <Energy>  (11) 
28.96824359299054

>  <Genealogy>  (11) 
N=c1cc[n-]c(-c2ccccc2)c1 (protonated)
[H]/N=c1/cc[n-]c(-c2ccccc2)c1 (cis-trans isomerization)
[H]/N=c1/cc[n-]c(-c2ccccc2)c1 (3D coordinates assigned)
[H]/N=c1/cc[n-]c(-c2ccccc2)c1 (optimized conformer: 28.96824359299054 kcal/mol)

>  <smiles>  (11) 
N=c1cc[nH]c(-c2ccccc2)c1

>  <score_type>  (11) 
oracle

>  <origin>  (11) 
adgpu

>  <m_score__min__energy>  (11) 
-6.9100000000000001

>  <m_primary>  (11) 
energy

$$$$
11:0
     RDKit          3D

 14 14  0  0  0  0  0  0  0  0999 V2000
   -3.9560   25.2630  -30.3170 N   0  0  0  0  0  0  0  0  0  0  0  0
   -4.6230   24.1340  -30.8850 C   0  0  0  0  0  0  0  0  0  0  0  0
   -3.8940   22.9880  -31.2380 C   0  0  0  0  0  0  0  0  0  0  0  0
   -4.5480   21.8820  -31.7940 C   0  0  0  0  0  0  0  0  0  0  0  0
   -3.6330   20.4510  -32.2340 Cl  0  0  0  0  0  0  0  0  0  0  0  0
   -5.9310   21.9170  -32.0000 C   0  0  0  0  0  0  0  0  0  0  0  0
   -6.6630   23.0570  -31.6500 C   0  0  0  0  0  0  0  0  0  0  0  0
   -8.3970   23.1010  -31.9070 Cl  0  0  0  0  0  0  0  0  0  0  0  0
   -6.0100   24.1640  -31.0930 C   0  0  0  0  0  0  0  0  0  0  0  0
   -3.1110   25.6730  -30.7770 H   0  0  0  0  0  0  0  0  0  0  0  0
   -4.3010   25.6990  -29.4330 H   0  0  0  0  0  0  0  0  0  0  0  0
   -2.8062   22.9586  -31.0775 H   0  0  0  0  0  0  0  0  0  0  0  0
   -6.4436   21.0476  -32.4375 H   0  0  0  0  0  0  0  0  0  0  0  0
   -6.5865   25.0595  -30.8179 H   0  0  0  0  0  0  0  0  0  0  0  0
  1  2  1  0
  2  3  2  0
  3  4  1  0
  4  5  1  0
  4  6  2  0
  6  7  1  0
  7  8  1  0
  7  9  2  0
  9  2  1  0
  1 10  1  0
  1 11  1  0
  3 12  1  0
  6 13  1  0
  9 14  1  0
M  END
>  <UniqueID>  (12) 
12

>  <SMILES>  (12) 
Nc1cc(Cl)cc(Cl)c1

>  <Energy>  (12) 
11.384450704692476

>  <Genealogy>  (12) 
Nc1cc(Cl)cc(Cl)c1 (3D coordinates assigned)
Nc1cc(Cl)cc(Cl)c1 (optimized conformer: 11.384450704692476 kcal/mol)

>  <smiles>  (12) 
Nc1cc(Cl)cc(Cl)c1

>  <score_type>  (12) 
oracle

>  <origin>  (12) 
adgpu

>  <m_score__min__energy>  (12) 
-5.1200000000000001

>  <m_primary>  (12) 
energy

$$$$
12:0
     RDKit          3D

 38 40  0  0  0  0  0  0  0  0999 V2000
   -2.6050   24.5450  -28.9230 C   0  0  0  0  0  0  0  0  0  0  0  0
   -3.4680   25.0810  -29.9190 O   0  0  0  0  0  0  0  0  0  0  0  0
   -4.5300   24.3800  -30.5100 C   0  0  0  0  0  0  0  0  0  0  0  0
   -5.8580   24.8360  -30.4530 C   0  0  0  0  0  0  0  0  0  0  0  0
   -6.8820   24.1040  -31.0570 C   0  0  0  0  0  0  0  0  0  0  0  0
   -6.6010   22.8990  -31.7300 C   0  0  0  0  0  0  0  0  0  0  0  0
   -7.6150   22.1320  -32.3270 O   0  0  0  0  0  0  0  0  0  0  0  0
   -8.8520   21.8000  -31.7050 C   0  0  0  0  0  0  0  0  0  0  0  0
   -5.2680   22.4410  -31.7930 C   0  0  0  0  0  0  0  0  0  0  0  0
   -4.9290   21.1880  -32.5110 C   0  0  0  0  0  0  0  0  0  0  0  0
   -5.8570   20.1400  -32.5740 C   0  0  0  0  0  0  0  0  0  0  0  0
   -5.5330   18.9670  -33.2610 C   0  0  0  0  0  0  0  0  0  0  0  0
   -6.4350   17.8960  -33.3470 C   0  0  0  0  0  0  0  0  0  0  0  0
   -6.0750   16.7270  -34.0380 C   0  0  0  0  0  0  0  0  0  0  0  0
   -7.0510   15.5960  -34.1630 C   0  0  0  0  0  0  0  0  0  0  0  0
   -4.8220   16.6510  -34.6660 C   0  0  0  0  0  0  0  0  0  0  0  0
   -3.9220   17.7190  -34.5830 C   0  0  0  0  0  0  0  0  0  0  0  0
   -4.2710   18.8770  -33.8810 C   0  0  0  0  0  0  0  0  0  0  0  0
   -3.4130   19.8890  -33.8050 O   0  0  0  0  0  0  0  0  0  0  0  0
   -3.6870   21.0180  -33.1560 C   0  0  0  0  0  0  0  0  0  0  0  0
   -2.8140   21.9260  -33.1140 O   0  0  0  0  0  0  0  0  0  0  0  0
   -4.2470   23.1870  -31.1800 C   0  0  0  0  0  0  0  0  0  0  0  0
   -2.9994   24.7899  -27.9258 H   0  0  0  0  0  0  0  0  0  0  0  0
   -2.5481   23.4524  -29.0366 H   0  0  0  0  0  0  0  0  0  0  0  0
   -1.6003   24.9783  -29.0366 H   0  0  0  0  0  0  0  0  0  0  0  0
   -6.0920   25.7748  -29.9296 H   0  0  0  0  0  0  0  0  0  0  0  0
   -7.9175   24.4716  -31.0068 H   0  0  0  0  0  0  0  0  0  0  0  0
   -8.7330   21.8319  -30.6119 H   0  0  0  0  0  0  0  0  0  0  0  0
   -9.6222   22.5232  -32.0113 H   0  0  0  0  0  0  0  0  0  0  0  0
   -9.1565   20.7883  -32.0113 H   0  0  0  0  0  0  0  0  0  0  0  0
   -6.8370   20.2403  -32.0845 H   0  0  0  0  0  0  0  0  0  0  0  0
   -7.4248   17.9716  -32.8731 H   0  0  0  0  0  0  0  0  0  0  0  0
   -7.3462   15.2539  -33.1601 H   0  0  0  0  0  0  0  0  0  0  0  0
   -7.9414   15.9389  -34.7103 H   0  0  0  0  0  0  0  0  0  0  0  0
   -6.5815   14.7653  -34.7103 H   0  0  0  0  0  0  0  0  0  0  0  0
   -4.5459   15.7460  -35.2270 H   0  0  0  0  0  0  0  0  0  0  0  0
   -2.9386   17.6477  -35.0706 H   0  0  0  0  0  0  0  0  0  0  0  0
   -3.2090   22.8262  -31.2284 H   0  0  0  0  0  0  0  0  0  0  0  0
  1  2  1  0
  2  3  1  0
  3  4  2  0
  4  5  1  0
  5  6  2  0
  6  7  1  0
  7  8  1  0
  6  9  1  0
  9 10  1  0
 10 11  2  0
 11 12  1  0
 12 13  2  0
 13 14  1  0
 14 15  1  0
 14 16  2  0
 16 17  1  0
 17 18  2  0
 18 19  1  0
 19 20  1  0
 20 21  2  0
  9 22  2  0
 22  3  1  0
 20 10  1  0
 18 12  1  0
  1 23  1  0
  1 24  1  0
  1 25  1  0
  4 26  1  0
  5 27  1  0
  8 28  1  0
  8 29  1  0
  8 30  1  0
 11 31  1  0
 13 32  1  0
 15 33  1  0
 15 34  1  0
 15 35  1  0
 16 36  1  0
 17 37  1  0
 22 38  1  0
M  END
>  <UniqueID>  (13) 
13

>  <SMILES>  (13) 
COc1ccc(OC)c(-c2cc3cc(C)ccc3oc2=O)c1

>  <Energy>  (13) 
49.94237268992699

>  <Genealogy>  (13) 
COc1ccc(OC)c(-c2cc3cc(C)ccc3oc2=O)c1 (3D coordinates assigned)
COc1ccc(OC)c(-c2cc3cc(C)ccc3oc2=O)c1 (optimized conformer: 49.94237268992699 kcal/mol)

>  <smiles>  (13) 
COc1ccc(OC)c(-c2cc3cc(C)ccc3oc2=O)c1

>  <score_type>  (13) 
oracle

>  <origin>  (13) 
adgpu

>  <m_score__min__energy>  (13) 
-7.7999999999999998

>  <m_primary>  (13) 
energy

$$$$
13:0
     RDKit          3D

 36 38  0  0  0  0  0  0  0  0999 V2000
   -9.4330   19.0630  -32.4530 C   0  0  0  0  0  0  0  0  0  0  0  0
   -8.9280   20.3000  -32.9460 O   0  0  0  0  0  0  0  0  0  0  0  0
   -7.9200   21.0550  -32.3230 C   0  0  0  0  0  0  0  0  0  0  0  0
   -8.2200   22.0830  -31.4090 C   0  0  0  0  0  0  0  0  0  0  0  0
   -7.1960   22.8160  -30.8070 C   0  0  0  0  0  0  0  0  0  0  0  0
   -5.8530   22.5400  -31.1050 C   0  0  0  0  0  0  0  0  0  0  0  0
   -4.7690   23.3150  -30.4700 C   0  0  0  0  0  0  0  0  0  0  0  0
   -4.0320   22.8790  -29.4300 N   0  0  0  0  0  0  0  0  0  0  0  0
   -3.2080   23.9270  -29.2210 C   0  0  0  0  0  0  0  0  0  0  0  0
   -2.1300   23.9500  -28.2050 C   0  0  0  0  0  0  0  0  0  0  0  0
   -2.0160   22.8550  -27.3270 C   0  0  0  0  0  0  0  0  0  0  0  0
   -1.0710   22.8590  -26.3010 C   0  0  0  0  0  0  0  0  0  0  0  0
   -0.2240   23.9540  -26.1350 C   0  0  0  0  0  0  0  0  0  0  0  0
   -0.3080   25.0400  -27.0050 C   0  0  0  0  0  0  0  0  0  0  0  0
   -1.2410   25.0460  -28.0560 C   0  0  0  0  0  0  0  0  0  0  0  0
   -1.2240   26.1410  -28.9820 N   0  0  0  0  0  0  0  0  0  0  0  0
   -3.4230   24.9280  -30.1000 N   0  0  0  0  0  0  0  0  0  0  0  0
   -4.3980   24.5140  -30.8490 O   0  0  0  0  0  0  0  0  0  0  0  0
   -5.5500   21.5170  -32.0160 C   0  0  0  0  0  0  0  0  0  0  0  0
   -6.5750   20.7740  -32.6260 C   0  0  0  0  0  0  0  0  0  0  0  0
   -6.2330   19.6810  -33.6000 C   0  0  0  0  0  0  0  0  0  0  0  0
   -9.4273   19.0769  -31.3531 H   0  0  0  0  0  0  0  0  0  0  0  0
  -10.4624   18.9178  -32.8126 H   0  0  0  0  0  0  0  0  0  0  0  0
   -8.7993   18.2389  -32.8126 H   0  0  0  0  0  0  0  0  0  0  0  0
   -9.2689   22.3101  -31.1676 H   0  0  0  0  0  0  0  0  0  0  0  0
   -7.4437   23.6159  -30.0937 H   0  0  0  0  0  0  0  0  0  0  0  0
   -2.6797   21.9867  -27.4516 H   0  0  0  0  0  0  0  0  0  0  0  0
   -0.9939   21.9971  -25.6219 H   0  0  0  0  0  0  0  0  0  0  0  0
    0.5112   23.9610  -25.3168 H   0  0  0  0  0  0  0  0  0  0  0  0
    0.3627   25.9009  -26.8675 H   0  0  0  0  0  0  0  0  0  0  0  0
   -1.6080   26.0550  -29.9470 H   0  0  0  0  0  0  0  0  0  0  0  0
   -0.6850   27.0090  -28.7620 H   0  0  0  0  0  0  0  0  0  0  0  0
   -4.4997   21.2943  -32.2552 H   0  0  0  0  0  0  0  0  0  0  0  0
   -5.9490   18.7732  -33.0475 H   0  0  0  0  0  0  0  0  0  0  0  0
   -7.1071   19.4668  -34.2326 H   0  0  0  0  0  0  0  0  0  0  0  0
   -5.3927   20.0032  -34.2326 H   0  0  0  0  0  0  0  0  0  0  0  0
  1  2  1  0
  2  3  1  0
  3  4  2  0
  4  5  1  0
  5  6  2  0
  6  7  1  0
  7  8  2  0
  8  9  1  0
  9 10  1  0
 10 11  2  0
 11 12  1  0
 12 13  2  0
 13 14  1  0
 14 15  2  0
 15 16  1  0
  9 17  2  0
 17 18  1  0
  6 19  1  0
 19 20  2  0
 20 21  1  0
 20  3  1  0
 18  7  1  0
 15 10  1  0
  1 22  1  0
  1 23  1  0
  1 24  1  0
  4 25  1  0
  5 26  1  0
 11 27  1  0
 12 28  1  0
 13 29  1  0
 14 30  1  0
 16 31  1  0
 16 32  1  0
 19 33  1  0
 21 34  1  0
 21 35  1  0
 21 36  1  0
M  END
>  <UniqueID>  (14) 
14

>  <SMILES>  (14) 
COc1ccc(-c2nc(-c3ccccc3N)no2)cc1C

>  <Energy>  (14) 
75.83686005609731

>  <Genealogy>  (14) 
COc1ccc(-c2nc(-c3ccccc3N)no2)cc1C (3D coordinates assigned)
COc1ccc(-c2nc(-c3ccccc3N)no2)cc1C (optimized conformer: 75.83686005609731 kcal/mol)

>  <smiles>  (14) 
COc1ccc(-c2nc(-c3ccccc3N)no2)cc1C

>  <score_type>  (14) 
oracle

>  <origin>  (14) 
adgpu

>  <m_score__min__energy>  (14) 
-8.2899999999999991

>  <m_primary>  (14) 
energy

$$$$
14:0
     RDKit          3D

 32 34  0  0  0  0  0  0  0  0999 V2000
   -2.6250   14.1360  -32.9890 H   0  0  0  0  0  0  0  0  0  0  0  0
   -3.4910   14.5680  -32.6920 O   0  0  0  0  0  0  0  0  0  0  0  0
   -4.0940   15.5940  -33.4190 C   0  0  0  0  0  0  0  0  0  0  0  0
   -5.3030   16.1340  -32.9640 C   0  0  0  0  0  0  0  0  0  0  0  0
   -5.7702   15.7352  -32.0515 H   0  0  0  0  0  0  0  0  0  0  0  0
   -5.9220   17.1790  -33.6630 C   0  0  0  0  0  0  0  0  0  0  0  0
   -7.2210   17.6960  -33.1940 C   0  0  0  0  0  0  0  0  0  0  0  0
   -8.0858   17.0178  -33.2401 H   0  0  0  0  0  0  0  0  0  0  0  0
   -7.4260   18.9330  -32.7150 C   0  0  0  0  0  0  0  0  0  0  0  0
   -9.0720   19.4780  -32.2490 S   0  0  0  0  0  0  0  0  0  0  0  0
   -8.3490   20.9990  -31.6220 C   0  0  0  0  0  0  0  0  0  0  0  0
   -9.1150   21.8210  -30.4290 S   0  0  0  0  0  0  0  0  0  0  0  0
   -6.9400   21.1290  -31.8320 N   0  0  0  0  0  0  0  0  0  0  0  0
   -6.1600   22.2890  -31.4850 C   0  0  0  0  0  0  0  0  0  0  0  0
   -6.7060   23.5790  -31.6020 C   0  0  0  0  0  0  0  0  0  0  0  0
   -7.7381   23.7060  -31.9606 H   0  0  0  0  0  0  0  0  0  0  0  0
   -5.9440   24.7010  -31.2650 C   0  0  0  0  0  0  0  0  0  0  0  0
   -6.3766   25.7079  -31.3604 H   0  0  0  0  0  0  0  0  0  0  0  0
   -4.6330   24.5450  -30.8070 C   0  0  0  0  0  0  0  0  0  0  0  0
   -3.8770   25.6610  -30.4710 O   0  0  0  0  0  0  0  0  0  0  0  0
   -4.0810   23.2660  -30.6880 C   0  0  0  0  0  0  0  0  0  0  0  0
   -3.0487   23.1442  -30.3281 H   0  0  0  0  0  0  0  0  0  0  0  0
   -4.8400   22.1420  -31.0260 C   0  0  0  0  0  0  0  0  0  0  0  0
   -4.4019   21.1374  -30.9322 H   0  0  0  0  0  0  0  0  0  0  0  0
   -6.4120   19.9550  -32.4370 C   0  0  0  0  0  0  0  0  0  0  0  0
   -5.1830   19.8180  -32.6790 O   0  0  0  0  0  0  0  0  0  0  0  0
   -5.3490   17.6450  -34.8570 C   0  0  0  0  0  0  0  0  0  0  0  0
   -5.8516   18.4352  -35.4341 H   0  0  0  0  0  0  0  0  0  0  0  0
   -4.1430   17.1090  -35.3150 C   0  0  0  0  0  0  0  0  0  0  0  0
   -3.6899   17.4907  -36.2418 H   0  0  0  0  0  0  0  0  0  0  0  0
   -3.5100   16.0880  -34.5980 C   0  0  0  0  0  0  0  0  0  0  0  0
   -2.3100   15.5660  -35.0650 O   0  0  0  0  0  0  0  0  0  0  0  0
  1  2  1  0
  2  3  1  0
  3  4  2  0
  4  5  1  0
  4  6  1  0
  6  7  1  0
  7  8  1  0
  7  9  2  0
  9 10  1  0
 10 11  1  0
 11 12  2  0
 11 13  1  0
 13 14  1  0
 14 15  2  0
 15 16  1  0
 15 17  1  0
 17 18  1  0
 17 19  2  0
 19 20  1  0
 19 21  1  0
 21 22  1  0
 21 23  2  0
 23 24  1  0
 13 25  1  0
 25 26  2  0
  6 27  2  0
 27 28  1  0
 27 29  1  0
 29 30  1  0
 29 31  2  0
 31 32  1  0
 31  3  1  0
 25  9  1  0
 23 14  1  0
M  CHG  2  20  -1  32  -1
M  END
>  <UniqueID>  (15) 
15

>  <SMILES>  (15) 
O=C1/C(=C\c2ccc([O-])c(O)c2)SC(=S)N1c1ccc([O-])cc1

>  <Energy>  (15) 
68.05051691687729

>  <Genealogy>  (15) 
O=C1C(=Cc2ccc([O-])c(O)c2)SC(=S)N1c1ccc([O-])cc1 (protonated)
O=C1/C(=C\c2ccc([O-])c(O)c2)SC(=S)N1c1ccc([O-])cc1 (cis-trans isomerization)
O=C1/C(=C\c2ccc([O-])c(O)c2)SC(=S)N1c1ccc([O-])cc1 (3D coordinates assigned)
O=C1/C(=C\c2ccc([O-])c(O)c2)SC(=S)N1c1ccc([O-])cc1 (nonaromatic ring conformer: 68.05051691687729 kcal/mol)

>  <smiles>  (15) 
O=C1C(=Cc2ccc(O)c(O)c2)SC(=S)N1c1ccc(O)cc1

>  <score_type>  (15) 
oracle

>  <origin>  (15) 
adgpu

>  <m_score__min__energy>  (15) 
-11.5

>  <m_primary>  (15) 
energy

$$$$
15:0
     RDKit          3D

 35 36  0  0  0  0  0  0  0  0999 V2000
   -4.9500   23.4010  -29.0660 C   0  0  0  0  0  0  0  0  0  0  0  0
   -5.0970   24.4640  -30.4880 S   0  0  0  0  0  0  0  0  0  0  0  0
   -3.8640   25.3180  -30.5710 O   0  0  0  0  0  0  0  0  0  0  0  0
   -6.3000   25.3490  -30.3220 O   0  0  0  0  0  0  0  0  0  0  0  0
   -5.2470   23.5160  -31.9500 N   0  0  0  0  0  0  0  0  0  0  0  0
   -4.0600   22.6480  -32.1130 C   0  0  0  0  0  0  0  0  0  0  0  0
   -4.3280   21.4890  -33.0780 C   0  0  0  0  0  0  0  0  0  0  0  0
   -5.4570   20.6840  -32.5950 N   0  0  0  0  0  0  0  0  0  0  0  0
   -5.5430   19.2780  -32.9070 C   0  0  0  0  0  0  0  0  0  0  0  0
   -4.3720   18.5160  -33.0640 C   0  0  0  0  0  0  0  0  0  0  0  0
   -4.4420   17.1550  -33.3740 C   0  0  0  0  0  0  0  0  0  0  0  0
   -5.6870   16.5200  -33.5130 C   0  0  0  0  0  0  0  0  0  0  0  0
   -5.7630   15.0630  -33.8950 C   0  0  0  0  0  0  0  0  0  0  0  0
   -5.3750   14.2590  -32.8370 F   0  0  0  0  0  0  0  0  0  0  0  0
   -7.0540   14.7180  -34.2500 F   0  0  0  0  0  0  0  0  0  0  0  0
   -4.9230   14.8300  -34.9680 F   0  0  0  0  0  0  0  0  0  0  0  0
   -6.8590   17.2820  -33.3770 C   0  0  0  0  0  0  0  0  0  0  0  0
   -6.7910   18.6450  -33.0680 C   0  0  0  0  0  0  0  0  0  0  0  0
   -7.9480   19.3330  -32.9000 F   0  0  0  0  0  0  0  0  0  0  0  0
   -6.4320   21.3030  -31.6890 C   0  0  0  0  0  0  0  0  0  0  0  0
   -6.5490   22.8040  -31.9870 C   0  0  0  0  0  0  0  0  0  0  0  0
   -5.0331   24.0022  -28.1486 H   0  0  0  0  0  0  0  0  0  0  0  0
   -5.7527   22.6492  -29.0857 H   0  0  0  0  0  0  0  0  0  0  0  0
   -3.9734   22.8952  -29.0857 H   0  0  0  0  0  0  0  0  0  0  0  0
   -3.2287   23.2523  -32.5052 H   0  0  0  0  0  0  0  0  0  0  0  0
   -3.8114   22.2223  -31.1297 H   0  0  0  0  0  0  0  0  0  0  0  0
   -4.5672   21.8916  -34.0733 H   0  0  0  0  0  0  0  0  0  0  0  0
   -3.4315   20.8543  -33.1378 H   0  0  0  0  0  0  0  0  0  0  0  0
   -3.3900   18.9962  -32.9415 H   0  0  0  0  0  0  0  0  0  0  0  0
   -3.5158   16.5773  -33.5100 H   0  0  0  0  0  0  0  0  0  0  0  0
   -7.8395   16.8028  -33.5147 H   0  0  0  0  0  0  0  0  0  0  0  0
   -7.4133   20.8264  -31.8298 H   0  0  0  0  0  0  0  0  0  0  0  0
   -6.0958   21.1670  -30.6505 H   0  0  0  0  0  0  0  0  0  0  0  0
   -6.9855   22.9275  -32.9891 H   0  0  0  0  0  0  0  0  0  0  0  0
   -7.1812   23.2426  -31.2010 H   0  0  0  0  0  0  0  0  0  0  0  0
  1  2  1  0
  2  3  2  0
  2  4  2  0
  2  5  1  0
  5  6  1  0
  6  7  1  0
  7  8  1  0
  8  9  1  0
  9 10  2  0
 10 11  1  0
 11 12  2  0
 12 13  1  0
 13 14  1  0
 13 15  1  0
 13 16  1  0
 12 17  1  0
 17 18  2  0
 18 19  1  0
  8 20  1  0
 20 21  1  0
 21  5  1  0
 18  9  1  0
  1 22  1  0
  1 23  1  0
  1 24  1  0
  6 25  1  0
  6 26  1  0
  7 27  1  0
  7 28  1  0
 10 29  1  0
 11 30  1  0
 17 31  1  0
 20 32  1  0
 20 33  1  0
 21 34  1  0
 21 35  1  0
M  END
>  <UniqueID>  (16) 
16

>  <SMILES>  (16) 
CS(=O)(=O)N1CCN(c2ccc(C(F)(F)F)cc2F)CC1

>  <Energy>  (16) 
39.88946148750382

>  <Genealogy>  (16) 
CS(=O)(=O)N1CCN(c2ccc(C(F)(F)F)cc2F)CC1 (3D coordinates assigned)
CS(=O)(=O)N1CCN(c2ccc(C(F)(F)F)cc2F)CC1 (nonaromatic ring conformer: 39.88946148750382 kcal/mol)

>  <smiles>  (16) 
CS(=O)(=O)N1CCN(c2ccc(C(F)(F)F)cc2F)CC1

>  <score_type>  (16) 
oracle

>  <origin>  (16) 
adgpu

>  <m_score__min__energy>  (16) 
-7.1699999999999999

>  <m_primary>  (16) 
energy

$$$$
16:0
     RDKit          3D

 73 77  0  0  0  0  0  0  0  0999 V2000
   -0.9521   22.2656  -25.3928 H   0  0  0  0  0  0  0  0  0  0  0  0
   -0.8760   23.3610  -25.3270 C   0  0  0  0  0  0  0  0  0  0  0  0
   -0.4240   24.0480  -24.2570 N   0  0  0  0  0  0  0  0  0  0  0  0
   -0.5170   25.3430  -24.6270 C   0  0  0  0  0  0  0  0  0  0  0  0
   -0.1350   26.4710  -23.7220 C   0  0  0  0  0  0  0  0  0  0  0  0
   -0.2426   26.1532  -22.6744 H   0  0  0  0  0  0  0  0  0  0  0  0
    0.9100   26.7566  -23.9130 H   0  0  0  0  0  0  0  0  0  0  0  0
   -0.7914   27.3328  -23.9130 H   0  0  0  0  0  0  0  0  0  0  0  0
   -1.0220   25.5010  -25.8720 N   0  0  0  0  0  0  0  0  0  0  0  0
   -1.2880   26.7660  -26.5600 C   0  0  0  0  0  0  0  0  0  0  0  0
   -1.4549   27.5596  -25.8168 H   0  0  0  0  0  0  0  0  0  0  0  0
   -0.4255   27.0292  -27.1900 H   0  0  0  0  0  0  0  0  0  0  0  0
   -2.1834   26.6595  -27.1900 H   0  0  0  0  0  0  0  0  0  0  0  0
   -1.2280   24.2460  -26.3260 C   0  0  0  0  0  0  0  0  0  0  0  0
   -1.7460   23.8690  -27.6600 C   0  0  0  0  0  0  0  0  0  0  0  0
   -1.4090   22.6260  -28.2160 C   0  0  0  0  0  0  0  0  0  0  0  0
   -0.7620   21.9339  -27.6570 H   0  0  0  0  0  0  0  0  0  0  0  0
   -1.8900   22.2630  -29.4740 C   0  0  0  0  0  0  0  0  0  0  0  0
   -1.6145   21.2879  -29.9021 H   0  0  0  0  0  0  0  0  0  0  0  0
   -2.7190   23.1270  -30.1960 C   0  0  0  0  0  0  0  0  0  0  0  0
   -3.1930   22.7060  -31.4850 N   0  0  0  0  0  0  0  0  0  0  0  0
   -2.6900   21.7410  -32.1980 C   0  0  0  0  0  0  0  0  0  0  0  0
   -1.5800   21.0730  -31.7840 N   0  0  0  0  0  0  0  0  0  0  0  0
   -1.0160   20.0750  -32.5160 C   0  0  0  0  0  0  0  0  0  0  0  0
   -1.6120   19.7130  -33.7430 C   0  0  0  0  0  0  0  0  0  0  0  0
   -2.7510   20.4190  -34.1560 C   0  0  0  0  0  0  0  0  0  0  0  0
   -3.2334   20.1659  -35.1116 H   0  0  0  0  0  0  0  0  0  0  0  0
   -3.2630   21.4130  -33.3850 N   0  0  0  0  0  0  0  0  0  0  0  0
   -4.1120   21.9270  -33.7180 H   0  0  0  0  0  0  0  0  0  0  0  0
   -1.0230   18.6620  -34.6430 C   0  0  0  0  0  0  0  0  0  0  0  0
   -1.6463   18.5631  -35.5440 H   0  0  0  0  0  0  0  0  0  0  0  0
   -0.0026   18.9597  -34.9259 H   0  0  0  0  0  0  0  0  0  0  0  0
   -0.9720   17.3720  -33.9430 N   0  0  0  0  0  0  0  0  0  0  0  0
   -2.0460   16.4360  -34.1140 C   0  0  0  0  0  0  0  0  0  0  0  0
   -3.3270   16.7830  -33.6660 C   0  0  0  0  0  0  0  0  0  0  0  0
   -3.4884   17.7605  -33.1880 H   0  0  0  0  0  0  0  0  0  0  0  0
   -4.4090   15.8990  -33.8190 C   0  0  0  0  0  0  0  0  0  0  0  0
   -5.7980   16.2700  -33.3360 C   0  0  0  0  0  0  0  0  0  0  0  0
   -6.4315   15.3746  -33.4195 H   0  0  0  0  0  0  0  0  0  0  0  0
   -5.7790   16.6920  -31.8620 C   0  0  0  0  0  0  0  0  0  0  0  0
   -5.8193   15.7970  -31.2238 H   0  0  0  0  0  0  0  0  0  0  0  0
   -4.8548   17.2505  -31.6524 H   0  0  0  0  0  0  0  0  0  0  0  0
   -6.6493   17.3313  -31.6524 H   0  0  0  0  0  0  0  0  0  0  0  0
   -6.4130   17.3650  -34.2150 C   0  0  0  0  0  0  0  0  0  0  0  0
   -6.8513   18.1454  -33.5756 H   0  0  0  0  0  0  0  0  0  0  0  0
   -5.6314   17.8075  -34.8501 H   0  0  0  0  0  0  0  0  0  0  0  0
   -7.1976   16.9279  -34.8501 H   0  0  0  0  0  0  0  0  0  0  0  0
   -4.1880   14.6580  -34.4380 C   0  0  0  0  0  0  0  0  0  0  0  0
   -5.0264   13.9586  -34.5720 H   0  0  0  0  0  0  0  0  0  0  0  0
   -2.9130   14.3040  -34.8850 C   0  0  0  0  0  0  0  0  0  0  0  0
   -2.7578   13.3321  -35.3762 H   0  0  0  0  0  0  0  0  0  0  0  0
   -1.8290   15.1770  -34.7130 C   0  0  0  0  0  0  0  0  0  0  0  0
   -0.4760   14.7760  -35.2330 C   0  0  0  0  0  0  0  0  0  0  0  0
    0.1977   14.5763  -34.3867 H   0  0  0  0  0  0  0  0  0  0  0  0
   -0.5732   13.8681  -35.8463 H   0  0  0  0  0  0  0  0  0  0  0  0
   -0.0628   15.5903  -35.8463 H   0  0  0  0  0  0  0  0  0  0  0  0
    0.1320   17.0210  -33.0380 C   0  0  0  0  0  0  0  0  0  0  0  0
    0.0738   15.9476  -32.8049 H   0  0  0  0  0  0  0  0  0  0  0  0
    1.0786   17.2651  -33.5424 H   0  0  0  0  0  0  0  0  0  0  0  0
    0.0700   17.8180  -31.7280 C   0  0  0  0  0  0  0  0  0  0  0  0
   -0.8838   17.5861  -31.2316 H   0  0  0  0  0  0  0  0  0  0  0  0
    0.9503   17.5167  -31.1413 H   0  0  0  0  0  0  0  0  0  0  0  0
    0.1640   19.3510  -31.8950 C   0  0  0  0  0  0  0  0  0  0  0  0
    0.3206   19.7798  -30.8942 H   0  0  0  0  0  0  0  0  0  0  0  0
    0.9846   19.4987  -32.6125 H   0  0  0  0  0  0  0  0  0  0  0  0
   -3.0140   24.4070  -29.6810 C   0  0  0  0  0  0  0  0  0  0  0  0
   -3.7610   25.3020  -30.4630 O   0  0  0  0  0  0  0  0  0  0  0  0
   -5.1830   25.3330  -30.5260 C   0  0  0  0  0  0  0  0  0  0  0  0
   -5.5951   25.3420  -29.5061 H   0  0  0  0  0  0  0  0  0  0  0  0
   -5.5067   26.2384  -31.0603 H   0  0  0  0  0  0  0  0  0  0  0  0
   -5.5459   24.4426  -31.0603 H   0  0  0  0  0  0  0  0  0  0  0  0
   -2.5300   24.7630  -28.4060 C   0  0  0  0  0  0  0  0  0  0  0  0
   -2.7695   25.7530  -27.9907 H   0  0  0  0  0  0  0  0  0  0  0  0
  1  2  1  0
  2  3  1  0
  3  4  2  0
  4  5  1  0
  5  6  1  0
  5  7  1  0
  5  8  1  0
  4  9  1  0
  9 10  1  0
 10 11  1  0
 10 12  1  0
 10 13  1  0
  9 14  1  0
 14 15  1  0
 15 16  2  0
 16 17  1  0
 16 18  1  0
 18 19  1  0
 18 20  2  0
 20 21  1  0
 21 22  2  0
 22 23  1  0
 23 24  2  0
 24 25  1  0
 25 26  2  0
 26 27  1  0
 26 28  1  0
 28 29  1  0
 25 30  1  0
 30 31  1  0
 30 32  1  0
 30 33  1  0
 33 34  1  0
 34 35  2  0
 35 36  1  0
 35 37  1  0
 37 38  1  0
 38 39  1  0
 38 40  1  0
 40 41  1  0
 40 42  1  0
 40 43  1  0
 38 44  1  0
 44 45  1  0
 44 46  1  0
 44 47  1  0
 37 48  2  0
 48 49  1  0
 48 50  1  0
 50 51  1  0
 50 52  2  0
 52 53  1  0
 53 54  1  0
 53 55  1  0
 53 56  1  0
 33 57  1  0
 57 58  1  0
 57 59  1  0
 57 60  1  0
 60 61  1  0
 60 62  1  0
 60 63  1  0
 63 64  1  0
 63 65  1  0
 20 66  1  0
 66 67  1  0
 67 68  1  0
 68 69  1  0
 68 70  1  0
 68 71  1  0
 66 72  2  0
 72 73  1  0
 14  2  2  0
 72 15  1  0
 28 22  1  0
 52 34  1  0
 63 24  1  0
M  END
>  <UniqueID>  (17) 
17

>  <SMILES>  (17) 
COc1cc(-c2cnc(C)n2C)ccc1/N=c1\nc2c(c[nH]1)CN(c1cc(C(C)C)ccc1C)CCC2

>  <Energy>  (17) 
127.43344840338575

>  <Genealogy>  (17) 
COc1cc(-c2cnc(C)n2C)ccc1/N=c1\nc2c(c[nH]1)CN(c1cc(C(C)C)ccc1C)CCC2 (cis-trans isomerization)
COc1cc(-c2cnc(C)n2C)ccc1/N=c1\nc2c(c[nH]1)CN(c1cc(C(C)C)ccc1C)CCC2 (3D coordinates assigned)
COc1cc(-c2cnc(C)n2C)ccc1/N=c1\nc2c(c[nH]1)CN(c1cc(C(C)C)ccc1C)CCC2 (nonaromatic ring conformer: 127.43344840338575 kcal/mol)

>  <smiles>  (17) 
COc1cc(-c2cnc(C)n2C)ccc1N=c1nc2c(c[nH]1)CN(c1cc(C(C)C)ccc1C)CCC2

>  <score_type>  (17) 
oracle

>  <origin>  (17) 
adgpu

>  <m_score__min__energy>  (17) 
-8.5899999999999999

>  <m_primary>  (17) 
energy

$$$$
17:0
     RDKit          3D

 45 48  0  0  0  0  0  0  0  0999 V2000
   -0.4110   26.7890  -24.5980 C   0  0  0  0  0  0  0  0  0  0  0  0
   -0.2350   26.5740  -25.9950 O   0  0  0  0  0  0  0  0  0  0  0  0
   -1.1240   25.8500  -26.8020 C   0  0  0  0  0  0  0  0  0  0  0  0
   -0.9160   25.6710  -28.1830 C   0  0  0  0  0  0  0  0  0  0  0  0
   -1.8340   24.9430  -28.9450 C   0  0  0  0  0  0  0  0  0  0  0  0
   -2.9800   24.3990  -28.3470 C   0  0  0  0  0  0  0  0  0  0  0  0
   -3.9410   23.6330  -29.1670 C   0  0  0  0  0  0  0  0  0  0  0  0
   -5.2700   23.8760  -29.0130 N   0  0  0  0  0  0  0  0  0  0  0  0
   -6.2120   23.2040  -29.7240 C   0  0  0  0  0  0  0  0  0  0  0  0
   -5.8160   22.2210  -30.6430 C   0  0  0  0  0  0  0  0  0  0  0  0
   -6.7980   21.4370  -31.4340 C   0  0  0  0  0  0  0  0  0  0  0  0
   -8.1770   21.6700  -31.2670 C   0  0  0  0  0  0  0  0  0  0  0  0
   -9.1150   20.9370  -32.0000 C   0  0  0  0  0  0  0  0  0  0  0  0
   -8.6910   19.9610  -32.9030 C   0  0  0  0  0  0  0  0  0  0  0  0
   -7.3280   19.7110  -33.0720 C   0  0  0  0  0  0  0  0  0  0  0  0
   -6.3840   20.4420  -32.3420 C   0  0  0  0  0  0  0  0  0  0  0  0
   -4.4880   21.9580  -30.7760 N   0  0  0  0  0  0  0  0  0  0  0  0
   -3.5400   22.6270  -30.0710 C   0  0  0  0  0  0  0  0  0  0  0  0
   -1.8250   22.1210  -30.2620 S   0  0  0  0  0  0  0  0  0  0  0  0
   -1.7340   21.4910  -28.5860 C   0  0  0  0  0  0  0  0  0  0  0  0
   -0.8410   22.0610  -27.6700 C   0  0  0  0  0  0  0  0  0  0  0  0
   -0.7840   21.5810  -26.3580 C   0  0  0  0  0  0  0  0  0  0  0  0
   -1.6160   20.5300  -25.9590 C   0  0  0  0  0  0  0  0  0  0  0  0
   -2.5040   19.9530  -26.8750 C   0  0  0  0  0  0  0  0  0  0  0  0
   -3.5490   18.6370  -26.3750 Cl  0  0  0  0  0  0  0  0  0  0  0  0
   -2.5600   20.4310  -28.1900 C   0  0  0  0  0  0  0  0  0  0  0  0
   -3.1750   24.5600  -26.9660 C   0  0  0  0  0  0  0  0  0  0  0  0
   -2.2570   25.2860  -26.2040 C   0  0  0  0  0  0  0  0  0  0  0  0
    0.1880   26.0573  -24.0361 H   0  0  0  0  0  0  0  0  0  0  0  0
   -0.0835   27.8068  -24.3395 H   0  0  0  0  0  0  0  0  0  0  0  0
   -1.4734   26.6690  -24.3395 H   0  0  0  0  0  0  0  0  0  0  0  0
   -0.0275   26.1058  -28.6641 H   0  0  0  0  0  0  0  0  0  0  0  0
   -1.6565   24.7958  -30.0206 H   0  0  0  0  0  0  0  0  0  0  0  0
   -7.2790   23.4292  -29.5801 H   0  0  0  0  0  0  0  0  0  0  0  0
   -8.5187   22.4349  -30.5541 H   0  0  0  0  0  0  0  0  0  0  0  0
  -10.1895   21.1299  -31.8647 H   0  0  0  0  0  0  0  0  0  0  0  0
   -9.4309   19.3886  -33.4817 H   0  0  0  0  0  0  0  0  0  0  0  0
   -6.9954   18.9379  -33.7803 H   0  0  0  0  0  0  0  0  0  0  0  0
   -5.3116   20.2385  -32.4779 H   0  0  0  0  0  0  0  0  0  0  0  0
   -0.1845   22.8863  -27.9827 H   0  0  0  0  0  0  0  0  0  0  0  0
   -0.0838   22.0306  -25.6386 H   0  0  0  0  0  0  0  0  0  0  0  0
   -1.5727   20.1566  -24.9252 H   0  0  0  0  0  0  0  0  0  0  0  0
   -3.2526   19.9741  -28.9122 H   0  0  0  0  0  0  0  0  0  0  0  0
   -4.0553   24.1121  -26.4817 H   0  0  0  0  0  0  0  0  0  0  0  0
   -2.4257   25.4157  -25.1248 H   0  0  0  0  0  0  0  0  0  0  0  0
  1  2  1  0
  2  3  1  0
  3  4  2  0
  4  5  1  0
  5  6  2  0
  6  7  1  0
  7  8  2  0
  8  9  1  0
  9 10  2  0
 10 11  1  0
 11 12  2  0
 12 13  1  0
 13 14  2  0
 14 15  1  0
 15 16  2  0
 10 17  1  0
 17 18  2  0
 18 19  1  0
 19 20  1  0
 20 21  2  0
 21 22  1  0
 22 23  2  0
 23 24  1  0
 24 25  1  0
 24 26  2  0
  6 27  1  0
 27 28  2  0
 28  3  1  0
 18  7  1  0
 26 20  1  0
 16 11  1  0
  1 29  1  0
  1 30  1  0
  1 31  1  0
  4 32  1  0
  5 33  1  0
  9 34  1  0
 12 35  1  0
 13 36  1  0
 14 37  1  0
 15 38  1  0
 16 39  1  0
 21 40  1  0
 22 41  1  0
 23 42  1  0
 26 43  1  0
 27 44  1  0
 28 45  1  0
M  END
>  <UniqueID>  (18) 
18

>  <SMILES>  (18) 
COc1ccc(-c2ncc(-c3ccccc3)nc2Sc2cccc(Cl)c2)cc1

>  <Energy>  (18) 
55.483878151255915

>  <Genealogy>  (18) 
COc1ccc(-c2ncc(-c3ccccc3)nc2Sc2cccc(Cl)c2)cc1 (3D coordinates assigned)
COc1ccc(-c2ncc(-c3ccccc3)nc2Sc2cccc(Cl)c2)cc1 (optimized conformer: 55.483878151255915 kcal/mol)

>  <smiles>  (18) 
COc1ccc(-c2ncc(-c3ccccc3)nc2Sc2cccc(Cl)c2)cc1

>  <score_type>  (18) 
oracle

>  <origin>  (18) 
adgpu

>  <m_score__min__energy>  (18) 
-8.5600000000000005

>  <m_primary>  (18) 
energy

$$$$
18:0
     RDKit          3D

 36 37  0  0  0  0  0  0  0  0999 V2000
   -1.2330   21.0090  -29.4810 C   0  0  0  0  0  0  0  0  0  0  0  0
   -1.5200   22.4440  -29.1520 C   0  0  0  0  0  0  0  0  0  0  0  0
   -0.8230   23.0840  -28.1160 C   0  0  0  0  0  0  0  0  0  0  0  0
   -1.0580   24.4330  -27.8400 C   0  0  0  0  0  0  0  0  0  0  0  0
   -1.9870   25.1530  -28.5960 C   0  0  0  0  0  0  0  0  0  0  0  0
   -2.6980   24.5200  -29.6280 C   0  0  0  0  0  0  0  0  0  0  0  0
   -3.6280   25.2430  -30.4430 N   0  0  0  0  0  0  0  0  0  0  0  0
   -5.0480   25.0460  -30.4790 C   0  0  0  0  0  0  0  0  0  0  0  0
   -5.7920   26.0350  -30.7080 O   0  0  0  0  0  0  0  0  0  0  0  0
   -5.6710   23.6740  -30.3790 C   0  0  0  0  0  0  0  0  0  0  0  0
   -7.1370   23.7330  -30.4110 N   0  0  0  0  0  0  0  0  0  0  0  0
   -7.7640   23.2420  -31.9620 S   0  0  0  0  0  0  0  0  0  0  0  0
   -9.1770   23.7350  -32.1060 O   0  0  0  0  0  0  0  0  0  0  0  0
   -6.9210   23.8030  -33.0730 O   0  0  0  0  0  0  0  0  0  0  0  0
   -7.7430   21.4860  -32.0620 C   0  0  0  0  0  0  0  0  0  0  0  0
   -6.6840   20.8310  -32.7080 C   0  0  0  0  0  0  0  0  0  0  0  0
   -6.6710   19.4360  -32.7970 C   0  0  0  0  0  0  0  0  0  0  0  0
   -7.7160   18.6890  -32.2460 C   0  0  0  0  0  0  0  0  0  0  0  0
   -8.7780   19.3370  -31.6070 C   0  0  0  0  0  0  0  0  0  0  0  0
   -8.7940   20.7320  -31.5170 C   0  0  0  0  0  0  0  0  0  0  0  0
   -2.4380   23.1750  -29.9210 C   0  0  0  0  0  0  0  0  0  0  0  0
   -1.1182   20.4352  -28.5496 H   0  0  0  0  0  0  0  0  0  0  0  0
   -2.0659   20.5936  -30.0673 H   0  0  0  0  0  0  0  0  0  0  0  0
   -0.3044   20.9459  -30.0673 H   0  0  0  0  0  0  0  0  0  0  0  0
   -0.0894   22.5218  -27.5195 H   0  0  0  0  0  0  0  0  0  0  0  0
   -0.5104   24.9298  -27.0255 H   0  0  0  0  0  0  0  0  0  0  0  0
   -2.1615   26.2178  -28.3821 H   0  0  0  0  0  0  0  0  0  0  0  0
   -5.3215   23.0627  -31.2241 H   0  0  0  0  0  0  0  0  0  0  0  0
   -5.3693   23.2328  -29.4176 H   0  0  0  0  0  0  0  0  0  0  0  0
   -7.4570   24.7110  -30.2240 H   0  0  0  0  0  0  0  0  0  0  0  0
   -5.8619   21.4164  -33.1455 H   0  0  0  0  0  0  0  0  0  0  0  0
   -5.8373   18.9255  -33.3013 H   0  0  0  0  0  0  0  0  0  0  0  0
   -7.7031   17.5912  -32.3150 H   0  0  0  0  0  0  0  0  0  0  0  0
   -9.6010   18.7488  -31.1751 H   0  0  0  0  0  0  0  0  0  0  0  0
   -9.6323   21.2400  -31.0178 H   0  0  0  0  0  0  0  0  0  0  0  0
   -2.9572   22.6886  -30.7599 H   0  0  0  0  0  0  0  0  0  0  0  0
  1  2  1  0
  2  3  2  0
  3  4  1  0
  4  5  2  0
  5  6  1  0
  6  7  1  0
  7  8  1  0
  8  9  2  0
  8 10  1  0
 10 11  1  0
 11 12  1  0
 12 13  2  0
 12 14  2  0
 12 15  1  0
 15 16  2  0
 16 17  1  0
 17 18  2  0
 18 19  1  0
 19 20  2  0
  6 21  2  0
 21  2  1  0
 20 15  1  0
  1 22  1  0
  1 23  1  0
  1 24  1  0
  3 25  1  0
  4 26  1  0
  5 27  1  0
 10 28  1  0
 10 29  1  0
 11 30  1  0
 16 31  1  0
 17 32  1  0
 18 33  1  0
 19 34  1  0
 20 35  1  0
 21 36  1  0
M  CHG  1   7  -1
M  END
>  <UniqueID>  (19) 
19

>  <SMILES>  (19) 
Cc1cccc([N-]C(=O)CNS(=O)(=O)c2ccccc2)c1

>  <Energy>  (19) 
39.555752177068015

>  <Genealogy>  (19) 
Cc1cccc([N-]C(=O)CNS(=O)(=O)c2ccccc2)c1 (protonated)
Cc1cccc([N-]C(=O)CNS(=O)(=O)c2ccccc2)c1 (3D coordinates assigned)
Cc1cccc([N-]C(=O)CNS(=O)(=O)c2ccccc2)c1 (optimized conformer: 39.555752177068015 kcal/mol)

>  <smiles>  (19) 
Cc1cccc(NC(=O)CNS(=O)(=O)c2ccccc2)c1

>  <score_type>  (19) 
oracle

>  <origin>  (19) 
adgpu

>  <m_score__min__energy>  (19) 
-10.06

>  <m_primary>  (19) 
energy

$$$$
19:0
     RDKit          3D

 35 38  0  0  0  0  0  0  0  0999 V2000
   -4.2380   25.6630  -30.4700 O   0  0  0  0  0  0  0  0  0  0  0  0
   -4.9580   24.6990  -30.8400 C   0  0  0  0  0  0  0  0  0  0  0  0
   -6.3650   24.7790  -30.7030 C   0  0  0  0  0  0  0  0  0  0  0  0
   -7.1710   23.6980  -31.1010 C   0  0  0  0  0  0  0  0  0  0  0  0
   -6.5290   22.5870  -31.6340 C   0  0  0  0  0  0  0  0  0  0  0  0
   -7.0710   21.4240  -32.0310 N   0  0  0  0  0  0  0  0  0  0  0  0
   -5.9890   20.6920  -32.4180 C   0  0  0  0  0  0  0  0  0  0  0  0
   -6.1250   19.3230  -32.9610 C   0  0  0  0  0  0  0  0  0  0  0  0
   -5.6200   18.9930  -34.2320 C   0  0  0  0  0  0  0  0  0  0  0  0
   -5.7670   17.6960  -34.7340 C   0  0  0  0  0  0  0  0  0  0  0  0
   -6.4310   16.7240  -33.9810 C   0  0  0  0  0  0  0  0  0  0  0  0
   -6.9550   17.0490  -32.7270 C   0  0  0  0  0  0  0  0  0  0  0  0
   -6.8090   18.3440  -32.2220 C   0  0  0  0  0  0  0  0  0  0  0  0
   -4.8060   21.3600  -32.2660 N   0  0  0  0  0  0  0  0  0  0  0  0
   -3.4660   20.8700  -32.4440 C   0  0  0  0  0  0  0  0  0  0  0  0
   -2.6990   20.4920  -31.3300 C   0  0  0  0  0  0  0  0  0  0  0  0
   -1.3910   20.0280  -31.5030 C   0  0  0  0  0  0  0  0  0  0  0  0
   -0.8430   19.9400  -32.7850 C   0  0  0  0  0  0  0  0  0  0  0  0
   -1.6020   20.3150  -33.8980 C   0  0  0  0  0  0  0  0  0  0  0  0
   -2.9100   20.7790  -33.7290 C   0  0  0  0  0  0  0  0  0  0  0  0
   -5.1770   22.5520  -31.7710 C   0  0  0  0  0  0  0  0  0  0  0  0
   -4.3770   23.5760  -31.3670 N   0  0  0  0  0  0  0  0  0  0  0  0
   -6.8269   25.6859  -30.2856 H   0  0  0  0  0  0  0  0  0  0  0  0
   -8.2654   23.7305  -30.9948 H   0  0  0  0  0  0  0  0  0  0  0  0
   -5.1074   19.7583  -34.8334 H   0  0  0  0  0  0  0  0  0  0  0  0
   -5.3593   17.4406  -35.7232 H   0  0  0  0  0  0  0  0  0  0  0  0
   -6.5412   15.7031  -34.3754 H   0  0  0  0  0  0  0  0  0  0  0  0
   -7.4827   16.2852  -32.1370 H   0  0  0  0  0  0  0  0  0  0  0  0
   -7.2326   18.5981  -31.2392 H   0  0  0  0  0  0  0  0  0  0  0  0
   -3.1278   20.5610  -30.3194 H   0  0  0  0  0  0  0  0  0  0  0  0
   -0.7930   19.7320  -30.6285 H   0  0  0  0  0  0  0  0  0  0  0  0
    0.1862   19.5755  -32.9190 H   0  0  0  0  0  0  0  0  0  0  0  0
   -1.1697   20.2449  -34.9071 H   0  0  0  0  0  0  0  0  0  0  0  0
   -3.5050   21.0736  -34.6061 H   0  0  0  0  0  0  0  0  0  0  0  0
   -3.3380   23.5090  -31.4460 H   0  0  0  0  0  0  0  0  0  0  0  0
  1  2  2  0
  2  3  1  0
  3  4  2  0
  4  5  1  0
  5  6  1  0
  6  7  2  0
  7  8  1  0
  8  9  2  0
  9 10  1  0
 10 11  2  0
 11 12  1  0
 12 13  2  0
  7 14  1  0
 14 15  1  0
 15 16  2  0
 16 17  1  0
 17 18  2  0
 18 19  1  0
 19 20  2  0
 14 21  1  0
 21 22  1  0
 22  2  1  0
 21  5  2  0
 13  8  1  0
 20 15  1  0
  3 23  1  0
  4 24  1  0
  9 25  1  0
 10 26  1  0
 11 27  1  0
 12 28  1  0
 13 29  1  0
 16 30  1  0
 17 31  1  0
 18 32  1  0
 19 33  1  0
 20 34  1  0
 22 35  1  0
M  END
>  <UniqueID>  (20) 
20

>  <SMILES>  (20) 
O=c1ccc2nc(-c3ccccc3)n(-c3ccccc3)c2[nH]1

>  <Energy>  (20) 
88.93505044943457

>  <Genealogy>  (20) 
O=c1ccc2nc(-c3ccccc3)n(-c3ccccc3)c2[nH]1 (3D coordinates assigned)
O=c1ccc2nc(-c3ccccc3)n(-c3ccccc3)c2[nH]1 (optimized conformer: 88.93505044943457 kcal/mol)

>  <smiles>  (20) 
O=c1ccc2nc(-c3ccccc3)n(-c3ccccc3)c2[nH]1

>  <score_type>  (20) 
oracle

>  <origin>  (20) 
adgpu

>  <m_score__min__energy>  (20) 
-8.0600000000000005

>  <m_primary>  (20) 
energy

$$$$
20:0
     RDKit          3D

 36 38  0  0  1  0  0  0  0  0999 V2000
   -4.4910   23.3130  -29.1660 C   0  0  0  0  0  0  0  0  0  0  0  0
   -4.1190   23.9780  -30.4560 C   0  0  0  0  0  0  0  0  0  0  0  0
   -4.7440   25.0100  -30.8450 O   0  0  0  0  0  0  0  0  0  0  0  0
   -3.0560   23.3950  -31.1910 N   0  0  0  0  0  0  0  0  0  0  0  0
   -3.2980   22.3340  -31.8960 C   0  0  0  0  0  0  0  0  0  0  0  0
   -4.5800   21.7730  -31.9350 C   0  0  0  0  0  0  0  0  0  0  0  0
   -4.8480   20.6290  -32.6940 C   0  0  0  0  0  0  0  0  0  0  0  0
   -6.1770   20.0890  -32.6310 C   0  0  0  0  0  0  0  0  0  0  0  0
   -7.2530   20.9220  -32.2880 C   0  0  0  0  0  0  0  0  0  0  0  0
   -8.5460   20.4580  -32.1720 C   0  0  0  0  0  0  0  0  0  0  0  0
   -9.8540   21.5370  -31.7420 Cl  0  0  0  0  0  0  0  0  0  0  0  0
   -8.8640   19.1360  -32.3860 C   0  0  0  0  0  0  0  0  0  0  0  0
   -7.8260   18.3010  -32.7220 C   0  0  0  0  0  0  0  0  0  0  0  0
   -6.5170   18.7650  -32.8400 C   0  0  0  0  0  0  0  0  0  0  0  0
   -5.3330   17.5300  -33.2320 Cl  0  0  0  0  0  0  0  0  0  0  0  0
   -3.8050   20.1300  -33.3620 N   0  0  0  0  0  0  0  0  0  0  0  0
   -2.5570   20.6500  -33.3440 C   0  0  0  0  0  0  0  0  0  0  0  0
   -1.4530   20.0820  -34.0770 C   0  0  0  0  0  0  0  0  0  0  0  0
   -1.2440   18.7310  -34.2600 C   0  0  0  0  0  0  0  0  0  0  0  0
   -0.1570   18.2500  -34.9800 C   0  0  0  0  0  0  0  0  0  0  0  0
    0.7560   19.1170  -35.5410 C   0  0  0  0  0  0  0  0  0  0  0  0
    0.5430   20.4460  -35.3560 N   0  0  0  0  0  0  0  0  0  0  0  0
   -0.5010   20.9180  -34.6640 C   0  0  0  0  0  0  0  0  0  0  0  0
   -2.3240   21.7490  -32.6060 N   0  0  0  0  0  0  0  0  0  0  0  0
   -4.1461   23.9296  -28.3229 H   0  0  0  0  0  0  0  0  0  0  0  0
   -5.5838   23.1991  -29.1140 H   0  0  0  0  0  0  0  0  0  0  0  0
   -4.0162   22.3221  -29.1140 H   0  0  0  0  0  0  0  0  0  0  0  0
   -5.3916   22.2405  -31.3581 H   0  0  0  0  0  0  0  0  0  0  0  0
   -7.0567   21.9886  -32.1042 H   0  0  0  0  0  0  0  0  0  0  0  0
   -9.8961   18.7670  -32.2928 H   0  0  0  0  0  0  0  0  0  0  0  0
   -8.0339   17.2361  -32.9030 H   0  0  0  0  0  0  0  0  0  0  0  0
   -3.9250   19.3030  -33.9640 H   0  0  0  0  0  0  0  0  0  0  0  0
   -1.9567   18.0152  -33.8244 H   0  0  0  0  0  0  0  0  0  0  0  0
   -0.0237   17.1651  -35.1036 H   0  0  0  0  0  0  0  0  0  0  0  0
    1.6199   18.7487  -36.1138 H   0  0  0  0  0  0  0  0  0  0  0  0
   -0.6134   22.0066  -34.5534 H   0  0  0  0  0  0  0  0  0  0  0  0
  1  2  1  0
  2  3  2  0
  2  4  1  0
  4  5  2  0
  5  6  1  0
  6  7  2  0
  7  8  1  0
  8  9  2  0
  9 10  1  0
 10 11  1  0
 10 12  2  0
 12 13  1  0
 13 14  2  0
 14 15  1  0
  7 16  1  0
 16 17  1  0
 17 18  1  0
 18 19  2  0
 19 20  1  0
 20 21  2  0
 21 22  1  0
 22 23  2  0
 17 24  2  0
 24  5  1  0
 14  8  1  0
 23 18  1  0
  1 25  1  0
  1 26  1  0
  1 27  1  0
  6 28  1  0
  9 29  1  0
 12 30  1  0
 13 31  1  0
 16 32  1  0
 19 33  1  0
 20 34  1  0
 21 35  1  0
 23 36  1  0
M  END
>  <smiles>  (21) 
CC(=O)N=c1cc(-c2cc(Cl)ccc2Cl)[nH]c(-c2cccnc2)n1

>  <score_type>  (21) 
oracle

>  <origin>  (21) 
adgpu

>  <m_score__min__energy>  (21) 
-8.5700000000000003

>  <m_primary>  (21) 
energy

$$$$
21:0
     RDKit          3D

 33 35  0  0  0  0  0  0  0  0999 V2000
   -0.5100   20.9500  -33.2180 C   0  0  0  0  0  0  0  0  0  0  0  0
   -1.5580   19.8830  -34.2540 S   0  0  0  0  0  0  0  0  0  0  0  0
   -3.0700   20.3970  -33.4450 C   0  0  0  0  0  0  0  0  0  0  0  0
   -4.1790   19.6310  -33.3960 N   0  0  0  0  0  0  0  0  0  0  0  0
   -5.0620   20.3740  -32.6960 C   0  0  0  0  0  0  0  0  0  0  0  0
   -6.4560   19.9420  -32.4570 C   0  0  0  0  0  0  0  0  0  0  0  0
   -6.7290   18.5930  -32.1800 C   0  0  0  0  0  0  0  0  0  0  0  0
   -8.0450   18.1680  -31.9690 C   0  0  0  0  0  0  0  0  0  0  0  0
   -9.0970   19.0830  -32.0470 C   0  0  0  0  0  0  0  0  0  0  0  0
   -8.8370   20.4230  -32.3440 C   0  0  0  0  0  0  0  0  0  0  0  0
   -7.5240   20.8530  -32.5560 C   0  0  0  0  0  0  0  0  0  0  0  0
   -4.4600   21.5730  -32.3260 C   0  0  0  0  0  0  0  0  0  0  0  0
   -4.9990   22.6420  -31.4590 C   0  0  0  0  0  0  0  0  0  0  0  0
   -4.5260   22.8140  -30.1460 C   0  0  0  0  0  0  0  0  0  0  0  0
   -5.0350   23.8380  -29.3420 C   0  0  0  0  0  0  0  0  0  0  0  0
   -6.0080   24.7070  -29.8440 C   0  0  0  0  0  0  0  0  0  0  0  0
   -6.4990   25.7000  -29.0620 F   0  0  0  0  0  0  0  0  0  0  0  0
   -6.4690   24.5540  -31.1540 C   0  0  0  0  0  0  0  0  0  0  0  0
   -5.9640   23.5310  -31.9620 C   0  0  0  0  0  0  0  0  0  0  0  0
   -3.2080   21.5780  -32.8160 N   0  0  0  0  0  0  0  0  0  0  0  0
   -0.7126   20.7437  -32.1567 H   0  0  0  0  0  0  0  0  0  0  0  0
    0.5489   20.7463  -33.4355 H   0  0  0  0  0  0  0  0  0  0  0  0
   -0.7326   22.0051  -33.4355 H   0  0  0  0  0  0  0  0  0  0  0  0
   -5.9043   17.8669  -32.1286 H   0  0  0  0  0  0  0  0  0  0  0  0
   -8.2514   17.1118  -31.7414 H   0  0  0  0  0  0  0  0  0  0  0  0
  -10.1306   18.7485  -31.8745 H   0  0  0  0  0  0  0  0  0  0  0  0
   -9.6673   21.1413  -32.4112 H   0  0  0  0  0  0  0  0  0  0  0  0
   -7.3249   21.9067  -32.8010 H   0  0  0  0  0  0  0  0  0  0  0  0
   -3.7522   22.1399  -29.7499 H   0  0  0  0  0  0  0  0  0  0  0  0
   -4.6690   23.9602  -28.3119 H   0  0  0  0  0  0  0  0  0  0  0  0
   -7.2315   25.2404  -31.5508 H   0  0  0  0  0  0  0  0  0  0  0  0
   -6.3236   23.4215  -32.9958 H   0  0  0  0  0  0  0  0  0  0  0  0
   -2.4790   22.3150  -32.6950 H   0  0  0  0  0  0  0  0  0  0  0  0
  1  2  1  0
  2  3  1  0
  3  4  2  0
  4  5  1  0
  5  6  1  0
  6  7  2  0
  7  8  1  0
  8  9  2  0
  9 10  1  0
 10 11  2  0
  5 12  2  0
 12 13  1  0
 13 14  2  0
 14 15  1  0
 15 16  2  0
 16 17  1  0
 16 18  1  0
 18 19  2  0
 12 20  1  0
 20  3  1  0
 11  6  1  0
 19 13  1  0
  1 21  1  0
  1 22  1  0
  1 23  1  0
  7 24  1  0
  8 25  1  0
  9 26  1  0
 10 27  1  0
 11 28  1  0
 14 29  1  0
 15 30  1  0
 18 31  1  0
 19 32  1  0
 20 33  1  0
M  END
>  <UniqueID>  (22) 
21

>  <SMILES>  (22) 
CSc1nc(-c2ccccc2)c(-c2ccc(F)cc2)[nH]1

>  <Energy>  (22) 
68.17740390120943

>  <Genealogy>  (22) 
CSc1nc(-c2ccccc2)c(-c2ccc(F)cc2)[nH]1 (3D coordinates assigned)
CSc1nc(-c2ccccc2)c(-c2ccc(F)cc2)[nH]1 (optimized conformer: 68.17740390120943 kcal/mol)

>  <smiles>  (22) 
CSc1nc(-c2ccccc2)c(-c2ccc(F)cc2)[nH]1

>  <score_type>  (22) 
oracle

>  <origin>  (22) 
adgpu

>  <m_score__min__energy>  (22) 
-7.1200000000000001

>  <m_primary>  (22) 
energy

$$$$
22:0
     RDKit          3D

 26 27  0  0  0  0  0  0  0  0999 V2000
   -1.7530   19.3100  -27.5090 N   0  0  0  0  0  0  0  0  0  0  0  0
   -1.9750   20.6440  -27.9740 C   0  0  0  0  0  0  0  0  0  0  0  0
   -3.1070   21.3590  -27.5670 C   0  0  0  0  0  0  0  0  0  0  0  0
   -3.3140   22.6590  -28.0280 C   0  0  0  0  0  0  0  0  0  0  0  0
   -2.3730   23.2460  -28.8910 C   0  0  0  0  0  0  0  0  0  0  0  0
   -2.5520   24.6160  -29.4140 C   0  0  0  0  0  0  0  0  0  0  0  0
   -1.8350   25.5430  -28.9550 O   0  0  0  0  0  0  0  0  0  0  0  0
   -3.4860   24.9220  -30.4600 N   0  0  0  0  0  0  0  0  0  0  0  0
   -4.7270   24.2460  -30.7100 C   0  0  0  0  0  0  0  0  0  0  0  0
   -5.9560   24.7770  -30.2790 C   0  0  0  0  0  0  0  0  0  0  0  0
   -7.1470   24.1000  -30.5520 C   0  0  0  0  0  0  0  0  0  0  0  0
   -7.1280   22.8990  -31.2690 C   0  0  0  0  0  0  0  0  0  0  0  0
   -8.6490   22.0770  -31.5930 Cl  0  0  0  0  0  0  0  0  0  0  0  0
   -5.9070   22.3770  -31.7220 C   0  0  0  0  0  0  0  0  0  0  0  0
   -5.8390   20.8770  -32.6370 Cl  0  0  0  0  0  0  0  0  0  0  0  0
   -4.7140   23.0570  -31.4470 C   0  0  0  0  0  0  0  0  0  0  0  0
   -1.2890   22.5220  -29.2840 N   0  0  0  0  0  0  0  0  0  0  0  0
   -1.0690   21.2520  -28.8490 C   0  0  0  0  0  0  0  0  0  0  0  0
   -1.7660   19.0920  -26.4870 H   0  0  0  0  0  0  0  0  0  0  0  0
   -1.5750   18.5320  -28.1820 H   0  0  0  0  0  0  0  0  0  0  0  0
   -3.8337   20.8957  -26.8834 H   0  0  0  0  0  0  0  0  0  0  0  0
   -4.2075   23.2208  -27.7182 H   0  0  0  0  0  0  0  0  0  0  0  0
   -5.9794   25.7275  -29.7257 H   0  0  0  0  0  0  0  0  0  0  0  0
   -8.1043   24.5132  -30.2015 H   0  0  0  0  0  0  0  0  0  0  0  0
   -3.7588   22.6529  -31.8135 H   0  0  0  0  0  0  0  0  0  0  0  0
   -0.1775   20.7026  -29.1858 H   0  0  0  0  0  0  0  0  0  0  0  0
  1  2  1  0
  2  3  2  0
  3  4  1  0
  4  5  2  0
  5  6  1  0
  6  7  2  0
  6  8  1  0
  8  9  1  0
  9 10  2  0
 10 11  1  0
 11 12  2  0
 12 13  1  0
 12 14  1  0
 14 15  1  0
 14 16  2  0
  5 17  1  0
 17 18  2  0
 18  2  1  0
 16  9  1  0
  1 19  1  0
  1 20  1  0
  3 21  1  0
  4 22  1  0
 10 23  1  0
 11 24  1  0
 16 25  1  0
 18 26  1  0
M  CHG  1   8  -1
M  END
>  <UniqueID>  (23) 
22

>  <SMILES>  (23) 
Nc1ccc(C(=O)[N-]c2ccc(Cl)c(Cl)c2)nc1

>  <Energy>  (23) 
33.62155914821746

>  <Genealogy>  (23) 
Nc1ccc(C(=O)[N-]c2ccc(Cl)c(Cl)c2)nc1 (protonated)
Nc1ccc(C(=O)[N-]c2ccc(Cl)c(Cl)c2)nc1 (3D coordinates assigned)
Nc1ccc(C(=O)[N-]c2ccc(Cl)c(Cl)c2)nc1 (optimized conformer: 33.62155914821746 kcal/mol)

>  <smiles>  (23) 
Nc1ccc(C(=O)Nc2ccc(Cl)c(Cl)c2)nc1

>  <score_type>  (23) 
oracle

>  <origin>  (23) 
adgpu

>  <m_score__min__energy>  (23) 
-8.5

>  <m_primary>  (23) 
energy

$$$$
23:0
     RDKit          3D

 42 43  0  0  0  0  0  0  0  0999 V2000
   -1.4950   17.1620  -33.8700 C   0  0  0  0  0  0  0  0  0  0  0  0
   -2.6750   17.4900  -34.6640 N   0  0  0  0  0  0  0  0  0  0  0  0
   -3.7970   18.2340  -34.1520 C   0  0  0  0  0  0  0  0  0  0  0  0
   -5.0660   18.1610  -34.7490 C   0  0  0  0  0  0  0  0  0  0  0  0
   -6.1330   18.8930  -34.2310 C   0  0  0  0  0  0  0  0  0  0  0  0
   -5.9590   19.7150  -33.1060 C   0  0  0  0  0  0  0  0  0  0  0  0
   -7.1140   20.4850  -32.5840 C   0  0  0  0  0  0  0  0  0  0  0  0
   -8.3550   19.8530  -32.3850 C   0  0  0  0  0  0  0  0  0  0  0  0
   -9.4460   20.5780  -31.8980 C   0  0  0  0  0  0  0  0  0  0  0  0
   -9.3110   21.9390  -31.6100 C   0  0  0  0  0  0  0  0  0  0  0  0
   -8.0850   22.5780  -31.8120 C   0  0  0  0  0  0  0  0  0  0  0  0
   -6.9910   21.8560  -32.2990 C   0  0  0  0  0  0  0  0  0  0  0  0
   -4.6950   19.7860  -32.4830 C   0  0  0  0  0  0  0  0  0  0  0  0
   -4.5560   20.5830  -31.3310 O   0  0  0  0  0  0  0  0  0  0  0  0
   -3.3340   21.0550  -30.7610 C   0  0  0  0  0  0  0  0  0  0  0  0
   -3.4310   22.5340  -30.3740 C   0  0  0  0  0  0  0  0  0  0  0  0
   -4.8050   22.8930  -30.0170 N   0  0  0  0  0  0  0  0  0  0  0  0
   -5.1500   24.5200  -30.5220 S   0  0  0  0  0  0  0  0  0  0  0  0
   -6.3050   25.2950  -29.4100 C   0  0  0  0  0  0  0  0  0  0  0  0
   -3.8720   25.3110  -30.5210 O   0  0  0  0  0  0  0  0  0  0  0  0
   -5.7200   24.5130  -31.9130 O   0  0  0  0  0  0  0  0  0  0  0  0
   -3.6200   19.0490  -33.0240 C   0  0  0  0  0  0  0  0  0  0  0  0
   -1.7421   17.2307  -32.8003 H   0  0  0  0  0  0  0  0  0  0  0  0
   -1.1673   16.1387  -34.1056 H   0  0  0  0  0  0  0  0  0  0  0  0
   -0.6863   17.8694  -34.1056 H   0  0  0  0  0  0  0  0  0  0  0  0
   -2.6950   17.1630  -35.6560 H   0  0  0  0  0  0  0  0  0  0  0  0
   -5.2189   17.5220  -35.6312 H   0  0  0  0  0  0  0  0  0  0  0  0
   -7.1217   18.8261  -34.7085 H   0  0  0  0  0  0  0  0  0  0  0  0
   -8.4672   18.7829  -32.6138 H   0  0  0  0  0  0  0  0  0  0  0  0
  -10.4125   20.0767  -31.7411 H   0  0  0  0  0  0  0  0  0  0  0  0
  -10.1702   22.5072  -31.2242 H   0  0  0  0  0  0  0  0  0  0  0  0
   -7.9803   23.6498  -31.5878 H   0  0  0  0  0  0  0  0  0  0  0  0
   -6.0286   22.3638  -32.4600 H   0  0  0  0  0  0  0  0  0  0  0  0
   -3.1072   20.4640  -29.8614 H   0  0  0  0  0  0  0  0  0  0  0  0
   -2.5374   20.9456  -31.5117 H   0  0  0  0  0  0  0  0  0  0  0  0
   -2.7739   22.7245  -29.5127 H   0  0  0  0  0  0  0  0  0  0  0  0
   -3.1219   23.1433  -31.2361 H   0  0  0  0  0  0  0  0  0  0  0  0
   -5.4540   22.2770  -30.5600 H   0  0  0  0  0  0  0  0  0  0  0  0
   -6.0051   25.0937  -28.3710 H   0  0  0  0  0  0  0  0  0  0  0  0
   -6.3113   26.3808  -29.5861 H   0  0  0  0  0  0  0  0  0  0  0  0
   -7.3121   24.8892  -29.5861 H   0  0  0  0  0  0  0  0  0  0  0  0
   -2.6277   19.1146  -32.5538 H   0  0  0  0  0  0  0  0  0  0  0  0
  1  2  1  0
  2  3  1  0
  3  4  2  0
  4  5  1  0
  5  6  2  0
  6  7  1  0
  7  8  2  0
  8  9  1  0
  9 10  2  0
 10 11  1  0
 11 12  2  0
  6 13  1  0
 13 14  1  0
 14 15  1  0
 15 16  1  0
 16 17  1  0
 17 18  1  0
 18 19  1  0
 18 20  2  0
 18 21  2  0
 13 22  2  0
 22  3  1  0
 12  7  1  0
  1 23  1  0
  1 24  1  0
  1 25  1  0
  2 26  1  0
  4 27  1  0
  5 28  1  0
  8 29  1  0
  9 30  1  0
 10 31  1  0
 11 32  1  0
 12 33  1  0
 15 34  1  0
 15 35  1  0
 16 36  1  0
 16 37  1  0
 17 38  1  0
 19 39  1  0
 19 40  1  0
 19 41  1  0
 22 42  1  0
M  END
>  <UniqueID>  (24) 
23

>  <SMILES>  (24) 
CNc1ccc(-c2ccccc2)c(OCCNS(C)(=O)=O)c1

>  <Energy>  (24) 
39.74573686540015

>  <Genealogy>  (24) 
CNc1ccc(-c2ccccc2)c(OCCNS(C)(=O)=O)c1 (3D coordinates assigned)
CNc1ccc(-c2ccccc2)c(OCCNS(C)(=O)=O)c1 (optimized conformer: 39.74573686540015 kcal/mol)

>  <smiles>  (24) 
CNc1ccc(-c2ccccc2)c(OCCNS(C)(=O)=O)c1

>  <score_type>  (24) 
oracle

>  <origin>  (24) 
adgpu

>  <m_score__min__energy>  (24) 
-8.2599999999999998

>  <m_primary>  (24) 
energy

$$$$
24:0
     RDKit          3D

 25 26  0  0  0  0  0  0  0  0999 V2000
   -3.8830   25.3090  -30.6710 N   0  0  0  0  0  0  0  0  0  0  0  0
   -5.2920   25.1150  -30.5660 C   0  0  0  0  0  0  0  0  0  0  0  0
   -5.9890   25.9860  -29.9800 O   0  0  0  0  0  0  0  0  0  0  0  0
   -5.9300   23.9060  -31.1390 C   0  0  0  0  0  0  0  0  0  0  0  0
   -7.3230   23.7260  -31.0630 C   0  0  0  0  0  0  0  0  0  0  0  0
   -7.9210   22.5900  -31.6130 C   0  0  0  0  0  0  0  0  0  0  0  0
   -7.1390   21.6180  -32.2410 C   0  0  0  0  0  0  0  0  0  0  0  0
   -5.7480   21.7700  -32.3130 C   0  0  0  0  0  0  0  0  0  0  0  0
   -4.9110   20.7450  -33.0280 C   0  0  0  0  0  0  0  0  0  0  0  0
   -5.6070   19.4620  -33.0490 N   0  0  0  0  0  0  0  0  0  0  0  0
   -5.8410   18.6530  -32.0040 C   0  0  0  0  0  0  0  0  0  0  0  0
   -6.4490   17.5140  -32.4810 C   0  0  0  0  0  0  0  0  0  0  0  0
   -6.5830   17.6000  -33.8210 N   0  0  0  0  0  0  0  0  0  0  0  0
   -6.0530   18.8020  -34.1340 C   0  0  0  0  0  0  0  0  0  0  0  0
   -5.1490   22.9200  -31.7740 C   0  0  0  0  0  0  0  0  0  0  0  0
   -3.4880   26.0550  -31.2870 H   0  0  0  0  0  0  0  0  0  0  0  0
   -7.9456   24.4852  -30.5670 H   0  0  0  0  0  0  0  0  0  0  0  0
   -9.0116   22.4604  -31.5514 H   0  0  0  0  0  0  0  0  0  0  0  0
   -7.6168   20.7301  -32.6806 H   0  0  0  0  0  0  0  0  0  0  0  0
   -4.7294   21.0783  -34.0604 H   0  0  0  0  0  0  0  0  0  0  0  0
   -3.9526   20.6285  -32.5008 H   0  0  0  0  0  0  0  0  0  0  0  0
   -5.5914   18.8628  -30.9535 H   0  0  0  0  0  0  0  0  0  0  0  0
   -6.7757   16.6637  -31.8643 H   0  0  0  0  0  0  0  0  0  0  0  0
   -5.9926   19.1968  -35.1589 H   0  0  0  0  0  0  0  0  0  0  0  0
   -4.0595   23.0524  -31.8482 H   0  0  0  0  0  0  0  0  0  0  0  0
  1  2  1  0
  2  3  2  0
  2  4  1  0
  4  5  2  0
  5  6  1  0
  6  7  2  0
  7  8  1  0
  8  9  1  0
  9 10  1  0
 10 11  1  0
 11 12  2  0
 12 13  1  0
 13 14  2  0
  8 15  2  0
 15  4  1  0
 14 10  1  0
  1 16  1  0
  5 17  1  0
  6 18  1  0
  7 19  1  0
  9 20  1  0
  9 21  1  0
 11 22  1  0
 12 23  1  0
 14 24  1  0
 15 25  1  0
M  CHG  1   1  -1
M  END
>  <UniqueID>  (25) 
24

>  <SMILES>  (25) 
[NH-]C(=O)c1cccc(Cn2ccnc2)c1

>  <Energy>  (25) 
52.95370658491896

>  <Genealogy>  (25) 
[NH-]C(=O)c1cccc(Cn2ccnc2)c1 (protonated)
[NH-]C(=O)c1cccc(Cn2ccnc2)c1 (3D coordinates assigned)
[NH-]C(=O)c1cccc(Cn2ccnc2)c1 (optimized conformer: 52.95370658491896 kcal/mol)

>  <smiles>  (25) 
NC(=O)c1cccc(Cn2ccnc2)c1

>  <score_type>  (25) 
oracle

>  <origin>  (25) 
adgpu

>  <m_score__min__energy>  (25) 
-8.7799999999999994

>  <m_primary>  (25) 
energy

$$$$
25:0
     RDKit          3D

 39 40  0  0  0  0  0  0  0  0999 V2000
   -4.0830   21.8000  -32.9320 C   0  0  0  0  0  0  0  0  0  0  0  0
   -3.8700   22.7140  -31.8630 O   0  0  0  0  0  0  0  0  0  0  0  0
   -4.8880   23.4420  -31.2230 C   0  0  0  0  0  0  0  0  0  0  0  0
   -6.2480   23.0990  -31.3600 C   0  0  0  0  0  0  0  0  0  0  0  0
   -7.2290   23.8080  -30.6610 C   0  0  0  0  0  0  0  0  0  0  0  0
   -6.8670   24.8560  -29.8160 C   0  0  0  0  0  0  0  0  0  0  0  0
   -5.5240   25.2110  -29.6800 C   0  0  0  0  0  0  0  0  0  0  0  0
   -4.5350   24.5350  -30.4050 C   0  0  0  0  0  0  0  0  0  0  0  0
   -3.1680   24.9310  -30.2360 N   0  0  0  0  0  0  0  0  0  0  0  0
   -2.4250   24.8810  -29.0100 C   0  0  0  0  0  0  0  0  0  0  0  0
   -1.6190   25.8120  -28.7530 O   0  0  0  0  0  0  0  0  0  0  0  0
   -2.4890   23.6960  -28.0810 C   0  0  0  0  0  0  0  0  0  0  0  0
   -1.5140   22.5930  -28.5240 C   0  0  2  0  0  0  0  0  0  0  0  0
   -1.5830   22.4010  -29.9760 N   0  0  0  0  0  0  0  0  0  0  0  0
   -0.7520   21.4700  -30.6850 C   0  0  0  0  0  0  0  0  0  0  0  0
   -0.9370   21.2680  -32.1540 C   0  0  0  0  0  0  0  0  0  0  0  0
    0.1120   20.7870  -30.0710 O   0  0  0  0  0  0  0  0  0  0  0  0
   -1.8360   21.2980  -27.8320 C   0  0  0  0  0  0  0  0  0  0  0  0
   -3.0830   20.7080  -27.7350 C   0  0  0  0  0  0  0  0  0  0  0  0
   -2.8910   19.5470  -27.0180 C   0  0  0  0  0  0  0  0  0  0  0  0
   -1.5430   19.4980  -26.7240 C   0  0  0  0  0  0  0  0  0  0  0  0
   -0.9420   20.5550  -27.2210 O   0  0  0  0  0  0  0  0  0  0  0  0
   -4.3148   20.8054  -32.5233 H   0  0  0  0  0  0  0  0  0  0  0  0
   -4.9242   22.1478  -33.5497 H   0  0  0  0  0  0  0  0  0  0  0  0
   -3.1748   21.7401  -33.5497 H   0  0  0  0  0  0  0  0  0  0  0  0
   -6.5390   22.2689  -32.0205 H   0  0  0  0  0  0  0  0  0  0  0  0
   -8.2890   23.5384  -30.7779 H   0  0  0  0  0  0  0  0  0  0  0  0
   -7.6399   25.4032  -29.2563 H   0  0  0  0  0  0  0  0  0  0  0  0
   -5.2407   26.0270  -28.9989 H   0  0  0  0  0  0  0  0  0  0  0  0
   -2.2250   24.0219  -27.0641 H   0  0  0  0  0  0  0  0  0  0  0  0
   -3.5107   23.2891  -28.1032 H   0  0  0  0  0  0  0  0  0  0  0  0
   -0.4958   22.9057  -28.2491 H   0  0  0  0  0  0  0  0  0  0  0  0
   -2.2240   23.0150  -30.5300 H   0  0  0  0  0  0  0  0  0  0  0  0
   -1.6710   20.4666  -32.3243 H   0  0  0  0  0  0  0  0  0  0  0  0
   -1.3004   22.2010  -32.6095 H   0  0  0  0  0  0  0  0  0  0  0  0
    0.0242   20.9878  -32.6095 H   0  0  0  0  0  0  0  0  0  0  0  0
   -4.0309   21.0867  -28.1449 H   0  0  0  0  0  0  0  0  0  0  0  0
   -3.6566   18.8089  -26.7369 H   0  0  0  0  0  0  0  0  0  0  0  0
   -1.0471   18.6950  -26.1589 H   0  0  0  0  0  0  0  0  0  0  0  0
  1  2  1  0
  2  3  1  0
  3  4  2  0
  4  5  1  0
  5  6  2  0
  6  7  1  0
  7  8  2  0
  8  9  1  0
  9 10  1  0
 10 11  2  0
 10 12  1  0
 12 13  1  0
 13 14  1  0
 14 15  1  0
 15 16  1  0
 15 17  2  0
 13 18  1  0
 18 19  2  0
 19 20  1  0
 20 21  2  0
 21 22  1  0
  8  3  1  0
 22 18  1  0
  1 23  1  0
  1 24  1  0
  1 25  1  0
  4 26  1  0
  5 27  1  0
  6 28  1  0
  7 29  1  0
 12 30  1  0
 12 31  1  0
 13 32  1  6
 14 33  1  0
 16 34  1  0
 16 35  1  0
 16 36  1  0
 19 37  1  0
 20 38  1  0
 21 39  1  0
M  CHG  1   9  -1
M  END
>  <UniqueID>  (26) 
25

>  <SMILES>  (26) 
COc1ccccc1[N-]C(=O)C[C@H](NC(C)=O)c1ccco1

>  <Energy>  (26) 
63.03299306522721

>  <Genealogy>  (26) 
COc1ccccc1[N-]C(=O)CC(NC(C)=O)c1ccco1 (protonated)
COc1ccccc1[N-]C(=O)C[C@H](NC(C)=O)c1ccco1 (chirality)
COc1ccccc1[N-]C(=O)C[C@H](NC(C)=O)c1ccco1 (3D coordinates assigned)
COc1ccccc1[N-]C(=O)C[C@H](NC(C)=O)c1ccco1 (optimized conformer: 63.03299306522721 kcal/mol)

>  <smiles>  (26) 
COc1ccccc1NC(=O)CC(NC(C)=O)c1ccco1

>  <score_type>  (26) 
oracle

>  <origin>  (26) 
adgpu

>  <m_score__min__energy>  (26) 
-9.3000000000000007

>  <m_primary>  (26) 
energy

$$$$
26:0
     RDKit          3D

 26 27  0  0  0  0  0  0  0  0999 V2000
   -9.4600   17.8970  -31.6220 C   0  0  0  0  0  0  0  0  0  0  0  0
   -8.5540   19.0600  -31.8990 C   0  0  0  0  0  0  0  0  0  0  0  0
   -9.0430   20.3710  -31.8170 C   0  0  0  0  0  0  0  0  0  0  0  0
   -8.1890   21.4570  -32.0380 C   0  0  0  0  0  0  0  0  0  0  0  0
   -6.8330   21.2450  -32.3440 C   0  0  0  0  0  0  0  0  0  0  0  0
   -5.9310   22.3450  -32.5490 N   0  0  0  0  0  0  0  0  0  0  0  0
   -5.6910   23.3800  -31.5820 C   0  0  0  0  0  0  0  0  0  0  0  0
   -6.7680   24.0390  -30.9800 C   0  0  0  0  0  0  0  0  0  0  0  0
   -6.5040   25.0200  -30.0220 C   0  0  0  0  0  0  0  0  0  0  0  0
   -7.4560   25.6340  -29.4720 O   0  0  0  0  0  0  0  0  0  0  0  0
   -5.2180   25.3120  -29.6840 N   0  0  0  0  0  0  0  0  0  0  0  0
   -4.1810   24.6510  -30.2690 C   0  0  0  0  0  0  0  0  0  0  0  0
   -2.9940   24.9240  -29.9470 O   0  0  0  0  0  0  0  0  0  0  0  0
   -4.4220   23.6940  -31.2030 N   0  0  0  0  0  0  0  0  0  0  0  0
   -6.3400   19.9330  -32.3820 C   0  0  0  0  0  0  0  0  0  0  0  0
   -7.1930   18.8470  -32.1630 C   0  0  0  0  0  0  0  0  0  0  0  0
   -9.5638   17.7638  -30.5350 H   0  0  0  0  0  0  0  0  0  0  0  0
  -10.4488   18.0891  -32.0639 H   0  0  0  0  0  0  0  0  0  0  0  0
   -9.0318   16.9852  -32.0639 H   0  0  0  0  0  0  0  0  0  0  0  0
  -10.1022   20.5467  -31.5780 H   0  0  0  0  0  0  0  0  0  0  0  0
   -8.5807   22.4828  -31.9720 H   0  0  0  0  0  0  0  0  0  0  0  0
   -5.4840   22.4400  -33.4900 H   0  0  0  0  0  0  0  0  0  0  0  0
   -7.8031   23.7892  -31.2560 H   0  0  0  0  0  0  0  0  0  0  0  0
   -5.0250   26.0470  -28.9670 H   0  0  0  0  0  0  0  0  0  0  0  0
   -5.2735   19.7566  -32.5858 H   0  0  0  0  0  0  0  0  0  0  0  0
   -6.7953   17.8220  -32.1979 H   0  0  0  0  0  0  0  0  0  0  0  0
  1  2  1  0
  2  3  2  0
  3  4  1  0
  4  5  2  0
  5  6  1  0
  6  7  1  0
  7  8  2  0
  8  9  1  0
  9 10  2  0
  9 11  1  0
 11 12  1  0
 12 13  2  0
 12 14  1  0
  5 15  1  0
 15 16  2  0
 16  2  1  0
 14  7  1  0
  1 17  1  0
  1 18  1  0
  1 19  1  0
  3 20  1  0
  4 21  1  0
  6 22  1  0
  8 23  1  0
 11 24  1  0
 15 25  1  0
 16 26  1  0
M  CHG  1  14  -1
M  END
>  <UniqueID>  (27) 
26

>  <SMILES>  (27) 
Cc1ccc(Nc2cc(=O)[nH]c(=O)[n-]2)cc1

>  <Energy>  (27) 
30.547515805087137

>  <Genealogy>  (27) 
Cc1ccc(Nc2cc(=O)[nH]c(=O)[n-]2)cc1 (protonated)
Cc1ccc(Nc2cc(=O)[nH]c(=O)[n-]2)cc1 (3D coordinates assigned)
Cc1ccc(Nc2cc(=O)[nH]c(=O)[n-]2)cc1 (optimized conformer: 30.547515805087137 kcal/mol)

>  <smiles>  (27) 
Cc1ccc(Nc2cc(=O)[nH]c(=O)[nH]2)cc1

>  <score_type>  (27) 
oracle

>  <origin>  (27) 
adgpu

>  <m_score__min__energy>  (27) 
-7.9000000000000004

>  <m_primary>  (27) 
energy

$$$$
27:0
     RDKit          3D

 33 35  0  0  0  0  0  0  0  0999 V2000
   -1.5640   21.5890  -27.0940 C   0  0  0  0  0  0  0  0  0  0  0  0
   -2.1010   22.7020  -27.9450 C   0  0  0  0  0  0  0  0  0  0  0  0
   -1.4210   23.9250  -28.0160 C   0  0  0  0  0  0  0  0  0  0  0  0
   -1.8990   24.9540  -28.8380 C   0  0  0  0  0  0  0  0  0  0  0  0
   -1.2060   26.2040  -28.8990 N   0  0  0  0  0  0  0  0  0  0  0  0
   -3.0550   24.7520  -29.6020 C   0  0  0  0  0  0  0  0  0  0  0  0
   -3.7390   23.5250  -29.5580 C   0  0  0  0  0  0  0  0  0  0  0  0
   -4.9560   23.3220  -30.3800 C   0  0  0  0  0  0  0  0  0  0  0  0
   -5.5250   22.1130  -30.5830 N   0  0  0  0  0  0  0  0  0  0  0  0
   -6.6340   22.1750  -31.3740 C   0  0  0  0  0  0  0  0  0  0  0  0
   -7.4090   20.9520  -31.7110 C   0  0  0  0  0  0  0  0  0  0  0  0
   -6.7660   19.6980  -31.7300 C   0  0  0  0  0  0  0  0  0  0  0  0
   -7.4780   18.5370  -32.0470 C   0  0  0  0  0  0  0  0  0  0  0  0
   -8.8390   18.6110  -32.3530 C   0  0  0  0  0  0  0  0  0  0  0  0
   -9.4880   19.8460  -32.3440 C   0  0  0  0  0  0  0  0  0  0  0  0
   -8.7820   21.0110  -32.0270 C   0  0  0  0  0  0  0  0  0  0  0  0
   -6.9600   23.4630  -31.8080 C   0  0  0  0  0  0  0  0  0  0  0  0
   -5.8200   24.5250  -31.1790 S   0  0  0  0  0  0  0  0  0  0  0  0
   -3.2480   22.5000  -28.7280 C   0  0  0  0  0  0  0  0  0  0  0  0
   -1.6884   21.8468  -26.0319 H   0  0  0  0  0  0  0  0  0  0  0  0
   -2.1139   20.6618  -27.3131 H   0  0  0  0  0  0  0  0  0  0  0  0
   -0.4961   21.4424  -27.3131 H   0  0  0  0  0  0  0  0  0  0  0  0
   -0.5071   24.0781  -27.4233 H   0  0  0  0  0  0  0  0  0  0  0  0
   -0.6520   26.5490  -28.0830 H   0  0  0  0  0  0  0  0  0  0  0  0
   -1.2410   26.7940  -29.7600 H   0  0  0  0  0  0  0  0  0  0  0  0
   -3.4318   25.5623  -30.2434 H   0  0  0  0  0  0  0  0  0  0  0  0
   -5.6938   19.6319  -31.4932 H   0  0  0  0  0  0  0  0  0  0  0  0
   -6.9655   17.5637  -32.0554 H   0  0  0  0  0  0  0  0  0  0  0  0
   -9.3983   17.6968  -32.6007 H   0  0  0  0  0  0  0  0  0  0  0  0
  -10.5592   19.9037  -32.5872 H   0  0  0  0  0  0  0  0  0  0  0  0
   -9.3017   21.9805  -32.0242 H   0  0  0  0  0  0  0  0  0  0  0  0
   -7.8125   23.7336  -32.4484 H   0  0  0  0  0  0  0  0  0  0  0  0
   -3.7682   21.5314  -28.6927 H   0  0  0  0  0  0  0  0  0  0  0  0
  1  2  1  0
  2  3  2  0
  3  4  1  0
  4  5  1  0
  4  6  2  0
  6  7  1  0
  7  8  1  0
  8  9  2  0
  9 10  1  0
 10 11  1  0
 11 12  2  0
 12 13  1  0
 13 14  2  0
 14 15  1  0
 15 16  2  0
 10 17  2  0
 17 18  1  0
  7 19  2  0
 19  2  1  0
 18  8  1  0
 16 11  1  0
  1 20  1  0
  1 21  1  0
  1 22  1  0
  3 23  1  0
  5 24  1  0
  5 25  1  0
  6 26  1  0
 12 27  1  0
 13 28  1  0
 14 29  1  0
 15 30  1  0
 16 31  1  0
 17 32  1  0
 19 33  1  0
M  END
>  <UniqueID>  (28) 
27

>  <SMILES>  (28) 
Cc1cc(N)cc(-c2nc(-c3ccccc3)cs2)c1

>  <Energy>  (28) 
66.65060452440933

>  <Genealogy>  (28) 
Cc1cc(N)cc(-c2nc(-c3ccccc3)cs2)c1 (3D coordinates assigned)
Cc1cc(N)cc(-c2nc(-c3ccccc3)cs2)c1 (optimized conformer: 66.65060452440933 kcal/mol)

>  <smiles>  (28) 
Cc1cc(N)cc(-c2nc(-c3ccccc3)cs2)c1

>  <score_type>  (28) 
oracle

>  <origin>  (28) 
adgpu

>  <m_score__min__energy>  (28) 
-7.7300000000000004

>  <m_primary>  (28) 
energy

$$$$
28:0
     RDKit          3D

 37 39  0  0  0  0  0  0  0  0999 V2000
   -4.3020   21.8360  -34.2800 H   0  0  0  0  0  0  0  0  0  0  0  0
   -4.5470   21.1810  -33.5480 O   0  0  0  0  0  0  0  0  0  0  0  0
   -5.6630   21.3800  -32.7380 C   0  0  0  0  0  0  0  0  0  0  0  0
   -6.5200   20.3070  -32.4680 C   0  0  0  0  0  0  0  0  0  0  0  0
   -6.3156   19.3182  -32.9045 H   0  0  0  0  0  0  0  0  0  0  0  0
   -7.6350   20.4890  -31.6450 C   0  0  0  0  0  0  0  0  0  0  0  0
   -8.3016   19.6414  -31.4277 H   0  0  0  0  0  0  0  0  0  0  0  0
   -7.9040   21.7460  -31.0980 C   0  0  0  0  0  0  0  0  0  0  0  0
   -8.7733   21.8814  -30.4377 H   0  0  0  0  0  0  0  0  0  0  0  0
   -7.0680   22.8390  -31.3880 C   0  0  0  0  0  0  0  0  0  0  0  0
   -7.3060   24.1650  -30.7820 C   0  0  0  0  0  0  0  0  0  0  0  0
   -8.3433   24.5302  -30.7552 H   0  0  0  0  0  0  0  0  0  0  0  0
   -6.3590   24.9590  -30.2620 C   0  0  0  0  0  0  0  0  0  0  0  0
   -6.6549   25.9808  -29.9822 H   0  0  0  0  0  0  0  0  0  0  0  0
   -4.9520   24.5750  -30.0340 C   0  0  0  0  0  0  0  0  0  0  0  0
   -3.8770   25.3030  -30.3970 N   0  0  0  0  0  0  0  0  0  0  0  0
   -2.7860   24.6160  -30.0950 N   0  0  0  0  0  0  0  0  0  0  0  0
   -3.1580   23.4420  -29.5520 C   0  0  0  0  0  0  0  0  0  0  0  0
   -2.1870   22.4270  -29.1020 C   0  0  0  0  0  0  0  0  0  0  0  0
   -1.1424   22.7333  -28.9439 H   0  0  0  0  0  0  0  0  0  0  0  0
   -2.5200   21.1480  -28.8770 C   0  0  0  0  0  0  0  0  0  0  0  0
   -3.5677   20.8493  -29.0291 H   0  0  0  0  0  0  0  0  0  0  0  0
   -1.5530   20.1130  -28.4340 C   0  0  0  0  0  0  0  0  0  0  0  0
   -0.2810   20.0800  -29.0330 C   0  0  0  0  0  0  0  0  0  0  0  0
   -0.0237   20.8177  -29.8073 H   0  0  0  0  0  0  0  0  0  0  0  0
    0.6590   19.1180  -28.6530 C   0  0  0  0  0  0  0  0  0  0  0  0
    1.6545   19.1086  -29.1209 H   0  0  0  0  0  0  0  0  0  0  0  0
    0.3370   18.1680  -27.6800 C   0  0  0  0  0  0  0  0  0  0  0  0
    1.2720   17.2120  -27.3030 O   0  0  0  0  0  0  0  0  0  0  0  0
   -0.9290   18.1810  -27.0870 C   0  0  0  0  0  0  0  0  0  0  0  0
   -1.1839   17.4327  -26.3221 H   0  0  0  0  0  0  0  0  0  0  0  0
   -1.8720   19.1420  -27.4630 C   0  0  0  0  0  0  0  0  0  0  0  0
   -2.8691   19.1406  -26.9984 H   0  0  0  0  0  0  0  0  0  0  0  0
   -4.5400   23.3730  -29.5040 C   0  0  0  0  0  0  0  0  0  0  0  0
   -5.1643   22.5486  -29.1291 H   0  0  0  0  0  0  0  0  0  0  0  0
   -5.9330   22.6420  -32.1890 C   0  0  0  0  0  0  0  0  0  0  0  0
   -5.2511   23.4820  -32.3875 H   0  0  0  0  0  0  0  0  0  0  0  0
  1  2  1  0
  2  3  1  0
  3  4  2  0
  4  5  1  0
  4  6  1  0
  6  7  1  0
  6  8  2  0
  8  9  1  0
  8 10  1  0
 10 11  1  0
 11 12  1  0
 11 13  2  0
 13 14  1  0
 13 15  1  0
 15 16  1  0
 16 17  1  0
 17 18  2  0
 18 19  1  0
 19 20  1  0
 19 21  2  0
 21 22  1  0
 21 23  1  0
 23 24  2  0
 24 25  1  0
 24 26  1  0
 26 27  1  0
 26 28  2  0
 28 29  1  0
 28 30  1  0
 30 31  1  0
 30 32  2  0
 32 33  1  0
 18 34  1  0
 34 35  1  0
 10 36  2  0
 36 37  1  0
 36  3  1  0
 34 15  2  0
 32 23  1  0
M  CHG  2  16  -1  29  -1
M  END
>  <UniqueID>  (29) 
28

>  <SMILES>  (29) 
[O-]c1ccc(/C=C/c2cc(/C=C\c3cccc(O)c3)[n-]n2)cc1

>  <Energy>  (29) 
78.26094109278432

>  <Genealogy>  (29) 
[O-]c1ccc(C=Cc2cc(C=Cc3cccc(O)c3)[n-]n2)cc1 (protonated)
[O-]c1ccc(/C=C/c2cc(/C=C\c3cccc(O)c3)[n-]n2)cc1 (cis-trans isomerization)
[O-]c1ccc(/C=C/c2cc(/C=C\c3cccc(O)c3)[n-]n2)cc1 (3D coordinates assigned)
[O-]c1ccc(/C=C/c2cc(/C=C\c3cccc(O)c3)[n-]n2)cc1 (optimized conformer: 78.26094109278432 kcal/mol)

>  <smiles>  (29) 
Oc1ccc(C=Cc2cc(C=Cc3cccc(O)c3)[nH]n2)cc1

>  <score_type>  (29) 
oracle

>  <origin>  (29) 
adgpu

>  <m_score__min__energy>  (29) 
-9.8900000000000006

>  <m_primary>  (29) 
energy

$$$$
29:0
     RDKit          3D

 35 36  0  0  0  0  0  0  0  0999 V2000
   -9.3040   20.7560  -31.8940 C   0  0  0  0  0  0  0  0  0  0  0  0
   -7.8840   21.1250  -31.9870 N   0  0  0  0  0  0  0  0  0  0  0  0
   -7.5540   22.4520  -31.8840 C   0  0  0  0  0  0  0  0  0  0  0  0
   -6.2170   22.8750  -31.9650 C   0  0  0  0  0  0  0  0  0  0  0  0
   -5.8370   24.2240  -31.8770 O   0  0  0  0  0  0  0  0  0  0  0  0
   -5.1840   24.9850  -30.4890 S   0  0  0  0  0  0  0  0  0  0  0  0
   -4.9730   23.8000  -29.1760 C   0  0  0  0  0  0  0  0  0  0  0  0
   -6.1390   26.0480  -30.0270 O   0  0  0  0  0  0  0  0  0  0  0  0
   -3.8660   25.6260  -30.8210 O   0  0  0  0  0  0  0  0  0  0  0  0
   -5.2220   21.9120  -32.1360 C   0  0  0  0  0  0  0  0  0  0  0  0
   -4.0130   22.2580  -32.2130 O   0  0  0  0  0  0  0  0  0  0  0  0
   -5.5600   20.5640  -32.2200 C   0  0  0  0  0  0  0  0  0  0  0  0
   -6.9030   20.1700  -32.1320 C   0  0  0  0  0  0  0  0  0  0  0  0
   -7.2860   18.4350  -32.2290 S   0  0  0  0  0  0  0  0  0  0  0  0
   -7.2000   17.8110  -30.8650 O   0  0  0  0  0  0  0  0  0  0  0  0
   -8.6840   18.2640  -32.7550 O   0  0  0  0  0  0  0  0  0  0  0  0
   -6.1630   17.5800  -33.2870 C   0  0  0  0  0  0  0  0  0  0  0  0
   -5.6620   16.3240  -32.9070 C   0  0  0  0  0  0  0  0  0  0  0  0
   -4.7560   15.6510  -33.7320 C   0  0  0  0  0  0  0  0  0  0  0  0
   -4.3440   16.2280  -34.9370 C   0  0  0  0  0  0  0  0  0  0  0  0
   -4.8350   17.4810  -35.3160 C   0  0  0  0  0  0  0  0  0  0  0  0
   -5.7400   18.1570  -34.4940 C   0  0  0  0  0  0  0  0  0  0  0  0
   -9.5947   20.6805  -30.8358 H   0  0  0  0  0  0  0  0  0  0  0  0
   -9.9158   21.5250  -32.3883 H   0  0  0  0  0  0  0  0  0  0  0  0
   -9.4640   19.7864  -32.3883 H   0  0  0  0  0  0  0  0  0  0  0  0
   -8.3492   23.1973  -31.7355 H   0  0  0  0  0  0  0  0  0  0  0  0
   -5.0636   24.3087  -28.2049 H   0  0  0  0  0  0  0  0  0  0  0  0
   -5.7468   23.0223  -29.2561 H   0  0  0  0  0  0  0  0  0  0  0  0
   -3.9783   23.3372  -29.2561 H   0  0  0  0  0  0  0  0  0  0  0  0
   -4.7730   19.8075  -32.3555 H   0  0  0  0  0  0  0  0  0  0  0  0
   -5.9832   15.8690  -31.9584 H   0  0  0  0  0  0  0  0  0  0  0  0
   -4.3669   14.6666  -33.4328 H   0  0  0  0  0  0  0  0  0  0  0  0
   -3.6335   15.6961  -35.5869 H   0  0  0  0  0  0  0  0  0  0  0  0
   -4.5082   17.9353  -36.2630 H   0  0  0  0  0  0  0  0  0  0  0  0
   -6.1219   19.1441  -34.7938 H   0  0  0  0  0  0  0  0  0  0  0  0
  1  2  1  0
  2  3  1  0
  3  4  2  0
  4  5  1  0
  5  6  1  0
  6  7  1  0
  6  8  2  0
  6  9  2  0
  4 10  1  0
 10 11  2  0
 10 12  1  0
 12 13  2  0
 13 14  1  0
 14 15  2  0
 14 16  2  0
 14 17  1  0
 17 18  2  0
 18 19  1  0
 19 20  2  0
 20 21  1  0
 21 22  2  0
 13  2  1  0
 22 17  1  0
  1 23  1  0
  1 24  1  0
  1 25  1  0
  3 26  1  0
  7 27  1  0
  7 28  1  0
  7 29  1  0
 12 30  1  0
 18 31  1  0
 19 32  1  0
 20 33  1  0
 21 34  1  0
 22 35  1  0
M  END
>  <UniqueID>  (30) 
29

>  <SMILES>  (30) 
Cn1cc(OS(C)(=O)=O)c(=O)cc1S(=O)(=O)c1ccccc1

>  <Energy>  (30) 
38.228761747268024

>  <Genealogy>  (30) 
Cn1cc(OS(C)(=O)=O)c(=O)cc1S(=O)(=O)c1ccccc1 (3D coordinates assigned)
Cn1cc(OS(C)(=O)=O)c(=O)cc1S(=O)(=O)c1ccccc1 (optimized conformer: 38.228761747268024 kcal/mol)

>  <smiles>  (30) 
Cn1cc(OS(C)(=O)=O)c(=O)cc1S(=O)(=O)c1ccccc1

>  <score_type>  (30) 
oracle

>  <origin>  (30) 
adgpu

>  <m_score__min__energy>  (30) 
-8.8499999999999996

>  <m_primary>  (30) 
energy

$$$$
30:0
     RDKit          3D

 44 46  0  0  0  0  0  0  0  0999 V2000
   -3.4990   18.5620  -25.9750 C   0  0  0  0  0  0  0  0  0  0  0  0
   -2.3690   19.0880  -26.8090 C   0  0  0  0  0  0  0  0  0  0  0  0
   -1.2520   18.2830  -27.0740 C   0  0  0  0  0  0  0  0  0  0  0  0
   -0.1780   18.7920  -27.8100 C   0  0  0  0  0  0  0  0  0  0  0  0
   -0.1970   20.1160  -28.2560 C   0  0  0  0  0  0  0  0  0  0  0  0
   -1.2840   20.9450  -27.9600 C   0  0  0  0  0  0  0  0  0  0  0  0
   -1.2490   22.2820  -28.3860 O   0  0  0  0  0  0  0  0  0  0  0  0
   -1.1900   23.4030  -27.5420 C   0  0  0  0  0  0  0  0  0  0  0  0
   -0.8570   23.2030  -26.2000 C   0  0  0  0  0  0  0  0  0  0  0  0
   -0.7770   24.2810  -25.3170 C   0  0  0  0  0  0  0  0  0  0  0  0
   -1.0710   25.5820  -25.7540 C   0  0  0  0  0  0  0  0  0  0  0  0
   -0.9490   26.7530  -24.8120 C   0  0  0  0  0  0  0  0  0  0  0  0
    0.3890   27.0240  -24.5940 F   0  0  0  0  0  0  0  0  0  0  0  0
   -1.5550   27.8760  -25.3480 F   0  0  0  0  0  0  0  0  0  0  0  0
   -1.5540   26.4750  -23.5990 F   0  0  0  0  0  0  0  0  0  0  0  0
   -1.4080   25.7890  -27.1020 C   0  0  0  0  0  0  0  0  0  0  0  0
   -1.4780   24.7080  -27.9990 C   0  0  0  0  0  0  0  0  0  0  0  0
   -1.9080   24.9080  -29.3520 N   0  0  0  0  0  0  0  0  0  0  0  0
   -3.1850   24.5350  -29.8800 C   0  0  0  0  0  0  0  0  0  0  0  0
   -3.8650   25.3620  -30.5460 O   0  0  0  0  0  0  0  0  0  0  0  0
   -3.6240   23.1770  -29.7400 N   0  0  0  0  0  0  0  0  0  0  0  0
   -4.8620   22.6750  -30.2680 C   0  0  0  0  0  0  0  0  0  0  0  0
   -6.1010   23.1350  -29.7910 C   0  0  0  0  0  0  0  0  0  0  0  0
   -7.2910   22.6210  -30.3120 C   0  0  0  0  0  0  0  0  0  0  0  0
   -7.2600   21.6380  -31.3060 C   0  0  0  0  0  0  0  0  0  0  0  0
   -8.7790   21.0180  -31.9390 Cl  0  0  0  0  0  0  0  0  0  0  0  0
   -6.0250   21.1590  -31.7750 C   0  0  0  0  0  0  0  0  0  0  0  0
   -5.9400   19.9140  -33.0140 Cl  0  0  0  0  0  0  0  0  0  0  0  0
   -4.8350   21.6730  -31.2480 C   0  0  0  0  0  0  0  0  0  0  0  0
   -2.3860   20.4170  -27.2610 C   0  0  0  0  0  0  0  0  0  0  0  0
   -3.2524   18.6768  -24.9092 H   0  0  0  0  0  0  0  0  0  0  0  0
   -4.4157   19.1260  -26.2021 H   0  0  0  0  0  0  0  0  0  0  0  0
   -3.6577   17.4975  -26.2021 H   0  0  0  0  0  0  0  0  0  0  0  0
   -1.2207   17.2483  -26.7018 H   0  0  0  0  0  0  0  0  0  0  0  0
    0.6843   18.1485  -28.0386 H   0  0  0  0  0  0  0  0  0  0  0  0
    0.6468   20.5082  -28.8426 H   0  0  0  0  0  0  0  0  0  0  0  0
   -0.6557   22.1849  -25.8353 H   0  0  0  0  0  0  0  0  0  0  0  0
   -0.4815   24.1098  -24.2714 H   0  0  0  0  0  0  0  0  0  0  0  0
   -1.6194   26.8075  -27.4598 H   0  0  0  0  0  0  0  0  0  0  0  0
   -2.9310   22.4870  -29.3710 H   0  0  0  0  0  0  0  0  0  0  0  0
   -6.1341   23.9030  -29.0041 H   0  0  0  0  0  0  0  0  0  0  0  0
   -8.2571   22.9914  -29.9385 H   0  0  0  0  0  0  0  0  0  0  0  0
   -3.8692   21.2871  -31.6061 H   0  0  0  0  0  0  0  0  0  0  0  0
   -3.2652   21.0492  -27.0679 H   0  0  0  0  0  0  0  0  0  0  0  0
  1  2  1  0
  2  3  2  0
  3  4  1  0
  4  5  2  0
  5  6  1  0
  6  7  1  0
  7  8  1  0
  8  9  2  0
  9 10  1  0
 10 11  2  0
 11 12  1  0
 12 13  1  0
 12 14  1  0
 12 15  1  0
 11 16  1  0
 16 17  2  0
 17 18  1  0
 18 19  1  0
 19 20  2  0
 19 21  1  0
 21 22  1  0
 22 23  2  0
 23 24  1  0
 24 25  2  0
 25 26  1  0
 25 27  1  0
 27 28  1  0
 27 29  2  0
  6 30  2  0
 30  2  1  0
 17  8  1  0
 29 22  1  0
  1 31  1  0
  1 32  1  0
  1 33  1  0
  3 34  1  0
  4 35  1  0
  5 36  1  0
  9 37  1  0
 10 38  1  0
 16 39  1  0
 21 40  1  0
 23 41  1  0
 24 42  1  0
 29 43  1  0
 30 44  1  0
M  CHG  1  18  -1
M  END
>  <UniqueID>  (31) 
30

>  <SMILES>  (31) 
Cc1cccc(Oc2ccc(C(F)(F)F)cc2[N-]C(=O)Nc2ccc(Cl)c(Cl)c2)c1

>  <Energy>  (31) 
60.524039361091084

>  <Genealogy>  (31) 
Cc1cccc(Oc2ccc(C(F)(F)F)cc2[N-]C(=O)Nc2ccc(Cl)c(Cl)c2)c1 (protonated)
Cc1cccc(Oc2ccc(C(F)(F)F)cc2[N-]C(=O)Nc2ccc(Cl)c(Cl)c2)c1 (3D coordinates assigned)
Cc1cccc(Oc2ccc(C(F)(F)F)cc2[N-]C(=O)Nc2ccc(Cl)c(Cl)c2)c1 (optimized conformer: 60.524039361091084 kcal/mol)

>  <smiles>  (31) 
Cc1cccc(Oc2ccc(C(F)(F)F)cc2NC(=O)Nc2ccc(Cl)c(Cl)c2)c1

>  <score_type>  (31) 
oracle

>  <origin>  (31) 
adgpu

>  <m_score__min__energy>  (31) 
-10.539999999999999

>  <m_primary>  (31) 
energy

$$$$
31:0
     RDKit          3D

 53 56  0  0  0  0  0  0  0  0999 V2000
   -1.2530   23.9560  -29.4320 C   0  0  0  0  0  0  0  0  0  0  0  0
   -2.5760   24.6160  -29.1700 C   0  0  0  0  0  0  0  0  0  0  0  0
   -2.9010   24.8710  -27.9810 O   0  0  0  0  0  0  0  0  0  0  0  0
   -3.5090   24.9070  -30.2240 N   0  0  0  0  0  0  0  0  0  0  0  0
   -4.7930   24.2970  -30.4090 C   0  0  0  0  0  0  0  0  0  0  0  0
   -5.5020   24.5630  -31.5840 C   0  0  0  0  0  0  0  0  0  0  0  0
   -6.7380   23.9540  -31.8180 C   0  0  0  0  0  0  0  0  0  0  0  0
   -7.2660   23.0400  -30.8850 C   0  0  0  0  0  0  0  0  0  0  0  0
   -8.5380   22.4040  -31.0840 N   0  0  0  0  0  0  0  0  0  0  0  0
   -8.7920   21.2780  -31.9380 C   0  0  0  0  0  0  0  0  0  0  0  0
   -9.9680   21.0280  -32.3260 O   0  0  0  0  0  0  0  0  0  0  0  0
   -7.6680   20.4280  -32.4000 C   0  0  0  0  0  0  0  0  0  0  0  0
   -7.8820   19.0720  -32.6990 C   0  0  0  0  0  0  0  0  0  0  0  0
   -6.8220   18.2660  -33.1140 C   0  0  0  0  0  0  0  0  0  0  0  0
   -5.5390   18.8000  -33.2480 C   0  0  0  0  0  0  0  0  0  0  0  0
   -5.3020   20.1570  -32.9680 C   0  0  0  0  0  0  0  0  0  0  0  0
   -3.6910   20.8900  -33.1190 S   0  0  0  0  0  0  0  0  0  0  0  0
   -3.8430   22.2010  -33.8440 O   0  0  0  0  0  0  0  0  0  0  0  0
   -2.8410   19.9780  -33.9660 O   0  0  0  0  0  0  0  0  0  0  0  0
   -2.8370   21.1490  -31.6090 N   0  0  0  0  0  0  0  0  0  0  0  0
   -3.6620   20.7690  -30.4460 C   0  0  0  0  0  0  0  0  0  0  0  0
   -2.9320   21.1120  -29.1500 C   0  0  0  0  0  0  0  0  0  0  0  0
   -1.6130   20.4010  -29.1080 C   0  0  0  0  0  0  0  0  0  0  0  0
   -1.0560   20.0030  -27.8780 C   0  0  0  0  0  0  0  0  0  0  0  0
    0.1840   19.3570  -27.8400 C   0  0  0  0  0  0  0  0  0  0  0  0
    0.8820   19.1180  -29.0260 C   0  0  0  0  0  0  0  0  0  0  0  0
    0.3430   19.5270  -30.2520 C   0  0  0  0  0  0  0  0  0  0  0  0
   -0.9060   20.1690  -30.3040 C   0  0  0  0  0  0  0  0  0  0  0  0
   -1.4640   20.5910  -31.6530 C   0  0  0  0  0  0  0  0  0  0  0  0
   -6.3710   20.9610  -32.5380 C   0  0  0  0  0  0  0  0  0  0  0  0
   -6.5580   22.7770  -29.7060 C   0  0  0  0  0  0  0  0  0  0  0  0
   -5.3200   23.3820  -29.4790 C   0  0  0  0  0  0  0  0  0  0  0  0
   -0.7680   23.7141  -28.4748 H   0  0  0  0  0  0  0  0  0  0  0  0
   -1.4118   23.0315  -30.0066 H   0  0  0  0  0  0  0  0  0  0  0  0
   -0.6100   24.6389  -30.0066 H   0  0  0  0  0  0  0  0  0  0  0  0
   -5.0845   25.2561  -32.3292 H   0  0  0  0  0  0  0  0  0  0  0  0
   -7.3004   24.1891  -32.7337 H   0  0  0  0  0  0  0  0  0  0  0  0
   -8.8909   18.6437  -32.6053 H   0  0  0  0  0  0  0  0  0  0  0  0
   -6.9979   17.2033  -33.3370 H   0  0  0  0  0  0  0  0  0  0  0  0
   -4.7094   18.1556  -33.5743 H   0  0  0  0  0  0  0  0  0  0  0  0
   -4.6156   21.3161  -30.4821 H   0  0  0  0  0  0  0  0  0  0  0  0
   -3.8504   19.6857  -30.4770 H   0  0  0  0  0  0  0  0  0  0  0  0
   -2.7634   22.1979  -29.1020 H   0  0  0  0  0  0  0  0  0  0  0  0
   -3.5439   20.7942  -28.2929 H   0  0  0  0  0  0  0  0  0  0  0  0
   -1.5987   20.2011  -26.9419 H   0  0  0  0  0  0  0  0  0  0  0  0
    0.6091   19.0375  -26.8771 H   0  0  0  0  0  0  0  0  0  0  0  0
    1.8562   18.6079  -28.9969 H   0  0  0  0  0  0  0  0  0  0  0  0
    0.9017   19.3443  -31.1818 H   0  0  0  0  0  0  0  0  0  0  0  0
   -0.7965   21.3565  -32.0755 H   0  0  0  0  0  0  0  0  0  0  0  0
   -1.5191   19.6788  -32.2653 H   0  0  0  0  0  0  0  0  0  0  0  0
   -6.1929   22.0214  -32.3058 H   0  0  0  0  0  0  0  0  0  0  0  0
   -6.9785   22.0912  -28.9557 H   0  0  0  0  0  0  0  0  0  0  0  0
   -4.7532   23.1417  -28.5674 H   0  0  0  0  0  0  0  0  0  0  0  0
  1  2  1  0
  2  3  2  0
  2  4  1  0
  4  5  1  0
  5  6  2  0
  6  7  1  0
  7  8  2  0
  8  9  1  0
  9 10  1  0
 10 11  2  0
 10 12  1  0
 12 13  2  0
 13 14  1  0
 14 15  2  0
 15 16  1  0
 16 17  1  0
 17 18  2  0
 17 19  2  0
 17 20  1  0
 20 21  1  0
 21 22  1  0
 22 23  1  0
 23 24  2  0
 24 25  1  0
 25 26  2  0
 26 27  1  0
 27 28  2  0
 28 29  1  0
 16 30  2  0
  8 31  1  0
 31 32  2  0
 32  5  1  0
 30 12  1  0
 29 20  1  0
 28 23  1  0
  1 33  1  0
  1 34  1  0
  1 35  1  0
  6 36  1  0
  7 37  1  0
 13 38  1  0
 14 39  1  0
 15 40  1  0
 21 41  1  0
 21 42  1  0
 22 43  1  0
 22 44  1  0
 24 45  1  0
 25 46  1  0
 26 47  1  0
 27 48  1  0
 29 49  1  0
 29 50  1  0
 30 51  1  0
 31 52  1  0
 32 53  1  0
M  CHG  2   4  -1   9  -1
M  END
>  <UniqueID>  (32) 
31

>  <SMILES>  (32) 
CC(=O)[N-]c1ccc([N-]C(=O)c2cccc(S(=O)(=O)N3CCc4ccccc4C3)c2)cc1

>  <Energy>  (32) 
74.52674053526022

>  <Genealogy>  (32) 
CC(=O)[N-]c1ccc([N-]C(=O)c2cccc(S(=O)(=O)N3CCc4ccccc4C3)c2)cc1 (protonated)
CC(=O)[N-]c1ccc([N-]C(=O)c2cccc(S(=O)(=O)N3CCc4ccccc4C3)c2)cc1 (3D coordinates assigned)
CC(=O)[N-]c1ccc([N-]C(=O)c2cccc(S(=O)(=O)N3CCc4ccccc4C3)c2)cc1 (nonaromatic ring conformer: 74.52674053526022 kcal/mol)

>  <smiles>  (32) 
CC(=O)Nc1ccc(NC(=O)c2cccc(S(=O)(=O)N3CCc4ccccc4C3)c2)cc1

>  <score_type>  (32) 
oracle

>  <origin>  (32) 
adgpu

>  <m_score__min__energy>  (32) 
-12.48

>  <m_primary>  (32) 
energy

$$$$
32:0
     RDKit          3D

 45 48  0  0  0  0  0  0  0  0999 V2000
   -0.1930   20.0990  -30.9450 C   0  0  0  0  0  0  0  0  0  0  0  0
   -0.9250   20.6400  -32.0400 O   0  0  0  0  0  0  0  0  0  0  0  0
   -2.3010   20.9110  -32.0160 C   0  0  0  0  0  0  0  0  0  0  0  0
   -3.1240   20.5460  -30.9340 C   0  0  0  0  0  0  0  0  0  0  0  0
   -4.4910   20.8390  -30.9590 C   0  0  0  0  0  0  0  0  0  0  0  0
   -5.0540   21.4920  -32.0640 C   0  0  0  0  0  0  0  0  0  0  0  0
   -6.4520   21.8190  -32.0750 N   0  0  0  0  0  0  0  0  0  0  0  0
   -7.0100   23.0250  -31.8620 C   0  0  0  0  0  0  0  0  0  0  0  0
   -6.1010   24.5460  -31.5610 S   0  0  0  0  0  0  0  0  0  0  0  0
   -6.0030   24.3220  -29.7490 C   0  0  0  0  0  0  0  0  0  0  0  0
   -4.6380   23.8500  -29.3300 C   0  0  0  0  0  0  0  0  0  0  0  0
   -3.4960   24.2540  -30.0420 C   0  0  0  0  0  0  0  0  0  0  0  0
   -2.2320   23.7870  -29.6690 C   0  0  0  0  0  0  0  0  0  0  0  0
   -2.0990   22.9130  -28.5840 C   0  0  0  0  0  0  0  0  0  0  0  0
   -0.5130   22.3250  -28.1190 Cl  0  0  0  0  0  0  0  0  0  0  0  0
   -3.2330   22.5050  -27.8740 C   0  0  0  0  0  0  0  0  0  0  0  0
   -4.4990   22.9690  -28.2460 C   0  0  0  0  0  0  0  0  0  0  0  0
   -8.3540   22.9510  -31.8270 N   0  0  0  0  0  0  0  0  0  0  0  0
   -8.6740   21.6790  -32.0200 N   0  0  0  0  0  0  0  0  0  0  0  0
   -7.5200   20.9960  -32.1640 C   0  0  0  0  0  0  0  0  0  0  0  0
   -7.4750   19.5480  -32.4390 C   0  0  0  0  0  0  0  0  0  0  0  0
   -6.5680   18.9150  -33.2620 C   0  0  0  0  0  0  0  0  0  0  0  0
   -6.9190   17.5860  -33.1630 C   0  0  0  0  0  0  0  0  0  0  0  0
   -6.2470   16.4430  -33.8440 C   0  0  0  0  0  0  0  0  0  0  0  0
   -7.9350   17.4720  -32.3400 O   0  0  0  0  0  0  0  0  0  0  0  0
   -8.2960   18.6350  -31.8820 N   0  0  0  0  0  0  0  0  0  0  0  0
   -4.2340   21.8640  -33.1370 C   0  0  0  0  0  0  0  0  0  0  0  0
   -2.8670   21.5710  -33.1130 C   0  0  0  0  0  0  0  0  0  0  0  0
   -0.6459   20.4337  -30.0001 H   0  0  0  0  0  0  0  0  0  0  0  0
   -0.2176   19.0004  -30.9945 H   0  0  0  0  0  0  0  0  0  0  0  0
    0.8500   20.4450  -30.9945 H   0  0  0  0  0  0  0  0  0  0  0  0
   -2.6902   20.0284  -30.0657 H   0  0  0  0  0  0  0  0  0  0  0  0
   -5.1274   20.5557  -30.1076 H   0  0  0  0  0  0  0  0  0  0  0  0
   -6.2167   25.2824  -29.2571 H   0  0  0  0  0  0  0  0  0  0  0  0
   -6.7397   23.5608  -29.4528 H   0  0  0  0  0  0  0  0  0  0  0  0
   -3.5968   24.9401  -30.8959 H   0  0  0  0  0  0  0  0  0  0  0  0
   -1.3409   24.1069  -30.2290 H   0  0  0  0  0  0  0  0  0  0  0  0
   -3.1290   21.8178  -27.0214 H   0  0  0  0  0  0  0  0  0  0  0  0
   -5.3885   22.6425  -27.6873 H   0  0  0  0  0  0  0  0  0  0  0  0
   -5.7579   19.3635  -33.8557 H   0  0  0  0  0  0  0  0  0  0  0  0
   -5.8416   15.7534  -33.0890 H   0  0  0  0  0  0  0  0  0  0  0  0
   -6.9760   15.9109  -34.4728 H   0  0  0  0  0  0  0  0  0  0  0  0
   -5.4275   16.8213  -34.4728 H   0  0  0  0  0  0  0  0  0  0  0  0
   -4.6670   22.3885  -34.0015 H   0  0  0  0  0  0  0  0  0  0  0  0
   -2.2315   21.8614  -33.9626 H   0  0  0  0  0  0  0  0  0  0  0  0
  1  2  1  0
  2  3  1  0
  3  4  2  0
  4  5  1  0
  5  6  2  0
  6  7  1  0
  7  8  1  0
  8  9  1  0
  9 10  1  0
 10 11  1  0
 11 12  2  0
 12 13  1  0
 13 14  2  0
 14 15  1  0
 14 16  1  0
 16 17  2  0
  8 18  2  0
 18 19  1  0
 19 20  2  0
 20 21  1  0
 21 22  1  0
 22 23  2  0
 23 24  1  0
 23 25  1  0
 25 26  1  0
  6 27  1  0
 27 28  2  0
 28  3  1  0
 20  7  1  0
 26 21  2  0
 17 11  1  0
  1 29  1  0
  1 30  1  0
  1 31  1  0
  4 32  1  0
  5 33  1  0
 10 34  1  0
 10 35  1  0
 12 36  1  0
 13 37  1  0
 16 38  1  0
 17 39  1  0
 22 40  1  0
 24 41  1  0
 24 42  1  0
 24 43  1  0
 27 44  1  0
 28 45  1  0
M  END
>  <UniqueID>  (33) 
32

>  <SMILES>  (33) 
COc1ccc(-n2c(SCc3ccc(Cl)cc3)nnc2-c2cc(C)on2)cc1

>  <Energy>  (33) 
113.45236431393614

>  <Genealogy>  (33) 
COc1ccc(-n2c(SCc3ccc(Cl)cc3)nnc2-c2cc(C)on2)cc1 (3D coordinates assigned)
COc1ccc(-n2c(SCc3ccc(Cl)cc3)nnc2-c2cc(C)on2)cc1 (optimized conformer: 113.45236431393614 kcal/mol)

>  <smiles>  (33) 
COc1ccc(-n2c(SCc3ccc(Cl)cc3)nnc2-c2cc(C)on2)cc1

>  <score_type>  (33) 
oracle

>  <origin>  (33) 
adgpu

>  <m_score__min__energy>  (33) 
-9.8100000000000005

>  <m_primary>  (33) 
energy

$$$$
33:0
     RDKit          3D

 41 44  0  0  0  0  0  0  0  0999 V2000
   -0.8070   27.1380  -23.9670 C   0  0  0  0  0  0  0  0  0  0  0  0
   -1.0440   27.3060  -25.3610 O   0  0  0  0  0  0  0  0  0  0  0  0
   -1.1790   26.2500  -26.2730 C   0  0  0  0  0  0  0  0  0  0  0  0
   -1.6500   25.0190  -25.8020 C   0  0  0  0  0  0  0  0  0  0  0  0
   -1.8070   23.9390  -26.6740 C   0  0  0  0  0  0  0  0  0  0  0  0
   -1.4910   24.0760  -28.0300 C   0  0  0  0  0  0  0  0  0  0  0  0
   -1.7280   22.7110  -29.1190 S   0  0  0  0  0  0  0  0  0  0  0  0
   -0.4190   22.0490  -29.4460 O   0  0  0  0  0  0  0  0  0  0  0  0
   -2.6260   21.7090  -28.4530 O   0  0  0  0  0  0  0  0  0  0  0  0
   -2.4750   23.2590  -30.5850 N   0  0  0  0  0  0  0  0  0  0  0  0
   -3.8880   23.2710  -30.8360 C   0  0  0  0  0  0  0  0  0  0  0  0
   -4.6000   22.0880  -31.1350 C   0  0  0  0  0  0  0  0  0  0  0  0
   -5.9680   22.1790  -31.3800 C   0  0  0  0  0  0  0  0  0  0  0  0
   -6.6390   23.3840  -31.3270 C   0  0  0  0  0  0  0  0  0  0  0  0
   -5.9610   24.5650  -31.0260 C   0  0  0  0  0  0  0  0  0  0  0  0
   -4.5780   24.5050  -30.7790 C   0  0  0  0  0  0  0  0  0  0  0  0
   -3.8880   25.6740  -30.4820 O   0  0  0  0  0  0  0  0  0  0  0  0
   -8.1020   23.2160  -31.6200 C   0  0  0  0  0  0  0  0  0  0  0  0
   -8.1650   21.7340  -31.8520 C   0  0  0  0  0  0  0  0  0  0  0  0
   -9.2860   20.9670  -32.1730 C   0  0  0  0  0  0  0  0  0  0  0  0
   -9.1240   19.5830  -32.3530 C   0  0  0  0  0  0  0  0  0  0  0  0
   -7.8540   18.9880  -32.2100 C   0  0  0  0  0  0  0  0  0  0  0  0
   -6.7350   19.7720  -31.8870 C   0  0  0  0  0  0  0  0  0  0  0  0
   -6.9220   21.1440  -31.7120 C   0  0  0  0  0  0  0  0  0  0  0  0
   -1.0130   25.3030  -28.5090 C   0  0  0  0  0  0  0  0  0  0  0  0
   -0.8590   26.3850  -27.6380 C   0  0  0  0  0  0  0  0  0  0  0  0
   -1.5743   27.6819  -23.3965 H   0  0  0  0  0  0  0  0  0  0  0  0
   -0.8512   26.0684  -23.7138 H   0  0  0  0  0  0  0  0  0  0  0  0
    0.1876   27.5339  -23.7138 H   0  0  0  0  0  0  0  0  0  0  0  0
   -1.8985   24.9011  -24.7369 H   0  0  0  0  0  0  0  0  0  0  0  0
   -2.1805   22.9771  -26.2930 H   0  0  0  0  0  0  0  0  0  0  0  0
   -4.0854   21.1166  -31.1735 H   0  0  0  0  0  0  0  0  0  0  0  0
   -6.4975   25.5243  -30.9827 H   0  0  0  0  0  0  0  0  0  0  0  0
   -8.7250   23.5204  -30.7660 H   0  0  0  0  0  0  0  0  0  0  0  0
   -8.4760   23.8273  -32.4545 H   0  0  0  0  0  0  0  0  0  0  0  0
  -10.2750   21.4359  -32.2827 H   0  0  0  0  0  0  0  0  0  0  0  0
   -9.9939   18.9596  -32.6072 H   0  0  0  0  0  0  0  0  0  0  0  0
   -7.7391   17.9033  -32.3523 H   0  0  0  0  0  0  0  0  0  0  0  0
   -5.7394   19.3179  -31.7751 H   0  0  0  0  0  0  0  0  0  0  0  0
   -0.7583   25.4149  -29.5733 H   0  0  0  0  0  0  0  0  0  0  0  0
   -0.4861   27.3467  -28.0203 H   0  0  0  0  0  0  0  0  0  0  0  0
  1  2  1  0
  2  3  1  0
  3  4  2  0
  4  5  1  0
  5  6  2  0
  6  7  1  0
  7  8  2  0
  7  9  2  0
  7 10  1  0
 10 11  1  0
 11 12  2  0
 12 13  1  0
 13 14  2  0
 14 15  1  0
 15 16  2  0
 16 17  1  0
 14 18  1  0
 18 19  1  0
 19 20  2  0
 20 21  1  0
 21 22  2  0
 22 23  1  0
 23 24  2  0
  6 25  1  0
 25 26  2  0
 26  3  1  0
 16 11  1  0
 24 19  1  0
 24 13  1  0
  1 27  1  0
  1 28  1  0
  1 29  1  0
  4 30  1  0
  5 31  1  0
 12 32  1  0
 15 33  1  0
 18 34  1  0
 18 35  1  0
 20 36  1  0
 21 37  1  0
 22 38  1  0
 23 39  1  0
 25 40  1  0
 26 41  1  0
M  CHG  2  10  -1  17  -1
M  END
>  <UniqueID>  (34) 
33

>  <SMILES>  (34) 
COc1ccc(S(=O)(=O)[N-]c2cc3c(cc2[O-])Cc2ccccc2-3)cc1

>  <Energy>  (34) 
69.8392531056927

>  <Genealogy>  (34) 
COc1ccc(S(=O)(=O)[N-]c2cc3c(cc2[O-])Cc2ccccc2-3)cc1 (protonated)
COc1ccc(S(=O)(=O)[N-]c2cc3c(cc2[O-])Cc2ccccc2-3)cc1 (3D coordinates assigned)
COc1ccc(S(=O)(=O)[N-]c2cc3c(cc2[O-])Cc2ccccc2-3)cc1 (nonaromatic ring conformer: 69.8392531056927 kcal/mol)

>  <smiles>  (34) 
COc1ccc(S(=O)(=O)Nc2cc3c(cc2O)Cc2ccccc2-3)cc1

>  <score_type>  (34) 
oracle

>  <origin>  (34) 
adgpu

>  <m_score__min__energy>  (34) 
-13.34

>  <m_primary>  (34) 
energy

$$$$
34:0
     RDKit          3D

 36 38  0  0  0  0  0  0  0  0999 V2000
   -3.9660   11.6590  -35.2790 H   0  0  0  0  0  0  0  0  0  0  0  0
   -4.9420   12.0130  -35.1690 N   0  0  0  0  0  0  0  0  0  0  0  0
   -5.1820   13.2140  -34.7510 C   0  0  0  0  0  0  0  0  0  0  0  0
   -4.1580   14.0520  -34.4380 N   0  0  0  0  0  0  0  0  0  0  0  0
   -4.3890   15.3170  -34.0000 C   0  0  0  0  0  0  0  0  0  0  0  0
   -3.5463   15.9775  -33.7477 H   0  0  0  0  0  0  0  0  0  0  0  0
   -5.7100   15.7770  -33.8710 C   0  0  0  0  0  0  0  0  0  0  0  0
   -6.0190   17.1420  -33.3800 C   0  0  0  0  0  0  0  0  0  0  0  0
   -6.1010   18.2010  -34.2990 C   0  0  0  0  0  0  0  0  0  0  0  0
   -5.9360   18.0076  -35.3692 H   0  0  0  0  0  0  0  0  0  0  0  0
   -6.3900   19.4970  -33.8670 C   0  0  0  0  0  0  0  0  0  0  0  0
   -6.4570   20.3142  -34.6003 H   0  0  0  0  0  0  0  0  0  0  0  0
   -6.5960   19.7660  -32.5030 C   0  0  0  0  0  0  0  0  0  0  0  0
   -6.9050   21.1440  -32.0430 C   0  0  0  0  0  0  0  0  0  0  0  0
   -8.2240   21.6320  -32.0830 C   0  0  0  0  0  0  0  0  0  0  0  0
   -9.0342   20.9862  -32.4523 H   0  0  0  0  0  0  0  0  0  0  0  0
   -8.5120   22.9310  -31.6570 C   0  0  0  0  0  0  0  0  0  0  0  0
   -9.5461   23.3041  -31.6951 H   0  0  0  0  0  0  0  0  0  0  0  0
   -7.4910   23.7570  -31.1830 C   0  0  0  0  0  0  0  0  0  0  0  0
   -7.7218   24.7808  -30.8536 H   0  0  0  0  0  0  0  0  0  0  0  0
   -6.1740   23.2850  -31.1260 C   0  0  0  0  0  0  0  0  0  0  0  0
   -4.8810   24.3270  -30.5400 S   0  0  0  0  0  0  0  0  0  0  0  0
   -3.5460   23.7290  -30.8840 O   0  0  0  0  0  0  0  0  0  0  0  0
   -4.9850   25.6780  -31.1910 O   0  0  0  0  0  0  0  0  0  0  0  0
   -5.0080   24.5010  -28.8260 N   0  0  0  0  0  0  0  0  0  0  0  0
   -4.8600   25.5130  -28.6100 H   0  0  0  0  0  0  0  0  0  0  0  0
   -5.9970   24.2810  -28.5690 H   0  0  0  0  0  0  0  0  0  0  0  0
   -5.8830   21.9840  -31.5630 C   0  0  0  0  0  0  0  0  0  0  0  0
   -4.8465   21.6171  -31.5301 H   0  0  0  0  0  0  0  0  0  0  0  0
   -6.4990   18.7100  -31.5820 C   0  0  0  0  0  0  0  0  0  0  0  0
   -6.6537   18.9069  -30.5109 H   0  0  0  0  0  0  0  0  0  0  0  0
   -6.2080   17.4110  -32.0110 C   0  0  0  0  0  0  0  0  0  0  0  0
   -6.0620   16.4350  -31.0790 F   0  0  0  0  0  0  0  0  0  0  0  0
   -6.7300   14.9250  -34.1710 N   0  0  0  0  0  0  0  0  0  0  0  0
   -6.4980   13.6610  -34.6100 C   0  0  0  0  0  0  0  0  0  0  0  0
   -7.3391   12.9949  -34.8525 H   0  0  0  0  0  0  0  0  0  0  0  0
  1  2  1  0
  2  3  2  0
  3  4  1  0
  4  5  1  0
  5  6  1  0
  5  7  2  0
  7  8  1  0
  8  9  2  0
  9 10  1  0
  9 11  1  0
 11 12  1  0
 11 13  2  0
 13 14  1  0
 14 15  2  0
 15 16  1  0
 15 17  1  0
 17 18  1  0
 17 19  2  0
 19 20  1  0
 19 21  1  0
 21 22  1  0
 22 23  2  0
 22 24  2  0
 22 25  1  0
 25 26  1  0
 25 27  1  0
 21 28  2  0
 28 29  1  0
 13 30  1  0
 30 31  1  0
 30 32  2  0
 32 33  1  0
  7 34  1  0
 34 35  2  0
 35 36  1  0
 35  3  1  0
 32  8  1  0
 28 14  1  0
M  CHG  1   4  -1
M  END
>  <UniqueID>  (35) 
34

>  <SMILES>  (35) 
[H]/N=c1/cnc(-c2ccc(-c3cccc(S(N)(=O)=O)c3)cc2F)c[n-]1

>  <Energy>  (35) 
49.77104293709312

>  <Genealogy>  (35) 
N=c1cnc(-c2ccc(-c3cccc(S(N)(=O)=O)c3)cc2F)c[n-]1 (protonated)
[H]/N=c1/cnc(-c2ccc(-c3cccc(S(N)(=O)=O)c3)cc2F)c[n-]1 (cis-trans isomerization)
[H]/N=c1/cnc(-c2ccc(-c3cccc(S(N)(=O)=O)c3)cc2F)c[n-]1 (3D coordinates assigned)
[H]/N=c1/cnc(-c2ccc(-c3cccc(S(N)(=O)=O)c3)cc2F)c[n-]1 (optimized conformer: 49.77104293709312 kcal/mol)

>  <smiles>  (35) 
N=c1cnc(-c2ccc(-c3cccc(S(N)(=O)=O)c3)cc2F)c[nH]1

>  <score_type>  (35) 
oracle

>  <origin>  (35) 
adgpu

>  <m_score__min__energy>  (35) 
-9.5700000000000003

>  <m_primary>  (35) 
energy

$$$$
35:0
     RDKit          3D

 58 61  0  0  0  0  0  0  0  0999 V2000
   -9.1210   18.9030  -31.9360 C   0  0  0  0  0  0  0  0  0  0  0  0
   -8.3950   20.1020  -31.3270 C   0  0  0  0  0  0  0  0  0  0  0  0
   -7.9330   21.1070  -32.3950 C   0  0  0  0  0  0  0  0  0  0  0  0
   -6.5170   21.4880  -32.2070 N   0  0  0  0  0  0  0  0  0  0  0  0
   -6.2660   22.5710  -31.4060 C   0  0  0  0  0  0  0  0  0  0  0  0
   -4.9660   22.9960  -31.1380 C   0  0  0  0  0  0  0  0  0  0  0  0
   -4.7020   24.3590  -30.0460 S   0  0  0  0  0  0  0  0  0  0  0  0
   -5.9770   24.7200  -29.3360 O   0  0  0  0  0  0  0  0  0  0  0  0
   -4.2490   25.5580  -30.8340 O   0  0  0  0  0  0  0  0  0  0  0  0
   -3.4880   23.8990  -28.8580 C   0  0  0  0  0  0  0  0  0  0  0  0
   -2.4540   24.7810  -28.5100 C   0  0  0  0  0  0  0  0  0  0  0  0
   -1.4850   24.3930  -27.5800 C   0  0  0  0  0  0  0  0  0  0  0  0
   -1.5410   23.1220  -26.9970 C   0  0  0  0  0  0  0  0  0  0  0  0
   -0.3230   22.6360  -25.8320 Cl  0  0  0  0  0  0  0  0  0  0  0  0
   -2.5680   22.2390  -27.3460 C   0  0  0  0  0  0  0  0  0  0  0  0
   -3.5380   22.6250  -28.2760 C   0  0  0  0  0  0  0  0  0  0  0  0
   -3.8900   22.2950  -31.6880 C   0  0  0  0  0  0  0  0  0  0  0  0
   -2.7080   22.6560  -31.4310 O   0  0  0  0  0  0  0  0  0  0  0  0
   -4.1310   21.1860  -32.5170 C   0  0  0  0  0  0  0  0  0  0  0  0
   -3.0630   20.4700  -33.0860 C   0  0  0  0  0  0  0  0  0  0  0  0
   -3.2990   19.3640  -33.8980 C   0  0  0  0  0  0  0  0  0  0  0  0
   -4.6100   18.9400  -34.1600 C   0  0  0  0  0  0  0  0  0  0  0  0
   -4.8900   17.7940  -34.9930 N   0  0  0  0  0  0  0  0  0  0  0  0
   -4.9160   16.4020  -34.5120 C   0  0  0  0  0  0  0  0  0  0  0  0
   -4.1860   16.2740  -33.1460 C   0  0  0  0  0  0  0  0  0  0  0  0
   -5.1310   16.2410  -31.9300 C   0  0  0  0  0  0  0  0  0  0  0  0
   -6.3660   17.1120  -32.1600 C   0  0  0  0  0  0  0  0  0  0  0  0
   -7.2050   16.6000  -33.3460 C   0  0  0  0  0  0  0  0  0  0  0  0
   -6.3670   15.8830  -34.4270 C   0  0  0  0  0  0  0  0  0  0  0  0
   -5.6810   19.6510  -33.5980 C   0  0  0  0  0  0  0  0  0  0  0  0
   -5.4690   20.7820  -32.7720 C   0  0  0  0  0  0  0  0  0  0  0  0
   -9.5092   18.2618  -31.1309 H   0  0  0  0  0  0  0  0  0  0  0  0
   -9.9564   19.2573  -32.5577 H   0  0  0  0  0  0  0  0  0  0  0  0
   -8.4199   18.3269  -32.5577 H   0  0  0  0  0  0  0  0  0  0  0  0
   -9.0772   20.6130  -30.6316 H   0  0  0  0  0  0  0  0  0  0  0  0
   -7.5006   19.7265  -30.8082 H   0  0  0  0  0  0  0  0  0  0  0  0
   -8.0511   20.6511  -33.3891 H   0  0  0  0  0  0  0  0  0  0  0  0
   -8.5486   22.0140  -32.3033 H   0  0  0  0  0  0  0  0  0  0  0  0
   -7.1113   23.1185  -30.9636 H   0  0  0  0  0  0  0  0  0  0  0  0
   -2.4056   25.7792  -28.9695 H   0  0  0  0  0  0  0  0  0  0  0  0
   -0.6774   25.0878  -27.3061 H   0  0  0  0  0  0  0  0  0  0  0  0
   -2.6126   21.2397  -26.8883 H   0  0  0  0  0  0  0  0  0  0  0  0
   -4.3424   21.9271  -28.5516 H   0  0  0  0  0  0  0  0  0  0  0  0
   -2.0287   20.7875  -32.8872 H   0  0  0  0  0  0  0  0  0  0  0  0
   -2.4508   18.8185  -34.3374 H   0  0  0  0  0  0  0  0  0  0  0  0
   -5.0460   17.9690  -36.0110 H   0  0  0  0  0  0  0  0  0  0  0  0
   -4.3761   15.7744  -35.2363 H   0  0  0  0  0  0  0  0  0  0  0  0
   -3.5995   15.3434  -33.1533 H   0  0  0  0  0  0  0  0  0  0  0  0
   -3.5580   17.1704  -33.0361 H   0  0  0  0  0  0  0  0  0  0  0  0
   -5.4522   15.2037  -31.7543 H   0  0  0  0  0  0  0  0  0  0  0  0
   -4.5874   16.6341  -31.0582 H   0  0  0  0  0  0  0  0  0  0  0  0
   -6.9863   17.0997  -31.2517 H   0  0  0  0  0  0  0  0  0  0  0  0
   -6.0297   18.1336  -32.3907 H   0  0  0  0  0  0  0  0  0  0  0  0
   -7.9564   15.8941  -32.9624 H   0  0  0  0  0  0  0  0  0  0  0  0
   -7.6643   17.4790  -33.8218 H   0  0  0  0  0  0  0  0  0  0  0  0
   -6.3412   14.8082  -34.1941 H   0  0  0  0  0  0  0  0  0  0  0  0
   -6.8441   16.0830  -35.3978 H   0  0  0  0  0  0  0  0  0  0  0  0
   -6.7103   19.3222  -33.8038 H   0  0  0  0  0  0  0  0  0  0  0  0
  1  2  1  0
  2  3  1  0
  3  4  1  0
  4  5  1  0
  5  6  2  0
  6  7  1  0
  7  8  2  0
  7  9  2  0
  7 10  1  0
 10 11  2  0
 11 12  1  0
 12 13  2  0
 13 14  1  0
 13 15  1  0
 15 16  2  0
  6 17  1  0
 17 18  2  0
 17 19  1  0
 19 20  2  0
 20 21  1  0
 21 22  2  0
 22 23  1  0
 23 24  1  0
 24 25  1  0
 25 26  1  0
 26 27  1  0
 27 28  1  0
 28 29  1  0
 22 30  1  0
 30 31  2  0
 31  4  1  0
 16 10  1  0
 31 19  1  0
 29 24  1  0
  1 32  1  0
  1 33  1  0
  1 34  1  0
  2 35  1  0
  2 36  1  0
  3 37  1  0
  3 38  1  0
  5 39  1  0
 11 40  1  0
 12 41  1  0
 15 42  1  0
 16 43  1  0
 20 44  1  0
 21 45  1  0
 23 46  1  0
 24 47  1  0
 25 48  1  0
 25 49  1  0
 26 50  1  0
 26 51  1  0
 27 52  1  0
 27 53  1  0
 28 54  1  0
 28 55  1  0
 29 56  1  0
 29 57  1  0
 30 58  1  0
M  END
>  <UniqueID>  (36) 
35

>  <SMILES>  (36) 
CCCn1cc(S(=O)(=O)c2ccc(Cl)cc2)c(=O)c2ccc(NC3CCCCC3)cc21

>  <Energy>  (36) 
71.13205296908332

>  <Genealogy>  (36) 
CCCn1cc(S(=O)(=O)c2ccc(Cl)cc2)c(=O)c2ccc(NC3CCCCC3)cc21 (3D coordinates assigned)
CCCn1cc(S(=O)(=O)c2ccc(Cl)cc2)c(=O)c2ccc(NC3CCCCC3)cc21 (nonaromatic ring conformer: 71.13205296908332 kcal/mol)

>  <smiles>  (36) 
CCCn1cc(S(=O)(=O)c2ccc(Cl)cc2)c(=O)c2ccc(NC3CCCCC3)cc21

>  <score_type>  (36) 
oracle

>  <origin>  (36) 
adgpu

>  <m_score__min__energy>  (36) 
-10.869999999999999

>  <m_primary>  (36) 
energy

$$$$
36:0
     RDKit          3D

 27 28  0  0  0  0  0  0  0  0999 V2000
   -3.4610   23.6970  -28.4720 O   0  0  0  0  0  0  0  0  0  0  0  0
   -3.0810   24.5740  -29.2920 C   0  0  0  0  0  0  0  0  0  0  0  0
   -3.8700   24.8040  -30.4650 N   0  0  0  0  0  0  0  0  0  0  0  0
   -5.0490   24.0810  -30.8400 C   0  0  0  0  0  0  0  0  0  0  0  0
   -4.9120   22.8750  -31.5400 C   0  0  0  0  0  0  0  0  0  0  0  0
   -6.0420   22.1310  -31.8920 C   0  0  0  0  0  0  0  0  0  0  0  0
   -7.3180   22.5790  -31.5320 C   0  0  0  0  0  0  0  0  0  0  0  0
   -8.7350   21.6430  -31.9720 Cl  0  0  0  0  0  0  0  0  0  0  0  0
   -7.4600   23.7680  -30.8090 C   0  0  0  0  0  0  0  0  0  0  0  0
   -6.3320   24.5130  -30.4560 C   0  0  0  0  0  0  0  0  0  0  0  0
   -1.8630   25.3070  -29.0660 N   0  0  0  0  0  0  0  0  0  0  0  0
   -1.0370   25.1580  -27.9000 C   0  0  0  0  0  0  0  0  0  0  0  0
    0.0920   24.3190  -27.9000 C   0  0  0  0  0  0  0  0  0  0  0  0
    0.8920   24.2150  -26.7570 C   0  0  0  0  0  0  0  0  0  0  0  0
    0.5820   24.9540  -25.6130 C   0  0  0  0  0  0  0  0  0  0  0  0
   -0.5240   25.8090  -25.6120 C   0  0  0  0  0  0  0  0  0  0  0  0
   -0.9050   26.7490  -24.1810 Cl  0  0  0  0  0  0  0  0  0  0  0  0
   -1.3260   25.9160  -26.7550 C   0  0  0  0  0  0  0  0  0  0  0  0
   -3.9104   22.5119  -31.8139 H   0  0  0  0  0  0  0  0  0  0  0  0
   -5.9280   21.1917  -32.4530 H   0  0  0  0  0  0  0  0  0  0  0  0
   -8.4617   24.1171  -30.5178 H   0  0  0  0  0  0  0  0  0  0  0  0
   -6.4472   25.4405  -29.8759 H   0  0  0  0  0  0  0  0  0  0  0  0
   -1.5910   26.0440  -29.7540 H   0  0  0  0  0  0  0  0  0  0  0  0
    0.3467   23.7427  -28.8017 H   0  0  0  0  0  0  0  0  0  0  0  0
    1.7677   23.5493  -26.7592 H   0  0  0  0  0  0  0  0  0  0  0  0
    1.2080   24.8632  -24.7131 H   0  0  0  0  0  0  0  0  0  0  0  0
   -2.1884   26.5989  -26.7553 H   0  0  0  0  0  0  0  0  0  0  0  0
  1  2  2  0
  2  3  1  0
  3  4  1  0
  4  5  2  0
  5  6  1  0
  6  7  2  0
  7  8  1  0
  7  9  1  0
  9 10  2  0
  2 11  1  0
 11 12  1  0
 12 13  2  0
 13 14  1  0
 14 15  2  0
 15 16  1  0
 16 17  1  0
 16 18  2  0
 10  4  1  0
 18 12  1  0
  5 19  1  0
  6 20  1  0
  9 21  1  0
 10 22  1  0
 11 23  1  0
 13 24  1  0
 14 25  1  0
 15 26  1  0
 18 27  1  0
M  CHG  1   3  -1
M  END
>  <UniqueID>  (37) 
36

>  <SMILES>  (37) 
O=C([N-]c1ccc(Cl)cc1)Nc1cccc(Cl)c1

>  <Energy>  (37) 
35.874712944401644

>  <Genealogy>  (37) 
O=C([N-]c1ccc(Cl)cc1)Nc1cccc(Cl)c1 (protonated)
O=C([N-]c1ccc(Cl)cc1)Nc1cccc(Cl)c1 (3D coordinates assigned)
O=C([N-]c1ccc(Cl)cc1)Nc1cccc(Cl)c1 (optimized conformer: 35.874712944401644 kcal/mol)

>  <smiles>  (37) 
O=C(Nc1ccc(Cl)cc1)Nc1cccc(Cl)c1

>  <score_type>  (37) 
oracle

>  <origin>  (37) 
adgpu

>  <m_score__min__energy>  (37) 
-8.9199999999999999

>  <m_primary>  (37) 
energy

$$$$
37:0
     RDKit          3D

 45 47  0  0  1  0  0  0  0  0999 V2000
   -7.8230   18.4400  -31.5810 C   0  0  0  0  0  0  0  0  0  0  0  0
   -8.8930   19.0630  -32.3370 C   0  0  0  0  0  0  0  0  0  0  0  0
   -8.9750   20.3270  -32.6190 C   0  0  0  0  0  0  0  0  0  0  0  0
   -8.0780   21.3900  -32.2700 C   0  0  0  0  0  0  0  0  0  0  0  0
   -8.3340   22.5260  -31.5570 C   0  0  0  0  0  0  0  0  0  0  0  0
   -7.3510   23.4570  -31.2100 C   0  0  0  0  0  0  0  0  0  0  0  0
   -6.0600   23.2630  -31.5830 C   0  0  0  0  0  0  0  0  0  0  0  0
   -4.9960   24.1570  -31.2740 N   0  0  0  0  0  0  0  0  0  0  0  0
   -4.2390   24.0230  -30.2370 C   0  0  0  0  0  0  0  0  0  0  0  0
   -4.4380   22.9990  -29.3870 N   0  0  0  0  0  0  0  0  0  0  0  0
   -3.6480   22.8600  -28.3080 C   0  0  0  0  0  0  0  0  0  0  0  0
   -2.6230   23.7460  -28.0340 C   0  0  0  0  0  0  0  0  0  0  0  0
   -1.8500   23.4990  -26.8600 C   0  0  0  0  0  0  0  0  0  0  0  0
   -1.2360   23.2830  -25.9040 N   0  0  0  0  0  0  0  0  0  0  0  0
   -2.4320   24.7770  -28.9020 C   0  0  0  0  0  0  0  0  0  0  0  0
   -1.5380   25.6240  -28.7430 N   0  0  0  0  0  0  0  0  0  0  0  0
   -0.6170   25.6560  -27.6890 C   0  0  0  0  0  0  0  0  0  0  0  0
    0.5490   24.9290  -27.8200 C   0  0  0  0  0  0  0  0  0  0  0  0
    1.4950   24.9770  -26.7980 C   0  0  0  0  0  0  0  0  0  0  0  0
    1.2270   25.7560  -25.6870 C   0  0  0  0  0  0  0  0  0  0  0  0
    2.5480   25.7980  -24.3080 Br  0  0  0  0  0  0  0  0  0  0  0  0
    0.0420   26.4760  -25.5870 C   0  0  0  0  0  0  0  0  0  0  0  0
   -0.9110   26.4410  -26.5920 C   0  0  0  0  0  0  0  0  0  0  0  0
   -3.2530   24.8810  -29.9830 N   0  0  0  0  0  0  0  0  0  0  0  0
   -5.7740   22.1240  -32.3050 C   0  0  0  0  0  0  0  0  0  0  0  0
   -4.3760   21.8760  -32.7260 C   0  0  0  0  0  0  0  0  0  0  0  0
   -6.7400   21.2120  -32.6430 C   0  0  0  0  0  0  0  0  0  0  0  0
   -8.0196   18.5545  -30.5048 H   0  0  0  0  0  0  0  0  0  0  0  0
   -7.7709   17.3704  -31.8325 H   0  0  0  0  0  0  0  0  0  0  0  0
   -6.8671   18.9227  -31.8325 H   0  0  0  0  0  0  0  0  0  0  0  0
   -9.7006   18.4108  -32.7008 H   0  0  0  0  0  0  0  0  0  0  0  0
   -9.8552   20.6245  -33.2078 H   0  0  0  0  0  0  0  0  0  0  0  0
   -9.3692   22.7187  -31.2387 H   0  0  0  0  0  0  0  0  0  0  0  0
   -7.6248   24.3517  -30.6316 H   0  0  0  0  0  0  0  0  0  0  0  0
   -5.1970   22.3210  -29.5660 H   0  0  0  0  0  0  0  0  0  0  0  0
   -3.8224   22.0168  -27.6234 H   0  0  0  0  0  0  0  0  0  0  0  0
    0.7289   24.3204  -28.7184 H   0  0  0  0  0  0  0  0  0  0  0  0
    2.4336   24.4083  -26.8731 H   0  0  0  0  0  0  0  0  0  0  0  0
   -0.1429   27.0865  -24.6908 H   0  0  0  0  0  0  0  0  0  0  0  0
   -1.8509   27.0079  -26.5198 H   0  0  0  0  0  0  0  0  0  0  0  0
   -3.1110   25.6720  -30.6520 H   0  0  0  0  0  0  0  0  0  0  0  0
   -3.7396   21.7631  -31.8359 H   0  0  0  0  0  0  0  0  0  0  0  0
   -4.3319   20.9560  -33.3274 H   0  0  0  0  0  0  0  0  0  0  0  0
   -4.0181   22.7247  -33.3274 H   0  0  0  0  0  0  0  0  0  0  0  0
   -6.4576   20.3195  -33.2207 H   0  0  0  0  0  0  0  0  0  0  0  0
  1  2  1  0
  2  3  2  0
  3  4  1  0
  4  5  2  0
  5  6  1  0
  6  7  2  0
  7  8  1  0
  8  9  2  0
  9 10  1  0
 10 11  1  0
 11 12  2  0
 12 13  1  0
 13 14  3  0
 12 15  1  0
 15 16  2  0
 16 17  1  0
 17 18  2  0
 18 19  1  0
 19 20  2  0
 20 21  1  0
 20 22  1  0
 22 23  2  0
 15 24  1  0
  7 25  1  0
 25 26  1  0
 25 27  2  0
 27  4  1  0
 24  9  1  0
 23 17  1  0
  1 28  1  0
  1 29  1  0
  1 30  1  0
  2 31  1  0
  3 32  1  0
  5 33  1  0
  6 34  1  0
 10 35  1  0
 11 36  1  0
 18 37  1  0
 19 38  1  0
 22 39  1  0
 23 40  1  0
 24 41  1  0
 26 42  1  0
 26 43  1  0
 26 44  1  0
 27 45  1  0
M  END
>  <smiles>  (38) 
CC=Cc1ccc(N=c2[nH]cc(C#N)c(=Nc3ccc(Br)cc3)[nH]2)c(C)c1

>  <score_type>  (38) 
oracle

>  <origin>  (38) 
adgpu

>  <m_score__min__energy>  (38) 
-10.24

>  <m_primary>  (38) 
energy

$$$$
38:0
     RDKit          3D

 40 42  0  0  0  0  0  0  0  0999 V2000
    1.4440   23.9010  -28.1920 H   0  0  0  0  0  0  0  0  0  0  0  0
    0.6350   24.5570  -28.1240 N   0  0  0  0  0  0  0  0  0  0  0  0
   -0.5070   24.3000  -28.6820 C   0  0  0  0  0  0  0  0  0  0  0  0
   -1.5590   25.2100  -28.5670 C   0  0  0  0  0  0  0  0  0  0  0  0
   -1.4231   26.1462  -28.0057 H   0  0  0  0  0  0  0  0  0  0  0  0
   -2.7510   24.9310  -29.1530 N   0  0  0  0  0  0  0  0  0  0  0  0
   -2.9570   23.7810  -29.8530 C   0  0  0  0  0  0  0  0  0  0  0  0
   -4.2810   23.5320  -30.4770 C   0  0  0  0  0  0  0  0  0  0  0  0
   -5.2450   24.5550  -30.5020 C   0  0  0  0  0  0  0  0  0  0  0  0
   -5.0096   25.5363  -30.0643 H   0  0  0  0  0  0  0  0  0  0  0  0
   -6.4980   24.3370  -31.0770 C   0  0  0  0  0  0  0  0  0  0  0  0
   -7.2415   25.1475  -31.0929 H   0  0  0  0  0  0  0  0  0  0  0  0
   -6.8120   23.0950  -31.6320 C   0  0  0  0  0  0  0  0  0  0  0  0
   -8.0500   22.8970  -32.1530 F   0  0  0  0  0  0  0  0  0  0  0  0
   -5.8650   22.0560  -31.6160 C   0  0  0  0  0  0  0  0  0  0  0  0
   -6.1880   20.7270  -32.1860 C   0  0  0  0  0  0  0  0  0  0  0  0
   -7.3630   20.0730  -31.7850 C   0  0  0  0  0  0  0  0  0  0  0  0
   -8.0285   20.5493  -31.0500 H   0  0  0  0  0  0  0  0  0  0  0  0
   -7.6940   18.8250  -32.3100 C   0  0  0  0  0  0  0  0  0  0  0  0
   -8.6207   18.3268  -31.9892 H   0  0  0  0  0  0  0  0  0  0  0  0
   -6.8580   18.2010  -33.2410 C   0  0  0  0  0  0  0  0  0  0  0  0
   -7.2420   16.9480  -33.7400 O   0  0  0  0  0  0  0  0  0  0  0  0
   -6.3530   15.8510  -33.9320 C   0  0  0  0  0  0  0  0  0  0  0  0
   -6.0363   15.4602  -32.9538 H   0  0  0  0  0  0  0  0  0  0  0  0
   -6.8660   15.0575  -34.4952 H   0  0  0  0  0  0  0  0  0  0  0  0
   -5.4705   16.1885  -34.4952 H   0  0  0  0  0  0  0  0  0  0  0  0
   -5.6720   18.8450  -33.6400 C   0  0  0  0  0  0  0  0  0  0  0  0
   -5.0092   18.3606  -34.3722 H   0  0  0  0  0  0  0  0  0  0  0  0
   -5.3250   20.1040  -33.1110 C   0  0  0  0  0  0  0  0  0  0  0  0
   -4.1310   20.7530  -33.4680 O   0  0  0  0  0  0  0  0  0  0  0  0
   -2.8250   20.2590  -33.1890 C   0  0  0  0  0  0  0  0  0  0  0  0
   -2.6788   20.2037  -32.1002 H   0  0  0  0  0  0  0  0  0  0  0  0
   -2.7114   19.2558  -33.6256 H   0  0  0  0  0  0  0  0  0  0  0  0
   -2.0759   20.9359  -33.6256 H   0  0  0  0  0  0  0  0  0  0  0  0
   -4.6090   22.2770  -31.0270 C   0  0  0  0  0  0  0  0  0  0  0  0
   -3.8727   21.4604  -30.9948 H   0  0  0  0  0  0  0  0  0  0  0  0
   -1.8910   22.8720  -29.9750 C   0  0  0  0  0  0  0  0  0  0  0  0
   -2.0236   21.9399  -30.5439 H   0  0  0  0  0  0  0  0  0  0  0  0
   -0.6960   23.1480  -29.3880 N   0  0  0  0  0  0  0  0  0  0  0  0
    0.0840   22.4600  -29.4930 H   0  0  0  0  0  0  0  0  0  0  0  0
  1  2  1  0
  2  3  2  0
  3  4  1  0
  4  5  1  0
  4  6  2  0
  6  7  1  0
  7  8  1  0
  8  9  2  0
  9 10  1  0
  9 11  1  0
 11 12  1  0
 11 13  2  0
 13 14  1  0
 13 15  1  0
 15 16  1  0
 16 17  2  0
 17 18  1  0
 17 19  1  0
 19 20  1  0
 19 21  2  0
 21 22  1  0
 22 23  1  0
 23 24  1  0
 23 25  1  0
 23 26  1  0
 21 27  1  0
 27 28  1  0
 27 29  2  0
 29 30  1  0
 30 31  1  0
 31 32  1  0
 31 33  1  0
 31 34  1  0
 15 35  2  0
 35 36  1  0
  7 37  2  0
 37 38  1  0
 37 39  1  0
 39 40  1  0
 39  3  1  0
 35  8  1  0
 29 16  1  0
M  END
>  <UniqueID>  (39) 
37

>  <SMILES>  (39) 
[H]/N=c1/cnc(-c2ccc(F)c(-c3ccc(OC)cc3OC)c2)c[nH]1

>  <Energy>  (39) 
54.055219890115076

>  <Genealogy>  (39) 
[H]/N=c1/cnc(-c2ccc(F)c(-c3ccc(OC)cc3OC)c2)c[nH]1 (cis-trans isomerization)
[H]/N=c1/cnc(-c2ccc(F)c(-c3ccc(OC)cc3OC)c2)c[nH]1 (3D coordinates assigned)
[H]/N=c1/cnc(-c2ccc(F)c(-c3ccc(OC)cc3OC)c2)c[nH]1 (optimized conformer: 54.055219890115076 kcal/mol)

>  <smiles>  (39) 
COc1ccc(-c2cc(-c3c[nH]c(=N)cn3)ccc2F)c(OC)c1

>  <score_type>  (39) 
oracle

>  <origin>  (39) 
adgpu

>  <m_score__min__energy>  (39) 
-7.4800000000000004

>  <m_primary>  (39) 
energy

$$$$
39:0
     RDKit          3D

 32 33  0  0  0  0  0  0  0  0999 V2000
   -8.7350   18.6790  -32.2650 C   0  0  0  0  0  0  0  0  0  0  0  0
   -7.4820   17.8990  -31.8710 C   0  0  0  0  0  0  0  0  0  0  0  0
   -6.8620   17.1410  -33.0530 C   0  0  0  0  0  0  0  0  0  0  0  0
   -6.0980   18.0580  -33.9700 C   0  0  0  0  0  0  0  0  0  0  0  0
   -5.9600   17.7260  -35.1780 O   0  0  0  0  0  0  0  0  0  0  0  0
   -5.4820   19.3160  -33.5020 C   0  0  0  0  0  0  0  0  0  0  0  0
   -6.1700   20.2450  -32.8070 N   0  0  0  0  0  0  0  0  0  0  0  0
   -5.2720   21.2290  -32.5810 C   0  0  0  0  0  0  0  0  0  0  0  0
   -5.5900   22.4760  -31.8400 C   0  0  0  0  0  0  0  0  0  0  0  0
   -6.9320   22.8550  -31.6540 C   0  0  0  0  0  0  0  0  0  0  0  0
   -7.2480   24.0250  -30.9580 C   0  0  0  0  0  0  0  0  0  0  0  0
   -6.2330   24.8310  -30.4400 C   0  0  0  0  0  0  0  0  0  0  0  0
   -4.8920   24.4700  -30.6160 C   0  0  0  0  0  0  0  0  0  0  0  0
   -3.8510   25.2960  -30.0850 N   0  0  0  0  0  0  0  0  0  0  0  0
   -4.5720   23.2950  -31.3130 C   0  0  0  0  0  0  0  0  0  0  0  0
   -4.0600   20.8760  -33.1440 C   0  0  0  0  0  0  0  0  0  0  0  0
   -4.1990   19.6730  -33.7220 N   0  0  0  0  0  0  0  0  0  0  0  0
   -9.2628   19.0076  -31.3576 H   0  0  0  0  0  0  0  0  0  0  0  0
   -8.4476   19.5580  -32.8606 H   0  0  0  0  0  0  0  0  0  0  0  0
   -9.3969   18.0331  -32.8606 H   0  0  0  0  0  0  0  0  0  0  0  0
   -6.7371   18.6054  -31.4759 H   0  0  0  0  0  0  0  0  0  0  0  0
   -7.7765   17.1551  -31.1161 H   0  0  0  0  0  0  0  0  0  0  0  0
   -6.1753   16.3751  -32.6633 H   0  0  0  0  0  0  0  0  0  0  0  0
   -7.6789   16.6845  -33.6311 H   0  0  0  0  0  0  0  0  0  0  0  0
   -7.7383   22.2260  -32.0593 H   0  0  0  0  0  0  0  0  0  0  0  0
   -8.3007   24.3118  -30.8179 H   0  0  0  0  0  0  0  0  0  0  0  0
   -6.4871   25.7508  -29.8929 H   0  0  0  0  0  0  0  0  0  0  0  0
   -3.1010   25.6740  -30.7050 H   0  0  0  0  0  0  0  0  0  0  0  0
   -3.8240   25.5360  -29.0680 H   0  0  0  0  0  0  0  0  0  0  0  0
   -3.5180   23.0111  -31.4490 H   0  0  0  0  0  0  0  0  0  0  0  0
   -3.1395   21.4779  -33.1220 H   0  0  0  0  0  0  0  0  0  0  0  0
   -3.4560   19.1500  -34.2340 H   0  0  0  0  0  0  0  0  0  0  0  0
  1  2  1  0
  2  3  1  0
  3  4  1  0
  4  5  2  0
  4  6  1  0
  6  7  2  0
  7  8  1  0
  8  9  1  0
  9 10  2  0
 10 11  1  0
 11 12  2  0
 12 13  1  0
 13 14  1  0
 13 15  2  0
  8 16  2  0
 16 17  1  0
 17  6  1  0
 15  9  1  0
  1 18  1  0
  1 19  1  0
  1 20  1  0
  2 21  1  0
  2 22  1  0
  3 23  1  0
  3 24  1  0
 10 25  1  0
 11 26  1  0
 12 27  1  0
 14 28  1  0
 14 29  1  0
 15 30  1  0
 16 31  1  0
 17 32  1  0
M  END
>  <UniqueID>  (40) 
38

>  <SMILES>  (40) 
CCCC(=O)c1nc(-c2cccc(N)c2)c[nH]1

>  <Energy>  (40) 
55.616578807505

>  <Genealogy>  (40) 
CCCC(=O)c1nc(-c2cccc(N)c2)c[nH]1 (3D coordinates assigned)
CCCC(=O)c1nc(-c2cccc(N)c2)c[nH]1 (optimized conformer: 55.616578807505 kcal/mol)

>  <smiles>  (40) 
CCCC(=O)c1nc(-c2cccc(N)c2)c[nH]1

>  <score_type>  (40) 
oracle

>  <origin>  (40) 
adgpu

>  <m_score__min__energy>  (40) 
-7.25

>  <m_primary>  (40) 
energy

$$$$
40:0
     RDKit          3D

 35 37  0  0  0  0  0  0  0  0999 V2000
    1.0480   16.1320  -27.2700 C   0  0  0  0  0  0  0  0  0  0  0  0
    0.6260   17.2490  -28.1640 C   0  0  0  0  0  0  0  0  0  0  0  0
    0.1050   18.4060  -27.7100 N   0  0  0  0  0  0  0  0  0  0  0  0
   -0.1410   19.1020  -28.8390 C   0  0  0  0  0  0  0  0  0  0  0  0
   -0.7260   20.4650  -28.8570 C   0  0  0  0  0  0  0  0  0  0  0  0
   -1.5090   20.9400  -27.7880 C   0  0  0  0  0  0  0  0  0  0  0  0
   -2.0530   22.2270  -27.8240 C   0  0  0  0  0  0  0  0  0  0  0  0
   -1.8300   23.0570  -28.9280 C   0  0  0  0  0  0  0  0  0  0  0  0
   -2.5330   24.6710  -28.9730 S   0  0  0  0  0  0  0  0  0  0  0  0
   -3.4120   24.8510  -27.7690 O   0  0  0  0  0  0  0  0  0  0  0  0
   -1.4570   25.7200  -28.9570 O   0  0  0  0  0  0  0  0  0  0  0  0
   -3.4880   24.8640  -30.4080 N   0  0  0  0  0  0  0  0  0  0  0  0
   -4.5080   23.9580  -30.8530 C   0  0  0  0  0  0  0  0  0  0  0  0
   -4.2000   22.7980  -31.5880 C   0  0  0  0  0  0  0  0  0  0  0  0
   -5.2180   21.9320  -32.0000 C   0  0  0  0  0  0  0  0  0  0  0  0
   -6.5480   22.2160  -31.6880 C   0  0  0  0  0  0  0  0  0  0  0  0
   -6.8660   23.3670  -30.9640 C   0  0  0  0  0  0  0  0  0  0  0  0
   -5.8520   24.2380  -30.5460 C   0  0  0  0  0  0  0  0  0  0  0  0
   -6.2870   25.6750  -29.6300 Cl  0  0  0  0  0  0  0  0  0  0  0  0
   -1.0490   22.5950  -29.9940 C   0  0  0  0  0  0  0  0  0  0  0  0
   -0.5030   21.3090  -29.9600 C   0  0  0  0  0  0  0  0  0  0  0  0
    0.2370   18.3380  -29.9290 C   0  0  0  0  0  0  0  0  0  0  0  0
    0.7030   17.2030  -29.4740 O   0  0  0  0  0  0  0  0  0  0  0  0
    0.9321   16.4389  -26.2201 H   0  0  0  0  0  0  0  0  0  0  0  0
    0.4214   15.2493  -27.4653 H   0  0  0  0  0  0  0  0  0  0  0  0
    2.1018   15.8841  -27.4653 H   0  0  0  0  0  0  0  0  0  0  0  0
   -1.6942   20.2934  -26.9176 H   0  0  0  0  0  0  0  0  0  0  0  0
   -2.6592   22.5889  -26.9805 H   0  0  0  0  0  0  0  0  0  0  0  0
   -3.1534   22.5713  -31.8397 H   0  0  0  0  0  0  0  0  0  0  0  0
   -4.9697   21.0253  -32.5711 H   0  0  0  0  0  0  0  0  0  0  0  0
   -7.3466   21.5327  -32.0126 H   0  0  0  0  0  0  0  0  0  0  0  0
   -7.9155   23.5901  -30.7214 H   0  0  0  0  0  0  0  0  0  0  0  0
   -0.8645   23.2462  -30.8611 H   0  0  0  0  0  0  0  0  0  0  0  0
    0.1068   20.9535  -30.8036 H   0  0  0  0  0  0  0  0  0  0  0  0
    0.1598   18.6315  -30.9863 H   0  0  0  0  0  0  0  0  0  0  0  0
  1  2  1  0
  2  3  2  0
  3  4  1  0
  4  5  1  0
  5  6  2  0
  6  7  1  0
  7  8  2  0
  8  9  1  0
  9 10  2  0
  9 11  2  0
  9 12  1  0
 12 13  1  0
 13 14  2  0
 14 15  1  0
 15 16  2  0
 16 17  1  0
 17 18  2  0
 18 19  1  0
  8 20  1  0
 20 21  2  0
  4 22  2  0
 22 23  1  0
 23  2  1  0
 21  5  1  0
 18 13  1  0
  1 24  1  0
  1 25  1  0
  1 26  1  0
  6 27  1  0
  7 28  1  0
 14 29  1  0
 15 30  1  0
 16 31  1  0
 17 32  1  0
 20 33  1  0
 21 34  1  0
 22 35  1  0
M  CHG  1  12  -1
M  END
>  <UniqueID>  (41) 
39

>  <SMILES>  (41) 
Cc1nc(-c2ccc(S(=O)(=O)[N-]c3ccccc3Cl)cc2)co1

>  <Energy>  (41) 
70.39817749489998

>  <Genealogy>  (41) 
Cc1nc(-c2ccc(S(=O)(=O)[N-]c3ccccc3Cl)cc2)co1 (protonated)
Cc1nc(-c2ccc(S(=O)(=O)[N-]c3ccccc3Cl)cc2)co1 (3D coordinates assigned)
Cc1nc(-c2ccc(S(=O)(=O)[N-]c3ccccc3Cl)cc2)co1 (optimized conformer: 70.39817749489998 kcal/mol)

>  <smiles>  (41) 
Cc1nc(-c2ccc(S(=O)(=O)Nc3ccccc3Cl)cc2)co1

>  <score_type>  (41) 
oracle

>  <origin>  (41) 
adgpu

>  <m_score__min__energy>  (41) 
-9.3900000000000006

>  <m_primary>  (41) 
energy

$$$$
41:0
     RDKit          3D

 35 37  0  0  0  0  0  0  0  0999 V2000
   -5.3310   25.6900  -30.4700 C   0  0  0  0  0  0  0  0  0  0  0  0
   -3.9500   25.3420  -30.4680 O   0  0  0  0  0  0  0  0  0  0  0  0
   -3.4410   24.0800  -30.1230 C   0  0  0  0  0  0  0  0  0  0  0  0
   -2.6030   23.9070  -29.0010 C   0  0  0  0  0  0  0  0  0  0  0  0
   -2.0740   22.6510  -28.7000 C   0  0  0  0  0  0  0  0  0  0  0  0
   -2.3650   21.5560  -29.5100 C   0  0  0  0  0  0  0  0  0  0  0  0
   -3.1980   21.7100  -30.6190 C   0  0  0  0  0  0  0  0  0  0  0  0
   -3.7570   22.9570  -30.9260 C   0  0  0  0  0  0  0  0  0  0  0  0
   -4.6040   23.0300  -32.0460 O   0  0  0  0  0  0  0  0  0  0  0  0
   -5.8290   22.3640  -32.1820 C   0  0  0  0  0  0  0  0  0  0  0  0
   -7.0000   23.0570  -31.8720 C   0  0  0  0  0  0  0  0  0  0  0  0
   -8.2290   22.3980  -31.9540 C   0  0  0  0  0  0  0  0  0  0  0  0
   -9.2900   23.0060  -31.6570 O   0  0  0  0  0  0  0  0  0  0  0  0
   -8.2870   21.1280  -32.3400 O   0  0  0  0  0  0  0  0  0  0  0  0
   -7.2050   20.4300  -32.6770 C   0  0  0  0  0  0  0  0  0  0  0  0
   -7.3430   19.1000  -33.0870 C   0  0  0  0  0  0  0  0  0  0  0  0
   -6.2180   18.3520  -33.4600 C   0  0  0  0  0  0  0  0  0  0  0  0
   -6.3750   16.9390  -33.9380 C   0  0  0  0  0  0  0  0  0  0  0  0
   -4.9540   18.9580  -33.4590 C   0  0  0  0  0  0  0  0  0  0  0  0
   -4.8040   20.2860  -33.0470 C   0  0  0  0  0  0  0  0  0  0  0  0
   -5.9230   21.0280  -32.6280 C   0  0  0  0  0  0  0  0  0  0  0  0
   -5.6880   25.7800  -29.4334 H   0  0  0  0  0  0  0  0  0  0  0  0
   -5.4664   26.6503  -30.9891 H   0  0  0  0  0  0  0  0  0  0  0  0
   -5.9053   24.9085  -30.9891 H   0  0  0  0  0  0  0  0  0  0  0  0
   -2.3650   24.7680  -28.3591 H   0  0  0  0  0  0  0  0  0  0  0  0
   -1.4254   22.5256  -27.8205 H   0  0  0  0  0  0  0  0  0  0  0  0
   -1.9382   20.5697  -29.2756 H   0  0  0  0  0  0  0  0  0  0  0  0
   -3.4179   20.8427  -31.2589 H   0  0  0  0  0  0  0  0  0  0  0  0
   -6.9556   24.1126  -31.5659 H   0  0  0  0  0  0  0  0  0  0  0  0
   -8.3409   18.6381  -33.1169 H   0  0  0  0  0  0  0  0  0  0  0  0
   -6.4499   16.2651  -33.0718 H   0  0  0  0  0  0  0  0  0  0  0  0
   -7.2878   16.8570  -34.5464 H   0  0  0  0  0  0  0  0  0  0  0  0
   -5.5025   16.6586  -34.5464 H   0  0  0  0  0  0  0  0  0  0  0  0
   -4.0735   18.3847  -33.7847 H   0  0  0  0  0  0  0  0  0  0  0  0
   -3.8075   20.7518  -33.0506 H   0  0  0  0  0  0  0  0  0  0  0  0
  1  2  1  0
  2  3  1  0
  3  4  2  0
  4  5  1  0
  5  6  2  0
  6  7  1  0
  7  8  2  0
  8  9  1  0
  9 10  1  0
 10 11  2  0
 11 12  1  0
 12 13  2  0
 12 14  1  0
 14 15  1  0
 15 16  2  0
 16 17  1  0
 17 18  1  0
 17 19  2  0
 19 20  1  0
 20 21  2  0
  8  3  1  0
 21 10  1  0
 21 15  1  0
  1 22  1  0
  1 23  1  0
  1 24  1  0
  4 25  1  0
  5 26  1  0
  6 27  1  0
  7 28  1  0
 11 29  1  0
 16 30  1  0
 18 31  1  0
 18 32  1  0
 18 33  1  0
 19 34  1  0
 20 35  1  0
M  END
>  <UniqueID>  (42) 
40

>  <SMILES>  (42) 
COc1ccccc1Oc1cc(=O)oc2cc(C)ccc12

>  <Energy>  (42) 
50.39689475817305

>  <Genealogy>  (42) 
COc1ccccc1Oc1cc(=O)oc2cc(C)ccc12 (3D coordinates assigned)
COc1ccccc1Oc1cc(=O)oc2cc(C)ccc12 (optimized conformer: 50.39689475817305 kcal/mol)

>  <smiles>  (42) 
COc1ccccc1Oc1cc(=O)oc2cc(C)ccc12

>  <score_type>  (42) 
oracle

>  <origin>  (42) 
adgpu

>  <m_score__min__energy>  (42) 
-7.9500000000000002

>  <m_primary>  (42) 
energy

$$$$
42:0
     RDKit          3D

 46 48  0  0  0  0  0  0  0  0999 V2000
   -0.4890   26.2620  -24.4920 C   0  0  0  0  0  0  0  0  0  0  0  0
   -1.0270   25.9000  -25.8460 C   0  0  0  0  0  0  0  0  0  0  0  0
   -0.7230   26.7060  -26.9510 C   0  0  0  0  0  0  0  0  0  0  0  0
   -1.1980   26.3740  -28.2210 C   0  0  0  0  0  0  0  0  0  0  0  0
   -1.9910   25.2250  -28.4070 C   0  0  0  0  0  0  0  0  0  0  0  0
   -2.4830   24.8640  -29.7070 N   0  0  0  0  0  0  0  0  0  0  0  0
   -4.1550   24.6350  -30.1010 S   0  0  0  0  0  0  0  0  0  0  0  0
   -4.5700   25.6720  -31.1060 O   0  0  0  0  0  0  0  0  0  0  0  0
   -4.9730   24.8250  -28.8550 O   0  0  0  0  0  0  0  0  0  0  0  0
   -4.4330   23.0360  -30.7840 C   0  0  0  0  0  0  0  0  0  0  0  0
   -3.6100   21.9630  -30.4200 C   0  0  0  0  0  0  0  0  0  0  0  0
   -3.7950   20.7030  -31.0000 C   0  0  0  0  0  0  0  0  0  0  0  0
   -4.8190   20.4990  -31.9440 C   0  0  0  0  0  0  0  0  0  0  0  0
   -4.9950   19.2370  -32.6120 N   0  0  0  0  0  0  0  0  0  0  0  0
   -6.0280   18.2840  -32.3040 C   0  0  0  0  0  0  0  0  0  0  0  0
   -7.0360   18.6410  -31.6330 O   0  0  0  0  0  0  0  0  0  0  0  0
   -5.9530   16.8970  -32.8260 C   0  0  0  0  0  0  0  0  0  0  0  0
   -6.8510   16.4610  -33.8180 C   0  0  0  0  0  0  0  0  0  0  0  0
   -6.7640   15.1600  -34.3320 C   0  0  0  0  0  0  0  0  0  0  0  0
   -5.7920   14.2770  -33.8510 C   0  0  0  0  0  0  0  0  0  0  0  0
   -4.9070   14.6910  -32.8480 C   0  0  0  0  0  0  0  0  0  0  0  0
   -3.6930   13.5790  -32.2360 Cl  0  0  0  0  0  0  0  0  0  0  0  0
   -4.9850   15.9950  -32.3390 C   0  0  0  0  0  0  0  0  0  0  0  0
   -5.6370   21.5800  -32.3050 C   0  0  0  0  0  0  0  0  0  0  0  0
   -5.4480   22.8380  -31.7280 C   0  0  0  0  0  0  0  0  0  0  0  0
   -2.2980   24.4080  -27.2980 C   0  0  0  0  0  0  0  0  0  0  0  0
   -3.0840   23.1360  -27.4800 C   0  0  0  0  0  0  0  0  0  0  0  0
   -1.8070   24.7480  -26.0250 C   0  0  0  0  0  0  0  0  0  0  0  0
   -1.1336   25.8282  -23.7133 H   0  0  0  0  0  0  0  0  0  0  0  0
    0.5318   25.8663  -24.3853 H   0  0  0  0  0  0  0  0  0  0  0  0
   -0.4710   27.3567  -24.3853 H   0  0  0  0  0  0  0  0  0  0  0  0
   -0.1058   27.6066  -26.8169 H   0  0  0  0  0  0  0  0  0  0  0  0
   -0.9515   27.0135  -29.0814 H   0  0  0  0  0  0  0  0  0  0  0  0
   -2.8146   22.1113  -29.6748 H   0  0  0  0  0  0  0  0  0  0  0  0
   -3.1371   19.8681  -30.7169 H   0  0  0  0  0  0  0  0  0  0  0  0
   -4.3880   19.0490  -33.4450 H   0  0  0  0  0  0  0  0  0  0  0  0
   -7.6262   17.1457  -34.1924 H   0  0  0  0  0  0  0  0  0  0  0  0
   -7.4624   14.8324  -35.1162 H   0  0  0  0  0  0  0  0  0  0  0  0
   -5.7228   13.2583  -34.2602 H   0  0  0  0  0  0  0  0  0  0  0  0
   -4.2855   16.3169  -31.5535 H   0  0  0  0  0  0  0  0  0  0  0  0
   -6.4343   21.4357  -33.0490 H   0  0  0  0  0  0  0  0  0  0  0  0
   -6.0991   23.6764  -32.0164 H   0  0  0  0  0  0  0  0  0  0  0  0
   -3.3412   22.7198  -26.4948 H   0  0  0  0  0  0  0  0  0  0  0  0
   -4.0064   23.3518  -28.0390 H   0  0  0  0  0  0  0  0  0  0  0  0
   -2.4784   22.4075  -28.0390 H   0  0  0  0  0  0  0  0  0  0  0  0
   -2.0365   24.1052  -25.1623 H   0  0  0  0  0  0  0  0  0  0  0  0
  1  2  1  0
  2  3  2  0
  3  4  1  0
  4  5  2  0
  5  6  1  0
  6  7  1  0
  7  8  2  0
  7  9  2  0
  7 10  1  0
 10 11  2  0
 11 12  1  0
 12 13  2  0
 13 14  1  0
 14 15  1  0
 15 16  2  0
 15 17  1  0
 17 18  2  0
 18 19  1  0
 19 20  2  0
 20 21  1  0
 21 22  1  0
 21 23  2  0
 13 24  1  0
 24 25  2  0
  5 26  1  0
 26 27  1  0
 26 28  2  0
 28  2  1  0
 25 10  1  0
 23 17  1  0
  1 29  1  0
  1 30  1  0
  1 31  1  0
  3 32  1  0
  4 33  1  0
 11 34  1  0
 12 35  1  0
 14 36  1  0
 18 37  1  0
 19 38  1  0
 20 39  1  0
 23 40  1  0
 24 41  1  0
 25 42  1  0
 27 43  1  0
 27 44  1  0
 27 45  1  0
 28 46  1  0
M  CHG  1   6  -1
M  END
>  <UniqueID>  (43) 
41

>  <SMILES>  (43) 
Cc1ccc([N-]S(=O)(=O)c2ccc(NC(=O)c3cccc(Cl)c3)cc2)c(C)c1

>  <Energy>  (43) 
57.89453108949697

>  <Genealogy>  (43) 
Cc1ccc([N-]S(=O)(=O)c2ccc(NC(=O)c3cccc(Cl)c3)cc2)c(C)c1 (protonated)
Cc1ccc([N-]S(=O)(=O)c2ccc(NC(=O)c3cccc(Cl)c3)cc2)c(C)c1 (3D coordinates assigned)
Cc1ccc([N-]S(=O)(=O)c2ccc(NC(=O)c3cccc(Cl)c3)cc2)c(C)c1 (optimized conformer: 57.89453108949697 kcal/mol)

>  <smiles>  (43) 
Cc1ccc(NS(=O)(=O)c2ccc(NC(=O)c3cccc(Cl)c3)cc2)c(C)c1

>  <score_type>  (43) 
oracle

>  <origin>  (43) 
adgpu

>  <m_score__min__energy>  (43) 
-10.140000000000001

>  <m_primary>  (43) 
energy

$$$$
43:0
     RDKit          3D

 53 57  0  0  0  0  0  0  0  0999 V2000
   -0.7780   26.3350  -23.9630 C   0  0  0  0  0  0  0  0  0  0  0  0
   -1.6460   26.7450  -25.0140 O   0  0  0  0  0  0  0  0  0  0  0  0
   -2.0210   25.9300  -26.0930 C   0  0  0  0  0  0  0  0  0  0  0  0
   -1.1930   25.7260  -27.2130 C   0  0  0  0  0  0  0  0  0  0  0  0
   -1.6140   24.9050  -28.2610 C   0  0  0  0  0  0  0  0  0  0  0  0
   -2.8610   24.2650  -28.2050 C   0  0  0  0  0  0  0  0  0  0  0  0
   -3.3140   23.4280  -29.3350 C   0  0  0  0  0  0  0  0  0  0  0  0
   -4.6700   23.3350  -29.6780 C   0  0  0  0  0  0  0  0  0  0  0  0
   -5.0390   22.5830  -30.8100 C   0  0  0  0  0  0  0  0  0  0  0  0
   -6.4630   22.4200  -31.2230 C   0  0  0  0  0  0  0  0  0  0  0  0
   -7.2540   23.5220  -31.6080 C   0  0  0  0  0  0  0  0  0  0  0  0
   -8.5930   23.3440  -31.9670 C   0  0  0  0  0  0  0  0  0  0  0  0
   -9.1600   22.0690  -31.9590 C   0  0  0  0  0  0  0  0  0  0  0  0
   -8.3840   20.9550  -31.6100 C   0  0  0  0  0  0  0  0  0  0  0  0
   -8.9660   19.5730  -31.6900 C   0  0  0  0  0  0  0  0  0  0  0  0
   -7.0380   21.1300  -31.2610 C   0  0  0  0  0  0  0  0  0  0  0  0
   -4.0630   21.9700  -31.5360 N   0  0  0  0  0  0  0  0  0  0  0  0
   -2.7530   22.0600  -31.1850 C   0  0  0  0  0  0  0  0  0  0  0  0
   -1.4880   21.3270  -32.2200 S   0  0  0  0  0  0  0  0  0  0  0  0
   -2.5700   21.1000  -33.6810 C   0  0  0  0  0  0  0  0  0  0  0  0
   -3.5140   19.9490  -33.4920 C   0  0  0  0  0  0  0  0  0  0  0  0
   -3.0930   18.6600  -33.3970 N   0  0  0  0  0  0  0  0  0  0  0  0
   -4.2510   17.9780  -33.3890 C   0  0  0  0  0  0  0  0  0  0  0  0
   -4.4300   16.5970  -33.3200 C   0  0  0  0  0  0  0  0  0  0  0  0
   -5.7500   16.1080  -33.3640 C   0  0  0  0  0  0  0  0  0  0  0  0
   -6.8400   17.0000  -33.4820 C   0  0  0  0  0  0  0  0  0  0  0  0
   -6.6180   18.3890  -33.5470 C   0  0  0  0  0  0  0  0  0  0  0  0
   -5.3010   18.8370  -33.4860 C   0  0  0  0  0  0  0  0  0  0  0  0
   -4.8640   20.1020  -33.5530 N   0  0  0  0  0  0  0  0  0  0  0  0
   -2.3910   22.7750  -30.0880 N   0  0  0  0  0  0  0  0  0  0  0  0
   -3.6870   24.4730  -27.0930 C   0  0  0  0  0  0  0  0  0  0  0  0
   -3.2680   25.3010  -26.0450 C   0  0  0  0  0  0  0  0  0  0  0  0
   -1.2468   26.5564  -22.9929 H   0  0  0  0  0  0  0  0  0  0  0  0
   -0.5918   25.2538  -24.0420 H   0  0  0  0  0  0  0  0  0  0  0  0
    0.1754   26.8780  -24.0420 H   0  0  0  0  0  0  0  0  0  0  0  0
   -0.2094   26.2159  -27.2628 H   0  0  0  0  0  0  0  0  0  0  0  0
   -0.9637   24.7591  -29.1361 H   0  0  0  0  0  0  0  0  0  0  0  0
   -5.4349   23.8422  -29.0716 H   0  0  0  0  0  0  0  0  0  0  0  0
   -6.8137   24.5299  -31.6259 H   0  0  0  0  0  0  0  0  0  0  0  0
   -9.2024   24.2126  -32.2571 H   0  0  0  0  0  0  0  0  0  0  0  0
  -10.2187   21.9378  -32.2273 H   0  0  0  0  0  0  0  0  0  0  0  0
   -9.1295   19.1846  -30.6739 H   0  0  0  0  0  0  0  0  0  0  0  0
   -9.9251   19.6096  -32.2273 H   0  0  0  0  0  0  0  0  0  0  0  0
   -8.2696   18.9124  -32.2273 H   0  0  0  0  0  0  0  0  0  0  0  0
   -6.4220   20.2528  -31.0138 H   0  0  0  0  0  0  0  0  0  0  0  0
   -3.1537   22.0187  -33.8398 H   0  0  0  0  0  0  0  0  0  0  0  0
   -1.9335   20.8852  -34.5521 H   0  0  0  0  0  0  0  0  0  0  0  0
   -3.5717   15.9144  -33.2343 H   0  0  0  0  0  0  0  0  0  0  0  0
   -5.9338   15.0250  -33.3062 H   0  0  0  0  0  0  0  0  0  0  0  0
   -7.8667   16.6073  -33.5233 H   0  0  0  0  0  0  0  0  0  0  0  0
   -7.4557   19.0955  -33.6426 H   0  0  0  0  0  0  0  0  0  0  0  0
   -4.6705   23.9829  -27.0430 H   0  0  0  0  0  0  0  0  0  0  0  0
   -3.9253   25.4578  -25.1770 H   0  0  0  0  0  0  0  0  0  0  0  0
  1  2  1  0
  2  3  1  0
  3  4  2  0
  4  5  1  0
  5  6  2  0
  6  7  1  0
  7  8  2  0
  8  9  1  0
  9 10  1  0
 10 11  2  0
 11 12  1  0
 12 13  2  0
 13 14  1  0
 14 15  1  0
 14 16  2  0
  9 17  2  0
 17 18  1  0
 18 19  1  0
 19 20  1  0
 20 21  1  0
 21 22  2  0
 22 23  1  0
 23 24  2  0
 24 25  1  0
 25 26  2  0
 26 27  1  0
 27 28  2  0
 28 29  1  0
 18 30  2  0
  6 31  1  0
 31 32  2  0
 32  3  1  0
 30  7  1  0
 16 10  1  0
 29 21  1  0
 28 23  1  0
  1 33  1  0
  1 34  1  0
  1 35  1  0
  4 36  1  0
  5 37  1  0
  8 38  1  0
 11 39  1  0
 12 40  1  0
 13 41  1  0
 15 42  1  0
 15 43  1  0
 15 44  1  0
 16 45  1  0
 20 46  1  0
 20 47  1  0
 24 48  1  0
 25 49  1  0
 26 50  1  0
 27 51  1  0
 31 52  1  0
 32 53  1  0
M  CHG  1  29  -1
M  END
>  <UniqueID>  (44) 
42

>  <SMILES>  (44) 
COc1ccc(-c2cc(-c3cccc(C)c3)nc(SCc3nc4ccccc4[n-]3)n2)cc1

>  <Energy>  (44) 
94.53609013497568

>  <Genealogy>  (44) 
COc1ccc(-c2cc(-c3cccc(C)c3)nc(SCc3nc4ccccc4[n-]3)n2)cc1 (protonated)
COc1ccc(-c2cc(-c3cccc(C)c3)nc(SCc3nc4ccccc4[n-]3)n2)cc1 (3D coordinates assigned)
COc1ccc(-c2cc(-c3cccc(C)c3)nc(SCc3nc4ccccc4[n-]3)n2)cc1 (optimized conformer: 94.53609013497568 kcal/mol)

>  <smiles>  (44) 
COc1ccc(-c2cc(-c3cccc(C)c3)nc(SCc3nc4ccccc4[nH]3)n2)cc1

>  <score_type>  (44) 
oracle

>  <origin>  (44) 
adgpu

>  <m_score__min__energy>  (44) 
-10.44

>  <m_primary>  (44) 
energy

$$$$
44:0
     RDKit          3D

 38 39  0  0  0  0  0  0  0  0999 V2000
   -0.8220   26.5000  -27.8830 C   0  0  0  0  0  0  0  0  0  0  0  0
   -1.4150   25.7400  -28.9330 O   0  0  0  0  0  0  0  0  0  0  0  0
   -2.1770   24.5750  -28.7430 C   0  0  0  0  0  0  0  0  0  0  0  0
   -1.9040   23.6690  -27.7030 C   0  0  0  0  0  0  0  0  0  0  0  0
   -2.7010   22.5420  -27.5280 C   0  0  0  0  0  0  0  0  0  0  0  0
   -3.7520   22.2840  -28.4050 C   0  0  0  0  0  0  0  0  0  0  0  0
   -4.0120   23.1400  -29.4930 C   0  0  0  0  0  0  0  0  0  0  0  0
   -5.1100   22.7540  -30.4810 C   0  0  0  0  0  0  0  0  0  0  0  0
   -5.2190   23.6690  -31.6320 N   0  0  0  0  0  0  0  0  0  0  0  0
   -6.5250   23.6270  -32.3070 C   0  0  0  0  0  0  0  0  0  0  0  0
   -7.1830   22.2810  -32.1430 C   0  0  0  0  0  0  0  0  0  0  0  0
   -8.3590   22.1510  -31.3900 C   0  0  0  0  0  0  0  0  0  0  0  0
   -8.9690   20.9000  -31.2430 C   0  0  0  0  0  0  0  0  0  0  0  0
   -8.4170   19.7670  -31.8580 C   0  0  0  0  0  0  0  0  0  0  0  0
   -9.0650   18.4230  -31.6910 C   0  0  0  0  0  0  0  0  0  0  0  0
   -7.2250   19.8910  -32.5860 C   0  0  0  0  0  0  0  0  0  0  0  0
   -6.6110   21.1410  -32.7310 C   0  0  0  0  0  0  0  0  0  0  0  0
   -3.2450   24.3300  -29.6210 C   0  0  0  0  0  0  0  0  0  0  0  0
   -3.5110   25.3030  -30.5920 O   0  0  0  0  0  0  0  0  0  0  0  0
   -1.1394   26.0932  -26.9115 H   0  0  0  0  0  0  0  0  0  0  0  0
    0.2736   26.4442  -27.9636 H   0  0  0  0  0  0  0  0  0  0  0  0
   -1.1426   27.5492  -27.9636 H   0  0  0  0  0  0  0  0  0  0  0  0
   -1.0572   23.8519  -27.0252 H   0  0  0  0  0  0  0  0  0  0  0  0
   -2.5005   21.8527  -26.6946 H   0  0  0  0  0  0  0  0  0  0  0  0
   -4.3873   21.4002  -28.2458 H   0  0  0  0  0  0  0  0  0  0  0  0
   -4.8972   21.7433  -30.8595 H   0  0  0  0  0  0  0  0  0  0  0  0
   -6.0648   22.8056  -29.9373 H   0  0  0  0  0  0  0  0  0  0  0  0
   -5.0270   24.6510  -31.3270 H   0  0  0  0  0  0  0  0  0  0  0  0
   -7.1772   24.3998  -31.8741 H   0  0  0  0  0  0  0  0  0  0  0  0
   -6.3670   23.8078  -33.3805 H   0  0  0  0  0  0  0  0  0  0  0  0
   -8.8040   23.0365  -30.9127 H   0  0  0  0  0  0  0  0  0  0  0  0
   -9.8856   20.8050  -30.6423 H   0  0  0  0  0  0  0  0  0  0  0  0
   -9.1732   18.1987  -30.6196 H   0  0  0  0  0  0  0  0  0  0  0  0
  -10.0573   18.4329  -32.1655 H   0  0  0  0  0  0  0  0  0  0  0  0
   -8.4393   17.6527  -32.1655 H   0  0  0  0  0  0  0  0  0  0  0  0
   -6.7698   19.0014  -33.0457 H   0  0  0  0  0  0  0  0  0  0  0  0
   -5.6781   21.2304  -33.3070 H   0  0  0  0  0  0  0  0  0  0  0  0
   -3.5330   25.1340  -31.5840 H   0  0  0  0  0  0  0  0  0  0  0  0
  1  2  1  0
  2  3  1  0
  3  4  2  0
  4  5  1  0
  5  6  2  0
  6  7  1  0
  7  8  1  0
  8  9  1  0
  9 10  1  0
 10 11  1  0
 11 12  2  0
 12 13  1  0
 13 14  2  0
 14 15  1  0
 14 16  1  0
 16 17  2  0
  7 18  2  0
 18 19  1  0
 18  3  1  0
 17 11  1  0
  1 20  1  0
  1 21  1  0
  1 22  1  0
  4 23  1  0
  5 24  1  0
  6 25  1  0
  8 26  1  0
  8 27  1  0
  9 28  1  0
 10 29  1  0
 10 30  1  0
 12 31  1  0
 13 32  1  0
 15 33  1  0
 15 34  1  0
 15 35  1  0
 16 36  1  0
 17 37  1  0
 19 38  1  0
M  END
>  <UniqueID>  (45) 
43

>  <SMILES>  (45) 
COc1cccc(CNCc2ccc(C)cc2)c1O

>  <Energy>  (45) 
42.069839789563986

>  <Genealogy>  (45) 
COc1cccc(CNCc2ccc(C)cc2)c1O (3D coordinates assigned)
COc1cccc(CNCc2ccc(C)cc2)c1O (optimized conformer: 42.069839789563986 kcal/mol)

>  <smiles>  (45) 
COc1cccc(CNCc2ccc(C)cc2)c1O

>  <score_type>  (45) 
oracle

>  <origin>  (45) 
adgpu

>  <m_score__min__energy>  (45) 
-8.9900000000000002

>  <m_primary>  (45) 
energy

$$$$
45:0
     RDKit          3D

 29 31  0  0  0  0  0  0  0  0999 V2000
   -9.0390   18.3740  -31.8080 C   0  0  0  0  0  0  0  0  0  0  0  0
   -7.6910   18.2410  -32.4450 C   0  0  0  0  0  0  0  0  0  0  0  0
   -7.2210   17.0830  -33.0390 C   0  0  0  0  0  0  0  0  0  0  0  0
   -5.9550   17.3750  -33.4960 C   0  0  0  0  0  0  0  0  0  0  0  0
   -4.7820   16.1830  -34.4100 Br  0  0  0  0  0  0  0  0  0  0  0  0
   -5.6950   18.6870  -33.1700 C   0  0  0  0  0  0  0  0  0  0  0  0
   -6.7550   19.2190  -32.5260 N   0  0  0  0  0  0  0  0  0  0  0  0
   -6.8340   20.5720  -32.0370 C   0  0  0  0  0  0  0  0  0  0  0  0
   -5.7620   21.2990  -31.6520 N   0  0  0  0  0  0  0  0  0  0  0  0
   -6.1140   22.5460  -31.2310 C   0  0  0  0  0  0  0  0  0  0  0  0
   -5.1280   23.5400  -30.7560 C   0  0  0  0  0  0  0  0  0  0  0  0
   -5.1250   24.8250  -31.1770 N   0  0  0  0  0  0  0  0  0  0  0  0
   -4.1210   25.4220  -30.5570 N   0  0  0  0  0  0  0  0  0  0  0  0
   -3.5210   24.5140  -29.7710 C   0  0  0  0  0  0  0  0  0  0  0  0
   -2.2230   24.8510  -28.8280 S   0  0  0  0  0  0  0  0  0  0  0  0
   -4.1270   23.3110  -29.8680 N   0  0  0  0  0  0  0  0  0  0  0  0
   -3.7860   22.0640  -29.1830 C   0  0  0  0  0  0  0  0  0  0  0  0
   -7.4810   22.8160  -31.2820 C   0  0  0  0  0  0  0  0  0  0  0  0
   -8.2600   21.4490  -31.8720 S   0  0  0  0  0  0  0  0  0  0  0  0
   -8.9300   18.3632  -30.7135 H   0  0  0  0  0  0  0  0  0  0  0  0
   -9.5006   19.3221  -32.1212 H   0  0  0  0  0  0  0  0  0  0  0  0
   -9.6770   17.5344  -32.1212 H   0  0  0  0  0  0  0  0  0  0  0  0
   -7.7512   16.1234  -33.1282 H   0  0  0  0  0  0  0  0  0  0  0  0
   -4.7619   19.2222  -33.4002 H   0  0  0  0  0  0  0  0  0  0  0  0
   -3.8620   26.4260  -30.6770 H   0  0  0  0  0  0  0  0  0  0  0  0
   -3.8286   22.2199  -28.0949 H   0  0  0  0  0  0  0  0  0  0  0  0
   -4.5028   21.2804  -29.4695 H   0  0  0  0  0  0  0  0  0  0  0  0
   -2.7702   21.7542  -29.4695 H   0  0  0  0  0  0  0  0  0  0  0  0
   -7.9649   23.7590  -30.9875 H   0  0  0  0  0  0  0  0  0  0  0  0
  1  2  1  0
  2  3  2  0
  3  4  1  0
  4  5  1  0
  4  6  2  0
  6  7  1  0
  7  8  1  0
  8  9  2  0
  9 10  1  0
 10 11  1  0
 11 12  2  0
 12 13  1  0
 13 14  1  0
 14 15  2  0
 14 16  1  0
 16 17  1  0
 10 18  2  0
 18 19  1  0
  7  2  1  0
 19  8  1  0
 16 11  1  0
  1 20  1  0
  1 21  1  0
  1 22  1  0
  3 23  1  0
  6 24  1  0
 13 25  1  0
 17 26  1  0
 17 27  1  0
 17 28  1  0
 18 29  1  0
M  END
>  <UniqueID>  (46) 
44

>  <SMILES>  (46) 
Cc1cc(Br)cn1-c1nc(-c2n[nH]c(=S)n2C)cs1

>  <Energy>  (46) 
123.96293672364929

>  <Genealogy>  (46) 
Cc1cc(Br)cn1-c1nc(-c2n[nH]c(=S)n2C)cs1 (3D coordinates assigned)
Cc1cc(Br)cn1-c1nc(-c2n[nH]c(=S)n2C)cs1 (optimized conformer: 123.96293672364929 kcal/mol)

>  <smiles>  (46) 
Cc1cc(Br)cn1-c1nc(-c2n[nH]c(=S)n2C)cs1

>  <score_type>  (46) 
oracle

>  <origin>  (46) 
adgpu

>  <m_score__min__energy>  (46) 
-8.2100000000000009

>  <m_primary>  (46) 
energy

$$$$
46:0
     RDKit          3D

 44 47  0  0  0  0  0  0  0  0999 V2000
    0.3800   23.9570  -27.8590 C   0  0  0  0  0  0  0  0  0  0  0  0
   -0.3590   25.1390  -27.7880 C   0  0  0  0  0  0  0  0  0  0  0  0
   -1.6070   25.2260  -28.4130 C   0  0  0  0  0  0  0  0  0  0  0  0
   -2.1280   24.1240  -29.1180 C   0  0  0  0  0  0  0  0  0  0  0  0
   -3.4480   24.2110  -29.7790 C   0  0  0  0  0  0  0  0  0  0  0  0
   -4.3550   23.2100  -29.7550 N   0  0  0  0  0  0  0  0  0  0  0  0
   -5.3860   23.6940  -30.4660 C   0  0  0  0  0  0  0  0  0  0  0  0
   -6.6570   22.9320  -30.7390 C   0  0  0  0  0  0  0  0  0  0  0  0
   -6.4300   21.6260  -31.3940 N   0  0  0  0  0  0  0  0  0  0  0  0
   -7.6860   20.9550  -31.8030 C   0  0  0  0  0  0  0  0  0  0  0  0
   -7.4950   19.9110  -32.9260 C   0  0  0  0  0  0  0  0  0  0  0  0
   -6.1320   19.3500  -32.9440 N   0  0  0  0  0  0  0  0  0  0  0  0
   -5.9290   17.9850  -33.3830 C   0  0  0  0  0  0  0  0  0  0  0  0
   -4.6520   17.5060  -33.7420 C   0  0  0  0  0  0  0  0  0  0  0  0
   -4.5030   16.1830  -34.1630 C   0  0  0  0  0  0  0  0  0  0  0  0
   -5.6140   15.3420  -34.2250 C   0  0  0  0  0  0  0  0  0  0  0  0
   -6.8640   15.8400  -33.8630 C   0  0  0  0  0  0  0  0  0  0  0  0
   -6.9910   17.1320  -33.4560 N   0  0  0  0  0  0  0  0  0  0  0  0
   -4.9780   20.2500  -32.7720 C   0  0  0  0  0  0  0  0  0  0  0  0
   -5.4270   21.6760  -32.4670 C   0  0  0  0  0  0  0  0  0  0  0  0
   -5.0910   24.9640  -30.9010 C   0  0  0  0  0  0  0  0  0  0  0  0
   -3.8630   25.2980  -30.4690 N   0  0  0  0  0  0  0  0  0  0  0  0
   -1.3740   22.9370  -29.1820 C   0  0  0  0  0  0  0  0  0  0  0  0
   -0.1260   22.8570  -28.5550 C   0  0  0  0  0  0  0  0  0  0  0  0
    1.3614   23.8919  -27.3665 H   0  0  0  0  0  0  0  0  0  0  0  0
    0.0412   26.0042  -27.2391 H   0  0  0  0  0  0  0  0  0  0  0  0
   -2.1847   26.1602  -28.3536 H   0  0  0  0  0  0  0  0  0  0  0  0
   -7.1711   22.7575  -29.7823 H   0  0  0  0  0  0  0  0  0  0  0  0
   -7.2587   23.5412  -31.4296 H   0  0  0  0  0  0  0  0  0  0  0  0
   -8.1101   20.4466  -30.9246 H   0  0  0  0  0  0  0  0  0  0  0  0
   -8.3530   21.7349  -32.1991 H   0  0  0  0  0  0  0  0  0  0  0  0
   -8.2126   19.0915  -32.7726 H   0  0  0  0  0  0  0  0  0  0  0  0
   -7.6625   20.4177  -33.8879 H   0  0  0  0  0  0  0  0  0  0  0  0
   -3.7776   18.1714  -33.6906 H   0  0  0  0  0  0  0  0  0  0  0  0
   -3.5097   15.8041  -34.4457 H   0  0  0  0  0  0  0  0  0  0  0  0
   -5.5047   14.2986  -34.5556 H   0  0  0  0  0  0  0  0  0  0  0  0
   -7.7489   15.1880  -33.9063 H   0  0  0  0  0  0  0  0  0  0  0  0
   -4.3589   19.8836  -31.9398 H   0  0  0  0  0  0  0  0  0  0  0  0
   -4.4032   20.2603  -33.7098 H   0  0  0  0  0  0  0  0  0  0  0  0
   -4.5642   22.2758  -32.1416 H   0  0  0  0  0  0  0  0  0  0  0  0
   -5.8588   22.1375  -33.3673 H   0  0  0  0  0  0  0  0  0  0  0  0
   -5.7524   25.6030  -31.5045 H   0  0  0  0  0  0  0  0  0  0  0  0
   -1.7684   22.0674  -29.7281 H   0  0  0  0  0  0  0  0  0  0  0  0
    0.4577   21.9263  -28.6103 H   0  0  0  0  0  0  0  0  0  0  0  0
  1  2  2  0
  2  3  1  0
  3  4  2  0
  4  5  1  0
  5  6  2  0
  6  7  1  0
  7  8  1  0
  8  9  1  0
  9 10  1  0
 10 11  1  0
 11 12  1  0
 12 13  1  0
 13 14  2  0
 14 15  1  0
 15 16  2  0
 16 17  1  0
 17 18  2  0
 12 19  1  0
 19 20  1  0
  7 21  2  0
 21 22  1  0
  4 23  1  0
 23 24  2  0
 24  1  1  0
 22  5  1  0
 20  9  1  0
 18 13  1  0
  1 25  1  0
  2 26  1  0
  3 27  1  0
  8 28  1  0
  8 29  1  0
 10 30  1  0
 10 31  1  0
 11 32  1  0
 11 33  1  0
 14 34  1  0
 15 35  1  0
 16 36  1  0
 17 37  1  0
 19 38  1  0
 19 39  1  0
 20 40  1  0
 20 41  1  0
 21 42  1  0
 23 43  1  0
 24 44  1  0
M  CHG  1  22  -1
M  END
>  <UniqueID>  (47) 
45

>  <SMILES>  (47) 
c1ccc(-c2nc(CN3CCN(c4ccccn4)CC3)c[n-]2)cc1

>  <Energy>  (47) 
85.7425975819686

>  <Genealogy>  (47) 
c1ccc(-c2nc(CN3CCN(c4ccccn4)CC3)c[n-]2)cc1 (protonated)
c1ccc(-c2nc(CN3CCN(c4ccccn4)CC3)c[n-]2)cc1 (3D coordinates assigned)
c1ccc(-c2nc(CN3CCN(c4ccccn4)CC3)c[n-]2)cc1 (nonaromatic ring conformer: 85.7425975819686 kcal/mol)

>  <smiles>  (47) 
c1ccc(-c2nc(CN3CCN(c4ccccn4)CC3)c[nH]2)cc1

>  <score_type>  (47) 
oracle

>  <origin>  (47) 
adgpu

>  <m_score__min__energy>  (47) 
-8.9600000000000009

>  <m_primary>  (47) 
energy

$$$$
47:0
     RDKit          3D

 47 50  0  0  1  0  0  0  0  0999 V2000
    0.6610   27.6160  -22.8420 C   0  0  0  0  0  0  0  0  0  0  0  0
   -0.0870   27.0750  -24.0200 C   0  0  0  0  0  0  0  0  0  0  0  0
   -0.5140   27.9060  -24.8370 O   0  0  0  0  0  0  0  0  0  0  0  0
   -0.2640   25.6770  -24.1390 N   0  0  0  0  0  0  0  0  0  0  0  0
   -0.9400   25.0090  -25.1800 C   0  0  0  0  0  0  0  0  0  0  0  0
   -2.1540   25.5220  -25.5820 C   0  0  0  0  0  0  0  0  0  0  0  0
   -2.8670   24.9260  -26.5850 C   0  0  0  0  0  0  0  0  0  0  0  0
   -2.4590   23.7960  -27.2710 C   0  0  0  0  0  0  0  0  0  0  0  0
   -3.1740   23.1520  -28.3170 C   0  0  0  0  0  0  0  0  0  0  0  0
   -4.2940   24.1760  -29.3990 S   0  0  0  0  0  0  0  0  0  0  0  0
   -4.7780   22.7320  -30.3840 C   0  0  0  0  0  0  0  0  0  0  0  0
   -5.6060   22.7560  -31.3850 N   0  0  0  0  0  0  0  0  0  0  0  0
   -5.9090   21.5290  -32.0910 C   0  0  0  0  0  0  0  0  0  0  0  0
   -7.1940   21.0100  -32.0800 C   0  0  0  0  0  0  0  0  0  0  0  0
   -7.4970   19.8510  -32.7450 C   0  0  0  0  0  0  0  0  0  0  0  0
   -6.4820   19.1950  -33.4390 C   0  0  0  0  0  0  0  0  0  0  0  0
   -5.1830   19.7010  -33.4630 C   0  0  0  0  0  0  0  0  0  0  0  0
   -4.8980   20.8760  -32.7830 C   0  0  0  0  0  0  0  0  0  0  0  0
   -4.0930   21.7400  -29.8240 N   0  0  0  0  0  0  0  0  0  0  0  0
   -3.3210   21.9610  -28.8230 N   0  0  0  0  0  0  0  0  0  0  0  0
   -2.5840   20.8120  -28.2420 C   0  0  0  0  0  0  0  0  0  0  0  0
   -3.1130   20.1830  -27.1240 C   0  0  0  0  0  0  0  0  0  0  0  0
   -2.4280   19.1280  -26.5460 C   0  0  0  0  0  0  0  0  0  0  0  0
   -1.2210   18.7300  -27.1100 C   0  0  0  0  0  0  0  0  0  0  0  0
   -0.7030   19.3770  -28.2370 C   0  0  0  0  0  0  0  0  0  0  0  0
   -1.3840   20.4310  -28.8160 C   0  0  0  0  0  0  0  0  0  0  0  0
   -1.2150   23.2960  -26.8370 C   0  0  0  0  0  0  0  0  0  0  0  0
   -0.4960   23.8880  -25.8330 C   0  0  0  0  0  0  0  0  0  0  0  0
    0.1828   27.2702  -21.9137 H   0  0  0  0  0  0  0  0  0  0  0  0
    1.7013   27.2600  -22.8732 H   0  0  0  0  0  0  0  0  0  0  0  0
    0.6486   28.7155  -22.8732 H   0  0  0  0  0  0  0  0  0  0  0  0
    0.1620   25.1010  -23.3550 H   0  0  0  0  0  0  0  0  0  0  0  0
   -2.5541   26.4211  -25.0905 H   0  0  0  0  0  0  0  0  0  0  0  0
   -3.8308   25.3757  -26.8656 H   0  0  0  0  0  0  0  0  0  0  0  0
   -7.9850   21.5381  -31.5274 H   0  0  0  0  0  0  0  0  0  0  0  0
   -8.5199   19.4468  -32.7314 H   0  0  0  0  0  0  0  0  0  0  0  0
   -6.7094   18.2627  -33.9767 H   0  0  0  0  0  0  0  0  0  0  0  0
   -4.3917   19.1735  -34.0159 H   0  0  0  0  0  0  0  0  0  0  0  0
   -3.8779   21.2875  -32.7920 H   0  0  0  0  0  0  0  0  0  0  0  0
   -4.2130   20.7450  -30.2430 H   0  0  0  0  0  0  0  0  0  0  0  0
   -4.0702   20.5204  -26.6999 H   0  0  0  0  0  0  0  0  0  0  0  0
   -2.8299   18.6155  -25.6595 H   0  0  0  0  0  0  0  0  0  0  0  0
   -0.6646   17.8931  -26.6629 H   0  0  0  0  0  0  0  0  0  0  0  0
    0.2538   19.0442  -28.6657 H   0  0  0  0  0  0  0  0  0  0  0  0
   -0.9863   20.9485  -29.7015 H   0  0  0  0  0  0  0  0  0  0  0  0
   -0.8066   22.3974  -27.3224 H   0  0  0  0  0  0  0  0  0  0  0  0
    0.4697   23.4497  -25.5407 H   0  0  0  0  0  0  0  0  0  0  0  0
  1  2  1  0
  2  3  2  0
  2  4  1  0
  4  5  1  0
  5  6  2  0
  6  7  1  0
  7  8  2  0
  8  9  1  0
  9 10  1  0
 10 11  1  0
 11 12  2  0
 12 13  1  0
 13 14  2  0
 14 15  1  0
 15 16  2  0
 16 17  1  0
 17 18  2  0
 11 19  1  0
 19 20  1  0
 20 21  1  0
 21 22  2  0
 22 23  1  0
 23 24  2  0
 24 25  1  0
 25 26  2  0
  8 27  1  0
 27 28  2  0
 28  5  1  0
 20  9  2  0
 26 21  1  0
 18 13  1  0
  1 29  1  0
  1 30  1  0
  1 31  1  0
  4 32  1  0
  6 33  1  0
  7 34  1  0
 14 35  1  0
 15 36  1  0
 16 37  1  0
 17 38  1  0
 18 39  1  0
 19 40  1  0
 22 41  1  0
 23 42  1  0
 24 43  1  0
 25 44  1  0
 26 45  1  0
 27 46  1  0
 28 47  1  0
M  CHG  1  20   1
M  END
>  <smiles>  (48) 
CC(=O)Nc1ccc(-c2sc(=Nc3ccccc3)[nH][n+]2-c2ccccc2)cc1

>  <score_type>  (48) 
oracle

>  <origin>  (48) 
adgpu

>  <m_score__min__energy>  (48) 
-8.5099999999999998

>  <m_primary>  (48) 
energy

$$$$
