0:0
     RDKit          3D

 46 49  0  0  0  0  0  0  0  0999 V2000
   -5.0800   22.3970  -32.5740 O   0  0  0  0  0  0  0  0  0  0  0  0
   -3.9560   22.2860  -32.0160 C   0  0  0  0  0  0  0  0  0  0  0  0
   -3.0790   21.2320  -32.4340 N   0  0  0  0  0  0  0  0  0  0  0  0
   -3.4790   19.9680  -32.9860 C   0  0  0  0  0  0  0  0  0  0  0  0
   -4.6680   19.3360  -32.5790 C   0  0  0  0  0  0  0  0  0  0  0  0
   -5.0470   18.1090  -33.1390 C   0  0  0  0  0  0  0  0  0  0  0  0
   -6.5350   17.3300  -32.6120 S   0  0  0  0  0  0  0  0  0  0  0  0
   -6.3820   16.8960  -31.1810 O   0  0  0  0  0  0  0  0  0  0  0  0
   -6.7990   16.1120  -33.4570 O   0  0  0  0  0  0  0  0  0  0  0  0
   -7.8560   18.4640  -32.7400 N   0  0  0  0  0  0  0  0  0  0  0  0
   -8.4570   18.7290  -31.4340 C   0  0  0  0  0  0  0  0  0  0  0  0
   -9.0600   20.1220  -31.5100 C   0  0  0  0  0  0  0  0  0  0  0  0
   -8.3610   20.8010  -32.6770 C   0  0  0  0  0  0  0  0  0  0  0  0
   -7.3950   19.7630  -33.2290 C   0  0  0  0  0  0  0  0  0  0  0  0
   -4.2560   17.5300  -34.1400 C   0  0  0  0  0  0  0  0  0  0  0  0
   -3.0910   18.1700  -34.5710 C   0  0  0  0  0  0  0  0  0  0  0  0
   -2.7050   19.3880  -34.0000 C   0  0  0  0  0  0  0  0  0  0  0  0
   -1.5450   20.0150  -34.4420 O   0  0  0  0  0  0  0  0  0  0  0  0
   -3.5510   23.2810  -31.0060 C   0  0  0  0  0  0  0  0  0  0  0  0
   -2.6690   23.0660  -29.9680 C   0  0  0  0  0  0  0  0  0  0  0  0
   -2.6400   24.2740  -29.2930 C   0  0  0  0  0  0  0  0  0  0  0  0
   -1.8340   24.6020  -28.0850 C   0  0  0  0  0  0  0  0  0  0  0  0
   -1.7220   23.6700  -27.0320 C   0  0  0  0  0  0  0  0  0  0  0  0
   -0.9650   23.9650  -25.8960 C   0  0  0  0  0  0  0  0  0  0  0  0
   -0.3080   25.1910  -25.7900 C   0  0  0  0  0  0  0  0  0  0  0  0
   -0.4050   26.1250  -26.8220 C   0  0  0  0  0  0  0  0  0  0  0  0
   -1.1630   25.8410  -27.9640 C   0  0  0  0  0  0  0  0  0  0  0  0
   -1.2420   26.8030  -28.9660 O   0  0  0  0  0  0  0  0  0  0  0  0
   -3.4690   25.1440  -29.9070 N   0  0  0  0  0  0  0  0  0  0  0  0
   -4.0260   24.5390  -30.9450 N   0  0  0  0  0  0  0  0  0  0  0  0
   -5.3043   19.8083  -31.8161 H   0  0  0  0  0  0  0  0  0  0  0  0
   -9.2403   17.9873  -31.2188 H   0  0  0  0  0  0  0  0  0  0  0  0
   -7.7079   18.6635  -30.6312 H   0  0  0  0  0  0  0  0  0  0  0  0
  -10.1433   20.0631  -31.6917 H   0  0  0  0  0  0  0  0  0  0  0  0
   -8.9235   20.6788  -30.5712 H   0  0  0  0  0  0  0  0  0  0  0  0
   -9.0915   21.0939  -33.4455 H   0  0  0  0  0  0  0  0  0  0  0  0
   -7.8408   21.7185  -32.3645 H   0  0  0  0  0  0  0  0  0  0  0  0
   -7.4062   19.7806  -34.3288 H   0  0  0  0  0  0  0  0  0  0  0  0
   -6.3641   19.9670  -32.9040 H   0  0  0  0  0  0  0  0  0  0  0  0
   -4.5526   16.5699  -34.5874 H   0  0  0  0  0  0  0  0  0  0  0  0
   -2.4756   17.7152  -35.3612 H   0  0  0  0  0  0  0  0  0  0  0  0
   -2.1154   22.1455  -29.7308 H   0  0  0  0  0  0  0  0  0  0  0  0
   -2.2364   22.7005  -27.1064 H   0  0  0  0  0  0  0  0  0  0  0  0
   -0.8866   23.2286  -25.0826 H   0  0  0  0  0  0  0  0  0  0  0  0
    0.2862   25.4213  -24.8934 H   0  0  0  0  0  0  0  0  0  0  0  0
    0.1169   27.0896  -26.7377 H   0  0  0  0  0  0  0  0  0  0  0  0
  1  2  2  0
  2  3  1  0
  3  4  1  0
  4  5  2  0
  5  6  1  0
  6  7  1  0
  7  8  2  0
  7  9  2  0
  7 10  1  0
 10 11  1  0
 11 12  1  0
 12 13  1  0
 13 14  1  0
  6 15  2  0
 15 16  1  0
 16 17  2  0
 17 18  1  0
  2 19  1  0
 19 20  1  0
 20 21  2  0
 21 22  1  0
 22 23  2  0
 23 24  1  0
 24 25  2  0
 25 26  1  0
 26 27  2  0
 27 28  1  0
 21 29  1  0
 29 30  1  0
 17  4  1  0
 30 19  2  0
 14 10  1  0
 27 22  1  0
  5 31  1  0
 11 32  1  0
 11 33  1  0
 12 34  1  0
 12 35  1  0
 13 36  1  0
 13 37  1  0
 14 38  1  0
 14 39  1  0
 15 40  1  0
 16 41  1  0
 20 42  1  0
 23 43  1  0
 24 44  1  0
 25 45  1  0
 26 46  1  0
M  CHG  4   3  -1  18  -1  28  -1  29  -1
M  END
>  <UniqueID>  (1) 
1

>  <SMILES>  (1) 
O=C([N-]c1cc(S(=O)(=O)N2CCCC2)ccc1[O-])c1cc(-c2ccccc2[O-])[n-]n1

>  <Energy>  (1) 
87.34368939491239

>  <Genealogy>  (1) 
O=C([N-]c1cc(S(=O)(=O)N2CCCC2)ccc1[O-])c1cc(-c2ccccc2[O-])[n-]n1 (protonated)
O=C([N-]c1cc(S(=O)(=O)N2CCCC2)ccc1[O-])c1cc(-c2ccccc2[O-])[n-]n1 (3D coordinates assigned)
O=C([N-]c1cc(S(=O)(=O)N2CCCC2)ccc1[O-])c1cc(-c2ccccc2[O-])[n-]n1 (nonaromatic ring conformer: 87.34368939491239 kcal/mol)

>  <smiles>  (1) 
O=C(Nc1cc(S(=O)(=O)N2CCCC2)ccc1O)c1cc(-c2ccccc2O)[nH]n1

>  <score_type>  (1) 
oracle

>  <origin>  (1) 
adgpu

>  <m_score__min__energy>  (1) 
-15.6

>  <m_primary>  (1) 
energy

$$$$
1:0
     RDKit          3D

 45 48  0  0  0  0  0  0  0  0999 V2000
   -0.3210   20.6420  -31.1060 O   0  0  0  0  0  0  0  0  0  0  0  0
   -1.1370   20.4910  -32.0540 C   0  0  0  0  0  0  0  0  0  0  0  0
   -0.9250   19.4200  -32.9850 N   0  0  0  0  0  0  0  0  0  0  0  0
   -1.7270   18.2350  -33.1050 C   0  0  0  0  0  0  0  0  0  0  0  0
   -1.2640   17.0000  -32.6180 C   0  0  0  0  0  0  0  0  0  0  0  0
   -2.0600   15.8590  -32.7200 C   0  0  0  0  0  0  0  0  0  0  0  0
   -3.3290   15.9380  -33.2920 C   0  0  0  0  0  0  0  0  0  0  0  0
   -3.8160   17.1640  -33.7660 C   0  0  0  0  0  0  0  0  0  0  0  0
   -5.4390   17.2590  -34.4520 S   0  0  0  0  0  0  0  0  0  0  0  0
   -6.0680   15.8950  -34.5190 O   0  0  0  0  0  0  0  0  0  0  0  0
   -5.3570   17.8080  -35.8490 O   0  0  0  0  0  0  0  0  0  0  0  0
   -6.4320   18.2960  -33.4340 C   0  0  0  0  0  0  0  0  0  0  0  0
   -7.2200   17.7270  -32.4250 C   0  0  0  0  0  0  0  0  0  0  0  0
   -8.0020   18.5430  -31.6000 C   0  0  0  0  0  0  0  0  0  0  0  0
   -7.9960   19.9280  -31.7770 C   0  0  0  0  0  0  0  0  0  0  0  0
   -7.2070   20.5010  -32.7790 C   0  0  0  0  0  0  0  0  0  0  0  0
   -6.4250   19.6880  -33.6050 C   0  0  0  0  0  0  0  0  0  0  0  0
   -3.0180   18.3190  -33.6630 C   0  0  0  0  0  0  0  0  0  0  0  0
   -3.5180   19.5410  -34.1210 O   0  0  0  0  0  0  0  0  0  0  0  0
   -2.3100   21.3790  -32.1380 C   0  0  0  0  0  0  0  0  0  0  0  0
   -3.0100   21.9240  -31.0800 C   0  0  0  0  0  0  0  0  0  0  0  0
   -3.9920   22.6910  -31.6830 C   0  0  0  0  0  0  0  0  0  0  0  0
   -5.0420   23.4920  -30.9940 C   0  0  0  0  0  0  0  0  0  0  0  0
   -6.3620   23.0060  -30.9080 C   0  0  0  0  0  0  0  0  0  0  0  0
   -7.3580   23.7510  -30.2700 C   0  0  0  0  0  0  0  0  0  0  0  0
   -7.0530   24.9920  -29.7120 C   0  0  0  0  0  0  0  0  0  0  0  0
   -5.7510   25.4910  -29.7890 C   0  0  0  0  0  0  0  0  0  0  0  0
   -4.7470   24.7520  -30.4240 C   0  0  0  0  0  0  0  0  0  0  0  0
   -3.4620   25.2820  -30.4740 O   0  0  0  0  0  0  0  0  0  0  0  0
   -3.8580   22.6070  -33.0220 N   0  0  0  0  0  0  0  0  0  0  0  0
   -2.8330   21.8140  -33.2990 N   0  0  0  0  0  0  0  0  0  0  0  0
   -0.2688   16.9332  -32.1541 H   0  0  0  0  0  0  0  0  0  0  0  0
   -1.6853   14.8940  -32.3480 H   0  0  0  0  0  0  0  0  0  0  0  0
   -3.9509   15.0342  -33.3717 H   0  0  0  0  0  0  0  0  0  0  0  0
   -7.2240   16.6365  -32.2810 H   0  0  0  0  0  0  0  0  0  0  0  0
   -8.6223   18.0928  -30.8110 H   0  0  0  0  0  0  0  0  0  0  0  0
   -8.6119   20.5682  -31.1283 H   0  0  0  0  0  0  0  0  0  0  0  0
   -7.2015   21.5922  -32.9176 H   0  0  0  0  0  0  0  0  0  0  0  0
   -5.8028   20.1412  -34.3908 H   0  0  0  0  0  0  0  0  0  0  0  0
   -2.9940   20.4050  -34.0520 H   0  0  0  0  0  0  0  0  0  0  0  0
   -2.8289   21.7814  -30.0044 H   0  0  0  0  0  0  0  0  0  0  0  0
   -6.6114   22.0292  -31.3480 H   0  0  0  0  0  0  0  0  0  0  0  0
   -8.3835   23.3579  -30.2081 H   0  0  0  0  0  0  0  0  0  0  0  0
   -7.8379   25.5778  -29.2112 H   0  0  0  0  0  0  0  0  0  0  0  0
   -5.5135   26.4704  -29.3480 H   0  0  0  0  0  0  0  0  0  0  0  0
  1  2  2  0
  2  3  1  0
  3  4  1  0
  4  5  2  0
  5  6  1  0
  6  7  2  0
  7  8  1  0
  8  9  1  0
  9 10  2  0
  9 11  2  0
  9 12  1  0
 12 13  2  0
 13 14  1  0
 14 15  2  0
 15 16  1  0
 16 17  2  0
  8 18  2  0
 18 19  1  0
  2 20  1  0
 20 21  1  0
 21 22  2  0
 22 23  1  0
 23 24  2  0
 24 25  1  0
 25 26  2  0
 26 27  1  0
 27 28  2  0
 28 29  1  0
 22 30  1  0
 30 31  1  0
 18  4  1  0
 31 20  2  0
 17 12  1  0
 28 23  1  0
  5 32  1  0
  6 33  1  0
  7 34  1  0
 13 35  1  0
 14 36  1  0
 15 37  1  0
 16 38  1  0
 17 39  1  0
 19 40  1  0
 21 41  1  0
 24 42  1  0
 25 43  1  0
 26 44  1  0
 27 45  1  0
M  CHG  3   3  -1  29  -1  30  -1
M  END
>  <UniqueID>  (2) 
2

>  <SMILES>  (2) 
O=C([N-]c1cccc(S(=O)(=O)c2ccccc2)c1O)c1cc(-c2ccccc2[O-])[n-]n1

>  <Energy>  (2) 
90.36149590766928

>  <Genealogy>  (2) 
O=C([N-]c1cccc(S(=O)(=O)c2ccccc2)c1O)c1cc(-c2ccccc2[O-])[n-]n1 (protonated)
O=C([N-]c1cccc(S(=O)(=O)c2ccccc2)c1O)c1cc(-c2ccccc2[O-])[n-]n1 (3D coordinates assigned)
O=C([N-]c1cccc(S(=O)(=O)c2ccccc2)c1O)c1cc(-c2ccccc2[O-])[n-]n1 (optimized conformer: 90.36149590766928 kcal/mol)

>  <smiles>  (2) 
O=C(Nc1cccc(S(=O)(=O)c2ccccc2)c1O)c1cc(-c2ccccc2O)[nH]n1

>  <score_type>  (2) 
oracle

>  <origin>  (2) 
adgpu

>  <m_score__min__energy>  (2) 
-15.130000000000001

>  <m_primary>  (2) 
energy

$$$$
2:0
     RDKit          3D

 57 60  0  0  0  0  0  0  0  0999 V2000
   -3.5390   25.2860  -30.4700 N   0  0  0  0  0  0  0  0  0  0  0  0
   -4.9600   24.3230  -30.6750 S   0  0  0  0  0  0  0  0  0  0  0  0
   -5.9380   25.0570  -31.5490 O   0  0  0  0  0  0  0  0  0  0  0  0
   -5.5990   24.0790  -29.3360 O   0  0  0  0  0  0  0  0  0  0  0  0
   -4.5270   22.7890  -31.4190 C   0  0  0  0  0  0  0  0  0  0  0  0
   -5.4600   22.0940  -32.2000 C   0  0  0  0  0  0  0  0  0  0  0  0
   -5.1100   20.8840  -32.8070 C   0  0  0  0  0  0  0  0  0  0  0  0
   -3.8140   20.3580  -32.6460 C   0  0  0  0  0  0  0  0  0  0  0  0
   -3.4040   19.1550  -33.2430 O   0  0  0  0  0  0  0  0  0  0  0  0
   -2.4270   18.2610  -32.7090 C   0  0  0  0  0  0  0  0  0  0  0  0
   -1.3320   18.0080  -33.7080 C   0  0  0  0  0  0  0  0  0  0  0  0
   -1.4680   17.2010  -34.7030 N   0  0  0  0  0  0  0  0  0  0  0  0
   -0.2500   17.1610  -35.5030 C   0  0  0  0  0  0  0  0  0  0  0  0
    0.7180   18.1230  -34.7930 C   0  0  0  0  0  0  0  0  0  0  0  0
   -0.0470   18.6050  -33.6570 N   0  0  0  0  0  0  0  0  0  0  0  0
    0.5330   19.7490  -32.4890 S   0  0  0  0  0  0  0  0  0  0  0  0
   -0.2660   21.0190  -32.5700 O   0  0  0  0  0  0  0  0  0  0  0  0
    1.9780   20.0580  -32.7600 O   0  0  0  0  0  0  0  0  0  0  0  0
    0.3560   19.0700  -30.8730 C   0  0  0  0  0  0  0  0  0  0  0  0
    1.0090   17.8830  -30.5270 C   0  0  0  0  0  0  0  0  0  0  0  0
    0.8390   17.3360  -29.2540 C   0  0  0  0  0  0  0  0  0  0  0  0
    0.0090   17.9600  -28.3140 C   0  0  0  0  0  0  0  0  0  0  0  0
   -0.1210   17.3640  -27.0580 O   0  0  0  0  0  0  0  0  0  0  0  0
   -0.6620   19.1560  -28.6600 C   0  0  0  0  0  0  0  0  0  0  0  0
   -1.7160   19.9960  -27.5140 S   0  0  0  0  0  0  0  0  0  0  0  0
   -3.1380   19.5320  -27.6680 O   0  0  0  0  0  0  0  0  0  0  0  0
   -1.2570   19.6810  -26.1170 O   0  0  0  0  0  0  0  0  0  0  0  0
   -1.6630   21.7320  -27.8050 C   0  0  0  0  0  0  0  0  0  0  0  0
   -0.4760   22.3330  -28.2490 C   0  0  0  0  0  0  0  0  0  0  0  0
   -0.4300   23.7120  -28.4820 C   0  0  0  0  0  0  0  0  0  0  0  0
   -1.5710   24.4950  -28.2780 C   0  0  0  0  0  0  0  0  0  0  0  0
   -2.7580   23.8990  -27.8440 C   0  0  0  0  0  0  0  0  0  0  0  0
   -2.8060   22.5200  -27.6090 C   0  0  0  0  0  0  0  0  0  0  0  0
   -0.4790   19.6990  -29.9420 C   0  0  0  0  0  0  0  0  0  0  0  0
   -2.8880   21.0570  -31.8620 C   0  0  0  0  0  0  0  0  0  0  0  0
   -3.2380   22.2670  -31.2570 C   0  0  0  0  0  0  0  0  0  0  0  0
   -3.5580   26.0190  -31.2140 H   0  0  0  0  0  0  0  0  0  0  0  0
   -6.4723   22.5022  -32.3362 H   0  0  0  0  0  0  0  0  0  0  0  0
   -5.8502   20.3408  -33.4128 H   0  0  0  0  0  0  0  0  0  0  0  0
   -1.9915   18.7034  -31.8009 H   0  0  0  0  0  0  0  0  0  0  0  0
   -2.9162   17.3046  -32.4724 H   0  0  0  0  0  0  0  0  0  0  0  0
   -2.3320   16.6540  -34.9140 H   0  0  0  0  0  0  0  0  0  0  0  0
    0.1644   16.1423  -35.5274 H   0  0  0  0  0  0  0  0  0  0  0  0
   -0.4304   17.4502  -36.5488 H   0  0  0  0  0  0  0  0  0  0  0  0
    1.6231   17.5938  -34.4602 H   0  0  0  0  0  0  0  0  0  0  0  0
    1.0676   18.9354  -35.4470 H   0  0  0  0  0  0  0  0  0  0  0  0
    1.6576   17.3795  -31.2590 H   0  0  0  0  0  0  0  0  0  0  0  0
    1.3619   16.4059  -28.9865 H   0  0  0  0  0  0  0  0  0  0  0  0
   -0.8690   17.5790  -26.4140 H   0  0  0  0  0  0  0  0  0  0  0  0
    0.4213   21.7186  -28.4145 H   0  0  0  0  0  0  0  0  0  0  0  0
    0.5040   24.1805  -28.8258 H   0  0  0  0  0  0  0  0  0  0  0  0
   -1.5339   25.5794  -28.4591 H   0  0  0  0  0  0  0  0  0  0  0  0
   -3.6560   24.5145  -27.6868 H   0  0  0  0  0  0  0  0  0  0  0  0
   -3.7426   22.0534  -27.2698 H   0  0  0  0  0  0  0  0  0  0  0  0
   -0.9976   20.6291  -30.2178 H   0  0  0  0  0  0  0  0  0  0  0  0
   -1.8759   20.6499  -31.7211 H   0  0  0  0  0  0  0  0  0  0  0  0
   -2.4983   22.8112  -30.6514 H   0  0  0  0  0  0  0  0  0  0  0  0
  1  2  1  0
  2  3  2  0
  2  4  2  0
  2  5  1  0
  5  6  2  0
  6  7  1  0
  7  8  2  0
  8  9  1  0
  9 10  1  0
 10 11  1  0
 11 12  2  0
 12 13  1  0
 13 14  1  0
 14 15  1  0
 15 16  1  0
 16 17  2  0
 16 18  2  0
 16 19  1  0
 19 20  2  0
 20 21  1  0
 21 22  2  0
 22 23  1  0
 22 24  1  0
 24 25  1  0
 25 26  2  0
 25 27  2  0
 25 28  1  0
 28 29  2  0
 29 30  1  0
 30 31  2  0
 31 32  1  0
 32 33  2  0
 24 34  2  0
  8 35  1  0
 35 36  2  0
 36  5  1  0
 15 11  1  0
 34 19  1  0
 33 28  1  0
  1 37  1  0
  6 38  1  0
  7 39  1  0
 10 40  1  0
 10 41  1  0
 12 42  1  0
 13 43  1  0
 13 44  1  0
 14 45  1  0
 14 46  1  0
 20 47  1  0
 21 48  1  0
 23 49  1  0
 29 50  1  0
 30 51  1  0
 31 52  1  0
 32 53  1  0
 33 54  1  0
 34 55  1  0
 35 56  1  0
 36 57  1  0
M  CHG  2   1  -1  12   1
M  END
>  <UniqueID>  (3) 
3

>  <SMILES>  (3) 
[NH-]S(=O)(=O)c1ccc(OCC2=[NH+]CCN2S(=O)(=O)c2ccc(O)c(S(=O)(=O)c3ccccc3)c2)cc1

>  <Energy>  (3) 
75.34393195211567

>  <Genealogy>  (3) 
[NH-]S(=O)(=O)c1ccc(OCC2=[NH+]CCN2S(=O)(=O)c2ccc(O)c(S(=O)(=O)c3ccccc3)c2)cc1 (protonated)
[NH-]S(=O)(=O)c1ccc(OCC2=[NH+]CCN2S(=O)(=O)c2ccc(O)c(S(=O)(=O)c3ccccc3)c2)cc1 (3D coordinates assigned)
[NH-]S(=O)(=O)c1ccc(OCC2=[NH+]CCN2S(=O)(=O)c2ccc(O)c(S(=O)(=O)c3ccccc3)c2)cc1 (nonaromatic ring conformer: 75.34393195211567 kcal/mol)

>  <smiles>  (3) 
NS(=O)(=O)c1ccc(OCC2=NCCN2S(=O)(=O)c2ccc(O)c(S(=O)(=O)c3ccccc3)c2)cc1

>  <score_type>  (3) 
oracle

>  <origin>  (3) 
adgpu

>  <m_score__min__energy>  (3) 
-11.050000000000001

>  <m_primary>  (3) 
energy

$$$$
3:0
     RDKit          3D

 59 62  0  0  0  0  0  0  0  0999 V2000
    2.7400   15.9200  -29.4780 C   0  0  0  0  0  0  0  0  0  0  0  0
    1.0310   16.2790  -29.1050 S   0  0  0  0  0  0  0  0  0  0  0  0
    0.6570   15.5720  -27.8330 O   0  0  0  0  0  0  0  0  0  0  0  0
    0.1720   15.7430  -30.2170 O   0  0  0  0  0  0  0  0  0  0  0  0
    0.7300   17.9920  -28.9180 N   0  0  0  0  0  0  0  0  0  0  0  0
    1.8470   18.6450  -28.2160 C   0  0  0  0  0  0  0  0  0  0  0  0
    1.4520   20.0880  -27.8430 C   0  0  0  0  0  0  0  0  0  0  0  0
    0.3770   20.5710  -28.7210 N   0  0  0  0  0  0  0  0  0  0  0  0
   -0.8250   21.1440  -28.1590 C   0  0  0  0  0  0  0  0  0  0  0  0
   -1.2770   20.6810  -27.0780 O   0  0  0  0  0  0  0  0  0  0  0  0
   -1.5970   22.1870  -28.8760 C   0  0  0  0  0  0  0  0  0  0  0  0
   -1.4010   23.5420  -28.5630 C   0  0  0  0  0  0  0  0  0  0  0  0
   -2.1500   24.5280  -29.2060 C   0  0  0  0  0  0  0  0  0  0  0  0
   -3.1270   24.1770  -30.1430 C   0  0  0  0  0  0  0  0  0  0  0  0
   -3.8940   25.1650  -30.7580 O   0  0  0  0  0  0  0  0  0  0  0  0
   -3.3420   22.8280  -30.4650 C   0  0  0  0  0  0  0  0  0  0  0  0
   -4.4000   22.5130  -31.3820 N   0  0  0  0  0  0  0  0  0  0  0  0
   -5.9670   23.2460  -31.5200 S   0  0  0  0  0  0  0  0  0  0  0  0
   -6.2000   24.0610  -30.2770 O   0  0  0  0  0  0  0  0  0  0  0  0
   -6.0590   24.1310  -32.7290 O   0  0  0  0  0  0  0  0  0  0  0  0
   -7.1560   21.9400  -31.7260 C   0  0  0  0  0  0  0  0  0  0  0  0
   -8.4250   22.1570  -31.1620 C   0  0  0  0  0  0  0  0  0  0  0  0
   -9.4020   21.1660  -31.1840 C   0  0  0  0  0  0  0  0  0  0  0  0
   -9.1150   19.9210  -31.7290 C   0  0  0  0  0  0  0  0  0  0  0  0
   -7.8500   19.6570  -32.2750 C   0  0  0  0  0  0  0  0  0  0  0  0
   -6.8630   20.6840  -32.3270 C   0  0  0  0  0  0  0  0  0  0  0  0
   -5.5060   20.4190  -32.9580 C   0  0  0  0  0  0  0  0  0  0  0  0
   -5.3830   19.0610  -33.6690 C   0  0  0  0  0  0  0  0  0  0  0  0
   -6.0920   17.9620  -32.8860 C   0  0  0  0  0  0  0  0  0  0  0  0
   -7.5870   18.2720  -32.8190 C   0  0  0  0  0  0  0  0  0  0  0  0
   -2.5370   21.8400  -29.8660 C   0  0  0  0  0  0  0  0  0  0  0  0
    0.4240   20.1580  -30.1300 C   0  0  0  0  0  0  0  0  0  0  0  0
    0.4920   18.6210  -30.2330 C   0  0  0  0  0  0  0  0  0  0  0  0
    3.3029   15.8018  -28.5404 H   0  0  0  0  0  0  0  0  0  0  0  0
    2.8003   14.9896  -30.0617 H   0  0  0  0  0  0  0  0  0  0  0  0
    3.1696   16.7475  -30.0617 H   0  0  0  0  0  0  0  0  0  0  0  0
    2.0831   18.0821  -27.3009 H   0  0  0  0  0  0  0  0  0  0  0  0
    2.7286   18.6664  -28.8735 H   0  0  0  0  0  0  0  0  0  0  0  0
    1.1044   20.1099  -26.7996 H   0  0  0  0  0  0  0  0  0  0  0  0
    2.3299   20.7396  -27.9642 H   0  0  0  0  0  0  0  0  0  0  0  0
   -0.6538   23.8271  -27.8077 H   0  0  0  0  0  0  0  0  0  0  0  0
   -1.9709   25.5883  -28.9744 H   0  0  0  0  0  0  0  0  0  0  0  0
   -4.5760   24.9400  -31.4740 H   0  0  0  0  0  0  0  0  0  0  0  0
   -8.6499   23.1272  -30.6950 H   0  0  0  0  0  0  0  0  0  0  0  0
  -10.4008   21.3686  -30.7701 H   0  0  0  0  0  0  0  0  0  0  0  0
   -9.8856   19.1360  -31.7325 H   0  0  0  0  0  0  0  0  0  0  0  0
   -5.3104   21.2111  -33.6958 H   0  0  0  0  0  0  0  0  0  0  0  0
   -4.7772   20.4059  -32.1342 H   0  0  0  0  0  0  0  0  0  0  0  0
   -5.8347   19.1375  -34.6690 H   0  0  0  0  0  0  0  0  0  0  0  0
   -4.3164   18.8025  -33.7436 H   0  0  0  0  0  0  0  0  0  0  0  0
   -5.9395   16.9958  -33.3892 H   0  0  0  0  0  0  0  0  0  0  0  0
   -5.6805   17.9121  -31.8671 H   0  0  0  0  0  0  0  0  0  0  0  0
   -8.0109   18.2009  -33.8315 H   0  0  0  0  0  0  0  0  0  0  0  0
   -8.0567   17.5440  -32.1412 H   0  0  0  0  0  0  0  0  0  0  0  0
   -2.6431   20.7892  -30.1736 H   0  0  0  0  0  0  0  0  0  0  0  0
   -0.4798   20.5169  -30.6441 H   0  0  0  0  0  0  0  0  0  0  0  0
    1.3201   20.5890  -30.6004 H   0  0  0  0  0  0  0  0  0  0  0  0
   -0.4606   18.2490  -30.6382 H   0  0  0  0  0  0  0  0  0  0  0  0
    1.3321   18.3599  -30.8934 H   0  0  0  0  0  0  0  0  0  0  0  0
  1  2  1  0
  2  3  2  0
  2  4  2  0
  2  5  1  0
  5  6  1  0
  6  7  1  0
  7  8  1  0
  8  9  1  0
  9 10  2  0
  9 11  1  0
 11 12  2  0
 12 13  1  0
 13 14  2  0
 14 15  1  0
 14 16  1  0
 16 17  1  0
 17 18  1  0
 18 19  2  0
 18 20  2  0
 18 21  1  0
 21 22  2  0
 22 23  1  0
 23 24  2  0
 24 25  1  0
 25 26  2  0
 26 27  1  0
 27 28  1  0
 28 29  1  0
 29 30  1  0
 16 31  2  0
  8 32  1  0
 32 33  1  0
 33  5  1  0
 31 11  1  0
 26 21  1  0
 30 25  1  0
  1 34  1  0
  1 35  1  0
  1 36  1  0
  6 37  1  0
  6 38  1  0
  7 39  1  0
  7 40  1  0
 12 41  1  0
 13 42  1  0
 15 43  1  0
 22 44  1  0
 23 45  1  0
 24 46  1  0
 27 47  1  0
 27 48  1  0
 28 49  1  0
 28 50  1  0
 29 51  1  0
 29 52  1  0
 30 53  1  0
 30 54  1  0
 31 55  1  0
 32 56  1  0
 32 57  1  0
 33 58  1  0
 33 59  1  0
M  CHG  1  17  -1
M  END
>  <UniqueID>  (4) 
4

>  <SMILES>  (4) 
CS(=O)(=O)N1CCN(C(=O)c2ccc(O)c([N-]S(=O)(=O)c3cccc4c3CCCC4)c2)CC1

>  <Energy>  (4) 
79.75968082648734

>  <Genealogy>  (4) 
CS(=O)(=O)N1CCN(C(=O)c2ccc(O)c([N-]S(=O)(=O)c3cccc4c3CCCC4)c2)CC1 (protonated)
CS(=O)(=O)N1CCN(C(=O)c2ccc(O)c([N-]S(=O)(=O)c3cccc4c3CCCC4)c2)CC1 (3D coordinates assigned)
CS(=O)(=O)N1CCN(C(=O)c2ccc(O)c([N-]S(=O)(=O)c3cccc4c3CCCC4)c2)CC1 (nonaromatic ring conformer: 79.75968082648734 kcal/mol)

>  <smiles>  (4) 
CS(=O)(=O)N1CCN(C(=O)c2ccc(O)c(NS(=O)(=O)c3cccc4c3CCCC4)c2)CC1

>  <score_type>  (4) 
oracle

>  <origin>  (4) 
adgpu

>  <m_score__min__energy>  (4) 
-12.140000000000001

>  <m_primary>  (4) 
energy

$$$$
4:0
     RDKit          3D

 61 64  0  0  0  0  0  0  0  0999 V2000
   -0.1020   25.3070  -26.7740 C   0  0  0  0  0  0  0  0  0  0  0  0
   -0.9380   24.2990  -27.5160 C   0  0  0  0  0  0  0  0  0  0  0  0
   -0.9590   22.9600  -27.0970 C   0  0  0  0  0  0  0  0  0  0  0  0
   -1.7410   22.0190  -27.7740 C   0  0  0  0  0  0  0  0  0  0  0  0
   -1.7770   20.3370  -27.2610 S   0  0  0  0  0  0  0  0  0  0  0  0
   -3.1370   19.7480  -27.5100 O   0  0  0  0  0  0  0  0  0  0  0  0
   -1.4660   20.2750  -25.7930 O   0  0  0  0  0  0  0  0  0  0  0  0
   -0.6000   19.4480  -28.1840 N   0  0  0  0  0  0  0  0  0  0  0  0
    0.1990   20.3400  -29.0260 C   0  0  0  0  0  0  0  0  0  0  0  0
   -0.2290   20.1980  -30.4600 C   0  0  0  0  0  0  0  0  0  0  0  0
   -0.4210   21.3260  -31.2710 C   0  0  0  0  0  0  0  0  0  0  0  0
   -0.8670   21.1740  -32.5850 C   0  0  0  0  0  0  0  0  0  0  0  0
   -1.1240   19.8900  -33.0760 C   0  0  0  0  0  0  0  0  0  0  0  0
   -0.9280   18.8050  -32.2800 N   0  0  0  0  0  0  0  0  0  0  0  0
   -0.4900   18.9290  -30.9990 C   0  0  0  0  0  0  0  0  0  0  0  0
   -2.4920   22.4130  -28.8850 C   0  0  0  0  0  0  0  0  0  0  0  0
   -2.5280   23.7580  -29.2930 C   0  0  0  0  0  0  0  0  0  0  0  0
   -3.3760   24.1650  -30.4440 C   0  0  0  0  0  0  0  0  0  0  0  0
   -3.9150   25.3040  -30.4440 O   0  0  0  0  0  0  0  0  0  0  0  0
   -3.5590   23.3250  -31.5940 N   0  0  0  0  0  0  0  0  0  0  0  0
   -4.4140   22.1750  -31.6770 C   0  0  0  0  0  0  0  0  0  0  0  0
   -3.9050   20.8750  -31.5150 C   0  0  0  0  0  0  0  0  0  0  0  0
   -4.7420   19.7670  -31.6650 C   0  0  0  0  0  0  0  0  0  0  0  0
   -6.0980   19.9430  -31.9600 C   0  0  0  0  0  0  0  0  0  0  0  0
   -7.1290   18.5440  -32.2450 S   0  0  0  0  0  0  0  0  0  0  0  0
   -8.5700   18.9490  -32.0720 O   0  0  0  0  0  0  0  0  0  0  0  0
   -6.8120   17.4810  -31.2280 O   0  0  0  0  0  0  0  0  0  0  0  0
   -6.8340   17.9710  -33.8780 N   0  0  0  0  0  0  0  0  0  0  0  0
   -6.5840   16.5200  -33.9240 C   0  0  0  0  0  0  0  0  0  0  0  0
   -5.1950   16.1530  -33.3520 C   0  0  0  0  0  0  0  0  0  0  0  0
   -4.3550   17.2810  -33.1750 O   0  0  0  0  0  0  0  0  0  0  0  0
   -4.3690   18.0800  -34.3370 C   0  0  0  0  0  0  0  0  0  0  0  0
   -5.7530   18.7270  -34.5450 C   0  0  0  0  0  0  0  0  0  0  0  0
   -6.6170   21.2410  -32.0720 C   0  0  0  0  0  0  0  0  0  0  0  0
   -5.7810   22.3550  -31.9270 C   0  0  0  0  0  0  0  0  0  0  0  0
   -6.2970   23.6430  -32.0520 O   0  0  0  0  0  0  0  0  0  0  0  0
   -1.7430   24.7030  -28.5980 C   0  0  0  0  0  0  0  0  0  0  0  0
   -1.7740   26.0460  -28.9670 O   0  0  0  0  0  0  0  0  0  0  0  0
   -0.2247   25.1590  -25.6909 H   0  0  0  0  0  0  0  0  0  0  0  0
    0.9562   25.1760  -27.0444 H   0  0  0  0  0  0  0  0  0  0  0  0
   -0.4265   26.3227  -27.0444 H   0  0  0  0  0  0  0  0  0  0  0  0
   -0.3567   22.6487  -26.2308 H   0  0  0  0  0  0  0  0  0  0  0  0
    0.0506   21.3804  -28.7010 H   0  0  0  0  0  0  0  0  0  0  0  0
    1.2623   20.0735  -28.9342 H   0  0  0  0  0  0  0  0  0  0  0  0
   -0.2200   22.3310  -30.8715 H   0  0  0  0  0  0  0  0  0  0  0  0
   -1.0147   22.0547  -33.2273 H   0  0  0  0  0  0  0  0  0  0  0  0
   -1.4849   19.7576  -34.1067 H   0  0  0  0  0  0  0  0  0  0  0  0
   -0.3395   18.0306  -30.3823 H   0  0  0  0  0  0  0  0  0  0  0  0
   -3.0630   21.6601  -29.4482 H   0  0  0  0  0  0  0  0  0  0  0  0
   -2.8428   20.7295  -31.2690 H   0  0  0  0  0  0  0  0  0  0  0  0
   -4.3333   18.7521  -31.5507 H   0  0  0  0  0  0  0  0  0  0  0  0
   -7.3579   16.0074  -33.3337 H   0  0  0  0  0  0  0  0  0  0  0  0
   -6.6121   16.2036  -34.9772 H   0  0  0  0  0  0  0  0  0  0  0  0
   -5.3353   15.6636  -32.3769 H   0  0  0  0  0  0  0  0  0  0  0  0
   -4.7048   15.4875  -34.0778 H   0  0  0  0  0  0  0  0  0  0  0  0
   -3.6125   18.8724  -34.2380 H   0  0  0  0  0  0  0  0  0  0  0  0
   -4.1463   17.4414  -35.2045 H   0  0  0  0  0  0  0  0  0  0  0  0
   -5.7310   19.7477  -34.1355 H   0  0  0  0  0  0  0  0  0  0  0  0
   -5.9629   18.7306  -35.6248 H   0  0  0  0  0  0  0  0  0  0  0  0
   -7.6884   21.3851  -32.2752 H   0  0  0  0  0  0  0  0  0  0  0  0
   -5.7620   24.4560  -31.7740 H   0  0  0  0  0  0  0  0  0  0  0  0
  1  2  1  0
  2  3  2  0
  3  4  1  0
  4  5  1  0
  5  6  2  0
  5  7  2  0
  5  8  1  0
  8  9  1  0
  9 10  1  0
 10 11  2  0
 11 12  1  0
 12 13  2  0
 13 14  1  0
 14 15  2  0
  4 16  2  0
 16 17  1  0
 17 18  1  0
 18 19  2  0
 18 20  1  0
 20 21  1  0
 21 22  2  0
 22 23  1  0
 23 24  2  0
 24 25  1  0
 25 26  2  0
 25 27  2  0
 25 28  1  0
 28 29  1  0
 29 30  1  0
 30 31  1  0
 31 32  1  0
 32 33  1  0
 24 34  1  0
 34 35  2  0
 35 36  1  0
 17 37  2  0
 37 38  1  0
 37  2  1  0
 15 10  1  0
 35 21  1  0
 33 28  1  0
  1 39  1  0
  1 40  1  0
  1 41  1  0
  3 42  1  0
  9 43  1  0
  9 44  1  0
 11 45  1  0
 12 46  1  0
 13 47  1  0
 15 48  1  0
 16 49  1  0
 22 50  1  0
 23 51  1  0
 29 52  1  0
 29 53  1  0
 30 54  1  0
 30 55  1  0
 32 56  1  0
 32 57  1  0
 33 58  1  0
 33 59  1  0
 34 60  1  0
 36 61  1  0
M  CHG  3   8  -1  20  -1  38  -1
M  END
>  <UniqueID>  (5) 
5

>  <SMILES>  (5) 
Cc1cc(S(=O)(=O)[N-]Cc2cccnc2)cc(C(=O)[N-]c2ccc(S(=O)(=O)N3CCOCC3)cc2O)c1[O-]

>  <Energy>  (5) 
78.97418867188833

>  <Genealogy>  (5) 
Cc1cc(S(=O)(=O)[N-]Cc2cccnc2)cc(C(=O)[N-]c2ccc(S(=O)(=O)N3CCOCC3)cc2O)c1[O-] (protonated)
Cc1cc(S(=O)(=O)[N-]Cc2cccnc2)cc(C(=O)[N-]c2ccc(S(=O)(=O)N3CCOCC3)cc2O)c1[O-] (3D coordinates assigned)
Cc1cc(S(=O)(=O)[N-]Cc2cccnc2)cc(C(=O)[N-]c2ccc(S(=O)(=O)N3CCOCC3)cc2O)c1[O-] (nonaromatic ring conformer: 78.97418867188833 kcal/mol)

>  <smiles>  (5) 
Cc1cc(S(=O)(=O)NCc2cccnc2)cc(C(=O)Nc2ccc(S(=O)(=O)N3CCOCC3)cc2O)c1O

>  <score_type>  (5) 
oracle

>  <origin>  (5) 
adgpu

>  <m_score__min__energy>  (5) 
-13.59

>  <m_primary>  (5) 
energy

$$$$
5:0
     RDKit          3D

 60 64  0  0  0  0  0  0  0  0999 V2000
   -2.2830   21.1580  -33.6610 C   0  0  0  0  0  0  0  0  0  0  0  0
   -1.9040   19.7260  -33.8770 C   0  0  0  0  0  0  0  0  0  0  0  0
   -0.6040   19.3870  -34.2640 C   0  0  0  0  0  0  0  0  0  0  0  0
   -0.3120   18.0420  -34.5090 C   0  0  0  0  0  0  0  0  0  0  0  0
    0.8490   17.6990  -34.8560 O   0  0  0  0  0  0  0  0  0  0  0  0
   -1.2840   17.1020  -34.3830 N   0  0  0  0  0  0  0  0  0  0  0  0
   -2.5480   17.4450  -34.0190 C   0  0  0  0  0  0  0  0  0  0  0  0
   -3.5570   16.4370  -33.9320 N   0  0  0  0  0  0  0  0  0  0  0  0
   -4.5770   16.4520  -32.8800 C   0  0  0  0  0  0  0  0  0  0  0  0
   -5.9580   16.0950  -33.4390 C   0  0  0  0  0  0  0  0  0  0  0  0
   -6.7250   17.3150  -33.7730 N   0  0  0  0  0  0  0  0  0  0  0  0
   -7.5510   17.7950  -32.6340 C   0  0  0  0  0  0  0  0  0  0  0  0
   -6.8160   18.8180  -31.7520 C   0  0  0  0  0  0  0  0  0  0  0  0
   -6.2260   19.8840  -32.5650 N   0  0  0  0  0  0  0  0  0  0  0  0
   -5.4980   20.9430  -31.9240 C   0  0  0  0  0  0  0  0  0  0  0  0
   -4.2610   20.6800  -31.3250 C   0  0  0  0  0  0  0  0  0  0  0  0
   -3.5270   21.7070  -30.6830 C   0  0  0  0  0  0  0  0  0  0  0  0
   -4.0420   23.0290  -30.7150 C   0  0  0  0  0  0  0  0  0  0  0  0
   -5.2880   23.2790  -31.3220 C   0  0  0  0  0  0  0  0  0  0  0  0
   -6.0120   22.2460  -31.9130 C   0  0  0  0  0  0  0  0  0  0  0  0
   -7.1980   22.5230  -32.5100 F   0  0  0  0  0  0  0  0  0  0  0  0
   -3.2910   24.0770  -30.1550 C   0  0  0  0  0  0  0  0  0  0  0  0
   -3.7440   25.2560  -30.1760 O   0  0  0  0  0  0  0  0  0  0  0  0
   -2.0330   23.8130  -29.5860 C   0  0  0  0  0  0  0  0  0  0  0  0
   -1.1790   24.8900  -29.0160 C   0  0  0  0  0  0  0  0  0  0  0  0
   -1.5830   26.0840  -28.9690 O   0  0  0  0  0  0  0  0  0  0  0  0
    0.0900   24.5960  -28.5250 O   0  0  0  0  0  0  0  0  0  0  0  0
   -1.5770   22.4870  -29.5590 C   0  0  0  0  0  0  0  0  0  0  0  0
   -2.3320   21.4540  -30.0440 N   0  0  0  0  0  0  0  0  0  0  0  0
   -1.7790   20.0910  -29.9390 C   0  0  0  0  0  0  0  0  0  0  0  0
   -0.4550   20.0090  -29.1850 C   0  0  0  0  0  0  0  0  0  0  0  0
   -0.4670   19.8650  -30.6910 C   0  0  0  0  0  0  0  0  0  0  0  0
   -6.2540   19.7770  -34.0240 C   0  0  0  0  0  0  0  0  0  0  0  0
   -5.8640   18.3500  -34.4110 C   0  0  0  0  0  0  0  0  0  0  0  0
   -2.8490   18.7520  -33.7750 N   0  0  0  0  0  0  0  0  0  0  0  0
   -2.3375   21.3641  -32.5819 H   0  0  0  0  0  0  0  0  0  0  0  0
   -1.5267   21.8109  -34.1212 H   0  0  0  0  0  0  0  0  0  0  0  0
   -3.2632   21.3513  -34.1212 H   0  0  0  0  0  0  0  0  0  0  0  0
    0.1707   20.1603  -34.3731 H   0  0  0  0  0  0  0  0  0  0  0  0
   -3.5950   15.7150  -34.6860 H   0  0  0  0  0  0  0  0  0  0  0  0
   -4.3038   15.7203  -32.1055 H   0  0  0  0  0  0  0  0  0  0  0  0
   -4.6250   17.4664  -32.4572 H   0  0  0  0  0  0  0  0  0  0  0  0
   -5.8325   15.4886  -34.3481 H   0  0  0  0  0  0  0  0  0  0  0  0
   -6.5114   15.5311  -32.6736 H   0  0  0  0  0  0  0  0  0  0  0  0
   -8.4610   18.2660  -33.0341 H   0  0  0  0  0  0  0  0  0  0  0  0
   -7.7844   16.9235  -32.0047 H   0  0  0  0  0  0  0  0  0  0  0  0
   -7.5307   19.2604  -31.0424 H   0  0  0  0  0  0  0  0  0  0  0  0
   -6.0086   18.3003  -31.2134 H   0  0  0  0  0  0  0  0  0  0  0  0
   -3.8522   19.6592  -31.3532 H   0  0  0  0  0  0  0  0  0  0  0  0
   -5.6940   24.3013  -31.3295 H   0  0  0  0  0  0  0  0  0  0  0  0
   -0.5847   22.2714  -29.1361 H   0  0  0  0  0  0  0  0  0  0  0  0
   -2.7479   19.5726  -29.8896 H   0  0  0  0  0  0  0  0  0  0  0  0
   -0.0294   20.9122  -28.7234 H   0  0  0  0  0  0  0  0  0  0  0  0
   -0.0740   19.4013  -28.3510 H   0  0  0  0  0  0  0  0  0  0  0  0
   -0.0511   20.6638  -31.3226 H   0  0  0  0  0  0  0  0  0  0  0  0
   -0.0994   19.1104  -31.4019 H   0  0  0  0  0  0  0  0  0  0  0  0
   -7.2662   19.9986  -34.3934 H   0  0  0  0  0  0  0  0  0  0  0  0
   -5.5497   20.4952  -34.4692 H   0  0  0  0  0  0  0  0  0  0  0  0
   -5.9460   18.2487  -35.5033 H   0  0  0  0  0  0  0  0  0  0  0  0
   -4.8355   18.1840  -34.0578 H   0  0  0  0  0  0  0  0  0  0  0  0
  1  2  1  0
  2  3  2  0
  3  4  1  0
  4  5  2  0
  4  6  1  0
  6  7  2  0
  7  8  1  0
  8  9  1  0
  9 10  1  0
 10 11  1  0
 11 12  1  0
 12 13  1  0
 13 14  1  0
 14 15  1  0
 15 16  2  0
 16 17  1  0
 17 18  2  0
 18 19  1  0
 19 20  2  0
 20 21  1  0
 18 22  1  0
 22 23  2  0
 22 24  1  0
 24 25  1  0
 25 26  2  0
 25 27  1  0
 24 28  2  0
 28 29  1  0
 29 30  1  0
 30 31  1  0
 31 32  1  0
 14 33  1  0
 33 34  1  0
  7 35  1  0
 35  2  1  0
 34 11  1  0
 20 15  1  0
 32 30  1  0
 29 17  1  0
  1 36  1  0
  1 37  1  0
  1 38  1  0
  3 39  1  0
  8 40  1  0
  9 41  1  0
  9 42  1  0
 10 43  1  0
 10 44  1  0
 12 45  1  0
 12 46  1  0
 13 47  1  0
 13 48  1  0
 16 49  1  0
 19 50  1  0
 28 51  1  0
 30 52  1  0
 31 53  1  0
 31 54  1  0
 32 55  1  0
 32 56  1  0
 33 57  1  0
 33 58  1  0
 34 59  1  0
 34 60  1  0
M  CHG  2  27  -1  35  -1
M  END
>  <UniqueID>  (6) 
6

>  <SMILES>  (6) 
Cc1cc(=O)nc(NCCN2CCN(c3cc4c(cc3F)c(=O)c(C(=O)[O-])cn4C3CC3)CC2)[n-]1

>  <Energy>  (6) 
351.7589281001996

>  <Genealogy>  (6) 
Cc1cc(=O)nc(NCCN2CCN(c3cc4c(cc3F)c(=O)c(C(=O)[O-])cn4C3CC3)CC2)[n-]1 (protonated)
Cc1cc(=O)nc(NCCN2CCN(c3cc4c(cc3F)c(=O)c(C(=O)[O-])cn4C3CC3)CC2)[n-]1 (3D coordinates assigned)
Cc1cc(=O)nc(NCCN2CCN(c3cc4c(cc3F)c(=O)c(C(=O)[O-])cn4C3CC3)CC2)[n-]1 (nonaromatic ring conformer: 351.7589281001996 kcal/mol)

>  <smiles>  (6) 
Cc1cc(=O)nc(NCCN2CCN(c3cc4c(cc3F)c(=O)c(C(=O)O)cn4C3CC3)CC2)[nH]1

>  <score_type>  (6) 
oracle

>  <origin>  (6) 
adgpu

>  <m_score__min__energy>  (6) 
-11.390000000000001

>  <m_primary>  (6) 
energy

$$$$
6:0
     RDKit          3D

 39 41  0  0  0  0  0  0  0  0999 V2000
   -3.3070   21.2050  -31.6030 O   0  0  0  0  0  0  0  0  0  0  0  0
   -3.6630   22.3800  -31.3140 C   0  0  0  0  0  0  0  0  0  0  0  0
   -4.8980   22.8960  -31.8280 N   0  0  0  0  0  0  0  0  0  0  0  0
   -6.1420   22.1870  -31.9380 C   0  0  0  0  0  0  0  0  0  0  0  0
   -7.3340   22.9150  -31.9030 C   0  0  0  0  0  0  0  0  0  0  0  0
   -8.5630   22.2620  -32.0010 C   0  0  0  0  0  0  0  0  0  0  0  0
   -8.6230   20.8690  -32.1120 C   0  0  0  0  0  0  0  0  0  0  0  0
   -9.8800   20.2790  -32.2510 O   0  0  0  0  0  0  0  0  0  0  0  0
   -7.4280   20.1140  -32.0880 C   0  0  0  0  0  0  0  0  0  0  0  0
   -7.4490   18.3440  -32.1520 S   0  0  0  0  0  0  0  0  0  0  0  0
   -6.5800   17.7860  -31.0580 O   0  0  0  0  0  0  0  0  0  0  0  0
   -8.8640   17.8770  -31.9550 O   0  0  0  0  0  0  0  0  0  0  0  0
   -6.8630   17.7650  -33.6970 N   0  0  0  0  0  0  0  0  0  0  0  0
   -6.0480   18.7850  -34.3820 C   0  0  0  0  0  0  0  0  0  0  0  0
   -4.6560   18.2140  -34.5910 C   0  0  0  0  0  0  0  0  0  0  0  0
   -4.8390   16.7230  -34.4670 C   0  0  0  0  0  0  0  0  0  0  0  0
   -6.0120   16.5800  -33.5210 C   0  0  0  0  0  0  0  0  0  0  0  0
   -6.1950   20.7840  -32.0150 C   0  0  0  0  0  0  0  0  0  0  0  0
   -2.7680   23.2370  -30.4890 C   0  0  0  0  0  0  0  0  0  0  0  0
   -1.5240   22.7430  -30.0610 C   0  0  0  0  0  0  0  0  0  0  0  0
   -0.6990   23.5150  -29.3090 N   0  0  0  0  0  0  0  0  0  0  0  0
   -1.0540   24.7740  -28.9510 C   0  0  0  0  0  0  0  0  0  0  0  0
   -0.2750   25.4730  -28.2520 O   0  0  0  0  0  0  0  0  0  0  0  0
   -2.2490   25.2800  -29.3450 N   0  0  0  0  0  0  0  0  0  0  0  0
   -3.1110   24.5500  -30.0990 C   0  0  0  0  0  0  0  0  0  0  0  0
   -4.2100   25.0660  -30.4360 O   0  0  0  0  0  0  0  0  0  0  0  0
   -7.3033   24.0095  -31.7976 H   0  0  0  0  0  0  0  0  0  0  0  0
   -9.4937   22.8483  -31.9909 H   0  0  0  0  0  0  0  0  0  0  0  0
  -10.0260   19.2790  -32.2850 H   0  0  0  0  0  0  0  0  0  0  0  0
   -6.4996   19.0320  -35.3541 H   0  0  0  0  0  0  0  0  0  0  0  0
   -5.9970   19.7019  -33.7765 H   0  0  0  0  0  0  0  0  0  0  0  0
   -4.2730   18.4774  -35.5880 H   0  0  0  0  0  0  0  0  0  0  0  0
   -3.9282   18.6085  -33.8666 H   0  0  0  0  0  0  0  0  0  0  0  0
   -5.0672   16.2736  -35.4448 H   0  0  0  0  0  0  0  0  0  0  0  0
   -3.9350   16.2125  -34.1035 H   0  0  0  0  0  0  0  0  0  0  0  0
   -6.5804   15.6694  -33.7613 H   0  0  0  0  0  0  0  0  0  0  0  0
   -5.6652   16.5010  -32.4801 H   0  0  0  0  0  0  0  0  0  0  0  0
   -5.2603   20.2041  -32.0181 H   0  0  0  0  0  0  0  0  0  0  0  0
   -1.2167   21.7236  -30.3374 H   0  0  0  0  0  0  0  0  0  0  0  0
  1  2  2  0
  2  3  1  0
  3  4  1  0
  4  5  2  0
  5  6  1  0
  6  7  2  0
  7  8  1  0
  7  9  1  0
  9 10  1  0
 10 11  2  0
 10 12  2  0
 10 13  1  0
 13 14  1  0
 14 15  1  0
 15 16  1  0
 16 17  1  0
  9 18  2  0
  2 19  1  0
 19 20  2  0
 20 21  1  0
 21 22  1  0
 22 23  2  0
 22 24  1  0
 24 25  1  0
 25 26  2  0
 18  4  1  0
 25 19  1  0
 17 13  1  0
  5 27  1  0
  6 28  1  0
  8 29  1  0
 14 30  1  0
 14 31  1  0
 15 32  1  0
 15 33  1  0
 16 34  1  0
 16 35  1  0
 17 36  1  0
 17 37  1  0
 18 38  1  0
 20 39  1  0
M  CHG  3   3  -1  21  -1  24  -1
M  END
>  <UniqueID>  (7) 
7

>  <SMILES>  (7) 
O=C([N-]c1ccc(O)c(S(=O)(=O)N2CCCC2)c1)c1c[n-]c(=O)[n-]c1=O

>  <Energy>  (7) 
51.374366501535356

>  <Genealogy>  (7) 
O=C([N-]c1ccc(O)c(S(=O)(=O)N2CCCC2)c1)c1c[n-]c(=O)[n-]c1=O (protonated)
O=C([N-]c1ccc(O)c(S(=O)(=O)N2CCCC2)c1)c1c[n-]c(=O)[n-]c1=O (3D coordinates assigned)
O=C([N-]c1ccc(O)c(S(=O)(=O)N2CCCC2)c1)c1c[n-]c(=O)[n-]c1=O (nonaromatic ring conformer: 51.374366501535356 kcal/mol)

>  <smiles>  (7) 
O=C(Nc1ccc(O)c(S(=O)(=O)N2CCCC2)c1)c1c[nH]c(=O)[nH]c1=O

>  <score_type>  (7) 
oracle

>  <origin>  (7) 
adgpu

>  <m_score__min__energy>  (7) 
-11.300000000000001

>  <m_primary>  (7) 
energy

$$$$
7:0
     RDKit          3D

 40 41  0  0  0  0  0  0  0  0999 V2000
   -5.6960   25.9480  -30.4520 C   0  0  0  0  0  0  0  0  0  0  0  0
   -5.6500   24.7280  -29.9120 C   0  0  0  0  0  0  0  0  0  0  0  0
   -5.3040   23.5110  -30.7300 C   0  0  0  0  0  0  0  0  0  0  0  0
   -3.8590   23.4620  -31.0130 N   0  0  0  0  0  0  0  0  0  0  0  0
   -3.4770   22.2460  -31.7540 C   0  0  0  0  0  0  0  0  0  0  0  0
   -1.9830   21.9300  -31.6330 C   0  0  0  0  0  0  0  0  0  0  0  0
   -1.5480   22.2250  -30.3080 O   0  0  0  0  0  0  0  0  0  0  0  0
   -1.4710   21.2880  -29.2670 C   0  0  0  0  0  0  0  0  0  0  0  0
   -0.5640   20.2080  -29.2990 C   0  0  0  0  0  0  0  0  0  0  0  0
   -0.5180   19.2970  -28.2400 C   0  0  0  0  0  0  0  0  0  0  0  0
   -1.3670   19.4510  -27.1430 C   0  0  0  0  0  0  0  0  0  0  0  0
   -2.2680   20.5170  -27.1030 C   0  0  0  0  0  0  0  0  0  0  0  0
   -2.3280   21.4310  -28.1620 C   0  0  0  0  0  0  0  0  0  0  0  0
   -3.5020   22.7890  -28.0880 S   0  0  0  0  0  0  0  0  0  0  0  0
   -2.2360   24.0010  -27.6890 C   0  0  0  0  0  0  0  0  0  0  0  0
   -1.4900   23.8600  -26.5120 C   0  0  0  0  0  0  0  0  0  0  0  0
   -0.4980   24.7920  -26.1940 C   0  0  0  0  0  0  0  0  0  0  0  0
   -0.2510   25.8720  -27.0470 C   0  0  0  0  0  0  0  0  0  0  0  0
   -1.0020   26.0230  -28.2170 C   0  0  0  0  0  0  0  0  0  0  0  0
   -1.9970   25.0940  -28.5390 C   0  0  0  0  0  0  0  0  0  0  0  0
   -2.7410   25.2610  -29.7010 O   0  0  0  0  0  0  0  0  0  0  0  0
   -5.9520   26.8166  -29.8275 H   0  0  0  0  0  0  0  0  0  0  0  0
   -5.4780   26.0847  -31.5215 H   0  0  0  0  0  0  0  0  0  0  0  0
   -5.8706   24.6080  -28.8411 H   0  0  0  0  0  0  0  0  0  0  0  0
   -5.5927   22.6080  -30.1722 H   0  0  0  0  0  0  0  0  0  0  0  0
   -5.8478   23.5627  -31.6848 H   0  0  0  0  0  0  0  0  0  0  0  0
   -3.5680   24.3100  -31.5540 H   0  0  0  0  0  0  0  0  0  0  0  0
   -3.3390   23.4590  -30.1050 H   0  0  0  0  0  0  0  0  0  0  0  0
   -4.0507   21.3958  -31.3563 H   0  0  0  0  0  0  0  0  0  0  0  0
   -3.6966   22.4201  -32.8177 H   0  0  0  0  0  0  0  0  0  0  0  0
   -1.8137   20.8644  -31.8473 H   0  0  0  0  0  0  0  0  0  0  0  0
   -1.4166   22.5395  -32.3525 H   0  0  0  0  0  0  0  0  0  0  0  0
    0.1090   20.0825  -30.1600 H   0  0  0  0  0  0  0  0  0  0  0  0
    0.1899   18.4556  -28.2713 H   0  0  0  0  0  0  0  0  0  0  0  0
   -1.3264   18.7331  -26.3105 H   0  0  0  0  0  0  0  0  0  0  0  0
   -2.9335   20.6392  -26.2358 H   0  0  0  0  0  0  0  0  0  0  0  0
   -1.6852   23.0141  -25.8365 H   0  0  0  0  0  0  0  0  0  0  0  0
    0.0893   24.6756  -25.2712 H   0  0  0  0  0  0  0  0  0  0  0  0
    0.5332   26.6021  -26.7980 H   0  0  0  0  0  0  0  0  0  0  0  0
   -0.8097   26.8747  -28.8860 H   0  0  0  0  0  0  0  0  0  0  0  0
  1  2  2  0
  2  3  1  0
  3  4  1  0
  4  5  1  0
  5  6  1  0
  6  7  1  0
  7  8  1  0
  8  9  2  0
  9 10  1  0
 10 11  2  0
 11 12  1  0
 12 13  2  0
 13 14  1  0
 14 15  1  0
 15 16  2  0
 16 17  1  0
 17 18  2  0
 18 19  1  0
 19 20  2  0
 20 21  1  0
 13  8  1  0
 20 15  1  0
  1 22  1  0
  1 23  1  0
  2 24  1  0
  3 25  1  0
  3 26  1  0
  4 27  1  0
  4 28  1  0
  5 29  1  0
  5 30  1  0
  6 31  1  0
  6 32  1  0
  9 33  1  0
 10 34  1  0
 11 35  1  0
 12 36  1  0
 16 37  1  0
 17 38  1  0
 18 39  1  0
 19 40  1  0
M  CHG  2   4   1  21  -1
M  END
>  <UniqueID>  (8) 
8

>  <SMILES>  (8) 
C=CC[NH2+]CCOc1ccccc1Sc1ccccc1[O-]

>  <Energy>  (8) 
30.696674479308836

>  <Genealogy>  (8) 
C=CC[NH2+]CCOc1ccccc1Sc1ccccc1[O-] (protonated)
C=CC[NH2+]CCOc1ccccc1Sc1ccccc1[O-] (3D coordinates assigned)
C=CC[NH2+]CCOc1ccccc1Sc1ccccc1[O-] (optimized conformer: 30.696674479308836 kcal/mol)

>  <smiles>  (8) 
C=CCNCCOc1ccccc1Sc1ccccc1O

>  <score_type>  (8) 
oracle

>  <origin>  (8) 
adgpu

>  <m_score__min__energy>  (8) 
-9.0800000000000001

>  <m_primary>  (8) 
energy

$$$$
8:0
     RDKit          3D

 58 62  0  0  0  0  0  0  0  0999 V2000
   -5.6230   26.1370  -30.8960 O   0  0  0  0  0  0  0  0  0  0  0  0
   -5.1360   24.9080  -30.1790 S   0  0  0  0  0  0  0  0  0  0  0  0
   -5.6290   24.9640  -28.7590 O   0  0  0  0  0  0  0  0  0  0  0  0
   -3.3990   24.9140  -30.2510 N   0  0  0  0  0  0  0  0  0  0  0  0
   -2.4750   24.3290  -29.3170 C   0  0  0  0  0  0  0  0  0  0  0  0
   -2.6220   23.0180  -28.8210 C   0  0  0  0  0  0  0  0  0  0  0  0
   -1.7130   22.5090  -27.8780 C   0  0  0  0  0  0  0  0  0  0  0  0
   -1.9950   20.9320  -27.1250 S   0  0  0  0  0  0  0  0  0  0  0  0
   -1.6200   21.0170  -25.6700 O   0  0  0  0  0  0  0  0  0  0  0  0
   -3.4620   20.6090  -27.2030 O   0  0  0  0  0  0  0  0  0  0  0  0
   -1.0890   19.6330  -27.8630 N   0  0  0  0  0  0  0  0  0  0  0  0
   -1.2130   18.3740  -27.1280 C   0  0  0  0  0  0  0  0  0  0  0  0
    0.0360   17.5610  -27.4570 C   0  0  0  0  0  0  0  0  0  0  0  0
    1.0150   18.5570  -28.0660 C   0  0  0  0  0  0  0  0  0  0  0  0
    0.3440   19.9120  -27.9150 C   0  0  0  0  0  0  0  0  0  0  0  0
   -0.6310   23.3000  -27.4610 C   0  0  0  0  0  0  0  0  0  0  0  0
   -0.4690   24.5920  -27.9650 C   0  0  0  0  0  0  0  0  0  0  0  0
   -1.3950   25.1120  -28.8740 C   0  0  0  0  0  0  0  0  0  0  0  0
   -1.2360   26.4140  -29.3350 O   0  0  0  0  0  0  0  0  0  0  0  0
   -5.7660   23.4750  -30.9950 C   0  0  0  0  0  0  0  0  0  0  0  0
   -7.1410   23.3500  -31.2510 C   0  0  0  0  0  0  0  0  0  0  0  0
   -7.6350   22.2230  -31.9150 C   0  0  0  0  0  0  0  0  0  0  0  0
   -6.7580   21.2190  -32.3340 C   0  0  0  0  0  0  0  0  0  0  0  0
   -5.3830   21.3390  -32.0940 C   0  0  0  0  0  0  0  0  0  0  0  0
   -4.2830   20.0830  -32.6510 S   0  0  0  0  0  0  0  0  0  0  0  0
   -4.4020   19.8990  -34.1390 O   0  0  0  0  0  0  0  0  0  0  0  0
   -4.6690   18.7950  -31.9760 O   0  0  0  0  0  0  0  0  0  0  0  0
   -2.6140   20.5020  -32.2500 C   0  0  0  0  0  0  0  0  0  0  0  0
   -2.2350   20.7120  -30.9070 C   0  0  0  0  0  0  0  0  0  0  0  0
   -0.9050   21.0510  -30.5790 C   0  0  0  0  0  0  0  0  0  0  0  0
    0.0650   21.1870  -31.5870 C   0  0  0  0  0  0  0  0  0  0  0  0
   -0.3220   20.9660  -32.9070 C   0  0  0  0  0  0  0  0  0  0  0  0
    0.4730   21.0240  -33.9930 N   0  0  0  0  0  0  0  0  0  0  0  0
   -0.3530   20.7070  -35.0180 C   0  0  0  0  0  0  0  0  0  0  0  0
    0.0690   20.6390  -36.3430 O   0  0  0  0  0  0  0  0  0  0  0  0
   -1.6510   20.4550  -34.6010 C   0  0  0  0  0  0  0  0  0  0  0  0
   -1.6170   20.6320  -33.2320 C   0  0  0  0  0  0  0  0  0  0  0  0
   -4.8910   22.4660  -31.4230 C   0  0  0  0  0  0  0  0  0  0  0  0
   -3.4530   22.3897  -29.1741 H   0  0  0  0  0  0  0  0  0  0  0  0
   -1.2672   18.5681  -26.0466 H   0  0  0  0  0  0  0  0  0  0  0  0
   -2.1280   17.8337  -27.4122 H   0  0  0  0  0  0  0  0  0  0  0  0
    0.4575   17.1157  -26.5438 H   0  0  0  0  0  0  0  0  0  0  0  0
   -0.1844   16.7304  -28.1436 H   0  0  0  0  0  0  0  0  0  0  0  0
    1.9726   18.5376  -27.5251 H   0  0  0  0  0  0  0  0  0  0  0  0
    1.2415   18.3233  -29.1168 H   0  0  0  0  0  0  0  0  0  0  0  0
    0.6741   20.4035  -26.9879 H   0  0  0  0  0  0  0  0  0  0  0  0
    0.5987   20.5887  -28.7440 H   0  0  0  0  0  0  0  0  0  0  0  0
    0.0919   22.9005  -26.7345 H   0  0  0  0  0  0  0  0  0  0  0  0
    0.3891   25.2019  -27.6461 H   0  0  0  0  0  0  0  0  0  0  0  0
   -7.8325   24.1421  -30.9278 H   0  0  0  0  0  0  0  0  0  0  0  0
   -8.7137   22.1267  -32.1075 H   0  0  0  0  0  0  0  0  0  0  0  0
   -7.1485   20.3317  -32.8539 H   0  0  0  0  0  0  0  0  0  0  0  0
   -2.9839   20.6104  -30.1077 H   0  0  0  0  0  0  0  0  0  0  0  0
   -0.6255   21.2099  -29.5270 H   0  0  0  0  0  0  0  0  0  0  0  0
    1.1015   21.4605  -31.3404 H   0  0  0  0  0  0  0  0  0  0  0  0
    0.1240   19.7470  -36.8230 H   0  0  0  0  0  0  0  0  0  0  0  0
   -2.5150   20.1763  -35.2221 H   0  0  0  0  0  0  0  0  0  0  0  0
   -3.8120   22.5601  -31.2307 H   0  0  0  0  0  0  0  0  0  0  0  0
  1  2  2  0
  2  3  2  0
  2  4  1  0
  4  5  1  0
  5  6  2  0
  6  7  1  0
  7  8  1  0
  8  9  2  0
  8 10  2  0
  8 11  1  0
 11 12  1  0
 12 13  1  0
 13 14  1  0
 14 15  1  0
  7 16  2  0
 16 17  1  0
 17 18  2  0
 18 19  1  0
  2 20  1  0
 20 21  2  0
 21 22  1  0
 22 23  2  0
 23 24  1  0
 24 25  1  0
 25 26  2  0
 25 27  2  0
 25 28  1  0
 28 29  2  0
 29 30  1  0
 30 31  2  0
 31 32  1  0
 32 33  1  0
 33 34  1  0
 34 35  1  0
 34 36  2  0
 36 37  1  0
 24 38  2  0
 18  5  1  0
 38 20  1  0
 15 11  1  0
 37 28  1  0
 37 32  2  0
  6 39  1  0
 12 40  1  0
 12 41  1  0
 13 42  1  0
 13 43  1  0
 14 44  1  0
 14 45  1  0
 15 46  1  0
 15 47  1  0
 16 48  1  0
 17 49  1  0
 21 50  1  0
 22 51  1  0
 23 52  1  0
 29 53  1  0
 30 54  1  0
 31 55  1  0
 35 56  1  0
 36 57  1  0
 38 58  1  0
M  CHG  3   4  -1  19  -1  33  -1
M  END
>  <UniqueID>  (9) 
9

>  <SMILES>  (9) 
O=S(=O)([N-]c1cc(S(=O)(=O)N2CCCC2)ccc1[O-])c1cccc(S(=O)(=O)c2cccc3[n-]c(O)cc23)c1

>  <Energy>  (9) 
99.39762322862386

>  <Genealogy>  (9) 
O=S(=O)([N-]c1cc(S(=O)(=O)N2CCCC2)ccc1[O-])c1cccc(S(=O)(=O)c2cccc3[n-]c(O)cc23)c1 (protonated)
O=S(=O)([N-]c1cc(S(=O)(=O)N2CCCC2)ccc1[O-])c1cccc(S(=O)(=O)c2cccc3[n-]c(O)cc23)c1 (3D coordinates assigned)
O=S(=O)([N-]c1cc(S(=O)(=O)N2CCCC2)ccc1[O-])c1cccc(S(=O)(=O)c2cccc3[n-]c(O)cc23)c1 (nonaromatic ring conformer: 99.39762322862386 kcal/mol)

>  <smiles>  (9) 
O=S(=O)(Nc1cc(S(=O)(=O)N2CCCC2)ccc1O)c1cccc(S(=O)(=O)c2cccc3[nH]c(O)cc23)c1

>  <score_type>  (9) 
oracle

>  <origin>  (9) 
adgpu

>  <m_score__min__energy>  (9) 
-15.300000000000001

>  <m_primary>  (9) 
energy

$$$$
9:0
     RDKit          3D

 37 39  0  0  0  0  0  0  0  0999 V2000
    0.8650   20.8090  -27.8550 N   0  0  0  0  0  0  0  0  0  0  0  0
   -0.1200   21.4000  -28.0000 C   0  0  0  0  0  0  0  0  0  0  0  0
   -1.3450   22.1340  -28.1800 C   0  0  0  0  0  0  0  0  0  0  0  0
   -2.5480   21.6230  -27.6830 C   0  0  0  0  0  0  0  0  0  0  0  0
   -3.7390   22.3340  -27.8570 C   0  0  0  0  0  0  0  0  0  0  0  0
   -3.7410   23.5740  -28.5250 C   0  0  0  0  0  0  0  0  0  0  0  0
   -4.9560   24.3270  -28.7040 N   0  0  0  0  0  0  0  0  0  0  0  0
   -5.6980   24.6020  -30.2490 S   0  0  0  0  0  0  0  0  0  0  0  0
   -6.7650   25.6490  -30.1080 O   0  0  0  0  0  0  0  0  0  0  0  0
   -4.6540   25.0910  -31.2150 O   0  0  0  0  0  0  0  0  0  0  0  0
   -6.4400   23.1150  -30.8350 C   0  0  0  0  0  0  0  0  0  0  0  0
   -7.6930   22.7130  -30.3570 C   0  0  0  0  0  0  0  0  0  0  0  0
   -8.2830   21.5400  -30.8350 C   0  0  0  0  0  0  0  0  0  0  0  0
   -7.6260   20.7530  -31.7920 C   0  0  0  0  0  0  0  0  0  0  0  0
   -6.3740   21.1680  -32.2930 C   0  0  0  0  0  0  0  0  0  0  0  0
   -5.7790   22.3360  -31.7920 C   0  0  0  0  0  0  0  0  0  0  0  0
   -5.6200   20.3180  -33.2890 C   0  0  0  0  0  0  0  0  0  0  0  0
   -6.5050   19.4030  -34.0240 N   0  0  0  0  0  0  0  0  0  0  0  0
   -7.3330   18.6220  -33.0970 C   0  0  0  0  0  0  0  0  0  0  0  0
   -8.3090   19.5270  -32.3380 C   0  0  0  0  0  0  0  0  0  0  0  0
   -2.5250   24.0770  -29.0290 C   0  0  0  0  0  0  0  0  0  0  0  0
   -2.4880   25.2940  -29.6990 O   0  0  0  0  0  0  0  0  0  0  0  0
   -1.3360   23.3590  -28.8550 C   0  0  0  0  0  0  0  0  0  0  0  0
   -2.5572   20.6588  -27.1536 H   0  0  0  0  0  0  0  0  0  0  0  0
   -4.6822   21.9217  -27.4691 H   0  0  0  0  0  0  0  0  0  0  0  0
   -5.4900   24.6470  -27.8670 H   0  0  0  0  0  0  0  0  0  0  0  0
   -8.2141   23.3219  -29.6035 H   0  0  0  0  0  0  0  0  0  0  0  0
   -9.2694   21.2318  -30.4581 H   0  0  0  0  0  0  0  0  0  0  0  0
   -4.7862   22.6416  -32.1538 H   0  0  0  0  0  0  0  0  0  0  0  0
   -5.1176   20.9796  -34.0100 H   0  0  0  0  0  0  0  0  0  0  0  0
   -4.8946   19.7084  -32.7303 H   0  0  0  0  0  0  0  0  0  0  0  0
   -7.1290   19.9650  -34.6510 H   0  0  0  0  0  0  0  0  0  0  0  0
   -7.9044   17.8747  -33.6671 H   0  0  0  0  0  0  0  0  0  0  0  0
   -6.6733   18.1283  -32.3682 H   0  0  0  0  0  0  0  0  0  0  0  0
   -9.1097   19.8412  -33.0236 H   0  0  0  0  0  0  0  0  0  0  0  0
   -8.7156   18.9561  -31.4902 H   0  0  0  0  0  0  0  0  0  0  0  0
   -0.3910   23.7597  -29.2506 H   0  0  0  0  0  0  0  0  0  0  0  0
  1  2  3  0
  2  3  1  0
  3  4  2  0
  4  5  1  0
  5  6  2  0
  6  7  1  0
  7  8  1  0
  8  9  2  0
  8 10  2  0
  8 11  1  0
 11 12  2  0
 12 13  1  0
 13 14  2  0
 14 15  1  0
 15 16  2  0
 15 17  1  0
 17 18  1  0
 18 19  1  0
 19 20  1  0
  6 21  1  0
 21 22  1  0
 21 23  2  0
 23  3  1  0
 16 11  1  0
 20 14  1  0
  4 24  1  0
  5 25  1  0
  7 26  1  0
 12 27  1  0
 13 28  1  0
 16 29  1  0
 17 30  1  0
 17 31  1  0
 18 32  1  0
 19 33  1  0
 19 34  1  0
 20 35  1  0
 20 36  1  0
 23 37  1  0
M  CHG  1  22  -1
M  END
>  <UniqueID>  (10) 
10

>  <SMILES>  (10) 
N#Cc1ccc(NS(=O)(=O)c2ccc3c(c2)CNCC3)c([O-])c1

>  <Energy>  (10) 
43.05666271587655

>  <Genealogy>  (10) 
N#Cc1ccc(NS(=O)(=O)c2ccc3c(c2)CNCC3)c([O-])c1 (protonated)
N#Cc1ccc(NS(=O)(=O)c2ccc3c(c2)CNCC3)c([O-])c1 (3D coordinates assigned)
N#Cc1ccc(NS(=O)(=O)c2ccc3c(c2)CNCC3)c([O-])c1 (nonaromatic ring conformer: 43.05666271587655 kcal/mol)

>  <smiles>  (10) 
N#Cc1ccc(NS(=O)(=O)c2ccc3c(c2)CNCC3)c(O)c1

>  <score_type>  (10) 
oracle

>  <origin>  (10) 
adgpu

>  <m_score__min__energy>  (10) 
-13.199999999999999

>  <m_primary>  (10) 
energy

$$$$
10:0
     RDKit          3D

 46 49  0  0  0  0  0  0  0  0999 V2000
    0.6540   16.2760  -29.5990 N   0  0  0  0  0  0  0  0  0  0  0  0
    0.4840   17.4320  -29.0350 C   0  0  0  0  0  0  0  0  0  0  0  0
    0.8760   18.6100  -29.6900 C   0  0  0  0  0  0  0  0  0  0  0  0
    0.6810   19.8410  -29.0610 C   0  0  0  0  0  0  0  0  0  0  0  0
    0.1020   19.8900  -27.7880 C   0  0  0  0  0  0  0  0  0  0  0  0
   -0.1750   21.4330  -26.9830 S   0  0  0  0  0  0  0  0  0  0  0  0
    1.1360   22.1060  -26.6860 O   0  0  0  0  0  0  0  0  0  0  0  0
   -0.8910   21.1720  -25.6880 O   0  0  0  0  0  0  0  0  0  0  0  0
   -1.1470   22.4860  -28.0060 C   0  0  0  0  0  0  0  0  0  0  0  0
   -1.4410   23.7910  -27.5970 C   0  0  0  0  0  0  0  0  0  0  0  0
   -2.2160   24.6230  -28.4090 C   0  0  0  0  0  0  0  0  0  0  0  0
   -2.7080   24.1640  -29.6370 C   0  0  0  0  0  0  0  0  0  0  0  0
   -3.5090   25.0480  -30.4330 N   0  0  0  0  0  0  0  0  0  0  0  0
   -5.2440   25.0710  -30.4640 S   0  0  0  0  0  0  0  0  0  0  0  0
   -5.7090   26.2960  -31.2090 O   0  0  0  0  0  0  0  0  0  0  0  0
   -5.7620   25.1330  -29.0560 O   0  0  0  0  0  0  0  0  0  0  0  0
   -5.8470   23.6030  -31.2260 C   0  0  0  0  0  0  0  0  0  0  0  0
   -5.0140   22.8290  -32.0520 C   0  0  0  0  0  0  0  0  0  0  0  0
   -5.5030   21.6590  -32.6400 C   0  0  0  0  0  0  0  0  0  0  0  0
   -6.8240   21.2650  -32.4190 C   0  0  0  0  0  0  0  0  0  0  0  0
   -7.6490   22.0190  -31.5760 C   0  0  0  0  0  0  0  0  0  0  0  0
   -7.1680   23.1930  -30.9900 C   0  0  0  0  0  0  0  0  0  0  0  0
   -8.9560   21.5800  -31.3330 O   0  0  0  0  0  0  0  0  0  0  0  0
   -9.3760   20.2660  -31.7090 C   0  0  0  0  0  0  0  0  0  0  0  0
   -8.7490   19.8700  -33.0540 C   0  0  0  0  0  0  0  0  0  0  0  0
   -7.3420   20.1190  -33.0320 O   0  0  0  0  0  0  0  0  0  0  0  0
   -2.3960   22.8610  -30.0560 C   0  0  0  0  0  0  0  0  0  0  0  0
   -1.6230   22.0270  -29.2420 C   0  0  0  0  0  0  0  0  0  0  0  0
   -0.2790   18.6940  -27.1690 C   0  0  0  0  0  0  0  0  0  0  0  0
   -0.0820   17.5010  -27.7960 N   0  0  0  0  0  0  0  0  0  0  0  0
    1.0840   16.1710  -30.5470 H   0  0  0  0  0  0  0  0  0  0  0  0
    1.3326   18.5636  -30.6897 H   0  0  0  0  0  0  0  0  0  0  0  0
    0.9821   20.7711  -29.5653 H   0  0  0  0  0  0  0  0  0  0  0  0
   -1.0612   24.1630  -26.6340 H   0  0  0  0  0  0  0  0  0  0  0  0
   -2.4418   25.6482  -28.0805 H   0  0  0  0  0  0  0  0  0  0  0  0
   -3.9763   23.1442  -32.2359 H   0  0  0  0  0  0  0  0  0  0  0  0
   -4.8466   21.0483  -33.2773 H   0  0  0  0  0  0  0  0  0  0  0  0
   -7.8243   23.7950  -30.3444 H   0  0  0  0  0  0  0  0  0  0  0  0
   -9.0603   19.5493  -30.9365 H   0  0  0  0  0  0  0  0  0  0  0  0
  -10.4715   20.2553  -31.8081 H   0  0  0  0  0  0  0  0  0  0  0  0
   -8.9263   18.7999  -33.2371 H   0  0  0  0  0  0  0  0  0  0  0  0
   -9.2080   20.4678  -33.8552 H   0  0  0  0  0  0  0  0  0  0  0  0
   -2.7605   22.4950  -31.0272 H   0  0  0  0  0  0  0  0  0  0  0  0
   -1.3872   21.0050  -29.5735 H   0  0  0  0  0  0  0  0  0  0  0  0
   -0.7401   18.7176  -26.1706 H   0  0  0  0  0  0  0  0  0  0  0  0
   -0.3750   16.6240  -27.3100 H   0  0  0  0  0  0  0  0  0  0  0  0
  1  2  2  3
  2  3  1  0
  3  4  2  0
  4  5  1  0
  5  6  1  0
  6  7  2  0
  6  8  2  0
  6  9  1  0
  9 10  2  0
 10 11  1  0
 11 12  2  0
 12 13  1  0
 13 14  1  0
 14 15  2  0
 14 16  2  0
 14 17  1  0
 17 18  2  0
 18 19  1  0
 19 20  2  0
 20 21  1  0
 21 22  2  0
 21 23  1  0
 23 24  1  0
 24 25  1  0
 25 26  1  0
 12 27  1  0
 27 28  2  0
  5 29  2  0
 29 30  1  0
 30  2  1  0
 28  9  1  0
 22 17  1  0
 26 20  1  0
  1 31  1  0
  3 32  1  0
  4 33  1  0
 10 34  1  0
 11 35  1  0
 18 36  1  0
 19 37  1  0
 22 38  1  0
 24 39  1  0
 24 40  1  0
 25 41  1  0
 25 42  1  0
 27 43  1  0
 28 44  1  0
 29 45  1  0
 30 46  1  0
M  CHG  1  13  -1
M  END
>  <UniqueID>  (11) 
11

>  <SMILES>  (11) 
N=c1ccc(S(=O)(=O)c2ccc([N-]S(=O)(=O)c3ccc4c(c3)OCCO4)cc2)c[nH]1

>  <Energy>  (11) 
56.779332015240385

>  <Genealogy>  (11) 
N=c1ccc(S(=O)(=O)c2ccc([N-]S(=O)(=O)c3ccc4c(c3)OCCO4)cc2)c[nH]1 (protonated)
N=c1ccc(S(=O)(=O)c2ccc([N-]S(=O)(=O)c3ccc4c(c3)OCCO4)cc2)c[nH]1 (3D coordinates assigned)
N=c1ccc(S(=O)(=O)c2ccc([N-]S(=O)(=O)c3ccc4c(c3)OCCO4)cc2)c[nH]1 (nonaromatic ring conformer: 56.779332015240385 kcal/mol)

>  <smiles>  (11) 
N=c1ccc(S(=O)(=O)c2ccc(NS(=O)(=O)c3ccc4c(c3)OCCO4)cc2)c[nH]1

>  <score_type>  (11) 
oracle

>  <origin>  (11) 
adgpu

>  <m_score__min__energy>  (11) 
-11.01

>  <m_primary>  (11) 
energy

$$$$
11:0
     RDKit          3D

 74 79  0  0  0  0  0  0  0  0999 V2000
   -2.8280   19.0590  -34.4620 O   0  0  0  0  0  0  0  0  0  0  0  0
   -3.6000   19.0990  -33.4650 C   0  0  0  0  0  0  0  0  0  0  0  0
   -4.3500   17.9270  -33.1060 N   0  0  0  0  0  0  0  0  0  0  0  0
   -3.9160   16.5950  -33.4370 C   0  0  0  0  0  0  0  0  0  0  0  0
   -2.5640   16.3300  -33.7180 C   0  0  0  0  0  0  0  0  0  0  0  0
   -2.1480   15.0410  -34.0760 C   0  0  0  0  0  0  0  0  0  0  0  0
   -0.4630   14.7420  -34.5010 S   0  0  0  0  0  0  0  0  0  0  0  0
   -0.2830   13.2930  -34.8570 O   0  0  0  0  0  0  0  0  0  0  0  0
   -0.1200   15.5690  -35.7090 O   0  0  0  0  0  0  0  0  0  0  0  0
    0.6000   15.1850  -33.1800 N   0  0  0  0  0  0  0  0  0  0  0  0
    1.5810   16.2200  -33.5700 C   0  0  0  0  0  0  0  0  0  0  0  0
    0.9550   17.6210  -33.7080 C   0  0  0  0  0  0  0  0  0  0  0  0
   -0.1140   17.9140  -32.6420 C   0  0  0  0  0  0  0  0  0  0  0  0
   -0.0190   16.9490  -31.4610 C   0  0  0  0  0  0  0  0  0  0  0  0
   -0.1550   15.4910  -31.9390 C   0  0  0  0  0  0  0  0  0  0  0  0
   -3.0840   14.0010  -34.1240 C   0  0  0  0  0  0  0  0  0  0  0  0
   -4.4220   14.2450  -33.8070 C   0  0  0  0  0  0  0  0  0  0  0  0
   -4.8420   15.5360  -33.4620 C   0  0  0  0  0  0  0  0  0  0  0  0
   -6.1810   15.7610  -33.1640 O   0  0  0  0  0  0  0  0  0  0  0  0
   -3.7370   20.3610  -32.6970 C   0  0  0  0  0  0  0  0  0  0  0  0
   -4.4840   21.4410  -33.2380 C   0  0  0  0  0  0  0  0  0  0  0  0
   -4.5960   22.6600  -32.5480 C   0  0  0  0  0  0  0  0  0  0  0  0
   -3.9520   22.7790  -31.3210 C   0  0  0  0  0  0  0  0  0  0  0  0
   -3.2240   21.7410  -30.7860 C   0  0  0  0  0  0  0  0  0  0  0  0
   -3.0920   20.5220  -31.4480 C   0  0  0  0  0  0  0  0  0  0  0  0
   -2.6610   22.2000  -29.5210 C   0  0  0  0  0  0  0  0  0  0  0  0
   -1.8960   21.5330  -28.7760 O   0  0  0  0  0  0  0  0  0  0  0  0
   -3.0630   23.5520  -29.2690 N   0  0  0  0  0  0  0  0  0  0  0  0
   -2.5520   24.4240  -28.2460 C   0  0  0  0  0  0  0  0  0  0  0  0
   -1.3960   25.1880  -28.4720 C   0  0  0  0  0  0  0  0  0  0  0  0
   -0.8820   26.0070  -27.4640 C   0  0  0  0  0  0  0  0  0  0  0  0
   -1.5130   26.0670  -26.2120 C   0  0  0  0  0  0  0  0  0  0  0  0
   -0.8450   27.0770  -24.9310 S   0  0  0  0  0  0  0  0  0  0  0  0
   -1.2510   28.5010  -25.1830 O   0  0  0  0  0  0  0  0  0  0  0  0
   -1.4470   26.6600  -23.6180 O   0  0  0  0  0  0  0  0  0  0  0  0
    0.9030   27.0020  -24.8330 N   0  0  0  0  0  0  0  0  0  0  0  0
    1.4090   26.9140  -23.4490 C   0  0  0  0  0  0  0  0  0  0  0  0
    1.7030   28.2920  -22.8310 C   0  0  0  0  0  0  0  0  0  0  0  0
    2.5290   29.0590  -23.6780 O   0  0  0  0  0  0  0  0  0  0  0  0
    1.8410   29.3200  -24.8820 C   0  0  0  0  0  0  0  0  0  0  0  0
    1.5890   28.0190  -25.6530 C   0  0  0  0  0  0  0  0  0  0  0  0
   -2.6860   25.3300  -25.9930 C   0  0  0  0  0  0  0  0  0  0  0  0
   -3.1970   24.5060  -27.0010 C   0  0  0  0  0  0  0  0  0  0  0  0
   -3.8620   23.9080  -30.4020 C   0  0  0  0  0  0  0  0  0  0  0  0
   -4.4330   25.0210  -30.5520 O   0  0  0  0  0  0  0  0  0  0  0  0
   -5.2970   18.0550  -32.6850 H   0  0  0  0  0  0  0  0  0  0  0  0
   -1.8255   17.1429  -33.6561 H   0  0  0  0  0  0  0  0  0  0  0  0
    2.3693   16.2622  -32.8040 H   0  0  0  0  0  0  0  0  0  0  0  0
    1.9809   15.9397  -34.5557 H   0  0  0  0  0  0  0  0  0  0  0  0
    1.7541   18.3715  -33.6175 H   0  0  0  0  0  0  0  0  0  0  0  0
    0.4588   17.6624  -34.6889 H   0  0  0  0  0  0  0  0  0  0  0  0
    0.0229   18.9415  -32.2738 H   0  0  0  0  0  0  0  0  0  0  0  0
   -1.1030   17.7883  -33.1068 H   0  0  0  0  0  0  0  0  0  0  0  0
    0.9551   17.0778  -30.9665 H   0  0  0  0  0  0  0  0  0  0  0  0
   -0.8354   17.1688  -30.7573 H   0  0  0  0  0  0  0  0  0  0  0  0
    0.2122   14.8302  -31.1399 H   0  0  0  0  0  0  0  0  0  0  0  0
   -1.2189   15.3313  -32.1685 H   0  0  0  0  0  0  0  0  0  0  0  0
   -2.7646   12.9886  -34.4123 H   0  0  0  0  0  0  0  0  0  0  0  0
   -5.1492   13.4199  -33.8283 H   0  0  0  0  0  0  0  0  0  0  0  0
   -4.9822   21.3215  -34.2114 H   0  0  0  0  0  0  0  0  0  0  0  0
   -5.1761   23.4958  -32.9661 H   0  0  0  0  0  0  0  0  0  0  0  0
   -2.5005   19.7045  -31.0101 H   0  0  0  0  0  0  0  0  0  0  0  0
   -0.8921   25.1413  -29.4487 H   0  0  0  0  0  0  0  0  0  0  0  0
    0.0205   26.6070  -27.6522 H   0  0  0  0  0  0  0  0  0  0  0  0
    0.6543   26.4058  -22.8309 H   0  0  0  0  0  0  0  0  0  0  0  0
    2.3566   26.3561  -23.4785 H   0  0  0  0  0  0  0  0  0  0  0  0
    0.7541   28.8258  -22.6739 H   0  0  0  0  0  0  0  0  0  0  0  0
    2.2240   28.1432  -21.8737 H   0  0  0  0  0  0  0  0  0  0  0  0
    0.8765   29.7960  -24.6513 H   0  0  0  0  0  0  0  0  0  0  0  0
    2.4557   29.9872  -25.5040 H   0  0  0  0  0  0  0  0  0  0  0  0
    0.9656   28.2439  -26.5309 H   0  0  0  0  0  0  0  0  0  0  0  0
    2.5666   27.6089  -25.9466 H   0  0  0  0  0  0  0  0  0  0  0  0
   -3.2055   25.4002  -25.0259 H   0  0  0  0  0  0  0  0  0  0  0  0
   -4.1090   23.9189  -26.8177 H   0  0  0  0  0  0  0  0  0  0  0  0
  1  2  2  0
  2  3  1  0
  3  4  1  0
  4  5  2  0
  5  6  1  0
  6  7  1  0
  7  8  2  0
  7  9  2  0
  7 10  1  0
 10 11  1  0
 11 12  1  0
 12 13  1  0
 13 14  1  0
 14 15  1  0
  6 16  2  0
 16 17  1  0
 17 18  2  0
 18 19  1  0
  2 20  1  0
 20 21  2  0
 21 22  1  0
 22 23  2  0
 23 24  1  0
 24 25  2  0
 24 26  1  0
 26 27  2  0
 26 28  1  0
 28 29  1  0
 29 30  2  0
 30 31  1  0
 31 32  2  0
 32 33  1  0
 33 34  2  0
 33 35  2  0
 33 36  1  0
 36 37  1  0
 37 38  1  0
 38 39  1  0
 39 40  1  0
 40 41  1  0
 32 42  1  0
 42 43  2  0
 28 44  1  0
 44 45  2  0
 18  4  1  0
 25 20  1  0
 43 29  1  0
 15 10  1  0
 44 23  1  0
 41 36  1  0
  3 46  1  0
  5 47  1  0
 11 48  1  0
 11 49  1  0
 12 50  1  0
 12 51  1  0
 13 52  1  0
 13 53  1  0
 14 54  1  0
 14 55  1  0
 15 56  1  0
 15 57  1  0
 16 58  1  0
 17 59  1  0
 21 60  1  0
 22 61  1  0
 25 62  1  0
 30 63  1  0
 31 64  1  0
 37 65  1  0
 37 66  1  0
 38 67  1  0
 38 68  1  0
 40 69  1  0
 40 70  1  0
 41 71  1  0
 41 72  1  0
 42 73  1  0
 43 74  1  0
M  CHG  1  19  -1
M  END
>  <UniqueID>  (12) 
12

>  <SMILES>  (12) 
O=C(Nc1cc(S(=O)(=O)N2CCCCC2)ccc1[O-])c1ccc2c(c1)C(=O)N(c1ccc(S(=O)(=O)N3CCOCC3)cc1)C2=O

>  <Energy>  (12) 
135.92649649471227

>  <Genealogy>  (12) 
O=C(Nc1cc(S(=O)(=O)N2CCCCC2)ccc1[O-])c1ccc2c(c1)C(=O)N(c1ccc(S(=O)(=O)N3CCOCC3)cc1)C2=O (protonated)
O=C(Nc1cc(S(=O)(=O)N2CCCCC2)ccc1[O-])c1ccc2c(c1)C(=O)N(c1ccc(S(=O)(=O)N3CCOCC3)cc1)C2=O (3D coordinates assigned)
O=C(Nc1cc(S(=O)(=O)N2CCCCC2)ccc1[O-])c1ccc2c(c1)C(=O)N(c1ccc(S(=O)(=O)N3CCOCC3)cc1)C2=O (nonaromatic ring conformer: 135.92649649471227 kcal/mol)

>  <smiles>  (12) 
O=C(Nc1cc(S(=O)(=O)N2CCCCC2)ccc1O)c1ccc2c(c1)C(=O)N(c1ccc(S(=O)(=O)N3CCOCC3)cc1)C2=O

>  <score_type>  (12) 
oracle

>  <origin>  (12) 
adgpu

>  <m_score__min__energy>  (12) 
-9.0399999999999991

>  <m_primary>  (12) 
energy

$$$$
12:0
     RDKit          3D

 48 51  0  0  0  0  0  0  0  0999 V2000
   -7.0170   22.9690  -31.6070 O   0  0  0  0  0  0  0  0  0  0  0  0
   -5.7900   22.6990  -31.6890 C   0  0  0  0  0  0  0  0  0  0  0  0
   -5.3790   21.5860  -32.4930 N   0  0  0  0  0  0  0  0  0  0  0  0
   -4.0300   21.1390  -32.6820 C   0  0  0  0  0  0  0  0  0  0  0  0
   -3.1510   21.9300  -33.4300 C   0  0  0  0  0  0  0  0  0  0  0  0
   -1.8210   21.5350  -33.6080 C   0  0  0  0  0  0  0  0  0  0  0  0
   -1.3530   20.3520  -33.0210 C   0  0  0  0  0  0  0  0  0  0  0  0
    0.3270   19.8560  -33.2100 S   0  0  0  0  0  0  0  0  0  0  0  0
    1.0430   20.7390  -34.1920 O   0  0  0  0  0  0  0  0  0  0  0  0
    0.3600   18.4430  -33.7190 O   0  0  0  0  0  0  0  0  0  0  0  0
    1.1360   19.9280  -31.6770 N   0  0  0  0  0  0  0  0  0  0  0  0
    0.6360   19.3800  -30.4490 C   0  0  0  0  0  0  0  0  0  0  0  0
   -0.3160   20.1080  -29.7330 C   0  0  0  0  0  0  0  0  0  0  0  0
   -0.8210   19.6210  -28.5280 C   0  0  0  0  0  0  0  0  0  0  0  0
   -0.3830   18.3950  -28.0130 C   0  0  0  0  0  0  0  0  0  0  0  0
   -0.8690   18.0020  -26.7640 O   0  0  0  0  0  0  0  0  0  0  0  0
    0.5480   17.6200  -28.7490 C   0  0  0  0  0  0  0  0  0  0  0  0
    0.9700   16.2680  -28.3200 C   0  0  0  0  0  0  0  0  0  0  0  0
    1.4930   15.4750  -29.1480 O   0  0  0  0  0  0  0  0  0  0  0  0
    0.7250   15.8230  -27.0260 O   0  0  0  0  0  0  0  0  0  0  0  0
    1.0600   18.1330  -29.9560 C   0  0  0  0  0  0  0  0  0  0  0  0
   -2.2230   19.5700  -32.2530 C   0  0  0  0  0  0  0  0  0  0  0  0
   -3.5530   19.9630  -32.0770 C   0  0  0  0  0  0  0  0  0  0  0  0
   -4.8210   23.4860  -30.9040 C   0  0  0  0  0  0  0  0  0  0  0  0
   -4.0150   23.0020  -29.8950 C   0  0  0  0  0  0  0  0  0  0  0  0
   -3.2660   24.0980  -29.5060 C   0  0  0  0  0  0  0  0  0  0  0  0
   -2.2300   24.1320  -28.4420 C   0  0  0  0  0  0  0  0  0  0  0  0
   -2.2030   23.1340  -27.4480 C   0  0  0  0  0  0  0  0  0  0  0  0
   -1.2380   23.1600  -26.4370 C   0  0  0  0  0  0  0  0  0  0  0  0
   -0.2840   24.1770  -26.4060 C   0  0  0  0  0  0  0  0  0  0  0  0
   -0.2940   25.1730  -27.3850 C   0  0  0  0  0  0  0  0  0  0  0  0
   -1.2590   25.1580  -28.3990 C   0  0  0  0  0  0  0  0  0  0  0  0
   -1.2310   26.1620  -29.3600 O   0  0  0  0  0  0  0  0  0  0  0  0
   -3.6130   25.1610  -30.2610 N   0  0  0  0  0  0  0  0  0  0  0  0
   -4.5550   24.7890  -31.1110 N   0  0  0  0  0  0  0  0  0  0  0  0
   -3.5079   22.8678  -33.8806 H   0  0  0  0  0  0  0  0  0  0  0  0
   -1.1407   22.1548  -34.2105 H   0  0  0  0  0  0  0  0  0  0  0  0
   -0.6706   21.0736  -30.1226 H   0  0  0  0  0  0  0  0  0  0  0  0
   -1.5714   20.2062  -27.9762 H   0  0  0  0  0  0  0  0  0  0  0  0
   -0.6800   17.0990  -26.3530 H   0  0  0  0  0  0  0  0  0  0  0  0
    1.8021   17.5502  -30.5214 H   0  0  0  0  0  0  0  0  0  0  0  0
   -1.8591   18.6428  -31.7862 H   0  0  0  0  0  0  0  0  0  0  0  0
   -4.2289   19.3498  -31.4628 H   0  0  0  0  0  0  0  0  0  0  0  0
   -3.9766   21.9792  -29.4920 H   0  0  0  0  0  0  0  0  0  0  0  0
   -2.9491   22.3259  -27.4677 H   0  0  0  0  0  0  0  0  0  0  0  0
   -1.2310   22.3770  -25.6645 H   0  0  0  0  0  0  0  0  0  0  0  0
    0.4759   24.1946  -25.6109 H   0  0  0  0  0  0  0  0  0  0  0  0
    0.4602   25.9733  -27.3592 H   0  0  0  0  0  0  0  0  0  0  0  0
  1  2  2  0
  2  3  1  0
  3  4  1  0
  4  5  2  0
  5  6  1  0
  6  7  2  0
  7  8  1  0
  8  9  2  0
  8 10  2  0
  8 11  1  0
 11 12  1  0
 12 13  2  0
 13 14  1  0
 14 15  2  0
 15 16  1  0
 15 17  1  0
 17 18  1  0
 18 19  2  0
 18 20  1  0
 17 21  2  0
  7 22  1  0
 22 23  2  0
  2 24  1  0
 24 25  1  0
 25 26  2  0
 26 27  1  0
 27 28  2  0
 28 29  1  0
 29 30  2  0
 30 31  1  0
 31 32  2  0
 32 33  1  0
 26 34  1  0
 34 35  1  0
 23  4  1  0
 35 24  2  0
 21 12  1  0
 32 27  1  0
  5 36  1  0
  6 37  1  0
 13 38  1  0
 14 39  1  0
 16 40  1  0
 21 41  1  0
 22 42  1  0
 23 43  1  0
 25 44  1  0
 28 45  1  0
 29 46  1  0
 30 47  1  0
 31 48  1  0
M  CHG  5   3  -1  11  -1  20  -1  33  -1  34  -1
M  END
>  <UniqueID>  (13) 
13

>  <SMILES>  (13) 
O=C([N-]c1ccc(S(=O)(=O)[N-]c2ccc(O)c(C(=O)[O-])c2)cc1)c1cc(-c2ccccc2[O-])[n-]n1

>  <Energy>  (13) 
99.1330617250838

>  <Genealogy>  (13) 
O=C([N-]c1ccc(S(=O)(=O)[N-]c2ccc(O)c(C(=O)[O-])c2)cc1)c1cc(-c2ccccc2[O-])[n-]n1 (protonated)
O=C([N-]c1ccc(S(=O)(=O)[N-]c2ccc(O)c(C(=O)[O-])c2)cc1)c1cc(-c2ccccc2[O-])[n-]n1 (3D coordinates assigned)
O=C([N-]c1ccc(S(=O)(=O)[N-]c2ccc(O)c(C(=O)[O-])c2)cc1)c1cc(-c2ccccc2[O-])[n-]n1 (optimized conformer: 99.1330617250838 kcal/mol)

>  <smiles>  (13) 
O=C(Nc1ccc(S(=O)(=O)Nc2ccc(O)c(C(=O)O)c2)cc1)c1cc(-c2ccccc2O)[nH]n1

>  <score_type>  (13) 
oracle

>  <origin>  (13) 
adgpu

>  <m_score__min__energy>  (13) 
-15.41

>  <m_primary>  (13) 
energy

$$$$
13:0
     RDKit          3D

 47 50  0  0  0  0  0  0  0  0999 V2000
   -3.1120   18.4820  -25.7390 N   0  0  0  0  0  0  0  0  0  0  0  0
   -2.2610   18.9800  -26.3460 C   0  0  0  0  0  0  0  0  0  0  0  0
   -1.2030   19.5970  -27.1010 C   0  0  0  0  0  0  0  0  0  0  0  0
   -0.0470   18.8710  -27.4120 C   0  0  0  0  0  0  0  0  0  0  0  0
    0.9770   19.4690  -28.1490 C   0  0  0  0  0  0  0  0  0  0  0  0
    0.8550   20.7950  -28.5740 C   0  0  0  0  0  0  0  0  0  0  0  0
   -0.2940   21.5420  -28.2550 C   0  0  0  0  0  0  0  0  0  0  0  0
   -0.4400   22.9440  -28.7120 C   0  0  0  0  0  0  0  0  0  0  0  0
    0.5400   23.7310  -28.6100 O   0  0  0  0  0  0  0  0  0  0  0  0
   -1.7120   23.4720  -29.2470 C   0  0  0  0  0  0  0  0  0  0  0  0
   -2.0740   24.8040  -29.3160 C   0  0  0  0  0  0  0  0  0  0  0  0
   -3.3100   24.9120  -29.8470 N   0  0  0  0  0  0  0  0  0  0  0  0
   -3.7410   23.6930  -30.1440 N   0  0  0  0  0  0  0  0  0  0  0  0
   -5.0310   23.4390  -30.7330 C   0  0  0  0  0  0  0  0  0  0  0  0
   -6.0400   24.4100  -30.6440 C   0  0  0  0  0  0  0  0  0  0  0  0
   -7.2940   24.1840  -31.2190 C   0  0  0  0  0  0  0  0  0  0  0  0
   -7.5490   22.9900  -31.8970 C   0  0  0  0  0  0  0  0  0  0  0  0
   -6.5490   22.0130  -32.0100 C   0  0  0  0  0  0  0  0  0  0  0  0
   -6.7990   20.7910  -32.7270 N   0  0  0  0  0  0  0  0  0  0  0  0
   -5.6860   20.1340  -33.4370 C   0  0  0  0  0  0  0  0  0  0  0  0
   -6.1170   18.8160  -34.1000 C   0  0  0  0  0  0  0  0  0  0  0  0
   -6.9230   17.9410  -33.1350 C   0  0  0  0  0  0  0  0  0  0  0  0
   -8.0540   18.7170  -32.5180 C   0  0  0  0  0  0  0  0  0  0  0  0
   -8.9080   18.1350  -31.8680 O   0  0  0  0  0  0  0  0  0  0  0  0
   -8.1480   20.2020  -32.7250 C   0  0  0  0  0  0  0  0  0  0  0  0
   -5.2890   22.2460  -31.4340 C   0  0  0  0  0  0  0  0  0  0  0  0
   -2.7920   22.7990  -29.7940 C   0  0  0  0  0  0  0  0  0  0  0  0
   -2.8960   21.5170  -29.9690 N   0  0  0  0  0  0  0  0  0  0  0  0
   -1.3280   20.9270  -27.5250 C   0  0  0  0  0  0  0  0  0  0  0  0
    0.0546   17.8287  -27.0755 H   0  0  0  0  0  0  0  0  0  0  0  0
    1.8823   18.8950  -28.3959 H   0  0  0  0  0  0  0  0  0  0  0  0
    1.6620   21.2573  -29.1613 H   0  0  0  0  0  0  0  0  0  0  0  0
   -1.4495   25.6480  -28.9879 H   0  0  0  0  0  0  0  0  0  0  0  0
   -5.8429   25.3558  -30.1180 H   0  0  0  0  0  0  0  0  0  0  0  0
   -8.0812   24.9479  -31.1373 H   0  0  0  0  0  0  0  0  0  0  0  0
   -8.5385   22.8150  -32.3444 H   0  0  0  0  0  0  0  0  0  0  0  0
   -5.3106   20.8154  -34.2147 H   0  0  0  0  0  0  0  0  0  0  0  0
   -4.9053   19.9005  -32.6981 H   0  0  0  0  0  0  0  0  0  0  0  0
   -6.7375   19.0441  -34.9792 H   0  0  0  0  0  0  0  0  0  0  0  0
   -5.2117   18.2642  -34.3929 H   0  0  0  0  0  0  0  0  0  0  0  0
   -7.3347   17.0828  -33.6864 H   0  0  0  0  0  0  0  0  0  0  0  0
   -6.2542   17.5988  -32.3314 H   0  0  0  0  0  0  0  0  0  0  0  0
   -8.6372   20.4062  -33.6888 H   0  0  0  0  0  0  0  0  0  0  0  0
   -8.7372   20.6461  -31.9092 H   0  0  0  0  0  0  0  0  0  0  0  0
   -4.4968   21.4891  -31.5317 H   0  0  0  0  0  0  0  0  0  0  0  0
   -2.1380   20.8470  -29.7160 H   0  0  0  0  0  0  0  0  0  0  0  0
   -2.2400   21.4936  -27.2857 H   0  0  0  0  0  0  0  0  0  0  0  0
  1  2  3  0
  2  3  1  0
  3  4  2  0
  4  5  1  0
  5  6  2  0
  6  7  1  0
  7  8  1  0
  8  9  2  0
  8 10  1  0
 10 11  2  0
 11 12  1  0
 12 13  1  0
 13 14  1  0
 14 15  2  0
 15 16  1  0
 16 17  2  0
 17 18  1  0
 18 19  1  0
 19 20  1  0
 20 21  1  0
 21 22  1  0
 22 23  1  0
 23 24  2  0
 23 25  1  0
 18 26  2  0
 13 27  1  0
 27 28  2  3
  7 29  2  0
 29  3  1  0
 27 10  1  0
 26 14  1  0
 25 19  1  0
  4 30  1  0
  5 31  1  0
  6 32  1  0
 11 33  1  0
 15 34  1  0
 16 35  1  0
 17 36  1  0
 20 37  1  0
 20 38  1  0
 21 39  1  0
 21 40  1  0
 22 41  1  0
 22 42  1  0
 25 43  1  0
 25 44  1  0
 26 45  1  0
 28 46  1  0
 29 47  1  0
M  CHG  1  12  -1
M  END
>  <UniqueID>  (14) 
14

>  <SMILES>  (14) 
N#Cc1cccc(C(=O)c2c[n-]n(-c3cccc(N4CCCC(=O)C4)c3)c2=N)c1

>  <Energy>  (14) 
96.89103301568936

>  <Genealogy>  (14) 
N#Cc1cccc(C(=O)c2c[n-]n(-c3cccc(N4CCCC(=O)C4)c3)c2=N)c1 (protonated)
N#Cc1cccc(C(=O)c2c[n-]n(-c3cccc(N4CCCC(=O)C4)c3)c2=N)c1 (3D coordinates assigned)
N#Cc1cccc(C(=O)c2c[n-]n(-c3cccc(N4CCCC(=O)C4)c3)c2=N)c1 (nonaromatic ring conformer: 96.89103301568936 kcal/mol)

>  <smiles>  (14) 
N#Cc1cccc(C(=O)c2c[nH]n(-c3cccc(N4CCCC(=O)C4)c3)c2=N)c1

>  <score_type>  (14) 
oracle

>  <origin>  (14) 
adgpu

>  <m_score__min__energy>  (14) 
-11.23

>  <m_primary>  (14) 
energy

$$$$
14:0
     RDKit          3D

 51 54  0  0  0  0  0  0  0  0999 V2000
   -2.6900   19.4100  -31.9590 O   0  0  0  0  0  0  0  0  0  0  0  0
   -3.6760   20.1850  -31.8190 C   0  0  0  0  0  0  0  0  0  0  0  0
   -4.9840   19.7720  -32.2580 N   0  0  0  0  0  0  0  0  0  0  0  0
   -5.2780   18.4640  -32.7770 C   0  0  0  0  0  0  0  0  0  0  0  0
   -6.6080   17.9910  -32.7420 C   0  0  0  0  0  0  0  0  0  0  0  0
   -6.9220   16.7100  -33.2160 C   0  0  0  0  0  0  0  0  0  0  0  0
   -5.8940   15.9050  -33.7110 C   0  0  0  0  0  0  0  0  0  0  0  0
   -4.5970   16.3460  -33.7300 C   0  0  0  0  0  0  0  0  0  0  0  0
   -4.2580   17.6170  -33.2620 C   0  0  0  0  0  0  0  0  0  0  0  0
   -3.6690   15.3240  -34.2650 C   0  0  0  0  0  0  0  0  0  0  0  0
   -4.5850   14.1400  -34.6290 C   0  0  0  0  0  0  0  0  0  0  0  0
   -6.0240   14.5280  -34.2380 C   0  0  0  0  0  0  0  0  0  0  0  0
   -3.4570   21.5180  -31.2060 C   0  0  0  0  0  0  0  0  0  0  0  0
   -2.1660   21.8920  -30.7970 C   0  0  0  0  0  0  0  0  0  0  0  0
   -1.9380   23.1460  -30.2280 C   0  0  0  0  0  0  0  0  0  0  0  0
   -2.9930   24.0490  -30.0630 C   0  0  0  0  0  0  0  0  0  0  0  0
   -2.7310   25.2940  -29.5050 O   0  0  0  0  0  0  0  0  0  0  0  0
   -4.2910   23.6930  -30.4700 C   0  0  0  0  0  0  0  0  0  0  0  0
   -5.6500   24.8150  -30.3220 S   0  0  0  0  0  0  0  0  0  0  0  0
   -5.4490   26.0100  -31.2120 O   0  0  0  0  0  0  0  0  0  0  0  0
   -5.7190   25.2940  -28.8970 O   0  0  0  0  0  0  0  0  0  0  0  0
   -7.1420   24.0050  -30.7340 N   0  0  0  0  0  0  0  0  0  0  0  0
   -7.2930   22.7770  -29.9200 C   0  0  0  0  0  0  0  0  0  0  0  0
   -8.3220   21.8220  -30.5310 C   0  0  0  0  0  0  0  0  0  0  0  0
   -7.8790   21.3490  -31.9270 C   0  0  0  0  0  0  0  0  0  0  0  0
   -6.9340   22.3470  -32.6200 C   0  0  0  0  0  0  0  0  0  0  0  0
   -7.2460   23.7900  -32.2000 C   0  0  0  0  0  0  0  0  0  0  0  0
   -4.5130   22.4350  -31.0510 C   0  0  0  0  0  0  0  0  0  0  0  0
   -5.7650   20.4630  -32.2530 H   0  0  0  0  0  0  0  0  0  0  0  0
   -7.4047   18.6336  -32.3391 H   0  0  0  0  0  0  0  0  0  0  0  0
   -7.9596   16.3453  -33.1984 H   0  0  0  0  0  0  0  0  0  0  0  0
   -3.2108   17.9537  -33.2711 H   0  0  0  0  0  0  0  0  0  0  0  0
   -3.1446   15.7005  -35.1557 H   0  0  0  0  0  0  0  0  0  0  0  0
   -2.8855   15.0462  -33.5447 H   0  0  0  0  0  0  0  0  0  0  0  0
   -4.5303   13.9416  -35.7096 H   0  0  0  0  0  0  0  0  0  0  0  0
   -4.2714   13.2304  -34.0959 H   0  0  0  0  0  0  0  0  0  0  0  0
   -6.6868   14.5064  -35.1156 H   0  0  0  0  0  0  0  0  0  0  0  0
   -6.4650   13.8350  -33.5064 H   0  0  0  0  0  0  0  0  0  0  0  0
   -1.3282   21.1910  -30.9262 H   0  0  0  0  0  0  0  0  0  0  0  0
   -0.9234   23.4254  -29.9078 H   0  0  0  0  0  0  0  0  0  0  0  0
   -6.3210   22.2653  -29.8613 H   0  0  0  0  0  0  0  0  0  0  0  0
   -7.6436   23.0675  -28.9187 H   0  0  0  0  0  0  0  0  0  0  0  0
   -8.4343   20.9469  -29.8741 H   0  0  0  0  0  0  0  0  0  0  0  0
   -9.2784   22.3562  -30.6305 H   0  0  0  0  0  0  0  0  0  0  0  0
   -7.3586   20.3854  -31.8234 H   0  0  0  0  0  0  0  0  0  0  0  0
   -8.7816   21.2590  -32.5493 H   0  0  0  0  0  0  0  0  0  0  0  0
   -5.8961   22.1094  -32.3439 H   0  0  0  0  0  0  0  0  0  0  0  0
   -7.0750   22.2625  -33.7077 H   0  0  0  0  0  0  0  0  0  0  0  0
   -6.5362   24.4626  -32.7038 H   0  0  0  0  0  0  0  0  0  0  0  0
   -8.2866   23.9984  -32.4893 H   0  0  0  0  0  0  0  0  0  0  0  0
   -5.5238   22.1627  -31.3890 H   0  0  0  0  0  0  0  0  0  0  0  0
  1  2  2  0
  2  3  1  0
  3  4  1  0
  4  5  2  0
  5  6  1  0
  6  7  2  0
  7  8  1  0
  8  9  2  0
  8 10  1  0
 10 11  1  0
 11 12  1  0
  2 13  1  0
 13 14  2  0
 14 15  1  0
 15 16  2  0
 16 17  1  0
 16 18  1  0
 18 19  1  0
 19 20  2  0
 19 21  2  0
 19 22  1  0
 22 23  1  0
 23 24  1  0
 24 25  1  0
 25 26  1  0
 26 27  1  0
 18 28  2  0
  9  4  1  0
 28 13  1  0
 12  7  1  0
 27 22  1  0
  3 29  1  0
  5 30  1  0
  6 31  1  0
  9 32  1  0
 10 33  1  0
 10 34  1  0
 11 35  1  0
 11 36  1  0
 12 37  1  0
 12 38  1  0
 14 39  1  0
 15 40  1  0
 23 41  1  0
 23 42  1  0
 24 43  1  0
 24 44  1  0
 25 45  1  0
 25 46  1  0
 26 47  1  0
 26 48  1  0
 27 49  1  0
 27 50  1  0
 28 51  1  0
M  CHG  1  17  -1
M  END
>  <UniqueID>  (15) 
15

>  <SMILES>  (15) 
O=C(Nc1ccc2c(c1)CCC2)c1ccc([O-])c(S(=O)(=O)N2CCCCC2)c1

>  <Energy>  (15) 
73.84943235203262

>  <Genealogy>  (15) 
O=C(Nc1ccc2c(c1)CCC2)c1ccc([O-])c(S(=O)(=O)N2CCCCC2)c1 (protonated)
O=C(Nc1ccc2c(c1)CCC2)c1ccc([O-])c(S(=O)(=O)N2CCCCC2)c1 (3D coordinates assigned)
O=C(Nc1ccc2c(c1)CCC2)c1ccc([O-])c(S(=O)(=O)N2CCCCC2)c1 (nonaromatic ring conformer: 73.84943235203262 kcal/mol)

>  <smiles>  (15) 
O=C(Nc1ccc2c(c1)CCC2)c1ccc(O)c(S(=O)(=O)N2CCCCC2)c1

>  <score_type>  (15) 
oracle

>  <origin>  (15) 
adgpu

>  <m_score__min__energy>  (15) 
-11.75

>  <m_primary>  (15) 
energy

$$$$
15:0
     RDKit          3D

 56 59  0  0  0  0  0  0  0  0999 V2000
    0.5860   18.3740  -29.7010 C   0  0  0  0  0  0  0  0  0  0  0  0
   -0.0770   19.2080  -28.7050 N   0  0  0  0  0  0  0  0  0  0  0  0
   -0.7470   18.7320  -27.5340 C   0  0  0  0  0  0  0  0  0  0  0  0
   -0.6130   17.5740  -27.0590 O   0  0  0  0  0  0  0  0  0  0  0  0
   -1.6230   19.7680  -27.0050 C   0  0  0  0  0  0  0  0  0  0  0  0
   -2.3560   19.6970  -25.9830 O   0  0  0  0  0  0  0  0  0  0  0  0
   -1.4980   20.8880  -27.9220 C   0  0  0  0  0  0  0  0  0  0  0  0
   -2.1330   22.1270  -27.9210 C   0  0  0  0  0  0  0  0  0  0  0  0
   -1.8450   23.0240  -28.9690 C   0  0  0  0  0  0  0  0  0  0  0  0
   -2.5950   24.6140  -28.9970 S   0  0  0  0  0  0  0  0  0  0  0  0
   -3.4820   24.7650  -27.7930 O   0  0  0  0  0  0  0  0  0  0  0  0
   -1.5310   25.6750  -28.9660 O   0  0  0  0  0  0  0  0  0  0  0  0
   -3.5340   24.7590  -30.4470 N   0  0  0  0  0  0  0  0  0  0  0  0
   -4.7250   24.0180  -30.7480 C   0  0  0  0  0  0  0  0  0  0  0  0
   -4.7020   22.9050  -31.6100 C   0  0  0  0  0  0  0  0  0  0  0  0
   -5.8790   22.1890  -31.8910 C   0  0  0  0  0  0  0  0  0  0  0  0
   -5.8450   21.0380  -32.8230 C   0  0  0  0  0  0  0  0  0  0  0  0
   -6.8780   20.7480  -33.4850 O   0  0  0  0  0  0  0  0  0  0  0  0
   -4.6640   20.2330  -32.9820 N   0  0  0  0  0  0  0  0  0  0  0  0
   -4.7480   18.7810  -32.8300 C   0  0  0  0  0  0  0  0  0  0  0  0
   -3.8500   18.0640  -33.8540 C   0  0  0  0  0  0  0  0  0  0  0  0
   -2.5200   18.6810  -34.0170 N   0  0  0  0  0  0  0  0  0  0  0  0
   -1.3160   18.1150  -32.8740 S   0  0  0  0  0  0  0  0  0  0  0  0
    0.3630   18.2100  -33.4690 C   0  0  0  0  0  0  0  0  0  0  0  0
   -1.4090   18.9620  -31.6370 O   0  0  0  0  0  0  0  0  0  0  0  0
   -1.5990   16.6890  -32.4920 O   0  0  0  0  0  0  0  0  0  0  0  0
   -2.5520   20.1430  -34.2010 C   0  0  0  0  0  0  0  0  0  0  0  0
   -3.3410   20.8480  -33.1020 C   0  0  0  0  0  0  0  0  0  0  0  0
   -7.0880   22.6100  -31.3160 C   0  0  0  0  0  0  0  0  0  0  0  0
   -7.1160   23.7070  -30.4550 C   0  0  0  0  0  0  0  0  0  0  0  0
   -5.9450   24.4110  -30.1660 C   0  0  0  0  0  0  0  0  0  0  0  0
   -6.0190   25.5060  -29.3050 O   0  0  0  0  0  0  0  0  0  0  0  0
   -0.9310   22.6560  -29.9820 C   0  0  0  0  0  0  0  0  0  0  0  0
   -0.3060   21.3970  -29.9630 C   0  0  0  0  0  0  0  0  0  0  0  0
   -0.6030   20.5250  -28.9130 C   0  0  0  0  0  0  0  0  0  0  0  0
    1.1934   17.6099  -29.1938 H   0  0  0  0  0  0  0  0  0  0  0  0
   -0.1707   17.8826  -30.3302 H   0  0  0  0  0  0  0  0  0  0  0  0
    1.2354   19.0004  -30.3302 H   0  0  0  0  0  0  0  0  0  0  0  0
   -2.8405   22.3984  -27.1236 H   0  0  0  0  0  0  0  0  0  0  0  0
   -3.7525   22.5921  -32.0688 H   0  0  0  0  0  0  0  0  0  0  0  0
   -4.4252   18.5067  -31.8148 H   0  0  0  0  0  0  0  0  0  0  0  0
   -5.7895   18.4714  -33.0013 H   0  0  0  0  0  0  0  0  0  0  0  0
   -3.7113   17.0236  -33.5247 H   0  0  0  0  0  0  0  0  0  0  0  0
   -4.3565   18.1343  -34.8279 H   0  0  0  0  0  0  0  0  0  0  0  0
    1.0535   18.2491  -32.6136 H   0  0  0  0  0  0  0  0  0  0  0  0
    0.5862   17.3230  -34.0802 H   0  0  0  0  0  0  0  0  0  0  0  0
    0.4847   19.1165  -34.0802 H   0  0  0  0  0  0  0  0  0  0  0  0
   -1.5197   20.5230  -34.1946 H   0  0  0  0  0  0  0  0  0  0  0  0
   -3.0507   20.3506  -35.1592 H   0  0  0  0  0  0  0  0  0  0  0  0
   -2.8043   20.7533  -32.1465 H   0  0  0  0  0  0  0  0  0  0  0  0
   -3.4524   21.9127  -33.3551 H   0  0  0  0  0  0  0  0  0  0  0  0
   -8.0193   22.0715  -31.5457 H   0  0  0  0  0  0  0  0  0  0  0  0
   -8.0675   24.0199  -30.0003 H   0  0  0  0  0  0  0  0  0  0  0  0
   -5.3080   25.7010  -28.6100 H   0  0  0  0  0  0  0  0  0  0  0  0
   -0.7061   23.3626  -30.7945 H   0  0  0  0  0  0  0  0  0  0  0  0
    0.3994   21.1058  -30.7552 H   0  0  0  0  0  0  0  0  0  0  0  0
  1  2  1  0
  2  3  1  0
  3  4  2  0
  3  5  1  0
  5  6  2  0
  5  7  1  0
  7  8  2  0
  8  9  1  0
  9 10  1  0
 10 11  2  0
 10 12  2  0
 10 13  1  0
 13 14  1  0
 14 15  2  0
 15 16  1  0
 16 17  1  0
 17 18  2  0
 17 19  1  0
 19 20  1  0
 20 21  1  0
 21 22  1  0
 22 23  1  0
 23 24  1  0
 23 25  2  0
 23 26  2  0
 22 27  1  0
 27 28  1  0
 16 29  2  0
 29 30  1  0
 30 31  2  0
 31 32  1  0
  9 33  2  0
 33 34  1  0
 34 35  2  0
 35  2  1  0
 35  7  1  0
 31 14  1  0
 28 19  1  0
  1 36  1  0
  1 37  1  0
  1 38  1  0
  8 39  1  0
 15 40  1  0
 20 41  1  0
 20 42  1  0
 21 43  1  0
 21 44  1  0
 24 45  1  0
 24 46  1  0
 24 47  1  0
 27 48  1  0
 27 49  1  0
 28 50  1  0
 28 51  1  0
 29 52  1  0
 30 53  1  0
 32 54  1  0
 33 55  1  0
 34 56  1  0
M  CHG  1  13  -1
M  END
>  <UniqueID>  (16) 
16

>  <SMILES>  (16) 
CN1C(=O)C(=O)c2cc(S(=O)(=O)[N-]c3cc(C(=O)N4CCN(S(C)(=O)=O)CC4)ccc3O)ccc21

>  <Energy>  (16) 
101.7651145331231

>  <Genealogy>  (16) 
CN1C(=O)C(=O)c2cc(S(=O)(=O)[N-]c3cc(C(=O)N4CCN(S(C)(=O)=O)CC4)ccc3O)ccc21 (protonated)
CN1C(=O)C(=O)c2cc(S(=O)(=O)[N-]c3cc(C(=O)N4CCN(S(C)(=O)=O)CC4)ccc3O)ccc21 (3D coordinates assigned)
CN1C(=O)C(=O)c2cc(S(=O)(=O)[N-]c3cc(C(=O)N4CCN(S(C)(=O)=O)CC4)ccc3O)ccc21 (nonaromatic ring conformer: 101.7651145331231 kcal/mol)

>  <smiles>  (16) 
CN1C(=O)C(=O)c2cc(S(=O)(=O)Nc3cc(C(=O)N4CCN(S(C)(=O)=O)CC4)ccc3O)ccc21

>  <score_type>  (16) 
oracle

>  <origin>  (16) 
adgpu

>  <m_score__min__energy>  (16) 
-13.01

>  <m_primary>  (16) 
energy

$$$$
16:0
     RDKit          3D

 65 68  0  0  0  0  0  0  0  0999 V2000
   -2.3220   22.3830  -30.1060 O   0  0  0  0  0  0  0  0  0  0  0  0
   -3.1140   22.4830  -31.0830 C   0  0  0  0  0  0  0  0  0  0  0  0
   -2.7070   22.0200  -32.3810 N   0  0  0  0  0  0  0  0  0  0  0  0
   -1.4280   21.3530  -32.6100 C   0  0  0  0  0  0  0  0  0  0  0  0
   -1.6580   19.9860  -33.1910 C   0  0  0  0  0  0  0  0  0  0  0  0
   -2.8890   19.6710  -33.7890 C   0  0  0  0  0  0  0  0  0  0  0  0
   -3.0960   18.4090  -34.3530 C   0  0  0  0  0  0  0  0  0  0  0  0
   -2.0720   17.4530  -34.3380 C   0  0  0  0  0  0  0  0  0  0  0  0
   -2.3490   15.8720  -35.0680 S   0  0  0  0  0  0  0  0  0  0  0  0
   -1.0480   15.3850  -35.6410 O   0  0  0  0  0  0  0  0  0  0  0  0
   -3.3450   15.9930  -36.1890 O   0  0  0  0  0  0  0  0  0  0  0  0
   -2.9200   14.7280  -33.8730 N   0  0  0  0  0  0  0  0  0  0  0  0
   -3.5780   15.3930  -32.7310 C   0  0  0  0  0  0  0  0  0  0  0  0
   -4.9730   15.9420  -33.0820 C   0  0  0  0  0  0  0  0  0  0  0  0
   -5.7790   15.0040  -33.9970 C   0  0  0  0  0  0  0  0  0  0  0  0
   -5.1880   13.5960  -34.0370 C   0  0  0  0  0  0  0  0  0  0  0  0
   -3.7160   13.6350  -34.4890 C   0  0  0  0  0  0  0  0  0  0  0  0
   -0.8350   17.7710  -33.7610 C   0  0  0  0  0  0  0  0  0  0  0  0
   -0.6290   19.0310  -33.1910 C   0  0  0  0  0  0  0  0  0  0  0  0
   -4.4390   23.1080  -30.8780 C   0  0  0  0  0  0  0  0  0  0  0  0
   -5.5990   22.3330  -31.0500 C   0  0  0  0  0  0  0  0  0  0  0  0
   -6.8700   22.8970  -30.8790 C   0  0  0  0  0  0  0  0  0  0  0  0
   -8.3140   21.9110  -31.1170 S   0  0  0  0  0  0  0  0  0  0  0  0
   -9.1290   21.9190  -29.8530 O   0  0  0  0  0  0  0  0  0  0  0  0
   -9.1520   22.5080  -32.2140 O   0  0  0  0  0  0  0  0  0  0  0  0
   -7.9060   20.2640  -31.5340 N   0  0  0  0  0  0  0  0  0  0  0  0
   -7.4380   20.1890  -32.9270 C   0  0  0  0  0  0  0  0  0  0  0  0
   -6.8420   18.7990  -33.2150 C   0  0  0  0  0  0  0  0  0  0  0  0
   -7.4080   17.7130  -32.2840 C   0  0  0  0  0  0  0  0  0  0  0  0
   -8.8770   17.9830  -31.9510 C   0  0  0  0  0  0  0  0  0  0  0  0
   -9.0720   19.3800  -31.3190 C   0  0  0  0  0  0  0  0  0  0  0  0
   -6.9850   24.2470  -30.5270 C   0  0  0  0  0  0  0  0  0  0  0  0
   -5.8410   25.0300  -30.3630 C   0  0  0  0  0  0  0  0  0  0  0  0
   -4.5720   24.4740  -30.5480 C   0  0  0  0  0  0  0  0  0  0  0  0
   -3.4560   25.2970  -30.4330 O   0  0  0  0  0  0  0  0  0  0  0  0
   -3.2630   22.3010  -33.2190 H   0  0  0  0  0  0  0  0  0  0  0  0
   -0.8261   21.9501  -33.3108 H   0  0  0  0  0  0  0  0  0  0  0  0
   -0.8960   21.2535  -31.6523 H   0  0  0  0  0  0  0  0  0  0  0  0
   -3.6937   20.4206  -33.8136 H   0  0  0  0  0  0  0  0  0  0  0  0
   -4.0664   18.1656  -34.8103 H   0  0  0  0  0  0  0  0  0  0  0  0
   -3.6826   14.6648  -31.9132 H   0  0  0  0  0  0  0  0  0  0  0  0
   -2.9500   16.2477  -32.4392 H   0  0  0  0  0  0  0  0  0  0  0  0
   -5.5361   16.0892  -32.1486 H   0  0  0  0  0  0  0  0  0  0  0  0
   -4.8259   16.8855  -33.6280 H   0  0  0  0  0  0  0  0  0  0  0  0
   -6.8120   14.9450  -33.6236 H   0  0  0  0  0  0  0  0  0  0  0  0
   -5.7473   15.4147  -35.0170 H   0  0  0  0  0  0  0  0  0  0  0  0
   -5.2454   13.1518  -33.0323 H   0  0  0  0  0  0  0  0  0  0  0  0
   -5.7622   12.9922  -34.7551 H   0  0  0  0  0  0  0  0  0  0  0  0
   -3.2479   12.6755  -34.2240 H   0  0  0  0  0  0  0  0  0  0  0  0
   -3.7224   13.8201  -35.5733 H   0  0  0  0  0  0  0  0  0  0  0  0
   -0.0243   17.0276  -33.7566 H   0  0  0  0  0  0  0  0  0  0  0  0
    0.3442   19.2752  -32.7403 H   0  0  0  0  0  0  0  0  0  0  0  0
   -5.5078   21.2711  -31.3221 H   0  0  0  0  0  0  0  0  0  0  0  0
   -8.2855   20.3682  -33.6049 H   0  0  0  0  0  0  0  0  0  0  0  0
   -6.6614   20.9517  -33.0857 H   0  0  0  0  0  0  0  0  0  0  0  0
   -7.0701   18.5258  -34.2558 H   0  0  0  0  0  0  0  0  0  0  0  0
   -5.7573   18.8570  -33.0415 H   0  0  0  0  0  0  0  0  0  0  0  0
   -7.3263   16.7353  -32.7814 H   0  0  0  0  0  0  0  0  0  0  0  0
   -6.8307   17.7202  -31.3477 H   0  0  0  0  0  0  0  0  0  0  0  0
   -9.4690   17.9245  -32.8763 H   0  0  0  0  0  0  0  0  0  0  0  0
   -9.2082   17.2278  -31.2230 H   0  0  0  0  0  0  0  0  0  0  0  0
   -9.9593   19.8501  -31.7681 H   0  0  0  0  0  0  0  0  0  0  0  0
   -9.1937   19.2433  -30.2343 H   0  0  0  0  0  0  0  0  0  0  0  0
   -7.9799   24.6922  -30.3792 H   0  0  0  0  0  0  0  0  0  0  0  0
   -5.9387   26.0902  -30.0867 H   0  0  0  0  0  0  0  0  0  0  0  0
  1  2  2  0
  2  3  1  0
  3  4  1  0
  4  5  1  0
  5  6  2  0
  6  7  1  0
  7  8  2  0
  8  9  1  0
  9 10  2  0
  9 11  2  0
  9 12  1  0
 12 13  1  0
 13 14  1  0
 14 15  1  0
 15 16  1  0
 16 17  1  0
  8 18  1  0
 18 19  2  0
  2 20  1  0
 20 21  2  0
 21 22  1  0
 22 23  1  0
 23 24  2  0
 23 25  2  0
 23 26  1  0
 26 27  1  0
 27 28  1  0
 28 29  1  0
 29 30  1  0
 30 31  1  0
 22 32  2  0
 32 33  1  0
 33 34  2  0
 34 35  1  0
 19  5  1  0
 34 20  1  0
 17 12  1  0
 31 26  1  0
  3 36  1  0
  4 37  1  0
  4 38  1  0
  6 39  1  0
  7 40  1  0
 13 41  1  0
 13 42  1  0
 14 43  1  0
 14 44  1  0
 15 45  1  0
 15 46  1  0
 16 47  1  0
 16 48  1  0
 17 49  1  0
 17 50  1  0
 18 51  1  0
 19 52  1  0
 21 53  1  0
 27 54  1  0
 27 55  1  0
 28 56  1  0
 28 57  1  0
 29 58  1  0
 29 59  1  0
 30 60  1  0
 30 61  1  0
 31 62  1  0
 31 63  1  0
 32 64  1  0
 33 65  1  0
M  CHG  1  35  -1
M  END
>  <UniqueID>  (17) 
17

>  <SMILES>  (17) 
O=C(NCc1ccc(S(=O)(=O)N2CCCCC2)cc1)c1cc(S(=O)(=O)N2CCCCC2)ccc1[O-]

>  <Energy>  (17) 
78.2465153629942

>  <Genealogy>  (17) 
O=C(NCc1ccc(S(=O)(=O)N2CCCCC2)cc1)c1cc(S(=O)(=O)N2CCCCC2)ccc1[O-] (protonated)
O=C(NCc1ccc(S(=O)(=O)N2CCCCC2)cc1)c1cc(S(=O)(=O)N2CCCCC2)ccc1[O-] (3D coordinates assigned)
O=C(NCc1ccc(S(=O)(=O)N2CCCCC2)cc1)c1cc(S(=O)(=O)N2CCCCC2)ccc1[O-] (nonaromatic ring conformer: 78.2465153629942 kcal/mol)

>  <smiles>  (17) 
O=C(NCc1ccc(S(=O)(=O)N2CCCCC2)cc1)c1cc(S(=O)(=O)N2CCCCC2)ccc1O

>  <score_type>  (17) 
oracle

>  <origin>  (17) 
adgpu

>  <m_score__min__energy>  (17) 
-14.859999999999999

>  <m_primary>  (17) 
energy

$$$$
17:0
     RDKit          3D

 57 61  0  0  0  0  0  0  0  0999 V2000
   -3.8670   25.3060  -30.4610 O   0  0  0  0  0  0  0  0  0  0  0  0
   -3.7240   24.0950  -30.1320 C   0  0  0  0  0  0  0  0  0  0  0  0
   -2.8770   23.7480  -29.0290 N   0  0  0  0  0  0  0  0  0  0  0  0
   -2.3990   24.6470  -28.0180 C   0  0  0  0  0  0  0  0  0  0  0  0
   -2.6660   24.3420  -26.6760 C   0  0  0  0  0  0  0  0  0  0  0  0
   -2.2000   25.1750  -25.6540 C   0  0  0  0  0  0  0  0  0  0  0  0
   -1.4500   26.3110  -25.9660 C   0  0  0  0  0  0  0  0  0  0  0  0
   -1.1520   26.6100  -27.2990 C   0  0  0  0  0  0  0  0  0  0  0  0
   -1.6070   25.7740  -28.3260 C   0  0  0  0  0  0  0  0  0  0  0  0
   -1.2360   26.0530  -29.6350 O   0  0  0  0  0  0  0  0  0  0  0  0
   -4.4680   23.0380  -30.8550 C   0  0  0  0  0  0  0  0  0  0  0  0
   -5.8130   23.2520  -31.2620 C   0  0  0  0  0  0  0  0  0  0  0  0
   -6.5280   22.2540  -31.9470 C   0  0  0  0  0  0  0  0  0  0  0  0
   -5.8810   21.0530  -32.2160 C   0  0  0  0  0  0  0  0  0  0  0  0
   -4.5760   20.8370  -31.8340 C   0  0  0  0  0  0  0  0  0  0  0  0
   -3.8430   21.8040  -31.1510 C   0  0  0  0  0  0  0  0  0  0  0  0
   -4.2010   19.4990  -32.2710 C   0  0  0  0  0  0  0  0  0  0  0  0
   -3.0910   18.9450  -32.0530 O   0  0  0  0  0  0  0  0  0  0  0  0
   -5.3020   18.8750  -32.9400 N   0  0  0  0  0  0  0  0  0  0  0  0
   -5.3490   17.5510  -33.4990 C   0  0  0  0  0  0  0  0  0  0  0  0
   -6.5080   16.7670  -33.3770 C   0  0  0  0  0  0  0  0  0  0  0  0
   -6.5430   15.4710  -33.8970 C   0  0  0  0  0  0  0  0  0  0  0  0
   -5.4200   14.9420  -34.5500 C   0  0  0  0  0  0  0  0  0  0  0  0
   -5.4520   13.3100  -35.2110 S   0  0  0  0  0  0  0  0  0  0  0  0
   -4.4830   13.2080  -36.3560 O   0  0  0  0  0  0  0  0  0  0  0  0
   -6.8360   13.0310  -35.7320 O   0  0  0  0  0  0  0  0  0  0  0  0
   -5.0380   12.1700  -33.9490 N   0  0  0  0  0  0  0  0  0  0  0  0
   -5.7660   12.4510  -32.6850 C   0  0  0  0  0  0  0  0  0  0  0  0
   -4.8550   12.8320  -31.5030 C   0  0  0  0  0  0  0  0  0  0  0  0
   -3.7710   13.8130  -31.9520 C   0  0  0  0  0  0  0  0  0  0  0  0
   -2.9310   13.2570  -33.1170 C   0  0  0  0  0  0  0  0  0  0  0  0
   -3.5750   12.0310  -33.7940 C   0  0  0  0  0  0  0  0  0  0  0  0
   -4.2680   15.7270  -34.6880 C   0  0  0  0  0  0  0  0  0  0  0  0
   -4.2300   17.0210  -34.1610 C   0  0  0  0  0  0  0  0  0  0  0  0
   -6.3480   19.8510  -32.8980 C   0  0  0  0  0  0  0  0  0  0  0  0
   -7.4880   19.6990  -33.4140 O   0  0  0  0  0  0  0  0  0  0  0  0
   -3.2459   23.4415  -26.4253 H   0  0  0  0  0  0  0  0  0  0  0  0
   -2.4242   24.9354  -24.6041 H   0  0  0  0  0  0  0  0  0  0  0  0
   -1.0932   26.9715  -25.1620 H   0  0  0  0  0  0  0  0  0  0  0  0
   -0.5588   27.5040  -27.5414 H   0  0  0  0  0  0  0  0  0  0  0  0
   -6.3012   24.2119  -31.0379 H   0  0  0  0  0  0  0  0  0  0  0  0
   -7.5693   22.4185  -32.2611 H   0  0  0  0  0  0  0  0  0  0  0  0
   -2.8027   21.6129  -30.8488 H   0  0  0  0  0  0  0  0  0  0  0  0
   -7.3936   17.1761  -32.8688 H   0  0  0  0  0  0  0  0  0  0  0  0
   -7.4541   14.8634  -33.7941 H   0  0  0  0  0  0  0  0  0  0  0  0
   -6.4626   13.2829  -32.8658 H   0  0  0  0  0  0  0  0  0  0  0  0
   -6.2785   11.5198  -32.4017 H   0  0  0  0  0  0  0  0  0  0  0  0
   -5.4626   13.3008  -30.7150 H   0  0  0  0  0  0  0  0  0  0  0  0
   -4.3717   11.9210  -31.1202 H   0  0  0  0  0  0  0  0  0  0  0  0
   -4.2513   14.7480  -32.2760 H   0  0  0  0  0  0  0  0  0  0  0  0
   -3.0963   13.9844  -31.1003 H   0  0  0  0  0  0  0  0  0  0  0  0
   -2.8090   14.0493  -33.8702 H   0  0  0  0  0  0  0  0  0  0  0  0
   -1.9657   12.9331  -32.7007 H   0  0  0  0  0  0  0  0  0  0  0  0
   -3.1260   11.9022  -34.7899 H   0  0  0  0  0  0  0  0  0  0  0  0
   -3.3898   11.1591  -33.1494 H   0  0  0  0  0  0  0  0  0  0  0  0
   -3.3898   15.3234  -35.2132 H   0  0  0  0  0  0  0  0  0  0  0  0
   -3.3183   17.6275  -34.2655 H   0  0  0  0  0  0  0  0  0  0  0  0
  1  2  2  0
  2  3  1  0
  3  4  1  0
  4  5  2  0
  5  6  1  0
  6  7  2  0
  7  8  1  0
  8  9  2  0
  9 10  1  0
  2 11  1  0
 11 12  2  0
 12 13  1  0
 13 14  2  0
 14 15  1  0
 15 16  2  0
 15 17  1  0
 17 18  2  0
 17 19  1  0
 19 20  1  0
 20 21  2  0
 21 22  1  0
 22 23  2  0
 23 24  1  0
 24 25  2  0
 24 26  2  0
 24 27  1  0
 27 28  1  0
 28 29  1  0
 29 30  1  0
 30 31  1  0
 31 32  1  0
 23 33  1  0
 33 34  2  0
 19 35  1  0
 35 36  2  0
  9  4  1  0
 16 11  1  0
 34 20  1  0
 35 14  1  0
 32 27  1  0
  5 37  1  0
  6 38  1  0
  7 39  1  0
  8 40  1  0
 12 41  1  0
 13 42  1  0
 16 43  1  0
 21 44  1  0
 22 45  1  0
 28 46  1  0
 28 47  1  0
 29 48  1  0
 29 49  1  0
 30 50  1  0
 30 51  1  0
 31 52  1  0
 31 53  1  0
 32 54  1  0
 32 55  1  0
 33 56  1  0
 34 57  1  0
M  CHG  2   3  -1  10  -1
M  END
>  <UniqueID>  (18) 
18

>  <SMILES>  (18) 
O=C([N-]c1ccccc1[O-])c1ccc2c(c1)C(=O)N(c1ccc(S(=O)(=O)N3CCCCC3)cc1)C2=O

>  <Energy>  (18) 
113.27110610537963

>  <Genealogy>  (18) 
O=C([N-]c1ccccc1[O-])c1ccc2c(c1)C(=O)N(c1ccc(S(=O)(=O)N3CCCCC3)cc1)C2=O (protonated)
O=C([N-]c1ccccc1[O-])c1ccc2c(c1)C(=O)N(c1ccc(S(=O)(=O)N3CCCCC3)cc1)C2=O (3D coordinates assigned)
O=C([N-]c1ccccc1[O-])c1ccc2c(c1)C(=O)N(c1ccc(S(=O)(=O)N3CCCCC3)cc1)C2=O (nonaromatic ring conformer: 113.27110610537963 kcal/mol)

>  <smiles>  (18) 
O=C(Nc1ccccc1O)c1ccc2c(c1)C(=O)N(c1ccc(S(=O)(=O)N3CCCCC3)cc1)C2=O

>  <score_type>  (18) 
oracle

>  <origin>  (18) 
adgpu

>  <m_score__min__energy>  (18) 
-15.640000000000001

>  <m_primary>  (18) 
energy

$$$$
18:0
     RDKit          3D

 58 61  0  0  0  0  0  0  0  0999 V2000
   -7.4940   16.0893  -33.6048 H   0  0  0  0  0  0  0  0  0  0  0  0
   -6.7920   16.9240  -33.4620 C   0  0  0  0  0  0  0  0  0  0  0  0
   -7.2700   18.1780  -33.0720 C   0  0  0  0  0  0  0  0  0  0  0  0
   -8.3487   18.3298  -32.9192 H   0  0  0  0  0  0  0  0  0  0  0  0
   -6.3770   19.2470  -32.8740 C   0  0  0  0  0  0  0  0  0  0  0  0
   -6.8460   20.5510  -32.4930 N   0  0  0  0  0  0  0  0  0  0  0  0
   -7.8650   20.6690  -32.2970 H   0  0  0  0  0  0  0  0  0  0  0  0
   -6.0230   21.7280  -32.5020 C   0  0  0  0  0  0  0  0  0  0  0  0
   -4.9260   21.7320  -33.1270 O   0  0  0  0  0  0  0  0  0  0  0  0
   -6.5120   22.9900  -31.8560 C   0  0  0  0  0  0  0  0  0  0  0  0
   -7.2433   22.7354  -31.0748 H   0  0  0  0  0  0  0  0  0  0  0  0
   -6.9787   23.6223  -32.6256 H   0  0  0  0  0  0  0  0  0  0  0  0
   -5.3780   23.7440  -31.2390 C   0  0  0  0  0  0  0  0  0  0  0  0
   -5.2970   25.0940  -31.2220 N   0  0  0  0  0  0  0  0  0  0  0  0
   -4.2360   25.5510  -30.5570 N   0  0  0  0  0  0  0  0  0  0  0  0
   -3.4810   24.5690  -30.0220 C   0  0  0  0  0  0  0  0  0  0  0  0
   -2.3870   24.8170  -29.3630 N   0  0  0  0  0  0  0  0  0  0  0  0
   -1.5470   23.8480  -28.7160 C   0  0  0  0  0  0  0  0  0  0  0  0
   -1.9480   22.5050  -28.5960 C   0  0  0  0  0  0  0  0  0  0  0  0
   -2.9103   22.1834  -29.0210 H   0  0  0  0  0  0  0  0  0  0  0  0
   -1.1290   21.5690  -27.9370 C   0  0  0  0  0  0  0  0  0  0  0  0
   -1.4770   20.2160  -27.8180 O   0  0  0  0  0  0  0  0  0  0  0  0
   -2.3270   19.6910  -26.8040 C   0  0  0  0  0  0  0  0  0  0  0  0
   -1.9174   19.9440  -25.8149 H   0  0  0  0  0  0  0  0  0  0  0  0
   -3.3322   20.1258  -26.9067 H   0  0  0  0  0  0  0  0  0  0  0  0
   -2.3882   18.5975  -26.9067 H   0  0  0  0  0  0  0  0  0  0  0  0
    0.0760   21.9960  -27.3740 C   0  0  0  0  0  0  0  0  0  0  0  0
    0.7273   21.2704  -26.8648 H   0  0  0  0  0  0  0  0  0  0  0  0
    0.4610   23.3360  -27.4520 C   0  0  0  0  0  0  0  0  0  0  0  0
    1.4054   23.6610  -26.9910 H   0  0  0  0  0  0  0  0  0  0  0  0
   -0.3520   24.2740  -28.1170 C   0  0  0  0  0  0  0  0  0  0  0  0
   -0.0010   25.6310  -28.2080 O   0  0  0  0  0  0  0  0  0  0  0  0
   -0.4340   26.6370  -27.2990 C   0  0  0  0  0  0  0  0  0  0  0  0
   -0.2837   26.2878  -26.2668 H   0  0  0  0  0  0  0  0  0  0  0  0
    0.1485   27.5554  -27.4638 H   0  0  0  0  0  0  0  0  0  0  0  0
   -1.5015   26.8453  -27.4638 H   0  0  0  0  0  0  0  0  0  0  0  0
   -4.1070   23.0410  -30.3840 S   0  0  0  0  0  0  0  0  0  0  0  0
   -5.0070   19.0470  -33.1070 C   0  0  0  0  0  0  0  0  0  0  0  0
   -4.3045   19.8832  -32.9755 H   0  0  0  0  0  0  0  0  0  0  0  0
   -4.5250   17.7910  -33.5060 C   0  0  0  0  0  0  0  0  0  0  0  0
   -2.7950   17.5410  -33.7670 S   0  0  0  0  0  0  0  0  0  0  0  0
   -2.3290   16.4050  -32.9010 O   0  0  0  0  0  0  0  0  0  0  0  0
   -2.5690   17.1560  -35.2010 O   0  0  0  0  0  0  0  0  0  0  0  0
   -1.8420   18.9610  -33.4040 N   0  0  0  0  0  0  0  0  0  0  0  0
   -2.2360   20.1100  -34.2160 C   0  0  0  0  0  0  0  0  0  0  0  0
   -1.7259   20.0816  -35.1902 H   0  0  0  0  0  0  0  0  0  0  0  0
   -3.3183   20.1102  -34.4124 H   0  0  0  0  0  0  0  0  0  0  0  0
   -1.8140   21.3440  -33.4360 C   0  0  0  0  0  0  0  0  0  0  0  0
   -0.8424   21.7139  -33.7954 H   0  0  0  0  0  0  0  0  0  0  0  0
   -2.5312   22.1697  -33.5537 H   0  0  0  0  0  0  0  0  0  0  0  0
   -1.7080   20.8850  -31.9890 C   0  0  0  0  0  0  0  0  0  0  0  0
   -0.6969   21.0732  -31.5987 H   0  0  0  0  0  0  0  0  0  0  0  0
   -2.4085   21.4262  -31.3360 H   0  0  0  0  0  0  0  0  0  0  0  0
   -1.9990   19.3900  -32.0160 C   0  0  0  0  0  0  0  0  0  0  0  0
   -1.2890   18.8531  -31.3698 H   0  0  0  0  0  0  0  0  0  0  0  0
   -3.0124   19.1756  -31.6459 H   0  0  0  0  0  0  0  0  0  0  0  0
   -5.4240   16.7280  -33.6710 C   0  0  0  0  0  0  0  0  0  0  0  0
   -5.0514   15.7360  -33.9661 H   0  0  0  0  0  0  0  0  0  0  0  0
  1  2  1  0
  2  3  2  0
  3  4  1  0
  3  5  1  0
  5  6  1  0
  6  7  1  0
  6  8  1  0
  8  9  2  0
  8 10  1  0
 10 11  1  0
 10 12  1  0
 10 13  1  0
 13 14  2  0
 14 15  1  0
 15 16  1  0
 16 17  2  0
 17 18  1  0
 18 19  2  0
 19 20  1  0
 19 21  1  0
 21 22  1  0
 22 23  1  0
 23 24  1  0
 23 25  1  0
 23 26  1  0
 21 27  2  0
 27 28  1  0
 27 29  1  0
 29 30  1  0
 29 31  2  0
 31 32  1  0
 32 33  1  0
 33 34  1  0
 33 35  1  0
 33 36  1  0
 16 37  1  0
  5 38  2  0
 38 39  1  0
 38 40  1  0
 40 41  1  0
 41 42  2  0
 41 43  2  0
 41 44  1  0
 44 45  1  0
 45 46  1  0
 45 47  1  0
 45 48  1  0
 48 49  1  0
 48 50  1  0
 48 51  1  0
 51 52  1  0
 51 53  1  0
 51 54  1  0
 54 55  1  0
 54 56  1  0
 40 57  2  0
 57 58  1  0
 57  2  1  0
 37 13  1  0
 54 44  1  0
 31 18  1  0
M  CHG  1  15  -1
M  END
>  <UniqueID>  (19) 
19

>  <SMILES>  (19) 
COc1ccc(OC)c(/N=c2/[n-]nc(CC(=O)Nc3cccc(S(=O)(=O)N4CCCC4)c3)s2)c1

>  <Energy>  (19) 
103.6014249868663

>  <Genealogy>  (19) 
COc1ccc(OC)c(N=c2[n-]nc(CC(=O)Nc3cccc(S(=O)(=O)N4CCCC4)c3)s2)c1 (protonated)
COc1ccc(OC)c(/N=c2/[n-]nc(CC(=O)Nc3cccc(S(=O)(=O)N4CCCC4)c3)s2)c1 (cis-trans isomerization)
COc1ccc(OC)c(/N=c2/[n-]nc(CC(=O)Nc3cccc(S(=O)(=O)N4CCCC4)c3)s2)c1 (3D coordinates assigned)
COc1ccc(OC)c(/N=c2/[n-]nc(CC(=O)Nc3cccc(S(=O)(=O)N4CCCC4)c3)s2)c1 (nonaromatic ring conformer: 103.6014249868663 kcal/mol)

>  <smiles>  (19) 
COc1ccc(OC)c(N=c2[nH]nc(CC(=O)Nc3cccc(S(=O)(=O)N4CCCC4)c3)s2)c1

>  <score_type>  (19) 
oracle

>  <origin>  (19) 
adgpu

>  <m_score__min__energy>  (19) 
-12.25

>  <m_primary>  (19) 
energy

$$$$
19:0
     RDKit          3D

 31 32  0  0  0  0  0  0  0  0999 V2000
   -4.3280   24.1850  -27.9780 C   0  0  0  0  0  0  0  0  0  0  0  0
   -3.6490   23.4440  -29.1350 C   0  0  1  0  0  0  0  0  0  0  0  0
   -3.9490   24.0650  -30.4750 C   0  0  0  0  0  0  0  0  0  0  0  0
   -3.9630   25.3220  -30.5770 O   0  0  0  0  0  0  0  0  0  0  0  0
   -4.2140   23.2400  -31.6190 N   0  0  0  0  0  0  0  0  0  0  0  0
   -5.3730   22.4200  -31.8280 C   0  0  0  0  0  0  0  0  0  0  0  0
   -5.1940   21.1080  -32.2780 C   0  0  0  0  0  0  0  0  0  0  0  0
   -6.2940   20.2680  -32.4720 C   0  0  0  0  0  0  0  0  0  0  0  0
   -7.5960   20.7250  -32.2020 C   0  0  0  0  0  0  0  0  0  0  0  0
   -8.7580   19.8340  -32.4090 C   0  0  0  0  0  0  0  0  0  0  0  0
   -9.8850   20.3100  -32.7090 O   0  0  0  0  0  0  0  0  0  0  0  0
   -8.6240   18.4570  -32.2750 O   0  0  0  0  0  0  0  0  0  0  0  0
   -7.7720   22.0370  -31.7260 C   0  0  0  0  0  0  0  0  0  0  0  0
   -6.6690   22.8740  -31.5330 C   0  0  0  0  0  0  0  0  0  0  0  0
   -2.1980   23.3720  -28.9200 N   0  0  0  0  0  0  0  0  0  0  0  0
   -1.2940   24.3740  -29.0000 C   0  0  0  0  0  0  0  0  0  0  0  0
   -1.6070   25.6860  -29.3370 O   0  0  0  0  0  0  0  0  0  0  0  0
   -0.0250   23.9250  -28.7010 C   0  0  0  0  0  0  0  0  0  0  0  0
   -0.1520   22.5780  -28.4150 C   0  0  0  0  0  0  0  0  0  0  0  0
   -1.4920   22.2810  -28.5560 C   0  0  0  0  0  0  0  0  0  0  0  0
   -2.0490   21.0260  -28.3490 O   0  0  0  0  0  0  0  0  0  0  0  0
   -3.9615   23.7850  -27.0211 H   0  0  0  0  0  0  0  0  0  0  0  0
   -4.0927   25.2577  -28.0412 H   0  0  0  0  0  0  0  0  0  0  0  0
   -5.4171   24.0441  -28.0412 H   0  0  0  0  0  0  0  0  0  0  0  0
   -4.0650   22.4258  -29.1497 H   0  0  0  0  0  0  0  0  0  0  0  0
   -4.1795   20.7343  -32.4808 H   0  0  0  0  0  0  0  0  0  0  0  0
   -6.1401   19.2423  -32.8384 H   0  0  0  0  0  0  0  0  0  0  0  0
   -8.7840   22.4067  -31.5042 H   0  0  0  0  0  0  0  0  0  0  0  0
   -6.8169   23.8937  -31.1480 H   0  0  0  0  0  0  0  0  0  0  0  0
    0.9012   24.5184  -28.6918 H   0  0  0  0  0  0  0  0  0  0  0  0
    0.6528   21.8835  -28.1322 H   0  0  0  0  0  0  0  0  0  0  0  0
  1  2  1  0
  2  3  1  0
  3  4  2  0
  3  5  1  0
  5  6  1  0
  6  7  2  0
  7  8  1  0
  8  9  2  0
  9 10  1  0
 10 11  2  0
 10 12  1  0
  9 13  1  0
 13 14  2  0
  2 15  1  0
 15 16  1  0
 16 17  1  0
 16 18  2  0
 18 19  1  0
 19 20  2  0
 20 21  1  0
 14  6  1  0
 20 15  1  0
  1 22  1  0
  1 23  1  0
  1 24  1  0
  2 25  1  6
  7 26  1  0
  8 27  1  0
 13 28  1  0
 14 29  1  0
 18 30  1  0
 19 31  1  0
M  CHG  4   5  -1  12  -1  17  -1  21  -1
M  END
>  <UniqueID>  (20) 
20

>  <SMILES>  (20) 
C[C@@H](C(=O)[N-]c1ccc(C(=O)[O-])cc1)n1c([O-])ccc1[O-]

>  <Energy>  (20) 
61.82630763382339

>  <Genealogy>  (20) 
CC(C(=O)[N-]c1ccc(C(=O)[O-])cc1)n1c([O-])ccc1[O-] (protonated)
C[C@@H](C(=O)[N-]c1ccc(C(=O)[O-])cc1)n1c([O-])ccc1[O-] (chirality)
C[C@@H](C(=O)[N-]c1ccc(C(=O)[O-])cc1)n1c([O-])ccc1[O-] (3D coordinates assigned)
C[C@@H](C(=O)[N-]c1ccc(C(=O)[O-])cc1)n1c([O-])ccc1[O-] (optimized conformer: 61.82630763382339 kcal/mol)

>  <smiles>  (20) 
CC(C(=O)Nc1ccc(C(=O)O)cc1)n1c(O)ccc1O

>  <score_type>  (20) 
oracle

>  <origin>  (20) 
adgpu

>  <m_score__min__energy>  (20) 
-11

>  <m_primary>  (20) 
energy

$$$$
20:0
     RDKit          3D

 38 41  0  0  0  0  0  0  0  0999 V2000
   -1.7970   25.4400  -28.9370 O   0  0  0  0  0  0  0  0  0  0  0  0
   -2.5420   24.5660  -29.4500 C   0  0  0  0  0  0  0  0  0  0  0  0
   -3.4880   24.9640  -30.4490 N   0  0  0  0  0  0  0  0  0  0  0  0
   -4.8390   24.4960  -30.5620 C   0  0  0  0  0  0  0  0  0  0  0  0
   -5.9220   25.2540  -30.0860 C   0  0  0  0  0  0  0  0  0  0  0  0
   -7.2220   24.7560  -30.1820 C   0  0  0  0  0  0  0  0  0  0  0  0
   -7.4550   23.4990  -30.7450 C   0  0  0  0  0  0  0  0  0  0  0  0
   -6.3820   22.7250  -31.2230 C   0  0  0  0  0  0  0  0  0  0  0  0
   -6.5970   21.3760  -31.7910 C   0  0  0  0  0  0  0  0  0  0  0  0
   -5.6250   20.8450  -32.5300 O   0  0  0  0  0  0  0  0  0  0  0  0
   -5.7060   19.6390  -33.0800 C   0  0  0  0  0  0  0  0  0  0  0  0
   -4.6360   19.1500  -33.8390 C   0  0  0  0  0  0  0  0  0  0  0  0
   -4.7090   17.8810  -34.4200 C   0  0  0  0  0  0  0  0  0  0  0  0
   -5.8500   17.0940  -34.2450 C   0  0  0  0  0  0  0  0  0  0  0  0
   -6.9260   17.5720  -33.4910 C   0  0  0  0  0  0  0  0  0  0  0  0
   -6.8630   18.8480  -32.9030 C   0  0  0  0  0  0  0  0  0  0  0  0
   -7.9190   19.3770  -32.1440 C   0  0  0  0  0  0  0  0  0  0  0  0
   -8.9770   18.7120  -31.9650 O   0  0  0  0  0  0  0  0  0  0  0  0
   -7.7950   20.6600  -31.5870 C   0  0  0  0  0  0  0  0  0  0  0  0
   -8.8470   21.2320  -30.8680 O   0  0  0  0  0  0  0  0  0  0  0  0
   -5.0740   23.2240  -31.1020 C   0  0  0  0  0  0  0  0  0  0  0  0
   -2.4670   23.1760  -28.9600 C   0  0  0  0  0  0  0  0  0  0  0  0
   -3.3700   22.5760  -28.0890 C   0  0  0  0  0  0  0  0  0  0  0  0
   -3.0840   21.2290  -27.8340 C   0  0  0  0  0  0  0  0  0  0  0  0
   -1.9670   20.7570  -28.5100 C   0  0  0  0  0  0  0  0  0  0  0  0
   -1.3370   22.0170  -29.4270 S   0  0  0  0  0  0  0  0  0  0  0  0
   -5.7447   26.2423  -29.6366 H   0  0  0  0  0  0  0  0  0  0  0  0
   -8.0669   25.3558  -29.8128 H   0  0  0  0  0  0  0  0  0  0  0  0
   -8.4825   23.1125  -30.8149 H   0  0  0  0  0  0  0  0  0  0  0  0
   -3.7355   19.7662  -33.9784 H   0  0  0  0  0  0  0  0  0  0  0  0
   -3.8663   17.5011  -35.0163 H   0  0  0  0  0  0  0  0  0  0  0  0
   -5.9020   16.0948  -34.7020 H   0  0  0  0  0  0  0  0  0  0  0  0
   -7.8229   16.9493  -33.3575 H   0  0  0  0  0  0  0  0  0  0  0  0
   -9.7210   20.7440  -30.7060 H   0  0  0  0  0  0  0  0  0  0  0  0
   -4.2247   22.6093  -31.4349 H   0  0  0  0  0  0  0  0  0  0  0  0
   -4.2245   23.1070  -27.6443 H   0  0  0  0  0  0  0  0  0  0  0  0
   -3.6882   20.6032  -27.1607 H   0  0  0  0  0  0  0  0  0  0  0  0
   -1.5639   19.7350  -28.4550 H   0  0  0  0  0  0  0  0  0  0  0  0
  1  2  2  0
  2  3  1  0
  3  4  1  0
  4  5  2  0
  5  6  1  0
  6  7  2  0
  7  8  1  0
  8  9  1  0
  9 10  1  0
 10 11  1  0
 11 12  2  0
 12 13  1  0
 13 14  2  0
 14 15  1  0
 15 16  2  0
 16 17  1  0
 17 18  2  0
 17 19  1  0
 19 20  1  0
  8 21  2  0
  2 22  1  0
 22 23  2  0
 23 24  1  0
 24 25  2  0
 25 26  1  0
 21  4  1  0
 26 22  1  0
 19  9  2  0
 16 11  1  0
  5 27  1  0
  6 28  1  0
  7 29  1  0
 12 30  1  0
 13 31  1  0
 14 32  1  0
 15 33  1  0
 20 34  1  0
 21 35  1  0
 23 36  1  0
 24 37  1  0
 25 38  1  0
M  CHG  1   3  -1
M  END
>  <UniqueID>  (21) 
21

>  <SMILES>  (21) 
O=C([N-]c1cccc(-c2oc3ccccc3c(=O)c2O)c1)c1cccs1

>  <Energy>  (21) 
85.26170112403092

>  <Genealogy>  (21) 
O=C([N-]c1cccc(-c2oc3ccccc3c(=O)c2O)c1)c1cccs1 (protonated)
O=C([N-]c1cccc(-c2oc3ccccc3c(=O)c2O)c1)c1cccs1 (3D coordinates assigned)
O=C([N-]c1cccc(-c2oc3ccccc3c(=O)c2O)c1)c1cccs1 (optimized conformer: 85.26170112403092 kcal/mol)

>  <smiles>  (21) 
O=C(Nc1cccc(-c2oc3ccccc3c(=O)c2O)c1)c1cccs1

>  <score_type>  (21) 
oracle

>  <origin>  (21) 
adgpu

>  <m_score__min__energy>  (21) 
-10.57

>  <m_primary>  (21) 
energy

$$$$
21:0
     RDKit          3D

 68 72  0  0  0  0  0  0  0  0999 V2000
   -5.3840   24.0420  -31.6280 O   0  0  0  0  0  0  0  0  0  0  0  0
   -4.5450   23.2490  -31.1200 C   0  0  0  0  0  0  0  0  0  0  0  0
   -4.2570   21.9730  -31.8110 C   0  0  0  0  0  0  0  0  0  0  0  0
   -5.0060   20.8210  -31.5340 C   0  0  0  0  0  0  0  0  0  0  0  0
   -4.7170   19.6190  -32.1830 C   0  0  0  0  0  0  0  0  0  0  0  0
   -3.6910   19.5520  -33.1360 C   0  0  0  0  0  0  0  0  0  0  0  0
   -3.4450   18.3150  -33.8240 N   0  0  0  0  0  0  0  0  0  0  0  0
   -4.4420   17.8030  -34.7750 C   0  0  0  0  0  0  0  0  0  0  0  0
   -4.2660   16.2940  -34.9730 C   0  0  0  0  0  0  0  0  0  0  0  0
   -2.8390   15.9260  -35.4270 C   0  0  0  0  0  0  0  0  0  0  0  0
   -1.7630   16.9380  -34.9870 C   0  0  0  0  0  0  0  0  0  0  0  0
   -2.1410   17.6500  -33.6850 C   0  0  0  0  0  0  0  0  0  0  0  0
   -2.9500   20.7120  -33.4410 C   0  0  0  0  0  0  0  0  0  0  0  0
   -1.8560   20.6520  -34.3640 N   0  0  0  0  0  0  0  0  0  0  0  0
   -0.2170   20.5470  -33.8090 S   0  0  0  0  0  0  0  0  0  0  0  0
    0.4880   19.4520  -34.5600 O   0  0  0  0  0  0  0  0  0  0  0  0
    0.4860   21.8470  -34.0930 O   0  0  0  0  0  0  0  0  0  0  0  0
   -0.1610   20.1800  -32.0870 C   0  0  0  0  0  0  0  0  0  0  0  0
   -0.4290   21.1770  -31.1360 C   0  0  0  0  0  0  0  0  0  0  0  0
   -0.4050   20.8710  -29.7710 C   0  0  0  0  0  0  0  0  0  0  0  0
   -0.1150   19.5680  -29.3500 C   0  0  0  0  0  0  0  0  0  0  0  0
    0.1500   18.5710  -30.2940 C   0  0  0  0  0  0  0  0  0  0  0  0
    0.1250   18.8750  -31.6600 C   0  0  0  0  0  0  0  0  0  0  0  0
   -3.2380   21.9120  -32.7730 C   0  0  0  0  0  0  0  0  0  0  0  0
   -3.8800   23.6150  -29.8930 N   0  0  0  0  0  0  0  0  0  0  0  0
   -2.4700   23.2500  -29.6810 C   0  0  0  0  0  0  0  0  0  0  0  0
   -1.7500   24.2890  -28.8140 C   0  0  0  0  0  0  0  0  0  0  0  0
   -2.4970   24.5420  -27.5720 N   0  0  0  0  0  0  0  0  0  0  0  0
   -1.7950   24.9480  -26.3750 C   0  0  0  0  0  0  0  0  0  0  0  0
   -2.0010   26.2270  -25.8230 C   0  0  0  0  0  0  0  0  0  0  0  0
   -1.3160   26.6220  -24.6690 C   0  0  0  0  0  0  0  0  0  0  0  0
   -0.4150   25.7480  -24.0560 C   0  0  0  0  0  0  0  0  0  0  0  0
   -0.2010   24.4750  -24.5920 C   0  0  0  0  0  0  0  0  0  0  0  0
   -0.8870   24.0750  -25.7440 C   0  0  0  0  0  0  0  0  0  0  0  0
   -3.9640   24.4260  -27.5570 C   0  0  0  0  0  0  0  0  0  0  0  0
   -4.5500   24.5390  -28.9680 C   0  0  0  0  0  0  0  0  0  0  0  0
   -5.8256   20.8642  -30.8016 H   0  0  0  0  0  0  0  0  0  0  0  0
   -5.2994   18.7168  -31.9445 H   0  0  0  0  0  0  0  0  0  0  0  0
   -5.4509   18.0020  -34.3846 H   0  0  0  0  0  0  0  0  0  0  0  0
   -4.3045   18.3081  -35.7424 H   0  0  0  0  0  0  0  0  0  0  0  0
   -4.4765   15.7853  -34.0207 H   0  0  0  0  0  0  0  0  0  0  0  0
   -4.9630   15.9745  -35.7617 H   0  0  0  0  0  0  0  0  0  0  0  0
   -2.5837   14.9432  -35.0040 H   0  0  0  0  0  0  0  0  0  0  0  0
   -2.8445   15.9240  -36.5270 H   0  0  0  0  0  0  0  0  0  0  0  0
   -0.8135   16.4034  -34.8363 H   0  0  0  0  0  0  0  0  0  0  0  0
   -1.6711   17.6995  -35.7755 H   0  0  0  0  0  0  0  0  0  0  0  0
   -2.1955   16.9121  -32.8711 H   0  0  0  0  0  0  0  0  0  0  0  0
   -1.3766   18.4077  -33.4579 H   0  0  0  0  0  0  0  0  0  0  0  0
   -2.0080   20.9720  -35.3450 H   0  0  0  0  0  0  0  0  0  0  0  0
   -0.6584   22.2014  -31.4647 H   0  0  0  0  0  0  0  0  0  0  0  0
   -0.6142   21.6549  -29.0282 H   0  0  0  0  0  0  0  0  0  0  0  0
   -0.0956   19.3283  -28.2766 H   0  0  0  0  0  0  0  0  0  0  0  0
    0.3782   17.5472  -29.9628 H   0  0  0  0  0  0  0  0  0  0  0  0
    0.3302   18.0882  -32.4008 H   0  0  0  0  0  0  0  0  0  0  0  0
   -2.6572   22.8164  -33.0068 H   0  0  0  0  0  0  0  0  0  0  0  0
   -2.4245   22.2718  -29.1800 H   0  0  0  0  0  0  0  0  0  0  0  0
   -1.9709   23.2092  -30.6604 H   0  0  0  0  0  0  0  0  0  0  0  0
   -0.7468   23.9150  -28.5615 H   0  0  0  0  0  0  0  0  0  0  0  0
   -1.6772   25.2299  -29.3792 H   0  0  0  0  0  0  0  0  0  0  0  0
   -2.7064   26.9212  -26.3032 H   0  0  0  0  0  0  0  0  0  0  0  0
   -1.4870   27.6220  -24.2438 H   0  0  0  0  0  0  0  0  0  0  0  0
    0.1262   26.0617  -23.1512 H   0  0  0  0  0  0  0  0  0  0  0  0
    0.5075   23.7869  -24.1076 H   0  0  0  0  0  0  0  0  0  0  0  0
   -0.7160   23.0712  -26.1602 H   0  0  0  0  0  0  0  0  0  0  0  0
   -4.2412   23.4501  -27.1318 H   0  0  0  0  0  0  0  0  0  0  0  0
   -4.3692   25.2475  -26.9479 H   0  0  0  0  0  0  0  0  0  0  0  0
   -5.6225   24.2972  -28.9323 H   0  0  0  0  0  0  0  0  0  0  0  0
   -4.3980   25.5669  -29.3288 H   0  0  0  0  0  0  0  0  0  0  0  0
  1  2  2  0
  2  3  1  0
  3  4  2  0
  4  5  1  0
  5  6  2  0
  6  7  1  0
  7  8  1  0
  8  9  1  0
  9 10  1  0
 10 11  1  0
 11 12  1  0
  6 13  1  0
 13 14  1  0
 14 15  1  0
 15 16  2  0
 15 17  2  0
 15 18  1  0
 18 19  2  0
 19 20  1  0
 20 21  2  0
 21 22  1  0
 22 23  2  0
 13 24  2  0
  2 25  1  0
 25 26  1  0
 26 27  1  0
 27 28  1  0
 28 29  1  0
 29 30  2  0
 30 31  1  0
 31 32  2  0
 32 33  1  0
 33 34  2  0
 28 35  1  0
 35 36  1  0
 24  3  1  0
 36 25  1  0
 12  7  1  0
 23 18  1  0
 34 29  1  0
  4 37  1  0
  5 38  1  0
  8 39  1  0
  8 40  1  0
  9 41  1  0
  9 42  1  0
 10 43  1  0
 10 44  1  0
 11 45  1  0
 11 46  1  0
 12 47  1  0
 12 48  1  0
 14 49  1  0
 19 50  1  0
 20 51  1  0
 21 52  1  0
 22 53  1  0
 23 54  1  0
 24 55  1  0
 26 56  1  0
 26 57  1  0
 27 58  1  0
 27 59  1  0
 30 60  1  0
 31 61  1  0
 32 62  1  0
 33 63  1  0
 34 64  1  0
 35 65  1  0
 35 66  1  0
 36 67  1  0
 36 68  1  0
M  END
>  <UniqueID>  (22) 
22

>  <SMILES>  (22) 
O=C(c1ccc(N2CCCCC2)c(NS(=O)(=O)c2ccccc2)c1)N1CCN(c2ccccc2)CC1

>  <Energy>  (22) 
91.18752690428242

>  <Genealogy>  (22) 
O=C(c1ccc(N2CCCCC2)c(NS(=O)(=O)c2ccccc2)c1)N1CCN(c2ccccc2)CC1 (3D coordinates assigned)
O=C(c1ccc(N2CCCCC2)c(NS(=O)(=O)c2ccccc2)c1)N1CCN(c2ccccc2)CC1 (nonaromatic ring conformer: 91.18752690428242 kcal/mol)

>  <smiles>  (22) 
O=C(c1ccc(N2CCCCC2)c(NS(=O)(=O)c2ccccc2)c1)N1CCN(c2ccccc2)CC1

>  <score_type>  (22) 
oracle

>  <origin>  (22) 
adgpu

>  <m_score__min__energy>  (22) 
-10.4

>  <m_primary>  (22) 
energy

$$$$
22:0
     RDKit          3D

 46 49  0  0  0  0  0  0  0  0999 V2000
   -6.8170   17.4410  -32.8710 C   0  0  0  0  0  0  0  0  0  0  0  0
   -6.7740   18.8180  -33.4640 C   0  0  0  0  0  0  0  0  0  0  0  0
   -6.1920   18.9810  -34.5690 O   0  0  0  0  0  0  0  0  0  0  0  0
   -7.3630   19.9330  -32.7700 N   0  0  0  0  0  0  0  0  0  0  0  0
   -8.8040   20.0830  -32.5380 C   0  0  0  0  0  0  0  0  0  0  0  0
   -8.9920   21.4240  -31.7920 C   0  0  0  0  0  0  0  0  0  0  0  0
   -7.6060   21.9430  -31.6640 C   0  0  0  0  0  0  0  0  0  0  0  0
   -7.2020   23.1460  -31.0860 C   0  0  0  0  0  0  0  0  0  0  0  0
   -5.8340   23.4630  -31.0680 C   0  0  0  0  0  0  0  0  0  0  0  0
   -5.3200   25.0020  -30.3840 S   0  0  0  0  0  0  0  0  0  0  0  0
   -5.8000   26.1110  -31.2760 O   0  0  0  0  0  0  0  0  0  0  0  0
   -5.8990   25.2120  -29.0130 O   0  0  0  0  0  0  0  0  0  0  0  0
   -3.5880   25.0460  -30.3060 N   0  0  0  0  0  0  0  0  0  0  0  0
   -2.7780   24.3350  -29.3590 C   0  0  0  0  0  0  0  0  0  0  0  0
   -3.1180   23.0460  -28.9080 C   0  0  0  0  0  0  0  0  0  0  0  0
   -2.3020   22.3730  -27.9860 C   0  0  0  0  0  0  0  0  0  0  0  0
   -1.1520   23.0090  -27.4770 C   0  0  0  0  0  0  0  0  0  0  0  0
   -0.8030   24.2840  -27.9460 C   0  0  0  0  0  0  0  0  0  0  0  0
   -1.6090   24.9420  -28.8780 C   0  0  0  0  0  0  0  0  0  0  0  0
   -1.2350   26.2000  -29.3400 O   0  0  0  0  0  0  0  0  0  0  0  0
   -0.2320   22.2900  -26.5170 C   0  0  0  0  0  0  0  0  0  0  0  0
   -0.9040   21.1880  -25.8120 N   0  0  0  0  0  0  0  0  0  0  0  0
   -1.5810   20.2940  -26.7620 C   0  0  0  0  0  0  0  0  0  0  0  0
   -2.7290   21.0190  -27.4730 C   0  0  0  0  0  0  0  0  0  0  0  0
   -4.9000   22.5670  -31.6250 C   0  0  0  0  0  0  0  0  0  0  0  0
   -5.3290   21.3620  -32.2100 C   0  0  0  0  0  0  0  0  0  0  0  0
   -6.7030   21.0730  -32.2200 C   0  0  0  0  0  0  0  0  0  0  0  0
   -6.8147   17.5142  -31.7734 H   0  0  0  0  0  0  0  0  0  0  0  0
   -7.7316   16.9275  -33.2023 H   0  0  0  0  0  0  0  0  0  0  0  0
   -5.9362   16.8714  -33.2023 H   0  0  0  0  0  0  0  0  0  0  0  0
   -9.3431   20.1028  -33.4966 H   0  0  0  0  0  0  0  0  0  0  0  0
   -9.2017   19.2422  -31.9507 H   0  0  0  0  0  0  0  0  0  0  0  0
   -9.6188   22.1146  -32.3753 H   0  0  0  0  0  0  0  0  0  0  0  0
   -9.4992   21.3092  -30.8227 H   0  0  0  0  0  0  0  0  0  0  0  0
   -7.9418   23.8346  -30.6518 H   0  0  0  0  0  0  0  0  0  0  0  0
   -4.0321   22.5615  -29.2818 H   0  0  0  0  0  0  0  0  0  0  0  0
    0.1125   24.7695  -27.5770 H   0  0  0  0  0  0  0  0  0  0  0  0
    0.6180   21.8807  -27.0826 H   0  0  0  0  0  0  0  0  0  0  0  0
    0.0982   23.0182  -25.7615 H   0  0  0  0  0  0  0  0  0  0  0  0
   -1.6150   21.5860  -25.1540 H   0  0  0  0  0  0  0  0  0  0  0  0
   -0.8541   19.9484  -27.5118 H   0  0  0  0  0  0  0  0  0  0  0  0
   -1.9956   19.4400  -26.2063 H   0  0  0  0  0  0  0  0  0  0  0  0
   -3.0660   20.4062  -28.3221 H   0  0  0  0  0  0  0  0  0  0  0  0
   -3.5419   21.1682  -26.7471 H   0  0  0  0  0  0  0  0  0  0  0  0
   -3.8278   22.8116  -31.6022 H   0  0  0  0  0  0  0  0  0  0  0  0
   -4.6040   20.6614  -32.6500 H   0  0  0  0  0  0  0  0  0  0  0  0
  1  2  1  0
  2  3  2  0
  2  4  1  0
  4  5  1  0
  5  6  1  0
  6  7  1  0
  7  8  2  0
  8  9  1  0
  9 10  1  0
 10 11  2  0
 10 12  2  0
 10 13  1  0
 13 14  1  0
 14 15  2  0
 15 16  1  0
 16 17  2  0
 17 18  1  0
 18 19  2  0
 19 20  1  0
 17 21  1  0
 21 22  1  0
 22 23  1  0
 23 24  1  0
  9 25  2  0
 25 26  1  0
 26 27  2  0
 27  4  1  0
 27  7  1  0
 19 14  1  0
 24 16  1  0
  1 28  1  0
  1 29  1  0
  1 30  1  0
  5 31  1  0
  5 32  1  0
  6 33  1  0
  6 34  1  0
  8 35  1  0
 15 36  1  0
 18 37  1  0
 21 38  1  0
 21 39  1  0
 22 40  1  0
 23 41  1  0
 23 42  1  0
 24 43  1  0
 24 44  1  0
 25 45  1  0
 26 46  1  0
M  CHG  2  13  -1  20  -1
M  END
>  <UniqueID>  (23) 
23

>  <SMILES>  (23) 
CC(=O)N1CCc2cc(S(=O)(=O)[N-]c3cc4c(cc3[O-])CNCC4)ccc21

>  <Energy>  (23) 
69.29375675980066

>  <Genealogy>  (23) 
CC(=O)N1CCc2cc(S(=O)(=O)[N-]c3cc4c(cc3[O-])CNCC4)ccc21 (protonated)
CC(=O)N1CCc2cc(S(=O)(=O)[N-]c3cc4c(cc3[O-])CNCC4)ccc21 (3D coordinates assigned)
CC(=O)N1CCc2cc(S(=O)(=O)[N-]c3cc4c(cc3[O-])CNCC4)ccc21 (nonaromatic ring conformer: 69.29375675980066 kcal/mol)

>  <smiles>  (23) 
CC(=O)N1CCc2cc(S(=O)(=O)Nc3cc4c(cc3O)CNCC4)ccc21

>  <score_type>  (23) 
oracle

>  <origin>  (23) 
adgpu

>  <m_score__min__energy>  (23) 
-14.84

>  <m_primary>  (23) 
energy

$$$$
23:0
     RDKit          3D

 44 46  0  0  0  0  0  0  0  0999 V2000
   -0.7849   20.2082  -25.7722 H   0  0  0  0  0  0  0  0  0  0  0  0
   -1.3290   20.7180  -26.5810 C   0  0  0  0  0  0  0  0  0  0  0  0
   -1.8450   19.8810  -27.6840 C   0  0  0  0  0  0  0  0  0  0  0  0
   -3.0470   19.5030  -27.6540 O   0  0  0  0  0  0  0  0  0  0  0  0
   -1.0320   19.5930  -28.8260 N   0  0  0  0  0  0  0  0  0  0  0  0
   -1.2020   20.0800  -30.1650 C   0  0  0  0  0  0  0  0  0  0  0  0
   -2.4810   20.5000  -30.5460 C   0  0  0  0  0  0  0  0  0  0  0  0
   -3.3229   20.3798  -29.8483 H   0  0  0  0  0  0  0  0  0  0  0  0
   -2.7020   21.0720  -31.8060 C   0  0  0  0  0  0  0  0  0  0  0  0
   -4.3070   21.6600  -32.2330 S   0  0  0  0  0  0  0  0  0  0  0  0
   -4.5430   21.3840  -33.6910 O   0  0  0  0  0  0  0  0  0  0  0  0
   -4.3790   23.1440  -31.9920 O   0  0  0  0  0  0  0  0  0  0  0  0
   -5.5170   20.8430  -31.2670 N   0  0  0  0  0  0  0  0  0  0  0  0
   -6.7730   21.6050  -31.2590 C   0  0  0  0  0  0  0  0  0  0  0  0
   -7.2639   21.5029  -30.2799 H   0  0  0  0  0  0  0  0  0  0  0  0
   -6.5712   22.6706  -31.4427 H   0  0  0  0  0  0  0  0  0  0  0  0
   -7.6780   21.0460  -32.3500 C   0  0  0  0  0  0  0  0  0  0  0  0
   -8.6920   20.8779  -31.9582 H   0  0  0  0  0  0  0  0  0  0  0  0
   -7.7700   21.7420  -33.1968 H   0  0  0  0  0  0  0  0  0  0  0  0
   -7.0500   19.7320  -32.7720 C   0  0  0  0  0  0  0  0  0  0  0  0
   -7.7657   18.9061  -32.6469 H   0  0  0  0  0  0  0  0  0  0  0  0
   -6.7548   19.7424  -33.8316 H   0  0  0  0  0  0  0  0  0  0  0  0
   -5.8520   19.5410  -31.8540 C   0  0  0  0  0  0  0  0  0  0  0  0
   -6.1031   18.8259  -31.0568 H   0  0  0  0  0  0  0  0  0  0  0  0
   -4.9959   19.1464  -32.4209 H   0  0  0  0  0  0  0  0  0  0  0  0
   -1.6370   21.1990  -32.7050 C   0  0  0  0  0  0  0  0  0  0  0  0
   -1.8124   21.6131  -33.7089 H   0  0  0  0  0  0  0  0  0  0  0  0
   -0.3520   20.8010  -32.3300 C   0  0  0  0  0  0  0  0  0  0  0  0
    0.4823   20.9051  -33.0393 H   0  0  0  0  0  0  0  0  0  0  0  0
   -0.1210   20.2700  -31.0550 C   0  0  0  0  0  0  0  0  0  0  0  0
    1.1860   19.9790  -30.6830 O   0  0  0  0  0  0  0  0  0  0  0  0
   -1.4700   22.0510  -26.4850 C   0  0  0  0  0  0  0  0  0  0  0  0
   -1.1399   22.5301  -25.5515 H   0  0  0  0  0  0  0  0  0  0  0  0
   -2.0340   22.9230  -27.5360 C   0  0  0  0  0  0  0  0  0  0  0  0
   -3.2610   22.5900  -28.1270 C   0  0  0  0  0  0  0  0  0  0  0  0
   -3.8030   21.6925  -27.7943 H   0  0  0  0  0  0  0  0  0  0  0  0
   -3.7990   23.3930  -29.1370 C   0  0  0  0  0  0  0  0  0  0  0  0
   -4.7548   23.1173  -29.6065 H   0  0  0  0  0  0  0  0  0  0  0  0
   -3.1250   24.5460  -29.5520 C   0  0  0  0  0  0  0  0  0  0  0  0
   -3.6640   25.3370  -30.5620 O   0  0  0  0  0  0  0  0  0  0  0  0
   -1.9170   24.9050  -28.9430 C   0  0  0  0  0  0  0  0  0  0  0  0
   -1.2470   26.0540  -29.3440 O   0  0  0  0  0  0  0  0  0  0  0  0
   -1.3800   24.1060  -27.9280 C   0  0  0  0  0  0  0  0  0  0  0  0
   -0.4431   24.4035  -27.4344 H   0  0  0  0  0  0  0  0  0  0  0  0
  1  2  1  0
  2  3  1  0
  3  4  2  0
  3  5  1  0
  5  6  1  0
  6  7  2  0
  7  8  1  0
  7  9  1  0
  9 10  1  0
 10 11  2  0
 10 12  2  0
 10 13  1  0
 13 14  1  0
 14 15  1  0
 14 16  1  0
 14 17  1  0
 17 18  1  0
 17 19  1  0
 17 20  1  0
 20 21  1  0
 20 22  1  0
 20 23  1  0
 23 24  1  0
 23 25  1  0
  9 26  2  0
 26 27  1  0
 26 28  1  0
 28 29  1  0
 28 30  2  0
 30 31  1  0
  2 32  2  0
 32 33  1  0
 32 34  1  0
 34 35  2  0
 35 36  1  0
 35 37  1  0
 37 38  1  0
 37 39  2  0
 39 40  1  0
 39 41  1  0
 41 42  1  0
 41 43  2  0
 43 44  1  0
 30  6  1  0
 43 34  1  0
 23 13  1  0
M  CHG  4   5  -1  31  -1  40  -1  42  -1
M  END
>  <UniqueID>  (24) 
24

>  <SMILES>  (24) 
O=C(/C=C\c1ccc([O-])c([O-])c1)[N-]c1cc(S(=O)(=O)N2CCCC2)ccc1[O-]

>  <Energy>  (24) 
58.06632504324454

>  <Genealogy>  (24) 
O=C(C=Cc1ccc([O-])c([O-])c1)[N-]c1cc(S(=O)(=O)N2CCCC2)ccc1[O-] (protonated)
O=C(/C=C\c1ccc([O-])c([O-])c1)[N-]c1cc(S(=O)(=O)N2CCCC2)ccc1[O-] (cis-trans isomerization)
O=C(/C=C\c1ccc([O-])c([O-])c1)[N-]c1cc(S(=O)(=O)N2CCCC2)ccc1[O-] (3D coordinates assigned)
O=C(/C=C\c1ccc([O-])c([O-])c1)[N-]c1cc(S(=O)(=O)N2CCCC2)ccc1[O-] (nonaromatic ring conformer: 58.06632504324454 kcal/mol)

>  <smiles>  (24) 
O=C(C=Cc1ccc(O)c(O)c1)Nc1cc(S(=O)(=O)N2CCCC2)ccc1O

>  <score_type>  (24) 
oracle

>  <origin>  (24) 
adgpu

>  <m_score__min__energy>  (24) 
-14.85

>  <m_primary>  (24) 
energy

$$$$
24:0
     RDKit          3D

 83 87  0  0  0  0  0  0  0  0999 V2000
   -2.1200   28.6720  -36.0800 C   0  0  0  0  0  0  0  0  0  0  0  0
   -1.0910   27.5700  -36.3610 C   0  0  0  0  0  0  0  0  0  0  0  0
   -0.3110   27.1950  -35.0780 C   0  0  0  0  0  0  0  0  0  0  0  0
    1.0980   26.6380  -35.3570 C   0  0  0  0  0  0  0  0  0  0  0  0
    1.1820   26.0320  -36.6940 N   0  0  0  0  0  0  0  0  0  0  0  0
    1.8770   24.7870  -36.8880 C   0  0  0  0  0  0  0  0  0  0  0  0
    2.7270   24.6920  -37.8160 O   0  0  0  0  0  0  0  0  0  0  0  0
    1.5790   23.6020  -36.0510 C   0  0  0  0  0  0  0  0  0  0  0  0
    2.6200   22.8760  -35.4460 C   0  0  0  0  0  0  0  0  0  0  0  0
    2.3370   21.7780  -34.6290 C   0  0  0  0  0  0  0  0  0  0  0  0
    1.0100   21.3800  -34.4040 C   0  0  0  0  0  0  0  0  0  0  0  0
    0.7520   20.2780  -33.5160 N   0  0  0  0  0  0  0  0  0  0  0  0
   -0.4430   19.4750  -33.5360 C   0  0  0  0  0  0  0  0  0  0  0  0
   -1.3050   19.6330  -34.4420 O   0  0  0  0  0  0  0  0  0  0  0  0
   -0.6630   18.4650  -32.5460 N   0  0  0  0  0  0  0  0  0  0  0  0
   -0.3410   18.6500  -31.1650 C   0  0  0  0  0  0  0  0  0  0  0  0
    0.3580   17.6590  -30.4720 C   0  0  0  0  0  0  0  0  0  0  0  0
    0.6110   17.8020  -29.0980 C   0  0  0  0  0  0  0  0  0  0  0  0
    1.2890   16.7650  -28.3600 N   0  0  0  0  0  0  0  0  0  0  0  0
    1.4960   15.4410  -28.9630 C   0  0  0  0  0  0  0  0  0  0  0  0
    1.3780   14.3160  -27.9120 C   0  0  0  0  0  0  0  0  0  0  0  0
    1.7520   14.7160  -26.5410 N   0  0  0  0  0  0  0  0  0  0  0  0
    2.6630   15.8650  -26.5110 C   0  0  0  0  0  0  0  0  0  0  0  0
    1.9770   17.0990  -27.1040 C   0  0  0  0  0  0  0  0  0  0  0  0
    0.1590   18.9650  -28.4550 C   0  0  0  0  0  0  0  0  0  0  0  0
   -0.5140   19.9180  -29.1520 N   0  0  0  0  0  0  0  0  0  0  0  0
   -0.7660   19.7970  -30.4850 C   0  0  0  0  0  0  0  0  0  0  0  0
   -1.4850   20.7810  -31.1790 O   0  0  0  0  0  0  0  0  0  0  0  0
   -2.0420   21.9420  -30.6210 C   0  0  0  0  0  0  0  0  0  0  0  0
   -1.2950   22.7100  -29.7060 C   0  0  0  0  0  0  0  0  0  0  0  0
   -1.8250   23.8680  -29.1450 C   0  0  0  0  0  0  0  0  0  0  0  0
   -3.1010   24.2880  -29.5020 C   0  0  0  0  0  0  0  0  0  0  0  0
   -3.8510   23.5580  -30.4250 C   0  0  0  0  0  0  0  0  0  0  0  0
   -3.3450   22.3710  -31.0170 C   0  0  0  0  0  0  0  0  0  0  0  0
   -4.1830   21.5630  -32.0460 C   0  0  0  0  0  0  0  0  0  0  0  0
   -3.5070   21.4700  -33.4400 C   0  0  0  0  0  0  0  0  0  0  0  0
   -5.5550   22.2400  -32.2600 C   0  0  0  0  0  0  0  0  0  0  0  0
   -4.3840   20.1110  -31.5480 C   0  0  0  0  0  0  0  0  0  0  0  0
   -0.0330   22.1230  -34.9840 C   0  0  0  0  0  0  0  0  0  0  0  0
    0.2500   23.2200  -35.8030 C   0  0  0  0  0  0  0  0  0  0  0  0
    0.7680   26.8050  -37.8750 C   0  0  0  0  0  0  0  0  0  0  0  0
   -0.1320   27.9870  -37.4900 C   0  0  0  0  0  0  0  0  0  0  0  0
   -2.2363   28.7966  -34.9933 H   0  0  0  0  0  0  0  0  0  0  0  0
   -1.7744   29.6179  -36.5226 H   0  0  0  0  0  0  0  0  0  0  0  0
   -3.0873   28.3919  -36.5226 H   0  0  0  0  0  0  0  0  0  0  0  0
   -1.6373   26.6754  -36.6946 H   0  0  0  0  0  0  0  0  0  0  0  0
   -0.2123   28.0959  -34.4546 H   0  0  0  0  0  0  0  0  0  0  0  0
   -0.8797   26.3996  -34.5741 H   0  0  0  0  0  0  0  0  0  0  0  0
    1.8268   27.4592  -35.2902 H   0  0  0  0  0  0  0  0  0  0  0  0
    1.3159   25.8599  -34.6107 H   0  0  0  0  0  0  0  0  0  0  0  0
    3.6649   23.1744  -35.6170 H   0  0  0  0  0  0  0  0  0  0  0  0
    3.1608   21.2213  -34.1585 H   0  0  0  0  0  0  0  0  0  0  0  0
    1.5300   19.9910  -32.8820 H   0  0  0  0  0  0  0  0  0  0  0  0
    0.7115   16.7636  -31.0042 H   0  0  0  0  0  0  0  0  0  0  0  0
    0.7380   15.2815  -29.7440 H   0  0  0  0  0  0  0  0  0  0  0  0
    2.5097   15.4104  -29.3891 H   0  0  0  0  0  0  0  0  0  0  0  0
    0.3342   13.9693  -27.8959 H   0  0  0  0  0  0  0  0  0  0  0  0
    2.0878   13.5315  -28.2131 H   0  0  0  0  0  0  0  0  0  0  0  0
    0.8840   14.9700  -26.0110 H   0  0  0  0  0  0  0  0  0  0  0  0
    2.9502   16.0740  -25.4699 H   0  0  0  0  0  0  0  0  0  0  0  0
    3.5571   15.6300  -27.1071 H   0  0  0  0  0  0  0  0  0  0  0  0
    1.2417   17.4839  -26.3821 H   0  0  0  0  0  0  0  0  0  0  0  0
    2.7433   17.8594  -27.3149 H   0  0  0  0  0  0  0  0  0  0  0  0
    0.3506   19.1058  -27.3810 H   0  0  0  0  0  0  0  0  0  0  0  0
   -0.2791   22.3899  -29.4313 H   0  0  0  0  0  0  0  0  0  0  0  0
   -1.2356   24.4495  -28.4208 H   0  0  0  0  0  0  0  0  0  0  0  0
   -3.5218   25.2006  -29.0546 H   0  0  0  0  0  0  0  0  0  0  0  0
   -4.8563   23.9100  -30.6999 H   0  0  0  0  0  0  0  0  0  0  0  0
   -2.4245   21.3211  -33.3134 H   0  0  0  0  0  0  0  0  0  0  0  0
   -3.9311   20.6217  -33.9973 H   0  0  0  0  0  0  0  0  0  0  0  0
   -3.6863   22.4013  -33.9973 H   0  0  0  0  0  0  0  0  0  0  0  0
   -6.0095   22.4643  -31.2837 H   0  0  0  0  0  0  0  0  0  0  0  0
   -5.4188   23.1743  -32.8243 H   0  0  0  0  0  0  0  0  0  0  0  0
   -6.2137   21.5635  -32.8243 H   0  0  0  0  0  0  0  0  0  0  0  0
   -4.3859   20.0976  -30.4481 H   0  0  0  0  0  0  0  0  0  0  0  0
   -5.3441   19.7250  -31.9210 H   0  0  0  0  0  0  0  0  0  0  0  0
   -3.5648   19.4787  -31.9210 H   0  0  0  0  0  0  0  0  0  0  0  0
   -1.0784   21.8394  -34.7922 H   0  0  0  0  0  0  0  0  0  0  0  0
   -0.5748   23.7888  -36.2571 H   0  0  0  0  0  0  0  0  0  0  0  0
    1.6651   27.1898  -38.3821 H   0  0  0  0  0  0  0  0  0  0  0  0
    0.1964   26.1394  -38.5386 H   0  0  0  0  0  0  0  0  0  0  0  0
    0.4931   28.8245  -37.1467 H   0  0  0  0  0  0  0  0  0  0  0  0
   -0.7188   28.2959  -38.3676 H   0  0  0  0  0  0  0  0  0  0  0  0
  1  2  1  0
  2  3  1  0
  3  4  1  0
  4  5  1  0
  5  6  1  0
  6  7  2  0
  6  8  1  0
  8  9  2  0
  9 10  1  0
 10 11  2  0
 11 12  1  0
 12 13  1  0
 13 14  2  0
 13 15  1  0
 15 16  1  0
 16 17  2  0
 17 18  1  0
 18 19  1  0
 19 20  1  0
 20 21  1  0
 21 22  1  0
 22 23  1  0
 23 24  1  0
 18 25  2  0
 25 26  1  0
 26 27  2  0
 27 28  1  0
 28 29  1  0
 29 30  2  0
 30 31  1  0
 31 32  2  0
 32 33  1  0
 33 34  2  0
 34 35  1  0
 35 36  1  0
 35 37  1  0
 35 38  1  0
 11 39  1  0
 39 40  2  0
  5 41  1  0
 41 42  1  0
 42  2  1  0
 40  8  1  0
 27 16  1  0
 34 29  1  0
 24 19  1  0
  1 43  1  0
  1 44  1  0
  1 45  1  0
  2 46  1  0
  3 47  1  0
  3 48  1  0
  4 49  1  0
  4 50  1  0
  9 51  1  0
 10 52  1  0
 12 53  1  0
 17 54  1  0
 20 55  1  0
 20 56  1  0
 21 57  1  0
 21 58  1  0
 22 59  1  0
 23 60  1  0
 23 61  1  0
 24 62  1  0
 24 63  1  0
 25 64  1  0
 30 65  1  0
 31 66  1  0
 32 67  1  0
 33 68  1  0
 36 69  1  0
 36 70  1  0
 36 71  1  0
 37 72  1  0
 37 73  1  0
 37 74  1  0
 38 75  1  0
 38 76  1  0
 38 77  1  0
 39 78  1  0
 40 79  1  0
 41 80  1  0
 41 81  1  0
 42 82  1  0
 42 83  1  0
M  CHG  1  15  -1
M  END
>  <UniqueID>  (25) 
25

>  <SMILES>  (25) 
CC1CCN(C(=O)c2ccc(NC(=O)[N-]c3cc(N4CCNCC4)cnc3Oc3ccccc3C(C)(C)C)cc2)CC1

>  <Energy>  (25) 
116.92275721403553

>  <Genealogy>  (25) 
CC1CCN(C(=O)c2ccc(NC(=O)[N-]c3cc(N4CCNCC4)cnc3Oc3ccccc3C(C)(C)C)cc2)CC1 (protonated)
CC1CCN(C(=O)c2ccc(NC(=O)[N-]c3cc(N4CCNCC4)cnc3Oc3ccccc3C(C)(C)C)cc2)CC1 (3D coordinates assigned)
CC1CCN(C(=O)c2ccc(NC(=O)[N-]c3cc(N4CCNCC4)cnc3Oc3ccccc3C(C)(C)C)cc2)CC1 (nonaromatic ring conformer: 116.92275721403553 kcal/mol)

>  <smiles>  (25) 
CC1CCN(C(=O)c2ccc(NC(=O)Nc3cc(N4CCNCC4)cnc3Oc3ccccc3C(C)(C)C)cc2)CC1

>  <score_type>  (25) 
oracle

>  <origin>  (25) 
adgpu

>  <m_score__min__energy>  (25) 
-12.4

>  <m_primary>  (25) 
energy

$$$$
25:0
     RDKit          3D

 61 64  0  0  0  0  0  0  0  0999 V2000
   -8.9640   18.1590  -31.7240 O   0  0  0  0  0  0  0  0  0  0  0  0
   -8.3360   19.0280  -32.3850 C   0  0  0  0  0  0  0  0  0  0  0  0
   -8.7130   20.4030  -32.2600 N   0  0  0  0  0  0  0  0  0  0  0  0
   -7.8960   21.4400  -31.7000 C   0  0  0  0  0  0  0  0  0  0  0  0
   -6.8010   21.9120  -32.4320 C   0  0  0  0  0  0  0  0  0  0  0  0
   -5.9910   22.9280  -31.9140 C   0  0  0  0  0  0  0  0  0  0  0  0
   -6.2810   23.4950  -30.6640 C   0  0  0  0  0  0  0  0  0  0  0  0
   -5.2480   24.7620  -29.9970 S   0  0  0  0  0  0  0  0  0  0  0  0
   -6.1140   25.8230  -29.3750 O   0  0  0  0  0  0  0  0  0  0  0  0
   -4.4610   25.3980  -31.1090 O   0  0  0  0  0  0  0  0  0  0  0  0
   -4.1510   24.1360  -28.7910 N   0  0  0  0  0  0  0  0  0  0  0  0
   -4.2480   22.6710  -28.7150 C   0  0  0  0  0  0  0  0  0  0  0  0
   -3.2820   22.1350  -27.6380 C   0  0  0  0  0  0  0  0  0  0  0  0
   -2.4520   23.1530  -27.1070 O   0  0  0  0  0  0  0  0  0  0  0  0
   -1.7750   23.8160  -28.1570 C   0  0  0  0  0  0  0  0  0  0  0  0
   -2.7660   24.5350  -29.0970 C   0  0  0  0  0  0  0  0  0  0  0  0
   -7.3970   23.0470  -29.9460 C   0  0  0  0  0  0  0  0  0  0  0  0
   -8.2050   22.0290  -30.4620 C   0  0  0  0  0  0  0  0  0  0  0  0
   -7.3250   18.6300  -33.3250 N   0  0  0  0  0  0  0  0  0  0  0  0
   -6.6210   17.3770  -33.2690 C   0  0  0  0  0  0  0  0  0  0  0  0
   -5.7340   17.1340  -32.2100 C   0  0  0  0  0  0  0  0  0  0  0  0
   -5.0570   15.9160  -32.1180 C   0  0  0  0  0  0  0  0  0  0  0  0
   -5.2750   14.9150  -33.0720 C   0  0  0  0  0  0  0  0  0  0  0  0
   -4.4010   13.3890  -32.9600 S   0  0  0  0  0  0  0  0  0  0  0  0
   -3.9080   13.2260  -31.5480 O   0  0  0  0  0  0  0  0  0  0  0  0
   -5.3300   12.2470  -33.2680 O   0  0  0  0  0  0  0  0  0  0  0  0
   -3.0330   13.3790  -34.0540 N   0  0  0  0  0  0  0  0  0  0  0  0
   -1.8790   14.1240  -33.5100 C   0  0  0  0  0  0  0  0  0  0  0  0
   -2.0740   15.6520  -33.5610 C   0  0  0  0  0  0  0  0  0  0  0  0
   -2.7660   16.1300  -34.8500 C   0  0  0  0  0  0  0  0  0  0  0  0
   -2.7500   15.0570  -35.9380 C   0  0  0  0  0  0  0  0  0  0  0  0
   -3.4240   13.7680  -35.4330 C   0  0  0  0  0  0  0  0  0  0  0  0
   -6.1740   15.1450  -34.1230 C   0  0  0  0  0  0  0  0  0  0  0  0
   -6.8480   16.3660  -34.2180 C   0  0  0  0  0  0  0  0  0  0  0  0
   -6.5761   21.4822  -33.4193 H   0  0  0  0  0  0  0  0  0  0  0  0
   -5.1233   23.2837  -32.4890 H   0  0  0  0  0  0  0  0  0  0  0  0
   -5.2783   22.3869  -28.4546 H   0  0  0  0  0  0  0  0  0  0  0  0
   -3.9780   22.2395  -29.6901 H   0  0  0  0  0  0  0  0  0  0  0  0
   -3.8722   21.6968  -26.8197 H   0  0  0  0  0  0  0  0  0  0  0  0
   -2.6328   21.3837  -28.1114 H   0  0  0  0  0  0  0  0  0  0  0  0
   -1.0862   24.5581  -27.7270 H   0  0  0  0  0  0  0  0  0  0  0  0
   -1.2229   23.0660  -28.7424 H   0  0  0  0  0  0  0  0  0  0  0  0
   -2.6653   25.6225  -28.9655 H   0  0  0  0  0  0  0  0  0  0  0  0
   -2.5369   24.2553  -30.1359 H   0  0  0  0  0  0  0  0  0  0  0  0
   -7.6389   23.4978  -28.9722 H   0  0  0  0  0  0  0  0  0  0  0  0
   -9.0852   21.6882  -29.8971 H   0  0  0  0  0  0  0  0  0  0  0  0
   -7.1400   19.2630  -34.1370 H   0  0  0  0  0  0  0  0  0  0  0  0
   -5.5704   17.9086  -31.4463 H   0  0  0  0  0  0  0  0  0  0  0  0
   -4.3501   15.7426  -31.2932 H   0  0  0  0  0  0  0  0  0  0  0  0
   -1.7298   13.8239  -32.4623 H   0  0  0  0  0  0  0  0  0  0  0  0
   -1.0058   13.8815  -34.1335 H   0  0  0  0  0  0  0  0  0  0  0  0
   -2.6886   15.9553  -32.7006 H   0  0  0  0  0  0  0  0  0  0  0  0
   -1.0747   16.1111  -33.5358 H   0  0  0  0  0  0  0  0  0  0  0  0
   -3.8105   16.3861  -34.6187 H   0  0  0  0  0  0  0  0  0  0  0  0
   -2.2167   17.0053  -35.2269 H   0  0  0  0  0  0  0  0  0  0  0  0
   -3.2926   15.4277  -36.8202 H   0  0  0  0  0  0  0  0  0  0  0  0
   -1.7059   14.8330  -36.2019 H   0  0  0  0  0  0  0  0  0  0  0  0
   -4.5137   13.9170  -35.4540 H   0  0  0  0  0  0  0  0  0  0  0  0
   -3.0931   12.9561  -36.0973 H   0  0  0  0  0  0  0  0  0  0  0  0
   -6.3496   14.3620  -34.8754 H   0  0  0  0  0  0  0  0  0  0  0  0
   -7.5594   16.5361  -35.0396 H   0  0  0  0  0  0  0  0  0  0  0  0
  1  2  2  0
  2  3  1  0
  3  4  1  0
  4  5  2  0
  5  6  1  0
  6  7  2  0
  7  8  1  0
  8  9  2  0
  8 10  2  0
  8 11  1  0
 11 12  1  0
 12 13  1  0
 13 14  1  0
 14 15  1  0
 15 16  1  0
  7 17  1  0
 17 18  2  0
  2 19  1  0
 19 20  1  0
 20 21  2  0
 21 22  1  0
 22 23  2  0
 23 24  1  0
 24 25  2  0
 24 26  2  0
 24 27  1  0
 27 28  1  0
 28 29  1  0
 29 30  1  0
 30 31  1  0
 31 32  1  0
 23 33  1  0
 33 34  2  0
 18  4  1  0
 34 20  1  0
 16 11  1  0
 32 27  1  0
  5 35  1  0
  6 36  1  0
 12 37  1  0
 12 38  1  0
 13 39  1  0
 13 40  1  0
 15 41  1  0
 15 42  1  0
 16 43  1  0
 16 44  1  0
 17 45  1  0
 18 46  1  0
 19 47  1  0
 21 48  1  0
 22 49  1  0
 28 50  1  0
 28 51  1  0
 29 52  1  0
 29 53  1  0
 30 54  1  0
 30 55  1  0
 31 56  1  0
 31 57  1  0
 32 58  1  0
 32 59  1  0
 33 60  1  0
 34 61  1  0
M  CHG  1   3  -1
M  END
>  <UniqueID>  (26) 
26

>  <SMILES>  (26) 
O=C([N-]c1ccc(S(=O)(=O)N2CCOCC2)cc1)Nc1ccc(S(=O)(=O)N2CCCCC2)cc1

>  <Energy>  (26) 
83.91096989523204

>  <Genealogy>  (26) 
O=C([N-]c1ccc(S(=O)(=O)N2CCOCC2)cc1)Nc1ccc(S(=O)(=O)N2CCCCC2)cc1 (protonated)
O=C([N-]c1ccc(S(=O)(=O)N2CCOCC2)cc1)Nc1ccc(S(=O)(=O)N2CCCCC2)cc1 (3D coordinates assigned)
O=C([N-]c1ccc(S(=O)(=O)N2CCOCC2)cc1)Nc1ccc(S(=O)(=O)N2CCCCC2)cc1 (nonaromatic ring conformer: 83.91096989523204 kcal/mol)

>  <smiles>  (26) 
O=C(Nc1ccc(S(=O)(=O)N2CCCCC2)cc1)Nc1ccc(S(=O)(=O)N2CCOCC2)cc1

>  <score_type>  (26) 
oracle

>  <origin>  (26) 
adgpu

>  <m_score__min__energy>  (26) 
-12.51

>  <m_primary>  (26) 
energy

$$$$
26:0
     RDKit          3D

 58 61  0  0  0  0  0  0  0  0999 V2000
   -2.9920   15.3560  -33.1430 C   0  0  0  0  0  0  0  0  0  0  0  0
   -4.2110   16.0540  -34.2400 S   0  0  0  0  0  0  0  0  0  0  0  0
   -3.5360   16.4320  -35.5280 O   0  0  0  0  0  0  0  0  0  0  0  0
   -5.2820   15.0320  -34.5230 O   0  0  0  0  0  0  0  0  0  0  0  0
   -4.9090   17.4750  -33.4930 N   0  0  0  0  0  0  0  0  0  0  0  0
   -6.1100   17.8940  -34.2240 C   0  0  0  0  0  0  0  0  0  0  0  0
   -6.8690   18.8960  -33.3620 C   0  0  0  0  0  0  0  0  0  0  0  0
   -5.9590   19.8680  -32.7270 N   0  0  0  0  0  0  0  0  0  0  0  0
   -6.5150   20.7850  -31.7550 C   0  0  0  0  0  0  0  0  0  0  0  0
   -7.5970   20.4870  -31.1620 O   0  0  0  0  0  0  0  0  0  0  0  0
   -5.8480   22.0630  -31.4060 C   0  0  0  0  0  0  0  0  0  0  0  0
   -6.5330   23.2870  -31.4840 C   0  0  0  0  0  0  0  0  0  0  0  0
   -5.8770   24.4840  -31.1770 C   0  0  0  0  0  0  0  0  0  0  0  0
   -4.5430   24.4680  -30.7560 C   0  0  0  0  0  0  0  0  0  0  0  0
   -3.9000   25.6730  -30.4660 O   0  0  0  0  0  0  0  0  0  0  0  0
   -3.8610   23.2470  -30.6160 C   0  0  0  0  0  0  0  0  0  0  0  0
   -2.5070   23.2590  -30.1450 N   0  0  0  0  0  0  0  0  0  0  0  0
   -1.5470   21.8530  -29.7850 S   0  0  0  0  0  0  0  0  0  0  0  0
   -2.3120   20.9900  -28.8200 O   0  0  0  0  0  0  0  0  0  0  0  0
   -0.2450   22.2430  -29.1300 O   0  0  0  0  0  0  0  0  0  0  0  0
   -1.2580   20.9400  -31.2710 C   0  0  0  0  0  0  0  0  0  0  0  0
   -1.3820   21.5600  -32.5280 C   0  0  0  0  0  0  0  0  0  0  0  0
   -1.2050   20.8180  -33.7010 C   0  0  0  0  0  0  0  0  0  0  0  0
   -0.8790   19.4570  -33.6280 C   0  0  0  0  0  0  0  0  0  0  0  0
   -0.7320   18.8360  -32.3750 C   0  0  0  0  0  0  0  0  0  0  0  0
   -0.9430   19.5740  -31.1990 C   0  0  0  0  0  0  0  0  0  0  0  0
   -0.4120   17.3630  -32.3330 C   0  0  0  0  0  0  0  0  0  0  0  0
    0.6650   16.9910  -33.3770 C   0  0  0  0  0  0  0  0  0  0  0  0
    0.5630   17.7520  -34.7310 C   0  0  0  0  0  0  0  0  0  0  0  0
   -0.6960   18.6250  -34.8680 C   0  0  0  0  0  0  0  0  0  0  0  0
   -4.5210   22.0480  -30.9500 C   0  0  0  0  0  0  0  0  0  0  0  0
   -4.5390   19.9450  -33.1250 C   0  0  0  0  0  0  0  0  0  0  0  0
   -3.9190   18.5680  -33.4700 C   0  0  0  0  0  0  0  0  0  0  0  0
   -3.2952   15.5296  -32.1000 H   0  0  0  0  0  0  0  0  0  0  0  0
   -2.9105   14.2744  -33.3260 H   0  0  0  0  0  0  0  0  0  0  0  0
   -2.0180   15.8332  -33.3260 H   0  0  0  0  0  0  0  0  0  0  0  0
   -5.8212   18.3651  -35.1752 H   0  0  0  0  0  0  0  0  0  0  0  0
   -6.7452   17.0226  -34.4409 H   0  0  0  0  0  0  0  0  0  0  0  0
   -7.5861   19.4395  -33.9947 H   0  0  0  0  0  0  0  0  0  0  0  0
   -7.3875   18.3409  -32.5664 H   0  0  0  0  0  0  0  0  0  0  0  0
   -7.5901   23.3044  -31.7879 H   0  0  0  0  0  0  0  0  0  0  0  0
   -6.4120   25.4409  -31.2670 H   0  0  0  0  0  0  0  0  0  0  0  0
   -1.6191   22.6324  -32.5888 H   0  0  0  0  0  0  0  0  0  0  0  0
   -1.3218   21.3033  -34.6812 H   0  0  0  0  0  0  0  0  0  0  0  0
   -0.8612   19.0805  -30.2193 H   0  0  0  0  0  0  0  0  0  0  0  0
   -0.0421   17.1054  -31.3296 H   0  0  0  0  0  0  0  0  0  0  0  0
   -1.3292   16.8023  -32.5662 H   0  0  0  0  0  0  0  0  0  0  0  0
    1.6515   17.2044  -32.9397 H   0  0  0  0  0  0  0  0  0  0  0  0
    0.5102   15.9274  -33.6110 H   0  0  0  0  0  0  0  0  0  0  0  0
    1.4457   18.4010  -34.8298 H   0  0  0  0  0  0  0  0  0  0  0  0
    0.5065   16.9881  -35.5205 H   0  0  0  0  0  0  0  0  0  0  0  0
   -0.5874   19.2877  -35.7392 H   0  0  0  0  0  0  0  0  0  0  0  0
   -1.5741   17.9761  -35.0018 H   0  0  0  0  0  0  0  0  0  0  0  0
   -3.9902   21.0895  -30.8523 H   0  0  0  0  0  0  0  0  0  0  0  0
   -4.4599   20.5940  -34.0096 H   0  0  0  0  0  0  0  0  0  0  0  0
   -3.9826   20.3440  -32.2641 H   0  0  0  0  0  0  0  0  0  0  0  0
   -3.4488   18.6349  -34.4622 H   0  0  0  0  0  0  0  0  0  0  0  0
   -3.1887   18.3314  -32.6821 H   0  0  0  0  0  0  0  0  0  0  0  0
  1  2  1  0
  2  3  2  0
  2  4  2  0
  2  5  1  0
  5  6  1  0
  6  7  1  0
  7  8  1  0
  8  9  1  0
  9 10  2  0
  9 11  1  0
 11 12  2  0
 12 13  1  0
 13 14  2  0
 14 15  1  0
 14 16  1  0
 16 17  1  0
 17 18  1  0
 18 19  2  0
 18 20  2  0
 18 21  1  0
 21 22  2  0
 22 23  1  0
 23 24  2  0
 24 25  1  0
 25 26  2  0
 25 27  1  0
 27 28  1  0
 28 29  1  0
 29 30  1  0
 16 31  2  0
  8 32  1  0
 32 33  1  0
 33  5  1  0
 31 11  1  0
 26 21  1  0
 30 24  1  0
  1 34  1  0
  1 35  1  0
  1 36  1  0
  6 37  1  0
  6 38  1  0
  7 39  1  0
  7 40  1  0
 12 41  1  0
 13 42  1  0
 22 43  1  0
 23 44  1  0
 26 45  1  0
 27 46  1  0
 27 47  1  0
 28 48  1  0
 28 49  1  0
 29 50  1  0
 29 51  1  0
 30 52  1  0
 30 53  1  0
 31 54  1  0
 32 55  1  0
 32 56  1  0
 33 57  1  0
 33 58  1  0
M  CHG  2  15  -1  17  -1
M  END
>  <UniqueID>  (27) 
27

>  <SMILES>  (27) 
CS(=O)(=O)N1CCN(C(=O)c2ccc([O-])c([N-]S(=O)(=O)c3ccc4c(c3)CCCC4)c2)CC1

>  <Energy>  (27) 
74.59098835864583

>  <Genealogy>  (27) 
CS(=O)(=O)N1CCN(C(=O)c2ccc([O-])c([N-]S(=O)(=O)c3ccc4c(c3)CCCC4)c2)CC1 (protonated)
CS(=O)(=O)N1CCN(C(=O)c2ccc([O-])c([N-]S(=O)(=O)c3ccc4c(c3)CCCC4)c2)CC1 (3D coordinates assigned)
CS(=O)(=O)N1CCN(C(=O)c2ccc([O-])c([N-]S(=O)(=O)c3ccc4c(c3)CCCC4)c2)CC1 (nonaromatic ring conformer: 74.59098835864583 kcal/mol)

>  <smiles>  (27) 
CS(=O)(=O)N1CCN(C(=O)c2ccc(O)c(NS(=O)(=O)c3ccc4c(c3)CCCC4)c2)CC1

>  <score_type>  (27) 
oracle

>  <origin>  (27) 
adgpu

>  <m_score__min__energy>  (27) 
-15.369999999999999

>  <m_primary>  (27) 
energy

$$$$
27:0
     RDKit          3D

 47 49  0  0  0  0  0  0  0  0999 V2000
   -9.0450   22.0750  -31.3670 C   0  0  0  0  0  0  0  0  0  0  0  0
   -7.8770   21.2590  -31.8570 C   0  0  0  0  0  0  0  0  0  0  0  0
   -8.1110   19.9550  -32.3210 C   0  0  0  0  0  0  0  0  0  0  0  0
   -7.0600   19.1580  -32.7800 C   0  0  0  0  0  0  0  0  0  0  0  0
   -7.3340   17.8660  -33.2150 O   0  0  0  0  0  0  0  0  0  0  0  0
   -5.7500   19.6600  -32.7880 C   0  0  0  0  0  0  0  0  0  0  0  0
   -4.3860   18.6760  -33.3300 S   0  0  0  0  0  0  0  0  0  0  0  0
   -4.4580   18.5200  -34.8240 O   0  0  0  0  0  0  0  0  0  0  0  0
   -4.4500   17.3050  -32.7110 O   0  0  0  0  0  0  0  0  0  0  0  0
   -2.8930   19.4750  -32.9050 N   0  0  0  0  0  0  0  0  0  0  0  0
   -2.6710   20.6630  -33.7270 C   0  0  0  0  0  0  0  0  0  0  0  0
   -1.7910   21.5930  -32.9080 C   0  0  0  0  0  0  0  0  0  0  0  0
   -1.9860   21.1570  -31.4640 C   0  0  0  0  0  0  0  0  0  0  0  0
   -2.9220   19.9580  -31.5250 C   0  0  0  0  0  0  0  0  0  0  0  0
   -5.5090   20.9600  -32.3280 C   0  0  0  0  0  0  0  0  0  0  0  0
   -6.5600   21.7780  -31.8860 C   0  0  0  0  0  0  0  0  0  0  0  0
   -6.1830   23.4230  -31.3380 S   0  0  0  0  0  0  0  0  0  0  0  0
   -6.8110   23.6380  -29.9900 O   0  0  0  0  0  0  0  0  0  0  0  0
   -6.7310   24.4380  -32.3020 O   0  0  0  0  0  0  0  0  0  0  0  0
   -4.4620   23.6470  -31.1910 N   0  0  0  0  0  0  0  0  0  0  0  0
   -4.1330   24.4930  -30.0420 C   0  0  0  0  0  0  0  0  0  0  0  0
   -3.1330   23.8070  -29.1460 C   0  0  0  0  0  0  0  0  0  0  0  0
   -3.4150   22.5340  -28.6190 C   0  0  0  0  0  0  0  0  0  0  0  0
   -2.4900   21.8920  -27.7900 C   0  0  0  0  0  0  0  0  0  0  0  0
   -1.2810   22.5160  -27.4750 C   0  0  0  0  0  0  0  0  0  0  0  0
   -0.9930   23.7830  -27.9880 C   0  0  0  0  0  0  0  0  0  0  0  0
   -1.9130   24.4320  -28.8190 C   0  0  0  0  0  0  0  0  0  0  0  0
   -1.6090   25.6950  -29.3160 O   0  0  0  0  0  0  0  0  0  0  0  0
   -9.0528   22.0804  -30.2670 H   0  0  0  0  0  0  0  0  0  0  0  0
   -8.9531   23.1064  -31.7381 H   0  0  0  0  0  0  0  0  0  0  0  0
   -9.9819   21.6339  -31.7381 H   0  0  0  0  0  0  0  0  0  0  0  0
   -9.1359   19.5555  -32.3231 H   0  0  0  0  0  0  0  0  0  0  0  0
   -2.1652   20.3880  -34.6643 H   0  0  0  0  0  0  0  0  0  0  0  0
   -3.6222   21.1466  -33.9942 H   0  0  0  0  0  0  0  0  0  0  0  0
   -0.7369   21.4868  -33.2041 H   0  0  0  0  0  0  0  0  0  0  0  0
   -2.0576   22.6496  -33.0582 H   0  0  0  0  0  0  0  0  0  0  0  0
   -1.0233   20.8709  -31.0153 H   0  0  0  0  0  0  0  0  0  0  0  0
   -2.3995   21.9669  -30.8451 H   0  0  0  0  0  0  0  0  0  0  0  0
   -2.5751   19.1704  -30.8399 H   0  0  0  0  0  0  0  0  0  0  0  0
   -3.9427   20.2358  -31.2234 H   0  0  0  0  0  0  0  0  0  0  0  0
   -4.4792   21.3465  -32.3128 H   0  0  0  0  0  0  0  0  0  0  0  0
   -3.7056   25.4406  -30.4016 H   0  0  0  0  0  0  0  0  0  0  0  0
   -5.0516   24.6832  -29.4675 H   0  0  0  0  0  0  0  0  0  0  0  0
   -4.3682   22.0408  -28.8602 H   0  0  0  0  0  0  0  0  0  0  0  0
   -2.7149   20.8941  -27.3854 H   0  0  0  0  0  0  0  0  0  0  0  0
   -0.5548   22.0094  -26.8223 H   0  0  0  0  0  0  0  0  0  0  0  0
   -0.0400   24.2721  -27.7379 H   0  0  0  0  0  0  0  0  0  0  0  0
  1  2  1  0
  2  3  2  0
  3  4  1  0
  4  5  1  0
  4  6  2  0
  6  7  1  0
  7  8  2  0
  7  9  2  0
  7 10  1  0
 10 11  1  0
 11 12  1  0
 12 13  1  0
 13 14  1  0
  6 15  1  0
 15 16  2  0
 16 17  1  0
 17 18  2  0
 17 19  2  0
 17 20  1  0
 20 21  1  0
 21 22  1  0
 22 23  2  0
 23 24  1  0
 24 25  2  0
 25 26  1  0
 26 27  2  0
 27 28  1  0
 16  2  1  0
 27 22  1  0
 14 10  1  0
  1 29  1  0
  1 30  1  0
  1 31  1  0
  3 32  1  0
 11 33  1  0
 11 34  1  0
 12 35  1  0
 12 36  1  0
 13 37  1  0
 13 38  1  0
 14 39  1  0
 14 40  1  0
 15 41  1  0
 21 42  1  0
 21 43  1  0
 23 44  1  0
 24 45  1  0
 25 46  1  0
 26 47  1  0
M  CHG  3   5  -1  20  -1  28  -1
M  END
>  <UniqueID>  (28) 
28

>  <SMILES>  (28) 
Cc1cc([O-])c(S(=O)(=O)N2CCCC2)cc1S(=O)(=O)[N-]Cc1ccccc1[O-]

>  <Energy>  (28) 
51.202821210071235

>  <Genealogy>  (28) 
Cc1cc([O-])c(S(=O)(=O)N2CCCC2)cc1S(=O)(=O)[N-]Cc1ccccc1[O-] (protonated)
Cc1cc([O-])c(S(=O)(=O)N2CCCC2)cc1S(=O)(=O)[N-]Cc1ccccc1[O-] (3D coordinates assigned)
Cc1cc([O-])c(S(=O)(=O)N2CCCC2)cc1S(=O)(=O)[N-]Cc1ccccc1[O-] (nonaromatic ring conformer: 51.202821210071235 kcal/mol)

>  <smiles>  (28) 
Cc1cc(O)c(S(=O)(=O)N2CCCC2)cc1S(=O)(=O)NCc1ccccc1O

>  <score_type>  (28) 
oracle

>  <origin>  (28) 
adgpu

>  <m_score__min__energy>  (28) 
-13.57

>  <m_primary>  (28) 
energy

$$$$
28:0
     RDKit          3D

 61 64  0  0  0  0  0  0  0  0999 V2000
   -4.9090   17.3800  -35.0090 C   0  0  0  0  0  0  0  0  0  0  0  0
   -4.0740   17.4280  -33.4370 S   0  0  0  0  0  0  0  0  0  0  0  0
   -4.9150   16.7650  -32.3820 O   0  0  0  0  0  0  0  0  0  0  0  0
   -2.7900   16.6580  -33.5720 O   0  0  0  0  0  0  0  0  0  0  0  0
   -3.7340   19.1060  -32.9760 C   0  0  0  0  0  0  0  0  0  0  0  0
   -4.8100   20.0050  -32.8790 C   0  0  0  0  0  0  0  0  0  0  0  0
   -4.6090   21.3400  -32.4950 C   0  0  0  0  0  0  0  0  0  0  0  0
   -5.7520   22.2770  -32.3900 C   0  0  0  0  0  0  0  0  0  0  0  0
   -5.5610   23.5130  -32.5520 O   0  0  0  0  0  0  0  0  0  0  0  0
   -7.0740   21.8040  -32.0800 N   0  0  0  0  0  0  0  0  0  0  0  0
   -7.7070   20.7930  -32.9340 C   0  0  0  0  0  0  0  0  0  0  0  0
   -8.7440   20.0170  -32.1170 C   0  0  0  0  0  0  0  0  0  0  0  0
   -9.6570   20.9030  -31.4970 O   0  0  0  0  0  0  0  0  0  0  0  0
   -8.9790   21.7060  -30.5460 C   0  0  0  0  0  0  0  0  0  0  0  0
   -7.9490   22.6120  -31.2290 C   0  0  0  0  0  0  0  0  0  0  0  0
   -3.3140   21.7680  -32.1780 C   0  0  0  0  0  0  0  0  0  0  0  0
   -2.2380   20.8870  -32.2650 C   0  0  0  0  0  0  0  0  0  0  0  0
   -2.4250   19.5500  -32.6630 C   0  0  0  0  0  0  0  0  0  0  0  0
   -1.2940   18.6650  -32.7730 N   0  0  0  0  0  0  0  0  0  0  0  0
    0.2520   18.9980  -32.0570 S   0  0  0  0  0  0  0  0  0  0  0  0
    0.6740   20.3960  -32.4100 O   0  0  0  0  0  0  0  0  0  0  0  0
    1.2690   18.0370  -32.6070 O   0  0  0  0  0  0  0  0  0  0  0  0
    0.1320   18.8550  -30.3070 C   0  0  0  0  0  0  0  0  0  0  0  0
    0.9720   17.9640  -29.6280 C   0  0  0  0  0  0  0  0  0  0  0  0
    0.9010   17.8550  -28.2360 C   0  0  0  0  0  0  0  0  0  0  0  0
   -0.0040   18.6400  -27.5170 C   0  0  0  0  0  0  0  0  0  0  0  0
   -0.8430   19.5400  -28.1890 C   0  0  0  0  0  0  0  0  0  0  0  0
   -1.9960   20.5150  -27.2860 S   0  0  0  0  0  0  0  0  0  0  0  0
   -3.2230   19.7040  -26.9730 O   0  0  0  0  0  0  0  0  0  0  0  0
   -1.3840   20.9560  -25.9850 O   0  0  0  0  0  0  0  0  0  0  0  0
   -2.4360   21.9190  -28.2500 C   0  0  0  0  0  0  0  0  0  0  0  0
   -3.7800   22.1700  -28.5600 C   0  0  0  0  0  0  0  0  0  0  0  0
   -4.1300   23.3000  -29.3050 C   0  0  0  0  0  0  0  0  0  0  0  0
   -3.1400   24.1880  -29.7380 C   0  0  0  0  0  0  0  0  0  0  0  0
   -3.4880   25.3100  -30.4780 O   0  0  0  0  0  0  0  0  0  0  0  0
   -1.7990   23.9460  -29.4220 C   0  0  0  0  0  0  0  0  0  0  0  0
   -1.4470   22.8160  -28.6770 C   0  0  0  0  0  0  0  0  0  0  0  0
   -0.7820   19.6370  -29.5850 C   0  0  0  0  0  0  0  0  0  0  0  0
   -5.9950   17.3176  -34.8456 H   0  0  0  0  0  0  0  0  0  0  0  0
   -4.6755   18.2931  -35.5763 H   0  0  0  0  0  0  0  0  0  0  0  0
   -4.5724   16.4997  -35.5763 H   0  0  0  0  0  0  0  0  0  0  0  0
   -5.8278   19.6562  -33.1081 H   0  0  0  0  0  0  0  0  0  0  0  0
   -8.2028   21.2871  -33.7825 H   0  0  0  0  0  0  0  0  0  0  0  0
   -6.9419   20.0991  -33.3122 H   0  0  0  0  0  0  0  0  0  0  0  0
   -9.2957   19.3388  -32.7846 H   0  0  0  0  0  0  0  0  0  0  0  0
   -8.2224   19.4434  -31.3367 H   0  0  0  0  0  0  0  0  0  0  0  0
   -9.7119   22.3309  -30.0146 H   0  0  0  0  0  0  0  0  0  0  0  0
   -8.4530   21.0460  -29.8405 H   0  0  0  0  0  0  0  0  0  0  0  0
   -8.4701   23.3599  -31.8448 H   0  0  0  0  0  0  0  0  0  0  0  0
   -7.3457   23.1220  -30.4636 H   0  0  0  0  0  0  0  0  0  0  0  0
   -3.1450   22.8068  -31.8581 H   0  0  0  0  0  0  0  0  0  0  0  0
   -1.2264   21.2420  -32.0187 H   0  0  0  0  0  0  0  0  0  0  0  0
   -1.3780   17.7580  -33.2780 H   0  0  0  0  0  0  0  0  0  0  0  0
    1.6892   17.3486  -30.1909 H   0  0  0  0  0  0  0  0  0  0  0  0
    1.5586   17.1502  -27.7061 H   0  0  0  0  0  0  0  0  0  0  0  0
   -0.0583   18.5517  -26.4219 H   0  0  0  0  0  0  0  0  0  0  0  0
   -4.5611   21.4760  -28.2162 H   0  0  0  0  0  0  0  0  0  0  0  0
   -5.1850   23.4909  -29.5509 H   0  0  0  0  0  0  0  0  0  0  0  0
   -1.0202   24.6455  -29.7600 H   0  0  0  0  0  0  0  0  0  0  0  0
   -0.3922   22.6308  -28.4257 H   0  0  0  0  0  0  0  0  0  0  0  0
   -1.4525   20.3282  -30.1166 H   0  0  0  0  0  0  0  0  0  0  0  0
  1  2  1  0
  2  3  2  0
  2  4  2  0
  2  5  1  0
  5  6  2  0
  6  7  1  0
  7  8  1  0
  8  9  2  0
  8 10  1  0
 10 11  1  0
 11 12  1  0
 12 13  1  0
 13 14  1  0
 14 15  1  0
  7 16  2  0
 16 17  1  0
 17 18  2  0
 18 19  1  0
 19 20  1  0
 20 21  2  0
 20 22  2  0
 20 23  1  0
 23 24  2  0
 24 25  1  0
 25 26  2  0
 26 27  1  0
 27 28  1  0
 28 29  2  0
 28 30  2  0
 28 31  1  0
 31 32  2  0
 32 33  1  0
 33 34  2  0
 34 35  1  0
 34 36  1  0
 36 37  2  0
 27 38  2  0
 18  5  1  0
 38 23  1  0
 15 10  1  0
 37 31  1  0
  1 39  1  0
  1 40  1  0
  1 41  1  0
  6 42  1  0
 11 43  1  0
 11 44  1  0
 12 45  1  0
 12 46  1  0
 14 47  1  0
 14 48  1  0
 15 49  1  0
 15 50  1  0
 16 51  1  0
 17 52  1  0
 19 53  1  0
 24 54  1  0
 25 55  1  0
 26 56  1  0
 32 57  1  0
 33 58  1  0
 36 59  1  0
 37 60  1  0
 38 61  1  0
M  CHG  1  35  -1
M  END
>  <UniqueID>  (29) 
29

>  <SMILES>  (29) 
CS(=O)(=O)c1cc(C(=O)N2CCOCC2)ccc1NS(=O)(=O)c1cccc(S(=O)(=O)c2ccc([O-])cc2)c1

>  <Energy>  (29) 
74.92167195524726

>  <Genealogy>  (29) 
CS(=O)(=O)c1cc(C(=O)N2CCOCC2)ccc1NS(=O)(=O)c1cccc(S(=O)(=O)c2ccc([O-])cc2)c1 (protonated)
CS(=O)(=O)c1cc(C(=O)N2CCOCC2)ccc1NS(=O)(=O)c1cccc(S(=O)(=O)c2ccc([O-])cc2)c1 (3D coordinates assigned)
CS(=O)(=O)c1cc(C(=O)N2CCOCC2)ccc1NS(=O)(=O)c1cccc(S(=O)(=O)c2ccc([O-])cc2)c1 (nonaromatic ring conformer: 74.92167195524726 kcal/mol)

>  <smiles>  (29) 
CS(=O)(=O)c1cc(C(=O)N2CCOCC2)ccc1NS(=O)(=O)c1cccc(S(=O)(=O)c2ccc(O)cc2)c1

>  <score_type>  (29) 
oracle

>  <origin>  (29) 
adgpu

>  <m_score__min__energy>  (29) 
-14.15

>  <m_primary>  (29) 
energy

$$$$
29:0
     RDKit          3D

 58 61  0  0  0  0  0  0  0  0999 V2000
   -5.4290   26.2050  -30.2740 O   0  0  0  0  0  0  0  0  0  0  0  0
   -4.8730   25.0960  -30.4830 C   0  0  0  0  0  0  0  0  0  0  0  0
   -3.4440   25.0520  -30.6010 N   0  0  0  0  0  0  0  0  0  0  0  0
   -2.5700   24.3300  -29.7230 C   0  0  0  0  0  0  0  0  0  0  0  0
   -2.6260   22.9280  -29.6380 C   0  0  0  0  0  0  0  0  0  0  0  0
   -1.7610   22.2340  -28.7800 C   0  0  0  0  0  0  0  0  0  0  0  0
   -1.8450   20.4780  -28.6520 S   0  0  0  0  0  0  0  0  0  0  0  0
   -1.1260   20.0350  -27.4060 O   0  0  0  0  0  0  0  0  0  0  0  0
   -3.2930   20.0850  -28.5550 O   0  0  0  0  0  0  0  0  0  0  0  0
   -1.1250   19.7200  -30.0580 N   0  0  0  0  0  0  0  0  0  0  0  0
   -1.9810   19.8980  -31.2350 C   0  0  0  0  0  0  0  0  0  0  0  0
   -1.5260   21.1510  -31.9670 C   0  0  0  0  0  0  0  0  0  0  0  0
   -0.1360   21.4480  -31.4380 C   0  0  0  0  0  0  0  0  0  0  0  0
    0.1450   20.3710  -30.3980 C   0  0  0  0  0  0  0  0  0  0  0  0
   -0.8530   22.9490  -27.9880 C   0  0  0  0  0  0  0  0  0  0  0  0
   -0.8120   24.3450  -28.0510 C   0  0  0  0  0  0  0  0  0  0  0  0
   -1.6710   25.0350  -28.9110 C   0  0  0  0  0  0  0  0  0  0  0  0
   -1.6200   26.4240  -28.9640 O   0  0  0  0  0  0  0  0  0  0  0  0
   -5.7040   23.8810  -30.6710 C   0  0  0  0  0  0  0  0  0  0  0  0
   -5.1900   22.7880  -31.3910 C   0  0  0  0  0  0  0  0  0  0  0  0
   -5.9670   21.6410  -31.6030 C   0  0  0  0  0  0  0  0  0  0  0  0
   -5.3100   20.3000  -32.5380 S   0  0  0  0  0  0  0  0  0  0  0  0
   -4.2720   20.8450  -33.4810 O   0  0  0  0  0  0  0  0  0  0  0  0
   -4.6610   19.3170  -31.6030 O   0  0  0  0  0  0  0  0  0  0  0  0
   -6.5890   19.5100  -33.4380 N   0  0  0  0  0  0  0  0  0  0  0  0
   -7.3480   18.5530  -32.5940 C   0  0  0  0  0  0  0  0  0  0  0  0
   -7.2810   17.0940  -33.0750 C   0  0  0  0  0  0  0  0  0  0  0  0
   -5.8470   16.7200  -33.4470 C   0  0  0  0  0  0  0  0  0  0  0  0
   -5.2630   17.6660  -34.5130 C   0  0  0  0  0  0  0  0  0  0  0  0
   -6.0970   18.9460  -34.7110 C   0  0  0  0  0  0  0  0  0  0  0  0
   -7.2740   21.5890  -31.1060 C   0  0  0  0  0  0  0  0  0  0  0  0
   -7.7950   22.6690  -30.3890 C   0  0  0  0  0  0  0  0  0  0  0  0
   -7.0190   23.8110  -30.1690 C   0  0  0  0  0  0  0  0  0  0  0  0
   -7.5600   24.8640  -29.4380 O   0  0  0  0  0  0  0  0  0  0  0  0
   -3.3529   22.3719  -30.2483 H   0  0  0  0  0  0  0  0  0  0  0  0
   -1.8890   19.0251  -31.8980 H   0  0  0  0  0  0  0  0  0  0  0  0
   -3.0329   19.9971  -30.9289 H   0  0  0  0  0  0  0  0  0  0  0  0
   -1.4942   20.9721  -33.0519 H   0  0  0  0  0  0  0  0  0  0  0  0
   -2.2141   21.9929  -31.8007 H   0  0  0  0  0  0  0  0  0  0  0  0
    0.6030   21.3987  -32.2513 H   0  0  0  0  0  0  0  0  0  0  0  0
   -0.0719   22.4576  -31.0061 H   0  0  0  0  0  0  0  0  0  0  0  0
    0.8452   19.6293  -30.8098 H   0  0  0  0  0  0  0  0  0  0  0  0
    0.5952   20.8184  -29.4996 H   0  0  0  0  0  0  0  0  0  0  0  0
   -0.1702   22.4103  -27.3145 H   0  0  0  0  0  0  0  0  0  0  0  0
   -0.1018   24.9019  -27.4221 H   0  0  0  0  0  0  0  0  0  0  0  0
   -4.1668   22.8337  -31.7923 H   0  0  0  0  0  0  0  0  0  0  0  0
   -6.9425   18.5979  -31.5724 H   0  0  0  0  0  0  0  0  0  0  0  0
   -8.4045   18.8544  -32.6483 H   0  0  0  0  0  0  0  0  0  0  0  0
   -7.6312   16.4308  -32.2703 H   0  0  0  0  0  0  0  0  0  0  0  0
   -7.9203   16.9818  -33.9631 H   0  0  0  0  0  0  0  0  0  0  0  0
   -5.2206   16.7721  -32.5442 H   0  0  0  0  0  0  0  0  0  0  0  0
   -5.8583   15.7025  -33.8647 H   0  0  0  0  0  0  0  0  0  0  0  0
   -4.2471   17.9548  -34.2053 H   0  0  0  0  0  0  0  0  0  0  0  0
   -5.2664   17.1225  -35.4694 H   0  0  0  0  0  0  0  0  0  0  0  0
   -5.4709   19.6998  -35.2109 H   0  0  0  0  0  0  0  0  0  0  0  0
   -6.9754   18.6790  -35.3169 H   0  0  0  0  0  0  0  0  0  0  0  0
   -7.8924   20.6961  -31.2801 H   0  0  0  0  0  0  0  0  0  0  0  0
   -8.8211   22.6206  -29.9955 H   0  0  0  0  0  0  0  0  0  0  0  0
  1  2  2  0
  2  3  1  0
  3  4  1  0
  4  5  2  0
  5  6  1  0
  6  7  1  0
  7  8  2  0
  7  9  2  0
  7 10  1  0
 10 11  1  0
 11 12  1  0
 12 13  1  0
 13 14  1  0
  6 15  2  0
 15 16  1  0
 16 17  2  0
 17 18  1  0
  2 19  1  0
 19 20  2  0
 20 21  1  0
 21 22  1  0
 22 23  2  0
 22 24  2  0
 22 25  1  0
 25 26  1  0
 26 27  1  0
 27 28  1  0
 28 29  1  0
 29 30  1  0
 21 31  2  0
 31 32  1  0
 32 33  2  0
 33 34  1  0
 17  4  1  0
 33 19  1  0
 14 10  1  0
 30 25  1  0
  5 35  1  0
 11 36  1  0
 11 37  1  0
 12 38  1  0
 12 39  1  0
 13 40  1  0
 13 41  1  0
 14 42  1  0
 14 43  1  0
 15 44  1  0
 16 45  1  0
 20 46  1  0
 26 47  1  0
 26 48  1  0
 27 49  1  0
 27 50  1  0
 28 51  1  0
 28 52  1  0
 29 53  1  0
 29 54  1  0
 30 55  1  0
 30 56  1  0
 31 57  1  0
 32 58  1  0
M  CHG  3   3  -1  18  -1  34  -1
M  END
>  <UniqueID>  (30) 
30

>  <SMILES>  (30) 
O=C([N-]c1cc(S(=O)(=O)N2CCCC2)ccc1[O-])c1cc(S(=O)(=O)N2CCCCC2)ccc1[O-]

>  <Energy>  (30) 
71.18150665016792

>  <Genealogy>  (30) 
O=C([N-]c1cc(S(=O)(=O)N2CCCC2)ccc1[O-])c1cc(S(=O)(=O)N2CCCCC2)ccc1[O-] (protonated)
O=C([N-]c1cc(S(=O)(=O)N2CCCC2)ccc1[O-])c1cc(S(=O)(=O)N2CCCCC2)ccc1[O-] (3D coordinates assigned)
O=C([N-]c1cc(S(=O)(=O)N2CCCC2)ccc1[O-])c1cc(S(=O)(=O)N2CCCCC2)ccc1[O-] (nonaromatic ring conformer: 71.18150665016792 kcal/mol)

>  <smiles>  (30) 
O=C(Nc1cc(S(=O)(=O)N2CCCC2)ccc1O)c1cc(S(=O)(=O)N2CCCCC2)ccc1O

>  <score_type>  (30) 
oracle

>  <origin>  (30) 
adgpu

>  <m_score__min__energy>  (30) 
-14.59

>  <m_primary>  (30) 
energy

$$$$
30:0
     RDKit          3D

 75 80  0  0  0  0  0  0  0  0999 V2000
   -5.7180   16.0120  -33.6410 C   0  0  0  0  0  0  0  0  0  0  0  0
   -5.9940   17.4080  -33.2730 N   0  0  0  0  0  0  0  0  0  0  0  0
   -7.3020   17.5130  -32.6010 C   0  0  0  0  0  0  0  0  0  0  0  0
   -7.4200   18.8950  -31.9560 C   0  0  0  0  0  0  0  0  0  0  0  0
   -6.7760   19.9220  -32.7870 N   0  0  0  0  0  0  0  0  0  0  0  0
   -6.4120   21.1820  -32.1970 C   0  0  0  0  0  0  0  0  0  0  0  0
   -7.4130   21.9920  -31.6450 C   0  0  0  0  0  0  0  0  0  0  0  0
   -7.0990   23.2340  -31.0950 C   0  0  0  0  0  0  0  0  0  0  0  0
   -5.7780   23.6920  -31.1020 C   0  0  0  0  0  0  0  0  0  0  0  0
   -5.3680   25.2050  -30.3000 S   0  0  0  0  0  0  0  0  0  0  0  0
   -6.1200   25.3270  -29.0030 O   0  0  0  0  0  0  0  0  0  0  0  0
   -5.7410   26.3650  -31.1810 O   0  0  0  0  0  0  0  0  0  0  0  0
   -3.6660   25.2400  -29.9930 N   0  0  0  0  0  0  0  0  0  0  0  0
   -3.0260   24.1370  -29.3510 C   0  0  0  0  0  0  0  0  0  0  0  0
   -2.1700   23.3110  -30.0860 C   0  0  0  0  0  0  0  0  0  0  0  0
   -1.5230   22.2290  -29.4690 C   0  0  0  0  0  0  0  0  0  0  0  0
   -1.7110   21.9990  -28.0890 C   0  0  0  0  0  0  0  0  0  0  0  0
   -2.5810   22.8240  -27.3610 C   0  0  0  0  0  0  0  0  0  0  0  0
   -3.2380   23.8910  -27.9880 C   0  0  0  0  0  0  0  0  0  0  0  0
   -4.0970   24.7130  -27.2580 O   0  0  0  0  0  0  0  0  0  0  0  0
   -1.0730   20.8070  -27.4180 C   0  0  0  0  0  0  0  0  0  0  0  0
    0.1060   20.3340  -28.1570 N   0  0  0  0  0  0  0  0  0  0  0  0
   -0.2430   20.0680  -29.5560 C   0  0  0  0  0  0  0  0  0  0  0  0
   -0.5640   21.3840  -30.2700 C   0  0  0  0  0  0  0  0  0  0  0  0
   -4.7690   22.8930  -31.6550 C   0  0  0  0  0  0  0  0  0  0  0  0
   -5.0720   21.6320  -32.1890 C   0  0  0  0  0  0  0  0  0  0  0  0
   -3.9690   20.7730  -32.6600 C   0  0  0  0  0  0  0  0  0  0  0  0
   -2.9670   21.2940  -33.4850 C   0  0  0  0  0  0  0  0  0  0  0  0
   -1.9200   20.4810  -33.9210 C   0  0  0  0  0  0  0  0  0  0  0  0
   -1.8700   19.1300  -33.5200 C   0  0  0  0  0  0  0  0  0  0  0  0
   -0.7990   18.2410  -33.9380 N   0  0  0  0  0  0  0  0  0  0  0  0
   -1.1330   16.8240  -34.1600 C   0  0  0  0  0  0  0  0  0  0  0  0
    0.1070   15.9550  -34.3710 C   0  0  0  0  0  0  0  0  0  0  0  0
    1.0090   16.5820  -35.2540 O   0  0  0  0  0  0  0  0  0  0  0  0
    1.5560   17.7110  -34.6120 C   0  0  0  0  0  0  0  0  0  0  0  0
    0.4930   18.7920  -34.3930 C   0  0  0  0  0  0  0  0  0  0  0  0
   -2.8720   18.6500  -32.7240 N   0  0  0  0  0  0  0  0  0  0  0  0
   -3.9090   19.4210  -32.3010 C   0  0  0  0  0  0  0  0  0  0  0  0
   -6.5180   19.6840  -34.2140 C   0  0  0  0  0  0  0  0  0  0  0  0
   -5.9640   18.2660  -34.4770 C   0  0  0  0  0  0  0  0  0  0  0  0
   -5.5988   15.4090  -32.7287 H   0  0  0  0  0  0  0  0  0  0  0  0
   -6.5554   15.6169  -34.2348 H   0  0  0  0  0  0  0  0  0  0  0  0
   -4.7932   15.9653  -34.2348 H   0  0  0  0  0  0  0  0  0  0  0  0
   -8.1074   17.3800  -33.3384 H   0  0  0  0  0  0  0  0  0  0  0  0
   -7.3874   16.7338  -31.8293 H   0  0  0  0  0  0  0  0  0  0  0  0
   -8.4842   19.1457  -31.8351 H   0  0  0  0  0  0  0  0  0  0  0  0
   -6.9162   18.8692  -30.9785 H   0  0  0  0  0  0  0  0  0  0  0  0
   -8.4567   21.6447  -31.6456 H   0  0  0  0  0  0  0  0  0  0  0  0
   -7.8926   23.8553  -30.6544 H   0  0  0  0  0  0  0  0  0  0  0  0
   -2.0026   23.5105  -31.1547 H   0  0  0  0  0  0  0  0  0  0  0  0
   -2.7486   22.6321  -26.2909 H   0  0  0  0  0  0  0  0  0  0  0  0
   -4.5970   25.4800  -27.6960 H   0  0  0  0  0  0  0  0  0  0  0  0
   -0.7655   21.0925  -26.4012 H   0  0  0  0  0  0  0  0  0  0  0  0
   -1.8113   19.9920  -27.3922 H   0  0  0  0  0  0  0  0  0  0  0  0
    0.4070   19.4280  -27.7260 H   0  0  0  0  0  0  0  0  0  0  0  0
    0.6049   19.5781  -30.0571 H   0  0  0  0  0  0  0  0  0  0  0  0
   -1.1246   19.4111  -29.5917 H   0  0  0  0  0  0  0  0  0  0  0  0
    0.3694   21.9467  -30.4188 H   0  0  0  0  0  0  0  0  0  0  0  0
   -1.0366   21.1465  -31.2345 H   0  0  0  0  0  0  0  0  0  0  0  0
   -3.7312   23.2573  -31.6706 H   0  0  0  0  0  0  0  0  0  0  0  0
   -3.0044   22.3497  -33.7917 H   0  0  0  0  0  0  0  0  0  0  0  0
   -1.1369   20.8923  -34.5748 H   0  0  0  0  0  0  0  0  0  0  0  0
   -1.6809   16.4494  -33.2828 H   0  0  0  0  0  0  0  0  0  0  0  0
   -1.7420   16.7640  -35.0741 H   0  0  0  0  0  0  0  0  0  0  0  0
    0.6032   15.7924  -33.4029 H   0  0  0  0  0  0  0  0  0  0  0  0
   -0.2040   14.9937  -34.8060 H   0  0  0  0  0  0  0  0  0  0  0  0
    1.9646   17.4067  -33.6371 H   0  0  0  0  0  0  0  0  0  0  0  0
    2.3486   18.1260  -35.2519 H   0  0  0  0  0  0  0  0  0  0  0  0
    0.8609   19.4978  -33.6337 H   0  0  0  0  0  0  0  0  0  0  0  0
    0.3197   19.2864  -35.3602 H   0  0  0  0  0  0  0  0  0  0  0  0
   -4.7012   18.9824  -31.6765 H   0  0  0  0  0  0  0  0  0  0  0  0
   -7.4596   19.8054  -34.7695 H   0  0  0  0  0  0  0  0  0  0  0  0
   -5.7613   20.4098  -34.5466 H   0  0  0  0  0  0  0  0  0  0  0  0
   -6.5707   17.7914  -35.2623 H   0  0  0  0  0  0  0  0  0  0  0  0
   -4.9127   18.3720  -34.7827 H   0  0  0  0  0  0  0  0  0  0  0  0
  1  2  1  0
  2  3  1  0
  3  4  1  0
  4  5  1  0
  5  6  1  0
  6  7  2  0
  7  8  1  0
  8  9  2  0
  9 10  1  0
 10 11  2  0
 10 12  2  0
 10 13  1  0
 13 14  1  0
 14 15  2  0
 15 16  1  0
 16 17  2  0
 17 18  1  0
 18 19  2  0
 19 20  1  0
 17 21  1  0
 21 22  1  0
 22 23  1  0
 23 24  1  0
  9 25  1  0
 25 26  2  0
 26 27  1  0
 27 28  2  0
 28 29  1  0
 29 30  2  0
 30 31  1  0
 31 32  1  0
 32 33  1  0
 33 34  1  0
 34 35  1  0
 35 36  1  0
 30 37  1  0
 37 38  2  0
  5 39  1  0
 39 40  1  0
 40  2  1  0
 26  6  1  0
 38 27  1  0
 19 14  1  0
 36 31  1  0
 24 16  1  0
  1 41  1  0
  1 42  1  0
  1 43  1  0
  3 44  1  0
  3 45  1  0
  4 46  1  0
  4 47  1  0
  7 48  1  0
  8 49  1  0
 15 50  1  0
 18 51  1  0
 20 52  1  0
 21 53  1  0
 21 54  1  0
 22 55  1  0
 23 56  1  0
 23 57  1  0
 24 58  1  0
 24 59  1  0
 25 60  1  0
 28 61  1  0
 29 62  1  0
 32 63  1  0
 32 64  1  0
 33 65  1  0
 33 66  1  0
 35 67  1  0
 35 68  1  0
 36 69  1  0
 36 70  1  0
 38 71  1  0
 39 72  1  0
 39 73  1  0
 40 74  1  0
 40 75  1  0
M  CHG  1  13  -1
M  END
>  <UniqueID>  (31) 
31

>  <SMILES>  (31) 
CN1CCN(c2ccc(S(=O)(=O)[N-]c3cc4c(cc3O)CNCC4)cc2-c2ccc(N3CCOCC3)nc2)CC1

>  <Energy>  (31) 
111.22370359466491

>  <Genealogy>  (31) 
CN1CCN(c2ccc(S(=O)(=O)[N-]c3cc4c(cc3O)CNCC4)cc2-c2ccc(N3CCOCC3)nc2)CC1 (protonated)
CN1CCN(c2ccc(S(=O)(=O)[N-]c3cc4c(cc3O)CNCC4)cc2-c2ccc(N3CCOCC3)nc2)CC1 (3D coordinates assigned)
CN1CCN(c2ccc(S(=O)(=O)[N-]c3cc4c(cc3O)CNCC4)cc2-c2ccc(N3CCOCC3)nc2)CC1 (nonaromatic ring conformer: 111.22370359466491 kcal/mol)

>  <smiles>  (31) 
CN1CCN(c2ccc(S(=O)(=O)Nc3cc4c(cc3O)CNCC4)cc2-c2ccc(N3CCOCC3)nc2)CC1

>  <score_type>  (31) 
oracle

>  <origin>  (31) 
adgpu

>  <m_score__min__energy>  (31) 
-13.31

>  <m_primary>  (31) 
energy

$$$$
31:0
     RDKit          3D

 44 47  0  0  0  0  0  0  0  0999 V2000
   -0.5340   18.1410  -33.7510 C   0  0  0  0  0  0  0  0  0  0  0  0
   -1.2750   19.2400  -33.0680 C   0  0  0  0  0  0  0  0  0  0  0  0
   -1.3990   19.3300  -31.7210 N   0  0  0  0  0  0  0  0  0  0  0  0
   -2.1720   20.3910  -31.3770 C   0  0  0  0  0  0  0  0  0  0  0  0
   -2.4750   20.7510  -30.0630 C   0  0  0  0  0  0  0  0  0  0  0  0
   -3.2930   21.8720  -29.8410 C   0  0  0  0  0  0  0  0  0  0  0  0
   -3.8000   22.6210  -30.9300 C   0  0  0  0  0  0  0  0  0  0  0  0
   -4.8000   24.0420  -30.6400 S   0  0  0  0  0  0  0  0  0  0  0  0
   -3.9930   25.2950  -30.8390 O   0  0  0  0  0  0  0  0  0  0  0  0
   -5.2790   24.0130  -29.2160 O   0  0  0  0  0  0  0  0  0  0  0  0
   -6.1740   24.0840  -31.6950 N   0  0  0  0  0  0  0  0  0  0  0  0
   -7.0050   22.9450  -31.9360 C   0  0  0  0  0  0  0  0  0  0  0  0
   -8.3900   23.0030  -31.7390 C   0  0  0  0  0  0  0  0  0  0  0  0
   -9.1820   21.8800  -31.9800 C   0  0  0  0  0  0  0  0  0  0  0  0
   -8.6040   20.6800  -32.4200 C   0  0  0  0  0  0  0  0  0  0  0  0
   -9.4550   19.5560  -32.6900 N   0  0  0  0  0  0  0  0  0  0  0  0
   -7.2050   20.6140  -32.6230 C   0  0  0  0  0  0  0  0  0  0  0  0
   -6.5300   19.3460  -32.9870 C   0  0  0  0  0  0  0  0  0  0  0  0
   -5.6000   19.3380  -34.0430 C   0  0  0  0  0  0  0  0  0  0  0  0
   -4.9690   18.1480  -34.4220 C   0  0  0  0  0  0  0  0  0  0  0  0
   -5.2680   16.9550  -33.7580 C   0  0  0  0  0  0  0  0  0  0  0  0
   -6.2020   16.9480  -32.7180 C   0  0  0  0  0  0  0  0  0  0  0  0
   -6.8380   18.1380  -32.3270 C   0  0  0  0  0  0  0  0  0  0  0  0
   -7.7650   18.1260  -31.2840 O   0  0  0  0  0  0  0  0  0  0  0  0
   -6.4220   21.7600  -32.4010 C   0  0  0  0  0  0  0  0  0  0  0  0
   -3.4840   22.2460  -32.2500 C   0  0  0  0  0  0  0  0  0  0  0  0
   -2.6710   21.1300  -32.4400 C   0  0  0  0  0  0  0  0  0  0  0  0
   -2.1360   20.4550  -33.8800 S   0  0  0  0  0  0  0  0  0  0  0  0
   -0.0862   17.4769  -32.9971 H   0  0  0  0  0  0  0  0  0  0  0  0
   -1.2293   17.5656  -34.3799 H   0  0  0  0  0  0  0  0  0  0  0  0
    0.2601   18.5698  -34.3799 H   0  0  0  0  0  0  0  0  0  0  0  0
   -2.0810   20.1684  -29.2172 H   0  0  0  0  0  0  0  0  0  0  0  0
   -3.5415   22.1701  -28.8117 H   0  0  0  0  0  0  0  0  0  0  0  0
   -8.8555   23.9376  -31.3929 H   0  0  0  0  0  0  0  0  0  0  0  0
  -10.2694   21.9361  -31.8236 H   0  0  0  0  0  0  0  0  0  0  0  0
   -9.7080   18.8640  -31.9510 H   0  0  0  0  0  0  0  0  0  0  0  0
   -9.8040   19.3750  -33.6590 H   0  0  0  0  0  0  0  0  0  0  0  0
   -5.3676   20.2730  -34.5738 H   0  0  0  0  0  0  0  0  0  0  0  0
   -4.2371   18.1514  -35.2431 H   0  0  0  0  0  0  0  0  0  0  0  0
   -4.7680   16.0210  -34.0540 H   0  0  0  0  0  0  0  0  0  0  0  0
   -6.4403   16.0056  -32.2030 H   0  0  0  0  0  0  0  0  0  0  0  0
   -7.9800   18.9640  -30.7540 H   0  0  0  0  0  0  0  0  0  0  0  0
   -5.3397   21.7255  -32.5946 H   0  0  0  0  0  0  0  0  0  0  0  0
   -3.8682   22.8180  -33.1074 H   0  0  0  0  0  0  0  0  0  0  0  0
  1  2  1  0
  2  3  2  0
  3  4  1  0
  4  5  2  0
  5  6  1  0
  6  7  2  0
  7  8  1  0
  8  9  2  0
  8 10  2  0
  8 11  1  0
 11 12  1  0
 12 13  2  0
 13 14  1  0
 14 15  2  0
 15 16  1  0
 15 17  1  0
 17 18  1  0
 18 19  2  0
 19 20  1  0
 20 21  2  0
 21 22  1  0
 22 23  2  0
 23 24  1  0
 17 25  2  0
  7 26  1  0
 26 27  2  0
 27 28  1  0
 28  2  1  0
 27  4  1  0
 25 12  1  0
 23 18  1  0
  1 29  1  0
  1 30  1  0
  1 31  1  0
  5 32  1  0
  6 33  1  0
 13 34  1  0
 14 35  1  0
 16 36  1  0
 16 37  1  0
 19 38  1  0
 20 39  1  0
 21 40  1  0
 22 41  1  0
 24 42  1  0
 25 43  1  0
 26 44  1  0
M  CHG  1  11  -1
M  END
>  <UniqueID>  (32) 
32

>  <SMILES>  (32) 
Cc1nc2ccc(S(=O)(=O)[N-]c3ccc(N)c(-c4ccccc4O)c3)cc2s1

>  <Energy>  (32) 
96.9952260698966

>  <Genealogy>  (32) 
Cc1nc2ccc(S(=O)(=O)[N-]c3ccc(N)c(-c4ccccc4O)c3)cc2s1 (protonated)
Cc1nc2ccc(S(=O)(=O)[N-]c3ccc(N)c(-c4ccccc4O)c3)cc2s1 (3D coordinates assigned)
Cc1nc2ccc(S(=O)(=O)[N-]c3ccc(N)c(-c4ccccc4O)c3)cc2s1 (optimized conformer: 96.9952260698966 kcal/mol)

>  <smiles>  (32) 
Cc1nc2ccc(S(=O)(=O)Nc3ccc(N)c(-c4ccccc4O)c3)cc2s1

>  <score_type>  (32) 
oracle

>  <origin>  (32) 
adgpu

>  <m_score__min__energy>  (32) 
-10.73

>  <m_primary>  (32) 
energy

$$$$
32:0
     RDKit          3D

 54 56  0  0  0  0  0  0  0  0999 V2000
    1.0240   25.1020  -36.3960 C   0  0  0  0  0  0  0  0  0  0  0  0
    1.3000   23.8110  -36.9280 O   0  0  0  0  0  0  0  0  0  0  0  0
    1.2900   22.6250  -36.1770 C   0  0  0  0  0  0  0  0  0  0  0  0
    0.2570   22.3190  -35.2740 C   0  0  0  0  0  0  0  0  0  0  0  0
    0.2860   21.1260  -34.5340 C   0  0  0  0  0  0  0  0  0  0  0  0
   -0.8110   20.8140  -33.5510 C   0  0  0  0  0  0  0  0  0  0  0  0
   -0.3100   20.8190  -32.1790 N   0  0  0  0  0  0  0  0  0  0  0  0
   -1.0300   21.3450  -31.0590 C   0  0  0  0  0  0  0  0  0  0  0  0
   -2.0380   20.7390  -30.6040 O   0  0  0  0  0  0  0  0  0  0  0  0
   -0.5990   22.6450  -30.4430 C   0  0  0  0  0  0  0  0  0  0  0  0
   -1.2630   22.9060  -29.0780 C   0  0  0  0  0  0  0  0  0  0  0  0
   -2.0570   24.2230  -29.0100 C   0  0  0  0  0  0  0  0  0  0  0  0
   -3.3020   24.2000  -29.8450 C   0  0  0  0  0  0  0  0  0  0  0  0
   -4.1390   23.1200  -30.0350 C   0  0  0  0  0  0  0  0  0  0  0  0
   -5.1670   23.6250  -30.8090 C   0  0  0  0  0  0  0  0  0  0  0  0
   -6.4030   22.9180  -31.2250 C   0  0  0  0  0  0  0  0  0  0  0  0
   -7.5870   23.6450  -31.4340 C   0  0  0  0  0  0  0  0  0  0  0  0
   -8.7630   22.9930  -31.8080 C   0  0  0  0  0  0  0  0  0  0  0  0
   -8.7800   21.6070  -31.9740 C   0  0  0  0  0  0  0  0  0  0  0  0
   -9.9610   20.9800  -32.3550 O   0  0  0  0  0  0  0  0  0  0  0  0
   -7.6110   20.8580  -31.7550 C   0  0  0  0  0  0  0  0  0  0  0  0
   -7.6090   19.3700  -31.9580 C   0  0  0  0  0  0  0  0  0  0  0  0
   -6.4250   21.5200  -31.3930 C   0  0  0  0  0  0  0  0  0  0  0  0
   -4.9240   24.9250  -31.0770 N   0  0  0  0  0  0  0  0  0  0  0  0
   -3.7900   25.2740  -30.4910 N   0  0  0  0  0  0  0  0  0  0  0  0
    1.3550   20.2360  -34.7010 C   0  0  0  0  0  0  0  0  0  0  0  0
    2.3950   20.5290  -35.6040 C   0  0  0  0  0  0  0  0  0  0  0  0
    3.4850   19.6660  -35.7960 O   0  0  0  0  0  0  0  0  0  0  0  0
    4.8230   19.9610  -35.4090 C   0  0  0  0  0  0  0  0  0  0  0  0
    2.3510   21.7230  -36.3370 C   0  0  0  0  0  0  0  0  0  0  0  0
    3.3760   22.0200  -37.2290 O   0  0  0  0  0  0  0  0  0  0  0  0
    1.0339   25.0555  -35.2970 H   0  0  0  0  0  0  0  0  0  0  0  0
    1.7907   25.8119  -36.7399 H   0  0  0  0  0  0  0  0  0  0  0  0
    0.0341   25.4363  -36.7399 H   0  0  0  0  0  0  0  0  0  0  0  0
   -0.5810   23.0200  -35.1460 H   0  0  0  0  0  0  0  0  0  0  0  0
   -1.6035   21.5709  -33.6460 H   0  0  0  0  0  0  0  0  0  0  0  0
   -1.2030   19.8108  -33.7743 H   0  0  0  0  0  0  0  0  0  0  0  0
    0.4921   22.6243  -30.3052 H   0  0  0  0  0  0  0  0  0  0  0  0
   -0.9084   23.4529  -31.1224 H   0  0  0  0  0  0  0  0  0  0  0  0
   -1.9516   22.0754  -28.8638 H   0  0  0  0  0  0  0  0  0  0  0  0
   -0.4518   22.9847  -28.3392 H   0  0  0  0  0  0  0  0  0  0  0  0
   -2.3403   24.4079  -27.9633 H   0  0  0  0  0  0  0  0  0  0  0  0
   -1.4093   25.0187  -29.4067 H   0  0  0  0  0  0  0  0  0  0  0  0
   -4.0166   22.0940  -29.6577 H   0  0  0  0  0  0  0  0  0  0  0  0
   -7.5871   24.7370  -31.3018 H   0  0  0  0  0  0  0  0  0  0  0  0
   -9.6819   23.5747  -31.9729 H   0  0  0  0  0  0  0  0  0  0  0  0
   -7.6083   18.8665  -30.9800 H   0  0  0  0  0  0  0  0  0  0  0  0
   -8.5068   19.0756  -32.5214 H   0  0  0  0  0  0  0  0  0  0  0  0
   -6.7105   19.0780  -32.5214 H   0  0  0  0  0  0  0  0  0  0  0  0
   -5.5035   20.9394  -31.2392 H   0  0  0  0  0  0  0  0  0  0  0  0
    1.3821   19.3010  -34.1222 H   0  0  0  0  0  0  0  0  0  0  0  0
    4.8923   19.9763  -34.3113 H   0  0  0  0  0  0  0  0  0  0  0  0
    5.4986   19.1902  -35.8084 H   0  0  0  0  0  0  0  0  0  0  0  0
    5.1119   20.9444  -35.8084 H   0  0  0  0  0  0  0  0  0  0  0  0
  1  2  1  0
  2  3  1  0
  3  4  2  0
  4  5  1  0
  5  6  1  0
  6  7  1  0
  7  8  1  0
  8  9  2  0
  8 10  1  0
 10 11  1  0
 11 12  1  0
 12 13  1  0
 13 14  2  0
 14 15  1  0
 15 16  1  0
 16 17  2  0
 17 18  1  0
 18 19  2  0
 19 20  1  0
 19 21  1  0
 21 22  1  0
 21 23  2  0
 15 24  2  0
 24 25  1  0
  5 26  2  0
 26 27  1  0
 27 28  1  0
 28 29  1  0
 27 30  2  0
 30 31  1  0
 30  3  1  0
 25 13  1  0
 23 16  1  0
  1 32  1  0
  1 33  1  0
  1 34  1  0
  4 35  1  0
  6 36  1  0
  6 37  1  0
 10 38  1  0
 10 39  1  0
 11 40  1  0
 11 41  1  0
 12 42  1  0
 12 43  1  0
 14 44  1  0
 17 45  1  0
 18 46  1  0
 22 47  1  0
 22 48  1  0
 22 49  1  0
 23 50  1  0
 26 51  1  0
 29 52  1  0
 29 53  1  0
 29 54  1  0
M  CHG  4   7  -1  20  -1  25  -1  31  -1
M  END
>  <UniqueID>  (33) 
33

>  <SMILES>  (33) 
COc1cc(C[N-]C(=O)CCCc2cc(-c3ccc([O-])c(C)c3)n[n-]2)cc(OC)c1[O-]

>  <Energy>  (33) 
74.79261899466826

>  <Genealogy>  (33) 
COc1cc(C[N-]C(=O)CCCc2cc(-c3ccc([O-])c(C)c3)n[n-]2)cc(OC)c1[O-] (protonated)
COc1cc(C[N-]C(=O)CCCc2cc(-c3ccc([O-])c(C)c3)n[n-]2)cc(OC)c1[O-] (3D coordinates assigned)
COc1cc(C[N-]C(=O)CCCc2cc(-c3ccc([O-])c(C)c3)n[n-]2)cc(OC)c1[O-] (optimized conformer: 74.79261899466826 kcal/mol)

>  <smiles>  (33) 
COc1cc(CNC(=O)CCCc2cc(-c3ccc(O)c(C)c3)n[nH]2)cc(OC)c1O

>  <score_type>  (33) 
oracle

>  <origin>  (33) 
adgpu

>  <m_score__min__energy>  (33) 
-11.67

>  <m_primary>  (33) 
energy

$$$$
33:0
     RDKit          3D

 57 60  0  0  0  0  0  0  0  0999 V2000
   -9.7380   20.9660  -31.9430 N   0  0  0  0  0  0  0  0  0  0  0  0
   -8.6260   21.2870  -31.9270 C   0  0  0  0  0  0  0  0  0  0  0  0
   -7.2410   21.6900  -31.9010 C   0  0  0  0  0  0  0  0  0  0  0  0
   -6.9090   22.8680  -31.2160 C   0  0  0  0  0  0  0  0  0  0  0  0
   -5.5740   23.2760  -31.1060 C   0  0  0  0  0  0  0  0  0  0  0  0
   -5.1490   24.7400  -30.2250 S   0  0  0  0  0  0  0  0  0  0  0  0
   -6.2210   25.7850  -30.3660 O   0  0  0  0  0  0  0  0  0  0  0  0
   -3.8650   25.2860  -30.7830 O   0  0  0  0  0  0  0  0  0  0  0  0
   -4.9340   24.3680  -28.5450 N   0  0  0  0  0  0  0  0  0  0  0  0
   -3.7370   23.7750  -28.0220 C   0  0  0  0  0  0  0  0  0  0  0  0
   -2.7150   24.4890  -27.3720 C   0  0  0  0  0  0  0  0  0  0  0  0
   -1.6630   23.6870  -26.9560 C   0  0  0  0  0  0  0  0  0  0  0  0
   -2.0050   22.1020  -27.3980 S   0  0  0  0  0  0  0  0  0  0  0  0
   -3.4890   22.4100  -28.1200 C   0  0  0  0  0  0  0  0  0  0  0  0
   -4.5650   22.4970  -31.6770 C   0  0  0  0  0  0  0  0  0  0  0  0
   -4.8860   21.3250  -32.3630 C   0  0  0  0  0  0  0  0  0  0  0  0
   -6.2220   20.9160  -32.5050 C   0  0  0  0  0  0  0  0  0  0  0  0
   -6.5630   19.4190  -33.4010 S   0  0  0  0  0  0  0  0  0  0  0  0
   -6.4940   19.6600  -34.8830 O   0  0  0  0  0  0  0  0  0  0  0  0
   -7.9430   18.9470  -33.0440 O   0  0  0  0  0  0  0  0  0  0  0  0
   -5.3690   18.1340  -33.0030 C   0  0  0  0  0  0  0  0  0  0  0  0
   -4.3400   17.9640  -34.1460 C   0  0  0  0  0  0  0  0  0  0  0  0
   -3.7730   16.5370  -34.2190 C   0  0  0  0  0  0  0  0  0  0  0  0
   -3.7170   15.9340  -32.8720 N   0  0  0  0  0  0  0  0  0  0  0  0
   -2.8200   14.7480  -32.8240 C   0  0  0  0  0  0  0  0  0  0  0  0
   -1.3800   15.1190  -32.4190 C   0  0  0  0  0  0  0  0  0  0  0  0
   -0.4660   13.8700  -32.4580 C   0  0  0  0  0  0  0  0  0  0  0  0
   -1.1760   12.6400  -32.4520 O   0  0  0  0  0  0  0  0  0  0  0  0
   -2.2060   12.6670  -31.4830 C   0  0  0  0  0  0  0  0  0  0  0  0
   -3.3510   13.5850  -31.9420 C   0  0  0  0  0  0  0  0  0  0  0  0
   -5.0680   15.7230  -32.2880 C   0  0  0  0  0  0  0  0  0  0  0  0
   -6.0820   16.8050  -32.7130 C   0  0  0  0  0  0  0  0  0  0  0  0
   -7.7043   23.4767  -30.7612 H   0  0  0  0  0  0  0  0  0  0  0  0
   -5.7030   24.6290  -27.8880 H   0  0  0  0  0  0  0  0  0  0  0  0
   -2.7468   25.5765  -27.2095 H   0  0  0  0  0  0  0  0  0  0  0  0
   -0.7607   24.0291  -26.4280 H   0  0  0  0  0  0  0  0  0  0  0  0
   -4.1485   21.6642  -28.5878 H   0  0  0  0  0  0  0  0  0  0  0  0
   -3.5140   22.8084  -31.5856 H   0  0  0  0  0  0  0  0  0  0  0  0
   -4.0820   20.7134  -32.7983 H   0  0  0  0  0  0  0  0  0  0  0  0
   -4.8251   18.4403  -32.0973 H   0  0  0  0  0  0  0  0  0  0  0  0
   -4.8322   18.1975  -35.1016 H   0  0  0  0  0  0  0  0  0  0  0  0
   -3.5016   18.6474  -33.9458 H   0  0  0  0  0  0  0  0  0  0  0  0
   -4.4190   15.9232  -34.8640 H   0  0  0  0  0  0  0  0  0  0  0  0
   -2.7547   16.5792  -34.6329 H   0  0  0  0  0  0  0  0  0  0  0  0
   -2.8065   14.3735  -33.8582 H   0  0  0  0  0  0  0  0  0  0  0  0
   -0.9908   15.8742  -33.1177 H   0  0  0  0  0  0  0  0  0  0  0  0
   -1.3909   15.5195  -31.3946 H   0  0  0  0  0  0  0  0  0  0  0  0
    0.1432   13.9144  -33.3729 H   0  0  0  0  0  0  0  0  0  0  0  0
    0.1454   13.8916  -31.5438 H   0  0  0  0  0  0  0  0  0  0  0  0
   -2.5943   11.6480  -31.3386 H   0  0  0  0  0  0  0  0  0  0  0  0
   -1.7964   13.0533  -30.5380 H   0  0  0  0  0  0  0  0  0  0  0  0
   -4.0731   12.9940  -32.5244 H   0  0  0  0  0  0  0  0  0  0  0  0
   -3.8309   14.0152  -31.0506 H   0  0  0  0  0  0  0  0  0  0  0  0
   -5.4430   14.7424  -32.6164 H   0  0  0  0  0  0  0  0  0  0  0  0
   -4.9666   15.7775  -31.1940 H   0  0  0  0  0  0  0  0  0  0  0  0
   -6.6068   16.4714  -33.6203 H   0  0  0  0  0  0  0  0  0  0  0  0
   -6.7982   16.9599  -31.8926 H   0  0  0  0  0  0  0  0  0  0  0  0
  1  2  3  0
  2  3  1  0
  3  4  2  0
  4  5  1  0
  5  6  1  0
  6  7  2  0
  6  8  2  0
  6  9  1  0
  9 10  1  0
 10 11  1  0
 11 12  2  0
 12 13  1  0
 13 14  1  0
  5 15  2  0
 15 16  1  0
 16 17  2  0
 17 18  1  0
 18 19  2  0
 18 20  2  0
 18 21  1  0
 21 22  1  0
 22 23  1  0
 23 24  1  0
 24 25  1  0
 25 26  1  0
 26 27  1  0
 27 28  1  0
 28 29  1  0
 29 30  1  0
 24 31  1  0
 31 32  1  0
 17  3  1  0
 32 21  1  0
 14 10  2  0
 30 25  1  0
  4 33  1  0
  9 34  1  0
 11 35  1  0
 12 36  1  0
 14 37  1  0
 15 38  1  0
 16 39  1  0
 21 40  1  0
 22 41  1  0
 22 42  1  0
 23 43  1  0
 23 44  1  0
 25 45  1  0
 26 46  1  0
 26 47  1  0
 27 48  1  0
 27 49  1  0
 29 50  1  0
 29 51  1  0
 30 52  1  0
 30 53  1  0
 31 54  1  0
 31 55  1  0
 32 56  1  0
 32 57  1  0
M  END
>  <UniqueID>  (34) 
34

>  <SMILES>  (34) 
N#Cc1cc(S(=O)(=O)Nc2ccsc2)ccc1S(=O)(=O)C1CCN(C2CCOCC2)CC1

>  <Energy>  (34) 
103.30780205180774

>  <Genealogy>  (34) 
N#Cc1cc(S(=O)(=O)Nc2ccsc2)ccc1S(=O)(=O)C1CCN(C2CCOCC2)CC1 (3D coordinates assigned)
N#Cc1cc(S(=O)(=O)Nc2ccsc2)ccc1S(=O)(=O)C1CCN(C2CCOCC2)CC1 (nonaromatic ring conformer: 103.30780205180774 kcal/mol)

>  <smiles>  (34) 
N#Cc1cc(S(=O)(=O)Nc2ccsc2)ccc1S(=O)(=O)C1CCN(C2CCOCC2)CC1

>  <score_type>  (34) 
oracle

>  <origin>  (34) 
adgpu

>  <m_score__min__energy>  (34) 
-10.699999999999999

>  <m_primary>  (34) 
energy

$$$$
34:0
     RDKit          3D

 46 48  0  0  0  0  0  0  0  0999 V2000
   -4.5910   15.2250  -34.6010 C   0  0  0  0  0  0  0  0  0  0  0  0
   -3.9510   15.8900  -33.4560 N   0  0  0  0  0  0  0  0  0  0  0  0
   -3.2390   17.1240  -33.8380 C   0  0  0  0  0  0  0  0  0  0  0  0
   -4.1930   18.2140  -34.3520 C   0  0  0  0  0  0  0  0  0  0  0  0
   -5.4110   18.3590  -33.4840 C   0  0  0  0  0  0  0  0  0  0  0  0
   -6.2280   19.4870  -33.6340 C   0  0  0  0  0  0  0  0  0  0  0  0
   -7.4100   19.6290  -32.8810 C   0  0  0  0  0  0  0  0  0  0  0  0
   -8.2440   20.7910  -33.0050 N   0  0  0  0  0  0  0  0  0  0  0  0
   -8.5370   21.9590  -31.7590 S   0  0  0  0  0  0  0  0  0  0  0  0
   -9.1170   21.2720  -30.5540 O   0  0  0  0  0  0  0  0  0  0  0  0
   -9.5300   22.9720  -32.2550 O   0  0  0  0  0  0  0  0  0  0  0  0
   -7.0350   22.7850  -31.3540 C   0  0  0  0  0  0  0  0  0  0  0  0
   -7.0770   23.9510  -30.5820 C   0  0  0  0  0  0  0  0  0  0  0  0
   -5.8980   24.6370  -30.2800 C   0  0  0  0  0  0  0  0  0  0  0  0
   -4.6660   24.1780  -30.7630 C   0  0  0  0  0  0  0  0  0  0  0  0
   -3.4920   24.9430  -30.4710 N   0  0  0  0  0  0  0  0  0  0  0  0
   -2.3330   24.5630  -29.2390 S   0  0  0  0  0  0  0  0  0  0  0  0
   -3.1630   24.0220  -27.7610 C   0  0  0  0  0  0  0  0  0  0  0  0
   -1.4780   25.7620  -28.9460 O   0  0  0  0  0  0  0  0  0  0  0  0
   -1.4520   23.4480  -29.7280 O   0  0  0  0  0  0  0  0  0  0  0  0
   -4.6220   22.9980  -31.5250 C   0  0  0  0  0  0  0  0  0  0  0  0
   -5.8000   22.3030  -31.8150 C   0  0  0  0  0  0  0  0  0  0  0  0
   -7.7750   18.6120  -31.9780 C   0  0  0  0  0  0  0  0  0  0  0  0
   -8.9320   18.7110  -31.2050 O   0  0  0  0  0  0  0  0  0  0  0  0
   -6.9690   17.4780  -31.8420 C   0  0  0  0  0  0  0  0  0  0  0  0
   -5.7950   17.3330  -32.5960 C   0  0  0  0  0  0  0  0  0  0  0  0
   -4.9050   16.1340  -32.3560 C   0  0  0  0  0  0  0  0  0  0  0  0
   -5.3105   14.4774  -34.2356 H   0  0  0  0  0  0  0  0  0  0  0  0
   -5.1177   15.9729  -35.2119 H   0  0  0  0  0  0  0  0  0  0  0  0
   -3.8235   14.7273  -35.2119 H   0  0  0  0  0  0  0  0  0  0  0  0
   -2.7029   17.5096  -32.9583 H   0  0  0  0  0  0  0  0  0  0  0  0
   -2.5452   16.8728  -34.6538 H   0  0  0  0  0  0  0  0  0  0  0  0
   -3.6561   19.1738  -34.3719 H   0  0  0  0  0  0  0  0  0  0  0  0
   -4.5286   17.9215  -35.3579 H   0  0  0  0  0  0  0  0  0  0  0  0
   -5.9427   20.2724  -34.3494 H   0  0  0  0  0  0  0  0  0  0  0  0
   -8.0414   24.3289  -30.2116 H   0  0  0  0  0  0  0  0  0  0  0  0
   -5.9375   25.5438  -29.6586 H   0  0  0  0  0  0  0  0  0  0  0  0
   -2.6124   24.3809  -26.8790 H   0  0  0  0  0  0  0  0  0  0  0  0
   -4.1853   24.4277  -27.7452 H   0  0  0  0  0  0  0  0  0  0  0  0
   -3.2044   22.9229  -27.7452 H   0  0  0  0  0  0  0  0  0  0  0  0
   -3.6574   22.6199  -31.8946 H   0  0  0  0  0  0  0  0  0  0  0  0
   -5.7588   21.3761  -32.4059 H   0  0  0  0  0  0  0  0  0  0  0  0
   -9.4590   19.5720  -31.1220 H   0  0  0  0  0  0  0  0  0  0  0  0
   -7.2595   16.6881  -31.1337 H   0  0  0  0  0  0  0  0  0  0  0  0
   -4.3357   16.3007  -31.4297 H   0  0  0  0  0  0  0  0  0  0  0  0
   -5.5571   15.2509  -32.2861 H   0  0  0  0  0  0  0  0  0  0  0  0
  1  2  1  0
  2  3  1  0
  3  4  1  0
  4  5  1  0
  5  6  2  0
  6  7  1  0
  7  8  1  0
  8  9  1  0
  9 10  2  0
  9 11  2  0
  9 12  1  0
 12 13  2  0
 13 14  1  0
 14 15  2  0
 15 16  1  0
 16 17  1  0
 17 18  1  0
 17 19  2  0
 17 20  2  0
 15 21  1  0
 21 22  2  0
  7 23  2  0
 23 24  1  0
 23 25  1  0
 25 26  2  0
 26 27  1  0
 27  2  1  0
 26  5  1  0
 22 12  1  0
  1 28  1  0
  1 29  1  0
  1 30  1  0
  3 31  1  0
  3 32  1  0
  4 33  1  0
  4 34  1  0
  6 35  1  0
 13 36  1  0
 14 37  1  0
 18 38  1  0
 18 39  1  0
 18 40  1  0
 21 41  1  0
 22 42  1  0
 24 43  1  0
 25 44  1  0
 27 45  1  0
 27 46  1  0
M  CHG  2   8  -1  16  -1
M  END
>  <UniqueID>  (35) 
35

>  <SMILES>  (35) 
CN1CCc2cc([N-]S(=O)(=O)c3ccc([N-]S(C)(=O)=O)cc3)c(O)cc2C1

>  <Energy>  (35) 
55.139220727820394

>  <Genealogy>  (35) 
CN1CCc2cc([N-]S(=O)(=O)c3ccc([N-]S(C)(=O)=O)cc3)c(O)cc2C1 (protonated)
CN1CCc2cc([N-]S(=O)(=O)c3ccc([N-]S(C)(=O)=O)cc3)c(O)cc2C1 (3D coordinates assigned)
CN1CCc2cc([N-]S(=O)(=O)c3ccc([N-]S(C)(=O)=O)cc3)c(O)cc2C1 (nonaromatic ring conformer: 55.139220727820394 kcal/mol)

>  <smiles>  (35) 
CN1CCc2cc(NS(=O)(=O)c3ccc(NS(C)(=O)=O)cc3)c(O)cc2C1

>  <score_type>  (35) 
oracle

>  <origin>  (35) 
adgpu

>  <m_score__min__energy>  (35) 
-11.07

>  <m_primary>  (35) 
energy

$$$$
35:0
     RDKit          3D

 36 39  0  0  0  0  0  0  0  0999 V2000
   -3.4370   25.2920  -30.4710 O   0  0  0  0  0  0  0  0  0  0  0  0
   -3.3880   23.9300  -30.2020 C   0  0  0  0  0  0  0  0  0  0  0  0
   -3.6310   23.4650  -28.9060 C   0  0  0  0  0  0  0  0  0  0  0  0
   -3.5790   22.0960  -28.6330 C   0  0  0  0  0  0  0  0  0  0  0  0
   -3.2790   21.1880  -29.6530 C   0  0  0  0  0  0  0  0  0  0  0  0
   -3.0260   21.6470  -30.9560 C   0  0  0  0  0  0  0  0  0  0  0  0
   -2.7420   20.6640  -32.0620 C   0  0  0  0  0  0  0  0  0  0  0  0
   -3.9950   19.9780  -32.5110 C   0  0  0  0  0  0  0  0  0  0  0  0
   -4.4290   19.9670  -33.7850 N   0  0  0  0  0  0  0  0  0  0  0  0
   -5.5700   19.2950  -33.7850 N   0  0  0  0  0  0  0  0  0  0  0  0
   -5.7860   18.9260  -32.5090 C   0  0  0  0  0  0  0  0  0  0  0  0
   -7.2150   18.0020  -31.9540 S   0  0  0  0  0  0  0  0  0  0  0  0
   -8.4000   19.3470  -32.2990 C   0  0  0  0  0  0  0  0  0  0  0  0
   -7.8340   20.6710  -31.8940 C   0  0  0  0  0  0  0  0  0  0  0  0
   -7.2170   21.5050  -32.7730 N   0  0  0  0  0  0  0  0  0  0  0  0
   -6.9300   22.5670  -32.0060 C   0  0  0  0  0  0  0  0  0  0  0  0
   -6.2900   23.7450  -32.3860 C   0  0  0  0  0  0  0  0  0  0  0  0
   -6.0990   24.7320  -31.4000 C   0  0  0  0  0  0  0  0  0  0  0  0
   -6.5520   24.5180  -30.0780 C   0  0  0  0  0  0  0  0  0  0  0  0
   -7.1980   23.3160  -29.7320 C   0  0  0  0  0  0  0  0  0  0  0  0
   -7.3660   22.3630  -30.7330 C   0  0  0  0  0  0  0  0  0  0  0  0
   -7.9520   21.1610  -30.6320 N   0  0  0  0  0  0  0  0  0  0  0  0
   -4.8260   19.3410  -31.7210 O   0  0  0  0  0  0  0  0  0  0  0  0
   -3.0930   23.0250  -31.2270 C   0  0  0  0  0  0  0  0  0  0  0  0
   -3.8633   24.1776  -28.1009 H   0  0  0  0  0  0  0  0  0  0  0  0
   -3.7744   21.7317  -27.6137 H   0  0  0  0  0  0  0  0  0  0  0  0
   -3.2410   20.1106  -29.4342 H   0  0  0  0  0  0  0  0  0  0  0  0
   -2.3014   21.2009  -32.9150 H   0  0  0  0  0  0  0  0  0  0  0  0
   -2.0451   19.9028  -31.6813 H   0  0  0  0  0  0  0  0  0  0  0  0
   -8.6223   19.3642  -33.3762 H   0  0  0  0  0  0  0  0  0  0  0  0
   -9.3181   19.1646  -31.7212 H   0  0  0  0  0  0  0  0  0  0  0  0
   -5.9462   23.8985  -33.4196 H   0  0  0  0  0  0  0  0  0  0  0  0
   -5.5947   25.6745  -31.6597 H   0  0  0  0  0  0  0  0  0  0  0  0
   -6.3988   25.2955  -29.3151 H   0  0  0  0  0  0  0  0  0  0  0  0
   -7.5570   23.1362  -28.7079 H   0  0  0  0  0  0  0  0  0  0  0  0
   -2.9129   23.3925  -32.2480 H   0  0  0  0  0  0  0  0  0  0  0  0
  1  2  1  0
  2  3  2  0
  3  4  1  0
  4  5  2  0
  5  6  1  0
  6  7  1  0
  7  8  1  0
  8  9  2  0
  9 10  1  0
 10 11  2  0
 11 12  1  0
 12 13  1  0
 13 14  1  0
 14 15  2  0
 15 16  1  0
 16 17  2  0
 17 18  1  0
 18 19  2  0
 19 20  1  0
 20 21  2  0
 21 22  1  0
 11 23  1  0
  6 24  2  0
 24  2  1  0
 23  8  1  0
 22 14  1  0
 21 16  1  0
  3 25  1  0
  4 26  1  0
  5 27  1  0
  7 28  1  0
  7 29  1  0
 13 30  1  0
 13 31  1  0
 17 32  1  0
 18 33  1  0
 19 34  1  0
 20 35  1  0
 24 36  1  0
M  CHG  2   1  -1  22  -1
M  END
>  <UniqueID>  (36) 
36

>  <SMILES>  (36) 
[O-]c1cccc(Cc2nnc(SCc3nc4ccccc4[n-]3)o2)c1

>  <Energy>  (36) 
100.90305730926008

>  <Genealogy>  (36) 
[O-]c1cccc(Cc2nnc(SCc3nc4ccccc4[n-]3)o2)c1 (protonated)
[O-]c1cccc(Cc2nnc(SCc3nc4ccccc4[n-]3)o2)c1 (3D coordinates assigned)
[O-]c1cccc(Cc2nnc(SCc3nc4ccccc4[n-]3)o2)c1 (optimized conformer: 100.90305730926008 kcal/mol)

>  <smiles>  (36) 
Oc1cccc(Cc2nnc(SCc3nc4ccccc4[nH]3)o2)c1

>  <score_type>  (36) 
oracle

>  <origin>  (36) 
adgpu

>  <m_score__min__energy>  (36) 
-11.619999999999999

>  <m_primary>  (36) 
energy

$$$$
36:0
     RDKit          3D

 31 33  0  0  0  0  0  0  0  0999 V2000
   -3.2470   20.8810  -31.7580 O   0  0  0  0  0  0  0  0  0  0  0  0
   -4.3580   21.6410  -32.4310 S   0  0  0  0  0  0  0  0  0  0  0  0
   -3.9300   21.9710  -33.8320 O   0  0  0  0  0  0  0  0  0  0  0  0
   -4.6660   23.1220  -31.5650 N   0  0  0  0  0  0  0  0  0  0  0  0
   -4.9800   22.8640  -30.1530 C   0  0  0  0  0  0  0  0  0  0  0  0
   -3.8230   23.2480  -29.2660 C   0  0  0  0  0  0  0  0  0  0  0  0
   -3.4350   22.4050  -28.2090 C   0  0  0  0  0  0  0  0  0  0  0  0
   -2.3940   22.7760  -27.3550 C   0  0  0  0  0  0  0  0  0  0  0  0
   -1.7210   23.9840  -27.5530 C   0  0  0  0  0  0  0  0  0  0  0  0
   -2.0840   24.8200  -28.6110 C   0  0  0  0  0  0  0  0  0  0  0  0
   -3.1280   24.4570  -29.4700 C   0  0  0  0  0  0  0  0  0  0  0  0
   -3.4750   25.3050  -30.5160 O   0  0  0  0  0  0  0  0  0  0  0  0
   -5.8190   20.6530  -32.5090 C   0  0  0  0  0  0  0  0  0  0  0  0
   -5.7310   19.2660  -32.7220 C   0  0  0  0  0  0  0  0  0  0  0  0
   -6.8860   18.4670  -32.7320 C   0  0  0  0  0  0  0  0  0  0  0  0
   -8.1490   19.0360  -32.5320 C   0  0  0  0  0  0  0  0  0  0  0  0
   -8.2510   20.4130  -32.3300 C   0  0  0  0  0  0  0  0  0  0  0  0
   -9.4390   21.0360  -32.1260 N   0  0  0  0  0  0  0  0  0  0  0  0
   -8.9210   22.5960  -31.9520 S   0  0  0  0  0  0  0  0  0  0  0  0
   -7.2760   22.5570  -32.1170 N   0  0  0  0  0  0  0  0  0  0  0  0
   -7.0850   21.2280  -32.3250 C   0  0  0  0  0  0  0  0  0  0  0  0
   -3.7780   23.6730  -31.5970 H   0  0  0  0  0  0  0  0  0  0  0  0
   -5.8640   23.4530  -29.8671 H   0  0  0  0  0  0  0  0  0  0  0  0
   -5.1776   21.7892  -30.0275 H   0  0  0  0  0  0  0  0  0  0  0  0
   -3.9545   21.4479  -28.0541 H   0  0  0  0  0  0  0  0  0  0  0  0
   -2.1034   22.1156  -26.5247 H   0  0  0  0  0  0  0  0  0  0  0  0
   -0.9052   24.2767  -26.8756 H   0  0  0  0  0  0  0  0  0  0  0  0
   -1.5477   25.7671  -28.7700 H   0  0  0  0  0  0  0  0  0  0  0  0
   -4.7468   18.8016  -32.8826 H   0  0  0  0  0  0  0  0  0  0  0  0
   -6.7971   17.3833  -32.8987 H   0  0  0  0  0  0  0  0  0  0  0  0
   -9.0503   18.4054  -32.5340 H   0  0  0  0  0  0  0  0  0  0  0  0
  1  2  2  0
  2  3  2  0
  2  4  1  0
  4  5  1  0
  5  6  1  0
  6  7  2  0
  7  8  1  0
  8  9  2  0
  9 10  1  0
 10 11  2  0
 11 12  1  0
  2 13  1  0
 13 14  2  0
 14 15  1  0
 15 16  2  0
 16 17  1  0
 17 18  2  0
 18 19  1  0
 19 20  1  0
 20 21  2  0
 11  6  1  0
 21 13  1  0
 21 17  1  0
  4 22  1  0
  5 23  1  0
  5 24  1  0
  7 25  1  0
  8 26  1  0
  9 27  1  0
 10 28  1  0
 14 29  1  0
 15 30  1  0
 16 31  1  0
M  CHG  1  12  -1
M  END
>  <UniqueID>  (37) 
37

>  <SMILES>  (37) 
O=S(=O)(NCc1ccccc1[O-])c1cccc2nsnc12

>  <Energy>  (37) 
66.57012969686802

>  <Genealogy>  (37) 
O=S(=O)(NCc1ccccc1[O-])c1cccc2nsnc12 (protonated)
O=S(=O)(NCc1ccccc1[O-])c1cccc2nsnc12 (3D coordinates assigned)
O=S(=O)(NCc1ccccc1[O-])c1cccc2nsnc12 (optimized conformer: 66.57012969686802 kcal/mol)

>  <smiles>  (37) 
O=S(=O)(NCc1ccccc1O)c1cccc2nsnc12

>  <score_type>  (37) 
oracle

>  <origin>  (37) 
adgpu

>  <m_score__min__energy>  (37) 
-12.119999999999999

>  <m_primary>  (37) 
energy

$$$$
37:0
     RDKit          3D

 48 52  0  0  0  0  0  0  0  0999 V2000
    2.4010   25.3770  -27.5950 C   0  0  0  0  0  0  0  0  0  0  0  0
    0.9220   25.3990  -27.3560 C   0  0  0  0  0  0  0  0  0  0  0  0
    0.1910   24.5010  -27.9620 N   0  0  0  0  0  0  0  0  0  0  0  0
   -1.2410   24.3680  -27.9200 C   0  0  0  0  0  0  0  0  0  0  0  0
   -1.9270   24.1200  -29.1150 C   0  0  0  0  0  0  0  0  0  0  0  0
   -3.3250   24.0150  -29.1270 C   0  0  0  0  0  0  0  0  0  0  0  0
   -4.1790   23.6990  -30.6400 S   0  0  0  0  0  0  0  0  0  0  0  0
   -3.2260   23.0840  -31.6280 O   0  0  0  0  0  0  0  0  0  0  0  0
   -4.6680   25.0000  -31.2150 O   0  0  0  0  0  0  0  0  0  0  0  0
   -5.5400   22.6280  -30.3960 N   0  0  0  0  0  0  0  0  0  0  0  0
   -5.4300   21.4060  -31.2320 C   0  0  0  0  0  0  0  0  0  0  0  0
   -6.3470   21.4370  -32.4620 C   0  0  0  0  0  0  0  0  0  0  0  0
   -7.8210   21.6010  -32.0520 C   0  0  0  0  0  0  0  0  0  0  0  0
   -7.9910   22.4170  -30.7580 C   0  0  0  0  0  0  0  0  0  0  0  0
   -6.8110   23.3690  -30.5470 C   0  0  0  0  0  0  0  0  0  0  0  0
   -4.0400   24.1610  -27.9310 C   0  0  0  0  0  0  0  0  0  0  0  0
   -3.3630   24.3740  -26.7290 C   0  0  0  0  0  0  0  0  0  0  0  0
   -1.9660   24.4530  -26.7140 C   0  0  0  0  0  0  0  0  0  0  0  0
   -1.1140   24.6330  -25.1520 S   0  0  0  0  0  0  0  0  0  0  0  0
   -0.6450   26.3030  -25.5810 C   0  0  0  0  0  0  0  0  0  0  0  0
   -1.2470   27.3840  -24.9100 C   0  0  0  0  0  0  0  0  0  0  0  0
   -0.8350   28.6680  -25.2480 C   0  0  0  0  0  0  0  0  0  0  0  0
    0.1100   28.8950  -26.1940 C   0  0  0  0  0  0  0  0  0  0  0  0
    0.7210   27.8570  -26.8910 C   0  0  0  0  0  0  0  0  0  0  0  0
    0.3280   26.5310  -26.5930 C   0  0  0  0  0  0  0  0  0  0  0  0
    0.3190   30.2550  -26.3190 O   0  0  0  0  0  0  0  0  0  0  0  0
   -0.5480   30.9240  -25.3930 C   0  0  0  0  0  0  0  0  0  0  0  0
   -1.2670   29.8740  -24.7310 O   0  0  0  0  0  0  0  0  0  0  0  0
    2.9283   25.3692  -26.6297 H   0  0  0  0  0  0  0  0  0  0  0  0
    2.6669   24.4748  -28.1654 H   0  0  0  0  0  0  0  0  0  0  0  0
    2.6936   26.2709  -28.1654 H   0  0  0  0  0  0  0  0  0  0  0  0
   -1.3639   24.0065  -30.0531 H   0  0  0  0  0  0  0  0  0  0  0  0
   -4.3889   21.3072  -31.5732 H   0  0  0  0  0  0  0  0  0  0  0  0
   -5.7410   20.5531  -30.6109 H   0  0  0  0  0  0  0  0  0  0  0  0
   -6.0571   22.2813  -33.1047 H   0  0  0  0  0  0  0  0  0  0  0  0
   -6.2390   20.4845  -33.0016 H   0  0  0  0  0  0  0  0  0  0  0  0
   -8.3571   22.1137  -32.8642 H   0  0  0  0  0  0  0  0  0  0  0  0
   -8.2278   20.5960  -31.8666 H   0  0  0  0  0  0  0  0  0  0  0  0
   -8.9189   23.0041  -30.8230 H   0  0  0  0  0  0  0  0  0  0  0  0
   -8.0331   21.7195  -29.9084 H   0  0  0  0  0  0  0  0  0  0  0  0
   -6.7330   24.0402  -31.4150 H   0  0  0  0  0  0  0  0  0  0  0  0
   -6.9892   23.9421  -29.6252 H   0  0  0  0  0  0  0  0  0  0  0  0
   -5.1387   24.1076  -27.9392 H   0  0  0  0  0  0  0  0  0  0  0  0
   -3.9288   24.4800  -25.7917 H   0  0  0  0  0  0  0  0  0  0  0  0
   -2.0182   27.2183  -24.1433 H   0  0  0  0  0  0  0  0  0  0  0  0
    1.4881   28.0618  -27.6524 H   0  0  0  0  0  0  0  0  0  0  0  0
    0.0378   31.5079  -24.6679 H   0  0  0  0  0  0  0  0  0  0  0  0
   -1.2224   31.6321  -25.8968 H   0  0  0  0  0  0  0  0  0  0  0  0
  1  2  1  0
  2  3  2  0
  3  4  1  0
  4  5  2  0
  5  6  1  0
  6  7  1  0
  7  8  2  0
  7  9  2  0
  7 10  1  0
 10 11  1  0
 11 12  1  0
 12 13  1  0
 13 14  1  0
 14 15  1  0
  6 16  2  0
 16 17  1  0
 17 18  2  0
 18 19  1  0
 19 20  1  0
 20 21  2  0
 21 22  1  0
 22 23  2  0
 23 24  1  0
 24 25  2  0
 23 26  1  0
 26 27  1  0
 27 28  1  0
 25  2  1  0
 18  4  1  0
 25 20  1  0
 15 10  1  0
 28 22  1  0
  1 29  1  0
  1 30  1  0
  1 31  1  0
  5 32  1  0
 11 33  1  0
 11 34  1  0
 12 35  1  0
 12 36  1  0
 13 37  1  0
 13 38  1  0
 14 39  1  0
 14 40  1  0
 15 41  1  0
 15 42  1  0
 16 43  1  0
 17 44  1  0
 21 45  1  0
 24 46  1  0
 27 47  1  0
 27 48  1  0
M  END
>  <UniqueID>  (38) 
38

>  <SMILES>  (38) 
CC1=Nc2cc(S(=O)(=O)N3CCCCC3)ccc2Sc2cc3c(cc21)OCO3

>  <Energy>  (38) 
97.63395413006678

>  <Genealogy>  (38) 
CC1=Nc2cc(S(=O)(=O)N3CCCCC3)ccc2Sc2cc3c(cc21)OCO3 (3D coordinates assigned)
CC1=Nc2cc(S(=O)(=O)N3CCCCC3)ccc2Sc2cc3c(cc21)OCO3 (nonaromatic ring conformer: 97.63395413006678 kcal/mol)

>  <smiles>  (38) 
CC1=Nc2cc(S(=O)(=O)N3CCCCC3)ccc2Sc2cc3c(cc21)OCO3

>  <score_type>  (38) 
oracle

>  <origin>  (38) 
adgpu

>  <m_score__min__energy>  (38) 
-9.3200000000000003

>  <m_primary>  (38) 
energy

$$$$
38:0
     RDKit          3D

 58 62  0  0  0  0  0  0  0  0999 V2000
   -0.6870   20.2410  -33.6590 C   0  0  0  0  0  0  0  0  0  0  0  0
   -1.5130   19.0590  -33.9530 N   0  0  0  0  0  0  0  0  0  0  0  0
   -1.9240   18.3620  -32.7090 C   0  0  0  0  0  0  0  0  0  0  0  0
   -1.0520   17.1310  -32.4080 C   0  0  0  0  0  0  0  0  0  0  0  0
   -1.0600   16.1570  -33.5260 N   0  0  0  0  0  0  0  0  0  0  0  0
   -1.7940   14.9020  -33.2520 C   0  0  0  0  0  0  0  0  0  0  0  0
   -3.2730   14.9700  -33.5780 C   0  0  0  0  0  0  0  0  0  0  0  0
   -3.8970   13.9150  -34.2600 C   0  0  0  0  0  0  0  0  0  0  0  0
   -5.2550   13.9770  -34.5710 C   0  0  0  0  0  0  0  0  0  0  0  0
   -6.0200   15.0890  -34.1940 C   0  0  0  0  0  0  0  0  0  0  0  0
   -7.3830   15.1260  -34.4910 O   0  0  0  0  0  0  0  0  0  0  0  0
   -5.4130   16.1520  -33.4960 C   0  0  0  0  0  0  0  0  0  0  0  0
   -6.1910   17.3470  -33.0890 C   0  0  0  0  0  0  0  0  0  0  0  0
   -7.5290   17.2120  -32.6320 C   0  0  0  0  0  0  0  0  0  0  0  0
   -8.2790   18.3420  -32.2590 C   0  0  0  0  0  0  0  0  0  0  0  0
   -7.6650   19.5870  -32.3570 C   0  0  0  0  0  0  0  0  0  0  0  0
   -8.1900   20.7860  -32.0680 N   0  0  0  0  0  0  0  0  0  0  0  0
   -7.1620   21.6300  -32.3490 C   0  0  0  0  0  0  0  0  0  0  0  0
   -7.2870   23.1150  -32.2370 C   0  0  0  0  0  0  0  0  0  0  0  0
   -6.0990   23.6760  -31.5070 C   0  0  0  0  0  0  0  0  0  0  0  0
   -6.1810   24.9280  -30.8750 C   0  0  0  0  0  0  0  0  0  0  0  0
   -5.0640   25.4650  -30.2270 C   0  0  0  0  0  0  0  0  0  0  0  0
   -3.8550   24.7620  -30.2150 C   0  0  0  0  0  0  0  0  0  0  0  0
   -2.7470   25.2970  -29.5710 O   0  0  0  0  0  0  0  0  0  0  0  0
   -3.7620   23.5210  -30.8530 C   0  0  0  0  0  0  0  0  0  0  0  0
   -4.8780   22.9810  -31.5030 C   0  0  0  0  0  0  0  0  0  0  0  0
   -6.0390   21.0210  -32.8120 N   0  0  0  0  0  0  0  0  0  0  0  0
   -6.3860   19.7260  -32.8000 C   0  0  0  0  0  0  0  0  0  0  0  0
   -5.6130   18.6340  -33.1800 C   0  0  0  0  0  0  0  0  0  0  0  0
   -4.0450   16.0740  -33.1770 C   0  0  0  0  0  0  0  0  0  0  0  0
   -1.3540   16.7450  -34.8530 C   0  0  0  0  0  0  0  0  0  0  0  0
   -0.8300   18.1820  -34.9340 C   0  0  0  0  0  0  0  0  0  0  0  0
   -0.5999   20.3657  -32.5696 H   0  0  0  0  0  0  0  0  0  0  0  0
    0.3143   20.1059  -34.0938 H   0  0  0  0  0  0  0  0  0  0  0  0
   -1.1581   21.1349  -34.0938 H   0  0  0  0  0  0  0  0  0  0  0  0
   -1.8435   19.0656  -31.8673 H   0  0  0  0  0  0  0  0  0  0  0  0
   -2.9581   18.0134  -32.8472 H   0  0  0  0  0  0  0  0  0  0  0  0
   -0.0178   17.4626  -32.2335 H   0  0  0  0  0  0  0  0  0  0  0  0
   -1.4653   16.6313  -31.5195 H   0  0  0  0  0  0  0  0  0  0  0  0
   -1.3435   14.0991  -33.8540 H   0  0  0  0  0  0  0  0  0  0  0  0
   -1.7142   14.7157  -32.1708 H   0  0  0  0  0  0  0  0  0  0  0  0
   -3.3103   13.0315  -34.5519 H   0  0  0  0  0  0  0  0  0  0  0  0
   -5.7290   13.1473  -35.1160 H   0  0  0  0  0  0  0  0  0  0  0  0
   -7.8820   14.2990  -34.7970 H   0  0  0  0  0  0  0  0  0  0  0  0
   -7.9839   16.2124  -32.5690 H   0  0  0  0  0  0  0  0  0  0  0  0
   -9.3150   18.2449  -31.9022 H   0  0  0  0  0  0  0  0  0  0  0  0
   -7.3362   23.5537  -33.2445 H   0  0  0  0  0  0  0  0  0  0  0  0
   -8.2029   23.3597  -31.6791 H   0  0  0  0  0  0  0  0  0  0  0  0
   -7.1276   25.4882  -30.8899 H   0  0  0  0  0  0  0  0  0  0  0  0
   -5.1364   26.4416  -29.7261 H   0  0  0  0  0  0  0  0  0  0  0  0
   -2.8108   22.9686  -30.8440 H   0  0  0  0  0  0  0  0  0  0  0  0
   -4.7987   22.0093  -32.0123 H   0  0  0  0  0  0  0  0  0  0  0  0
   -4.5824   18.7677  -33.5407 H   0  0  0  0  0  0  0  0  0  0  0  0
   -3.5734   16.8876  -32.6063 H   0  0  0  0  0  0  0  0  0  0  0  0
   -0.8691   16.1389  -35.6324 H   0  0  0  0  0  0  0  0  0  0  0  0
   -2.4437   16.7560  -35.0025 H   0  0  0  0  0  0  0  0  0  0  0  0
    0.2498   18.1823  -34.7244 H   0  0  0  0  0  0  0  0  0  0  0  0
   -1.0297   18.5686  -35.9443 H   0  0  0  0  0  0  0  0  0  0  0  0
  1  2  1  0
  2  3  1  0
  3  4  1  0
  4  5  1  0
  5  6  1  0
  6  7  1  0
  7  8  2  0
  8  9  1  0
  9 10  2  0
 10 11  1  0
 10 12  1  0
 12 13  1  0
 13 14  2  0
 14 15  1  0
 15 16  2  0
 16 17  1  0
 17 18  1  0
 18 19  1  0
 19 20  1  0
 20 21  2  0
 21 22  1  0
 22 23  2  0
 23 24  1  0
 23 25  1  0
 25 26  2  0
 18 27  2  0
 27 28  1  0
 28 29  2  0
 12 30  2  0
  5 31  1  0
 31 32  1  0
 32  2  1  0
 30  7  1  0
 29 13  1  0
 28 16  1  0
 26 20  1  0
  1 33  1  0
  1 34  1  0
  1 35  1  0
  3 36  1  0
  3 37  1  0
  4 38  1  0
  4 39  1  0
  6 40  1  0
  6 41  1  0
  8 42  1  0
  9 43  1  0
 11 44  1  0
 14 45  1  0
 15 46  1  0
 19 47  1  0
 19 48  1  0
 21 49  1  0
 22 50  1  0
 25 51  1  0
 26 52  1  0
 29 53  1  0
 30 54  1  0
 31 55  1  0
 31 56  1  0
 32 57  1  0
 32 58  1  0
M  CHG  2  17  -1  24  -1
M  END
>  <UniqueID>  (39) 
39

>  <SMILES>  (39) 
CN1CCN(Cc2ccc(O)c(-c3ccc4[n-]c(Cc5ccc([O-])cc5)nc4c3)c2)CC1

>  <Energy>  (39) 
116.41417555085799

>  <Genealogy>  (39) 
CN1CCN(Cc2ccc(O)c(-c3ccc4[n-]c(Cc5ccc([O-])cc5)nc4c3)c2)CC1 (protonated)
CN1CCN(Cc2ccc(O)c(-c3ccc4[n-]c(Cc5ccc([O-])cc5)nc4c3)c2)CC1 (3D coordinates assigned)
CN1CCN(Cc2ccc(O)c(-c3ccc4[n-]c(Cc5ccc([O-])cc5)nc4c3)c2)CC1 (nonaromatic ring conformer: 116.41417555085799 kcal/mol)

>  <smiles>  (39) 
CN1CCN(Cc2ccc(O)c(-c3ccc4[nH]c(Cc5ccc(O)cc5)nc4c3)c2)CC1

>  <score_type>  (39) 
oracle

>  <origin>  (39) 
adgpu

>  <m_score__min__energy>  (39) 
-11.609999999999999

>  <m_primary>  (39) 
energy

$$$$
39:0
     RDKit          3D

 51 53  0  0  0  0  0  0  0  0999 V2000
   -5.7420   25.6980  -30.1010 C   0  0  0  0  0  0  0  0  0  0  0  0
   -5.1090   24.9660  -31.1450 O   0  0  0  0  0  0  0  0  0  0  0  0
   -5.5130   23.6960  -31.5890 C   0  0  0  0  0  0  0  0  0  0  0  0
   -6.8500   23.4280  -31.9430 C   0  0  0  0  0  0  0  0  0  0  0  0
   -7.2120   22.1720  -32.4360 C   0  0  0  0  0  0  0  0  0  0  0  0
   -6.2480   21.1750  -32.5890 C   0  0  0  0  0  0  0  0  0  0  0  0
   -4.9200   21.4240  -32.2350 C   0  0  0  0  0  0  0  0  0  0  0  0
   -3.9940   20.4440  -32.3850 F   0  0  0  0  0  0  0  0  0  0  0  0
   -4.5490   22.6700  -31.7070 C   0  0  0  0  0  0  0  0  0  0  0  0
   -3.1730   22.8860  -31.3600 N   0  0  0  0  0  0  0  0  0  0  0  0
   -2.6890   23.2880  -30.0730 C   0  0  0  0  0  0  0  0  0  0  0  0
   -2.2490   22.4060  -29.2900 O   0  0  0  0  0  0  0  0  0  0  0  0
   -2.7240   24.6710  -29.6740 N   0  0  0  0  0  0  0  0  0  0  0  0
   -2.1240   25.1710  -28.4690 C   0  0  0  0  0  0  0  0  0  0  0  0
   -2.6020   24.8000  -27.2000 C   0  0  0  0  0  0  0  0  0  0  0  0
   -2.0110   25.3210  -26.0450 C   0  0  0  0  0  0  0  0  0  0  0  0
   -0.9450   26.2230  -26.1410 C   0  0  0  0  0  0  0  0  0  0  0  0
   -0.2290   26.8920  -24.6760 S   0  0  0  0  0  0  0  0  0  0  0  0
   -1.2930   27.0800  -23.6320 O   0  0  0  0  0  0  0  0  0  0  0  0
    0.3510   28.2390  -25.0060 O   0  0  0  0  0  0  0  0  0  0  0  0
    1.0470   25.8480  -24.0800 N   0  0  0  0  0  0  0  0  0  0  0  0
    2.3870   26.4210  -24.2960 C   0  0  0  0  0  0  0  0  0  0  0  0
    2.8100   26.4080  -25.7820 C   0  0  0  0  0  0  0  0  0  0  0  0
    2.0870   25.3850  -26.5670 N   0  0  0  0  0  0  0  0  0  0  0  0
    2.8130   25.0750  -27.8070 C   0  0  0  0  0  0  0  0  0  0  0  0
    1.8710   24.1660  -25.7730 C   0  0  0  0  0  0  0  0  0  0  0  0
    0.9200   24.4670  -24.6000 C   0  0  0  0  0  0  0  0  0  0  0  0
   -0.4840   26.6160  -27.4050 C   0  0  0  0  0  0  0  0  0  0  0  0
   -1.0740   26.0970  -28.5600 C   0  0  0  0  0  0  0  0  0  0  0  0
   -5.4075   25.3112  -29.1271 H   0  0  0  0  0  0  0  0  0  0  0  0
   -5.4744   26.7617  -30.1846 H   0  0  0  0  0  0  0  0  0  0  0  0
   -6.8332   25.5867  -30.1846 H   0  0  0  0  0  0  0  0  0  0  0  0
   -7.6132   24.2121  -31.8306 H   0  0  0  0  0  0  0  0  0  0  0  0
   -8.2593   21.9686  -32.7041 H   0  0  0  0  0  0  0  0  0  0  0  0
   -6.5343   20.1912  -32.9891 H   0  0  0  0  0  0  0  0  0  0  0  0
   -3.0970   25.3730  -30.3510 H   0  0  0  0  0  0  0  0  0  0  0  0
   -3.4440   24.0973  -27.1155 H   0  0  0  0  0  0  0  0  0  0  0  0
   -2.3858   25.0204  -25.0555 H   0  0  0  0  0  0  0  0  0  0  0  0
    2.3861   27.4617  -23.9397 H   0  0  0  0  0  0  0  0  0  0  0  0
    3.1063   25.8009  -23.7409 H   0  0  0  0  0  0  0  0  0  0  0  0
    2.6034   27.3973  -26.2164 H   0  0  0  0  0  0  0  0  0  0  0  0
    3.8820   26.1647  -25.8225 H   0  0  0  0  0  0  0  0  0  0  0  0
    3.7987   24.6541  -27.5594 H   0  0  0  0  0  0  0  0  0  0  0  0
    2.2391   24.3435  -28.3948 H   0  0  0  0  0  0  0  0  0  0  0  0
    2.9445   25.9954  -28.3948 H   0  0  0  0  0  0  0  0  0  0  0  0
    1.4274   23.3882  -26.4120 H   0  0  0  0  0  0  0  0  0  0  0  0
    2.8356   23.8159  -25.3768 H   0  0  0  0  0  0  0  0  0  0  0  0
   -0.1145   24.3170  -24.9424 H   0  0  0  0  0  0  0  0  0  0  0  0
    1.1893   23.7850  -23.7801 H   0  0  0  0  0  0  0  0  0  0  0  0
    0.3445   27.3349  -27.4877 H   0  0  0  0  0  0  0  0  0  0  0  0
   -0.7125   26.4168  -29.5485 H   0  0  0  0  0  0  0  0  0  0  0  0
  1  2  1  0
  2  3  1  0
  3  4  2  0
  4  5  1  0
  5  6  2  0
  6  7  1  0
  7  8  1  0
  7  9  2  0
  9 10  1  0
 10 11  1  0
 11 12  2  0
 11 13  1  0
 13 14  1  0
 14 15  2  0
 15 16  1  0
 16 17  2  0
 17 18  1  0
 18 19  2  0
 18 20  2  0
 18 21  1  0
 21 22  1  0
 22 23  1  0
 23 24  1  0
 24 25  1  0
 24 26  1  0
 26 27  1  0
 17 28  1  0
 28 29  2  0
  9  3  1  0
 29 14  1  0
 27 21  1  0
  1 30  1  0
  1 31  1  0
  1 32  1  0
  4 33  1  0
  5 34  1  0
  6 35  1  0
 13 36  1  0
 15 37  1  0
 16 38  1  0
 22 39  1  0
 22 40  1  0
 23 41  1  0
 23 42  1  0
 25 43  1  0
 25 44  1  0
 25 45  1  0
 26 46  1  0
 26 47  1  0
 27 48  1  0
 27 49  1  0
 28 50  1  0
 29 51  1  0
M  CHG  1  10  -1
M  END
>  <UniqueID>  (40) 
40

>  <SMILES>  (40) 
COc1cccc(F)c1[N-]C(=O)Nc1ccc(S(=O)(=O)N2CCN(C)CC2)cc1

>  <Energy>  (40) 
70.09840588548627

>  <Genealogy>  (40) 
COc1cccc(F)c1[N-]C(=O)Nc1ccc(S(=O)(=O)N2CCN(C)CC2)cc1 (protonated)
COc1cccc(F)c1[N-]C(=O)Nc1ccc(S(=O)(=O)N2CCN(C)CC2)cc1 (3D coordinates assigned)
COc1cccc(F)c1[N-]C(=O)Nc1ccc(S(=O)(=O)N2CCN(C)CC2)cc1 (nonaromatic ring conformer: 70.09840588548627 kcal/mol)

>  <smiles>  (40) 
COc1cccc(F)c1NC(=O)Nc1ccc(S(=O)(=O)N2CCN(C)CC2)cc1

>  <score_type>  (40) 
oracle

>  <origin>  (40) 
adgpu

>  <m_score__min__energy>  (40) 
-10.24

>  <m_primary>  (40) 
energy

$$$$
40:0
     RDKit          3D

 45 48  0  0  0  0  0  0  0  0999 V2000
   -0.4640   29.2890  -25.8540 C   0  0  0  0  0  0  0  0  0  0  0  0
   -0.7900   27.8380  -26.0050 C   0  0  0  0  0  0  0  0  0  0  0  0
   -1.1770   27.0780  -24.8940 C   0  0  0  0  0  0  0  0  0  0  0  0
   -1.4960   25.7310  -25.0640 C   0  0  0  0  0  0  0  0  0  0  0  0
   -1.4270   25.1540  -26.3340 C   0  0  0  0  0  0  0  0  0  0  0  0
   -1.0290   25.9390  -27.4250 C   0  0  0  0  0  0  0  0  0  0  0  0
   -0.9820   25.3620  -28.8050 C   0  0  0  0  0  0  0  0  0  0  0  0
   -2.3370   25.2980  -29.3440 N   0  0  0  0  0  0  0  0  0  0  0  0
   -2.8290   23.6410  -29.5110 S   0  0  0  0  0  0  0  0  0  0  0  0
   -2.7370   22.9630  -28.1740 O   0  0  0  0  0  0  0  0  0  0  0  0
   -1.9140   22.9320  -30.4700 O   0  0  0  0  0  0  0  0  0  0  0  0
   -4.4920   23.5550  -30.0850 C   0  0  0  0  0  0  0  0  0  0  0  0
   -5.2640   24.7400  -30.1820 C   0  0  0  0  0  0  0  0  0  0  0  0
   -6.5850   24.6990  -30.6620 C   0  0  0  0  0  0  0  0  0  0  0  0
   -7.1030   23.4610  -31.0410 C   0  0  0  0  0  0  0  0  0  0  0  0
   -8.3280   23.2100  -31.5430 N   0  0  0  0  0  0  0  0  0  0  0  0
   -8.3460   21.8780  -31.7830 C   0  0  0  0  0  0  0  0  0  0  0  0
   -7.1550   21.2850  -31.4030 C   0  0  0  0  0  0  0  0  0  0  0  0
   -6.3560   22.3110  -30.9490 C   0  0  0  0  0  0  0  0  0  0  0  0
   -5.0440   22.3190  -30.4800 C   0  0  0  0  0  0  0  0  0  0  0  0
   -6.8260   19.8380  -31.6110 C   0  0  0  0  0  0  0  0  0  0  0  0
   -8.1160   19.0230  -31.8300 C   0  0  0  0  0  0  0  0  0  0  0  0
   -9.0730   19.7230  -32.8190 C   0  0  0  0  0  0  0  0  0  0  0  0
   -9.5210   21.1040  -32.3010 C   0  0  0  0  0  0  0  0  0  0  0  0
   -0.7350   27.2550  -27.2350 N   0  0  0  0  0  0  0  0  0  0  0  0
   -0.4070   29.5427  -24.7852 H   0  0  0  0  0  0  0  0  0  0  0  0
    0.5037   29.4991  -26.3329 H   0  0  0  0  0  0  0  0  0  0  0  0
   -1.2489   29.8929  -26.3329 H   0  0  0  0  0  0  0  0  0  0  0  0
   -1.2289   27.5392  -23.8967 H   0  0  0  0  0  0  0  0  0  0  0  0
   -1.8015   25.1239  -24.1991 H   0  0  0  0  0  0  0  0  0  0  0  0
   -1.6825   24.0937  -26.4768 H   0  0  0  0  0  0  0  0  0  0  0  0
   -0.3592   25.9997  -29.4496 H   0  0  0  0  0  0  0  0  0  0  0  0
   -0.5502   24.3509  -28.7687 H   0  0  0  0  0  0  0  0  0  0  0  0
   -4.8249   25.7018  -29.8785 H   0  0  0  0  0  0  0  0  0  0  0  0
   -7.1905   25.6143  -30.7362 H   0  0  0  0  0  0  0  0  0  0  0  0
   -9.0970   23.8950  -31.7160 H   0  0  0  0  0  0  0  0  0  0  0  0
   -4.4573   21.3905  -30.4198 H   0  0  0  0  0  0  0  0  0  0  0  0
   -6.1781   19.7363  -32.4941 H   0  0  0  0  0  0  0  0  0  0  0  0
   -6.3085   19.4565  -30.7185 H   0  0  0  0  0  0  0  0  0  0  0  0
   -7.8491   18.0343  -32.2316 H   0  0  0  0  0  0  0  0  0  0  0  0
   -8.6310   18.9297  -30.8625 H   0  0  0  0  0  0  0  0  0  0  0  0
   -8.5570   19.8539  -33.7816 H   0  0  0  0  0  0  0  0  0  0  0  0
   -9.9679   19.0935  -32.9328 H   0  0  0  0  0  0  0  0  0  0  0  0
   -9.9893   21.6645  -33.1235 H   0  0  0  0  0  0  0  0  0  0  0  0
  -10.2407   20.9599  -31.4817 H   0  0  0  0  0  0  0  0  0  0  0  0
  1  2  1  0
  2  3  2  0
  3  4  1  0
  4  5  2  0
  5  6  1  0
  6  7  1  0
  7  8  1  0
  8  9  1  0
  9 10  2  0
  9 11  2  0
  9 12  1  0
 12 13  2  0
 13 14  1  0
 14 15  2  0
 15 16  1  0
 16 17  1  0
 17 18  2  0
 18 19  1  0
 19 20  2  0
 18 21  1  0
 21 22  1  0
 22 23  1  0
 23 24  1  0
  6 25  2  0
 25  2  1  0
 20 12  1  0
 19 15  1  0
 24 17  1  0
  1 26  1  0
  1 27  1  0
  1 28  1  0
  3 29  1  0
  4 30  1  0
  5 31  1  0
  7 32  1  0
  7 33  1  0
 13 34  1  0
 14 35  1  0
 16 36  1  0
 20 37  1  0
 21 38  1  0
 21 39  1  0
 22 40  1  0
 22 41  1  0
 23 42  1  0
 23 43  1  0
 24 44  1  0
 24 45  1  0
M  CHG  1   8  -1
M  END
>  <UniqueID>  (41) 
41

>  <SMILES>  (41) 
Cc1cccc(C[N-]S(=O)(=O)c2ccc3[nH]c4c(c3c2)CCCC4)n1

>  <Energy>  (41) 
76.94905157872184

>  <Genealogy>  (41) 
Cc1cccc(C[N-]S(=O)(=O)c2ccc3[nH]c4c(c3c2)CCCC4)n1 (protonated)
Cc1cccc(C[N-]S(=O)(=O)c2ccc3[nH]c4c(c3c2)CCCC4)n1 (3D coordinates assigned)
Cc1cccc(C[N-]S(=O)(=O)c2ccc3[nH]c4c(c3c2)CCCC4)n1 (nonaromatic ring conformer: 76.94905157872184 kcal/mol)

>  <smiles>  (41) 
Cc1cccc(CNS(=O)(=O)c2ccc3[nH]c4c(c3c2)CCCC4)n1

>  <score_type>  (41) 
oracle

>  <origin>  (41) 
adgpu

>  <m_score__min__energy>  (41) 
-11.42

>  <m_primary>  (41) 
energy

$$$$
41:0
     RDKit          3D

 51 54  0  0  0  0  0  0  0  0999 V2000
   -2.4410   20.0130  -26.6860 C   0  0  0  0  0  0  0  0  0  0  0  0
   -1.3920   20.4420  -27.7340 C   0  0  0  0  0  0  0  0  0  0  0  0
   -1.6130   19.6430  -29.0320 C   0  0  0  0  0  0  0  0  0  0  0  0
    0.0100   20.1150  -27.1590 C   0  0  0  0  0  0  0  0  0  0  0  0
    1.0530   20.6990  -28.0100 N   0  0  0  0  0  0  0  0  0  0  0  0
    1.0390   22.1610  -27.8830 C   0  0  0  0  0  0  0  0  0  0  0  0
   -0.3310   22.7340  -28.1640 C   0  0  0  0  0  0  0  0  0  0  0  0
   -0.4440   24.0990  -28.4560 C   0  0  0  0  0  0  0  0  0  0  0  0
   -1.6970   24.6840  -28.6700 C   0  0  0  0  0  0  0  0  0  0  0  0
   -1.7860   26.0500  -28.9460 O   0  0  0  0  0  0  0  0  0  0  0  0
   -2.8580   23.9020  -28.5970 C   0  0  0  0  0  0  0  0  0  0  0  0
   -4.1300   24.5430  -28.7800 N   0  0  0  0  0  0  0  0  0  0  0  0
   -4.9210   24.8280  -30.3040 S   0  0  0  0  0  0  0  0  0  0  0  0
   -4.0250   25.6240  -31.2130 O   0  0  0  0  0  0  0  0  0  0  0  0
   -6.1680   25.6190  -30.0360 O   0  0  0  0  0  0  0  0  0  0  0  0
   -5.3810   23.3160  -31.0700 C   0  0  0  0  0  0  0  0  0  0  0  0
   -4.5180   22.3040  -31.4910 C   0  0  0  0  0  0  0  0  0  0  0  0
   -5.1900   21.1970  -32.0260 C   0  0  0  0  0  0  0  0  0  0  0  0
   -6.5780   21.3370  -32.0150 C   0  0  0  0  0  0  0  0  0  0  0  0
   -7.5650   20.3160  -32.5050 C   0  0  0  0  0  0  0  0  0  0  0  0
   -6.8470   19.1040  -33.0370 C   0  0  0  0  0  0  0  0  0  0  0  0
   -6.8830   17.8890  -32.3290 C   0  0  0  0  0  0  0  0  0  0  0  0
   -6.2040   16.7670  -32.8190 C   0  0  0  0  0  0  0  0  0  0  0  0
   -5.4800   16.8520  -34.0120 C   0  0  0  0  0  0  0  0  0  0  0  0
   -5.4270   18.0610  -34.7140 C   0  0  0  0  0  0  0  0  0  0  0  0
   -6.1020   19.1850  -34.2270 C   0  0  0  0  0  0  0  0  0  0  0  0
   -6.9730   22.8380  -31.3550 S   0  0  0  0  0  0  0  0  0  0  0  0
   -2.7490   22.5290  -28.3210 C   0  0  0  0  0  0  0  0  0  0  0  0
   -1.4960   21.9380  -28.0470 C   0  0  0  0  0  0  0  0  0  0  0  0
   -2.0385   20.1776  -25.6756 H   0  0  0  0  0  0  0  0  0  0  0  0
   -3.3560   20.6091  -26.8178 H   0  0  0  0  0  0  0  0  0  0  0  0
   -2.6761   18.9465  -26.8178 H   0  0  0  0  0  0  0  0  0  0  0  0
   -1.8986   18.6104  -28.7828 H   0  0  0  0  0  0  0  0  0  0  0  0
   -2.4148   20.1134  -29.6201 H   0  0  0  0  0  0  0  0  0  0  0  0
   -0.6835   19.6345  -29.6201 H   0  0  0  0  0  0  0  0  0  0  0  0
    0.0931   20.5313  -26.1442 H   0  0  0  0  0  0  0  0  0  0  0  0
    0.1405   19.0232  -27.1277 H   0  0  0  0  0  0  0  0  0  0  0  0
    1.9750   20.3690  -27.6380 H   0  0  0  0  0  0  0  0  0  0  0  0
    1.3358   22.4326  -26.8592 H   0  0  0  0  0  0  0  0  0  0  0  0
    1.7418   22.5758  -28.6206 H   0  0  0  0  0  0  0  0  0  0  0  0
    0.4628   24.7185  -28.5178 H   0  0  0  0  0  0  0  0  0  0  0  0
   -3.4228   22.3685  -31.4112 H   0  0  0  0  0  0  0  0  0  0  0  0
   -4.6747   20.3067  -32.4157 H   0  0  0  0  0  0  0  0  0  0  0  0
   -8.2176   20.0142  -31.6725 H   0  0  0  0  0  0  0  0  0  0  0  0
   -8.1644   20.7590  -33.3140 H   0  0  0  0  0  0  0  0  0  0  0  0
   -7.4467   17.8202  -31.3869 H   0  0  0  0  0  0  0  0  0  0  0  0
   -6.2402   15.8175  -32.2648 H   0  0  0  0  0  0  0  0  0  0  0  0
   -4.9519   15.9680  -34.3988 H   0  0  0  0  0  0  0  0  0  0  0  0
   -4.8536   18.1277  -35.6504 H   0  0  0  0  0  0  0  0  0  0  0  0
   -6.0499   20.1362  -34.7770 H   0  0  0  0  0  0  0  0  0  0  0  0
   -3.6542   21.9041  -28.3182 H   0  0  0  0  0  0  0  0  0  0  0  0
  1  2  1  0
  2  3  1  0
  2  4  1  0
  4  5  1  0
  5  6  1  0
  6  7  1  0
  7  8  2  0
  8  9  1  0
  9 10  1  0
  9 11  2  0
 11 12  1  0
 12 13  1  0
 13 14  2  0
 13 15  2  0
 13 16  1  0
 16 17  2  0
 17 18  1  0
 18 19  2  0
 19 20  1  0
 20 21  1  0
 21 22  2  0
 22 23  1  0
 23 24  2  0
 24 25  1  0
 25 26  2  0
 19 27  1  0
 11 28  1  0
 28 29  2  0
 29  2  1  0
 29  7  1  0
 27 16  1  0
 26 21  1  0
  1 30  1  0
  1 31  1  0
  1 32  1  0
  3 33  1  0
  3 34  1  0
  3 35  1  0
  4 36  1  0
  4 37  1  0
  5 38  1  0
  6 39  1  0
  6 40  1  0
  8 41  1  0
 17 42  1  0
 18 43  1  0
 20 44  1  0
 20 45  1  0
 22 46  1  0
 23 47  1  0
 24 48  1  0
 25 49  1  0
 26 50  1  0
 28 51  1  0
M  CHG  2  10  -1  12  -1
M  END
>  <UniqueID>  (42) 
42

>  <SMILES>  (42) 
CC1(C)CNCc2cc([O-])c([N-]S(=O)(=O)c3ccc(Cc4ccccc4)s3)cc21

>  <Energy>  (42) 
83.40119038957793

>  <Genealogy>  (42) 
CC1(C)CNCc2cc([O-])c([N-]S(=O)(=O)c3ccc(Cc4ccccc4)s3)cc21 (protonated)
CC1(C)CNCc2cc([O-])c([N-]S(=O)(=O)c3ccc(Cc4ccccc4)s3)cc21 (3D coordinates assigned)
CC1(C)CNCc2cc([O-])c([N-]S(=O)(=O)c3ccc(Cc4ccccc4)s3)cc21 (nonaromatic ring conformer: 83.40119038957793 kcal/mol)

>  <smiles>  (42) 
CC1(C)CNCc2cc(O)c(NS(=O)(=O)c3ccc(Cc4ccccc4)s3)cc21

>  <score_type>  (42) 
oracle

>  <origin>  (42) 
adgpu

>  <m_score__min__energy>  (42) 
-14.789999999999999

>  <m_primary>  (42) 
energy

$$$$
42:0
     RDKit          3D

 83 87  0  0  0  0  0  0  0  0999 V2000
   -6.0920   25.6820  -29.4130 C   0  0  0  0  0  0  0  0  0  0  0  0
   -5.7830   24.4840  -30.2640 C   0  0  0  0  0  0  0  0  0  0  0  0
   -6.8210   23.7270  -30.8240 C   0  0  0  0  0  0  0  0  0  0  0  0
   -6.5190   22.6360  -31.6400 C   0  0  0  0  0  0  0  0  0  0  0  0
   -7.5560   21.9140  -32.2450 O   0  0  0  0  0  0  0  0  0  0  0  0
   -7.4950   20.5420  -32.5210 C   0  0  0  0  0  0  0  0  0  0  0  0
   -8.4760   19.6480  -32.0570 C   0  0  0  0  0  0  0  0  0  0  0  0
   -8.3590   18.2810  -32.3150 C   0  0  0  0  0  0  0  0  0  0  0  0
   -7.2650   17.7940  -33.0370 C   0  0  0  0  0  0  0  0  0  0  0  0
   -6.2860   18.6780  -33.5120 C   0  0  0  0  0  0  0  0  0  0  0  0
   -5.1280   18.1500  -34.2540 C   0  0  0  0  0  0  0  0  0  0  0  0
   -4.1920   18.9470  -34.5340 O   0  0  0  0  0  0  0  0  0  0  0  0
   -5.0200   16.7550  -34.6500 N   0  0  0  0  0  0  0  0  0  0  0  0
   -5.1130   15.8160  -33.5060 C   0  0  0  0  0  0  0  0  0  0  0  0
   -3.7900   15.6450  -32.7180 C   0  0  0  0  0  0  0  0  0  0  0  0
   -2.6000   16.0330  -33.5030 N   0  0  0  0  0  0  0  0  0  0  0  0
   -1.3850   15.4270  -32.9380 C   0  0  0  0  0  0  0  0  0  0  0  0
   -2.7590   15.6510  -34.9100 C   0  0  0  0  0  0  0  0  0  0  0  0
   -3.8570   16.5130  -35.5480 C   0  0  0  0  0  0  0  0  0  0  0  0
   -6.4270   20.0550  -33.2840 C   0  0  0  0  0  0  0  0  0  0  0  0
   -5.2190   22.3150  -31.8730 N   0  0  0  0  0  0  0  0  0  0  0  0
   -4.1820   23.0320  -31.3660 C   0  0  0  0  0  0  0  0  0  0  0  0
   -2.8520   22.6490  -31.5980 O   0  0  0  0  0  0  0  0  0  0  0  0
   -2.3970   21.4490  -32.1730 C   0  0  0  0  0  0  0  0  0  0  0  0
   -2.8150   20.1750  -31.7430 C   0  0  0  0  0  0  0  0  0  0  0  0
   -2.3200   19.0270  -32.3600 C   0  0  0  0  0  0  0  0  0  0  0  0
   -1.4310   19.1290  -33.4300 C   0  0  0  0  0  0  0  0  0  0  0  0
   -1.0210   20.3920  -33.9060 C   0  0  0  0  0  0  0  0  0  0  0  0
   -0.1290   20.5040  -35.0430 N   0  0  0  0  0  0  0  0  0  0  0  0
    0.3640   19.3010  -35.7260 C   0  0  0  0  0  0  0  0  0  0  0  0
    0.3160   21.8190  -35.5180 C   0  0  0  0  0  0  0  0  0  0  0  0
   -1.5170   21.5440  -33.2590 C   0  0  0  0  0  0  0  0  0  0  0  0
   -4.4480   24.1510  -30.5580 C   0  0  0  0  0  0  0  0  0  0  0  0
   -3.4070   24.9160  -30.0150 O   0  0  0  0  0  0  0  0  0  0  0  0
   -2.5370   24.4750  -29.0060 C   0  0  0  0  0  0  0  0  0  0  0  0
   -2.1710   23.1240  -28.8800 C   0  0  0  0  0  0  0  0  0  0  0  0
   -1.2790   22.7280  -27.8820 C   0  0  0  0  0  0  0  0  0  0  0  0
   -0.7430   23.6740  -27.0050 C   0  0  0  0  0  0  0  0  0  0  0  0
   -1.0930   25.0340  -27.1130 C   0  0  0  0  0  0  0  0  0  0  0  0
   -0.5390   26.0160  -26.2030 N   0  0  0  0  0  0  0  0  0  0  0  0
   -0.5160   25.7590  -24.7580 C   0  0  0  0  0  0  0  0  0  0  0  0
    0.0050   27.2780  -26.7160 C   0  0  0  0  0  0  0  0  0  0  0  0
   -1.9930   25.4200  -28.1290 C   0  0  0  0  0  0  0  0  0  0  0  0
   -6.0207   25.4054  -28.3507 H   0  0  0  0  0  0  0  0  0  0  0  0
   -5.3712   26.4834  -29.6324 H   0  0  0  0  0  0  0  0  0  0  0  0
   -7.1105   26.0348  -29.6324 H   0  0  0  0  0  0  0  0  0  0  0  0
   -7.8692   23.9917  -30.6212 H   0  0  0  0  0  0  0  0  0  0  0  0
   -9.3384   20.0269  -31.4889 H   0  0  0  0  0  0  0  0  0  0  0  0
   -9.1290   17.5856  -31.9496 H   0  0  0  0  0  0  0  0  0  0  0  0
   -7.1724   16.7155  -33.2326 H   0  0  0  0  0  0  0  0  0  0  0  0
   -5.8770   16.5620  -35.2240 H   0  0  0  0  0  0  0  0  0  0  0  0
   -5.8814   16.1903  -32.8136 H   0  0  0  0  0  0  0  0  0  0  0  0
   -5.3621   14.8299  -33.9249 H   0  0  0  0  0  0  0  0  0  0  0  0
   -3.8352   16.2723  -31.8155 H   0  0  0  0  0  0  0  0  0  0  0  0
   -3.6887   14.5782  -32.4697 H   0  0  0  0  0  0  0  0  0  0  0  0
   -1.4386   15.4537  -31.8396 H   0  0  0  0  0  0  0  0  0  0  0  0
   -1.3047   14.3833  -33.2759 H   0  0  0  0  0  0  0  0  0  0  0  0
   -0.5029   15.9907  -33.2759 H   0  0  0  0  0  0  0  0  0  0  0  0
   -1.8103   15.8101  -35.4435 H   0  0  0  0  0  0  0  0  0  0  0  0
   -3.0396   14.5893  -34.9744 H   0  0  0  0  0  0  0  0  0  0  0  0
   -3.4210   17.4849  -35.8225 H   0  0  0  0  0  0  0  0  0  0  0  0
   -4.2331   15.9621  -36.4227 H   0  0  0  0  0  0  0  0  0  0  0  0
   -5.6935   20.7568  -33.7076 H   0  0  0  0  0  0  0  0  0  0  0  0
   -3.5353   20.0851  -30.9165 H   0  0  0  0  0  0  0  0  0  0  0  0
   -2.6323   18.0352  -32.0010 H   0  0  0  0  0  0  0  0  0  0  0  0
   -1.0459   18.2158  -33.9072 H   0  0  0  0  0  0  0  0  0  0  0  0
    0.6700   18.5543  -34.9784 H   0  0  0  0  0  0  0  0  0  0  0  0
   -0.4354   18.8832  -36.3556 H   0  0  0  0  0  0  0  0  0  0  0  0
    1.2267   19.5644  -36.3556 H   0  0  0  0  0  0  0  0  0  0  0  0
    0.5348   22.4656  -34.6555 H   0  0  0  0  0  0  0  0  0  0  0  0
    1.2241   21.7007  -36.1273 H   0  0  0  0  0  0  0  0  0  0  0  0
   -0.4774   22.2765  -36.1273 H   0  0  0  0  0  0  0  0  0  0  0  0
   -1.2061   22.5373  -33.6148 H   0  0  0  0  0  0  0  0  0  0  0  0
   -2.5888   22.3762  -29.5701 H   0  0  0  0  0  0  0  0  0  0  0  0
   -0.9976   21.6689  -27.7860 H   0  0  0  0  0  0  0  0  0  0  0  0
   -0.0402   23.3534  -26.2218 H   0  0  0  0  0  0  0  0  0  0  0  0
   -0.6013   26.7117  -24.2147 H   0  0  0  0  0  0  0  0  0  0  0  0
   -1.3593   25.1063  -24.4882 H   0  0  0  0  0  0  0  0  0  0  0  0
    0.4298   25.2664  -24.4882 H   0  0  0  0  0  0  0  0  0  0  0  0
    0.2846   27.9265  -25.8726 H   0  0  0  0  0  0  0  0  0  0  0  0
    0.8940   27.0714  -27.3300 H   0  0  0  0  0  0  0  0  0  0  0  0
   -0.7556   27.7825  -27.3300 H   0  0  0  0  0  0  0  0  0  0  0  0
   -2.2710   26.4792  -28.2331 H   0  0  0  0  0  0  0  0  0  0  0  0
  1  2  1  0
  2  3  2  0
  3  4  1  0
  4  5  1  0
  5  6  1  0
  6  7  2  0
  7  8  1  0
  8  9  2  0
  9 10  1  0
 10 11  1  0
 11 12  2  0
 11 13  1  0
 13 14  1  0
 14 15  1  0
 15 16  1  0
 16 17  1  0
 16 18  1  0
 18 19  1  0
 10 20  2  0
  4 21  2  0
 21 22  1  0
 22 23  1  0
 23 24  1  0
 24 25  2  0
 25 26  1  0
 26 27  2  0
 27 28  1  0
 28 29  1  0
 29 30  1  0
 29 31  1  0
 28 32  2  0
 22 33  2  0
 33 34  1  0
 34 35  1  0
 35 36  2  0
 36 37  1  0
 37 38  2  0
 38 39  1  0
 39 40  1  0
 40 41  1  0
 40 42  1  0
 39 43  2  0
 33  2  1  0
 43 35  1  0
 20  6  1  0
 32 24  1  0
 19 13  1  0
  1 44  1  0
  1 45  1  0
  1 46  1  0
  3 47  1  0
  7 48  1  0
  8 49  1  0
  9 50  1  0
 13 51  1  0
 14 52  1  0
 14 53  1  0
 15 54  1  0
 15 55  1  0
 17 56  1  0
 17 57  1  0
 17 58  1  0
 18 59  1  0
 18 60  1  0
 19 61  1  0
 19 62  1  0
 20 63  1  0
 25 64  1  0
 26 65  1  0
 27 66  1  0
 30 67  1  0
 30 68  1  0
 30 69  1  0
 31 70  1  0
 31 71  1  0
 31 72  1  0
 32 73  1  0
 36 74  1  0
 37 75  1  0
 38 76  1  0
 41 77  1  0
 41 78  1  0
 41 79  1  0
 42 80  1  0
 42 81  1  0
 42 82  1  0
 43 83  1  0
M  CHG  1  13   1
M  END
>  <UniqueID>  (43) 
43

>  <SMILES>  (43) 
Cc1cc(Oc2cccc(C(=O)[NH+]3CCN(C)CC3)c2)nc(Oc2cccc(N(C)C)c2)c1Oc1cccc(N(C)C)c1

>  <Energy>  (43) 
124.49858879368448

>  <Genealogy>  (43) 
Cc1cc(Oc2cccc(C(=O)[NH+]3CCN(C)CC3)c2)nc(Oc2cccc(N(C)C)c2)c1Oc1cccc(N(C)C)c1 (protonated)
Cc1cc(Oc2cccc(C(=O)[NH+]3CCN(C)CC3)c2)nc(Oc2cccc(N(C)C)c2)c1Oc1cccc(N(C)C)c1 (3D coordinates assigned)
Cc1cc(Oc2cccc(C(=O)[NH+]3CCN(C)CC3)c2)nc(Oc2cccc(N(C)C)c2)c1Oc1cccc(N(C)C)c1 (nonaromatic ring conformer: 124.49858879368448 kcal/mol)

>  <smiles>  (43) 
Cc1cc(Oc2cccc(C(=O)N3CCN(C)CC3)c2)nc(Oc2cccc(N(C)C)c2)c1Oc1cccc(N(C)C)c1

>  <score_type>  (43) 
oracle

>  <origin>  (43) 
adgpu

>  <m_score__min__energy>  (43) 
-11.640000000000001

>  <m_primary>  (43) 
energy

$$$$
43:0
     RDKit          3D

 44 47  0  0  0  0  0  0  0  0999 V2000
   -2.0230   21.0420  -32.0970 C   0  0  0  0  0  0  0  0  0  0  0  0
   -3.2510   21.6390  -32.7860 C   0  0  1  0  0  0  0  0  0  0  0  0
   -4.4370   20.6320  -32.8470 C   0  0  0  0  0  0  0  0  0  0  0  0
   -5.5200   21.3370  -32.1060 C   0  0  0  0  0  0  0  0  0  0  0  0
   -6.8180   20.8920  -31.8590 C   0  0  0  0  0  0  0  0  0  0  0  0
   -7.6850   21.7250  -31.1350 C   0  0  0  0  0  0  0  0  0  0  0  0
   -7.2420   22.9790  -30.6710 C   0  0  0  0  0  0  0  0  0  0  0  0
   -5.9250   23.4110  -30.9310 C   0  0  0  0  0  0  0  0  0  0  0  0
   -5.3560   24.9760  -30.3560 S   0  0  0  0  0  0  0  0  0  0  0  0
   -5.8410   26.0480  -31.2920 O   0  0  0  0  0  0  0  0  0  0  0  0
   -5.8920   25.2140  -28.9720 O   0  0  0  0  0  0  0  0  0  0  0  0
   -3.6220   24.9970  -30.3110 N   0  0  0  0  0  0  0  0  0  0  0  0
   -2.8060   24.2390  -29.4080 C   0  0  0  0  0  0  0  0  0  0  0  0
   -3.1660   22.9480  -28.9840 C   0  0  0  0  0  0  0  0  0  0  0  0
   -2.3420   22.2290  -28.1040 C   0  0  0  0  0  0  0  0  0  0  0  0
   -1.1610   22.8210  -27.6140 C   0  0  0  0  0  0  0  0  0  0  0  0
   -0.7960   24.1020  -28.0510 C   0  0  0  0  0  0  0  0  0  0  0  0
   -1.6140   24.8080  -28.9370 C   0  0  0  0  0  0  0  0  0  0  0  0
   -1.2360   26.0800  -29.3500 O   0  0  0  0  0  0  0  0  0  0  0  0
   -0.2290   22.0510  -26.7060 C   0  0  0  0  0  0  0  0  0  0  0  0
   -0.9110   20.9510  -26.0100 N   0  0  0  0  0  0  0  0  0  0  0  0
   -1.6320   20.0990  -26.9630 C   0  0  0  0  0  0  0  0  0  0  0  0
   -2.7820   20.8690  -27.6250 C   0  0  0  0  0  0  0  0  0  0  0  0
   -5.0870   22.5540  -31.6580 C   0  0  0  0  0  0  0  0  0  0  0  0
   -3.7430   22.7890  -32.0290 N   0  0  0  0  0  0  0  0  0  0  0  0
   -2.1488   21.1032  -31.0059 H   0  0  0  0  0  0  0  0  0  0  0  0
   -1.9112   19.9890  -32.3948 H   0  0  0  0  0  0  0  0  0  0  0  0
   -1.1258   21.6045  -32.3948 H   0  0  0  0  0  0  0  0  0  0  0  0
   -2.9283   21.9128  -33.8013 H   0  0  0  0  0  0  0  0  0  0  0  0
   -4.7344   20.4353  -33.8876 H   0  0  0  0  0  0  0  0  0  0  0  0
   -4.1908   19.6489  -32.4194 H   0  0  0  0  0  0  0  0  0  0  0  0
   -7.1549   19.9103  -32.2233 H   0  0  0  0  0  0  0  0  0  0  0  0
   -8.7147   21.3973  -30.9291 H   0  0  0  0  0  0  0  0  0  0  0  0
   -7.9273   23.6250  -30.1026 H   0  0  0  0  0  0  0  0  0  0  0  0
   -4.1021   22.4971  -29.3452 H   0  0  0  0  0  0  0  0  0  0  0  0
    0.1409   24.5546  -27.6940 H   0  0  0  0  0  0  0  0  0  0  0  0
    0.5893   21.6334  -27.3110 H   0  0  0  0  0  0  0  0  0  0  0  0
    0.1500   22.7478  -25.9439 H   0  0  0  0  0  0  0  0  0  0  0  0
   -1.5930   21.3530  -25.3240 H   0  0  0  0  0  0  0  0  0  0  0  0
   -0.9331   19.7570  -27.7405 H   0  0  0  0  0  0  0  0  0  0  0  0
   -2.0517   19.2402  -26.4187 H   0  0  0  0  0  0  0  0  0  0  0  0
   -3.1495   20.2902  -28.4852 H   0  0  0  0  0  0  0  0  0  0  0  0
   -3.5750   21.0102  -26.8759 H   0  0  0  0  0  0  0  0  0  0  0  0
   -3.1950   23.6560  -31.8340 H   0  0  0  0  0  0  0  0  0  0  0  0
  1  2  1  0
  2  3  1  0
  3  4  1  0
  4  5  2  0
  5  6  1  0
  6  7  2  0
  7  8  1  0
  8  9  1  0
  9 10  2  0
  9 11  2  0
  9 12  1  0
 12 13  1  0
 13 14  2  0
 14 15  1  0
 15 16  2  0
 16 17  1  0
 17 18  2  0
 18 19  1  0
 16 20  1  0
 20 21  1  0
 21 22  1  0
 22 23  1  0
  8 24  2  0
 24 25  1  0
 25  2  1  0
 24  4  1  0
 18 13  1  0
 23 15  1  0
  1 26  1  0
  1 27  1  0
  1 28  1  0
  2 29  1  6
  3 30  1  0
  3 31  1  0
  5 32  1  0
  6 33  1  0
  7 34  1  0
 14 35  1  0
 17 36  1  0
 20 37  1  0
 20 38  1  0
 21 39  1  0
 22 40  1  0
 22 41  1  0
 23 42  1  0
 23 43  1  0
 25 44  1  0
M  CHG  2  12  -1  19  -1
M  END
>  <UniqueID>  (44) 
44

>  <SMILES>  (44) 
C[C@H]1Cc2cccc(S(=O)(=O)[N-]c3cc4c(cc3[O-])CNCC4)c2N1

>  <Energy>  (44) 
65.42097988189713

>  <Genealogy>  (44) 
CC1Cc2cccc(S(=O)(=O)[N-]c3cc4c(cc3[O-])CNCC4)c2N1 (protonated)
C[C@H]1Cc2cccc(S(=O)(=O)[N-]c3cc4c(cc3[O-])CNCC4)c2N1 (chirality)
C[C@H]1Cc2cccc(S(=O)(=O)[N-]c3cc4c(cc3[O-])CNCC4)c2N1 (3D coordinates assigned)
C[C@H]1Cc2cccc(S(=O)(=O)[N-]c3cc4c(cc3[O-])CNCC4)c2N1 (nonaromatic ring conformer: 65.42097988189713 kcal/mol)

>  <smiles>  (44) 
CC1Cc2cccc(S(=O)(=O)Nc3cc4c(cc3O)CNCC4)c2N1

>  <score_type>  (44) 
oracle

>  <origin>  (44) 
adgpu

>  <m_score__min__energy>  (44) 
-13.630000000000001

>  <m_primary>  (44) 
energy

$$$$
44:0
     RDKit          3D

 39 41  0  0  0  0  0  0  0  0999 V2000
   -1.2390   26.3370  -28.9720 N   0  0  0  0  0  0  0  0  0  0  0  0
   -0.7210   25.3240  -27.6720 S   0  0  0  0  0  0  0  0  0  0  0  0
   -1.3600   25.8020  -26.3960 O   0  0  0  0  0  0  0  0  0  0  0  0
    0.7730   25.4060  -27.5330 O   0  0  0  0  0  0  0  0  0  0  0  0
   -1.1860   23.6590  -28.0050 C   0  0  0  0  0  0  0  0  0  0  0  0
   -1.0680   22.6730  -27.0210 C   0  0  0  0  0  0  0  0  0  0  0  0
   -1.4450   21.3590  -27.2990 C   0  0  0  0  0  0  0  0  0  0  0  0
   -1.9390   21.0140  -28.5630 C   0  0  0  0  0  0  0  0  0  0  0  0
   -2.3290   19.6990  -28.7770 O   0  0  0  0  0  0  0  0  0  0  0  0
   -2.0510   21.9960  -29.5760 C   0  0  0  0  0  0  0  0  0  0  0  0
   -2.5260   21.6750  -30.9080 N   0  0  0  0  0  0  0  0  0  0  0  0
   -2.2520   20.4000  -31.5580 C   0  0  0  0  0  0  0  0  0  0  0  0
   -2.7140   20.5580  -32.9980 C   0  0  0  0  0  0  0  0  0  0  0  0
   -3.7090   21.7100  -32.9790 C   0  0  0  0  0  0  0  0  0  0  0  0
   -3.3240   22.5560  -31.7640 C   0  0  1  0  0  0  0  0  0  0  0  0
   -4.5610   23.0900  -31.0530 C   0  0  0  0  0  0  0  0  0  0  0  0
   -5.7340   22.3050  -31.0100 C   0  0  0  0  0  0  0  0  0  0  0  0
   -6.8750   22.7610  -30.3490 C   0  0  0  0  0  0  0  0  0  0  0  0
   -6.8760   24.0140  -29.7390 C   0  0  0  0  0  0  0  0  0  0  0  0
   -5.7440   24.8250  -29.8110 C   0  0  0  0  0  0  0  0  0  0  0  0
   -4.5940   24.3900  -30.4810 C   0  0  0  0  0  0  0  0  0  0  0  0
   -3.5220   25.2810  -30.5700 O   0  0  0  0  0  0  0  0  0  0  0  0
   -1.6740   23.3200  -29.2730 C   0  0  0  0  0  0  0  0  0  0  0  0
   -1.5300   25.7080  -29.7530 H   0  0  0  0  0  0  0  0  0  0  0  0
   -0.6774   22.9336  -26.0263 H   0  0  0  0  0  0  0  0  0  0  0  0
   -1.3535   20.5882  -26.5195 H   0  0  0  0  0  0  0  0  0  0  0  0
   -1.1754   20.1768  -31.5240 H   0  0  0  0  0  0  0  0  0  0  0  0
   -2.7721   19.5709  -31.0559 H   0  0  0  0  0  0  0  0  0  0  0  0
   -1.8619   20.7961  -33.6517 H   0  0  0  0  0  0  0  0  0  0  0  0
   -3.1659   19.6334  -33.3865 H   0  0  0  0  0  0  0  0  0  0  0  0
   -3.6296   22.3029  -33.9021 H   0  0  0  0  0  0  0  0  0  0  0  0
   -4.7479   21.3536  -32.9180 H   0  0  0  0  0  0  0  0  0  0  0  0
   -2.7479   23.4486  -32.0492 H   0  0  0  0  0  0  0  0  0  0  0  0
   -5.7484   21.3221  -31.5036 H   0  0  0  0  0  0  0  0  0  0  0  0
   -7.7754   22.1303  -30.3093 H   0  0  0  0  0  0  0  0  0  0  0  0
   -7.7696   24.3632  -29.2008 H   0  0  0  0  0  0  0  0  0  0  0  0
   -5.7545   25.8173  -29.3363 H   0  0  0  0  0  0  0  0  0  0  0  0
   -3.0430   25.6710  -29.7710 H   0  0  0  0  0  0  0  0  0  0  0  0
   -1.7645   24.0989  -30.0445 H   0  0  0  0  0  0  0  0  0  0  0  0
  1  2  1  0
  2  3  2  0
  2  4  2  0
  2  5  1  0
  5  6  2  0
  6  7  1  0
  7  8  2  0
  8  9  1  0
  8 10  1  0
 10 11  1  0
 11 12  1  0
 12 13  1  0
 13 14  1  0
 14 15  1  0
 15 16  1  0
 16 17  2  0
 17 18  1  0
 18 19  2  0
 19 20  1  0
 20 21  2  0
 21 22  1  0
 10 23  2  0
 23  5  1  0
 15 11  1  0
 21 16  1  0
  1 24  1  0
  6 25  1  0
  7 26  1  0
 12 27  1  0
 12 28  1  0
 13 29  1  0
 13 30  1  0
 14 31  1  0
 14 32  1  0
 15 33  1  6
 17 34  1  0
 18 35  1  0
 19 36  1  0
 20 37  1  0
 22 38  1  0
 23 39  1  0
M  CHG  2   1  -1   9  -1
M  END
>  <UniqueID>  (45) 
45

>  <SMILES>  (45) 
[NH-]S(=O)(=O)c1ccc([O-])c(N2CCC[C@H]2c2ccccc2O)c1

>  <Energy>  (45) 
48.44336780246967

>  <Genealogy>  (45) 
[NH-]S(=O)(=O)c1ccc([O-])c(N2CCCC2c2ccccc2O)c1 (protonated)
[NH-]S(=O)(=O)c1ccc([O-])c(N2CCC[C@H]2c2ccccc2O)c1 (chirality)
[NH-]S(=O)(=O)c1ccc([O-])c(N2CCC[C@H]2c2ccccc2O)c1 (3D coordinates assigned)
[NH-]S(=O)(=O)c1ccc([O-])c(N2CCC[C@H]2c2ccccc2O)c1 (nonaromatic ring conformer: 48.44336780246967 kcal/mol)

>  <smiles>  (45) 
NS(=O)(=O)c1ccc(O)c(N2CCCC2c2ccccc2O)c1

>  <score_type>  (45) 
oracle

>  <origin>  (45) 
adgpu

>  <m_score__min__energy>  (45) 
-10.91

>  <m_primary>  (45) 
energy

$$$$
45:0
     RDKit          3D

 47 49  0  0  0  0  0  0  0  0999 V2000
   -6.1140   26.0520  -29.6530 C   0  0  0  0  0  0  0  0  0  0  0  0
   -5.9760   24.6800  -30.2580 C   0  0  0  0  0  0  0  0  0  0  0  0
   -7.1260   23.8960  -30.4280 C   0  0  0  0  0  0  0  0  0  0  0  0
   -7.0480   22.6390  -31.0330 C   0  0  0  0  0  0  0  0  0  0  0  0
   -5.8170   22.1430  -31.4900 C   0  0  0  0  0  0  0  0  0  0  0  0
   -5.7440   20.8120  -32.1390 C   0  0  0  0  0  0  0  0  0  0  0  0
   -6.3420   19.8320  -31.6160 O   0  0  0  0  0  0  0  0  0  0  0  0
   -5.0220   20.6290  -33.3680 N   0  0  0  0  0  0  0  0  0  0  0  0
   -4.7380   19.3250  -33.8990 C   0  0  0  0  0  0  0  0  0  0  0  0
   -5.7910   18.5890  -34.4550 C   0  0  0  0  0  0  0  0  0  0  0  0
   -5.5750   17.3060  -34.9500 C   0  0  0  0  0  0  0  0  0  0  0  0
   -4.3020   16.7390  -34.8920 C   0  0  0  0  0  0  0  0  0  0  0  0
   -3.2230   17.4570  -34.3520 C   0  0  0  0  0  0  0  0  0  0  0  0
   -1.8640   16.8070  -34.3210 C   0  0  0  0  0  0  0  0  0  0  0  0
   -3.4250   18.7850  -33.8930 C   0  0  0  0  0  0  0  0  0  0  0  0
   -2.2590   19.6100  -33.3970 C   0  0  0  0  0  0  0  0  0  0  0  0
   -4.6580   22.9140  -31.2940 C   0  0  0  0  0  0  0  0  0  0  0  0
   -4.7220   24.1600  -30.6560 C   0  0  0  0  0  0  0  0  0  0  0  0
   -3.5030   24.8900  -30.4690 N   0  0  0  0  0  0  0  0  0  0  0  0
   -2.5100   24.5590  -29.4900 C   0  0  0  0  0  0  0  0  0  0  0  0
   -1.8210   25.4750  -28.9640 O   0  0  0  0  0  0  0  0  0  0  0  0
   -2.3160   23.1520  -29.0730 C   0  0  0  0  0  0  0  0  0  0  0  0
   -3.0090   22.6270  -27.9680 C   0  0  0  0  0  0  0  0  0  0  0  0
   -2.8140   21.2990  -27.5830 C   0  0  0  0  0  0  0  0  0  0  0  0
   -1.9280   20.5010  -28.3060 C   0  0  0  0  0  0  0  0  0  0  0  0
   -1.2630   21.0170  -29.3730 N   0  0  0  0  0  0  0  0  0  0  0  0
   -1.4340   22.3070  -29.7680 C   0  0  0  0  0  0  0  0  0  0  0  0
   -6.1059   25.9715  -28.5560 H   0  0  0  0  0  0  0  0  0  0  0  0
   -5.2748   26.6833  -29.9805 H   0  0  0  0  0  0  0  0  0  0  0  0
   -7.0621   26.5035  -29.9805 H   0  0  0  0  0  0  0  0  0  0  0  0
   -8.0991   24.2743  -30.0817 H   0  0  0  0  0  0  0  0  0  0  0  0
   -7.9585   22.0333  -31.1521 H   0  0  0  0  0  0  0  0  0  0  0  0
   -4.9080   21.4480  -34.0050 H   0  0  0  0  0  0  0  0  0  0  0  0
   -6.7983   19.0285  -34.5012 H   0  0  0  0  0  0  0  0  0  0  0  0
   -6.4095   16.7385  -35.3876 H   0  0  0  0  0  0  0  0  0  0  0  0
   -4.1418   15.7196  -35.2730 H   0  0  0  0  0  0  0  0  0  0  0  0
   -1.5525   16.6580  -33.2766 H   0  0  0  0  0  0  0  0  0  0  0  0
   -1.9112   15.8340  -34.8319 H   0  0  0  0  0  0  0  0  0  0  0  0
   -1.1361   17.4545  -34.8319 H   0  0  0  0  0  0  0  0  0  0  0  0
   -2.2540   19.6136  -32.2970 H   0  0  0  0  0  0  0  0  0  0  0  0
   -1.3186   19.1751  -33.7666 H   0  0  0  0  0  0  0  0  0  0  0  0
   -2.3561   20.6415  -33.7666 H   0  0  0  0  0  0  0  0  0  0  0  0
   -3.6877   22.5341  -31.6462 H   0  0  0  0  0  0  0  0  0  0  0  0
   -3.7069   23.2643  -27.4051 H   0  0  0  0  0  0  0  0  0  0  0  0
   -3.3539   20.8864  -26.7180 H   0  0  0  0  0  0  0  0  0  0  0  0
   -1.7672   19.4531  -28.0125 H   0  0  0  0  0  0  0  0  0  0  0  0
   -0.8788   22.6912  -30.6364 H   0  0  0  0  0  0  0  0  0  0  0  0
  1  2  1  0
  2  3  2  0
  3  4  1  0
  4  5  2  0
  5  6  1  0
  6  7  2  0
  6  8  1  0
  8  9  1  0
  9 10  2  0
 10 11  1  0
 11 12  2  0
 12 13  1  0
 13 14  1  0
 13 15  2  0
 15 16  1  0
  5 17  1  0
 17 18  2  0
 18 19  1  0
 19 20  1  0
 20 21  2  0
 20 22  1  0
 22 23  2  0
 23 24  1  0
 24 25  2  0
 25 26  1  0
 26 27  2  0
 18  2  1  0
 27 22  1  0
 15  9  1  0
  1 28  1  0
  1 29  1  0
  1 30  1  0
  3 31  1  0
  4 32  1  0
  8 33  1  0
 10 34  1  0
 11 35  1  0
 12 36  1  0
 14 37  1  0
 14 38  1  0
 14 39  1  0
 16 40  1  0
 16 41  1  0
 16 42  1  0
 17 43  1  0
 23 44  1  0
 24 45  1  0
 25 46  1  0
 27 47  1  0
M  CHG  1  19  -1
M  END
>  <UniqueID>  (46) 
46

>  <SMILES>  (46) 
Cc1ccc(C(=O)Nc2cccc(C)c2C)cc1[N-]C(=O)c1cccnc1

>  <Energy>  (46) 
67.01043052379448

>  <Genealogy>  (46) 
Cc1ccc(C(=O)Nc2cccc(C)c2C)cc1[N-]C(=O)c1cccnc1 (protonated)
Cc1ccc(C(=O)Nc2cccc(C)c2C)cc1[N-]C(=O)c1cccnc1 (3D coordinates assigned)
Cc1ccc(C(=O)Nc2cccc(C)c2C)cc1[N-]C(=O)c1cccnc1 (optimized conformer: 67.01043052379448 kcal/mol)

>  <smiles>  (46) 
Cc1ccc(C(=O)Nc2cccc(C)c2C)cc1NC(=O)c1cccnc1

>  <score_type>  (46) 
oracle

>  <origin>  (46) 
adgpu

>  <m_score__min__energy>  (46) 
-10.59

>  <m_primary>  (46) 
energy

$$$$
46:0
     RDKit          3D

 62 65  0  0  0  0  0  0  0  0999 V2000
   -6.5470   17.8490  -31.6140 C   0  0  0  0  0  0  0  0  0  0  0  0
   -7.1310   18.3090  -32.9470 C   0  0  0  0  0  0  0  0  0  0  0  0
   -6.0540   18.6820  -33.9300 C   0  0  0  0  0  0  0  0  0  0  0  0
   -6.1120   18.2310  -35.1070 O   0  0  0  0  0  0  0  0  0  0  0  0
   -5.0200   19.6160  -33.5690 N   0  0  0  0  0  0  0  0  0  0  0  0
   -3.5840   19.3310  -33.6620 C   0  0  0  0  0  0  0  0  0  0  0  0
   -2.8690   20.4310  -32.8420 C   0  0  0  0  0  0  0  0  0  0  0  0
   -3.9850   21.3080  -32.3980 C   0  0  0  0  0  0  0  0  0  0  0  0
   -3.9010   22.4790  -31.6440 C   0  0  0  0  0  0  0  0  0  0  0  0
   -5.0870   23.1750  -31.3440 C   0  0  0  0  0  0  0  0  0  0  0  0
   -5.0330   24.6000  -30.3130 S   0  0  0  0  0  0  0  0  0  0  0  0
   -4.2530   25.6760  -31.0130 O   0  0  0  0  0  0  0  0  0  0  0  0
   -6.4260   25.1090  -30.0680 O   0  0  0  0  0  0  0  0  0  0  0  0
   -4.2770   24.2560  -28.7900 N   0  0  0  0  0  0  0  0  0  0  0  0
   -3.0050   23.6110  -28.6760 C   0  0  0  0  0  0  0  0  0  0  0  0
   -2.9120   22.2550  -28.3250 C   0  0  0  0  0  0  0  0  0  0  0  0
   -1.6600   21.6320  -28.1960 C   0  0  0  0  0  0  0  0  0  0  0  0
   -1.5820   20.2140  -27.7750 C   0  0  0  0  0  0  0  0  0  0  0  0
   -2.3940   19.7880  -26.9090 O   0  0  0  0  0  0  0  0  0  0  0  0
   -0.6020   19.3120  -28.3250 N   0  0  0  0  0  0  0  0  0  0  0  0
   -0.1110   18.1980  -27.5070 C   0  0  0  0  0  0  0  0  0  0  0  0
    1.1030   17.5410  -28.1720 C   0  0  0  0  0  0  0  0  0  0  0  0
    0.7980   17.0890  -29.5450 N   0  0  0  0  0  0  0  0  0  0  0  0
    2.2770   16.7350  -30.4060 S   0  0  0  0  0  0  0  0  0  0  0  0
    2.7490   15.0240  -30.2300 C   0  0  0  0  0  0  0  0  0  0  0  0
    3.3810   17.6010  -29.8670 O   0  0  0  0  0  0  0  0  0  0  0  0
    2.0960   17.0420  -31.8680 O   0  0  0  0  0  0  0  0  0  0  0  0
   -0.0820   17.9940  -30.3280 C   0  0  0  0  0  0  0  0  0  0  0  0
   -0.1900   19.4030  -29.7310 C   0  0  0  0  0  0  0  0  0  0  0  0
   -0.4960   22.3820  -28.4330 C   0  0  0  0  0  0  0  0  0  0  0  0
   -0.5870   23.7200  -28.8260 C   0  0  0  0  0  0  0  0  0  0  0  0
   -1.8360   24.3320  -28.9550 C   0  0  0  0  0  0  0  0  0  0  0  0
   -1.9120   25.6650  -29.3420 O   0  0  0  0  0  0  0  0  0  0  0  0
   -6.3240   22.6890  -31.8200 C   0  0  0  0  0  0  0  0  0  0  0  0
   -6.3800   21.5050  -32.5730 C   0  0  0  0  0  0  0  0  0  0  0  0
   -5.1870   20.8180  -32.8280 C   0  0  0  0  0  0  0  0  0  0  0  0
   -7.1182   18.2990  -30.7886 H   0  0  0  0  0  0  0  0  0  0  0  0
   -6.6067   16.7527  -31.5463 H   0  0  0  0  0  0  0  0  0  0  0  0
   -5.4952   18.1638  -31.5463 H   0  0  0  0  0  0  0  0  0  0  0  0
   -7.7340   17.4931  -33.3721 H   0  0  0  0  0  0  0  0  0  0  0  0
   -7.7476   19.2007  -32.7607 H   0  0  0  0  0  0  0  0  0  0  0  0
   -3.3646   18.3388  -33.2409 H   0  0  0  0  0  0  0  0  0  0  0  0
   -3.2440   19.3275  -34.7081 H   0  0  0  0  0  0  0  0  0  0  0  0
   -2.3407   19.9986  -31.9795 H   0  0  0  0  0  0  0  0  0  0  0  0
   -2.1031   20.9689  -33.4200 H   0  0  0  0  0  0  0  0  0  0  0  0
   -2.9277   22.8507  -31.2912 H   0  0  0  0  0  0  0  0  0  0  0  0
   -3.8295   21.6743  -28.1491 H   0  0  0  0  0  0  0  0  0  0  0  0
    0.1795   18.5767  -26.5159 H   0  0  0  0  0  0  0  0  0  0  0  0
   -0.9110   17.4497  -27.4064 H   0  0  0  0  0  0  0  0  0  0  0  0
    1.9255   18.2703  -28.2116 H   0  0  0  0  0  0  0  0  0  0  0  0
    1.3844   16.6601  -27.5763 H   0  0  0  0  0  0  0  0  0  0  0  0
    2.8188   14.7709  -29.1618 H   0  0  0  0  0  0  0  0  0  0  0  0
    1.9938   14.3841  -30.7098 H   0  0  0  0  0  0  0  0  0  0  0  0
    3.7254   14.8618  -30.7098 H   0  0  0  0  0  0  0  0  0  0  0  0
    0.3218   18.0771  -31.3478 H   0  0  0  0  0  0  0  0  0  0  0  0
   -1.0915   17.5571  -30.3157 H   0  0  0  0  0  0  0  0  0  0  0  0
    0.7876   19.9033  -29.7943 H   0  0  0  0  0  0  0  0  0  0  0  0
   -0.9371   19.9818  -30.2938 H   0  0  0  0  0  0  0  0  0  0  0  0
    0.4916   21.9139  -28.3087 H   0  0  0  0  0  0  0  0  0  0  0  0
    0.3283   24.2933  -29.0345 H   0  0  0  0  0  0  0  0  0  0  0  0
   -7.2496   23.2411  -31.5997 H   0  0  0  0  0  0  0  0  0  0  0  0
   -7.3397   21.1258  -32.9540 H   0  0  0  0  0  0  0  0  0  0  0  0
  1  2  1  0
  2  3  1  0
  3  4  2  0
  3  5  1  0
  5  6  1  0
  6  7  1  0
  7  8  1  0
  8  9  2  0
  9 10  1  0
 10 11  1  0
 11 12  2  0
 11 13  2  0
 11 14  1  0
 14 15  1  0
 15 16  2  0
 16 17  1  0
 17 18  1  0
 18 19  2  0
 18 20  1  0
 20 21  1  0
 21 22  1  0
 22 23  1  0
 23 24  1  0
 24 25  1  0
 24 26  2  0
 24 27  2  0
 23 28  1  0
 28 29  1  0
 17 30  2  0
 30 31  1  0
 31 32  2  0
 32 33  1  0
 10 34  2  0
 34 35  1  0
 35 36  2  0
 36  5  1  0
 36  8  1  0
 32 15  1  0
 29 20  1  0
  1 37  1  0
  1 38  1  0
  1 39  1  0
  2 40  1  0
  2 41  1  0
  6 42  1  0
  6 43  1  0
  7 44  1  0
  7 45  1  0
  9 46  1  0
 16 47  1  0
 21 48  1  0
 21 49  1  0
 22 50  1  0
 22 51  1  0
 25 52  1  0
 25 53  1  0
 25 54  1  0
 28 55  1  0
 28 56  1  0
 29 57  1  0
 29 58  1  0
 30 59  1  0
 31 60  1  0
 34 61  1  0
 35 62  1  0
M  CHG  2  14  -1  33  -1
M  END
>  <UniqueID>  (47) 
47

>  <SMILES>  (47) 
CCC(=O)N1CCc2cc(S(=O)(=O)[N-]c3cc(C(=O)N4CCN(S(C)(=O)=O)CC4)ccc3[O-])ccc21

>  <Energy>  (47) 
90.99138577252776

>  <Genealogy>  (47) 
CCC(=O)N1CCc2cc(S(=O)(=O)[N-]c3cc(C(=O)N4CCN(S(C)(=O)=O)CC4)ccc3[O-])ccc21 (protonated)
CCC(=O)N1CCc2cc(S(=O)(=O)[N-]c3cc(C(=O)N4CCN(S(C)(=O)=O)CC4)ccc3[O-])ccc21 (3D coordinates assigned)
CCC(=O)N1CCc2cc(S(=O)(=O)[N-]c3cc(C(=O)N4CCN(S(C)(=O)=O)CC4)ccc3[O-])ccc21 (nonaromatic ring conformer: 90.99138577252776 kcal/mol)

>  <smiles>  (47) 
CCC(=O)N1CCc2cc(S(=O)(=O)Nc3cc(C(=O)N4CCN(S(C)(=O)=O)CC4)ccc3O)ccc21

>  <score_type>  (47) 
oracle

>  <origin>  (47) 
adgpu

>  <m_score__min__energy>  (47) 
-15.710000000000001

>  <m_primary>  (47) 
energy

$$$$
47:0
     RDKit          3D

 53 55  0  0  0  0  0  0  0  0999 V2000
   -5.9910   24.9720  -29.7950 O   0  0  0  0  0  0  0  0  0  0  0  0
   -4.8320   24.4200  -30.5740 S   0  0  0  0  0  0  0  0  0  0  0  0
   -3.8570   25.5360  -30.8370 O   0  0  0  0  0  0  0  0  0  0  0  0
   -5.4070   23.7760  -32.0790 N   0  0  0  0  0  0  0  0  0  0  0  0
   -6.8690   23.7790  -32.0920 C   0  0  0  0  0  0  0  0  0  0  0  0
   -7.4030   22.6580  -31.1980 C   0  0  0  0  0  0  0  0  0  0  0  0
   -6.8570   21.2850  -31.6130 C   0  0  0  0  0  0  0  0  0  0  0  0
   -7.6590   20.7410  -32.7350 N   0  0  0  0  0  0  0  0  0  0  0  0
   -9.0030   20.2890  -32.3010 C   0  0  0  0  0  0  0  0  0  0  0  0
   -9.0260   18.7950  -31.9110 C   0  0  0  0  0  0  0  0  0  0  0  0
   -7.7450   18.3670  -31.5020 O   0  0  0  0  0  0  0  0  0  0  0  0
   -6.8540   18.3750  -32.6040 C   0  0  0  0  0  0  0  0  0  0  0  0
   -6.9510   19.6650  -33.4550 C   0  0  0  0  0  0  0  0  0  0  0  0
   -4.0660   23.1420  -29.6350 C   0  0  0  0  0  0  0  0  0  0  0  0
   -3.4230   22.0710  -30.2720 C   0  0  0  0  0  0  0  0  0  0  0  0
   -2.8430   21.0490  -29.5160 C   0  0  0  0  0  0  0  0  0  0  0  0
   -2.9050   21.0850  -28.1160 C   0  0  0  0  0  0  0  0  0  0  0  0
   -2.1550   19.8100  -27.1610 S   0  0  0  0  0  0  0  0  0  0  0  0
   -1.5810   20.4050  -25.9050 O   0  0  0  0  0  0  0  0  0  0  0  0
   -3.1930   18.7920  -26.7750 O   0  0  0  0  0  0  0  0  0  0  0  0
   -0.8770   19.0670  -28.0880 N   0  0  0  0  0  0  0  0  0  0  0  0
   -0.3440   17.8880  -27.4080 C   0  0  0  0  0  0  0  0  0  0  0  0
    1.0940   17.7300  -27.8790 C   0  0  0  0  0  0  0  0  0  0  0  0
    1.4950   19.0990  -28.4070 C   0  0  0  0  0  0  0  0  0  0  0  0
    0.2600   19.9730  -28.2480 C   0  0  0  0  0  0  0  0  0  0  0  0
   -3.5450   22.1580  -27.4800 C   0  0  0  0  0  0  0  0  0  0  0  0
   -4.1270   23.1780  -28.2360 C   0  0  0  0  0  0  0  0  0  0  0  0
   -7.2345   24.7473  -31.7195 H   0  0  0  0  0  0  0  0  0  0  0  0
   -7.2211   23.6182  -33.1216 H   0  0  0  0  0  0  0  0  0  0  0  0
   -7.1049   22.8597  -30.1585 H   0  0  0  0  0  0  0  0  0  0  0  0
   -8.4981   22.6339  -31.2993 H   0  0  0  0  0  0  0  0  0  0  0  0
   -5.8092   21.3901  -31.9310 H   0  0  0  0  0  0  0  0  0  0  0  0
   -6.9186   20.5970  -30.7569 H   0  0  0  0  0  0  0  0  0  0  0  0
   -9.3120   20.8859  -31.4302 H   0  0  0  0  0  0  0  0  0  0  0  0
   -9.6914   20.4243  -33.1483 H   0  0  0  0  0  0  0  0  0  0  0  0
   -9.7368   18.6484  -31.0844 H   0  0  0  0  0  0  0  0  0  0  0  0
   -9.3331   18.2052  -32.7872 H   0  0  0  0  0  0  0  0  0  0  0  0
   -5.8260   18.2832  -32.2235 H   0  0  0  0  0  0  0  0  0  0  0  0
   -7.1296   17.5318  -33.2544 H   0  0  0  0  0  0  0  0  0  0  0  0
   -5.9349   20.0082  -33.6995 H   0  0  0  0  0  0  0  0  0  0  0  0
   -7.5184   19.4320  -34.3681 H   0  0  0  0  0  0  0  0  0  0  0  0
   -3.3750   22.0353  -31.3704 H   0  0  0  0  0  0  0  0  0  0  0  0
   -2.3361   20.2135  -30.0210 H   0  0  0  0  0  0  0  0  0  0  0  0
   -0.3730   18.0326  -26.3179 H   0  0  0  0  0  0  0  0  0  0  0  0
   -0.9390   16.9924  -27.6401 H   0  0  0  0  0  0  0  0  0  0  0  0
    1.7435   17.4343  -27.0419 H   0  0  0  0  0  0  0  0  0  0  0  0
    1.1908   16.9491  -28.6476 H   0  0  0  0  0  0  0  0  0  0  0  0
    2.3325   19.5066  -27.8218 H   0  0  0  0  0  0  0  0  0  0  0  0
    1.8293   19.0510  -29.4539 H   0  0  0  0  0  0  0  0  0  0  0  0
    0.3613   20.6149  -27.3605 H   0  0  0  0  0  0  0  0  0  0  0  0
    0.1240   20.6290  -29.1204 H   0  0  0  0  0  0  0  0  0  0  0  0
   -3.5889   22.1967  -26.3816 H   0  0  0  0  0  0  0  0  0  0  0  0
   -4.6352   24.0127  -27.7310 H   0  0  0  0  0  0  0  0  0  0  0  0
  1  2  2  0
  2  3  2  0
  2  4  1  0
  4  5  1  0
  5  6  1  0
  6  7  1  0
  7  8  1  0
  8  9  1  0
  9 10  1  0
 10 11  1  0
 11 12  1  0
 12 13  1  0
  2 14  1  0
 14 15  2  0
 15 16  1  0
 16 17  2  0
 17 18  1  0
 18 19  2  0
 18 20  2  0
 18 21  1  0
 21 22  1  0
 22 23  1  0
 23 24  1  0
 24 25  1  0
 17 26  1  0
 26 27  2  0
 13  8  1  0
 27 14  1  0
 25 21  1  0
  5 28  1  0
  5 29  1  0
  6 30  1  0
  6 31  1  0
  7 32  1  0
  7 33  1  0
  9 34  1  0
  9 35  1  0
 10 36  1  0
 10 37  1  0
 12 38  1  0
 12 39  1  0
 13 40  1  0
 13 41  1  0
 15 42  1  0
 16 43  1  0
 22 44  1  0
 22 45  1  0
 23 46  1  0
 23 47  1  0
 24 48  1  0
 24 49  1  0
 25 50  1  0
 25 51  1  0
 26 52  1  0
 27 53  1  0
M  CHG  1   4  -1
M  END
>  <UniqueID>  (48) 
48

>  <SMILES>  (48) 
O=S(=O)([N-]CCCN1CCOCC1)c1ccc(S(=O)(=O)N2CCCC2)cc1

>  <Energy>  (48) 
59.55005988378642

>  <Genealogy>  (48) 
O=S(=O)([N-]CCCN1CCOCC1)c1ccc(S(=O)(=O)N2CCCC2)cc1 (protonated)
O=S(=O)([N-]CCCN1CCOCC1)c1ccc(S(=O)(=O)N2CCCC2)cc1 (3D coordinates assigned)
O=S(=O)([N-]CCCN1CCOCC1)c1ccc(S(=O)(=O)N2CCCC2)cc1 (nonaromatic ring conformer: 59.55005988378642 kcal/mol)

>  <smiles>  (48) 
O=S(=O)(NCCCN1CCOCC1)c1ccc(S(=O)(=O)N2CCCC2)cc1

>  <score_type>  (48) 
oracle

>  <origin>  (48) 
adgpu

>  <m_score__min__energy>  (48) 
-10.460000000000001

>  <m_primary>  (48) 
energy

$$$$
48:0
     RDKit          3D

 58 61  0  0  0  0  0  0  0  0999 V2000
   -0.8200   20.4420  -35.3420 O   0  0  0  0  0  0  0  0  0  0  0  0
   -0.8770   19.7520  -34.2880 C   0  0  0  0  0  0  0  0  0  0  0  0
   -0.2870   20.2720  -33.0850 N   0  0  0  0  0  0  0  0  0  0  0  0
   -1.0080   20.8210  -31.9700 C   0  0  0  0  0  0  0  0  0  0  0  0
   -0.4450   20.7060  -30.6910 C   0  0  0  0  0  0  0  0  0  0  0  0
   -1.1220   21.1920  -29.5670 C   0  0  0  0  0  0  0  0  0  0  0  0
   -2.3680   21.8050  -29.7120 C   0  0  0  0  0  0  0  0  0  0  0  0
   -2.9290   21.9540  -30.9850 C   0  0  0  0  0  0  0  0  0  0  0  0
   -2.2470   21.4940  -32.1210 C   0  0  0  0  0  0  0  0  0  0  0  0
   -2.8040   21.7600  -33.3720 O   0  0  0  0  0  0  0  0  0  0  0  0
   -1.5430   18.4320  -34.3220 C   0  0  0  0  0  0  0  0  0  0  0  0
   -0.8020   17.2470  -34.1570 C   0  0  0  0  0  0  0  0  0  0  0  0
   -1.4440   16.0010  -34.1790 C   0  0  0  0  0  0  0  0  0  0  0  0
   -2.8300   15.9290  -34.3390 C   0  0  0  0  0  0  0  0  0  0  0  0
   -3.5750   17.1050  -34.5010 C   0  0  0  0  0  0  0  0  0  0  0  0
   -4.9930   17.0380  -34.6260 N   0  0  0  0  0  0  0  0  0  0  0  0
   -5.9970   17.0480  -33.2190 S   0  0  0  0  0  0  0  0  0  0  0  0
   -7.2330   16.2300  -33.4760 O   0  0  0  0  0  0  0  0  0  0  0  0
   -5.2440   16.4370  -32.0690 O   0  0  0  0  0  0  0  0  0  0  0  0
   -6.4390   18.7050  -32.8130 C   0  0  0  0  0  0  0  0  0  0  0  0
   -7.7520   19.0140  -32.4180 C   0  0  0  0  0  0  0  0  0  0  0  0
   -8.1070   20.3340  -32.1240 C   0  0  0  0  0  0  0  0  0  0  0  0
   -7.1570   21.3630  -32.2350 C   0  0  0  0  0  0  0  0  0  0  0  0
   -7.6000   23.0320  -31.8600 S   0  0  0  0  0  0  0  0  0  0  0  0
   -9.0890   23.1850  -32.0180 O   0  0  0  0  0  0  0  0  0  0  0  0
   -6.9350   23.9570  -32.8430 O   0  0  0  0  0  0  0  0  0  0  0  0
   -7.1440   23.4950  -30.2350 N   0  0  0  0  0  0  0  0  0  0  0  0
   -7.0820   24.9610  -30.0530 C   0  0  0  0  0  0  0  0  0  0  0  0
   -5.7170   25.5760  -30.4220 C   0  0  0  0  0  0  0  0  0  0  0  0
   -4.5110   24.7120  -30.0080 C   0  0  0  0  0  0  0  0  0  0  0  0
   -4.9120   23.5850  -29.0610 C   0  0  0  0  0  0  0  0  0  0  0  0
   -5.9900   22.7180  -29.7200 C   0  0  0  0  0  0  0  0  0  0  0  0
   -5.8440   21.0500  -32.6250 C   0  0  0  0  0  0  0  0  0  0  0  0
   -5.4910   19.7310  -32.9250 C   0  0  0  0  0  0  0  0  0  0  0  0
   -2.9310   18.3510  -34.5150 C   0  0  0  0  0  0  0  0  0  0  0  0
    0.5388   20.2289  -30.5700 H   0  0  0  0  0  0  0  0  0  0  0  0
   -0.6721   21.0910  -28.5683 H   0  0  0  0  0  0  0  0  0  0  0  0
   -2.9081   22.1705  -28.8262 H   0  0  0  0  0  0  0  0  0  0  0  0
   -3.9119   22.4353  -31.0957 H   0  0  0  0  0  0  0  0  0  0  0  0
   -2.3360   21.5440  -34.2420 H   0  0  0  0  0  0  0  0  0  0  0  0
    0.2869   17.2988  -34.0100 H   0  0  0  0  0  0  0  0  0  0  0  0
   -0.8553   15.0782  -34.0701 H   0  0  0  0  0  0  0  0  0  0  0  0
   -3.3352   14.9519  -34.3378 H   0  0  0  0  0  0  0  0  0  0  0  0
   -8.5032   18.2142  -32.3399 H   0  0  0  0  0  0  0  0  0  0  0  0
   -9.1334   20.5676  -31.8048 H   0  0  0  0  0  0  0  0  0  0  0  0
   -7.8532   25.4223  -30.6874 H   0  0  0  0  0  0  0  0  0  0  0  0
   -7.2440   25.1585  -28.9831 H   0  0  0  0  0  0  0  0  0  0  0  0
   -5.6840   25.7170  -31.5124 H   0  0  0  0  0  0  0  0  0  0  0  0
   -5.6346   26.5244  -29.8709 H   0  0  0  0  0  0  0  0  0  0  0  0
   -4.0617   24.2736  -30.9113 H   0  0  0  0  0  0  0  0  0  0  0  0
   -3.7949   25.3595  -29.4808 H   0  0  0  0  0  0  0  0  0  0  0  0
   -4.0314   22.9656  -28.8357 H   0  0  0  0  0  0  0  0  0  0  0  0
   -5.3084   24.0148  -28.1293 H   0  0  0  0  0  0  0  0  0  0  0  0
   -5.5336   22.1747  -30.5606 H   0  0  0  0  0  0  0  0  0  0  0  0
   -6.3774   22.0403  -28.9450 H   0  0  0  0  0  0  0  0  0  0  0  0
   -5.0895   21.8474  -32.6947 H   0  0  0  0  0  0  0  0  0  0  0  0
   -4.4663   19.4978  -33.2499 H   0  0  0  0  0  0  0  0  0  0  0  0
   -3.5159   19.2682  -34.6779 H   0  0  0  0  0  0  0  0  0  0  0  0
  1  2  2  0
  2  3  1  0
  3  4  1  0
  4  5  2  0
  5  6  1  0
  6  7  2  0
  7  8  1  0
  8  9  2  0
  9 10  1  0
  2 11  1  0
 11 12  2  0
 12 13  1  0
 13 14  2  0
 14 15  1  0
 15 16  1  0
 16 17  1  0
 17 18  2  0
 17 19  2  0
 17 20  1  0
 20 21  2  0
 21 22  1  0
 22 23  2  0
 23 24  1  0
 24 25  2  0
 24 26  2  0
 24 27  1  0
 27 28  1  0
 28 29  1  0
 29 30  1  0
 30 31  1  0
 31 32  1  0
 23 33  1  0
 33 34  2  0
 15 35  2  0
  9  4  1  0
 35 11  1  0
 34 20  1  0
 32 27  1  0
  5 36  1  0
  6 37  1  0
  7 38  1  0
  8 39  1  0
 10 40  1  0
 12 41  1  0
 13 42  1  0
 14 43  1  0
 21 44  1  0
 22 45  1  0
 28 46  1  0
 28 47  1  0
 29 48  1  0
 29 49  1  0
 30 50  1  0
 30 51  1  0
 31 52  1  0
 31 53  1  0
 32 54  1  0
 32 55  1  0
 33 56  1  0
 34 57  1  0
 35 58  1  0
M  CHG  2   3  -1  16  -1
M  END
>  <UniqueID>  (49) 
49

>  <SMILES>  (49) 
O=C([N-]c1ccccc1O)c1cccc([N-]S(=O)(=O)c2ccc(S(=O)(=O)N3CCCCC3)cc2)c1

>  <Energy>  (49) 
84.52219504777246

>  <Genealogy>  (49) 
O=C([N-]c1ccccc1O)c1cccc([N-]S(=O)(=O)c2ccc(S(=O)(=O)N3CCCCC3)cc2)c1 (protonated)
O=C([N-]c1ccccc1O)c1cccc([N-]S(=O)(=O)c2ccc(S(=O)(=O)N3CCCCC3)cc2)c1 (3D coordinates assigned)
O=C([N-]c1ccccc1O)c1cccc([N-]S(=O)(=O)c2ccc(S(=O)(=O)N3CCCCC3)cc2)c1 (nonaromatic ring conformer: 84.52219504777246 kcal/mol)

>  <smiles>  (49) 
O=C(Nc1ccccc1O)c1cccc(NS(=O)(=O)c2ccc(S(=O)(=O)N3CCCCC3)cc2)c1

>  <score_type>  (49) 
oracle

>  <origin>  (49) 
adgpu

>  <m_score__min__energy>  (49) 
-12.779999999999999

>  <m_primary>  (49) 
energy

$$$$
49:0
     RDKit          3D

 57 59  0  0  0  0  0  0  0  0999 V2000
   -0.4060   22.3380  -26.2620 C   0  0  0  0  0  0  0  0  0  0  0  0
   -1.2410   23.1320  -27.2260 C   0  0  0  0  0  0  0  0  0  0  0  0
   -0.8070   24.3930  -27.6650 C   0  0  0  0  0  0  0  0  0  0  0  0
   -1.5540   25.1100  -28.6030 C   0  0  0  0  0  0  0  0  0  0  0  0
   -2.7420   24.5740  -29.1080 C   0  0  0  0  0  0  0  0  0  0  0  0
   -3.4910   25.2890  -29.9890 N   0  0  0  0  0  0  0  0  0  0  0  0
   -4.6600   24.8150  -30.4960 C   0  0  0  0  0  0  0  0  0  0  0  0
   -5.3270   25.5430  -31.2820 O   0  0  0  0  0  0  0  0  0  0  0  0
   -5.1210   23.5320  -30.1290 C   0  0  0  0  0  0  0  0  0  0  0  0
   -6.4280   22.9740  -30.6510 C   0  0  0  0  0  0  0  0  0  0  0  0
   -6.2860   21.6010  -31.2100 N   0  0  2  0  0  0  0  0  0  0  0  0
   -5.8520   21.6390  -32.6370 C   0  0  0  0  0  0  0  0  0  0  0  0
   -4.7420   20.6590  -32.9850 C   0  0  0  0  0  0  0  0  0  0  0  0
   -3.3720   20.7780  -32.7470 C   0  0  0  0  0  0  0  0  0  0  0  0
   -2.6440   21.9240  -32.1190 C   0  0  0  0  0  0  0  0  0  0  0  0
   -2.7320   19.6770  -33.1900 N   0  0  0  0  0  0  0  0  0  0  0  0
   -3.6360   18.8740  -33.7250 N   0  0  0  0  0  0  0  0  0  0  0  0
   -3.3060   17.5900  -34.3320 C   0  0  0  0  0  0  0  0  0  0  0  0
   -4.8600   19.4350  -33.6430 C   0  0  0  0  0  0  0  0  0  0  0  0
   -6.0930   18.8300  -34.2500 C   0  0  0  0  0  0  0  0  0  0  0  0
   -7.5210   20.7820  -31.0320 C   0  0  0  0  0  0  0  0  0  0  0  0
   -8.5070   20.8830  -32.2300 C   0  0  0  0  0  0  0  0  0  0  0  0
   -9.1440   19.5140  -32.5060 C   0  0  0  0  0  0  0  0  0  0  0  0
   -9.6080   21.9250  -31.9660 C   0  0  0  0  0  0  0  0  0  0  0  0
   -4.3620   22.7790  -29.2180 C   0  0  0  0  0  0  0  0  0  0  0  0
   -3.1740   23.2980  -28.6920 C   0  0  0  0  0  0  0  0  0  0  0  0
   -2.4160   22.5780  -27.7570 C   0  0  0  0  0  0  0  0  0  0  0  0
   -0.6845   22.6028  -25.2313 H   0  0  0  0  0  0  0  0  0  0  0  0
   -0.5800   21.2641  -26.4244 H   0  0  0  0  0  0  0  0  0  0  0  0
    0.6578   22.5658  -26.4244 H   0  0  0  0  0  0  0  0  0  0  0  0
    0.1264   24.8188  -27.2682 H   0  0  0  0  0  0  0  0  0  0  0  0
   -1.2071   26.0966  -28.9442 H   0  0  0  0  0  0  0  0  0  0  0  0
   -7.1527   22.9437  -29.8240 H   0  0  0  0  0  0  0  0  0  0  0  0
   -6.7668   23.6304  -31.4660 H   0  0  0  0  0  0  0  0  0  0  0  0
   -5.4960   21.1420  -30.6980 H   0  0  0  0  0  0  0  0  0  0  0  0
   -6.7236   21.4089  -33.2674 H   0  0  0  0  0  0  0  0  0  0  0  0
   -5.4469   22.6463  -32.8141 H   0  0  0  0  0  0  0  0  0  0  0  0
   -2.6990   21.8374  -31.0238 H   0  0  0  0  0  0  0  0  0  0  0  0
   -1.5907   21.9071  -32.4357 H   0  0  0  0  0  0  0  0  0  0  0  0
   -3.1069   22.8703  -32.4357 H   0  0  0  0  0  0  0  0  0  0  0  0
   -3.1155   16.8490  -33.5417 H   0  0  0  0  0  0  0  0  0  0  0  0
   -4.1466   17.2526  -34.9561 H   0  0  0  0  0  0  0  0  0  0  0  0
   -2.4069   17.6998  -34.9561 H   0  0  0  0  0  0  0  0  0  0  0  0
   -6.7704   18.4976  -33.4496 H   0  0  0  0  0  0  0  0  0  0  0  0
   -6.6015   19.5809  -34.8725 H   0  0  0  0  0  0  0  0  0  0  0  0
   -5.8103   17.9683  -34.8725 H   0  0  0  0  0  0  0  0  0  0  0  0
   -7.2266   19.7291  -30.9105 H   0  0  0  0  0  0  0  0  0  0  0  0
   -8.0446   21.1722  -30.1468 H   0  0  0  0  0  0  0  0  0  0  0  0
   -7.9332   21.2062  -33.1111 H   0  0  0  0  0  0  0  0  0  0  0  0
   -9.3748   19.0179  -31.5517 H   0  0  0  0  0  0  0  0  0  0  0  0
  -10.0711   19.6504  -33.0820 H   0  0  0  0  0  0  0  0  0  0  0  0
   -8.4425   18.8926  -33.0820 H   0  0  0  0  0  0  0  0  0  0  0  0
   -9.7411   22.0510  -30.8814 H   0  0  0  0  0  0  0  0  0  0  0  0
   -9.3176   22.8868  -32.4139 H   0  0  0  0  0  0  0  0  0  0  0  0
  -10.5523   21.5821  -32.4139 H   0  0  0  0  0  0  0  0  0  0  0  0
   -4.7030   21.7774  -28.9170 H   0  0  0  0  0  0  0  0  0  0  0  0
   -2.7432   21.5770  -27.4392 H   0  0  0  0  0  0  0  0  0  0  0  0
  1  2  1  0
  2  3  2  0
  3  4  1  0
  4  5  2  0
  5  6  1  0
  6  7  1  0
  7  8  2  0
  7  9  1  0
  9 10  1  0
 10 11  1  0
 11 12  1  0
 12 13  1  0
 13 14  1  0
 14 15  1  0
 14 16  2  0
 16 17  1  0
 17 18  1  0
 17 19  1  0
 19 20  1  0
 11 21  1  0
 21 22  1  0
 22 23  1  0
 22 24  1  0
  9 25  2  0
 25 26  1  0
 26 27  2  0
 27  2  1  0
 26  5  1  0
 19 13  2  0
  1 28  1  0
  1 29  1  0
  1 30  1  0
  3 31  1  0
  4 32  1  0
 10 33  1  0
 10 34  1  0
 11 35  1  1
 12 36  1  0
 12 37  1  0
 15 38  1  0
 15 39  1  0
 15 40  1  0
 18 41  1  0
 18 42  1  0
 18 43  1  0
 20 44  1  0
 20 45  1  0
 20 46  1  0
 21 47  1  0
 21 48  1  0
 22 49  1  0
 23 50  1  0
 23 51  1  0
 23 52  1  0
 24 53  1  0
 24 54  1  0
 24 55  1  0
 25 56  1  0
 27 57  1  0
M  CHG  2   6  -1  11   1
M  END
>  <UniqueID>  (50) 
50

>  <SMILES>  (50) 
Cc1ccc2[n-]c(=O)c(C[N@H+](Cc3c(C)nn(C)c3C)CC(C)C)cc2c1

>  <Energy>  (50) 
93.15895751578374

>  <Genealogy>  (50) 
Cc1ccc2[n-]c(=O)c(C[NH+](Cc3c(C)nn(C)c3C)CC(C)C)cc2c1 (protonated)
Cc1ccc2[n-]c(=O)c(C[N@H+](Cc3c(C)nn(C)c3C)CC(C)C)cc2c1 (chirality)
Cc1ccc2[n-]c(=O)c(C[N@H+](Cc3c(C)nn(C)c3C)CC(C)C)cc2c1 (3D coordinates assigned)
Cc1ccc2[n-]c(=O)c(C[N@H+](Cc3c(C)nn(C)c3C)CC(C)C)cc2c1 (optimized conformer: 93.15895751578374 kcal/mol)

>  <smiles>  (50) 
Cc1ccc2[nH]c(=O)c(CN(Cc3c(C)nn(C)c3C)CC(C)C)cc2c1

>  <score_type>  (50) 
oracle

>  <origin>  (50) 
adgpu

>  <m_score__min__energy>  (50) 
-9.9900000000000002

>  <m_primary>  (50) 
energy

$$$$
