0:0
     RDKit          3D

 55 58  0  0  0  0  0  0  0  0999 V2000
   -1.1470   26.4420  -23.6400 C   0  0  0  0  0  0  0  0  0  0  0  0
   -1.1830   26.4610  -25.1390 C   0  0  0  0  0  0  0  0  0  0  0  0
   -0.3770   27.3550  -25.8550 C   0  0  0  0  0  0  0  0  0  0  0  0
   -0.3920   27.3530  -27.2500 C   0  0  0  0  0  0  0  0  0  0  0  0
   -1.1960   26.4460  -27.9490 C   0  0  0  0  0  0  0  0  0  0  0  0
   -1.2210   26.5050  -29.3380 O   0  0  0  0  0  0  0  0  0  0  0  0
   -1.9830   25.5100  -27.2440 C   0  0  0  0  0  0  0  0  0  0  0  0
   -2.8290   24.5190  -27.9500 C   0  0  0  0  0  0  0  0  0  0  0  0
   -2.9300   23.3500  -27.4860 O   0  0  0  0  0  0  0  0  0  0  0  0
   -3.4710   24.8520  -29.1910 N   0  0  0  0  0  0  0  0  0  0  0  0
   -4.5870   24.1250  -29.7360 C   0  0  0  0  0  0  0  0  0  0  0  0
   -4.5020   22.7490  -30.0110 C   0  0  0  0  0  0  0  0  0  0  0  0
   -5.6080   22.0610  -30.5190 C   0  0  0  0  0  0  0  0  0  0  0  0
   -6.8130   22.7350  -30.7520 C   0  0  0  0  0  0  0  0  0  0  0  0
   -8.2090   21.8570  -31.3640 S   0  0  0  0  0  0  0  0  0  0  0  0
   -9.1740   21.5740  -30.2460 O   0  0  0  0  0  0  0  0  0  0  0  0
   -8.9200   22.6910  -32.3940 O   0  0  0  0  0  0  0  0  0  0  0  0
   -7.6670   20.3440  -32.0760 C   0  0  0  0  0  0  0  0  0  0  0  0
   -6.7840   20.3480  -33.1630 C   0  0  0  0  0  0  0  0  0  0  0  0
   -6.3390   19.1420  -33.7130 C   0  0  0  0  0  0  0  0  0  0  0  0
   -6.7650   17.9160  -33.1780 C   0  0  0  0  0  0  0  0  0  0  0  0
   -6.3120   16.6750  -33.7540 N   0  0  0  0  0  0  0  0  0  0  0  0
   -4.8850   16.3310  -33.7180 C   0  0  0  0  0  0  0  0  0  0  0  0
   -4.6820   14.8680  -34.1110 C   0  0  0  0  0  0  0  0  0  0  0  0
   -5.7270   14.0870  -33.5710 O   0  0  0  0  0  0  0  0  0  0  0  0
   -6.9290   14.3210  -34.2850 C   0  0  0  0  0  0  0  0  0  0  0  0
   -7.2440   15.8200  -34.5010 C   0  0  0  0  0  0  0  0  0  0  0  0
   -7.6510   17.9170  -32.0870 C   0  0  0  0  0  0  0  0  0  0  0  0
   -8.0940   19.1240  -31.5370 C   0  0  0  0  0  0  0  0  0  0  0  0
   -6.9110   24.1000  -30.4510 C   0  0  0  0  0  0  0  0  0  0  0  0
   -5.8060   24.7880  -29.9430 C   0  0  0  0  0  0  0  0  0  0  0  0
   -1.9730   25.5340  -25.8360 C   0  0  0  0  0  0  0  0  0  0  0  0
   -2.0550   26.9213  -23.2453 H   0  0  0  0  0  0  0  0  0  0  0  0
   -1.0990   25.4011  -23.2875 H   0  0  0  0  0  0  0  0  0  0  0  0
   -0.2605   26.9897  -23.2875 H   0  0  0  0  0  0  0  0  0  0  0  0
    0.2705   28.0616  -25.3152 H   0  0  0  0  0  0  0  0  0  0  0  0
    0.2324   28.0693  -27.8041 H   0  0  0  0  0  0  0  0  0  0  0  0
   -3.0360   25.5980  -29.7800 H   0  0  0  0  0  0  0  0  0  0  0  0
   -3.5607   22.2110  -29.8256 H   0  0  0  0  0  0  0  0  0  0  0  0
   -5.5312   20.9855  -30.7366 H   0  0  0  0  0  0  0  0  0  0  0  0
   -6.4393   21.3033  -33.5856 H   0  0  0  0  0  0  0  0  0  0  0  0
   -5.6504   19.1539  -34.5707 H   0  0  0  0  0  0  0  0  0  0  0  0
   -4.3385   16.9752  -34.4226 H   0  0  0  0  0  0  0  0  0  0  0  0
   -4.5059   16.4831  -32.6966 H   0  0  0  0  0  0  0  0  0  0  0  0
   -4.6862   14.7787  -35.2074 H   0  0  0  0  0  0  0  0  0  0  0  0
   -3.7178   14.5129  -33.7183 H   0  0  0  0  0  0  0  0  0  0  0  0
   -6.8471   13.8382  -35.2700 H   0  0  0  0  0  0  0  0  0  0  0  0
   -7.7479   13.9051  -33.6796 H   0  0  0  0  0  0  0  0  0  0  0  0
   -7.1624   16.0523  -35.5731 H   0  0  0  0  0  0  0  0  0  0  0  0
   -8.2631   16.0163  -34.1364 H   0  0  0  0  0  0  0  0  0  0  0  0
   -7.9979   16.9630  -31.6634 H   0  0  0  0  0  0  0  0  0  0  0  0
   -8.7806   19.1151  -30.6776 H   0  0  0  0  0  0  0  0  0  0  0  0
   -7.8601   24.6312  -30.6150 H   0  0  0  0  0  0  0  0  0  0  0  0
   -5.8926   25.8581  -29.7034 H   0  0  0  0  0  0  0  0  0  0  0  0
   -2.5918   24.8176  -25.2759 H   0  0  0  0  0  0  0  0  0  0  0  0
  1  2  1  0
  2  3  2  0
  3  4  1  0
  4  5  2  0
  5  6  1  0
  5  7  1  0
  7  8  1  0
  8  9  2  0
  8 10  1  0
 10 11  1  0
 11 12  2  0
 12 13  1  0
 13 14  2  0
 14 15  1  0
 15 16  2  0
 15 17  2  0
 15 18  1  0
 18 19  2  0
 19 20  1  0
 20 21  2  0
 21 22  1  0
 22 23  1  0
 23 24  1  0
 24 25  1  0
 25 26  1  0
 26 27  1  0
 21 28  1  0
 28 29  2  0
 14 30  1  0
 30 31  2  0
  7 32  2  0
 32  2  1  0
 31 11  1  0
 29 18  1  0
 27 22  1  0
  1 33  1  0
  1 34  1  0
  1 35  1  0
  3 36  1  0
  4 37  1  0
 10 38  1  0
 12 39  1  0
 13 40  1  0
 19 41  1  0
 20 42  1  0
 23 43  1  0
 23 44  1  0
 24 45  1  0
 24 46  1  0
 26 47  1  0
 26 48  1  0
 27 49  1  0
 27 50  1  0
 28 51  1  0
 29 52  1  0
 30 53  1  0
 31 54  1  0
 32 55  1  0
M  CHG  1   6  -1
M  END
>  <UniqueID>  (1) 
1

>  <SMILES>  (1) 
Cc1ccc([O-])c(C(=O)Nc2ccc(S(=O)(=O)c3ccc(N4CCOCC4)cc3)cc2)c1

>  <Energy>  (1) 
77.92703183823933

>  <Genealogy>  (1) 
Cc1ccc([O-])c(C(=O)Nc2ccc(S(=O)(=O)c3ccc(N4CCOCC4)cc3)cc2)c1 (protonated)
Cc1ccc([O-])c(C(=O)Nc2ccc(S(=O)(=O)c3ccc(N4CCOCC4)cc3)cc2)c1 (3D coordinates assigned)
Cc1ccc([O-])c(C(=O)Nc2ccc(S(=O)(=O)c3ccc(N4CCOCC4)cc3)cc2)c1 (nonaromatic ring conformer: 77.92703183823933 kcal/mol)

>  <smiles>  (1) 
Cc1ccc(O)c(C(=O)Nc2ccc(S(=O)(=O)c3ccc(N4CCOCC4)cc3)cc2)c1

>  <score_type>  (1) 
oracle

>  <origin>  (1) 
adgpu

>  <m_score__min__energy>  (1) 
-13.5

>  <m_primary>  (1) 
energy

$$$$
1:0
     RDKit          3D

 39 42  0  0  0  0  0  0  0  0999 V2000
    0.8900   24.1380  -28.0630 O   0  0  0  0  0  0  0  0  0  0  0  0
   -0.2350   23.8640  -27.5660 C   0  0  0  0  0  0  0  0  0  0  0  0
   -0.3240   23.5010  -26.1410 C   0  0  0  0  0  0  0  0  0  0  0  0
   -0.4200   24.3900  -25.0870 C   0  0  0  0  0  0  0  0  0  0  0  0
   -0.4740   23.6120  -23.9510 C   0  0  0  0  0  0  0  0  0  0  0  0
   -0.4000   22.3020  -24.3780 C   0  0  0  0  0  0  0  0  0  0  0  0
   -0.3070   22.2690  -25.6860 O   0  0  0  0  0  0  0  0  0  0  0  0
   -1.4270   23.8750  -28.4370 C   0  0  0  0  0  0  0  0  0  0  0  0
   -1.9630   24.9930  -29.0460 C   0  0  0  0  0  0  0  0  0  0  0  0
   -1.4940   26.2970  -28.9420 O   0  0  0  0  0  0  0  0  0  0  0  0
   -3.0460   24.5820  -29.7850 C   0  0  0  0  0  0  0  0  0  0  0  0
   -3.8700   25.4310  -30.5210 O   0  0  0  0  0  0  0  0  0  0  0  0
   -3.2150   23.2470  -29.6610 N   0  0  0  0  0  0  0  0  0  0  0  0
   -4.2790   22.4710  -30.2360 C   0  0  0  0  0  0  0  0  0  0  0  0
   -3.9900   21.3300  -31.0030 C   0  0  0  0  0  0  0  0  0  0  0  0
   -5.0260   20.5900  -31.5800 C   0  0  0  0  0  0  0  0  0  0  0  0
   -6.3560   20.9830  -31.3970 C   0  0  0  0  0  0  0  0  0  0  0  0
   -7.7690   19.9730  -32.1880 Br  0  0  0  0  0  0  0  0  0  0  0  0
   -6.6490   22.1190  -30.6330 C   0  0  0  0  0  0  0  0  0  0  0  0
   -5.6150   22.8600  -30.0560 C   0  0  0  0  0  0  0  0  0  0  0  0
   -2.2370   22.8050  -28.8280 C   0  0  0  0  0  0  0  0  0  0  0  0
   -2.1030   21.4020  -28.3740 C   0  0  0  0  0  0  0  0  0  0  0  0
   -1.0210   20.6190  -28.8000 C   0  0  0  0  0  0  0  0  0  0  0  0
   -0.9080   19.3010  -28.3520 C   0  0  0  0  0  0  0  0  0  0  0  0
   -1.8420   18.7830  -27.5110 N   0  0  0  0  0  0  0  0  0  0  0  0
   -2.9020   19.5190  -27.0850 C   0  0  0  0  0  0  0  0  0  0  0  0
   -3.0540   20.8410  -27.5090 C   0  0  0  0  0  0  0  0  0  0  0  0
   -0.4475   25.4882  -25.1433 H   0  0  0  0  0  0  0  0  0  0  0  0
   -0.5590   23.9644  -22.9125 H   0  0  0  0  0  0  0  0  0  0  0  0
   -0.4165   21.4196  -23.7214 H   0  0  0  0  0  0  0  0  0  0  0  0
   -3.8680   26.4320  -30.3800 H   0  0  0  0  0  0  0  0  0  0  0  0
   -2.9454   21.0181  -31.1499 H   0  0  0  0  0  0  0  0  0  0  0  0
   -4.7950   19.6969  -32.1791 H   0  0  0  0  0  0  0  0  0  0  0  0
   -7.6945   22.4283  -30.4870 H   0  0  0  0  0  0  0  0  0  0  0  0
   -5.8493   23.7528  -29.4576 H   0  0  0  0  0  0  0  0  0  0  0  0
   -0.2670   21.0394  -29.4817 H   0  0  0  0  0  0  0  0  0  0  0  0
   -0.0611   18.6806  -28.6805 H   0  0  0  0  0  0  0  0  0  0  0  0
   -3.6421   19.0725  -26.4046 H   0  0  0  0  0  0  0  0  0  0  0  0
   -3.9127   21.4375  -27.1673 H   0  0  0  0  0  0  0  0  0  0  0  0
  1  2  2  0
  2  3  1  0
  3  4  2  0
  4  5  1  0
  5  6  2  0
  6  7  1  0
  2  8  1  0
  8  9  1  0
  9 10  1  0
  9 11  2  0
 11 12  1  0
 11 13  1  0
 13 14  1  0
 14 15  2  0
 15 16  1  0
 16 17  2  0
 17 18  1  0
 17 19  1  0
 19 20  2  0
 13 21  1  0
 21 22  1  0
 22 23  2  0
 23 24  1  0
 24 25  2  0
 25 26  1  0
 26 27  2  0
  7  3  1  0
 21  8  2  0
 27 22  1  0
 20 14  1  0
  4 28  1  0
  5 29  1  0
  6 30  1  0
 12 31  1  0
 15 32  1  0
 16 33  1  0
 19 34  1  0
 20 35  1  0
 23 36  1  0
 24 37  1  0
 26 38  1  0
 27 39  1  0
M  CHG  1  10  -1
M  END
>  <UniqueID>  (2) 
2

>  <SMILES>  (2) 
O=C(c1ccco1)c1c([O-])c(O)n(-c2ccc(Br)cc2)c1-c1ccncc1

>  <Energy>  (2) 
112.17207903155966

>  <Genealogy>  (2) 
O=C(c1ccco1)c1c([O-])c(O)n(-c2ccc(Br)cc2)c1-c1ccncc1 (protonated)
O=C(c1ccco1)c1c([O-])c(O)n(-c2ccc(Br)cc2)c1-c1ccncc1 (3D coordinates assigned)
O=C(c1ccco1)c1c([O-])c(O)n(-c2ccc(Br)cc2)c1-c1ccncc1 (optimized conformer: 112.17207903155966 kcal/mol)

>  <smiles>  (2) 
O=C(c1ccco1)c1c(O)c(O)n(-c2ccc(Br)cc2)c1-c1ccncc1

>  <score_type>  (2) 
oracle

>  <origin>  (2) 
adgpu

>  <m_score__min__energy>  (2) 
-12.06

>  <m_primary>  (2) 
energy

$$$$
2:0
     RDKit          3D

 36 38  0  0  0  0  0  0  0  0999 V2000
   -3.4800   25.7430  -29.4990 H   0  0  0  0  0  0  0  0  0  0  0  0
   -2.5520   25.2950  -29.3410 N   0  0  0  0  0  0  0  0  0  0  0  0
   -2.3330   24.0180  -29.4120 C   0  0  0  0  0  0  0  0  0  0  0  0
   -1.0790   23.5610  -29.1410 N   0  0  0  0  0  0  0  0  0  0  0  0
   -0.7700   22.2390  -29.1510 C   0  0  0  0  0  0  0  0  0  0  0  0
    0.2575   21.9136  -28.9311 H   0  0  0  0  0  0  0  0  0  0  0  0
   -1.7510   21.2950  -29.4390 C   0  0  0  0  0  0  0  0  0  0  0  0
   -1.5070   20.2224  -29.4395 H   0  0  0  0  0  0  0  0  0  0  0  0
   -3.0470   21.7230  -29.7270 C   0  0  0  0  0  0  0  0  0  0  0  0
   -3.8280   20.9841  -29.9593 H   0  0  0  0  0  0  0  0  0  0  0  0
   -3.3600   23.0910  -29.7220 C   0  0  0  0  0  0  0  0  0  0  0  0
   -4.7360   23.5100  -30.0730 C   0  0  0  0  0  0  0  0  0  0  0  0
   -5.3530   24.5720  -29.5110 N   0  0  0  0  0  0  0  0  0  0  0  0
   -6.5230   24.6880  -30.1190 N   0  0  0  0  0  0  0  0  0  0  0  0
   -7.2430   25.4090  -29.8900 H   0  0  0  0  0  0  0  0  0  0  0  0
   -6.6080   23.7190  -31.0450 C   0  0  0  0  0  0  0  0  0  0  0  0
   -7.9460   23.4510  -31.9530 S   0  0  0  0  0  0  0  0  0  0  0  0
   -5.4950   22.9550  -31.0500 N   0  0  0  0  0  0  0  0  0  0  0  0
   -5.2180   21.7800  -31.8350 C   0  0  0  0  0  0  0  0  0  0  0  0
   -6.0690   20.6690  -31.7740 C   0  0  0  0  0  0  0  0  0  0  0  0
   -6.9465   20.6877  -31.1110 H   0  0  0  0  0  0  0  0  0  0  0  0
   -5.8090   19.5370  -32.5510 C   0  0  0  0  0  0  0  0  0  0  0  0
   -6.4844   18.6706  -32.4953 H   0  0  0  0  0  0  0  0  0  0  0  0
   -4.6960   19.4960  -33.4000 C   0  0  0  0  0  0  0  0  0  0  0  0
   -4.4860   18.3320  -34.1600 O   0  0  0  0  0  0  0  0  0  0  0  0
   -5.4640   17.6800  -34.9690 C   0  0  0  0  0  0  0  0  0  0  0  0
   -6.1518   18.4331  -35.3810 H   0  0  0  0  0  0  0  0  0  0  0  0
   -4.9506   17.1458  -35.7821 H   0  0  0  0  0  0  0  0  0  0  0  0
   -6.2600   16.6720  -34.1470 C   0  0  0  0  0  0  0  0  0  0  0  0
   -6.1049   16.8684  -33.0758 H   0  0  0  0  0  0  0  0  0  0  0  0
   -7.3295   16.7669  -34.3861 H   0  0  0  0  0  0  0  0  0  0  0  0
   -5.9198   15.6536  -34.3861 H   0  0  0  0  0  0  0  0  0  0  0  0
   -3.8430   20.6150  -33.4660 C   0  0  0  0  0  0  0  0  0  0  0  0
   -2.9684   20.5988  -34.1329 H   0  0  0  0  0  0  0  0  0  0  0  0
   -4.1040   21.7460  -32.6870 C   0  0  0  0  0  0  0  0  0  0  0  0
   -3.4316   22.6148  -32.7424 H   0  0  0  0  0  0  0  0  0  0  0  0
  1  2  1  0
  2  3  2  0
  3  4  1  0
  4  5  1  0
  5  6  1  0
  5  7  2  0
  7  8  1  0
  7  9  1  0
  9 10  1  0
  9 11  2  0
 11 12  1  0
 12 13  2  0
 13 14  1  0
 14 15  1  0
 14 16  1  0
 16 17  2  0
 16 18  1  0
 18 19  1  0
 19 20  2  0
 20 21  1  0
 20 22  1  0
 22 23  1  0
 22 24  2  0
 24 25  1  0
 25 26  1  0
 26 27  1  0
 26 28  1  0
 26 29  1  0
 29 30  1  0
 29 31  1  0
 29 32  1  0
 24 33  1  0
 33 34  1  0
 33 35  2  0
 35 36  1  0
 11  3  1  0
 18 12  1  0
 35 19  1  0
M  CHG  1   4  -1
M  END
>  <UniqueID>  (3) 
3

>  <SMILES>  (3) 
[H]/N=c1/[n-]cccc1-c1n[nH]c(=S)n1-c1ccc(OCC)cc1

>  <Energy>  (3) 
86.87785270775377

>  <Genealogy>  (3) 
CCOc1ccc(-n2c(-c3ccc[n-]c3=N)n[nH]c2=S)cc1 (protonated)
[H]/N=c1/[n-]cccc1-c1n[nH]c(=S)n1-c1ccc(OCC)cc1 (cis-trans isomerization)
[H]/N=c1/[n-]cccc1-c1n[nH]c(=S)n1-c1ccc(OCC)cc1 (3D coordinates assigned)
[H]/N=c1/[n-]cccc1-c1n[nH]c(=S)n1-c1ccc(OCC)cc1 (optimized conformer: 86.87785270775377 kcal/mol)

>  <smiles>  (3) 
CCOc1ccc(-n2c(-c3ccc[nH]c3=N)n[nH]c2=S)cc1

>  <score_type>  (3) 
oracle

>  <origin>  (3) 
adgpu

>  <m_score__min__energy>  (3) 
-8.4100000000000001

>  <m_primary>  (3) 
energy

$$$$
3:0
     RDKit          3D

 51 53  0  0  0  0  0  0  0  0999 V2000
    0.6610   21.9710  -35.7360 C   0  0  0  0  0  0  0  0  0  0  0  0
    0.3840   21.8500  -34.3430 O   0  0  0  0  0  0  0  0  0  0  0  0
   -0.7510   21.2160  -33.8160 C   0  0  0  0  0  0  0  0  0  0  0  0
   -1.3840   20.2360  -34.5880 C   0  0  0  0  0  0  0  0  0  0  0  0
   -2.5320   19.5920  -34.1190 C   0  0  0  0  0  0  0  0  0  0  0  0
   -3.0560   19.9110  -32.8540 C   0  0  0  0  0  0  0  0  0  0  0  0
   -4.2430   19.2870  -32.3460 N   0  0  0  0  0  0  0  0  0  0  0  0
   -5.8550   19.7600  -32.7750 S   0  0  0  0  0  0  0  0  0  0  0  0
   -6.8410   18.8400  -32.1090 O   0  0  0  0  0  0  0  0  0  0  0  0
   -6.0330   19.6680  -34.2650 O   0  0  0  0  0  0  0  0  0  0  0  0
   -6.1270   21.3990  -32.1990 C   0  0  0  0  0  0  0  0  0  0  0  0
   -7.4300   21.8020  -31.8700 C   0  0  0  0  0  0  0  0  0  0  0  0
   -7.6540   23.0550  -31.2960 C   0  0  0  0  0  0  0  0  0  0  0  0
   -6.5780   23.9050  -31.0280 C   0  0  0  0  0  0  0  0  0  0  0  0
   -5.2730   23.5120  -31.3600 C   0  0  0  0  0  0  0  0  0  0  0  0
   -4.1680   24.3480  -31.0180 N   0  0  0  0  0  0  0  0  0  0  0  0
   -3.8120   24.5760  -29.6550 C   0  0  0  0  0  0  0  0  0  0  0  0
   -4.6630   24.3800  -28.7480 O   0  0  0  0  0  0  0  0  0  0  0  0
   -2.5080   25.0680  -29.3250 N   0  0  0  0  0  0  0  0  0  0  0  0
   -1.7150   24.4890  -28.2470 C   0  0  0  0  0  0  0  0  0  0  0  0
   -1.5750   23.0080  -28.4740 C   0  0  0  0  0  0  0  0  0  0  0  0
   -0.5800   22.5040  -29.3260 C   0  0  0  0  0  0  0  0  0  0  0  0
   -0.4180   21.1240  -29.4760 C   0  0  0  0  0  0  0  0  0  0  0  0
   -1.2370   20.2370  -28.7700 C   0  0  0  0  0  0  0  0  0  0  0  0
   -2.2370   20.7270  -27.9170 C   0  0  0  0  0  0  0  0  0  0  0  0
   -3.0830   19.7880  -27.1090 C   0  0  0  0  0  0  0  0  0  0  0  0
   -2.3990   22.1130  -27.7720 C   0  0  0  0  0  0  0  0  0  0  0  0
   -5.0510   22.2680  -31.9620 C   0  0  0  0  0  0  0  0  0  0  0  0
   -2.4090   20.8720  -32.0690 C   0  0  0  0  0  0  0  0  0  0  0  0
   -1.2710   21.5300  -32.5470 C   0  0  0  0  0  0  0  0  0  0  0  0
    1.6610   22.4078  -35.8744 H   0  0  0  0  0  0  0  0  0  0  0  0
    0.6274   20.9762  -36.2043 H   0  0  0  0  0  0  0  0  0  0  0  0
   -0.0917   22.6223  -36.2043 H   0  0  0  0  0  0  0  0  0  0  0  0
   -0.9742   19.9699  -35.5735 H   0  0  0  0  0  0  0  0  0  0  0  0
   -3.0275   18.8327  -34.7418 H   0  0  0  0  0  0  0  0  0  0  0  0
   -8.2778   21.1287  -32.0649 H   0  0  0  0  0  0  0  0  0  0  0  0
   -8.6789   23.3733  -31.0545 H   0  0  0  0  0  0  0  0  0  0  0  0
   -6.7543   24.8830  -30.5564 H   0  0  0  0  0  0  0  0  0  0  0  0
   -2.0070   25.6450  -30.0400 H   0  0  0  0  0  0  0  0  0  0  0  0
   -0.7185   24.9546  -28.2328 H   0  0  0  0  0  0  0  0  0  0  0  0
   -2.2148   24.6689  -27.2837 H   0  0  0  0  0  0  0  0  0  0  0  0
    0.0736   23.1965  -29.8767 H   0  0  0  0  0  0  0  0  0  0  0  0
    0.3569   20.7338  -30.1522 H   0  0  0  0  0  0  0  0  0  0  0  0
   -1.0966   19.1520  -28.8839 H   0  0  0  0  0  0  0  0  0  0  0  0
   -2.9159   19.9735  -26.0377 H   0  0  0  0  0  0  0  0  0  0  0  0
   -4.1440   19.9522  -27.3484 H   0  0  0  0  0  0  0  0  0  0  0  0
   -2.8095   18.7498  -27.3484 H   0  0  0  0  0  0  0  0  0  0  0  0
   -3.1793   22.5027  -27.1017 H   0  0  0  0  0  0  0  0  0  0  0  0
   -4.0316   21.9712  -32.2497 H   0  0  0  0  0  0  0  0  0  0  0  0
   -2.7983   21.1117  -31.0685 H   0  0  0  0  0  0  0  0  0  0  0  0
   -0.7807   22.2960  -31.9283 H   0  0  0  0  0  0  0  0  0  0  0  0
  1  2  1  0
  2  3  1  0
  3  4  2  0
  4  5  1  0
  5  6  2  0
  6  7  1  0
  7  8  1  0
  8  9  2  0
  8 10  2  0
  8 11  1  0
 11 12  2  0
 12 13  1  0
 13 14  2  0
 14 15  1  0
 15 16  1  0
 16 17  1  0
 17 18  2  0
 17 19  1  0
 19 20  1  0
 20 21  1  0
 21 22  2  0
 22 23  1  0
 23 24  2  0
 24 25  1  0
 25 26  1  0
 25 27  2  0
 15 28  2  0
  6 29  1  0
 29 30  2  0
 30  3  1  0
 28 11  1  0
 27 21  1  0
  1 31  1  0
  1 32  1  0
  1 33  1  0
  4 34  1  0
  5 35  1  0
 12 36  1  0
 13 37  1  0
 14 38  1  0
 19 39  1  0
 20 40  1  0
 20 41  1  0
 22 42  1  0
 23 43  1  0
 24 44  1  0
 26 45  1  0
 26 46  1  0
 26 47  1  0
 27 48  1  0
 28 49  1  0
 29 50  1  0
 30 51  1  0
M  CHG  2   7  -1  16  -1
M  END
>  <UniqueID>  (4) 
4

>  <SMILES>  (4) 
COc1ccc([N-]S(=O)(=O)c2cccc([N-]C(=O)NCc3cccc(C)c3)c2)cc1

>  <Energy>  (4) 
56.18832158216641

>  <Genealogy>  (4) 
COc1ccc([N-]S(=O)(=O)c2cccc([N-]C(=O)NCc3cccc(C)c3)c2)cc1 (protonated)
COc1ccc([N-]S(=O)(=O)c2cccc([N-]C(=O)NCc3cccc(C)c3)c2)cc1 (3D coordinates assigned)
COc1ccc([N-]S(=O)(=O)c2cccc([N-]C(=O)NCc3cccc(C)c3)c2)cc1 (optimized conformer: 56.18832158216641 kcal/mol)

>  <smiles>  (4) 
COc1ccc(NS(=O)(=O)c2cccc(NC(=O)NCc3cccc(C)c3)c2)cc1

>  <score_type>  (4) 
oracle

>  <origin>  (4) 
adgpu

>  <m_score__min__energy>  (4) 
-11.06

>  <m_primary>  (4) 
energy

$$$$
4:0
     RDKit          3D

 24 26  0  0  0  0  0  0  0  0999 V2000
   -2.0720   25.2990  -29.3680 O   0  0  0  0  0  0  0  0  0  0  0  0
   -2.9570   24.3230  -29.8110 C   0  0  0  0  0  0  0  0  0  0  0  0
   -2.6330   22.9720  -29.6560 C   0  0  0  0  0  0  0  0  0  0  0  0
   -3.5160   21.9820  -30.0980 C   0  0  0  0  0  0  0  0  0  0  0  0
   -4.7370   22.3350  -30.7000 C   0  0  0  0  0  0  0  0  0  0  0  0
   -5.6720   21.2870  -31.1680 C   0  0  0  0  0  0  0  0  0  0  0  0
   -7.0260   21.4360  -31.1350 N   0  0  0  0  0  0  0  0  0  0  0  0
   -7.4600   20.2750  -31.6410 C   0  0  0  0  0  0  0  0  0  0  0  0
   -8.7690   19.8550  -31.8490 C   0  0  0  0  0  0  0  0  0  0  0  0
   -8.9530   18.5740  -32.4000 C   0  0  0  0  0  0  0  0  0  0  0  0
   -7.8260   17.7770  -32.7150 C   0  0  0  0  0  0  0  0  0  0  0  0
   -6.5600   18.2450  -32.4880 N   0  0  0  0  0  0  0  0  0  0  0  0
   -6.4080   19.4820  -31.9550 C   0  0  0  0  0  0  0  0  0  0  0  0
   -5.2500   20.0920  -31.6690 N   0  0  0  0  0  0  0  0  0  0  0  0
   -5.0550   23.6970  -30.8520 C   0  0  0  0  0  0  0  0  0  0  0  0
   -4.1680   24.6890  -30.4080 C   0  0  0  0  0  0  0  0  0  0  0  0
   -4.4850   26.0380  -30.5580 O   0  0  0  0  0  0  0  0  0  0  0  0
   -1.6807   22.6869  -29.1850 H   0  0  0  0  0  0  0  0  0  0  0  0
   -3.2541   20.9208  -29.9741 H   0  0  0  0  0  0  0  0  0  0  0  0
   -9.6246   20.4974  -31.5934 H   0  0  0  0  0  0  0  0  0  0  0  0
   -9.9681   18.1930  -32.5854 H   0  0  0  0  0  0  0  0  0  0  0  0
   -7.9689   16.7747  -33.1451 H   0  0  0  0  0  0  0  0  0  0  0  0
   -6.0063   23.9862  -31.3225 H   0  0  0  0  0  0  0  0  0  0  0  0
   -3.8640   26.7680  -30.2280 H   0  0  0  0  0  0  0  0  0  0  0  0
  1  2  1  0
  2  3  2  0
  3  4  1  0
  4  5  2  0
  5  6  1  0
  6  7  2  0
  7  8  1  0
  8  9  2  0
  9 10  1  0
 10 11  2  0
 11 12  1  0
 12 13  2  0
 13 14  1  0
  5 15  1  0
 15 16  2  0
 16 17  1  0
 16  2  1  0
 14  6  1  0
 13  8  1  0
  3 18  1  0
  4 19  1  0
  9 20  1  0
 10 21  1  0
 11 22  1  0
 15 23  1  0
 17 24  1  0
M  CHG  2   1  -1  14  -1
M  END
>  <UniqueID>  (5) 
5

>  <SMILES>  (5) 
[O-]c1ccc(-c2nc3cccnc3[n-]2)cc1O

>  <Energy>  (5) 
64.62775407375523

>  <Genealogy>  (5) 
[O-]c1ccc(-c2nc3cccnc3[n-]2)cc1O (protonated)
[O-]c1ccc(-c2nc3cccnc3[n-]2)cc1O (3D coordinates assigned)
[O-]c1ccc(-c2nc3cccnc3[n-]2)cc1O (optimized conformer: 64.62775407375523 kcal/mol)

>  <smiles>  (5) 
Oc1ccc(-c2nc3cccnc3[nH]2)cc1O

>  <score_type>  (5) 
oracle

>  <origin>  (5) 
adgpu

>  <m_score__min__energy>  (5) 
-9.6199999999999992

>  <m_primary>  (5) 
energy

$$$$
5:0
     RDKit          3D

 47 49  0  0  0  0  0  0  0  0999 V2000
   -2.5960   19.7870  -27.1170 C   0  0  0  0  0  0  0  0  0  0  0  0
   -2.0420   20.7540  -28.1220 C   0  0  0  0  0  0  0  0  0  0  0  0
   -1.1540   20.3220  -29.1210 C   0  0  0  0  0  0  0  0  0  0  0  0
   -0.6440   21.2330  -30.0520 C   0  0  0  0  0  0  0  0  0  0  0  0
   -1.0190   22.5780  -29.9950 C   0  0  0  0  0  0  0  0  0  0  0  0
   -1.9010   23.0230  -28.9980 C   0  0  0  0  0  0  0  0  0  0  0  0
   -2.4350   24.7060  -28.9510 S   0  0  0  0  0  0  0  0  0  0  0  0
   -1.2430   25.6370  -28.9860 O   0  0  0  0  0  0  0  0  0  0  0  0
   -3.1810   24.9180  -27.6550 O   0  0  0  0  0  0  0  0  0  0  0  0
   -3.4970   25.0840  -30.2800 N   0  0  0  0  0  0  0  0  0  0  0  0
   -4.4790   24.1940  -30.8320 C   0  0  0  0  0  0  0  0  0  0  0  0
   -5.8340   24.5210  -30.7050 C   0  0  0  0  0  0  0  0  0  0  0  0
   -6.8220   23.6440  -31.1690 C   0  0  0  0  0  0  0  0  0  0  0  0
   -6.4600   22.4350  -31.7670 C   0  0  0  0  0  0  0  0  0  0  0  0
   -5.1080   22.1100  -31.9300 C   0  0  0  0  0  0  0  0  0  0  0  0
   -4.6750   20.5570  -32.6410 S   0  0  0  0  0  0  0  0  0  0  0  0
   -3.9440   19.7500  -31.5990 O   0  0  0  0  0  0  0  0  0  0  0  0
   -3.7620   20.7520  -33.8250 O   0  0  0  0  0  0  0  0  0  0  0  0
   -6.1240   19.7200  -33.1350 N   0  0  0  0  0  0  0  0  0  0  0  0
   -5.9060   18.9620  -34.3930 C   0  0  0  0  0  0  0  0  0  0  0  0
   -5.7020   17.4570  -34.1590 C   0  0  0  0  0  0  0  0  0  0  0  0
   -6.9080   16.8360  -33.4330 C   0  0  0  0  0  0  0  0  0  0  0  0
   -7.6200   17.8370  -32.5020 C   0  0  0  0  0  0  0  0  0  0  0  0
   -6.6470   18.9120  -32.0110 C   0  0  0  0  0  0  0  0  0  0  0  0
   -4.1180   23.0080  -31.4950 C   0  0  0  0  0  0  0  0  0  0  0  0
   -2.4010   22.1110  -28.0560 C   0  0  0  0  0  0  0  0  0  0  0  0
   -2.3861   20.1534  -26.1013 H   0  0  0  0  0  0  0  0  0  0  0  0
   -3.6833   19.6959  -27.2565 H   0  0  0  0  0  0  0  0  0  0  0  0
   -2.1247   18.8029  -27.2565 H   0  0  0  0  0  0  0  0  0  0  0  0
   -0.8586   19.2636  -29.1714 H   0  0  0  0  0  0  0  0  0  0  0  0
    0.0535   20.8900  -30.8304 H   0  0  0  0  0  0  0  0  0  0  0  0
   -0.6218   23.2899  -30.7335 H   0  0  0  0  0  0  0  0  0  0  0  0
   -6.1247   25.4734  -30.2375 H   0  0  0  0  0  0  0  0  0  0  0  0
   -7.8846   23.9076  -31.0624 H   0  0  0  0  0  0  0  0  0  0  0  0
   -7.2380   21.7373  -32.1103 H   0  0  0  0  0  0  0  0  0  0  0  0
   -6.7833   19.1002  -35.0421 H   0  0  0  0  0  0  0  0  0  0  0  0
   -4.9872   19.3506  -34.8565 H   0  0  0  0  0  0  0  0  0  0  0  0
   -5.5724   16.9576  -35.1305 H   0  0  0  0  0  0  0  0  0  0  0  0
   -4.8101   17.3211  -33.5297 H   0  0  0  0  0  0  0  0  0  0  0  0
   -7.6278   16.4816  -34.1855 H   0  0  0  0  0  0  0  0  0  0  0  0
   -6.5327   16.0109  -32.8099 H   0  0  0  0  0  0  0  0  0  0  0  0
   -8.4418   18.3189  -33.0520 H   0  0  0  0  0  0  0  0  0  0  0  0
   -8.0100   17.2908  -31.6304 H   0  0  0  0  0  0  0  0  0  0  0  0
   -7.1714   19.5750  -31.3071 H   0  0  0  0  0  0  0  0  0  0  0  0
   -5.7991   18.4131  -31.5189 H   0  0  0  0  0  0  0  0  0  0  0  0
   -3.0565   22.7819  -31.6741 H   0  0  0  0  0  0  0  0  0  0  0  0
   -3.0774   22.4601  -27.2619 H   0  0  0  0  0  0  0  0  0  0  0  0
  1  2  1  0
  2  3  2  0
  3  4  1  0
  4  5  2  0
  5  6  1  0
  6  7  1  0
  7  8  2  0
  7  9  2  0
  7 10  1  0
 10 11  1  0
 11 12  2  0
 12 13  1  0
 13 14  2  0
 14 15  1  0
 15 16  1  0
 16 17  2  0
 16 18  2  0
 16 19  1  0
 19 20  1  0
 20 21  1  0
 21 22  1  0
 22 23  1  0
 23 24  1  0
 15 25  2  0
  6 26  2  0
 26  2  1  0
 25 11  1  0
 24 19  1  0
  1 27  1  0
  1 28  1  0
  1 29  1  0
  3 30  1  0
  4 31  1  0
  5 32  1  0
 12 33  1  0
 13 34  1  0
 14 35  1  0
 20 36  1  0
 20 37  1  0
 21 38  1  0
 21 39  1  0
 22 40  1  0
 22 41  1  0
 23 42  1  0
 23 43  1  0
 24 44  1  0
 24 45  1  0
 25 46  1  0
 26 47  1  0
M  CHG  1  10  -1
M  END
>  <UniqueID>  (6) 
6

>  <SMILES>  (6) 
Cc1cccc(S(=O)(=O)[N-]c2cccc(S(=O)(=O)N3CCCCC3)c2)c1

>  <Energy>  (6) 
57.96093661556445

>  <Genealogy>  (6) 
Cc1cccc(S(=O)(=O)[N-]c2cccc(S(=O)(=O)N3CCCCC3)c2)c1 (protonated)
Cc1cccc(S(=O)(=O)[N-]c2cccc(S(=O)(=O)N3CCCCC3)c2)c1 (3D coordinates assigned)
Cc1cccc(S(=O)(=O)[N-]c2cccc(S(=O)(=O)N3CCCCC3)c2)c1 (nonaromatic ring conformer: 57.96093661556445 kcal/mol)

>  <smiles>  (6) 
Cc1cccc(S(=O)(=O)Nc2cccc(S(=O)(=O)N3CCCCC3)c2)c1

>  <score_type>  (6) 
oracle

>  <origin>  (6) 
adgpu

>  <m_score__min__energy>  (6) 
-11.15

>  <m_primary>  (6) 
energy

$$$$
6:0
     RDKit          3D

 36 38  0  0  0  0  0  0  0  0999 V2000
   -3.4960   20.8980  -32.9740 O   0  0  0  0  0  0  0  0  0  0  0  0
   -4.5450   20.5930  -32.3440 C   0  0  0  0  0  0  0  0  0  0  0  0
   -4.9530   21.3780  -31.2060 N   0  0  0  0  0  0  0  0  0  0  0  0
   -4.1720   22.4500  -30.6520 C   0  0  0  0  0  0  0  0  0  0  0  0
   -4.7990   23.6650  -30.3380 C   0  0  0  0  0  0  0  0  0  0  0  0
   -4.0670   24.7140  -29.7740 C   0  0  0  0  0  0  0  0  0  0  0  0
   -2.7080   24.5550  -29.4850 C   0  0  0  0  0  0  0  0  0  0  0  0
   -1.9810   25.6600  -28.9300 N   0  0  0  0  0  0  0  0  0  0  0  0
   -0.9250   25.5780  -27.9660 C   0  0  0  0  0  0  0  0  0  0  0  0
    0.1200   24.9390  -28.2600 O   0  0  0  0  0  0  0  0  0  0  0  0
   -1.0010   26.2820  -26.6730 C   0  0  0  0  0  0  0  0  0  0  0  0
   -1.3730   25.7200  -25.4670 C   0  0  0  0  0  0  0  0  0  0  0  0
   -1.2880   26.7370  -24.5410 C   0  0  0  0  0  0  0  0  0  0  0  0
   -0.8650   27.8530  -25.2330 C   0  0  0  0  0  0  0  0  0  0  0  0
   -0.7000   27.5490  -26.5000 O   0  0  0  0  0  0  0  0  0  0  0  0
   -2.0750   23.3400  -29.7980 C   0  0  0  0  0  0  0  0  0  0  0  0
   -2.8060   22.2900  -30.3630 C   0  0  0  0  0  0  0  0  0  0  0  0
   -5.3410   19.4280  -32.8010 C   0  0  0  0  0  0  0  0  0  0  0  0
   -6.2540   18.7800  -31.9460 C   0  0  0  0  0  0  0  0  0  0  0  0
   -6.9970   17.6860  -32.4030 C   0  0  0  0  0  0  0  0  0  0  0  0
   -6.8440   17.2320  -33.7150 C   0  0  0  0  0  0  0  0  0  0  0  0
   -5.9520   17.8740  -34.5760 C   0  0  0  0  0  0  0  0  0  0  0  0
   -5.2070   18.9690  -34.1240 C   0  0  0  0  0  0  0  0  0  0  0  0
   -5.8880   21.2060  -30.7770 H   0  0  0  0  0  0  0  0  0  0  0  0
   -5.8733   23.7931  -30.5368 H   0  0  0  0  0  0  0  0  0  0  0  0
   -4.5634   25.6711  -29.5560 H   0  0  0  0  0  0  0  0  0  0  0  0
   -1.6742   24.6780  -25.2841 H   0  0  0  0  0  0  0  0  0  0  0  0
   -1.5123   26.6720  -23.4661 H   0  0  0  0  0  0  0  0  0  0  0  0
   -0.6924   28.8455  -24.7912 H   0  0  0  0  0  0  0  0  0  0  0  0
   -1.0007   23.2143  -29.5979 H   0  0  0  0  0  0  0  0  0  0  0  0
   -2.3089   21.3335  -30.5824 H   0  0  0  0  0  0  0  0  0  0  0  0
   -6.3835   19.1361  -30.9133 H   0  0  0  0  0  0  0  0  0  0  0  0
   -7.7036   17.1821  -31.7271 H   0  0  0  0  0  0  0  0  0  0  0  0
   -7.4262   16.3688  -34.0698 H   0  0  0  0  0  0  0  0  0  0  0  0
   -5.8347   17.5188  -35.6105 H   0  0  0  0  0  0  0  0  0  0  0  0
   -4.5108   19.4751  -34.8090 H   0  0  0  0  0  0  0  0  0  0  0  0
  1  2  2  0
  2  3  1  0
  3  4  1  0
  4  5  2  0
  5  6  1  0
  6  7  2  0
  7  8  1  0
  8  9  1  0
  9 10  2  0
  9 11  1  0
 11 12  2  0
 12 13  1  0
 13 14  2  0
 14 15  1  0
  7 16  1  0
 16 17  2  0
  2 18  1  0
 18 19  2  0
 19 20  1  0
 20 21  2  0
 21 22  1  0
 22 23  2  0
 17  4  1  0
 23 18  1  0
 15 11  1  0
  3 24  1  0
  5 25  1  0
  6 26  1  0
 12 27  1  0
 13 28  1  0
 14 29  1  0
 16 30  1  0
 17 31  1  0
 19 32  1  0
 20 33  1  0
 21 34  1  0
 22 35  1  0
 23 36  1  0
M  CHG  1   8  -1
M  END
>  <UniqueID>  (7) 
7

>  <SMILES>  (7) 
O=C(Nc1ccc([N-]C(=O)c2ccco2)cc1)c1ccccc1

>  <Energy>  (7) 
76.00091587574614

>  <Genealogy>  (7) 
O=C(Nc1ccc([N-]C(=O)c2ccco2)cc1)c1ccccc1 (protonated)
O=C(Nc1ccc([N-]C(=O)c2ccco2)cc1)c1ccccc1 (3D coordinates assigned)
O=C(Nc1ccc([N-]C(=O)c2ccco2)cc1)c1ccccc1 (optimized conformer: 76.00091587574614 kcal/mol)

>  <smiles>  (7) 
O=C(Nc1ccc(NC(=O)c2ccco2)cc1)c1ccccc1

>  <score_type>  (7) 
oracle

>  <origin>  (7) 
adgpu

>  <m_score__min__energy>  (7) 
-9.0099999999999998

>  <m_primary>  (7) 
energy

$$$$
7:0
     RDKit          3D

 57 60  0  0  0  0  0  0  0  0999 V2000
   -3.7460   14.3990  -35.3220 C   0  0  0  0  0  0  0  0  0  0  0  0
   -3.2610   15.7390  -34.8370 C   0  0  0  0  0  0  0  0  0  0  0  0
   -1.9800   16.1770  -35.2160 C   0  0  0  0  0  0  0  0  0  0  0  0
   -1.4890   17.4050  -34.7730 C   0  0  0  0  0  0  0  0  0  0  0  0
   -2.2660   18.2120  -33.9430 C   0  0  0  0  0  0  0  0  0  0  0  0
   -3.5460   17.8000  -33.5680 C   0  0  0  0  0  0  0  0  0  0  0  0
   -4.0650   16.5720  -34.0150 C   0  0  0  0  0  0  0  0  0  0  0  0
   -5.4520   16.2030  -33.6350 C   0  0  0  0  0  0  0  0  0  0  0  0
   -5.6700   15.0990  -33.0690 O   0  0  0  0  0  0  0  0  0  0  0  0
   -6.5700   17.0300  -33.9800 N   0  0  0  0  0  0  0  0  0  0  0  0
   -6.9180   18.2680  -33.3440 C   0  0  0  0  0  0  0  0  0  0  0  0
   -6.2350   19.4600  -33.6350 C   0  0  0  0  0  0  0  0  0  0  0  0
   -6.5930   20.6490  -32.9950 C   0  0  0  0  0  0  0  0  0  0  0  0
   -7.6350   20.6600  -32.0600 C   0  0  0  0  0  0  0  0  0  0  0  0
   -8.1480   22.1790  -31.3370 S   0  0  0  0  0  0  0  0  0  0  0  0
   -8.9870   21.9080  -30.1190 O   0  0  0  0  0  0  0  0  0  0  0  0
   -8.9760   22.9690  -32.3120 O   0  0  0  0  0  0  0  0  0  0  0  0
   -6.7090   23.0910  -30.8990 C   0  0  0  0  0  0  0  0  0  0  0  0
   -6.7150   24.4860  -30.9870 C   0  0  0  0  0  0  0  0  0  0  0  0
   -5.5550   25.2110  -30.7070 C   0  0  0  0  0  0  0  0  0  0  0  0
   -4.3760   24.5480  -30.3510 C   0  0  0  0  0  0  0  0  0  0  0  0
   -3.2360   25.2960  -30.0840 O   0  0  0  0  0  0  0  0  0  0  0  0
   -4.3570   23.1420  -30.2700 C   0  0  0  0  0  0  0  0  0  0  0  0
   -2.8800   22.2600  -29.8560 S   0  0  0  0  0  0  0  0  0  0  0  0
   -2.9070   21.9330  -28.3890 O   0  0  0  0  0  0  0  0  0  0  0  0
   -1.6870   23.1430  -30.0980 O   0  0  0  0  0  0  0  0  0  0  0  0
   -2.6910   20.7770  -30.7720 N   0  0  0  0  0  0  0  0  0  0  0  0
   -1.2780   20.3720  -30.9290 C   0  0  0  0  0  0  0  0  0  0  0  0
   -0.6990   20.7350  -32.3070 C   0  0  0  0  0  0  0  0  0  0  0  0
   -1.3650   21.8510  -32.8490 O   0  0  0  0  0  0  0  0  0  0  0  0
   -2.6890   21.4920  -33.1890 C   0  0  0  0  0  0  0  0  0  0  0  0
   -3.4450   20.7890  -32.0390 C   0  0  0  0  0  0  0  0  0  0  0  0
   -5.5330   22.4230  -30.5360 C   0  0  0  0  0  0  0  0  0  0  0  0
   -8.3030   19.4680  -31.7540 C   0  0  0  0  0  0  0  0  0  0  0  0
   -7.9350   18.2750  -32.3830 C   0  0  0  0  0  0  0  0  0  0  0  0
   -3.9779   13.7584  -34.4583 H   0  0  0  0  0  0  0  0  0  0  0  0
   -4.6518   14.5354  -35.9310 H   0  0  0  0  0  0  0  0  0  0  0  0
   -2.9627   13.9240  -35.9310 H   0  0  0  0  0  0  0  0  0  0  0  0
   -1.3590   15.5452  -35.8681 H   0  0  0  0  0  0  0  0  0  0  0  0
   -0.4862   17.7376  -35.0792 H   0  0  0  0  0  0  0  0  0  0  0  0
   -1.8704   19.1734  -33.5836 H   0  0  0  0  0  0  0  0  0  0  0  0
   -4.1552   18.4430  -32.9157 H   0  0  0  0  0  0  0  0  0  0  0  0
   -5.4157   19.4575  -34.3690 H   0  0  0  0  0  0  0  0  0  0  0  0
   -6.0544   21.5798  -33.2265 H   0  0  0  0  0  0  0  0  0  0  0  0
   -7.6354   25.0137  -31.2774 H   0  0  0  0  0  0  0  0  0  0  0  0
   -5.5684   26.3093  -30.7667 H   0  0  0  0  0  0  0  0  0  0  0  0
   -0.6809   20.8751  -30.1542 H   0  0  0  0  0  0  0  0  0  0  0  0
   -1.2366   19.2770  -30.8325 H   0  0  0  0  0  0  0  0  0  0  0  0
    0.3701   20.9701  -32.1988 H   0  0  0  0  0  0  0  0  0  0  0  0
   -0.8352   19.8789  -32.9842 H   0  0  0  0  0  0  0  0  0  0  0  0
   -3.2391   22.4045  -33.4623 H   0  0  0  0  0  0  0  0  0  0  0  0
   -2.6294   20.7788  -34.0243 H   0  0  0  0  0  0  0  0  0  0  0  0
   -4.3976   21.3138  -31.8743 H   0  0  0  0  0  0  0  0  0  0  0  0
   -3.5975   19.7418  -32.3393 H   0  0  0  0  0  0  0  0  0  0  0  0
   -5.5307   21.3257  -30.4586 H   0  0  0  0  0  0  0  0  0  0  0  0
   -9.1194   19.4703  -31.0168 H   0  0  0  0  0  0  0  0  0  0  0  0
   -8.4473   17.3374  -32.1212 H   0  0  0  0  0  0  0  0  0  0  0  0
  1  2  1  0
  2  3  2  0
  3  4  1  0
  4  5  2  0
  5  6  1  0
  6  7  2  0
  7  8  1  0
  8  9  2  0
  8 10  1  0
 10 11  1  0
 11 12  2  0
 12 13  1  0
 13 14  2  0
 14 15  1  0
 15 16  2  0
 15 17  2  0
 15 18  1  0
 18 19  2  0
 19 20  1  0
 20 21  2  0
 21 22  1  0
 21 23  1  0
 23 24  1  0
 24 25  2  0
 24 26  2  0
 24 27  1  0
 27 28  1  0
 28 29  1  0
 29 30  1  0
 30 31  1  0
 31 32  1  0
 23 33  2  0
 14 34  1  0
 34 35  2  0
  7  2  1  0
 35 11  1  0
 33 18  1  0
 32 27  1  0
  1 36  1  0
  1 37  1  0
  1 38  1  0
  3 39  1  0
  4 40  1  0
  5 41  1  0
  6 42  1  0
 12 43  1  0
 13 44  1  0
 19 45  1  0
 20 46  1  0
 28 47  1  0
 28 48  1  0
 29 49  1  0
 29 50  1  0
 31 51  1  0
 31 52  1  0
 32 53  1  0
 32 54  1  0
 33 55  1  0
 34 56  1  0
 35 57  1  0
M  CHG  2  10  -1  22  -1
M  END
>  <UniqueID>  (8) 
8

>  <SMILES>  (8) 
Cc1ccccc1C(=O)[N-]c1ccc(S(=O)(=O)c2ccc([O-])c(S(=O)(=O)N3CCOCC3)c2)cc1

>  <Energy>  (8) 
79.03881522949378

>  <Genealogy>  (8) 
Cc1ccccc1C(=O)[N-]c1ccc(S(=O)(=O)c2ccc([O-])c(S(=O)(=O)N3CCOCC3)c2)cc1 (protonated)
Cc1ccccc1C(=O)[N-]c1ccc(S(=O)(=O)c2ccc([O-])c(S(=O)(=O)N3CCOCC3)c2)cc1 (3D coordinates assigned)
Cc1ccccc1C(=O)[N-]c1ccc(S(=O)(=O)c2ccc([O-])c(S(=O)(=O)N3CCOCC3)c2)cc1 (nonaromatic ring conformer: 79.03881522949378 kcal/mol)

>  <smiles>  (8) 
Cc1ccccc1C(=O)Nc1ccc(S(=O)(=O)c2ccc(O)c(S(=O)(=O)N3CCOCC3)c2)cc1

>  <score_type>  (8) 
oracle

>  <origin>  (8) 
adgpu

>  <m_score__min__energy>  (8) 
-13.789999999999999

>  <m_primary>  (8) 
energy

$$$$
8:0
     RDKit          3D

 46 48  0  0  1  0  0  0  0  0999 V2000
   -1.5760   21.5360  -32.0690 C   0  0  0  0  0  0  0  0  0  0  0  0
   -1.1010   21.7500  -30.6380 C   0  0  0  0  0  0  0  0  0  0  0  0
   -1.2700   23.1090  -30.1970 N   0  0  0  0  0  0  0  0  0  0  0  0
   -0.6710   23.3570  -28.6160 S   0  0  0  0  0  0  0  0  0  0  0  0
   -0.3310   22.0430  -27.9730 O   0  0  0  0  0  0  0  0  0  0  0  0
    0.5660   24.2180  -28.6130 O   0  0  0  0  0  0  0  0  0  0  0  0
   -1.9350   24.0640  -27.6370 C   0  0  0  0  0  0  0  0  0  0  0  0
   -1.7030   25.0270  -26.6790 C   0  0  0  0  0  0  0  0  0  0  0  0
   -2.6940   25.6240  -25.9290 C   0  0  0  0  0  0  0  0  0  0  0  0
   -3.9930   25.2450  -26.1420 C   0  0  0  0  0  0  0  0  0  0  0  0
   -4.2360   24.2900  -27.0940 C   0  0  0  0  0  0  0  0  0  0  0  0
   -3.2440   23.6890  -27.8490 C   0  0  0  0  0  0  0  0  0  0  0  0
   -3.6370   22.7060  -28.8030 N   0  0  0  0  0  0  0  0  0  0  0  0
   -4.2910   22.9620  -29.8790 C   0  0  0  0  0  0  0  0  0  0  0  0
   -4.6210   21.9350  -30.7450 C   0  0  0  0  0  0  0  0  0  0  0  0
   -5.3250   22.2810  -31.8710 C   0  0  0  0  0  0  0  0  0  0  0  0
   -5.7400   21.3780  -32.8810 N   0  0  0  0  0  0  0  0  0  0  0  0
   -6.8150   20.4790  -32.5310 C   0  0  0  0  0  0  0  0  0  0  0  0
   -8.0700   20.9430  -32.1990 C   0  0  0  0  0  0  0  0  0  0  0  0
   -9.0800   20.0530  -31.8850 C   0  0  0  0  0  0  0  0  0  0  0  0
   -8.8630   18.6860  -31.8970 C   0  0  0  0  0  0  0  0  0  0  0  0
   -9.8390   17.7530  -31.5920 O   0  0  0  0  0  0  0  0  0  0  0  0
   -7.6150   18.2200  -32.2280 C   0  0  0  0  0  0  0  0  0  0  0  0
   -6.6240   19.1010  -32.5360 C   0  0  0  0  0  0  0  0  0  0  0  0
   -5.6540   23.5840  -32.0760 N   0  0  0  0  0  0  0  0  0  0  0  0
   -5.3210   24.5630  -31.2200 C   0  0  0  0  0  0  0  0  0  0  0  0
   -4.6220   24.2440  -30.0920 N   0  0  0  0  0  0  0  0  0  0  0  0
   -2.5789   21.0842  -32.0587 H   0  0  0  0  0  0  0  0  0  0  0  0
   -1.6150   22.5035  -32.5909 H   0  0  0  0  0  0  0  0  0  0  0  0
   -0.8772   20.8657  -32.5909 H   0  0  0  0  0  0  0  0  0  0  0  0
   -1.6768   21.0895  -29.9730 H   0  0  0  0  0  0  0  0  0  0  0  0
   -0.0258   21.5202  -30.6057 H   0  0  0  0  0  0  0  0  0  0  0  0
   -2.2600   23.4190  -30.3150 H   0  0  0  0  0  0  0  0  0  0  0  0
   -0.6631   25.3386  -26.5017 H   0  0  0  0  0  0  0  0  0  0  0  0
   -2.4471   26.3874  -25.1765 H   0  0  0  0  0  0  0  0  0  0  0  0
   -4.8160   25.6937  -25.5663 H   0  0  0  0  0  0  0  0  0  0  0  0
   -5.2781   23.9838  -27.2680 H   0  0  0  0  0  0  0  0  0  0  0  0
   -4.3334   20.8930  -30.5412 H   0  0  0  0  0  0  0  0  0  0  0  0
   -5.3220   21.3270  -33.8370 H   0  0  0  0  0  0  0  0  0  0  0  0
   -8.2683   22.0249  -32.1839 H   0  0  0  0  0  0  0  0  0  0  0  0
  -10.0756   20.4387  -31.6204 H   0  0  0  0  0  0  0  0  0  0  0  0
  -10.0990   17.4720  -30.6640 H   0  0  0  0  0  0  0  0  0  0  0  0
   -7.4163   17.1382  -32.2443 H   0  0  0  0  0  0  0  0  0  0  0  0
   -5.6314   18.7071  -32.7997 H   0  0  0  0  0  0  0  0  0  0  0  0
   -6.1880   23.8620  -32.9270 H   0  0  0  0  0  0  0  0  0  0  0  0
   -5.6069   25.6054  -31.4244 H   0  0  0  0  0  0  0  0  0  0  0  0
  1  2  1  0
  2  3  1  0
  3  4  1  0
  4  5  2  0
  4  6  2  0
  4  7  1  0
  7  8  2  0
  8  9  1  0
  9 10  2  0
 10 11  1  0
 11 12  2  0
 12 13  1  0
 13 14  2  0
 14 15  1  0
 15 16  2  0
 16 17  1  0
 17 18  1  0
 18 19  2  0
 19 20  1  0
 20 21  2  0
 21 22  1  0
 21 23  1  0
 23 24  2  0
 16 25  1  0
 25 26  1  0
 26 27  2  0
 12  7  1  0
 27 14  1  0
 24 18  1  0
  1 28  1  0
  1 29  1  0
  1 30  1  0
  2 31  1  0
  2 32  1  0
  3 33  1  0
  8 34  1  0
  9 35  1  0
 10 36  1  0
 11 37  1  0
 15 38  1  0
 17 39  1  0
 19 40  1  0
 20 41  1  0
 22 42  1  0
 23 43  1  0
 24 44  1  0
 25 45  1  0
 26 46  1  0
M  END
>  <smiles>  (9) 
CCNS(=O)(=O)c1ccccc1N=c1cc(Nc2ccc(O)cc2)[nH]cn1

>  <score_type>  (9) 
oracle

>  <origin>  (9) 
adgpu

>  <m_score__min__energy>  (9) 
-9.2799999999999994

>  <m_primary>  (9) 
energy

$$$$
9:0
     RDKit          3D

 48 50  0  0  0  0  0  0  0  0999 V2000
   -3.4360   21.9180  -28.8150 C   0  0  0  0  0  0  0  0  0  0  0  0
   -2.9470   23.0350  -29.6320 N   0  0  0  0  0  0  0  0  0  0  0  0
   -1.5080   23.3220  -29.6650 C   0  0  0  0  0  0  0  0  0  0  0  0
   -1.1820   24.4200  -28.7030 C   0  0  0  0  0  0  0  0  0  0  0  0
   -0.7450   24.2510  -27.4030 C   0  0  0  0  0  0  0  0  0  0  0  0
   -0.6130   25.5240  -26.8900 C   0  0  0  0  0  0  0  0  0  0  0  0
   -0.9810   26.3870  -27.9060 C   0  0  0  0  0  0  0  0  0  0  0  0
   -1.3170   25.6980  -28.9720 O   0  0  0  0  0  0  0  0  0  0  0  0
   -3.8790   23.9500  -30.2480 C   0  0  0  0  0  0  0  0  0  0  0  0
   -3.5390   25.1470  -30.4640 O   0  0  0  0  0  0  0  0  0  0  0  0
   -5.2350   23.5210  -30.6430 C   0  0  0  0  0  0  0  0  0  0  0  0
   -5.4110   22.2400  -31.1900 C   0  0  0  0  0  0  0  0  0  0  0  0
   -6.6830   21.7990  -31.5770 C   0  0  0  0  0  0  0  0  0  0  0  0
   -6.9050   20.1640  -32.1950 S   0  0  0  0  0  0  0  0  0  0  0  0
   -7.7960   19.4040  -31.2510 O   0  0  0  0  0  0  0  0  0  0  0  0
   -7.5710   20.2160  -33.5430 O   0  0  0  0  0  0  0  0  0  0  0  0
   -5.3580   19.3600  -32.3190 N   0  0  0  0  0  0  0  0  0  0  0  0
   -4.5380   20.0040  -33.3710 C   0  0  0  0  0  0  0  0  0  0  0  0
   -3.3990   19.0910  -33.8340 C   0  0  0  0  0  0  0  0  0  0  0  0
   -3.9490   17.8000  -34.4640 C   0  0  0  0  0  0  0  0  0  0  0  0
   -5.3450   17.4270  -33.9350 C   0  0  0  0  0  0  0  0  0  0  0  0
   -5.5300   17.8950  -32.4830 C   0  0  0  0  0  0  0  0  0  0  0  0
   -7.7850   22.6470  -31.4250 C   0  0  0  0  0  0  0  0  0  0  0  0
   -7.6170   23.9290  -30.8980 C   0  0  0  0  0  0  0  0  0  0  0  0
   -6.3520   24.3740  -30.4980 C   0  0  0  0  0  0  0  0  0  0  0  0
   -6.2420   25.6510  -29.9440 O   0  0  0  0  0  0  0  0  0  0  0  0
   -3.3266   22.1678  -27.7493 H   0  0  0  0  0  0  0  0  0  0  0  0
   -4.4967   21.7347  -29.0417 H   0  0  0  0  0  0  0  0  0  0  0  0
   -2.8512   21.0144  -29.0417 H   0  0  0  0  0  0  0  0  0  0  0  0
   -0.9496   22.4161  -29.3864 H   0  0  0  0  0  0  0  0  0  0  0  0
   -1.2263   23.6370  -30.6806 H   0  0  0  0  0  0  0  0  0  0  0  0
   -0.5446   23.3009  -26.8862 H   0  0  0  0  0  0  0  0  0  0  0  0
   -0.2819   25.7978  -25.8774 H   0  0  0  0  0  0  0  0  0  0  0  0
   -0.9907   27.4845  -27.8322 H   0  0  0  0  0  0  0  0  0  0  0  0
   -4.5424   21.5768  -31.3158 H   0  0  0  0  0  0  0  0  0  0  0  0
   -5.1812   20.2376  -34.2323 H   0  0  0  0  0  0  0  0  0  0  0  0
   -4.0965   20.9200  -32.9513 H   0  0  0  0  0  0  0  0  0  0  0  0
   -2.7908   19.6243  -34.5795 H   0  0  0  0  0  0  0  0  0  0  0  0
   -2.7881   18.8218  -32.9597 H   0  0  0  0  0  0  0  0  0  0  0  0
   -4.0115   17.9393  -35.5534 H   0  0  0  0  0  0  0  0  0  0  0  0
   -3.2636   16.9823  -34.1962 H   0  0  0  0  0  0  0  0  0  0  0  0
   -6.1081   17.9054  -34.5666 H   0  0  0  0  0  0  0  0  0  0  0  0
   -5.4488   16.3323  -33.9650 H   0  0  0  0  0  0  0  0  0  0  0  0
   -6.5433   17.6220  -32.1532 H   0  0  0  0  0  0  0  0  0  0  0  0
   -4.7544   17.4031  -31.8776 H   0  0  0  0  0  0  0  0  0  0  0  0
   -8.7868   22.3029  -31.7215 H   0  0  0  0  0  0  0  0  0  0  0  0
   -8.4866   24.5950  -30.7964 H   0  0  0  0  0  0  0  0  0  0  0  0
   -5.3660   26.0300  -29.6080 H   0  0  0  0  0  0  0  0  0  0  0  0
  1  2  1  0
  2  3  1  0
  3  4  1  0
  4  5  2  0
  5  6  1  0
  6  7  2  0
  7  8  1  0
  2  9  1  0
  9 10  2  0
  9 11  1  0
 11 12  2  0
 12 13  1  0
 13 14  1  0
 14 15  2  0
 14 16  2  0
 14 17  1  0
 17 18  1  0
 18 19  1  0
 19 20  1  0
 20 21  1  0
 21 22  1  0
 13 23  2  0
 23 24  1  0
 24 25  2  0
 25 26  1  0
  8  4  1  0
 25 11  1  0
 22 17  1  0
  1 27  1  0
  1 28  1  0
  1 29  1  0
  3 30  1  0
  3 31  1  0
  5 32  1  0
  6 33  1  0
  7 34  1  0
 12 35  1  0
 18 36  1  0
 18 37  1  0
 19 38  1  0
 19 39  1  0
 20 40  1  0
 20 41  1  0
 21 42  1  0
 21 43  1  0
 22 44  1  0
 22 45  1  0
 23 46  1  0
 24 47  1  0
 26 48  1  0
M  END
>  <UniqueID>  (10) 
9

>  <SMILES>  (10) 
CN(Cc1ccco1)C(=O)c1cc(S(=O)(=O)N2CCCCC2)ccc1O

>  <Energy>  (10) 
82.75068633174632

>  <Genealogy>  (10) 
CN(Cc1ccco1)C(=O)c1cc(S(=O)(=O)N2CCCCC2)ccc1O (3D coordinates assigned)
CN(Cc1ccco1)C(=O)c1cc(S(=O)(=O)N2CCCCC2)ccc1O (nonaromatic ring conformer: 82.75068633174632 kcal/mol)

>  <smiles>  (10) 
CN(Cc1ccco1)C(=O)c1cc(S(=O)(=O)N2CCCCC2)ccc1O

>  <score_type>  (10) 
oracle

>  <origin>  (10) 
adgpu

>  <m_score__min__energy>  (10) 
-9.7799999999999994

>  <m_primary>  (10) 
energy

$$$$
10:0
     RDKit          3D

 53 55  0  0  0  0  0  0  0  0999 V2000
   -0.3070   19.6500  -30.4850 C   0  0  0  0  0  0  0  0  0  0  0  0
   -1.0110   20.0300  -31.6630 O   0  0  0  0  0  0  0  0  0  0  0  0
   -2.2410   20.7070  -31.6630 C   0  0  0  0  0  0  0  0  0  0  0  0
   -3.0270   20.8520  -30.5020 C   0  0  0  0  0  0  0  0  0  0  0  0
   -4.2550   21.5190  -30.5580 C   0  0  0  0  0  0  0  0  0  0  0  0
   -4.7210   22.0450  -31.7700 C   0  0  0  0  0  0  0  0  0  0  0  0
   -5.9840   22.7300  -31.8230 N   0  0  0  0  0  0  0  0  0  0  0  0
   -6.0530   24.1400  -32.2170 C   0  0  0  0  0  0  0  0  0  0  0  0
   -5.5860   25.0110  -31.0960 C   0  0  0  0  0  0  0  0  0  0  0  0
   -6.4310   25.6710  -30.4290 O   0  0  0  0  0  0  0  0  0  0  0  0
   -4.2010   24.9850  -30.7200 N   0  0  0  0  0  0  0  0  0  0  0  0
   -3.6620   24.5550  -29.4620 C   0  0  0  0  0  0  0  0  0  0  0  0
   -4.4410   24.5130  -28.2890 C   0  0  0  0  0  0  0  0  0  0  0  0
   -3.8700   24.1000  -27.0820 C   0  0  0  0  0  0  0  0  0  0  0  0
   -2.5230   23.7370  -27.0320 C   0  0  0  0  0  0  0  0  0  0  0  0
   -1.7330   23.7940  -28.1880 C   0  0  0  0  0  0  0  0  0  0  0  0
   -0.0280   23.3630  -28.1090 S   0  0  0  0  0  0  0  0  0  0  0  0
    0.4030   22.9670  -26.4300 C   0  0  0  0  0  0  0  0  0  0  0  0
    0.2330   22.1750  -28.9920 O   0  0  0  0  0  0  0  0  0  0  0  0
    0.8200   24.5100  -28.5810 O   0  0  0  0  0  0  0  0  0  0  0  0
   -2.3040   24.2170  -29.3980 C   0  0  0  0  0  0  0  0  0  0  0  0
   -7.4560   21.8300  -31.6110 S   0  0  0  0  0  0  0  0  0  0  0  0
   -8.5800   22.5090  -32.3420 O   0  0  0  0  0  0  0  0  0  0  0  0
   -7.8250   21.7570  -30.1550 O   0  0  0  0  0  0  0  0  0  0  0  0
   -7.2200   20.2020  -32.2350 C   0  0  0  0  0  0  0  0  0  0  0  0
   -6.4670   20.0010  -33.4000 C   0  0  0  0  0  0  0  0  0  0  0  0
   -6.2890   18.7100  -33.9060 C   0  0  0  0  0  0  0  0  0  0  0  0
   -6.8700   17.6170  -33.2550 C   0  0  0  0  0  0  0  0  0  0  0  0
   -7.6320   17.8140  -32.0990 C   0  0  0  0  0  0  0  0  0  0  0  0
   -7.8100   19.1050  -31.5900 C   0  0  0  0  0  0  0  0  0  0  0  0
   -3.9290   21.9200  -32.9230 C   0  0  0  0  0  0  0  0  0  0  0  0
   -2.7000   21.2530  -32.8670 C   0  0  0  0  0  0  0  0  0  0  0  0
   -0.8807   19.9597  -29.5990 H   0  0  0  0  0  0  0  0  0  0  0  0
   -0.1748   18.5580  -30.4730 H   0  0  0  0  0  0  0  0  0  0  0  0
    0.6784   20.1387  -30.4730 H   0  0  0  0  0  0  0  0  0  0  0  0
   -2.6725   20.4382  -29.5464 H   0  0  0  0  0  0  0  0  0  0  0  0
   -4.8584   21.6313  -29.6452 H   0  0  0  0  0  0  0  0  0  0  0  0
   -5.4122   24.3037  -33.0959 H   0  0  0  0  0  0  0  0  0  0  0  0
   -7.0951   24.3948  -32.4602 H   0  0  0  0  0  0  0  0  0  0  0  0
   -5.5008   24.8058  -28.3231 H   0  0  0  0  0  0  0  0  0  0  0  0
   -4.4833   24.0609  -26.1696 H   0  0  0  0  0  0  0  0  0  0  0  0
   -2.0800   23.4049  -26.0815 H   0  0  0  0  0  0  0  0  0  0  0  0
   -0.2292   23.5479  -25.7424 H   0  0  0  0  0  0  0  0  0  0  0  0
    0.2448   21.8927  -26.2545 H   0  0  0  0  0  0  0  0  0  0  0  0
    1.4601   23.2154  -26.2545 H   0  0  0  0  0  0  0  0  0  0  0  0
   -1.6812   24.2836  -30.3022 H   0  0  0  0  0  0  0  0  0  0  0  0
   -6.0154   20.8605  -33.9170 H   0  0  0  0  0  0  0  0  0  0  0  0
   -5.6918   18.5538  -34.8165 H   0  0  0  0  0  0  0  0  0  0  0  0
   -6.7275   16.6013  -33.6527 H   0  0  0  0  0  0  0  0  0  0  0  0
   -8.0914   16.9539  -31.5899 H   0  0  0  0  0  0  0  0  0  0  0  0
   -8.4131   19.2599  -30.6832 H   0  0  0  0  0  0  0  0  0  0  0  0
   -4.2764   22.3484  -33.8747 H   0  0  0  0  0  0  0  0  0  0  0  0
   -2.0896   21.1571  -33.7771 H   0  0  0  0  0  0  0  0  0  0  0  0
  1  2  1  0
  2  3  1  0
  3  4  2  0
  4  5  1  0
  5  6  2  0
  6  7  1  0
  7  8  1  0
  8  9  1  0
  9 10  2  0
  9 11  1  0
 11 12  1  0
 12 13  2  0
 13 14  1  0
 14 15  2  0
 15 16  1  0
 16 17  1  0
 17 18  1  0
 17 19  2  0
 17 20  2  0
 16 21  2  0
  7 22  1  0
 22 23  2  0
 22 24  2  0
 22 25  1  0
 25 26  2  0
 26 27  1  0
 27 28  2  0
 28 29  1  0
 29 30  2  0
  6 31  1  0
 31 32  2  0
 32  3  1  0
 21 12  1  0
 30 25  1  0
  1 33  1  0
  1 34  1  0
  1 35  1  0
  4 36  1  0
  5 37  1  0
  8 38  1  0
  8 39  1  0
 13 40  1  0
 14 41  1  0
 15 42  1  0
 18 43  1  0
 18 44  1  0
 18 45  1  0
 21 46  1  0
 26 47  1  0
 27 48  1  0
 28 49  1  0
 29 50  1  0
 30 51  1  0
 31 52  1  0
 32 53  1  0
M  CHG  1  11  -1
M  END
>  <UniqueID>  (11) 
10

>  <SMILES>  (11) 
COc1ccc(N(CC(=O)[N-]c2cccc(S(C)(=O)=O)c2)S(=O)(=O)c2ccccc2)cc1

>  <Energy>  (11) 
59.12600362081496

>  <Genealogy>  (11) 
COc1ccc(N(CC(=O)[N-]c2cccc(S(C)(=O)=O)c2)S(=O)(=O)c2ccccc2)cc1 (protonated)
COc1ccc(N(CC(=O)[N-]c2cccc(S(C)(=O)=O)c2)S(=O)(=O)c2ccccc2)cc1 (3D coordinates assigned)
COc1ccc(N(CC(=O)[N-]c2cccc(S(C)(=O)=O)c2)S(=O)(=O)c2ccccc2)cc1 (optimized conformer: 59.12600362081496 kcal/mol)

>  <smiles>  (11) 
COc1ccc(N(CC(=O)Nc2cccc(S(C)(=O)=O)c2)S(=O)(=O)c2ccccc2)cc1

>  <score_type>  (11) 
oracle

>  <origin>  (11) 
adgpu

>  <m_score__min__energy>  (11) 
-11.4

>  <m_primary>  (11) 
energy

$$$$
11:0
     RDKit          3D

 56 59  0  0  0  0  0  0  0  0999 V2000
    0.3380   29.2430  -24.4510 C   0  0  0  0  0  0  0  0  0  0  0  0
   -0.2590   27.9820  -25.0020 C   0  0  0  0  0  0  0  0  0  0  0  0
   -0.3560   27.7990  -26.3910 C   0  0  0  0  0  0  0  0  0  0  0  0
   -0.8760   26.6100  -26.9110 C   0  0  0  0  0  0  0  0  0  0  0  0
   -1.2900   25.5820  -26.0510 C   0  0  0  0  0  0  0  0  0  0  0  0
   -1.8690   24.3130  -26.6160 C   0  0  0  0  0  0  0  0  0  0  0  0
   -2.5910   24.6000  -27.8550 N   0  0  0  0  0  0  0  0  0  0  0  0
   -2.6880   23.6290  -28.9080 C   0  0  0  0  0  0  0  0  0  0  0  0
   -2.1790   22.3420  -28.6820 C   0  0  0  0  0  0  0  0  0  0  0  0
   -2.1460   21.4000  -29.7110 C   0  0  0  0  0  0  0  0  0  0  0  0
   -2.6140   21.7330  -30.9860 C   0  0  0  0  0  0  0  0  0  0  0  0
   -2.5340   20.5490  -32.2940 S   0  0  0  0  0  0  0  0  0  0  0  0
   -1.6610   21.0890  -33.3920 O   0  0  0  0  0  0  0  0  0  0  0  0
   -1.9050   19.2830  -31.7790 O   0  0  0  0  0  0  0  0  0  0  0  0
   -4.1170   20.1910  -32.9380 N   0  0  0  0  0  0  0  0  0  0  0  0
   -5.0790   19.9660  -31.8500 C   0  0  0  0  0  0  0  0  0  0  0  0
   -6.4750   19.6620  -32.4360 C   0  0  0  0  0  0  0  0  0  0  0  0
   -6.4470   19.5290  -33.8460 O   0  0  0  0  0  0  0  0  0  0  0  0
   -5.4810   18.5630  -34.2200 C   0  0  0  0  0  0  0  0  0  0  0  0
   -4.0600   19.0100  -33.8160 C   0  0  0  0  0  0  0  0  0  0  0  0
   -3.1510   23.0070  -31.2140 C   0  0  0  0  0  0  0  0  0  0  0  0
   -3.2280   23.9480  -30.1790 C   0  0  0  0  0  0  0  0  0  0  0  0
   -3.8510   25.2080  -30.4610 N   0  0  0  0  0  0  0  0  0  0  0  0
   -5.2610   25.4300  -30.5630 C   0  0  0  0  0  0  0  0  0  0  0  0
   -5.7430   26.5800  -30.3820 O   0  0  0  0  0  0  0  0  0  0  0  0
   -6.1530   24.3030  -30.8640 C   0  0  0  0  0  0  0  0  0  0  0  0
   -6.5330   23.8780  -32.1310 C   0  0  0  0  0  0  0  0  0  0  0  0
   -7.4200   22.7950  -32.1080 C   0  0  0  0  0  0  0  0  0  0  0  0
   -7.7410   22.3660  -30.8270 C   0  0  0  0  0  0  0  0  0  0  0  0
   -6.9240   23.3380  -29.7230 S   0  0  0  0  0  0  0  0  0  0  0  0
   -1.1900   25.7640  -24.6620 C   0  0  0  0  0  0  0  0  0  0  0  0
   -0.6690   26.9520  -24.1410 C   0  0  0  0  0  0  0  0  0  0  0  0
    0.3209   29.2069  -23.3517 H   0  0  0  0  0  0  0  0  0  0  0  0
    1.3772   29.3391  -24.7986 H   0  0  0  0  0  0  0  0  0  0  0  0
   -0.2463   30.1077  -24.7986 H   0  0  0  0  0  0  0  0  0  0  0  0
   -0.0214   28.5947  -27.0728 H   0  0  0  0  0  0  0  0  0  0  0  0
   -0.9609   26.4799  -28.0000 H   0  0  0  0  0  0  0  0  0  0  0  0
   -1.0553   23.6029  -26.8249 H   0  0  0  0  0  0  0  0  0  0  0  0
   -2.5661   23.8777  -25.8848 H   0  0  0  0  0  0  0  0  0  0  0  0
   -3.3540   25.3140  -27.7930 H   0  0  0  0  0  0  0  0  0  0  0  0
   -1.8022   22.0725  -27.6843 H   0  0  0  0  0  0  0  0  0  0  0  0
   -1.7504   20.3918  -29.5185 H   0  0  0  0  0  0  0  0  0  0  0  0
   -4.7463   19.1135  -31.2397 H   0  0  0  0  0  0  0  0  0  0  0  0
   -5.1376   20.8701  -31.2262 H   0  0  0  0  0  0  0  0  0  0  0  0
   -6.8456   18.7230  -31.9991 H   0  0  0  0  0  0  0  0  0  0  0  0
   -7.1353   20.5066  -32.1899 H   0  0  0  0  0  0  0  0  0  0  0  0
   -5.7134   17.6109  -33.7204 H   0  0  0  0  0  0  0  0  0  0  0  0
   -5.5116   18.4446  -35.3132 H   0  0  0  0  0  0  0  0  0  0  0  0
   -3.5603   18.1875  -33.2833 H   0  0  0  0  0  0  0  0  0  0  0  0
   -3.4990   19.2715  -34.7254 H   0  0  0  0  0  0  0  0  0  0  0  0
   -3.5163   23.2713  -32.2173 H   0  0  0  0  0  0  0  0  0  0  0  0
   -6.1730   24.3456  -33.0593 H   0  0  0  0  0  0  0  0  0  0  0  0
   -7.8242   22.3283  -33.0184 H   0  0  0  0  0  0  0  0  0  0  0  0
   -8.4144   21.5330  -30.5767 H   0  0  0  0  0  0  0  0  0  0  0  0
   -1.5234   24.9675  -23.9805 H   0  0  0  0  0  0  0  0  0  0  0  0
   -0.5800   27.0801  -23.0521 H   0  0  0  0  0  0  0  0  0  0  0  0
  1  2  1  0
  2  3  2  0
  3  4  1  0
  4  5  2  0
  5  6  1  0
  6  7  1  0
  7  8  1  0
  8  9  2  0
  9 10  1  0
 10 11  2  0
 11 12  1  0
 12 13  2  0
 12 14  2  0
 12 15  1  0
 15 16  1  0
 16 17  1  0
 17 18  1  0
 18 19  1  0
 19 20  1  0
 11 21  1  0
 21 22  2  0
 22 23  1  0
 23 24  1  0
 24 25  2  0
 24 26  1  0
 26 27  2  0
 27 28  1  0
 28 29  2  0
 29 30  1  0
  5 31  1  0
 31 32  2  0
 32  2  1  0
 22  8  1  0
 30 26  1  0
 20 15  1  0
  1 33  1  0
  1 34  1  0
  1 35  1  0
  3 36  1  0
  4 37  1  0
  6 38  1  0
  6 39  1  0
  7 40  1  0
  9 41  1  0
 10 42  1  0
 16 43  1  0
 16 44  1  0
 17 45  1  0
 17 46  1  0
 19 47  1  0
 19 48  1  0
 20 49  1  0
 20 50  1  0
 21 51  1  0
 27 52  1  0
 28 53  1  0
 29 54  1  0
 31 55  1  0
 32 56  1  0
M  CHG  1  23  -1
M  END
>  <UniqueID>  (12) 
11

>  <SMILES>  (12) 
Cc1ccc(CNc2ccc(S(=O)(=O)N3CCOCC3)cc2[N-]C(=O)c2cccs2)cc1

>  <Energy>  (12) 
97.62197005859268

>  <Genealogy>  (12) 
Cc1ccc(CNc2ccc(S(=O)(=O)N3CCOCC3)cc2[N-]C(=O)c2cccs2)cc1 (protonated)
Cc1ccc(CNc2ccc(S(=O)(=O)N3CCOCC3)cc2[N-]C(=O)c2cccs2)cc1 (3D coordinates assigned)
Cc1ccc(CNc2ccc(S(=O)(=O)N3CCOCC3)cc2[N-]C(=O)c2cccs2)cc1 (nonaromatic ring conformer: 97.62197005859268 kcal/mol)

>  <smiles>  (12) 
Cc1ccc(CNc2ccc(S(=O)(=O)N3CCOCC3)cc2NC(=O)c2cccs2)cc1

>  <score_type>  (12) 
oracle

>  <origin>  (12) 
adgpu

>  <m_score__min__energy>  (12) 
-11.960000000000001

>  <m_primary>  (12) 
energy

$$$$
12:0
     RDKit          3D

 53 55  0  0  0  0  0  0  0  0999 V2000
   -0.6940   22.2710  -28.8970 C   0  0  0  0  0  0  0  0  0  0  0  0
   -1.7580   21.8640  -29.8780 C   0  0  0  0  0  0  0  0  0  0  0  0
   -1.4040   21.2210  -31.0740 C   0  0  0  0  0  0  0  0  0  0  0  0
   -2.3870   20.8320  -31.9910 C   0  0  0  0  0  0  0  0  0  0  0  0
   -1.9160   20.0040  -33.4750 S   0  0  0  0  0  0  0  0  0  0  0  0
   -0.8960   18.9520  -33.1430 O   0  0  0  0  0  0  0  0  0  0  0  0
   -1.3030   20.9760  -34.4440 O   0  0  0  0  0  0  0  0  0  0  0  0
   -3.2990   19.2480  -34.2080 N   0  0  0  0  0  0  0  0  0  0  0  0
   -3.8090   18.1900  -33.3320 C   0  0  0  0  0  0  0  0  0  0  0  0
   -5.2600   18.4380  -33.0320 C   0  0  0  0  0  0  0  0  0  0  0  0
   -5.9100   17.7040  -32.0250 C   0  0  0  0  0  0  0  0  0  0  0  0
   -7.2510   17.9600  -31.7220 C   0  0  0  0  0  0  0  0  0  0  0  0
   -7.9470   18.9550  -32.4120 C   0  0  0  0  0  0  0  0  0  0  0  0
   -7.3040   19.7000  -33.4040 C   0  0  0  0  0  0  0  0  0  0  0  0
   -5.9630   19.4480  -33.7110 C   0  0  0  0  0  0  0  0  0  0  0  0
   -3.7350   21.0780  -31.7060 C   0  0  0  0  0  0  0  0  0  0  0  0
   -4.0990   21.7150  -30.5180 C   0  0  0  0  0  0  0  0  0  0  0  0
   -3.1150   22.1130  -29.5920 C   0  0  0  0  0  0  0  0  0  0  0  0
   -3.4470   22.7530  -28.3860 O   0  0  0  0  0  0  0  0  0  0  0  0
   -3.8320   24.1210  -28.2740 C   0  0  0  0  0  0  0  0  0  0  0  0
   -3.1320   24.9140  -29.3270 C   0  0  0  0  0  0  0  0  0  0  0  0
   -1.9230   25.2360  -29.1720 O   0  0  0  0  0  0  0  0  0  0  0  0
   -3.8400   25.2980  -30.5090 N   0  0  0  0  0  0  0  0  0  0  0  0
   -5.2570   25.6440  -30.5240 C   0  0  0  0  0  0  0  0  0  0  0  0
   -6.0900   24.4200  -30.7930 C   0  0  0  0  0  0  0  0  0  0  0  0
   -6.8100   23.8190  -29.7480 C   0  0  0  0  0  0  0  0  0  0  0  0
   -7.6010   22.6910  -29.9940 C   0  0  0  0  0  0  0  0  0  0  0  0
   -7.6810   22.1620  -31.2850 C   0  0  0  0  0  0  0  0  0  0  0  0
   -6.9710   22.7580  -32.3320 C   0  0  0  0  0  0  0  0  0  0  0  0
   -6.1790   23.8850  -32.0890 C   0  0  0  0  0  0  0  0  0  0  0  0
   -1.0666   22.1285  -27.8719 H   0  0  0  0  0  0  0  0  0  0  0  0
    0.2024   21.6523  -29.0507 H   0  0  0  0  0  0  0  0  0  0  0  0
   -0.4393   23.3300  -29.0507 H   0  0  0  0  0  0  0  0  0  0  0  0
   -0.3447   21.0210  -31.2926 H   0  0  0  0  0  0  0  0  0  0  0  0
   -2.9660   18.8050  -35.0960 H   0  0  0  0  0  0  0  0  0  0  0  0
   -3.7001   17.2165  -33.8325 H   0  0  0  0  0  0  0  0  0  0  0  0
   -3.2375   18.1876  -32.3921 H   0  0  0  0  0  0  0  0  0  0  0  0
   -5.3622   16.9257  -31.4735 H   0  0  0  0  0  0  0  0  0  0  0  0
   -7.7583   17.3770  -30.9392 H   0  0  0  0  0  0  0  0  0  0  0  0
   -9.0027   19.1525  -32.1742 H   0  0  0  0  0  0  0  0  0  0  0  0
   -7.8531   20.4854  -33.9440 H   0  0  0  0  0  0  0  0  0  0  0  0
   -5.4570   20.0421  -34.4862 H   0  0  0  0  0  0  0  0  0  0  0  0
   -4.5112   20.7681  -32.4212 H   0  0  0  0  0  0  0  0  0  0  0  0
   -5.1607   21.9072  -30.3039 H   0  0  0  0  0  0  0  0  0  0  0  0
   -4.9201   24.2095  -28.4088 H   0  0  0  0  0  0  0  0  0  0  0  0
   -3.5576   24.5026  -27.2795 H   0  0  0  0  0  0  0  0  0  0  0  0
   -5.5378   26.0669  -29.5481 H   0  0  0  0  0  0  0  0  0  0  0  0
   -5.4371   26.3817  -31.3199 H   0  0  0  0  0  0  0  0  0  0  0  0
   -6.7521   24.2365  -28.7319 H   0  0  0  0  0  0  0  0  0  0  0  0
   -8.1597   22.2209  -29.1713 H   0  0  0  0  0  0  0  0  0  0  0  0
   -8.3033   21.2757  -31.4779 H   0  0  0  0  0  0  0  0  0  0  0  0
   -7.0354   22.3402  -33.3475 H   0  0  0  0  0  0  0  0  0  0  0  0
   -5.6242   24.3538  -32.9151 H   0  0  0  0  0  0  0  0  0  0  0  0
  1  2  1  0
  2  3  2  0
  3  4  1  0
  4  5  1  0
  5  6  2  0
  5  7  2  0
  5  8  1  0
  8  9  1  0
  9 10  1  0
 10 11  2  0
 11 12  1  0
 12 13  2  0
 13 14  1  0
 14 15  2  0
  4 16  2  0
 16 17  1  0
 17 18  2  0
 18 19  1  0
 19 20  1  0
 20 21  1  0
 21 22  2  0
 21 23  1  0
 23 24  1  0
 24 25  1  0
 25 26  2  0
 26 27  1  0
 27 28  2  0
 28 29  1  0
 29 30  2  0
 18  2  1  0
 30 25  1  0
 15 10  1  0
  1 31  1  0
  1 32  1  0
  1 33  1  0
  3 34  1  0
  8 35  1  0
  9 36  1  0
  9 37  1  0
 11 38  1  0
 12 39  1  0
 13 40  1  0
 14 41  1  0
 15 42  1  0
 16 43  1  0
 17 44  1  0
 20 45  1  0
 20 46  1  0
 24 47  1  0
 24 48  1  0
 26 49  1  0
 27 50  1  0
 28 51  1  0
 29 52  1  0
 30 53  1  0
M  CHG  1  23  -1
M  END
>  <UniqueID>  (13) 
12

>  <SMILES>  (13) 
Cc1cc(S(=O)(=O)NCc2ccccc2)ccc1OCC(=O)[N-]Cc1ccccc1

>  <Energy>  (13) 
47.785286577043095

>  <Genealogy>  (13) 
Cc1cc(S(=O)(=O)NCc2ccccc2)ccc1OCC(=O)[N-]Cc1ccccc1 (protonated)
Cc1cc(S(=O)(=O)NCc2ccccc2)ccc1OCC(=O)[N-]Cc1ccccc1 (3D coordinates assigned)
Cc1cc(S(=O)(=O)NCc2ccccc2)ccc1OCC(=O)[N-]Cc1ccccc1 (optimized conformer: 47.785286577043095 kcal/mol)

>  <smiles>  (13) 
Cc1cc(S(=O)(=O)NCc2ccccc2)ccc1OCC(=O)NCc1ccccc1

>  <score_type>  (13) 
oracle

>  <origin>  (13) 
adgpu

>  <m_score__min__energy>  (13) 
-11.640000000000001

>  <m_primary>  (13) 
energy

$$$$
13:0
     RDKit          3D

 38 40  0  0  0  0  0  0  0  0999 V2000
   -3.0910   17.3760  -34.4690 O   0  0  0  0  0  0  0  0  0  0  0  0
   -4.0600   16.6820  -34.0580 C   0  0  0  0  0  0  0  0  0  0  0  0
   -5.4050   17.0580  -34.3870 N   0  0  0  0  0  0  0  0  0  0  0  0
   -6.2050   18.0450  -33.7200 C   0  0  0  0  0  0  0  0  0  0  0  0
   -6.0520   19.3880  -34.0800 C   0  0  0  0  0  0  0  0  0  0  0  0
   -6.7980   20.3830  -33.4440 C   0  0  0  0  0  0  0  0  0  0  0  0
   -7.7100   20.0500  -32.4280 C   0  0  0  0  0  0  0  0  0  0  0  0
   -8.5050   21.0990  -31.7450 C   0  0  0  0  0  0  0  0  0  0  0  0
   -9.6850   21.3220  -32.1220 O   0  0  0  0  0  0  0  0  0  0  0  0
   -7.9910   21.8380  -30.6280 N   0  0  0  0  0  0  0  0  0  0  0  0
   -6.9180   22.7910  -30.6640 C   0  0  0  0  0  0  0  0  0  0  0  0
   -5.6000   22.4090  -30.9760 C   0  0  0  0  0  0  0  0  0  0  0  0
   -4.5820   23.3670  -31.0170 C   0  0  0  0  0  0  0  0  0  0  0  0
   -4.8740   24.7110  -30.7640 C   0  0  0  0  0  0  0  0  0  0  0  0
   -3.8610   25.6610  -30.8050 O   0  0  0  0  0  0  0  0  0  0  0  0
   -6.1860   25.0980  -30.4760 C   0  0  0  0  0  0  0  0  0  0  0  0
   -7.2050   24.1420  -30.4330 C   0  0  0  0  0  0  0  0  0  0  0  0
   -7.8320   18.7060  -32.0370 C   0  0  0  0  0  0  0  0  0  0  0  0
   -7.0850   17.7110  -32.6760 C   0  0  0  0  0  0  0  0  0  0  0  0
   -3.8100   15.5090  -33.1880 C   0  0  0  0  0  0  0  0  0  0  0  0
   -2.5460   14.8880  -33.1690 C   0  0  0  0  0  0  0  0  0  0  0  0
   -2.3120   13.7810  -32.3490 C   0  0  0  0  0  0  0  0  0  0  0  0
   -3.3330   13.2790  -31.5390 C   0  0  0  0  0  0  0  0  0  0  0  0
   -4.5920   13.8850  -31.5480 C   0  0  0  0  0  0  0  0  0  0  0  0
   -4.8320   14.9930  -32.3670 C   0  0  0  0  0  0  0  0  0  0  0  0
   -5.3382   19.6628  -34.8706 H   0  0  0  0  0  0  0  0  0  0  0  0
   -6.6707   21.4346  -33.7405 H   0  0  0  0  0  0  0  0  0  0  0  0
   -5.3700   21.3544  -31.1881 H   0  0  0  0  0  0  0  0  0  0  0  0
   -3.5505   23.0630  -31.2485 H   0  0  0  0  0  0  0  0  0  0  0  0
   -6.4169   26.1560  -30.2830 H   0  0  0  0  0  0  0  0  0  0  0  0
   -8.2378   24.4526  -30.2166 H   0  0  0  0  0  0  0  0  0  0  0  0
   -8.5198   18.4344  -31.2226 H   0  0  0  0  0  0  0  0  0  0  0  0
   -7.1866   16.6623  -32.3601 H   0  0  0  0  0  0  0  0  0  0  0  0
   -1.7369   15.2774  -33.8044 H   0  0  0  0  0  0  0  0  0  0  0  0
   -1.3210   13.3037  -32.3414 H   0  0  0  0  0  0  0  0  0  0  0  0
   -3.1462   12.4074  -30.8945 H   0  0  0  0  0  0  0  0  0  0  0  0
   -5.3960   13.4898  -30.9097 H   0  0  0  0  0  0  0  0  0  0  0  0
   -5.8257   15.4649  -32.3701 H   0  0  0  0  0  0  0  0  0  0  0  0
  1  2  2  0
  2  3  1  0
  3  4  1  0
  4  5  2  0
  5  6  1  0
  6  7  2  0
  7  8  1  0
  8  9  2  0
  8 10  1  0
 10 11  1  0
 11 12  2  0
 12 13  1  0
 13 14  2  0
 14 15  1  0
 14 16  1  0
 16 17  2  0
  7 18  1  0
 18 19  2  0
  2 20  1  0
 20 21  2  0
 21 22  1  0
 22 23  2  0
 23 24  1  0
 24 25  2  0
 19  4  1  0
 25 20  1  0
 17 11  1  0
  5 26  1  0
  6 27  1  0
 12 28  1  0
 13 29  1  0
 16 30  1  0
 17 31  1  0
 18 32  1  0
 19 33  1  0
 21 34  1  0
 22 35  1  0
 23 36  1  0
 24 37  1  0
 25 38  1  0
M  CHG  3   3  -1  10  -1  15  -1
M  END
>  <UniqueID>  (14) 
13

>  <SMILES>  (14) 
O=C([N-]c1ccc(C(=O)[N-]c2ccc([O-])cc2)cc1)c1ccccc1

>  <Energy>  (14) 
52.43362794177318

>  <Genealogy>  (14) 
O=C([N-]c1ccc(C(=O)[N-]c2ccc([O-])cc2)cc1)c1ccccc1 (protonated)
O=C([N-]c1ccc(C(=O)[N-]c2ccc([O-])cc2)cc1)c1ccccc1 (3D coordinates assigned)
O=C([N-]c1ccc(C(=O)[N-]c2ccc([O-])cc2)cc1)c1ccccc1 (optimized conformer: 52.43362794177318 kcal/mol)

>  <smiles>  (14) 
O=C(Nc1ccc(C(=O)Nc2ccc(O)cc2)cc1)c1ccccc1

>  <score_type>  (14) 
oracle

>  <origin>  (14) 
adgpu

>  <m_score__min__energy>  (14) 
-11

>  <m_primary>  (14) 
energy

$$$$
14:0
     RDKit          3D

 53 55  0  0  0  0  0  0  0  0999 V2000
   -7.5830   18.4500  -31.9520 C   0  0  0  0  0  0  0  0  0  0  0  0
   -8.7600   19.4060  -31.8390 C   0  0  0  0  0  0  0  0  0  0  0  0
   -8.4270   20.6460  -32.4590 O   0  0  0  0  0  0  0  0  0  0  0  0
   -7.6900   21.6670  -31.8440 C   0  0  0  0  0  0  0  0  0  0  0  0
   -8.0140   22.1720  -30.5700 C   0  0  0  0  0  0  0  0  0  0  0  0
   -7.2460   23.1920  -29.9990 C   0  0  0  0  0  0  0  0  0  0  0  0
   -6.1450   23.7170  -30.6890 C   0  0  0  0  0  0  0  0  0  0  0  0
   -5.1910   25.0090  -29.9700 S   0  0  0  0  0  0  0  0  0  0  0  0
   -5.2900   24.9150  -28.4730 O   0  0  0  0  0  0  0  0  0  0  0  0
   -5.7110   26.3400  -30.4360 O   0  0  0  0  0  0  0  0  0  0  0  0
   -3.5380   24.8390  -30.4660 N   0  0  0  0  0  0  0  0  0  0  0  0
   -2.6420   23.8120  -30.0220 C   0  0  0  0  0  0  0  0  0  0  0  0
   -2.8600   22.4520  -30.3110 C   0  0  0  0  0  0  0  0  0  0  0  0
   -1.9650   21.4840  -29.8490 C   0  0  0  0  0  0  0  0  0  0  0  0
   -0.8470   21.8580  -29.1030 C   0  0  0  0  0  0  0  0  0  0  0  0
   -0.6090   23.2120  -28.8190 C   0  0  0  0  0  0  0  0  0  0  0  0
    0.5770   23.6160  -27.9820 C   0  0  0  0  0  0  0  0  0  0  0  0
    0.2490   23.4650  -26.4820 C   0  0  0  0  0  0  0  0  0  0  0  0
   -0.4040   24.6480  -25.8760 N   0  0  0  0  0  0  0  0  0  0  0  0
    0.0460   24.9180  -24.4940 C   0  0  0  0  0  0  0  0  0  0  0  0
   -0.7930   26.0340  -23.8400 C   0  0  0  0  0  0  0  0  0  0  0  0
   -1.4550   26.8460  -24.8680 N   0  0  0  0  0  0  0  0  0  0  0  0
   -2.4250   26.0410  -25.6300 C   0  0  0  0  0  0  0  0  0  0  0  0
   -1.8720   24.6480  -25.9860 C   0  0  0  0  0  0  0  0  0  0  0  0
   -1.5190   24.1820  -29.2700 C   0  0  0  0  0  0  0  0  0  0  0  0
   -5.8250   23.2200  -31.9600 C   0  0  0  0  0  0  0  0  0  0  0  0
   -6.5920   22.2010  -32.5300 C   0  0  0  0  0  0  0  0  0  0  0  0
   -7.2394   18.1709  -30.9450 H   0  0  0  0  0  0  0  0  0  0  0  0
   -7.8953   17.5466  -32.4964 H   0  0  0  0  0  0  0  0  0  0  0  0
   -6.7628   18.9409  -32.4964 H   0  0  0  0  0  0  0  0  0  0  0  0
   -9.6364   18.9693  -32.3402 H   0  0  0  0  0  0  0  0  0  0  0  0
   -8.9920   19.5777  -30.7775 H   0  0  0  0  0  0  0  0  0  0  0  0
   -8.8750   21.7624  -30.0214 H   0  0  0  0  0  0  0  0  0  0  0  0
   -7.5071   23.5835  -29.0048 H   0  0  0  0  0  0  0  0  0  0  0  0
   -3.7373   22.1505  -30.9021 H   0  0  0  0  0  0  0  0  0  0  0  0
   -2.1426   20.4221  -30.0744 H   0  0  0  0  0  0  0  0  0  0  0  0
   -0.1502   21.0899  -28.7364 H   0  0  0  0  0  0  0  0  0  0  0  0
    1.4340   22.9735  -28.2327 H   0  0  0  0  0  0  0  0  0  0  0  0
    0.8213   24.6679  -28.1911 H   0  0  0  0  0  0  0  0  0  0  0  0
   -0.4227   22.6022  -26.3620 H   0  0  0  0  0  0  0  0  0  0  0  0
    1.2098   23.3364  -25.9622 H   0  0  0  0  0  0  0  0  0  0  0  0
   -0.0541   23.9986  -23.8984 H   0  0  0  0  0  0  0  0  0  0  0  0
    1.0951   25.2470  -24.5283 H   0  0  0  0  0  0  0  0  0  0  0  0
   -1.5556   25.5804  -23.1898 H   0  0  0  0  0  0  0  0  0  0  0  0
   -0.1278   26.6803  -23.2486 H   0  0  0  0  0  0  0  0  0  0  0  0
   -1.9750   27.6170  -24.3890 H   0  0  0  0  0  0  0  0  0  0  0  0
   -3.3353   25.9169  -25.0251 H   0  0  0  0  0  0  0  0  0  0  0  0
   -2.6387   26.5702  -26.5704 H   0  0  0  0  0  0  0  0  0  0  0  0
   -2.2895   23.9021  -25.2937 H   0  0  0  0  0  0  0  0  0  0  0  0
   -2.1576   24.3983  -27.0185 H   0  0  0  0  0  0  0  0  0  0  0  0
   -1.3486   25.2420  -29.0307 H   0  0  0  0  0  0  0  0  0  0  0  0
   -4.9671   23.6337  -32.5104 H   0  0  0  0  0  0  0  0  0  0  0  0
   -6.3312   21.8147  -33.5264 H   0  0  0  0  0  0  0  0  0  0  0  0
  1  2  1  0
  2  3  1  0
  3  4  1  0
  4  5  2  0
  5  6  1  0
  6  7  2  0
  7  8  1  0
  8  9  2  0
  8 10  2  0
  8 11  1  0
 11 12  1  0
 12 13  2  0
 13 14  1  0
 14 15  2  0
 15 16  1  0
 16 17  1  0
 17 18  1  0
 18 19  1  0
 19 20  1  0
 20 21  1  0
 21 22  1  0
 22 23  1  0
 23 24  1  0
 16 25  2  0
  7 26  1  0
 26 27  2  0
 27  4  1  0
 25 12  1  0
 24 19  1  0
  1 28  1  0
  1 29  1  0
  1 30  1  0
  2 31  1  0
  2 32  1  0
  5 33  1  0
  6 34  1  0
 13 35  1  0
 14 36  1  0
 15 37  1  0
 17 38  1  0
 17 39  1  0
 18 40  1  0
 18 41  1  0
 20 42  1  0
 20 43  1  0
 21 44  1  0
 21 45  1  0
 22 46  1  0
 23 47  1  0
 23 48  1  0
 24 49  1  0
 24 50  1  0
 25 51  1  0
 26 52  1  0
 27 53  1  0
M  CHG  1  11  -1
M  END
>  <UniqueID>  (15) 
14

>  <SMILES>  (15) 
CCOc1ccc(S(=O)(=O)[N-]c2cccc(CCN3CCNCC3)c2)cc1

>  <Energy>  (15) 
62.228929465596

>  <Genealogy>  (15) 
CCOc1ccc(S(=O)(=O)[N-]c2cccc(CCN3CCNCC3)c2)cc1 (protonated)
CCOc1ccc(S(=O)(=O)[N-]c2cccc(CCN3CCNCC3)c2)cc1 (3D coordinates assigned)
CCOc1ccc(S(=O)(=O)[N-]c2cccc(CCN3CCNCC3)c2)cc1 (nonaromatic ring conformer: 62.228929465596 kcal/mol)

>  <smiles>  (15) 
CCOc1ccc(S(=O)(=O)Nc2cccc(CCN3CCNCC3)c2)cc1

>  <score_type>  (15) 
oracle

>  <origin>  (15) 
adgpu

>  <m_score__min__energy>  (15) 
-9.8100000000000005

>  <m_primary>  (15) 
energy

$$$$
15:0
     RDKit          3D

 39 41  0  0  0  0  0  0  0  0999 V2000
    1.4880   24.6090  -27.8730 N   0  0  0  0  0  0  0  0  0  0  0  0
    0.3640   24.3750  -28.0200 C   0  0  0  0  0  0  0  0  0  0  0  0
   -1.0340   24.0850  -28.2040 C   0  0  0  0  0  0  0  0  0  0  0  0
   -1.6500   23.0900  -27.4350 C   0  0  0  0  0  0  0  0  0  0  0  0
   -3.0100   22.8180  -27.6050 C   0  0  0  0  0  0  0  0  0  0  0  0
   -3.7570   23.5290  -28.5490 C   0  0  0  0  0  0  0  0  0  0  0  0
   -3.1400   24.5140  -29.3430 C   0  0  0  0  0  0  0  0  0  0  0  0
   -3.8730   25.2850  -30.3080 N   0  0  0  0  0  0  0  0  0  0  0  0
   -5.1320   24.9400  -30.8980 C   0  0  0  0  0  0  0  0  0  0  0  0
   -6.0890   25.7610  -30.8970 O   0  0  0  0  0  0  0  0  0  0  0  0
   -5.3270   23.5950  -31.4610 C   0  0  0  0  0  0  0  0  0  0  0  0
   -6.5370   22.9350  -31.5660 C   0  0  0  0  0  0  0  0  0  0  0  0
   -6.2460   21.7210  -32.1550 C   0  0  0  0  0  0  0  0  0  0  0  0
   -7.3950   20.4630  -32.5720 S   0  0  0  0  0  0  0  0  0  0  0  0
   -7.2290   20.0940  -34.0200 O   0  0  0  0  0  0  0  0  0  0  0  0
   -8.7840   20.9990  -32.3620 O   0  0  0  0  0  0  0  0  0  0  0  0
   -7.1370   19.0640  -31.5520 N   0  0  0  0  0  0  0  0  0  0  0  0
   -5.7610   18.5740  -31.6880 C   0  0  0  0  0  0  0  0  0  0  0  0
   -5.7470   17.4870  -32.7540 C   0  0  0  0  0  0  0  0  0  0  0  0
   -7.1990   17.0890  -32.9490 C   0  0  0  0  0  0  0  0  0  0  0  0
   -7.9920   17.9530  -31.9800 C   0  0  0  0  0  0  0  0  0  0  0  0
   -4.8880   21.6880  -32.3900 C   0  0  0  0  0  0  0  0  0  0  0  0
   -4.3310   22.8360  -31.9630 N   0  0  0  0  0  0  0  0  0  0  0  0
   -1.7820   24.7990  -29.1490 C   0  0  0  0  0  0  0  0  0  0  0  0
   -1.0635   22.5227  -26.6973 H   0  0  0  0  0  0  0  0  0  0  0  0
   -3.4944   22.0420  -26.9942 H   0  0  0  0  0  0  0  0  0  0  0  0
   -4.8296   23.3181  -28.6716 H   0  0  0  0  0  0  0  0  0  0  0  0
   -7.5243   23.3004  -31.2472 H   0  0  0  0  0  0  0  0  0  0  0  0
   -5.0996   19.3997  -31.9893 H   0  0  0  0  0  0  0  0  0  0  0  0
   -5.4045   18.1705  -30.7288 H   0  0  0  0  0  0  0  0  0  0  0  0
   -5.3257   17.8753  -33.6930 H   0  0  0  0  0  0  0  0  0  0  0  0
   -5.1264   16.6298  -32.4537 H   0  0  0  0  0  0  0  0  0  0  0  0
   -7.5151   17.2837  -33.9845 H   0  0  0  0  0  0  0  0  0  0  0  0
   -7.3564   16.0166  -32.7616 H   0  0  0  0  0  0  0  0  0  0  0  0
   -8.8899   18.3453  -32.4799 H   0  0  0  0  0  0  0  0  0  0  0  0
   -8.3059   17.3579  -31.1097 H   0  0  0  0  0  0  0  0  0  0  0  0
   -4.3440   20.8525  -32.8547 H   0  0  0  0  0  0  0  0  0  0  0  0
   -3.3180   23.0830  -32.0180 H   0  0  0  0  0  0  0  0  0  0  0  0
   -1.2997   25.5892  -29.7431 H   0  0  0  0  0  0  0  0  0  0  0  0
  1  2  3  0
  2  3  1  0
  3  4  2  0
  4  5  1  0
  5  6  2  0
  6  7  1  0
  7  8  1  0
  8  9  1  0
  9 10  2  0
  9 11  1  0
 11 12  2  0
 12 13  1  0
 13 14  1  0
 14 15  2  0
 14 16  2  0
 14 17  1  0
 17 18  1  0
 18 19  1  0
 19 20  1  0
 20 21  1  0
 13 22  2  0
 22 23  1  0
  7 24  2  0
 24  3  1  0
 23 11  1  0
 21 17  1  0
  4 25  1  0
  5 26  1  0
  6 27  1  0
 12 28  1  0
 18 29  1  0
 18 30  1  0
 19 31  1  0
 19 32  1  0
 20 33  1  0
 20 34  1  0
 21 35  1  0
 21 36  1  0
 22 37  1  0
 23 38  1  0
 24 39  1  0
M  CHG  1   8  -1
M  END
>  <UniqueID>  (16) 
15

>  <SMILES>  (16) 
N#Cc1cccc([N-]C(=O)c2cc(S(=O)(=O)N3CCCC3)c[nH]2)c1

>  <Energy>  (16) 
68.53384772906693

>  <Genealogy>  (16) 
N#Cc1cccc([N-]C(=O)c2cc(S(=O)(=O)N3CCCC3)c[nH]2)c1 (protonated)
N#Cc1cccc([N-]C(=O)c2cc(S(=O)(=O)N3CCCC3)c[nH]2)c1 (3D coordinates assigned)
N#Cc1cccc([N-]C(=O)c2cc(S(=O)(=O)N3CCCC3)c[nH]2)c1 (nonaromatic ring conformer: 68.53384772906693 kcal/mol)

>  <smiles>  (16) 
N#Cc1cccc(NC(=O)c2cc(S(=O)(=O)N3CCCC3)c[nH]2)c1

>  <score_type>  (16) 
oracle

>  <origin>  (16) 
adgpu

>  <m_score__min__energy>  (16) 
-10.52

>  <m_primary>  (16) 
energy

$$$$
16:0
     RDKit          3D

 59 62  0  0  0  0  0  0  0  0999 V2000
    0.4550   18.1200  -34.7930 C   0  0  0  0  0  0  0  0  0  0  0  0
   -0.9450   18.2730  -34.2580 C   0  0  0  0  0  0  0  0  0  0  0  0
   -1.9660   17.4890  -34.8160 C   0  0  0  0  0  0  0  0  0  0  0  0
   -3.2710   17.5720  -34.3320 C   0  0  0  0  0  0  0  0  0  0  0  0
   -3.5900   18.4340  -33.2770 C   0  0  0  0  0  0  0  0  0  0  0  0
   -4.9540   18.5040  -32.8220 N   0  0  0  0  0  0  0  0  0  0  0  0
   -6.1130   18.5140  -33.6710 C   0  0  0  0  0  0  0  0  0  0  0  0
   -5.9980   18.5620  -34.9250 O   0  0  0  0  0  0  0  0  0  0  0  0
   -7.4860   18.5700  -33.0620 C   0  0  0  0  0  0  0  0  0  0  0  0
   -7.8550   19.9750  -32.6570 C   0  0  0  0  0  0  0  0  0  0  0  0
   -9.1680   20.2670  -32.2480 C   0  0  0  0  0  0  0  0  0  0  0  0
   -9.5160   21.5630  -31.8620 C   0  0  0  0  0  0  0  0  0  0  0  0
   -8.5550   22.5780  -31.8680 C   0  0  0  0  0  0  0  0  0  0  0  0
   -7.2350   22.3030  -32.2430 C   0  0  0  0  0  0  0  0  0  0  0  0
   -6.3080   23.3560  -32.2520 O   0  0  0  0  0  0  0  0  0  0  0  0
   -5.1550   23.4380  -31.4520 C   0  0  0  0  0  0  0  0  0  0  0  0
   -4.0930   22.5220  -31.5810 C   0  0  0  0  0  0  0  0  0  0  0  0
   -2.9640   22.6340  -30.7620 C   0  0  0  0  0  0  0  0  0  0  0  0
   -2.8940   23.6430  -29.7980 C   0  0  0  0  0  0  0  0  0  0  0  0
   -3.9570   24.5400  -29.6480 C   0  0  0  0  0  0  0  0  0  0  0  0
   -5.0860   24.4340  -30.4680 C   0  0  0  0  0  0  0  0  0  0  0  0
   -6.8900   20.9980  -32.6420 C   0  0  0  0  0  0  0  0  0  0  0  0
   -2.5760   19.2370  -32.7250 C   0  0  0  0  0  0  0  0  0  0  0  0
   -1.2500   19.1390  -33.1780 C   0  0  0  0  0  0  0  0  0  0  0  0
   -0.0040   20.1250  -32.3930 S   0  0  0  0  0  0  0  0  0  0  0  0
    1.1280   19.2340  -31.9640 O   0  0  0  0  0  0  0  0  0  0  0  0
   -0.5700   20.7930  -31.1680 O   0  0  0  0  0  0  0  0  0  0  0  0
    0.5790   21.3340  -33.5090 N   0  0  0  0  0  0  0  0  0  0  0  0
    1.8620   20.9080  -34.0880 C   0  0  0  0  0  0  0  0  0  0  0  0
    2.3700   21.9680  -35.0900 C   0  0  0  0  0  0  0  0  0  0  0  0
    1.4080   22.9760  -35.3450 O   0  0  0  0  0  0  0  0  0  0  0  0
    0.1830   22.3830  -35.7280 C   0  0  0  0  0  0  0  0  0  0  0  0
   -0.4160   21.5520  -34.5750 C   0  0  0  0  0  0  0  0  0  0  0  0
    1.1618   18.0428  -33.9537 H   0  0  0  0  0  0  0  0  0  0  0  0
    0.5151   17.2099  -35.4080 H   0  0  0  0  0  0  0  0  0  0  0  0
    0.7103   18.9956  -35.4080 H   0  0  0  0  0  0  0  0  0  0  0  0
   -1.7347   16.8021  -35.6434 H   0  0  0  0  0  0  0  0  0  0  0  0
   -4.0591   16.9525  -34.7849 H   0  0  0  0  0  0  0  0  0  0  0  0
   -5.1100   18.6910  -31.8070 H   0  0  0  0  0  0  0  0  0  0  0  0
   -8.2183   18.2063  -33.7978 H   0  0  0  0  0  0  0  0  0  0  0  0
   -7.4894   17.9393  -32.1608 H   0  0  0  0  0  0  0  0  0  0  0  0
   -9.9257   19.4697  -32.2320 H   0  0  0  0  0  0  0  0  0  0  0  0
  -10.5479   21.7855  -31.5527 H   0  0  0  0  0  0  0  0  0  0  0  0
   -8.8382   23.6000  -31.5759 H   0  0  0  0  0  0  0  0  0  0  0  0
   -4.1512   21.7163  -32.3276 H   0  0  0  0  0  0  0  0  0  0  0  0
   -2.1299   21.9262  -30.8773 H   0  0  0  0  0  0  0  0  0  0  0  0
   -2.0040   23.7319  -29.1577 H   0  0  0  0  0  0  0  0  0  0  0  0
   -3.9053   25.3299  -28.8842 H   0  0  0  0  0  0  0  0  0  0  0  0
   -5.9234   25.1357  -30.3398 H   0  0  0  0  0  0  0  0  0  0  0  0
   -5.8560   20.7762  -32.9449 H   0  0  0  0  0  0  0  0  0  0  0  0
   -2.8248   19.9521  -31.9270 H   0  0  0  0  0  0  0  0  0  0  0  0
    2.6014   20.7845  -33.2830 H   0  0  0  0  0  0  0  0  0  0  0  0
    1.7198   19.9531  -34.6152 H   0  0  0  0  0  0  0  0  0  0  0  0
    3.2743   22.4392  -34.6774 H   0  0  0  0  0  0  0  0  0  0  0  0
    2.5796   21.4566  -36.0411 H   0  0  0  0  0  0  0  0  0  0  0  0
   -0.5277   23.1748  -36.0071 H   0  0  0  0  0  0  0  0  0  0  0  0
    0.3703   21.7136  -36.5805 H   0  0  0  0  0  0  0  0  0  0  0  0
   -1.2803   22.0883  -34.1562 H   0  0  0  0  0  0  0  0  0  0  0  0
   -0.7250   20.5736  -34.9716 H   0  0  0  0  0  0  0  0  0  0  0  0
  1  2  1  0
  2  3  2  0
  3  4  1  0
  4  5  2  0
  5  6  1  0
  6  7  1  0
  7  8  2  0
  7  9  1  0
  9 10  1  0
 10 11  2  0
 11 12  1  0
 12 13  2  0
 13 14  1  0
 14 15  1  0
 15 16  1  0
 16 17  2  0
 17 18  1  0
 18 19  2  0
 19 20  1  0
 20 21  2  0
 14 22  2  0
  5 23  1  0
 23 24  2  0
 24 25  1  0
 25 26  2  0
 25 27  2  0
 25 28  1  0
 28 29  1  0
 29 30  1  0
 30 31  1  0
 31 32  1  0
 32 33  1  0
 24  2  1  0
 33 28  1  0
 22 10  1  0
 21 16  1  0
  1 34  1  0
  1 35  1  0
  1 36  1  0
  3 37  1  0
  4 38  1  0
  6 39  1  0
  9 40  1  0
  9 41  1  0
 11 42  1  0
 12 43  1  0
 13 44  1  0
 17 45  1  0
 18 46  1  0
 19 47  1  0
 20 48  1  0
 21 49  1  0
 22 50  1  0
 23 51  1  0
 29 52  1  0
 29 53  1  0
 30 54  1  0
 30 55  1  0
 32 56  1  0
 32 57  1  0
 33 58  1  0
 33 59  1  0
M  END
>  <UniqueID>  (17) 
16

>  <SMILES>  (17) 
Cc1ccc(NC(=O)Cc2cccc(Oc3ccccc3)c2)cc1S(=O)(=O)N1CCOCC1

>  <Energy>  (17) 
79.7050271290113

>  <Genealogy>  (17) 
Cc1ccc(NC(=O)Cc2cccc(Oc3ccccc3)c2)cc1S(=O)(=O)N1CCOCC1 (3D coordinates assigned)
Cc1ccc(NC(=O)Cc2cccc(Oc3ccccc3)c2)cc1S(=O)(=O)N1CCOCC1 (nonaromatic ring conformer: 79.7050271290113 kcal/mol)

>  <smiles>  (17) 
Cc1ccc(NC(=O)Cc2cccc(Oc3ccccc3)c2)cc1S(=O)(=O)N1CCOCC1

>  <score_type>  (17) 
oracle

>  <origin>  (17) 
adgpu

>  <m_score__min__energy>  (17) 
-11.76

>  <m_primary>  (17) 
energy

$$$$
17:0
     RDKit          3D

 55 57  0  0  0  0  0  0  0  0999 V2000
    0.9270   19.0720  -30.4840 C   0  0  0  0  0  0  0  0  0  0  0  0
    0.5550   19.5360  -31.9000 C   0  0  0  0  0  0  0  0  0  0  0  0
   -0.7290   20.2660  -31.9800 N   0  0  0  0  0  0  0  0  0  0  0  0
   -1.1190   20.9000  -30.6970 C   0  0  0  0  0  0  0  0  0  0  0  0
   -2.1200   22.0600  -30.8700 C   0  0  0  0  0  0  0  0  0  0  0  0
   -2.9320   21.8790  -32.0780 N   0  0  0  0  0  0  0  0  0  0  0  0
   -4.3540   22.0650  -32.0180 C   0  0  0  0  0  0  0  0  0  0  0  0
   -5.1980   21.0460  -32.4720 C   0  0  0  0  0  0  0  0  0  0  0  0
   -6.5830   21.2040  -32.4320 C   0  0  0  0  0  0  0  0  0  0  0  0
   -7.1550   22.3900  -31.9390 C   0  0  0  0  0  0  0  0  0  0  0  0
   -8.6300   22.5840  -31.9090 C   0  0  0  0  0  0  0  0  0  0  0  0
   -9.5520   21.5610  -31.3150 C   0  0  0  0  0  0  0  0  0  0  0  0
   -9.1340   23.6340  -32.3920 O   0  0  0  0  0  0  0  0  0  0  0  0
   -6.3010   23.4090  -31.4730 C   0  0  0  0  0  0  0  0  0  0  0  0
   -4.9030   23.2450  -31.4860 C   0  0  0  0  0  0  0  0  0  0  0  0
   -4.0230   24.2710  -31.0010 N   0  0  0  0  0  0  0  0  0  0  0  0
   -3.6570   24.5060  -29.6370 C   0  0  0  0  0  0  0  0  0  0  0  0
   -4.4760   24.2710  -28.7070 O   0  0  0  0  0  0  0  0  0  0  0  0
   -2.3170   24.9210  -29.3370 N   0  0  0  0  0  0  0  0  0  0  0  0
   -1.8780   25.3660  -28.0430 C   0  0  0  0  0  0  0  0  0  0  0  0
   -2.4700   24.8850  -26.8610 C   0  0  0  0  0  0  0  0  0  0  0  0
   -2.0410   25.3540  -25.6150 C   0  0  0  0  0  0  0  0  0  0  0  0
   -1.0160   26.3080  -25.5320 C   0  0  0  0  0  0  0  0  0  0  0  0
   -0.5840   26.8390  -24.1960 C   0  0  0  0  0  0  0  0  0  0  0  0
   -0.4530   26.8180  -26.7100 C   0  0  0  0  0  0  0  0  0  0  0  0
   -0.8820   26.3510  -27.9560 C   0  0  0  0  0  0  0  0  0  0  0  0
   -2.2960   21.5370  -33.3550 C   0  0  0  0  0  0  0  0  0  0  0  0
   -0.8290   21.1660  -33.1420 C   0  0  0  0  0  0  0  0  0  0  0  0
    0.4177   19.7072  -29.7444 H   0  0  0  0  0  0  0  0  0  0  0  0
    0.6141   18.0264  -30.3467 H   0  0  0  0  0  0  0  0  0  0  0  0
    2.0156   19.1500  -30.3467 H   0  0  0  0  0  0  0  0  0  0  0  0
    1.3525   20.1991  -32.2666 H   0  0  0  0  0  0  0  0  0  0  0  0
    0.4417   18.6283  -32.5110 H   0  0  0  0  0  0  0  0  0  0  0  0
   -1.5791   20.1345  -30.0548 H   0  0  0  0  0  0  0  0  0  0  0  0
   -0.2061   21.3210  -30.2506 H   0  0  0  0  0  0  0  0  0  0  0  0
   -2.7832   22.0964  -29.9931 H   0  0  0  0  0  0  0  0  0  0  0  0
   -1.5548   22.9988  -30.9656 H   0  0  0  0  0  0  0  0  0  0  0  0
   -4.7660   20.1132  -32.8635 H   0  0  0  0  0  0  0  0  0  0  0  0
   -7.2343   20.3929  -32.7896 H   0  0  0  0  0  0  0  0  0  0  0  0
   -9.5024   21.6160  -30.2175 H   0  0  0  0  0  0  0  0  0  0  0  0
  -10.5821   21.7596  -31.6459 H   0  0  0  0  0  0  0  0  0  0  0  0
   -9.2477   20.5571  -31.6459 H   0  0  0  0  0  0  0  0  0  0  0  0
   -6.7331   24.3467  -31.0934 H   0  0  0  0  0  0  0  0  0  0  0  0
   -1.6030   24.8190  -30.0940 H   0  0  0  0  0  0  0  0  0  0  0  0
   -3.2741   24.1365  -26.9169 H   0  0  0  0  0  0  0  0  0  0  0  0
   -2.5097   24.9729  -24.6957 H   0  0  0  0  0  0  0  0  0  0  0  0
   -1.0610   26.2527  -23.3968 H   0  0  0  0  0  0  0  0  0  0  0  0
    0.5095   26.7599  -24.1061 H   0  0  0  0  0  0  0  0  0  0  0  0
   -0.8839   27.8935  -24.1061 H   0  0  0  0  0  0  0  0  0  0  0  0
    0.3297   27.5889  -26.6539 H   0  0  0  0  0  0  0  0  0  0  0  0
   -0.4356   26.7586  -28.8750 H   0  0  0  0  0  0  0  0  0  0  0  0
   -2.8235   20.6827  -33.8044 H   0  0  0  0  0  0  0  0  0  0  0  0
   -2.3481   22.4098  -34.0225 H   0  0  0  0  0  0  0  0  0  0  0  0
   -0.4429   20.6572  -34.0376 H   0  0  0  0  0  0  0  0  0  0  0  0
   -0.2367   22.0752  -32.9616 H   0  0  0  0  0  0  0  0  0  0  0  0
  1  2  1  0
  2  3  1  0
  3  4  1  0
  4  5  1  0
  5  6  1  0
  6  7  1  0
  7  8  2  0
  8  9  1  0
  9 10  2  0
 10 11  1  0
 11 12  1  0
 11 13  2  0
 10 14  1  0
 14 15  2  0
 15 16  1  0
 16 17  1  0
 17 18  2  0
 17 19  1  0
 19 20  1  0
 20 21  2  0
 21 22  1  0
 22 23  2  0
 23 24  1  0
 23 25  1  0
 25 26  2  0
  6 27  1  0
 27 28  1  0
 28  3  1  0
 15  7  1  0
 26 20  1  0
  1 29  1  0
  1 30  1  0
  1 31  1  0
  2 32  1  0
  2 33  1  0
  4 34  1  0
  4 35  1  0
  5 36  1  0
  5 37  1  0
  8 38  1  0
  9 39  1  0
 12 40  1  0
 12 41  1  0
 12 42  1  0
 14 43  1  0
 19 44  1  0
 21 45  1  0
 22 46  1  0
 24 47  1  0
 24 48  1  0
 24 49  1  0
 25 50  1  0
 26 51  1  0
 27 52  1  0
 27 53  1  0
 28 54  1  0
 28 55  1  0
M  CHG  1  16  -1
M  END
>  <UniqueID>  (18) 
17

>  <SMILES>  (18) 
CCN1CCN(c2ccc(C(C)=O)cc2[N-]C(=O)Nc2ccc(C)cc2)CC1

>  <Energy>  (18) 
74.13619301388707

>  <Genealogy>  (18) 
CCN1CCN(c2ccc(C(C)=O)cc2[N-]C(=O)Nc2ccc(C)cc2)CC1 (protonated)
CCN1CCN(c2ccc(C(C)=O)cc2[N-]C(=O)Nc2ccc(C)cc2)CC1 (3D coordinates assigned)
CCN1CCN(c2ccc(C(C)=O)cc2[N-]C(=O)Nc2ccc(C)cc2)CC1 (nonaromatic ring conformer: 74.13619301388707 kcal/mol)

>  <smiles>  (18) 
CCN1CCN(c2ccc(C(C)=O)cc2NC(=O)Nc2ccc(C)cc2)CC1

>  <score_type>  (18) 
oracle

>  <origin>  (18) 
adgpu

>  <m_score__min__energy>  (18) 
-10.15

>  <m_primary>  (18) 
energy

$$$$
18:0
     RDKit          3D

 41 44  0  0  0  0  0  0  0  0999 V2000
   -3.6950   15.4590  -34.3420 C   0  0  0  0  0  0  0  0  0  0  0  0
   -4.7100   16.4740  -33.9040 C   0  0  0  0  0  0  0  0  0  0  0  0
   -5.0290   17.5560  -34.7380 C   0  0  0  0  0  0  0  0  0  0  0  0
   -6.0010   18.4830  -34.3480 C   0  0  0  0  0  0  0  0  0  0  0  0
   -6.6820   18.3250  -33.1310 C   0  0  0  0  0  0  0  0  0  0  0  0
   -7.6870   19.3160  -32.7010 C   0  0  0  0  0  0  0  0  0  0  0  0
   -9.0390   19.1880  -33.0370 C   0  0  0  0  0  0  0  0  0  0  0  0
   -9.9180   20.4470  -32.3310 S   0  0  0  0  0  0  0  0  0  0  0  0
   -8.5840   21.1610  -31.6140 C   0  0  0  0  0  0  0  0  0  0  0  0
   -8.5790   22.2850  -30.8660 N   0  0  0  0  0  0  0  0  0  0  0  0
   -7.3960   22.7500  -30.3800 C   0  0  0  0  0  0  0  0  0  0  0  0
   -6.2170   22.1020  -30.6600 N   0  0  0  0  0  0  0  0  0  0  0  0
   -4.9860   22.6500  -30.1460 C   0  0  0  0  0  0  0  0  0  0  0  0
   -4.9060   23.0800  -28.8110 C   0  0  0  0  0  0  0  0  0  0  0  0
   -3.7150   23.6170  -28.3120 C   0  0  0  0  0  0  0  0  0  0  0  0
   -2.5930   23.7390  -29.1430 C   0  0  0  0  0  0  0  0  0  0  0  0
   -1.0910   24.4010  -28.5080 S   0  0  0  0  0  0  0  0  0  0  0  0
   -0.9710   26.0710  -28.9330 N   0  0  0  0  0  0  0  0  0  0  0  0
    0.0790   23.6500  -29.0820 O   0  0  0  0  0  0  0  0  0  0  0  0
   -1.0640   24.2620  -27.0120 O   0  0  0  0  0  0  0  0  0  0  0  0
   -2.6690   23.3100  -30.4750 C   0  0  0  0  0  0  0  0  0  0  0  0
   -3.8590   22.7720  -30.9750 C   0  0  0  0  0  0  0  0  0  0  0  0
   -6.2160   20.9570  -31.4230 C   0  0  0  0  0  0  0  0  0  0  0  0
   -5.1330   20.3680  -31.6920 O   0  0  0  0  0  0  0  0  0  0  0  0
   -7.4350   20.4550  -31.9030 C   0  0  0  0  0  0  0  0  0  0  0  0
   -6.3610   17.2430  -32.2970 C   0  0  0  0  0  0  0  0  0  0  0  0
   -5.3900   16.3160  -32.6870 C   0  0  0  0  0  0  0  0  0  0  0  0
   -3.2330   14.9970  -33.4571 H   0  0  0  0  0  0  0  0  0  0  0  0
   -4.1891   14.6829  -34.9450 H   0  0  0  0  0  0  0  0  0  0  0  0
   -2.9189   15.9531  -34.9450 H   0  0  0  0  0  0  0  0  0  0  0  0
   -4.5129   17.6758  -35.7020 H   0  0  0  0  0  0  0  0  0  0  0  0
   -6.2327   19.3397  -34.9980 H   0  0  0  0  0  0  0  0  0  0  0  0
   -9.4644   18.3907  -33.6641 H   0  0  0  0  0  0  0  0  0  0  0  0
   -7.3834   23.6555  -29.7555 H   0  0  0  0  0  0  0  0  0  0  0  0
   -5.7846   22.9939  -28.1548 H   0  0  0  0  0  0  0  0  0  0  0  0
   -3.6586   23.9448  -27.2635 H   0  0  0  0  0  0  0  0  0  0  0  0
   -1.9450   26.4480  -28.9650 H   0  0  0  0  0  0  0  0  0  0  0  0
   -1.7893   23.3968  -31.1296 H   0  0  0  0  0  0  0  0  0  0  0  0
   -3.9126   22.4426  -32.0232 H   0  0  0  0  0  0  0  0  0  0  0  0
   -6.8757   17.1238  -31.3322 H   0  0  0  0  0  0  0  0  0  0  0  0
   -5.1582   15.4593  -32.0371 H   0  0  0  0  0  0  0  0  0  0  0  0
  1  2  1  0
  2  3  2  0
  3  4  1  0
  4  5  2  0
  5  6  1  0
  6  7  2  0
  7  8  1  0
  8  9  1  0
  9 10  1  0
 10 11  2  0
 11 12  1  0
 12 13  1  0
 13 14  2  0
 14 15  1  0
 15 16  2  0
 16 17  1  0
 17 18  1  0
 17 19  2  0
 17 20  2  0
 16 21  1  0
 21 22  2  0
 12 23  1  0
 23 24  2  0
 23 25  1  0
  5 26  1  0
 26 27  2  0
 27  2  1  0
 25  6  1  0
 25  9  2  0
 22 13  1  0
  1 28  1  0
  1 29  1  0
  1 30  1  0
  3 31  1  0
  4 32  1  0
  7 33  1  0
 11 34  1  0
 14 35  1  0
 15 36  1  0
 18 37  1  0
 21 38  1  0
 22 39  1  0
 26 40  1  0
 27 41  1  0
M  CHG  1  18  -1
M  END
>  <UniqueID>  (19) 
18

>  <SMILES>  (19) 
Cc1ccc(-c2csc3ncn(-c4ccc(S([NH-])(=O)=O)cc4)c(=O)c23)cc1

>  <Energy>  (19) 
93.90249209046769

>  <Genealogy>  (19) 
Cc1ccc(-c2csc3ncn(-c4ccc(S([NH-])(=O)=O)cc4)c(=O)c23)cc1 (protonated)
Cc1ccc(-c2csc3ncn(-c4ccc(S([NH-])(=O)=O)cc4)c(=O)c23)cc1 (3D coordinates assigned)
Cc1ccc(-c2csc3ncn(-c4ccc(S([NH-])(=O)=O)cc4)c(=O)c23)cc1 (optimized conformer: 93.90249209046769 kcal/mol)

>  <smiles>  (19) 
Cc1ccc(-c2csc3ncn(-c4ccc(S(N)(=O)=O)cc4)c(=O)c23)cc1

>  <score_type>  (19) 
oracle

>  <origin>  (19) 
adgpu

>  <m_score__min__energy>  (19) 
-11.289999999999999

>  <m_primary>  (19) 
energy

$$$$
19:0
     RDKit          3D

 50 53  0  0  0  0  0  0  0  0999 V2000
   -0.4720   18.7670  -32.0640 C   0  0  0  0  0  0  0  0  0  0  0  0
   -0.0260   19.9070  -32.9410 C   0  0  0  0  0  0  0  0  0  0  0  0
    1.3040   19.9580  -33.3750 C   0  0  0  0  0  0  0  0  0  0  0  0
    1.7110   20.9880  -34.2220 C   0  0  0  0  0  0  0  0  0  0  0  0
    2.9010   21.0430  -34.6310 O   0  0  0  0  0  0  0  0  0  0  0  0
    0.8170   21.9300  -34.6080 N   0  0  0  0  0  0  0  0  0  0  0  0
   -0.4470   21.9040  -34.1850 N   0  0  0  0  0  0  0  0  0  0  0  0
   -0.9050   20.9360  -33.3460 C   0  0  0  0  0  0  0  0  0  0  0  0
   -2.3150   20.9920  -32.9100 C   0  0  0  0  0  0  0  0  0  0  0  0
   -2.6420   21.2420  -31.5680 C   0  0  0  0  0  0  0  0  0  0  0  0
   -3.9810   21.3120  -31.1700 C   0  0  0  0  0  0  0  0  0  0  0  0
   -5.0040   21.1230  -32.1090 C   0  0  0  0  0  0  0  0  0  0  0  0
   -6.4150   21.1630  -31.6850 C   0  0  0  0  0  0  0  0  0  0  0  0
   -7.2470   20.0810  -32.0130 C   0  0  0  0  0  0  0  0  0  0  0  0
   -8.5880   20.0770  -31.6230 C   0  0  0  0  0  0  0  0  0  0  0  0
   -9.1090   21.1530  -30.9010 C   0  0  0  0  0  0  0  0  0  0  0  0
   -8.2920   22.2370  -30.5700 C   0  0  0  0  0  0  0  0  0  0  0  0
   -6.9420   22.2560  -30.9580 C   0  0  0  0  0  0  0  0  0  0  0  0
   -5.9370   23.6510  -30.5370 S   0  0  0  0  0  0  0  0  0  0  0  0
   -6.8200   24.7460  -30.0060 O   0  0  0  0  0  0  0  0  0  0  0  0
   -5.1980   24.1520  -31.7460 O   0  0  0  0  0  0  0  0  0  0  0  0
   -4.7880   23.1680  -29.3340 N   0  0  0  0  0  0  0  0  0  0  0  0
   -3.6800   23.8060  -29.1230 C   0  0  0  0  0  0  0  0  0  0  0  0
   -3.2840   24.8650  -29.7910 O   0  0  0  0  0  0  0  0  0  0  0  0
   -2.1230   25.2570  -29.3510 N   0  0  0  0  0  0  0  0  0  0  0  0
   -1.7440   24.4220  -28.3610 C   0  0  0  0  0  0  0  0  0  0  0  0
   -0.4510   24.5220  -27.6170 C   0  0  0  0  0  0  0  0  0  0  0  0
   -2.7360   23.4760  -28.1730 C   0  0  0  0  0  0  0  0  0  0  0  0
   -2.7360   22.3070  -27.2380 C   0  0  0  0  0  0  0  0  0  0  0  0
   -4.6810   20.9010  -33.4540 C   0  0  0  0  0  0  0  0  0  0  0  0
   -3.3430   20.8430  -33.8540 C   0  0  0  0  0  0  0  0  0  0  0  0
   -0.3605   19.0519  -31.0074 H   0  0  0  0  0  0  0  0  0  0  0  0
   -1.5270   18.5354  -32.2720 H   0  0  0  0  0  0  0  0  0  0  0  0
    0.1458   17.8810  -32.2720 H   0  0  0  0  0  0  0  0  0  0  0  0
    2.0226   19.1911  -33.0502 H   0  0  0  0  0  0  0  0  0  0  0  0
   -1.8420   21.3834  -30.8264 H   0  0  0  0  0  0  0  0  0  0  0  0
   -4.2315   21.5157  -30.1184 H   0  0  0  0  0  0  0  0  0  0  0  0
   -6.8403   19.2311  -32.5807 H   0  0  0  0  0  0  0  0  0  0  0  0
   -9.2341   19.2261  -31.8846 H   0  0  0  0  0  0  0  0  0  0  0  0
  -10.1648   21.1470  -30.5923 H   0  0  0  0  0  0  0  0  0  0  0  0
   -8.7088   23.0815  -30.0016 H   0  0  0  0  0  0  0  0  0  0  0  0
   -1.5900   26.0750  -29.7210 H   0  0  0  0  0  0  0  0  0  0  0  0
   -0.6484   24.5067  -26.5350 H   0  0  0  0  0  0  0  0  0  0  0  0
    0.1926   23.6709  -27.8843 H   0  0  0  0  0  0  0  0  0  0  0  0
    0.0541   25.4619  -27.8843 H   0  0  0  0  0  0  0  0  0  0  0  0
   -1.6989   22.0207  -27.0090 H   0  0  0  0  0  0  0  0  0  0  0  0
   -3.2545   22.5816  -26.3076 H   0  0  0  0  0  0  0  0  0  0  0  0
   -3.2545   21.4597  -27.7104 H   0  0  0  0  0  0  0  0  0  0  0  0
   -5.4820   20.7721  -34.1968 H   0  0  0  0  0  0  0  0  0  0  0  0
   -3.0946   20.6799  -34.9131 H   0  0  0  0  0  0  0  0  0  0  0  0
  1  2  1  0
  2  3  2  0
  3  4  1  0
  4  5  2  0
  4  6  1  0
  6  7  1  0
  7  8  2  0
  8  9  1  0
  9 10  2  0
 10 11  1  0
 11 12  2  0
 12 13  1  0
 13 14  2  0
 14 15  1  0
 15 16  2  0
 16 17  1  0
 17 18  2  0
 18 19  1  0
 19 20  2  0
 19 21  2  0
 19 22  1  0
 22 23  2  3
 23 24  1  0
 24 25  1  0
 25 26  1  0
 26 27  1  0
 26 28  2  0
 28 29  1  0
 12 30  1  0
 30 31  2  0
  8  2  1  0
 31  9  1  0
 18 13  1  0
 28 23  1  0
  1 32  1  0
  1 33  1  0
  1 34  1  0
  3 35  1  0
 10 36  1  0
 11 37  1  0
 14 38  1  0
 15 39  1  0
 16 40  1  0
 17 41  1  0
 25 42  1  0
 27 43  1  0
 27 44  1  0
 27 45  1  0
 29 46  1  0
 29 47  1  0
 29 48  1  0
 30 49  1  0
 31 50  1  0
M  CHG  1   6  -1
M  END
>  <UniqueID>  (20) 
19

>  <SMILES>  (20) 
Cc1cc(=O)[n-]nc1-c1ccc(-c2ccccc2S(=O)(=O)N=c2o[nH]c(C)c2C)cc1

>  <Energy>  (20) 
100.30668674452198

>  <Genealogy>  (20) 
Cc1cc(=O)[n-]nc1-c1ccc(-c2ccccc2S(=O)(=O)N=c2o[nH]c(C)c2C)cc1 (protonated)
Cc1cc(=O)[n-]nc1-c1ccc(-c2ccccc2S(=O)(=O)N=c2o[nH]c(C)c2C)cc1 (3D coordinates assigned)
Cc1cc(=O)[n-]nc1-c1ccc(-c2ccccc2S(=O)(=O)N=c2o[nH]c(C)c2C)cc1 (optimized conformer: 100.30668674452198 kcal/mol)

>  <smiles>  (20) 
Cc1cc(=O)[nH]nc1-c1ccc(-c2ccccc2S(=O)(=O)N=c2o[nH]c(C)c2C)cc1

>  <score_type>  (20) 
oracle

>  <origin>  (20) 
adgpu

>  <m_score__min__energy>  (20) 
-11.800000000000001

>  <m_primary>  (20) 
energy

$$$$
20:0
     RDKit          3D

 43 46  0  0  0  0  0  0  0  0999 V2000
   -4.2440   25.6710  -30.8450 O   0  0  0  0  0  0  0  0  0  0  0  0
   -5.2280   24.5940  -30.4850 S   0  0  0  0  0  0  0  0  0  0  0  0
   -6.2550   25.1640  -29.5460 O   0  0  0  0  0  0  0  0  0  0  0  0
   -6.0250   24.0360  -31.9230 N   0  0  0  0  0  0  0  0  0  0  0  0
   -6.8800   22.8800  -31.9640 C   0  0  0  0  0  0  0  0  0  0  0  0
   -8.2330   23.0150  -31.6240 C   0  0  0  0  0  0  0  0  0  0  0  0
   -9.0920   21.9160  -31.6820 C   0  0  0  0  0  0  0  0  0  0  0  0
   -8.6100   20.6690  -32.0870 C   0  0  0  0  0  0  0  0  0  0  0  0
   -7.2560   20.5070  -32.4260 C   0  0  0  0  0  0  0  0  0  0  0  0
   -6.7430   19.1900  -32.8830 C   0  0  0  0  0  0  0  0  0  0  0  0
   -6.8710   18.0550  -32.0650 C   0  0  0  0  0  0  0  0  0  0  0  0
   -6.3890   16.8150  -32.4910 C   0  0  0  0  0  0  0  0  0  0  0  0
   -5.7660   16.6810  -33.7440 C   0  0  0  0  0  0  0  0  0  0  0  0
   -5.2590   15.3620  -34.1860 C   0  0  0  0  0  0  0  0  0  0  0  0
   -3.9860   15.1490  -34.5930 N   0  0  0  0  0  0  0  0  0  0  0  0
   -3.7680   13.8540  -34.9480 C   0  0  0  0  0  0  0  0  0  0  0  0
   -4.8670   13.0150  -34.8290 C   0  0  0  0  0  0  0  0  0  0  0  0
   -6.1530   13.9340  -34.2590 S   0  0  0  0  0  0  0  0  0  0  0  0
   -5.6370   17.8180  -34.5610 C   0  0  0  0  0  0  0  0  0  0  0  0
   -6.1180   19.0590  -34.1340 C   0  0  0  0  0  0  0  0  0  0  0  0
   -6.3930   21.6140  -32.3420 C   0  0  0  0  0  0  0  0  0  0  0  0
   -4.3580   23.2650  -29.7220 C   0  0  0  0  0  0  0  0  0  0  0  0
   -3.7790   22.2500  -30.4980 C   0  0  0  0  0  0  0  0  0  0  0  0
   -3.0530   21.2240  -29.8850 C   0  0  0  0  0  0  0  0  0  0  0  0
   -2.9040   21.2060  -28.4960 C   0  0  0  0  0  0  0  0  0  0  0  0
   -3.4840   22.2120  -27.7170 C   0  0  0  0  0  0  0  0  0  0  0  0
   -4.2090   23.2390  -28.3280 C   0  0  0  0  0  0  0  0  0  0  0  0
   -5.7740   24.5140  -32.8180 H   0  0  0  0  0  0  0  0  0  0  0  0
   -8.6212   23.9948  -31.3089 H   0  0  0  0  0  0  0  0  0  0  0  0
  -10.1510   22.0323  -31.4081 H   0  0  0  0  0  0  0  0  0  0  0  0
   -9.2941   19.8093  -32.1408 H   0  0  0  0  0  0  0  0  0  0  0  0
   -7.3547   18.1435  -31.0810 H   0  0  0  0  0  0  0  0  0  0  0  0
   -6.4980   15.9352  -31.8399 H   0  0  0  0  0  0  0  0  0  0  0  0
   -2.7902   13.4973  -35.3040 H   0  0  0  0  0  0  0  0  0  0  0  0
   -4.8918   11.9410  -35.0654 H   0  0  0  0  0  0  0  0  0  0  0  0
   -5.1532   17.7301  -35.5450 H   0  0  0  0  0  0  0  0  0  0  0  0
   -6.0062   19.9401  -34.7829 H   0  0  0  0  0  0  0  0  0  0  0  0
   -5.3250   21.4896  -32.5743 H   0  0  0  0  0  0  0  0  0  0  0  0
   -3.8964   22.2611  -31.5917 H   0  0  0  0  0  0  0  0  0  0  0  0
   -2.5989   20.4306  -30.4968 H   0  0  0  0  0  0  0  0  0  0  0  0
   -2.3302   20.4001  -28.0150 H   0  0  0  0  0  0  0  0  0  0  0  0
   -3.3697   22.1951  -26.6231 H   0  0  0  0  0  0  0  0  0  0  0  0
   -4.6642   24.0295  -27.7132 H   0  0  0  0  0  0  0  0  0  0  0  0
  1  2  2  0
  2  3  2  0
  2  4  1  0
  4  5  1  0
  5  6  2  0
  6  7  1  0
  7  8  2  0
  8  9  1  0
  9 10  1  0
 10 11  2  0
 11 12  1  0
 12 13  2  0
 13 14  1  0
 14 15  2  0
 15 16  1  0
 16 17  2  0
 17 18  1  0
 13 19  1  0
 19 20  2  0
  9 21  2  0
  2 22  1  0
 22 23  2  0
 23 24  1  0
 24 25  2  0
 25 26  1  0
 26 27  2  0
 21  5  1  0
 27 22  1  0
 20 10  1  0
 18 14  1  0
  4 28  1  0
  6 29  1  0
  7 30  1  0
  8 31  1  0
 11 32  1  0
 12 33  1  0
 16 34  1  0
 17 35  1  0
 19 36  1  0
 20 37  1  0
 21 38  1  0
 23 39  1  0
 24 40  1  0
 25 41  1  0
 26 42  1  0
 27 43  1  0
M  END
>  <UniqueID>  (21) 
20

>  <SMILES>  (21) 
O=S(=O)(Nc1cccc(-c2ccc(-c3nccs3)cc2)c1)c1ccccc1

>  <Energy>  (21) 
85.13471458785696

>  <Genealogy>  (21) 
O=S(=O)(Nc1cccc(-c2ccc(-c3nccs3)cc2)c1)c1ccccc1 (3D coordinates assigned)
O=S(=O)(Nc1cccc(-c2ccc(-c3nccs3)cc2)c1)c1ccccc1 (optimized conformer: 85.13471458785696 kcal/mol)

>  <smiles>  (21) 
O=S(=O)(Nc1cccc(-c2ccc(-c3nccs3)cc2)c1)c1ccccc1

>  <score_type>  (21) 
oracle

>  <origin>  (21) 
adgpu

>  <m_score__min__energy>  (21) 
-9.8100000000000005

>  <m_primary>  (21) 
energy

$$$$
21:0
     RDKit          3D

 56 60  0  0  0  0  0  0  0  0999 V2000
   -6.8530   16.5530  -33.6270 C   0  0  0  0  0  0  0  0  0  0  0  0
   -7.0510   17.9640  -33.1610 C   0  0  0  0  0  0  0  0  0  0  0  0
   -6.3550   19.0140  -33.7790 C   0  0  0  0  0  0  0  0  0  0  0  0
   -6.5050   20.3250  -33.3180 C   0  0  0  0  0  0  0  0  0  0  0  0
   -7.3470   20.6000  -32.2340 C   0  0  0  0  0  0  0  0  0  0  0  0
   -7.5000   22.2520  -31.6380 S   0  0  0  0  0  0  0  0  0  0  0  0
   -7.8170   22.2340  -30.1670 O   0  0  0  0  0  0  0  0  0  0  0  0
   -8.6340   22.9230  -32.3620 O   0  0  0  0  0  0  0  0  0  0  0  0
   -6.0130   23.1280  -31.9210 N   0  0  0  0  0  0  0  0  0  0  0  0
   -4.8470   22.2510  -31.6380 C   0  0  0  0  0  0  0  0  0  0  0  0
   -3.6130   23.0500  -31.2170 C   0  0  0  0  0  0  0  0  0  0  0  0
   -3.9320   23.8090  -30.0040 N   0  0  0  0  0  0  0  0  0  0  0  0
   -3.0650   23.7390  -28.8600 C   0  0  0  0  0  0  0  0  0  0  0  0
   -2.6000   24.8950  -28.3170 N   0  0  0  0  0  0  0  0  0  0  0  0
   -1.7980   24.9060  -27.2190 C   0  0  0  0  0  0  0  0  0  0  0  0
   -1.3120   26.1900  -26.6610 C   0  0  0  0  0  0  0  0  0  0  0  0
   -0.5360   27.0650  -27.4390 C   0  0  0  0  0  0  0  0  0  0  0  0
   -0.0940   28.2770  -26.9040 C   0  0  0  0  0  0  0  0  0  0  0  0
   -0.4240   28.6060  -25.5900 C   0  0  0  0  0  0  0  0  0  0  0  0
   -1.1710   27.7520  -24.8430 N   0  0  0  0  0  0  0  0  0  0  0  0
   -1.6180   26.5680  -25.3410 C   0  0  0  0  0  0  0  0  0  0  0  0
   -1.4470   23.7290  -26.6370 N   0  0  0  0  0  0  0  0  0  0  0  0
   -1.8720   22.5400  -27.1340 C   0  0  0  0  0  0  0  0  0  0  0  0
   -1.4830   21.3460  -26.5150 C   0  0  0  0  0  0  0  0  0  0  0  0
   -1.8950   20.1190  -27.0400 C   0  0  0  0  0  0  0  0  0  0  0  0
   -2.6890   20.0770  -28.1900 C   0  0  0  0  0  0  0  0  0  0  0  0
   -3.0850   21.2650  -28.8150 C   0  0  0  0  0  0  0  0  0  0  0  0
   -2.6960   22.5080  -28.2820 C   0  0  0  0  0  0  0  0  0  0  0  0
   -5.2840   24.3480  -29.8330 C   0  0  0  0  0  0  0  0  0  0  0  0
   -6.0140   24.4210  -31.1840 C   0  0  0  0  0  0  0  0  0  0  0  0
   -8.0270   19.5510  -31.6020 C   0  0  0  0  0  0  0  0  0  0  0  0
   -7.8760   18.2390  -32.0590 C   0  0  0  0  0  0  0  0  0  0  0  0
   -6.7598   15.8886  -32.7553 H   0  0  0  0  0  0  0  0  0  0  0  0
   -7.7164   16.2427  -34.2338 H   0  0  0  0  0  0  0  0  0  0  0  0
   -5.9375   16.4923  -34.2338 H   0  0  0  0  0  0  0  0  0  0  0  0
   -5.6891   18.8047  -34.6291 H   0  0  0  0  0  0  0  0  0  0  0  0
   -5.9591   21.1441  -33.8091 H   0  0  0  0  0  0  0  0  0  0  0  0
   -6.0000   23.3520  -32.9450 H   0  0  0  0  0  0  0  0  0  0  0  0
   -5.1138   21.5574  -30.8270 H   0  0  0  0  0  0  0  0  0  0  0  0
   -4.5995   21.7089  -32.5626 H   0  0  0  0  0  0  0  0  0  0  0  0
   -2.7789   22.3622  -31.0139 H   0  0  0  0  0  0  0  0  0  0  0  0
   -3.3216   23.7394  -32.0231 H   0  0  0  0  0  0  0  0  0  0  0  0
   -0.2756   26.7947  -28.4730 H   0  0  0  0  0  0  0  0  0  0  0  0
    0.5090   28.9658  -27.5138 H   0  0  0  0  0  0  0  0  0  0  0  0
   -0.0795   29.5572  -25.1581 H   0  0  0  0  0  0  0  0  0  0  0  0
   -2.2225   25.9019  -24.7078 H   0  0  0  0  0  0  0  0  0  0  0  0
   -0.8522   21.3742  -25.6143 H   0  0  0  0  0  0  0  0  0  0  0  0
   -1.5938   19.1828  -26.5471 H   0  0  0  0  0  0  0  0  0  0  0  0
   -3.0033   19.1078  -28.6046 H   0  0  0  0  0  0  0  0  0  0  0  0
   -3.7018   21.2270  -29.7250 H   0  0  0  0  0  0  0  0  0  0  0  0
   -5.8495   23.6954  -29.1516 H   0  0  0  0  0  0  0  0  0  0  0  0
   -5.2102   25.3629  -29.4152 H   0  0  0  0  0  0  0  0  0  0  0  0
   -7.0571   24.7191  -31.0022 H   0  0  0  0  0  0  0  0  0  0  0  0
   -5.4779   25.1527  -31.8063 H   0  0  0  0  0  0  0  0  0  0  0  0
   -8.6818   19.7606  -30.7434 H   0  0  0  0  0  0  0  0  0  0  0  0
   -8.4058   17.4184  -31.5531 H   0  0  0  0  0  0  0  0  0  0  0  0
  1  2  1  0
  2  3  2  0
  3  4  1  0
  4  5  2  0
  5  6  1  0
  6  7  2  0
  6  8  2  0
  6  9  1  0
  9 10  1  0
 10 11  1  0
 11 12  1  0
 12 13  1  0
 13 14  2  0
 14 15  1  0
 15 16  1  0
 16 17  2  0
 17 18  1  0
 18 19  2  0
 19 20  1  0
 20 21  2  0
 15 22  2  0
 22 23  1  0
 23 24  2  0
 24 25  1  0
 25 26  2  0
 26 27  1  0
 27 28  2  0
 12 29  1  0
 29 30  1  0
  5 31  1  0
 31 32  2  0
 32  2  1  0
 30  9  1  0
 28 13  1  0
 21 16  1  0
 28 23  1  0
  1 33  1  0
  1 34  1  0
  1 35  1  0
  3 36  1  0
  4 37  1  0
  9 38  1  0
 10 39  1  0
 10 40  1  0
 11 41  1  0
 11 42  1  0
 17 43  1  0
 18 44  1  0
 19 45  1  0
 21 46  1  0
 24 47  1  0
 25 48  1  0
 26 49  1  0
 27 50  1  0
 29 51  1  0
 29 52  1  0
 30 53  1  0
 30 54  1  0
 31 55  1  0
 32 56  1  0
M  CHG  1   9   1
M  END
>  <UniqueID>  (22) 
21

>  <SMILES>  (22) 
Cc1ccc(S(=O)(=O)[NH+]2CCN(c3nc(-c4cccnc4)nc4ccccc34)CC2)cc1

>  <Energy>  (22) 
77.7286363433799

>  <Genealogy>  (22) 
Cc1ccc(S(=O)(=O)[NH+]2CCN(c3nc(-c4cccnc4)nc4ccccc34)CC2)cc1 (protonated)
Cc1ccc(S(=O)(=O)[NH+]2CCN(c3nc(-c4cccnc4)nc4ccccc34)CC2)cc1 (3D coordinates assigned)
Cc1ccc(S(=O)(=O)[NH+]2CCN(c3nc(-c4cccnc4)nc4ccccc34)CC2)cc1 (nonaromatic ring conformer: 77.7286363433799 kcal/mol)

>  <smiles>  (22) 
Cc1ccc(S(=O)(=O)N2CCN(c3nc(-c4cccnc4)nc4ccccc34)CC2)cc1

>  <score_type>  (22) 
oracle

>  <origin>  (22) 
adgpu

>  <m_score__min__energy>  (22) 
-9.8200000000000003

>  <m_primary>  (22) 
energy

$$$$
22:0
     RDKit          3D

 48 50  0  0  0  0  0  0  0  0999 V2000
   -5.9180   18.9530  -34.0660 C   0  0  0  0  0  0  0  0  0  0  0  0
   -5.8170   19.6850  -32.8490 O   0  0  0  0  0  0  0  0  0  0  0  0
   -6.7440   20.6490  -32.4190 C   0  0  0  0  0  0  0  0  0  0  0  0
   -8.1310   20.3930  -32.4050 C   0  0  0  0  0  0  0  0  0  0  0  0
   -9.0250   21.3740  -31.9690 C   0  0  0  0  0  0  0  0  0  0  0  0
   -8.5510   22.6150  -31.5440 C   0  0  0  0  0  0  0  0  0  0  0  0
   -7.1810   22.8810  -31.5540 C   0  0  0  0  0  0  0  0  0  0  0  0
   -6.2720   21.9060  -31.9910 C   0  0  0  0  0  0  0  0  0  0  0  0
   -4.5410   22.2520  -31.9970 S   0  0  0  0  0  0  0  0  0  0  0  0
   -3.8250   21.1670  -31.2440 O   0  0  0  0  0  0  0  0  0  0  0  0
   -4.0570   22.3000  -33.4200 O   0  0  0  0  0  0  0  0  0  0  0  0
   -4.2320   23.7800  -31.2380 N   0  0  0  0  0  0  0  0  0  0  0  0
   -3.8480   23.9590  -29.8670 C   0  0  0  0  0  0  0  0  0  0  0  0
   -4.8270   24.3450  -28.9430 C   0  0  0  0  0  0  0  0  0  0  0  0
   -4.4950   24.5400  -27.6010 C   0  0  0  0  0  0  0  0  0  0  0  0
   -3.1810   24.3490  -27.1690 C   0  0  0  0  0  0  0  0  0  0  0  0
   -2.1920   23.9550  -28.0790 C   0  0  0  0  0  0  0  0  0  0  0  0
   -0.5340   23.7360  -27.5250 S   0  0  0  0  0  0  0  0  0  0  0  0
   -0.3070   24.5070  -26.2530 O   0  0  0  0  0  0  0  0  0  0  0  0
    0.4000   24.2640  -28.5790 O   0  0  0  0  0  0  0  0  0  0  0  0
   -0.2280   22.0370  -27.2540 N   0  0  0  0  0  0  0  0  0  0  0  0
   -0.1390   21.2970  -28.5390 C   0  0  0  0  0  0  0  0  0  0  0  0
   -1.4130   20.5060  -28.8650 C   0  0  0  0  0  0  0  0  0  0  0  0
   -1.7360   19.4900  -27.7570 C   0  0  0  0  0  0  0  0  0  0  0  0
   -1.2860   19.9680  -26.3640 C   0  0  0  0  0  0  0  0  0  0  0  0
   -1.2220   21.4970  -26.3000 C   0  0  0  0  0  0  0  0  0  0  0  0
   -2.5260   23.7630  -29.4280 C   0  0  0  0  0  0  0  0  0  0  0  0
   -6.0652   17.8863  -33.8412 H   0  0  0  0  0  0  0  0  0  0  0  0
   -6.7731   19.3263  -34.6485 H   0  0  0  0  0  0  0  0  0  0  0  0
   -4.9937   19.0808  -34.6485 H   0  0  0  0  0  0  0  0  0  0  0  0
   -8.5106   19.4161  -32.7390 H   0  0  0  0  0  0  0  0  0  0  0  0
  -10.1054   21.1672  -31.9609 H   0  0  0  0  0  0  0  0  0  0  0  0
   -9.2577   23.3848  -31.2006 H   0  0  0  0  0  0  0  0  0  0  0  0
   -6.8118   23.8609  -31.2172 H   0  0  0  0  0  0  0  0  0  0  0  0
   -5.8643   24.4955  -29.2767 H   0  0  0  0  0  0  0  0  0  0  0  0
   -5.2702   24.8447  -26.8825 H   0  0  0  0  0  0  0  0  0  0  0  0
   -2.9221   24.5083  -26.1118 H   0  0  0  0  0  0  0  0  0  0  0  0
    0.0413   22.0201  -29.3481 H   0  0  0  0  0  0  0  0  0  0  0  0
    0.6832   20.5723  -28.4451 H   0  0  0  0  0  0  0  0  0  0  0  0
   -2.2547   21.2071  -28.9653 H   0  0  0  0  0  0  0  0  0  0  0  0
   -1.2511   19.9570  -29.8044 H   0  0  0  0  0  0  0  0  0  0  0  0
   -2.8232   19.3236  -27.7379 H   0  0  0  0  0  0  0  0  0  0  0  0
   -1.1872   18.5642  -27.9843 H   0  0  0  0  0  0  0  0  0  0  0  0
   -2.0022   19.6066  -25.6114 H   0  0  0  0  0  0  0  0  0  0  0  0
   -0.2810   19.5675  -26.1649 H   0  0  0  0  0  0  0  0  0  0  0  0
   -2.2128   21.9071  -26.5453 H   0  0  0  0  0  0  0  0  0  0  0  0
   -0.9193   21.7882  -25.2834 H   0  0  0  0  0  0  0  0  0  0  0  0
   -1.7504   23.4577  -30.1458 H   0  0  0  0  0  0  0  0  0  0  0  0
  1  2  1  0
  2  3  1  0
  3  4  2  0
  4  5  1  0
  5  6  2  0
  6  7  1  0
  7  8  2  0
  8  9  1  0
  9 10  2  0
  9 11  2  0
  9 12  1  0
 12 13  1  0
 13 14  2  0
 14 15  1  0
 15 16  2  0
 16 17  1  0
 17 18  1  0
 18 19  2  0
 18 20  2  0
 18 21  1  0
 21 22  1  0
 22 23  1  0
 23 24  1  0
 24 25  1  0
 25 26  1  0
 17 27  2  0
  8  3  1  0
 27 13  1  0
 26 21  1  0
  1 28  1  0
  1 29  1  0
  1 30  1  0
  4 31  1  0
  5 32  1  0
  6 33  1  0
  7 34  1  0
 14 35  1  0
 15 36  1  0
 16 37  1  0
 22 38  1  0
 22 39  1  0
 23 40  1  0
 23 41  1  0
 24 42  1  0
 24 43  1  0
 25 44  1  0
 25 45  1  0
 26 46  1  0
 26 47  1  0
 27 48  1  0
M  CHG  1  12  -1
M  END
>  <UniqueID>  (23) 
22

>  <SMILES>  (23) 
COc1ccccc1S(=O)(=O)[N-]c1cccc(S(=O)(=O)N2CCCCC2)c1

>  <Energy>  (23) 
58.25371356371991

>  <Genealogy>  (23) 
COc1ccccc1S(=O)(=O)[N-]c1cccc(S(=O)(=O)N2CCCCC2)c1 (protonated)
COc1ccccc1S(=O)(=O)[N-]c1cccc(S(=O)(=O)N2CCCCC2)c1 (3D coordinates assigned)
COc1ccccc1S(=O)(=O)[N-]c1cccc(S(=O)(=O)N2CCCCC2)c1 (nonaromatic ring conformer: 58.25371356371991 kcal/mol)

>  <smiles>  (23) 
COc1ccccc1S(=O)(=O)Nc1cccc(S(=O)(=O)N2CCCCC2)c1

>  <score_type>  (23) 
oracle

>  <origin>  (23) 
adgpu

>  <m_score__min__energy>  (23) 
-11.07

>  <m_primary>  (23) 
energy

$$$$
23:0
     RDKit          3D

 26 27  0  0  0  0  0  0  0  0999 V2000
   -3.2160   21.7630  -27.6360 O   0  0  0  0  0  0  0  0  0  0  0  0
   -2.8240   22.8280  -28.1800 C   0  0  0  0  0  0  0  0  0  0  0  0
   -3.6150   23.4580  -29.1400 C   0  0  0  0  0  0  0  0  0  0  0  0
   -3.1500   24.6390  -29.7300 C   0  0  0  0  0  0  0  0  0  0  0  0
   -3.9570   25.2930  -30.7280 N   0  0  0  0  0  0  0  0  0  0  0  0
   -5.3950   25.5300  -30.5980 C   0  0  0  0  0  0  0  0  0  0  0  0
   -6.1700   24.2660  -30.8650 C   0  0  0  0  0  0  0  0  0  0  0  0
   -6.8920   23.6480  -29.8280 C   0  0  0  0  0  0  0  0  0  0  0  0
   -7.6170   22.4790  -30.0740 C   0  0  0  0  0  0  0  0  0  0  0  0
   -7.6350   21.9220  -31.3560 C   0  0  0  0  0  0  0  0  0  0  0  0
   -6.9290   22.5350  -32.3940 C   0  0  0  0  0  0  0  0  0  0  0  0
   -6.2020   23.7050  -32.1530 C   0  0  0  0  0  0  0  0  0  0  0  0
   -1.9410   25.1480  -29.3420 N   0  0  0  0  0  0  0  0  0  0  0  0
   -1.1860   24.5150  -28.4010 C   0  0  0  0  0  0  0  0  0  0  0  0
   -0.0730   24.9950  -28.0570 O   0  0  0  0  0  0  0  0  0  0  0  0
   -1.6290   23.3670  -27.8300 N   0  0  0  0  0  0  0  0  0  0  0  0
   -4.5881   23.0340  -29.4288 H   0  0  0  0  0  0  0  0  0  0  0  0
   -3.4870   25.6660  -31.5840 H   0  0  0  0  0  0  0  0  0  0  0  0
   -5.6127   25.8781  -29.5775 H   0  0  0  0  0  0  0  0  0  0  0  0
   -5.6956   26.2908  -31.3334 H   0  0  0  0  0  0  0  0  0  0  0  0
   -6.8859   24.0867  -28.8193 H   0  0  0  0  0  0  0  0  0  0  0  0
   -8.1744   21.9964  -29.2576 H   0  0  0  0  0  0  0  0  0  0  0  0
   -8.2051   21.0010  -31.5475 H   0  0  0  0  0  0  0  0  0  0  0  0
   -6.9450   22.0965  -33.4027 H   0  0  0  0  0  0  0  0  0  0  0  0
   -5.6531   24.1880  -32.9748 H   0  0  0  0  0  0  0  0  0  0  0  0
   -1.5790   26.0350  -29.7520 H   0  0  0  0  0  0  0  0  0  0  0  0
  1  2  2  0
  2  3  1  0
  3  4  2  0
  4  5  1  0
  5  6  1  0
  6  7  1  0
  7  8  2  0
  8  9  1  0
  9 10  2  0
 10 11  1  0
 11 12  2  0
  4 13  1  0
 13 14  1  0
 14 15  2  0
 14 16  1  0
 16  2  1  0
 12  7  1  0
  3 17  1  0
  5 18  1  0
  6 19  1  0
  6 20  1  0
  8 21  1  0
  9 22  1  0
 10 23  1  0
 11 24  1  0
 12 25  1  0
 13 26  1  0
M  CHG  1  16  -1
M  END
>  <UniqueID>  (24) 
23

>  <SMILES>  (24) 
O=c1cc(NCc2ccccc2)[nH]c(=O)[n-]1

>  <Energy>  (24) 
26.443773642706333

>  <Genealogy>  (24) 
O=c1cc(NCc2ccccc2)[nH]c(=O)[n-]1 (protonated)
O=c1cc(NCc2ccccc2)[nH]c(=O)[n-]1 (3D coordinates assigned)
O=c1cc(NCc2ccccc2)[nH]c(=O)[n-]1 (optimized conformer: 26.443773642706333 kcal/mol)

>  <smiles>  (24) 
O=c1cc(NCc2ccccc2)[nH]c(=O)[nH]1

>  <score_type>  (24) 
oracle

>  <origin>  (24) 
adgpu

>  <m_score__min__energy>  (24) 
-8.0299999999999994

>  <m_primary>  (24) 
energy

$$$$
24:0
     RDKit          3D

 28 29  0  0  0  0  0  0  0  0999 V2000
   -7.2250   24.9610  -30.0570 O   0  0  0  0  0  0  0  0  0  0  0  0
   -6.0820   24.4690  -30.2670 C   0  0  0  0  0  0  0  0  0  0  0  0
   -5.0580   24.6990  -29.3480 C   0  0  0  0  0  0  0  0  0  0  0  0
   -3.7950   24.1340  -29.5610 C   0  0  0  0  0  0  0  0  0  0  0  0
   -2.6580   24.4060  -28.6100 C   0  0  0  0  0  0  0  0  0  0  0  0
   -3.1270   24.5510  -27.3160 F   0  0  0  0  0  0  0  0  0  0  0  0
   -1.9950   25.5700  -28.9620 F   0  0  0  0  0  0  0  0  0  0  0  0
   -1.7670   23.3500  -28.6510 F   0  0  0  0  0  0  0  0  0  0  0  0
   -3.5950   23.3850  -30.7250 C   0  0  0  0  0  0  0  0  0  0  0  0
   -4.6230   23.1920  -31.5900 N   0  0  0  0  0  0  0  0  0  0  0  0
   -5.8350   23.7160  -31.3840 N   0  0  0  0  0  0  0  0  0  0  0  0
   -6.8920   23.4270  -32.3560 C   0  0  0  0  0  0  0  0  0  0  0  0
   -8.3310   22.7040  -31.5030 S   0  0  0  0  0  0  0  0  0  0  0  0
   -7.9270   21.0250  -31.9880 C   0  0  0  0  0  0  0  0  0  0  0  0
   -6.7760   20.7690  -32.7430 C   0  0  0  0  0  0  0  0  0  0  0  0
   -6.4630   19.4590  -33.1190 C   0  0  0  0  0  0  0  0  0  0  0  0
   -7.2970   18.4020  -32.7380 C   0  0  0  0  0  0  0  0  0  0  0  0
   -8.4440   18.6560  -31.9800 C   0  0  0  0  0  0  0  0  0  0  0  0
   -8.7600   19.9660  -31.6040 C   0  0  0  0  0  0  0  0  0  0  0  0
   -5.2421   25.3215  -28.4600 H   0  0  0  0  0  0  0  0  0  0  0  0
   -2.6063   22.9530  -30.9391 H   0  0  0  0  0  0  0  0  0  0  0  0
   -7.1938   24.3592  -32.8558 H   0  0  0  0  0  0  0  0  0  0  0  0
   -6.5146   22.7126  -33.1025 H   0  0  0  0  0  0  0  0  0  0  0  0
   -6.1178   21.5986  -33.0405 H   0  0  0  0  0  0  0  0  0  0  0  0
   -5.5602   19.2592  -33.7149 H   0  0  0  0  0  0  0  0  0  0  0  0
   -7.0503   17.3719  -33.0347 H   0  0  0  0  0  0  0  0  0  0  0  0
   -9.0987   17.8249  -31.6789 H   0  0  0  0  0  0  0  0  0  0  0  0
   -9.6623   20.1645  -31.0070 H   0  0  0  0  0  0  0  0  0  0  0  0
  1  2  2  0
  2  3  1  0
  3  4  2  0
  4  5  1  0
  5  6  1  0
  5  7  1  0
  5  8  1  0
  4  9  1  0
  9 10  2  0
 10 11  1  0
 11 12  1  0
 12 13  1  0
 13 14  1  0
 14 15  2  0
 15 16  1  0
 16 17  2  0
 17 18  1  0
 18 19  2  0
 11  2  1  0
 19 14  1  0
  3 20  1  0
  9 21  1  0
 12 22  1  0
 12 23  1  0
 15 24  1  0
 16 25  1  0
 17 26  1  0
 18 27  1  0
 19 28  1  0
M  END
>  <UniqueID>  (25) 
24

>  <SMILES>  (25) 
O=c1cc(C(F)(F)F)cnn1CSc1ccccc1

>  <Energy>  (25) 
26.744461608605356

>  <Genealogy>  (25) 
O=c1cc(C(F)(F)F)cnn1CSc1ccccc1 (3D coordinates assigned)
O=c1cc(C(F)(F)F)cnn1CSc1ccccc1 (optimized conformer: 26.744461608605356 kcal/mol)

>  <smiles>  (25) 
O=c1cc(C(F)(F)F)cnn1CSc1ccccc1

>  <score_type>  (25) 
oracle

>  <origin>  (25) 
adgpu

>  <m_score__min__energy>  (25) 
-6.4100000000000001

>  <m_primary>  (25) 
energy

$$$$
25:0
     RDKit          3D

 43 45  0  0  0  0  0  0  0  0999 V2000
   -1.5435   24.9144  -24.4090 H   0  0  0  0  0  0  0  0  0  0  0  0
   -1.2560   25.5560  -25.2550 C   0  0  0  0  0  0  0  0  0  0  0  0
   -1.6080   25.1910  -26.5570 C   0  0  0  0  0  0  0  0  0  0  0  0
   -2.1840   24.2698  -26.7290 H   0  0  0  0  0  0  0  0  0  0  0  0
   -1.2330   25.9890  -27.6440 C   0  0  0  0  0  0  0  0  0  0  0  0
   -1.6330   25.5860  -28.9630 N   0  0  0  0  0  0  0  0  0  0  0  0
   -2.5500   24.5350  -29.2900 C   0  0  0  0  0  0  0  0  0  0  0  0
   -2.2250   23.3300  -29.1170 O   0  0  0  0  0  0  0  0  0  0  0  0
   -3.8730   24.8760  -29.7260 N   0  0  0  0  0  0  0  0  0  0  0  0
   -4.1900   25.8600  -29.5770 H   0  0  0  0  0  0  0  0  0  0  0  0
   -4.8180   23.9310  -30.2590 C   0  0  0  0  0  0  0  0  0  0  0  0
   -6.1240   23.9060  -29.7510 C   0  0  0  0  0  0  0  0  0  0  0  0
   -6.4082   24.5939  -28.9410 H   0  0  0  0  0  0  0  0  0  0  0  0
   -7.0690   23.0120  -30.2670 C   0  0  0  0  0  0  0  0  0  0  0  0
   -8.0889   22.9940  -29.8554 H   0  0  0  0  0  0  0  0  0  0  0  0
   -6.7200   22.1410  -31.3050 C   0  0  0  0  0  0  0  0  0  0  0  0
   -7.9290   21.0410  -31.9630 S   0  0  0  0  0  0  0  0  0  0  0  0
   -8.5860   20.2520  -30.8640 O   0  0  0  0  0  0  0  0  0  0  0  0
   -8.9820   21.8420  -32.6750 O   0  0  0  0  0  0  0  0  0  0  0  0
   -7.1800   19.9550  -33.0840 N   0  0  0  0  0  0  0  0  0  0  0  0
   -6.7080   18.8030  -32.7230 C   0  0  0  0  0  0  0  0  0  0  0  0
   -6.7390   18.3290  -31.4990 O   0  0  0  0  0  0  0  0  0  0  0  0
   -6.1680   17.1600  -31.4450 N   0  0  0  0  0  0  0  0  0  0  0  0
   -5.7450   16.8670  -32.6930 C   0  0  0  0  0  0  0  0  0  0  0  0
   -5.0230   15.6110  -33.0570 C   0  0  0  0  0  0  0  0  0  0  0  0
   -4.7198   15.0836  -32.1405 H   0  0  0  0  0  0  0  0  0  0  0  0
   -5.6874   14.9646  -33.6493 H   0  0  0  0  0  0  0  0  0  0  0  0
   -4.1301   15.8598  -33.6493 H   0  0  0  0  0  0  0  0  0  0  0  0
   -6.0920   17.8940  -33.5530 C   0  0  0  0  0  0  0  0  0  0  0  0
   -5.7540   18.0430  -35.0030 C   0  0  0  0  0  0  0  0  0  0  0  0
   -4.7516   18.4849  -35.1023 H   0  0  0  0  0  0  0  0  0  0  0  0
   -5.7687   17.0550  -35.4863 H   0  0  0  0  0  0  0  0  0  0  0  0
   -6.4933   18.6987  -35.4863 H   0  0  0  0  0  0  0  0  0  0  0  0
   -5.4250   22.1800  -31.8370 C   0  0  0  0  0  0  0  0  0  0  0  0
   -5.1509   21.5077  -32.6634 H   0  0  0  0  0  0  0  0  0  0  0  0
   -4.4790   23.0720  -31.3200 C   0  0  0  0  0  0  0  0  0  0  0  0
   -3.4650   23.1016  -31.7455 H   0  0  0  0  0  0  0  0  0  0  0  0
   -0.5340   27.1870  -27.4090 C   0  0  0  0  0  0  0  0  0  0  0  0
   -0.2633   27.8373  -28.2539 H   0  0  0  0  0  0  0  0  0  0  0  0
   -0.1810   27.5560  -26.1050 C   0  0  0  0  0  0  0  0  0  0  0  0
    0.6970   29.0600  -25.8560 Cl  0  0  0  0  0  0  0  0  0  0  0  0
   -0.5390   26.7350  -25.0240 C   0  0  0  0  0  0  0  0  0  0  0  0
   -0.1140   27.1630  -23.3720 Cl  0  0  0  0  0  0  0  0  0  0  0  0
  1  2  1  0
  2  3  2  0
  3  4  1  0
  3  5  1  0
  5  6  1  0
  6  7  1  0
  7  8  2  0
  7  9  1  0
  9 10  1  0
  9 11  1  0
 11 12  2  0
 12 13  1  0
 12 14  1  0
 14 15  1  0
 14 16  2  0
 16 17  1  0
 17 18  2  0
 17 19  2  0
 17 20  1  0
 20 21  2  0
 21 22  1  0
 22 23  1  0
 23 24  1  0
 24 25  1  0
 25 26  1  0
 25 27  1  0
 25 28  1  0
 24 29  2  0
 29 30  1  0
 30 31  1  0
 30 32  1  0
 30 33  1  0
 16 34  1  0
 34 35  1  0
 34 36  2  0
 36 37  1  0
  5 38  2  0
 38 39  1  0
 38 40  1  0
 40 41  1  0
 40 42  2  0
 42 43  1  0
 42  2  1  0
 36 11  1  0
 29 21  1  0
M  CHG  2   6  -1  23  -1
M  END
>  <UniqueID>  (26) 
25

>  <SMILES>  (26) 
Cc1[n-]o/c(=N\S(=O)(=O)c2ccc(NC(=O)[N-]c3ccc(Cl)c(Cl)c3)cc2)c1C

>  <Energy>  (26) 
85.04883522937811

>  <Genealogy>  (26) 
Cc1[n-]oc(=NS(=O)(=O)c2ccc(NC(=O)[N-]c3ccc(Cl)c(Cl)c3)cc2)c1C (protonated)
Cc1[n-]o/c(=N\S(=O)(=O)c2ccc(NC(=O)[N-]c3ccc(Cl)c(Cl)c3)cc2)c1C (cis-trans isomerization)
Cc1[n-]o/c(=N\S(=O)(=O)c2ccc(NC(=O)[N-]c3ccc(Cl)c(Cl)c3)cc2)c1C (3D coordinates assigned)
Cc1[n-]o/c(=N\S(=O)(=O)c2ccc(NC(=O)[N-]c3ccc(Cl)c(Cl)c3)cc2)c1C (optimized conformer: 85.04883522937811 kcal/mol)

>  <smiles>  (26) 
Cc1[nH]oc(=NS(=O)(=O)c2ccc(NC(=O)Nc3ccc(Cl)c(Cl)c3)cc2)c1C

>  <score_type>  (26) 
oracle

>  <origin>  (26) 
adgpu

>  <m_score__min__energy>  (26) 
-12.16

>  <m_primary>  (26) 
energy

$$$$
26:0
     RDKit          3D

 45 47  0  0  0  0  0  0  0  0999 V2000
    1.3400   24.5080  -26.8790 C   0  0  0  0  0  0  0  0  0  0  0  0
    0.6240   24.5870  -28.1070 O   0  0  0  0  0  0  0  0  0  0  0  0
   -0.7380   24.2850  -28.2510 C   0  0  0  0  0  0  0  0  0  0  0  0
   -1.3240   23.4020  -27.3370 C   0  0  0  0  0  0  0  0  0  0  0  0
   -2.6790   23.0780  -27.4340 C   0  0  0  0  0  0  0  0  0  0  0  0
   -3.4610   23.6260  -28.4540 C   0  0  0  0  0  0  0  0  0  0  0  0
   -2.8860   24.4980  -29.3940 C   0  0  0  0  0  0  0  0  0  0  0  0
   -3.6590   25.1060  -30.4390 N   0  0  0  0  0  0  0  0  0  0  0  0
   -5.0900   25.1380  -30.5350 C   0  0  0  0  0  0  0  0  0  0  0  0
   -5.7290   26.1410  -30.1150 O   0  0  0  0  0  0  0  0  0  0  0  0
   -5.8240   23.9700  -31.0790 C   0  0  0  0  0  0  0  0  0  0  0  0
   -7.2300   23.9470  -31.0840 C   0  0  0  0  0  0  0  0  0  0  0  0
   -7.9200   22.8430  -31.5940 C   0  0  0  0  0  0  0  0  0  0  0  0
   -7.2170   21.7400  -32.0990 C   0  0  0  0  0  0  0  0  0  0  0  0
   -7.9600   20.5700  -32.6840 C   0  0  0  0  0  0  0  0  0  0  0  0
   -7.5200   19.3240  -32.0570 N   0  0  0  0  0  0  0  0  0  0  0  0
   -6.6620   18.3830  -32.7280 C   0  0  0  0  0  0  0  0  0  0  0  0
   -6.4110   18.5160  -34.0650 N   0  0  0  0  0  0  0  0  0  0  0  0
   -5.5660   17.6690  -34.7110 C   0  0  0  0  0  0  0  0  0  0  0  0
   -5.3500   17.8100  -35.9440 O   0  0  0  0  0  0  0  0  0  0  0  0
   -4.9500   16.6710  -34.0310 N   0  0  0  0  0  0  0  0  0  0  0  0
   -5.1640   16.4880  -32.7060 C   0  0  0  0  0  0  0  0  0  0  0  0
   -4.5790   15.5430  -32.1110 O   0  0  0  0  0  0  0  0  0  0  0  0
   -6.0380   17.3390  -32.0090 C   0  0  0  0  0  0  0  0  0  0  0  0
   -6.3150   17.1090  -30.6190 N   0  0  0  0  0  0  0  0  0  0  0  0
   -5.8160   21.7650  -32.1120 C   0  0  0  0  0  0  0  0  0  0  0  0
   -5.1240   22.8680  -31.6010 C   0  0  0  0  0  0  0  0  0  0  0  0
   -1.5310   24.8390  -29.2770 C   0  0  0  0  0  0  0  0  0  0  0  0
    0.6353   24.5858  -26.0380 H   0  0  0  0  0  0  0  0  0  0  0  0
    1.8705   23.5459  -26.8251 H   0  0  0  0  0  0  0  0  0  0  0  0
    2.0675   25.3313  -26.8251 H   0  0  0  0  0  0  0  0  0  0  0  0
   -0.7129   22.9599  -26.5363 H   0  0  0  0  0  0  0  0  0  0  0  0
   -3.1318   22.3895  -26.7054 H   0  0  0  0  0  0  0  0  0  0  0  0
   -4.5297   23.3741  -28.5214 H   0  0  0  0  0  0  0  0  0  0  0  0
   -7.7913   24.8041  -30.6836 H   0  0  0  0  0  0  0  0  0  0  0  0
   -9.0200   22.8398  -31.5991 H   0  0  0  0  0  0  0  0  0  0  0  0
   -9.0383   20.7020  -32.5114 H   0  0  0  0  0  0  0  0  0  0  0  0
   -7.7544   20.5193  -33.7634 H   0  0  0  0  0  0  0  0  0  0  0  0
   -7.7460   19.1720  -31.0470 H   0  0  0  0  0  0  0  0  0  0  0  0
   -6.8520   19.2900  -34.6090 H   0  0  0  0  0  0  0  0  0  0  0  0
   -7.0360   17.6570  -30.1010 H   0  0  0  0  0  0  0  0  0  0  0  0
   -5.8580   16.3260  -30.1020 H   0  0  0  0  0  0  0  0  0  0  0  0
   -5.2574   20.9127  -32.5263 H   0  0  0  0  0  0  0  0  0  0  0  0
   -4.0240   22.8733  -31.6076 H   0  0  0  0  0  0  0  0  0  0  0  0
   -1.0827   25.5448  -29.9918 H   0  0  0  0  0  0  0  0  0  0  0  0
  1  2  1  0
  2  3  1  0
  3  4  2  0
  4  5  1  0
  5  6  2  0
  6  7  1  0
  7  8  1  0
  8  9  1  0
  9 10  2  0
  9 11  1  0
 11 12  2  0
 12 13  1  0
 13 14  2  0
 14 15  1  0
 15 16  1  0
 16 17  1  0
 17 18  1  0
 18 19  1  0
 19 20  2  0
 19 21  1  0
 21 22  1  0
 22 23  2  0
 22 24  1  0
 24 25  1  0
 14 26  1  0
 26 27  2  0
  7 28  2  0
 28  3  1  0
 27 11  1  0
 24 17  2  0
  1 29  1  0
  1 30  1  0
  1 31  1  0
  4 32  1  0
  5 33  1  0
  6 34  1  0
 12 35  1  0
 13 36  1  0
 15 37  1  0
 15 38  1  0
 16 39  1  0
 18 40  1  0
 25 41  1  0
 25 42  1  0
 26 43  1  0
 27 44  1  0
 28 45  1  0
M  CHG  2   8  -1  21  -1
M  END
>  <UniqueID>  (27) 
26

>  <SMILES>  (27) 
COc1cccc([N-]C(=O)c2ccc(CNc3[nH]c(=O)[n-]c(=O)c3N)cc2)c1

>  <Energy>  (27) 
54.74300250683094

>  <Genealogy>  (27) 
COc1cccc([N-]C(=O)c2ccc(CNc3[nH]c(=O)[n-]c(=O)c3N)cc2)c1 (protonated)
COc1cccc([N-]C(=O)c2ccc(CNc3[nH]c(=O)[n-]c(=O)c3N)cc2)c1 (3D coordinates assigned)
COc1cccc([N-]C(=O)c2ccc(CNc3[nH]c(=O)[n-]c(=O)c3N)cc2)c1 (optimized conformer: 54.74300250683094 kcal/mol)

>  <smiles>  (27) 
COc1cccc(NC(=O)c2ccc(CNc3[nH]c(=O)[nH]c(=O)c3N)cc2)c1

>  <score_type>  (27) 
oracle

>  <origin>  (27) 
adgpu

>  <m_score__min__energy>  (27) 
-10.609999999999999

>  <m_primary>  (27) 
energy

$$$$
27:0
     RDKit          3D

 51 53  0  0  0  0  0  0  0  0999 V2000
   -8.8440   19.3430  -32.2370 C   0  0  0  0  0  0  0  0  0  0  0  0
   -7.6710   20.2710  -32.1170 C   0  0  0  0  0  0  0  0  0  0  0  0
   -7.8130   21.5080  -31.4770 C   0  0  0  0  0  0  0  0  0  0  0  0
   -6.7130   22.3520  -31.3260 C   0  0  0  0  0  0  0  0  0  0  0  0
   -5.4490   21.9770  -31.8120 C   0  0  0  0  0  0  0  0  0  0  0  0
   -4.3170   22.8430  -31.6090 N   0  0  0  0  0  0  0  0  0  0  0  0
   -3.5600   22.8890  -30.3880 C   0  0  0  0  0  0  0  0  0  0  0  0
   -3.1740   21.6860  -29.7850 C   0  0  0  0  0  0  0  0  0  0  0  0
   -2.4340   21.6830  -28.5940 C   0  0  0  0  0  0  0  0  0  0  0  0
   -2.0440   20.4000  -27.9540 C   0  0  0  0  0  0  0  0  0  0  0  0
   -2.8600   19.8140  -26.9690 C   0  0  0  0  0  0  0  0  0  0  0  0
   -2.4900   18.6070  -26.3700 C   0  0  0  0  0  0  0  0  0  0  0  0
   -1.3040   17.9720  -26.7430 C   0  0  0  0  0  0  0  0  0  0  0  0
   -0.4850   18.5440  -27.7190 C   0  0  0  0  0  0  0  0  0  0  0  0
   -0.8500   19.7520  -28.3230 C   0  0  0  0  0  0  0  0  0  0  0  0
   -2.0710   22.9090  -28.0130 C   0  0  0  0  0  0  0  0  0  0  0  0
   -2.4230   24.1310  -28.6120 C   0  0  0  0  0  0  0  0  0  0  0  0
   -1.9920   25.4290  -27.9400 C   0  0  0  0  0  0  0  0  0  0  0  0
   -0.4770   25.6460  -28.0350 C   0  0  0  0  0  0  0  0  0  0  0  0
   -2.4850   25.5100  -26.4900 C   0  0  0  0  0  0  0  0  0  0  0  0
   -3.1580   24.1140  -29.8200 C   0  0  0  0  0  0  0  0  0  0  0  0
   -3.4710   25.3020  -30.4700 O   0  0  0  0  0  0  0  0  0  0  0  0
   -5.2950   20.7230  -32.4490 C   0  0  0  0  0  0  0  0  0  0  0  0
   -3.7250   20.2160  -33.0960 S   0  0  0  0  0  0  0  0  0  0  0  0
   -2.8580   21.5440  -33.7910 N   0  0  0  0  0  0  0  0  0  0  0  0
   -3.9390   19.1660  -34.1500 O   0  0  0  0  0  0  0  0  0  0  0  0
   -2.8890   19.6450  -31.9850 O   0  0  0  0  0  0  0  0  0  0  0  0
   -6.4090   19.8770  -32.5830 C   0  0  0  0  0  0  0  0  0  0  0  0
   -9.1957   19.0648  -31.2326 H   0  0  0  0  0  0  0  0  0  0  0  0
   -9.6554   19.8463  -32.7832 H   0  0  0  0  0  0  0  0  0  0  0  0
   -8.5409   18.4376  -32.7832 H   0  0  0  0  0  0  0  0  0  0  0  0
   -8.7963   21.8156  -31.0916 H   0  0  0  0  0  0  0  0  0  0  0  0
   -6.8362   23.3215  -30.8211 H   0  0  0  0  0  0  0  0  0  0  0  0
   -3.9480   23.3700  -32.4310 H   0  0  0  0  0  0  0  0  0  0  0  0
   -3.4550   20.7304  -30.2517 H   0  0  0  0  0  0  0  0  0  0  0  0
   -3.7952   20.3091  -26.6685 H   0  0  0  0  0  0  0  0  0  0  0  0
   -3.1354   18.1557  -25.6020 H   0  0  0  0  0  0  0  0  0  0  0  0
   -1.0150   17.0225  -26.2688 H   0  0  0  0  0  0  0  0  0  0  0  0
    0.4492   18.0435  -28.0135 H   0  0  0  0  0  0  0  0  0  0  0  0
   -0.2004   20.1979  -29.0905 H   0  0  0  0  0  0  0  0  0  0  0  0
   -1.5010   22.9131  -27.0722 H   0  0  0  0  0  0  0  0  0  0  0  0
   -2.4714   26.2503  -28.4928 H   0  0  0  0  0  0  0  0  0  0  0  0
   -0.0511   25.7070  -27.0226 H   0  0  0  0  0  0  0  0  0  0  0  0
   -0.0192   24.8043  -28.5753 H   0  0  0  0  0  0  0  0  0  0  0  0
   -0.2739   26.5824  -28.5753 H   0  0  0  0  0  0  0  0  0  0  0  0
   -1.6353   25.3704  -25.8055 H   0  0  0  0  0  0  0  0  0  0  0  0
   -2.9410   26.4951  -26.3123 H   0  0  0  0  0  0  0  0  0  0  0  0
   -3.2323   24.7226  -26.3123 H   0  0  0  0  0  0  0  0  0  0  0  0
   -2.2630   21.1650  -34.5610 H   0  0  0  0  0  0  0  0  0  0  0  0
   -3.5600   22.1870  -34.2210 H   0  0  0  0  0  0  0  0  0  0  0  0
   -6.2892   18.8929  -33.0597 H   0  0  0  0  0  0  0  0  0  0  0  0
  1  2  1  0
  2  3  2  0
  3  4  1  0
  4  5  2  0
  5  6  1  0
  6  7  1  0
  7  8  2  0
  8  9  1  0
  9 10  1  0
 10 11  2  0
 11 12  1  0
 12 13  2  0
 13 14  1  0
 14 15  2  0
  9 16  2  0
 16 17  1  0
 17 18  1  0
 18 19  1  0
 18 20  1  0
 17 21  2  0
 21 22  1  0
  5 23  1  0
 23 24  1  0
 24 25  1  0
 24 26  2  0
 24 27  2  0
 23 28  2  0
 28  2  1  0
 21  7  1  0
 15 10  1  0
  1 29  1  0
  1 30  1  0
  1 31  1  0
  3 32  1  0
  4 33  1  0
  6 34  1  0
  8 35  1  0
 11 36  1  0
 12 37  1  0
 13 38  1  0
 14 39  1  0
 15 40  1  0
 16 41  1  0
 18 42  1  0
 19 43  1  0
 19 44  1  0
 19 45  1  0
 20 46  1  0
 20 47  1  0
 20 48  1  0
 25 49  1  0
 25 50  1  0
 28 51  1  0
M  CHG  1  22  -1
M  END
>  <UniqueID>  (28) 
27

>  <SMILES>  (28) 
Cc1ccc(Nc2cc(-c3ccccc3)cc(C(C)C)c2[O-])c(S(N)(=O)=O)c1

>  <Energy>  (28) 
63.31484856958104

>  <Genealogy>  (28) 
Cc1ccc(Nc2cc(-c3ccccc3)cc(C(C)C)c2[O-])c(S(N)(=O)=O)c1 (protonated)
Cc1ccc(Nc2cc(-c3ccccc3)cc(C(C)C)c2[O-])c(S(N)(=O)=O)c1 (3D coordinates assigned)
Cc1ccc(Nc2cc(-c3ccccc3)cc(C(C)C)c2[O-])c(S(N)(=O)=O)c1 (optimized conformer: 63.31484856958104 kcal/mol)

>  <smiles>  (28) 
Cc1ccc(Nc2cc(-c3ccccc3)cc(C(C)C)c2O)c(S(N)(=O)=O)c1

>  <score_type>  (28) 
oracle

>  <origin>  (28) 
adgpu

>  <m_score__min__energy>  (28) 
-13.32

>  <m_primary>  (28) 
energy

$$$$
28:0
     RDKit          3D

 39 41  0  0  0  0  0  0  0  0999 V2000
   -3.6430   21.9160  -32.4680 C   0  0  0  0  0  0  0  0  0  0  0  0
   -2.9890   20.9550  -31.6450 O   0  0  0  0  0  0  0  0  0  0  0  0
   -1.6190   20.6550  -31.7030 C   0  0  0  0  0  0  0  0  0  0  0  0
   -0.8490   20.8960  -32.8590 C   0  0  0  0  0  0  0  0  0  0  0  0
    0.5210   20.5840  -32.8890 C   0  0  0  0  0  0  0  0  0  0  0  0
    1.3290   20.8430  -34.1090 C   0  0  0  0  0  0  0  0  0  0  0  0
    2.5170   20.1250  -34.3450 C   0  0  0  0  0  0  0  0  0  0  0  0
    3.2760   20.3710  -35.4930 C   0  0  0  0  0  0  0  0  0  0  0  0
    2.8590   21.3320  -36.4180 C   0  0  0  0  0  0  0  0  0  0  0  0
    3.6150   21.5750  -37.5580 O   0  0  0  0  0  0  0  0  0  0  0  0
    1.6810   22.0490  -36.1940 C   0  0  0  0  0  0  0  0  0  0  0  0
    0.9180   21.8080  -35.0470 C   0  0  0  0  0  0  0  0  0  0  0  0
    1.1160   20.0170  -31.7500 C   0  0  0  0  0  0  0  0  0  0  0  0
    0.3590   19.7740  -30.6030 C   0  0  0  0  0  0  0  0  0  0  0  0
   -1.0040   20.1090  -30.5660 C   0  0  0  0  0  0  0  0  0  0  0  0
   -1.8000   19.8570  -29.3970 N   0  0  0  0  0  0  0  0  0  0  0  0
   -2.3700   20.8480  -28.5310 C   0  0  0  0  0  0  0  0  0  0  0  0
   -3.1760   20.4750  -27.6380 O   0  0  0  0  0  0  0  0  0  0  0  0
   -2.0790   22.2930  -28.6910 C   0  0  0  0  0  0  0  0  0  0  0  0
   -0.9420   22.8540  -28.0850 C   0  0  0  0  0  0  0  0  0  0  0  0
   -0.6610   24.2170  -28.2320 C   0  0  0  0  0  0  0  0  0  0  0  0
   -1.5180   25.0340  -28.9750 C   0  0  0  0  0  0  0  0  0  0  0  0
   -1.2320   26.3860  -29.1180 O   0  0  0  0  0  0  0  0  0  0  0  0
   -2.6620   24.4880  -29.5690 C   0  0  0  0  0  0  0  0  0  0  0  0
   -3.5210   25.2990  -30.3020 O   0  0  0  0  0  0  0  0  0  0  0  0
   -2.9450   23.1270  -29.4240 C   0  0  0  0  0  0  0  0  0  0  0  0
   -4.1485   22.6588  -31.8334 H   0  0  0  0  0  0  0  0  0  0  0  0
   -2.9003   22.4210  -33.1031 H   0  0  0  0  0  0  0  0  0  0  0  0
   -4.3853   21.4104  -33.1031 H   0  0  0  0  0  0  0  0  0  0  0  0
   -1.3262   21.3335  -33.7483 H   0  0  0  0  0  0  0  0  0  0  0  0
    2.8499   19.3660  -33.6218 H   0  0  0  0  0  0  0  0  0  0  0  0
    4.2038   19.8067  -35.6686 H   0  0  0  0  0  0  0  0  0  0  0  0
    1.3526   22.8054  -36.9220 H   0  0  0  0  0  0  0  0  0  0  0  0
   -0.0086   22.3760  -34.8772 H   0  0  0  0  0  0  0  0  0  0  0  0
    2.1861   19.7627  -31.7621 H   0  0  0  0  0  0  0  0  0  0  0  0
    0.8334   19.3170  -29.7220 H   0  0  0  0  0  0  0  0  0  0  0  0
   -0.2688   22.2179  -27.4915 H   0  0  0  0  0  0  0  0  0  0  0  0
    0.2361   24.6463  -27.7619 H   0  0  0  0  0  0  0  0  0  0  0  0
   -3.8499   22.7047  -29.8854 H   0  0  0  0  0  0  0  0  0  0  0  0
  1  2  1  0
  2  3  1  0
  3  4  2  0
  4  5  1  0
  5  6  1  0
  6  7  2  0
  7  8  1  0
  8  9  2  0
  9 10  1  0
  9 11  1  0
 11 12  2  0
  5 13  2  0
 13 14  1  0
 14 15  2  0
 15 16  1  0
 16 17  1  0
 17 18  2  0
 17 19  1  0
 19 20  2  0
 20 21  1  0
 21 22  2  0
 22 23  1  0
 22 24  1  0
 24 25  1  0
 24 26  2  0
 15  3  1  0
 26 19  1  0
 12  6  1  0
  1 27  1  0
  1 28  1  0
  1 29  1  0
  4 30  1  0
  7 31  1  0
  8 32  1  0
 11 33  1  0
 12 34  1  0
 13 35  1  0
 14 36  1  0
 20 37  1  0
 21 38  1  0
 26 39  1  0
M  CHG  4  10  -1  16  -1  23  -1  25  -1
M  END
>  <UniqueID>  (29) 
28

>  <SMILES>  (29) 
COc1cc(-c2ccc([O-])cc2)ccc1[N-]C(=O)c1ccc([O-])c([O-])c1

>  <Energy>  (29) 
54.15393904212557

>  <Genealogy>  (29) 
COc1cc(-c2ccc([O-])cc2)ccc1[N-]C(=O)c1ccc([O-])c([O-])c1 (protonated)
COc1cc(-c2ccc([O-])cc2)ccc1[N-]C(=O)c1ccc([O-])c([O-])c1 (3D coordinates assigned)
COc1cc(-c2ccc([O-])cc2)ccc1[N-]C(=O)c1ccc([O-])c([O-])c1 (optimized conformer: 54.15393904212557 kcal/mol)

>  <smiles>  (29) 
COc1cc(-c2ccc(O)cc2)ccc1NC(=O)c1ccc(O)c(O)c1

>  <score_type>  (29) 
oracle

>  <origin>  (29) 
adgpu

>  <m_score__min__energy>  (29) 
-13.289999999999999

>  <m_primary>  (29) 
energy

$$$$
29:0
     RDKit          3D

 37 38  0  0  0  0  0  0  0  0999 V2000
   -9.4010   22.3120  -31.9190 C   0  0  0  0  0  0  0  0  0  0  0  0
   -9.1650   21.2720  -31.1130 C   0  0  0  0  0  0  0  0  0  0  0  0
   -8.5600   19.9960  -31.6280 C   0  0  0  0  0  0  0  0  0  0  0  0
   -7.1390   20.2200  -32.0700 C   0  0  0  0  0  0  0  0  0  0  0  0
   -6.6070   19.4820  -33.1360 C   0  0  0  0  0  0  0  0  0  0  0  0
   -5.3010   19.7140  -33.5710 C   0  0  0  0  0  0  0  0  0  0  0  0
   -4.5090   20.6890  -32.9580 C   0  0  0  0  0  0  0  0  0  0  0  0
   -3.2280   20.9150  -33.4670 O   0  0  0  0  0  0  0  0  0  0  0  0
   -5.0290   21.4310  -31.8700 C   0  0  0  0  0  0  0  0  0  0  0  0
   -4.2170   22.4390  -31.1540 C   0  0  0  0  0  0  0  0  0  0  0  0
   -4.6120   23.7860  -31.1450 C   0  0  0  0  0  0  0  0  0  0  0  0
   -3.8520   24.7390  -30.4630 C   0  0  0  0  0  0  0  0  0  0  0  0
   -4.2470   26.0720  -30.4750 O   0  0  0  0  0  0  0  0  0  0  0  0
   -2.6950   24.3560  -29.7730 C   0  0  0  0  0  0  0  0  0  0  0  0
   -1.9410   25.3200  -29.1120 O   0  0  0  0  0  0  0  0  0  0  0  0
   -2.3030   23.0040  -29.7520 C   0  0  0  0  0  0  0  0  0  0  0  0
   -1.0440   22.5750  -29.0380 C   0  0  0  0  0  0  0  0  0  0  0  0
   -1.3650   22.0240  -27.6770 C   0  0  0  0  0  0  0  0  0  0  0  0
   -1.6770   20.7370  -27.4970 C   0  0  0  0  0  0  0  0  0  0  0  0
   -3.0680   22.0530  -30.4460 C   0  0  0  0  0  0  0  0  0  0  0  0
   -6.3480   21.1980  -31.4470 C   0  0  0  0  0  0  0  0  0  0  0  0
   -9.8449   23.2329  -31.5129 H   0  0  0  0  0  0  0  0  0  0  0  0
   -9.1513   22.2469  -32.9883 H   0  0  0  0  0  0  0  0  0  0  0  0
   -9.4200   21.3520  -30.0460 H   0  0  0  0  0  0  0  0  0  0  0  0
   -8.5743   19.2412  -30.8279 H   0  0  0  0  0  0  0  0  0  0  0  0
   -9.1478   19.6496  -32.4909 H   0  0  0  0  0  0  0  0  0  0  0  0
   -7.2214   18.7163  -33.6323 H   0  0  0  0  0  0  0  0  0  0  0  0
   -4.8913   19.1239  -34.4041 H   0  0  0  0  0  0  0  0  0  0  0  0
   -3.0410   21.5580  -34.2250 H   0  0  0  0  0  0  0  0  0  0  0  0
   -5.5244   24.0925  -31.6776 H   0  0  0  0  0  0  0  0  0  0  0  0
   -0.5392   21.7987  -29.6317 H   0  0  0  0  0  0  0  0  0  0  0  0
   -0.3897   23.4512  -28.9189 H   0  0  0  0  0  0  0  0  0  0  0  0
   -1.3426   22.6970  -26.8072 H   0  0  0  0  0  0  0  0  0  0  0  0
   -1.9073   20.3627  -26.4886 H   0  0  0  0  0  0  0  0  0  0  0  0
   -1.7035   20.0520  -28.3573 H   0  0  0  0  0  0  0  0  0  0  0  0
   -2.7642   20.9958  -30.4348 H   0  0  0  0  0  0  0  0  0  0  0  0
   -6.7657   21.7885  -30.6183 H   0  0  0  0  0  0  0  0  0  0  0  0
  1  2  2  0
  2  3  1  0
  3  4  1  0
  4  5  2  0
  5  6  1  0
  6  7  2  0
  7  8  1  0
  7  9  1  0
  9 10  1  0
 10 11  2  0
 11 12  1  0
 12 13  1  0
 12 14  2  0
 14 15  1  0
 14 16  1  0
 16 17  1  0
 17 18  1  0
 18 19  2  0
 16 20  2  0
  9 21  2  0
 21  4  1  0
 20 10  1  0
  1 22  1  0
  1 23  1  0
  2 24  1  0
  3 25  1  0
  3 26  1  0
  5 27  1  0
  6 28  1  0
  8 29  1  0
 11 30  1  0
 17 31  1  0
 17 32  1  0
 18 33  1  0
 19 34  1  0
 19 35  1  0
 20 36  1  0
 21 37  1  0
M  CHG  2  13  -1  15  -1
M  END
>  <UniqueID>  (30) 
29

>  <SMILES>  (30) 
C=CCc1ccc(O)c(-c2cc([O-])c([O-])c(CC=C)c2)c1

>  <Energy>  (30) 
38.50348515558163

>  <Genealogy>  (30) 
C=CCc1ccc(O)c(-c2cc([O-])c([O-])c(CC=C)c2)c1 (protonated)
C=CCc1ccc(O)c(-c2cc([O-])c([O-])c(CC=C)c2)c1 (3D coordinates assigned)
C=CCc1ccc(O)c(-c2cc([O-])c([O-])c(CC=C)c2)c1 (optimized conformer: 38.50348515558163 kcal/mol)

>  <smiles>  (30) 
C=CCc1ccc(O)c(-c2cc(O)c(O)c(CC=C)c2)c1

>  <score_type>  (30) 
oracle

>  <origin>  (30) 
adgpu

>  <m_score__min__energy>  (30) 
-12.34

>  <m_primary>  (30) 
energy

$$$$
30:0
     RDKit          3D

 43 45  0  0  1  0  0  0  0  0999 V2000
   -0.8800   20.2870  -34.7000 C   0  0  0  0  0  0  0  0  0  0  0  0
   -1.1110   18.9900  -34.0090 C   0  0  0  0  0  0  0  0  0  0  0  0
   -0.1490   18.3900  -33.2100 C   0  0  0  0  0  0  0  0  0  0  0  0
   -0.3760   17.1900  -32.5770 C   0  0  0  0  0  0  0  0  0  0  0  0
   -1.5990   16.5290  -32.7180 C   0  0  0  0  0  0  0  0  0  0  0  0
   -2.5580   17.1270  -33.5130 C   0  0  0  0  0  0  0  0  0  0  0  0
   -3.8430   16.5510  -33.7340 N   0  0  0  0  0  0  0  0  0  0  0  0
   -4.8920   17.2430  -33.4400 C   0  0  0  0  0  0  0  0  0  0  0  0
   -4.7980   18.4860  -32.9360 N   0  0  0  0  0  0  0  0  0  0  0  0
   -5.9000   19.1950  -32.6360 C   0  0  0  0  0  0  0  0  0  0  0  0
   -5.7630   20.5390  -32.0900 C   0  0  0  0  0  0  0  0  0  0  0  0
   -6.7950   21.4310  -31.9800 C   0  0  0  0  0  0  0  0  0  0  0  0
   -6.6380   22.7120  -31.4550 C   0  0  0  0  0  0  0  0  0  0  0  0
   -5.3920   23.1200  -31.0200 C   0  0  0  0  0  0  0  0  0  0  0  0
   -5.1690   24.7240  -30.3550 S   0  0  0  0  0  0  0  0  0  0  0  0
   -5.1880   24.7320  -28.6410 N   0  0  0  0  0  0  0  0  0  0  0  0
   -6.3130   25.5820  -30.8160 O   0  0  0  0  0  0  0  0  0  0  0  0
   -3.8620   25.3220  -30.7850 O   0  0  0  0  0  0  0  0  0  0  0  0
   -4.3330   22.2370  -31.1200 C   0  0  0  0  0  0  0  0  0  0  0  0
   -4.5170   20.9720  -31.6460 C   0  0  0  0  0  0  0  0  0  0  0  0
   -7.0950   18.6250  -32.8550 N   0  0  0  0  0  0  0  0  0  0  0  0
   -7.2360   17.3760  -33.3620 C   0  0  0  0  0  0  0  0  0  0  0  0
   -6.1120   16.6390  -33.6740 C   0  0  0  0  0  0  0  0  0  0  0  0
   -6.2670   15.2790  -34.2250 C   0  0  0  0  0  0  0  0  0  0  0  0
   -2.3190   18.3400  -34.1490 C   0  0  0  0  0  0  0  0  0  0  0  0
   -0.7386   21.0809  -33.9519 H   0  0  0  0  0  0  0  0  0  0  0  0
    0.0189   20.2121  -35.3295 H   0  0  0  0  0  0  0  0  0  0  0  0
   -1.7495   20.5270  -35.3295 H   0  0  0  0  0  0  0  0  0  0  0  0
    0.8231   18.8879  -33.0788 H   0  0  0  0  0  0  0  0  0  0  0  0
    0.4137   16.7460  -31.9531 H   0  0  0  0  0  0  0  0  0  0  0  0
   -1.7909   15.5695  -32.2155 H   0  0  0  0  0  0  0  0  0  0  0  0
   -7.7941   21.1226  -32.3217 H   0  0  0  0  0  0  0  0  0  0  0  0
   -7.4993   23.3929  -31.3875 H   0  0  0  0  0  0  0  0  0  0  0  0
   -4.8730   25.6320  -28.2230 H   0  0  0  0  0  0  0  0  0  0  0  0
   -6.0610   24.3430  -28.2370 H   0  0  0  0  0  0  0  0  0  0  0  0
   -3.3338   22.5442  -30.7775 H   0  0  0  0  0  0  0  0  0  0  0  0
   -3.6566   20.2901  -31.7154 H   0  0  0  0  0  0  0  0  0  0  0  0
   -7.9860   19.1240  -32.6430 H   0  0  0  0  0  0  0  0  0  0  0  0
   -8.2386   16.9532  -33.5235 H   0  0  0  0  0  0  0  0  0  0  0  0
   -6.3494   14.5563  -33.3998 H   0  0  0  0  0  0  0  0  0  0  0  0
   -7.1760   15.2351  -34.8430 H   0  0  0  0  0  0  0  0  0  0  0  0
   -5.3912   15.0317  -34.8430 H   0  0  0  0  0  0  0  0  0  0  0  0
   -3.1058   18.7881  -34.7736 H   0  0  0  0  0  0  0  0  0  0  0  0
  1  2  1  0
  2  3  2  0
  3  4  1  0
  4  5  2  0
  5  6  1  0
  6  7  1  0
  7  8  2  0
  8  9  1  0
  9 10  2  0
 10 11  1  0
 11 12  2  0
 12 13  1  0
 13 14  2  0
 14 15  1  0
 15 16  1  0
 15 17  2  0
 15 18  2  0
 14 19  1  0
 19 20  2  0
 10 21  1  0
 21 22  1  0
 22 23  2  0
 23 24  1  0
  6 25  2  0
 25  2  1  0
 23  8  1  0
 20 11  1  0
  1 26  1  0
  1 27  1  0
  1 28  1  0
  3 29  1  0
  4 30  1  0
  5 31  1  0
 12 32  1  0
 13 33  1  0
 16 34  1  0
 16 35  1  0
 19 36  1  0
 20 37  1  0
 21 38  1  0
 22 39  1  0
 24 40  1  0
 24 41  1  0
 24 42  1  0
 25 43  1  0
M  END
>  <smiles>  (31) 
Cc1cccc(N=c2nc(-c3ccc(S(N)(=O)=O)cc3)[nH]cc2C)c1

>  <score_type>  (31) 
oracle

>  <origin>  (31) 
adgpu

>  <m_score__min__energy>  (31) 
-8.9000000000000004

>  <m_primary>  (31) 
energy

$$$$
31:0
     RDKit          3D

 51 54  0  0  0  0  0  0  0  0999 V2000
   -9.2460   22.1510  -31.9720 C   0  0  0  0  0  0  0  0  0  0  0  0
   -8.2860   21.1930  -31.2710 C   0  0  0  0  0  0  0  0  0  0  0  0
   -6.8860   21.6220  -31.4620 N   0  0  0  0  0  0  0  0  0  0  0  0
   -6.5690   22.8950  -31.0690 C   0  0  0  0  0  0  0  0  0  0  0  0
   -5.2750   23.4160  -31.2170 C   0  0  0  0  0  0  0  0  0  0  0  0
   -4.9970   24.8120  -30.7780 C   0  0  0  0  0  0  0  0  0  0  0  0
   -5.9420   25.6440  -30.6930 O   0  0  0  0  0  0  0  0  0  0  0  0
   -3.6670   25.2210  -30.4360 N   0  0  0  0  0  0  0  0  0  0  0  0
   -3.0260   24.9140  -29.1630 C   0  0  0  0  0  0  0  0  0  0  0  0
   -2.6230   23.4660  -29.1200 C   0  0  0  0  0  0  0  0  0  0  0  0
   -3.4520   22.5090  -28.5130 C   0  0  0  0  0  0  0  0  0  0  0  0
   -3.0590   21.1670  -28.4600 C   0  0  0  0  0  0  0  0  0  0  0  0
   -1.8340   20.7740  -29.0070 C   0  0  0  0  0  0  0  0  0  0  0  0
   -1.0010   21.7220  -29.6080 C   0  0  0  0  0  0  0  0  0  0  0  0
   -1.3910   23.0630  -29.6640 C   0  0  0  0  0  0  0  0  0  0  0  0
   -4.2830   22.5980  -31.7870 C   0  0  0  0  0  0  0  0  0  0  0  0
   -3.1170   23.0470  -31.9650 O   0  0  0  0  0  0  0  0  0  0  0  0
   -4.5920   21.2800  -32.1650 C   0  0  0  0  0  0  0  0  0  0  0  0
   -3.6040   20.4440  -32.7170 C   0  0  0  0  0  0  0  0  0  0  0  0
   -3.9020   19.1340  -33.0790 C   0  0  0  0  0  0  0  0  0  0  0  0
   -5.1910   18.6190  -32.8940 C   0  0  0  0  0  0  0  0  0  0  0  0
   -5.5000   17.2170  -33.2730 C   0  0  0  0  0  0  0  0  0  0  0  0
   -6.7290   16.8940  -33.8780 C   0  0  0  0  0  0  0  0  0  0  0  0
   -7.0160   15.5750  -34.2380 C   0  0  0  0  0  0  0  0  0  0  0  0
   -6.0840   14.5610  -33.9990 C   0  0  0  0  0  0  0  0  0  0  0  0
   -6.3800   13.2520  -34.3610 O   0  0  0  0  0  0  0  0  0  0  0  0
   -4.8580   14.8660  -33.3970 C   0  0  0  0  0  0  0  0  0  0  0  0
   -3.9340   13.8490  -33.1590 O   0  0  0  0  0  0  0  0  0  0  0  0
   -4.5680   16.1900  -33.0370 C   0  0  0  0  0  0  0  0  0  0  0  0
   -6.1860   19.4470  -32.3450 C   0  0  0  0  0  0  0  0  0  0  0  0
   -5.9130   20.7900  -31.9840 C   0  0  0  0  0  0  0  0  0  0  0  0
   -9.8136   22.7175  -31.2191 H   0  0  0  0  0  0  0  0  0  0  0  0
   -8.6736   22.8486  -32.6010 H   0  0  0  0  0  0  0  0  0  0  0  0
   -9.9425   21.5772  -32.6010 H   0  0  0  0  0  0  0  0  0  0  0  0
   -8.5146   21.1761  -30.1952 H   0  0  0  0  0  0  0  0  0  0  0  0
   -8.4099   20.1894  -31.7041 H   0  0  0  0  0  0  0  0  0  0  0  0
   -7.3517   23.5272  -30.6244 H   0  0  0  0  0  0  0  0  0  0  0  0
   -2.1317   25.5436  -29.0454 H   0  0  0  0  0  0  0  0  0  0  0  0
   -3.7358   25.1133  -28.3466 H   0  0  0  0  0  0  0  0  0  0  0  0
   -4.4144   22.8155  -28.0773 H   0  0  0  0  0  0  0  0  0  0  0  0
   -3.7146   20.4207  -27.9875 H   0  0  0  0  0  0  0  0  0  0  0  0
   -1.5257   19.7189  -28.9645 H   0  0  0  0  0  0  0  0  0  0  0  0
   -0.0369   21.4121  -30.0376 H   0  0  0  0  0  0  0  0  0  0  0  0
   -0.7312   23.8061  -30.1357 H   0  0  0  0  0  0  0  0  0  0  0  0
   -2.5846   20.8304  -32.8640 H   0  0  0  0  0  0  0  0  0  0  0  0
   -3.1179   18.4971  -33.5145 H   0  0  0  0  0  0  0  0  0  0  0  0
   -7.4687   17.6855  -34.0687 H   0  0  0  0  0  0  0  0  0  0  0  0
   -7.9791   15.3335  -34.7114 H   0  0  0  0  0  0  0  0  0  0  0  0
   -4.1270   12.8880  -33.4150 H   0  0  0  0  0  0  0  0  0  0  0  0
   -3.6029   16.4277  -32.5657 H   0  0  0  0  0  0  0  0  0  0  0  0
   -7.1980   19.0437  -32.1924 H   0  0  0  0  0  0  0  0  0  0  0  0
  1  2  1  0
  2  3  1  0
  3  4  1  0
  4  5  2  0
  5  6  1  0
  6  7  2  0
  6  8  1  0
  8  9  1  0
  9 10  1  0
 10 11  2  0
 11 12  1  0
 12 13  2  0
 13 14  1  0
 14 15  2  0
  5 16  1  0
 16 17  2  0
 16 18  1  0
 18 19  2  0
 19 20  1  0
 20 21  2  0
 21 22  1  0
 22 23  2  0
 23 24  1  0
 24 25  2  0
 25 26  1  0
 25 27  1  0
 27 28  1  0
 27 29  2  0
 21 30  1  0
 30 31  2  0
 31  3  1  0
 15 10  1  0
 31 18  1  0
 29 22  1  0
  1 32  1  0
  1 33  1  0
  1 34  1  0
  2 35  1  0
  2 36  1  0
  4 37  1  0
  9 38  1  0
  9 39  1  0
 11 40  1  0
 12 41  1  0
 13 42  1  0
 14 43  1  0
 15 44  1  0
 19 45  1  0
 20 46  1  0
 23 47  1  0
 24 48  1  0
 28 49  1  0
 29 50  1  0
 30 51  1  0
M  CHG  2   8  -1  26  -1
M  END
>  <UniqueID>  (32) 
30

>  <SMILES>  (32) 
CCn1cc(C(=O)[N-]Cc2ccccc2)c(=O)c2ccc(-c3ccc([O-])c(O)c3)cc21

>  <Energy>  (32) 
69.02232082792423

>  <Genealogy>  (32) 
CCn1cc(C(=O)[N-]Cc2ccccc2)c(=O)c2ccc(-c3ccc([O-])c(O)c3)cc21 (protonated)
CCn1cc(C(=O)[N-]Cc2ccccc2)c(=O)c2ccc(-c3ccc([O-])c(O)c3)cc21 (3D coordinates assigned)
CCn1cc(C(=O)[N-]Cc2ccccc2)c(=O)c2ccc(-c3ccc([O-])c(O)c3)cc21 (optimized conformer: 69.02232082792423 kcal/mol)

>  <smiles>  (32) 
CCn1cc(C(=O)NCc2ccccc2)c(=O)c2ccc(-c3ccc(O)c(O)c3)cc21

>  <score_type>  (32) 
oracle

>  <origin>  (32) 
adgpu

>  <m_score__min__energy>  (32) 
-10.619999999999999

>  <m_primary>  (32) 
energy

$$$$
32:0
     RDKit          3D

 44 45  0  0  0  0  0  0  0  0999 V2000
   -0.7790   19.6930  -34.6300 C   0  0  0  0  0  0  0  0  0  0  0  0
   -0.6330   20.6100  -33.4610 C   0  0  0  0  0  0  0  0  0  0  0  0
    0.1970   21.5580  -33.5180 O   0  0  0  0  0  0  0  0  0  0  0  0
   -1.4940   20.4580  -32.3220 N   0  0  0  0  0  0  0  0  0  0  0  0
   -1.2970   21.1310  -31.0660 C   0  0  0  0  0  0  0  0  0  0  0  0
   -0.3790   20.6060  -30.1440 C   0  0  0  0  0  0  0  0  0  0  0  0
   -0.1400   21.2630  -28.9340 C   0  0  0  0  0  0  0  0  0  0  0  0
   -0.8000   22.4580  -28.6420 C   0  0  0  0  0  0  0  0  0  0  0  0
   -1.7040   23.0060  -29.5620 C   0  0  0  0  0  0  0  0  0  0  0  0
   -2.4590   24.5580  -29.2150 S   0  0  0  0  0  0  0  0  0  0  0  0
   -1.3920   25.6150  -29.1600 O   0  0  0  0  0  0  0  0  0  0  0  0
   -3.1770   24.5260  -27.8940 O   0  0  0  0  0  0  0  0  0  0  0  0
   -3.5890   24.9490  -30.4720 N   0  0  0  0  0  0  0  0  0  0  0  0
   -4.7840   24.2120  -30.7580 C   0  0  0  0  0  0  0  0  0  0  0  0
   -6.0230   24.8110  -30.4980 C   0  0  0  0  0  0  0  0  0  0  0  0
   -7.2110   24.1340  -30.7850 C   0  0  0  0  0  0  0  0  0  0  0  0
   -7.1720   22.8520  -31.3400 C   0  0  0  0  0  0  0  0  0  0  0  0
   -5.9400   22.2390  -31.6040 C   0  0  0  0  0  0  0  0  0  0  0  0
   -5.8910   20.6220  -32.3020 S   0  0  0  0  0  0  0  0  0  0  0  0
   -6.1630   20.7270  -33.7770 O   0  0  0  0  0  0  0  0  0  0  0  0
   -4.5200   20.0300  -32.1130 O   0  0  0  0  0  0  0  0  0  0  0  0
   -7.0980   19.6100  -31.5480 N   0  0  0  0  0  0  0  0  0  0  0  0
   -6.6800   18.2050  -31.6290 C   0  0  0  0  0  0  0  0  0  0  0  0
   -8.3830   19.7950  -32.2350 C   0  0  0  0  0  0  0  0  0  0  0  0
   -4.7490   22.9140  -31.2970 C   0  0  0  0  0  0  0  0  0  0  0  0
   -1.9490   22.3420  -30.7730 C   0  0  0  0  0  0  0  0  0  0  0  0
   -0.9425   18.6658  -34.2721 H   0  0  0  0  0  0  0  0  0  0  0  0
   -1.6380   20.0100  -35.2396 H   0  0  0  0  0  0  0  0  0  0  0  0
    0.1360   19.7275  -35.2396 H   0  0  0  0  0  0  0  0  0  0  0  0
   -2.3560   19.8770  -32.4400 H   0  0  0  0  0  0  0  0  0  0  0  0
    0.1553   19.6726  -30.3747 H   0  0  0  0  0  0  0  0  0  0  0  0
    0.5701   20.8374  -28.2097 H   0  0  0  0  0  0  0  0  0  0  0  0
   -0.6100   22.9707  -27.6875 H   0  0  0  0  0  0  0  0  0  0  0  0
   -6.0611   25.8214  -30.0649 H   0  0  0  0  0  0  0  0  0  0  0  0
   -8.1793   24.6112  -30.5736 H   0  0  0  0  0  0  0  0  0  0  0  0
   -8.1091   22.3238  -31.5697 H   0  0  0  0  0  0  0  0  0  0  0  0
   -6.5593   17.7993  -30.6137 H   0  0  0  0  0  0  0  0  0  0  0  0
   -7.4446   17.6254  -32.1670 H   0  0  0  0  0  0  0  0  0  0  0  0
   -5.7229   18.1376  -32.1670 H   0  0  0  0  0  0  0  0  0  0  0  0
   -9.1839   19.9103  -31.4898 H   0  0  0  0  0  0  0  0  0  0  0  0
   -8.3357   20.6956  -32.8648 H   0  0  0  0  0  0  0  0  0  0  0  0
   -8.5917   18.9176  -32.8648 H   0  0  0  0  0  0  0  0  0  0  0  0
   -3.7811   22.4242  -31.4793 H   0  0  0  0  0  0  0  0  0  0  0  0
   -2.6558   22.7714  -31.4983 H   0  0  0  0  0  0  0  0  0  0  0  0
  1  2  1  0
  2  3  2  0
  2  4  1  0
  4  5  1  0
  5  6  2  0
  6  7  1  0
  7  8  2  0
  8  9  1  0
  9 10  1  0
 10 11  2  0
 10 12  2  0
 10 13  1  0
 13 14  1  0
 14 15  2  0
 15 16  1  0
 16 17  2  0
 17 18  1  0
 18 19  1  0
 19 20  2  0
 19 21  2  0
 19 22  1  0
 22 23  1  0
 22 24  1  0
 18 25  2  0
  9 26  2  0
 26  5  1  0
 25 14  1  0
  1 27  1  0
  1 28  1  0
  1 29  1  0
  4 30  1  0
  6 31  1  0
  7 32  1  0
  8 33  1  0
 15 34  1  0
 16 35  1  0
 17 36  1  0
 23 37  1  0
 23 38  1  0
 23 39  1  0
 24 40  1  0
 24 41  1  0
 24 42  1  0
 25 43  1  0
 26 44  1  0
M  CHG  1  13  -1
M  END
>  <UniqueID>  (33) 
31

>  <SMILES>  (33) 
CC(=O)Nc1cccc(S(=O)(=O)[N-]c2cccc(S(=O)(=O)N(C)C)c2)c1

>  <Energy>  (33) 
45.22411947639683

>  <Genealogy>  (33) 
CC(=O)Nc1cccc(S(=O)(=O)[N-]c2cccc(S(=O)(=O)N(C)C)c2)c1 (protonated)
CC(=O)Nc1cccc(S(=O)(=O)[N-]c2cccc(S(=O)(=O)N(C)C)c2)c1 (3D coordinates assigned)
CC(=O)Nc1cccc(S(=O)(=O)[N-]c2cccc(S(=O)(=O)N(C)C)c2)c1 (optimized conformer: 45.22411947639683 kcal/mol)

>  <smiles>  (33) 
CC(=O)Nc1cccc(S(=O)(=O)Nc2cccc(S(=O)(=O)N(C)C)c2)c1

>  <score_type>  (33) 
oracle

>  <origin>  (33) 
adgpu

>  <m_score__min__energy>  (33) 
-10.01

>  <m_primary>  (33) 
energy

$$$$
33:0
     RDKit          3D

 43 46  0  0  0  0  0  0  0  0999 V2000
    3.5380   16.0770  -29.0950 C   0  0  0  0  0  0  0  0  0  0  0  0
    3.2540   17.4650  -28.9820 O   0  0  0  0  0  0  0  0  0  0  0  0
    2.0560   17.9890  -28.4730 C   0  0  0  0  0  0  0  0  0  0  0  0
    1.8700   19.3740  -28.5050 C   0  0  0  0  0  0  0  0  0  0  0  0
    0.6930   19.9420  -28.0110 C   0  0  0  0  0  0  0  0  0  0  0  0
   -0.3170   19.1270  -27.4800 C   0  0  0  0  0  0  0  0  0  0  0  0
   -1.8340   19.8200  -26.9100 S   0  0  0  0  0  0  0  0  0  0  0  0
   -2.4950   18.8570  -25.9680 O   0  0  0  0  0  0  0  0  0  0  0  0
   -1.5910   21.1130  -26.1810 O   0  0  0  0  0  0  0  0  0  0  0  0
   -2.8800   20.1150  -28.2640 N   0  0  0  0  0  0  0  0  0  0  0  0
   -3.1220   21.4270  -28.8120 C   0  0  0  0  0  0  0  0  0  0  0  0
   -2.7050   22.5700  -28.1030 C   0  0  0  0  0  0  0  0  0  0  0  0
   -2.8270   23.8450  -28.6490 C   0  0  0  0  0  0  0  0  0  0  0  0
   -2.2680   25.2590  -27.6950 S   0  0  0  0  0  0  0  0  0  0  0  0
   -0.6380   24.5730  -27.4630 C   0  0  0  0  0  0  0  0  0  0  0  0
    0.3260   24.6070  -28.4030 N   0  0  0  0  0  0  0  0  0  0  0  0
    1.3440   23.9950  -27.7690 C   0  0  0  0  0  0  0  0  0  0  0  0
    1.0150   23.6120  -26.5210 N   0  0  0  0  0  0  0  0  0  0  0  0
   -0.2400   23.9780  -26.3270 N   0  0  0  0  0  0  0  0  0  0  0  0
   -3.3780   24.0160  -29.9230 C   0  0  0  0  0  0  0  0  0  0  0  0
   -3.4760   25.2950  -30.4590 O   0  0  0  0  0  0  0  0  0  0  0  0
   -3.8380   22.8970  -30.6460 C   0  0  0  0  0  0  0  0  0  0  0  0
   -4.4230   23.0630  -31.9150 C   0  0  0  0  0  0  0  0  0  0  0  0
   -4.9160   21.9630  -32.6160 C   0  0  0  0  0  0  0  0  0  0  0  0
   -4.8390   20.6880  -32.0610 C   0  0  0  0  0  0  0  0  0  0  0  0
   -4.2540   20.5010  -30.8080 C   0  0  0  0  0  0  0  0  0  0  0  0
   -3.7270   21.5930  -30.0860 C   0  0  0  0  0  0  0  0  0  0  0  0
   -0.1350   17.7390  -27.4410 C   0  0  0  0  0  0  0  0  0  0  0  0
    1.0450   17.1710  -27.9320 C   0  0  0  0  0  0  0  0  0  0  0  0
    3.6278   15.6381  -28.0903 H   0  0  0  0  0  0  0  0  0  0  0  0
    2.7231   15.5793  -29.6411 H   0  0  0  0  0  0  0  0  0  0  0  0
    4.4829   15.9393  -29.6411 H   0  0  0  0  0  0  0  0  0  0  0  0
    2.6557   20.0212  -28.9220 H   0  0  0  0  0  0  0  0  0  0  0  0
    0.5580   21.0333  -28.0387 H   0  0  0  0  0  0  0  0  0  0  0  0
   -3.2770   19.2690  -28.7290 H   0  0  0  0  0  0  0  0  0  0  0  0
   -2.2742   22.4532  -27.0976 H   0  0  0  0  0  0  0  0  0  0  0  0
    2.3331   23.8269  -28.2200 H   0  0  0  0  0  0  0  0  0  0  0  0
   -4.4919   24.0678  -32.3572 H   0  0  0  0  0  0  0  0  0  0  0  0
   -5.3668   22.1026  -33.6096 H   0  0  0  0  0  0  0  0  0  0  0  0
   -5.2408   19.8252  -32.6124 H   0  0  0  0  0  0  0  0  0  0  0  0
   -4.2030   19.4899  -30.3777 H   0  0  0  0  0  0  0  0  0  0  0  0
   -0.9220   17.0939  -27.0232 H   0  0  0  0  0  0  0  0  0  0  0  0
    1.1842   16.0804  -27.8955 H   0  0  0  0  0  0  0  0  0  0  0  0
  1  2  1  0
  2  3  1  0
  3  4  2  0
  4  5  1  0
  5  6  2  0
  6  7  1  0
  7  8  2  0
  7  9  2  0
  7 10  1  0
 10 11  1  0
 11 12  2  0
 12 13  1  0
 13 14  1  0
 14 15  1  0
 15 16  1  0
 16 17  2  0
 17 18  1  0
 18 19  1  0
 13 20  2  0
 20 21  1  0
 20 22  1  0
 22 23  2  0
 23 24  1  0
 24 25  2  0
 25 26  1  0
 26 27  2  0
  6 28  1  0
 28 29  2  0
 29  3  1  0
 27 11  1  0
 19 15  2  0
 27 22  1  0
  1 30  1  0
  1 31  1  0
  1 32  1  0
  4 33  1  0
  5 34  1  0
 10 35  1  0
 12 36  1  0
 17 37  1  0
 23 38  1  0
 24 39  1  0
 25 40  1  0
 26 41  1  0
 28 42  1  0
 29 43  1  0
M  CHG  2  18  -1  21  -1
M  END
>  <UniqueID>  (34) 
32

>  <SMILES>  (34) 
COc1ccc(S(=O)(=O)Nc2cc(Sc3nc[n-]n3)c([O-])c3ccccc23)cc1

>  <Energy>  (34) 
85.18417634690016

>  <Genealogy>  (34) 
COc1ccc(S(=O)(=O)Nc2cc(Sc3nc[n-]n3)c([O-])c3ccccc23)cc1 (protonated)
COc1ccc(S(=O)(=O)Nc2cc(Sc3nc[n-]n3)c([O-])c3ccccc23)cc1 (3D coordinates assigned)
COc1ccc(S(=O)(=O)Nc2cc(Sc3nc[n-]n3)c([O-])c3ccccc23)cc1 (optimized conformer: 85.18417634690016 kcal/mol)

>  <smiles>  (34) 
COc1ccc(S(=O)(=O)Nc2cc(Sc3nc[nH]n3)c(O)c3ccccc23)cc1

>  <score_type>  (34) 
oracle

>  <origin>  (34) 
adgpu

>  <m_score__min__energy>  (34) 
-10.470000000000001

>  <m_primary>  (34) 
energy

$$$$
34:0
     RDKit          3D

 50 53  0  0  1  0  0  0  0  0999 V2000
   -8.4970   20.2610  -31.8320 C   0  0  0  0  0  0  0  0  0  0  0  0
   -8.3200   19.2090  -32.7850 N   0  0  0  0  0  0  0  0  0  0  0  0
   -6.9900   18.1840  -32.4960 S   0  0  0  0  0  0  0  0  0  0  0  0
   -7.2540   16.8800  -33.1970 O   0  0  0  0  0  0  0  0  0  0  0  0
   -6.8450   17.8750  -31.0170 O   0  0  0  0  0  0  0  0  0  0  0  0
   -5.4830   18.8890  -33.0240 C   0  0  0  0  0  0  0  0  0  0  0  0
   -5.3070   20.2480  -32.8620 C   0  0  0  0  0  0  0  0  0  0  0  0
   -4.1270   20.8420  -33.2680 C   0  0  0  0  0  0  0  0  0  0  0  0
   -3.1140   20.0950  -33.8370 C   0  0  0  0  0  0  0  0  0  0  0  0
   -1.9370   20.7970  -34.2220 N   0  0  0  0  0  0  0  0  0  0  0  0
   -0.7200   20.1410  -34.5680 C   0  0  0  0  0  0  0  0  0  0  0  0
   -0.6050   18.8850  -34.5550 O   0  0  0  0  0  0  0  0  0  0  0  0
    0.4280   20.9890  -34.9490 C   0  0  0  0  0  0  0  0  0  0  0  0
    0.1910   22.2890  -35.3490 C   0  0  0  0  0  0  0  0  0  0  0  0
    1.2780   23.0600  -35.7000 C   0  0  0  0  0  0  0  0  0  0  0  0
    1.0590   24.3640  -36.1040 C   0  0  0  0  0  0  0  0  0  0  0  0
   -0.1400   24.8430  -36.1500 N   0  0  0  0  0  0  0  0  0  0  0  0
   -0.3950   26.1810  -36.5610 C   0  0  0  0  0  0  0  0  0  0  0  0
   -1.1390   26.4820  -37.6840 C   0  0  0  0  0  0  0  0  0  0  0  0
   -1.3170   27.8160  -37.9790 C   0  0  0  0  0  0  0  0  0  0  0  0
   -0.7880   28.8370  -37.2020 C   0  0  0  0  0  0  0  0  0  0  0  0
   -0.0450   28.5310  -36.0800 C   0  0  0  0  0  0  0  0  0  0  0  0
    0.5330   29.5300  -35.2300 C   0  0  0  0  0  0  0  0  0  0  0  0
    0.9840   30.3480  -34.5420 N   0  0  0  0  0  0  0  0  0  0  0  0
    0.1310   27.1960  -35.7890 C   0  0  0  0  0  0  0  0  0  0  0  0
    2.1150   25.1060  -36.4430 N   0  0  0  0  0  0  0  0  0  0  0  0
    3.3790   24.6400  -36.4070 C   0  0  0  0  0  0  0  0  0  0  0  0
    3.5980   23.3530  -36.0090 N   0  0  0  0  0  0  0  0  0  0  0  0
    2.5750   22.5450  -35.6520 C   0  0  0  0  0  0  0  0  0  0  0  0
    2.7770   21.2320  -35.2440 C   0  0  0  0  0  0  0  0  0  0  0  0
    1.6810   20.5330  -34.9160 N   0  0  0  0  0  0  0  0  0  0  0  0
   -3.2680   18.7360  -34.0080 C   0  0  0  0  0  0  0  0  0  0  0  0
   -4.4650   18.1500  -33.5940 C   0  0  0  0  0  0  0  0  0  0  0  0
   -8.4277   19.8493  -30.8143 H   0  0  0  0  0  0  0  0  0  0  0  0
   -7.7140   21.0204  -31.9744 H   0  0  0  0  0  0  0  0  0  0  0  0
   -9.4854   20.7223  -31.9744 H   0  0  0  0  0  0  0  0  0  0  0  0
   -8.3290   19.4900  -33.7780 H   0  0  0  0  0  0  0  0  0  0  0  0
   -6.1040   20.8572  -32.4108 H   0  0  0  0  0  0  0  0  0  0  0  0
   -3.9925   21.9257  -33.1361 H   0  0  0  0  0  0  0  0  0  0  0  0
   -2.0070   21.8410  -34.2410 H   0  0  0  0  0  0  0  0  0  0  0  0
   -0.8305   22.6954  -35.3862 H   0  0  0  0  0  0  0  0  0  0  0  0
   -1.5708   25.6916  -38.3156 H   0  0  0  0  0  0  0  0  0  0  0  0
   -1.9044   28.0836  -38.8697 H   0  0  0  0  0  0  0  0  0  0  0  0
   -0.9605   29.8873  -37.4797 H   0  0  0  0  0  0  0  0  0  0  0  0
    0.7187   26.9267  -34.8990 H   0  0  0  0  0  0  0  0  0  0  0  0
    1.9580   26.0950  -36.7500 H   0  0  0  0  0  0  0  0  0  0  0  0
    4.2212   25.2869  -36.6939 H   0  0  0  0  0  0  0  0  0  0  0  0
    3.7828   20.7897  -35.1929 H   0  0  0  0  0  0  0  0  0  0  0  0
   -2.4687   18.1295  -34.4588 H   0  0  0  0  0  0  0  0  0  0  0  0
   -4.6018   17.0665  -33.7257 H   0  0  0  0  0  0  0  0  0  0  0  0
  1  2  1  0
  2  3  1  0
  3  4  2  0
  3  5  2  0
  3  6  1  0
  6  7  2  0
  7  8  1  0
  8  9  2  0
  9 10  1  0
 10 11  1  0
 11 12  2  0
 11 13  1  0
 13 14  2  0
 14 15  1  0
 15 16  1  0
 16 17  2  0
 17 18  1  0
 18 19  2  0
 19 20  1  0
 20 21  2  0
 21 22  1  0
 22 23  1  0
 23 24  3  0
 22 25  2  0
 16 26  1  0
 26 27  1  0
 27 28  2  0
 28 29  1  0
 29 30  1  0
 30 31  2  0
  9 32  1  0
 32 33  2  0
 33  6  1  0
 31 13  1  0
 29 15  2  0
 25 18  1  0
  1 34  1  0
  1 35  1  0
  1 36  1  0
  2 37  1  0
  7 38  1  0
  8 39  1  0
 10 40  1  0
 14 41  1  0
 19 42  1  0
 20 43  1  0
 21 44  1  0
 25 45  1  0
 26 46  1  0
 27 47  1  0
 30 48  1  0
 32 49  1  0
 33 50  1  0
M  END
>  <smiles>  (35) 
CNS(=O)(=O)c1ccc(NC(=O)c2cc3c(=Nc4cccc(C#N)c4)[nH]cnc3cn2)cc1

>  <score_type>  (35) 
oracle

>  <origin>  (35) 
adgpu

>  <m_score__min__energy>  (35) 
-10.630000000000001

>  <m_primary>  (35) 
energy

$$$$
35:0
     RDKit          3D

 37 38  0  0  0  0  0  0  0  0999 V2000
   -4.6460   20.8430  -32.9630 C   0  0  0  0  0  0  0  0  0  0  0  0
   -6.0730   20.6440  -32.5660 C   0  0  0  0  0  0  0  0  0  0  0  0
   -6.6090   19.4370  -32.2990 N   0  0  0  0  0  0  0  0  0  0  0  0
   -7.8830   19.6260  -31.9890 N   0  0  0  0  0  0  0  0  0  0  0  0
   -8.7790   18.5490  -31.5820 C   0  0  0  0  0  0  0  0  0  0  0  0
   -8.1830   20.9410  -32.0510 C   0  0  0  0  0  0  0  0  0  0  0  0
   -9.5150   21.5280  -31.6900 C   0  0  0  0  0  0  0  0  0  0  0  0
   -7.0400   21.6290  -32.4270 C   0  0  0  0  0  0  0  0  0  0  0  0
   -6.8530   23.1180  -32.5570 C   0  0  0  0  0  0  0  0  0  0  0  0
   -6.2860   23.7430  -31.2770 C   0  0  0  0  0  0  0  0  0  0  0  0
   -4.8340   23.5970  -31.2250 N   0  0  0  0  0  0  0  0  0  0  0  0
   -3.9760   24.4030  -30.4060 C   0  0  0  0  0  0  0  0  0  0  0  0
   -4.0170   25.6580  -30.5110 O   0  0  0  0  0  0  0  0  0  0  0  0
   -3.0520   23.7560  -29.4370 C   0  0  0  0  0  0  0  0  0  0  0  0
   -3.3190   22.4470  -28.9870 C   0  0  0  0  0  0  0  0  0  0  0  0
   -2.4730   21.8210  -28.0660 C   0  0  0  0  0  0  0  0  0  0  0  0
   -2.8250   20.1920  -27.5180 Cl  0  0  0  0  0  0  0  0  0  0  0  0
   -1.3500   22.4930  -27.5810 C   0  0  0  0  0  0  0  0  0  0  0  0
   -1.0700   23.7880  -28.0140 C   0  0  0  0  0  0  0  0  0  0  0  0
   -1.9110   24.4250  -28.9350 C   0  0  0  0  0  0  0  0  0  0  0  0
   -1.5970   25.7190  -29.3360 O   0  0  0  0  0  0  0  0  0  0  0  0
   -4.0230   20.9299  -32.0606 H   0  0  0  0  0  0  0  0  0  0  0  0
   -4.3083   19.9833  -33.5603 H   0  0  0  0  0  0  0  0  0  0  0  0
   -4.5564   21.7623  -33.5603 H   0  0  0  0  0  0  0  0  0  0  0  0
   -8.8192   18.5007  -30.4838 H   0  0  0  0  0  0  0  0  0  0  0  0
   -9.7872   18.7415  -31.9777 H   0  0  0  0  0  0  0  0  0  0  0  0
   -8.4063   17.5927  -31.9777 H   0  0  0  0  0  0  0  0  0  0  0  0
   -9.6122   21.5708  -30.5951 H   0  0  0  0  0  0  0  0  0  0  0  0
   -9.5927   22.5437  -32.1050 H   0  0  0  0  0  0  0  0  0  0  0  0
  -10.3171   20.9000  -32.1050 H   0  0  0  0  0  0  0  0  0  0  0  0
   -6.1584   23.3170  -33.3864 H   0  0  0  0  0  0  0  0  0  0  0  0
   -7.8391   23.5677  -32.7449 H   0  0  0  0  0  0  0  0  0  0  0  0
   -6.5415   24.8127  -31.2547 H   0  0  0  0  0  0  0  0  0  0  0  0
   -6.7226   23.2257  -30.4100 H   0  0  0  0  0  0  0  0  0  0  0  0
   -4.2028   21.9119  -29.3646 H   0  0  0  0  0  0  0  0  0  0  0  0
   -0.6852   22.0002  -26.8563 H   0  0  0  0  0  0  0  0  0  0  0  0
   -0.1829   24.3129  -27.6299 H   0  0  0  0  0  0  0  0  0  0  0  0
  1  2  1  0
  2  3  2  0
  3  4  1  0
  4  5  1  0
  4  6  1  0
  6  7  1  0
  6  8  2  0
  8  9  1  0
  9 10  1  0
 10 11  1  0
 11 12  1  0
 12 13  2  0
 12 14  1  0
 14 15  2  0
 15 16  1  0
 16 17  1  0
 16 18  2  0
 18 19  1  0
 19 20  2  0
 20 21  1  0
  8  2  1  0
 20 14  1  0
  1 22  1  0
  1 23  1  0
  1 24  1  0
  5 25  1  0
  5 26  1  0
  5 27  1  0
  7 28  1  0
  7 29  1  0
  7 30  1  0
  9 31  1  0
  9 32  1  0
 10 33  1  0
 10 34  1  0
 15 35  1  0
 18 36  1  0
 19 37  1  0
M  CHG  2  11  -1  21  -1
M  END
>  <UniqueID>  (36) 
33

>  <SMILES>  (36) 
Cc1nn(C)c(C)c1CC[N-]C(=O)c1cc(Cl)ccc1[O-]

>  <Energy>  (36) 
61.30654658330391

>  <Genealogy>  (36) 
Cc1nn(C)c(C)c1CC[N-]C(=O)c1cc(Cl)ccc1[O-] (protonated)
Cc1nn(C)c(C)c1CC[N-]C(=O)c1cc(Cl)ccc1[O-] (3D coordinates assigned)
Cc1nn(C)c(C)c1CC[N-]C(=O)c1cc(Cl)ccc1[O-] (optimized conformer: 61.30654658330391 kcal/mol)

>  <smiles>  (36) 
Cc1nn(C)c(C)c1CCNC(=O)c1cc(Cl)ccc1O

>  <score_type>  (36) 
oracle

>  <origin>  (36) 
adgpu

>  <m_score__min__energy>  (36) 
-12.26

>  <m_primary>  (36) 
energy

$$$$
36:0
     RDKit          3D

 43 45  0  0  0  0  0  0  0  0999 V2000
   -0.6370   25.2320  -24.8860 C   0  0  0  0  0  0  0  0  0  0  0  0
    0.2640   25.6130  -25.9800 N   0  0  0  0  0  0  0  0  0  0  0  0
    1.2360   26.6940  -25.8020 C   0  0  0  0  0  0  0  0  0  0  0  0
    0.2730   24.8520  -27.2040 C   0  0  0  0  0  0  0  0  0  0  0  0
    1.3500   24.7070  -27.8400 O   0  0  0  0  0  0  0  0  0  0  0  0
   -0.9650   24.2490  -27.7380 C   0  0  0  0  0  0  0  0  0  0  0  0
   -1.4440   23.0470  -27.1910 C   0  0  0  0  0  0  0  0  0  0  0  0
   -2.6110   22.4640  -27.6790 C   0  0  0  0  0  0  0  0  0  0  0  0
   -3.3110   23.0670  -28.7240 C   0  0  0  0  0  0  0  0  0  0  0  0
   -2.8410   24.2570  -29.2940 C   0  0  0  0  0  0  0  0  0  0  0  0
   -3.5580   24.8450  -30.3820 N   0  0  0  0  0  0  0  0  0  0  0  0
   -4.9150   24.5000  -30.6750 C   0  0  0  0  0  0  0  0  0  0  0  0
   -5.5650   23.6700  -31.5780 C   0  0  0  0  0  0  0  0  0  0  0  0
   -5.1460   22.8200  -32.6550 N   0  0  0  0  0  0  0  0  0  0  0  0
   -5.5160   21.4390  -32.7550 C   0  0  0  0  0  0  0  0  0  0  0  0
   -4.5630   20.4500  -33.0660 C   0  0  0  0  0  0  0  0  0  0  0  0
   -4.9570   19.1170  -33.2250 C   0  0  0  0  0  0  0  0  0  0  0  0
   -6.3040   18.7610  -33.0810 C   0  0  0  0  0  0  0  0  0  0  0  0
   -6.7160   17.3950  -33.2700 C   0  0  0  0  0  0  0  0  0  0  0  0
   -7.0540   16.2980  -33.4230 N   0  0  0  0  0  0  0  0  0  0  0  0
   -7.2570   19.7420  -32.7810 C   0  0  0  0  0  0  0  0  0  0  0  0
   -6.8630   21.0730  -32.6250 C   0  0  0  0  0  0  0  0  0  0  0  0
   -6.7820   24.0330  -31.0260 C   0  0  0  0  0  0  0  0  0  0  0  0
   -7.9860   23.7520  -31.2560 O   0  0  0  0  0  0  0  0  0  0  0  0
   -6.1310   24.8370  -30.1140 C   0  0  0  0  0  0  0  0  0  0  0  0
   -6.4960   25.5840  -29.1670 O   0  0  0  0  0  0  0  0  0  0  0  0
   -1.6820   24.8670  -28.7800 C   0  0  0  0  0  0  0  0  0  0  0  0
   -1.2370   26.0700  -29.3200 O   0  0  0  0  0  0  0  0  0  0  0  0
   -0.1501   25.4379  -23.9214 H   0  0  0  0  0  0  0  0  0  0  0  0
   -1.5679   25.8135  -24.9583 H   0  0  0  0  0  0  0  0  0  0  0  0
   -0.8683   24.1590  -24.9583 H   0  0  0  0  0  0  0  0  0  0  0  0
    1.3951   26.8709  -24.7280 H   0  0  0  0  0  0  0  0  0  0  0  0
    2.1893   26.4110  -26.2721 H   0  0  0  0  0  0  0  0  0  0  0  0
    0.8536   27.6120  -26.2721 H   0  0  0  0  0  0  0  0  0  0  0  0
   -0.8933   22.5626  -26.3712 H   0  0  0  0  0  0  0  0  0  0  0  0
   -2.9814   21.5261  -27.2394 H   0  0  0  0  0  0  0  0  0  0  0  0
   -4.2356   22.6062  -29.1019 H   0  0  0  0  0  0  0  0  0  0  0  0
   -3.1530   25.6810  -30.8560 H   0  0  0  0  0  0  0  0  0  0  0  0
   -4.6320   23.2480  -33.4550 H   0  0  0  0  0  0  0  0  0  0  0  0
   -3.5049   20.7265  -33.1844 H   0  0  0  0  0  0  0  0  0  0  0  0
   -4.2080   18.3475  -33.4634 H   0  0  0  0  0  0  0  0  0  0  0  0
   -8.3155   19.4646  -32.6682 H   0  0  0  0  0  0  0  0  0  0  0  0
   -7.6168   21.8413  -32.3980 H   0  0  0  0  0  0  0  0  0  0  0  0
  1  2  1  0
  2  3  1  0
  2  4  1  0
  4  5  2  0
  4  6  1  0
  6  7  2  0
  7  8  1  0
  8  9  2  0
  9 10  1  0
 10 11  1  0
 11 12  1  0
 12 13  2  0
 13 14  1  0
 14 15  1  0
 15 16  2  0
 16 17  1  0
 17 18  2  0
 18 19  1  0
 19 20  3  0
 18 21  1  0
 21 22  2  0
 13 23  1  0
 23 24  2  0
 23 25  1  0
 25 26  2  0
 10 27  2  0
 27 28  1  0
 27  6  1  0
 25 12  1  0
 22 15  1  0
  1 29  1  0
  1 30  1  0
  1 31  1  0
  3 32  1  0
  3 33  1  0
  3 34  1  0
  7 35  1  0
  8 36  1  0
  9 37  1  0
 11 38  1  0
 14 39  1  0
 16 40  1  0
 17 41  1  0
 21 42  1  0
 22 43  1  0
M  CHG  1  28  -1
M  END
>  <UniqueID>  (37) 
34

>  <SMILES>  (37) 
CN(C)C(=O)c1cccc(Nc2c(Nc3ccc(C#N)cc3)c(=O)c2=O)c1[O-]

>  <Energy>  (37) 
47.03557268296629

>  <Genealogy>  (37) 
CN(C)C(=O)c1cccc(Nc2c(Nc3ccc(C#N)cc3)c(=O)c2=O)c1[O-] (protonated)
CN(C)C(=O)c1cccc(Nc2c(Nc3ccc(C#N)cc3)c(=O)c2=O)c1[O-] (3D coordinates assigned)
CN(C)C(=O)c1cccc(Nc2c(Nc3ccc(C#N)cc3)c(=O)c2=O)c1[O-] (optimized conformer: 47.03557268296629 kcal/mol)

>  <smiles>  (37) 
CN(C)C(=O)c1cccc(Nc2c(Nc3ccc(C#N)cc3)c(=O)c2=O)c1O

>  <score_type>  (37) 
oracle

>  <origin>  (37) 
adgpu

>  <m_score__min__energy>  (37) 
-13

>  <m_primary>  (37) 
energy

$$$$
37:0
     RDKit          3D

 44 46  0  0  0  0  0  0  0  0999 V2000
   -9.4260   18.3320  -31.8070 N   0  0  0  0  0  0  0  0  0  0  0  0
   -8.3800   19.2830  -32.0210 C   0  0  0  0  0  0  0  0  0  0  0  0
   -7.2670   18.9450  -32.8010 C   0  0  0  0  0  0  0  0  0  0  0  0
   -6.2440   19.8750  -33.0110 C   0  0  0  0  0  0  0  0  0  0  0  0
   -6.3260   21.1610  -32.4530 C   0  0  0  0  0  0  0  0  0  0  0  0
   -5.2530   22.0940  -32.6660 N   0  0  0  0  0  0  0  0  0  0  0  0
   -3.8980   21.8660  -32.2430 C   0  0  0  0  0  0  0  0  0  0  0  0
   -3.2250   20.7120  -32.6820 C   0  0  0  0  0  0  0  0  0  0  0  0
   -1.9430   20.4180  -32.2210 C   0  0  0  0  0  0  0  0  0  0  0  0
   -1.3190   21.2630  -31.3050 C   0  0  0  0  0  0  0  0  0  0  0  0
   -1.9740   22.4090  -30.8510 C   0  0  0  0  0  0  0  0  0  0  0  0
   -3.2660   22.7310  -31.3120 C   0  0  0  0  0  0  0  0  0  0  0  0
   -3.9020   23.9870  -30.8400 C   0  0  0  0  0  0  0  0  0  0  0  0
   -5.1140   24.2200  -31.0960 O   0  0  0  0  0  0  0  0  0  0  0  0
   -3.1360   24.9260  -30.0730 N   0  0  0  0  0  0  0  0  0  0  0  0
   -2.4000   24.6520  -28.8720 C   0  0  0  0  0  0  0  0  0  0  0  0
   -2.8390   23.6170  -28.0380 C   0  0  0  0  0  0  0  0  0  0  0  0
   -2.1410   23.3040  -26.8680 C   0  0  0  0  0  0  0  0  0  0  0  0
   -0.9800   24.0110  -26.5300 C   0  0  0  0  0  0  0  0  0  0  0  0
   -0.1070   23.6280  -25.0490 S   0  0  0  0  0  0  0  0  0  0  0  0
   -0.4320   24.8340  -23.8540 N   0  0  0  0  0  0  0  0  0  0  0  0
   -0.5420   22.2840  -24.5350 O   0  0  0  0  0  0  0  0  0  0  0  0
    1.3690   23.5810  -25.3260 O   0  0  0  0  0  0  0  0  0  0  0  0
   -0.5270   25.0370  -27.3690 C   0  0  0  0  0  0  0  0  0  0  0  0
   -1.2250   25.3510  -28.5390 C   0  0  0  0  0  0  0  0  0  0  0  0
   -7.4380   21.4910  -31.6560 C   0  0  0  0  0  0  0  0  0  0  0  0
   -8.4600   20.5600  -31.4470 C   0  0  0  0  0  0  0  0  0  0  0  0
  -10.1580   18.1680  -32.5340 H   0  0  0  0  0  0  0  0  0  0  0  0
   -9.4760   17.7830  -30.9200 H   0  0  0  0  0  0  0  0  0  0  0  0
   -7.1972   17.9435  -33.2505 H   0  0  0  0  0  0  0  0  0  0  0  0
   -5.3692   19.5973  -33.6173 H   0  0  0  0  0  0  0  0  0  0  0  0
   -5.4760   23.0150  -33.1070 H   0  0  0  0  0  0  0  0  0  0  0  0
   -3.7153   20.0344  -33.3965 H   0  0  0  0  0  0  0  0  0  0  0  0
   -1.4230   19.5178  -32.5806 H   0  0  0  0  0  0  0  0  0  0  0  0
   -0.3089   21.0265  -30.9393 H   0  0  0  0  0  0  0  0  0  0  0  0
   -1.4758   23.0683  -30.1250 H   0  0  0  0  0  0  0  0  0  0  0  0
   -3.7401   23.0456  -28.3054 H   0  0  0  0  0  0  0  0  0  0  0  0
   -2.5045   22.5002  -26.2109 H   0  0  0  0  0  0  0  0  0  0  0  0
    0.4930   25.1980  -23.5300 H   0  0  0  0  0  0  0  0  0  0  0  0
   -0.8660   24.3470  -23.0390 H   0  0  0  0  0  0  0  0  0  0  0  0
    0.3819   25.5982  -27.1062 H   0  0  0  0  0  0  0  0  0  0  0  0
   -0.8544   26.1471  -29.2014 H   0  0  0  0  0  0  0  0  0  0  0  0
   -7.5035   22.4874  -31.1947 H   0  0  0  0  0  0  0  0  0  0  0  0
   -9.3298   20.8302  -30.8302 H   0  0  0  0  0  0  0  0  0  0  0  0
  1  2  1  0
  2  3  2  0
  3  4  1  0
  4  5  2  0
  5  6  1  0
  6  7  1  0
  7  8  2  0
  8  9  1  0
  9 10  2  0
 10 11  1  0
 11 12  2  0
 12 13  1  0
 13 14  2  0
 13 15  1  0
 15 16  1  0
 16 17  2  0
 17 18  1  0
 18 19  2  0
 19 20  1  0
 20 21  1  0
 20 22  2  0
 20 23  2  0
 19 24  1  0
 24 25  2  0
  5 26  1  0
 26 27  2  0
 27  2  1  0
 12  7  1  0
 25 16  1  0
  1 28  1  0
  1 29  1  0
  3 30  1  0
  4 31  1  0
  6 32  1  0
  8 33  1  0
  9 34  1  0
 10 35  1  0
 11 36  1  0
 17 37  1  0
 18 38  1  0
 21 39  1  0
 21 40  1  0
 24 41  1  0
 25 42  1  0
 26 43  1  0
 27 44  1  0
M  CHG  1  15  -1
M  END
>  <UniqueID>  (38) 
35

>  <SMILES>  (38) 
Nc1ccc(Nc2ccccc2C(=O)[N-]c2ccc(S(N)(=O)=O)cc2)cc1

>  <Energy>  (38) 
57.41354291680851

>  <Genealogy>  (38) 
Nc1ccc(Nc2ccccc2C(=O)[N-]c2ccc(S(N)(=O)=O)cc2)cc1 (protonated)
Nc1ccc(Nc2ccccc2C(=O)[N-]c2ccc(S(N)(=O)=O)cc2)cc1 (3D coordinates assigned)
Nc1ccc(Nc2ccccc2C(=O)[N-]c2ccc(S(N)(=O)=O)cc2)cc1 (optimized conformer: 57.41354291680851 kcal/mol)

>  <smiles>  (38) 
Nc1ccc(Nc2ccccc2C(=O)Nc2ccc(S(N)(=O)=O)cc2)cc1

>  <score_type>  (38) 
oracle

>  <origin>  (38) 
adgpu

>  <m_score__min__energy>  (38) 
-10.52

>  <m_primary>  (38) 
energy

$$$$
38:0
     RDKit          3D

 54 56  0  0  0  0  0  0  0  0999 V2000
   -3.2040   19.3950  -32.5430 C   0  0  0  0  0  0  0  0  0  0  0  0
   -1.8760   19.9270  -32.8320 N   0  0  0  0  0  0  0  0  0  0  0  0
   -1.4710   20.3730  -34.0390 C   0  0  0  0  0  0  0  0  0  0  0  0
   -0.1880   20.8840  -33.9440 C   0  0  0  0  0  0  0  0  0  0  0  0
    0.5670   21.5350  -35.0340 C   0  0  0  0  0  0  0  0  0  0  0  0
    0.4200   21.1200  -36.2150 O   0  0  0  0  0  0  0  0  0  0  0  0
    1.4090   22.6730  -34.8020 N   0  0  0  0  0  0  0  0  0  0  0  0
    1.6410   23.6170  -35.6670 C   0  0  0  0  0  0  0  0  0  0  0  0
    2.4830   24.6820  -35.4560 C   0  0  0  0  0  0  0  0  0  0  0  0
    2.3690   25.4080  -36.6290 C   0  0  0  0  0  0  0  0  0  0  0  0
    3.1030   26.6860  -36.9790 C   0  0  0  0  0  0  0  0  0  0  0  0
    2.2970   27.4890  -38.0170 C   0  0  0  0  0  0  0  0  0  0  0  0
    4.4800   26.3360  -37.5690 C   0  0  0  0  0  0  0  0  0  0  0  0
    3.2800   27.5450  -35.7130 C   0  0  0  0  0  0  0  0  0  0  0  0
    1.5210   24.7900  -37.4250 O   0  0  0  0  0  0  0  0  0  0  0  0
    1.0560   23.7060  -36.8760 N   0  0  0  0  0  0  0  0  0  0  0  0
    0.2020   20.7530  -32.6230 C   0  0  0  0  0  0  0  0  0  0  0  0
   -0.8460   20.1330  -31.9790 C   0  0  0  0  0  0  0  0  0  0  0  0
   -0.8520   19.8490  -30.5730 N   0  0  0  0  0  0  0  0  0  0  0  0
   -1.5250   20.5910  -29.5480 C   0  0  0  0  0  0  0  0  0  0  0  0
   -1.6440   20.0630  -28.4090 O   0  0  0  0  0  0  0  0  0  0  0  0
   -2.1250   21.9250  -29.7920 C   0  0  0  0  0  0  0  0  0  0  0  0
   -3.2950   22.0340  -30.5600 C   0  0  0  0  0  0  0  0  0  0  0  0
   -3.8740   23.2810  -30.7970 C   0  0  0  0  0  0  0  0  0  0  0  0
   -3.2930   24.4370  -30.2700 C   0  0  0  0  0  0  0  0  0  0  0  0
   -3.8850   25.6710  -30.5100 O   0  0  0  0  0  0  0  0  0  0  0  0
   -2.1230   24.3530  -29.5010 C   0  0  0  0  0  0  0  0  0  0  0  0
   -1.5630   25.5560  -28.9560 N   0  0  0  0  0  0  0  0  0  0  0  0
   -0.4820   25.6220  -27.6050 S   0  0  0  0  0  0  0  0  0  0  0  0
   -1.2830   24.9340  -26.1750 C   0  0  0  0  0  0  0  0  0  0  0  0
    0.7480   24.8110  -27.9060 O   0  0  0  0  0  0  0  0  0  0  0  0
   -0.1100   27.0530  -27.3200 O   0  0  0  0  0  0  0  0  0  0  0  0
   -1.5300   23.0950  -29.2840 C   0  0  0  0  0  0  0  0  0  0  0  0
   -3.3470   19.3377  -31.4538 H   0  0  0  0  0  0  0  0  0  0  0  0
   -3.9669   20.0569  -32.9787 H   0  0  0  0  0  0  0  0  0  0  0  0
   -3.2990   18.3894  -32.9787 H   0  0  0  0  0  0  0  0  0  0  0  0
   -2.0704   20.3361  -34.9606 H   0  0  0  0  0  0  0  0  0  0  0  0
    3.0976   24.9036  -34.5710 H   0  0  0  0  0  0  0  0  0  0  0  0
    1.6099   28.1735  -37.4980 H   0  0  0  0  0  0  0  0  0  0  0  0
    2.9866   28.0698  -38.6472 H   0  0  0  0  0  0  0  0  0  0  0  0
    1.7188   26.7972  -38.6472 H   0  0  0  0  0  0  0  0  0  0  0  0
    5.1937   26.1546  -36.7518 H   0  0  0  0  0  0  0  0  0  0  0  0
    4.3942   25.4311  -38.1885 H   0  0  0  0  0  0  0  0  0  0  0  0
    4.8367   27.1720  -38.1885 H   0  0  0  0  0  0  0  0  0  0  0  0
    3.1501   26.9145  -34.8210 H   0  0  0  0  0  0  0  0  0  0  0  0
    4.2878   27.9857  -35.7069 H   0  0  0  0  0  0  0  0  0  0  0  0
    2.5285   28.3482  -35.7069 H   0  0  0  0  0  0  0  0  0  0  0  0
    1.1542   21.0776  -32.1780 H   0  0  0  0  0  0  0  0  0  0  0  0
   -3.7591   21.1287  -30.9784 H   0  0  0  0  0  0  0  0  0  0  0  0
   -4.7907   23.3542  -31.4006 H   0  0  0  0  0  0  0  0  0  0  0  0
   -0.8153   25.3357  -25.2640 H   0  0  0  0  0  0  0  0  0  0  0  0
   -2.3499   25.2016  -26.1881 H   0  0  0  0  0  0  0  0  0  0  0  0
   -1.1795   23.8390  -26.1881 H   0  0  0  0  0  0  0  0  0  0  0  0
   -0.5929   23.0257  -28.7121 H   0  0  0  0  0  0  0  0  0  0  0  0
  1  2  1  0
  2  3  1  0
  3  4  2  0
  4  5  1  0
  5  6  2  0
  5  7  1  0
  7  8  2  3
  8  9  1  0
  9 10  2  0
 10 11  1  0
 11 12  1  0
 11 13  1  0
 11 14  1  0
 10 15  1  0
 15 16  1  0
  4 17  1  0
 17 18  2  0
 18 19  1  0
 19 20  1  0
 20 21  2  0
 20 22  1  0
 22 23  2  0
 23 24  1  0
 24 25  2  0
 25 26  1  0
 25 27  1  0
 27 28  1  0
 28 29  1  0
 29 30  1  0
 29 31  2  0
 29 32  2  0
 27 33  2  0
 18  2  1  0
 33 22  1  0
 16  8  1  0
  1 34  1  0
  1 35  1  0
  1 36  1  0
  3 37  1  0
  9 38  1  0
 12 39  1  0
 12 40  1  0
 12 41  1  0
 13 42  1  0
 13 43  1  0
 13 44  1  0
 14 45  1  0
 14 46  1  0
 14 47  1  0
 17 48  1  0
 23 49  1  0
 24 50  1  0
 30 51  1  0
 30 52  1  0
 30 53  1  0
 33 54  1  0
M  CHG  4  16  -1  19  -1  26  -1  28  -1
M  END
>  <UniqueID>  (39) 
36

>  <SMILES>  (39) 
Cn1cc(C(=O)N=c2cc(C(C)(C)C)o[n-]2)cc1[N-]C(=O)c1ccc([O-])c([N-]S(C)(=O)=O)c1

>  <Energy>  (39) 
118.62859343798621

>  <Genealogy>  (39) 
Cn1cc(C(=O)N=c2cc(C(C)(C)C)o[n-]2)cc1[N-]C(=O)c1ccc([O-])c([N-]S(C)(=O)=O)c1 (protonated)
Cn1cc(C(=O)N=c2cc(C(C)(C)C)o[n-]2)cc1[N-]C(=O)c1ccc([O-])c([N-]S(C)(=O)=O)c1 (3D coordinates assigned)
Cn1cc(C(=O)N=c2cc(C(C)(C)C)o[n-]2)cc1[N-]C(=O)c1ccc([O-])c([N-]S(C)(=O)=O)c1 (optimized conformer: 118.62859343798621 kcal/mol)

>  <smiles>  (39) 
Cn1cc(C(=O)N=c2cc(C(C)(C)C)o[nH]2)cc1NC(=O)c1ccc(O)c(NS(C)(=O)=O)c1

>  <score_type>  (39) 
oracle

>  <origin>  (39) 
adgpu

>  <m_score__min__energy>  (39) 
-15.44

>  <m_primary>  (39) 
energy

$$$$
39:0
     RDKit          3D

 61 64  0  0  0  0  0  0  0  0999 V2000
   -1.6160   20.3680  -34.5330 C   0  0  0  0  0  0  0  0  0  0  0  0
   -2.4900   20.0810  -33.3920 N   0  0  0  0  0  0  0  0  0  0  0  0
   -3.3390   18.9150  -33.3590 C   0  0  0  0  0  0  0  0  0  0  0  0
   -2.8370   17.7800  -33.5830 O   0  0  0  0  0  0  0  0  0  0  0  0
   -4.7860   19.0030  -33.0620 C   0  0  0  0  0  0  0  0  0  0  0  0
   -5.3670   18.2550  -32.0250 C   0  0  0  0  0  0  0  0  0  0  0  0
   -6.7270   18.3900  -31.7410 C   0  0  0  0  0  0  0  0  0  0  0  0
   -7.5010   19.2690  -32.5010 C   0  0  0  0  0  0  0  0  0  0  0  0
   -9.2470   19.4700  -32.1550 S   0  0  0  0  0  0  0  0  0  0  0  0
   -9.1830   21.2870  -32.2990 C   0  0  0  0  0  0  0  0  0  0  0  0
   -8.2840   21.8480  -31.2320 C   0  0  0  0  0  0  0  0  0  0  0  0
   -8.7170   21.9510  -30.0900 O   0  0  0  0  0  0  0  0  0  0  0  0
   -6.9290   22.2730  -31.5440 N   0  0  0  0  0  0  0  0  0  0  0  0
   -6.9080   23.6590  -32.0330 C   0  0  0  0  0  0  0  0  0  0  0  0
   -6.6400   24.5640  -30.8390 C   0  0  0  0  0  0  0  0  0  0  0  0
   -6.0500   23.6650  -29.7660 C   0  0  0  0  0  0  0  0  0  0  0  0
   -6.0770   22.2530  -30.3450 C   0  0  0  0  0  0  0  0  0  0  0  0
   -6.9240   19.9950  -33.4940 N   0  0  0  0  0  0  0  0  0  0  0  0
   -5.6010   19.8910  -33.7830 C   0  0  0  0  0  0  0  0  0  0  0  0
   -2.6100   21.0730  -32.3590 C   0  0  0  0  0  0  0  0  0  0  0  0
   -1.8630   20.9840  -31.1670 C   0  0  0  0  0  0  0  0  0  0  0  0
   -0.9870   19.8580  -30.9790 N   0  0  0  0  0  0  0  0  0  0  0  0
   -1.9820   21.9730  -30.2100 N   0  0  0  0  0  0  0  0  0  0  0  0
   -1.1540   21.9490  -28.9820 C   0  0  0  0  0  0  0  0  0  0  0  0
   -1.4990   20.7550  -28.1250 C   0  0  0  0  0  0  0  0  0  0  0  0
   -2.7630   20.6500  -27.5160 C   0  0  0  0  0  0  0  0  0  0  0  0
   -3.0770   19.5400  -26.7250 C   0  0  0  0  0  0  0  0  0  0  0  0
   -2.1300   18.5340  -26.5230 C   0  0  0  0  0  0  0  0  0  0  0  0
   -0.8640   18.6390  -27.1080 C   0  0  0  0  0  0  0  0  0  0  0  0
   -0.5460   19.7460  -27.9000 C   0  0  0  0  0  0  0  0  0  0  0  0
   -2.8440   23.0230  -30.4240 C   0  0  0  0  0  0  0  0  0  0  0  0
   -2.9760   23.9410  -29.5700 O   0  0  0  0  0  0  0  0  0  0  0  0
   -3.5650   23.1010  -31.5690 N   0  0  0  0  0  0  0  0  0  0  0  0
   -3.4650   22.1620  -32.5350 C   0  0  0  0  0  0  0  0  0  0  0  0
   -4.1430   22.2810  -33.5900 O   0  0  0  0  0  0  0  0  0  0  0  0
   -0.6303   20.6917  -34.1675 H   0  0  0  0  0  0  0  0  0  0  0  0
   -1.5007   19.4605  -35.1439 H   0  0  0  0  0  0  0  0  0  0  0  0
   -2.0611   21.1672  -35.1439 H   0  0  0  0  0  0  0  0  0  0  0  0
   -4.7492   17.5615  -31.4355 H   0  0  0  0  0  0  0  0  0  0  0  0
   -7.1845   17.8095  -30.9263 H   0  0  0  0  0  0  0  0  0  0  0  0
   -8.7909   21.5618  -33.2893 H   0  0  0  0  0  0  0  0  0  0  0  0
  -10.1957   21.6984  -32.1758 H   0  0  0  0  0  0  0  0  0  0  0  0
   -6.5140   21.6460  -32.2730 H   0  0  0  0  0  0  0  0  0  0  0  0
   -6.1116   23.7805  -32.7820 H   0  0  0  0  0  0  0  0  0  0  0  0
   -7.8674   23.9166  -32.5055 H   0  0  0  0  0  0  0  0  0  0  0  0
   -5.9267   25.3561  -31.1106 H   0  0  0  0  0  0  0  0  0  0  0  0
   -7.5579   25.0613  -30.4924 H   0  0  0  0  0  0  0  0  0  0  0  0
   -5.0166   23.9664  -29.5395 H   0  0  0  0  0  0  0  0  0  0  0  0
   -6.6193   23.7283  -28.8269 H   0  0  0  0  0  0  0  0  0  0  0  0
   -5.0577   21.9404  -30.6158 H   0  0  0  0  0  0  0  0  0  0  0  0
   -6.4734   21.5425  -29.6047 H   0  0  0  0  0  0  0  0  0  0  0  0
   -5.1659   20.5050  -34.5853 H   0  0  0  0  0  0  0  0  0  0  0  0
   -1.1350   18.9380  -31.4380 H   0  0  0  0  0  0  0  0  0  0  0  0
   -0.1210   19.9330  -30.4050 H   0  0  0  0  0  0  0  0  0  0  0  0
   -0.0922   21.8954  -29.2642 H   0  0  0  0  0  0  0  0  0  0  0  0
   -1.3518   22.8650  -28.4059 H   0  0  0  0  0  0  0  0  0  0  0  0
   -3.5085   21.4454  -27.6628 H   0  0  0  0  0  0  0  0  0  0  0  0
   -4.0713   19.4595  -26.2614 H   0  0  0  0  0  0  0  0  0  0  0  0
   -2.3795   17.6595  -25.9042 H   0  0  0  0  0  0  0  0  0  0  0  0
   -0.1167   17.8485  -26.9445 H   0  0  0  0  0  0  0  0  0  0  0  0
    0.4546   19.8282  -28.3494 H   0  0  0  0  0  0  0  0  0  0  0  0
  1  2  1  0
  2  3  1  0
  3  4  2  0
  3  5  1  0
  5  6  2  0
  6  7  1  0
  7  8  2  0
  8  9  1  0
  9 10  1  0
 10 11  1  0
 11 12  2  0
 11 13  1  0
 13 14  1  0
 14 15  1  0
 15 16  1  0
 16 17  1  0
  8 18  1  0
 18 19  2  0
  2 20  1  0
 20 21  2  0
 21 22  1  0
 21 23  1  0
 23 24  1  0
 24 25  1  0
 25 26  2  0
 26 27  1  0
 27 28  2  0
 28 29  1  0
 29 30  2  0
 23 31  1  0
 31 32  2  0
 31 33  1  0
 33 34  1  0
 34 35  2  0
 19  5  1  0
 34 20  1  0
 17 13  1  0
 30 25  1  0
  1 36  1  0
  1 37  1  0
  1 38  1  0
  6 39  1  0
  7 40  1  0
 10 41  1  0
 10 42  1  0
 13 43  1  0
 14 44  1  0
 14 45  1  0
 15 46  1  0
 15 47  1  0
 16 48  1  0
 16 49  1  0
 17 50  1  0
 17 51  1  0
 19 52  1  0
 22 53  1  0
 22 54  1  0
 24 55  1  0
 24 56  1  0
 26 57  1  0
 27 58  1  0
 28 59  1  0
 29 60  1  0
 30 61  1  0
M  CHG  2  13   1  33  -1
M  END
>  <UniqueID>  (40) 
37

>  <SMILES>  (40) 
CN(C(=O)c1ccc(SCC(=O)[NH+]2CCCC2)nc1)c1c(N)n(Cc2ccccc2)c(=O)[n-]c1=O

>  <Energy>  (40) 
81.92330299380473

>  <Genealogy>  (40) 
CN(C(=O)c1ccc(SCC(=O)[NH+]2CCCC2)nc1)c1c(N)n(Cc2ccccc2)c(=O)[n-]c1=O (protonated)
CN(C(=O)c1ccc(SCC(=O)[NH+]2CCCC2)nc1)c1c(N)n(Cc2ccccc2)c(=O)[n-]c1=O (3D coordinates assigned)
CN(C(=O)c1ccc(SCC(=O)[NH+]2CCCC2)nc1)c1c(N)n(Cc2ccccc2)c(=O)[n-]c1=O (nonaromatic ring conformer: 81.92330299380473 kcal/mol)

>  <smiles>  (40) 
CN(C(=O)c1ccc(SCC(=O)N2CCCC2)nc1)c1c(N)n(Cc2ccccc2)c(=O)[nH]c1=O

>  <score_type>  (40) 
oracle

>  <origin>  (40) 
adgpu

>  <m_score__min__energy>  (40) 
-10.9

>  <m_primary>  (40) 
energy

$$$$
40:0
     RDKit          3D

 69 73  0  0  0  0  0  0  0  0999 V2000
    0.8660   16.5520  -31.1090 C   0  0  0  0  0  0  0  0  0  0  0  0
    1.4610   17.8830  -30.8870 N   0  0  0  0  0  0  0  0  0  0  0  0
    2.0150   18.0340  -29.5200 C   0  0  0  0  0  0  0  0  0  0  0  0
    0.9240   18.2930  -28.4710 C   0  0  0  0  0  0  0  0  0  0  0  0
    0.1170   19.4370  -28.9060 N   0  0  0  0  0  0  0  0  0  0  0  0
    0.3480   20.7510  -28.3430 C   0  0  0  0  0  0  0  0  0  0  0  0
    1.2880   20.9260  -27.5210 O   0  0  0  0  0  0  0  0  0  0  0  0
   -0.5080   21.9100  -28.6620 C   0  0  0  0  0  0  0  0  0  0  0  0
   -1.4230   21.8310  -29.7250 C   0  0  0  0  0  0  0  0  0  0  0  0
   -2.2140   22.9390  -30.0810 C   0  0  0  0  0  0  0  0  0  0  0  0
   -3.2650   22.8170  -31.1200 C   0  0  0  0  0  0  0  0  0  0  0  0
   -4.4450   23.4700  -31.0570 N   0  0  0  0  0  0  0  0  0  0  0  0
   -5.1560   23.1380  -32.1260 N   0  0  0  0  0  0  0  0  0  0  0  0
   -6.5310   23.5710  -32.3540 C   0  0  0  0  0  0  0  0  0  0  0  0
   -7.4660   22.9600  -31.3030 C   0  0  0  0  0  0  0  0  0  0  0  0
   -7.8370   21.5420  -31.6550 C   0  0  0  0  0  0  0  0  0  0  0  0
   -6.9040   20.5020  -31.5010 C   0  0  0  0  0  0  0  0  0  0  0  0
   -7.2670   19.1820  -31.7820 C   0  0  0  0  0  0  0  0  0  0  0  0
   -8.5630   18.8890  -32.2120 C   0  0  0  0  0  0  0  0  0  0  0  0
   -9.5010   19.9150  -32.3620 C   0  0  0  0  0  0  0  0  0  0  0  0
   -9.1420   21.2380  -32.0820 C   0  0  0  0  0  0  0  0  0  0  0  0
   -4.4650   22.2720  -32.8900 C   0  0  0  0  0  0  0  0  0  0  0  0
   -3.2680   22.0220  -32.2600 C   0  0  0  0  0  0  0  0  0  0  0  0
   -2.1610   21.3170  -32.8260 N   0  0  0  0  0  0  0  0  0  0  0  0
   -2.2330   19.9630  -33.2870 C   0  0  0  0  0  0  0  0  0  0  0  0
   -1.4920   19.5990  -34.2380 O   0  0  0  0  0  0  0  0  0  0  0  0
   -3.0350   18.9890  -32.6130 N   0  0  0  0  0  0  0  0  0  0  0  0
   -4.1800   18.3320  -33.1650 C   0  0  0  0  0  0  0  0  0  0  0  0
   -4.5060   17.0460  -32.7160 C   0  0  0  0  0  0  0  0  0  0  0  0
   -5.6210   16.3780  -33.2380 C   0  0  0  0  0  0  0  0  0  0  0  0
   -6.4060   16.9890  -34.2210 C   0  0  0  0  0  0  0  0  0  0  0  0
   -6.0680   18.2610  -34.6970 C   0  0  0  0  0  0  0  0  0  0  0  0
   -4.9510   18.9280  -34.1790 C   0  0  0  0  0  0  0  0  0  0  0  0
   -2.0380   24.1520  -29.3840 C   0  0  0  0  0  0  0  0  0  0  0  0
   -2.7750   25.2840  -29.7190 O   0  0  0  0  0  0  0  0  0  0  0  0
   -1.1040   24.2430  -28.3500 C   0  0  0  0  0  0  0  0  0  0  0  0
   -0.3430   23.1330  -27.9770 C   0  0  0  0  0  0  0  0  0  0  0  0
    0.5600   23.2760  -26.9230 O   0  0  0  0  0  0  0  0  0  0  0  0
   -0.5400   19.2430  -30.2030 C   0  0  0  0  0  0  0  0  0  0  0  0
    0.5430   18.9850  -31.2660 C   0  0  0  0  0  0  0  0  0  0  0  0
    0.6544   16.0786  -30.1389 H   0  0  0  0  0  0  0  0  0  0  0  0
   -0.0700   16.6589  -31.6768 H   0  0  0  0  0  0  0  0  0  0  0  0
    1.5699   15.9258  -31.6768 H   0  0  0  0  0  0  0  0  0  0  0  0
    2.5506   17.1113  -29.2521 H   0  0  0  0  0  0  0  0  0  0  0  0
    2.6881   18.9040  -29.5254 H   0  0  0  0  0  0  0  0  0  0  0  0
    0.2840   17.4035  -28.3750 H   0  0  0  0  0  0  0  0  0  0  0  0
    1.3849   18.5082  -27.4957 H   0  0  0  0  0  0  0  0  0  0  0  0
   -1.5225   20.8904  -30.2866 H   0  0  0  0  0  0  0  0  0  0  0  0
   -6.5808   24.6680  -32.2893 H   0  0  0  0  0  0  0  0  0  0  0  0
   -6.8494   23.2360  -33.3522 H   0  0  0  0  0  0  0  0  0  0  0  0
   -6.9593   22.9655  -30.3267 H   0  0  0  0  0  0  0  0  0  0  0  0
   -8.3870   23.5604  -31.2681 H   0  0  0  0  0  0  0  0  0  0  0  0
   -5.8837   20.7281  -31.1578 H   0  0  0  0  0  0  0  0  0  0  0  0
   -6.5311   18.3729  -31.6644 H   0  0  0  0  0  0  0  0  0  0  0  0
   -8.8463   17.8494  -32.4330 H   0  0  0  0  0  0  0  0  0  0  0  0
  -10.5214   19.6820  -32.7002 H   0  0  0  0  0  0  0  0  0  0  0  0
   -9.8829   22.0430  -32.1962 H   0  0  0  0  0  0  0  0  0  0  0  0
   -4.7975   21.8416  -33.8461 H   0  0  0  0  0  0  0  0  0  0  0  0
   -3.8841   16.5588  -31.9506 H   0  0  0  0  0  0  0  0  0  0  0  0
   -5.8793   15.3724  -32.8746 H   0  0  0  0  0  0  0  0  0  0  0  0
   -7.2896   16.4696  -34.6203 H   0  0  0  0  0  0  0  0  0  0  0  0
   -6.6796   18.7367  -35.4778 H   0  0  0  0  0  0  0  0  0  0  0  0
   -4.6760   19.9203  -34.5660 H   0  0  0  0  0  0  0  0  0  0  0  0
   -0.9662   25.1990  -27.8237 H   0  0  0  0  0  0  0  0  0  0  0  0
    1.2500   22.5740  -26.6900 H   0  0  0  0  0  0  0  0  0  0  0  0
   -1.2199   18.3799  -30.1490 H   0  0  0  0  0  0  0  0  0  0  0  0
   -1.1222   20.1379  -30.4679 H   0  0  0  0  0  0  0  0  0  0  0  0
    0.0510   18.7236  -32.2145 H   0  0  0  0  0  0  0  0  0  0  0  0
    1.1432   19.9020  -31.3606 H   0  0  0  0  0  0  0  0  0  0  0  0
  1  2  1  0
  2  3  1  0
  3  4  1  0
  4  5  1  0
  5  6  1  0
  6  7  2  0
  6  8  1  0
  8  9  2  0
  9 10  1  0
 10 11  1  0
 11 12  2  0
 12 13  1  0
 13 14  1  0
 14 15  1  0
 15 16  1  0
 16 17  2  0
 17 18  1  0
 18 19  2  0
 19 20  1  0
 20 21  2  0
 13 22  1  0
 22 23  2  0
 23 24  1  0
 24 25  1  0
 25 26  2  0
 25 27  1  0
 27 28  1  0
 28 29  2  0
 29 30  1  0
 30 31  2  0
 31 32  1  0
 32 33  2  0
 10 34  2  0
 34 35  1  0
 34 36  1  0
 36 37  2  0
 37 38  1  0
  5 39  1  0
 39 40  1  0
 40  2  1  0
 37  8  1  0
 23 11  1  0
 33 28  1  0
 21 16  1  0
  1 41  1  0
  1 42  1  0
  1 43  1  0
  3 44  1  0
  3 45  1  0
  4 46  1  0
  4 47  1  0
  9 48  1  0
 14 49  1  0
 14 50  1  0
 15 51  1  0
 15 52  1  0
 17 53  1  0
 18 54  1  0
 19 55  1  0
 20 56  1  0
 21 57  1  0
 22 58  1  0
 29 59  1  0
 30 60  1  0
 31 61  1  0
 32 62  1  0
 33 63  1  0
 36 64  1  0
 38 65  1  0
 39 66  1  0
 39 67  1  0
 40 68  1  0
 40 69  1  0
M  CHG  3  24  -1  27  -1  35  -1
M  END
>  <UniqueID>  (41) 
38

>  <SMILES>  (41) 
CN1CCN(C(=O)c2cc(-c3nn(CCc4ccccc4)cc3[N-]C(=O)[N-]c3ccccc3)c([O-])cc2O)CC1

>  <Energy>  (41) 
130.09140681888596

>  <Genealogy>  (41) 
CN1CCN(C(=O)c2cc(-c3nn(CCc4ccccc4)cc3[N-]C(=O)[N-]c3ccccc3)c([O-])cc2O)CC1 (protonated)
CN1CCN(C(=O)c2cc(-c3nn(CCc4ccccc4)cc3[N-]C(=O)[N-]c3ccccc3)c([O-])cc2O)CC1 (3D coordinates assigned)
CN1CCN(C(=O)c2cc(-c3nn(CCc4ccccc4)cc3[N-]C(=O)[N-]c3ccccc3)c([O-])cc2O)CC1 (nonaromatic ring conformer: 130.09140681888596 kcal/mol)

>  <smiles>  (41) 
CN1CCN(C(=O)c2cc(-c3nn(CCc4ccccc4)cc3NC(=O)Nc3ccccc3)c(O)cc2O)CC1

>  <score_type>  (41) 
oracle

>  <origin>  (41) 
adgpu

>  <m_score__min__energy>  (41) 
-14.9

>  <m_primary>  (41) 
energy

$$$$
41:0
     RDKit          3D

 43 45  0  0  0  0  0  0  0  0999 V2000
   -1.4430   20.2510  -33.1910 C   0  0  0  0  0  0  0  0  0  0  0  0
   -2.8970   19.9310  -33.0110 C   0  0  0  0  0  0  0  0  0  0  0  0
   -3.6130   19.2860  -34.0310 C   0  0  0  0  0  0  0  0  0  0  0  0
   -4.9510   18.9290  -33.8390 C   0  0  0  0  0  0  0  0  0  0  0  0
   -5.5930   19.2080  -32.6260 C   0  0  0  0  0  0  0  0  0  0  0  0
   -6.9710   18.8430  -32.4760 N   0  0  0  0  0  0  0  0  0  0  0  0
   -8.2470   19.9400  -32.0520 S   0  0  0  0  0  0  0  0  0  0  0  0
   -9.0710   19.3490  -30.9420 O   0  0  0  0  0  0  0  0  0  0  0  0
   -9.1320   20.1600  -33.2490 O   0  0  0  0  0  0  0  0  0  0  0  0
   -7.5450   21.4800  -31.5720 C   0  0  0  0  0  0  0  0  0  0  0  0
   -6.7270   22.1760  -32.4720 C   0  0  0  0  0  0  0  0  0  0  0  0
   -6.0590   23.3340  -32.0640 C   0  0  0  0  0  0  0  0  0  0  0  0
   -6.1940   23.7970  -30.7480 C   0  0  0  0  0  0  0  0  0  0  0  0
   -5.2240   25.1430  -30.1600 S   0  0  0  0  0  0  0  0  0  0  0  0
   -5.4380   25.2880  -28.6810 O   0  0  0  0  0  0  0  0  0  0  0  0
   -5.6190   26.4290  -30.8350 O   0  0  0  0  0  0  0  0  0  0  0  0
   -3.5500   24.8110  -30.4730 N   0  0  0  0  0  0  0  0  0  0  0  0
   -2.6850   24.0730  -29.5990 C   0  0  0  0  0  0  0  0  0  0  0  0
   -2.9220   22.7210  -29.2860 C   0  0  0  0  0  0  0  0  0  0  0  0
   -2.0670   22.0360  -28.4190 C   0  0  0  0  0  0  0  0  0  0  0  0
   -0.9650   22.6870  -27.8620 C   0  0  0  0  0  0  0  0  0  0  0  0
   -0.7160   24.0270  -28.1710 C   0  0  0  0  0  0  0  0  0  0  0  0
   -1.5690   24.7170  -29.0400 C   0  0  0  0  0  0  0  0  0  0  0  0
   -1.3080   26.0500  -29.3410 O   0  0  0  0  0  0  0  0  0  0  0  0
   -7.0420   23.1220  -29.8590 C   0  0  0  0  0  0  0  0  0  0  0  0
   -7.7220   21.9740  -30.2720 C   0  0  0  0  0  0  0  0  0  0  0  0
   -4.8650   19.8230  -31.5890 C   0  0  0  0  0  0  0  0  0  0  0  0
   -3.5270   20.1770  -31.7810 C   0  0  0  0  0  0  0  0  0  0  0  0
   -0.9659   20.3560  -32.2054 H   0  0  0  0  0  0  0  0  0  0  0  0
   -0.9552   19.4387  -33.7498 H   0  0  0  0  0  0  0  0  0  0  0  0
   -1.3413   21.1930  -33.7498 H   0  0  0  0  0  0  0  0  0  0  0  0
   -3.1186   19.0599  -34.9873 H   0  0  0  0  0  0  0  0  0  0  0  0
   -5.5033   18.4255  -34.6462 H   0  0  0  0  0  0  0  0  0  0  0  0
   -6.6102   21.8099  -33.5027 H   0  0  0  0  0  0  0  0  0  0  0  0
   -5.4262   23.8829  -32.7770 H   0  0  0  0  0  0  0  0  0  0  0  0
   -3.7854   22.2009  -29.7266 H   0  0  0  0  0  0  0  0  0  0  0  0
   -2.2627   20.9814  -28.1748 H   0  0  0  0  0  0  0  0  0  0  0  0
   -0.2928   22.1455  -27.1801 H   0  0  0  0  0  0  0  0  0  0  0  0
    0.1516   24.5401  -27.7306 H   0  0  0  0  0  0  0  0  0  0  0  0
   -7.1723   23.4975  -28.8333 H   0  0  0  0  0  0  0  0  0  0  0  0
   -8.3980   21.4563  -29.5756 H   0  0  0  0  0  0  0  0  0  0  0  0
   -5.3519   20.0255  -30.6236 H   0  0  0  0  0  0  0  0  0  0  0  0
   -2.9641   20.6512  -30.9635 H   0  0  0  0  0  0  0  0  0  0  0  0
  1  2  1  0
  2  3  2  0
  3  4  1  0
  4  5  2  0
  5  6  1  0
  6  7  1  0
  7  8  2  0
  7  9  2  0
  7 10  1  0
 10 11  2  0
 11 12  1  0
 12 13  2  0
 13 14  1  0
 14 15  2  0
 14 16  2  0
 14 17  1  0
 17 18  1  0
 18 19  2  0
 19 20  1  0
 20 21  2  0
 21 22  1  0
 22 23  2  0
 23 24  1  0
 13 25  1  0
 25 26  2  0
  5 27  1  0
 27 28  2  0
 28  2  1  0
 26 10  1  0
 23 18  1  0
  1 29  1  0
  1 30  1  0
  1 31  1  0
  3 32  1  0
  4 33  1  0
 11 34  1  0
 12 35  1  0
 19 36  1  0
 20 37  1  0
 21 38  1  0
 22 39  1  0
 25 40  1  0
 26 41  1  0
 27 42  1  0
 28 43  1  0
M  CHG  3   6  -1  17  -1  24  -1
M  END
>  <UniqueID>  (42) 
39

>  <SMILES>  (42) 
Cc1ccc([N-]S(=O)(=O)c2ccc(S(=O)(=O)[N-]c3ccccc3[O-])cc2)cc1

>  <Energy>  (42) 
49.71940455846821

>  <Genealogy>  (42) 
Cc1ccc([N-]S(=O)(=O)c2ccc(S(=O)(=O)[N-]c3ccccc3[O-])cc2)cc1 (protonated)
Cc1ccc([N-]S(=O)(=O)c2ccc(S(=O)(=O)[N-]c3ccccc3[O-])cc2)cc1 (3D coordinates assigned)
Cc1ccc([N-]S(=O)(=O)c2ccc(S(=O)(=O)[N-]c3ccccc3[O-])cc2)cc1 (optimized conformer: 49.71940455846821 kcal/mol)

>  <smiles>  (42) 
Cc1ccc(NS(=O)(=O)c2ccc(S(=O)(=O)Nc3ccccc3O)cc2)cc1

>  <score_type>  (42) 
oracle

>  <origin>  (42) 
adgpu

>  <m_score__min__energy>  (42) 
-14.4

>  <m_primary>  (42) 
energy

$$$$
42:0
     RDKit          3D

 41 43  0  0  0  0  0  0  0  0999 V2000
   -5.7230   25.9970  -30.5840 O   0  0  0  0  0  0  0  0  0  0  0  0
   -5.0210   24.9570  -30.6850 C   0  0  0  0  0  0  0  0  0  0  0  0
   -3.6040   25.0630  -30.4880 N   0  0  0  0  0  0  0  0  0  0  0  0
   -2.8240   24.3330  -29.5270 C   0  0  0  0  0  0  0  0  0  0  0  0
   -3.2210   23.0320  -29.1940 C   0  0  0  0  0  0  0  0  0  0  0  0
   -2.5020   22.2920  -28.2510 C   0  0  0  0  0  0  0  0  0  0  0  0
   -3.0700   20.5280  -27.7860 Br  0  0  0  0  0  0  0  0  0  0  0  0
   -1.3700   22.8430  -27.6470 C   0  0  0  0  0  0  0  0  0  0  0  0
   -0.9460   24.1270  -27.9940 C   0  0  0  0  0  0  0  0  0  0  0  0
   -1.6570   24.8740  -28.9450 C   0  0  0  0  0  0  0  0  0  0  0  0
   -1.1920   26.1310  -29.3250 O   0  0  0  0  0  0  0  0  0  0  0  0
   -5.6710   23.6740  -31.0410 C   0  0  0  0  0  0  0  0  0  0  0  0
   -6.8780   23.2820  -30.4360 C   0  0  0  0  0  0  0  0  0  0  0  0
   -7.4960   22.0830  -30.8000 C   0  0  0  0  0  0  0  0  0  0  0  0
   -6.9080   21.2490  -31.7590 C   0  0  0  0  0  0  0  0  0  0  0  0
   -7.7120   19.7650  -32.2590 S   0  0  0  0  0  0  0  0  0  0  0  0
   -8.7230   20.0720  -33.3310 O   0  0  0  0  0  0  0  0  0  0  0  0
   -8.4310   19.1700  -31.0800 O   0  0  0  0  0  0  0  0  0  0  0  0
   -6.5180   18.6350  -32.8450 N   0  0  0  0  0  0  0  0  0  0  0  0
   -6.1220   18.9460  -34.2180 C   0  0  0  0  0  0  0  0  0  0  0  0
   -5.6660   17.6360  -34.8430 C   0  0  0  0  0  0  0  0  0  0  0  0
   -6.2790   16.5430  -33.9800 C   0  0  0  0  0  0  0  0  0  0  0  0
   -7.0500   17.2740  -32.8900 C   0  0  0  0  0  0  0  0  0  0  0  0
   -5.6960   21.6250  -32.3530 C   0  0  0  0  0  0  0  0  0  0  0  0
   -5.0770   22.8240  -31.9900 C   0  0  0  0  0  0  0  0  0  0  0  0
   -4.1044   22.5896  -29.6777 H   0  0  0  0  0  0  0  0  0  0  0  0
   -0.8114   22.2644  -26.8965 H   0  0  0  0  0  0  0  0  0  0  0  0
   -0.0505   24.5549  -27.5197 H   0  0  0  0  0  0  0  0  0  0  0  0
   -1.2440   26.4510  -30.2850 H   0  0  0  0  0  0  0  0  0  0  0  0
   -7.3390   23.9237  -29.6707 H   0  0  0  0  0  0  0  0  0  0  0  0
   -8.4481   21.7930  -30.3315 H   0  0  0  0  0  0  0  0  0  0  0  0
   -6.9764   19.3564  -34.7763 H   0  0  0  0  0  0  0  0  0  0  0  0
   -5.3195   19.6980  -34.2400 H   0  0  0  0  0  0  0  0  0  0  0  0
   -6.0277   17.5571  -35.8788 H   0  0  0  0  0  0  0  0  0  0  0  0
   -4.5693   17.5605  -34.8816 H   0  0  0  0  0  0  0  0  0  0  0  0
   -6.9576   15.9162  -34.5772 H   0  0  0  0  0  0  0  0  0  0  0  0
   -5.5127   15.8743  -33.5610 H   0  0  0  0  0  0  0  0  0  0  0  0
   -8.1230   17.2934  -33.1316 H   0  0  0  0  0  0  0  0  0  0  0  0
   -6.9373   16.7711  -31.9182 H   0  0  0  0  0  0  0  0  0  0  0  0
   -5.2302   20.9742  -33.1076 H   0  0  0  0  0  0  0  0  0  0  0  0
   -4.1181   23.1047  -32.4501 H   0  0  0  0  0  0  0  0  0  0  0  0
  1  2  2  0
  2  3  1  0
  3  4  1  0
  4  5  2  0
  5  6  1  0
  6  7  1  0
  6  8  2  0
  8  9  1  0
  9 10  2  0
 10 11  1  0
  2 12  1  0
 12 13  2  0
 13 14  1  0
 14 15  2  0
 15 16  1  0
 16 17  2  0
 16 18  2  0
 16 19  1  0
 19 20  1  0
 20 21  1  0
 21 22  1  0
 22 23  1  0
 15 24  1  0
 24 25  2  0
 10  4  1  0
 25 12  1  0
 23 19  1  0
  5 26  1  0
  8 27  1  0
  9 28  1  0
 11 29  1  0
 13 30  1  0
 14 31  1  0
 20 32  1  0
 20 33  1  0
 21 34  1  0
 21 35  1  0
 22 36  1  0
 22 37  1  0
 23 38  1  0
 23 39  1  0
 24 40  1  0
 25 41  1  0
M  CHG  1   3  -1
M  END
>  <UniqueID>  (43) 
40

>  <SMILES>  (43) 
O=C([N-]c1cc(Br)ccc1O)c1ccc(S(=O)(=O)N2CCCC2)cc1

>  <Energy>  (43) 
50.48836891381984

>  <Genealogy>  (43) 
O=C([N-]c1cc(Br)ccc1O)c1ccc(S(=O)(=O)N2CCCC2)cc1 (protonated)
O=C([N-]c1cc(Br)ccc1O)c1ccc(S(=O)(=O)N2CCCC2)cc1 (3D coordinates assigned)
O=C([N-]c1cc(Br)ccc1O)c1ccc(S(=O)(=O)N2CCCC2)cc1 (nonaromatic ring conformer: 50.48836891381984 kcal/mol)

>  <smiles>  (43) 
O=C(Nc1cc(Br)ccc1O)c1ccc(S(=O)(=O)N2CCCC2)cc1

>  <score_type>  (43) 
oracle

>  <origin>  (43) 
adgpu

>  <m_score__min__energy>  (43) 
-13.01

>  <m_primary>  (43) 
energy

$$$$
43:0
     RDKit          3D

 34 35  0  0  0  0  0  0  0  0999 V2000
   -3.5290   21.7120  -33.0050 C   0  0  0  0  0  0  0  0  0  0  0  0
   -4.9600   21.2730  -32.8510 C   0  0  0  0  0  0  0  0  0  0  0  0
   -5.3910   19.9750  -33.1620 C   0  0  0  0  0  0  0  0  0  0  0  0
   -4.5640   18.8620  -33.7550 C   0  0  0  0  0  0  0  0  0  0  0  0
   -5.4000   17.8890  -34.5890 C   0  0  0  0  0  0  0  0  0  0  0  0
   -5.9210   18.5450  -35.7130 O   0  0  0  0  0  0  0  0  0  0  0  0
   -7.0510   19.9020  -32.8880 S   0  0  0  0  0  0  0  0  0  0  0  0
   -7.1590   21.4770  -32.3240 C   0  0  0  0  0  0  0  0  0  0  0  0
   -5.9480   22.0840  -32.3470 N   0  0  0  0  0  0  0  0  0  0  0  0
   -5.7590   23.4630  -31.8740 C   0  0  0  0  0  0  0  0  0  0  0  0
   -5.7740   23.5250  -30.3680 C   0  0  0  0  0  0  0  0  0  0  0  0
   -6.8840   23.4590  -29.7730 O   0  0  0  0  0  0  0  0  0  0  0  0
   -4.5240   23.6600  -29.5760 C   0  0  0  0  0  0  0  0  0  0  0  0
   -4.2230   22.7340  -28.5610 C   0  0  0  0  0  0  0  0  0  0  0  0
   -3.0460   22.8520  -27.8180 C   0  0  0  0  0  0  0  0  0  0  0  0
   -2.1550   23.8960  -28.0750 C   0  0  0  0  0  0  0  0  0  0  0  0
   -0.9870   24.0060  -27.3300 O   0  0  0  0  0  0  0  0  0  0  0  0
   -2.4400   24.8260  -29.0790 C   0  0  0  0  0  0  0  0  0  0  0  0
   -1.5520   25.8650  -29.3340 O   0  0  0  0  0  0  0  0  0  0  0  0
   -3.6180   24.7130  -29.8310 C   0  0  0  0  0  0  0  0  0  0  0  0
   -3.8700   25.6390  -30.8390 O   0  0  0  0  0  0  0  0  0  0  0  0
   -3.0788   21.8501  -32.0109 H   0  0  0  0  0  0  0  0  0  0  0  0
   -2.9676   20.9448  -33.5584 H   0  0  0  0  0  0  0  0  0  0  0  0
   -3.4944   22.6621  -33.5584 H   0  0  0  0  0  0  0  0  0  0  0  0
   -3.7895   19.3033  -34.3996 H   0  0  0  0  0  0  0  0  0  0  0  0
   -4.1232   18.2941  -32.9225 H   0  0  0  0  0  0  0  0  0  0  0  0
   -4.7655   17.0525  -34.9172 H   0  0  0  0  0  0  0  0  0  0  0  0
   -6.2305   17.5095  -33.9756 H   0  0  0  0  0  0  0  0  0  0  0  0
   -6.8400   18.8240  -35.4660 H   0  0  0  0  0  0  0  0  0  0  0  0
   -8.0890   21.9540  -31.9810 H   0  0  0  0  0  0  0  0  0  0  0  0
   -4.7923   23.8393  -32.2398 H   0  0  0  0  0  0  0  0  0  0  0  0
   -6.5838   24.0811  -32.2582 H   0  0  0  0  0  0  0  0  0  0  0  0
   -4.9204   21.9098  -28.3505 H   0  0  0  0  0  0  0  0  0  0  0  0
   -2.8204   22.1204  -27.0282 H   0  0  0  0  0  0  0  0  0  0  0  0
  1  2  1  0
  2  3  2  0
  3  4  1  0
  4  5  1  0
  5  6  1  0
  3  7  1  0
  7  8  1  0
  8  9  2  0
  9 10  1  0
 10 11  1  0
 11 12  2  0
 11 13  1  0
 13 14  2  0
 14 15  1  0
 15 16  2  0
 16 17  1  0
 16 18  1  0
 18 19  1  0
 18 20  2  0
 20 21  1  0
  9  2  1  0
 20 13  1  0
  1 22  1  0
  1 23  1  0
  1 24  1  0
  4 25  1  0
  4 26  1  0
  5 27  1  0
  5 28  1  0
  6 29  1  0
  8 30  1  0
 10 31  1  0
 10 32  1  0
 14 33  1  0
 15 34  1  0
M  CHG  4   9   1  17  -1  19  -1  21  -1
M  END
>  <UniqueID>  (44) 
41

>  <SMILES>  (44) 
Cc1c(CCO)sc[n+]1CC(=O)c1ccc([O-])c([O-])c1[O-]

>  <Energy>  (44) 
64.56303508792148

>  <Genealogy>  (44) 
Cc1c(CCO)sc[n+]1CC(=O)c1ccc([O-])c([O-])c1[O-] (protonated)
Cc1c(CCO)sc[n+]1CC(=O)c1ccc([O-])c([O-])c1[O-] (3D coordinates assigned)
Cc1c(CCO)sc[n+]1CC(=O)c1ccc([O-])c([O-])c1[O-] (optimized conformer: 64.56303508792148 kcal/mol)

>  <smiles>  (44) 
Cc1c(CCO)sc[n+]1CC(=O)c1ccc(O)c(O)c1O

>  <score_type>  (44) 
oracle

>  <origin>  (44) 
adgpu

>  <m_score__min__energy>  (44) 
-13.359999999999999

>  <m_primary>  (44) 
energy

$$$$
44:0
     RDKit          3D

 39 41  0  0  0  0  0  0  0  0999 V2000
   -1.7760   24.2560  -30.1260 H   0  0  0  0  0  0  0  0  0  0  0  0
   -2.2820   23.3840  -30.0330 O   0  0  0  0  0  0  0  0  0  0  0  0
   -3.6120   23.2540  -30.4300 C   0  0  0  0  0  0  0  0  0  0  0  0
   -4.1670   21.9760  -30.5440 C   0  0  0  0  0  0  0  0  0  0  0  0
   -3.5535   21.0910  -30.3195 H   0  0  0  0  0  0  0  0  0  0  0  0
   -5.4980   21.8170  -30.9420 C   0  0  0  0  0  0  0  0  0  0  0  0
   -5.9298   20.8080  -31.0162 H   0  0  0  0  0  0  0  0  0  0  0  0
   -6.2880   22.9400  -31.2480 C   0  0  0  0  0  0  0  0  0  0  0  0
   -7.6960   22.7800  -31.6850 C   0  0  0  0  0  0  0  0  0  0  0  0
   -8.3890   23.8060  -31.9220 O   0  0  0  0  0  0  0  0  0  0  0  0
   -8.3140   21.4910  -31.8060 N   0  0  0  0  0  0  0  0  0  0  0  0
   -7.6670   20.3020  -32.2830 C   0  0  0  0  0  0  0  0  0  0  0  0
   -6.9130   20.3030  -33.4680 C   0  0  0  0  0  0  0  0  0  0  0  0
   -6.8420   21.2199  -34.0715 H   0  0  0  0  0  0  0  0  0  0  0  0
   -6.2530   19.1440  -33.8830 C   0  0  0  0  0  0  0  0  0  0  0  0
   -5.6604   19.1512  -34.8097 H   0  0  0  0  0  0  0  0  0  0  0  0
   -6.3450   17.9720  -33.1200 C   0  0  0  0  0  0  0  0  0  0  0  0
   -5.4300   16.5350  -33.5680 S   0  0  0  0  0  0  0  0  0  0  0  0
   -6.2150   15.6650  -34.5090 O   0  0  0  0  0  0  0  0  0  0  0  0
   -5.1240   15.7490  -32.3250 O   0  0  0  0  0  0  0  0  0  0  0  0
   -3.9390   17.0050  -34.3270 N   0  0  0  0  0  0  0  0  0  0  0  0
   -3.1320   17.9500  -33.9340 C   0  0  0  0  0  0  0  0  0  0  0  0
   -1.9890   18.1590  -34.6420 N   0  0  0  0  0  0  0  0  0  0  0  0
   -1.0840   19.1130  -34.2950 C   0  0  0  0  0  0  0  0  0  0  0  0
   -0.1719   19.2490  -34.8946 H   0  0  0  0  0  0  0  0  0  0  0  0
   -1.3110   19.9190  -33.1800 C   0  0  0  0  0  0  0  0  0  0  0  0
   -0.5811   20.6905  -32.8934 H   0  0  0  0  0  0  0  0  0  0  0  0
   -2.4730   19.7360  -32.4330 C   0  0  0  0  0  0  0  0  0  0  0  0
   -2.6641   20.3641  -31.5504 H   0  0  0  0  0  0  0  0  0  0  0  0
   -3.3950   18.7550  -32.8050 C   0  0  0  0  0  0  0  0  0  0  0  0
   -4.3175   18.6112  -32.2234 H   0  0  0  0  0  0  0  0  0  0  0  0
   -7.1330   17.9570  -31.9630 C   0  0  0  0  0  0  0  0  0  0  0  0
   -7.2278   17.0320  -31.3753 H   0  0  0  0  0  0  0  0  0  0  0  0
   -7.8000   19.1160  -31.5530 C   0  0  0  0  0  0  0  0  0  0  0  0
   -8.4318   19.0949  -30.6528 H   0  0  0  0  0  0  0  0  0  0  0  0
   -5.7320   24.2220  -31.1150 C   0  0  0  0  0  0  0  0  0  0  0  0
   -6.3475   25.1086  -31.3275 H   0  0  0  0  0  0  0  0  0  0  0  0
   -4.4000   24.3810  -30.7140 C   0  0  0  0  0  0  0  0  0  0  0  0
   -3.8680   25.6600  -30.6010 O   0  0  0  0  0  0  0  0  0  0  0  0
  1  2  1  0
  2  3  1  0
  3  4  2  0
  4  5  1  0
  4  6  1  0
  6  7  1  0
  6  8  2  0
  8  9  1  0
  9 10  2  0
  9 11  1  0
 11 12  1  0
 12 13  2  0
 13 14  1  0
 13 15  1  0
 15 16  1  0
 15 17  2  0
 17 18  1  0
 18 19  2  0
 18 20  2  0
 18 21  1  0
 21 22  2  0
 22 23  1  0
 23 24  1  0
 24 25  1  0
 24 26  2  0
 26 27  1  0
 26 28  1  0
 28 29  1  0
 28 30  2  0
 30 31  1  0
 17 32  1  0
 32 33  1  0
 32 34  2  0
 34 35  1  0
  8 36  1  0
 36 37  1  0
 36 38  2  0
 38 39  1  0
 38  3  1  0
 34 12  1  0
 30 22  1  0
M  CHG  3  11  -1  23  -1  39  -1
M  END
>  <UniqueID>  (45) 
42

>  <SMILES>  (45) 
O=C([N-]c1ccc(S(=O)(=O)/N=c2\cccc[n-]2)cc1)c1ccc(O)c([O-])c1

>  <Energy>  (45) 
54.66475520841045

>  <Genealogy>  (45) 
O=C([N-]c1ccc(S(=O)(=O)N=c2cccc[n-]2)cc1)c1ccc(O)c([O-])c1 (protonated)
O=C([N-]c1ccc(S(=O)(=O)/N=c2\cccc[n-]2)cc1)c1ccc(O)c([O-])c1 (cis-trans isomerization)
O=C([N-]c1ccc(S(=O)(=O)/N=c2\cccc[n-]2)cc1)c1ccc(O)c([O-])c1 (3D coordinates assigned)
O=C([N-]c1ccc(S(=O)(=O)/N=c2\cccc[n-]2)cc1)c1ccc(O)c([O-])c1 (optimized conformer: 54.66475520841045 kcal/mol)

>  <smiles>  (45) 
O=C(Nc1ccc(S(=O)(=O)N=c2cccc[nH]2)cc1)c1ccc(O)c(O)c1

>  <score_type>  (45) 
oracle

>  <origin>  (45) 
adgpu

>  <m_score__min__energy>  (45) 
-11.699999999999999

>  <m_primary>  (45) 
energy

$$$$
45:0
     RDKit          3D

 44 46  0  0  0  0  0  0  0  0999 V2000
   -8.9260   23.0660  -31.9710 C   0  0  0  0  0  0  0  0  0  0  0  0
   -9.2270   21.7990  -31.4420 O   0  0  0  0  0  0  0  0  0  0  0  0
   -8.5930   20.6570  -31.9090 C   0  0  0  0  0  0  0  0  0  0  0  0
   -7.4920   20.7720  -32.7310 C   0  0  0  0  0  0  0  0  0  0  0  0
   -6.8480   19.6420  -33.2060 C   0  0  0  0  0  0  0  0  0  0  0  0
   -7.3030   18.3850  -32.8610 C   0  0  0  0  0  0  0  0  0  0  0  0
   -6.5980   17.1850  -33.3810 C   0  0  0  0  0  0  0  0  0  0  0  0
   -5.2090   17.4810  -33.6720 N   0  0  0  0  0  0  0  0  0  0  0  0
   -4.1230   17.2100  -32.9340 C   0  0  0  0  0  0  0  0  0  0  0  0
   -3.0560   17.7000  -33.6570 C   0  0  0  0  0  0  0  0  0  0  0  0
   -1.6040   17.6700  -33.3110 C   0  0  0  0  0  0  0  0  0  0  0  0
   -0.9530   19.3090  -33.8060 S   0  0  0  0  0  0  0  0  0  0  0  0
   -2.0080   20.5180  -33.0250 C   0  0  0  0  0  0  0  0  0  0  0  0
   -1.6070   21.3270  -32.0390 N   0  0  0  0  0  0  0  0  0  0  0  0
   -2.4710   22.2130  -31.5060 C   0  0  0  0  0  0  0  0  0  0  0  0
   -2.1190   23.0180  -30.5420 N   0  0  0  0  0  0  0  0  0  0  0  0
   -3.7720   22.3120  -31.9530 C   0  0  0  0  0  0  0  0  0  0  0  0
   -4.8800   23.4690  -31.2470 S   0  0  0  0  0  0  0  0  0  0  0  0
   -4.1000   24.9500  -30.8590 N   0  0  0  0  0  0  0  0  0  0  0  0
   -5.5160   22.8760  -30.0180 O   0  0  0  0  0  0  0  0  0  0  0  0
   -5.9450   23.7920  -32.2680 O   0  0  0  0  0  0  0  0  0  0  0  0
   -4.1620   21.4750  -32.9630 C   0  0  0  0  0  0  0  0  0  0  0  0
   -3.2800   20.6050  -33.4720 N   0  0  0  0  0  0  0  0  0  0  0  0
   -3.5270   18.2500  -34.8080 N   0  0  0  0  0  0  0  0  0  0  0  0
   -4.8370   18.1070  -34.7980 N   0  0  0  0  0  0  0  0  0  0  0  0
   -8.4080   18.2450  -32.0370 C   0  0  0  0  0  0  0  0  0  0  0  0
   -9.0440   19.3890  -31.5690 C   0  0  0  0  0  0  0  0  0  0  0  0
   -8.7573   23.7762  -31.1482 H   0  0  0  0  0  0  0  0  0  0  0  0
   -8.0188   22.9990  -32.5894 H   0  0  0  0  0  0  0  0  0  0  0  0
   -9.7664   23.4142  -32.5894 H   0  0  0  0  0  0  0  0  0  0  0  0
   -7.1223   21.7693  -33.0116 H   0  0  0  0  0  0  0  0  0  0  0  0
   -5.9703   19.7462  -33.8609 H   0  0  0  0  0  0  0  0  0  0  0  0
   -6.6446   16.3859  -32.6265 H   0  0  0  0  0  0  0  0  0  0  0  0
   -7.0899   16.8669  -34.3120 H   0  0  0  0  0  0  0  0  0  0  0  0
   -4.0901   16.7037  -31.9580 H   0  0  0  0  0  0  0  0  0  0  0  0
   -1.4688   17.5123  -32.2308 H   0  0  0  0  0  0  0  0  0  0  0  0
   -1.0784   16.8495  -33.8215 H   0  0  0  0  0  0  0  0  0  0  0  0
   -1.1330   22.9310  -30.2160 H   0  0  0  0  0  0  0  0  0  0  0  0
   -4.1860   25.6590  -31.6000 H   0  0  0  0  0  0  0  0  0  0  0  0
   -3.1040   24.8150  -30.5830 H   0  0  0  0  0  0  0  0  0  0  0  0
   -5.1897   21.5163  -33.3530 H   0  0  0  0  0  0  0  0  0  0  0  0
   -3.6140   19.9770  -34.2480 H   0  0  0  0  0  0  0  0  0  0  0  0
   -8.7754   17.2464  -31.7581 H   0  0  0  0  0  0  0  0  0  0  0  0
   -9.9230   19.2873  -30.9156 H   0  0  0  0  0  0  0  0  0  0  0  0
  1  2  1  0
  2  3  1  0
  3  4  2  0
  4  5  1  0
  5  6  2  0
  6  7  1  0
  7  8  1  0
  8  9  1  0
  9 10  2  0
 10 11  1  0
 11 12  1  0
 12 13  1  0
 13 14  2  0
 14 15  1  0
 15 16  2  3
 15 17  1  0
 17 18  1  0
 18 19  1  0
 18 20  2  0
 18 21  2  0
 17 22  2  0
 22 23  1  0
 10 24  1  0
 24 25  2  0
  6 26  1  0
 26 27  2  0
 27  3  1  0
 25  8  1  0
 23 13  1  0
  1 28  1  0
  1 29  1  0
  1 30  1  0
  4 31  1  0
  5 32  1  0
  7 33  1  0
  7 34  1  0
  9 35  1  0
 11 36  1  0
 11 37  1  0
 16 38  1  0
 19 39  1  0
 19 40  1  0
 22 41  1  0
 23 42  1  0
 26 43  1  0
 27 44  1  0
M  END
>  <smiles>  (46) 
COc1ccc(Cn2cc(CSc3nc(=N)c(S(N)(=O)=O)c[nH]3)nn2)cc1

>  <score_type>  (46) 
oracle

>  <origin>  (46) 
adgpu

>  <m_score__min__energy>  (46) 
-9.1600000000000001

>  <m_primary>  (46) 
energy

$$$$
46:0
     RDKit          3D

 51 54  0  0  0  0  0  0  0  0999 V2000
   -4.1666   20.9792  -32.6526 H   0  0  0  0  0  0  0  0  0  0  0  0
   -5.0450   21.3250  -32.0880 C   0  0  0  0  0  0  0  0  0  0  0  0
   -6.1460   20.5560  -32.0940 C   0  0  0  0  0  0  0  0  0  0  0  0
   -7.0232   20.9028  -31.5281 H   0  0  0  0  0  0  0  0  0  0  0  0
   -6.2480   19.2650  -32.8200 C   0  0  0  0  0  0  0  0  0  0  0  0
   -5.6480   19.1590  -34.0870 C   0  0  0  0  0  0  0  0  0  0  0  0
   -5.1120   20.0216  -34.5097 H   0  0  0  0  0  0  0  0  0  0  0  0
   -5.7260   17.9680  -34.8150 C   0  0  0  0  0  0  0  0  0  0  0  0
   -5.2454   17.8947  -35.8017 H   0  0  0  0  0  0  0  0  0  0  0  0
   -6.4130   16.8720  -34.2910 C   0  0  0  0  0  0  0  0  0  0  0  0
   -6.4706   15.9342  -34.8630 H   0  0  0  0  0  0  0  0  0  0  0  0
   -7.0270   16.9660  -33.0410 C   0  0  0  0  0  0  0  0  0  0  0  0
   -7.5708   16.1022  -32.6310 H   0  0  0  0  0  0  0  0  0  0  0  0
   -6.9530   18.1550  -32.3080 C   0  0  0  0  0  0  0  0  0  0  0  0
   -7.4468   18.2251  -31.3276 H   0  0  0  0  0  0  0  0  0  0  0  0
   -4.9480   22.6150  -31.3620 C   0  0  0  0  0  0  0  0  0  0  0  0
   -5.5650   23.7480  -31.9120 C   0  0  0  0  0  0  0  0  0  0  0  0
   -6.1119   23.6647  -32.8628 H   0  0  0  0  0  0  0  0  0  0  0  0
   -5.4920   24.9470  -31.2790 N   0  0  0  0  0  0  0  0  0  0  0  0
   -4.8450   25.0940  -30.0940 C   0  0  0  0  0  0  0  0  0  0  0  0
   -4.7918   26.0846  -29.6187 H   0  0  0  0  0  0  0  0  0  0  0  0
   -4.2470   23.9940  -29.4760 C   0  0  0  0  0  0  0  0  0  0  0  0
   -3.5930   24.1840  -28.2500 O   0  0  0  0  0  0  0  0  0  0  0  0
   -2.3540   24.8220  -28.0830 C   0  0  0  0  0  0  0  0  0  0  0  0
   -1.9590   25.6740  -28.9250 O   0  0  0  0  0  0  0  0  0  0  0  0
   -1.5110   24.4730  -26.9160 C   0  0  0  0  0  0  0  0  0  0  0  0
   -1.2880   23.1360  -26.5000 C   0  0  0  0  0  0  0  0  0  0  0  0
   -2.0020   22.0390  -27.0950 N   0  0  0  0  0  0  0  0  0  0  0  0
   -3.0040   22.1890  -27.3530 H   0  0  0  0  0  0  0  0  0  0  0  0
   -1.4720   20.7060  -27.1910 C   0  0  0  0  0  0  0  0  0  0  0  0
   -0.2060   20.5050  -27.7620 C   0  0  0  0  0  0  0  0  0  0  0  0
    0.3620   21.3649  -28.1465 H   0  0  0  0  0  0  0  0  0  0  0  0
    0.3390   19.2200  -27.8460 C   0  0  0  0  0  0  0  0  0  0  0  0
    1.3279   19.0731  -28.3047 H   0  0  0  0  0  0  0  0  0  0  0  0
   -0.3700   18.1190  -27.3480 C   0  0  0  0  0  0  0  0  0  0  0  0
    0.1900   16.8060  -27.4290 N   0  0  0  0  0  0  0  0  0  0  0  0
   -0.0390   16.0810  -26.7130 H   0  0  0  0  0  0  0  0  0  0  0  0
    0.8330   16.5460  -28.2100 H   0  0  0  0  0  0  0  0  0  0  0  0
   -1.6260   18.3150  -26.7600 C   0  0  0  0  0  0  0  0  0  0  0  0
   -2.1848   17.4546  -26.3631 H   0  0  0  0  0  0  0  0  0  0  0  0
   -2.1730   19.5990  -26.6750 C   0  0  0  0  0  0  0  0  0  0  0  0
   -3.1557   19.7451  -26.2028 H   0  0  0  0  0  0  0  0  0  0  0  0
   -0.4500   22.8900  -25.4540 N   0  0  0  0  0  0  0  0  0  0  0  0
    0.1940   23.8830  -24.7880 C   0  0  0  0  0  0  0  0  0  0  0  0
    0.8761   23.6384  -23.9604 H   0  0  0  0  0  0  0  0  0  0  0  0
   -0.0100   25.2120  -25.1540 C   0  0  0  0  0  0  0  0  0  0  0  0
    0.4988   26.0220  -24.6108 H   0  0  0  0  0  0  0  0  0  0  0  0
   -0.8650   25.5050  -26.2150 C   0  0  0  0  0  0  0  0  0  0  0  0
   -1.0353   26.5521  -26.5057 H   0  0  0  0  0  0  0  0  0  0  0  0
   -4.2900   22.7490  -30.1240 C   0  0  0  0  0  0  0  0  0  0  0  0
   -3.8077   21.8746  -29.6627 H   0  0  0  0  0  0  0  0  0  0  0  0
  1  2  1  0
  2  3  2  0
  3  4  1  0
  3  5  1  0
  5  6  2  0
  6  7  1  0
  6  8  1  0
  8  9  1  0
  8 10  2  0
 10 11  1  0
 10 12  1  0
 12 13  1  0
 12 14  2  0
 14 15  1  0
  2 16  1  0
 16 17  2  0
 17 18  1  0
 17 19  1  0
 19 20  2  0
 20 21  1  0
 20 22  1  0
 22 23  1  0
 23 24  1  0
 24 25  2  0
 24 26  1  0
 26 27  1  0
 27 28  1  0
 28 29  1  0
 28 30  1  0
 30 31  2  0
 31 32  1  0
 31 33  1  0
 33 34  1  0
 33 35  2  0
 35 36  1  0
 36 37  1  0
 36 38  1  0
 35 39  1  0
 39 40  1  0
 39 41  2  0
 41 42  1  0
 27 43  2  0
 43 44  1  0
 44 45  1  0
 44 46  2  0
 46 47  1  0
 46 48  1  0
 48 49  1  0
 22 50  2  0
 50 51  1  0
 14  5  1  0
 50 16  1  0
 48 26  2  0
 41 30  1  0
M  END
>  <UniqueID>  (47) 
43

>  <SMILES>  (47) 
Nc1ccc(Nc2ncccc2C(=O)Oc2cncc(/C=C/c3ccccc3)c2)cc1

>  <Energy>  (47) 
74.45577042987512

>  <Genealogy>  (47) 
Nc1ccc(Nc2ncccc2C(=O)Oc2cncc(/C=C/c3ccccc3)c2)cc1 (cis-trans isomerization)
Nc1ccc(Nc2ncccc2C(=O)Oc2cncc(/C=C/c3ccccc3)c2)cc1 (3D coordinates assigned)
Nc1ccc(Nc2ncccc2C(=O)Oc2cncc(/C=C/c3ccccc3)c2)cc1 (optimized conformer: 74.45577042987512 kcal/mol)

>  <smiles>  (47) 
Nc1ccc(Nc2ncccc2C(=O)Oc2cncc(C=Cc3ccccc3)c2)cc1

>  <score_type>  (47) 
oracle

>  <origin>  (47) 
adgpu

>  <m_score__min__energy>  (47) 
-9.7899999999999991

>  <m_primary>  (47) 
energy

$$$$
47:0
     RDKit          3D

 57 61  0  0  0  0  0  0  0  0999 V2000
   -5.4230   26.4590  -30.3790 O   0  0  0  0  0  0  0  0  0  0  0  0
   -4.9840   25.2990  -30.5990 C   0  0  0  0  0  0  0  0  0  0  0  0
   -3.5810   25.0220  -30.4650 N   0  0  0  0  0  0  0  0  0  0  0  0
   -2.9260   24.4080  -29.3470 C   0  0  0  0  0  0  0  0  0  0  0  0
   -3.5160   23.2800  -28.7620 C   0  0  0  0  0  0  0  0  0  0  0  0
   -2.9020   22.6360  -27.6820 C   0  0  0  0  0  0  0  0  0  0  0  0
   -1.6810   23.1070  -27.1910 C   0  0  0  0  0  0  0  0  0  0  0  0
   -1.0710   24.2180  -27.7820 C   0  0  0  0  0  0  0  0  0  0  0  0
   -1.6850   24.8650  -28.8600 C   0  0  0  0  0  0  0  0  0  0  0  0
   -5.9230   24.2040  -30.9390 C   0  0  0  0  0  0  0  0  0  0  0  0
   -6.0250   23.7340  -32.2610 C   0  0  0  0  0  0  0  0  0  0  0  0
   -6.9180   22.7080  -32.5830 C   0  0  0  0  0  0  0  0  0  0  0  0
   -7.7310   22.1390  -31.5890 C   0  0  0  0  0  0  0  0  0  0  0  0
   -8.6520   21.0790  -31.8850 N   0  0  0  0  0  0  0  0  0  0  0  0
   -8.3710   19.6730  -31.8360 C   0  0  0  0  0  0  0  0  0  0  0  0
   -9.2350   18.9040  -31.3390 O   0  0  0  0  0  0  0  0  0  0  0  0
   -7.1270   19.1000  -32.4010 C   0  0  0  0  0  0  0  0  0  0  0  0
   -6.5310   17.9790  -31.7980 C   0  0  0  0  0  0  0  0  0  0  0  0
   -5.3630   17.4240  -32.3290 C   0  0  0  0  0  0  0  0  0  0  0  0
   -4.7750   17.9780  -33.4800 C   0  0  0  0  0  0  0  0  0  0  0  0
   -3.5910   17.4270  -34.0720 N   0  0  0  0  0  0  0  0  0  0  0  0
   -1.9690   17.9370  -33.7270 S   0  0  0  0  0  0  0  0  0  0  0  0
   -1.3110   16.9010  -32.8610 O   0  0  0  0  0  0  0  0  0  0  0  0
   -1.2120   18.0510  -35.0210 O   0  0  0  0  0  0  0  0  0  0  0  0
   -1.9700   19.4810  -32.8650 C   0  0  0  0  0  0  0  0  0  0  0  0
   -2.7540   20.5420  -33.3440 C   0  0  0  0  0  0  0  0  0  0  0  0
   -2.7680   21.7730  -32.6830 C   0  0  0  0  0  0  0  0  0  0  0  0
   -2.0060   21.9610  -31.5280 C   0  0  0  0  0  0  0  0  0  0  0  0
   -1.2270   20.9100  -31.0240 C   0  0  0  0  0  0  0  0  0  0  0  0
   -0.4650   21.0720  -29.8590 C   0  0  0  0  0  0  0  0  0  0  0  0
    0.2940   20.0060  -29.3730 C   0  0  0  0  0  0  0  0  0  0  0  0
    0.2840   18.7870  -30.0550 C   0  0  0  0  0  0  0  0  0  0  0  0
   -0.4580   18.6430  -31.1850 N   0  0  0  0  0  0  0  0  0  0  0  0
   -1.2090   19.6610  -31.6910 C   0  0  0  0  0  0  0  0  0  0  0  0
   -5.3720   19.0890  -34.0850 C   0  0  0  0  0  0  0  0  0  0  0  0
   -6.5410   19.6430  -33.5580 C   0  0  0  0  0  0  0  0  0  0  0  0
   -7.6100   22.5820  -30.2690 C   0  0  0  0  0  0  0  0  0  0  0  0
   -6.7230   23.6120  -29.9450 C   0  0  0  0  0  0  0  0  0  0  0  0
   -4.4696   22.8975  -29.1548 H   0  0  0  0  0  0  0  0  0  0  0  0
   -3.3799   21.7597  -27.2197 H   0  0  0  0  0  0  0  0  0  0  0  0
   -1.1998   22.6036  -26.3395 H   0  0  0  0  0  0  0  0  0  0  0  0
   -0.1070   24.5838  -27.3988 H   0  0  0  0  0  0  0  0  0  0  0  0
   -1.1977   25.7327  -29.3287 H   0  0  0  0  0  0  0  0  0  0  0  0
   -5.3969   24.1775  -33.0477 H   0  0  0  0  0  0  0  0  0  0  0  0
   -6.9843   22.3447  -33.6192 H   0  0  0  0  0  0  0  0  0  0  0  0
   -6.9873   17.5348  -30.9011 H   0  0  0  0  0  0  0  0  0  0  0  0
   -4.9021   16.5505  -31.8446 H   0  0  0  0  0  0  0  0  0  0  0  0
   -3.3637   20.4031  -34.2490 H   0  0  0  0  0  0  0  0  0  0  0  0
   -3.3820   22.5976  -33.0742 H   0  0  0  0  0  0  0  0  0  0  0  0
   -2.0170   22.9334  -31.0138 H   0  0  0  0  0  0  0  0  0  0  0  0
   -0.4650   22.0361  -29.3293 H   0  0  0  0  0  0  0  0  0  0  0  0
    0.8955   20.1251  -28.4597 H   0  0  0  0  0  0  0  0  0  0  0  0
    0.8778   17.9417  -29.6769 H   0  0  0  0  0  0  0  0  0  0  0  0
   -4.9168   19.5304  -34.9839 H   0  0  0  0  0  0  0  0  0  0  0  0
   -7.0059   20.5094  -34.0512 H   0  0  0  0  0  0  0  0  0  0  0  0
   -8.2176   22.1163  -29.4791 H   0  0  0  0  0  0  0  0  0  0  0  0
   -6.6498   23.9624  -28.9049 H   0  0  0  0  0  0  0  0  0  0  0  0
  1  2  2  0
  2  3  1  0
  3  4  1  0
  4  5  2  0
  5  6  1  0
  6  7  2  0
  7  8  1  0
  8  9  2  0
  2 10  1  0
 10 11  2  0
 11 12  1  0
 12 13  2  0
 13 14  1  0
 14 15  1  0
 15 16  2  0
 15 17  1  0
 17 18  2  0
 18 19  1  0
 19 20  2  0
 20 21  1  0
 21 22  1  0
 22 23  2  0
 22 24  2  0
 22 25  1  0
 25 26  2  0
 26 27  1  0
 27 28  2  0
 28 29  1  0
 29 30  2  0
 30 31  1  0
 31 32  2  0
 32 33  1  0
 33 34  2  0
 20 35  1  0
 35 36  2  0
 13 37  1  0
 37 38  2  0
  9  4  1  0
 38 10  1  0
 36 17  1  0
 34 25  1  0
 34 29  1  0
  5 39  1  0
  6 40  1  0
  7 41  1  0
  8 42  1  0
  9 43  1  0
 11 44  1  0
 12 45  1  0
 18 46  1  0
 19 47  1  0
 26 48  1  0
 27 49  1  0
 28 50  1  0
 30 51  1  0
 31 52  1  0
 32 53  1  0
 35 54  1  0
 36 55  1  0
 37 56  1  0
 38 57  1  0
M  CHG  3   3  -1  14  -1  21  -1
M  END
>  <UniqueID>  (48) 
44

>  <SMILES>  (48) 
O=C([N-]c1ccccc1)c1ccc([N-]C(=O)c2ccc([N-]S(=O)(=O)c3cccc4cccnc34)cc2)cc1

>  <Energy>  (48) 
82.9928582016573

>  <Genealogy>  (48) 
O=C([N-]c1ccccc1)c1ccc([N-]C(=O)c2ccc([N-]S(=O)(=O)c3cccc4cccnc34)cc2)cc1 (protonated)
O=C([N-]c1ccccc1)c1ccc([N-]C(=O)c2ccc([N-]S(=O)(=O)c3cccc4cccnc34)cc2)cc1 (3D coordinates assigned)
O=C([N-]c1ccccc1)c1ccc([N-]C(=O)c2ccc([N-]S(=O)(=O)c3cccc4cccnc34)cc2)cc1 (optimized conformer: 82.9928582016573 kcal/mol)

>  <smiles>  (48) 
O=C(Nc1ccccc1)c1ccc(NC(=O)c2ccc(NS(=O)(=O)c3cccc4cccnc34)cc2)cc1

>  <score_type>  (48) 
oracle

>  <origin>  (48) 
adgpu

>  <m_score__min__energy>  (48) 
-12.640000000000001

>  <m_primary>  (48) 
energy

$$$$
48:0
     RDKit          3D

 53 57  0  0  0  0  0  0  0  0999 V2000
   -2.7630   20.2530  -28.5580 C   0  0  0  0  0  0  0  0  0  0  0  0
   -3.6410   20.5000  -29.6510 O   0  0  0  0  0  0  0  0  0  0  0  0
   -3.2300   20.9320  -30.9230 C   0  0  0  0  0  0  0  0  0  0  0  0
   -1.8670   21.0360  -31.2670 C   0  0  0  0  0  0  0  0  0  0  0  0
   -1.4910   21.4950  -32.5320 C   0  0  0  0  0  0  0  0  0  0  0  0
   -2.4630   21.8540  -33.4660 C   0  0  0  0  0  0  0  0  0  0  0  0
   -3.8170   21.7490  -33.1400 C   0  0  0  0  0  0  0  0  0  0  0  0
   -4.2100   21.2820  -31.8750 C   0  0  0  0  0  0  0  0  0  0  0  0
   -5.6520   21.1530  -31.5650 C   0  0  0  0  0  0  0  0  0  0  0  0
   -6.4530   22.1590  -31.0270 C   0  0  0  0  0  0  0  0  0  0  0  0
   -6.0270   23.5050  -30.5960 C   0  0  0  0  0  0  0  0  0  0  0  0
   -6.7890   24.4860  -30.8100 O   0  0  0  0  0  0  0  0  0  0  0  0
   -4.7400   23.7270  -29.9100 C   0  0  0  0  0  0  0  0  0  0  0  0
   -4.2570   23.0520  -28.7960 C   0  0  0  0  0  0  0  0  0  0  0  0
   -3.0700   23.5760  -28.4200 N   0  0  0  0  0  0  0  0  0  0  0  0
   -2.2950   23.1910  -27.2440 C   0  0  0  0  0  0  0  0  0  0  0  0
   -1.8640   24.4110  -26.4970 C   0  0  0  0  0  0  0  0  0  0  0  0
   -2.6980   25.4070  -26.0290 C   0  0  0  0  0  0  0  0  0  0  0  0
   -1.8690   26.3380  -25.4440 C   0  0  0  0  0  0  0  0  0  0  0  0
   -0.5840   25.8570  -25.5950 C   0  0  0  0  0  0  0  0  0  0  0  0
   -0.6130   24.7080  -26.2300 O   0  0  0  0  0  0  0  0  0  0  0  0
   -2.8050   24.5940  -29.2610 C   0  0  0  0  0  0  0  0  0  0  0  0
   -1.6830   25.4110  -29.1780 O   0  0  0  0  0  0  0  0  0  0  0  0
   -3.8100   24.7130  -30.1900 C   0  0  0  0  0  0  0  0  0  0  0  0
   -3.8790   25.6560  -31.2070 O   0  0  0  0  0  0  0  0  0  0  0  0
   -7.7070   21.5980  -30.8690 C   0  0  0  0  0  0  0  0  0  0  0  0
   -8.8270   22.2040  -30.3140 O   0  0  0  0  0  0  0  0  0  0  0  0
   -7.6360   20.3050  -31.3270 C   0  0  0  0  0  0  0  0  0  0  0  0
   -8.6980   19.4100  -31.3640 O   0  0  0  0  0  0  0  0  0  0  0  0
   -6.3870   20.0250  -31.7560 N   0  0  0  0  0  0  0  0  0  0  0  0
   -5.9590   18.7850  -32.3480 C   0  0  0  0  0  0  0  0  0  0  0  0
   -6.0210   17.5890  -31.6190 C   0  0  0  0  0  0  0  0  0  0  0  0
   -5.5800   16.3970  -32.1940 C   0  0  0  0  0  0  0  0  0  0  0  0
   -5.0870   16.4090  -33.4990 C   0  0  0  0  0  0  0  0  0  0  0  0
   -5.0400   17.5730  -34.1990 N   0  0  0  0  0  0  0  0  0  0  0  0
   -5.4610   18.7470  -33.6590 C   0  0  0  0  0  0  0  0  0  0  0  0
   -3.3034   20.4050  -27.6120 H   0  0  0  0  0  0  0  0  0  0  0  0
   -2.3968   19.2170  -28.6087 H   0  0  0  0  0  0  0  0  0  0  0  0
   -1.9104   20.9461  -28.6087 H   0  0  0  0  0  0  0  0  0  0  0  0
   -1.0952   20.7543  -30.5356 H   0  0  0  0  0  0  0  0  0  0  0  0
   -0.4251   21.5735  -32.7922 H   0  0  0  0  0  0  0  0  0  0  0  0
   -2.1631   22.2197  -34.4591 H   0  0  0  0  0  0  0  0  0  0  0  0
   -4.5806   22.0339  -33.8788 H   0  0  0  0  0  0  0  0  0  0  0  0
   -4.7655   22.2153  -28.2946 H   0  0  0  0  0  0  0  0  0  0  0  0
   -2.9152   22.5621  -26.5884 H   0  0  0  0  0  0  0  0  0  0  0  0
   -1.4051   22.6296  -27.5648 H   0  0  0  0  0  0  0  0  0  0  0  0
   -3.7945   25.4481  -26.1071 H   0  0  0  0  0  0  0  0  0  0  0  0
   -2.1702   27.2761  -24.9549 H   0  0  0  0  0  0  0  0  0  0  0  0
    0.3265   26.3601  -25.2375 H   0  0  0  0  0  0  0  0  0  0  0  0
   -6.4176   17.5906  -30.5930 H   0  0  0  0  0  0  0  0  0  0  0  0
   -5.6206   15.4570  -31.6241 H   0  0  0  0  0  0  0  0  0  0  0  0
   -4.7358   15.4751  -33.9621 H   0  0  0  0  0  0  0  0  0  0  0  0
   -5.4110   19.6717  -34.2526 H   0  0  0  0  0  0  0  0  0  0  0  0
  1  2  1  0
  2  3  1  0
  3  4  2  0
  4  5  1  0
  5  6  2  0
  6  7  1  0
  7  8  2  0
  8  9  1  0
  9 10  2  0
 10 11  1  0
 11 12  2  0
 11 13  1  0
 13 14  2  0
 14 15  1  0
 15 16  1  0
 16 17  1  0
 17 18  2  0
 18 19  1  0
 19 20  2  0
 20 21  1  0
 15 22  1  0
 22 23  1  0
 22 24  2  0
 24 25  1  0
 10 26  1  0
 26 27  1  0
 26 28  2  0
 28 29  1  0
 28 30  1  0
 30 31  1  0
 31 32  2  0
 32 33  1  0
 33 34  2  0
 34 35  1  0
 35 36  2  0
  8  3  1  0
 30  9  1  0
 36 31  1  0
 24 13  1  0
 21 17  1  0
  1 37  1  0
  1 38  1  0
  1 39  1  0
  4 40  1  0
  5 41  1  0
  6 42  1  0
  7 43  1  0
 14 44  1  0
 16 45  1  0
 16 46  1  0
 18 47  1  0
 19 48  1  0
 20 49  1  0
 32 50  1  0
 33 51  1  0
 34 52  1  0
 36 53  1  0
M  CHG  4  23  -1  25  -1  27  -1  29  -1
M  END
>  <UniqueID>  (49) 
45

>  <SMILES>  (49) 
COc1ccccc1-c1c(C(=O)c2cn(Cc3ccco3)c([O-])c2[O-])c([O-])c([O-])n1-c1cccnc1

>  <Energy>  (49) 
156.55755648313334

>  <Genealogy>  (49) 
COc1ccccc1-c1c(C(=O)c2cn(Cc3ccco3)c([O-])c2[O-])c([O-])c([O-])n1-c1cccnc1 (protonated)
COc1ccccc1-c1c(C(=O)c2cn(Cc3ccco3)c([O-])c2[O-])c([O-])c([O-])n1-c1cccnc1 (3D coordinates assigned)
COc1ccccc1-c1c(C(=O)c2cn(Cc3ccco3)c([O-])c2[O-])c([O-])c([O-])n1-c1cccnc1 (optimized conformer: 156.55755648313334 kcal/mol)

>  <smiles>  (49) 
COc1ccccc1-c1c(C(=O)c2cn(Cc3ccco3)c(O)c2O)c(O)c(O)n1-c1cccnc1

>  <score_type>  (49) 
oracle

>  <origin>  (49) 
adgpu

>  <m_score__min__energy>  (49) 
-14.369999999999999

>  <m_primary>  (49) 
energy

$$$$
