0:0
     RDKit          3D

 57 59  0  0  0  0  0  0  0  0999 V2000
   -3.6490   18.2320  -33.7130 C   0  0  0  0  0  0  0  0  0  0  0  0
   -4.8240   17.6470  -33.1590 O   0  0  0  0  0  0  0  0  0  0  0  0
   -5.9940   18.3550  -32.8510 C   0  0  0  0  0  0  0  0  0  0  0  0
   -7.2160   17.7150  -32.6070 C   0  0  0  0  0  0  0  0  0  0  0  0
   -8.3530   18.4610  -32.2900 C   0  0  0  0  0  0  0  0  0  0  0  0
   -8.2930   19.8660  -32.2240 C   0  0  0  0  0  0  0  0  0  0  0  0
   -9.4200   20.6400  -31.9020 O   0  0  0  0  0  0  0  0  0  0  0  0
   -9.4980   21.5360  -30.8000 C   0  0  0  0  0  0  0  0  0  0  0  0
   -7.0750   20.5190  -32.4910 C   0  0  0  0  0  0  0  0  0  0  0  0
   -6.9980   21.9540  -32.3840 N   0  0  0  0  0  0  0  0  0  0  0  0
   -5.7790   22.7050  -32.4830 C   0  0  0  0  0  0  0  0  0  0  0  0
   -4.7820   22.2230  -33.0800 O   0  0  0  0  0  0  0  0  0  0  0  0
   -5.6810   24.0860  -31.8830 C   0  0  0  0  0  0  0  0  0  0  0  0
   -4.6410   24.1990  -30.8370 N   0  0  0  0  0  0  0  0  0  0  0  0
   -3.7360   23.0410  -30.7910 C   0  0  0  0  0  0  0  0  0  0  0  0
   -2.4980   23.4130  -29.9760 C   0  0  0  0  0  0  0  0  0  0  0  0
   -2.8740   24.1160  -28.7440 N   0  0  0  0  0  0  0  0  0  0  0  0
   -1.8490   24.4140  -27.7820 C   0  0  0  0  0  0  0  0  0  0  0  0
   -1.3140   25.7050  -27.7450 C   0  0  0  0  0  0  0  0  0  0  0  0
   -0.3410   26.0440  -26.8060 C   0  0  0  0  0  0  0  0  0  0  0  0
    0.1010   25.1000  -25.8840 C   0  0  0  0  0  0  0  0  0  0  0  0
   -0.4180   23.7950  -25.8980 C   0  0  0  0  0  0  0  0  0  0  0  0
    0.0910   22.8050  -24.8860 C   0  0  0  0  0  0  0  0  0  0  0  0
   -1.3790   23.4320  -26.8790 C   0  0  0  0  0  0  0  0  0  0  0  0
   -1.9190   22.0250  -26.9380 C   0  0  0  0  0  0  0  0  0  0  0  0
   -4.2770   24.1750  -28.3330 C   0  0  0  0  0  0  0  0  0  0  0  0
   -5.1930   24.5640  -29.5110 C   0  0  0  0  0  0  0  0  0  0  0  0
   -5.9320   19.7510  -32.7830 C   0  0  0  0  0  0  0  0  0  0  0  0
   -2.9856   18.5623  -32.9001 H   0  0  0  0  0  0  0  0  0  0  0  0
   -3.1268   17.4887  -34.3333 H   0  0  0  0  0  0  0  0  0  0  0  0
   -3.9274   19.0967  -34.3333 H   0  0  0  0  0  0  0  0  0  0  0  0
   -7.2802   16.6184  -32.6655 H   0  0  0  0  0  0  0  0  0  0  0  0
   -9.3043   17.9462  -32.0900 H   0  0  0  0  0  0  0  0  0  0  0  0
   -9.4484   20.9665  -29.8602 H   0  0  0  0  0  0  0  0  0  0  0  0
   -8.6582   22.2451  -30.8438 H   0  0  0  0  0  0  0  0  0  0  0  0
  -10.4477   22.0893  -30.8438 H   0  0  0  0  0  0  0  0  0  0  0  0
   -7.8810   22.4910  -32.2500 H   0  0  0  0  0  0  0  0  0  0  0  0
   -5.4465   24.7996  -32.6866 H   0  0  0  0  0  0  0  0  0  0  0  0
   -6.6478   24.3019  -31.4047 H   0  0  0  0  0  0  0  0  0  0  0  0
   -4.2482   22.1905  -30.3173 H   0  0  0  0  0  0  0  0  0  0  0  0
   -3.4394   22.7588  -31.8120 H   0  0  0  0  0  0  0  0  0  0  0  0
   -1.9501   22.4958  -29.7144 H   0  0  0  0  0  0  0  0  0  0  0  0
   -1.8656   24.0788  -30.5816 H   0  0  0  0  0  0  0  0  0  0  0  0
   -1.6641   26.4606  -28.4637 H   0  0  0  0  0  0  0  0  0  0  0  0
    0.0786   27.0607  -26.7938 H   0  0  0  0  0  0  0  0  0  0  0  0
    0.8617   25.3777  -25.1395 H   0  0  0  0  0  0  0  0  0  0  0  0
   -0.1039   23.1841  -23.8720 H   0  0  0  0  0  0  0  0  0  0  0  0
   -0.4242   21.8428  -25.0230 H   0  0  0  0  0  0  0  0  0  0  0  0
    1.1733   22.6642  -25.0230 H   0  0  0  0  0  0  0  0  0  0  0  0
   -2.0648   21.6451  -25.9160 H   0  0  0  0  0  0  0  0  0  0  0  0
   -2.8815   22.0237  -27.4705 H   0  0  0  0  0  0  0  0  0  0  0  0
   -1.2045   21.3801  -27.4705 H   0  0  0  0  0  0  0  0  0  0  0  0
   -4.5807   23.1879  -27.9544 H   0  0  0  0  0  0  0  0  0  0  0  0
   -4.3762   24.9411  -27.5499 H   0  0  0  0  0  0  0  0  0  0  0  0
   -6.1590   24.0534  -29.3838 H   0  0  0  0  0  0  0  0  0  0  0  0
   -5.2935   25.6593  -29.4936 H   0  0  0  0  0  0  0  0  0  0  0  0
   -4.9722   20.2579  -32.9610 H   0  0  0  0  0  0  0  0  0  0  0  0
  1  2  1  0
  2  3  1  0
  3  4  2  0
  4  5  1  0
  5  6  2  0
  6  7  1  0
  7  8  1  0
  6  9  1  0
  9 10  1  0
 10 11  1  0
 11 12  2  0
 11 13  1  0
 13 14  1  0
 14 15  1  0
 15 16  1  0
 16 17  1  0
 17 18  1  0
 18 19  2  0
 19 20  1  0
 20 21  2  0
 21 22  1  0
 22 23  1  0
 22 24  2  0
 24 25  1  0
 17 26  1  0
 26 27  1  0
  9 28  2  0
 28  3  1  0
 27 14  1  0
 24 18  1  0
  1 29  1  0
  1 30  1  0
  1 31  1  0
  4 32  1  0
  5 33  1  0
  8 34  1  0
  8 35  1  0
  8 36  1  0
 10 37  1  0
 13 38  1  0
 13 39  1  0
 15 40  1  0
 15 41  1  0
 16 42  1  0
 16 43  1  0
 19 44  1  0
 20 45  1  0
 21 46  1  0
 23 47  1  0
 23 48  1  0
 23 49  1  0
 25 50  1  0
 25 51  1  0
 25 52  1  0
 26 53  1  0
 26 54  1  0
 27 55  1  0
 27 56  1  0
 28 57  1  0
M  END
>  <UniqueID>  (1) 
1

>  <SMILES>  (1) 
COc1ccc(OC)c(NC(=O)CN2CCN(c3cccc(C)c3C)CC2)c1

>  <Energy>  (1) 
73.95250014125692

>  <Genealogy>  (1) 
COc1ccc(OC)c(NC(=O)CN2CCN(c3cccc(C)c3C)CC2)c1 (3D coordinates assigned)
COc1ccc(OC)c(NC(=O)CN2CCN(c3cccc(C)c3C)CC2)c1 (nonaromatic ring conformer: 73.95250014125692 kcal/mol)

>  <smiles>  (1) 
COc1ccc(OC)c(NC(=O)CN2CCN(c3cccc(C)c3C)CC2)c1

>  <score_type>  (1) 
oracle

>  <origin>  (1) 
adgpu

>  <m_score__min__energy>  (1) 
-8.0899999999999999

>  <m_primary>  (1) 
energy

$$$$
1:0
     RDKit          3D

 54 57  0  0  0  0  0  0  0  0999 V2000
   -4.5410   25.5860  -30.8610 O   0  0  0  0  0  0  0  0  0  0  0  0
   -3.8630   24.6510  -30.3600 C   0  0  0  0  0  0  0  0  0  0  0  0
   -2.6210   24.9250  -29.6960 N   0  0  0  0  0  0  0  0  0  0  0  0
   -1.8820   24.0200  -28.8640 C   0  0  0  0  0  0  0  0  0  0  0  0
   -1.5210   22.7720  -29.3850 C   0  0  0  0  0  0  0  0  0  0  0  0
   -0.7900   21.8670  -28.6110 C   0  0  0  0  0  0  0  0  0  0  0  0
   -0.3950   22.2120  -27.3150 C   0  0  0  0  0  0  0  0  0  0  0  0
   -0.7170   23.4730  -26.7950 C   0  0  0  0  0  0  0  0  0  0  0  0
   -0.2060   23.9180  -25.1710 S   0  0  0  0  0  0  0  0  0  0  0  0
    1.2680   24.2210  -25.1760 O   0  0  0  0  0  0  0  0  0  0  0  0
   -0.4550   22.7720  -24.2290 O   0  0  0  0  0  0  0  0  0  0  0  0
   -1.1640   25.3340  -24.6370 C   0  0  0  0  0  0  0  0  0  0  0  0
   -0.4400   26.2910  -23.7040 C   0  0  0  0  0  0  0  0  0  0  0  0
   -0.6610   26.6680  -25.1630 C   0  0  0  0  0  0  0  0  0  0  0  0
   -1.4620   24.3740  -27.5690 C   0  0  0  0  0  0  0  0  0  0  0  0
   -4.3490   23.3090  -30.4690 N   0  0  0  0  0  0  0  0  0  0  0  0
   -5.6380   22.9150  -30.9580 C   0  0  0  0  0  0  0  0  0  0  0  0
   -6.6970   23.8320  -31.0790 C   0  0  0  0  0  0  0  0  0  0  0  0
   -7.9340   23.4140  -31.5770 C   0  0  0  0  0  0  0  0  0  0  0  0
   -8.1220   22.0870  -31.9660 C   0  0  0  0  0  0  0  0  0  0  0  0
   -7.0690   21.1680  -31.8680 C   0  0  0  0  0  0  0  0  0  0  0  0
   -7.3090   19.4840  -32.3400 S   0  0  0  0  0  0  0  0  0  0  0  0
   -6.8860   18.5870  -31.2090 O   0  0  0  0  0  0  0  0  0  0  0  0
   -8.7710   19.2460  -32.6000 O   0  0  0  0  0  0  0  0  0  0  0  0
   -6.3930   19.0840  -33.7750 N   0  0  0  0  0  0  0  0  0  0  0  0
   -6.2990   17.6160  -33.9320 C   0  0  0  0  0  0  0  0  0  0  0  0
   -5.1780   17.2270  -34.9010 C   0  0  0  0  0  0  0  0  0  0  0  0
   -3.8060   17.6830  -34.3720 C   0  0  0  0  0  0  0  0  0  0  0  0
   -3.9050   18.8960  -33.4310 C   0  0  0  0  0  0  0  0  0  0  0  0
   -5.0910   19.7970  -33.8090 C   0  0  0  0  0  0  0  0  0  0  0  0
   -5.8240   21.5930  -31.3800 C   0  0  0  0  0  0  0  0  0  0  0  0
   -1.8146   22.5020  -30.4101 H   0  0  0  0  0  0  0  0  0  0  0  0
   -0.5249   20.8817  -29.0220 H   0  0  0  0  0  0  0  0  0  0  0  0
    0.1691   21.4930  -26.7028 H   0  0  0  0  0  0  0  0  0  0  0  0
   -2.1341   24.8159  -24.6150 H   0  0  0  0  0  0  0  0  0  0  0  0
   -0.9960   26.8122  -22.9107 H   0  0  0  0  0  0  0  0  0  0  0  0
    0.4361   26.2197  -23.0427 H   0  0  0  0  0  0  0  0  0  0  0  0
   -1.3766   27.4617  -25.4238 H   0  0  0  0  0  0  0  0  0  0  0  0
   -0.0106   26.9820  -25.9927 H   0  0  0  0  0  0  0  0  0  0  0  0
   -1.7194   25.3628  -27.1615 H   0  0  0  0  0  0  0  0  0  0  0  0
   -6.5515   24.8808  -30.7810 H   0  0  0  0  0  0  0  0  0  0  0  0
   -8.7620   24.1331  -31.6626 H   0  0  0  0  0  0  0  0  0  0  0  0
   -9.0998   21.7616  -32.3507 H   0  0  0  0  0  0  0  0  0  0  0  0
   -6.0961   17.1635  -32.9501 H   0  0  0  0  0  0  0  0  0  0  0  0
   -7.2522   17.2504  -34.3414 H   0  0  0  0  0  0  0  0  0  0  0  0
   -5.1711   16.1337  -35.0223 H   0  0  0  0  0  0  0  0  0  0  0  0
   -5.3627   17.7216  -35.8660 H   0  0  0  0  0  0  0  0  0  0  0  0
   -3.3456   16.8484  -33.8229 H   0  0  0  0  0  0  0  0  0  0  0  0
   -3.1993   17.9840  -35.2388 H   0  0  0  0  0  0  0  0  0  0  0  0
   -4.0397   18.5396  -32.3991 H   0  0  0  0  0  0  0  0  0  0  0  0
   -2.9791   19.4830  -33.5207 H   0  0  0  0  0  0  0  0  0  0  0  0
   -5.1327   20.6376  -33.1007 H   0  0  0  0  0  0  0  0  0  0  0  0
   -4.9292   20.1391  -34.8418 H   0  0  0  0  0  0  0  0  0  0  0  0
   -4.9868   20.8814  -31.3285 H   0  0  0  0  0  0  0  0  0  0  0  0
  1  2  2  0
  2  3  1  0
  3  4  1  0
  4  5  2  0
  5  6  1  0
  6  7  2  0
  7  8  1  0
  8  9  1  0
  9 10  2  0
  9 11  2  0
  9 12  1  0
 12 13  1  0
 13 14  1  0
  8 15  2  0
  2 16  1  0
 16 17  1  0
 17 18  2  0
 18 19  1  0
 19 20  2  0
 20 21  1  0
 21 22  1  0
 22 23  2  0
 22 24  2  0
 22 25  1  0
 25 26  1  0
 26 27  1  0
 27 28  1  0
 28 29  1  0
 29 30  1  0
 21 31  2  0
 15  4  1  0
 31 17  1  0
 14 12  1  0
 30 25  1  0
  5 32  1  0
  6 33  1  0
  7 34  1  0
 12 35  1  0
 13 36  1  0
 13 37  1  0
 14 38  1  0
 14 39  1  0
 15 40  1  0
 18 41  1  0
 19 42  1  0
 20 43  1  0
 26 44  1  0
 26 45  1  0
 27 46  1  0
 27 47  1  0
 28 48  1  0
 28 49  1  0
 29 50  1  0
 29 51  1  0
 30 52  1  0
 30 53  1  0
 31 54  1  0
M  CHG  2   3  -1  16  -1
M  END
>  <UniqueID>  (2) 
2

>  <SMILES>  (2) 
O=C([N-]c1cccc(S(=O)(=O)C2CC2)c1)[N-]c1cccc(S(=O)(=O)N2CCCCC2)c1

>  <Energy>  (2) 
329.52025138755226

>  <Genealogy>  (2) 
O=C([N-]c1cccc(S(=O)(=O)C2CC2)c1)[N-]c1cccc(S(=O)(=O)N2CCCCC2)c1 (protonated)
O=C([N-]c1cccc(S(=O)(=O)C2CC2)c1)[N-]c1cccc(S(=O)(=O)N2CCCCC2)c1 (3D coordinates assigned)
O=C([N-]c1cccc(S(=O)(=O)C2CC2)c1)[N-]c1cccc(S(=O)(=O)N2CCCCC2)c1 (nonaromatic ring conformer: 329.52025138755226 kcal/mol)

>  <smiles>  (2) 
O=C(Nc1cccc(S(=O)(=O)C2CC2)c1)Nc1cccc(S(=O)(=O)N2CCCCC2)c1

>  <score_type>  (2) 
oracle

>  <origin>  (2) 
adgpu

>  <m_score__min__energy>  (2) 
-13.109999999999999

>  <m_primary>  (2) 
energy

$$$$
2:0
     RDKit          3D

 70 73  0  0  0  0  0  0  0  0999 V2000
    1.2670   19.4870  -35.1700 O   0  0  0  0  0  0  0  0  0  0  0  0
    0.5600   20.3150  -34.5310 C   0  0  0  0  0  0  0  0  0  0  0  0
   -0.7580   19.8900  -33.9560 C   0  0  0  0  0  0  0  0  0  0  0  0
   -1.6440   21.0410  -33.7710 N   0  0  0  0  0  0  0  0  0  0  0  0
   -2.1340   21.4410  -32.4770 C   0  0  0  0  0  0  0  0  0  0  0  0
   -3.4520   21.9130  -32.3390 C   0  0  0  0  0  0  0  0  0  0  0  0
   -3.9310   22.3520  -31.0980 C   0  0  0  0  0  0  0  0  0  0  0  0
   -5.5420   23.0620  -30.9760 S   0  0  0  0  0  0  0  0  0  0  0  0
   -6.0500   22.9120  -29.5690 O   0  0  0  0  0  0  0  0  0  0  0  0
   -5.4560   24.5320  -31.2840 O   0  0  0  0  0  0  0  0  0  0  0  0
   -6.6650   22.2950  -32.0760 N   0  0  0  0  0  0  0  0  0  0  0  0
   -8.0660   22.7100  -31.8250 C   0  0  0  0  0  0  0  0  0  0  0  0
   -8.8590   21.7130  -30.9590 C   0  0  0  0  0  0  0  0  0  0  0  0
   -8.7740   20.2630  -31.4740 C   0  0  0  0  0  0  0  0  0  0  0  0
   -7.6970   20.0780  -32.5500 C   0  0  0  0  0  0  0  0  0  0  0  0
   -6.4340   20.8350  -32.1400 C   0  0  0  0  0  0  0  0  0  0  0  0
   -3.1030   22.2750  -29.9750 C   0  0  0  0  0  0  0  0  0  0  0  0
   -1.8080   21.7600  -30.0870 C   0  0  0  0  0  0  0  0  0  0  0  0
   -1.3110   21.3550  -31.3300 C   0  0  0  0  0  0  0  0  0  0  0  0
    0.0080   20.9030  -31.3980 O   0  0  0  0  0  0  0  0  0  0  0  0
    1.0790   21.6100  -34.1930 N   0  0  0  0  0  0  0  0  0  0  0  0
    1.9020   22.4340  -35.0300 C   0  0  0  0  0  0  0  0  0  0  0  0
    3.2730   22.1740  -35.2100 C   0  0  0  0  0  0  0  0  0  0  0  0
    4.0380   22.9970  -36.0440 C   0  0  0  0  0  0  0  0  0  0  0  0
    3.4440   24.0750  -36.7060 C   0  0  0  0  0  0  0  0  0  0  0  0
    2.0740   24.3280  -36.5540 C   0  0  0  0  0  0  0  0  0  0  0  0
    1.3430   25.6910  -37.4030 S   0  0  0  0  0  0  0  0  0  0  0  0
    1.0360   25.3120  -38.8260 O   0  0  0  0  0  0  0  0  0  0  0  0
    2.3330   26.8220  -37.4170 O   0  0  0  0  0  0  0  0  0  0  0  0
   -0.1140   26.1980  -36.5810 N   0  0  0  0  0  0  0  0  0  0  0  0
   -1.1430   26.7080  -37.5180 C   0  0  0  0  0  0  0  0  0  0  0  0
   -0.7950   28.0310  -38.2320 C   0  0  0  0  0  0  0  0  0  0  0  0
   -0.2590   29.1600  -37.3330 C   0  0  0  0  0  0  0  0  0  0  0  0
   -0.9830   29.2920  -35.9810 C   0  0  0  0  0  0  0  0  0  0  0  0
   -0.8810   28.0600  -35.0420 C   0  0  0  0  0  0  0  0  0  0  0  0
    0.2110   27.0340  -35.4040 C   0  0  0  0  0  0  0  0  0  0  0  0
    1.3060   23.4990  -35.7210 C   0  0  0  0  0  0  0  0  0  0  0  0
   -1.2358   19.1745  -34.6414 H   0  0  0  0  0  0  0  0  0  0  0  0
   -0.5794   19.4235  -32.9760 H   0  0  0  0  0  0  0  0  0  0  0  0
   -2.0320   21.5010  -34.6250 H   0  0  0  0  0  0  0  0  0  0  0  0
   -4.1147   21.9377  -33.2166 H   0  0  0  0  0  0  0  0  0  0  0  0
   -8.0538   23.6830  -31.3121 H   0  0  0  0  0  0  0  0  0  0  0  0
   -8.5680   22.7584  -32.8026 H   0  0  0  0  0  0  0  0  0  0  0  0
   -8.4596   21.7445  -29.9345 H   0  0  0  0  0  0  0  0  0  0  0  0
   -9.9165   22.0134  -30.9986 H   0  0  0  0  0  0  0  0  0  0  0  0
   -8.5414   19.6018  -30.6263 H   0  0  0  0  0  0  0  0  0  0  0  0
   -9.7441   20.0154  -31.9296 H   0  0  0  0  0  0  0  0  0  0  0  0
   -7.4651   19.0081  -32.6569 H   0  0  0  0  0  0  0  0  0  0  0  0
   -8.0652   20.4703  -33.5095 H   0  0  0  0  0  0  0  0  0  0  0  0
   -6.1129   20.4815  -31.1491 H   0  0  0  0  0  0  0  0  0  0  0  0
   -5.6598   20.6442  -32.8978 H   0  0  0  0  0  0  0  0  0  0  0  0
   -3.4718   22.6212  -28.9982 H   0  0  0  0  0  0  0  0  0  0  0  0
   -1.1756   21.6727  -29.1912 H   0  0  0  0  0  0  0  0  0  0  0  0
    0.5990   21.0320  -32.2080 H   0  0  0  0  0  0  0  0  0  0  0  0
    3.7436   21.3235  -34.6950 H   0  0  0  0  0  0  0  0  0  0  0  0
    5.1108   22.7947  -36.1790 H   0  0  0  0  0  0  0  0  0  0  0  0
    4.0539   24.7271  -37.3485 H   0  0  0  0  0  0  0  0  0  0  0  0
   -1.3095   25.9408  -38.2885 H   0  0  0  0  0  0  0  0  0  0  0  0
   -2.0308   26.9208  -36.9044 H   0  0  0  0  0  0  0  0  0  0  0  0
   -0.0296   27.8129  -38.9914 H   0  0  0  0  0  0  0  0  0  0  0  0
   -1.7436   28.4046  -38.6450 H   0  0  0  0  0  0  0  0  0  0  0  0
    0.8059   28.9671  -37.1360 H   0  0  0  0  0  0  0  0  0  0  0  0
   -0.4302   30.1018  -37.8749 H   0  0  0  0  0  0  0  0  0  0  0  0
   -0.5566   30.1570  -35.4519 H   0  0  0  0  0  0  0  0  0  0  0  0
   -2.0511   29.3996  -36.2210 H   0  0  0  0  0  0  0  0  0  0  0  0
   -0.6774   28.4259  -34.0248 H   0  0  0  0  0  0  0  0  0  0  0  0
   -1.8383   27.5272  -35.1403 H   0  0  0  0  0  0  0  0  0  0  0  0
    1.1424   27.5801  -35.6144 H   0  0  0  0  0  0  0  0  0  0  0  0
    0.3038   26.3523  -34.5457 H   0  0  0  0  0  0  0  0  0  0  0  0
    0.2278   23.6863  -35.6094 H   0  0  0  0  0  0  0  0  0  0  0  0
  1  2  2  0
  2  3  1  0
  3  4  1  0
  4  5  1  0
  5  6  2  0
  6  7  1  0
  7  8  1  0
  8  9  2  0
  8 10  2  0
  8 11  1  0
 11 12  1  0
 12 13  1  0
 13 14  1  0
 14 15  1  0
 15 16  1  0
  7 17  2  0
 17 18  1  0
 18 19  2  0
 19 20  1  0
  2 21  1  0
 21 22  1  0
 22 23  2  0
 23 24  1  0
 24 25  2  0
 25 26  1  0
 26 27  1  0
 27 28  2  0
 27 29  2  0
 27 30  1  0
 30 31  1  0
 31 32  1  0
 32 33  1  0
 33 34  1  0
 34 35  1  0
 35 36  1  0
 26 37  2  0
 19  5  1  0
 37 22  1  0
 16 11  1  0
 36 30  1  0
  3 38  1  0
  3 39  1  0
  4 40  1  0
  6 41  1  0
 12 42  1  0
 12 43  1  0
 13 44  1  0
 13 45  1  0
 14 46  1  0
 14 47  1  0
 15 48  1  0
 15 49  1  0
 16 50  1  0
 16 51  1  0
 17 52  1  0
 18 53  1  0
 20 54  1  0
 23 55  1  0
 24 56  1  0
 25 57  1  0
 31 58  1  0
 31 59  1  0
 32 60  1  0
 32 61  1  0
 33 62  1  0
 33 63  1  0
 34 64  1  0
 34 65  1  0
 35 66  1  0
 35 67  1  0
 36 68  1  0
 36 69  1  0
 37 70  1  0
M  CHG  1  21  -1
M  END
>  <UniqueID>  (3) 
3

>  <SMILES>  (3) 
O=C(CNc1cc(S(=O)(=O)N2CCCCC2)ccc1O)[N-]c1cccc(S(=O)(=O)N2CCCCCC2)c1

>  <Energy>  (3) 
96.57154685911503

>  <Genealogy>  (3) 
O=C(CNc1cc(S(=O)(=O)N2CCCCC2)ccc1O)[N-]c1cccc(S(=O)(=O)N2CCCCCC2)c1 (protonated)
O=C(CNc1cc(S(=O)(=O)N2CCCCC2)ccc1O)[N-]c1cccc(S(=O)(=O)N2CCCCCC2)c1 (3D coordinates assigned)
O=C(CNc1cc(S(=O)(=O)N2CCCCC2)ccc1O)[N-]c1cccc(S(=O)(=O)N2CCCCCC2)c1 (nonaromatic ring conformer: 96.57154685911503 kcal/mol)

>  <smiles>  (3) 
O=C(CNc1cc(S(=O)(=O)N2CCCCC2)ccc1O)Nc1cccc(S(=O)(=O)N2CCCCCC2)c1

>  <score_type>  (3) 
oracle

>  <origin>  (3) 
adgpu

>  <m_score__min__energy>  (3) 
-11.619999999999999

>  <m_primary>  (3) 
energy

$$$$
3:0
     RDKit          3D

 49 51  0  0  0  0  0  0  0  0999 V2000
   -3.2630   23.5210  -28.3900 C   0  0  0  0  0  0  0  0  0  0  0  0
   -3.0090   24.5460  -29.4540 C   0  0  0  0  0  0  0  0  0  0  0  0
   -2.0060   25.2990  -29.3470 O   0  0  0  0  0  0  0  0  0  0  0  0
   -3.8510   24.6710  -30.6070 N   0  0  0  0  0  0  0  0  0  0  0  0
   -4.9880   23.8580  -30.9270 C   0  0  0  0  0  0  0  0  0  0  0  0
   -5.0100   23.0380  -32.0690 C   0  0  0  0  0  0  0  0  0  0  0  0
   -6.1250   22.2390  -32.3400 C   0  0  0  0  0  0  0  0  0  0  0  0
   -7.2210   22.2400  -31.4680 C   0  0  0  0  0  0  0  0  0  0  0  0
   -8.6480   21.2670  -31.8150 S   0  0  0  0  0  0  0  0  0  0  0  0
   -9.7510   22.1770  -32.2760 O   0  0  0  0  0  0  0  0  0  0  0  0
   -9.1060   20.5280  -30.5890 O   0  0  0  0  0  0  0  0  0  0  0  0
   -8.2840   20.1240  -33.0680 N   0  0  0  0  0  0  0  0  0  0  0  0
   -7.0490   19.3890  -33.1410 C   0  0  0  0  0  0  0  0  0  0  0  0
   -6.1770   19.6170  -34.2170 C   0  0  0  0  0  0  0  0  0  0  0  0
   -4.9650   18.9280  -34.3090 C   0  0  0  0  0  0  0  0  0  0  0  0
   -4.6100   17.9920  -33.3290 C   0  0  0  0  0  0  0  0  0  0  0  0
   -3.0840   17.1180  -33.4280 S   0  0  0  0  0  0  0  0  0  0  0  0
   -2.9340   16.5720  -34.8200 O   0  0  0  0  0  0  0  0  0  0  0  0
   -3.0810   15.9750  -32.4490 O   0  0  0  0  0  0  0  0  0  0  0  0
   -1.7650   18.2050  -33.0710 N   0  0  0  0  0  0  0  0  0  0  0  0
   -1.0720   18.5820  -34.3110 C   0  0  0  0  0  0  0  0  0  0  0  0
    0.0800   19.5590  -33.9990 C   0  0  0  0  0  0  0  0  0  0  0  0
    0.0820   19.9700  -32.6430 O   0  0  0  0  0  0  0  0  0  0  0  0
   -1.1860   20.4930  -32.3000 C   0  0  0  0  0  0  0  0  0  0  0  0
   -2.2770   19.4060  -32.3890 C   0  0  0  0  0  0  0  0  0  0  0  0
   -5.4790   17.7510  -32.2590 C   0  0  0  0  0  0  0  0  0  0  0  0
   -6.6910   18.4400  -32.1650 C   0  0  0  0  0  0  0  0  0  0  0  0
   -7.1860   23.0320  -30.3130 C   0  0  0  0  0  0  0  0  0  0  0  0
   -6.0710   23.8280  -30.0400 C   0  0  0  0  0  0  0  0  0  0  0  0
   -3.1481   23.9848  -27.3992 H   0  0  0  0  0  0  0  0  0  0  0  0
   -4.2854   23.1291  -28.4950 H   0  0  0  0  0  0  0  0  0  0  0  0
   -2.5419   22.6970  -28.4950 H   0  0  0  0  0  0  0  0  0  0  0  0
   -4.1473   23.0250  -32.7514 H   0  0  0  0  0  0  0  0  0  0  0  0
   -6.1414   21.6078  -33.2407 H   0  0  0  0  0  0  0  0  0  0  0  0
   -8.9600   20.0590  -33.8610 H   0  0  0  0  0  0  0  0  0  0  0  0
   -6.4504   20.3449  -34.9951 H   0  0  0  0  0  0  0  0  0  0  0  0
   -4.2873   19.1211  -35.1537 H   0  0  0  0  0  0  0  0  0  0  0  0
   -0.6638   17.6790  -34.7885 H   0  0  0  0  0  0  0  0  0  0  0  0
   -1.7869   19.0730  -34.9877 H   0  0  0  0  0  0  0  0  0  0  0  0
    1.0359   19.0613  -34.2195 H   0  0  0  0  0  0  0  0  0  0  0  0
   -0.0589   20.4544  -34.6226 H   0  0  0  0  0  0  0  0  0  0  0  0
   -1.1484   20.8811  -31.2714 H   0  0  0  0  0  0  0  0  0  0  0  0
   -1.4354   21.2975  -33.0075 H   0  0  0  0  0  0  0  0  0  0  0  0
   -2.5987   19.1340  -31.3729 H   0  0  0  0  0  0  0  0  0  0  0  0
   -3.1249   19.8042  -32.9656 H   0  0  0  0  0  0  0  0  0  0  0  0
   -5.2066   17.0153  -31.4879 H   0  0  0  0  0  0  0  0  0  0  0  0
   -7.3697   18.2395  -31.3229 H   0  0  0  0  0  0  0  0  0  0  0  0
   -8.0393   23.0271  -29.6188 H   0  0  0  0  0  0  0  0  0  0  0  0
   -6.0436   24.4348  -29.1229 H   0  0  0  0  0  0  0  0  0  0  0  0
  1  2  1  0
  2  3  2  0
  2  4  1  0
  4  5  1  0
  5  6  2  0
  6  7  1  0
  7  8  2  0
  8  9  1  0
  9 10  2  0
  9 11  2  0
  9 12  1  0
 12 13  1  0
 13 14  2  0
 14 15  1  0
 15 16  2  0
 16 17  1  0
 17 18  2  0
 17 19  2  0
 17 20  1  0
 20 21  1  0
 21 22  1  0
 22 23  1  0
 23 24  1  0
 24 25  1  0
 16 26  1  0
 26 27  2  0
  8 28  1  0
 28 29  2  0
 29  5  1  0
 27 13  1  0
 25 20  1  0
  1 30  1  0
  1 31  1  0
  1 32  1  0
  6 33  1  0
  7 34  1  0
 12 35  1  0
 14 36  1  0
 15 37  1  0
 21 38  1  0
 21 39  1  0
 22 40  1  0
 22 41  1  0
 24 42  1  0
 24 43  1  0
 25 44  1  0
 25 45  1  0
 26 46  1  0
 27 47  1  0
 28 48  1  0
 29 49  1  0
M  CHG  1   4  -1
M  END
>  <UniqueID>  (4) 
4

>  <SMILES>  (4) 
CC(=O)[N-]c1ccc(S(=O)(=O)Nc2ccc(S(=O)(=O)N3CCOCC3)cc2)cc1

>  <Energy>  (4) 
63.10766776686398

>  <Genealogy>  (4) 
CC(=O)[N-]c1ccc(S(=O)(=O)Nc2ccc(S(=O)(=O)N3CCOCC3)cc2)cc1 (protonated)
CC(=O)[N-]c1ccc(S(=O)(=O)Nc2ccc(S(=O)(=O)N3CCOCC3)cc2)cc1 (3D coordinates assigned)
CC(=O)[N-]c1ccc(S(=O)(=O)Nc2ccc(S(=O)(=O)N3CCOCC3)cc2)cc1 (nonaromatic ring conformer: 63.10766776686398 kcal/mol)

>  <smiles>  (4) 
CC(=O)Nc1ccc(S(=O)(=O)Nc2ccc(S(=O)(=O)N3CCOCC3)cc2)cc1

>  <score_type>  (4) 
oracle

>  <origin>  (4) 
adgpu

>  <m_score__min__energy>  (4) 
-11.039999999999999

>  <m_primary>  (4) 
energy

$$$$
4:0
     RDKit          3D

 51 53  0  0  0  0  0  0  0  0999 V2000
   -8.8430   19.4900  -32.7130 C   0  0  0  0  0  0  0  0  0  0  0  0
   -8.0250   20.6050  -32.1320 C   0  0  0  0  0  0  0  0  0  0  0  0
   -6.6510   20.6900  -32.4070 C   0  0  0  0  0  0  0  0  0  0  0  0
   -5.8950   21.7500  -31.8990 C   0  0  0  0  0  0  0  0  0  0  0  0
   -6.5060   22.7440  -31.1220 C   0  0  0  0  0  0  0  0  0  0  0  0
   -5.5370   24.0580  -30.4670 S   0  0  0  0  0  0  0  0  0  0  0  0
   -5.0820   24.9530  -31.5860 O   0  0  0  0  0  0  0  0  0  0  0  0
   -6.3510   24.8830  -29.5080 O   0  0  0  0  0  0  0  0  0  0  0  0
   -4.1470   23.3790  -29.6290 C   0  0  0  0  0  0  0  0  0  0  0  0
   -4.3320   22.6200  -28.4650 C   0  0  0  0  0  0  0  0  0  0  0  0
   -3.2320   22.0590  -27.8100 C   0  0  0  0  0  0  0  0  0  0  0  0
   -1.9380   22.2450  -28.3170 C   0  0  0  0  0  0  0  0  0  0  0  0
   -0.5380   21.5520  -27.5050 S   0  0  0  0  0  0  0  0  0  0  0  0
    0.4580   21.1390  -28.5530 O   0  0  0  0  0  0  0  0  0  0  0  0
   -0.9440   20.3390  -26.7140 O   0  0  0  0  0  0  0  0  0  0  0  0
    0.1760   22.7410  -26.4410 N   0  0  0  0  0  0  0  0  0  0  0  0
    0.9860   23.6740  -27.2380 C   0  0  0  0  0  0  0  0  0  0  0  0
   -0.8890   23.4530  -25.7100 C   0  0  0  0  0  0  0  0  0  0  0  0
   -0.5260   24.9100  -25.5220 C   0  0  0  0  0  0  0  0  0  0  0  0
    0.3520   25.2380  -24.4720 C   0  0  0  0  0  0  0  0  0  0  0  0
    0.6670   26.5700  -24.1950 C   0  0  0  0  0  0  0  0  0  0  0  0
    0.1010   27.5920  -24.9530 C   0  0  0  0  0  0  0  0  0  0  0  0
   -0.7730   27.2880  -25.9970 C   0  0  0  0  0  0  0  0  0  0  0  0
   -1.0870   25.9530  -26.3050 C   0  0  0  0  0  0  0  0  0  0  0  0
   -1.9730   25.6850  -27.4030 N   0  0  0  0  0  0  0  0  0  0  0  0
   -1.5970   25.9070  -28.5730 O   0  0  0  0  0  0  0  0  0  0  0  0
   -3.1150   24.9430  -27.2050 O   0  0  0  0  0  0  0  0  0  0  0  0
   -1.7560   22.9990  -29.4840 C   0  0  0  0  0  0  0  0  0  0  0  0
   -2.8550   23.5600  -30.1400 C   0  0  0  0  0  0  0  0  0  0  0  0
   -7.8790   22.6670  -30.8550 C   0  0  0  0  0  0  0  0  0  0  0  0
   -8.6380   21.6080  -31.3650 C   0  0  0  0  0  0  0  0  0  0  0  0
   -9.2806   18.8935  -31.8989 H   0  0  0  0  0  0  0  0  0  0  0  0
   -9.6483   19.9107  -33.3331 H   0  0  0  0  0  0  0  0  0  0  0  0
   -8.2000   18.8481  -33.3331 H   0  0  0  0  0  0  0  0  0  0  0  0
   -6.1674   19.9191  -33.0249 H   0  0  0  0  0  0  0  0  0  0  0  0
   -4.8167   21.8045  -32.1096 H   0  0  0  0  0  0  0  0  0  0  0  0
   -5.3454   22.4655  -28.0661 H   0  0  0  0  0  0  0  0  0  0  0  0
   -3.3820   21.4695  -26.8935 H   0  0  0  0  0  0  0  0  0  0  0  0
    1.5565   24.3312  -26.5652 H   0  0  0  0  0  0  0  0  0  0  0  0
    1.6819   23.1056  -27.8725 H   0  0  0  0  0  0  0  0  0  0  0  0
    0.3255   24.2832  -27.8725 H   0  0  0  0  0  0  0  0  0  0  0  0
   -1.8266   23.3852  -26.2812 H   0  0  0  0  0  0  0  0  0  0  0  0
   -1.0107   22.9881  -24.7205 H   0  0  0  0  0  0  0  0  0  0  0  0
    0.7950   24.4363  -23.8628 H   0  0  0  0  0  0  0  0  0  0  0  0
    1.3624   26.8120  -23.3778 H   0  0  0  0  0  0  0  0  0  0  0  0
    0.3436   28.6411  -24.7281 H   0  0  0  0  0  0  0  0  0  0  0  0
   -1.2213   28.1020  -26.5856 H   0  0  0  0  0  0  0  0  0  0  0  0
   -0.7432   23.1500  -29.8857 H   0  0  0  0  0  0  0  0  0  0  0  0
   -2.7054   24.1449  -31.0595 H   0  0  0  0  0  0  0  0  0  0  0  0
   -8.3623   23.4421  -30.2420 H   0  0  0  0  0  0  0  0  0  0  0  0
   -9.7185   21.5613  -31.1642 H   0  0  0  0  0  0  0  0  0  0  0  0
  1  2  1  0
  2  3  2  0
  3  4  1  0
  4  5  2  0
  5  6  1  0
  6  7  2  0
  6  8  2  0
  6  9  1  0
  9 10  2  0
 10 11  1  0
 11 12  2  0
 12 13  1  0
 13 14  2  0
 13 15  2  0
 13 16  1  0
 16 17  1  0
 16 18  1  0
 18 19  1  0
 19 20  2  0
 20 21  1  0
 21 22  2  0
 22 23  1  0
 23 24  2  0
 24 25  1  0
 25 26  2  0
 25 27  1  0
 12 28  1  0
 28 29  2  0
  5 30  1  0
 30 31  2  0
 31  2  1  0
 29  9  1  0
 24 19  1  0
  1 32  1  0
  1 33  1  0
  1 34  1  0
  3 35  1  0
  4 36  1  0
 10 37  1  0
 11 38  1  0
 17 39  1  0
 17 40  1  0
 17 41  1  0
 18 42  1  0
 18 43  1  0
 20 44  1  0
 21 45  1  0
 22 46  1  0
 23 47  1  0
 28 48  1  0
 29 49  1  0
 30 50  1  0
 31 51  1  0
M  CHG  2  25   1  27  -1
M  END
>  <UniqueID>  (5) 
5

>  <SMILES>  (5) 
Cc1ccc(S(=O)(=O)c2ccc(S(=O)(=O)N(C)Cc3ccccc3[N+](=O)[O-])cc2)cc1

>  <Energy>  (5) 
60.301955810085495

>  <Genealogy>  (5) 
Cc1ccc(S(=O)(=O)c2ccc(S(=O)(=O)N(C)Cc3ccccc3[N+](=O)[O-])cc2)cc1 (3D coordinates assigned)
Cc1ccc(S(=O)(=O)c2ccc(S(=O)(=O)N(C)Cc3ccccc3[N+](=O)[O-])cc2)cc1 (optimized conformer: 60.301955810085495 kcal/mol)

>  <smiles>  (5) 
Cc1ccc(S(=O)(=O)c2ccc(S(=O)(=O)N(C)Cc3ccccc3[N+](=O)[O-])cc2)cc1

>  <score_type>  (5) 
oracle

>  <origin>  (5) 
adgpu

>  <m_score__min__energy>  (5) 
-11.99

>  <m_primary>  (5) 
energy

$$$$
5:0
     RDKit          3D

 44 46  0  0  0  0  0  0  0  0999 V2000
   -6.3220   25.6640  -29.7230 C   0  0  0  0  0  0  0  0  0  0  0  0
   -5.2880   25.0160  -30.5960 C   0  0  0  0  0  0  0  0  0  0  0  0
   -4.2300   25.6560  -30.8460 O   0  0  0  0  0  0  0  0  0  0  0  0
   -5.4790   23.6530  -31.1640 C   0  0  0  0  0  0  0  0  0  0  0  0
   -4.3800   22.8560  -31.5410 C   0  0  0  0  0  0  0  0  0  0  0  0
   -4.5780   21.5770  -32.0700 C   0  0  0  0  0  0  0  0  0  0  0  0
   -5.8730   21.0690  -32.2340 C   0  0  0  0  0  0  0  0  0  0  0  0
   -6.0740   19.7500  -32.7710 N   0  0  0  0  0  0  0  0  0  0  0  0
   -6.1480   19.5420  -34.2210 C   0  0  0  0  0  0  0  0  0  0  0  0
   -5.6380   18.1380  -34.5650 C   0  0  0  0  0  0  0  0  0  0  0  0
   -6.4100   17.0750  -33.8740 N   0  0  0  0  0  0  0  0  0  0  0  0
   -5.4440   15.6190  -33.7720 S   0  0  0  0  0  0  0  0  0  0  0  0
   -6.0760   14.5290  -34.5930 O   0  0  0  0  0  0  0  0  0  0  0  0
   -5.3620   15.1550  -32.3420 O   0  0  0  0  0  0  0  0  0  0  0  0
   -3.8250   15.9270  -34.3920 C   0  0  0  0  0  0  0  0  0  0  0  0
   -2.9340   16.7280  -33.6660 C   0  0  0  0  0  0  0  0  0  0  0  0
   -1.6440   16.9510  -34.1520 C   0  0  0  0  0  0  0  0  0  0  0  0
   -1.2570   16.3650  -35.3590 C   0  0  0  0  0  0  0  0  0  0  0  0
   -2.1320   15.5840  -36.0500 N   0  0  0  0  0  0  0  0  0  0  0  0
   -3.3930   15.3540  -35.5970 C   0  0  0  0  0  0  0  0  0  0  0  0
   -6.9310   17.4570  -32.5330 C   0  0  0  0  0  0  0  0  0  0  0  0
   -6.1370   18.5930  -31.8720 C   0  0  0  0  0  0  0  0  0  0  0  0
   -6.9710   21.8550  -31.8590 C   0  0  0  0  0  0  0  0  0  0  0  0
   -6.7780   23.1350  -31.3320 C   0  0  0  0  0  0  0  0  0  0  0  0
   -6.0634   25.5019  -28.6662 H   0  0  0  0  0  0  0  0  0  0  0  0
   -6.3534   26.7436  -29.9314 H   0  0  0  0  0  0  0  0  0  0  0  0
   -7.3073   25.2215  -29.9314 H   0  0  0  0  0  0  0  0  0  0  0  0
   -3.3578   23.2432  -31.4181 H   0  0  0  0  0  0  0  0  0  0  0  0
   -3.7107   20.9654  -32.3594 H   0  0  0  0  0  0  0  0  0  0  0  0
   -7.1918   19.6440  -34.5528 H   0  0  0  0  0  0  0  0  0  0  0  0
   -5.5252   20.2922  -34.7302 H   0  0  0  0  0  0  0  0  0  0  0  0
   -5.7219   17.9872  -35.6514 H   0  0  0  0  0  0  0  0  0  0  0  0
   -4.5926   18.0675  -34.2300 H   0  0  0  0  0  0  0  0  0  0  0  0
   -7.2330   16.8350  -34.4780 H   0  0  0  0  0  0  0  0  0  0  0  0
   -3.2501   17.1806  -32.7146 H   0  0  0  0  0  0  0  0  0  0  0  0
   -0.9398   17.5819  -33.5897 H   0  0  0  0  0  0  0  0  0  0  0  0
   -0.2437   16.5347  -35.7520 H   0  0  0  0  0  0  0  0  0  0  0  0
   -4.0764   14.7167  -36.1772 H   0  0  0  0  0  0  0  0  0  0  0  0
   -7.9763   17.7809  -32.6442 H   0  0  0  0  0  0  0  0  0  0  0  0
   -6.8365   16.5739  -31.8839 H   0  0  0  0  0  0  0  0  0  0  0  0
   -6.6325   18.8864  -30.9348 H   0  0  0  0  0  0  0  0  0  0  0  0
   -5.1155   18.2440  -31.6605 H   0  0  0  0  0  0  0  0  0  0  0  0
   -7.9912   21.4620  -31.9802 H   0  0  0  0  0  0  0  0  0  0  0  0
   -7.6486   23.7435  -31.0458 H   0  0  0  0  0  0  0  0  0  0  0  0
  1  2  1  0
  2  3  2  0
  2  4  1  0
  4  5  2  0
  5  6  1  0
  6  7  2  0
  7  8  1  0
  8  9  1  0
  9 10  1  0
 10 11  1  0
 11 12  1  0
 12 13  2  0
 12 14  2  0
 12 15  1  0
 15 16  2  0
 16 17  1  0
 17 18  2  0
 18 19  1  0
 19 20  2  0
 11 21  1  0
 21 22  1  0
  7 23  1  0
 23 24  2  0
 24  4  1  0
 22  8  1  0
 20 15  1  0
  1 25  1  0
  1 26  1  0
  1 27  1  0
  5 28  1  0
  6 29  1  0
  9 30  1  0
  9 31  1  0
 10 32  1  0
 10 33  1  0
 11 34  1  0
 16 35  1  0
 17 36  1  0
 18 37  1  0
 20 38  1  0
 21 39  1  0
 21 40  1  0
 22 41  1  0
 22 42  1  0
 23 43  1  0
 24 44  1  0
M  CHG  1  11   1
M  END
>  <UniqueID>  (6) 
6

>  <SMILES>  (6) 
CC(=O)c1ccc(N2CC[NH+](S(=O)(=O)c3cccnc3)CC2)cc1

>  <Energy>  (6) 
57.19100772284618

>  <Genealogy>  (6) 
CC(=O)c1ccc(N2CC[NH+](S(=O)(=O)c3cccnc3)CC2)cc1 (protonated)
CC(=O)c1ccc(N2CC[NH+](S(=O)(=O)c3cccnc3)CC2)cc1 (3D coordinates assigned)
CC(=O)c1ccc(N2CC[NH+](S(=O)(=O)c3cccnc3)CC2)cc1 (nonaromatic ring conformer: 57.19100772284618 kcal/mol)

>  <smiles>  (6) 
CC(=O)c1ccc(N2CCN(S(=O)(=O)c3cccnc3)CC2)cc1

>  <score_type>  (6) 
oracle

>  <origin>  (6) 
adgpu

>  <m_score__min__energy>  (6) 
-7.8799999999999999

>  <m_primary>  (6) 
energy

$$$$
6:0
     RDKit          3D

 50 51  0  0  0  0  0  0  0  0999 V2000
   -2.8890   18.9190  -25.9980 C   0  0  0  0  0  0  0  0  0  0  0  0
   -2.1530   19.4990  -27.2020 C   0  0  0  0  0  0  0  0  0  0  0  0
   -1.6080   20.7820  -26.8950 O   0  0  0  0  0  0  0  0  0  0  0  0
   -2.1340   22.0180  -27.3090 C   0  0  0  0  0  0  0  0  0  0  0  0
   -3.3060   22.1220  -28.0840 C   0  0  0  0  0  0  0  0  0  0  0  0
   -3.7950   23.3760  -28.4810 C   0  0  0  0  0  0  0  0  0  0  0  0
   -4.9990   23.4470  -29.2630 N   0  0  0  0  0  0  0  0  0  0  0  0
   -5.1880   24.3390  -30.3720 C   0  0  0  0  0  0  0  0  0  0  0  0
   -4.2170   24.9910  -30.8450 O   0  0  0  0  0  0  0  0  0  0  0  0
   -6.5250   24.4290  -31.0410 C   0  0  0  0  0  0  0  0  0  0  0  0
   -6.9750   23.0610  -31.4740 C   0  0  0  0  0  0  0  0  0  0  0  0
   -6.0620   22.1680  -32.0590 C   0  0  0  0  0  0  0  0  0  0  0  0
   -6.4690   20.8830  -32.4280 C   0  0  0  0  0  0  0  0  0  0  0  0
   -7.7890   20.4650  -32.1960 C   0  0  0  0  0  0  0  0  0  0  0  0
   -8.2370   19.0990  -32.6250 C   0  0  0  0  0  0  0  0  0  0  0  0
   -8.7040   21.3570  -31.6190 C   0  0  0  0  0  0  0  0  0  0  0  0
   -8.2970   22.6440  -31.2500 C   0  0  0  0  0  0  0  0  0  0  0  0
   -3.1280   24.5380  -28.0590 C   0  0  0  0  0  0  0  0  0  0  0  0
   -1.9680   24.4440  -27.2890 C   0  0  0  0  0  0  0  0  0  0  0  0
   -1.4650   23.1900  -26.9190 C   0  0  0  0  0  0  0  0  0  0  0  0
   -0.2680   23.1070  -26.1390 N   0  0  0  0  0  0  0  0  0  0  0  0
   -0.3650   22.8820  -24.7000 C   0  0  0  0  0  0  0  0  0  0  0  0
    1.2000   23.7520  -26.8030 S   0  0  0  0  0  0  0  0  0  0  0  0
    2.0870   24.6550  -25.5520 C   0  0  0  0  0  0  0  0  0  0  0  0
    2.0550   22.6280  -27.3160 O   0  0  0  0  0  0  0  0  0  0  0  0
    0.8830   24.6870  -27.9360 O   0  0  0  0  0  0  0  0  0  0  0  0
   -2.4231   19.2862  -25.0717 H   0  0  0  0  0  0  0  0  0  0  0  0
   -3.9432   19.2318  -26.0271 H   0  0  0  0  0  0  0  0  0  0  0  0
   -2.8314   17.8209  -26.0271 H   0  0  0  0  0  0  0  0  0  0  0  0
   -1.3363   18.8193  -27.4868 H   0  0  0  0  0  0  0  0  0  0  0  0
   -2.8672   19.6093  -28.0313 H   0  0  0  0  0  0  0  0  0  0  0  0
   -3.8439   21.2097  -28.3813 H   0  0  0  0  0  0  0  0  0  0  0  0
   -5.7440   22.7360  -29.0810 H   0  0  0  0  0  0  0  0  0  0  0  0
   -7.2581   24.8476  -30.3358 H   0  0  0  0  0  0  0  0  0  0  0  0
   -6.4444   25.0796  -31.9243 H   0  0  0  0  0  0  0  0  0  0  0  0
   -5.0213   22.4818  -32.2275 H   0  0  0  0  0  0  0  0  0  0  0  0
   -5.7523   20.1963  -32.9021 H   0  0  0  0  0  0  0  0  0  0  0  0
   -8.4389   18.4834  -31.7361 H   0  0  0  0  0  0  0  0  0  0  0  0
   -9.1537   19.1859  -33.2267 H   0  0  0  0  0  0  0  0  0  0  0  0
   -7.4469   18.6261  -33.2267 H   0  0  0  0  0  0  0  0  0  0  0  0
   -9.7458   21.0439  -31.4558 H   0  0  0  0  0  0  0  0  0  0  0  0
   -9.0162   23.3324  -30.7822 H   0  0  0  0  0  0  0  0  0  0  0  0
   -3.5220   25.5267  -28.3368 H   0  0  0  0  0  0  0  0  0  0  0  0
   -1.4462   25.3587  -26.9711 H   0  0  0  0  0  0  0  0  0  0  0  0
    0.0154   23.7643  -24.1645 H   0  0  0  0  0  0  0  0  0  0  0  0
   -1.4165   22.7116  -24.4256 H   0  0  0  0  0  0  0  0  0  0  0  0
    0.2330   22.0005  -24.4256 H   0  0  0  0  0  0  0  0  0  0  0  0
    1.7589   24.3210  -24.5566 H   0  0  0  0  0  0  0  0  0  0  0  0
    3.1659   24.4717  -25.6631 H   0  0  0  0  0  0  0  0  0  0  0  0
    1.8844   25.7305  -25.6631 H   0  0  0  0  0  0  0  0  0  0  0  0
  1  2  1  0
  2  3  1  0
  3  4  1  0
  4  5  2  0
  5  6  1  0
  6  7  1  0
  7  8  1  0
  8  9  2  0
  8 10  1  0
 10 11  1  0
 11 12  2  0
 12 13  1  0
 13 14  2  0
 14 15  1  0
 14 16  1  0
 16 17  2  0
  6 18  2  0
 18 19  1  0
 19 20  2  0
 20 21  1  0
 21 22  1  0
 21 23  1  0
 23 24  1  0
 23 25  2  0
 23 26  2  0
 20  4  1  0
 17 11  1  0
  1 27  1  0
  1 28  1  0
  1 29  1  0
  2 30  1  0
  2 31  1  0
  5 32  1  0
  7 33  1  0
 10 34  1  0
 10 35  1  0
 12 36  1  0
 13 37  1  0
 15 38  1  0
 15 39  1  0
 15 40  1  0
 16 41  1  0
 17 42  1  0
 18 43  1  0
 19 44  1  0
 22 45  1  0
 22 46  1  0
 22 47  1  0
 24 48  1  0
 24 49  1  0
 24 50  1  0
M  END
>  <UniqueID>  (7) 
7

>  <SMILES>  (7) 
CCOc1cc(NC(=O)Cc2ccc(C)cc2)ccc1N(C)S(C)(=O)=O

>  <Energy>  (7) 
49.20561763632258

>  <Genealogy>  (7) 
CCOc1cc(NC(=O)Cc2ccc(C)cc2)ccc1N(C)S(C)(=O)=O (3D coordinates assigned)
CCOc1cc(NC(=O)Cc2ccc(C)cc2)ccc1N(C)S(C)(=O)=O (optimized conformer: 49.20561763632258 kcal/mol)

>  <smiles>  (7) 
CCOc1cc(NC(=O)Cc2ccc(C)cc2)ccc1N(C)S(C)(=O)=O

>  <score_type>  (7) 
oracle

>  <origin>  (7) 
adgpu

>  <m_score__min__energy>  (7) 
-8.9399999999999995

>  <m_primary>  (7) 
energy

$$$$
7:0
     RDKit          3D

 65 69  0  0  0  0  0  0  0  0999 V2000
   -2.2510   24.9400  -28.5540 C   0  0  0  0  0  0  0  0  0  0  0  0
   -3.3310   24.5480  -29.5090 C   0  0  0  0  0  0  0  0  0  0  0  0
   -3.7300   25.3070  -30.5010 O   0  0  0  0  0  0  0  0  0  0  0  0
   -4.6900   24.7430  -31.1690 N   0  0  0  0  0  0  0  0  0  0  0  0
   -4.9290   23.5500  -30.5940 C   0  0  0  0  0  0  0  0  0  0  0  0
   -5.9890   22.6490  -31.0780 C   0  0  0  0  0  0  0  0  0  0  0  0
   -7.2370   22.6530  -30.4310 C   0  0  0  0  0  0  0  0  0  0  0  0
   -7.4430   23.4310  -29.3380 F   0  0  0  0  0  0  0  0  0  0  0  0
   -8.2750   21.8390  -30.8950 C   0  0  0  0  0  0  0  0  0  0  0  0
   -8.0920   21.0510  -32.0300 C   0  0  0  0  0  0  0  0  0  0  0  0
   -6.8730   21.0770  -32.7090 C   0  0  0  0  0  0  0  0  0  0  0  0
   -5.8140   21.8620  -32.2360 C   0  0  0  0  0  0  0  0  0  0  0  0
   -4.2980   21.8630  -33.1330 Cl  0  0  0  0  0  0  0  0  0  0  0  0
   -4.0800   23.3800  -29.5050 C   0  0  0  0  0  0  0  0  0  0  0  0
   -4.0040   22.2680  -28.5230 C   0  0  0  0  0  0  0  0  0  0  0  0
   -4.4960   22.4170  -27.3750 O   0  0  0  0  0  0  0  0  0  0  0  0
   -3.3650   21.0270  -28.8300 N   0  0  0  0  0  0  0  0  0  0  0  0
   -2.3680   20.8450  -29.8470 C   0  0  0  0  0  0  0  0  0  0  0  0
   -2.6530   20.1610  -31.0450 C   0  0  0  0  0  0  0  0  0  0  0  0
   -1.6650   20.0100  -32.0290 C   0  0  0  0  0  0  0  0  0  0  0  0
   -2.0270   19.0920  -33.4890 S   0  0  0  0  0  0  0  0  0  0  0  0
   -0.7660   18.4990  -34.0500 O   0  0  0  0  0  0  0  0  0  0  0  0
   -2.6200   20.0220  -34.5070 O   0  0  0  0  0  0  0  0  0  0  0  0
   -3.1650   17.8230  -33.0880 N   0  0  0  0  0  0  0  0  0  0  0  0
   -3.0880   16.6800  -34.0330 C   0  0  0  0  0  0  0  0  0  0  0  0
   -4.3840   16.4340  -34.8270 C   0  0  0  0  0  0  0  0  0  0  0  0
   -4.9630   17.7550  -35.3270 C   0  0  0  0  0  0  0  0  0  0  0  0
   -5.2410   18.7350  -34.1720 C   0  0  0  0  0  0  0  0  0  0  0  0
   -4.5270   18.3530  -32.8620 C   0  0  0  0  0  0  0  0  0  0  0  0
   -0.3890   20.5480  -31.8200 C   0  0  0  0  0  0  0  0  0  0  0  0
   -0.0920   21.2000  -30.6220 C   0  0  0  0  0  0  0  0  0  0  0  0
   -1.0630   21.3250  -29.6230 C   0  0  0  0  0  0  0  0  0  0  0  0
   -0.7110   21.8860  -28.3500 N   0  0  0  0  0  0  0  0  0  0  0  0
    0.2660   22.9760  -28.3030 C   0  0  0  0  0  0  0  0  0  0  0  0
    0.1790   23.6920  -26.9540 C   0  0  0  0  0  0  0  0  0  0  0  0
    0.2770   22.7610  -25.8920 O   0  0  0  0  0  0  0  0  0  0  0  0
   -0.8650   21.9240  -25.8900 C   0  0  0  0  0  0  0  0  0  0  0  0
   -0.9170   21.0620  -27.1570 C   0  0  0  0  0  0  0  0  0  0  0  0
   -2.6091   24.8100  -27.5221 H   0  0  0  0  0  0  0  0  0  0  0  0
   -1.3679   24.3050  -28.7184 H   0  0  0  0  0  0  0  0  0  0  0  0
   -1.9808   25.9935  -28.7184 H   0  0  0  0  0  0  0  0  0  0  0  0
   -9.2378   21.8205  -30.3633 H   0  0  0  0  0  0  0  0  0  0  0  0
   -8.9087   20.4084  -32.3907 H   0  0  0  0  0  0  0  0  0  0  0  0
   -6.7431   20.4770  -33.6217 H   0  0  0  0  0  0  0  0  0  0  0  0
   -3.6569   19.7426  -31.2098 H   0  0  0  0  0  0  0  0  0  0  0  0
   -2.2763   16.8773  -34.7487 H   0  0  0  0  0  0  0  0  0  0  0  0
   -2.9102   15.7788  -33.4278 H   0  0  0  0  0  0  0  0  0  0  0  0
   -4.1635   15.7862  -35.6883 H   0  0  0  0  0  0  0  0  0  0  0  0
   -5.1192   15.9501  -34.1672 H   0  0  0  0  0  0  0  0  0  0  0  0
   -4.2456   18.2176  -36.0208 H   0  0  0  0  0  0  0  0  0  0  0  0
   -5.9181   17.5400  -35.8285 H   0  0  0  0  0  0  0  0  0  0  0  0
   -4.9018   19.7366  -34.4750 H   0  0  0  0  0  0  0  0  0  0  0  0
   -6.3225   18.7053  -33.9735 H   0  0  0  0  0  0  0  0  0  0  0  0
   -4.4554   19.2479  -32.2263 H   0  0  0  0  0  0  0  0  0  0  0  0
   -5.1171   17.5588  -32.3813 H   0  0  0  0  0  0  0  0  0  0  0  0
    0.3803   20.4567  -32.6010 H   0  0  0  0  0  0  0  0  0  0  0  0
    0.9127   21.6184  -30.4625 H   0  0  0  0  0  0  0  0  0  0  0  0
    1.2780   22.5652  -28.4338 H   0  0  0  0  0  0  0  0  0  0  0  0
    0.0498   23.6925  -29.1091 H   0  0  0  0  0  0  0  0  0  0  0  0
    1.0014   24.4183  -26.8759 H   0  0  0  0  0  0  0  0  0  0  0  0
   -0.7901   24.2081  -26.8867 H   0  0  0  0  0  0  0  0  0  0  0  0
   -0.8275   21.2665  -25.0089 H   0  0  0  0  0  0  0  0  0  0  0  0
   -1.7637   22.5576  -25.8602 H   0  0  0  0  0  0  0  0  0  0  0  0
   -0.1288   20.2964  -27.1059 H   0  0  0  0  0  0  0  0  0  0  0  0
   -1.9065   20.5858  -27.2215 H   0  0  0  0  0  0  0  0  0  0  0  0
  1  2  1  0
  2  3  1  0
  3  4  1  0
  4  5  2  0
  5  6  1  0
  6  7  2  0
  7  8  1  0
  7  9  1  0
  9 10  2  0
 10 11  1  0
 11 12  2  0
 12 13  1  0
  5 14  1  0
 14 15  1  0
 15 16  2  0
 15 17  1  0
 17 18  1  0
 18 19  2  0
 19 20  1  0
 20 21  1  0
 21 22  2  0
 21 23  2  0
 21 24  1  0
 24 25  1  0
 25 26  1  0
 26 27  1  0
 27 28  1  0
 28 29  1  0
 20 30  2  0
 30 31  1  0
 31 32  2  0
 32 33  1  0
 33 34  1  0
 34 35  1  0
 35 36  1  0
 36 37  1  0
 37 38  1  0
 14  2  2  0
 32 18  1  0
 38 33  1  0
 12  6  1  0
 29 24  1  0
  1 39  1  0
  1 40  1  0
  1 41  1  0
  9 42  1  0
 10 43  1  0
 11 44  1  0
 19 45  1  0
 25 46  1  0
 25 47  1  0
 26 48  1  0
 26 49  1  0
 27 50  1  0
 27 51  1  0
 28 52  1  0
 28 53  1  0
 29 54  1  0
 29 55  1  0
 30 56  1  0
 31 57  1  0
 34 58  1  0
 34 59  1  0
 35 60  1  0
 35 61  1  0
 37 62  1  0
 37 63  1  0
 38 64  1  0
 38 65  1  0
M  CHG  1  17  -1
M  END
>  <UniqueID>  (8) 
8

>  <SMILES>  (8) 
Cc1onc(-c2c(F)cccc2Cl)c1C(=O)[N-]c1cc(S(=O)(=O)N2CCCCC2)ccc1N1CCOCC1

>  <Energy>  (8) 
125.55260494112632

>  <Genealogy>  (8) 
Cc1onc(-c2c(F)cccc2Cl)c1C(=O)[N-]c1cc(S(=O)(=O)N2CCCCC2)ccc1N1CCOCC1 (protonated)
Cc1onc(-c2c(F)cccc2Cl)c1C(=O)[N-]c1cc(S(=O)(=O)N2CCCCC2)ccc1N1CCOCC1 (3D coordinates assigned)
Cc1onc(-c2c(F)cccc2Cl)c1C(=O)[N-]c1cc(S(=O)(=O)N2CCCCC2)ccc1N1CCOCC1 (nonaromatic ring conformer: 125.55260494112632 kcal/mol)

>  <smiles>  (8) 
Cc1onc(-c2c(F)cccc2Cl)c1C(=O)Nc1cc(S(=O)(=O)N2CCCCC2)ccc1N1CCOCC1

>  <score_type>  (8) 
oracle

>  <origin>  (8) 
adgpu

>  <m_score__min__energy>  (8) 
-11.140000000000001

>  <m_primary>  (8) 
energy

$$$$
8:0
     RDKit          3D

 33 35  0  0  0  0  0  0  0  0999 V2000
   -9.0015   23.1646  -31.1130 H   0  0  0  0  0  0  0  0  0  0  0  0
   -7.9730   22.8820  -31.3820 C   0  0  0  0  0  0  0  0  0  0  0  0
   -7.7500   21.8510  -32.2920 C   0  0  0  0  0  0  0  0  0  0  0  0
   -8.6029   21.3107  -32.7286 H   0  0  0  0  0  0  0  0  0  0  0  0
   -6.4480   21.5020  -32.6510 C   0  0  0  0  0  0  0  0  0  0  0  0
   -6.2810   20.6855  -33.3690 H   0  0  0  0  0  0  0  0  0  0  0  0
   -5.3460   22.1850  -32.1030 C   0  0  0  0  0  0  0  0  0  0  0  0
   -3.9650   21.8010  -32.5630 C   0  0  0  0  0  0  0  0  0  0  0  0
   -3.3233   21.6226  -31.6876 H   0  0  0  0  0  0  0  0  0  0  0  0
   -4.0219   20.8846  -33.1688 H   0  0  0  0  0  0  0  0  0  0  0  0
   -3.5407   22.6152  -33.1688 H   0  0  0  0  0  0  0  0  0  0  0  0
   -5.5720   23.2050  -31.1400 C   0  0  0  0  0  0  0  0  0  0  0  0
   -4.4660   23.9250  -30.4600 C   0  0  0  0  0  0  0  0  0  0  0  0
   -4.1710   25.0900  -30.8380 O   0  0  0  0  0  0  0  0  0  0  0  0
   -3.6810   23.3230  -29.4190 N   0  0  0  0  0  0  0  0  0  0  0  0
   -2.7280   23.8730  -28.7210 C   0  0  0  0  0  0  0  0  0  0  0  0
   -2.1830   23.1630  -27.7000 N   0  0  0  0  0  0  0  0  0  0  0  0
   -1.1960   23.6750  -26.9230 C   0  0  0  0  0  0  0  0  0  0  0  0
   -0.6650   22.9180  -25.8730 C   0  0  0  0  0  0  0  0  0  0  0  0
   -1.0456   21.9043  -25.6791 H   0  0  0  0  0  0  0  0  0  0  0  0
    0.3490   23.4490  -25.0700 C   0  0  0  0  0  0  0  0  0  0  0  0
    0.7646   22.8524  -24.2446 H   0  0  0  0  0  0  0  0  0  0  0  0
    0.8360   24.7370  -25.3140 C   0  0  0  0  0  0  0  0  0  0  0  0
    1.6327   25.1517  -24.6789 H   0  0  0  0  0  0  0  0  0  0  0  0
    0.3130   25.4990  -26.3630 C   0  0  0  0  0  0  0  0  0  0  0  0
    0.7003   26.5108  -26.5535 H   0  0  0  0  0  0  0  0  0  0  0  0
   -0.7080   24.9730  -27.1750 C   0  0  0  0  0  0  0  0  0  0  0  0
   -1.2640   25.6890  -28.2460 C   0  0  0  0  0  0  0  0  0  0  0  0
   -0.8530   26.8490  -28.5260 O   0  0  0  0  0  0  0  0  0  0  0  0
   -2.2520   25.1280  -28.9980 N   0  0  0  0  0  0  0  0  0  0  0  0
   -2.6070   25.6720  -29.8150 H   0  0  0  0  0  0  0  0  0  0  0  0
   -6.8920   23.5570  -30.8110 C   0  0  0  0  0  0  0  0  0  0  0  0
   -7.0757   24.3727  -30.0963 H   0  0  0  0  0  0  0  0  0  0  0  0
  1  2  1  0
  2  3  2  0
  3  4  1  0
  3  5  1  0
  5  6  1  0
  5  7  2  0
  7  8  1  0
  8  9  1  0
  8 10  1  0
  8 11  1  0
  7 12  1  0
 12 13  1  0
 13 14  2  0
 13 15  1  0
 15 16  2  0
 16 17  1  0
 17 18  1  0
 18 19  2  0
 19 20  1  0
 19 21  1  0
 21 22  1  0
 21 23  2  0
 23 24  1  0
 23 25  1  0
 25 26  1  0
 25 27  2  0
 27 28  1  0
 28 29  2  0
 28 30  1  0
 30 31  1  0
 12 32  2  0
 32 33  1  0
 32  2  1  0
 30 16  1  0
 27 18  1  0
M  CHG  1  17  -1
M  END
>  <UniqueID>  (9) 
9

>  <SMILES>  (9) 
Cc1ccccc1C(=O)/N=c1/[n-]c2ccccc2c(=O)[nH]1

>  <Energy>  (9) 
53.16545748098687

>  <Genealogy>  (9) 
Cc1ccccc1C(=O)N=c1[n-]c2ccccc2c(=O)[nH]1 (protonated)
Cc1ccccc1C(=O)/N=c1/[n-]c2ccccc2c(=O)[nH]1 (cis-trans isomerization)
Cc1ccccc1C(=O)/N=c1/[n-]c2ccccc2c(=O)[nH]1 (3D coordinates assigned)
Cc1ccccc1C(=O)/N=c1/[n-]c2ccccc2c(=O)[nH]1 (optimized conformer: 53.16545748098687 kcal/mol)

>  <smiles>  (9) 
Cc1ccccc1C(=O)N=c1[nH]c(=O)c2ccccc2[nH]1

>  <score_type>  (9) 
oracle

>  <origin>  (9) 
adgpu

>  <m_score__min__energy>  (9) 
-8.9700000000000006

>  <m_primary>  (9) 
energy

$$$$
9:0
     RDKit          3D

 45 48  0  0  0  0  0  0  0  0999 V2000
   -5.8380   26.7440  -28.6090 H   0  0  0  0  0  0  0  0  0  0  0  0
   -6.3600   26.2010  -29.3340 N   0  0  0  0  0  0  0  0  0  0  0  0
   -5.8330   25.1880  -29.9440 C   0  0  0  0  0  0  0  0  0  0  0  0
   -6.5590   24.5220  -30.8780 N   0  0  0  0  0  0  0  0  0  0  0  0
   -6.0430   23.4550  -31.5400 C   0  0  0  0  0  0  0  0  0  0  0  0
   -6.6485   22.9362  -32.2978 H   0  0  0  0  0  0  0  0  0  0  0  0
   -4.7430   23.0110  -31.2630 C   0  0  0  0  0  0  0  0  0  0  0  0
   -4.1750   21.8470  -31.9900 C   0  0  0  0  0  0  0  0  0  0  0  0
   -4.9790   20.7870  -32.2740 N   0  0  0  0  0  0  0  0  0  0  0  0
   -4.5150   19.6960  -32.9380 C   0  0  0  0  0  0  0  0  0  0  0  0
   -5.3930   18.6000  -33.2280 N   0  0  0  0  0  0  0  0  0  0  0  0
   -5.0630   17.5330  -34.1550 C   0  0  0  0  0  0  0  0  0  0  0  0
   -4.7804   17.9480  -35.1337 H   0  0  0  0  0  0  0  0  0  0  0  0
   -4.2100   16.9351  -33.8016 H   0  0  0  0  0  0  0  0  0  0  0  0
   -6.3280   16.6940  -34.2780 C   0  0  0  0  0  0  0  0  0  0  0  0
   -6.8415   16.9133  -35.2258 H   0  0  0  0  0  0  0  0  0  0  0  0
   -6.1000   15.6179  -34.2722 H   0  0  0  0  0  0  0  0  0  0  0  0
   -7.2100   17.0860  -33.0930 C   0  0  0  0  0  0  0  0  0  0  0  0
   -8.2622   17.1553  -33.4060 H   0  0  0  0  0  0  0  0  0  0  0  0
   -7.1582   16.3389  -32.2873 H   0  0  0  0  0  0  0  0  0  0  0  0
   -6.7060   18.4450  -32.6270 C   0  0  0  0  0  0  0  0  0  0  0  0
   -7.3816   19.2431  -32.9685 H   0  0  0  0  0  0  0  0  0  0  0  0
   -6.6622   18.5092  -31.5297 H   0  0  0  0  0  0  0  0  0  0  0  0
   -3.2130   19.6500  -33.3240 N   0  0  0  0  0  0  0  0  0  0  0  0
   -2.3510   20.6670  -33.0600 C   0  0  0  0  0  0  0  0  0  0  0  0
   -0.9750   20.5640  -33.4880 N   0  0  0  0  0  0  0  0  0  0  0  0
   -0.1010   19.5650  -32.8580 C   0  0  0  0  0  0  0  0  0  0  0  0
   -0.3881   19.4456  -31.8029 H   0  0  0  0  0  0  0  0  0  0  0  0
   -0.2107   18.6080  -33.3891 H   0  0  0  0  0  0  0  0  0  0  0  0
    1.3610   20.0130  -32.9360 C   0  0  0  0  0  0  0  0  0  0  0  0
    1.5048   20.8899  -32.2876 H   0  0  0  0  0  0  0  0  0  0  0  0
    2.0028   19.1833  -32.6047 H   0  0  0  0  0  0  0  0  0  0  0  0
    1.7100   20.3550  -34.2630 O   0  0  0  0  0  0  0  0  0  0  0  0
    0.9790   21.4970  -34.6630 C   0  0  0  0  0  0  0  0  0  0  0  0
    1.1456   22.3045  -33.9348 H   0  0  0  0  0  0  0  0  0  0  0  0
    1.3239   21.8030  -35.6617 H   0  0  0  0  0  0  0  0  0  0  0  0
   -0.5190   21.1890  -34.7360 C   0  0  0  0  0  0  0  0  0  0  0  0
   -1.0740   22.1251  -34.8963 H   0  0  0  0  0  0  0  0  0  0  0  0
   -0.7000   20.4944  -35.5695 H   0  0  0  0  0  0  0  0  0  0  0  0
   -2.8260   21.8010  -32.3790 C   0  0  0  0  0  0  0  0  0  0  0  0
   -2.1513   22.6402  -32.1539 H   0  0  0  0  0  0  0  0  0  0  0  0
   -4.0070   23.7230  -30.3000 C   0  0  0  0  0  0  0  0  0  0  0  0
   -2.9777   23.4169  -30.0615 H   0  0  0  0  0  0  0  0  0  0  0  0
   -4.5610   24.7880  -29.6620 N   0  0  0  0  0  0  0  0  0  0  0  0
   -3.9920   25.3010  -28.9520 H   0  0  0  0  0  0  0  0  0  0  0  0
  1  2  1  0
  2  3  2  0
  3  4  1  0
  4  5  2  0
  5  6  1  0
  5  7  1  0
  7  8  1  0
  8  9  2  0
  9 10  1  0
 10 11  1  0
 11 12  1  0
 12 13  1  0
 12 14  1  0
 12 15  1  0
 15 16  1  0
 15 17  1  0
 15 18  1  0
 18 19  1  0
 18 20  1  0
 18 21  1  0
 21 22  1  0
 21 23  1  0
 10 24  2  0
 24 25  1  0
 25 26  1  0
 26 27  1  0
 27 28  1  0
 27 29  1  0
 27 30  1  0
 30 31  1  0
 30 32  1  0
 30 33  1  0
 33 34  1  0
 34 35  1  0
 34 36  1  0
 34 37  1  0
 37 38  1  0
 37 39  1  0
 25 40  2  0
 40 41  1  0
  7 42  2  0
 42 43  1  0
 42 44  1  0
 44 45  1  0
 44  3  1  0
 40  8  1  0
 21 11  1  0
 37 26  1  0
M  END
>  <UniqueID>  (10) 
10

>  <SMILES>  (10) 
[H]/N=c1/ncc(-c2cc(N3CCOCC3)nc(N3CCCC3)n2)c[nH]1

>  <Energy>  (10) 
54.53089886414532

>  <Genealogy>  (10) 
[H]/N=c1/ncc(-c2cc(N3CCOCC3)nc(N3CCCC3)n2)c[nH]1 (cis-trans isomerization)
[H]/N=c1/ncc(-c2cc(N3CCOCC3)nc(N3CCCC3)n2)c[nH]1 (3D coordinates assigned)
[H]/N=c1/ncc(-c2cc(N3CCOCC3)nc(N3CCCC3)n2)c[nH]1 (nonaromatic ring conformer: 54.53089886414532 kcal/mol)

>  <smiles>  (10) 
N=c1ncc(-c2cc(N3CCOCC3)nc(N3CCCC3)n2)c[nH]1

>  <score_type>  (10) 
oracle

>  <origin>  (10) 
adgpu

>  <m_score__min__energy>  (10) 
-7.3499999999999996

>  <m_primary>  (10) 
energy

$$$$
10:0
     RDKit          3D

 45 48  0  0  0  0  0  0  0  0999 V2000
   -3.9350   25.3070  -30.5600 O   0  0  0  0  0  0  0  0  0  0  0  0
   -3.4680   24.1400  -30.4800 C   0  0  0  0  0  0  0  0  0  0  0  0
   -3.9840   23.0630  -31.3870 C   0  0  0  0  0  0  0  0  0  0  0  0
   -3.0190   21.9620  -31.5310 N   0  0  0  0  0  0  0  0  0  0  0  0
   -3.0910   21.1720  -32.7270 C   0  0  0  0  0  0  0  0  0  0  0  0
   -2.1300   21.2020  -33.5440 O   0  0  0  0  0  0  0  0  0  0  0  0
   -4.2640   20.3040  -32.9820 C   0  0  0  0  0  0  0  0  0  0  0  0
   -4.1280   19.1080  -33.7070 C   0  0  0  0  0  0  0  0  0  0  0  0
   -5.2330   18.2780  -33.9150 C   0  0  0  0  0  0  0  0  0  0  0  0
   -6.4820   18.6300  -33.3990 C   0  0  0  0  0  0  0  0  0  0  0  0
   -6.6360   19.8200  -32.6770 C   0  0  0  0  0  0  0  0  0  0  0  0
   -8.2130   20.2670  -32.0140 S   0  0  0  0  0  0  0  0  0  0  0  0
   -9.2490   20.1480  -33.0970 O   0  0  0  0  0  0  0  0  0  0  0  0
   -8.5740   19.3060  -30.9170 O   0  0  0  0  0  0  0  0  0  0  0  0
   -8.2400   21.8930  -31.3750 N   0  0  0  0  0  0  0  0  0  0  0  0
   -7.4980   22.0040  -30.1220 C   0  0  0  0  0  0  0  0  0  0  0  0
   -7.0720   23.4570  -30.0050 C   0  0  0  0  0  0  0  0  0  0  0  0
   -7.1190   24.0050  -31.4240 C   0  0  0  0  0  0  0  0  0  0  0  0
   -7.6190   22.8550  -32.2850 C   0  0  0  0  0  0  0  0  0  0  0  0
   -5.5310   20.6610  -32.4860 C   0  0  0  0  0  0  0  0  0  0  0  0
   -2.1130   21.6170  -30.4560 C   0  0  0  0  0  0  0  0  0  0  0  0
   -1.4320   20.3830  -30.4260 C   0  0  0  0  0  0  0  0  0  0  0  0
   -0.5460   20.0910  -29.3830 C   0  0  0  0  0  0  0  0  0  0  0  0
   -0.3220   21.0250  -28.3710 C   0  0  0  0  0  0  0  0  0  0  0  0
   -0.9790   22.2570  -28.3980 C   0  0  0  0  0  0  0  0  0  0  0  0
   -1.8700   22.5550  -29.4350 C   0  0  0  0  0  0  0  0  0  0  0  0
   -2.5020   23.8330  -29.4770 N   0  0  0  0  0  0  0  0  0  0  0  0
   -4.9201   22.6638  -30.9693 H   0  0  0  0  0  0  0  0  0  0  0  0
   -4.1511   23.5037  -32.3809 H   0  0  0  0  0  0  0  0  0  0  0  0
   -3.1462   18.8234  -34.1132 H   0  0  0  0  0  0  0  0  0  0  0  0
   -5.1186   17.3451  -34.4866 H   0  0  0  0  0  0  0  0  0  0  0  0
   -7.3475   17.9705  -33.5602 H   0  0  0  0  0  0  0  0  0  0  0  0
   -8.1403   21.7261  -29.2733 H   0  0  0  0  0  0  0  0  0  0  0  0
   -6.6282   21.3307  -30.1119 H   0  0  0  0  0  0  0  0  0  0  0  0
   -7.7655   24.0107  -29.3550 H   0  0  0  0  0  0  0  0  0  0  0  0
   -6.0709   23.5562  -29.5601 H   0  0  0  0  0  0  0  0  0  0  0  0
   -7.8095   24.8591  -31.4840 H   0  0  0  0  0  0  0  0  0  0  0  0
   -6.1344   24.3663  -31.7557 H   0  0  0  0  0  0  0  0  0  0  0  0
   -8.3576   23.2196  -33.0141 H   0  0  0  0  0  0  0  0  0  0  0  0
   -6.7951   22.3936  -32.8492 H   0  0  0  0  0  0  0  0  0  0  0  0
   -5.6558   21.6094  -31.9429 H   0  0  0  0  0  0  0  0  0  0  0  0
   -1.5978   19.6464  -31.2260 H   0  0  0  0  0  0  0  0  0  0  0  0
   -0.0248   19.1226  -29.3609 H   0  0  0  0  0  0  0  0  0  0  0  0
    0.3728   20.7907  -27.5510 H   0  0  0  0  0  0  0  0  0  0  0  0
   -0.7958   22.9945  -27.6027 H   0  0  0  0  0  0  0  0  0  0  0  0
  1  2  2  0
  2  3  1  0
  3  4  1  0
  4  5  1  0
  5  6  2  0
  5  7  1  0
  7  8  2  0
  8  9  1  0
  9 10  2  0
 10 11  1  0
 11 12  1  0
 12 13  2  0
 12 14  2  0
 12 15  1  0
 15 16  1  0
 16 17  1  0
 17 18  1  0
 18 19  1  0
 11 20  2  0
  4 21  1  0
 21 22  2  0
 22 23  1  0
 23 24  2  0
 24 25  1  0
 25 26  2  0
 26 27  1  0
 27  2  1  0
 20  7  1  0
 26 21  1  0
 19 15  1  0
  3 28  1  0
  3 29  1  0
  8 30  1  0
  9 31  1  0
 10 32  1  0
 16 33  1  0
 16 34  1  0
 17 35  1  0
 17 36  1  0
 18 37  1  0
 18 38  1  0
 19 39  1  0
 19 40  1  0
 20 41  1  0
 22 42  1  0
 23 43  1  0
 24 44  1  0
 25 45  1  0
M  CHG  1  27  -1
M  END
>  <UniqueID>  (11) 
11

>  <SMILES>  (11) 
O=C1CN(C(=O)c2cccc(S(=O)(=O)N3CCCC3)c2)c2ccccc2[N-]1

>  <Energy>  (11) 
58.285278744051276

>  <Genealogy>  (11) 
O=C1CN(C(=O)c2cccc(S(=O)(=O)N3CCCC3)c2)c2ccccc2[N-]1 (protonated)
O=C1CN(C(=O)c2cccc(S(=O)(=O)N3CCCC3)c2)c2ccccc2[N-]1 (3D coordinates assigned)
O=C1CN(C(=O)c2cccc(S(=O)(=O)N3CCCC3)c2)c2ccccc2[N-]1 (nonaromatic ring conformer: 58.285278744051276 kcal/mol)

>  <smiles>  (11) 
O=C1CN(C(=O)c2cccc(S(=O)(=O)N3CCCC3)c2)c2ccccc2N1

>  <score_type>  (11) 
oracle

>  <origin>  (11) 
adgpu

>  <m_score__min__energy>  (11) 
-11.09

>  <m_primary>  (11) 
energy

$$$$
11:0
     RDKit          3D

 59 61  0  0  0  0  0  0  0  0999 V2000
   -6.4570   25.6830  -29.1120 C   0  0  0  0  0  0  0  0  0  0  0  0
   -5.6040   24.5860  -29.7860 C   0  0  0  0  0  0  0  0  0  0  0  0
   -4.7020   25.2820  -30.8380 C   0  0  0  0  0  0  0  0  0  0  0  0
   -4.7160   23.9480  -28.6890 C   0  0  0  0  0  0  0  0  0  0  0  0
   -6.4580   23.4970  -30.4820 C   0  0  0  0  0  0  0  0  0  0  0  0
   -6.3550   23.3140  -31.8780 C   0  0  0  0  0  0  0  0  0  0  0  0
   -7.1500   22.3760  -32.5480 C   0  0  0  0  0  0  0  0  0  0  0  0
   -8.0770   21.5920  -31.8460 C   0  0  0  0  0  0  0  0  0  0  0  0
   -8.9120   20.5560  -32.5600 C   0  0  0  0  0  0  0  0  0  0  0  0
   -8.4650   19.2090  -32.2040 N   0  0  0  0  0  0  0  0  0  0  0  0
   -7.1790   18.7070  -32.5930 C   0  0  0  0  0  0  0  0  0  0  0  0
   -6.5890   17.3510  -31.8760 S   0  0  0  0  0  0  0  0  0  0  0  0
   -6.4870   19.2850  -33.7080 N   0  0  0  0  0  0  0  0  0  0  0  0
   -5.0790   19.5590  -33.7060 C   0  0  0  0  0  0  0  0  0  0  0  0
   -4.6140   20.7970  -33.2380 C   0  0  0  0  0  0  0  0  0  0  0  0
   -3.2490   21.1010  -33.2790 C   0  0  0  0  0  0  0  0  0  0  0  0
   -2.3300   20.1610  -33.7710 C   0  0  0  0  0  0  0  0  0  0  0  0
   -0.6090   20.5660  -33.8840 S   0  0  0  0  0  0  0  0  0  0  0  0
    0.0870   19.5400  -34.7360 O   0  0  0  0  0  0  0  0  0  0  0  0
   -0.4550   21.9060  -34.5590 O   0  0  0  0  0  0  0  0  0  0  0  0
    0.1440   20.6150  -32.3010 N   0  0  0  0  0  0  0  0  0  0  0  0
    0.2970   19.2440  -31.7660 C   0  0  0  0  0  0  0  0  0  0  0  0
    0.5200   19.2750  -30.2450 C   0  0  0  0  0  0  0  0  0  0  0  0
   -0.5140   19.9190  -29.5010 O   0  0  0  0  0  0  0  0  0  0  0  0
   -1.3550   20.7490  -30.2910 C   0  0  0  0  0  0  0  0  0  0  0  0
   -0.5830   21.5200  -31.3820 C   0  0  0  0  0  0  0  0  0  0  0  0
   -2.7870   18.9010  -34.1790 C   0  0  0  0  0  0  0  0  0  0  0  0
   -4.1520   18.5980  -34.1440 C   0  0  0  0  0  0  0  0  0  0  0  0
   -8.1950   21.7590  -30.4650 C   0  0  0  0  0  0  0  0  0  0  0  0
   -7.3890   22.6870  -29.7840 C   0  0  0  0  0  0  0  0  0  0  0  0
   -6.3817   25.5861  -28.0189 H   0  0  0  0  0  0  0  0  0  0  0  0
   -6.0894   26.6734  -29.4185 H   0  0  0  0  0  0  0  0  0  0  0  0
   -7.5074   25.5708  -29.4185 H   0  0  0  0  0  0  0  0  0  0  0  0
   -3.9317   25.8764  -30.3248 H   0  0  0  0  0  0  0  0  0  0  0  0
   -4.2186   24.5206  -31.4677 H   0  0  0  0  0  0  0  0  0  0  0  0
   -5.3159   25.9427  -31.4677 H   0  0  0  0  0  0  0  0  0  0  0  0
   -5.1023   24.2256  -27.6972 H   0  0  0  0  0  0  0  0  0  0  0  0
   -4.7316   22.8533  -28.7954 H   0  0  0  0  0  0  0  0  0  0  0  0
   -3.6835   24.3121  -28.7954 H   0  0  0  0  0  0  0  0  0  0  0  0
   -5.6368   23.9196  -32.4502 H   0  0  0  0  0  0  0  0  0  0  0  0
   -7.0464   22.2528  -33.6362 H   0  0  0  0  0  0  0  0  0  0  0  0
   -9.9661   20.6769  -32.2698 H   0  0  0  0  0  0  0  0  0  0  0  0
   -8.8014   20.6941  -33.6457 H   0  0  0  0  0  0  0  0  0  0  0  0
   -9.0680   18.6290  -31.5740 H   0  0  0  0  0  0  0  0  0  0  0  0
   -7.0360   19.4710  -34.5830 H   0  0  0  0  0  0  0  0  0  0  0  0
   -5.3265   21.5327  -32.8366 H   0  0  0  0  0  0  0  0  0  0  0  0
   -2.8947   22.0802  -32.9244 H   0  0  0  0  0  0  0  0  0  0  0  0
   -0.6135   18.6672  -31.9856 H   0  0  0  0  0  0  0  0  0  0  0  0
    1.1707   18.7746  -32.2417 H   0  0  0  0  0  0  0  0  0  0  0  0
    0.6013   18.2371  -29.8899 H   0  0  0  0  0  0  0  0  0  0  0  0
    1.4340   19.8639  -30.0782 H   0  0  0  0  0  0  0  0  0  0  0  0
   -2.1140   20.1185  -30.7771 H   0  0  0  0  0  0  0  0  0  0  0  0
   -1.8097   21.4927  -29.6200 H   0  0  0  0  0  0  0  0  0  0  0  0
   -1.2982   22.1176  -31.9662 H   0  0  0  0  0  0  0  0  0  0  0  0
    0.1594   22.1590  -30.8814 H   0  0  0  0  0  0  0  0  0  0  0  0
   -2.0680   18.1456  -34.5289 H   0  0  0  0  0  0  0  0  0  0  0  0
   -4.5011   17.6040  -34.4604 H   0  0  0  0  0  0  0  0  0  0  0  0
   -8.9262   21.1582  -29.9044 H   0  0  0  0  0  0  0  0  0  0  0  0
   -7.4818   22.7865  -28.6925 H   0  0  0  0  0  0  0  0  0  0  0  0
  1  2  1  0
  2  3  1  0
  2  4  1  0
  2  5  1  0
  5  6  2  0
  6  7  1  0
  7  8  2  0
  8  9  1  0
  9 10  1  0
 10 11  1  0
 11 12  2  0
 11 13  1  0
 13 14  1  0
 14 15  2  0
 15 16  1  0
 16 17  2  0
 17 18  1  0
 18 19  2  0
 18 20  2  0
 18 21  1  0
 21 22  1  0
 22 23  1  0
 23 24  1  0
 24 25  1  0
 25 26  1  0
 17 27  1  0
 27 28  2  0
  8 29  1  0
 29 30  2  0
 30  5  1  0
 28 14  1  0
 26 21  1  0
  1 31  1  0
  1 32  1  0
  1 33  1  0
  3 34  1  0
  3 35  1  0
  3 36  1  0
  4 37  1  0
  4 38  1  0
  4 39  1  0
  6 40  1  0
  7 41  1  0
  9 42  1  0
  9 43  1  0
 10 44  1  0
 13 45  1  0
 15 46  1  0
 16 47  1  0
 22 48  1  0
 22 49  1  0
 23 50  1  0
 23 51  1  0
 25 52  1  0
 25 53  1  0
 26 54  1  0
 26 55  1  0
 27 56  1  0
 28 57  1  0
 29 58  1  0
 30 59  1  0
M  END
>  <UniqueID>  (12) 
12

>  <SMILES>  (12) 
CC(C)(C)c1ccc(CNC(=S)Nc2ccc(S(=O)(=O)N3CCOCC3)cc2)cc1

>  <Energy>  (12) 
73.6128759750489

>  <Genealogy>  (12) 
CC(C)(C)c1ccc(CNC(=S)Nc2ccc(S(=O)(=O)N3CCOCC3)cc2)cc1 (3D coordinates assigned)
CC(C)(C)c1ccc(CNC(=S)Nc2ccc(S(=O)(=O)N3CCOCC3)cc2)cc1 (nonaromatic ring conformer: 73.6128759750489 kcal/mol)

>  <smiles>  (12) 
CC(C)(C)c1ccc(CNC(=S)Nc2ccc(S(=O)(=O)N3CCOCC3)cc2)cc1

>  <score_type>  (12) 
oracle

>  <origin>  (12) 
adgpu

>  <m_score__min__energy>  (12) 
-9.6300000000000008

>  <m_primary>  (12) 
energy

$$$$
12:0
     RDKit          3D

 60 63  0  0  0  0  0  0  0  0999 V2000
   -4.5000   25.4920  -30.9070 O   0  0  0  0  0  0  0  0  0  0  0  0
   -4.5160   24.0370  -30.5250 S   0  0  0  0  0  0  0  0  0  0  0  0
   -4.4630   23.9180  -29.0280 O   0  0  0  0  0  0  0  0  0  0  0  0
   -3.1300   23.2520  -31.2100 N   0  0  0  0  0  0  0  0  0  0  0  0
   -2.1190   22.5880  -30.4400 C   0  0  0  0  0  0  0  0  0  0  0  0
   -1.8050   21.2310  -30.6370 C   0  0  0  0  0  0  0  0  0  0  0  0
   -0.8380   20.6110  -29.8440 C   0  0  0  0  0  0  0  0  0  0  0  0
   -0.1820   21.3310  -28.8420 C   0  0  0  0  0  0  0  0  0  0  0  0
   -0.4900   22.6810  -28.6350 C   0  0  0  0  0  0  0  0  0  0  0  0
    0.2880   23.5850  -27.3400 S   0  0  0  0  0  0  0  0  0  0  0  0
    1.4920   22.8280  -26.8510 O   0  0  0  0  0  0  0  0  0  0  0  0
    0.7250   24.9180  -27.8780 O   0  0  0  0  0  0  0  0  0  0  0  0
   -0.8470   23.8070  -26.0250 N   0  0  0  0  0  0  0  0  0  0  0  0
   -0.1670   24.1980  -24.7630 C   0  0  0  0  0  0  0  0  0  0  0  0
   -0.6260   25.5520  -24.1980 C   0  0  0  0  0  0  0  0  0  0  0  0
   -0.6750   26.5960  -25.3100 C   0  0  0  0  0  0  0  0  0  0  0  0
   -1.6080   26.1680  -26.4570 C   0  0  0  0  0  0  0  0  0  0  0  0
   -1.9770   24.6720  -26.4180 C   0  0  0  0  0  0  0  0  0  0  0  0
   -1.4400   23.3110  -29.4520 C   0  0  0  0  0  0  0  0  0  0  0  0
   -5.9840   23.2570  -31.1050 C   0  0  0  0  0  0  0  0  0  0  0  0
   -7.2090   23.9360  -31.0810 C   0  0  0  0  0  0  0  0  0  0  0  0
   -8.3620   23.3170  -31.5710 C   0  0  0  0  0  0  0  0  0  0  0  0
   -8.2980   22.0190  -32.0850 C   0  0  0  0  0  0  0  0  0  0  0  0
   -7.0790   21.3270  -32.1000 C   0  0  0  0  0  0  0  0  0  0  0  0
   -6.9930   19.6860  -32.7420 S   0  0  0  0  0  0  0  0  0  0  0  0
   -6.8260   19.7490  -34.2360 O   0  0  0  0  0  0  0  0  0  0  0  0
   -8.2920   18.9870  -32.4570 O   0  0  0  0  0  0  0  0  0  0  0  0
   -5.6750   18.7620  -32.0510 N   0  0  0  0  0  0  0  0  0  0  0  0
   -5.9800   17.3210  -31.9620 C   0  0  0  0  0  0  0  0  0  0  0  0
   -5.7350   16.5650  -33.2890 C   0  0  0  0  0  0  0  0  0  0  0  0
   -5.0710   17.3460  -34.2640 O   0  0  0  0  0  0  0  0  0  0  0  0
   -3.9430   17.9640  -33.6880 C   0  0  0  0  0  0  0  0  0  0  0  0
   -4.3750   19.0520  -32.6920 C   0  0  0  0  0  0  0  0  0  0  0  0
   -5.9250   21.9500  -31.6080 C   0  0  0  0  0  0  0  0  0  0  0  0
   -2.3234   20.6564  -31.4188 H   0  0  0  0  0  0  0  0  0  0  0  0
   -0.5914   19.5517  -30.0084 H   0  0  0  0  0  0  0  0  0  0  0  0
    0.5760   20.8373  -28.2162 H   0  0  0  0  0  0  0  0  0  0  0  0
   -0.3664   23.4229  -24.0083 H   0  0  0  0  0  0  0  0  0  0  0  0
    0.9034   24.2973  -24.9962 H   0  0  0  0  0  0  0  0  0  0  0  0
   -1.6283   25.4416  -23.7584 H   0  0  0  0  0  0  0  0  0  0  0  0
    0.0871   25.8805  -23.4275 H   0  0  0  0  0  0  0  0  0  0  0  0
   -1.0390   27.5456  -24.8907 H   0  0  0  0  0  0  0  0  0  0  0  0
    0.3401   26.7069  -25.7190 H   0  0  0  0  0  0  0  0  0  0  0  0
   -2.5343   26.7577  -26.3919 H   0  0  0  0  0  0  0  0  0  0  0  0
   -1.0683   26.3456  -27.3989 H   0  0  0  0  0  0  0  0  0  0  0  0
   -2.7936   24.5316  -25.6945 H   0  0  0  0  0  0  0  0  0  0  0  0
   -2.2744   24.3808  -27.4362 H   0  0  0  0  0  0  0  0  0  0  0  0
   -1.6533   24.3815  -29.3154 H   0  0  0  0  0  0  0  0  0  0  0  0
   -7.2634   24.9573  -30.6761 H   0  0  0  0  0  0  0  0  0  0  0  0
   -9.3225   23.8528  -31.5521 H   0  0  0  0  0  0  0  0  0  0  0  0
   -9.2062   21.5393  -32.4787 H   0  0  0  0  0  0  0  0  0  0  0  0
   -5.3434   16.8760  -31.1831 H   0  0  0  0  0  0  0  0  0  0  0  0
   -7.0498   17.2266  -31.7238 H   0  0  0  0  0  0  0  0  0  0  0  0
   -5.1220   15.6767  -33.0766 H   0  0  0  0  0  0  0  0  0  0  0  0
   -6.7205   16.3003  -33.6997 H   0  0  0  0  0  0  0  0  0  0  0  0
   -3.3454   17.2064  -33.1598 H   0  0  0  0  0  0  0  0  0  0  0  0
   -3.3459   18.4292  -34.4862 H   0  0  0  0  0  0  0  0  0  0  0  0
   -3.6078   19.1347  -31.9080 H   0  0  0  0  0  0  0  0  0  0  0  0
   -4.4870   19.9898  -33.2558 H   0  0  0  0  0  0  0  0  0  0  0  0
   -4.9666   21.4103  -31.6164 H   0  0  0  0  0  0  0  0  0  0  0  0
  1  2  2  0
  2  3  2  0
  2  4  1  0
  4  5  1  0
  5  6  2  0
  6  7  1  0
  7  8  2  0
  8  9  1  0
  9 10  1  0
 10 11  2  0
 10 12  2  0
 10 13  1  0
 13 14  1  0
 14 15  1  0
 15 16  1  0
 16 17  1  0
 17 18  1  0
  9 19  2  0
  2 20  1  0
 20 21  2  0
 21 22  1  0
 22 23  2  0
 23 24  1  0
 24 25  1  0
 25 26  2  0
 25 27  2  0
 25 28  1  0
 28 29  1  0
 29 30  1  0
 30 31  1  0
 31 32  1  0
 32 33  1  0
 24 34  2  0
 19  5  1  0
 34 20  1  0
 18 13  1  0
 33 28  1  0
  6 35  1  0
  7 36  1  0
  8 37  1  0
 14 38  1  0
 14 39  1  0
 15 40  1  0
 15 41  1  0
 16 42  1  0
 16 43  1  0
 17 44  1  0
 17 45  1  0
 18 46  1  0
 18 47  1  0
 19 48  1  0
 21 49  1  0
 22 50  1  0
 23 51  1  0
 29 52  1  0
 29 53  1  0
 30 54  1  0
 30 55  1  0
 32 56  1  0
 32 57  1  0
 33 58  1  0
 33 59  1  0
 34 60  1  0
M  CHG  1   4  -1
M  END
>  <UniqueID>  (13) 
13

>  <SMILES>  (13) 
O=S(=O)([N-]c1cccc(S(=O)(=O)N2CCCCC2)c1)c1cccc(S(=O)(=O)N2CCOCC2)c1

>  <Energy>  (13) 
81.17611333510276

>  <Genealogy>  (13) 
O=S(=O)([N-]c1cccc(S(=O)(=O)N2CCCCC2)c1)c1cccc(S(=O)(=O)N2CCOCC2)c1 (protonated)
O=S(=O)([N-]c1cccc(S(=O)(=O)N2CCCCC2)c1)c1cccc(S(=O)(=O)N2CCOCC2)c1 (3D coordinates assigned)
O=S(=O)([N-]c1cccc(S(=O)(=O)N2CCCCC2)c1)c1cccc(S(=O)(=O)N2CCOCC2)c1 (nonaromatic ring conformer: 81.17611333510276 kcal/mol)

>  <smiles>  (13) 
O=S(=O)(Nc1cccc(S(=O)(=O)N2CCCCC2)c1)c1cccc(S(=O)(=O)N2CCOCC2)c1

>  <score_type>  (13) 
oracle

>  <origin>  (13) 
adgpu

>  <m_score__min__energy>  (13) 
-12.380000000000001

>  <m_primary>  (13) 
energy

$$$$
13:0
     RDKit          3D

 64 67  0  0  0  0  0  0  0  0999 V2000
   -6.5110   25.6660  -29.8330 C   0  0  0  0  0  0  0  0  0  0  0  0
   -6.6150   24.2760  -29.5400 O   0  0  0  0  0  0  0  0  0  0  0  0
   -6.7440   23.2650  -30.5070 C   0  0  0  0  0  0  0  0  0  0  0  0
   -8.0010   22.7450  -30.8740 C   0  0  0  0  0  0  0  0  0  0  0  0
   -8.0940   21.7250  -31.8230 C   0  0  0  0  0  0  0  0  0  0  0  0
   -6.9400   21.1950  -32.4130 C   0  0  0  0  0  0  0  0  0  0  0  0
   -7.0610   20.1390  -33.3810 N   0  0  0  0  0  0  0  0  0  0  0  0
   -6.3680   18.8820  -33.3000 C   0  0  0  0  0  0  0  0  0  0  0  0
   -6.1120   18.1860  -31.8280 S   0  0  0  0  0  0  0  0  0  0  0  0
   -6.2280   18.0950  -34.4940 N   0  0  0  0  0  0  0  0  0  0  0  0
   -5.3110   17.0000  -34.6440 C   0  0  0  0  0  0  0  0  0  0  0  0
   -5.7360   15.6990  -34.3380 C   0  0  0  0  0  0  0  0  0  0  0  0
   -4.8600   14.6170  -34.4680 C   0  0  0  0  0  0  0  0  0  0  0  0
   -3.5530   14.8210  -34.9310 C   0  0  0  0  0  0  0  0  0  0  0  0
   -2.4270   13.4710  -35.0690 S   0  0  0  0  0  0  0  0  0  0  0  0
   -3.1600   12.2420  -35.5370 O   0  0  0  0  0  0  0  0  0  0  0  0
   -1.3760   13.8160  -36.0880 O   0  0  0  0  0  0  0  0  0  0  0  0
   -1.6760   13.1660  -33.5230 N   0  0  0  0  0  0  0  0  0  0  0  0
   -2.6990   12.8110  -32.5260 C   0  0  0  0  0  0  0  0  0  0  0  0
   -2.0630   12.6100  -31.1300 C   0  0  0  0  0  0  0  0  0  0  0  0
   -0.6810   12.9160  -31.1230 O   0  0  0  0  0  0  0  0  0  0  0  0
   -0.4830   14.2290  -31.6080 C   0  0  0  0  0  0  0  0  0  0  0  0
   -0.9080   14.3500  -33.0870 C   0  0  0  0  0  0  0  0  0  0  0  0
   -3.1300   16.1150  -35.2630 C   0  0  0  0  0  0  0  0  0  0  0  0
   -4.0050   17.1980  -35.1280 C   0  0  0  0  0  0  0  0  0  0  0  0
   -5.6900   21.7360  -32.0770 C   0  0  0  0  0  0  0  0  0  0  0  0
   -5.5850   22.7600  -31.1230 C   0  0  0  0  0  0  0  0  0  0  0  0
   -3.9910   23.3780  -30.6790 S   0  0  0  0  0  0  0  0  0  0  0  0
   -2.9430   22.7990  -31.5900 O   0  0  0  0  0  0  0  0  0  0  0  0
   -3.9880   24.8730  -30.8420 O   0  0  0  0  0  0  0  0  0  0  0  0
   -3.6460   22.9580  -29.0160 N   0  0  0  0  0  0  0  0  0  0  0  0
   -2.2630   22.4860  -28.8810 C   0  0  0  0  0  0  0  0  0  0  0  0
   -1.3890   23.6760  -28.5100 C   0  0  0  0  0  0  0  0  0  0  0  0
   -2.3470   24.7620  -28.0590 C   0  0  0  0  0  0  0  0  0  0  0  0
   -3.7360   24.1460  -28.1590 C   0  0  0  0  0  0  0  0  0  0  0  0
   -6.4683   26.2366  -28.8935 H   0  0  0  0  0  0  0  0  0  0  0  0
   -5.5965   25.8504  -30.4159 H   0  0  0  0  0  0  0  0  0  0  0  0
   -7.3878   25.9845  -30.4159 H   0  0  0  0  0  0  0  0  0  0  0  0
   -8.9147   23.1450  -30.4101 H   0  0  0  0  0  0  0  0  0  0  0  0
   -9.0817   21.3347  -32.1094 H   0  0  0  0  0  0  0  0  0  0  0  0
   -7.7180   20.2800  -34.1790 H   0  0  0  0  0  0  0  0  0  0  0  0
   -6.8600   18.3150  -35.2980 H   0  0  0  0  0  0  0  0  0  0  0  0
   -6.7665   15.5285  -33.9930 H   0  0  0  0  0  0  0  0  0  0  0  0
   -5.1974   13.6033  -34.2063 H   0  0  0  0  0  0  0  0  0  0  0  0
   -1.0220   12.3570  -33.6460 H   0  0  0  0  0  0  0  0  0  0  0  0
   -3.4430   13.6193  -32.4698 H   0  0  0  0  0  0  0  0  0  0  0  0
   -3.1773   11.8693  -32.8332 H   0  0  0  0  0  0  0  0  0  0  0  0
   -2.5746   13.2655  -30.4099 H   0  0  0  0  0  0  0  0  0  0  0  0
   -2.1757   11.5504  -30.8570 H   0  0  0  0  0  0  0  0  0  0  0  0
   -1.0811   14.9279  -31.0049 H   0  0  0  0  0  0  0  0  0  0  0  0
    0.5879   14.4691  -31.5335 H   0  0  0  0  0  0  0  0  0  0  0  0
   -1.5330   15.2471  -33.2080 H   0  0  0  0  0  0  0  0  0  0  0  0
   -0.0005   14.4220  -33.7044 H   0  0  0  0  0  0  0  0  0  0  0  0
   -2.1065   16.2797  -35.6310 H   0  0  0  0  0  0  0  0  0  0  0  0
   -3.6702   18.2095  -35.4016 H   0  0  0  0  0  0  0  0  0  0  0  0
   -4.7823   21.3534  -32.5666 H   0  0  0  0  0  0  0  0  0  0  0  0
   -2.2057   21.7215  -28.0922 H   0  0  0  0  0  0  0  0  0  0  0  0
   -1.9189   22.0416  -29.8266 H   0  0  0  0  0  0  0  0  0  0  0  0
   -0.7014   23.4077  -27.6943 H   0  0  0  0  0  0  0  0  0  0  0  0
   -0.7701   24.0059  -29.3575 H   0  0  0  0  0  0  0  0  0  0  0  0
   -2.1316   25.0583  -27.0218 H   0  0  0  0  0  0  0  0  0  0  0  0
   -2.2568   25.6680  -28.6763 H   0  0  0  0  0  0  0  0  0  0  0  0
   -4.0893   23.8579  -27.1579 H   0  0  0  0  0  0  0  0  0  0  0  0
   -4.4452   24.8710  -28.5850 H   0  0  0  0  0  0  0  0  0  0  0  0
  1  2  1  0
  2  3  1  0
  3  4  2  0
  4  5  1  0
  5  6  2  0
  6  7  1  0
  7  8  1  0
  8  9  2  0
  8 10  1  0
 10 11  1  0
 11 12  2  0
 12 13  1  0
 13 14  2  0
 14 15  1  0
 15 16  2  0
 15 17  2  0
 15 18  1  0
 18 19  1  0
 19 20  1  0
 20 21  1  0
 21 22  1  0
 22 23  1  0
 14 24  1  0
 24 25  2  0
  6 26  1  0
 26 27  2  0
 27 28  1  0
 28 29  2  0
 28 30  2  0
 28 31  1  0
 31 32  1  0
 32 33  1  0
 33 34  1  0
 34 35  1  0
 27  3  1  0
 35 31  1  0
 25 11  1  0
 23 18  1  0
  1 36  1  0
  1 37  1  0
  1 38  1  0
  4 39  1  0
  5 40  1  0
  7 41  1  0
 10 42  1  0
 12 43  1  0
 13 44  1  0
 18 45  1  0
 19 46  1  0
 19 47  1  0
 20 48  1  0
 20 49  1  0
 22 50  1  0
 22 51  1  0
 23 52  1  0
 23 53  1  0
 24 54  1  0
 25 55  1  0
 26 56  1  0
 32 57  1  0
 32 58  1  0
 33 59  1  0
 33 60  1  0
 34 61  1  0
 34 62  1  0
 35 63  1  0
 35 64  1  0
M  CHG  1  18   1
M  END
>  <UniqueID>  (14) 
14

>  <SMILES>  (14) 
COc1ccc(NC(=S)Nc2ccc(S(=O)(=O)[NH+]3CCOCC3)cc2)cc1S(=O)(=O)N1CCCC1

>  <Energy>  (14) 
82.97511842254457

>  <Genealogy>  (14) 
COc1ccc(NC(=S)Nc2ccc(S(=O)(=O)[NH+]3CCOCC3)cc2)cc1S(=O)(=O)N1CCCC1 (protonated)
COc1ccc(NC(=S)Nc2ccc(S(=O)(=O)[NH+]3CCOCC3)cc2)cc1S(=O)(=O)N1CCCC1 (3D coordinates assigned)
COc1ccc(NC(=S)Nc2ccc(S(=O)(=O)[NH+]3CCOCC3)cc2)cc1S(=O)(=O)N1CCCC1 (nonaromatic ring conformer: 82.97511842254457 kcal/mol)

>  <smiles>  (14) 
COc1ccc(NC(=S)Nc2ccc(S(=O)(=O)N3CCOCC3)cc2)cc1S(=O)(=O)N1CCCC1

>  <score_type>  (14) 
oracle

>  <origin>  (14) 
adgpu

>  <m_score__min__energy>  (14) 
-10.76

>  <m_primary>  (14) 
energy

$$$$
14:0
     RDKit          3D

 49 52  0  0  0  0  0  0  0  0999 V2000
   -6.7470   25.6800  -29.4680 C   0  0  0  0  0  0  0  0  0  0  0  0
   -6.5130   24.4230  -30.2520 C   0  0  0  0  0  0  0  0  0  0  0  0
   -6.8560   23.1740  -29.7110 C   0  0  0  0  0  0  0  0  0  0  0  0
   -6.6130   22.0030  -30.4330 C   0  0  0  0  0  0  0  0  0  0  0  0
   -6.0220   22.0640  -31.7040 C   0  0  0  0  0  0  0  0  0  0  0  0
   -5.6800   20.8240  -32.4340 C   0  0  0  0  0  0  0  0  0  0  0  0
   -6.7390   20.0590  -32.9560 C   0  0  0  0  0  0  0  0  0  0  0  0
   -6.4870   18.8960  -33.6840 C   0  0  0  0  0  0  0  0  0  0  0  0
   -5.1750   18.4810  -33.9000 C   0  0  0  0  0  0  0  0  0  0  0  0
   -4.1120   19.2200  -33.3800 C   0  0  0  0  0  0  0  0  0  0  0  0
   -4.3450   20.3880  -32.6320 C   0  0  0  0  0  0  0  0  0  0  0  0
   -2.9380   21.2200  -31.9350 S   0  0  0  0  0  0  0  0  0  0  0  0
   -2.3360   22.1090  -32.9870 O   0  0  0  0  0  0  0  0  0  0  0  0
   -1.9060   20.2090  -31.5130 O   0  0  0  0  0  0  0  0  0  0  0  0
   -3.3420   22.1800  -30.5440 N   0  0  0  0  0  0  0  0  0  0  0  0
   -2.6670   22.0990  -29.2700 C   0  0  0  0  0  0  0  0  0  0  0  0
   -2.4470   20.8480  -28.6670 C   0  0  0  0  0  0  0  0  0  0  0  0
   -1.8230   20.7470  -27.4270 C   0  0  0  0  0  0  0  0  0  0  0  0
   -1.4040   21.8940  -26.7520 C   0  0  0  0  0  0  0  0  0  0  0  0
   -0.8030   21.7780  -25.4870 C   0  0  0  0  0  0  0  0  0  0  0  0
   -0.4000   22.9180  -24.7930 C   0  0  0  0  0  0  0  0  0  0  0  0
   -0.5990   24.1810  -25.3470 C   0  0  0  0  0  0  0  0  0  0  0  0
   -1.1890   24.3140  -26.6050 C   0  0  0  0  0  0  0  0  0  0  0  0
   -1.5850   23.1720  -27.3410 C   0  0  0  0  0  0  0  0  0  0  0  0
   -2.1870   23.2720  -28.6260 C   0  0  0  0  0  0  0  0  0  0  0  0
   -2.2850   24.5830  -29.3100 C   0  0  0  0  0  0  0  0  0  0  0  0
   -3.4530   24.9130  -30.0570 N   0  0  0  0  0  0  0  0  0  0  0  0
   -1.3480   25.4210  -29.2200 O   0  0  0  0  0  0  0  0  0  0  0  0
   -5.6500   23.3120  -32.2300 C   0  0  0  0  0  0  0  0  0  0  0  0
   -5.8970   24.4830  -31.5110 C   0  0  0  0  0  0  0  0  0  0  0  0
   -6.7050   25.4543  -28.3922 H   0  0  0  0  0  0  0  0  0  0  0  0
   -5.9708   26.4182  -29.7184 H   0  0  0  0  0  0  0  0  0  0  0  0
   -7.7368   26.0894  -29.7184 H   0  0  0  0  0  0  0  0  0  0  0  0
   -7.3181   23.1170  -28.7144 H   0  0  0  0  0  0  0  0  0  0  0  0
   -6.8864   21.0282  -30.0028 H   0  0  0  0  0  0  0  0  0  0  0  0
   -7.7772   20.3815  -32.7883 H   0  0  0  0  0  0  0  0  0  0  0  0
   -7.3239   18.3070  -34.0872 H   0  0  0  0  0  0  0  0  0  0  0  0
   -4.9766   17.5688  -34.4818 H   0  0  0  0  0  0  0  0  0  0  0  0
   -3.0793   18.8851  -33.5572 H   0  0  0  0  0  0  0  0  0  0  0  0
   -4.0710   22.9120  -30.7030 H   0  0  0  0  0  0  0  0  0  0  0  0
   -2.7736   19.9337  -29.1840 H   0  0  0  0  0  0  0  0  0  0  0  0
   -1.6592   19.7570  -26.9764 H   0  0  0  0  0  0  0  0  0  0  0  0
   -0.6499   20.7835  -25.0425 H   0  0  0  0  0  0  0  0  0  0  0  0
    0.0760   22.8203  -23.8062 H   0  0  0  0  0  0  0  0  0  0  0  0
   -0.2896   25.0777  -24.7901 H   0  0  0  0  0  0  0  0  0  0  0  0
   -1.3478   25.3167  -27.0286 H   0  0  0  0  0  0  0  0  0  0  0  0
   -3.8610   25.8740  -30.0190 H   0  0  0  0  0  0  0  0  0  0  0  0
   -5.1613   23.3671  -33.2139 H   0  0  0  0  0  0  0  0  0  0  0  0
   -5.6075   25.4565  -31.9334 H   0  0  0  0  0  0  0  0  0  0  0  0
  1  2  1  0
  2  3  2  0
  3  4  1  0
  4  5  2  0
  5  6  1  0
  6  7  2  0
  7  8  1  0
  8  9  2  0
  9 10  1  0
 10 11  2  0
 11 12  1  0
 12 13  2  0
 12 14  2  0
 12 15  1  0
 15 16  1  0
 16 17  2  0
 17 18  1  0
 18 19  2  0
 19 20  1  0
 20 21  2  0
 21 22  1  0
 22 23  2  0
 23 24  1  0
 24 25  2  0
 25 26  1  0
 26 27  1  0
 26 28  2  0
  5 29  1  0
 29 30  2  0
 30  2  1  0
 11  6  1  0
 25 16  1  0
 24 19  1  0
  1 31  1  0
  1 32  1  0
  1 33  1  0
  3 34  1  0
  4 35  1  0
  7 36  1  0
  8 37  1  0
  9 38  1  0
 10 39  1  0
 15 40  1  0
 17 41  1  0
 18 42  1  0
 20 43  1  0
 21 44  1  0
 22 45  1  0
 23 46  1  0
 27 47  1  0
 29 48  1  0
 30 49  1  0
M  CHG  1  27  -1
M  END
>  <UniqueID>  (15) 
15

>  <SMILES>  (15) 
Cc1ccc(-c2ccccc2S(=O)(=O)Nc2ccc3ccccc3c2C([NH-])=O)cc1

>  <Energy>  (15) 
74.70415338646909

>  <Genealogy>  (15) 
Cc1ccc(-c2ccccc2S(=O)(=O)Nc2ccc3ccccc3c2C([NH-])=O)cc1 (protonated)
Cc1ccc(-c2ccccc2S(=O)(=O)Nc2ccc3ccccc3c2C([NH-])=O)cc1 (3D coordinates assigned)
Cc1ccc(-c2ccccc2S(=O)(=O)Nc2ccc3ccccc3c2C([NH-])=O)cc1 (optimized conformer: 74.70415338646909 kcal/mol)

>  <smiles>  (15) 
Cc1ccc(-c2ccccc2S(=O)(=O)Nc2ccc3ccccc3c2C(N)=O)cc1

>  <score_type>  (15) 
oracle

>  <origin>  (15) 
adgpu

>  <m_score__min__energy>  (15) 
-13.220000000000001

>  <m_primary>  (15) 
energy

$$$$
15:0
     RDKit          3D

 46 48  0  0  0  0  0  0  0  0999 V2000
   -2.8400   20.3620  -27.2940 C   0  0  0  0  0  0  0  0  0  0  0  0
   -2.6650   21.6320  -27.9850 N   0  0  0  0  0  0  0  0  0  0  0  0
   -1.6200   22.4670  -27.8420 C   0  0  0  0  0  0  0  0  0  0  0  0
   -1.8080   23.5270  -28.7040 C   0  0  0  0  0  0  0  0  0  0  0  0
   -0.9710   24.6850  -28.8080 N   0  0  0  0  0  0  0  0  0  0  0  0
    0.2550   24.5870  -28.5950 O   0  0  0  0  0  0  0  0  0  0  0  0
   -1.5210   25.9360  -28.9600 O   0  0  0  0  0  0  0  0  0  0  0  0
   -3.0030   23.2610  -29.3630 C   0  0  0  0  0  0  0  0  0  0  0  0
   -3.6300   24.0260  -30.4590 C   0  0  0  0  0  0  0  0  0  0  0  0
   -3.5340   25.2800  -30.4790 O   0  0  0  0  0  0  0  0  0  0  0  0
   -4.2490   23.3650  -31.5710 N   0  0  0  0  0  0  0  0  0  0  0  0
   -5.6120   22.9180  -31.6380 C   0  0  0  0  0  0  0  0  0  0  0  0
   -6.6830   23.7870  -31.3960 C   0  0  0  0  0  0  0  0  0  0  0  0
   -7.9960   23.3260  -31.5000 C   0  0  0  0  0  0  0  0  0  0  0  0
   -8.2650   22.0020  -31.8630 C   0  0  0  0  0  0  0  0  0  0  0  0
   -9.6070   21.6360  -31.9870 O   0  0  0  0  0  0  0  0  0  0  0  0
   -7.1860   21.1120  -32.1060 C   0  0  0  0  0  0  0  0  0  0  0  0
   -7.3940   19.3920  -32.5000 S   0  0  0  0  0  0  0  0  0  0  0  0
   -7.2390   18.6070  -31.2240 O   0  0  0  0  0  0  0  0  0  0  0  0
   -8.7680   19.1080  -33.0340 O   0  0  0  0  0  0  0  0  0  0  0  0
   -6.1700   18.8620  -33.6320 N   0  0  0  0  0  0  0  0  0  0  0  0
   -4.8320   18.9460  -32.9970 C   0  0  0  0  0  0  0  0  0  0  0  0
   -3.8130   18.0310  -33.6850 C   0  0  0  0  0  0  0  0  0  0  0  0
   -4.2420   16.5550  -33.5820 C   0  0  0  0  0  0  0  0  0  0  0  0
   -5.7700   16.3850  -33.5050 C   0  0  0  0  0  0  0  0  0  0  0  0
   -6.4900   17.5380  -34.2170 C   0  0  0  0  0  0  0  0  0  0  0  0
   -5.8710   21.5960  -32.0120 C   0  0  0  0  0  0  0  0  0  0  0  0
   -3.4970   22.0900  -28.9090 N   0  0  0  0  0  0  0  0  0  0  0  0
   -2.8169   20.5297  -26.2071 H   0  0  0  0  0  0  0  0  0  0  0  0
   -3.8074   19.9211  -27.5765 H   0  0  0  0  0  0  0  0  0  0  0  0
   -2.0279   19.6759  -27.5765 H   0  0  0  0  0  0  0  0  0  0  0  0
   -0.7682   22.3290  -27.1598 H   0  0  0  0  0  0  0  0  0  0  0  0
   -6.4890   24.8349  -31.1234 H   0  0  0  0  0  0  0  0  0  0  0  0
   -8.8303   24.0126  -31.2939 H   0  0  0  0  0  0  0  0  0  0  0  0
   -9.9240   20.7560  -32.3630 H   0  0  0  0  0  0  0  0  0  0  0  0
   -4.4746   19.9846  -33.0572 H   0  0  0  0  0  0  0  0  0  0  0  0
   -4.9306   18.6199  -31.9511 H   0  0  0  0  0  0  0  0  0  0  0  0
   -3.7367   18.3107  -34.7461 H   0  0  0  0  0  0  0  0  0  0  0  0
   -2.8403   18.1500  -33.1854 H   0  0  0  0  0  0  0  0  0  0  0  0
   -3.8723   16.0183  -34.4682 H   0  0  0  0  0  0  0  0  0  0  0  0
   -3.8150   16.1487  -32.6532 H   0  0  0  0  0  0  0  0  0  0  0  0
   -6.0506   15.4355  -33.9843 H   0  0  0  0  0  0  0  0  0  0  0  0
   -6.0691   16.3865  -32.4464 H   0  0  0  0  0  0  0  0  0  0  0  0
   -6.1905   17.5395  -35.2754 H   0  0  0  0  0  0  0  0  0  0  0  0
   -7.5717   17.3763  -34.0999 H   0  0  0  0  0  0  0  0  0  0  0  0
   -5.0302   20.9233  -32.2365 H   0  0  0  0  0  0  0  0  0  0  0  0
  1  2  1  0
  2  3  1  0
  3  4  2  0
  4  5  1  0
  5  6  2  0
  5  7  1  0
  4  8  1  0
  8  9  1  0
  9 10  2  0
  9 11  1  0
 11 12  1  0
 12 13  2  0
 13 14  1  0
 14 15  2  0
 15 16  1  0
 15 17  1  0
 17 18  1  0
 18 19  2  0
 18 20  2  0
 18 21  1  0
 21 22  1  0
 22 23  1  0
 23 24  1  0
 24 25  1  0
 25 26  1  0
 17 27  2  0
  8 28  2  0
 28  2  1  0
 27 12  1  0
 26 21  1  0
  1 29  1  0
  1 30  1  0
  1 31  1  0
  3 32  1  0
 13 33  1  0
 14 34  1  0
 16 35  1  0
 22 36  1  0
 22 37  1  0
 23 38  1  0
 23 39  1  0
 24 40  1  0
 24 41  1  0
 25 42  1  0
 25 43  1  0
 26 44  1  0
 26 45  1  0
 27 46  1  0
M  CHG  3   5   1   7  -1  11  -1
M  END
>  <UniqueID>  (16) 
16

>  <SMILES>  (16) 
Cn1cc([N+](=O)[O-])c(C(=O)[N-]c2ccc(O)c(S(=O)(=O)N3CCCCC3)c2)n1

>  <Energy>  (16) 
95.00744658721142

>  <Genealogy>  (16) 
Cn1cc([N+](=O)[O-])c(C(=O)[N-]c2ccc(O)c(S(=O)(=O)N3CCCCC3)c2)n1 (protonated)
Cn1cc([N+](=O)[O-])c(C(=O)[N-]c2ccc(O)c(S(=O)(=O)N3CCCCC3)c2)n1 (3D coordinates assigned)
Cn1cc([N+](=O)[O-])c(C(=O)[N-]c2ccc(O)c(S(=O)(=O)N3CCCCC3)c2)n1 (nonaromatic ring conformer: 95.00744658721142 kcal/mol)

>  <smiles>  (16) 
Cn1cc([N+](=O)[O-])c(C(=O)Nc2ccc(O)c(S(=O)(=O)N3CCCCC3)c2)n1

>  <score_type>  (16) 
oracle

>  <origin>  (16) 
adgpu

>  <m_score__min__energy>  (16) 
-10.43

>  <m_primary>  (16) 
energy

$$$$
16:0
     RDKit          3D

 54 57  0  0  0  0  0  0  0  0999 V2000
   -8.3670   22.6480  -31.9440 C   0  0  0  0  0  0  0  0  0  0  0  0
   -7.1520   21.8050  -32.2250 C   0  0  0  0  0  0  0  0  0  0  0  0
   -7.2990   20.4100  -32.2810 C   0  0  0  0  0  0  0  0  0  0  0  0
   -6.2040   19.5870  -32.5690 C   0  0  0  0  0  0  0  0  0  0  0  0
   -6.3880   17.8320  -32.5590 S   0  0  0  0  0  0  0  0  0  0  0  0
   -7.2100   17.4130  -33.7470 O   0  0  0  0  0  0  0  0  0  0  0  0
   -7.1260   17.4190  -31.3160 O   0  0  0  0  0  0  0  0  0  0  0  0
   -4.8370   17.0210  -32.6150 N   0  0  0  0  0  0  0  0  0  0  0  0
   -4.2920   16.9870  -33.9800 C   0  0  0  0  0  0  0  0  0  0  0  0
   -4.5950   15.6190  -34.5780 C   0  0  0  0  0  0  0  0  0  0  0  0
   -5.0560   14.7510  -33.4220 C   0  0  0  0  0  0  0  0  0  0  0  0
   -4.9430   15.6220  -32.1790 C   0  0  0  0  0  0  0  0  0  0  0  0
   -4.9590   20.1620  -32.8430 C   0  0  0  0  0  0  0  0  0  0  0  0
   -4.7960   21.5460  -32.7760 C   0  0  0  0  0  0  0  0  0  0  0  0
   -5.8690   22.3730  -32.4230 C   0  0  0  0  0  0  0  0  0  0  0  0
   -5.6230   23.7800  -32.2890 N   0  0  0  0  0  0  0  0  0  0  0  0
   -5.5500   24.5000  -31.0500 C   0  0  0  0  0  0  0  0  0  0  0  0
   -6.3840   25.4190  -30.8380 O   0  0  0  0  0  0  0  0  0  0  0  0
   -4.5260   24.2120  -30.0230 C   0  0  0  0  0  0  0  0  0  0  0  0
   -4.6000   23.0780  -29.2010 C   0  0  0  0  0  0  0  0  0  0  0  0
   -3.5900   22.8680  -28.2620 C   0  0  0  0  0  0  0  0  0  0  0  0
   -3.6260   21.8610  -27.5080 O   0  0  0  0  0  0  0  0  0  0  0  0
   -2.5590   23.7460  -28.1670 N   0  0  0  0  0  0  0  0  0  0  0  0
   -2.4860   24.8370  -28.9790 C   0  0  0  0  0  0  0  0  0  0  0  0
   -1.4960   25.6770  -28.9010 N   0  0  0  0  0  0  0  0  0  0  0  0
   -0.3670   25.6210  -28.0120 C   0  0  0  0  0  0  0  0  0  0  0  0
    0.5160   24.5970  -28.1360 N   0  0  0  0  0  0  0  0  0  0  0  0
    1.5970   24.4920  -27.3190 C   0  0  0  0  0  0  0  0  0  0  0  0
    2.3940   23.5290  -27.4670 O   0  0  0  0  0  0  0  0  0  0  0  0
    1.8140   25.4550  -26.3200 C   0  0  0  0  0  0  0  0  0  0  0  0
    3.0050   25.3780  -25.4060 C   0  0  0  0  0  0  0  0  0  0  0  0
    0.8970   26.5070  -26.2150 C   0  0  0  0  0  0  0  0  0  0  0  0
   -0.1680   26.5690  -27.0550 N   0  0  0  0  0  0  0  0  0  0  0  0
   -3.4640   25.0530  -29.8970 N   0  0  0  0  0  0  0  0  0  0  0  0
   -8.5039   22.7430  -30.8567 H   0  0  0  0  0  0  0  0  0  0  0  0
   -8.2305   23.6465  -32.3850 H   0  0  0  0  0  0  0  0  0  0  0  0
   -9.2545   22.1706  -32.3850 H   0  0  0  0  0  0  0  0  0  0  0  0
   -8.2852   19.9589  -32.0966 H   0  0  0  0  0  0  0  0  0  0  0  0
   -4.1820   17.5410  -31.9840 H   0  0  0  0  0  0  0  0  0  0  0  0
   -4.7632   17.7725  -34.5890 H   0  0  0  0  0  0  0  0  0  0  0  0
   -3.2062   17.1619  -33.9607 H   0  0  0  0  0  0  0  0  0  0  0  0
   -5.3885   15.7001  -35.3354 H   0  0  0  0  0  0  0  0  0  0  0  0
   -3.7119   15.1919  -35.0758 H   0  0  0  0  0  0  0  0  0  0  0  0
   -6.0981   14.4330  -33.5735 H   0  0  0  0  0  0  0  0  0  0  0  0
   -4.4485   13.8383  -33.3335 H   0  0  0  0  0  0  0  0  0  0  0  0
   -5.8363   15.4933  -31.5502 H   0  0  0  0  0  0  0  0  0  0  0  0
   -4.0586   15.3364  -31.5905 H   0  0  0  0  0  0  0  0  0  0  0  0
   -4.1061   19.5215  -33.1120 H   0  0  0  0  0  0  0  0  0  0  0  0
   -3.8160   21.9912  -33.0025 H   0  0  0  0  0  0  0  0  0  0  0  0
   -5.4363   22.3696  -29.2947 H   0  0  0  0  0  0  0  0  0  0  0  0
    2.6663   25.3999  -24.3597 H   0  0  0  0  0  0  0  0  0  0  0  0
    3.5522   24.4426  -25.5948 H   0  0  0  0  0  0  0  0  0  0  0  0
    3.6681   26.2352  -25.5948 H   0  0  0  0  0  0  0  0  0  0  0  0
    1.0393   27.2851  -25.4506 H   0  0  0  0  0  0  0  0  0  0  0  0
  1  2  1  0
  2  3  2  0
  3  4  1  0
  4  5  1  0
  5  6  2  0
  5  7  2  0
  5  8  1  0
  8  9  1  0
  9 10  1  0
 10 11  1  0
 11 12  1  0
  4 13  2  0
 13 14  1  0
 14 15  2  0
 15 16  1  0
 16 17  1  0
 17 18  2  0
 17 19  1  0
 19 20  2  0
 20 21  1  0
 21 22  2  0
 21 23  1  0
 23 24  1  0
 24 25  2  3
 25 26  1  0
 26 27  2  0
 27 28  1  0
 28 29  2  0
 28 30  1  0
 30 31  1  0
 30 32  2  0
 32 33  1  0
 24 34  1  0
 15  2  1  0
 34 19  1  0
 12  8  1  0
 33 26  1  0
  1 35  1  0
  1 36  1  0
  1 37  1  0
  3 38  1  0
  8 39  1  0
  9 40  1  0
  9 41  1  0
 10 42  1  0
 10 43  1  0
 11 44  1  0
 11 45  1  0
 12 46  1  0
 12 47  1  0
 13 48  1  0
 14 49  1  0
 20 50  1  0
 31 51  1  0
 31 52  1  0
 31 53  1  0
 32 54  1  0
M  CHG  5   8   1  16  -1  23  -1  33  -1  34  -1
M  END
>  <UniqueID>  (17) 
17

>  <SMILES>  (17) 
Cc1cc(S(=O)(=O)[NH+]2CCCC2)ccc1[N-]C(=O)c1cc(=O)[n-]c(=Nc2nc(=O)c(C)c[n-]2)[n-]1

>  <Energy>  (17) 
69.63263483126258

>  <Genealogy>  (17) 
Cc1cc(S(=O)(=O)[NH+]2CCCC2)ccc1[N-]C(=O)c1cc(=O)[n-]c(=Nc2nc(=O)c(C)c[n-]2)[n-]1 (protonated)
Cc1cc(S(=O)(=O)[NH+]2CCCC2)ccc1[N-]C(=O)c1cc(=O)[n-]c(=Nc2nc(=O)c(C)c[n-]2)[n-]1 (3D coordinates assigned)
Cc1cc(S(=O)(=O)[NH+]2CCCC2)ccc1[N-]C(=O)c1cc(=O)[n-]c(=Nc2nc(=O)c(C)c[n-]2)[n-]1 (nonaromatic ring conformer: 69.63263483126258 kcal/mol)

>  <smiles>  (17) 
Cc1cc(S(=O)(=O)N2CCCC2)ccc1NC(=O)c1cc(=O)[nH]c(=Nc2nc(=O)c(C)c[nH]2)[nH]1

>  <score_type>  (17) 
oracle

>  <origin>  (17) 
adgpu

>  <m_score__min__energy>  (17) 
-12.630000000000001

>  <m_primary>  (17) 
energy

$$$$
17:0
     RDKit          3D

 52 55  0  0  0  0  0  0  0  0999 V2000
   -7.5830   17.7800  -32.8880 C   0  0  0  0  0  0  0  0  0  0  0  0
   -8.6210   19.0580  -32.2170 S   0  0  0  0  0  0  0  0  0  0  0  0
   -9.8140   19.2560  -33.1100 O   0  0  0  0  0  0  0  0  0  0  0  0
   -9.1030   18.6550  -30.8520 O   0  0  0  0  0  0  0  0  0  0  0  0
   -7.7030   20.5570  -32.1100 C   0  0  0  0  0  0  0  0  0  0  0  0
   -6.4110   20.6310  -32.6470 C   0  0  0  0  0  0  0  0  0  0  0  0
   -5.6740   21.8130  -32.5450 C   0  0  0  0  0  0  0  0  0  0  0  0
   -6.2100   22.9250  -31.8840 C   0  0  0  0  0  0  0  0  0  0  0  0
   -5.4440   24.1300  -31.8140 N   0  0  0  0  0  0  0  0  0  0  0  0
   -4.5530   24.4890  -30.7520 C   0  0  0  0  0  0  0  0  0  0  0  0
   -4.1590   25.6830  -30.6620 O   0  0  0  0  0  0  0  0  0  0  0  0
   -4.0290   23.5020  -29.8530 N   0  0  0  0  0  0  0  0  0  0  0  0
   -2.6480   23.4890  -29.4620 C   0  0  0  0  0  0  0  0  0  0  0  0
   -2.1220   24.5770  -28.7490 C   0  0  0  0  0  0  0  0  0  0  0  0
   -0.7840   24.5770  -28.3490 C   0  0  0  0  0  0  0  0  0  0  0  0
    0.0320   23.4820  -28.6370 C   0  0  0  0  0  0  0  0  0  0  0  0
   -0.4860   22.3810  -29.3230 C   0  0  0  0  0  0  0  0  0  0  0  0
   -1.8270   22.3780  -29.7480 C   0  0  0  0  0  0  0  0  0  0  0  0
   -2.3970   21.2560  -30.3700 O   0  0  0  0  0  0  0  0  0  0  0  0
   -2.2480   20.8800  -31.7130 C   0  0  0  0  0  0  0  0  0  0  0  0
   -3.1100   19.9670  -32.3410 C   0  0  0  0  0  0  0  0  0  0  0  0
   -2.8910   19.6300  -33.6770 C   0  0  0  0  0  0  0  0  0  0  0  0
   -1.8370   20.1610  -34.3530 N   0  0  0  0  0  0  0  0  0  0  0  0
   -0.9590   21.0220  -33.7650 C   0  0  0  0  0  0  0  0  0  0  0  0
    0.1850   21.5480  -34.5530 C   0  0  0  0  0  0  0  0  0  0  0  0
    1.4920   21.1090  -34.2910 C   0  0  0  0  0  0  0  0  0  0  0  0
    2.5330   21.5910  -35.0170 N   0  0  0  0  0  0  0  0  0  0  0  0
    2.3390   22.5110  -35.9990 C   0  0  0  0  0  0  0  0  0  0  0  0
    3.3400   22.9570  -36.6830 N   0  0  0  0  0  0  0  0  0  0  0  0
    1.0870   22.9630  -36.2630 N   0  0  0  0  0  0  0  0  0  0  0  0
    0.0140   22.5080  -35.5660 C   0  0  0  0  0  0  0  0  0  0  0  0
   -1.1630   21.3960  -32.4250 C   0  0  0  0  0  0  0  0  0  0  0  0
   -7.5110   22.8600  -31.3640 C   0  0  0  0  0  0  0  0  0  0  0  0
   -8.2500   21.6770  -31.4670 C   0  0  0  0  0  0  0  0  0  0  0  0
   -7.1222   17.2126  -32.0660 H   0  0  0  0  0  0  0  0  0  0  0  0
   -8.1895   17.1021  -33.5066 H   0  0  0  0  0  0  0  0  0  0  0  0
   -6.7951   18.2346  -33.5066 H   0  0  0  0  0  0  0  0  0  0  0  0
   -5.9757   19.7553  -33.1506 H   0  0  0  0  0  0  0  0  0  0  0  0
   -4.6679   21.8706  -32.9859 H   0  0  0  0  0  0  0  0  0  0  0  0
   -4.6890   22.8610  -29.3610 H   0  0  0  0  0  0  0  0  0  0  0  0
   -2.7666   25.4340  -28.5040 H   0  0  0  0  0  0  0  0  0  0  0  0
   -0.3728   25.4410  -27.8064 H   0  0  0  0  0  0  0  0  0  0  0  0
    1.0862   23.4860  -28.3228 H   0  0  0  0  0  0  0  0  0  0  0  0
    0.1570   21.5132  -29.5316 H   0  0  0  0  0  0  0  0  0  0  0  0
   -3.9489   19.5222  -31.7857 H   0  0  0  0  0  0  0  0  0  0  0  0
   -3.5730   18.9325  -34.1853 H   0  0  0  0  0  0  0  0  0  0  0  0
    1.6735   20.3720  -33.4948 H   0  0  0  0  0  0  0  0  0  0  0  0
    4.3150   22.6270  -36.5030 H   0  0  0  0  0  0  0  0  0  0  0  0
   -0.9914   22.8914  -35.7945 H   0  0  0  0  0  0  0  0  0  0  0  0
   -0.4678   22.0952  -31.9374 H   0  0  0  0  0  0  0  0  0  0  0  0
   -7.9510   23.7412  -30.8742 H   0  0  0  0  0  0  0  0  0  0  0  0
   -9.2634   21.6249  -31.0424 H   0  0  0  0  0  0  0  0  0  0  0  0
  1  2  1  0
  2  3  2  0
  2  4  2  0
  2  5  1  0
  5  6  2  0
  6  7  1  0
  7  8  2  0
  8  9  1  0
  9 10  1  0
 10 11  2  0
 10 12  1  0
 12 13  1  0
 13 14  2  0
 14 15  1  0
 15 16  2  0
 16 17  1  0
 17 18  2  0
 18 19  1  0
 19 20  1  0
 20 21  2  0
 21 22  1  0
 22 23  2  0
 23 24  1  0
 24 25  1  0
 25 26  1  0
 26 27  2  0
 27 28  1  0
 28 29  2  3
 28 30  1  0
 30 31  1  0
 24 32  2  0
  8 33  1  0
 33 34  2  0
 34  5  1  0
 18 13  1  0
 32 20  1  0
 31 25  2  0
  1 35  1  0
  1 36  1  0
  1 37  1  0
  6 38  1  0
  7 39  1  0
 12 40  1  0
 14 41  1  0
 15 42  1  0
 16 43  1  0
 17 44  1  0
 21 45  1  0
 22 46  1  0
 26 47  1  0
 29 48  1  0
 31 49  1  0
 32 50  1  0
 33 51  1  0
 34 52  1  0
M  CHG  2   9  -1  30  -1
M  END
>  <UniqueID>  (18) 
18

>  <SMILES>  (18) 
CS(=O)(=O)c1ccc([N-]C(=O)Nc2ccccc2Oc2ccnc(-c3cnc(=N)[n-]c3)c2)cc1

>  <Energy>  (18) 
78.31070011864958

>  <Genealogy>  (18) 
CS(=O)(=O)c1ccc([N-]C(=O)Nc2ccccc2Oc2ccnc(-c3cnc(=N)[n-]c3)c2)cc1 (protonated)
CS(=O)(=O)c1ccc([N-]C(=O)Nc2ccccc2Oc2ccnc(-c3cnc(=N)[n-]c3)c2)cc1 (3D coordinates assigned)
CS(=O)(=O)c1ccc([N-]C(=O)Nc2ccccc2Oc2ccnc(-c3cnc(=N)[n-]c3)c2)cc1 (optimized conformer: 78.31070011864958 kcal/mol)

>  <smiles>  (18) 
CS(=O)(=O)c1ccc(NC(=O)Nc2ccccc2Oc2ccnc(-c3cnc(=N)[nH]c3)c2)cc1

>  <score_type>  (18) 
oracle

>  <origin>  (18) 
adgpu

>  <m_score__min__energy>  (18) 
-11.66

>  <m_primary>  (18) 
energy

$$$$
18:0
     RDKit          3D

 42 44  0  0  0  0  0  0  0  0999 V2000
   -1.2100   22.1580  -26.5580 C   0  0  0  0  0  0  0  0  0  0  0  0
   -1.3240   23.3890  -27.4080 C   0  0  0  0  0  0  0  0  0  0  0  0
   -0.5320   24.5110  -27.1360 C   0  0  0  0  0  0  0  0  0  0  0  0
   -0.6800   25.6590  -27.9130 C   0  0  0  0  0  0  0  0  0  0  0  0
   -1.5970   25.6910  -28.9140 N   0  0  0  0  0  0  0  0  0  0  0  0
   -2.4000   24.6300  -29.2010 C   0  0  0  0  0  0  0  0  0  0  0  0
   -3.2620   24.7500  -30.1690 N   0  0  0  0  0  0  0  0  0  0  0  0
   -4.3980   23.5460  -30.7010 S   0  0  0  0  0  0  0  0  0  0  0  0
   -5.3860   24.1830  -31.6390 O   0  0  0  0  0  0  0  0  0  0  0  0
   -5.1340   23.0070  -29.5080 O   0  0  0  0  0  0  0  0  0  0  0  0
   -3.5580   22.2180  -31.4960 C   0  0  0  0  0  0  0  0  0  0  0  0
   -2.1840   22.0340  -31.2950 C   0  0  0  0  0  0  0  0  0  0  0  0
   -1.5230   20.9680  -31.9110 C   0  0  0  0  0  0  0  0  0  0  0  0
   -2.2270   20.0870  -32.7350 C   0  0  0  0  0  0  0  0  0  0  0  0
   -3.6030   20.2710  -32.9620 C   0  0  0  0  0  0  0  0  0  0  0  0
   -4.3600   19.3390  -33.8300 C   0  0  0  0  0  0  0  0  0  0  0  0
   -3.7710   18.3410  -34.3240 O   0  0  0  0  0  0  0  0  0  0  0  0
   -5.7340   19.5640  -34.1730 N   0  0  0  0  0  0  0  0  0  0  0  0
   -6.8680   19.3370  -33.3210 C   0  0  0  0  0  0  0  0  0  0  0  0
   -7.7180   20.3940  -32.9460 C   0  0  0  0  0  0  0  0  0  0  0  0
   -8.8080   20.1580  -32.1030 C   0  0  0  0  0  0  0  0  0  0  0  0
   -9.0490   18.8740  -31.6150 C   0  0  0  0  0  0  0  0  0  0  0  0
   -8.1990   17.8220  -31.9620 C   0  0  0  0  0  0  0  0  0  0  0  0
   -7.1060   18.0460  -32.8070 C   0  0  0  0  0  0  0  0  0  0  0  0
   -6.2760   16.9730  -33.1310 O   0  0  0  0  0  0  0  0  0  0  0  0
   -4.2620   21.3390  -32.3290 C   0  0  0  0  0  0  0  0  0  0  0  0
   -2.2710   23.4500  -28.4380 C   0  0  0  0  0  0  0  0  0  0  0  0
   -1.2363   22.4422  -25.4957 H   0  0  0  0  0  0  0  0  0  0  0  0
   -2.0494   21.4818  -26.7776 H   0  0  0  0  0  0  0  0  0  0  0  0
   -0.2607   21.6474  -26.7776 H   0  0  0  0  0  0  0  0  0  0  0  0
    0.2009   24.4869  -26.3161 H   0  0  0  0  0  0  0  0  0  0  0  0
   -0.0527   26.5406  -27.7148 H   0  0  0  0  0  0  0  0  0  0  0  0
   -1.6248   22.7293  -30.6517 H   0  0  0  0  0  0  0  0  0  0  0  0
   -0.4452   20.8223  -31.7465 H   0  0  0  0  0  0  0  0  0  0  0  0
   -1.7024   19.2444  -33.2092 H   0  0  0  0  0  0  0  0  0  0  0  0
   -7.5238   21.4108  -33.3180 H   0  0  0  0  0  0  0  0  0  0  0  0
   -9.4763   20.9860  -31.8243 H   0  0  0  0  0  0  0  0  0  0  0  0
   -9.9100   18.6897  -30.9557 H   0  0  0  0  0  0  0  0  0  0  0  0
   -8.3893   16.8123  -31.5693 H   0  0  0  0  0  0  0  0  0  0  0  0
   -5.4120   17.0910  -33.6460 H   0  0  0  0  0  0  0  0  0  0  0  0
   -5.3403   21.4859  -32.4892 H   0  0  0  0  0  0  0  0  0  0  0  0
   -2.9116   22.5816  -28.6513 H   0  0  0  0  0  0  0  0  0  0  0  0
  1  2  1  0
  2  3  1  0
  3  4  2  0
  4  5  1  0
  5  6  1  0
  6  7  2  3
  7  8  1  0
  8  9  2  0
  8 10  2  0
  8 11  1  0
 11 12  2  0
 12 13  1  0
 13 14  2  0
 14 15  1  0
 15 16  1  0
 16 17  2  0
 16 18  1  0
 18 19  1  0
 19 20  2  0
 20 21  1  0
 21 22  2  0
 22 23  1  0
 23 24  2  0
 24 25  1  0
 15 26  2  0
  6 27  1  0
 27  2  2  0
 26 11  1  0
 24 19  1  0
  1 28  1  0
  1 29  1  0
  1 30  1  0
  3 31  1  0
  4 32  1  0
 12 33  1  0
 13 34  1  0
 14 35  1  0
 20 36  1  0
 21 37  1  0
 22 38  1  0
 23 39  1  0
 25 40  1  0
 26 41  1  0
 27 42  1  0
M  CHG  2   5  -1  18  -1
M  END
>  <UniqueID>  (19) 
19

>  <SMILES>  (19) 
Cc1cc[n-]c(=NS(=O)(=O)c2cccc(C(=O)[N-]c3ccccc3O)c2)c1

>  <Energy>  (19) 
56.84100819021655

>  <Genealogy>  (19) 
Cc1cc[n-]c(=NS(=O)(=O)c2cccc(C(=O)[N-]c3ccccc3O)c2)c1 (protonated)
Cc1cc[n-]c(=NS(=O)(=O)c2cccc(C(=O)[N-]c3ccccc3O)c2)c1 (3D coordinates assigned)
Cc1cc[n-]c(=NS(=O)(=O)c2cccc(C(=O)[N-]c3ccccc3O)c2)c1 (optimized conformer: 56.84100819021655 kcal/mol)

>  <smiles>  (19) 
Cc1cc[nH]c(=NS(=O)(=O)c2cccc(C(=O)Nc3ccccc3O)c2)c1

>  <score_type>  (19) 
oracle

>  <origin>  (19) 
adgpu

>  <m_score__min__energy>  (19) 
-11.76

>  <m_primary>  (19) 
energy

$$$$
19:0
     RDKit          3D

 50 52  0  0  0  0  0  0  0  0999 V2000
    0.3850   23.4180  -24.9080 C   0  0  0  0  0  0  0  0  0  0  0  0
    0.5160   23.1310  -26.2960 O   0  0  0  0  0  0  0  0  0  0  0  0
   -0.5580   23.0740  -27.1960 C   0  0  0  0  0  0  0  0  0  0  0  0
   -0.6000   24.0050  -28.2400 C   0  0  0  0  0  0  0  0  0  0  0  0
   -1.6500   23.9920  -29.1640 C   0  0  0  0  0  0  0  0  0  0  0  0
   -2.6870   23.0510  -29.0470 C   0  0  0  0  0  0  0  0  0  0  0  0
   -3.7670   22.9990  -29.9950 N   0  0  0  0  0  0  0  0  0  0  0  0
   -4.2210   24.1210  -30.7630 C   0  0  0  0  0  0  0  0  0  0  0  0
   -3.8560   25.2910  -30.4630 O   0  0  0  0  0  0  0  0  0  0  0  0
   -5.1720   23.9080  -31.8140 N   0  0  0  0  0  0  0  0  0  0  0  0
   -6.1440   22.8530  -31.8850 C   0  0  0  0  0  0  0  0  0  0  0  0
   -7.5190   23.1180  -31.8460 C   0  0  0  0  0  0  0  0  0  0  0  0
   -8.4390   22.0760  -31.9380 C   0  0  0  0  0  0  0  0  0  0  0  0
   -8.0120   20.7460  -32.0850 C   0  0  0  0  0  0  0  0  0  0  0  0
   -9.0620   19.6710  -32.1770 C   0  0  0  0  0  0  0  0  0  0  0  0
   -6.6200   20.4670  -32.1510 C   0  0  0  0  0  0  0  0  0  0  0  0
   -5.9490   18.8260  -32.3360 S   0  0  0  0  0  0  0  0  0  0  0  0
   -6.3960   18.0170  -31.1510 O   0  0  0  0  0  0  0  0  0  0  0  0
   -4.4480   18.8080  -32.3720 O   0  0  0  0  0  0  0  0  0  0  0  0
   -6.5830   18.0960  -33.7990 N   0  0  0  0  0  0  0  0  0  0  0  0
   -5.7240   18.3690  -34.9650 C   0  0  0  0  0  0  0  0  0  0  0  0
   -4.4360   17.5110  -34.9650 C   0  0  0  0  0  0  0  0  0  0  0  0
   -4.4980   16.3960  -34.0940 O   0  0  0  0  0  0  0  0  0  0  0  0
   -5.7500   15.7600  -34.2090 C   0  0  0  0  0  0  0  0  0  0  0  0
   -6.8570   16.6530  -33.6240 C   0  0  0  0  0  0  0  0  0  0  0  0
   -5.7020   21.5350  -32.0570 C   0  0  0  0  0  0  0  0  0  0  0  0
   -4.3340   21.2880  -32.1260 O   0  0  0  0  0  0  0  0  0  0  0  0
   -2.6340   22.1040  -28.0150 C   0  0  0  0  0  0  0  0  0  0  0  0
   -1.5850   22.1170  -27.0900 C   0  0  0  0  0  0  0  0  0  0  0  0
    0.7712   22.5719  -24.3206 H   0  0  0  0  0  0  0  0  0  0  0  0
    0.9583   24.3249  -24.6654 H   0  0  0  0  0  0  0  0  0  0  0  0
   -0.6758   23.5790  -24.6654 H   0  0  0  0  0  0  0  0  0  0  0  0
    0.2001   24.7539  -28.3348 H   0  0  0  0  0  0  0  0  0  0  0  0
   -1.6640   24.7222  -29.9865 H   0  0  0  0  0  0  0  0  0  0  0  0
   -4.3070   22.1090  -30.0810 H   0  0  0  0  0  0  0  0  0  0  0  0
   -7.8740   24.1540  -31.7422 H   0  0  0  0  0  0  0  0  0  0  0  0
   -9.5155   22.2980  -31.8949 H   0  0  0  0  0  0  0  0  0  0  0  0
   -9.3620   19.3639  -31.1643 H   0  0  0  0  0  0  0  0  0  0  0  0
   -9.9381   20.0594  -32.7170 H   0  0  0  0  0  0  0  0  0  0  0  0
   -8.6531   18.8043  -32.7170 H   0  0  0  0  0  0  0  0  0  0  0  0
   -6.2929   18.1516  -35.8810 H   0  0  0  0  0  0  0  0  0  0  0  0
   -5.4221   19.4257  -34.9181 H   0  0  0  0  0  0  0  0  0  0  0  0
   -4.2622   17.1444  -35.9875 H   0  0  0  0  0  0  0  0  0  0  0  0
   -3.6192   18.1550  -34.6072 H   0  0  0  0  0  0  0  0  0  0  0  0
   -5.9628   15.5666  -35.2707 H   0  0  0  0  0  0  0  0  0  0  0  0
   -5.7227   14.8120  -33.6518 H   0  0  0  0  0  0  0  0  0  0  0  0
   -7.8052   16.4120  -34.1269 H   0  0  0  0  0  0  0  0  0  0  0  0
   -6.9057   16.4543  -32.5432 H   0  0  0  0  0  0  0  0  0  0  0  0
   -3.4246   21.3437  -27.9318 H   0  0  0  0  0  0  0  0  0  0  0  0
   -1.5624   21.3767  -26.2767 H   0  0  0  0  0  0  0  0  0  0  0  0
  1  2  1  0
  2  3  1  0
  3  4  2  0
  4  5  1  0
  5  6  2  0
  6  7  1  0
  7  8  1  0
  8  9  2  0
  8 10  1  0
 10 11  1  0
 11 12  2  0
 12 13  1  0
 13 14  2  0
 14 15  1  0
 14 16  1  0
 16 17  1  0
 17 18  2  0
 17 19  2  0
 17 20  1  0
 20 21  1  0
 21 22  1  0
 22 23  1  0
 23 24  1  0
 24 25  1  0
 16 26  2  0
 26 27  1  0
  6 28  1  0
 28 29  2  0
 29  3  1  0
 26 11  1  0
 25 20  1  0
  1 30  1  0
  1 31  1  0
  1 32  1  0
  4 33  1  0
  5 34  1  0
  7 35  1  0
 12 36  1  0
 13 37  1  0
 15 38  1  0
 15 39  1  0
 15 40  1  0
 21 41  1  0
 21 42  1  0
 22 43  1  0
 22 44  1  0
 24 45  1  0
 24 46  1  0
 25 47  1  0
 25 48  1  0
 28 49  1  0
 29 50  1  0
M  CHG  2  10  -1  27  -1
M  END
>  <UniqueID>  (20) 
20

>  <SMILES>  (20) 
COc1ccc(NC(=O)[N-]c2ccc(C)c(S(=O)(=O)N3CCOCC3)c2[O-])cc1

>  <Energy>  (20) 
72.74553440617156

>  <Genealogy>  (20) 
COc1ccc(NC(=O)[N-]c2ccc(C)c(S(=O)(=O)N3CCOCC3)c2[O-])cc1 (protonated)
COc1ccc(NC(=O)[N-]c2ccc(C)c(S(=O)(=O)N3CCOCC3)c2[O-])cc1 (3D coordinates assigned)
COc1ccc(NC(=O)[N-]c2ccc(C)c(S(=O)(=O)N3CCOCC3)c2[O-])cc1 (nonaromatic ring conformer: 72.74553440617156 kcal/mol)

>  <smiles>  (20) 
COc1ccc(NC(=O)Nc2ccc(C)c(S(=O)(=O)N3CCOCC3)c2O)cc1

>  <score_type>  (20) 
oracle

>  <origin>  (20) 
adgpu

>  <m_score__min__energy>  (20) 
-12.720000000000001

>  <m_primary>  (20) 
energy

$$$$
20:0
     RDKit          3D

 46 49  0  0  0  0  0  0  0  0999 V2000
   -5.7940   23.7060  -33.0940 H   0  0  0  0  0  0  0  0  0  0  0  0
   -5.1230   23.1420  -32.5870 O   0  0  0  0  0  0  0  0  0  0  0  0
   -4.5850   21.9810  -33.1070 N   0  0  0  0  0  0  0  0  0  0  0  0
   -4.8440   21.7310  -34.0880 H   0  0  0  0  0  0  0  0  0  0  0  0
   -3.8040   21.1950  -32.4180 C   0  0  0  0  0  0  0  0  0  0  0  0
   -3.3620   19.8970  -32.9840 C   0  0  0  0  0  0  0  0  0  0  0  0
   -4.1900   19.1460  -33.8430 C   0  0  0  0  0  0  0  0  0  0  0  0
   -5.4740   19.6090  -34.1620 O   0  0  0  0  0  0  0  0  0  0  0  0
   -6.5770   19.4590  -33.3150 C   0  0  0  0  0  0  0  0  0  0  0  0
   -7.1710   20.6020  -32.7690 C   0  0  0  0  0  0  0  0  0  0  0  0
   -6.7693   21.5965  -33.0133 H   0  0  0  0  0  0  0  0  0  0  0  0
   -8.2730   20.4880  -31.9140 C   0  0  0  0  0  0  0  0  0  0  0  0
   -9.0150   21.9300  -31.2410 Cl  0  0  0  0  0  0  0  0  0  0  0  0
   -8.7910   19.2240  -31.6070 C   0  0  0  0  0  0  0  0  0  0  0  0
   -9.6489   19.1313  -30.9248 H   0  0  0  0  0  0  0  0  0  0  0  0
   -8.2160   18.0790  -32.1690 C   0  0  0  0  0  0  0  0  0  0  0  0
   -8.6323   17.0875  -31.9374 H   0  0  0  0  0  0  0  0  0  0  0  0
   -7.1130   18.1890  -33.0250 C   0  0  0  0  0  0  0  0  0  0  0  0
   -6.4690   16.7360  -33.7770 Cl  0  0  0  0  0  0  0  0  0  0  0  0
   -3.7510   17.9520  -34.3330 N   0  0  0  0  0  0  0  0  0  0  0  0
   -2.5290   17.4450  -34.0190 C   0  0  0  0  0  0  0  0  0  0  0  0
   -2.0850   16.1520  -34.6260 C   0  0  0  0  0  0  0  0  0  0  0  0
   -1.8395   15.4370  -33.8269 H   0  0  0  0  0  0  0  0  0  0  0  0
   -2.8940   15.7424  -35.2487 H   0  0  0  0  0  0  0  0  0  0  0  0
   -1.1950   16.3258  -35.2487 H   0  0  0  0  0  0  0  0  0  0  0  0
   -1.6820   18.1570  -33.1630 C   0  0  0  0  0  0  0  0  0  0  0  0
   -0.6899   17.7574  -32.9060 H   0  0  0  0  0  0  0  0  0  0  0  0
   -2.1060   19.3780  -32.6380 C   0  0  0  0  0  0  0  0  0  0  0  0
   -1.4530   19.9355  -31.9504 H   0  0  0  0  0  0  0  0  0  0  0  0
   -3.3220   21.5870  -31.1230 N   0  0  0  0  0  0  0  0  0  0  0  0
   -3.4710   20.7490  -29.9350 C   0  0  0  0  0  0  0  0  0  0  0  0
   -4.5153   20.7344  -29.5898 H   0  0  0  0  0  0  0  0  0  0  0  0
   -3.2058   19.6961  -30.1110 H   0  0  0  0  0  0  0  0  0  0  0  0
   -2.5910   21.4160  -28.9440 C   0  0  0  0  0  0  0  0  0  0  0  0
   -2.3760   21.0590  -27.6110 C   0  0  0  0  0  0  0  0  0  0  0  0
   -2.8848   20.1875  -27.1733 H   0  0  0  0  0  0  0  0  0  0  0  0
   -1.4950   21.8380  -26.8410 C   0  0  0  0  0  0  0  0  0  0  0  0
   -1.3124   21.5794  -25.7875 H   0  0  0  0  0  0  0  0  0  0  0  0
   -0.8450   22.9490  -27.4140 C   0  0  0  0  0  0  0  0  0  0  0  0
   -0.1544   23.5530  -26.8072 H   0  0  0  0  0  0  0  0  0  0  0  0
   -1.0760   23.2880  -28.7580 C   0  0  0  0  0  0  0  0  0  0  0  0
   -0.5735   24.1540  -29.2136 H   0  0  0  0  0  0  0  0  0  0  0  0
   -1.9580   22.5010  -29.5030 C   0  0  0  0  0  0  0  0  0  0  0  0
   -2.3570   22.6730  -30.9210 C   0  0  0  0  0  0  0  0  0  0  0  0
   -2.8258   23.6546  -31.0841 H   0  0  0  0  0  0  0  0  0  0  0  0
   -1.5078   22.6355  -31.6192 H   0  0  0  0  0  0  0  0  0  0  0  0
  1  2  1  0
  2  3  1  0
  3  4  1  0
  3  5  2  0
  5  6  1  0
  6  7  1  0
  7  8  1  0
  8  9  1  0
  9 10  2  0
 10 11  1  0
 10 12  1  0
 12 13  1  0
 12 14  2  0
 14 15  1  0
 14 16  1  0
 16 17  1  0
 16 18  2  0
 18 19  1  0
  7 20  2  0
 20 21  1  0
 21 22  1  0
 22 23  1  0
 22 24  1  0
 22 25  1  0
 21 26  2  0
 26 27  1  0
 26 28  1  0
 28 29  1  0
  5 30  1  0
 30 31  1  0
 31 32  1  0
 31 33  1  0
 31 34  1  0
 34 35  2  0
 35 36  1  0
 35 37  1  0
 37 38  1  0
 37 39  2  0
 39 40  1  0
 39 41  1  0
 41 42  1  0
 41 43  2  0
 43 44  1  0
 44 45  1  0
 44 46  1  0
 28  6  2  0
 44 30  1  0
 18  9  1  0
 43 34  1  0
M  CHG  1   3   1
M  END
>  <UniqueID>  (21) 
21

>  <SMILES>  (21) 
Cc1ccc(/C(=[NH+]/O)N2Cc3ccccc3C2)c(Oc2cc(Cl)ccc2Cl)n1

>  <Energy>  (21) 
77.20491572219522

>  <Genealogy>  (21) 
Cc1ccc(C(=[NH+]O)N2Cc3ccccc3C2)c(Oc2cc(Cl)ccc2Cl)n1 (protonated)
Cc1ccc(/C(=[NH+]/O)N2Cc3ccccc3C2)c(Oc2cc(Cl)ccc2Cl)n1 (cis-trans isomerization)
Cc1ccc(/C(=[NH+]/O)N2Cc3ccccc3C2)c(Oc2cc(Cl)ccc2Cl)n1 (3D coordinates assigned)
Cc1ccc(/C(=[NH+]/O)N2Cc3ccccc3C2)c(Oc2cc(Cl)ccc2Cl)n1 (nonaromatic ring conformer: 77.20491572219522 kcal/mol)

>  <smiles>  (21) 
Cc1ccc(C(=NO)N2Cc3ccccc3C2)c(Oc2cc(Cl)ccc2Cl)n1

>  <score_type>  (21) 
oracle

>  <origin>  (21) 
adgpu

>  <m_score__min__energy>  (21) 
-8.4600000000000009

>  <m_primary>  (21) 
energy

$$$$
21:0
     RDKit          3D

 52 55  0  0  0  0  0  0  0  0999 V2000
   -5.6820   24.7320  -31.4390 O   0  0  0  0  0  0  0  0  0  0  0  0
   -5.3940   23.2770  -31.2020 S   0  0  0  0  0  0  0  0  0  0  0  0
   -4.1810   22.8780  -31.9930 O   0  0  0  0  0  0  0  0  0  0  0  0
   -5.0480   23.0470  -29.5190 N   0  0  0  0  0  0  0  0  0  0  0  0
   -3.7520   23.3230  -28.9890 C   0  0  0  0  0  0  0  0  0  0  0  0
   -3.2440   22.5110  -27.9700 C   0  0  0  0  0  0  0  0  0  0  0  0
   -1.9640   22.7380  -27.4430 C   0  0  0  0  0  0  0  0  0  0  0  0
   -1.1710   23.7840  -27.9700 C   0  0  0  0  0  0  0  0  0  0  0  0
   -1.6980   24.6130  -28.9710 C   0  0  0  0  0  0  0  0  0  0  0  0
   -2.9810   24.3930  -29.4800 C   0  0  0  0  0  0  0  0  0  0  0  0
   -3.4710   25.2530  -30.4630 O   0  0  0  0  0  0  0  0  0  0  0  0
    0.1940   24.1030  -27.4030 C   0  0  0  0  0  0  0  0  0  0  0  0
    0.8000   22.9270  -26.6320 C   0  0  0  0  0  0  0  0  0  0  0  0
   -0.2200   22.3520  -25.6500 C   0  0  0  0  0  0  0  0  0  0  0  0
   -1.4250   21.7830  -26.4030 C   0  0  0  0  0  0  0  0  0  0  0  0
   -6.8010   22.3050  -31.6690 C   0  0  0  0  0  0  0  0  0  0  0  0
   -8.0780   22.8350  -31.4120 C   0  0  0  0  0  0  0  0  0  0  0  0
   -9.2290   22.1170  -31.7370 C   0  0  0  0  0  0  0  0  0  0  0  0
   -9.1240   20.8610  -32.3280 C   0  0  0  0  0  0  0  0  0  0  0  0
   -7.8680   20.3250  -32.6090 C   0  0  0  0  0  0  0  0  0  0  0  0
   -6.6950   21.0370  -32.3020 C   0  0  0  0  0  0  0  0  0  0  0  0
   -5.1400   20.2830  -32.7030 S   0  0  0  0  0  0  0  0  0  0  0  0
   -4.2920   20.1690  -31.4670 O   0  0  0  0  0  0  0  0  0  0  0  0
   -4.4020   21.1400  -33.6960 O   0  0  0  0  0  0  0  0  0  0  0  0
   -5.4210   18.6970  -33.3770 N   0  0  0  0  0  0  0  0  0  0  0  0
   -4.2120   18.1590  -33.9970 C   0  0  0  0  0  0  0  0  0  0  0  0
   -4.3310   16.6450  -33.9330 C   0  0  0  0  0  0  0  0  0  0  0  0
   -5.3640   16.3660  -32.8510 C   0  0  0  0  0  0  0  0  0  0  0  0
   -5.7950   17.7340  -32.3430 C   0  0  0  0  0  0  0  0  0  0  0  0
   -3.8551   21.6850  -27.5773 H   0  0  0  0  0  0  0  0  0  0  0  0
   -1.0944   25.4462  -29.3601 H   0  0  0  0  0  0  0  0  0  0  0  0
   -3.7360   24.9300  -31.3860 H   0  0  0  0  0  0  0  0  0  0  0  0
    0.8675   24.3654  -28.2322 H   0  0  0  0  0  0  0  0  0  0  0  0
    0.0751   24.9385  -26.6975 H   0  0  0  0  0  0  0  0  0  0  0  0
    1.1001   22.1434  -27.3432 H   0  0  0  0  0  0  0  0  0  0  0  0
    1.6760   23.2824  -26.0695 H   0  0  0  0  0  0  0  0  0  0  0  0
    0.2531   21.5499  -25.0645 H   0  0  0  0  0  0  0  0  0  0  0  0
   -0.5640   23.1555  -24.9822 H   0  0  0  0  0  0  0  0  0  0  0  0
   -1.1202   20.8522  -26.9037 H   0  0  0  0  0  0  0  0  0  0  0  0
   -2.2238   21.6053  -25.6679 H   0  0  0  0  0  0  0  0  0  0  0  0
   -8.1704   23.8284  -30.9488 H   0  0  0  0  0  0  0  0  0  0  0  0
  -10.2207   22.5438  -31.5260 H   0  0  0  0  0  0  0  0  0  0  0  0
  -10.0323   20.2912  -32.5734 H   0  0  0  0  0  0  0  0  0  0  0  0
   -7.7937   19.3323  -33.0769 H   0  0  0  0  0  0  0  0  0  0  0  0
   -4.1417   18.4907  -35.0434 H   0  0  0  0  0  0  0  0  0  0  0  0
   -3.3085   18.5093  -33.4765 H   0  0  0  0  0  0  0  0  0  0  0  0
   -4.6689   16.2443  -34.9001 H   0  0  0  0  0  0  0  0  0  0  0  0
   -3.3654   16.1680  -33.7093 H   0  0  0  0  0  0  0  0  0  0  0  0
   -6.2236   15.8226  -33.2703 H   0  0  0  0  0  0  0  0  0  0  0  0
   -4.9537   15.7403  -32.0447 H   0  0  0  0  0  0  0  0  0  0  0  0
   -6.8828   17.7538  -32.1808 H   0  0  0  0  0  0  0  0  0  0  0  0
   -5.3123   17.9725  -31.3838 H   0  0  0  0  0  0  0  0  0  0  0  0
  1  2  2  0
  2  3  2  0
  2  4  1  0
  4  5  1  0
  5  6  2  0
  6  7  1  0
  7  8  2  0
  8  9  1  0
  9 10  2  0
 10 11  1  0
  8 12  1  0
 12 13  1  0
 13 14  1  0
 14 15  1  0
  2 16  1  0
 16 17  2  0
 17 18  1  0
 18 19  2  0
 19 20  1  0
 20 21  2  0
 21 22  1  0
 22 23  2  0
 22 24  2  0
 22 25  1  0
 25 26  1  0
 26 27  1  0
 27 28  1  0
 28 29  1  0
 10  5  1  0
 21 16  1  0
 29 25  1  0
 15  7  1  0
  6 30  1  0
  9 31  1  0
 11 32  1  0
 12 33  1  0
 12 34  1  0
 13 35  1  0
 13 36  1  0
 14 37  1  0
 14 38  1  0
 15 39  1  0
 15 40  1  0
 17 41  1  0
 18 42  1  0
 19 43  1  0
 20 44  1  0
 26 45  1  0
 26 46  1  0
 27 47  1  0
 27 48  1  0
 28 49  1  0
 28 50  1  0
 29 51  1  0
 29 52  1  0
M  CHG  1   4  -1
M  END
>  <UniqueID>  (22) 
22

>  <SMILES>  (22) 
O=S(=O)([N-]c1cc2c(cc1O)CCCC2)c1ccccc1S(=O)(=O)N1CCCC1

>  <Energy>  (22) 
67.18349020904317

>  <Genealogy>  (22) 
O=S(=O)([N-]c1cc2c(cc1O)CCCC2)c1ccccc1S(=O)(=O)N1CCCC1 (protonated)
O=S(=O)([N-]c1cc2c(cc1O)CCCC2)c1ccccc1S(=O)(=O)N1CCCC1 (3D coordinates assigned)
O=S(=O)([N-]c1cc2c(cc1O)CCCC2)c1ccccc1S(=O)(=O)N1CCCC1 (nonaromatic ring conformer: 67.18349020904317 kcal/mol)

>  <smiles>  (22) 
O=S(=O)(Nc1cc2c(cc1O)CCCC2)c1ccccc1S(=O)(=O)N1CCCC1

>  <score_type>  (22) 
oracle

>  <origin>  (22) 
adgpu

>  <m_score__min__energy>  (22) 
-12.109999999999999

>  <m_primary>  (22) 
energy

$$$$
22:0
     RDKit          3D

 36 38  0  0  0  0  0  0  0  0999 V2000
    2.3140   23.5720  -26.8540 O   0  0  0  0  0  0  0  0  0  0  0  0
    1.0850   24.2190  -26.8370 C   0  0  0  0  0  0  0  0  0  0  0  0
    0.6050   24.7750  -25.6470 C   0  0  0  0  0  0  0  0  0  0  0  0
   -0.6250   25.4390  -25.6320 C   0  0  0  0  0  0  0  0  0  0  0  0
   -1.3790   25.5420  -26.8040 C   0  0  0  0  0  0  0  0  0  0  0  0
   -0.9190   24.9680  -27.9990 C   0  0  0  0  0  0  0  0  0  0  0  0
   -1.7000   25.1080  -29.1990 N   0  0  0  0  0  0  0  0  0  0  0  0
   -2.5870   24.0970  -29.7100 C   0  0  0  0  0  0  0  0  0  0  0  0
   -2.3610   22.7370  -29.4430 C   0  0  0  0  0  0  0  0  0  0  0  0
   -3.2410   21.7610  -29.9190 C   0  0  0  0  0  0  0  0  0  0  0  0
   -2.9780   20.4230  -29.6450 O   0  0  0  0  0  0  0  0  0  0  0  0
   -4.3770   22.1290  -30.6650 C   0  0  0  0  0  0  0  0  0  0  0  0
   -5.2740   21.1090  -31.1550 N   0  0  0  0  0  0  0  0  0  0  0  0
   -6.4340   21.3680  -32.0080 C   0  0  0  0  0  0  0  0  0  0  0  0
   -7.3430   20.1790  -32.0280 C   0  0  0  0  0  0  0  0  0  0  0  0
   -8.6520   20.1700  -32.4640 C   0  0  0  0  0  0  0  0  0  0  0  0
   -9.0900   18.8740  -32.2910 C   0  0  0  0  0  0  0  0  0  0  0  0
   -8.0240   18.1770  -31.7560 C   0  0  0  0  0  0  0  0  0  0  0  0
   -6.9980   18.9830  -31.6090 O   0  0  0  0  0  0  0  0  0  0  0  0
   -4.6150   23.4960  -30.9080 C   0  0  0  0  0  0  0  0  0  0  0  0
   -3.7320   24.4700  -30.4310 C   0  0  0  0  0  0  0  0  0  0  0  0
   -3.9920   25.8110  -30.6900 O   0  0  0  0  0  0  0  0  0  0  0  0
    0.3310   24.3210  -28.0110 C   0  0  0  0  0  0  0  0  0  0  0  0
    1.1953   24.6898  -24.7228 H   0  0  0  0  0  0  0  0  0  0  0  0
   -0.9997   25.8808  -24.6969 H   0  0  0  0  0  0  0  0  0  0  0  0
   -2.3401   26.0769  -26.7897 H   0  0  0  0  0  0  0  0  0  0  0  0
   -1.6240   26.0070  -29.7280 H   0  0  0  0  0  0  0  0  0  0  0  0
   -1.4824   22.4367  -28.8532 H   0  0  0  0  0  0  0  0  0  0  0  0
   -5.0870   20.1100  -30.9100 H   0  0  0  0  0  0  0  0  0  0  0  0
   -6.9834   22.2377  -31.6184 H   0  0  0  0  0  0  0  0  0  0  0  0
   -6.0861   21.5684  -33.0321 H   0  0  0  0  0  0  0  0  0  0  0  0
   -9.2257   21.0184  -32.8653 H   0  0  0  0  0  0  0  0  0  0  0  0
  -10.0869   18.4756  -32.5306 H   0  0  0  0  0  0  0  0  0  0  0  0
   -8.0333   17.1089  -31.4931 H   0  0  0  0  0  0  0  0  0  0  0  0
   -5.5046   23.8005  -31.4789 H   0  0  0  0  0  0  0  0  0  0  0  0
    0.7169   23.8934  -28.9481 H   0  0  0  0  0  0  0  0  0  0  0  0
  1  2  1  0
  2  3  2  0
  3  4  1  0
  4  5  2  0
  5  6  1  0
  6  7  1  0
  7  8  1  0
  8  9  2  0
  9 10  1  0
 10 11  1  0
 10 12  2  0
 12 13  1  0
 13 14  1  0
 14 15  1  0
 15 16  2  0
 16 17  1  0
 17 18  2  0
 18 19  1  0
 12 20  1  0
 20 21  2  0
 21 22  1  0
  6 23  2  0
 23  2  1  0
 21  8  1  0
 19 15  1  0
  3 24  1  0
  4 25  1  0
  5 26  1  0
  7 27  1  0
  9 28  1  0
 13 29  1  0
 14 30  1  0
 14 31  1  0
 16 32  1  0
 17 33  1  0
 18 34  1  0
 20 35  1  0
 23 36  1  0
M  CHG  3   1  -1  11  -1  22  -1
M  END
>  <UniqueID>  (23) 
23

>  <SMILES>  (23) 
[O-]c1cccc(Nc2cc([O-])c(NCc3ccco3)cc2[O-])c1

>  <Energy>  (23) 
69.86551246987102

>  <Genealogy>  (23) 
[O-]c1cccc(Nc2cc([O-])c(NCc3ccco3)cc2[O-])c1 (protonated)
[O-]c1cccc(Nc2cc([O-])c(NCc3ccco3)cc2[O-])c1 (3D coordinates assigned)
[O-]c1cccc(Nc2cc([O-])c(NCc3ccco3)cc2[O-])c1 (optimized conformer: 69.86551246987102 kcal/mol)

>  <smiles>  (23) 
Oc1cccc(Nc2cc(O)c(NCc3ccco3)cc2O)c1

>  <score_type>  (23) 
oracle

>  <origin>  (23) 
adgpu

>  <m_score__min__energy>  (23) 
-9.9499999999999993

>  <m_primary>  (23) 
energy

$$$$
23:0
     RDKit          3D

 60 63  0  0  0  0  0  0  0  0999 V2000
    1.5700   16.6000  -27.5050 C   0  0  0  0  0  0  0  0  0  0  0  0
    1.5750   18.0800  -27.9220 C   0  0  0  0  0  0  0  0  0  0  0  0
    0.2510   18.6680  -28.2790 N   0  0  0  0  0  0  0  0  0  0  0  0
   -0.8630   18.2030  -27.4090 C   0  0  0  0  0  0  0  0  0  0  0  0
   -1.6490   19.3160  -26.7110 C   0  0  0  0  0  0  0  0  0  0  0  0
    0.2390   20.1430  -28.4850 C   0  0  0  0  0  0  0  0  0  0  0  0
   -0.8520   20.5810  -29.4460 C   0  0  0  0  0  0  0  0  0  0  0  0
   -1.6090   21.7270  -29.1710 C   0  0  0  0  0  0  0  0  0  0  0  0
   -2.6050   22.1540  -30.0480 C   0  0  0  0  0  0  0  0  0  0  0  0
   -2.8840   21.4360  -31.2270 C   0  0  0  0  0  0  0  0  0  0  0  0
   -3.9370   21.8790  -32.1220 N   0  0  0  0  0  0  0  0  0  0  0  0
   -3.8290   21.7000  -33.5750 C   0  0  0  0  0  0  0  0  0  0  0  0
   -4.9760   22.7460  -31.6370 C   0  0  0  0  0  0  0  0  0  0  0  0
   -4.6350   23.9370  -31.0660 N   0  0  0  0  0  0  0  0  0  0  0  0
   -5.5760   24.8350  -30.6550 C   0  0  0  0  0  0  0  0  0  0  0  0
   -6.9000   24.5680  -30.8250 N   0  0  0  0  0  0  0  0  0  0  0  0
   -7.2630   23.3910  -31.3840 C   0  0  0  0  0  0  0  0  0  0  0  0
   -8.8260   22.8730  -31.6880 S   0  0  0  0  0  0  0  0  0  0  0  0
   -8.3570   21.3840  -32.3360 C   0  0  0  0  0  0  0  0  0  0  0  0
   -6.9630   21.2790  -32.3040 C   0  0  0  0  0  0  0  0  0  0  0  0
   -6.2770   20.0390  -32.7040 C   0  0  0  0  0  0  0  0  0  0  0  0
   -5.6420   19.2410  -31.7390 C   0  0  0  0  0  0  0  0  0  0  0  0
   -4.9980   18.0590  -32.1190 C   0  0  0  0  0  0  0  0  0  0  0  0
   -4.9700   17.6770  -33.4630 C   0  0  0  0  0  0  0  0  0  0  0  0
   -5.5770   18.4810  -34.4320 C   0  0  0  0  0  0  0  0  0  0  0  0
   -6.2190   19.6650  -34.0560 C   0  0  0  0  0  0  0  0  0  0  0  0
   -6.3430   22.4380  -31.7820 C   0  0  0  0  0  0  0  0  0  0  0  0
   -2.1450   20.2650  -31.4880 C   0  0  0  0  0  0  0  0  0  0  0  0
   -1.1400   19.8250  -30.6010 C   0  0  0  0  0  0  0  0  0  0  0  0
   -0.4210   18.6390  -30.8330 O   0  0  0  0  0  0  0  0  0  0  0  0
   -0.4880   17.8680  -32.0280 C   0  0  0  0  0  0  0  0  0  0  0  0
    1.5698   16.5283  -26.4073 H   0  0  0  0  0  0  0  0  0  0  0  0
    0.6702   16.1095  -27.9047 H   0  0  0  0  0  0  0  0  0  0  0  0
    2.4665   16.1034  -27.9047 H   0  0  0  0  0  0  0  0  0  0  0  0
    1.9866   18.6632  -27.0850 H   0  0  0  0  0  0  0  0  0  0  0  0
    2.1749   18.1245  -28.8429 H   0  0  0  0  0  0  0  0  0  0  0  0
    0.0180   18.2380  -29.2040 H   0  0  0  0  0  0  0  0  0  0  0  0
   -1.5649   17.6289  -28.0316 H   0  0  0  0  0  0  0  0  0  0  0  0
   -0.3992   17.6071  -26.6091 H   0  0  0  0  0  0  0  0  0  0  0  0
   -1.5645   19.1963  -25.6208 H   0  0  0  0  0  0  0  0  0  0  0  0
   -1.2400   20.2938  -27.0053 H   0  0  0  0  0  0  0  0  0  0  0  0
   -2.7073   19.2576  -27.0053 H   0  0  0  0  0  0  0  0  0  0  0  0
    0.0743   20.6345  -27.5148 H   0  0  0  0  0  0  0  0  0  0  0  0
    1.2072   20.4301  -28.9211 H   0  0  0  0  0  0  0  0  0  0  0  0
   -1.4150   22.2976  -28.2508 H   0  0  0  0  0  0  0  0  0  0  0  0
   -3.1799   23.0627  -29.8163 H   0  0  0  0  0  0  0  0  0  0  0  0
   -3.2717   20.7764  -33.7902 H   0  0  0  0  0  0  0  0  0  0  0  0
   -4.8362   21.6308  -34.0118 H   0  0  0  0  0  0  0  0  0  0  0  0
   -3.2982   22.5587  -34.0118 H   0  0  0  0  0  0  0  0  0  0  0  0
   -5.2636   25.7788  -30.1842 H   0  0  0  0  0  0  0  0  0  0  0  0
   -9.0427   20.6160  -32.7232 H   0  0  0  0  0  0  0  0  0  0  0  0
   -5.6510   19.5460  -30.6822 H   0  0  0  0  0  0  0  0  0  0  0  0
   -4.5128   17.4291  -31.3588 H   0  0  0  0  0  0  0  0  0  0  0  0
   -4.4699   16.7429  -33.7585 H   0  0  0  0  0  0  0  0  0  0  0  0
   -5.5497   18.1823  -35.4903 H   0  0  0  0  0  0  0  0  0  0  0  0
   -6.6802   20.3056  -34.8222 H   0  0  0  0  0  0  0  0  0  0  0  0
   -2.3551   19.6844  -32.3983 H   0  0  0  0  0  0  0  0  0  0  0  0
   -0.5806   16.8022  -31.7720 H   0  0  0  0  0  0  0  0  0  0  0  0
   -1.3623   18.1808  -32.6176 H   0  0  0  0  0  0  0  0  0  0  0  0
    0.4272   18.0253  -32.6176 H   0  0  0  0  0  0  0  0  0  0  0  0
  1  2  1  0
  2  3  1  0
  3  4  1  0
  4  5  1  0
  3  6  1  0
  6  7  1  0
  7  8  2  0
  8  9  1  0
  9 10  2  0
 10 11  1  0
 11 12  1  0
 11 13  1  0
 13 14  2  0
 14 15  1  0
 15 16  2  0
 16 17  1  0
 17 18  1  0
 18 19  1  0
 19 20  2  0
 20 21  1  0
 21 22  2  0
 22 23  1  0
 23 24  2  0
 24 25  1  0
 25 26  2  0
 20 27  1  0
 10 28  1  0
 28 29  2  0
 29 30  1  0
 30 31  1  0
 29  7  1  0
 27 13  1  0
 27 17  2  0
 26 21  1  0
  1 32  1  0
  1 33  1  0
  1 34  1  0
  2 35  1  0
  2 36  1  0
  3 37  1  0
  4 38  1  0
  4 39  1  0
  5 40  1  0
  5 41  1  0
  5 42  1  0
  6 43  1  0
  6 44  1  0
  8 45  1  0
  9 46  1  0
 12 47  1  0
 12 48  1  0
 12 49  1  0
 15 50  1  0
 19 51  1  0
 22 52  1  0
 23 53  1  0
 24 54  1  0
 25 55  1  0
 26 56  1  0
 28 57  1  0
 31 58  1  0
 31 59  1  0
 31 60  1  0
M  CHG  1   3   1
M  END
>  <UniqueID>  (24) 
24

>  <SMILES>  (24) 
CC[NH+](CC)Cc1ccc(N(C)c2ncnc3scc(-c4ccccc4)c23)cc1OC

>  <Energy>  (24) 
120.57737127940243

>  <Genealogy>  (24) 
CC[NH+](CC)Cc1ccc(N(C)c2ncnc3scc(-c4ccccc4)c23)cc1OC (protonated)
CC[NH+](CC)Cc1ccc(N(C)c2ncnc3scc(-c4ccccc4)c23)cc1OC (3D coordinates assigned)
CC[NH+](CC)Cc1ccc(N(C)c2ncnc3scc(-c4ccccc4)c23)cc1OC (optimized conformer: 120.57737127940243 kcal/mol)

>  <smiles>  (24) 
CCN(CC)Cc1ccc(N(C)c2ncnc3scc(-c4ccccc4)c23)cc1OC

>  <score_type>  (24) 
oracle

>  <origin>  (24) 
adgpu

>  <m_score__min__energy>  (24) 
-7.4000000000000004

>  <m_primary>  (24) 
energy

$$$$
24:0
     RDKit          3D

 41 43  0  0  0  0  0  0  0  0999 V2000
   -5.3710   26.4240  -30.5590 O   0  0  0  0  0  0  0  0  0  0  0  0
   -4.8660   25.2700  -30.6260 C   0  0  0  0  0  0  0  0  0  0  0  0
   -3.4890   25.0770  -30.2810 N   0  0  0  0  0  0  0  0  0  0  0  0
   -2.9750   24.2040  -29.2640 C   0  0  0  0  0  0  0  0  0  0  0  0
   -3.6980   23.0880  -28.8030 C   0  0  0  0  0  0  0  0  0  0  0  0
   -3.1490   22.2480  -27.8310 C   0  0  0  0  0  0  0  0  0  0  0  0
   -1.8750   22.5030  -27.3200 C   0  0  0  0  0  0  0  0  0  0  0  0
   -1.1380   23.6010  -27.7860 C   0  0  0  0  0  0  0  0  0  0  0  0
    0.4750   23.9280  -27.1580 S   0  0  0  0  0  0  0  0  0  0  0  0
    1.1260   22.6430  -26.7220 O   0  0  0  0  0  0  0  0  0  0  0  0
    1.2950   24.5480  -28.2550 O   0  0  0  0  0  0  0  0  0  0  0  0
    0.3710   25.0310  -25.8020 N   0  0  0  0  0  0  0  0  0  0  0  0
    0.2650   26.4170  -26.2720 C   0  0  0  0  0  0  0  0  0  0  0  0
   -1.2110   26.7800  -26.3520 C   0  0  0  0  0  0  0  0  0  0  0  0
   -1.9350   25.7220  -25.5430 C   0  0  0  0  0  0  0  0  0  0  0  0
   -0.8520   24.7830  -25.0310 C   0  0  0  0  0  0  0  0  0  0  0  0
   -1.6870   24.4380  -28.7650 C   0  0  0  0  0  0  0  0  0  0  0  0
   -5.6940   24.1330  -31.1180 C   0  0  0  0  0  0  0  0  0  0  0  0
   -7.0810   24.1300  -30.8630 C   0  0  0  0  0  0  0  0  0  0  0  0
   -7.8890   23.0810  -31.3090 C   0  0  0  0  0  0  0  0  0  0  0  0
   -7.3290   22.0190  -32.0150 C   0  0  0  0  0  0  0  0  0  0  0  0
   -5.9580   22.0000  -32.2780 C   0  0  0  0  0  0  0  0  0  0  0  0
   -5.1340   23.0470  -31.8350 C   0  0  0  0  0  0  0  0  0  0  0  0
   -3.7670   22.9950  -32.1070 O   0  0  0  0  0  0  0  0  0  0  0  0
   -4.6982   22.8765  -29.2091 H   0  0  0  0  0  0  0  0  0  0  0  0
   -3.7225   21.3827  -27.4670 H   0  0  0  0  0  0  0  0  0  0  0  0
   -1.4490   21.8418  -26.5510 H   0  0  0  0  0  0  0  0  0  0  0  0
    0.7762   27.0894  -25.5673 H   0  0  0  0  0  0  0  0  0  0  0  0
    0.7360   26.5202  -27.2607 H   0  0  0  0  0  0  0  0  0  0  0  0
   -1.3850   27.7777  -25.9226 H   0  0  0  0  0  0  0  0  0  0  0  0
   -1.5668   26.8114  -27.3924 H   0  0  0  0  0  0  0  0  0  0  0  0
   -2.4720   26.1835  -24.7012 H   0  0  0  0  0  0  0  0  0  0  0  0
   -2.6823   25.1883  -26.1486 H   0  0  0  0  0  0  0  0  0  0  0  0
   -0.6654   24.9761  -23.9643 H   0  0  0  0  0  0  0  0  0  0  0  0
   -1.1697   23.7364  -25.1483 H   0  0  0  0  0  0  0  0  0  0  0  0
   -1.1013   25.2876  -29.1460 H   0  0  0  0  0  0  0  0  0  0  0  0
   -7.5325   24.9641  -30.3059 H   0  0  0  0  0  0  0  0  0  0  0  0
   -8.9693   23.0939  -31.1022 H   0  0  0  0  0  0  0  0  0  0  0  0
   -7.9674   21.1946  -32.3656 H   0  0  0  0  0  0  0  0  0  0  0  0
   -5.5204   21.1591  -32.8360 H   0  0  0  0  0  0  0  0  0  0  0  0
   -3.1620   23.7930  -31.9530 H   0  0  0  0  0  0  0  0  0  0  0  0
  1  2  2  0
  2  3  1  0
  3  4  1  0
  4  5  2  0
  5  6  1  0
  6  7  2  0
  7  8  1  0
  8  9  1  0
  9 10  2  0
  9 11  2  0
  9 12  1  0
 12 13  1  0
 13 14  1  0
 14 15  1  0
 15 16  1  0
  8 17  2  0
  2 18  1  0
 18 19  2  0
 19 20  1  0
 20 21  2  0
 21 22  1  0
 22 23  2  0
 23 24  1  0
 17  4  1  0
 23 18  1  0
 16 12  1  0
  5 25  1  0
  6 26  1  0
  7 27  1  0
 13 28  1  0
 13 29  1  0
 14 30  1  0
 14 31  1  0
 15 32  1  0
 15 33  1  0
 16 34  1  0
 16 35  1  0
 17 36  1  0
 19 37  1  0
 20 38  1  0
 21 39  1  0
 22 40  1  0
 24 41  1  0
M  CHG  1   3  -1
M  END
>  <UniqueID>  (25) 
25

>  <SMILES>  (25) 
O=C([N-]c1cccc(S(=O)(=O)N2CCCC2)c1)c1ccccc1O

>  <Energy>  (25) 
49.39888151250351

>  <Genealogy>  (25) 
O=C([N-]c1cccc(S(=O)(=O)N2CCCC2)c1)c1ccccc1O (protonated)
O=C([N-]c1cccc(S(=O)(=O)N2CCCC2)c1)c1ccccc1O (3D coordinates assigned)
O=C([N-]c1cccc(S(=O)(=O)N2CCCC2)c1)c1ccccc1O (nonaromatic ring conformer: 49.39888151250351 kcal/mol)

>  <smiles>  (25) 
O=C(Nc1cccc(S(=O)(=O)N2CCCC2)c1)c1ccccc1O

>  <score_type>  (25) 
oracle

>  <origin>  (25) 
adgpu

>  <m_score__min__energy>  (25) 
-10.710000000000001

>  <m_primary>  (25) 
energy

$$$$
25:0
     RDKit          3D

 53 56  0  0  0  0  0  0  0  0999 V2000
   -7.8300   20.2870  -32.2340 C   0  0  0  0  0  0  0  0  0  0  0  0
   -6.9090   19.2270  -32.7630 C   0  0  0  0  0  0  0  0  0  0  0  0
   -6.5310   18.1420  -31.9550 C   0  0  0  0  0  0  0  0  0  0  0  0
   -5.7040   17.1370  -32.4660 C   0  0  0  0  0  0  0  0  0  0  0  0
   -5.2680   17.1860  -33.7950 C   0  0  0  0  0  0  0  0  0  0  0  0
   -4.4630   16.1470  -34.2800 O   0  0  0  0  0  0  0  0  0  0  0  0
   -3.1100   16.2810  -34.6230 C   0  0  0  0  0  0  0  0  0  0  0  0
   -2.2120   17.2120  -34.1220 C   0  0  0  0  0  0  0  0  0  0  0  0
   -2.4890   18.2920  -33.1590 C   0  0  0  0  0  0  0  0  0  0  0  0
   -3.1130   19.3680  -33.5290 N   0  0  0  0  0  0  0  0  0  0  0  0
   -3.3990   20.5030  -32.6950 C   0  0  0  0  0  0  0  0  0  0  0  0
   -4.1840   21.5350  -33.2220 C   0  0  0  0  0  0  0  0  0  0  0  0
   -4.4780   22.6670  -32.4570 C   0  0  0  0  0  0  0  0  0  0  0  0
   -3.9820   22.7840  -31.1520 C   0  0  0  0  0  0  0  0  0  0  0  0
   -4.3420   24.2180  -30.1960 S   0  0  0  0  0  0  0  0  0  0  0  0
   -2.8680   24.9170  -29.6260 N   0  0  0  0  0  0  0  0  0  0  0  0
   -5.2040   23.8480  -29.0230 O   0  0  0  0  0  0  0  0  0  0  0  0
   -5.0790   25.2210  -31.0390 O   0  0  0  0  0  0  0  0  0  0  0  0
   -3.1740   21.7690  -30.6270 C   0  0  0  0  0  0  0  0  0  0  0  0
   -2.8770   20.6370  -31.3910 C   0  0  0  0  0  0  0  0  0  0  0  0
   -1.0440   16.9700  -34.8350 C   0  0  0  0  0  0  0  0  0  0  0  0
    0.2470   17.7160  -34.7290 C   0  0  0  0  0  0  0  0  0  0  0  0
   -1.2470   15.9640  -35.7110 N   0  0  0  0  0  0  0  0  0  0  0  0
   -2.4970   15.5460  -35.5750 N   0  0  0  0  0  0  0  0  0  0  0  0
   -3.0650   14.4890  -36.3670 C   0  0  0  0  0  0  0  0  0  0  0  0
   -2.9200   14.4700  -37.7670 C   0  0  0  0  0  0  0  0  0  0  0  0
   -3.4750   13.4300  -38.5190 C   0  0  0  0  0  0  0  0  0  0  0  0
   -4.1870   12.4090  -37.8870 C   0  0  0  0  0  0  0  0  0  0  0  0
   -4.3560   12.4300  -36.5010 C   0  0  0  0  0  0  0  0  0  0  0  0
   -3.8020   13.4660  -35.7430 C   0  0  0  0  0  0  0  0  0  0  0  0
   -5.6350   18.2790  -34.6010 C   0  0  0  0  0  0  0  0  0  0  0  0
   -6.4600   19.2860  -34.0900 C   0  0  0  0  0  0  0  0  0  0  0  0
   -7.8153   20.2700  -31.1342 H   0  0  0  0  0  0  0  0  0  0  0  0
   -7.4970   21.2731  -32.5900 H   0  0  0  0  0  0  0  0  0  0  0  0
   -8.8529   20.0949  -32.5900 H   0  0  0  0  0  0  0  0  0  0  0  0
   -6.8871   18.0827  -30.9159 H   0  0  0  0  0  0  0  0  0  0  0  0
   -5.3942   16.3027  -31.8195 H   0  0  0  0  0  0  0  0  0  0  0  0
   -2.1630   18.1850  -32.1139 H   0  0  0  0  0  0  0  0  0  0  0  0
   -4.5731   21.4543  -34.2477 H   0  0  0  0  0  0  0  0  0  0  0  0
   -5.1008   23.4686  -32.8808 H   0  0  0  0  0  0  0  0  0  0  0  0
   -2.3630   25.2880  -30.4620 H   0  0  0  0  0  0  0  0  0  0  0  0
   -2.7707   21.8627  -29.6079 H   0  0  0  0  0  0  0  0  0  0  0  0
   -2.2340   19.8477  -30.9742 H   0  0  0  0  0  0  0  0  0  0  0  0
    0.5000   17.8622  -33.6685 H   0  0  0  0  0  0  0  0  0  0  0  0
    1.0449   17.1397  -35.2202 H   0  0  0  0  0  0  0  0  0  0  0  0
    0.1462   18.6950  -35.2202 H   0  0  0  0  0  0  0  0  0  0  0  0
   -2.3678   15.2766  -38.2715 H   0  0  0  0  0  0  0  0  0  0  0  0
   -3.3502   13.4163  -39.6118 H   0  0  0  0  0  0  0  0  0  0  0  0
   -4.6149   11.5879  -38.4808 H   0  0  0  0  0  0  0  0  0  0  0  0
   -4.9257   11.6304  -36.0049 H   0  0  0  0  0  0  0  0  0  0  0  0
   -3.9432   13.4813  -34.6522 H   0  0  0  0  0  0  0  0  0  0  0  0
   -5.2716   18.3418  -35.6373 H   0  0  0  0  0  0  0  0  0  0  0  0
   -6.7580   20.1281  -34.7320 H   0  0  0  0  0  0  0  0  0  0  0  0
  1  2  1  0
  2  3  2  0
  3  4  1  0
  4  5  2  0
  5  6  1  0
  6  7  1  0
  7  8  2  0
  8  9  1  0
  9 10  2  3
 10 11  1  0
 11 12  2  0
 12 13  1  0
 13 14  2  0
 14 15  1  0
 15 16  1  0
 15 17  2  0
 15 18  2  0
 14 19  1  0
 19 20  2  0
  8 21  1  0
 21 22  1  0
 21 23  2  0
 23 24  1  0
 24 25  1  0
 25 26  2  0
 26 27  1  0
 27 28  2  0
 28 29  1  0
 29 30  2  0
  5 31  1  0
 31 32  2  0
 32  2  1  0
 24  7  1  0
 30 25  1  0
 20 11  1  0
  1 33  1  0
  1 34  1  0
  1 35  1  0
  3 36  1  0
  4 37  1  0
  9 38  1  0
 12 39  1  0
 13 40  1  0
 16 41  1  0
 19 42  1  0
 20 43  1  0
 22 44  1  0
 22 45  1  0
 22 46  1  0
 26 47  1  0
 27 48  1  0
 28 49  1  0
 29 50  1  0
 30 51  1  0
 31 52  1  0
 32 53  1  0
M  CHG  1  16  -1
M  END
>  <UniqueID>  (26) 
26

>  <SMILES>  (26) 
Cc1ccc(Oc2c(C=Nc3ccc(S([NH-])(=O)=O)cc3)c(C)nn2-c2ccccc2)cc1

>  <Energy>  (26) 
98.64070098136173

>  <Genealogy>  (26) 
Cc1ccc(Oc2c(C=Nc3ccc(S([NH-])(=O)=O)cc3)c(C)nn2-c2ccccc2)cc1 (protonated)
Cc1ccc(Oc2c(C=Nc3ccc(S([NH-])(=O)=O)cc3)c(C)nn2-c2ccccc2)cc1 (3D coordinates assigned)
Cc1ccc(Oc2c(C=Nc3ccc(S([NH-])(=O)=O)cc3)c(C)nn2-c2ccccc2)cc1 (optimized conformer: 98.64070098136173 kcal/mol)

>  <smiles>  (26) 
Cc1ccc(Oc2c(C=Nc3ccc(S(N)(=O)=O)cc3)c(C)nn2-c2ccccc2)cc1

>  <score_type>  (26) 
oracle

>  <origin>  (26) 
adgpu

>  <m_score__min__energy>  (26) 
-11.08

>  <m_primary>  (26) 
energy

$$$$
26:0
     RDKit          3D

 54 56  0  0  0  0  0  0  0  0999 V2000
   -4.5758   22.2359  -32.4595 H   0  0  0  0  0  0  0  0  0  0  0  0
   -4.1950   21.2770  -32.8410 C   0  0  0  0  0  0  0  0  0  0  0  0
   -2.8240   21.0120  -32.8100 C   0  0  0  0  0  0  0  0  0  0  0  0
   -2.1278   21.7685  -32.4188 H   0  0  0  0  0  0  0  0  0  0  0  0
   -2.3330   19.7850  -33.2760 C   0  0  0  0  0  0  0  0  0  0  0  0
   -0.5980   19.4550  -33.2490 S   0  0  0  0  0  0  0  0  0  0  0  0
   -0.1670   19.2050  -31.8300 O   0  0  0  0  0  0  0  0  0  0  0  0
   -0.3170   18.2120  -34.0450 O   0  0  0  0  0  0  0  0  0  0  0  0
    0.3260   20.7850  -33.9040 N   0  0  0  0  0  0  0  0  0  0  0  0
   -0.1820   21.1610  -35.2310 C   0  0  0  0  0  0  0  0  0  0  0  0
   -0.0863   20.3045  -35.9145 H   0  0  0  0  0  0  0  0  0  0  0  0
   -1.2395   21.4515  -35.1454 H   0  0  0  0  0  0  0  0  0  0  0  0
    0.6290   22.3510  -35.7850 C   0  0  0  0  0  0  0  0  0  0  0  0
    0.9798   22.0994  -36.7968 H   0  0  0  0  0  0  0  0  0  0  0  0
   -0.0303   23.2315  -35.7954 H   0  0  0  0  0  0  0  0  0  0  0  0
    1.7520   22.6600  -34.9770 O   0  0  0  0  0  0  0  0  0  0  0  0
    2.5350   21.4990  -34.7790 C   0  0  0  0  0  0  0  0  0  0  0  0
    2.8185   21.0856  -35.7581 H   0  0  0  0  0  0  0  0  0  0  0  0
    3.4300   21.7753  -34.2022 H   0  0  0  0  0  0  0  0  0  0  0  0
    1.7530   20.4300  -33.9880 C   0  0  0  0  0  0  0  0  0  0  0  0
    1.8544   19.4593  -34.4954 H   0  0  0  0  0  0  0  0  0  0  0  0
    2.1639   20.3728  -32.9692 H   0  0  0  0  0  0  0  0  0  0  0  0
   -3.2280   18.8200  -33.7590 C   0  0  0  0  0  0  0  0  0  0  0  0
   -2.8497   17.8502  -34.1145 H   0  0  0  0  0  0  0  0  0  0  0  0
   -4.6000   19.0870  -33.7900 C   0  0  0  0  0  0  0  0  0  0  0  0
   -5.2983   18.3202  -34.1566 H   0  0  0  0  0  0  0  0  0  0  0  0
   -5.0900   20.3250  -33.3570 C   0  0  0  0  0  0  0  0  0  0  0  0
   -6.5050   20.5590  -33.3530 N   0  0  0  0  0  0  0  0  0  0  0  0
   -6.8200   21.4860  -33.7180 H   0  0  0  0  0  0  0  0  0  0  0  0
   -7.4040   19.7150  -32.9180 C   0  0  0  0  0  0  0  0  0  0  0  0
   -7.0420   18.4510  -32.3460 N   0  0  0  0  0  0  0  0  0  0  0  0
   -7.7910   17.7750  -32.0800 H   0  0  0  0  0  0  0  0  0  0  0  0
   -6.0630   18.2210  -32.0730 H   0  0  0  0  0  0  0  0  0  0  0  0
   -8.7920   20.0640  -32.9830 N   0  0  0  0  0  0  0  0  0  0  0  0
   -9.4370   19.3950  -33.4590 H   0  0  0  0  0  0  0  0  0  0  0  0
   -9.3790   21.0080  -32.0330 C   0  0  0  0  0  0  0  0  0  0  0  0
  -10.1902   21.5607  -32.5296 H   0  0  0  0  0  0  0  0  0  0  0  0
   -9.7680   20.4436  -31.1727 H   0  0  0  0  0  0  0  0  0  0  0  0
   -8.3490   21.9850  -31.5390 C   0  0  0  0  0  0  0  0  0  0  0  0
   -7.9000   23.0190  -32.3770 C   0  0  0  0  0  0  0  0  0  0  0  0
   -8.3426   23.1456  -33.3760 H   0  0  0  0  0  0  0  0  0  0  0  0
   -6.8940   23.8870  -31.9470 C   0  0  0  0  0  0  0  0  0  0  0  0
   -6.5483   24.6954  -32.6081 H   0  0  0  0  0  0  0  0  0  0  0  0
   -6.3230   23.7320  -30.6760 C   0  0  0  0  0  0  0  0  0  0  0  0
   -5.0270   24.8000  -30.1480 S   0  0  0  0  0  0  0  0  0  0  0  0
   -3.7470   24.4350  -30.8460 O   0  0  0  0  0  0  0  0  0  0  0  0
   -5.3720   26.2230  -30.4890 O   0  0  0  0  0  0  0  0  0  0  0  0
   -4.8140   24.6510  -28.4390 N   0  0  0  0  0  0  0  0  0  0  0  0
   -5.7430   24.3940  -28.0380 H   0  0  0  0  0  0  0  0  0  0  0  0
   -4.5830   25.6030  -28.0760 H   0  0  0  0  0  0  0  0  0  0  0  0
   -6.7620   22.6970  -29.8420 C   0  0  0  0  0  0  0  0  0  0  0  0
   -6.3113   22.5663  -28.8471 H   0  0  0  0  0  0  0  0  0  0  0  0
   -7.7710   21.8290  -30.2690 C   0  0  0  0  0  0  0  0  0  0  0  0
   -8.1137   21.0201  -29.6071 H   0  0  0  0  0  0  0  0  0  0  0  0
  1  2  1  0
  2  3  2  0
  3  4  1  0
  3  5  1  0
  5  6  1  0
  6  7  2  0
  6  8  2  0
  6  9  1  0
  9 10  1  0
 10 11  1  0
 10 12  1  0
 10 13  1  0
 13 14  1  0
 13 15  1  0
 13 16  1  0
 16 17  1  0
 17 18  1  0
 17 19  1  0
 17 20  1  0
 20 21  1  0
 20 22  1  0
  5 23  2  0
 23 24  1  0
 23 25  1  0
 25 26  1  0
 25 27  2  0
 27 28  1  0
 28 29  1  0
 28 30  2  0
 30 31  1  0
 31 32  1  0
 31 33  1  0
 30 34  1  0
 34 35  1  0
 34 36  1  0
 36 37  1  0
 36 38  1  0
 36 39  1  0
 39 40  2  0
 40 41  1  0
 40 42  1  0
 42 43  1  0
 42 44  2  0
 44 45  1  0
 45 46  2  0
 45 47  2  0
 45 48  1  0
 48 49  1  0
 48 50  1  0
 44 51  1  0
 51 52  1  0
 51 53  2  0
 53 54  1  0
 27  2  1  0
 53 39  1  0
 20  9  1  0
M  CHG  1  28   1
M  END
>  <UniqueID>  (27) 
27

>  <SMILES>  (27) 
N/C(NCc1ccc(S(N)(=O)=O)cc1)=[NH+]\c1ccc(S(=O)(=O)N2CCOCC2)cc1

>  <Energy>  (27) 
70.12367620179457

>  <Genealogy>  (27) 
NC(NCc1ccc(S(N)(=O)=O)cc1)=[NH+]c1ccc(S(=O)(=O)N2CCOCC2)cc1 (protonated)
N/C(NCc1ccc(S(N)(=O)=O)cc1)=[NH+]\c1ccc(S(=O)(=O)N2CCOCC2)cc1 (cis-trans isomerization)
N/C(NCc1ccc(S(N)(=O)=O)cc1)=[NH+]\c1ccc(S(=O)(=O)N2CCOCC2)cc1 (3D coordinates assigned)
N/C(NCc1ccc(S(N)(=O)=O)cc1)=[NH+]\c1ccc(S(=O)(=O)N2CCOCC2)cc1 (nonaromatic ring conformer: 70.12367620179457 kcal/mol)

>  <smiles>  (27) 
NC(=Nc1ccc(S(=O)(=O)N2CCOCC2)cc1)NCc1ccc(S(N)(=O)=O)cc1

>  <score_type>  (27) 
oracle

>  <origin>  (27) 
adgpu

>  <m_score__min__energy>  (27) 
-10.26

>  <m_primary>  (27) 
energy

$$$$
27:0
     RDKit          3D

 17 18  0  0  0  0  0  0  0  0999 V2000
   -1.2480   26.0370  -29.3460 O   0  0  0  0  0  0  0  0  0  0  0  0
   -1.2780   24.9310  -28.5010 C   0  0  0  0  0  0  0  0  0  0  0  0
   -0.2020   24.7170  -27.6310 C   0  0  0  0  0  0  0  0  0  0  0  0
   -0.1990   23.6180  -26.7700 C   0  0  0  0  0  0  0  0  0  0  0  0
   -1.2730   22.7260  -26.7750 C   0  0  0  0  0  0  0  0  0  0  0  0
   -2.3510   22.9300  -27.6400 C   0  0  0  0  0  0  0  0  0  0  0  0
   -2.3680   24.0350  -28.5130 C   0  0  0  0  0  0  0  0  0  0  0  0
   -3.5190   24.2350  -29.4220 C   0  0  0  0  0  0  0  0  0  0  0  0
   -3.4910   25.0110  -30.5260 N   0  0  0  0  0  0  0  0  0  0  0  0
   -4.6950   24.9370  -31.0710 N   0  0  0  0  0  0  0  0  0  0  0  0
   -5.4090   24.1190  -30.2780 C   0  0  0  0  0  0  0  0  0  0  0  0
   -6.9690   23.7200  -30.5480 S   0  0  0  0  0  0  0  0  0  0  0  0
   -4.7000   23.6830  -29.2670 O   0  0  0  0  0  0  0  0  0  0  0  0
    0.6453   25.4184  -27.6259 H   0  0  0  0  0  0  0  0  0  0  0  0
    0.6488   23.4550  -26.0883 H   0  0  0  0  0  0  0  0  0  0  0  0
   -1.2704   21.8604  -26.0962 H   0  0  0  0  0  0  0  0  0  0  0  0
   -3.1930   22.2221  -27.6392 H   0  0  0  0  0  0  0  0  0  0  0  0
  1  2  1  0
  2  3  2  0
  3  4  1  0
  4  5  2  0
  5  6  1  0
  6  7  2  0
  7  8  1  0
  8  9  2  0
  9 10  1  0
 10 11  1  0
 11 12  2  0
 11 13  1  0
  7  2  1  0
 13  8  1  0
  3 14  1  0
  4 15  1  0
  5 16  1  0
  6 17  1  0
M  CHG  2   1  -1  10  -1
M  END
>  <UniqueID>  (28) 
28

>  <SMILES>  (28) 
[O-]c1ccccc1-c1n[n-]c(=S)o1

>  <Energy>  (28) 
54.203220793811624

>  <Genealogy>  (28) 
[O-]c1ccccc1-c1n[n-]c(=S)o1 (protonated)
[O-]c1ccccc1-c1n[n-]c(=S)o1 (3D coordinates assigned)
[O-]c1ccccc1-c1n[n-]c(=S)o1 (optimized conformer: 54.203220793811624 kcal/mol)

>  <smiles>  (28) 
Oc1ccccc1-c1n[nH]c(=S)o1

>  <score_type>  (28) 
oracle

>  <origin>  (28) 
adgpu

>  <m_score__min__energy>  (28) 
-9.6899999999999995

>  <m_primary>  (28) 
energy

$$$$
28:0
     RDKit          3D

 60 63  0  0  0  0  0  0  0  0999 V2000
    1.6980   29.4900  -23.5740 C   0  0  0  0  0  0  0  0  0  0  0  0
    0.7390   28.3760  -23.5310 N   0  0  0  0  0  0  0  0  0  0  0  0
   -0.2040   28.4680  -24.6730 C   0  0  0  0  0  0  0  0  0  0  0  0
   -0.8950   27.1280  -24.9470 C   0  0  0  0  0  0  0  0  0  0  0  0
    0.1280   26.0270  -25.3190 C   0  0  0  0  0  0  0  0  0  0  0  0
    0.1910   25.7280  -27.0930 S   0  0  0  0  0  0  0  0  0  0  0  0
   -0.2650   26.9670  -27.8090 O   0  0  0  0  0  0  0  0  0  0  0  0
    1.6200   25.4870  -27.4960 O   0  0  0  0  0  0  0  0  0  0  0  0
   -0.8060   24.3270  -27.5680 C   0  0  0  0  0  0  0  0  0  0  0  0
   -0.7320   23.0910  -26.8780 C   0  0  0  0  0  0  0  0  0  0  0  0
    0.3200   22.8230  -25.4910 Cl  0  0  0  0  0  0  0  0  0  0  0  0
   -1.5150   22.0110  -27.2940 C   0  0  0  0  0  0  0  0  0  0  0  0
   -2.3580   22.1270  -28.3960 C   0  0  0  0  0  0  0  0  0  0  0  0
   -2.4260   23.3260  -29.1090 C   0  0  0  0  0  0  0  0  0  0  0  0
   -3.2980   23.4120  -30.2480 N   0  0  0  0  0  0  0  0  0  0  0  0
   -4.5680   24.0810  -30.2130 C   0  0  0  0  0  0  0  0  0  0  0  0
   -4.8390   24.8760  -29.2730 O   0  0  0  0  0  0  0  0  0  0  0  0
   -5.5070   23.9290  -31.2840 N   0  0  0  0  0  0  0  0  0  0  0  0
   -6.2330   22.7330  -31.6000 C   0  0  0  0  0  0  0  0  0  0  0  0
   -7.6300   22.7310  -31.7320 C   0  0  0  0  0  0  0  0  0  0  0  0
   -8.3050   21.5530  -32.0590 C   0  0  0  0  0  0  0  0  0  0  0  0
   -7.5940   20.3620  -32.2690 C   0  0  0  0  0  0  0  0  0  0  0  0
   -6.1880   20.3690  -32.1900 C   0  0  0  0  0  0  0  0  0  0  0  0
   -5.5190   21.5560  -31.8460 C   0  0  0  0  0  0  0  0  0  0  0  0
   -5.3910   19.0960  -32.3670 C   0  0  0  0  0  0  0  0  0  0  0  0
   -6.1220   18.0600  -33.1230 N   0  0  0  0  0  0  0  0  0  0  0  0
   -6.1200   18.3290  -34.5720 C   0  0  0  0  0  0  0  0  0  0  0  0
   -7.4800   17.8560  -32.5840 C   0  0  0  0  0  0  0  0  0  0  0  0
   -8.3460   19.1230  -32.6780 C   0  0  0  0  0  0  0  0  0  0  0  0
   -1.6780   24.4370  -28.6750 C   0  0  0  0  0  0  0  0  0  0  0  0
   -1.8240   25.6540  -29.3330 O   0  0  0  0  0  0  0  0  0  0  0  0
    1.5330   26.3300  -24.7580 C   0  0  0  0  0  0  0  0  0  0  0  0
    1.4360   27.0660  -23.4150 C   0  0  0  0  0  0  0  0  0  0  0  0
    1.9569   29.7907  -22.5481 H   0  0  0  0  0  0  0  0  0  0  0  0
    2.6079   29.1703  -24.1030 H   0  0  0  0  0  0  0  0  0  0  0  0
    1.2466   30.3422  -24.1030 H   0  0  0  0  0  0  0  0  0  0  0  0
   -0.9697   29.2235  -24.4430 H   0  0  0  0  0  0  0  0  0  0  0  0
    0.3692   28.7477  -25.5692 H   0  0  0  0  0  0  0  0  0  0  0  0
   -1.4423   26.8171  -24.0449 H   0  0  0  0  0  0  0  0  0  0  0  0
   -1.5820   27.2614  -25.7957 H   0  0  0  0  0  0  0  0  0  0  0  0
   -0.2276   25.1015  -24.8426 H   0  0  0  0  0  0  0  0  0  0  0  0
   -1.4648   21.0591  -26.7450 H   0  0  0  0  0  0  0  0  0  0  0  0
   -2.9736   21.2699  -28.7067 H   0  0  0  0  0  0  0  0  0  0  0  0
   -2.9220   23.1250  -31.1790 H   0  0  0  0  0  0  0  0  0  0  0  0
   -8.1960   23.6615  -31.5772 H   0  0  0  0  0  0  0  0  0  0  0  0
   -9.4010   21.5590  -32.1525 H   0  0  0  0  0  0  0  0  0  0  0  0
   -4.4217   21.5593  -31.7694 H   0  0  0  0  0  0  0  0  0  0  0  0
   -4.4631   19.3353  -32.9071 H   0  0  0  0  0  0  0  0  0  0  0  0
   -5.1888   18.6914  -31.3643 H   0  0  0  0  0  0  0  0  0  0  0  0
   -6.1119   19.4156  -34.7432 H   0  0  0  0  0  0  0  0  0  0  0  0
   -5.2252   17.8794  -35.0272 H   0  0  0  0  0  0  0  0  0  0  0  0
   -7.0214   17.8928  -35.0272 H   0  0  0  0  0  0  0  0  0  0  0  0
   -7.9685   17.0515  -33.1533 H   0  0  0  0  0  0  0  0  0  0  0  0
   -7.3821   17.5956  -31.5197 H   0  0  0  0  0  0  0  0  0  0  0  0
   -8.6859   19.2426  -33.7173 H   0  0  0  0  0  0  0  0  0  0  0  0
   -9.1946   19.0020  -31.9887 H   0  0  0  0  0  0  0  0  0  0  0  0
    2.0750   25.3839  -24.6125 H   0  0  0  0  0  0  0  0  0  0  0  0
    2.0679   26.9714  -25.4739 H   0  0  0  0  0  0  0  0  0  0  0  0
    0.8822   26.4336  -22.7055 H   0  0  0  0  0  0  0  0  0  0  0  0
    2.4609   27.2628  -23.0674 H   0  0  0  0  0  0  0  0  0  0  0  0
  1  2  1  0
  2  3  1  0
  3  4  1  0
  4  5  1  0
  5  6  1  0
  6  7  2  0
  6  8  2  0
  6  9  1  0
  9 10  2  0
 10 11  1  0
 10 12  1  0
 12 13  2  0
 13 14  1  0
 14 15  1  0
 15 16  1  0
 16 17  2  0
 16 18  1  0
 18 19  1  0
 19 20  2  0
 20 21  1  0
 21 22  2  0
 22 23  1  0
 23 24  2  0
 23 25  1  0
 25 26  1  0
 26 27  1  0
 26 28  1  0
 28 29  1  0
 14 30  2  0
 30 31  1  0
  5 32  1  0
 32 33  1  0
 33  2  1  0
 30  9  1  0
 24 19  1  0
 29 22  1  0
  1 34  1  0
  1 35  1  0
  1 36  1  0
  3 37  1  0
  3 38  1  0
  4 39  1  0
  4 40  1  0
  5 41  1  0
 12 42  1  0
 13 43  1  0
 15 44  1  0
 20 45  1  0
 21 46  1  0
 24 47  1  0
 25 48  1  0
 25 49  1  0
 27 50  1  0
 27 51  1  0
 27 52  1  0
 28 53  1  0
 28 54  1  0
 29 55  1  0
 29 56  1  0
 32 57  1  0
 32 58  1  0
 33 59  1  0
 33 60  1  0
M  CHG  2  18  -1  31  -1
M  END
>  <UniqueID>  (29) 
29

>  <SMILES>  (29) 
CN1CCC(S(=O)(=O)c2c(Cl)ccc(NC(=O)[N-]c3ccc4c(c3)CN(C)CC4)c2[O-])CC1

>  <Energy>  (29) 
83.69644084092083

>  <Genealogy>  (29) 
CN1CCC(S(=O)(=O)c2c(Cl)ccc(NC(=O)[N-]c3ccc4c(c3)CN(C)CC4)c2[O-])CC1 (protonated)
CN1CCC(S(=O)(=O)c2c(Cl)ccc(NC(=O)[N-]c3ccc4c(c3)CN(C)CC4)c2[O-])CC1 (3D coordinates assigned)
CN1CCC(S(=O)(=O)c2c(Cl)ccc(NC(=O)[N-]c3ccc4c(c3)CN(C)CC4)c2[O-])CC1 (nonaromatic ring conformer: 83.69644084092083 kcal/mol)

>  <smiles>  (29) 
CN1CCC(S(=O)(=O)c2c(Cl)ccc(NC(=O)Nc3ccc4c(c3)CN(C)CC4)c2O)CC1

>  <score_type>  (29) 
oracle

>  <origin>  (29) 
adgpu

>  <m_score__min__energy>  (29) 
-14.68

>  <m_primary>  (29) 
energy

$$$$
29:0
     RDKit          3D

 35 37  0  0  0  0  0  0  0  0999 V2000
   -9.7801   22.4161  -31.4473 H   0  0  0  0  0  0  0  0  0  0  0  0
   -8.7430   22.1430  -31.6920 C   0  0  0  0  0  0  0  0  0  0  0  0
   -8.4220   20.8180  -31.9850 C   0  0  0  0  0  0  0  0  0  0  0  0
   -9.2017   20.0430  -31.9490 H   0  0  0  0  0  0  0  0  0  0  0  0
   -7.1120   20.4740  -32.3240 C   0  0  0  0  0  0  0  0  0  0  0  0
   -6.8671   19.4280  -32.5604 H   0  0  0  0  0  0  0  0  0  0  0  0
   -6.1030   21.4520  -32.3660 C   0  0  0  0  0  0  0  0  0  0  0  0
   -4.7270   21.0450  -32.8190 C   0  0  0  0  0  0  0  0  0  0  0  0
   -4.0923   20.8573  -31.9404 H   0  0  0  0  0  0  0  0  0  0  0  0
   -4.7961   20.1288  -33.4239 H   0  0  0  0  0  0  0  0  0  0  0  0
   -4.2867   21.8514  -33.4239 H   0  0  0  0  0  0  0  0  0  0  0  0
   -6.4200   22.7860  -31.9990 C   0  0  0  0  0  0  0  0  0  0  0  0
   -5.4350   23.8300  -31.9480 N   0  0  0  0  0  0  0  0  0  0  0  0
   -5.3220   24.8250  -30.9210 C   0  0  0  0  0  0  0  0  0  0  0  0
   -6.3700   25.3220  -30.4340 O   0  0  0  0  0  0  0  0  0  0  0  0
   -4.0480   25.3000  -30.4650 N   0  0  0  0  0  0  0  0  0  0  0  0
   -3.2160   24.6370  -29.7170 C   0  0  0  0  0  0  0  0  0  0  0  0
   -3.5120   23.1310  -28.9920 S   0  0  0  0  0  0  0  0  0  0  0  0
   -1.9990   23.1030  -28.2530 C   0  0  0  0  0  0  0  0  0  0  0  0
   -1.4340   22.1170  -27.4350 C   0  0  0  0  0  0  0  0  0  0  0  0
   -2.1860   20.8620  -27.1020 C   0  0  0  0  0  0  0  0  0  0  0  0
   -2.2515   20.7528  -26.0094 H   0  0  0  0  0  0  0  0  0  0  0  0
   -3.1993   20.9182  -27.5262 H   0  0  0  0  0  0  0  0  0  0  0  0
   -1.6585   19.9950  -27.5262 H   0  0  0  0  0  0  0  0  0  0  0  0
   -0.1350   22.3450  -26.9380 C   0  0  0  0  0  0  0  0  0  0  0  0
    0.3408   21.5933  -26.2911 H   0  0  0  0  0  0  0  0  0  0  0  0
    0.5590   23.5260  -27.2620 C   0  0  0  0  0  0  0  0  0  0  0  0
    1.5722   23.6893  -26.8661 H   0  0  0  0  0  0  0  0  0  0  0  0
   -0.0310   24.4970  -28.0860 C   0  0  0  0  0  0  0  0  0  0  0  0
    0.5107   25.4202  -28.3397 H   0  0  0  0  0  0  0  0  0  0  0  0
   -1.3180   24.2700  -28.5780 C   0  0  0  0  0  0  0  0  0  0  0  0
   -1.9990   25.1250  -29.3850 N   0  0  0  0  0  0  0  0  0  0  0  0
   -1.6250   26.0440  -29.7160 H   0  0  0  0  0  0  0  0  0  0  0  0
   -7.7490   23.1230  -31.7090 C   0  0  0  0  0  0  0  0  0  0  0  0
   -8.0113   24.1692  -31.4928 H   0  0  0  0  0  0  0  0  0  0  0  0
  1  2  1  0
  2  3  2  0
  3  4  1  0
  3  5  1  0
  5  6  1  0
  5  7  2  0
  7  8  1  0
  8  9  1  0
  8 10  1  0
  8 11  1  0
  7 12  1  0
 12 13  1  0
 13 14  1  0
 14 15  2  0
 14 16  1  0
 16 17  2  0
 17 18  1  0
 18 19  1  0
 19 20  2  0
 20 21  1  0
 21 22  1  0
 21 23  1  0
 21 24  1  0
 20 25  1  0
 25 26  1  0
 25 27  2  0
 27 28  1  0
 27 29  1  0
 29 30  1  0
 29 31  2  0
 31 32  1  0
 32 33  1  0
 12 34  2  0
 34 35  1  0
 34  2  1  0
 32 17  1  0
 31 19  1  0
M  CHG  1  13  -1
M  END
>  <UniqueID>  (30) 
30

>  <SMILES>  (30) 
Cc1ccccc1[N-]C(=O)/N=c1/[nH]c2cccc(C)c2s1

>  <Energy>  (30) 
83.73594600744843

>  <Genealogy>  (30) 
Cc1ccccc1[N-]C(=O)N=c1[nH]c2cccc(C)c2s1 (protonated)
Cc1ccccc1[N-]C(=O)/N=c1/[nH]c2cccc(C)c2s1 (cis-trans isomerization)
Cc1ccccc1[N-]C(=O)/N=c1/[nH]c2cccc(C)c2s1 (3D coordinates assigned)
Cc1ccccc1[N-]C(=O)/N=c1/[nH]c2cccc(C)c2s1 (optimized conformer: 83.73594600744843 kcal/mol)

>  <smiles>  (30) 
Cc1ccccc1NC(=O)N=c1[nH]c2cccc(C)c2s1

>  <score_type>  (30) 
oracle

>  <origin>  (30) 
adgpu

>  <m_score__min__energy>  (30) 
-9.7400000000000002

>  <m_primary>  (30) 
energy

$$$$
30:0
     RDKit          3D

 47 50  0  0  0  0  0  0  0  0999 V2000
   -6.8170   26.0490  -29.7520 O   0  0  0  0  0  0  0  0  0  0  0  0
   -6.3380   24.9690  -30.1910 C   0  0  0  0  0  0  0  0  0  0  0  0
   -7.1320   24.0890  -30.9980 N   0  0  0  0  0  0  0  0  0  0  0  0
   -6.6780   22.9130  -31.6840 C   0  0  0  0  0  0  0  0  0  0  0  0
   -7.5970   21.8870  -31.9360 C   0  0  0  0  0  0  0  0  0  0  0  0
   -7.2050   20.7370  -32.6270 C   0  0  0  0  0  0  0  0  0  0  0  0
   -5.8890   20.6070  -33.0890 C   0  0  0  0  0  0  0  0  0  0  0  0
   -5.3780   19.1640  -33.9600 S   0  0  0  0  0  0  0  0  0  0  0  0
   -3.8960   19.2490  -34.2010 O   0  0  0  0  0  0  0  0  0  0  0  0
   -6.0780   19.0860  -35.2900 O   0  0  0  0  0  0  0  0  0  0  0  0
   -5.7410   17.7420  -33.0070 N   0  0  0  0  0  0  0  0  0  0  0  0
   -5.5940   18.0220  -31.5680 C   0  0  0  0  0  0  0  0  0  0  0  0
   -6.9450   17.8170  -30.8950 C   0  0  0  0  0  0  0  0  0  0  0  0
   -7.9420   17.7820  -32.0280 C   0  0  0  0  0  0  0  0  0  0  0  0
   -7.1310   17.3190  -33.2200 C   0  0  0  0  0  0  0  0  0  0  0  0
   -4.9690   21.6370  -32.8540 C   0  0  0  0  0  0  0  0  0  0  0  0
   -5.3610   22.7890  -32.1630 C   0  0  0  0  0  0  0  0  0  0  0  0
   -4.9360   24.6350  -29.9160 C   0  0  0  0  0  0  0  0  0  0  0  0
   -4.4880   23.6090  -29.1100 C   0  0  0  0  0  0  0  0  0  0  0  0
   -3.1110   23.7200  -29.1640 C   0  0  0  0  0  0  0  0  0  0  0  0
   -2.1380   22.8140  -28.5140 C   0  0  0  0  0  0  0  0  0  0  0  0
   -2.6200   21.7270  -27.7600 C   0  0  0  0  0  0  0  0  0  0  0  0
   -1.7370   20.8110  -27.1860 C   0  0  0  0  0  0  0  0  0  0  0  0
   -0.3620   20.9630  -27.3590 C   0  0  0  0  0  0  0  0  0  0  0  0
    0.1340   22.0410  -28.0920 C   0  0  0  0  0  0  0  0  0  0  0  0
   -0.7370   22.9810  -28.6570 C   0  0  0  0  0  0  0  0  0  0  0  0
   -0.1750   24.0760  -29.3150 O   0  0  0  0  0  0  0  0  0  0  0  0
   -2.7750   24.7440  -29.9750 N   0  0  0  0  0  0  0  0  0  0  0  0
   -3.8850   25.3060  -30.4270 N   0  0  0  0  0  0  0  0  0  0  0  0
   -8.6355   21.9868  -31.5874 H   0  0  0  0  0  0  0  0  0  0  0  0
   -7.9320   19.9317  -32.8085 H   0  0  0  0  0  0  0  0  0  0  0  0
   -4.8536   17.3362  -31.1303 H   0  0  0  0  0  0  0  0  0  0  0  0
   -5.2517   19.0566  -31.4185 H   0  0  0  0  0  0  0  0  0  0  0  0
   -6.9596   16.8690  -30.3372 H   0  0  0  0  0  0  0  0  0  0  0  0
   -7.1709   18.6120  -30.1690 H   0  0  0  0  0  0  0  0  0  0  0  0
   -8.7554   17.0742  -31.8105 H   0  0  0  0  0  0  0  0  0  0  0  0
   -8.4226   18.7568  -32.1975 H   0  0  0  0  0  0  0  0  0  0  0  0
   -7.1803   16.2233  -33.3037 H   0  0  0  0  0  0  0  0  0  0  0  0
   -7.5280   17.7552  -34.1485 H   0  0  0  0  0  0  0  0  0  0  0  0
   -3.9342   21.5398  -33.2141 H   0  0  0  0  0  0  0  0  0  0  0  0
   -4.6373   23.6000  -31.9938 H   0  0  0  0  0  0  0  0  0  0  0  0
   -5.0873   22.8733  -28.5535 H   0  0  0  0  0  0  0  0  0  0  0  0
   -3.7037   21.5983  -27.6219 H   0  0  0  0  0  0  0  0  0  0  0  0
   -2.1265   19.9680  -26.5963 H   0  0  0  0  0  0  0  0  0  0  0  0
    0.3319   20.2326  -26.9173 H   0  0  0  0  0  0  0  0  0  0  0  0
    1.2197   22.1540  -28.2276 H   0  0  0  0  0  0  0  0  0  0  0  0
   -0.6460   24.5860  -30.0500 H   0  0  0  0  0  0  0  0  0  0  0  0
  1  2  2  0
  2  3  1  0
  3  4  1  0
  4  5  2  0
  5  6  1  0
  6  7  2  0
  7  8  1  0
  8  9  2  0
  8 10  2  0
  8 11  1  0
 11 12  1  0
 12 13  1  0
 13 14  1  0
 14 15  1  0
  7 16  1  0
 16 17  2  0
  2 18  1  0
 18 19  1  0
 19 20  2  0
 20 21  1  0
 21 22  2  0
 22 23  1  0
 23 24  2  0
 24 25  1  0
 25 26  2  0
 26 27  1  0
 20 28  1  0
 28 29  1  0
 17  4  1  0
 29 18  2  0
 15 11  1  0
 26 21  1  0
  5 30  1  0
  6 31  1  0
 12 32  1  0
 12 33  1  0
 13 34  1  0
 13 35  1  0
 14 36  1  0
 14 37  1  0
 15 38  1  0
 15 39  1  0
 16 40  1  0
 17 41  1  0
 19 42  1  0
 22 43  1  0
 23 44  1  0
 24 45  1  0
 25 46  1  0
 27 47  1  0
M  CHG  2   3  -1  28  -1
M  END
>  <UniqueID>  (31) 
31

>  <SMILES>  (31) 
O=C([N-]c1ccc(S(=O)(=O)N2CCCC2)cc1)c1cc(-c2ccccc2O)[n-]n1

>  <Energy>  (31) 
89.35764749864485

>  <Genealogy>  (31) 
O=C([N-]c1ccc(S(=O)(=O)N2CCCC2)cc1)c1cc(-c2ccccc2O)[n-]n1 (protonated)
O=C([N-]c1ccc(S(=O)(=O)N2CCCC2)cc1)c1cc(-c2ccccc2O)[n-]n1 (3D coordinates assigned)
O=C([N-]c1ccc(S(=O)(=O)N2CCCC2)cc1)c1cc(-c2ccccc2O)[n-]n1 (nonaromatic ring conformer: 89.35764749864485 kcal/mol)

>  <smiles>  (31) 
O=C(Nc1ccc(S(=O)(=O)N2CCCC2)cc1)c1cc(-c2ccccc2O)[nH]n1

>  <score_type>  (31) 
oracle

>  <origin>  (31) 
adgpu

>  <m_score__min__energy>  (31) 
-12.460000000000001

>  <m_primary>  (31) 
energy

$$$$
31:0
     RDKit          3D

 42 44  0  0  0  0  0  0  0  0999 V2000
   -6.6440   23.7540  -30.3960 C   0  0  0  0  0  0  0  0  0  0  0  0
   -5.5110   23.2450  -29.5140 C   0  0  0  0  0  0  0  0  0  0  0  0
   -3.9210   23.5520  -30.2680 S   0  0  0  0  0  0  0  0  0  0  0  0
   -3.8820   24.9440  -30.8330 O   0  0  0  0  0  0  0  0  0  0  0  0
   -2.8440   23.4230  -29.2280 O   0  0  0  0  0  0  0  0  0  0  0  0
   -3.6250   22.3930  -31.5480 C   0  0  0  0  0  0  0  0  0  0  0  0
   -4.6590   21.7020  -32.0920 N   0  0  0  0  0  0  0  0  0  0  0  0
   -4.4580   20.8080  -33.0950 C   0  0  0  0  0  0  0  0  0  0  0  0
   -5.5660   20.1360  -33.6310 O   0  0  0  0  0  0  0  0  0  0  0  0
   -6.7500   19.8390  -32.9400 C   0  0  0  0  0  0  0  0  0  0  0  0
   -7.1210   18.4990  -32.7850 C   0  0  0  0  0  0  0  0  0  0  0  0
   -8.2930   18.1630  -32.1030 C   0  0  0  0  0  0  0  0  0  0  0  0
   -9.1140   19.1680  -31.5840 C   0  0  0  0  0  0  0  0  0  0  0  0
   -8.7780   20.5180  -31.7650 C   0  0  0  0  0  0  0  0  0  0  0  0
   -9.6440   21.5970  -31.1860 C   0  0  0  0  0  0  0  0  0  0  0  0
   -7.5920   20.8500  -32.4370 C   0  0  0  0  0  0  0  0  0  0  0  0
   -3.1610   20.6180  -33.5970 C   0  0  0  0  0  0  0  0  0  0  0  0
   -2.0970   21.3280  -33.0180 C   0  0  0  0  0  0  0  0  0  0  0  0
   -0.7010   21.1690  -33.4950 C   0  0  0  0  0  0  0  0  0  0  0  0
    0.2040   20.3000  -32.8560 C   0  0  0  0  0  0  0  0  0  0  0  0
    1.5130   20.1810  -33.3240 C   0  0  0  0  0  0  0  0  0  0  0  0
    1.9170   20.9360  -34.4260 C   0  0  0  0  0  0  0  0  0  0  0  0
    1.0410   21.7790  -35.0300 N   0  0  0  0  0  0  0  0  0  0  0  0
   -0.2400   21.9150  -34.5940 C   0  0  0  0  0  0  0  0  0  0  0  0
   -2.3620   22.2030  -32.0100 N   0  0  0  0  0  0  0  0  0  0  0  0
   -7.4644   24.1226  -29.7627 H   0  0  0  0  0  0  0  0  0  0  0  0
   -6.2748   24.5727  -31.0311 H   0  0  0  0  0  0  0  0  0  0  0  0
   -7.0109   22.9342  -31.0311 H   0  0  0  0  0  0  0  0  0  0  0  0
   -5.5532   23.7593  -28.5426 H   0  0  0  0  0  0  0  0  0  0  0  0
   -5.6314   22.1596  -29.3825 H   0  0  0  0  0  0  0  0  0  0  0  0
   -6.4854   17.7044  -33.2030 H   0  0  0  0  0  0  0  0  0  0  0  0
   -8.5700   17.1063  -31.9743 H   0  0  0  0  0  0  0  0  0  0  0  0
  -10.0267   18.8996  -31.0318 H   0  0  0  0  0  0  0  0  0  0  0  0
   -9.6051   21.5485  -30.0878 H   0  0  0  0  0  0  0  0  0  0  0  0
   -9.2806   22.5791  -31.5228 H   0  0  0  0  0  0  0  0  0  0  0  0
  -10.6815   21.4547  -31.5228 H   0  0  0  0  0  0  0  0  0  0  0  0
   -7.3179   21.9067  -32.5719 H   0  0  0  0  0  0  0  0  0  0  0  0
   -2.9810   19.9237  -34.4310 H   0  0  0  0  0  0  0  0  0  0  0  0
   -0.1221   19.7129  -31.9848 H   0  0  0  0  0  0  0  0  0  0  0  0
    2.2198   19.4987  -32.8291 H   0  0  0  0  0  0  0  0  0  0  0  0
    2.9458   20.8480  -34.8054 H   0  0  0  0  0  0  0  0  0  0  0  0
   -0.9198   22.6131  -35.1044 H   0  0  0  0  0  0  0  0  0  0  0  0
  1  2  1  0
  2  3  1  0
  3  4  2  0
  3  5  2  0
  3  6  1  0
  6  7  2  0
  7  8  1  0
  8  9  1  0
  9 10  1  0
 10 11  2  0
 11 12  1  0
 12 13  2  0
 13 14  1  0
 14 15  1  0
 14 16  2  0
  8 17  2  0
 17 18  1  0
 18 19  1  0
 19 20  2  0
 20 21  1  0
 21 22  2  0
 22 23  1  0
 23 24  2  0
 18 25  2  0
 25  6  1  0
 16 10  1  0
 24 19  1  0
  1 26  1  0
  1 27  1  0
  1 28  1  0
  2 29  1  0
  2 30  1  0
 11 31  1  0
 12 32  1  0
 13 33  1  0
 15 34  1  0
 15 35  1  0
 15 36  1  0
 16 37  1  0
 17 38  1  0
 20 39  1  0
 21 40  1  0
 22 41  1  0
 24 42  1  0
M  END
>  <UniqueID>  (32) 
32

>  <SMILES>  (32) 
CCS(=O)(=O)c1nc(Oc2cccc(C)c2)cc(-c2cccnc2)n1

>  <Energy>  (32) 
49.18032077036928

>  <Genealogy>  (32) 
CCS(=O)(=O)c1nc(Oc2cccc(C)c2)cc(-c2cccnc2)n1 (3D coordinates assigned)
CCS(=O)(=O)c1nc(Oc2cccc(C)c2)cc(-c2cccnc2)n1 (optimized conformer: 49.18032077036928 kcal/mol)

>  <smiles>  (32) 
CCS(=O)(=O)c1nc(Oc2cccc(C)c2)cc(-c2cccnc2)n1

>  <score_type>  (32) 
oracle

>  <origin>  (32) 
adgpu

>  <m_score__min__energy>  (32) 
-8.8200000000000003

>  <m_primary>  (32) 
energy

$$$$
32:0
     RDKit          3D

 39 41  0  0  0  0  0  0  0  0999 V2000
    1.2090   24.6520  -28.1940 O   0  0  0  0  0  0  0  0  0  0  0  0
    0.2840   24.5460  -27.3440 C   0  0  0  0  0  0  0  0  0  0  0  0
    0.5750   24.7950  -26.0050 O   0  0  0  0  0  0  0  0  0  0  0  0
   -1.0960   24.1780  -27.7540 C   0  0  0  0  0  0  0  0  0  0  0  0
   -1.6920   23.0370  -27.1910 C   0  0  0  0  0  0  0  0  0  0  0  0
   -2.9820   22.6530  -27.5580 C   0  0  0  0  0  0  0  0  0  0  0  0
   -3.7070   23.4080  -28.4870 C   0  0  0  0  0  0  0  0  0  0  0  0
   -5.0000   23.0210  -28.8460 O   0  0  0  0  0  0  0  0  0  0  0  0
   -3.1430   24.5620  -29.0530 C   0  0  0  0  0  0  0  0  0  0  0  0
   -3.9250   25.2980  -30.0070 N   0  0  0  0  0  0  0  0  0  0  0  0
   -5.5060   24.8540  -30.5670 S   0  0  0  0  0  0  0  0  0  0  0  0
   -6.4620   24.8050  -29.4060 O   0  0  0  0  0  0  0  0  0  0  0  0
   -5.9870   25.8890  -31.5430 O   0  0  0  0  0  0  0  0  0  0  0  0
   -5.4330   23.2980  -31.3950 C   0  0  0  0  0  0  0  0  0  0  0  0
   -6.6060   22.6010  -31.7230 C   0  0  0  0  0  0  0  0  0  0  0  0
   -6.5290   21.3590  -32.3590 C   0  0  0  0  0  0  0  0  0  0  0  0
   -5.2800   20.7980  -32.6830 C   0  0  0  0  0  0  0  0  0  0  0  0
   -5.2010   19.4680  -33.3450 C   0  0  0  0  0  0  0  0  0  0  0  0
   -3.9760   18.9860  -33.8470 C   0  0  0  0  0  0  0  0  0  0  0  0
   -3.9110   17.7410  -34.4830 C   0  0  0  0  0  0  0  0  0  0  0  0
   -5.0630   16.9670  -34.6290 C   0  0  0  0  0  0  0  0  0  0  0  0
   -6.2830   17.4320  -34.1340 C   0  0  0  0  0  0  0  0  0  0  0  0
   -6.3560   18.6750  -33.4950 C   0  0  0  0  0  0  0  0  0  0  0  0
   -4.1080   21.5060  -32.3530 C   0  0  0  0  0  0  0  0  0  0  0  0
   -4.1860   22.7450  -31.7120 C   0  0  0  0  0  0  0  0  0  0  0  0
   -1.8240   24.9330  -28.7060 C   0  0  0  0  0  0  0  0  0  0  0  0
   -1.2270   26.0230  -29.3280 O   0  0  0  0  0  0  0  0  0  0  0  0
   -1.1357   22.4403  -26.4532 H   0  0  0  0  0  0  0  0  0  0  0  0
   -3.4316   21.7522  -27.1149 H   0  0  0  0  0  0  0  0  0  0  0  0
   -5.8140   23.5670  -28.5700 H   0  0  0  0  0  0  0  0  0  0  0  0
   -7.5878   23.0330  -31.4791 H   0  0  0  0  0  0  0  0  0  0  0  0
   -7.4523   20.8156  -32.6083 H   0  0  0  0  0  0  0  0  0  0  0  0
   -3.0646   19.5922  -33.7383 H   0  0  0  0  0  0  0  0  0  0  0  0
   -2.9494   17.3716  -34.8688 H   0  0  0  0  0  0  0  0  0  0  0  0
   -5.0100   15.9911  -35.1338 H   0  0  0  0  0  0  0  0  0  0  0  0
   -7.1897   16.8194  -34.2466 H   0  0  0  0  0  0  0  0  0  0  0  0
   -7.3206   19.0349  -33.1076 H   0  0  0  0  0  0  0  0  0  0  0  0
   -3.1245   21.0806  -32.6016 H   0  0  0  0  0  0  0  0  0  0  0  0
   -3.2645   23.2881  -31.4554 H   0  0  0  0  0  0  0  0  0  0  0  0
  1  2  2  0
  2  3  1  0
  2  4  1  0
  4  5  2  0
  5  6  1  0
  6  7  2  0
  7  8  1  0
  7  9  1  0
  9 10  1  0
 10 11  1  0
 11 12  2  0
 11 13  2  0
 11 14  1  0
 14 15  2  0
 15 16  1  0
 16 17  2  0
 17 18  1  0
 18 19  2  0
 19 20  1  0
 20 21  2  0
 21 22  1  0
 22 23  2  0
 17 24  1  0
 24 25  2  0
  9 26  2  0
 26 27  1  0
 26  4  1  0
 25 14  1  0
 23 18  1  0
  5 28  1  0
  6 29  1  0
  8 30  1  0
 15 31  1  0
 16 32  1  0
 19 33  1  0
 20 34  1  0
 21 35  1  0
 22 36  1  0
 23 37  1  0
 24 38  1  0
 25 39  1  0
M  CHG  3   3  -1  10  -1  27  -1
M  END
>  <UniqueID>  (33) 
33

>  <SMILES>  (33) 
O=C([O-])c1ccc(O)c([N-]S(=O)(=O)c2ccc(-c3ccccc3)cc2)c1[O-]

>  <Energy>  (33) 
56.77877467803635

>  <Genealogy>  (33) 
O=C([O-])c1ccc(O)c([N-]S(=O)(=O)c2ccc(-c3ccccc3)cc2)c1[O-] (protonated)
O=C([O-])c1ccc(O)c([N-]S(=O)(=O)c2ccc(-c3ccccc3)cc2)c1[O-] (3D coordinates assigned)
O=C([O-])c1ccc(O)c([N-]S(=O)(=O)c2ccc(-c3ccccc3)cc2)c1[O-] (optimized conformer: 56.77877467803635 kcal/mol)

>  <smiles>  (33) 
O=C(O)c1ccc(O)c(NS(=O)(=O)c2ccc(-c3ccccc3)cc2)c1O

>  <score_type>  (33) 
oracle

>  <origin>  (33) 
adgpu

>  <m_score__min__energy>  (33) 
-13.789999999999999

>  <m_primary>  (33) 
energy

$$$$
33:0
     RDKit          3D

 47 50  0  0  0  0  0  0  0  0999 V2000
   -5.7350   26.0720  -30.9960 O   0  0  0  0  0  0  0  0  0  0  0  0
   -5.0390   25.1850  -30.4310 C   0  0  0  0  0  0  0  0  0  0  0  0
   -5.7120   24.0470  -29.7320 C   0  0  0  0  0  0  0  0  0  0  0  0
   -6.2060   23.0820  -30.7110 N   0  0  0  0  0  0  0  0  0  0  0  0
   -7.3120   22.1920  -30.5330 C   0  0  0  0  0  0  0  0  0  0  0  0
   -8.1940   22.3270  -29.6430 O   0  0  0  0  0  0  0  0  0  0  0  0
   -7.2420   21.1020  -31.4980 C   0  0  0  0  0  0  0  0  0  0  0  0
   -8.0840   20.0120  -31.7030 C   0  0  0  0  0  0  0  0  0  0  0  0
   -7.7400   19.0930  -32.7120 C   0  0  0  0  0  0  0  0  0  0  0  0
   -6.5710   19.2790  -33.4810 C   0  0  0  0  0  0  0  0  0  0  0  0
   -5.7330   20.3850  -33.2500 C   0  0  0  0  0  0  0  0  0  0  0  0
   -6.0990   21.2840  -32.2500 C   0  0  0  0  0  0  0  0  0  0  0  0
   -5.4400   22.4910  -31.7650 C   0  0  0  0  0  0  0  0  0  0  0  0
   -4.3390   22.9430  -32.1800 O   0  0  0  0  0  0  0  0  0  0  0  0
   -3.6090   25.2710  -30.4200 N   0  0  0  0  0  0  0  0  0  0  0  0
   -2.7190   24.5640  -29.5440 C   0  0  0  0  0  0  0  0  0  0  0  0
   -1.9580   25.2260  -28.5640 C   0  0  0  0  0  0  0  0  0  0  0  0
   -1.0820   24.5030  -27.7500 C   0  0  0  0  0  0  0  0  0  0  0  0
   -0.9490   23.1220  -27.9130 C   0  0  0  0  0  0  0  0  0  0  0  0
   -1.6900   22.4540  -28.8970 C   0  0  0  0  0  0  0  0  0  0  0  0
   -1.5030   20.7100  -29.1230 S   0  0  0  0  0  0  0  0  0  0  0  0
   -0.2450   20.2600  -28.4350 O   0  0  0  0  0  0  0  0  0  0  0  0
   -2.6630   20.0070  -28.4750 O   0  0  0  0  0  0  0  0  0  0  0  0
   -1.4270   20.2480  -30.8070 N   0  0  0  0  0  0  0  0  0  0  0  0
   -2.7320   20.3350  -31.4600 C   0  0  0  0  0  0  0  0  0  0  0  0
   -2.4550   20.5350  -32.9420 C   0  0  0  0  0  0  0  0  0  0  0  0
   -1.0260   21.0520  -33.0180 C   0  0  0  0  0  0  0  0  0  0  0  0
   -0.5460   21.1210  -31.5770 C   0  0  0  0  0  0  0  0  0  0  0  0
   -2.5610   23.1840  -29.7200 C   0  0  0  0  0  0  0  0  0  0  0  0
   -4.9914   23.5522  -29.0642 H   0  0  0  0  0  0  0  0  0  0  0  0
   -6.5591   24.4331  -29.1460 H   0  0  0  0  0  0  0  0  0  0  0  0
   -8.9902   19.8735  -31.0950 H   0  0  0  0  0  0  0  0  0  0  0  0
   -8.3866   18.2238  -32.9026 H   0  0  0  0  0  0  0  0  0  0  0  0
   -6.3134   18.5536  -34.2668 H   0  0  0  0  0  0  0  0  0  0  0  0
   -4.8172   20.5356  -33.8404 H   0  0  0  0  0  0  0  0  0  0  0  0
   -2.0525   26.3147  -28.4380 H   0  0  0  0  0  0  0  0  0  0  0  0
   -0.4953   25.0230  -26.9784 H   0  0  0  0  0  0  0  0  0  0  0  0
   -0.2606   22.5573  -27.2671 H   0  0  0  0  0  0  0  0  0  0  0  0
   -3.3003   19.4068  -31.3006 H   0  0  0  0  0  0  0  0  0  0  0  0
   -3.3301   21.1621  -31.0498 H   0  0  0  0  0  0  0  0  0  0  0  0
   -2.5492   19.5821  -33.4835 H   0  0  0  0  0  0  0  0  0  0  0  0
   -3.1688   21.2345  -33.4015 H   0  0  0  0  0  0  0  0  0  0  0  0
   -0.3975   20.3625  -33.6007 H   0  0  0  0  0  0  0  0  0  0  0  0
   -0.9706   22.0315  -33.5156 H   0  0  0  0  0  0  0  0  0  0  0  0
    0.4943   20.7707  -31.5053 H   0  0  0  0  0  0  0  0  0  0  0  0
   -0.5744   22.1526  -31.1961 H   0  0  0  0  0  0  0  0  0  0  0  0
   -3.1248   22.6674  -30.5107 H   0  0  0  0  0  0  0  0  0  0  0  0
  1  2  2  0
  2  3  1  0
  3  4  1  0
  4  5  1  0
  5  6  2  0
  5  7  1  0
  7  8  2  0
  8  9  1  0
  9 10  2  0
 10 11  1  0
 11 12  2  0
 12 13  1  0
 13 14  2  0
  2 15  1  0
 15 16  1  0
 16 17  2  0
 17 18  1  0
 18 19  2  0
 19 20  1  0
 20 21  1  0
 21 22  2  0
 21 23  2  0
 21 24  1  0
 24 25  1  0
 25 26  1  0
 26 27  1  0
 27 28  1  0
 20 29  2  0
 13  4  1  0
 29 16  1  0
 12  7  1  0
 28 24  1  0
  3 30  1  0
  3 31  1  0
  8 32  1  0
  9 33  1  0
 10 34  1  0
 11 35  1  0
 17 36  1  0
 18 37  1  0
 19 38  1  0
 25 39  1  0
 25 40  1  0
 26 41  1  0
 26 42  1  0
 27 43  1  0
 27 44  1  0
 28 45  1  0
 28 46  1  0
 29 47  1  0
M  CHG  1  15  -1
M  END
>  <UniqueID>  (34) 
34

>  <SMILES>  (34) 
O=C(CN1C(=O)c2ccccc2C1=O)[N-]c1cccc(S(=O)(=O)N2CCCC2)c1

>  <Energy>  (34) 
84.24147856307827

>  <Genealogy>  (34) 
O=C(CN1C(=O)c2ccccc2C1=O)[N-]c1cccc(S(=O)(=O)N2CCCC2)c1 (protonated)
O=C(CN1C(=O)c2ccccc2C1=O)[N-]c1cccc(S(=O)(=O)N2CCCC2)c1 (3D coordinates assigned)
O=C(CN1C(=O)c2ccccc2C1=O)[N-]c1cccc(S(=O)(=O)N2CCCC2)c1 (nonaromatic ring conformer: 84.24147856307827 kcal/mol)

>  <smiles>  (34) 
O=C(CN1C(=O)c2ccccc2C1=O)Nc1cccc(S(=O)(=O)N2CCCC2)c1

>  <score_type>  (34) 
oracle

>  <origin>  (34) 
adgpu

>  <m_score__min__energy>  (34) 
-11.460000000000001

>  <m_primary>  (34) 
energy

$$$$
34:0
     RDKit          3D

 41 43  0  0  0  0  0  0  0  0999 V2000
   -5.8240   17.9420  -34.4930 C   0  0  0  0  0  0  0  0  0  0  0  0
   -5.8420   18.1110  -33.0340 N   0  0  0  0  0  0  0  0  0  0  0  0
   -7.0110   17.4310  -32.4640 C   0  0  0  0  0  0  0  0  0  0  0  0
   -5.9140   19.8100  -32.6450 S   0  0  0  0  0  0  0  0  0  0  0  0
   -6.5170   19.9950  -31.2800 O   0  0  0  0  0  0  0  0  0  0  0  0
   -6.7660   20.5390  -33.6480 O   0  0  0  0  0  0  0  0  0  0  0  0
   -4.2860   20.4850  -32.6380 C   0  0  0  0  0  0  0  0  0  0  0  0
   -3.3470   20.1010  -33.6040 C   0  0  0  0  0  0  0  0  0  0  0  0
   -2.0520   20.6240  -33.5680 C   0  0  0  0  0  0  0  0  0  0  0  0
   -1.6820   21.5160  -32.5570 C   0  0  0  0  0  0  0  0  0  0  0  0
   -2.6040   21.8850  -31.5670 C   0  0  0  0  0  0  0  0  0  0  0  0
   -2.2010   22.8160  -30.4920 C   0  0  0  0  0  0  0  0  0  0  0  0
   -1.1560   22.5840  -29.6650 N   0  0  0  0  0  0  0  0  0  0  0  0
   -1.0080   23.6600  -28.9000 N   0  0  0  0  0  0  0  0  0  0  0  0
   -1.9640   24.5280  -29.2740 C   0  0  0  0  0  0  0  0  0  0  0  0
   -2.1270   25.6610  -28.7490 O   0  0  0  0  0  0  0  0  0  0  0  0
   -2.7320   24.0340  -30.2530 N   0  0  0  0  0  0  0  0  0  0  0  0
   -3.8590   24.6490  -30.8260 N   0  0  0  0  0  0  0  0  0  0  0  0
   -5.1530   24.6250  -30.2110 C   0  0  0  0  0  0  0  0  0  0  0  0
   -5.3600   25.2990  -29.1660 O   0  0  0  0  0  0  0  0  0  0  0  0
   -6.2450   23.8220  -30.8040 C   0  0  0  0  0  0  0  0  0  0  0  0
   -7.0870   23.0420  -29.9940 C   0  0  0  0  0  0  0  0  0  0  0  0
   -8.1280   22.3090  -30.5650 C   0  0  0  0  0  0  0  0  0  0  0  0
   -8.3210   22.3560  -31.9450 C   0  0  0  0  0  0  0  0  0  0  0  0
   -7.5020   23.1150  -32.7210 N   0  0  0  0  0  0  0  0  0  0  0  0
   -6.4840   23.8420  -32.1890 C   0  0  0  0  0  0  0  0  0  0  0  0
   -3.9160   21.3840  -31.6300 C   0  0  0  0  0  0  0  0  0  0  0  0
   -5.7104   16.8755  -34.7372 H   0  0  0  0  0  0  0  0  0  0  0  0
   -6.7672   18.3169  -34.9172 H   0  0  0  0  0  0  0  0  0  0  0  0
   -4.9810   18.5071  -34.9172 H   0  0  0  0  0  0  0  0  0  0  0  0
   -6.9549   17.4636  -31.3659 H   0  0  0  0  0  0  0  0  0  0  0  0
   -7.9288   17.9362  -32.7994 H   0  0  0  0  0  0  0  0  0  0  0  0
   -7.0256   16.3835  -32.7994 H   0  0  0  0  0  0  0  0  0  0  0  0
   -3.6295   19.3870  -34.3916 H   0  0  0  0  0  0  0  0  0  0  0  0
   -1.3215   20.3332  -34.3372 H   0  0  0  0  0  0  0  0  0  0  0  0
   -0.6631   21.9302  -32.5381 H   0  0  0  0  0  0  0  0  0  0  0  0
   -6.9252   23.0090  -28.9065 H   0  0  0  0  0  0  0  0  0  0  0  0
   -8.7902   21.6998  -29.9323 H   0  0  0  0  0  0  0  0  0  0  0  0
   -9.1360   21.7789  -32.4062 H   0  0  0  0  0  0  0  0  0  0  0  0
   -5.8438   24.4492  -32.8459 H   0  0  0  0  0  0  0  0  0  0  0  0
   -4.6576   21.7006  -30.8818 H   0  0  0  0  0  0  0  0  0  0  0  0
  1  2  1  0
  2  3  1  0
  2  4  1  0
  4  5  2  0
  4  6  2  0
  4  7  1  0
  7  8  2  0
  8  9  1  0
  9 10  2  0
 10 11  1  0
 11 12  1  0
 12 13  2  0
 13 14  1  0
 14 15  1  0
 15 16  2  0
 15 17  1  0
 17 18  1  0
 18 19  1  0
 19 20  2  0
 19 21  1  0
 21 22  2  0
 22 23  1  0
 23 24  2  0
 24 25  1  0
 25 26  2  0
 11 27  2  0
 27  7  1  0
 17 12  1  0
 26 21  1  0
  1 28  1  0
  1 29  1  0
  1 30  1  0
  3 31  1  0
  3 32  1  0
  3 33  1  0
  8 34  1  0
  9 35  1  0
 10 36  1  0
 22 37  1  0
 23 38  1  0
 24 39  1  0
 26 40  1  0
 27 41  1  0
M  CHG  2  14  -1  18  -1
M  END
>  <UniqueID>  (35) 
35

>  <SMILES>  (35) 
CN(C)S(=O)(=O)c1cccc(-c2n[n-]c(=O)n2[N-]C(=O)c2cccnc2)c1

>  <Energy>  (35) 
84.90922167173207

>  <Genealogy>  (35) 
CN(C)S(=O)(=O)c1cccc(-c2n[n-]c(=O)n2[N-]C(=O)c2cccnc2)c1 (protonated)
CN(C)S(=O)(=O)c1cccc(-c2n[n-]c(=O)n2[N-]C(=O)c2cccnc2)c1 (3D coordinates assigned)
CN(C)S(=O)(=O)c1cccc(-c2n[n-]c(=O)n2[N-]C(=O)c2cccnc2)c1 (optimized conformer: 84.90922167173207 kcal/mol)

>  <smiles>  (35) 
CN(C)S(=O)(=O)c1cccc(-c2n[nH]c(=O)n2NC(=O)c2cccnc2)c1

>  <score_type>  (35) 
oracle

>  <origin>  (35) 
adgpu

>  <m_score__min__energy>  (35) 
-10.470000000000001

>  <m_primary>  (35) 
energy

$$$$
35:0
     RDKit          3D

 76 80  0  0  0  0  0  0  0  0999 V2000
    0.1550   18.4780  -28.9110 C   0  0  0  0  0  0  0  0  0  0  0  0
   -0.5390   19.4210  -28.1190 O   0  0  0  0  0  0  0  0  0  0  0  0
   -1.1660   20.5270  -28.6810 C   0  0  0  0  0  0  0  0  0  0  0  0
   -0.4900   21.2420  -29.6180 C   0  0  0  0  0  0  0  0  0  0  0  0
   -1.0980   22.3610  -30.1990 C   0  0  0  0  0  0  0  0  0  0  0  0
   -2.3500   22.7760  -29.8680 C   0  0  0  0  0  0  0  0  0  0  0  0
   -3.1080   23.8960  -30.4300 C   0  0  0  0  0  0  0  0  0  0  0  0
   -4.5320   23.6420  -30.7260 C   0  0  0  0  0  0  0  0  0  0  0  0
   -4.8900   23.0500  -31.9340 C   0  0  0  0  0  0  0  0  0  0  0  0
   -3.9360   22.5980  -32.8830 N   0  0  0  0  0  0  0  0  0  0  0  0
   -6.1810   22.8540  -32.2180 N   0  0  0  0  0  0  0  0  0  0  0  0
   -7.1970   23.1880  -31.4130 C   0  0  0  0  0  0  0  0  0  0  0  0
   -8.8500   22.8840  -31.9720 S   0  0  0  0  0  0  0  0  0  0  0  0
   -9.4990   21.3840  -31.2490 C   0  0  0  0  0  0  0  0  0  0  0  0
   -8.7660   20.2160  -31.7800 C   0  0  0  0  0  0  0  0  0  0  0  0
   -9.2120   18.9220  -31.4940 C   0  0  0  0  0  0  0  0  0  0  0  0
   -8.5530   17.8050  -31.9540 C   0  0  0  0  0  0  0  0  0  0  0  0
   -7.4560   17.9280  -32.6940 N   0  0  0  0  0  0  0  0  0  0  0  0
   -6.9720   19.1700  -33.0060 C   0  0  0  0  0  0  0  0  0  0  0  0
   -5.7490   19.1860  -33.7800 C   0  0  0  0  0  0  0  0  0  0  0  0
   -5.9080   19.1170  -35.0460 O   0  0  0  0  0  0  0  0  0  0  0  0
   -4.4390   19.2650  -33.3070 N   0  0  0  0  0  0  0  0  0  0  0  0
   -4.0530   19.3570  -31.9070 C   0  0  0  0  0  0  0  0  0  0  0  0
   -2.8600   20.2630  -31.6700 C   0  0  0  0  0  0  0  0  0  0  0  0
   -1.9150   20.3190  -32.6920 N   0  0  0  0  0  0  0  0  0  0  0  0
   -0.7260   19.5660  -32.5360 C   0  0  0  0  0  0  0  0  0  0  0  0
    0.2390   19.8430  -33.6130 C   0  0  0  0  0  0  0  0  0  0  0  0
    0.6470   21.1550  -33.7760 C   0  0  0  0  0  0  0  0  0  0  0  0
    1.5240   21.5750  -34.7460 C   0  0  0  0  0  0  0  0  0  0  0  0
    2.0300   20.6290  -35.6150 C   0  0  0  0  0  0  0  0  0  0  0  0
    1.6240   19.3220  -35.4530 C   0  0  0  0  0  0  0  0  0  0  0  0
    0.7480   18.9140  -34.4790 C   0  0  0  0  0  0  0  0  0  0  0  0
   -2.4030   20.3730  -34.0150 C   0  0  0  0  0  0  0  0  0  0  0  0
   -3.3400   19.2400  -34.2630 C   0  0  0  0  0  0  0  0  0  0  0  0
   -7.6260   20.3030  -32.5500 C   0  0  0  0  0  0  0  0  0  0  0  0
   -6.8830   23.7610  -30.2360 N   0  0  0  0  0  0  0  0  0  0  0  0
   -5.5750   23.9870  -29.8920 C   0  0  0  0  0  0  0  0  0  0  0  0
   -5.3050   24.5300  -28.7750 N   0  0  0  0  0  0  0  0  0  0  0  0
   -3.0140   22.0070  -28.8930 C   0  0  0  0  0  0  0  0  0  0  0  0
   -2.4240   20.9050  -28.3180 C   0  0  0  0  0  0  0  0  0  0  0  0
   -3.1200   20.0660  -27.2860 C   0  0  0  0  0  0  0  0  0  0  0  0
    0.6794   17.7654  -28.2574 H   0  0  0  0  0  0  0  0  0  0  0  0
   -0.5606   17.9350  -29.5459 H   0  0  0  0  0  0  0  0  0  0  0  0
    0.8862   18.9997  -29.5459 H   0  0  0  0  0  0  0  0  0  0  0  0
    0.5258   20.9442  -29.9173 H   0  0  0  0  0  0  0  0  0  0  0  0
   -0.5386   22.9296  -30.9565 H   0  0  0  0  0  0  0  0  0  0  0  0
   -3.0586   24.7275  -29.7116 H   0  0  0  0  0  0  0  0  0  0  0  0
   -2.6402   24.1064  -31.4031 H   0  0  0  0  0  0  0  0  0  0  0  0
   -2.9870   22.2410  -32.6440 H   0  0  0  0  0  0  0  0  0  0  0  0
   -4.2050   22.6220  -33.9140 H   0  0  0  0  0  0  0  0  0  0  0  0
   -6.4200   22.4070  -33.1400 H   0  0  0  0  0  0  0  0  0  0  0  0
   -9.3802   21.4240  -30.1562 H   0  0  0  0  0  0  0  0  0  0  0  0
  -10.5653   21.2900  -31.5021 H   0  0  0  0  0  0  0  0  0  0  0  0
  -10.1173   18.7930  -30.8826 H   0  0  0  0  0  0  0  0  0  0  0  0
   -8.9366   16.8039  -31.7076 H   0  0  0  0  0  0  0  0  0  0  0  0
   -4.9071   19.7481  -31.3347 H   0  0  0  0  0  0  0  0  0  0  0  0
   -3.7633   18.3466  -31.5827 H   0  0  0  0  0  0  0  0  0  0  0  0
   -3.2402   21.2825  -31.5088 H   0  0  0  0  0  0  0  0  0  0  0  0
   -2.3323   19.8332  -30.8058 H   0  0  0  0  0  0  0  0  0  0  0  0
   -0.2658   19.8223  -31.5703 H   0  0  0  0  0  0  0  0  0  0  0  0
   -0.9882   18.4985  -32.5766 H   0  0  0  0  0  0  0  0  0  0  0  0
    0.2434   21.9096  -33.0849 H   0  0  0  0  0  0  0  0  0  0  0  0
    1.8144   22.6328  -34.8280 H   0  0  0  0  0  0  0  0  0  0  0  0
    2.7349   20.9096  -36.4115 H   0  0  0  0  0  0  0  0  0  0  0  0
    2.0243   18.5642  -36.1425 H   0  0  0  0  0  0  0  0  0  0  0  0
    0.4592   17.8559  -34.3956 H   0  0  0  0  0  0  0  0  0  0  0  0
   -2.9338   21.3242  -34.1683 H   0  0  0  0  0  0  0  0  0  0  0  0
   -1.5567   20.2994  -34.7138 H   0  0  0  0  0  0  0  0  0  0  0  0
   -3.7455   19.3226  -35.2822 H   0  0  0  0  0  0  0  0  0  0  0  0
   -2.7909   18.2939  -34.1475 H   0  0  0  0  0  0  0  0  0  0  0  0
   -7.2264   21.2948  -32.8083 H   0  0  0  0  0  0  0  0  0  0  0  0
   -6.0540   24.8000  -28.1280 H   0  0  0  0  0  0  0  0  0  0  0  0
   -4.0296   22.2944  -28.5834 H   0  0  0  0  0  0  0  0  0  0  0  0
   -2.8348   20.4098  -26.2808 H   0  0  0  0  0  0  0  0  0  0  0  0
   -4.2089   20.1601  -27.4105 H   0  0  0  0  0  0  0  0  0  0  0  0
   -2.8264   19.0133  -27.4105 H   0  0  0  0  0  0  0  0  0  0  0  0
  1  2  1  0
  2  3  1  0
  3  4  2  0
  4  5  1  0
  5  6  2  0
  6  7  1  0
  7  8  1  0
  8  9  2  0
  9 10  1  0
  9 11  1  0
 11 12  1  0
 12 13  1  0
 13 14  1  0
 14 15  1  0
 15 16  2  0
 16 17  1  0
 17 18  2  0
 18 19  1  0
 19 20  1  0
 20 21  2  0
 20 22  1  0
 22 23  1  0
 23 24  1  0
 24 25  1  0
 25 26  1  0
 26 27  1  0
 27 28  2  0
 28 29  1  0
 29 30  2  0
 30 31  1  0
 31 32  2  0
 25 33  1  0
 33 34  1  0
 19 35  2  0
 12 36  2  0
 36 37  1  0
 37 38  2  3
  6 39  1  0
 39 40  2  0
 40 41  1  0
 40  3  1  0
 37  8  1  0
 35 15  1  0
 34 22  1  0
 32 27  1  0
  1 42  1  0
  1 43  1  0
  1 44  1  0
  4 45  1  0
  5 46  1  0
  7 47  1  0
  7 48  1  0
 10 49  1  0
 10 50  1  0
 11 51  1  0
 14 52  1  0
 14 53  1  0
 16 54  1  0
 17 55  1  0
 23 56  1  0
 23 57  1  0
 24 58  1  0
 24 59  1  0
 26 60  1  0
 26 61  1  0
 28 62  1  0
 29 63  1  0
 30 64  1  0
 31 65  1  0
 32 66  1  0
 33 67  1  0
 33 68  1  0
 34 69  1  0
 34 70  1  0
 35 71  1  0
 38 72  1  0
 39 73  1  0
 41 74  1  0
 41 75  1  0
 41 76  1  0
M  END
>  <smiles>  (36) 
COc1ccc(Cc2c(N)[nH]c(SCc3ccnc(C(=O)N4CCN(Cc5ccccc5)CC4)c3)nc2=N)cc1C

>  <score_type>  (36) 
oracle

>  <origin>  (36) 
adgpu

>  <m_score__min__energy>  (36) 
-10.9

>  <m_primary>  (36) 
energy

$$$$
36:0
     RDKit          3D

 46 48  0  0  0  0  0  0  0  0999 V2000
   -2.0100   25.5920  -28.8270 O   0  0  0  0  0  0  0  0  0  0  0  0
   -2.7740   24.8120  -29.4560 C   0  0  0  0  0  0  0  0  0  0  0  0
   -3.5600   25.3000  -30.5490 N   0  0  0  0  0  0  0  0  0  0  0  0
   -4.9750   25.6340  -30.4430 C   0  0  0  0  0  0  0  0  0  0  0  0
   -5.8220   24.4310  -30.7560 C   0  0  0  0  0  0  0  0  0  0  0  0
   -6.3610   23.6610  -29.7150 C   0  0  0  0  0  0  0  0  0  0  0  0
   -7.1620   22.5570  -30.0190 C   0  0  0  0  0  0  0  0  0  0  0  0
   -7.4180   22.2370  -31.3150 N   0  0  0  0  0  0  0  0  0  0  0  0
   -6.9130   22.9690  -32.3430 C   0  0  0  0  0  0  0  0  0  0  0  0
   -6.1080   24.0810  -32.0830 C   0  0  0  0  0  0  0  0  0  0  0  0
   -2.8830   23.4510  -29.0260 N   0  0  0  0  0  0  0  0  0  0  0  0
   -2.5420   22.2890  -29.7960 C   0  0  0  0  0  0  0  0  0  0  0  0
   -1.4440   21.4750  -29.4660 C   0  0  0  0  0  0  0  0  0  0  0  0
   -1.1590   20.3380  -30.2260 C   0  0  0  0  0  0  0  0  0  0  0  0
   -1.9720   19.9960  -31.3090 C   0  0  0  0  0  0  0  0  0  0  0  0
   -3.0850   20.7840  -31.6310 C   0  0  0  0  0  0  0  0  0  0  0  0
   -4.1280   20.3330  -32.9820 S   0  0  0  0  0  0  0  0  0  0  0  0
   -3.4260   19.3060  -33.8250 O   0  0  0  0  0  0  0  0  0  0  0  0
   -4.3820   21.5420  -33.8400 O   0  0  0  0  0  0  0  0  0  0  0  0
   -5.6520   19.6830  -32.4280 N   0  0  0  0  0  0  0  0  0  0  0  0
   -5.5230   18.2350  -32.1640 C   0  0  0  0  0  0  0  0  0  0  0  0
   -6.8920   17.5470  -31.9610 C   0  0  0  0  0  0  0  0  0  0  0  0
   -8.0030   18.5660  -31.6920 C   0  0  0  0  0  0  0  0  0  0  0  0
   -8.0910   19.6030  -32.8250 C   0  0  0  0  0  0  0  0  0  0  0  0
   -6.7110   19.9460  -33.4160 C   0  0  0  0  0  0  0  0  0  0  0  0
   -3.3680   21.9250  -30.8670 C   0  0  0  0  0  0  0  0  0  0  0  0
   -5.1917   25.9736  -29.4194 H   0  0  0  0  0  0  0  0  0  0  0  0
   -5.2084   26.4321  -31.1631 H   0  0  0  0  0  0  0  0  0  0  0  0
   -6.1548   23.9242  -28.6670 H   0  0  0  0  0  0  0  0  0  0  0  0
   -7.5859   21.9461  -29.2084 H   0  0  0  0  0  0  0  0  0  0  0  0
   -7.1385   22.6854  -33.3816 H   0  0  0  0  0  0  0  0  0  0  0  0
   -5.7017   24.6773  -32.9133 H   0  0  0  0  0  0  0  0  0  0  0  0
   -0.8077   21.7342  -28.6070 H   0  0  0  0  0  0  0  0  0  0  0  0
   -0.2922   19.7106  -29.9709 H   0  0  0  0  0  0  0  0  0  0  0  0
   -1.7379   19.1055  -31.9109 H   0  0  0  0  0  0  0  0  0  0  0  0
   -5.0148   17.7644  -33.0185 H   0  0  0  0  0  0  0  0  0  0  0  0
   -4.9468   18.1143  -31.2348 H   0  0  0  0  0  0  0  0  0  0  0  0
   -7.1427   16.9772  -32.8679 H   0  0  0  0  0  0  0  0  0  0  0  0
   -6.8162   16.8832  -31.0871 H   0  0  0  0  0  0  0  0  0  0  0  0
   -8.9643   18.0370  -31.6140 H   0  0  0  0  0  0  0  0  0  0  0  0
   -7.7737   19.0927  -30.7539 H   0  0  0  0  0  0  0  0  0  0  0  0
   -8.7274   19.1981  -33.6257 H   0  0  0  0  0  0  0  0  0  0  0  0
   -8.5134   20.5264  -32.4021 H   0  0  0  0  0  0  0  0  0  0  0  0
   -6.5353   19.3286  -34.3093 H   0  0  0  0  0  0  0  0  0  0  0  0
   -6.6922   21.0124  -33.6851 H   0  0  0  0  0  0  0  0  0  0  0  0
   -4.2468   22.5400  -31.1109 H   0  0  0  0  0  0  0  0  0  0  0  0
  1  2  2  0
  2  3  1  0
  3  4  1  0
  4  5  1  0
  5  6  2  0
  6  7  1  0
  7  8  2  0
  8  9  1  0
  9 10  2  0
  2 11  1  0
 11 12  1  0
 12 13  2  0
 13 14  1  0
 14 15  2  0
 15 16  1  0
 16 17  1  0
 17 18  2  0
 17 19  2  0
 17 20  1  0
 20 21  1  0
 21 22  1  0
 22 23  1  0
 23 24  1  0
 24 25  1  0
 16 26  2  0
 10  5  1  0
 26 12  1  0
 25 20  1  0
  4 27  1  0
  4 28  1  0
  6 29  1  0
  7 30  1  0
  9 31  1  0
 10 32  1  0
 13 33  1  0
 14 34  1  0
 15 35  1  0
 21 36  1  0
 21 37  1  0
 22 38  1  0
 22 39  1  0
 23 40  1  0
 23 41  1  0
 24 42  1  0
 24 43  1  0
 25 44  1  0
 25 45  1  0
 26 46  1  0
M  CHG  2   3  -1  11  -1
M  END
>  <UniqueID>  (37) 
36

>  <SMILES>  (37) 
O=C([N-]Cc1ccncc1)[N-]c1cccc(S(=O)(=O)N2CCCCC2)c1

>  <Energy>  (37) 
51.47407855554576

>  <Genealogy>  (37) 
O=C([N-]Cc1ccncc1)[N-]c1cccc(S(=O)(=O)N2CCCCC2)c1 (protonated)
O=C([N-]Cc1ccncc1)[N-]c1cccc(S(=O)(=O)N2CCCCC2)c1 (3D coordinates assigned)
O=C([N-]Cc1ccncc1)[N-]c1cccc(S(=O)(=O)N2CCCCC2)c1 (nonaromatic ring conformer: 51.47407855554576 kcal/mol)

>  <smiles>  (37) 
O=C(NCc1ccncc1)Nc1cccc(S(=O)(=O)N2CCCCC2)c1

>  <score_type>  (37) 
oracle

>  <origin>  (37) 
adgpu

>  <m_score__min__energy>  (37) 
-12.09

>  <m_primary>  (37) 
energy

$$$$
37:0
     RDKit          3D

 35 37  0  0  0  0  0  0  0  0999 V2000
   -4.0140   17.4830  -34.6400 C   0  0  0  0  0  0  0  0  0  0  0  0
   -4.1730   18.8120  -33.9800 C   0  0  0  0  0  0  0  0  0  0  0  0
   -5.3390   19.3180  -33.4490 C   0  0  0  0  0  0  0  0  0  0  0  0
   -4.9810   20.5880  -33.0310 C   0  0  0  0  0  0  0  0  0  0  0  0
   -5.8410   21.5950  -32.3700 C   0  0  0  0  0  0  0  0  0  0  0  0
   -7.2360   21.4290  -32.2880 C   0  0  0  0  0  0  0  0  0  0  0  0
   -8.0260   22.3890  -31.6520 C   0  0  0  0  0  0  0  0  0  0  0  0
   -7.4380   23.5240  -31.0910 C   0  0  0  0  0  0  0  0  0  0  0  0
   -6.0520   23.7040  -31.1630 C   0  0  0  0  0  0  0  0  0  0  0  0
   -5.3210   25.1270  -30.4240 S   0  0  0  0  0  0  0  0  0  0  0  0
   -5.8090   25.2430  -29.0070 O   0  0  0  0  0  0  0  0  0  0  0  0
   -5.6970   26.3770  -31.1730 O   0  0  0  0  0  0  0  0  0  0  0  0
   -3.5960   24.9650  -30.4220 N   0  0  0  0  0  0  0  0  0  0  0  0
   -2.8360   24.2120  -29.4660 C   0  0  0  0  0  0  0  0  0  0  0  0
   -3.2330   22.9300  -29.0400 C   0  0  0  0  0  0  0  0  0  0  0  0
   -2.4700   22.2330  -28.0990 C   0  0  0  0  0  0  0  0  0  0  0  0
   -1.3090   22.8030  -27.5750 C   0  0  0  0  0  0  0  0  0  0  0  0
   -0.9040   24.0720  -27.9950 C   0  0  0  0  0  0  0  0  0  0  0  0
   -1.6630   24.7760  -28.9370 C   0  0  0  0  0  0  0  0  0  0  0  0
   -1.2510   26.0400  -29.3410 O   0  0  0  0  0  0  0  0  0  0  0  0
   -5.2570   22.7440  -31.8040 C   0  0  0  0  0  0  0  0  0  0  0  0
   -3.7120   20.7780  -33.3200 O   0  0  0  0  0  0  0  0  0  0  0  0
   -3.1940   19.7330  -33.8980 N   0  0  0  0  0  0  0  0  0  0  0  0
   -3.9204   16.7011  -33.8720 H   0  0  0  0  0  0  0  0  0  0  0  0
   -4.8940   17.2775  -35.2672 H   0  0  0  0  0  0  0  0  0  0  0  0
   -3.1104   17.4909  -35.2672 H   0  0  0  0  0  0  0  0  0  0  0  0
   -6.3215   18.8288  -33.3748 H   0  0  0  0  0  0  0  0  0  0  0  0
   -7.7071   20.5375  -32.7276 H   0  0  0  0  0  0  0  0  0  0  0  0
   -9.1156   22.2503  -31.5929 H   0  0  0  0  0  0  0  0  0  0  0  0
   -8.0647   24.2777  -30.5918 H   0  0  0  0  0  0  0  0  0  0  0  0
   -4.1471   22.4753  -29.4494 H   0  0  0  0  0  0  0  0  0  0  0  0
   -2.7857   21.2318  -27.7704 H   0  0  0  0  0  0  0  0  0  0  0  0
   -0.7131   22.2532  -26.8316 H   0  0  0  0  0  0  0  0  0  0  0  0
    0.0134   24.5191  -27.5846 H   0  0  0  0  0  0  0  0  0  0  0  0
   -4.1684   22.8895  -31.8653 H   0  0  0  0  0  0  0  0  0  0  0  0
  1  2  1  0
  2  3  1  0
  3  4  2  0
  4  5  1  0
  5  6  2  0
  6  7  1  0
  7  8  2  0
  8  9  1  0
  9 10  1  0
 10 11  2  0
 10 12  2  0
 10 13  1  0
 13 14  1  0
 14 15  2  0
 15 16  1  0
 16 17  2  0
 17 18  1  0
 18 19  2  0
 19 20  1  0
  9 21  2  0
  4 22  1  0
 22 23  1  0
 23  2  2  0
 21  5  1  0
 19 14  1  0
  1 24  1  0
  1 25  1  0
  1 26  1  0
  3 27  1  0
  6 28  1  0
  7 29  1  0
  8 30  1  0
 15 31  1  0
 16 32  1  0
 17 33  1  0
 18 34  1  0
 21 35  1  0
M  CHG  2  13  -1  20  -1
M  END
>  <UniqueID>  (38) 
37

>  <SMILES>  (38) 
Cc1cc(-c2cccc(S(=O)(=O)[N-]c3ccccc3[O-])c2)on1

>  <Energy>  (38) 
70.79624621764735

>  <Genealogy>  (38) 
Cc1cc(-c2cccc(S(=O)(=O)[N-]c3ccccc3[O-])c2)on1 (protonated)
Cc1cc(-c2cccc(S(=O)(=O)[N-]c3ccccc3[O-])c2)on1 (3D coordinates assigned)
Cc1cc(-c2cccc(S(=O)(=O)[N-]c3ccccc3[O-])c2)on1 (optimized conformer: 70.79624621764735 kcal/mol)

>  <smiles>  (38) 
Cc1cc(-c2cccc(S(=O)(=O)Nc3ccccc3O)c2)on1

>  <score_type>  (38) 
oracle

>  <origin>  (38) 
adgpu

>  <m_score__min__energy>  (38) 
-13.1

>  <m_primary>  (38) 
energy

$$$$
38:0
     RDKit          3D

 48 50  0  0  0  0  0  0  0  0999 V2000
   -6.5300   17.0440  -34.2170 C   0  0  0  0  0  0  0  0  0  0  0  0
   -5.5710   18.0560  -33.6820 C   0  0  0  0  0  0  0  0  0  0  0  0
   -4.2840   18.1460  -34.0710 N   0  0  0  0  0  0  0  0  0  0  0  0
   -3.6840   19.0270  -33.2840 N   0  0  0  0  0  0  0  0  0  0  0  0
   -2.2600   19.3330  -33.3610 C   0  0  0  0  0  0  0  0  0  0  0  0
   -4.5600   19.4990  -32.3700 C   0  0  0  0  0  0  0  0  0  0  0  0
   -4.2230   20.4340  -31.2490 C   0  0  0  0  0  0  0  0  0  0  0  0
   -5.7770   18.8900  -32.6020 C   0  0  0  0  0  0  0  0  0  0  0  0
   -6.9210   18.8930  -31.7500 N   0  0  0  0  0  0  0  0  0  0  0  0
   -8.0500   20.2030  -31.7910 S   0  0  0  0  0  0  0  0  0  0  0  0
   -8.6960   20.2840  -33.1450 O   0  0  0  0  0  0  0  0  0  0  0  0
   -9.1170   19.9690  -30.7590 O   0  0  0  0  0  0  0  0  0  0  0  0
   -7.2070   21.7080  -31.4290 C   0  0  0  0  0  0  0  0  0  0  0  0
   -6.4380   22.3330  -32.4170 C   0  0  0  0  0  0  0  0  0  0  0  0
   -5.7210   23.4940  -32.1230 C   0  0  0  0  0  0  0  0  0  0  0  0
   -5.7600   24.0470  -30.8320 C   0  0  0  0  0  0  0  0  0  0  0  0
   -5.0180   25.2910  -30.5230 C   0  0  0  0  0  0  0  0  0  0  0  0
   -5.6380   26.3860  -30.4610 O   0  0  0  0  0  0  0  0  0  0  0  0
   -3.5950   25.2910  -30.3460 N   0  0  0  0  0  0  0  0  0  0  0  0
   -2.8880   24.5170  -29.3670 C   0  0  0  0  0  0  0  0  0  0  0  0
   -1.9140   25.1340  -28.5800 C   0  0  0  0  0  0  0  0  0  0  0  0
   -1.2410   24.4010  -27.6060 C   0  0  0  0  0  0  0  0  0  0  0  0
   -1.5660   23.0580  -27.4080 C   0  0  0  0  0  0  0  0  0  0  0  0
   -2.5300   22.4600  -28.1700 N   0  0  0  0  0  0  0  0  0  0  0  0
   -2.9180   21.0780  -27.8790 C   0  0  0  0  0  0  0  0  0  0  0  0
   -3.1940   23.1660  -29.1350 C   0  0  0  0  0  0  0  0  0  0  0  0
   -6.5420   23.4230  -29.8460 C   0  0  0  0  0  0  0  0  0  0  0  0
   -7.2530   22.2550  -30.1400 C   0  0  0  0  0  0  0  0  0  0  0  0
   -7.0210   16.5258  -33.3801 H   0  0  0  0  0  0  0  0  0  0  0  0
   -7.2896   17.5481  -34.8325 H   0  0  0  0  0  0  0  0  0  0  0  0
   -5.9858   16.3126  -34.8325 H   0  0  0  0  0  0  0  0  0  0  0  0
   -1.8485   19.4214  -32.3447 H   0  0  0  0  0  0  0  0  0  0  0  0
   -1.7401   18.5261  -33.8982 H   0  0  0  0  0  0  0  0  0  0  0  0
   -2.1175   20.2823  -33.8982 H   0  0  0  0  0  0  0  0  0  0  0  0
   -4.4036   19.9328  -30.2866 H   0  0  0  0  0  0  0  0  0  0  0  0
   -3.1640   20.7233  -31.3186 H   0  0  0  0  0  0  0  0  0  0  0  0
   -4.8539   21.3324  -31.3186 H   0  0  0  0  0  0  0  0  0  0  0  0
   -6.3983   21.9072  -33.4305 H   0  0  0  0  0  0  0  0  0  0  0  0
   -5.1214   23.9792  -32.9073 H   0  0  0  0  0  0  0  0  0  0  0  0
   -1.6784   26.1981  -28.7291 H   0  0  0  0  0  0  0  0  0  0  0  0
   -0.4586   24.8770  -26.9967 H   0  0  0  0  0  0  0  0  0  0  0  0
   -1.0429   22.4774  -26.6338 H   0  0  0  0  0  0  0  0  0  0  0  0
   -2.9594   20.9304  -26.7897 H   0  0  0  0  0  0  0  0  0  0  0  0
   -3.9077   20.8756  -28.3144 H   0  0  0  0  0  0  0  0  0  0  0  0
   -2.1783   20.3901  -28.3144 H   0  0  0  0  0  0  0  0  0  0  0  0
   -3.9734   22.6721  -29.7338 H   0  0  0  0  0  0  0  0  0  0  0  0
   -6.5955   23.8557  -28.8361 H   0  0  0  0  0  0  0  0  0  0  0  0
   -7.8500   21.7645  -29.3570 H   0  0  0  0  0  0  0  0  0  0  0  0
  1  2  1  0
  2  3  2  0
  3  4  1  0
  4  5  1  0
  4  6  1  0
  6  7  1  0
  6  8  2  0
  8  9  1  0
  9 10  1  0
 10 11  2  0
 10 12  2  0
 10 13  1  0
 13 14  2  0
 14 15  1  0
 15 16  2  0
 16 17  1  0
 17 18  2  0
 17 19  1  0
 19 20  1  0
 20 21  2  0
 21 22  1  0
 22 23  2  0
 23 24  1  0
 24 25  1  0
 24 26  2  0
 16 27  1  0
 27 28  2  0
  8  2  1  0
 28 13  1  0
 26 20  1  0
  1 29  1  0
  1 30  1  0
  1 31  1  0
  5 32  1  0
  5 33  1  0
  5 34  1  0
  7 35  1  0
  7 36  1  0
  7 37  1  0
 14 38  1  0
 15 39  1  0
 21 40  1  0
 22 41  1  0
 23 42  1  0
 25 43  1  0
 25 44  1  0
 25 45  1  0
 26 46  1  0
 27 47  1  0
 28 48  1  0
M  CHG  3   9  -1  19  -1  24   1
M  END
>  <UniqueID>  (39) 
38

>  <SMILES>  (39) 
Cc1nn(C)c(C)c1[N-]S(=O)(=O)c1ccc(C(=O)[N-]c2ccc[n+](C)c2)cc1

>  <Energy>  (39) 
90.80944118000242

>  <Genealogy>  (39) 
Cc1nn(C)c(C)c1[N-]S(=O)(=O)c1ccc(C(=O)[N-]c2ccc[n+](C)c2)cc1 (protonated)
Cc1nn(C)c(C)c1[N-]S(=O)(=O)c1ccc(C(=O)[N-]c2ccc[n+](C)c2)cc1 (3D coordinates assigned)
Cc1nn(C)c(C)c1[N-]S(=O)(=O)c1ccc(C(=O)[N-]c2ccc[n+](C)c2)cc1 (optimized conformer: 90.80944118000242 kcal/mol)

>  <smiles>  (39) 
Cc1nn(C)c(C)c1NS(=O)(=O)c1ccc(C(=O)Nc2ccc[n+](C)c2)cc1

>  <score_type>  (39) 
oracle

>  <origin>  (39) 
adgpu

>  <m_score__min__energy>  (39) 
-9.9299999999999997

>  <m_primary>  (39) 
energy

$$$$
39:0
     RDKit          3D

 42 44  0  0  0  0  0  0  0  0999 V2000
   -2.0290   24.9370  -29.3770 N   0  0  0  0  0  0  0  0  0  0  0  0
   -3.5070   24.3620  -30.0660 S   0  0  0  0  0  0  0  0  0  0  0  0
   -4.4270   23.8990  -28.9710 O   0  0  0  0  0  0  0  0  0  0  0  0
   -4.1750   25.4810  -30.8150 O   0  0  0  0  0  0  0  0  0  0  0  0
   -3.1660   23.0260  -31.1600 C   0  0  0  0  0  0  0  0  0  0  0  0
   -4.1100   22.6540  -32.1240 C   0  0  0  0  0  0  0  0  0  0  0  0
   -3.8410   21.6000  -33.0030 C   0  0  0  0  0  0  0  0  0  0  0  0
   -2.6230   20.9070  -32.9250 C   0  0  0  0  0  0  0  0  0  0  0  0
   -2.2900   19.8360  -33.9310 C   0  0  0  0  0  0  0  0  0  0  0  0
   -1.9340   18.2410  -33.1080 S   0  0  0  0  0  0  0  0  0  0  0  0
   -3.6380   17.6930  -33.0930 C   0  0  0  0  0  0  0  0  0  0  0  0
   -4.6270   18.5570  -32.7550 N   0  0  0  0  0  0  0  0  0  0  0  0
   -5.9370   18.1840  -32.7820 C   0  0  0  0  0  0  0  0  0  0  0  0
   -6.9820   19.1720  -32.4160 C   0  0  0  0  0  0  0  0  0  0  0  0
   -6.6190   20.3680  -31.7690 C   0  0  0  0  0  0  0  0  0  0  0  0
   -7.5910   21.3080  -31.4120 C   0  0  0  0  0  0  0  0  0  0  0  0
   -8.9410   21.0620  -31.6880 C   0  0  0  0  0  0  0  0  0  0  0  0
   -9.9190   21.9910  -31.3360 O   0  0  0  0  0  0  0  0  0  0  0  0
   -9.3150   19.8730  -32.3190 C   0  0  0  0  0  0  0  0  0  0  0  0
   -8.3460   18.9310  -32.6790 C   0  0  0  0  0  0  0  0  0  0  0  0
   -6.2630   16.8800  -33.1900 C   0  0  0  0  0  0  0  0  0  0  0  0
   -5.2290   15.9980  -33.5290 C   0  0  0  0  0  0  0  0  0  0  0  0
   -5.5370   14.6120  -34.0170 C   0  0  0  0  0  0  0  0  0  0  0  0
   -6.8320   14.5630  -34.5030 F   0  0  0  0  0  0  0  0  0  0  0  0
   -4.6570   14.2740  -35.0280 F   0  0  0  0  0  0  0  0  0  0  0  0
   -5.4110   13.6970  -32.9870 F   0  0  0  0  0  0  0  0  0  0  0  0
   -3.9410   16.4250  -33.4720 N   0  0  0  0  0  0  0  0  0  0  0  0
   -1.6850   21.2720  -31.9460 C   0  0  0  0  0  0  0  0  0  0  0  0
   -1.9580   22.3230  -31.0670 C   0  0  0  0  0  0  0  0  0  0  0  0
   -1.6150   25.6080  -30.0620 H   0  0  0  0  0  0  0  0  0  0  0  0
   -5.0669   23.1925  -32.1905 H   0  0  0  0  0  0  0  0  0  0  0  0
   -4.5871   21.3129  -33.7586 H   0  0  0  0  0  0  0  0  0  0  0  0
   -3.1441   19.7055  -34.6118 H   0  0  0  0  0  0  0  0  0  0  0  0
   -1.3939   20.1480  -34.4875 H   0  0  0  0  0  0  0  0  0  0  0  0
   -5.5609   20.5652  -31.5420 H   0  0  0  0  0  0  0  0  0  0  0  0
   -7.2940   22.2424  -30.9134 H   0  0  0  0  0  0  0  0  0  0  0  0
   -9.8810   22.9490  -31.6640 H   0  0  0  0  0  0  0  0  0  0  0  0
  -10.3759   19.6769  -32.5335 H   0  0  0  0  0  0  0  0  0  0  0  0
   -8.6502   17.9953  -33.1709 H   0  0  0  0  0  0  0  0  0  0  0  0
   -7.3131   16.5568  -33.2424 H   0  0  0  0  0  0  0  0  0  0  0  0
   -0.7317   20.7284  -31.8709 H   0  0  0  0  0  0  0  0  0  0  0  0
   -1.2211   22.5997  -30.2986 H   0  0  0  0  0  0  0  0  0  0  0  0
  1  2  1  0
  2  3  2  0
  2  4  2  0
  2  5  1  0
  5  6  2  0
  6  7  1  0
  7  8  2  0
  8  9  1  0
  9 10  1  0
 10 11  1  0
 11 12  2  0
 12 13  1  0
 13 14  1  0
 14 15  2  0
 15 16  1  0
 16 17  2  0
 17 18  1  0
 17 19  1  0
 19 20  2  0
 13 21  2  0
 21 22  1  0
 22 23  1  0
 23 24  1  0
 23 25  1  0
 23 26  1  0
 22 27  2  0
  8 28  1  0
 28 29  2  0
 29  5  1  0
 27 11  1  0
 20 14  1  0
  1 30  1  0
  6 31  1  0
  7 32  1  0
  9 33  1  0
  9 34  1  0
 15 35  1  0
 16 36  1  0
 18 37  1  0
 19 38  1  0
 20 39  1  0
 21 40  1  0
 28 41  1  0
 29 42  1  0
M  CHG  1   1  -1
M  END
>  <UniqueID>  (40) 
39

>  <SMILES>  (40) 
[NH-]S(=O)(=O)c1ccc(CSc2nc(-c3ccc(O)cc3)cc(C(F)(F)F)n2)cc1

>  <Energy>  (40) 
42.02423636368733

>  <Genealogy>  (40) 
[NH-]S(=O)(=O)c1ccc(CSc2nc(-c3ccc(O)cc3)cc(C(F)(F)F)n2)cc1 (protonated)
[NH-]S(=O)(=O)c1ccc(CSc2nc(-c3ccc(O)cc3)cc(C(F)(F)F)n2)cc1 (3D coordinates assigned)
[NH-]S(=O)(=O)c1ccc(CSc2nc(-c3ccc(O)cc3)cc(C(F)(F)F)n2)cc1 (optimized conformer: 42.02423636368733 kcal/mol)

>  <smiles>  (40) 
NS(=O)(=O)c1ccc(CSc2nc(-c3ccc(O)cc3)cc(C(F)(F)F)n2)cc1

>  <score_type>  (40) 
oracle

>  <origin>  (40) 
adgpu

>  <m_score__min__energy>  (40) 
-11.039999999999999

>  <m_primary>  (40) 
energy

$$$$
40:0
     RDKit          3D

 38 40  0  0  0  0  0  0  0  0999 V2000
   -1.6010   25.7800  -28.9650 N   0  0  0  0  0  0  0  0  0  0  0  0
   -2.6350   24.4170  -29.2100 S   0  0  0  0  0  0  0  0  0  0  0  0
   -3.2530   24.4900  -30.5780 O   0  0  0  0  0  0  0  0  0  0  0  0
   -3.7260   24.4400  -28.1770 O   0  0  0  0  0  0  0  0  0  0  0  0
   -1.6890   22.9310  -29.0750 C   0  0  0  0  0  0  0  0  0  0  0  0
   -0.9080   22.7010  -27.9300 C   0  0  0  0  0  0  0  0  0  0  0  0
   -0.1670   21.5250  -27.8050 C   0  0  0  0  0  0  0  0  0  0  0  0
   -0.1980   20.5680  -28.8190 C   0  0  0  0  0  0  0  0  0  0  0  0
   -0.9720   20.7830  -29.9620 C   0  0  0  0  0  0  0  0  0  0  0  0
   -1.7250   21.9640  -30.1000 C   0  0  0  0  0  0  0  0  0  0  0  0
   -2.5260   22.2080  -31.2650 N   0  0  0  0  0  0  0  0  0  0  0  0
   -2.9510   21.0310  -32.4620 S   0  0  0  0  0  0  0  0  0  0  0  0
   -2.5230   21.5250  -33.8160 O   0  0  0  0  0  0  0  0  0  0  0  0
   -2.2710   19.7240  -32.1710 O   0  0  0  0  0  0  0  0  0  0  0  0
   -4.7040   20.7920  -32.4230 C   0  0  0  0  0  0  0  0  0  0  0  0
   -5.2180   19.5090  -32.6700 C   0  0  0  0  0  0  0  0  0  0  0  0
   -6.5950   19.2800  -32.6560 C   0  0  0  0  0  0  0  0  0  0  0  0
   -7.2180   17.6730  -32.9790 Cl  0  0  0  0  0  0  0  0  0  0  0  0
   -7.4760   20.3290  -32.3960 C   0  0  0  0  0  0  0  0  0  0  0  0
   -6.9870   21.6150  -32.1300 C   0  0  0  0  0  0  0  0  0  0  0  0
   -5.5950   21.8590  -32.1510 C   0  0  0  0  0  0  0  0  0  0  0  0
   -5.1190   23.1920  -31.8840 N   0  0  0  0  0  0  0  0  0  0  0  0
   -6.0030   24.1910  -31.3650 C   0  0  0  0  0  0  0  0  0  0  0  0
   -5.5860   25.3660  -31.1760 O   0  0  0  0  0  0  0  0  0  0  0  0
   -7.4010   23.8190  -30.9810 C   0  0  0  0  0  0  0  0  0  0  0  0
   -7.9550   22.7580  -31.9380 C   0  0  0  0  0  0  0  0  0  0  0  0
   -1.2310   26.0550  -29.9020 H   0  0  0  0  0  0  0  0  0  0  0  0
   -0.8804   23.4524  -27.1271 H   0  0  0  0  0  0  0  0  0  0  0  0
    0.4423   21.3527  -26.9055 H   0  0  0  0  0  0  0  0  0  0  0  0
    0.3879   19.6424  -28.7187 H   0  0  0  0  0  0  0  0  0  0  0  0
   -0.9930   20.0249  -30.7587 H   0  0  0  0  0  0  0  0  0  0  0  0
   -4.5293   18.6765  -32.8765 H   0  0  0  0  0  0  0  0  0  0  0  0
   -8.5607   20.1461  -32.3997 H   0  0  0  0  0  0  0  0  0  0  0  0
   -4.1270   23.4630  -32.0570 H   0  0  0  0  0  0  0  0  0  0  0  0
   -7.4007   23.4181  -29.9567 H   0  0  0  0  0  0  0  0  0  0  0  0
   -8.0362   24.7154  -31.0366 H   0  0  0  0  0  0  0  0  0  0  0  0
   -8.8951   22.3628  -31.5257 H   0  0  0  0  0  0  0  0  0  0  0  0
   -8.1208   23.2333  -32.9161 H   0  0  0  0  0  0  0  0  0  0  0  0
  1  2  1  0
  2  3  2  0
  2  4  2  0
  2  5  1  0
  5  6  2  0
  6  7  1  0
  7  8  2  0
  8  9  1  0
  9 10  2  0
 10 11  1  0
 11 12  1  0
 12 13  2  0
 12 14  2  0
 12 15  1  0
 15 16  2  0
 16 17  1  0
 17 18  1  0
 17 19  2  0
 19 20  1  0
 20 21  2  0
 21 22  1  0
 22 23  1  0
 23 24  2  0
 23 25  1  0
 25 26  1  0
 10  5  1  0
 21 15  1  0
 26 20  1  0
  1 27  1  0
  6 28  1  0
  7 29  1  0
  8 30  1  0
  9 31  1  0
 16 32  1  0
 19 33  1  0
 22 34  1  0
 25 35  1  0
 25 36  1  0
 26 37  1  0
 26 38  1  0
M  CHG  2   1  -1  11  -1
M  END
>  <UniqueID>  (41) 
40

>  <SMILES>  (41) 
[NH-]S(=O)(=O)c1ccccc1[N-]S(=O)(=O)c1cc(Cl)cc2c1NC(=O)CC2

>  <Energy>  (41) 
46.02754685138988

>  <Genealogy>  (41) 
[NH-]S(=O)(=O)c1ccccc1[N-]S(=O)(=O)c1cc(Cl)cc2c1NC(=O)CC2 (protonated)
[NH-]S(=O)(=O)c1ccccc1[N-]S(=O)(=O)c1cc(Cl)cc2c1NC(=O)CC2 (3D coordinates assigned)
[NH-]S(=O)(=O)c1ccccc1[N-]S(=O)(=O)c1cc(Cl)cc2c1NC(=O)CC2 (nonaromatic ring conformer: 46.02754685138988 kcal/mol)

>  <smiles>  (41) 
NS(=O)(=O)c1ccccc1NS(=O)(=O)c1cc(Cl)cc2c1NC(=O)CC2

>  <score_type>  (41) 
oracle

>  <origin>  (41) 
adgpu

>  <m_score__min__energy>  (41) 
-12.699999999999999

>  <m_primary>  (41) 
energy

$$$$
41:0
     RDKit          3D

 43 45  0  0  0  0  0  0  0  0999 V2000
   -2.1030   19.1900  -34.1250 C   0  0  0  0  0  0  0  0  0  0  0  0
   -3.5210   18.6980  -34.2340 C   0  0  0  0  0  0  0  0  0  0  0  0
   -3.7830   17.4820  -34.8900 C   0  0  0  0  0  0  0  0  0  0  0  0
   -5.0900   17.0080  -35.0050 C   0  0  0  0  0  0  0  0  0  0  0  0
   -6.1510   17.7440  -34.4790 C   0  0  0  0  0  0  0  0  0  0  0  0
   -5.9090   18.9580  -33.8330 C   0  0  0  0  0  0  0  0  0  0  0  0
   -4.5950   19.4440  -33.6940 C   0  0  0  0  0  0  0  0  0  0  0  0
   -4.3570   20.7140  -33.0610 N   0  0  0  0  0  0  0  0  0  0  0  0
   -3.6320   20.8640  -31.8300 C   0  0  0  0  0  0  0  0  0  0  0  0
   -3.0480   19.8760  -31.3070 O   0  0  0  0  0  0  0  0  0  0  0  0
   -3.5450   22.1830  -31.1770 C   0  0  0  0  0  0  0  0  0  0  0  0
   -4.4140   23.2360  -31.4620 C   0  0  0  0  0  0  0  0  0  0  0  0
   -5.5370   23.1770  -32.3590 N   0  0  0  0  0  0  0  0  0  0  0  0
   -6.8150   22.6280  -32.0010 C   0  0  0  0  0  0  0  0  0  0  0  0
   -6.8830   21.3440  -31.4370 C   0  0  0  0  0  0  0  0  0  0  0  0
   -8.1200   20.7820  -31.1080 C   0  0  0  0  0  0  0  0  0  0  0  0
   -9.2990   21.4900  -31.3560 C   0  0  0  0  0  0  0  0  0  0  0  0
   -9.2440   22.7580  -31.9410 C   0  0  0  0  0  0  0  0  0  0  0  0
   -8.0080   23.3250  -32.2700 C   0  0  0  0  0  0  0  0  0  0  0  0
   -3.9660   24.5740  -30.5470 S   0  0  0  0  0  0  0  0  0  0  0  0
   -2.6480   23.8580  -29.7820 C   0  0  0  0  0  0  0  0  0  0  0  0
   -1.8300   24.5500  -28.7680 C   0  0  0  0  0  0  0  0  0  0  0  0
   -1.6230   25.9570  -28.8680 N   0  0  0  0  0  0  0  0  0  0  0  0
   -1.3280   23.9230  -27.7980 O   0  0  0  0  0  0  0  0  0  0  0  0
   -2.5470   22.5330  -30.2390 C   0  0  0  0  0  0  0  0  0  0  0  0
   -1.5540   21.6040  -29.7850 N   0  0  0  0  0  0  0  0  0  0  0  0
   -1.8285   19.2853  -33.0641 H   0  0  0  0  0  0  0  0  0  0  0  0
   -1.4276   18.4737  -34.6156 H   0  0  0  0  0  0  0  0  0  0  0  0
   -2.0164   20.1707  -34.6156 H   0  0  0  0  0  0  0  0  0  0  0  0
   -2.9517   16.9006  -35.3153 H   0  0  0  0  0  0  0  0  0  0  0  0
   -5.2840   16.0512  -35.5119 H   0  0  0  0  0  0  0  0  0  0  0  0
   -7.1803   17.3677  -34.5731 H   0  0  0  0  0  0  0  0  0  0  0  0
   -6.7514   19.5391  -33.4296 H   0  0  0  0  0  0  0  0  0  0  0  0
   -4.7110   21.5760  -33.5330 H   0  0  0  0  0  0  0  0  0  0  0  0
   -5.3990   23.4730  -33.3500 H   0  0  0  0  0  0  0  0  0  0  0  0
   -5.9583   20.7774  -31.2531 H   0  0  0  0  0  0  0  0  0  0  0  0
   -8.1653   19.7814  -30.6534 H   0  0  0  0  0  0  0  0  0  0  0  0
  -10.2711   21.0489  -31.0906 H   0  0  0  0  0  0  0  0  0  0  0  0
  -10.1733   23.3108  -32.1430 H   0  0  0  0  0  0  0  0  0  0  0  0
   -7.9684   24.3186  -32.7404 H   0  0  0  0  0  0  0  0  0  0  0  0
   -1.1860   26.3760  -29.7180 H   0  0  0  0  0  0  0  0  0  0  0  0
   -0.9260   21.8130  -28.9800 H   0  0  0  0  0  0  0  0  0  0  0  0
   -1.4000   20.7000  -30.2840 H   0  0  0  0  0  0  0  0  0  0  0  0
  1  2  1  0
  2  3  2  0
  3  4  1  0
  4  5  2  0
  5  6  1  0
  6  7  2  0
  7  8  1  0
  8  9  1  0
  9 10  2  0
  9 11  1  0
 11 12  2  0
 12 13  1  0
 13 14  1  0
 14 15  2  0
 15 16  1  0
 16 17  2  0
 17 18  1  0
 18 19  2  0
 12 20  1  0
 20 21  1  0
 21 22  1  0
 22 23  1  0
 22 24  2  0
 21 25  2  0
 25 26  1  0
  7  2  1  0
 25 11  1  0
 19 14  1  0
  1 27  1  0
  1 28  1  0
  1 29  1  0
  3 30  1  0
  4 31  1  0
  5 32  1  0
  6 33  1  0
  8 34  1  0
 13 35  1  0
 15 36  1  0
 16 37  1  0
 17 38  1  0
 18 39  1  0
 19 40  1  0
 23 41  1  0
 26 42  1  0
 26 43  1  0
M  CHG  1  23  -1
M  END
>  <UniqueID>  (42) 
41

>  <SMILES>  (42) 
Cc1ccccc1NC(=O)c1c(Nc2ccccc2)sc(C([NH-])=O)c1N

>  <Energy>  (42) 
87.2258826433098

>  <Genealogy>  (42) 
Cc1ccccc1NC(=O)c1c(Nc2ccccc2)sc(C([NH-])=O)c1N (protonated)
Cc1ccccc1NC(=O)c1c(Nc2ccccc2)sc(C([NH-])=O)c1N (3D coordinates assigned)
Cc1ccccc1NC(=O)c1c(Nc2ccccc2)sc(C([NH-])=O)c1N (optimized conformer: 87.2258826433098 kcal/mol)

>  <smiles>  (42) 
Cc1ccccc1NC(=O)c1c(Nc2ccccc2)sc(C(N)=O)c1N

>  <score_type>  (42) 
oracle

>  <origin>  (42) 
adgpu

>  <m_score__min__energy>  (42) 
-10.58

>  <m_primary>  (42) 
energy

$$$$
42:0
     RDKit          3D

 66 70  0  0  1  0  0  0  0  0999 V2000
    1.7790   28.5380  -22.4600 C   0  0  0  0  0  0  0  0  0  0  0  0
    2.3160   29.7150  -23.1200 N   0  0  0  0  0  0  0  0  0  0  0  0
    2.1200   30.8370  -22.1960 C   0  0  0  0  0  0  0  0  0  0  0  0
    1.5110   30.0000  -24.2840 C   0  0  0  0  0  0  0  0  0  0  0  0
    1.4000   28.8290  -25.1820 C   0  0  0  0  0  0  0  0  0  0  0  0
    2.3390   28.1620  -25.9320 C   0  0  0  0  0  0  0  0  0  0  0  0
    1.9270   27.1160  -26.6590 C   0  0  0  0  0  0  0  0  0  0  0  0
    0.6240   26.7590  -26.6290 C   0  0  0  0  0  0  0  0  0  0  0  0
   -0.0590   25.6920  -27.3070 C   0  0  0  0  0  0  0  0  0  0  0  0
    0.6020   24.7970  -27.8820 O   0  0  0  0  0  0  0  0  0  0  0  0
   -1.4880   25.6610  -27.3190 N   0  0  0  0  0  0  0  0  0  0  0  0
   -2.0850   24.5650  -28.0160 C   0  0  0  0  0  0  0  0  0  0  0  0
   -2.8920   24.9110  -29.1000 C   0  0  0  0  0  0  0  0  0  0  0  0
   -3.4720   23.8640  -29.7770 C   0  0  0  0  0  0  0  0  0  0  0  0
   -4.2780   24.1660  -30.8540 O   0  0  0  0  0  0  0  0  0  0  0  0
   -5.6620   24.3640  -30.7730 C   0  0  0  0  0  0  0  0  0  0  0  0
   -5.8660   25.7060  -30.4700 F   0  0  0  0  0  0  0  0  0  0  0  0
   -6.3000   24.1480  -31.9900 F   0  0  0  0  0  0  0  0  0  0  0  0
   -6.2540   23.5980  -29.8040 F   0  0  0  0  0  0  0  0  0  0  0  0
   -3.2920   22.5390  -29.4380 C   0  0  0  0  0  0  0  0  0  0  0  0
   -3.9510   21.5270  -30.2220 N   0  0  0  0  0  0  0  0  0  0  0  0
   -3.4760   21.2010  -31.3980 C   0  0  0  0  0  0  0  0  0  0  0  0
   -2.3730   21.8450  -31.8200 N   0  0  0  0  0  0  0  0  0  0  0  0
   -1.8470   21.5470  -33.0190 C   0  0  0  0  0  0  0  0  0  0  0  0
   -2.3950   20.6050  -33.8340 N   0  0  0  0  0  0  0  0  0  0  0  0
   -3.5120   19.9440  -33.4210 C   0  0  0  0  0  0  0  0  0  0  0  0
   -4.1050   18.9700  -34.2300 C   0  0  0  0  0  0  0  0  0  0  0  0
   -5.2460   18.3080  -33.7850 C   0  0  0  0  0  0  0  0  0  0  0  0
   -5.8480   17.3170  -34.6080 N   0  0  0  0  0  0  0  0  0  0  0  0
   -6.5440   16.1110  -33.9040 S   0  0  0  0  0  0  0  0  0  0  0  0
   -7.3150   16.5660  -32.7250 O   0  0  0  0  0  0  0  0  0  0  0  0
   -7.2680   14.9190  -34.9590 C   0  0  0  0  0  0  0  0  0  0  0  0
   -6.5310   13.8250  -34.1810 C   0  0  0  0  0  0  0  0  0  0  0  0
   -5.4550   14.7560  -33.6540 C   0  0  0  0  0  0  0  0  0  0  0  0
   -5.7640   18.6360  -32.5470 C   0  0  0  0  0  0  0  0  0  0  0  0
   -5.2080   19.5910  -31.7230 C   0  0  0  0  0  0  0  0  0  0  0  0
   -4.0770   20.2340  -32.1800 C   0  0  0  0  0  0  0  0  0  0  0  0
   -2.4890   22.2270  -28.3630 C   0  0  0  0  0  0  0  0  0  0  0  0
   -1.8870   23.2500  -27.6550 C   0  0  0  0  0  0  0  0  0  0  0  0
   -1.0780   22.9640  -26.5730 O   0  0  0  0  0  0  0  0  0  0  0  0
   -0.1970   27.9490  -25.4940 S   0  0  0  0  0  0  0  0  0  0  0  0
    1.8391   28.6696  -21.3696 H   0  0  0  0  0  0  0  0  0  0  0  0
    0.7285   28.3993  -22.7553 H   0  0  0  0  0  0  0  0  0  0  0  0
    2.3627   27.6537  -22.7553 H   0  0  0  0  0  0  0  0  0  0  0  0
    2.1834   30.4739  -21.1596 H   0  0  0  0  0  0  0  0  0  0  0  0
    2.8995   31.5939  -22.3677 H   0  0  0  0  0  0  0  0  0  0  0  0
    1.1300   31.2848  -22.3677 H   0  0  0  0  0  0  0  0  0  0  0  0
    0.5027   30.2924  -23.9555 H   0  0  0  0  0  0  0  0  0  0  0  0
    1.9985   30.8120  -24.8435 H   0  0  0  0  0  0  0  0  0  0  0  0
    3.3930   28.4768  -25.9348 H   0  0  0  0  0  0  0  0  0  0  0  0
    2.6428   26.5522  -27.2753 H   0  0  0  0  0  0  0  0  0  0  0  0
   -2.0700   26.3890  -26.8510 H   0  0  0  0  0  0  0  0  0  0  0  0
   -3.0546   25.9581  -29.3954 H   0  0  0  0  0  0  0  0  0  0  0  0
   -0.9451   22.0809  -33.3528 H   0  0  0  0  0  0  0  0  0  0  0  0
   -1.9780   20.3800  -34.7650 H   0  0  0  0  0  0  0  0  0  0  0  0
   -3.6726   18.7282  -35.2121 H   0  0  0  0  0  0  0  0  0  0  0  0
   -8.3645   14.8617  -34.8931 H   0  0  0  0  0  0  0  0  0  0  0  0
   -7.1732   14.9982  -36.0520 H   0  0  0  0  0  0  0  0  0  0  0  0
   -7.1421   13.3775  -33.3833 H   0  0  0  0  0  0  0  0  0  0  0  0
   -6.2118   12.9275  -34.7310 H   0  0  0  0  0  0  0  0  0  0  0  0
   -5.1819   14.5828  -32.6026 H   0  0  0  0  0  0  0  0  0  0  0  0
   -4.4449   14.7555  -34.0896 H   0  0  0  0  0  0  0  0  0  0  0  0
   -6.6654   18.1086  -32.2015 H   0  0  0  0  0  0  0  0  0  0  0  0
   -5.6475   19.8298  -30.7433 H   0  0  0  0  0  0  0  0  0  0  0  0
   -2.3292   21.1783  -28.0722 H   0  0  0  0  0  0  0  0  0  0  0  0
   -0.1510   23.3450  -26.4660 H   0  0  0  0  0  0  0  0  0  0  0  0
  1  2  1  0
  2  3  1  0
  2  4  1  0
  4  5  1  0
  5  6  2  0
  6  7  1  0
  7  8  2  0
  8  9  1  0
  9 10  2  0
  9 11  1  0
 11 12  1  0
 12 13  2  0
 13 14  1  0
 14 15  1  0
 15 16  1  0
 16 17  1  0
 16 18  1  0
 16 19  1  0
 14 20  2  0
 20 21  1  0
 21 22  2  0
 22 23  1  0
 23 24  2  0
 24 25  1  0
 25 26  1  0
 26 27  2  0
 27 28  1  0
 28 29  1  0
 29 30  2  0
 30 31  2  0
 30 32  1  0
 32 33  1  0
 33 34  1  0
 28 35  2  0
 35 36  1  0
 36 37  2  0
 20 38  1  0
 38 39  2  0
 39 40  1  0
  8 41  1  0
 41  5  1  0
 39 12  1  0
 37 22  1  0
 37 26  1  0
 34 30  1  0
  1 42  1  0
  1 43  1  0
  1 44  1  0
  3 45  1  0
  3 46  1  0
  3 47  1  0
  4 48  1  0
  4 49  1  0
  6 50  1  0
  7 51  1  0
 11 52  1  0
 13 53  1  0
 24 54  1  0
 25 55  1  0
 27 56  1  0
 32 57  1  0
 32 58  1  0
 33 59  1  0
 33 60  1  0
 34 61  1  0
 34 62  1  0
 35 63  1  0
 36 64  1  0
 38 65  1  0
 40 66  1  0
M  END
>  <smiles>  (43) 
CN(C)Cc1ccc(C(=O)Nc2cc(OC(F)(F)F)c(N=c3nc[nH]c4cc(N=S5(=O)CCC5)ccc34)cc2O)s1

>  <score_type>  (43) 
oracle

>  <origin>  (43) 
adgpu

>  <m_score__min__energy>  (43) 
-9.4600000000000009

>  <m_primary>  (43) 
energy

$$$$
43:0
     RDKit          3D

 44 46  0  0  0  0  0  0  0  0999 V2000
   -2.9890   20.2640  -27.4280 C   0  0  0  0  0  0  0  0  0  0  0  0
   -2.7980   21.5670  -28.0500 N   0  0  0  0  0  0  0  0  0  0  0  0
   -1.7680   22.4030  -27.8250 C   0  0  0  0  0  0  0  0  0  0  0  0
   -1.9360   23.5030  -28.6390 C   0  0  0  0  0  0  0  0  0  0  0  0
   -1.1010   24.6680  -28.6500 N   0  0  0  0  0  0  0  0  0  0  0  0
   -1.5890   25.7710  -28.9680 O   0  0  0  0  0  0  0  0  0  0  0  0
    0.2670   24.5410  -28.5820 O   0  0  0  0  0  0  0  0  0  0  0  0
   -3.0960   23.2560  -29.3660 C   0  0  0  0  0  0  0  0  0  0  0  0
   -3.6800   24.0480  -30.4630 C   0  0  0  0  0  0  0  0  0  0  0  0
   -3.8360   25.2890  -30.3080 O   0  0  0  0  0  0  0  0  0  0  0  0
   -4.0590   23.4200  -31.6920 N   0  0  0  0  0  0  0  0  0  0  0  0
   -5.0140   22.3610  -31.8550 C   0  0  0  0  0  0  0  0  0  0  0  0
   -6.2240   22.3380  -31.1500 C   0  0  0  0  0  0  0  0  0  0  0  0
   -7.1080   21.2730  -31.3150 C   0  0  0  0  0  0  0  0  0  0  0  0
   -6.7960   20.2140  -32.1740 C   0  0  0  0  0  0  0  0  0  0  0  0
   -8.0970   18.8120  -32.3450 Br  0  0  0  0  0  0  0  0  0  0  0  0
   -5.5650   20.2060  -32.8730 C   0  0  0  0  0  0  0  0  0  0  0  0
   -5.1720   18.8510  -33.9670 S   0  0  0  0  0  0  0  0  0  0  0  0
   -6.1110   18.9130  -35.1400 O   0  0  0  0  0  0  0  0  0  0  0  0
   -3.7680   19.0590  -34.4670 O   0  0  0  0  0  0  0  0  0  0  0  0
   -5.2690   17.2370  -33.2920 N   0  0  0  0  0  0  0  0  0  0  0  0
   -3.9300   16.6250  -33.1750 C   0  0  0  0  0  0  0  0  0  0  0  0
   -4.0160   15.1770  -32.6330 C   0  0  0  0  0  0  0  0  0  0  0  0
   -5.3110   14.6090  -32.7200 O   0  0  0  0  0  0  0  0  0  0  0  0
   -5.8930   14.9140  -33.9690 C   0  0  0  0  0  0  0  0  0  0  0  0
   -6.2600   16.4030  -34.0130 C   0  0  0  0  0  0  0  0  0  0  0  0
   -4.6870   21.2930  -32.6980 C   0  0  0  0  0  0  0  0  0  0  0  0
   -3.5950   22.0610  -28.9870 N   0  0  0  0  0  0  0  0  0  0  0  0
   -2.9728   20.3742  -26.3337 H   0  0  0  0  0  0  0  0  0  0  0  0
   -3.9579   19.8471  -27.7403 H   0  0  0  0  0  0  0  0  0  0  0  0
   -2.1806   19.5866  -27.7403 H   0  0  0  0  0  0  0  0  0  0  0  0
   -0.9409   22.2384  -27.1188 H   0  0  0  0  0  0  0  0  0  0  0  0
   -6.4769   23.1611  -30.4655 H   0  0  0  0  0  0  0  0  0  0  0  0
   -8.0602   21.2652  -30.7644 H   0  0  0  0  0  0  0  0  0  0  0  0
   -5.6220   17.3620  -32.3130 H   0  0  0  0  0  0  0  0  0  0  0  0
   -3.4563   16.6080  -34.1676 H   0  0  0  0  0  0  0  0  0  0  0  0
   -3.3360   17.2241  -32.4692 H   0  0  0  0  0  0  0  0  0  0  0  0
   -3.3224   14.5487  -33.2111 H   0  0  0  0  0  0  0  0  0  0  0  0
   -3.7562   15.2191  -31.5650 H   0  0  0  0  0  0  0  0  0  0  0  0
   -5.1758   14.6894  -34.7722 H   0  0  0  0  0  0  0  0  0  0  0  0
   -6.8009   14.3086  -34.1078 H   0  0  0  0  0  0  0  0  0  0  0  0
   -6.3021   16.7282  -35.0630 H   0  0  0  0  0  0  0  0  0  0  0  0
   -7.2353   16.5289  -33.5201 H   0  0  0  0  0  0  0  0  0  0  0  0
   -3.7264   21.3027  -33.2339 H   0  0  0  0  0  0  0  0  0  0  0  0
  1  2  1  0
  2  3  1  0
  3  4  2  0
  4  5  1  0
  5  6  2  0
  5  7  1  0
  4  8  1  0
  8  9  1  0
  9 10  2  0
  9 11  1  0
 11 12  1  0
 12 13  2  0
 13 14  1  0
 14 15  2  0
 15 16  1  0
 15 17  1  0
 17 18  1  0
 18 19  2  0
 18 20  2  0
 18 21  1  0
 21 22  1  0
 22 23  1  0
 23 24  1  0
 24 25  1  0
 25 26  1  0
 17 27  2  0
  8 28  2  0
 28  2  1  0
 27 12  1  0
 26 21  1  0
  1 29  1  0
  1 30  1  0
  1 31  1  0
  3 32  1  0
 13 33  1  0
 14 34  1  0
 21 35  1  0
 22 36  1  0
 22 37  1  0
 23 38  1  0
 23 39  1  0
 25 40  1  0
 25 41  1  0
 26 42  1  0
 26 43  1  0
 27 44  1  0
M  CHG  4   5   1   7  -1  11  -1  21   1
M  END
>  <UniqueID>  (44) 
42

>  <SMILES>  (44) 
Cn1cc([N+](=O)[O-])c(C(=O)[N-]c2ccc(Br)c(S(=O)(=O)[NH+]3CCOCC3)c2)n1

>  <Energy>  (44) 
98.02493417825487

>  <Genealogy>  (44) 
Cn1cc([N+](=O)[O-])c(C(=O)[N-]c2ccc(Br)c(S(=O)(=O)[NH+]3CCOCC3)c2)n1 (protonated)
Cn1cc([N+](=O)[O-])c(C(=O)[N-]c2ccc(Br)c(S(=O)(=O)[NH+]3CCOCC3)c2)n1 (3D coordinates assigned)
Cn1cc([N+](=O)[O-])c(C(=O)[N-]c2ccc(Br)c(S(=O)(=O)[NH+]3CCOCC3)c2)n1 (nonaromatic ring conformer: 98.02493417825487 kcal/mol)

>  <smiles>  (44) 
Cn1cc([N+](=O)[O-])c(C(=O)Nc2ccc(Br)c(S(=O)(=O)N3CCOCC3)c2)n1

>  <score_type>  (44) 
oracle

>  <origin>  (44) 
adgpu

>  <m_score__min__energy>  (44) 
-10.630000000000001

>  <m_primary>  (44) 
energy

$$$$
44:0
     RDKit          3D

 63 66  0  0  0  0  0  0  0  0999 V2000
   -6.8810   25.3510  -29.5010 N   0  0  0  0  0  0  0  0  0  0  0  0
   -5.8630   25.3250  -30.0500 C   0  0  0  0  0  0  0  0  0  0  0  0
   -4.5770   25.2920  -30.7530 C   0  0  0  0  0  0  0  0  0  0  0  0
   -3.4870   25.1250  -29.7970 N   0  0  0  0  0  0  0  0  0  0  0  0
   -3.1910   23.9410  -29.0410 C   0  0  0  0  0  0  0  0  0  0  0  0
   -3.5620   23.8880  -27.8380 O   0  0  0  0  0  0  0  0  0  0  0  0
   -2.4020   22.8180  -29.5920 C   0  0  0  0  0  0  0  0  0  0  0  0
   -1.2960   23.0450  -30.4220 C   0  0  0  0  0  0  0  0  0  0  0  0
   -0.5560   21.9720  -30.9260 C   0  0  0  0  0  0  0  0  0  0  0  0
   -0.9260   20.6470  -30.6290 C   0  0  0  0  0  0  0  0  0  0  0  0
   -0.1570   19.5370  -31.1360 N   0  0  0  0  0  0  0  0  0  0  0  0
    0.9540   19.7690  -32.0630 C   0  0  0  0  0  0  0  0  0  0  0  0
    1.3450   18.4730  -32.7930 C   0  0  0  0  0  0  0  0  0  0  0  0
    0.1660   17.6540  -33.1620 N   0  0  0  0  0  0  0  0  0  0  0  0
   -0.7460   18.4010  -34.4600 S   0  0  0  0  0  0  0  0  0  0  0  0
   -1.3220   17.3450  -35.3610 O   0  0  0  0  0  0  0  0  0  0  0  0
    0.1550   19.2930  -35.2680 O   0  0  0  0  0  0  0  0  0  0  0  0
   -2.0750   19.3550  -33.8010 C   0  0  0  0  0  0  0  0  0  0  0  0
   -1.9830   20.7530  -33.7660 C   0  0  0  0  0  0  0  0  0  0  0  0
   -3.0250   21.5140  -33.2380 C   0  0  0  0  0  0  0  0  0  0  0  0
   -4.1660   20.8870  -32.7170 C   0  0  0  0  0  0  0  0  0  0  0  0
   -5.4860   21.8520  -32.0520 S   0  0  0  0  0  0  0  0  0  0  0  0
   -5.2710   22.0110  -30.5710 O   0  0  0  0  0  0  0  0  0  0  0  0
   -5.4560   23.2210  -32.6700 O   0  0  0  0  0  0  0  0  0  0  0  0
   -7.0520   21.1380  -32.3600 N   0  0  0  0  0  0  0  0  0  0  0  0
   -7.1580   19.8090  -31.7360 C   0  0  0  0  0  0  0  0  0  0  0  0
   -8.5570   19.2080  -32.0010 C   0  0  0  0  0  0  0  0  0  0  0  0
   -9.3810   20.0950  -32.7330 O   0  0  0  0  0  0  0  0  0  0  0  0
   -9.5010   21.3170  -32.0260 C   0  0  0  0  0  0  0  0  0  0  0  0
   -8.1330   22.0160  -31.8770 C   0  0  0  0  0  0  0  0  0  0  0  0
   -4.2580   19.4900  -32.7430 C   0  0  0  0  0  0  0  0  0  0  0  0
   -3.2180   18.7270  -33.2830 C   0  0  0  0  0  0  0  0  0  0  0  0
   -0.7160   17.3090  -32.0100 C   0  0  0  0  0  0  0  0  0  0  0  0
   -0.4580   18.1540  -30.7520 C   0  0  0  0  0  0  0  0  0  0  0  0
   -2.0480   20.4230  -29.8110 C   0  0  0  0  0  0  0  0  0  0  0  0
   -2.7840   21.4980  -29.3090 C   0  0  0  0  0  0  0  0  0  0  0  0
   -4.5713   24.4508  -31.4618 H   0  0  0  0  0  0  0  0  0  0  0  0
   -4.4386   26.2391  -31.2950 H   0  0  0  0  0  0  0  0  0  0  0  0
   -1.0082   24.0752  -30.6787 H   0  0  0  0  0  0  0  0  0  0  0  0
    0.3223   22.1645  -31.5596 H   0  0  0  0  0  0  0  0  0  0  0  0
    0.6514   20.5223  -32.8053 H   0  0  0  0  0  0  0  0  0  0  0  0
    1.8223   20.1214  -31.4869 H   0  0  0  0  0  0  0  0  0  0  0  0
    1.8934   18.7357  -33.7097 H   0  0  0  0  0  0  0  0  0  0  0  0
    1.9661   17.8769  -32.1082 H   0  0  0  0  0  0  0  0  0  0  0  0
    0.5410   16.7590  -33.5530 H   0  0  0  0  0  0  0  0  0  0  0  0
   -1.0842   21.2523  -34.1570 H   0  0  0  0  0  0  0  0  0  0  0  0
   -2.9518   22.6115  -33.2300 H   0  0  0  0  0  0  0  0  0  0  0  0
   -6.3905   19.1453  -32.1608 H   0  0  0  0  0  0  0  0  0  0  0  0
   -7.0082   19.9078  -30.6507 H   0  0  0  0  0  0  0  0  0  0  0  0
   -8.4412   18.2757  -32.5733 H   0  0  0  0  0  0  0  0  0  0  0  0
   -9.0371   19.0192  -31.0295 H   0  0  0  0  0  0  0  0  0  0  0  0
  -10.1853   21.9819  -32.5735 H   0  0  0  0  0  0  0  0  0  0  0  0
   -9.8908   21.0994  -31.0207 H   0  0  0  0  0  0  0  0  0  0  0  0
   -8.1350   22.9456  -32.4651 H   0  0  0  0  0  0  0  0  0  0  0  0
   -7.9614   22.2415  -30.8141 H   0  0  0  0  0  0  0  0  0  0  0  0
   -5.1508   18.9914  -32.3375 H   0  0  0  0  0  0  0  0  0  0  0  0
   -3.2962   17.6299  -33.3018 H   0  0  0  0  0  0  0  0  0  0  0  0
   -1.7616   17.4570  -32.3180 H   0  0  0  0  0  0  0  0  0  0  0  0
   -0.4978   16.2645  -31.7429 H   0  0  0  0  0  0  0  0  0  0  0  0
   -1.3527   18.1391  -30.1122 H   0  0  0  0  0  0  0  0  0  0  0  0
    0.3977   17.7351  -30.2022 H   0  0  0  0  0  0  0  0  0  0  0  0
   -2.3478   19.3936  -29.5650 H   0  0  0  0  0  0  0  0  0  0  0  0
   -3.6708   21.3084  -28.6864 H   0  0  0  0  0  0  0  0  0  0  0  0
  1  2  3  0
  2  3  1  0
  3  4  1  0
  4  5  1  0
  5  6  2  0
  5  7  1  0
  7  8  2  0
  8  9  1  0
  9 10  2  0
 10 11  1  0
 11 12  1  0
 12 13  1  0
 13 14  1  0
 14 15  1  0
 15 16  2  0
 15 17  2  0
 15 18  1  0
 18 19  2  0
 19 20  1  0
 20 21  2  0
 21 22  1  0
 22 23  2  0
 22 24  2  0
 22 25  1  0
 25 26  1  0
 26 27  1  0
 27 28  1  0
 28 29  1  0
 29 30  1  0
 21 31  1  0
 31 32  2  0
 14 33  1  0
 33 34  1  0
 10 35  1  0
 35 36  2  0
 36  7  1  0
 34 11  1  0
 32 18  1  0
 30 25  1  0
  3 37  1  0
  3 38  1  0
  8 39  1  0
  9 40  1  0
 12 41  1  0
 12 42  1  0
 13 43  1  0
 13 44  1  0
 14 45  1  0
 19 46  1  0
 20 47  1  0
 26 48  1  0
 26 49  1  0
 27 50  1  0
 27 51  1  0
 29 52  1  0
 29 53  1  0
 30 54  1  0
 30 55  1  0
 31 56  1  0
 32 57  1  0
 33 58  1  0
 33 59  1  0
 34 60  1  0
 34 61  1  0
 35 62  1  0
 36 63  1  0
M  CHG  2   4  -1  14   1
M  END
>  <UniqueID>  (45) 
43

>  <SMILES>  (45) 
N#CC[N-]C(=O)c1ccc(N2CC[NH+](S(=O)(=O)c3ccc(S(=O)(=O)N4CCOCC4)cc3)CC2)cc1

>  <Energy>  (45) 
88.09177821775852

>  <Genealogy>  (45) 
N#CC[N-]C(=O)c1ccc(N2CC[NH+](S(=O)(=O)c3ccc(S(=O)(=O)N4CCOCC4)cc3)CC2)cc1 (protonated)
N#CC[N-]C(=O)c1ccc(N2CC[NH+](S(=O)(=O)c3ccc(S(=O)(=O)N4CCOCC4)cc3)CC2)cc1 (3D coordinates assigned)
N#CC[N-]C(=O)c1ccc(N2CC[NH+](S(=O)(=O)c3ccc(S(=O)(=O)N4CCOCC4)cc3)CC2)cc1 (nonaromatic ring conformer: 88.09177821775852 kcal/mol)

>  <smiles>  (45) 
N#CCNC(=O)c1ccc(N2CCN(S(=O)(=O)c3ccc(S(=O)(=O)N4CCOCC4)cc3)CC2)cc1

>  <score_type>  (45) 
oracle

>  <origin>  (45) 
adgpu

>  <m_score__min__energy>  (45) 
-11.26

>  <m_primary>  (45) 
energy

$$$$
45:0
     RDKit          3D

 56 59  0  0  0  0  0  0  0  0999 V2000
   -1.8540   25.2970  -29.2980 O   0  0  0  0  0  0  0  0  0  0  0  0
   -2.7250   24.4970  -29.7310 C   0  0  0  0  0  0  0  0  0  0  0  0
   -3.9450   24.9870  -30.3060 N   0  0  0  0  0  0  0  0  0  0  0  0
   -5.1120   24.2280  -30.6470 C   0  0  0  0  0  0  0  0  0  0  0  0
   -5.8160   23.5910  -29.6180 C   0  0  0  0  0  0  0  0  0  0  0  0
   -6.9810   22.8730  -29.8960 C   0  0  0  0  0  0  0  0  0  0  0  0
   -7.4630   22.7860  -31.2090 C   0  0  0  0  0  0  0  0  0  0  0  0
   -8.9450   21.8830  -31.5540 S   0  0  0  0  0  0  0  0  0  0  0  0
   -9.8530   22.7350  -32.3970 O   0  0  0  0  0  0  0  0  0  0  0  0
   -9.6530   21.5910  -30.2590 O   0  0  0  0  0  0  0  0  0  0  0  0
   -8.6400   20.3760  -32.3860 N   0  0  0  0  0  0  0  0  0  0  0  0
   -8.7180   19.2270  -31.4840 C   0  0  0  0  0  0  0  0  0  0  0  0
   -7.8450   18.1540  -32.0970 C   0  0  0  0  0  0  0  0  0  0  0  0
   -6.7590   18.9240  -32.8220 C   0  0  0  0  0  0  0  0  0  0  0  0
   -7.3080   20.3370  -32.9980 C   0  0  0  0  0  0  0  0  0  0  0  0
   -6.7810   23.4520  -32.2380 C   0  0  0  0  0  0  0  0  0  0  0  0
   -5.6110   24.1680  -31.9600 C   0  0  0  0  0  0  0  0  0  0  0  0
   -2.4790   23.0900  -29.6440 N   0  0  0  0  0  0  0  0  0  0  0  0
   -2.6010   22.1510  -30.7230 C   0  0  0  0  0  0  0  0  0  0  0  0
   -3.8000   21.4550  -30.9670 C   0  0  0  0  0  0  0  0  0  0  0  0
   -3.8890   20.5610  -32.0360 C   0  0  0  0  0  0  0  0  0  0  0  0
   -2.7920   20.3640  -32.8790 C   0  0  0  0  0  0  0  0  0  0  0  0
   -1.6040   21.0740  -32.6630 C   0  0  0  0  0  0  0  0  0  0  0  0
   -0.2410   20.8770  -33.7600 S   0  0  0  0  0  0  0  0  0  0  0  0
    1.0340   21.0190  -32.9780 O   0  0  0  0  0  0  0  0  0  0  0  0
   -0.2670   19.5060  -34.3740 O   0  0  0  0  0  0  0  0  0  0  0  0
   -0.2640   22.0640  -35.0240 N   0  0  0  0  0  0  0  0  0  0  0  0
    0.9180   22.6930  -35.5290 C   0  0  0  0  0  0  0  0  0  0  0  0
    0.9450   24.0700  -35.7990 C   0  0  0  0  0  0  0  0  0  0  0  0
    2.1070   24.6680  -36.2920 C   0  0  0  0  0  0  0  0  0  0  0  0
    3.2530   23.8990  -36.5080 C   0  0  0  0  0  0  0  0  0  0  0  0
    3.2430   22.5320  -36.2180 C   0  0  0  0  0  0  0  0  0  0  0  0
    2.0800   21.9250  -35.7190 C   0  0  0  0  0  0  0  0  0  0  0  0
    2.0690   20.5620  -35.4250 O   0  0  0  0  0  0  0  0  0  0  0  0
   -1.5180   21.9760  -31.5930 C   0  0  0  0  0  0  0  0  0  0  0  0
   -5.4488   23.6566  -28.5832 H   0  0  0  0  0  0  0  0  0  0  0  0
   -7.5233   22.3730  -29.0799 H   0  0  0  0  0  0  0  0  0  0  0  0
   -8.3447   19.4990  -30.4857 H   0  0  0  0  0  0  0  0  0  0  0  0
   -9.7550   18.8810  -31.3619 H   0  0  0  0  0  0  0  0  0  0  0  0
   -7.4120   17.5109  -31.3166 H   0  0  0  0  0  0  0  0  0  0  0  0
   -8.4068   17.4873  -32.7677 H   0  0  0  0  0  0  0  0  0  0  0  0
   -5.8361   18.9421  -32.2238 H   0  0  0  0  0  0  0  0  0  0  0  0
   -6.5065   18.4615  -33.7876 H   0  0  0  0  0  0  0  0  0  0  0  0
   -6.6457   21.0611  -32.5009 H   0  0  0  0  0  0  0  0  0  0  0  0
   -7.3659   20.5982  -34.0650 H   0  0  0  0  0  0  0  0  0  0  0  0
   -7.1671   23.4114  -33.2672 H   0  0  0  0  0  0  0  0  0  0  0  0
   -5.0797   24.6859  -32.7721 H   0  0  0  0  0  0  0  0  0  0  0  0
   -4.6699   21.6159  -30.3133 H   0  0  0  0  0  0  0  0  0  0  0  0
   -4.8245   20.0107  -32.2149 H   0  0  0  0  0  0  0  0  0  0  0  0
   -2.8615   19.6504  -33.7133 H   0  0  0  0  0  0  0  0  0  0  0  0
    0.0475   24.6807  -35.6217 H   0  0  0  0  0  0  0  0  0  0  0  0
    2.1197   25.7460  -36.5105 H   0  0  0  0  0  0  0  0  0  0  0  0
    4.1638   24.3697  -36.9066 H   0  0  0  0  0  0  0  0  0  0  0  0
    4.1491   21.9300  -36.3812 H   0  0  0  0  0  0  0  0  0  0  0  0
    1.2870   20.1300  -34.9490 H   0  0  0  0  0  0  0  0  0  0  0  0
   -0.5931   22.5503  -31.4359 H   0  0  0  0  0  0  0  0  0  0  0  0
  1  2  2  0
  2  3  1  0
  3  4  1  0
  4  5  2  0
  5  6  1  0
  6  7  2  0
  7  8  1  0
  8  9  2  0
  8 10  2  0
  8 11  1  0
 11 12  1  0
 12 13  1  0
 13 14  1  0
 14 15  1  0
  7 16  1  0
 16 17  2  0
  2 18  1  0
 18 19  1  0
 19 20  2  0
 20 21  1  0
 21 22  2  0
 22 23  1  0
 23 24  1  0
 24 25  2  0
 24 26  2  0
 24 27  1  0
 27 28  1  0
 28 29  2  0
 29 30  1  0
 30 31  2  0
 31 32  1  0
 32 33  2  0
 33 34  1  0
 23 35  2  0
 17  4  1  0
 35 19  1  0
 15 11  1  0
 33 28  1  0
  5 36  1  0
  6 37  1  0
 12 38  1  0
 12 39  1  0
 13 40  1  0
 13 41  1  0
 14 42  1  0
 14 43  1  0
 15 44  1  0
 15 45  1  0
 16 46  1  0
 17 47  1  0
 20 48  1  0
 21 49  1  0
 22 50  1  0
 29 51  1  0
 30 52  1  0
 31 53  1  0
 32 54  1  0
 34 55  1  0
 35 56  1  0
M  CHG  3   3  -1  18  -1  27  -1
M  END
>  <UniqueID>  (46) 
44

>  <SMILES>  (46) 
O=C([N-]c1ccc(S(=O)(=O)N2CCCC2)cc1)[N-]c1cccc(S(=O)(=O)[N-]c2ccccc2O)c1

>  <Energy>  (46) 
75.94968168054204

>  <Genealogy>  (46) 
O=C([N-]c1ccc(S(=O)(=O)N2CCCC2)cc1)[N-]c1cccc(S(=O)(=O)[N-]c2ccccc2O)c1 (protonated)
O=C([N-]c1ccc(S(=O)(=O)N2CCCC2)cc1)[N-]c1cccc(S(=O)(=O)[N-]c2ccccc2O)c1 (3D coordinates assigned)
O=C([N-]c1ccc(S(=O)(=O)N2CCCC2)cc1)[N-]c1cccc(S(=O)(=O)[N-]c2ccccc2O)c1 (nonaromatic ring conformer: 75.94968168054204 kcal/mol)

>  <smiles>  (46) 
O=C(Nc1ccc(S(=O)(=O)N2CCCC2)cc1)Nc1cccc(S(=O)(=O)Nc2ccccc2O)c1

>  <score_type>  (46) 
oracle

>  <origin>  (46) 
adgpu

>  <m_score__min__energy>  (46) 
-13.109999999999999

>  <m_primary>  (46) 
energy

$$$$
46:0
     RDKit          3D

 47 49  0  0  0  0  0  0  0  0999 V2000
   -4.5970   24.3440  -28.7850 O   0  0  0  0  0  0  0  0  0  0  0  0
   -3.6390   24.5320  -29.9290 S   0  0  0  0  0  0  0  0  0  0  0  0
   -4.2680   25.4670  -30.9220 O   0  0  0  0  0  0  0  0  0  0  0  0
   -2.1630   25.2430  -29.3390 N   0  0  0  0  0  0  0  0  0  0  0  0
   -1.9250   24.9080  -27.9330 C   0  0  0  0  0  0  0  0  0  0  0  0
   -1.5070   23.4690  -27.7730 C   0  0  0  0  0  0  0  0  0  0  0  0
   -2.4540   22.4840  -27.4580 C   0  0  0  0  0  0  0  0  0  0  0  0
   -2.0570   21.1530  -27.3180 C   0  0  0  0  0  0  0  0  0  0  0  0
   -0.7120   20.8200  -27.4860 C   0  0  0  0  0  0  0  0  0  0  0  0
    0.1980   21.7860  -27.7820 N   0  0  0  0  0  0  0  0  0  0  0  0
   -0.1650   23.0890  -27.9250 C   0  0  0  0  0  0  0  0  0  0  0  0
   -3.3300   22.9890  -30.7240 C   0  0  0  0  0  0  0  0  0  0  0  0
   -2.0160   22.5240  -30.8460 C   0  0  0  0  0  0  0  0  0  0  0  0
   -1.7610   21.2920  -31.4530 C   0  0  0  0  0  0  0  0  0  0  0  0
   -2.8190   20.5080  -31.9350 C   0  0  0  0  0  0  0  0  0  0  0  0
   -2.5590   19.2810  -32.5430 O   0  0  0  0  0  0  0  0  0  0  0  0
   -4.1420   20.9660  -31.8030 C   0  0  0  0  0  0  0  0  0  0  0  0
   -5.4830   19.9910  -32.4110 S   0  0  0  0  0  0  0  0  0  0  0  0
   -5.4650   20.0330  -33.9130 O   0  0  0  0  0  0  0  0  0  0  0  0
   -5.3280   18.5610  -31.9670 O   0  0  0  0  0  0  0  0  0  0  0  0
   -6.9940   20.6350  -31.8190 N   0  0  0  0  0  0  0  0  0  0  0  0
   -8.1070   19.7490  -32.2200 C   0  0  0  0  0  0  0  0  0  0  0  0
   -9.4900   20.4130  -32.0350 C   0  0  0  0  0  0  0  0  0  0  0  0
   -9.4110   21.6320  -31.1150 C   0  0  0  0  0  0  0  0  0  0  0  0
   -8.4030   22.6620  -31.6510 C   0  0  0  0  0  0  0  0  0  0  0  0
   -7.1930   22.0000  -32.3360 C   0  0  0  0  0  0  0  0  0  0  0  0
   -4.3900   22.2100  -31.2050 C   0  0  0  0  0  0  0  0  0  0  0  0
   -1.1289   25.5576  -27.5403 H   0  0  0  0  0  0  0  0  0  0  0  0
   -2.8624   25.0596  -27.3778 H   0  0  0  0  0  0  0  0  0  0  0  0
   -3.5099   22.7602  -27.3212 H   0  0  0  0  0  0  0  0  0  0  0  0
   -2.7964   20.3748  -27.0778 H   0  0  0  0  0  0  0  0  0  0  0  0
   -0.3877   19.7744  -27.3788 H   0  0  0  0  0  0  0  0  0  0  0  0
    0.5961   23.8474  -28.1606 H   0  0  0  0  0  0  0  0  0  0  0  0
   -1.1817   23.1301  -30.4630 H   0  0  0  0  0  0  0  0  0  0  0  0
   -0.7253   20.9352  -31.5534 H   0  0  0  0  0  0  0  0  0  0  0  0
   -3.3050   18.6450  -32.7960 H   0  0  0  0  0  0  0  0  0  0  0  0
   -7.9822   19.4841  -33.2803 H   0  0  0  0  0  0  0  0  0  0  0  0
   -8.0748   18.8595  -31.5736 H   0  0  0  0  0  0  0  0  0  0  0  0
   -9.8673   20.7315  -33.0179 H   0  0  0  0  0  0  0  0  0  0  0  0
  -10.1657   19.6775  -31.5741 H   0  0  0  0  0  0  0  0  0  0  0  0
  -10.4045   22.1000  -31.0518 H   0  0  0  0  0  0  0  0  0  0  0  0
   -9.0777   21.2998  -30.1207 H   0  0  0  0  0  0  0  0  0  0  0  0
   -8.9126   23.3075  -32.3815 H   0  0  0  0  0  0  0  0  0  0  0  0
   -8.0275   23.2402  -30.7939 H   0  0  0  0  0  0  0  0  0  0  0  0
   -7.3705   21.9545  -33.4206 H   0  0  0  0  0  0  0  0  0  0  0  0
   -6.2930   22.5963  -32.1251 H   0  0  0  0  0  0  0  0  0  0  0  0
   -5.4232   22.5762  -31.1131 H   0  0  0  0  0  0  0  0  0  0  0  0
  1  2  2  0
  2  3  2  0
  2  4  1  0
  4  5  1  0
  5  6  1  0
  6  7  2  0
  7  8  1  0
  8  9  2  0
  9 10  1  0
 10 11  2  0
  2 12  1  0
 12 13  2  0
 13 14  1  0
 14 15  2  0
 15 16  1  0
 15 17  1  0
 17 18  1  0
 18 19  2  0
 18 20  2  0
 18 21  1  0
 21 22  1  0
 22 23  1  0
 23 24  1  0
 24 25  1  0
 25 26  1  0
 17 27  2  0
 11  6  1  0
 27 12  1  0
 26 21  1  0
  5 28  1  0
  5 29  1  0
  7 30  1  0
  8 31  1  0
  9 32  1  0
 11 33  1  0
 13 34  1  0
 14 35  1  0
 16 36  1  0
 22 37  1  0
 22 38  1  0
 23 39  1  0
 23 40  1  0
 24 41  1  0
 24 42  1  0
 25 43  1  0
 25 44  1  0
 26 45  1  0
 26 46  1  0
 27 47  1  0
M  CHG  1   4  -1
M  END
>  <UniqueID>  (47) 
45

>  <SMILES>  (47) 
O=S(=O)([N-]Cc1cccnc1)c1ccc(O)c(S(=O)(=O)N2CCCCC2)c1

>  <Energy>  (47) 
49.727197086316636

>  <Genealogy>  (47) 
O=S(=O)([N-]Cc1cccnc1)c1ccc(O)c(S(=O)(=O)N2CCCCC2)c1 (protonated)
O=S(=O)([N-]Cc1cccnc1)c1ccc(O)c(S(=O)(=O)N2CCCCC2)c1 (3D coordinates assigned)
O=S(=O)([N-]Cc1cccnc1)c1ccc(O)c(S(=O)(=O)N2CCCCC2)c1 (nonaromatic ring conformer: 49.727197086316636 kcal/mol)

>  <smiles>  (47) 
O=S(=O)(NCc1cccnc1)c1ccc(O)c(S(=O)(=O)N2CCCCC2)c1

>  <score_type>  (47) 
oracle

>  <origin>  (47) 
adgpu

>  <m_score__min__energy>  (47) 
-10.220000000000001

>  <m_primary>  (47) 
energy

$$$$
47:0
     RDKit          3D

 57 60  0  0  0  0  0  0  0  0999 V2000
   -9.0180   20.7960  -32.3050 C   0  0  0  0  0  0  0  0  0  0  0  0
   -8.1140   21.8450  -31.7370 C   0  0  0  0  0  0  0  0  0  0  0  0
   -8.0810   22.0810  -30.3550 C   0  0  0  0  0  0  0  0  0  0  0  0
   -7.2200   23.0480  -29.8250 C   0  0  0  0  0  0  0  0  0  0  0  0
   -6.3760   23.7810  -30.6720 C   0  0  0  0  0  0  0  0  0  0  0  0
   -5.2820   24.9990  -30.0210 S   0  0  0  0  0  0  0  0  0  0  0  0
   -5.7420   26.3610  -30.4630 O   0  0  0  0  0  0  0  0  0  0  0  0
   -5.2770   24.9320  -28.5190 O   0  0  0  0  0  0  0  0  0  0  0  0
   -3.6890   24.6860  -30.6200 N   0  0  0  0  0  0  0  0  0  0  0  0
   -2.9680   23.4510  -30.4930 C   0  0  0  0  0  0  0  0  0  0  0  0
   -3.4470   22.2720  -31.0970 C   0  0  0  0  0  0  0  0  0  0  0  0
   -2.7550   21.0700  -30.9580 C   0  0  0  0  0  0  0  0  0  0  0  0
   -1.5780   21.0230  -30.2120 C   0  0  0  0  0  0  0  0  0  0  0  0
   -1.0900   22.1790  -29.6030 C   0  0  0  0  0  0  0  0  0  0  0  0
   -1.7690   23.4050  -29.7310 C   0  0  0  0  0  0  0  0  0  0  0  0
   -1.2220   24.6090  -29.0480 C   0  0  0  0  0  0  0  0  0  0  0  0
   -1.9150   25.6560  -28.9450 O   0  0  0  0  0  0  0  0  0  0  0  0
    0.1220   24.5950  -28.5470 N   0  0  0  0  0  0  0  0  0  0  0  0
    0.5150   24.4580  -27.1740 C   0  0  0  0  0  0  0  0  0  0  0  0
    0.2320   23.2570  -26.5110 C   0  0  0  0  0  0  0  0  0  0  0  0
    0.5700   23.0950  -25.1650 C   0  0  0  0  0  0  0  0  0  0  0  0
    1.1780   24.1390  -24.4650 C   0  0  0  0  0  0  0  0  0  0  0  0
    1.4500   25.3520  -25.1080 C   0  0  0  0  0  0  0  0  0  0  0  0
    2.1870   26.6720  -24.2010 S   0  0  0  0  0  0  0  0  0  0  0  0
    3.0600   27.4980  -25.1070 O   0  0  0  0  0  0  0  0  0  0  0  0
    3.0440   26.0820  -23.1160 O   0  0  0  0  0  0  0  0  0  0  0  0
    0.9320   27.6690  -23.4940 N   0  0  0  0  0  0  0  0  0  0  0  0
   -0.1970   26.8430  -23.0530 C   0  0  0  0  0  0  0  0  0  0  0  0
   -1.2250   26.8010  -24.1760 C   0  0  0  0  0  0  0  0  0  0  0  0
   -0.8230   27.9020  -25.1390 C   0  0  0  0  0  0  0  0  0  0  0  0
    0.3760   28.5810  -24.4980 C   0  0  0  0  0  0  0  0  0  0  0  0
    1.1080   25.5140  -26.4590 C   0  0  0  0  0  0  0  0  0  0  0  0
   -6.3930   23.5300  -32.0490 C   0  0  0  0  0  0  0  0  0  0  0  0
   -7.2530   22.5630  -32.5810 C   0  0  0  0  0  0  0  0  0  0  0  0
   -9.4964   20.2409  -31.4846 H   0  0  0  0  0  0  0  0  0  0  0  0
   -9.7914   21.2744  -32.9239 H   0  0  0  0  0  0  0  0  0  0  0  0
   -8.4306   20.1018  -32.9239 H   0  0  0  0  0  0  0  0  0  0  0  0
   -8.7348   21.5034  -29.6849 H   0  0  0  0  0  0  0  0  0  0  0  0
   -7.2049   23.2339  -28.7409 H   0  0  0  0  0  0  0  0  0  0  0  0
   -4.3766   22.3002  -31.6844 H   0  0  0  0  0  0  0  0  0  0  0  0
   -3.1381   20.1572  -31.4376 H   0  0  0  0  0  0  0  0  0  0  0  0
   -1.0337   20.0732  -30.1036 H   0  0  0  0  0  0  0  0  0  0  0  0
   -0.1618   22.1318  -29.0146 H   0  0  0  0  0  0  0  0  0  0  0  0
   -0.2596   22.4360  -27.0536 H   0  0  0  0  0  0  0  0  0  0  0  0
    0.3568   22.1435  -24.6560 H   0  0  0  0  0  0  0  0  0  0  0  0
    1.4438   24.0078  -23.4057 H   0  0  0  0  0  0  0  0  0  0  0  0
    0.1522   25.8240  -22.8299 H   0  0  0  0  0  0  0  0  0  0  0  0
   -0.6459   27.2686  -22.1434 H   0  0  0  0  0  0  0  0  0  0  0  0
   -1.2034   25.8234  -24.6799 H   0  0  0  0  0  0  0  0  0  0  0  0
   -2.2476   26.9452  -23.7971 H   0  0  0  0  0  0  0  0  0  0  0  0
   -0.5481   27.4775  -26.1158 H   0  0  0  0  0  0  0  0  0  0  0  0
   -1.6461   28.6093  -25.3183 H   0  0  0  0  0  0  0  0  0  0  0  0
    1.1345   28.7996  -25.2641 H   0  0  0  0  0  0  0  0  0  0  0  0
    0.0717   29.5272  -24.0268 H   0  0  0  0  0  0  0  0  0  0  0  0
    1.3048   26.4723  -26.9618 H   0  0  0  0  0  0  0  0  0  0  0  0
   -5.7266   24.0961  -32.7165 H   0  0  0  0  0  0  0  0  0  0  0  0
   -7.2542   22.3652  -33.6631 H   0  0  0  0  0  0  0  0  0  0  0  0
  1  2  1  0
  2  3  2  0
  3  4  1  0
  4  5  2  0
  5  6  1  0
  6  7  2  0
  6  8  2  0
  6  9  1  0
  9 10  1  0
 10 11  2  0
 11 12  1  0
 12 13  2  0
 13 14  1  0
 14 15  2  0
 15 16  1  0
 16 17  2  0
 16 18  1  0
 18 19  1  0
 19 20  2  0
 20 21  1  0
 21 22  2  0
 22 23  1  0
 23 24  1  0
 24 25  2  0
 24 26  2  0
 24 27  1  0
 27 28  1  0
 28 29  1  0
 29 30  1  0
 30 31  1  0
 23 32  2  0
  5 33  1  0
 33 34  2  0
 34  2  1  0
 15 10  1  0
 32 19  1  0
 31 27  1  0
  1 35  1  0
  1 36  1  0
  1 37  1  0
  3 38  1  0
  4 39  1  0
 11 40  1  0
 12 41  1  0
 13 42  1  0
 14 43  1  0
 20 44  1  0
 21 45  1  0
 22 46  1  0
 28 47  1  0
 28 48  1  0
 29 49  1  0
 29 50  1  0
 30 51  1  0
 30 52  1  0
 31 53  1  0
 31 54  1  0
 32 55  1  0
 33 56  1  0
 34 57  1  0
M  CHG  2   9  -1  18  -1
M  END
>  <UniqueID>  (48) 
46

>  <SMILES>  (48) 
Cc1ccc(S(=O)(=O)[N-]c2ccccc2C(=O)[N-]c2cccc(S(=O)(=O)N3CCCC3)c2)cc1

>  <Energy>  (48) 
71.16771558443448

>  <Genealogy>  (48) 
Cc1ccc(S(=O)(=O)[N-]c2ccccc2C(=O)[N-]c2cccc(S(=O)(=O)N3CCCC3)c2)cc1 (protonated)
Cc1ccc(S(=O)(=O)[N-]c2ccccc2C(=O)[N-]c2cccc(S(=O)(=O)N3CCCC3)c2)cc1 (3D coordinates assigned)
Cc1ccc(S(=O)(=O)[N-]c2ccccc2C(=O)[N-]c2cccc(S(=O)(=O)N3CCCC3)c2)cc1 (nonaromatic ring conformer: 71.16771558443448 kcal/mol)

>  <smiles>  (48) 
Cc1ccc(S(=O)(=O)Nc2ccccc2C(=O)Nc2cccc(S(=O)(=O)N3CCCC3)c2)cc1

>  <score_type>  (48) 
oracle

>  <origin>  (48) 
adgpu

>  <m_score__min__energy>  (48) 
-12.619999999999999

>  <m_primary>  (48) 
energy

$$$$
