0:0
     RDKit          3D

 47 49  0  0  0  0  0  0  0  0999 V2000
   -1.1950   25.6740  -28.3100 C   0  0  0  0  0  0  0  0  0  0  0  0
   -2.2100   24.7080  -28.7540 N   0  0  0  0  0  0  0  0  0  0  0  0
   -3.1450   24.4000  -27.6620 C   0  0  0  0  0  0  0  0  0  0  0  0
   -4.3250   23.5720  -28.2050 C   0  0  0  0  0  0  0  0  0  0  0  0
   -3.9500   22.6750  -29.3220 N   0  0  0  0  0  0  0  0  0  0  0  0
   -4.4060   23.3340  -30.8800 S   0  0  0  0  0  0  0  0  0  0  0  0
   -4.3160   24.8350  -30.8700 O   0  0  0  0  0  0  0  0  0  0  0  0
   -3.4940   22.8060  -31.9540 O   0  0  0  0  0  0  0  0  0  0  0  0
   -6.0540   22.8390  -31.2520 C   0  0  0  0  0  0  0  0  0  0  0  0
   -7.0700   23.8010  -31.3160 C   0  0  0  0  0  0  0  0  0  0  0  0
   -8.3800   23.4200  -31.6200 C   0  0  0  0  0  0  0  0  0  0  0  0
   -8.6800   22.0790  -31.8700 C   0  0  0  0  0  0  0  0  0  0  0  0
   -7.6670   21.1100  -31.8230 C   0  0  0  0  0  0  0  0  0  0  0  0
   -8.0380   19.4150  -32.1200 S   0  0  0  0  0  0  0  0  0  0  0  0
   -9.1560   19.3230  -33.1200 O   0  0  0  0  0  0  0  0  0  0  0  0
   -8.4860   18.7600  -30.8410 O   0  0  0  0  0  0  0  0  0  0  0  0
   -6.6210   18.6180  -32.7540 N   0  0  0  0  0  0  0  0  0  0  0  0
   -6.9060   17.2280  -33.1050 C   0  0  0  0  0  0  0  0  0  0  0  0
   -5.9290   16.8500  -34.2070 C   0  0  0  0  0  0  0  0  0  0  0  0
   -5.4470   18.1700  -34.7890 C   0  0  0  0  0  0  0  0  0  0  0  0
   -6.1680   19.2480  -33.9940 C   0  0  0  0  0  0  0  0  0  0  0  0
   -6.3560   21.4930  -31.5080 C   0  0  0  0  0  0  0  0  0  0  0  0
   -2.5330   22.2720  -29.2870 C   0  0  0  0  0  0  0  0  0  0  0  0
   -1.5680   23.4780  -29.2670 C   0  0  0  0  0  0  0  0  0  0  0  0
   -1.1687   25.6990  -27.2106 H   0  0  0  0  0  0  0  0  0  0  0  0
   -0.2092   25.3724  -28.6936 H   0  0  0  0  0  0  0  0  0  0  0  0
   -1.4475   26.6736  -28.6936 H   0  0  0  0  0  0  0  0  0  0  0  0
   -2.6217   23.8242  -26.8844 H   0  0  0  0  0  0  0  0  0  0  0  0
   -3.5261   25.3389  -27.2338 H   0  0  0  0  0  0  0  0  0  0  0  0
   -4.7268   22.9585  -27.3851 H   0  0  0  0  0  0  0  0  0  0  0  0
   -5.0680   24.2831  -28.5953 H   0  0  0  0  0  0  0  0  0  0  0  0
   -6.8364   24.8591  -31.1265 H   0  0  0  0  0  0  0  0  0  0  0  0
   -9.1762   24.1778  -31.6624 H   0  0  0  0  0  0  0  0  0  0  0  0
   -9.7130   21.7822  -32.1043 H   0  0  0  0  0  0  0  0  0  0  0  0
   -6.7610   16.5779  -32.2296 H   0  0  0  0  0  0  0  0  0  0  0  0
   -7.9471   17.1084  -33.4392 H   0  0  0  0  0  0  0  0  0  0  0  0
   -5.0839   16.2802  -33.7934 H   0  0  0  0  0  0  0  0  0  0  0  0
   -6.3998   16.2135  -34.9707 H   0  0  0  0  0  0  0  0  0  0  0  0
   -4.3578   18.2680  -34.6708 H   0  0  0  0  0  0  0  0  0  0  0  0
   -5.6590   18.2445  -35.8658 H   0  0  0  0  0  0  0  0  0  0  0  0
   -5.4815   20.0777  -33.7697 H   0  0  0  0  0  0  0  0  0  0  0  0
   -7.0145   19.6614  -34.5619 H   0  0  0  0  0  0  0  0  0  0  0  0
   -5.5603   20.7349  -31.4613 H   0  0  0  0  0  0  0  0  0  0  0  0
   -2.3612   21.6694  -28.3829 H   0  0  0  0  0  0  0  0  0  0  0  0
   -2.3287   21.6996  -30.2038 H   0  0  0  0  0  0  0  0  0  0  0  0
   -0.7102   23.2329  -28.6235 H   0  0  0  0  0  0  0  0  0  0  0  0
   -1.2535   23.6720  -30.3031 H   0  0  0  0  0  0  0  0  0  0  0  0
  1  2  1  0
  2  3  1  0
  3  4  1  0
  4  5  1  0
  5  6  1  0
  6  7  2  0
  6  8  2  0
  6  9  1  0
  9 10  2  0
 10 11  1  0
 11 12  2  0
 12 13  1  0
 13 14  1  0
 14 15  2  0
 14 16  2  0
 14 17  1  0
 17 18  1  0
 18 19  1  0
 19 20  1  0
 20 21  1  0
 13 22  2  0
  5 23  1  0
 23 24  1  0
 24  2  1  0
 22  9  1  0
 21 17  1  0
  1 25  1  0
  1 26  1  0
  1 27  1  0
  3 28  1  0
  3 29  1  0
  4 30  1  0
  4 31  1  0
 10 32  1  0
 11 33  1  0
 12 34  1  0
 18 35  1  0
 18 36  1  0
 19 37  1  0
 19 38  1  0
 20 39  1  0
 20 40  1  0
 21 41  1  0
 21 42  1  0
 22 43  1  0
 23 44  1  0
 23 45  1  0
 24 46  1  0
 24 47  1  0
M  END
>  <UniqueID>  (1) 
1

>  <SMILES>  (1) 
CN1CCN(S(=O)(=O)c2cccc(S(=O)(=O)N3CCCC3)c2)CC1

>  <Energy>  (1) 
56.55887241857626

>  <Genealogy>  (1) 
CN1CCN(S(=O)(=O)c2cccc(S(=O)(=O)N3CCCC3)c2)CC1 (3D coordinates assigned)
CN1CCN(S(=O)(=O)c2cccc(S(=O)(=O)N3CCCC3)c2)CC1 (nonaromatic ring conformer: 56.55887241857626 kcal/mol)

>  <smiles>  (1) 
CN1CCN(S(=O)(=O)c2cccc(S(=O)(=O)N3CCCC3)c2)CC1

>  <score_type>  (1) 
oracle

>  <origin>  (1) 
adgpu

>  <m_score__min__energy>  (1) 
-9.8499999999999996

>  <m_primary>  (1) 
energy

$$$$
1:0
     RDKit          3D

 53 56  0  0  0  0  0  0  0  0999 V2000
   -5.2760   18.7540  -32.9600 C   0  0  0  0  0  0  0  0  0  0  0  0
   -6.6400   19.0500  -32.5340 N   0  0  0  0  0  0  0  0  0  0  0  0
   -7.7910   18.1660  -32.7220 C   0  0  0  0  0  0  0  0  0  0  0  0
   -8.9990   18.9060  -32.0920 C   0  0  0  0  0  0  0  0  0  0  0  0
   -8.3980   20.1680  -31.5690 C   0  0  0  0  0  0  0  0  0  0  0  0
   -9.0310   21.2100  -30.8910 C   0  0  0  0  0  0  0  0  0  0  0  0
   -8.2610   22.3080  -30.4740 C   0  0  0  0  0  0  0  0  0  0  0  0
   -6.8650   22.3390  -30.7240 C   0  0  0  0  0  0  0  0  0  0  0  0
   -6.0390   23.4350  -30.2980 N   0  0  0  0  0  0  0  0  0  0  0  0
   -5.1900   24.2360  -31.1290 C   0  0  0  0  0  0  0  0  0  0  0  0
   -5.5680   24.5190  -32.2960 O   0  0  0  0  0  0  0  0  0  0  0  0
   -3.9210   24.7000  -30.6510 N   0  0  0  0  0  0  0  0  0  0  0  0
   -3.0050   23.9270  -29.8660 C   0  0  0  0  0  0  0  0  0  0  0  0
   -3.0140   22.5340  -30.0060 C   0  0  0  0  0  0  0  0  0  0  0  0
   -2.1350   21.7450  -29.2630 C   0  0  0  0  0  0  0  0  0  0  0  0
   -1.2290   22.3440  -28.3850 C   0  0  0  0  0  0  0  0  0  0  0  0
   -1.1700   23.7390  -28.2680 C   0  0  0  0  0  0  0  0  0  0  0  0
    0.0390   24.4580  -27.1920 S   0  0  0  0  0  0  0  0  0  0  0  0
    1.1690   23.4770  -27.0400 O   0  0  0  0  0  0  0  0  0  0  0  0
    0.5980   25.7150  -27.7990 O   0  0  0  0  0  0  0  0  0  0  0  0
   -0.6390   24.7920  -25.6110 N   0  0  0  0  0  0  0  0  0  0  0  0
   -1.7500   25.7640  -25.6700 C   0  0  0  0  0  0  0  0  0  0  0  0
   -1.2740   27.2140  -25.8830 C   0  0  0  0  0  0  0  0  0  0  0  0
    0.0270   27.5470  -25.1310 C   0  0  0  0  0  0  0  0  0  0  0  0
    0.3150   26.5330  -24.0260 C   0  0  0  0  0  0  0  0  0  0  0  0
    0.4120   25.1130  -24.6110 C   0  0  0  0  0  0  0  0  0  0  0  0
   -2.0570   24.5350  -29.0200 C   0  0  0  0  0  0  0  0  0  0  0  0
   -1.9770   25.9210  -28.9600 O   0  0  0  0  0  0  0  0  0  0  0  0
   -6.2660   21.2880  -31.4420 C   0  0  0  0  0  0  0  0  0  0  0  0
   -7.0600   20.2120  -31.8430 C   0  0  0  0  0  0  0  0  0  0  0  0
   -4.6374   18.6154  -32.0751 H   0  0  0  0  0  0  0  0  0  0  0  0
   -5.2717   17.8340  -33.5630 H   0  0  0  0  0  0  0  0  0  0  0  0
   -4.8907   19.5894  -33.5630 H   0  0  0  0  0  0  0  0  0  0  0  0
   -7.9668   17.9885  -33.7933 H   0  0  0  0  0  0  0  0  0  0  0  0
   -7.6283   17.1842  -32.2534 H   0  0  0  0  0  0  0  0  0  0  0  0
   -9.7675   19.1205  -32.8492 H   0  0  0  0  0  0  0  0  0  0  0  0
   -9.5047   18.3165  -31.3130 H   0  0  0  0  0  0  0  0  0  0  0  0
  -10.1113   21.1724  -30.6871 H   0  0  0  0  0  0  0  0  0  0  0  0
   -8.7425   23.1476  -29.9513 H   0  0  0  0  0  0  0  0  0  0  0  0
   -3.7177   22.0590  -30.7054 H   0  0  0  0  0  0  0  0  0  0  0  0
   -2.1557   20.6503  -29.3689 H   0  0  0  0  0  0  0  0  0  0  0  0
   -0.5571   21.7163  -27.7812 H   0  0  0  0  0  0  0  0  0  0  0  0
   -2.4133   25.4874  -26.5028 H   0  0  0  0  0  0  0  0  0  0  0  0
   -2.2689   25.7282  -24.7007 H   0  0  0  0  0  0  0  0  0  0  0  0
   -1.1050   27.3711  -26.9585 H   0  0  0  0  0  0  0  0  0  0  0  0
   -2.0577   27.8749  -25.4844 H   0  0  0  0  0  0  0  0  0  0  0  0
    0.8631   27.5427  -25.8457 H   0  0  0  0  0  0  0  0  0  0  0  0
   -0.0889   28.5373  -24.6665 H   0  0  0  0  0  0  0  0  0  0  0  0
    1.2669   26.7895  -23.5381 H   0  0  0  0  0  0  0  0  0  0  0  0
   -0.5055   26.5614  -23.2938 H   0  0  0  0  0  0  0  0  0  0  0  0
    1.3935   25.0063  -25.0960 H   0  0  0  0  0  0  0  0  0  0  0  0
    0.2726   24.4157  -23.7717 H   0  0  0  0  0  0  0  0  0  0  0  0
   -5.1930   21.3135  -31.6828 H   0  0  0  0  0  0  0  0  0  0  0  0
  1  2  1  0
  2  3  1  0
  3  4  1  0
  4  5  1  0
  5  6  2  0
  6  7  1  0
  7  8  2  0
  8  9  1  0
  9 10  1  0
 10 11  2  0
 10 12  1  0
 12 13  1  0
 13 14  2  0
 14 15  1  0
 15 16  2  0
 16 17  1  0
 17 18  1  0
 18 19  2  0
 18 20  2  0
 18 21  1  0
 21 22  1  0
 22 23  1  0
 23 24  1  0
 24 25  1  0
 25 26  1  0
 17 27  2  0
 27 28  1  0
  8 29  1  0
 29 30  2  0
 30  2  1  0
 30  5  1  0
 27 13  1  0
 26 21  1  0
  1 31  1  0
  1 32  1  0
  1 33  1  0
  3 34  1  0
  3 35  1  0
  4 36  1  0
  4 37  1  0
  6 38  1  0
  7 39  1  0
 14 40  1  0
 15 41  1  0
 16 42  1  0
 22 43  1  0
 22 44  1  0
 23 45  1  0
 23 46  1  0
 24 47  1  0
 24 48  1  0
 25 49  1  0
 25 50  1  0
 26 51  1  0
 26 52  1  0
 29 53  1  0
M  CHG  3   9  -1  12  -1  28  -1
M  END
>  <UniqueID>  (2) 
2

>  <SMILES>  (2) 
CN1CCc2ccc([N-]C(=O)[N-]c3cccc(S(=O)(=O)N4CCCCC4)c3[O-])cc21

>  <Energy>  (2) 
85.31088807276085

>  <Genealogy>  (2) 
CN1CCc2ccc([N-]C(=O)[N-]c3cccc(S(=O)(=O)N4CCCCC4)c3[O-])cc21 (protonated)
CN1CCc2ccc([N-]C(=O)[N-]c3cccc(S(=O)(=O)N4CCCCC4)c3[O-])cc21 (3D coordinates assigned)
CN1CCc2ccc([N-]C(=O)[N-]c3cccc(S(=O)(=O)N4CCCCC4)c3[O-])cc21 (nonaromatic ring conformer: 85.31088807276085 kcal/mol)

>  <smiles>  (2) 
CN1CCc2ccc(NC(=O)Nc3cccc(S(=O)(=O)N4CCCCC4)c3O)cc21

>  <score_type>  (2) 
oracle

>  <origin>  (2) 
adgpu

>  <m_score__min__energy>  (2) 
-16.510000000000002

>  <m_primary>  (2) 
energy

$$$$
2:0
     RDKit          3D

 60 63  0  0  0  0  0  0  0  0999 V2000
   -6.0590   25.9900  -30.1660 O   0  0  0  0  0  0  0  0  0  0  0  0
   -5.2460   25.2850  -30.8170 C   0  0  0  0  0  0  0  0  0  0  0  0
   -5.7270   24.4900  -31.9060 N   0  0  0  0  0  0  0  0  0  0  0  0
   -5.4000   23.1100  -32.0980 C   0  0  0  0  0  0  0  0  0  0  0  0
   -4.0680   22.6710  -32.0960 C   0  0  0  0  0  0  0  0  0  0  0  0
   -3.7790   21.3120  -32.2510 C   0  0  0  0  0  0  0  0  0  0  0  0
   -4.8150   20.3860  -32.3910 C   0  0  0  0  0  0  0  0  0  0  0  0
   -6.1490   20.8180  -32.3980 C   0  0  0  0  0  0  0  0  0  0  0  0
   -7.4670   19.6460  -32.4710 S   0  0  0  0  0  0  0  0  0  0  0  0
   -8.5020   20.1190  -33.4550 O   0  0  0  0  0  0  0  0  0  0  0  0
   -8.1180   19.5520  -31.1190 O   0  0  0  0  0  0  0  0  0  0  0  0
   -6.8930   18.0680  -32.9550 N   0  0  0  0  0  0  0  0  0  0  0  0
   -6.1180   18.1730  -34.1990 C   0  0  0  0  0  0  0  0  0  0  0  0
   -5.5590   16.7950  -34.5710 C   0  0  0  0  0  0  0  0  0  0  0  0
   -4.7450   16.2900  -33.5320 O   0  0  0  0  0  0  0  0  0  0  0  0
   -5.5110   16.1310  -32.3540 C   0  0  0  0  0  0  0  0  0  0  0  0
   -6.0650   17.4800  -31.8910 C   0  0  0  0  0  0  0  0  0  0  0  0
   -6.4320   22.1860  -32.2890 C   0  0  0  0  0  0  0  0  0  0  0  0
   -3.8550   25.2640  -30.4670 N   0  0  0  0  0  0  0  0  0  0  0  0
   -3.2230   24.3840  -29.5250 C   0  0  0  0  0  0  0  0  0  0  0  0
   -3.7760   23.1370  -29.1840 C   0  0  0  0  0  0  0  0  0  0  0  0
   -3.0990   22.2740  -28.3120 C   0  0  0  0  0  0  0  0  0  0  0  0
   -1.8540   22.6400  -27.7840 C   0  0  0  0  0  0  0  0  0  0  0  0
   -0.9710   21.5330  -26.7320 S   0  0  0  0  0  0  0  0  0  0  0  0
   -1.9530   20.6780  -25.9820 O   0  0  0  0  0  0  0  0  0  0  0  0
   -0.1800   22.3290  -25.7310 O   0  0  0  0  0  0  0  0  0  0  0  0
    0.1160   20.5140  -27.6430 N   0  0  0  0  0  0  0  0  0  0  0  0
    0.2530   20.9700  -29.0480 C   0  0  0  0  0  0  0  0  0  0  0  0
   -0.5630   20.1220  -30.0310 C   0  0  0  0  0  0  0  0  0  0  0  0
   -0.1460   18.6430  -29.9700 C   0  0  0  0  0  0  0  0  0  0  0  0
    0.3650   18.2260  -28.5800 C   0  0  0  0  0  0  0  0  0  0  0  0
   -0.2620   19.0950  -27.4850 C   0  0  0  0  0  0  0  0  0  0  0  0
   -1.2990   23.8820  -28.1250 C   0  0  0  0  0  0  0  0  0  0  0  0
   -1.9750   24.7440  -28.9960 C   0  0  0  0  0  0  0  0  0  0  0  0
   -1.4000   25.9620  -29.3390 O   0  0  0  0  0  0  0  0  0  0  0  0
   -3.2503   23.3963  -31.9724 H   0  0  0  0  0  0  0  0  0  0  0  0
   -2.7332   20.9713  -32.2627 H   0  0  0  0  0  0  0  0  0  0  0  0
   -4.5841   19.3156  -32.4960 H   0  0  0  0  0  0  0  0  0  0  0  0
   -6.7701   18.5346  -35.0077 H   0  0  0  0  0  0  0  0  0  0  0  0
   -5.2868   18.8789  -34.0546 H   0  0  0  0  0  0  0  0  0  0  0  0
   -6.3946   16.1011  -34.7450 H   0  0  0  0  0  0  0  0  0  0  0  0
   -4.9499   16.8941  -35.4816 H   0  0  0  0  0  0  0  0  0  0  0  0
   -6.3475   15.4457  -32.5555 H   0  0  0  0  0  0  0  0  0  0  0  0
   -4.8670   15.7196  -31.5628 H   0  0  0  0  0  0  0  0  0  0  0  0
   -6.6781   17.3334  -30.9895 H   0  0  0  0  0  0  0  0  0  0  0  0
   -5.2293   18.1580  -31.6634 H   0  0  0  0  0  0  0  0  0  0  0  0
   -7.4730   22.5354  -32.3541 H   0  0  0  0  0  0  0  0  0  0  0  0
   -4.7470   22.8368  -29.6048 H   0  0  0  0  0  0  0  0  0  0  0  0
   -3.5464   21.3063  -28.0412 H   0  0  0  0  0  0  0  0  0  0  0  0
   -0.0909   22.0128  -29.1140 H   0  0  0  0  0  0  0  0  0  0  0  0
    1.3126   20.8710  -29.3261 H   0  0  0  0  0  0  0  0  0  0  0  0
   -1.6299   20.2046  -29.7761 H   0  0  0  0  0  0  0  0  0  0  0  0
   -0.3771   20.4943  -31.0493 H   0  0  0  0  0  0  0  0  0  0  0  0
   -1.0166   18.0212  -30.2258 H   0  0  0  0  0  0  0  0  0  0  0  0
    0.6794   18.5013  -30.6832 H   0  0  0  0  0  0  0  0  0  0  0  0
    0.1012   17.1734  -28.3999 H   0  0  0  0  0  0  0  0  0  0  0  0
    1.4567   18.3580  -28.5521 H   0  0  0  0  0  0  0  0  0  0  0  0
   -1.3571   19.0076  -27.5415 H   0  0  0  0  0  0  0  0  0  0  0  0
    0.1070   18.7442  -26.5099 H   0  0  0  0  0  0  0  0  0  0  0  0
   -0.3269   24.1803  -27.7055 H   0  0  0  0  0  0  0  0  0  0  0  0
  1  2  2  0
  2  3  1  0
  3  4  1  0
  4  5  2  0
  5  6  1  0
  6  7  2  0
  7  8  1  0
  8  9  1  0
  9 10  2  0
  9 11  2  0
  9 12  1  0
 12 13  1  0
 13 14  1  0
 14 15  1  0
 15 16  1  0
 16 17  1  0
  8 18  2  0
  2 19  1  0
 19 20  1  0
 20 21  2  0
 21 22  1  0
 22 23  2  0
 23 24  1  0
 24 25  2  0
 24 26  2  0
 24 27  1  0
 27 28  1  0
 28 29  1  0
 29 30  1  0
 30 31  1  0
 31 32  1  0
 23 33  1  0
 33 34  2  0
 34 35  1  0
 18  4  1  0
 34 20  1  0
 17 12  1  0
 32 27  1  0
  5 36  1  0
  6 37  1  0
  7 38  1  0
 13 39  1  0
 13 40  1  0
 14 41  1  0
 14 42  1  0
 16 43  1  0
 16 44  1  0
 17 45  1  0
 17 46  1  0
 18 47  1  0
 21 48  1  0
 22 49  1  0
 28 50  1  0
 28 51  1  0
 29 52  1  0
 29 53  1  0
 30 54  1  0
 30 55  1  0
 31 56  1  0
 31 57  1  0
 32 58  1  0
 32 59  1  0
 33 60  1  0
M  CHG  3   3  -1  19  -1  35  -1
M  END
>  <UniqueID>  (3) 
3

>  <SMILES>  (3) 
O=C([N-]c1cccc(S(=O)(=O)N2CCOCC2)c1)[N-]c1ccc(S(=O)(=O)N2CCCCC2)cc1[O-]

>  <Energy>  (3) 
74.90121746391847

>  <Genealogy>  (3) 
O=C([N-]c1cccc(S(=O)(=O)N2CCOCC2)c1)[N-]c1ccc(S(=O)(=O)N2CCCCC2)cc1[O-] (protonated)
O=C([N-]c1cccc(S(=O)(=O)N2CCOCC2)c1)[N-]c1ccc(S(=O)(=O)N2CCCCC2)cc1[O-] (3D coordinates assigned)
O=C([N-]c1cccc(S(=O)(=O)N2CCOCC2)c1)[N-]c1ccc(S(=O)(=O)N2CCCCC2)cc1[O-] (nonaromatic ring conformer: 74.90121746391847 kcal/mol)

>  <smiles>  (3) 
O=C(Nc1cccc(S(=O)(=O)N2CCOCC2)c1)Nc1ccc(S(=O)(=O)N2CCCCC2)cc1O

>  <score_type>  (3) 
oracle

>  <origin>  (3) 
adgpu

>  <m_score__min__energy>  (3) 
-16.300000000000001

>  <m_primary>  (3) 
energy

$$$$
3:0
     RDKit          3D

 63 67  0  0  0  0  0  0  0  0999 V2000
   -6.4680   24.8090  -30.0800 C   0  0  0  0  0  0  0  0  0  0  0  0
   -5.2490   24.3460  -30.8190 C   0  0  0  0  0  0  0  0  0  0  0  0
   -4.2420   25.1050  -30.8470 O   0  0  0  0  0  0  0  0  0  0  0  0
   -5.2000   23.0280  -31.5100 C   0  0  0  0  0  0  0  0  0  0  0  0
   -6.3700   22.2540  -31.6300 C   0  0  0  0  0  0  0  0  0  0  0  0
   -6.3370   21.0130  -32.2690 C   0  0  0  0  0  0  0  0  0  0  0  0
   -5.1430   20.5280  -32.8020 C   0  0  0  0  0  0  0  0  0  0  0  0
   -3.9650   21.2890  -32.7110 C   0  0  0  0  0  0  0  0  0  0  0  0
   -2.7200   20.8070  -33.2450 N   0  0  0  0  0  0  0  0  0  0  0  0
   -1.9320   19.7890  -32.6110 C   0  0  0  0  0  0  0  0  0  0  0  0
   -1.3500   19.8520  -31.3500 C   0  0  0  0  0  0  0  0  0  0  0  0
   -1.3480   20.9990  -30.4210 C   0  0  0  0  0  0  0  0  0  0  0  0
   -1.3370   20.7720  -29.0370 C   0  0  0  0  0  0  0  0  0  0  0  0
   -1.3230   21.8460  -28.1440 C   0  0  0  0  0  0  0  0  0  0  0  0
   -1.3000   23.1630  -28.6230 C   0  0  0  0  0  0  0  0  0  0  0  0
   -1.2470   24.5200  -27.4940 S   0  0  0  0  0  0  0  0  0  0  0  0
   -0.7940   25.7530  -28.2250 O   0  0  0  0  0  0  0  0  0  0  0  0
   -2.6300   24.7760  -26.9620 O   0  0  0  0  0  0  0  0  0  0  0  0
   -0.1580   24.2060  -26.1620 N   0  0  0  0  0  0  0  0  0  0  0  0
    1.0630   25.0270  -26.2920 C   0  0  0  0  0  0  0  0  0  0  0  0
    1.8020   25.1300  -24.9500 C   0  0  0  0  0  0  0  0  0  0  0  0
    0.9700   25.7820  -23.9020 N   0  0  0  0  0  0  0  0  0  0  0  0
    1.3430   27.1980  -23.7340 C   0  0  0  0  0  0  0  0  0  0  0  0
   -0.4900   25.6670  -24.1510 C   0  0  0  0  0  0  0  0  0  0  0  0
   -0.8400   24.3460  -24.8530 C   0  0  0  0  0  0  0  0  0  0  0  0
   -1.2990   23.3930  -30.0050 C   0  0  0  0  0  0  0  0  0  0  0  0
   -1.3130   22.3190  -30.8990 C   0  0  0  0  0  0  0  0  0  0  0  0
   -0.8480   18.6360  -31.0240 N   0  0  0  0  0  0  0  0  0  0  0  0
   -1.1210   17.8750  -32.1060 C   0  0  0  0  0  0  0  0  0  0  0  0
   -0.7960   16.5290  -32.2550 C   0  0  0  0  0  0  0  0  0  0  0  0
   -1.1680   15.8960  -33.4520 C   0  0  0  0  0  0  0  0  0  0  0  0
   -1.8460   16.6140  -34.4570 C   0  0  0  0  0  0  0  0  0  0  0  0
   -2.3070   15.8240  -35.9520 Cl  0  0  0  0  0  0  0  0  0  0  0  0
   -2.1480   17.9690  -34.2510 C   0  0  0  0  0  0  0  0  0  0  0  0
   -1.7760   18.5380  -33.0740 N   0  0  0  0  0  0  0  0  0  0  0  0
   -3.9990   22.5290  -32.0530 C   0  0  0  0  0  0  0  0  0  0  0  0
   -6.2882   24.7407  -28.9969 H   0  0  0  0  0  0  0  0  0  0  0  0
   -6.6863   25.8527  -30.3503 H   0  0  0  0  0  0  0  0  0  0  0  0
   -7.3241   24.1734  -30.3503 H   0  0  0  0  0  0  0  0  0  0  0  0
   -7.3177   22.6300  -31.2170 H   0  0  0  0  0  0  0  0  0  0  0  0
   -7.2567   20.4153  -32.3524 H   0  0  0  0  0  0  0  0  0  0  0  0
   -5.1232   19.5453  -33.2959 H   0  0  0  0  0  0  0  0  0  0  0  0
   -2.3740   21.2130  -34.1410 H   0  0  0  0  0  0  0  0  0  0  0  0
   -1.3394   19.7415  -28.6523 H   0  0  0  0  0  0  0  0  0  0  0  0
   -1.3301   21.6574  -27.0603 H   0  0  0  0  0  0  0  0  0  0  0  0
    1.7296   24.5652  -27.0353 H   0  0  0  0  0  0  0  0  0  0  0  0
    0.7727   26.0389  -26.6109 H   0  0  0  0  0  0  0  0  0  0  0  0
    2.0680   24.1173  -24.6128 H   0  0  0  0  0  0  0  0  0  0  0  0
    2.6992   25.7477  -25.1035 H   0  0  0  0  0  0  0  0  0  0  0  0
    1.1760   25.3040  -22.9920 H   0  0  0  0  0  0  0  0  0  0  0  0
    1.4057   27.4359  -22.6619 H   0  0  0  0  0  0  0  0  0  0  0  0
    2.3194   27.3786  -24.2074 H   0  0  0  0  0  0  0  0  0  0  0  0
    0.5823   27.8362  -24.2074 H   0  0  0  0  0  0  0  0  0  0  0  0
   -1.0212   25.7119  -23.1888 H   0  0  0  0  0  0  0  0  0  0  0  0
   -0.7944   26.4967  -24.8060 H   0  0  0  0  0  0  0  0  0  0  0  0
   -0.5371   23.5102  -24.2052 H   0  0  0  0  0  0  0  0  0  0  0  0
   -1.9246   24.3397  -25.0365 H   0  0  0  0  0  0  0  0  0  0  0  0
   -1.2871   24.4240  -30.3882 H   0  0  0  0  0  0  0  0  0  0  0  0
   -1.2965   22.5085  -31.9824 H   0  0  0  0  0  0  0  0  0  0  0  0
   -0.2661   15.9806  -31.4623 H   0  0  0  0  0  0  0  0  0  0  0  0
   -0.9287   14.8334  -33.6059 H   0  0  0  0  0  0  0  0  0  0  0  0
   -2.6715   18.5546  -35.0211 H   0  0  0  0  0  0  0  0  0  0  0  0
   -3.0754   23.1191  -31.9601 H   0  0  0  0  0  0  0  0  0  0  0  0
  1  2  1  0
  2  3  2  0
  2  4  1  0
  4  5  2  0
  5  6  1  0
  6  7  2  0
  7  8  1  0
  8  9  1  0
  9 10  1  0
 10 11  2  0
 11 12  1  0
 12 13  2  0
 13 14  1  0
 14 15  2  0
 15 16  1  0
 16 17  2  0
 16 18  2  0
 16 19  1  0
 19 20  1  0
 20 21  1  0
 21 22  1  0
 22 23  1  0
 22 24  1  0
 24 25  1  0
 15 26  1  0
 26 27  2  0
 11 28  1  0
 28 29  2  0
 29 30  1  0
 30 31  2  0
 31 32  1  0
 32 33  1  0
 32 34  2  0
 34 35  1  0
  8 36  2  0
 36  4  1  0
 35 10  1  0
 27 12  1  0
 35 29  1  0
 25 19  1  0
  1 37  1  0
  1 38  1  0
  1 39  1  0
  5 40  1  0
  6 41  1  0
  7 42  1  0
  9 43  1  0
 13 44  1  0
 14 45  1  0
 20 46  1  0
 20 47  1  0
 21 48  1  0
 21 49  1  0
 22 50  1  0
 23 51  1  0
 23 52  1  0
 23 53  1  0
 24 54  1  0
 24 55  1  0
 25 56  1  0
 25 57  1  0
 26 58  1  0
 27 59  1  0
 30 60  1  0
 31 61  1  0
 34 62  1  0
 36 63  1  0
M  CHG  1  22   1
M  END
>  <UniqueID>  (4) 
4

>  <SMILES>  (4) 
CC(=O)c1cccc(Nc2c(-c3ccc(S(=O)(=O)N4CC[NH+](C)CC4)cc3)nc3ccc(Cl)cn23)c1

>  <Energy>  (4) 
124.49740542411335

>  <Genealogy>  (4) 
CC(=O)c1cccc(Nc2c(-c3ccc(S(=O)(=O)N4CC[NH+](C)CC4)cc3)nc3ccc(Cl)cn23)c1 (protonated)
CC(=O)c1cccc(Nc2c(-c3ccc(S(=O)(=O)N4CC[NH+](C)CC4)cc3)nc3ccc(Cl)cn23)c1 (3D coordinates assigned)
CC(=O)c1cccc(Nc2c(-c3ccc(S(=O)(=O)N4CC[NH+](C)CC4)cc3)nc3ccc(Cl)cn23)c1 (nonaromatic ring conformer: 124.49740542411335 kcal/mol)

>  <smiles>  (4) 
CC(=O)c1cccc(Nc2c(-c3ccc(S(=O)(=O)N4CCN(C)CC4)cc3)nc3ccc(Cl)cn23)c1

>  <score_type>  (4) 
oracle

>  <origin>  (4) 
adgpu

>  <m_score__min__energy>  (4) 
-10.65

>  <m_primary>  (4) 
energy

$$$$
4:0
     RDKit          3D

 76 81  0  0  0  0  0  0  0  0999 V2000
   -2.0330   20.3450  -26.1780 O   0  0  0  0  0  0  0  0  0  0  0  0
   -1.4980   20.6180  -27.2860 C   0  0  0  0  0  0  0  0  0  0  0  0
   -1.9280   21.8350  -28.0050 C   0  0  0  0  0  0  0  0  0  0  0  0
   -0.9810   22.7130  -28.5530 C   0  0  0  0  0  0  0  0  0  0  0  0
   -1.3980   23.8700  -29.2180 C   0  0  0  0  0  0  0  0  0  0  0  0
   -2.7610   24.1500  -29.3570 C   0  0  0  0  0  0  0  0  0  0  0  0
   -3.1590   25.2910  -30.0410 O   0  0  0  0  0  0  0  0  0  0  0  0
   -3.7190   23.2700  -28.8260 C   0  0  0  0  0  0  0  0  0  0  0  0
   -5.1160   23.5220  -29.0090 N   0  0  0  0  0  0  0  0  0  0  0  0
   -5.7740   23.7020  -30.6040 S   0  0  0  0  0  0  0  0  0  0  0  0
   -4.6580   23.9780  -31.5740 O   0  0  0  0  0  0  0  0  0  0  0  0
   -6.7360   24.8580  -30.6490 O   0  0  0  0  0  0  0  0  0  0  0  0
   -6.6040   22.2140  -31.0440 C   0  0  0  0  0  0  0  0  0  0  0  0
   -7.9730   22.2180  -31.3390 C   0  0  0  0  0  0  0  0  0  0  0  0
   -8.6030   21.0510  -31.7770 C   0  0  0  0  0  0  0  0  0  0  0  0
   -7.8640   19.8710  -31.9640 C   0  0  0  0  0  0  0  0  0  0  0  0
   -6.4870   19.8570  -31.6450 C   0  0  0  0  0  0  0  0  0  0  0  0
   -5.8690   21.0320  -31.1910 C   0  0  0  0  0  0  0  0  0  0  0  0
   -5.6230   18.6390  -31.8840 C   0  0  0  0  0  0  0  0  0  0  0  0
   -6.4000   17.3670  -32.2520 C   0  0  0  0  0  0  0  0  0  0  0  0
   -7.6010   17.6770  -33.1480 C   0  0  0  0  0  0  0  0  0  0  0  0
   -8.5660   18.6230  -32.4290 C   0  0  0  0  0  0  0  0  0  0  0  0
   -3.2950   22.1260  -28.1350 C   0  0  0  0  0  0  0  0  0  0  0  0
   -0.5260   19.7130  -27.8470 N   0  0  0  0  0  0  0  0  0  0  0  0
   -0.5370   18.3020  -27.4080 C   0  0  0  0  0  0  0  0  0  0  0  0
    0.4260   17.4210  -28.2240 C   0  0  0  0  0  0  0  0  0  0  0  0
    0.3400   17.7690  -29.6840 C   0  0  0  0  0  0  0  0  0  0  0  0
    0.2660   16.7860  -30.6820 C   0  0  0  0  0  0  0  0  0  0  0  0
    0.1630   17.1600  -32.0250 C   0  0  0  0  0  0  0  0  0  0  0  0
    0.1600   18.5180  -32.3830 C   0  0  0  0  0  0  0  0  0  0  0  0
   -0.0370   19.0040  -34.0710 S   0  0  0  0  0  0  0  0  0  0  0  0
    1.2620   19.5720  -34.5780 O   0  0  0  0  0  0  0  0  0  0  0  0
   -0.3650   17.7900  -34.8950 O   0  0  0  0  0  0  0  0  0  0  0  0
   -1.3080   20.1940  -34.2650 N   0  0  0  0  0  0  0  0  0  0  0  0
   -0.9430   21.4980  -33.6620 C   0  0  0  0  0  0  0  0  0  0  0  0
   -1.5660   21.7130  -32.2740 C   0  0  0  0  0  0  0  0  0  0  0  0
   -3.1020   21.6230  -32.3210 C   0  0  0  0  0  0  0  0  0  0  0  0
   -3.6120   20.7510  -33.4800 C   0  0  0  0  0  0  0  0  0  0  0  0
   -2.6080   19.6430  -33.8120 C   0  0  0  0  0  0  0  0  0  0  0  0
    0.2790   19.4930  -31.3870 C   0  0  0  0  0  0  0  0  0  0  0  0
    0.3360   19.1250  -30.0400 C   0  0  0  0  0  0  0  0  0  0  0  0
    0.3510   20.1550  -28.9470 C   0  0  0  0  0  0  0  0  0  0  0  0
    0.0922   22.4906  -28.4593 H   0  0  0  0  0  0  0  0  0  0  0  0
   -0.6512   24.5626  -29.6334 H   0  0  0  0  0  0  0  0  0  0  0  0
   -5.6560   23.9420  -28.2220 H   0  0  0  0  0  0  0  0  0  0  0  0
   -8.5548   23.1446  -31.2252 H   0  0  0  0  0  0  0  0  0  0  0  0
   -9.6847   21.0559  -31.9768 H   0  0  0  0  0  0  0  0  0  0  0  0
   -4.7962   21.0241  -30.9482 H   0  0  0  0  0  0  0  0  0  0  0  0
   -4.9285   18.8668  -32.7061 H   0  0  0  0  0  0  0  0  0  0  0  0
   -5.1115   18.4280  -30.9333 H   0  0  0  0  0  0  0  0  0  0  0  0
   -5.7264   16.6791  -32.7841 H   0  0  0  0  0  0  0  0  0  0  0  0
   -6.7737   16.9124  -31.3226 H   0  0  0  0  0  0  0  0  0  0  0  0
   -7.2494   18.1525  -34.0755 H   0  0  0  0  0  0  0  0  0  0  0  0
   -8.1256   16.7391  -33.3827 H   0  0  0  0  0  0  0  0  0  0  0  0
   -9.3746   18.9031  -33.1201 H   0  0  0  0  0  0  0  0  0  0  0  0
   -8.9698   18.1030  -31.5478 H   0  0  0  0  0  0  0  0  0  0  0  0
   -4.0406   21.4503  -27.6906 H   0  0  0  0  0  0  0  0  0  0  0  0
   -0.2415   18.2601  -26.3493 H   0  0  0  0  0  0  0  0  0  0  0  0
   -1.5547   17.9134  -27.5607 H   0  0  0  0  0  0  0  0  0  0  0  0
    1.4550   17.5852  -27.8717 H   0  0  0  0  0  0  0  0  0  0  0  0
    0.1462   16.3656  -28.0903 H   0  0  0  0  0  0  0  0  0  0  0  0
    0.2890   15.7210  -30.4078 H   0  0  0  0  0  0  0  0  0  0  0  0
    0.0840   16.3877  -32.8043 H   0  0  0  0  0  0  0  0  0  0  0  0
    0.1518   21.5456  -33.5660 H   0  0  0  0  0  0  0  0  0  0  0  0
   -1.3320   22.2866  -34.3230 H   0  0  0  0  0  0  0  0  0  0  0  0
   -1.1843   20.9422  -31.5883 H   0  0  0  0  0  0  0  0  0  0  0  0
   -1.2913   22.7198  -31.9263 H   0  0  0  0  0  0  0  0  0  0  0  0
   -3.4580   21.1920  -31.3737 H   0  0  0  0  0  0  0  0  0  0  0  0
   -3.4890   22.6408  -32.4768 H   0  0  0  0  0  0  0  0  0  0  0  0
   -4.5706   20.2943  -33.1926 H   0  0  0  0  0  0  0  0  0  0  0  0
   -3.7408   21.3868  -34.3684 H   0  0  0  0  0  0  0  0  0  0  0  0
   -2.4416   19.0323  -32.9123 H   0  0  0  0  0  0  0  0  0  0  0  0
   -3.0258   19.0375  -34.6298 H   0  0  0  0  0  0  0  0  0  0  0  0
    0.3280   20.5560  -31.6658 H   0  0  0  0  0  0  0  0  0  0  0  0
    1.3777   20.2772  -28.5716 H   0  0  0  0  0  0  0  0  0  0  0  0
   -0.0102   21.1160  -29.3421 H   0  0  0  0  0  0  0  0  0  0  0  0
  1  2  2  0
  2  3  1  0
  3  4  2  0
  4  5  1  0
  5  6  2  0
  6  7  1  0
  6  8  1  0
  8  9  1  0
  9 10  1  0
 10 11  2  0
 10 12  2  0
 10 13  1  0
 13 14  2  0
 14 15  1  0
 15 16  2  0
 16 17  1  0
 17 18  2  0
 17 19  1  0
 19 20  1  0
 20 21  1  0
 21 22  1  0
  8 23  2  0
  2 24  1  0
 24 25  1  0
 25 26  1  0
 26 27  1  0
 27 28  2  0
 28 29  1  0
 29 30  2  0
 30 31  1  0
 31 32  2  0
 31 33  2  0
 31 34  1  0
 34 35  1  0
 35 36  1  0
 36 37  1  0
 37 38  1  0
 38 39  1  0
 30 40  1  0
 40 41  2  0
 41 42  1  0
 23  3  1  0
 42 24  1  0
 18 13  1  0
 41 27  1  0
 22 16  1  0
 39 34  1  0
  4 43  1  0
  5 44  1  0
  9 45  1  0
 14 46  1  0
 15 47  1  0
 18 48  1  0
 19 49  1  0
 19 50  1  0
 20 51  1  0
 20 52  1  0
 21 53  1  0
 21 54  1  0
 22 55  1  0
 22 56  1  0
 23 57  1  0
 25 58  1  0
 25 59  1  0
 26 60  1  0
 26 61  1  0
 28 62  1  0
 29 63  1  0
 35 64  1  0
 35 65  1  0
 36 66  1  0
 36 67  1  0
 37 68  1  0
 37 69  1  0
 38 70  1  0
 38 71  1  0
 39 72  1  0
 39 73  1  0
 40 74  1  0
 42 75  1  0
 42 76  1  0
M  CHG  1   7  -1
M  END
>  <UniqueID>  (5) 
5

>  <SMILES>  (5) 
O=C(c1ccc([O-])c(NS(=O)(=O)c2ccc3c(c2)CCCC3)c1)N1CCc2ccc(S(=O)(=O)N3CCCCC3)cc2C1

>  <Energy>  (5) 
96.22214344560773

>  <Genealogy>  (5) 
O=C(c1ccc([O-])c(NS(=O)(=O)c2ccc3c(c2)CCCC3)c1)N1CCc2ccc(S(=O)(=O)N3CCCCC3)cc2C1 (protonated)
O=C(c1ccc([O-])c(NS(=O)(=O)c2ccc3c(c2)CCCC3)c1)N1CCc2ccc(S(=O)(=O)N3CCCCC3)cc2C1 (3D coordinates assigned)
O=C(c1ccc([O-])c(NS(=O)(=O)c2ccc3c(c2)CCCC3)c1)N1CCc2ccc(S(=O)(=O)N3CCCCC3)cc2C1 (nonaromatic ring conformer: 96.22214344560773 kcal/mol)

>  <smiles>  (5) 
O=C(c1ccc(O)c(NS(=O)(=O)c2ccc3c(c2)CCCC3)c1)N1CCc2ccc(S(=O)(=O)N3CCCCC3)cc2C1

>  <score_type>  (5) 
oracle

>  <origin>  (5) 
adgpu

>  <m_score__min__energy>  (5) 
-16.100000000000001

>  <m_primary>  (5) 
energy

$$$$
5:0
     RDKit          3D

 44 46  0  0  0  0  0  0  0  0999 V2000
   -0.5290   20.0180  -34.5770 C   0  0  0  0  0  0  0  0  0  0  0  0
   -0.9860   20.4850  -33.2280 C   0  0  0  0  0  0  0  0  0  0  0  0
   -0.4180   19.9560  -32.0580 C   0  0  0  0  0  0  0  0  0  0  0  0
   -0.8200   20.4250  -30.7980 C   0  0  0  0  0  0  0  0  0  0  0  0
   -0.2690   19.8040  -29.5490 C   0  0  0  0  0  0  0  0  0  0  0  0
   -1.8000   21.4250  -30.7130 C   0  0  0  0  0  0  0  0  0  0  0  0
   -2.3830   21.9520  -31.8740 C   0  0  0  0  0  0  0  0  0  0  0  0
   -3.4020   22.9560  -31.7610 N   0  0  0  0  0  0  0  0  0  0  0  0
   -4.8000   22.6390  -31.7730 C   0  0  0  0  0  0  0  0  0  0  0  0
   -5.2260   21.4820  -32.4380 C   0  0  0  0  0  0  0  0  0  0  0  0
   -6.5780   21.1330  -32.4520 C   0  0  0  0  0  0  0  0  0  0  0  0
   -7.5150   21.9430  -31.8070 C   0  0  0  0  0  0  0  0  0  0  0  0
   -7.1040   23.1110  -31.1580 C   0  0  0  0  0  0  0  0  0  0  0  0
   -5.7490   23.4790  -31.1460 C   0  0  0  0  0  0  0  0  0  0  0  0
   -5.2730   24.9970  -30.3750 S   0  0  0  0  0  0  0  0  0  0  0  0
   -5.7490   26.1420  -31.2250 O   0  0  0  0  0  0  0  0  0  0  0  0
   -5.9020   25.1050  -29.0150 O   0  0  0  0  0  0  0  0  0  0  0  0
   -3.5460   25.0210  -30.2150 N   0  0  0  0  0  0  0  0  0  0  0  0
   -2.7880   24.4750  -29.1260 C   0  0  0  0  0  0  0  0  0  0  0  0
   -3.1470   23.2730  -28.4870 C   0  0  0  0  0  0  0  0  0  0  0  0
   -2.3890   22.7890  -27.4160 C   0  0  0  0  0  0  0  0  0  0  0  0
   -1.2620   23.4900  -26.9820 C   0  0  0  0  0  0  0  0  0  0  0  0
   -0.8830   24.6710  -27.6240 C   0  0  0  0  0  0  0  0  0  0  0  0
   -1.6390   25.1590  -28.6960 C   0  0  0  0  0  0  0  0  0  0  0  0
   -1.2350   26.3230  -29.3380 O   0  0  0  0  0  0  0  0  0  0  0  0
   -1.9670   21.4820  -33.1300 C   0  0  0  0  0  0  0  0  0  0  0  0
    0.2356   19.2367  -34.4549 H   0  0  0  0  0  0  0  0  0  0  0  0
   -1.3855   19.6091  -35.1330 H   0  0  0  0  0  0  0  0  0  0  0  0
   -0.1017   20.8655  -35.1330 H   0  0  0  0  0  0  0  0  0  0  0  0
    0.3470   19.1689  -32.1295 H   0  0  0  0  0  0  0  0  0  0  0  0
   -0.7075   20.2982  -28.6695 H   0  0  0  0  0  0  0  0  0  0  0  0
   -0.5195   18.7331  -29.5307 H   0  0  0  0  0  0  0  0  0  0  0  0
    0.8241   19.9252  -29.5307 H   0  0  0  0  0  0  0  0  0  0  0  0
   -2.1137   21.7988  -29.7272 H   0  0  0  0  0  0  0  0  0  0  0  0
   -3.1250   23.9530  -31.6110 H   0  0  0  0  0  0  0  0  0  0  0  0
   -4.4913   20.8448  -32.9521 H   0  0  0  0  0  0  0  0  0  0  0  0
   -6.9050   20.2200  -32.9711 H   0  0  0  0  0  0  0  0  0  0  0  0
   -8.5784   21.6615  -31.8096 H   0  0  0  0  0  0  0  0  0  0  0  0
   -7.8471   23.7460  -30.6534 H   0  0  0  0  0  0  0  0  0  0  0  0
   -4.0280   22.7118  -28.8318 H   0  0  0  0  0  0  0  0  0  0  0  0
   -2.6811   21.8545  -26.9146 H   0  0  0  0  0  0  0  0  0  0  0  0
   -0.6723   23.1118  -26.1339 H   0  0  0  0  0  0  0  0  0  0  0  0
    0.0100   25.2178  -27.2870 H   0  0  0  0  0  0  0  0  0  0  0  0
   -2.4142   21.8992  -34.0443 H   0  0  0  0  0  0  0  0  0  0  0  0
  1  2  1  0
  2  3  2  0
  3  4  1  0
  4  5  1  0
  4  6  2  0
  6  7  1  0
  7  8  1  0
  8  9  1  0
  9 10  2  0
 10 11  1  0
 11 12  2  0
 12 13  1  0
 13 14  2  0
 14 15  1  0
 15 16  2  0
 15 17  2  0
 15 18  1  0
 18 19  1  0
 19 20  2  0
 20 21  1  0
 21 22  2  0
 22 23  1  0
 23 24  2  0
 24 25  1  0
  7 26  2  0
 26  2  1  0
 14  9  1  0
 24 19  1  0
  1 27  1  0
  1 28  1  0
  1 29  1  0
  3 30  1  0
  5 31  1  0
  5 32  1  0
  5 33  1  0
  6 34  1  0
  8 35  1  0
 10 36  1  0
 11 37  1  0
 12 38  1  0
 13 39  1  0
 20 40  1  0
 21 41  1  0
 22 42  1  0
 23 43  1  0
 26 44  1  0
M  CHG  2  18  -1  25  -1
M  END
>  <UniqueID>  (6) 
6

>  <SMILES>  (6) 
Cc1cc(C)cc(Nc2ccccc2S(=O)(=O)[N-]c2ccccc2[O-])c1

>  <Energy>  (6) 
54.35374668028258

>  <Genealogy>  (6) 
Cc1cc(C)cc(Nc2ccccc2S(=O)(=O)[N-]c2ccccc2[O-])c1 (protonated)
Cc1cc(C)cc(Nc2ccccc2S(=O)(=O)[N-]c2ccccc2[O-])c1 (3D coordinates assigned)
Cc1cc(C)cc(Nc2ccccc2S(=O)(=O)[N-]c2ccccc2[O-])c1 (optimized conformer: 54.35374668028258 kcal/mol)

>  <smiles>  (6) 
Cc1cc(C)cc(Nc2ccccc2S(=O)(=O)Nc2ccccc2O)c1

>  <score_type>  (6) 
oracle

>  <origin>  (6) 
adgpu

>  <m_score__min__energy>  (6) 
-14.029999999999999

>  <m_primary>  (6) 
energy

$$$$
6:0
     RDKit          3D

 52 55  0  0  0  0  0  0  0  0999 V2000
    0.2700   23.3400  -24.9460 C   0  0  0  0  0  0  0  0  0  0  0  0
   -0.8540   22.6550  -25.4870 O   0  0  0  0  0  0  0  0  0  0  0  0
   -1.5030   23.0080  -26.6810 C   0  0  0  0  0  0  0  0  0  0  0  0
   -1.7220   22.0750  -27.7150 C   0  0  0  0  0  0  0  0  0  0  0  0
   -2.3690   22.4610  -28.8900 C   0  0  0  0  0  0  0  0  0  0  0  0
   -2.5760   21.5560  -29.8810 N   0  0  0  0  0  0  0  0  0  0  0  0
   -3.2010   21.8990  -31.0390 C   0  0  0  0  0  0  0  0  0  0  0  0
   -3.4170   20.8870  -32.1030 C   0  0  0  0  0  0  0  0  0  0  0  0
   -2.4240   20.6410  -33.0720 C   0  0  0  0  0  0  0  0  0  0  0  0
   -2.6330   19.6920  -34.0750 C   0  0  0  0  0  0  0  0  0  0  0  0
   -3.8310   18.9770  -34.1280 C   0  0  0  0  0  0  0  0  0  0  0  0
   -4.8300   19.2090  -33.1740 C   0  0  0  0  0  0  0  0  0  0  0  0
   -6.3590   18.3380  -33.2410 S   0  0  0  0  0  0  0  0  0  0  0  0
   -6.4320   17.3950  -32.0730 O   0  0  0  0  0  0  0  0  0  0  0  0
   -6.4510   17.5420  -34.5140 O   0  0  0  0  0  0  0  0  0  0  0  0
   -7.6790   19.4680  -33.1500 N   0  0  0  0  0  0  0  0  0  0  0  0
   -7.6430   20.2360  -31.8930 C   0  0  0  0  0  0  0  0  0  0  0  0
   -9.0210   20.2100  -31.2420 C   0  0  0  0  0  0  0  0  0  0  0  0
   -9.7330   21.4460  -31.7580 C   0  0  0  0  0  0  0  0  0  0  0  0
   -8.6440   22.4900  -31.9530 C   0  0  0  0  0  0  0  0  0  0  0  0
   -7.3320   21.7250  -32.1250 C   0  0  0  0  0  0  0  0  0  0  0  0
   -4.6200   20.1590  -32.1650 C   0  0  0  0  0  0  0  0  0  0  0  0
   -3.6270   23.1800  -31.2120 N   0  0  0  0  0  0  0  0  0  0  0  0
   -3.4490   24.1280  -30.2560 C   0  0  0  0  0  0  0  0  0  0  0  0
   -3.8620   25.3000  -30.4630 O   0  0  0  0  0  0  0  0  0  0  0  0
   -2.8070   23.7900  -29.0520 C   0  0  0  0  0  0  0  0  0  0  0  0
   -2.5930   24.7210  -28.0230 C   0  0  0  0  0  0  0  0  0  0  0  0
   -1.9420   24.3330  -26.8350 C   0  0  0  0  0  0  0  0  0  0  0  0
   -1.7100   25.2340  -25.7830 O   0  0  0  0  0  0  0  0  0  0  0  0
   -1.2690   26.5770  -25.9540 C   0  0  0  0  0  0  0  0  0  0  0  0
    0.2229   23.3113  -23.8474 H   0  0  0  0  0  0  0  0  0  0  0  0
    1.1953   22.8521  -25.2862 H   0  0  0  0  0  0  0  0  0  0  0  0
    0.2605   24.3860  -25.2862 H   0  0  0  0  0  0  0  0  0  0  0  0
   -1.3808   21.0362  -27.5950 H   0  0  0  0  0  0  0  0  0  0  0  0
   -1.4775   21.2004  -33.0382 H   0  0  0  0  0  0  0  0  0  0  0  0
   -1.8509   19.5072  -34.8261 H   0  0  0  0  0  0  0  0  0  0  0  0
   -3.9906   18.2305  -34.9200 H   0  0  0  0  0  0  0  0  0  0  0  0
   -7.6270   20.1060  -33.9780 H   0  0  0  0  0  0  0  0  0  0  0  0
   -6.8613   19.7738  -31.2723 H   0  0  0  0  0  0  0  0  0  0  0  0
   -9.5675   19.3010  -31.5337 H   0  0  0  0  0  0  0  0  0  0  0  0
   -8.9549   20.2041  -30.1440 H   0  0  0  0  0  0  0  0  0  0  0  0
  -10.2344   21.2304  -32.7130 H   0  0  0  0  0  0  0  0  0  0  0  0
  -10.5094   21.7914  -31.0595 H   0  0  0  0  0  0  0  0  0  0  0  0
   -8.8522   23.0929  -32.8492 H   0  0  0  0  0  0  0  0  0  0  0  0
   -8.5937   23.1761  -31.0947 H   0  0  0  0  0  0  0  0  0  0  0  0
   -6.9385   21.8744  -33.1413 H   0  0  0  0  0  0  0  0  0  0  0  0
   -6.5740   22.0824  -31.4125 H   0  0  0  0  0  0  0  0  0  0  0  0
   -5.4035   20.3374  -31.4138 H   0  0  0  0  0  0  0  0  0  0  0  0
   -2.9355   25.7592  -28.1449 H   0  0  0  0  0  0  0  0  0  0  0  0
   -1.1166   27.0412  -24.9684 H   0  0  0  0  0  0  0  0  0  0  0  0
   -0.3215   26.5835  -26.5128 H   0  0  0  0  0  0  0  0  0  0  0  0
   -2.0282   27.1439  -26.5128 H   0  0  0  0  0  0  0  0  0  0  0  0
  1  2  1  0
  2  3  1  0
  3  4  2  0
  4  5  1  0
  5  6  1  0
  6  7  2  0
  7  8  1  0
  8  9  2  0
  9 10  1  0
 10 11  2  0
 11 12  1  0
 12 13  1  0
 13 14  2  0
 13 15  2  0
 13 16  1  0
 16 17  1  0
 17 18  1  0
 18 19  1  0
 19 20  1  0
 20 21  1  0
 12 22  2  0
  7 23  1  0
 23 24  1  0
 24 25  2  0
 24 26  1  0
 26 27  1  0
 27 28  2  0
 28 29  1  0
 29 30  1  0
 28  3  1  0
 26  5  2  0
 22  8  1  0
 21 17  1  0
  1 31  1  0
  1 32  1  0
  1 33  1  0
  4 34  1  0
  9 35  1  0
 10 36  1  0
 11 37  1  0
 16 38  1  0
 17 39  1  0
 18 40  1  0
 18 41  1  0
 19 42  1  0
 19 43  1  0
 20 44  1  0
 20 45  1  0
 21 46  1  0
 21 47  1  0
 22 48  1  0
 27 49  1  0
 30 50  1  0
 30 51  1  0
 30 52  1  0
M  CHG  1  23  -1
M  END
>  <UniqueID>  (7) 
7

>  <SMILES>  (7) 
COc1cc2nc(-c3cccc(S(=O)(=O)NC4CCCC4)c3)[n-]c(=O)c2cc1OC

>  <Energy>  (7) 
60.21078616749298

>  <Genealogy>  (7) 
COc1cc2nc(-c3cccc(S(=O)(=O)NC4CCCC4)c3)[n-]c(=O)c2cc1OC (protonated)
COc1cc2nc(-c3cccc(S(=O)(=O)NC4CCCC4)c3)[n-]c(=O)c2cc1OC (3D coordinates assigned)
COc1cc2nc(-c3cccc(S(=O)(=O)NC4CCCC4)c3)[n-]c(=O)c2cc1OC (nonaromatic ring conformer: 60.21078616749298 kcal/mol)

>  <smiles>  (7) 
COc1cc2nc(-c3cccc(S(=O)(=O)NC4CCCC4)c3)[nH]c(=O)c2cc1OC

>  <score_type>  (7) 
oracle

>  <origin>  (7) 
adgpu

>  <m_score__min__energy>  (7) 
-9.8200000000000003

>  <m_primary>  (7) 
energy

$$$$
7:0
     RDKit          3D

 56 60  0  0  0  0  0  0  0  0999 V2000
   -6.4320   16.1250  -34.1880 O   0  0  0  0  0  0  0  0  0  0  0  0
   -5.8100   17.4760  -33.9740 S   0  0  0  0  0  0  0  0  0  0  0  0
   -6.1100   18.3310  -35.1740 O   0  0  0  0  0  0  0  0  0  0  0  0
   -4.0450   17.2750  -33.8180 C   0  0  0  0  0  0  0  0  0  0  0  0
   -3.2030   18.3910  -33.9480 C   0  0  0  0  0  0  0  0  0  0  0  0
   -1.8060   18.2660  -33.9070 C   0  0  0  0  0  0  0  0  0  0  0  0
   -0.9430   19.4600  -34.1060 C   0  0  0  0  0  0  0  0  0  0  0  0
   -0.8110   20.4270  -33.0940 C   0  0  0  0  0  0  0  0  0  0  0  0
   -0.0070   21.5490  -33.3110 C   0  0  0  0  0  0  0  0  0  0  0  0
    0.6460   21.7040  -34.4920 N   0  0  0  0  0  0  0  0  0  0  0  0
    0.5420   20.7870  -35.4890 C   0  0  0  0  0  0  0  0  0  0  0  0
   -0.2500   19.6490  -35.3150 C   0  0  0  0  0  0  0  0  0  0  0  0
   -1.2450   16.9990  -33.6900 C   0  0  0  0  0  0  0  0  0  0  0  0
   -2.0670   15.8850  -33.5180 C   0  0  0  0  0  0  0  0  0  0  0  0
   -3.4620   16.0100  -33.5740 C   0  0  0  0  0  0  0  0  0  0  0  0
   -4.2680   14.8460  -33.3580 N   0  0  0  0  0  0  0  0  0  0  0  0
   -4.6100   14.3640  -32.0310 C   0  0  0  0  0  0  0  0  0  0  0  0
   -5.0930   12.9320  -32.2310 C   0  0  0  0  0  0  0  0  0  0  0  0
   -5.3610   12.7830  -33.7270 C   0  0  0  0  0  0  0  0  0  0  0  0
   -4.5550   13.8820  -34.4040 C   0  0  0  0  0  0  0  0  0  0  0  0
   -6.5540   18.2540  -32.5870 N   0  0  2  0  0  0  0  0  0  0  0  0
   -8.0290   18.1950  -32.7150 C   0  0  0  0  0  0  0  0  0  0  0  0
   -8.7180   19.0240  -31.6340 C   0  0  0  0  0  0  0  0  0  0  0  0
   -8.2950   20.4490  -31.7960 C   0  0  0  0  0  0  0  0  0  0  0  0
   -9.2050   21.5000  -31.6060 C   0  0  0  0  0  0  0  0  0  0  0  0
   -8.7970   22.8220  -31.7990 C   0  0  0  0  0  0  0  0  0  0  0  0
   -7.4790   23.1010  -32.1690 C   0  0  0  0  0  0  0  0  0  0  0  0
   -6.5650   22.0580  -32.3420 C   0  0  0  0  0  0  0  0  0  0  0  0
   -6.9690   20.7250  -32.1660 C   0  0  0  0  0  0  0  0  0  0  0  0
   -5.9620   19.6020  -32.3220 C   0  0  0  0  0  0  0  0  0  0  0  0
   -3.6491   19.3871  -34.0853 H   0  0  0  0  0  0  0  0  0  0  0  0
   -1.3378   20.3010  -32.1366 H   0  0  0  0  0  0  0  0  0  0  0  0
    0.0975   22.3093  -32.5229 H   0  0  0  0  0  0  0  0  0  0  0  0
    1.0822   20.9406  -36.4348 H   0  0  0  0  0  0  0  0  0  0  0  0
   -0.3311   18.9041  -36.1203 H   0  0  0  0  0  0  0  0  0  0  0  0
   -0.1517   16.8831  -33.6553 H   0  0  0  0  0  0  0  0  0  0  0  0
   -1.6157   14.8984  -33.3366 H   0  0  0  0  0  0  0  0  0  0  0  0
   -3.7271   14.3841  -31.3751 H   0  0  0  0  0  0  0  0  0  0  0  0
   -5.3775   14.9911  -31.5538 H   0  0  0  0  0  0  0  0  0  0  0  0
   -4.3197   12.2193  -31.9084 H   0  0  0  0  0  0  0  0  0  0  0  0
   -5.9956   12.7247  -31.6375 H   0  0  0  0  0  0  0  0  0  0  0  0
   -5.0313   11.7942  -34.0786 H   0  0  0  0  0  0  0  0  0  0  0  0
   -6.4335   12.8675  -33.9566 H   0  0  0  0  0  0  0  0  0  0  0  0
   -3.6214   13.4749  -34.8195 H   0  0  0  0  0  0  0  0  0  0  0  0
   -5.1043   14.3369  -35.2415 H   0  0  0  0  0  0  0  0  0  0  0  0
   -6.3070   17.6480  -31.7670 H   0  0  0  0  0  0  0  0  0  0  0  0
   -8.3179   18.5842  -33.7024 H   0  0  0  0  0  0  0  0  0  0  0  0
   -8.3438   17.1473  -32.5996 H   0  0  0  0  0  0  0  0  0  0  0  0
   -9.8097   18.9451  -31.7437 H   0  0  0  0  0  0  0  0  0  0  0  0
   -8.4368   18.6557  -30.6364 H   0  0  0  0  0  0  0  0  0  0  0  0
  -10.2404   21.2828  -31.3049 H   0  0  0  0  0  0  0  0  0  0  0  0
   -9.5143   23.6442  -31.6595 H   0  0  0  0  0  0  0  0  0  0  0  0
   -7.1604   24.1424  -32.3243 H   0  0  0  0  0  0  0  0  0  0  0  0
   -5.5240   22.2826  -32.6174 H   0  0  0  0  0  0  0  0  0  0  0  0
   -5.2974   19.8538  -33.1616 H   0  0  0  0  0  0  0  0  0  0  0  0
   -5.4377   19.5233  -31.3582 H   0  0  0  0  0  0  0  0  0  0  0  0
  1  2  2  0
  2  3  2  0
  2  4  1  0
  4  5  2  0
  5  6  1  0
  6  7  1  0
  7  8  2  0
  8  9  1  0
  9 10  2  0
 10 11  1  0
 11 12  2  0
  6 13  2  0
 13 14  1  0
 14 15  2  0
 15 16  1  0
 16 17  1  0
 17 18  1  0
 18 19  1  0
 19 20  1  0
  2 21  1  0
 21 22  1  0
 22 23  1  0
 23 24  1  0
 24 25  2  0
 25 26  1  0
 26 27  2  0
 27 28  1  0
 28 29  2  0
 29 30  1  0
 15  4  1  0
 20 16  1  0
 30 21  1  0
 12  7  1  0
 29 24  1  0
  5 31  1  0
  8 32  1  0
  9 33  1  0
 11 34  1  0
 12 35  1  0
 13 36  1  0
 14 37  1  0
 17 38  1  0
 17 39  1  0
 18 40  1  0
 18 41  1  0
 19 42  1  0
 19 43  1  0
 20 44  1  0
 20 45  1  0
 21 46  1  1
 22 47  1  0
 22 48  1  0
 23 49  1  0
 23 50  1  0
 25 51  1  0
 26 52  1  0
 27 53  1  0
 28 54  1  0
 30 55  1  0
 30 56  1  0
M  CHG  1  21   1
M  END
>  <UniqueID>  (8) 
8

>  <SMILES>  (8) 
O=S(=O)(c1cc(-c2ccncc2)ccc1N1CCCC1)[N@@H+]1CCc2ccccc2C1

>  <Energy>  (8) 
81.26846402692152

>  <Genealogy>  (8) 
O=S(=O)(c1cc(-c2ccncc2)ccc1N1CCCC1)[NH+]1CCc2ccccc2C1 (protonated)
O=S(=O)(c1cc(-c2ccncc2)ccc1N1CCCC1)[N@@H+]1CCc2ccccc2C1 (chirality)
O=S(=O)(c1cc(-c2ccncc2)ccc1N1CCCC1)[N@@H+]1CCc2ccccc2C1 (3D coordinates assigned)
O=S(=O)(c1cc(-c2ccncc2)ccc1N1CCCC1)[N@@H+]1CCc2ccccc2C1 (nonaromatic ring conformer: 81.26846402692152 kcal/mol)

>  <smiles>  (8) 
O=S(=O)(c1cc(-c2ccncc2)ccc1N1CCCC1)N1CCc2ccccc2C1

>  <score_type>  (8) 
oracle

>  <origin>  (8) 
adgpu

>  <m_score__min__energy>  (8) 
-9.8499999999999996

>  <m_primary>  (8) 
energy

$$$$
8:0
     RDKit          3D

 42 45  0  0  0  0  0  0  0  0999 V2000
   -1.5000   20.3940  -25.9600 C   0  0  0  0  0  0  0  0  0  0  0  0
   -0.5230   20.3590  -27.0630 N   0  0  0  0  0  0  0  0  0  0  0  0
   -1.0540   19.6950  -28.2700 C   0  0  0  0  0  0  0  0  0  0  0  0
   -2.2200   20.4690  -28.9070 C   0  0  0  0  0  0  0  0  0  0  0  0
   -1.9740   21.9550  -28.9470 C   0  0  0  0  0  0  0  0  0  0  0  0
   -2.8230   22.7670  -29.7170 C   0  0  0  0  0  0  0  0  0  0  0  0
   -2.6660   24.1650  -29.7250 C   0  0  0  0  0  0  0  0  0  0  0  0
   -3.5200   25.0210  -30.4990 N   0  0  0  0  0  0  0  0  0  0  0  0
   -5.2460   25.1080  -30.3520 S   0  0  0  0  0  0  0  0  0  0  0  0
   -5.6130   25.2220  -28.8990 O   0  0  0  0  0  0  0  0  0  0  0  0
   -5.7410   26.3310  -31.0770 O   0  0  0  0  0  0  0  0  0  0  0  0
   -5.9740   23.6470  -31.0110 C   0  0  0  0  0  0  0  0  0  0  0  0
   -5.1640   22.7020  -31.6590 C   0  0  0  0  0  0  0  0  0  0  0  0
   -5.7290   21.5470  -32.2110 C   0  0  0  0  0  0  0  0  0  0  0  0
   -7.1070   21.3360  -32.1230 C   0  0  0  0  0  0  0  0  0  0  0  0
   -7.6760   20.2250  -32.6640 N   0  0  0  0  0  0  0  0  0  0  0  0
   -9.0180   20.0180  -32.5930 C   0  0  0  0  0  0  0  0  0  0  0  0
   -9.5220   18.9810  -33.0980 O   0  0  0  0  0  0  0  0  0  0  0  0
   -9.8310   20.9620  -31.9570 C   0  0  0  0  0  0  0  0  0  0  0  0
   -9.2690   22.0750  -31.4140 N   0  0  0  0  0  0  0  0  0  0  0  0
   -7.9270   22.2850  -31.4770 C   0  0  0  0  0  0  0  0  0  0  0  0
   -7.3580   23.4350  -30.9190 C   0  0  0  0  0  0  0  0  0  0  0  0
   -1.6430   24.7430  -28.9620 C   0  0  0  0  0  0  0  0  0  0  0  0
   -1.4660   26.1230  -28.9610 O   0  0  0  0  0  0  0  0  0  0  0  0
   -0.7930   23.9410  -28.1950 C   0  0  0  0  0  0  0  0  0  0  0  0
   -0.9640   22.5500  -28.1640 C   0  0  0  0  0  0  0  0  0  0  0  0
    0.0070   21.7010  -27.3750 C   0  0  0  0  0  0  0  0  0  0  0  0
   -0.9674   20.3749  -24.9977 H   0  0  0  0  0  0  0  0  0  0  0  0
   -2.0987   21.3142  -26.0295 H   0  0  0  0  0  0  0  0  0  0  0  0
   -2.1630   19.5190  -26.0295 H   0  0  0  0  0  0  0  0  0  0  0  0
   -0.2439   19.6075  -29.0090 H   0  0  0  0  0  0  0  0  0  0  0  0
   -1.4354   18.7088  -27.9668 H   0  0  0  0  0  0  0  0  0  0  0  0
   -2.3628   20.1074  -29.9360 H   0  0  0  0  0  0  0  0  0  0  0  0
   -3.1132   20.2951  -28.2890 H   0  0  0  0  0  0  0  0  0  0  0  0
   -3.6187   22.3051  -30.3199 H   0  0  0  0  0  0  0  0  0  0  0  0
   -4.0795   22.8700  -31.7334 H   0  0  0  0  0  0  0  0  0  0  0  0
   -5.0892   20.8065  -32.7133 H   0  0  0  0  0  0  0  0  0  0  0  0
  -10.9181   20.8051  -31.8964 H   0  0  0  0  0  0  0  0  0  0  0  0
   -7.9951   24.1723  -30.4086 H   0  0  0  0  0  0  0  0  0  0  0  0
    0.0160   24.4048  -27.6115 H   0  0  0  0  0  0  0  0  0  0  0  0
    0.9297   21.5857  -27.9626 H   0  0  0  0  0  0  0  0  0  0  0  0
    0.1908   22.2130  -26.4189 H   0  0  0  0  0  0  0  0  0  0  0  0
  1  2  1  0
  2  3  1  0
  3  4  1  0
  4  5  1  0
  5  6  2  0
  6  7  1  0
  7  8  1  0
  8  9  1  0
  9 10  2  0
  9 11  2  0
  9 12  1  0
 12 13  2  0
 13 14  1  0
 14 15  2  0
 15 16  1  0
 16 17  1  0
 17 18  2  0
 17 19  1  0
 19 20  2  0
 20 21  1  0
 21 22  2  0
  7 23  2  0
 23 24  1  0
 23 25  1  0
 25 26  2  0
 26 27  1  0
 27  2  1  0
 26  5  1  0
 22 12  1  0
 21 15  1  0
  1 28  1  0
  1 29  1  0
  1 30  1  0
  3 31  1  0
  3 32  1  0
  4 33  1  0
  4 34  1  0
  6 35  1  0
 13 36  1  0
 14 37  1  0
 19 38  1  0
 22 39  1  0
 25 40  1  0
 27 41  1  0
 27 42  1  0
M  CHG  3   8  -1  16  -1  24  -1
M  END
>  <UniqueID>  (9) 
9

>  <SMILES>  (9) 
CN1CCc2cc([N-]S(=O)(=O)c3ccc4[n-]c(=O)cnc4c3)c([O-])cc2C1

>  <Energy>  (9) 
58.18987061348448

>  <Genealogy>  (9) 
CN1CCc2cc([N-]S(=O)(=O)c3ccc4[n-]c(=O)cnc4c3)c([O-])cc2C1 (protonated)
CN1CCc2cc([N-]S(=O)(=O)c3ccc4[n-]c(=O)cnc4c3)c([O-])cc2C1 (3D coordinates assigned)
CN1CCc2cc([N-]S(=O)(=O)c3ccc4[n-]c(=O)cnc4c3)c([O-])cc2C1 (nonaromatic ring conformer: 58.18987061348448 kcal/mol)

>  <smiles>  (9) 
CN1CCc2cc(NS(=O)(=O)c3ccc4[nH]c(=O)cnc4c3)c(O)cc2C1

>  <score_type>  (9) 
oracle

>  <origin>  (9) 
adgpu

>  <m_score__min__energy>  (9) 
-13.720000000000001

>  <m_primary>  (9) 
energy

$$$$
9:0
     RDKit          3D

 57 60  0  0  0  0  0  0  0  0999 V2000
   -0.1020   17.6680  -35.3960 C   0  0  0  0  0  0  0  0  0  0  0  0
   -1.3590   17.1650  -34.6880 C   0  0  0  0  0  0  0  0  0  0  0  0
   -2.1800   18.2870  -34.2370 N   0  0  0  0  0  0  0  0  0  0  0  0
   -3.4650   18.4460  -34.0320 C   0  0  0  0  0  0  0  0  0  0  0  0
   -3.8330   19.6350  -33.3860 C   0  0  0  0  0  0  0  0  0  0  0  0
   -5.1520   19.8550  -32.9900 C   0  0  0  0  0  0  0  0  0  0  0  0
   -6.1060   18.8560  -33.2150 C   0  0  0  0  0  0  0  0  0  0  0  0
   -5.7340   17.7120  -33.9280 C   0  0  0  0  0  0  0  0  0  0  0  0
   -4.4470   17.5220  -34.3660 N   0  0  0  0  0  0  0  0  0  0  0  0
   -4.2330   16.4020  -35.2960 C   0  0  0  0  0  0  0  0  0  0  0  0
   -7.5470   19.0530  -32.8200 C   0  0  0  0  0  0  0  0  0  0  0  0
   -7.7100   20.1810  -31.7950 C   0  0  0  0  0  0  0  0  0  0  0  0
   -6.9510   21.3730  -32.2160 N   0  0  1  0  0  0  0  0  0  0  0  0
   -7.3070   22.7050  -31.1450 S   0  0  0  0  0  0  0  0  0  0  0  0
   -7.9620   23.8170  -31.9150 O   0  0  0  0  0  0  0  0  0  0  0  0
   -8.2480   22.2580  -30.0590 O   0  0  0  0  0  0  0  0  0  0  0  0
   -5.8170   23.3140  -30.4260 C   0  0  0  0  0  0  0  0  0  0  0  0
   -5.2610   22.6890  -29.3050 C   0  0  0  0  0  0  0  0  0  0  0  0
   -4.0630   23.1580  -28.7570 C   0  0  0  0  0  0  0  0  0  0  0  0
   -3.3970   24.2530  -29.3360 C   0  0  0  0  0  0  0  0  0  0  0  0
   -2.1370   24.7800  -28.7740 C   0  0  0  0  0  0  0  0  0  0  0  0
   -1.9840   26.0220  -28.3810 O   0  0  0  0  0  0  0  0  0  0  0  0
   -0.7530   26.1420  -27.9410 C   0  0  0  0  0  0  0  0  0  0  0  0
   -0.1840   27.4190  -27.4220 C   0  0  0  0  0  0  0  0  0  0  0  0
   -0.0430   25.0000  -28.0430 N   0  0  0  0  0  0  0  0  0  0  0  0
   -0.9250   24.1330  -28.5780 C   0  0  0  0  0  0  0  0  0  0  0  0
   -0.5730   22.7200  -28.9200 C   0  0  0  0  0  0  0  0  0  0  0  0
   -3.9710   24.8870  -30.4510 C   0  0  0  0  0  0  0  0  0  0  0  0
   -5.1660   24.4130  -30.9980 C   0  0  0  0  0  0  0  0  0  0  0  0
   -5.4990   21.1000  -32.2080 C   0  0  0  0  0  0  0  0  0  0  0  0
    0.6459   17.9673  -34.6469 H   0  0  0  0  0  0  0  0  0  0  0  0
    0.3103   16.8656  -36.0254 H   0  0  0  0  0  0  0  0  0  0  0  0
   -0.3571   18.5333  -36.0254 H   0  0  0  0  0  0  0  0  0  0  0  0
   -1.9435   16.5467  -35.3852 H   0  0  0  0  0  0  0  0  0  0  0  0
   -1.0587   16.5711  -33.8122 H   0  0  0  0  0  0  0  0  0  0  0  0
   -3.0715   20.4040  -33.1891 H   0  0  0  0  0  0  0  0  0  0  0  0
   -6.4922   16.9447  -34.1434 H   0  0  0  0  0  0  0  0  0  0  0  0
   -4.0567   15.4791  -34.7241 H   0  0  0  0  0  0  0  0  0  0  0  0
   -5.1234   16.2763  -35.9296 H   0  0  0  0  0  0  0  0  0  0  0  0
   -3.3590   16.6134  -35.9296 H   0  0  0  0  0  0  0  0  0  0  0  0
   -8.1311   19.3017  -33.7183 H   0  0  0  0  0  0  0  0  0  0  0  0
   -7.9048   18.1201  -32.3598 H   0  0  0  0  0  0  0  0  0  0  0  0
   -8.7753   20.4415  -31.7093 H   0  0  0  0  0  0  0  0  0  0  0  0
   -7.3249   19.8381  -30.8234 H   0  0  0  0  0  0  0  0  0  0  0  0
   -7.2460   21.6560  -33.1800 H   0  0  0  0  0  0  0  0  0  0  0  0
   -5.7685   21.8244  -28.8523 H   0  0  0  0  0  0  0  0  0  0  0  0
   -3.6392   22.6678  -27.8681 H   0  0  0  0  0  0  0  0  0  0  0  0
   -0.1910   27.4033  -26.3221 H   0  0  0  0  0  0  0  0  0  0  0  0
    0.8497   27.5323  -27.7805 H   0  0  0  0  0  0  0  0  0  0  0  0
   -0.7910   28.2634  -27.7805 H   0  0  0  0  0  0  0  0  0  0  0  0
   -0.4294   22.1435  -27.9942 H   0  0  0  0  0  0  0  0  0  0  0  0
   -1.3869   22.2716  -29.5086 H   0  0  0  0  0  0  0  0  0  0  0  0
    0.3561   22.7058  -29.5086 H   0  0  0  0  0  0  0  0  0  0  0  0
   -3.4760   25.7626  -30.8963 H   0  0  0  0  0  0  0  0  0  0  0  0
   -5.5971   24.9057  -31.8820 H   0  0  0  0  0  0  0  0  0  0  0  0
   -4.9741   21.9574  -32.6545 H   0  0  0  0  0  0  0  0  0  0  0  0
   -5.1890   20.9426  -31.1644 H   0  0  0  0  0  0  0  0  0  0  0  0
  1  2  1  0
  2  3  1  0
  3  4  2  3
  4  5  1  0
  5  6  2  0
  6  7  1  0
  7  8  2  0
  8  9  1  0
  9 10  1  0
  7 11  1  0
 11 12  1  0
 12 13  1  0
 13 14  1  0
 14 15  2  0
 14 16  2  0
 14 17  1  0
 17 18  2  0
 18 19  1  0
 19 20  2  0
 20 21  1  0
 21 22  1  0
 22 23  1  0
 23 24  1  0
 23 25  2  0
 25 26  1  0
 26 27  1  0
 20 28  1  0
 28 29  2  0
 13 30  1  0
  9  4  1  0
 29 17  1  0
 30  6  1  0
 26 21  2  0
  1 31  1  0
  1 32  1  0
  1 33  1  0
  2 34  1  0
  2 35  1  0
  5 36  1  0
  8 37  1  0
 10 38  1  0
 10 39  1  0
 10 40  1  0
 11 41  1  0
 11 42  1  0
 12 43  1  0
 12 44  1  0
 13 45  1  6
 18 46  1  0
 19 47  1  0
 24 48  1  0
 24 49  1  0
 24 50  1  0
 27 51  1  0
 27 52  1  0
 27 53  1  0
 28 54  1  0
 29 55  1  0
 30 56  1  0
 30 57  1  0
M  CHG  1  13   1
M  END
>  <UniqueID>  (10) 
10

>  <SMILES>  (10) 
CCN=c1cc2c(cn1C)CC[N@@H+](S(=O)(=O)c1ccc(-c3oc(C)nc3C)cc1)C2

>  <Energy>  (10) 
106.38016729780907

>  <Genealogy>  (10) 
CCN=c1cc2c(cn1C)CC[NH+](S(=O)(=O)c1ccc(-c3oc(C)nc3C)cc1)C2 (protonated)
CCN=c1cc2c(cn1C)CC[N@@H+](S(=O)(=O)c1ccc(-c3oc(C)nc3C)cc1)C2 (chirality)
CCN=c1cc2c(cn1C)CC[N@@H+](S(=O)(=O)c1ccc(-c3oc(C)nc3C)cc1)C2 (3D coordinates assigned)
CCN=c1cc2c(cn1C)CC[N@@H+](S(=O)(=O)c1ccc(-c3oc(C)nc3C)cc1)C2 (nonaromatic ring conformer: 106.38016729780907 kcal/mol)

>  <smiles>  (10) 
CCN=c1cc2c(cn1C)CCN(S(=O)(=O)c1ccc(-c3oc(C)nc3C)cc1)C2

>  <score_type>  (10) 
oracle

>  <origin>  (10) 
adgpu

>  <m_score__min__energy>  (10) 
-9.1699999999999999

>  <m_primary>  (10) 
energy

$$$$
10:0
     RDKit          3D

 65 69  0  0  0  0  0  0  0  0999 V2000
   -4.1060   19.7260  -30.7490 O   0  0  0  0  0  0  0  0  0  0  0  0
   -3.2780   20.5500  -31.2290 C   0  0  0  0  0  0  0  0  0  0  0  0
   -2.1410   20.0680  -31.9670 N   0  0  0  0  0  0  0  0  0  0  0  0
   -2.1350   18.8160  -32.6750 C   0  0  0  0  0  0  0  0  0  0  0  0
   -0.9920   18.4300  -33.3900 C   0  0  0  0  0  0  0  0  0  0  0  0
   -0.9850   17.2370  -34.1200 C   0  0  0  0  0  0  0  0  0  0  0  0
   -2.1250   16.4290  -34.1560 C   0  0  0  0  0  0  0  0  0  0  0  0
   -3.2780   16.8110  -33.4590 C   0  0  0  0  0  0  0  0  0  0  0  0
   -4.7540   15.8540  -33.5700 S   0  0  0  0  0  0  0  0  0  0  0  0
   -5.1600   15.4490  -32.1820 O   0  0  0  0  0  0  0  0  0  0  0  0
   -4.5030   14.6060  -34.3730 O   0  0  0  0  0  0  0  0  0  0  0  0
   -6.0430   16.7940  -34.2910 N   0  0  0  0  0  0  0  0  0  0  0  0
   -7.2080   16.9240  -33.3920 C   0  0  0  0  0  0  0  0  0  0  0  0
   -6.9560   17.8970  -32.2230 C   0  0  0  0  0  0  0  0  0  0  0  0
   -6.1650   19.1510  -32.6430 C   0  0  0  0  0  0  0  0  0  0  0  0
   -6.1420   19.3300  -34.1620 C   0  0  0  0  0  0  0  0  0  0  0  0
   -5.5460   18.0830  -34.8430 C   0  0  0  0  0  0  0  0  0  0  0  0
   -3.2830   18.0050  -32.7240 C   0  0  0  0  0  0  0  0  0  0  0  0
   -3.4870   22.0060  -31.0280 C   0  0  0  0  0  0  0  0  0  0  0  0
   -4.6770   22.6190  -31.4540 C   0  0  0  0  0  0  0  0  0  0  0  0
   -4.9160   23.9670  -31.1760 C   0  0  0  0  0  0  0  0  0  0  0  0
   -3.9720   24.7190  -30.4740 C   0  0  0  0  0  0  0  0  0  0  0  0
   -4.2380   26.0520  -30.1830 O   0  0  0  0  0  0  0  0  0  0  0  0
   -2.7630   24.1360  -30.0710 C   0  0  0  0  0  0  0  0  0  0  0  0
   -1.8130   24.9350  -29.3570 N   0  0  0  0  0  0  0  0  0  0  0  0
   -1.1070   24.5160  -27.8260 S   0  0  0  0  0  0  0  0  0  0  0  0
    0.2420   25.1700  -27.7480 O   0  0  0  0  0  0  0  0  0  0  0  0
   -1.9420   25.0210  -26.6850 O   0  0  0  0  0  0  0  0  0  0  0  0
   -0.9190   22.7620  -27.7260 C   0  0  0  0  0  0  0  0  0  0  0  0
    0.1710   22.1180  -28.3530 C   0  0  0  0  0  0  0  0  0  0  0  0
    0.2990   20.7230  -28.2930 C   0  0  0  0  0  0  0  0  0  0  0  0
   -0.6760   19.9860  -27.6160 C   0  0  0  0  0  0  0  0  0  0  0  0
   -1.7350   20.6050  -27.0060 C   0  0  0  0  0  0  0  0  0  0  0  0
   -1.8770   21.9940  -27.0380 C   0  0  0  0  0  0  0  0  0  0  0  0
   -2.6540   19.6360  -26.3630 C   0  0  0  0  0  0  0  0  0  0  0  0
   -2.0360   18.2620  -26.6880 C   0  0  0  0  0  0  0  0  0  0  0  0
   -0.7350   18.5120  -27.4760 C   0  0  0  0  0  0  0  0  0  0  0  0
   -2.5290   22.7750  -30.3380 C   0  0  0  0  0  0  0  0  0  0  0  0
   -1.2490   20.6160  -31.9160 H   0  0  0  0  0  0  0  0  0  0  0  0
   -0.0965   19.0687  -33.3766 H   0  0  0  0  0  0  0  0  0  0  0  0
   -0.0801   16.9339  -34.6671 H   0  0  0  0  0  0  0  0  0  0  0  0
   -2.1165   15.4921  -34.7324 H   0  0  0  0  0  0  0  0  0  0  0  0
   -8.0638   17.2919  -33.9770 H   0  0  0  0  0  0  0  0  0  0  0  0
   -7.4048   15.9317  -32.9599 H   0  0  0  0  0  0  0  0  0  0  0  0
   -7.9272   18.2152  -31.8162 H   0  0  0  0  0  0  0  0  0  0  0  0
   -6.3524   17.3627  -31.4745 H   0  0  0  0  0  0  0  0  0  0  0  0
   -6.6338   20.0359  -32.1879 H   0  0  0  0  0  0  0  0  0  0  0  0
   -5.1273   19.0301  -32.2987 H   0  0  0  0  0  0  0  0  0  0  0  0
   -7.1692   19.4841  -34.5240 H   0  0  0  0  0  0  0  0  0  0  0  0
   -5.5185   20.2022  -34.4082 H   0  0  0  0  0  0  0  0  0  0  0  0
   -5.7974   18.1204  -35.9132 H   0  0  0  0  0  0  0  0  0  0  0  0
   -4.4616   18.1094  -34.6604 H   0  0  0  0  0  0  0  0  0  0  0  0
   -4.1906   18.3094  -32.1822 H   0  0  0  0  0  0  0  0  0  0  0  0
   -5.4249   22.0342  -32.0096 H   0  0  0  0  0  0  0  0  0  0  0  0
   -5.8518   24.4379  -31.5115 H   0  0  0  0  0  0  0  0  0  0  0  0
    0.9230   22.7139  -28.8909 H   0  0  0  0  0  0  0  0  0  0  0  0
    1.1517   20.2179  -28.7703 H   0  0  0  0  0  0  0  0  0  0  0  0
   -2.7247   22.4804  -26.5332 H   0  0  0  0  0  0  0  0  0  0  0  0
   -2.6952   19.7987  -25.2759 H   0  0  0  0  0  0  0  0  0  0  0  0
   -3.6886   19.7305  -26.7245 H   0  0  0  0  0  0  0  0  0  0  0  0
   -1.8125   17.7212  -25.7565 H   0  0  0  0  0  0  0  0  0  0  0  0
   -2.7357   17.6534  -27.2797 H   0  0  0  0  0  0  0  0  0  0  0  0
    0.1368   18.1372  -26.9197 H   0  0  0  0  0  0  0  0  0  0  0  0
   -0.7228   17.9945  -28.4466 H   0  0  0  0  0  0  0  0  0  0  0  0
   -1.5906   22.3072  -30.0055 H   0  0  0  0  0  0  0  0  0  0  0  0
  1  2  2  0
  2  3  1  0
  3  4  1  0
  4  5  2  0
  5  6  1  0
  6  7  2  0
  7  8  1  0
  8  9  1  0
  9 10  2  0
  9 11  2  0
  9 12  1  0
 12 13  1  0
 13 14  1  0
 14 15  1  0
 15 16  1  0
 16 17  1  0
  8 18  2  0
  2 19  1  0
 19 20  2  0
 20 21  1  0
 21 22  2  0
 22 23  1  0
 22 24  1  0
 24 25  1  0
 25 26  1  0
 26 27  2  0
 26 28  2  0
 26 29  1  0
 29 30  2  0
 30 31  1  0
 31 32  2  0
 32 33  1  0
 33 34  2  0
 33 35  1  0
 35 36  1  0
 36 37  1  0
 24 38  2  0
 18  4  1  0
 38 19  1  0
 17 12  1  0
 34 29  1  0
 37 32  1  0
  3 39  1  0
  5 40  1  0
  6 41  1  0
  7 42  1  0
 13 43  1  0
 13 44  1  0
 14 45  1  0
 14 46  1  0
 15 47  1  0
 15 48  1  0
 16 49  1  0
 16 50  1  0
 17 51  1  0
 17 52  1  0
 18 53  1  0
 20 54  1  0
 21 55  1  0
 30 56  1  0
 31 57  1  0
 34 58  1  0
 35 59  1  0
 35 60  1  0
 36 61  1  0
 36 62  1  0
 37 63  1  0
 37 64  1  0
 38 65  1  0
M  CHG  2  23  -1  25  -1
M  END
>  <UniqueID>  (11) 
11

>  <SMILES>  (11) 
O=C(Nc1cccc(S(=O)(=O)N2CCCCC2)c1)c1ccc([O-])c([N-]S(=O)(=O)c2ccc3c(c2)CCC3)c1

>  <Energy>  (11) 
96.38198018806605

>  <Genealogy>  (11) 
O=C(Nc1cccc(S(=O)(=O)N2CCCCC2)c1)c1ccc([O-])c([N-]S(=O)(=O)c2ccc3c(c2)CCC3)c1 (protonated)
O=C(Nc1cccc(S(=O)(=O)N2CCCCC2)c1)c1ccc([O-])c([N-]S(=O)(=O)c2ccc3c(c2)CCC3)c1 (3D coordinates assigned)
O=C(Nc1cccc(S(=O)(=O)N2CCCCC2)c1)c1ccc([O-])c([N-]S(=O)(=O)c2ccc3c(c2)CCC3)c1 (nonaromatic ring conformer: 96.38198018806605 kcal/mol)

>  <smiles>  (11) 
O=C(Nc1cccc(S(=O)(=O)N2CCCCC2)c1)c1ccc(O)c(NS(=O)(=O)c2ccc3c(c2)CCC3)c1

>  <score_type>  (11) 
oracle

>  <origin>  (11) 
adgpu

>  <m_score__min__energy>  (11) 
-15.699999999999999

>  <m_primary>  (11) 
energy

$$$$
11:0
     RDKit          3D

 88 92  0  0  0  0  0  0  0  0999 V2000
   -1.2550   21.9670  -26.6120 C   0  0  0  0  0  0  0  0  0  0  0  0
   -0.9010   20.8440  -27.6190 C   0  0  0  0  0  0  0  0  0  0  0  0
    0.6010   20.9690  -27.9540 C   0  0  0  0  0  0  0  0  0  0  0  0
   -1.1590   19.4910  -26.9180 C   0  0  0  0  0  0  0  0  0  0  0  0
   -1.7250   20.9180  -28.9210 C   0  0  0  0  0  0  0  0  0  0  0  0
   -1.1690   21.5390  -30.0640 C   0  0  0  0  0  0  0  0  0  0  0  0
   -1.8860   21.6260  -31.2590 C   0  0  0  0  0  0  0  0  0  0  0  0
   -3.1810   21.1080  -31.3450 C   0  0  0  0  0  0  0  0  0  0  0  0
   -4.0890   21.2190  -32.8530 S   0  0  0  0  0  0  0  0  0  0  0  0
   -3.2410   20.6420  -33.9520 O   0  0  0  0  0  0  0  0  0  0  0  0
   -4.3700   22.6550  -33.1970 O   0  0  0  0  0  0  0  0  0  0  0  0
   -5.6150   20.3140  -32.7260 C   0  0  0  0  0  0  0  0  0  0  0  0
   -5.6080   18.9870  -33.1930 C   0  0  0  0  0  0  0  0  0  0  0  0
   -6.7530   18.1820  -33.1480 C   0  0  0  0  0  0  0  0  0  0  0  0
   -6.6700   16.8260  -33.6440 N   0  0  0  0  0  0  0  0  0  0  0  0
   -5.4550   16.0240  -33.8520 C   0  0  0  0  0  0  0  0  0  0  0  0
   -4.7660   15.6710  -32.5190 C   0  0  0  0  0  0  0  0  0  0  0  0
   -3.4930   14.8230  -32.7380 C   0  0  0  0  0  0  0  0  0  0  0  0
   -2.8350   15.0570  -34.0420 N   0  0  0  0  0  0  0  0  0  0  0  0
   -3.0270   16.4250  -34.5410 C   0  0  0  0  0  0  0  0  0  0  0  0
   -4.5030   16.6720  -34.8860 C   0  0  0  0  0  0  0  0  0  0  0  0
   -7.9260   18.7230  -32.6040 C   0  0  0  0  0  0  0  0  0  0  0  0
   -7.9510   20.0320  -32.1290 C   0  0  0  0  0  0  0  0  0  0  0  0
   -6.8100   20.8500  -32.1640 C   0  0  0  0  0  0  0  0  0  0  0  0
   -6.9120   22.5330  -31.5590 S   0  0  0  0  0  0  0  0  0  0  0  0
   -7.1010   23.4570  -32.7270 O   0  0  0  0  0  0  0  0  0  0  0  0
   -8.1180   22.6350  -30.6690 O   0  0  0  0  0  0  0  0  0  0  0  0
   -5.5190   23.1380  -30.6840 N   0  0  0  0  0  0  0  0  0  0  0  0
   -5.5060   22.7100  -29.2730 C   0  0  0  0  0  0  0  0  0  0  0  0
   -4.6280   23.6100  -28.3830 C   0  0  0  0  0  0  0  0  0  0  0  0
   -3.3830   24.1260  -29.1530 C   0  0  0  0  0  0  0  0  0  0  0  0
   -2.4890   24.9700  -28.3020 N   0  0  0  0  0  0  0  0  0  0  0  0
   -2.8630   24.9220  -26.8600 C   0  0  0  0  0  0  0  0  0  0  0  0
   -1.7480   25.4240  -25.9150 C   0  0  0  0  0  0  0  0  0  0  0  0
   -0.7890   26.3590  -26.6460 C   0  0  0  0  0  0  0  0  0  0  0  0
   -0.1440   25.6470  -27.8450 C   0  0  0  0  0  0  0  0  0  0  0  0
   -1.0680   24.5820  -28.4630 C   0  0  0  0  0  0  0  0  0  0  0  0
   -3.8510   24.9270  -30.4060 C   0  0  0  0  0  0  0  0  0  0  0  0
   -5.2660   24.5710  -30.8910 C   0  0  0  0  0  0  0  0  0  0  0  0
   -3.7490   20.4880  -30.2290 C   0  0  0  0  0  0  0  0  0  0  0  0
   -3.0360   20.3950  -29.0300 C   0  0  0  0  0  0  0  0  0  0  0  0
   -1.1361   21.5899  -25.5855 H   0  0  0  0  0  0  0  0  0  0  0  0
   -0.5835   22.8242  -26.7678 H   0  0  0  0  0  0  0  0  0  0  0  0
   -2.2967   22.2842  -26.7678 H   0  0  0  0  0  0  0  0  0  0  0  0
    1.1819   21.0173  -27.0212 H   0  0  0  0  0  0  0  0  0  0  0  0
    0.9201   20.0943  -28.5398 H   0  0  0  0  0  0  0  0  0  0  0  0
    0.7711   21.8844  -28.5398 H   0  0  0  0  0  0  0  0  0  0  0  0
   -1.1321   19.6321  -25.8274 H   0  0  0  0  0  0  0  0  0  0  0  0
   -2.1465   19.1072  -27.2138 H   0  0  0  0  0  0  0  0  0  0  0  0
   -0.3820   18.7707  -27.2138 H   0  0  0  0  0  0  0  0  0  0  0  0
   -0.1544   21.9606  -30.0104 H   0  0  0  0  0  0  0  0  0  0  0  0
   -1.4290   22.1049  -32.1375 H   0  0  0  0  0  0  0  0  0  0  0  0
   -4.6772   18.5701  -33.6050 H   0  0  0  0  0  0  0  0  0  0  0  0
   -7.5730   16.3280  -33.8150 H   0  0  0  0  0  0  0  0  0  0  0  0
   -5.7629   15.0646  -34.2933 H   0  0  0  0  0  0  0  0  0  0  0  0
   -4.4890   16.6025  -32.0037 H   0  0  0  0  0  0  0  0  0  0  0  0
   -5.4709   15.0801  -31.9157 H   0  0  0  0  0  0  0  0  0  0  0  0
   -2.7753   15.0629  -31.9397 H   0  0  0  0  0  0  0  0  0  0  0  0
   -3.8048   13.7682  -32.7220 H   0  0  0  0  0  0  0  0  0  0  0  0
   -3.2050   14.3760  -34.7480 H   0  0  0  0  0  0  0  0  0  0  0  0
   -1.8080   14.8790  -33.9380 H   0  0  0  0  0  0  0  0  0  0  0  0
   -2.7122   17.1399  -33.7665 H   0  0  0  0  0  0  0  0  0  0  0  0
   -2.4229   16.5590  -35.4504 H   0  0  0  0  0  0  0  0  0  0  0  0
   -4.6864   17.7564  -34.9072 H   0  0  0  0  0  0  0  0  0  0  0  0
   -4.7043   16.2159  -35.8665 H   0  0  0  0  0  0  0  0  0  0  0  0
   -8.8361   18.1074  -32.5517 H   0  0  0  0  0  0  0  0  0  0  0  0
   -8.8876   20.4351  -31.7162 H   0  0  0  0  0  0  0  0  0  0  0  0
   -6.5365   22.7345  -28.8890 H   0  0  0  0  0  0  0  0  0  0  0  0
   -5.0812   21.6959  -29.2390 H   0  0  0  0  0  0  0  0  0  0  0  0
   -5.2237   24.4717  -28.0472 H   0  0  0  0  0  0  0  0  0  0  0  0
   -4.2823   23.0160  -27.5241 H   0  0  0  0  0  0  0  0  0  0  0  0
   -2.7912   23.2510  -29.4598 H   0  0  0  0  0  0  0  0  0  0  0  0
   -3.7541   25.5494  -26.7107 H   0  0  0  0  0  0  0  0  0  0  0  0
   -3.0477   23.8670  -26.6094 H   0  0  0  0  0  0  0  0  0  0  0  0
   -2.2063   25.9650  -25.0740 H   0  0  0  0  0  0  0  0  0  0  0  0
   -1.1800   24.5549  -25.5516 H   0  0  0  0  0  0  0  0  0  0  0  0
   -1.3448   27.2380  -27.0044 H   0  0  0  0  0  0  0  0  0  0  0  0
    0.0044   26.6669  -25.9491 H   0  0  0  0  0  0  0  0  0  0  0  0
    0.0948   26.3964  -28.6140 H   0  0  0  0  0  0  0  0  0  0  0  0
    0.7611   25.1365  -27.4841 H   0  0  0  0  0  0  0  0  0  0  0  0
   -0.8393   24.4822  -29.5343 H   0  0  0  0  0  0  0  0  0  0  0  0
   -0.9006   23.6244  -27.9483 H   0  0  0  0  0  0  0  0  0  0  0  0
   -3.8312   25.9984  -30.1574 H   0  0  0  0  0  0  0  0  0  0  0  0
   -3.1624   24.6655  -31.2229 H   0  0  0  0  0  0  0  0  0  0  0  0
   -6.0043   25.1575  -30.3244 H   0  0  0  0  0  0  0  0  0  0  0  0
   -5.3510   24.8030  -31.9629 H   0  0  0  0  0  0  0  0  0  0  0  0
   -4.7644   20.0701  -30.2943 H   0  0  0  0  0  0  0  0  0  0  0  0
   -3.5001   19.9087  -28.1593 H   0  0  0  0  0  0  0  0  0  0  0  0
  1  2  1  0
  2  3  1  0
  2  4  1  0
  2  5  1  0
  5  6  2  0
  6  7  1  0
  7  8  2  0
  8  9  1  0
  9 10  2  0
  9 11  2  0
  9 12  1  0
 12 13  2  0
 13 14  1  0
 14 15  1  0
 15 16  1  0
 16 17  1  0
 17 18  1  0
 18 19  1  0
 19 20  1  0
 20 21  1  0
 14 22  2  0
 22 23  1  0
 23 24  2  0
 24 25  1  0
 25 26  2  0
 25 27  2  0
 25 28  1  0
 28 29  1  0
 29 30  1  0
 30 31  1  0
 31 32  1  0
 32 33  1  0
 33 34  1  0
 34 35  1  0
 35 36  1  0
 36 37  1  0
 31 38  1  0
 38 39  1  0
  8 40  1  0
 40 41  2  0
 41  5  1  0
 24 12  1  0
 39 28  1  0
 21 16  1  0
 37 32  1  0
  1 42  1  0
  1 43  1  0
  1 44  1  0
  3 45  1  0
  3 46  1  0
  3 47  1  0
  4 48  1  0
  4 49  1  0
  4 50  1  0
  6 51  1  0
  7 52  1  0
 13 53  1  0
 15 54  1  0
 16 55  1  0
 17 56  1  0
 17 57  1  0
 18 58  1  0
 18 59  1  0
 19 60  1  0
 19 61  1  0
 20 62  1  0
 20 63  1  0
 21 64  1  0
 21 65  1  0
 22 66  1  0
 23 67  1  0
 29 68  1  0
 29 69  1  0
 30 70  1  0
 30 71  1  0
 31 72  1  0
 33 73  1  0
 33 74  1  0
 34 75  1  0
 34 76  1  0
 35 77  1  0
 35 78  1  0
 36 79  1  0
 36 80  1  0
 37 81  1  0
 37 82  1  0
 38 83  1  0
 38 84  1  0
 39 85  1  0
 39 86  1  0
 40 87  1  0
 41 88  1  0
M  CHG  1  19   1
M  END
>  <UniqueID>  (12) 
12

>  <SMILES>  (12) 
CC(C)(C)c1ccc(S(=O)(=O)c2cc(NC3CC[NH2+]CC3)ccc2S(=O)(=O)N2CCC(N3CCCCC3)CC2)cc1

>  <Energy>  (12) 
126.02657785434675

>  <Genealogy>  (12) 
CC(C)(C)c1ccc(S(=O)(=O)c2cc(NC3CC[NH2+]CC3)ccc2S(=O)(=O)N2CCC(N3CCCCC3)CC2)cc1 (protonated)
CC(C)(C)c1ccc(S(=O)(=O)c2cc(NC3CC[NH2+]CC3)ccc2S(=O)(=O)N2CCC(N3CCCCC3)CC2)cc1 (3D coordinates assigned)
CC(C)(C)c1ccc(S(=O)(=O)c2cc(NC3CC[NH2+]CC3)ccc2S(=O)(=O)N2CCC(N3CCCCC3)CC2)cc1 (nonaromatic ring conformer: 126.02657785434675 kcal/mol)

>  <smiles>  (12) 
CC(C)(C)c1ccc(S(=O)(=O)c2cc(NC3CCNCC3)ccc2S(=O)(=O)N2CCC(N3CCCCC3)CC2)cc1

>  <score_type>  (12) 
oracle

>  <origin>  (12) 
adgpu

>  <m_score__min__energy>  (12) 
-10.81

>  <m_primary>  (12) 
energy

$$$$
12:0
     RDKit          3D

 58 60  0  0  0  0  0  0  0  0999 V2000
   -1.6390   22.6650  -29.9000 C   0  0  0  0  0  0  0  0  0  0  0  0
   -1.6730   23.8900  -29.3700 C   0  0  0  0  0  0  0  0  0  0  0  0
   -2.9810   24.5540  -29.0430 C   0  0  0  0  0  0  0  0  0  0  0  0
   -3.4960   25.2680  -30.2060 N   0  0  0  0  0  0  0  0  0  0  0  0
   -4.8720   25.2310  -30.6100 C   0  0  0  0  0  0  0  0  0  0  0  0
   -5.5830   26.2680  -30.5060 O   0  0  0  0  0  0  0  0  0  0  0  0
   -5.4590   23.9790  -31.1460 C   0  0  0  0  0  0  0  0  0  0  0  0
   -6.8090   23.9290  -31.5270 C   0  0  0  0  0  0  0  0  0  0  0  0
   -7.3510   22.7580  -32.0590 C   0  0  0  0  0  0  0  0  0  0  0  0
   -6.5660   21.6080  -32.1910 C   0  0  0  0  0  0  0  0  0  0  0  0
   -7.1510   20.4440  -32.7870 N   0  0  0  0  0  0  0  0  0  0  0  0
   -8.3960   19.8480  -32.4010 C   0  0  0  0  0  0  0  0  0  0  0  0
   -9.3940   20.5900  -32.2070 O   0  0  0  0  0  0  0  0  0  0  0  0
   -8.5040   18.3820  -32.0890 C   0  0  0  0  0  0  0  0  0  0  0  0
   -7.2420   17.6770  -32.4990 C   0  0  0  0  0  0  0  0  0  0  0  0
   -6.4150   17.0800  -31.5330 C   0  0  0  0  0  0  0  0  0  0  0  0
   -5.2250   16.4520  -31.9110 C   0  0  0  0  0  0  0  0  0  0  0  0
   -4.8390   16.4280  -33.2590 C   0  0  0  0  0  0  0  0  0  0  0  0
   -3.3480   15.6260  -33.7440 S   0  0  0  0  0  0  0  0  0  0  0  0
   -3.0520   15.9260  -35.4720 C   0  0  0  0  0  0  0  0  0  0  0  0
   -2.1980   16.1570  -32.9350 O   0  0  0  0  0  0  0  0  0  0  0  0
   -3.4620   14.1450  -33.5060 O   0  0  0  0  0  0  0  0  0  0  0  0
   -5.6590   17.0270  -34.2250 C   0  0  0  0  0  0  0  0  0  0  0  0
   -6.8510   17.6540  -33.8480 C   0  0  0  0  0  0  0  0  0  0  0  0
   -5.2050   21.6400  -31.8300 C   0  0  0  0  0  0  0  0  0  0  0  0
   -4.4230   20.4870  -32.0320 O   0  0  0  0  0  0  0  0  0  0  0  0
   -4.1250   19.8910  -33.2960 C   0  0  0  0  0  0  0  0  0  0  0  0
   -2.6540   19.9860  -33.6050 C   0  0  0  0  0  0  0  0  0  0  0  0
   -1.9580   18.8890  -34.1420 C   0  0  0  0  0  0  0  0  0  0  0  0
   -0.5940   18.9930  -34.4320 C   0  0  0  0  0  0  0  0  0  0  0  0
    0.0860   20.1860  -34.1800 C   0  0  0  0  0  0  0  0  0  0  0  0
   -0.5950   21.2770  -33.6290 C   0  0  0  0  0  0  0  0  0  0  0  0
   -1.9570   21.1750  -33.3350 C   0  0  0  0  0  0  0  0  0  0  0  0
   -4.6630   22.8300  -31.3060 C   0  0  0  0  0  0  0  0  0  0  0  0
   -0.6731   22.1933  -30.1334 H   0  0  0  0  0  0  0  0  0  0  0  0
   -2.5769   22.1274  -30.1032 H   0  0  0  0  0  0  0  0  0  0  0  0
   -0.7305   24.4207  -29.1699 H   0  0  0  0  0  0  0  0  0  0  0  0
   -3.7090   23.7884  -28.7366 H   0  0  0  0  0  0  0  0  0  0  0  0
   -2.8206   25.2731  -28.2262 H   0  0  0  0  0  0  0  0  0  0  0  0
   -7.4442   24.8188  -31.4055 H   0  0  0  0  0  0  0  0  0  0  0  0
   -8.4039   22.7394  -32.3770 H   0  0  0  0  0  0  0  0  0  0  0  0
   -8.6609   18.2498  -31.0083 H   0  0  0  0  0  0  0  0  0  0  0  0
   -9.3532   17.9556  -32.6432 H   0  0  0  0  0  0  0  0  0  0  0  0
   -6.7058   17.1070  -30.4725 H   0  0  0  0  0  0  0  0  0  0  0  0
   -4.5899   15.9756  -31.1496 H   0  0  0  0  0  0  0  0  0  0  0  0
   -2.2833   16.7051  -35.5825 H   0  0  0  0  0  0  0  0  0  0  0  0
   -2.7055   14.9984  -35.9511 H   0  0  0  0  0  0  0  0  0  0  0  0
   -3.9841   16.2600  -35.9511 H   0  0  0  0  0  0  0  0  0  0  0  0
   -5.3638   17.0039  -35.2844 H   0  0  0  0  0  0  0  0  0  0  0  0
   -7.4845   18.1308  -34.6105 H   0  0  0  0  0  0  0  0  0  0  0  0
   -4.4198   18.8315  -33.2724 H   0  0  0  0  0  0  0  0  0  0  0  0
   -4.6823   20.4292  -34.0769 H   0  0  0  0  0  0  0  0  0  0  0  0
   -2.4885   17.9449  -34.3349 H   0  0  0  0  0  0  0  0  0  0  0  0
   -0.0561   18.1338  -34.8592 H   0  0  0  0  0  0  0  0  0  0  0  0
    1.1575   20.2683  -34.4147 H   0  0  0  0  0  0  0  0  0  0  0  0
   -0.0578   22.2155  -33.4272 H   0  0  0  0  0  0  0  0  0  0  0  0
   -2.4862   22.0304  -32.8897 H   0  0  0  0  0  0  0  0  0  0  0  0
   -3.6019   22.8613  -31.0177 H   0  0  0  0  0  0  0  0  0  0  0  0
  1  2  2  0
  2  3  1  0
  3  4  1  0
  4  5  1  0
  5  6  2  0
  5  7  1  0
  7  8  2  0
  8  9  1  0
  9 10  2  0
 10 11  1  0
 11 12  1  0
 12 13  2  0
 12 14  1  0
 14 15  1  0
 15 16  2  0
 16 17  1  0
 17 18  2  0
 18 19  1  0
 19 20  1  0
 19 21  2  0
 19 22  2  0
 18 23  1  0
 23 24  2  0
 10 25  1  0
 25 26  1  0
 26 27  1  0
 27 28  1  0
 28 29  2  0
 29 30  1  0
 30 31  2  0
 31 32  1  0
 32 33  2  0
 25 34  2  0
 34  7  1  0
 24 15  1  0
 33 28  1  0
  1 35  1  0
  1 36  1  0
  2 37  1  0
  3 38  1  0
  3 39  1  0
  8 40  1  0
  9 41  1  0
 14 42  1  0
 14 43  1  0
 16 44  1  0
 17 45  1  0
 20 46  1  0
 20 47  1  0
 20 48  1  0
 23 49  1  0
 24 50  1  0
 27 51  1  0
 27 52  1  0
 29 53  1  0
 30 54  1  0
 31 55  1  0
 32 56  1  0
 33 57  1  0
 34 58  1  0
M  CHG  2   4  -1  11  -1
M  END
>  <UniqueID>  (13) 
13

>  <SMILES>  (13) 
C=CC[N-]C(=O)c1ccc([N-]C(=O)Cc2ccc(S(C)(=O)=O)cc2)c(OCc2ccccc2)c1

>  <Energy>  (13) 
56.64551279623056

>  <Genealogy>  (13) 
C=CC[N-]C(=O)c1ccc([N-]C(=O)Cc2ccc(S(C)(=O)=O)cc2)c(OCc2ccccc2)c1 (protonated)
C=CC[N-]C(=O)c1ccc([N-]C(=O)Cc2ccc(S(C)(=O)=O)cc2)c(OCc2ccccc2)c1 (3D coordinates assigned)
C=CC[N-]C(=O)c1ccc([N-]C(=O)Cc2ccc(S(C)(=O)=O)cc2)c(OCc2ccccc2)c1 (optimized conformer: 56.64551279623056 kcal/mol)

>  <smiles>  (13) 
C=CCNC(=O)c1ccc(NC(=O)Cc2ccc(S(C)(=O)=O)cc2)c(OCc2ccccc2)c1

>  <score_type>  (13) 
oracle

>  <origin>  (13) 
adgpu

>  <m_score__min__energy>  (13) 
-12.109999999999999

>  <m_primary>  (13) 
energy

$$$$
13:0
     RDKit          3D

 56 59  0  0  0  0  0  0  0  0999 V2000
   -3.4970   24.9310  -30.4860 O   0  0  0  0  0  0  0  0  0  0  0  0
   -3.8090   23.7280  -30.7050 C   0  0  0  0  0  0  0  0  0  0  0  0
   -2.8110   22.7010  -30.6520 N   0  0  0  0  0  0  0  0  0  0  0  0
   -2.0780   22.2910  -29.4900 C   0  0  0  0  0  0  0  0  0  0  0  0
   -2.1160   20.9680  -29.0160 C   0  0  0  0  0  0  0  0  0  0  0  0
   -1.4090   20.6140  -27.8640 C   0  0  0  0  0  0  0  0  0  0  0  0
   -0.6660   21.5740  -27.1720 C   0  0  0  0  0  0  0  0  0  0  0  0
   -0.6400   22.9000  -27.6240 C   0  0  0  0  0  0  0  0  0  0  0  0
    0.3220   24.1070  -26.7750 S   0  0  0  0  0  0  0  0  0  0  0  0
    1.0470   24.9710  -27.7730 O   0  0  0  0  0  0  0  0  0  0  0  0
    1.3420   23.4120  -25.9140 O   0  0  0  0  0  0  0  0  0  0  0  0
   -0.7250   25.0740  -25.7670 N   0  0  0  0  0  0  0  0  0  0  0  0
   -0.7910   26.4570  -26.2420 C   0  0  0  0  0  0  0  0  0  0  0  0
   -1.1210   27.3130  -25.0300 C   0  0  0  0  0  0  0  0  0  0  0  0
   -0.7210   26.4770  -23.8260 C   0  0  0  0  0  0  0  0  0  0  0  0
   -0.2200   25.1580  -24.3970 C   0  0  0  0  0  0  0  0  0  0  0  0
   -1.3510   23.2540  -28.7790 C   0  0  0  0  0  0  0  0  0  0  0  0
   -5.2290   23.3680  -30.8950 C   0  0  0  0  0  0  0  0  0  0  0  0
   -5.5430   22.0660  -31.3210 C   0  0  0  0  0  0  0  0  0  0  0  0
   -6.8670   21.7000  -31.5860 C   0  0  0  0  0  0  0  0  0  0  0  0
   -7.2190   20.0760  -32.1700 S   0  0  0  0  0  0  0  0  0  0  0  0
   -7.8770   20.1430  -33.5230 O   0  0  0  0  0  0  0  0  0  0  0  0
   -8.1690   19.4180  -31.2050 O   0  0  0  0  0  0  0  0  0  0  0  0
   -5.7340   19.1510  -32.2620 N   0  0  0  0  0  0  0  0  0  0  0  0
   -5.1120   19.3040  -33.5820 C   0  0  0  0  0  0  0  0  0  0  0  0
   -5.5930   18.1650  -34.4670 C   0  0  0  0  0  0  0  0  0  0  0  0
   -6.1620   17.1250  -33.5190 C   0  0  0  0  0  0  0  0  0  0  0  0
   -6.0120   17.7180  -32.1240 C   0  0  0  0  0  0  0  0  0  0  0  0
   -7.8910   22.6400  -31.4240 C   0  0  0  0  0  0  0  0  0  0  0  0
   -7.5950   23.9290  -30.9830 C   0  0  0  0  0  0  0  0  0  0  0  0
   -6.2760   24.3000  -30.6970 C   0  0  0  0  0  0  0  0  0  0  0  0
   -6.0500   25.5820  -30.1920 O   0  0  0  0  0  0  0  0  0  0  0  0
   -2.7039   20.2095  -29.5535 H   0  0  0  0  0  0  0  0  0  0  0  0
   -1.4374   19.5761  -27.5006 H   0  0  0  0  0  0  0  0  0  0  0  0
   -0.1013   21.2887  -26.2721 H   0  0  0  0  0  0  0  0  0  0  0  0
    0.1768   26.7591  -26.6687 H   0  0  0  0  0  0  0  0  0  0  0  0
   -1.5504   26.5719  -27.0294 H   0  0  0  0  0  0  0  0  0  0  0  0
   -0.5483   28.2519  -25.0543 H   0  0  0  0  0  0  0  0  0  0  0  0
   -2.1853   27.5893  -25.0013 H   0  0  0  0  0  0  0  0  0  0  0  0
    0.0766   26.9779  -23.2577 H   0  0  0  0  0  0  0  0  0  0  0  0
   -1.5626   26.3291  -23.1333 H   0  0  0  0  0  0  0  0  0  0  0  0
    0.8798   25.1381  -24.3965 H   0  0  0  0  0  0  0  0  0  0  0  0
   -0.5699   24.3074  -23.7936 H   0  0  0  0  0  0  0  0  0  0  0  0
   -1.3378   24.2965  -29.1297 H   0  0  0  0  0  0  0  0  0  0  0  0
   -4.7386   21.3264  -31.4475 H   0  0  0  0  0  0  0  0  0  0  0  0
   -5.4057   20.2680  -34.0229 H   0  0  0  0  0  0  0  0  0  0  0  0
   -4.0160   19.2790  -33.4915 H   0  0  0  0  0  0  0  0  0  0  0  0
   -6.3703   18.5190  -35.1602 H   0  0  0  0  0  0  0  0  0  0  0  0
   -4.7780   17.7541  -35.0810 H   0  0  0  0  0  0  0  0  0  0  0  0
   -7.2222   16.9383  -33.7451 H   0  0  0  0  0  0  0  0  0  0  0  0
   -5.6396   16.1613  -33.6103 H   0  0  0  0  0  0  0  0  0  0  0  0
   -6.9424   17.5724  -31.5556 H   0  0  0  0  0  0  0  0  0  0  0  0
   -5.1902   17.2218  -31.5869 H   0  0  0  0  0  0  0  0  0  0  0  0
   -8.9318   22.3612  -31.6451 H   0  0  0  0  0  0  0  0  0  0  0  0
   -8.4060   24.6617  -30.8586 H   0  0  0  0  0  0  0  0  0  0  0  0
   -5.2650   25.8130  -29.5980 H   0  0  0  0  0  0  0  0  0  0  0  0
  1  2  2  0
  2  3  1  0
  3  4  1  0
  4  5  2  0
  5  6  1  0
  6  7  2  0
  7  8  1  0
  8  9  1  0
  9 10  2  0
  9 11  2  0
  9 12  1  0
 12 13  1  0
 13 14  1  0
 14 15  1  0
 15 16  1  0
  8 17  2  0
  2 18  1  0
 18 19  2  0
 19 20  1  0
 20 21  1  0
 21 22  2  0
 21 23  2  0
 21 24  1  0
 24 25  1  0
 25 26  1  0
 26 27  1  0
 27 28  1  0
 20 29  2  0
 29 30  1  0
 30 31  2  0
 31 32  1  0
 17  4  1  0
 31 18  1  0
 16 12  1  0
 28 24  1  0
  5 33  1  0
  6 34  1  0
  7 35  1  0
 13 36  1  0
 13 37  1  0
 14 38  1  0
 14 39  1  0
 15 40  1  0
 15 41  1  0
 16 42  1  0
 16 43  1  0
 17 44  1  0
 19 45  1  0
 25 46  1  0
 25 47  1  0
 26 48  1  0
 26 49  1  0
 27 50  1  0
 27 51  1  0
 28 52  1  0
 28 53  1  0
 29 54  1  0
 30 55  1  0
 32 56  1  0
M  CHG  1   3  -1
M  END
>  <UniqueID>  (14) 
14

>  <SMILES>  (14) 
O=C([N-]c1cccc(S(=O)(=O)N2CCCC2)c1)c1cc(S(=O)(=O)N2CCCC2)ccc1O

>  <Energy>  (14) 
68.59198692420289

>  <Genealogy>  (14) 
O=C([N-]c1cccc(S(=O)(=O)N2CCCC2)c1)c1cc(S(=O)(=O)N2CCCC2)ccc1O (protonated)
O=C([N-]c1cccc(S(=O)(=O)N2CCCC2)c1)c1cc(S(=O)(=O)N2CCCC2)ccc1O (3D coordinates assigned)
O=C([N-]c1cccc(S(=O)(=O)N2CCCC2)c1)c1cc(S(=O)(=O)N2CCCC2)ccc1O (nonaromatic ring conformer: 68.59198692420289 kcal/mol)

>  <smiles>  (14) 
O=C(Nc1cccc(S(=O)(=O)N2CCCC2)c1)c1cc(S(=O)(=O)N2CCCC2)ccc1O

>  <score_type>  (14) 
oracle

>  <origin>  (14) 
adgpu

>  <m_score__min__energy>  (14) 
-12.35

>  <m_primary>  (14) 
energy

$$$$
14:0
     RDKit          3D

 43 45  0  0  0  0  0  0  0  0999 V2000
   -2.1610   24.7630  -27.9550 C   0  0  0  0  0  0  0  0  0  0  0  0
   -2.3370   25.1700  -29.3450 N   0  0  0  0  0  0  0  0  0  0  0  0
   -3.8920   24.6500  -29.9170 S   0  0  0  0  0  0  0  0  0  0  0  0
   -4.4500   25.6880  -30.8510 O   0  0  0  0  0  0  0  0  0  0  0  0
   -4.8240   24.4980  -28.7490 O   0  0  0  0  0  0  0  0  0  0  0  0
   -3.7490   23.0980  -30.7400 C   0  0  0  0  0  0  0  0  0  0  0  0
   -4.6020   22.7690  -31.7920 C   0  0  0  0  0  0  0  0  0  0  0  0
   -4.4790   21.5420  -32.4430 C   0  0  0  0  0  0  0  0  0  0  0  0
   -3.4840   20.6040  -32.0650 C   0  0  0  0  0  0  0  0  0  0  0  0
   -3.3640   19.3060  -32.7370 N   0  0  2  0  0  0  0  0  0  0  0  0
   -3.0720   19.3450  -34.1810 C   0  0  0  0  0  0  0  0  0  0  0  0
   -3.5310   18.0050  -34.7580 C   0  0  0  0  0  0  0  0  0  0  0  0
   -4.3580   17.3380  -33.6620 C   0  0  0  0  0  0  0  0  0  0  0  0
   -4.5190   18.4000  -32.5730 C   0  0  2  0  0  0  0  0  0  0  0  0
   -5.8570   19.0970  -32.6940 C   0  0  0  0  0  0  0  0  0  0  0  0
   -6.3350   19.5790  -33.8580 N   0  0  0  0  0  0  0  0  0  0  0  0
   -7.5110   20.0440  -33.5690 O   0  0  0  0  0  0  0  0  0  0  0  0
   -7.7590   19.8550  -32.2970 C   0  0  0  0  0  0  0  0  0  0  0  0
   -9.0130   20.2740  -31.6120 C   0  0  0  0  0  0  0  0  0  0  0  0
   -6.7300   19.2480  -31.6740 N   0  0  0  0  0  0  0  0  0  0  0  0
   -2.6510   20.9320  -30.9540 C   0  0  0  0  0  0  0  0  0  0  0  0
   -1.6020   19.9810  -30.4310 C   0  0  0  0  0  0  0  0  0  0  0  0
   -2.7850   22.1800  -30.3210 C   0  0  0  0  0  0  0  0  0  0  0  0
   -2.5089   25.5676  -27.2905 H   0  0  0  0  0  0  0  0  0  0  0  0
   -2.7451   23.8508  -27.7633 H   0  0  0  0  0  0  0  0  0  0  0  0
   -1.0963   24.5638  -27.7633 H   0  0  0  0  0  0  0  0  0  0  0  0
   -5.3770   23.4816  -32.1107 H   0  0  0  0  0  0  0  0  0  0  0  0
   -5.1668   21.2966  -33.2656 H   0  0  0  0  0  0  0  0  0  0  0  0
   -2.5410   18.8010  -32.3330 H   0  0  0  0  0  0  0  0  0  0  0  0
   -3.6213   20.1708  -34.6568 H   0  0  0  0  0  0  0  0  0  0  0  0
   -1.9996   19.5082  -34.3638 H   0  0  0  0  0  0  0  0  0  0  0  0
   -4.1451   18.1656  -35.6564 H   0  0  0  0  0  0  0  0  0  0  0  0
   -2.6763   17.3798  -35.0556 H   0  0  0  0  0  0  0  0  0  0  0  0
   -5.3407   17.0344  -34.0520 H   0  0  0  0  0  0  0  0  0  0  0  0
   -3.8722   16.4286  -33.2785 H   0  0  0  0  0  0  0  0  0  0  0  0
   -4.5226   17.9737  -31.5590 H   0  0  0  0  0  0  0  0  0  0  0  0
   -8.8693   20.2260  -30.5225 H   0  0  0  0  0  0  0  0  0  0  0  0
   -9.2634   21.3046  -31.9037 H   0  0  0  0  0  0  0  0  0  0  0  0
   -9.8327   19.6009  -31.9037 H   0  0  0  0  0  0  0  0  0  0  0  0
   -1.6134   19.9913  -29.3311 H   0  0  0  0  0  0  0  0  0  0  0  0
   -1.8173   18.9639  -30.7904 H   0  0  0  0  0  0  0  0  0  0  0  0
   -0.6108   20.2947  -30.7904 H   0  0  0  0  0  0  0  0  0  0  0  0
   -2.1202   22.4368  -29.4831 H   0  0  0  0  0  0  0  0  0  0  0  0
  1  2  1  0
  2  3  1  0
  3  4  2  0
  3  5  2  0
  3  6  1  0
  6  7  2  0
  7  8  1  0
  8  9  2  0
  9 10  1  0
 10 11  1  0
 11 12  1  0
 12 13  1  0
 13 14  1  0
 14 15  1  0
 15 16  2  0
 16 17  1  0
 17 18  1  0
 18 19  1  0
 18 20  2  0
  9 21  1  0
 21 22  1  0
 21 23  2  0
 23  6  1  0
 14 10  1  0
 20 15  1  0
  1 24  1  0
  1 25  1  0
  1 26  1  0
  7 27  1  0
  8 28  1  0
 10 29  1  1
 11 30  1  0
 11 31  1  0
 12 32  1  0
 12 33  1  0
 13 34  1  0
 13 35  1  0
 14 36  1  1
 19 37  1  0
 19 38  1  0
 19 39  1  0
 22 40  1  0
 22 41  1  0
 22 42  1  0
 23 43  1  0
M  CHG  2   2  -1  10   1
M  END
>  <UniqueID>  (15) 
15

>  <SMILES>  (15) 
C[N-]S(=O)(=O)c1ccc([N@@H+]2CCC[C@@H]2c2noc(C)n2)c(C)c1

>  <Energy>  (15) 
88.18797271198196

>  <Genealogy>  (15) 
C[N-]S(=O)(=O)c1ccc([NH+]2CCCC2c2noc(C)n2)c(C)c1 (protonated)
C[N-]S(=O)(=O)c1ccc([N@@H+]2CCC[C@@H]2c2noc(C)n2)c(C)c1 (chirality)
C[N-]S(=O)(=O)c1ccc([N@@H+]2CCC[C@@H]2c2noc(C)n2)c(C)c1 (3D coordinates assigned)
C[N-]S(=O)(=O)c1ccc([N@@H+]2CCC[C@@H]2c2noc(C)n2)c(C)c1 (nonaromatic ring conformer: 88.18797271198196 kcal/mol)

>  <smiles>  (15) 
CNS(=O)(=O)c1ccc(N2CCCC2c2noc(C)n2)c(C)c1

>  <score_type>  (15) 
oracle

>  <origin>  (15) 
adgpu

>  <m_score__min__energy>  (15) 
-9.2699999999999996

>  <m_primary>  (15) 
energy

$$$$
15:0
     RDKit          3D

 46 49  0  0  0  0  0  0  0  0999 V2000
   -6.7790   17.7160  -33.3590 C   0  0  0  0  0  0  0  0  0  0  0  0
   -6.2390   19.0140  -32.8460 C   0  0  0  0  0  0  0  0  0  0  0  0
   -4.9180   19.3260  -32.8970 N   0  0  0  0  0  0  0  0  0  0  0  0
   -4.8760   20.5560  -32.3520 C   0  0  0  0  0  0  0  0  0  0  0  0
   -3.7550   21.3570  -32.1520 C   0  0  0  0  0  0  0  0  0  0  0  0
   -3.9480   22.6160  -31.5530 C   0  0  0  0  0  0  0  0  0  0  0  0
   -5.2450   23.0470  -31.1830 C   0  0  0  0  0  0  0  0  0  0  0  0
   -5.4430   24.5940  -30.3630 S   0  0  0  0  0  0  0  0  0  0  0  0
   -6.8970   24.8980  -30.1370 O   0  0  0  0  0  0  0  0  0  0  0  0
   -4.8510   25.6750  -31.2230 O   0  0  0  0  0  0  0  0  0  0  0  0
   -4.6150   24.5500  -28.8400 N   0  0  0  0  0  0  0  0  0  0  0  0
   -3.4680   23.7130  -28.6090 C   0  0  0  0  0  0  0  0  0  0  0  0
   -3.6180   22.4040  -28.1200 C   0  0  0  0  0  0  0  0  0  0  0  0
   -2.5070   21.5690  -27.9390 C   0  0  0  0  0  0  0  0  0  0  0  0
   -1.2160   22.0500  -28.2590 C   0  0  0  0  0  0  0  0  0  0  0  0
   -1.0640   23.3730  -28.6990 C   0  0  0  0  0  0  0  0  0  0  0  0
   -2.1780   24.1970  -28.8790 C   0  0  0  0  0  0  0  0  0  0  0  0
   -1.9940   25.4950  -29.3420 O   0  0  0  0  0  0  0  0  0  0  0  0
    0.0180   21.2070  -28.0350 C   0  0  0  0  0  0  0  0  0  0  0  0
   -0.2980   19.7110  -27.9580 C   0  0  0  0  0  0  0  0  0  0  0  0
   -1.4620   19.4620  -26.9990 C   0  0  0  0  0  0  0  0  0  0  0  0
   -2.7350   20.1360  -27.5180 C   0  0  0  0  0  0  0  0  0  0  0  0
   -6.3590   22.2110  -31.4110 C   0  0  0  0  0  0  0  0  0  0  0  0
   -6.1260   20.9630  -31.9900 C   0  0  0  0  0  0  0  0  0  0  0  0
   -7.0010   19.9870  -32.2790 N   0  0  0  0  0  0  0  0  0  0  0  0
   -8.4540   20.0160  -32.1080 C   0  0  0  0  0  0  0  0  0  0  0  0
   -7.0479   17.0697  -32.5104 H   0  0  0  0  0  0  0  0  0  0  0  0
   -7.6723   17.9071  -33.9718 H   0  0  0  0  0  0  0  0  0  0  0  0
   -6.0138   17.2171  -33.9718 H   0  0  0  0  0  0  0  0  0  0  0  0
   -2.7526   21.0175  -32.4519 H   0  0  0  0  0  0  0  0  0  0  0  0
   -3.0833   23.2711  -31.3707 H   0  0  0  0  0  0  0  0  0  0  0  0
   -4.8550   25.2950  -28.1480 H   0  0  0  0  0  0  0  0  0  0  0  0
   -4.6228   22.0290  -27.8756 H   0  0  0  0  0  0  0  0  0  0  0  0
   -0.0574   23.7660  -28.9045 H   0  0  0  0  0  0  0  0  0  0  0  0
    0.7170   21.3772  -28.8672 H   0  0  0  0  0  0  0  0  0  0  0  0
    0.4554   21.5055  -27.0708 H   0  0  0  0  0  0  0  0  0  0  0  0
   -0.5688   19.3455  -28.9596 H   0  0  0  0  0  0  0  0  0  0  0  0
    0.5898   19.1769  -27.5885 H   0  0  0  0  0  0  0  0  0  0  0  0
   -1.6348   18.3791  -26.9123 H   0  0  0  0  0  0  0  0  0  0  0  0
   -1.2103   19.8847  -26.0152 H   0  0  0  0  0  0  0  0  0  0  0  0
   -3.1046   19.5692  -28.3852 H   0  0  0  0  0  0  0  0  0  0  0  0
   -3.4653   20.1440  -26.6954 H   0  0  0  0  0  0  0  0  0  0  0  0
   -7.3760   22.5322  -31.1415 H   0  0  0  0  0  0  0  0  0  0  0  0
   -8.6969   20.0208  -31.0352 H   0  0  0  0  0  0  0  0  0  0  0  0
   -8.8607   20.9224  -32.5801 H   0  0  0  0  0  0  0  0  0  0  0  0
   -8.8966   19.1265  -32.5801 H   0  0  0  0  0  0  0  0  0  0  0  0
  1  2  1  0
  2  3  2  0
  3  4  1  0
  4  5  2  0
  5  6  1  0
  6  7  2  0
  7  8  1  0
  8  9  2  0
  8 10  2  0
  8 11  1  0
 11 12  1  0
 12 13  2  0
 13 14  1  0
 14 15  2  0
 15 16  1  0
 16 17  2  0
 17 18  1  0
 15 19  1  0
 19 20  1  0
 20 21  1  0
 21 22  1  0
  7 23  1  0
 23 24  2  0
 24 25  1  0
 25 26  1  0
 25  2  1  0
 24  4  1  0
 17 12  1  0
 22 14  1  0
  1 27  1  0
  1 28  1  0
  1 29  1  0
  5 30  1  0
  6 31  1  0
 11 32  1  0
 13 33  1  0
 16 34  1  0
 19 35  1  0
 19 36  1  0
 20 37  1  0
 20 38  1  0
 21 39  1  0
 21 40  1  0
 22 41  1  0
 22 42  1  0
 23 43  1  0
 26 44  1  0
 26 45  1  0
 26 46  1  0
M  CHG  1  18  -1
M  END
>  <UniqueID>  (16) 
16

>  <SMILES>  (16) 
Cc1nc2ccc(S(=O)(=O)Nc3cc4c(cc3[O-])CCCC4)cc2n1C

>  <Energy>  (16) 
86.93232425824664

>  <Genealogy>  (16) 
Cc1nc2ccc(S(=O)(=O)Nc3cc4c(cc3[O-])CCCC4)cc2n1C (protonated)
Cc1nc2ccc(S(=O)(=O)Nc3cc4c(cc3[O-])CCCC4)cc2n1C (3D coordinates assigned)
Cc1nc2ccc(S(=O)(=O)Nc3cc4c(cc3[O-])CCCC4)cc2n1C (nonaromatic ring conformer: 86.93232425824664 kcal/mol)

>  <smiles>  (16) 
Cc1nc2ccc(S(=O)(=O)Nc3cc4c(cc3O)CCCC4)cc2n1C

>  <score_type>  (16) 
oracle

>  <origin>  (16) 
adgpu

>  <m_score__min__energy>  (16) 
-13.68

>  <m_primary>  (16) 
energy

$$$$
16:0
     RDKit          3D

 72 76  0  0  0  0  0  0  0  0999 V2000
    1.2310   18.0320  -27.5470 O   0  0  0  0  0  0  0  0  0  0  0  0
    0.2840   18.3120  -28.3330 C   0  0  0  0  0  0  0  0  0  0  0  0
   -0.9230   18.8530  -27.7790 N   0  0  0  0  0  0  0  0  0  0  0  0
   -1.4880   20.1380  -28.0780 C   0  0  0  0  0  0  0  0  0  0  0  0
   -0.7450   21.1480  -28.7170 C   0  0  0  0  0  0  0  0  0  0  0  0
   -1.3180   22.4040  -28.9520 C   0  0  0  0  0  0  0  0  0  0  0  0
   -2.6320   22.6670  -28.5410 C   0  0  0  0  0  0  0  0  0  0  0  0
   -3.3800   24.2330  -28.8380 S   0  0  0  0  0  0  0  0  0  0  0  0
   -4.2040   24.6040  -27.6360 O   0  0  0  0  0  0  0  0  0  0  0  0
   -2.3250   25.2860  -29.0430 O   0  0  0  0  0  0  0  0  0  0  0  0
   -4.3980   24.1260  -30.2520 N   0  0  0  0  0  0  0  0  0  0  0  0
   -5.7970   24.4410  -29.8860 C   0  0  0  0  0  0  0  0  0  0  0  0
   -6.8130   23.9820  -30.9560 C   0  0  0  0  0  0  0  0  0  0  0  0
   -6.1410   23.7790  -32.3150 C   0  0  0  0  0  0  0  0  0  0  0  0
   -4.9880   22.7650  -32.2220 C   0  0  0  0  0  0  0  0  0  0  0  0
   -4.2900   22.7880  -30.8520 C   0  0  0  0  0  0  0  0  0  0  0  0
   -3.3670   21.6650  -27.8950 C   0  0  0  0  0  0  0  0  0  0  0  0
   -2.7960   20.4110  -27.6560 C   0  0  0  0  0  0  0  0  0  0  0  0
    0.4250   18.0120  -29.7780 C   0  0  0  0  0  0  0  0  0  0  0  0
    0.5330   16.6860  -30.2340 C   0  0  0  0  0  0  0  0  0  0  0  0
    0.6770   16.4190  -31.6010 C   0  0  0  0  0  0  0  0  0  0  0  0
    0.7200   17.4700  -32.5230 C   0  0  0  0  0  0  0  0  0  0  0  0
    0.8550   17.1910  -33.8800 O   0  0  0  0  0  0  0  0  0  0  0  0
    0.6140   18.7950  -32.0790 C   0  0  0  0  0  0  0  0  0  0  0  0
    0.6210   19.8690  -33.0160 N   0  0  0  0  0  0  0  0  0  0  0  0
   -0.6720   21.0160  -33.0330 S   0  0  0  0  0  0  0  0  0  0  0  0
   -0.6120   21.8780  -31.8010 O   0  0  0  0  0  0  0  0  0  0  0  0
   -0.5360   21.8980  -34.2430 O   0  0  0  0  0  0  0  0  0  0  0  0
   -2.2020   20.1440  -33.0940 C   0  0  0  0  0  0  0  0  0  0  0  0
   -2.5230   19.3510  -34.2050 C   0  0  0  0  0  0  0  0  0  0  0  0
   -3.7130   18.6170  -34.2240 C   0  0  0  0  0  0  0  0  0  0  0  0
   -4.5860   18.6580  -33.1260 C   0  0  0  0  0  0  0  0  0  0  0  0
   -6.0620   17.6960  -33.1370 S   0  0  0  0  0  0  0  0  0  0  0  0
   -6.0530   16.7560  -31.9630 O   0  0  0  0  0  0  0  0  0  0  0  0
   -6.1180   16.8800  -34.4000 O   0  0  0  0  0  0  0  0  0  0  0  0
   -7.4520   18.7560  -33.0740 N   0  0  0  0  0  0  0  0  0  0  0  0
   -7.0560   20.1660  -33.1080 C   0  0  0  0  0  0  0  0  0  0  0  0
   -8.1230   20.9430  -32.3480 C   0  0  0  0  0  0  0  0  0  0  0  0
   -8.9100   19.9010  -31.5690 C   0  0  0  0  0  0  0  0  0  0  0  0
   -8.1900   18.5870  -31.8230 C   0  0  0  0  0  0  0  0  0  0  0  0
   -4.2570   19.4380  -32.0080 C   0  0  0  0  0  0  0  0  0  0  0  0
   -3.0710   20.1790  -31.9940 C   0  0  0  0  0  0  0  0  0  0  0  0
    0.4730   19.0630  -30.7110 C   0  0  0  0  0  0  0  0  0  0  0  0
    0.2899   20.9501  -29.0331 H   0  0  0  0  0  0  0  0  0  0  0  0
   -0.7353   23.1863  -29.4605 H   0  0  0  0  0  0  0  0  0  0  0  0
   -6.0341   23.9375  -28.9372 H   0  0  0  0  0  0  0  0  0  0  0  0
   -5.8787   25.5345  -29.7988 H   0  0  0  0  0  0  0  0  0  0  0  0
   -7.2655   23.0320  -30.6353 H   0  0  0  0  0  0  0  0  0  0  0  0
   -7.5794   24.7638  -31.0628 H   0  0  0  0  0  0  0  0  0  0  0  0
   -6.8878   23.4077  -33.0322 H   0  0  0  0  0  0  0  0  0  0  0  0
   -5.7293   24.7437  -32.6465 H   0  0  0  0  0  0  0  0  0  0  0  0
   -5.3910   21.7563  -32.3953 H   0  0  0  0  0  0  0  0  0  0  0  0
   -4.2409   23.0391  -32.9814 H   0  0  0  0  0  0  0  0  0  0  0  0
   -4.7672   22.0521  -30.1882 H   0  0  0  0  0  0  0  0  0  0  0  0
   -3.2271   22.5381  -30.9854 H   0  0  0  0  0  0  0  0  0  0  0  0
   -4.3997   21.8656  -27.5737 H   0  0  0  0  0  0  0  0  0  0  0  0
   -3.3762   19.6355  -27.1344 H   0  0  0  0  0  0  0  0  0  0  0  0
    0.5042   15.8551  -29.5137 H   0  0  0  0  0  0  0  0  0  0  0  0
    0.7566   15.3792  -31.9510 H   0  0  0  0  0  0  0  0  0  0  0  0
   -1.8370   19.3062  -35.0637 H   0  0  0  0  0  0  0  0  0  0  0  0
   -3.9657   18.0053  -35.1026 H   0  0  0  0  0  0  0  0  0  0  0  0
   -6.0767   20.2958  -32.6241 H   0  0  0  0  0  0  0  0  0  0  0  0
   -6.9692   20.5260  -34.1438 H   0  0  0  0  0  0  0  0  0  0  0  0
   -7.6565   21.6646  -31.6612 H   0  0  0  0  0  0  0  0  0  0  0  0
   -8.7697   21.5177  -33.0274 H   0  0  0  0  0  0  0  0  0  0  0  0
   -8.9093   20.1401  -30.4953 H   0  0  0  0  0  0  0  0  0  0  0  0
   -9.9632   19.8606  -31.8839 H   0  0  0  0  0  0  0  0  0  0  0  0
   -7.4958   18.3679  -30.9983 H   0  0  0  0  0  0  0  0  0  0  0  0
   -8.9000   17.7494  -31.8888 H   0  0  0  0  0  0  0  0  0  0  0  0
   -4.9329   19.4671  -31.1406 H   0  0  0  0  0  0  0  0  0  0  0  0
   -2.8187   20.7920  -31.1162 H   0  0  0  0  0  0  0  0  0  0  0  0
    0.3992   20.1042  -30.3640 H   0  0  0  0  0  0  0  0  0  0  0  0
  1  2  2  0
  2  3  1  0
  3  4  1  0
  4  5  2  0
  5  6  1  0
  6  7  2  0
  7  8  1  0
  8  9  2  0
  8 10  2  0
  8 11  1  0
 11 12  1  0
 12 13  1  0
 13 14  1  0
 14 15  1  0
 15 16  1  0
  7 17  1  0
 17 18  2  0
  2 19  1  0
 19 20  2  0
 20 21  1  0
 21 22  2  0
 22 23  1  0
 22 24  1  0
 24 25  1  0
 25 26  1  0
 26 27  2  0
 26 28  2  0
 26 29  1  0
 29 30  2  0
 30 31  1  0
 31 32  2  0
 32 33  1  0
 33 34  2  0
 33 35  2  0
 33 36  1  0
 36 37  1  0
 37 38  1  0
 38 39  1  0
 39 40  1  0
 32 41  1  0
 41 42  2  0
 24 43  2  0
 18  4  1  0
 43 19  1  0
 16 11  1  0
 42 29  1  0
 40 36  1  0
  5 44  1  0
  6 45  1  0
 12 46  1  0
 12 47  1  0
 13 48  1  0
 13 49  1  0
 14 50  1  0
 14 51  1  0
 15 52  1  0
 15 53  1  0
 16 54  1  0
 16 55  1  0
 17 56  1  0
 18 57  1  0
 20 58  1  0
 21 59  1  0
 30 60  1  0
 31 61  1  0
 37 62  1  0
 37 63  1  0
 38 64  1  0
 38 65  1  0
 39 66  1  0
 39 67  1  0
 40 68  1  0
 40 69  1  0
 41 70  1  0
 42 71  1  0
 43 72  1  0
M  CHG  3   3  -1  23  -1  25  -1
M  END
>  <UniqueID>  (17) 
17

>  <SMILES>  (17) 
O=C([N-]c1ccc(S(=O)(=O)N2CCCCC2)cc1)c1ccc([O-])c([N-]S(=O)(=O)c2ccc(S(=O)(=O)N3CCCC3)cc2)c1

>  <Energy>  (17) 
93.83931120635297

>  <Genealogy>  (17) 
O=C([N-]c1ccc(S(=O)(=O)N2CCCCC2)cc1)c1ccc([O-])c([N-]S(=O)(=O)c2ccc(S(=O)(=O)N3CCCC3)cc2)c1 (protonated)
O=C([N-]c1ccc(S(=O)(=O)N2CCCCC2)cc1)c1ccc([O-])c([N-]S(=O)(=O)c2ccc(S(=O)(=O)N3CCCC3)cc2)c1 (3D coordinates assigned)
O=C([N-]c1ccc(S(=O)(=O)N2CCCCC2)cc1)c1ccc([O-])c([N-]S(=O)(=O)c2ccc(S(=O)(=O)N3CCCC3)cc2)c1 (nonaromatic ring conformer: 93.83931120635297 kcal/mol)

>  <smiles>  (17) 
O=C(Nc1ccc(S(=O)(=O)N2CCCCC2)cc1)c1ccc(O)c(NS(=O)(=O)c2ccc(S(=O)(=O)N3CCCC3)cc2)c1

>  <score_type>  (17) 
oracle

>  <origin>  (17) 
adgpu

>  <m_score__min__energy>  (17) 
-17.079999999999998

>  <m_primary>  (17) 
energy

$$$$
17:0
     RDKit          3D

 64 67  0  0  0  0  0  0  0  0999 V2000
   -9.0310   20.2130  -31.8000 C   0  0  0  0  0  0  0  0  0  0  0  0
   -7.9010   19.4090  -31.4780 O   0  0  0  0  0  0  0  0  0  0  0  0
   -6.9880   18.9010  -32.4170 C   0  0  0  0  0  0  0  0  0  0  0  0
   -7.2330   17.7000  -33.1130 C   0  0  0  0  0  0  0  0  0  0  0  0
   -6.2980   17.2020  -34.0210 C   0  0  0  0  0  0  0  0  0  0  0  0
   -5.1000   17.8890  -34.2520 C   0  0  0  0  0  0  0  0  0  0  0  0
   -4.0770   17.3440  -35.2220 C   0  0  0  0  0  0  0  0  0  0  0  0
   -3.0410   16.5320  -34.5380 N   0  0  0  0  0  0  0  0  0  0  0  0
   -3.6880   15.4580  -33.7490 C   0  0  0  0  0  0  0  0  0  0  0  0
   -2.6990   14.7420  -32.8050 C   0  0  0  0  0  0  0  0  0  0  0  0
   -1.3160   15.0950  -33.1320 N   0  0  0  0  0  0  0  0  0  0  0  0
   -1.1020   16.5370  -32.9560 C   0  0  0  0  0  0  0  0  0  0  0  0
   -2.1930   17.3730  -33.6630 C   0  0  0  0  0  0  0  0  0  0  0  0
   -4.8490   19.0840  -33.5640 C   0  0  0  0  0  0  0  0  0  0  0  0
   -5.7870   19.6020  -32.6560 C   0  0  0  0  0  0  0  0  0  0  0  0
   -5.4940   20.8760  -31.9570 C   0  0  0  0  0  0  0  0  0  0  0  0
   -6.0450   22.0840  -32.4170 C   0  0  0  0  0  0  0  0  0  0  0  0
   -5.7460   23.2870  -31.7720 C   0  0  0  0  0  0  0  0  0  0  0  0
   -4.8960   23.2980  -30.6580 C   0  0  0  0  0  0  0  0  0  0  0  0
   -4.4670   24.8210  -29.8900 S   0  0  0  0  0  0  0  0  0  0  0  0
   -4.9610   25.9780  -30.7130 O   0  0  0  0  0  0  0  0  0  0  0  0
   -5.1020   24.8920  -28.5310 O   0  0  0  0  0  0  0  0  0  0  0  0
   -2.7500   24.9110  -29.7230 N   0  0  0  0  0  0  0  0  0  0  0  0
   -2.0650   24.0410  -28.8230 C   0  0  0  0  0  0  0  0  0  0  0  0
   -1.3560   22.9030  -29.1470 C   0  0  0  0  0  0  0  0  0  0  0  0
   -1.1390   22.3380  -30.5130 C   0  0  0  0  0  0  0  0  0  0  0  0
   -0.7740   22.4140  -28.0330 N   0  0  0  0  0  0  0  0  0  0  0  0
   -1.1150   23.2040  -27.0220 N   0  0  0  0  0  0  0  0  0  0  0  0
   -0.6590   23.0010  -25.6520 C   0  0  0  0  0  0  0  0  0  0  0  0
   -1.8950   24.2110  -27.4670 C   0  0  0  0  0  0  0  0  0  0  0  0
   -2.4470   25.3170  -26.6210 C   0  0  0  0  0  0  0  0  0  0  0  0
   -4.3370   22.0970  -30.2020 C   0  0  0  0  0  0  0  0  0  0  0  0
   -4.6340   20.8940  -30.8470 C   0  0  0  0  0  0  0  0  0  0  0  0
   -9.5131   20.5560  -30.8727 H   0  0  0  0  0  0  0  0  0  0  0  0
   -8.7058   21.0839  -32.3880 H   0  0  0  0  0  0  0  0  0  0  0  0
   -9.7472   19.6203  -32.3880 H   0  0  0  0  0  0  0  0  0  0  0  0
   -8.1698   17.1504  -32.9387 H   0  0  0  0  0  0  0  0  0  0  0  0
   -6.5032   16.2644  -34.5584 H   0  0  0  0  0  0  0  0  0  0  0  0
   -4.5905   16.7137  -35.9630 H   0  0  0  0  0  0  0  0  0  0  0  0
   -3.5771   18.1971  -35.7040 H   0  0  0  0  0  0  0  0  0  0  0  0
   -2.4350   16.0820  -35.2670 H   0  0  0  0  0  0  0  0  0  0  0  0
   -4.4945   15.9002  -33.1457 H   0  0  0  0  0  0  0  0  0  0  0  0
   -4.0762   14.7105  -34.4565 H   0  0  0  0  0  0  0  0  0  0  0  0
   -2.9112   15.0402  -31.7677 H   0  0  0  0  0  0  0  0  0  0  0  0
   -2.8223   13.6556  -32.9253 H   0  0  0  0  0  0  0  0  0  0  0  0
   -0.6850   14.5900  -32.4660 H   0  0  0  0  0  0  0  0  0  0  0  0
   -1.1165   16.7699  -31.8810 H   0  0  0  0  0  0  0  0  0  0  0  0
   -0.1313   16.7945  -33.4049 H   0  0  0  0  0  0  0  0  0  0  0  0
   -2.8277   17.8493  -32.9012 H   0  0  0  0  0  0  0  0  0  0  0  0
   -1.6962   18.1294  -34.2884 H   0  0  0  0  0  0  0  0  0  0  0  0
   -3.9058   19.6228  -33.7373 H   0  0  0  0  0  0  0  0  0  0  0  0
   -6.7151   22.0827  -33.2893 H   0  0  0  0  0  0  0  0  0  0  0  0
   -6.1794   24.2287  -32.1400 H   0  0  0  0  0  0  0  0  0  0  0  0
   -0.7458   21.3142  -30.4281 H   0  0  0  0  0  0  0  0  0  0  0  0
   -2.0942   22.3199  -31.0583 H   0  0  0  0  0  0  0  0  0  0  0  0
   -0.4173   22.9639  -31.0583 H   0  0  0  0  0  0  0  0  0  0  0  0
   -1.4345   23.3463  -24.9525 H   0  0  0  0  0  0  0  0  0  0  0  0
   -0.4645   21.9313  -25.4850 H   0  0  0  0  0  0  0  0  0  0  0  0
    0.2660   23.5723  -25.4850 H   0  0  0  0  0  0  0  0  0  0  0  0
   -2.3205   25.0636  -25.5581 H   0  0  0  0  0  0  0  0  0  0  0  0
   -1.9093   26.2509  -26.8418 H   0  0  0  0  0  0  0  0  0  0  0  0
   -3.5165   25.4487  -26.8418 H   0  0  0  0  0  0  0  0  0  0  0  0
   -3.6621   22.1013  -29.3334 H   0  0  0  0  0  0  0  0  0  0  0  0
   -4.1915   19.9550  -30.4832 H   0  0  0  0  0  0  0  0  0  0  0  0
  1  2  1  0
  2  3  1  0
  3  4  2  0
  4  5  1  0
  5  6  2  0
  6  7  1  0
  7  8  1  0
  8  9  1  0
  9 10  1  0
 10 11  1  0
 11 12  1  0
 12 13  1  0
  6 14  1  0
 14 15  2  0
 15 16  1  0
 16 17  2  0
 17 18  1  0
 18 19  2  0
 19 20  1  0
 20 21  2  0
 20 22  2  0
 20 23  1  0
 23 24  1  0
 24 25  1  0
 25 26  1  0
 25 27  2  0
 27 28  1  0
 28 29  1  0
 28 30  1  0
 30 31  1  0
 19 32  1  0
 32 33  2  0
 15  3  1  0
 33 16  1  0
 13  8  1  0
 30 24  2  0
  1 34  1  0
  1 35  1  0
  1 36  1  0
  4 37  1  0
  5 38  1  0
  7 39  1  0
  7 40  1  0
  8 41  1  0
  9 42  1  0
  9 43  1  0
 10 44  1  0
 10 45  1  0
 11 46  1  0
 12 47  1  0
 12 48  1  0
 13 49  1  0
 13 50  1  0
 14 51  1  0
 17 52  1  0
 18 53  1  0
 26 54  1  0
 26 55  1  0
 26 56  1  0
 29 57  1  0
 29 58  1  0
 29 59  1  0
 31 60  1  0
 31 61  1  0
 31 62  1  0
 32 63  1  0
 33 64  1  0
M  CHG  2   8   1  23  -1
M  END
>  <UniqueID>  (18) 
18

>  <SMILES>  (18) 
COc1ccc(C[NH+]2CCNCC2)cc1-c1ccc(S(=O)(=O)[N-]c2c(C)nn(C)c2C)cc1

>  <Energy>  (18) 
116.70452660750072

>  <Genealogy>  (18) 
COc1ccc(C[NH+]2CCNCC2)cc1-c1ccc(S(=O)(=O)[N-]c2c(C)nn(C)c2C)cc1 (protonated)
COc1ccc(C[NH+]2CCNCC2)cc1-c1ccc(S(=O)(=O)[N-]c2c(C)nn(C)c2C)cc1 (3D coordinates assigned)
COc1ccc(C[NH+]2CCNCC2)cc1-c1ccc(S(=O)(=O)[N-]c2c(C)nn(C)c2C)cc1 (nonaromatic ring conformer: 116.70452660750072 kcal/mol)

>  <smiles>  (18) 
COc1ccc(CN2CCNCC2)cc1-c1ccc(S(=O)(=O)Nc2c(C)nn(C)c2C)cc1

>  <score_type>  (18) 
oracle

>  <origin>  (18) 
adgpu

>  <m_score__min__energy>  (18) 
-10.06

>  <m_primary>  (18) 
energy

$$$$
18:0
     RDKit          3D

 70 74  0  0  0  0  0  0  0  0999 V2000
   -3.1130   18.6320  -25.7760 C   0  0  0  0  0  0  0  0  0  0  0  0
   -2.2780   19.0810  -26.9390 C   0  0  0  0  0  0  0  0  0  0  0  0
   -1.0320   18.4840  -27.1820 C   0  0  0  0  0  0  0  0  0  0  0  0
   -0.2600   18.8740  -28.2880 C   0  0  0  0  0  0  0  0  0  0  0  0
    1.0560   18.2090  -28.5670 C   0  0  0  0  0  0  0  0  0  0  0  0
   -0.7620   19.8360  -29.1760 C   0  0  0  0  0  0  0  0  0  0  0  0
   -2.0100   20.4290  -28.9460 C   0  0  0  0  0  0  0  0  0  0  0  0
   -2.6350   21.6070  -30.0930 S   0  0  0  0  0  0  0  0  0  0  0  0
   -1.6310   21.8640  -31.1820 O   0  0  0  0  0  0  0  0  0  0  0  0
   -3.8770   21.0550  -30.7300 O   0  0  0  0  0  0  0  0  0  0  0  0
   -2.9560   23.1080  -29.2210 C   0  0  0  0  0  0  0  0  0  0  0  0
   -4.0130   24.0090  -29.4020 C   0  0  0  0  0  0  0  0  0  0  0  0
   -5.0060   24.0060  -30.4840 C   0  0  0  0  0  0  0  0  0  0  0  0
   -5.0400   24.9780  -31.2850 O   0  0  0  0  0  0  0  0  0  0  0  0
   -5.8700   22.8780  -30.6760 N   0  0  0  0  0  0  0  0  0  0  0  0
   -6.8040   22.7870  -31.7950 C   0  0  0  0  0  0  0  0  0  0  0  0
   -7.2000   21.3540  -32.0130 C   0  0  0  0  0  0  0  0  0  0  0  0
   -8.3510   20.8380  -31.3980 C   0  0  0  0  0  0  0  0  0  0  0  0
   -8.6950   19.4940  -31.5620 C   0  0  0  0  0  0  0  0  0  0  0  0
   -7.8860   18.6510  -32.3280 C   0  0  0  0  0  0  0  0  0  0  0  0
   -6.7250   19.1490  -32.9340 C   0  0  0  0  0  0  0  0  0  0  0  0
   -5.6880   18.0850  -33.8860 S   0  0  0  0  0  0  0  0  0  0  0  0
   -5.7940   18.4560  -35.3400 O   0  0  0  0  0  0  0  0  0  0  0  0
   -6.1670   16.6670  -33.7330 O   0  0  0  0  0  0  0  0  0  0  0  0
   -4.0190   18.1900  -33.3820 N   0  0  0  0  0  0  0  0  0  0  0  0
   -3.2530   17.0400  -33.9070 C   0  0  0  0  0  0  0  0  0  0  0  0
   -1.7260   17.2290  -33.7540 C   0  0  0  0  0  0  0  0  0  0  0  0
   -1.3900   18.3420  -32.7560 C   0  0  0  0  0  0  0  0  0  0  0  0
   -2.0530   19.6700  -33.1610 C   0  0  0  0  0  0  0  0  0  0  0  0
   -3.4280   19.4640  -33.8240 C   0  0  0  0  0  0  0  0  0  0  0  0
   -6.3850   20.5000  -32.7730 C   0  0  0  0  0  0  0  0  0  0  0  0
   -4.0580   24.9000  -28.3830 N   0  0  0  0  0  0  0  0  0  0  0  0
   -3.0460   24.5760  -27.5610 C   0  0  0  0  0  0  0  0  0  0  0  0
   -2.7160   25.1880  -26.3530 C   0  0  0  0  0  0  0  0  0  0  0  0
   -1.6500   24.6500  -25.6130 C   0  0  0  0  0  0  0  0  0  0  0  0
   -0.9500   23.5170  -26.0860 C   0  0  0  0  0  0  0  0  0  0  0  0
    0.3670   22.8480  -25.1400 Cl  0  0  0  0  0  0  0  0  0  0  0  0
   -1.3080   22.9190  -27.3080 C   0  0  0  0  0  0  0  0  0  0  0  0
   -2.3600   23.4860  -28.0310 C   0  0  0  0  0  0  0  0  0  0  0  0
   -2.7690   20.0450  -27.8330 C   0  0  0  0  0  0  0  0  0  0  0  0
   -2.6091   18.9030  -24.8365 H   0  0  0  0  0  0  0  0  0  0  0  0
   -4.0964   19.1230  -25.8194 H   0  0  0  0  0  0  0  0  0  0  0  0
   -3.2457   17.5409  -25.8194 H   0  0  0  0  0  0  0  0  0  0  0  0
   -0.6573   17.7052  -26.5015 H   0  0  0  0  0  0  0  0  0  0  0  0
    1.5496   17.9596  -27.6162 H   0  0  0  0  0  0  0  0  0  0  0  0
    0.8864   17.2884  -29.1447 H   0  0  0  0  0  0  0  0  0  0  0  0
    1.6966   18.8916  -29.1447 H   0  0  0  0  0  0  0  0  0  0  0  0
   -0.1725   20.1266  -30.0581 H   0  0  0  0  0  0  0  0  0  0  0  0
   -5.7150   22.0210  -30.0970 H   0  0  0  0  0  0  0  0  0  0  0  0
   -7.7007   23.3836  -31.5715 H   0  0  0  0  0  0  0  0  0  0  0  0
   -6.3195   23.1720  -32.7044 H   0  0  0  0  0  0  0  0  0  0  0  0
   -8.9851   21.4946  -30.7842 H   0  0  0  0  0  0  0  0  0  0  0  0
   -9.6049   19.0985  -31.0869 H   0  0  0  0  0  0  0  0  0  0  0  0
   -8.1612   17.5937  -32.4557 H   0  0  0  0  0  0  0  0  0  0  0  0
   -3.5536   16.1353  -33.3582 H   0  0  0  0  0  0  0  0  0  0  0  0
   -3.4739   16.9523  -34.9810 H   0  0  0  0  0  0  0  0  0  0  0  0
   -1.2839   16.2864  -33.3989 H   0  0  0  0  0  0  0  0  0  0  0  0
   -1.3155   17.5122  -34.7345 H   0  0  0  0  0  0  0  0  0  0  0  0
   -1.7503   18.0504  -31.7584 H   0  0  0  0  0  0  0  0  0  0  0  0
   -0.2994   18.4851  -32.7474 H   0  0  0  0  0  0  0  0  0  0  0  0
   -2.1845   20.2878  -32.2604 H   0  0  0  0  0  0  0  0  0  0  0  0
   -1.3976   20.1607  -33.8956 H   0  0  0  0  0  0  0  0  0  0  0  0
   -4.0953   20.2916  -33.5416 H   0  0  0  0  0  0  0  0  0  0  0  0
   -3.3003   19.4410  -34.9163 H   0  0  0  0  0  0  0  0  0  0  0  0
   -5.4730   20.8935  -33.2457 H   0  0  0  0  0  0  0  0  0  0  0  0
   -4.7500   25.6700  -28.2520 H   0  0  0  0  0  0  0  0  0  0  0  0
   -3.2728   26.0647  -25.9905 H   0  0  0  0  0  0  0  0  0  0  0  0
   -1.3582   25.1136  -24.6591 H   0  0  0  0  0  0  0  0  0  0  0  0
   -0.7758   22.0322  -27.6826 H   0  0  0  0  0  0  0  0  0  0  0  0
   -3.7547   20.5013  -27.6589 H   0  0  0  0  0  0  0  0  0  0  0  0
  1  2  1  0
  2  3  2  0
  3  4  1  0
  4  5  1  0
  4  6  2  0
  6  7  1  0
  7  8  1  0
  8  9  2  0
  8 10  2  0
  8 11  1  0
 11 12  2  0
 12 13  1  0
 13 14  2  0
 13 15  1  0
 15 16  1  0
 16 17  1  0
 17 18  2  0
 18 19  1  0
 19 20  2  0
 20 21  1  0
 21 22  1  0
 22 23  2  0
 22 24  2  0
 22 25  1  0
 25 26  1  0
 26 27  1  0
 27 28  1  0
 28 29  1  0
 29 30  1  0
 21 31  2  0
 12 32  1  0
 32 33  1  0
 33 34  2  0
 34 35  1  0
 35 36  2  0
 36 37  1  0
 36 38  1  0
 38 39  2  0
  7 40  2  0
 40  2  1  0
 39 11  1  0
 31 17  1  0
 39 33  1  0
 30 25  1  0
  1 41  1  0
  1 42  1  0
  1 43  1  0
  3 44  1  0
  5 45  1  0
  5 46  1  0
  5 47  1  0
  6 48  1  0
 15 49  1  0
 16 50  1  0
 16 51  1  0
 18 52  1  0
 19 53  1  0
 20 54  1  0
 26 55  1  0
 26 56  1  0
 27 57  1  0
 27 58  1  0
 28 59  1  0
 28 60  1  0
 29 61  1  0
 29 62  1  0
 30 63  1  0
 30 64  1  0
 31 65  1  0
 32 66  1  0
 34 67  1  0
 35 68  1  0
 38 69  1  0
 40 70  1  0
M  END
>  <UniqueID>  (19) 
19

>  <SMILES>  (19) 
Cc1cc(C)cc(S(=O)(=O)c2c(C(=O)NCc3cccc(S(=O)(=O)N4CCCCC4)c3)[nH]c3ccc(Cl)cc23)c1

>  <Energy>  (19) 
112.89933592929651

>  <Genealogy>  (19) 
Cc1cc(C)cc(S(=O)(=O)c2c(C(=O)NCc3cccc(S(=O)(=O)N4CCCCC4)c3)[nH]c3ccc(Cl)cc23)c1 (3D coordinates assigned)
Cc1cc(C)cc(S(=O)(=O)c2c(C(=O)NCc3cccc(S(=O)(=O)N4CCCCC4)c3)[nH]c3ccc(Cl)cc23)c1 (nonaromatic ring conformer: 112.89933592929651 kcal/mol)

>  <smiles>  (19) 
Cc1cc(C)cc(S(=O)(=O)c2c(C(=O)NCc3cccc(S(=O)(=O)N4CCCCC4)c3)[nH]c3ccc(Cl)cc23)c1

>  <score_type>  (19) 
oracle

>  <origin>  (19) 
adgpu

>  <m_score__min__energy>  (19) 
-12.5

>  <m_primary>  (19) 
energy

$$$$
19:0
     RDKit          3D

 37 39  0  0  0  0  0  0  0  0999 V2000
   -1.0962   17.8872  -27.5508 H   0  0  0  0  0  0  0  0  0  0  0  0
   -1.2010   18.9820  -27.5690 C   0  0  0  0  0  0  0  0  0  0  0  0
   -2.2160   19.6090  -26.8330 C   0  0  0  0  0  0  0  0  0  0  0  0
   -3.1530   18.7980  -25.9950 C   0  0  0  0  0  0  0  0  0  0  0  0
   -2.9434   18.9794  -24.9305 H   0  0  0  0  0  0  0  0  0  0  0  0
   -4.1901   19.0882  -26.2192 H   0  0  0  0  0  0  0  0  0  0  0  0
   -3.0145   17.7300  -26.2192 H   0  0  0  0  0  0  0  0  0  0  0  0
   -2.3300   20.9650  -26.8600 N   0  0  0  0  0  0  0  0  0  0  0  0
   -1.4940   21.7460  -27.5990 C   0  0  0  0  0  0  0  0  0  0  0  0
   -1.6460   23.2360  -27.5580 C   0  0  0  0  0  0  0  0  0  0  0  0
   -2.0504   23.5339  -26.5794 H   0  0  0  0  0  0  0  0  0  0  0  0
   -0.6624   23.7032  -27.7137 H   0  0  0  0  0  0  0  0  0  0  0  0
   -2.5790   23.6860  -28.6370 C   0  0  0  0  0  0  0  0  0  0  0  0
   -3.7700   22.7340  -29.3490 S   0  0  0  0  0  0  0  0  0  0  0  0
   -4.2040   23.9380  -30.4550 C   0  0  0  0  0  0  0  0  0  0  0  0
   -5.1620   23.8670  -31.3320 N   0  0  0  0  0  0  0  0  0  0  0  0
   -5.9750   22.7180  -31.6170 C   0  0  0  0  0  0  0  0  0  0  0  0
   -5.3830   21.6020  -32.2180 C   0  0  0  0  0  0  0  0  0  0  0  0
   -4.3178   21.6290  -32.4910 H   0  0  0  0  0  0  0  0  0  0  0  0
   -6.1370   20.4520  -32.4740 C   0  0  0  0  0  0  0  0  0  0  0  0
   -5.6683   19.5879  -32.9675 H   0  0  0  0  0  0  0  0  0  0  0  0
   -7.4870   20.3970  -32.1040 C   0  0  0  0  0  0  0  0  0  0  0  0
   -8.4400   18.9550  -32.4350 S   0  0  0  0  0  0  0  0  0  0  0  0
   -8.7440   18.2380  -31.1490 O   0  0  0  0  0  0  0  0  0  0  0  0
   -9.7360   19.3390  -33.0910 O   0  0  0  0  0  0  0  0  0  0  0  0
   -7.5790   17.9400  -33.4500 F   0  0  0  0  0  0  0  0  0  0  0  0
   -8.0770   21.5030  -31.4760 C   0  0  0  0  0  0  0  0  0  0  0  0
   -9.1364   21.4660  -31.1822 H   0  0  0  0  0  0  0  0  0  0  0  0
   -7.3230   22.6530  -31.2220 C   0  0  0  0  0  0  0  0  0  0  0  0
   -7.7862   23.5101  -30.7112 H   0  0  0  0  0  0  0  0  0  0  0  0
   -3.4640   25.0570  -30.2940 N   0  0  0  0  0  0  0  0  0  0  0  0
   -2.5530   24.9130  -29.2950 C   0  0  0  0  0  0  0  0  0  0  0  0
   -1.6640   25.9280  -28.9680 O   0  0  0  0  0  0  0  0  0  0  0  0
   -0.4650   21.1510  -28.3420 C   0  0  0  0  0  0  0  0  0  0  0  0
    0.2249   21.7719  -28.9323 H   0  0  0  0  0  0  0  0  0  0  0  0
   -0.3250   19.7620  -28.3250 C   0  0  0  0  0  0  0  0  0  0  0  0
    0.4756   19.2826  -28.9074 H   0  0  0  0  0  0  0  0  0  0  0  0
  1  2  1  0
  2  3  2  0
  3  4  1  0
  4  5  1  0
  4  6  1  0
  4  7  1  0
  3  8  1  0
  8  9  2  0
  9 10  1  0
 10 11  1  0
 10 12  1  0
 10 13  1  0
 13 14  1  0
 14 15  1  0
 15 16  2  0
 16 17  1  0
 17 18  2  0
 18 19  1  0
 18 20  1  0
 20 21  1  0
 20 22  2  0
 22 23  1  0
 23 24  2  0
 23 25  2  0
 23 26  1  0
 22 27  1  0
 27 28  1  0
 27 29  2  0
 29 30  1  0
 15 31  1  0
 31 32  1  0
 32 33  1  0
  9 34  1  0
 34 35  1  0
 34 36  2  0
 36 37  1  0
 36  2  1  0
 32 13  2  0
 29 17  1  0
M  CHG  2  31  -1  33  -1
M  END
>  <UniqueID>  (20) 
20

>  <SMILES>  (20) 
Cc1cccc(Cc2s/c(=N\c3ccc(S(=O)(=O)F)cc3)[n-]c2[O-])n1

>  <Energy>  (20) 
75.35063761978505

>  <Genealogy>  (20) 
Cc1cccc(Cc2sc(=Nc3ccc(S(=O)(=O)F)cc3)[n-]c2[O-])n1 (protonated)
Cc1cccc(Cc2s/c(=N\c3ccc(S(=O)(=O)F)cc3)[n-]c2[O-])n1 (cis-trans isomerization)
Cc1cccc(Cc2s/c(=N\c3ccc(S(=O)(=O)F)cc3)[n-]c2[O-])n1 (3D coordinates assigned)
Cc1cccc(Cc2s/c(=N\c3ccc(S(=O)(=O)F)cc3)[n-]c2[O-])n1 (optimized conformer: 75.35063761978505 kcal/mol)

>  <smiles>  (20) 
Cc1cccc(Cc2sc(=Nc3ccc(S(=O)(=O)F)cc3)[nH]c2O)n1

>  <score_type>  (20) 
oracle

>  <origin>  (20) 
adgpu

>  <m_score__min__energy>  (20) 
-13.76

>  <m_primary>  (20) 
energy

$$$$
20:0
     RDKit          3D

 48 51  0  0  0  0  0  0  0  0999 V2000
   -0.8350   19.0110  -29.1620 C   0  0  0  0  0  0  0  0  0  0  0  0
   -0.7740   19.5070  -27.7760 N   0  0  0  0  0  0  0  0  0  0  0  0
    0.4600   20.2700  -27.4990 C   0  0  0  0  0  0  0  0  0  0  0  0
    0.5410   21.5700  -28.3130 C   0  0  0  0  0  0  0  0  0  0  0  0
   -0.7660   22.3180  -28.3300 C   0  0  0  0  0  0  0  0  0  0  0  0
   -0.7920   23.6390  -28.7960 C   0  0  0  0  0  0  0  0  0  0  0  0
   -1.9950   24.3460  -28.8650 C   0  0  0  0  0  0  0  0  0  0  0  0
   -1.9840   25.6630  -29.3130 O   0  0  0  0  0  0  0  0  0  0  0  0
   -3.2010   23.7370  -28.4740 C   0  0  0  0  0  0  0  0  0  0  0  0
   -4.4300   24.4830  -28.5190 N   0  0  0  0  0  0  0  0  0  0  0  0
   -5.2230   24.9090  -30.0030 S   0  0  0  0  0  0  0  0  0  0  0  0
   -4.2420   25.6020  -30.9070 O   0  0  0  0  0  0  0  0  0  0  0  0
   -6.3610   25.8460  -29.7110 O   0  0  0  0  0  0  0  0  0  0  0  0
   -5.8670   23.4580  -30.7650 C   0  0  0  0  0  0  0  0  0  0  0  0
   -5.0070   22.6120  -31.4730 C   0  0  0  0  0  0  0  0  0  0  0  0
   -5.5080   21.4790  -32.1190 C   0  0  0  0  0  0  0  0  0  0  0  0
   -6.8760   21.1760  -32.0590 C   0  0  0  0  0  0  0  0  0  0  0  0
   -7.7510   22.0430  -31.3720 C   0  0  0  0  0  0  0  0  0  0  0  0
   -7.2370   23.1670  -30.7090 C   0  0  0  0  0  0  0  0  0  0  0  0
   -9.2230   21.7200  -31.2620 C   0  0  0  0  0  0  0  0  0  0  0  0
   -9.6600   20.8150  -32.3360 N   0  0  0  0  0  0  0  0  0  0  0  0
   -8.8210   19.6130  -32.3610 C   0  0  0  0  0  0  0  0  0  0  0  0
   -7.4040   19.9790  -32.8090 C   0  0  0  0  0  0  0  0  0  0  0  0
   -3.1780   22.3990  -28.0420 C   0  0  0  0  0  0  0  0  0  0  0  0
   -1.9720   21.6840  -27.9730 C   0  0  0  0  0  0  0  0  0  0  0  0
   -1.9780   20.2790  -27.4130 C   0  0  0  0  0  0  0  0  0  0  0  0
   -0.9693   17.9192  -29.1552 H   0  0  0  0  0  0  0  0  0  0  0  0
   -1.6821   19.4814  -29.6828 H   0  0  0  0  0  0  0  0  0  0  0  0
    0.1008   19.2621  -29.6828 H   0  0  0  0  0  0  0  0  0  0  0  0
    0.4868   20.5215  -26.4285 H   0  0  0  0  0  0  0  0  0  0  0  0
    1.3148   19.6405  -27.7872 H   0  0  0  0  0  0  0  0  0  0  0  0
    1.3127   22.2168  -27.8701 H   0  0  0  0  0  0  0  0  0  0  0  0
    0.7878   21.3015  -29.3508 H   0  0  0  0  0  0  0  0  0  0  0  0
    0.1438   24.1242  -29.1106 H   0  0  0  0  0  0  0  0  0  0  0  0
   -4.9560   24.6630  -27.6350 H   0  0  0  0  0  0  0  0  0  0  0  0
   -3.9319   22.8397  -31.5214 H   0  0  0  0  0  0  0  0  0  0  0  0
   -4.8259   20.8212  -32.6776 H   0  0  0  0  0  0  0  0  0  0  0  0
   -7.9129   23.8239  -30.1418 H   0  0  0  0  0  0  0  0  0  0  0  0
   -9.4114   21.2389  -30.2909 H   0  0  0  0  0  0  0  0  0  0  0  0
   -9.7891   22.6589  -31.3513 H   0  0  0  0  0  0  0  0  0  0  0  0
  -10.6410   20.5180  -32.1200 H   0  0  0  0  0  0  0  0  0  0  0  0
   -8.7833   19.1730  -31.3535 H   0  0  0  0  0  0  0  0  0  0  0  0
   -9.2488   18.8861  -33.0672 H   0  0  0  0  0  0  0  0  0  0  0  0
   -6.7393   19.1218  -32.6264 H   0  0  0  0  0  0  0  0  0  0  0  0
   -7.4360   20.2305  -33.8794 H   0  0  0  0  0  0  0  0  0  0  0  0
   -4.1181   21.9058  -27.7541 H   0  0  0  0  0  0  0  0  0  0  0  0
   -2.0379   20.3393  -26.3163 H   0  0  0  0  0  0  0  0  0  0  0  0
   -2.8450   19.7573  -27.8443 H   0  0  0  0  0  0  0  0  0  0  0  0
  1  2  1  0
  2  3  1  0
  3  4  1  0
  4  5  1  0
  5  6  2  0
  6  7  1  0
  7  8  1  0
  7  9  2  0
  9 10  1  0
 10 11  1  0
 11 12  2  0
 11 13  2  0
 11 14  1  0
 14 15  2  0
 15 16  1  0
 16 17  2  0
 17 18  1  0
 18 19  2  0
 18 20  1  0
 20 21  1  0
 21 22  1  0
 22 23  1  0
  9 24  1  0
 24 25  2  0
 25 26  1  0
 26  2  1  0
 25  5  1  0
 19 14  1  0
 23 17  1  0
  1 27  1  0
  1 28  1  0
  1 29  1  0
  3 30  1  0
  3 31  1  0
  4 32  1  0
  4 33  1  0
  6 34  1  0
 10 35  1  0
 15 36  1  0
 16 37  1  0
 19 38  1  0
 20 39  1  0
 20 40  1  0
 21 41  1  0
 22 42  1  0
 22 43  1  0
 23 44  1  0
 23 45  1  0
 24 46  1  0
 26 47  1  0
 26 48  1  0
M  CHG  1   8  -1
M  END
>  <UniqueID>  (21) 
21

>  <SMILES>  (21) 
CN1CCc2cc([O-])c(NS(=O)(=O)c3ccc4c(c3)CNCC4)cc2C1

>  <Energy>  (21) 
59.65797087544613

>  <Genealogy>  (21) 
CN1CCc2cc([O-])c(NS(=O)(=O)c3ccc4c(c3)CNCC4)cc2C1 (protonated)
CN1CCc2cc([O-])c(NS(=O)(=O)c3ccc4c(c3)CNCC4)cc2C1 (3D coordinates assigned)
CN1CCc2cc([O-])c(NS(=O)(=O)c3ccc4c(c3)CNCC4)cc2C1 (nonaromatic ring conformer: 59.65797087544613 kcal/mol)

>  <smiles>  (21) 
CN1CCc2cc(O)c(NS(=O)(=O)c3ccc4c(c3)CNCC4)cc2C1

>  <score_type>  (21) 
oracle

>  <origin>  (21) 
adgpu

>  <m_score__min__energy>  (21) 
-13.26

>  <m_primary>  (21) 
energy

$$$$
21:0
     RDKit          3D

 70 72  0  0  0  0  0  0  0  0999 V2000
   -0.5380   19.2340  -28.4280 C   0  0  0  0  0  0  0  0  0  0  0  0
    0.5960   19.1230  -29.4440 C   0  0  0  0  0  0  0  0  0  0  0  0
    0.4730   17.8390  -30.2690 C   0  0  0  0  0  0  0  0  0  0  0  0
    0.9110   18.1220  -32.0190 S   0  0  0  0  0  0  0  0  0  0  0  0
   -0.6770   17.6050  -32.6770 C   0  0  0  0  0  0  0  0  0  0  0  0
   -1.2040   16.3910  -32.4170 N   0  0  0  0  0  0  0  0  0  0  0  0
   -2.3740   16.3920  -33.0830 C   0  0  0  0  0  0  0  0  0  0  0  0
   -3.3340   15.2410  -33.0480 C   0  0  0  0  0  0  0  0  0  0  0  0
   -4.6250   15.6390  -32.3400 C   0  0  0  0  0  0  0  0  0  0  0  0
   -2.5590   17.6180  -33.7020 C   0  0  0  0  0  0  0  0  0  0  0  0
   -3.7230   18.0110  -34.5750 C   0  0  0  0  0  0  0  0  0  0  0  0
   -3.9550   16.9710  -35.6660 C   0  0  0  0  0  0  0  0  0  0  0  0
   -1.4690   18.3770  -33.4540 N   0  0  0  0  0  0  0  0  0  0  0  0
   -1.2160   19.7650  -33.8600 C   0  0  0  0  0  0  0  0  0  0  0  0
   -1.7470   20.7180  -32.8210 C   0  0  0  0  0  0  0  0  0  0  0  0
   -3.0500   21.2280  -32.9320 C   0  0  0  0  0  0  0  0  0  0  0  0
   -3.5600   22.0780  -31.9480 C   0  0  0  0  0  0  0  0  0  0  0  0
   -2.7880   22.4050  -30.8290 C   0  0  0  0  0  0  0  0  0  0  0  0
   -3.3340   23.2730  -29.8320 N   0  0  0  0  0  0  0  0  0  0  0  0
   -4.2330   24.3680  -30.0650 C   0  0  0  0  0  0  0  0  0  0  0  0
   -3.8550   25.3010  -30.8200 O   0  0  0  0  0  0  0  0  0  0  0  0
   -5.6460   24.4050  -29.5230 C   0  0  1  0  0  0  0  0  0  0  0  0
   -6.4380   25.6070  -30.0620 C   0  0  0  0  0  0  0  0  0  0  0  0
   -6.3240   23.1430  -29.8340 N   0  0  0  0  0  0  0  0  0  0  0  0
   -6.8770   23.0620  -31.4870 S   0  0  0  0  0  0  0  0  0  0  0  0
   -5.9580   23.7890  -32.4270 O   0  0  0  0  0  0  0  0  0  0  0  0
   -8.2310   23.7050  -31.5730 O   0  0  0  0  0  0  0  0  0  0  0  0
   -7.0150   21.3770  -31.9870 C   0  0  0  0  0  0  0  0  0  0  0  0
   -6.2270   20.8890  -33.0390 C   0  0  0  0  0  0  0  0  0  0  0  0
   -6.3040   19.5440  -33.4110 C   0  0  0  0  0  0  0  0  0  0  0  0
   -7.1880   18.6760  -32.7500 C   0  0  0  0  0  0  0  0  0  0  0  0
   -7.2720   17.2290  -33.1340 C   0  0  0  0  0  0  0  0  0  0  0  0
   -7.9730   19.1660  -31.6970 C   0  0  0  0  0  0  0  0  0  0  0  0
   -7.8880   20.5090  -31.3190 C   0  0  0  0  0  0  0  0  0  0  0  0
   -1.4750   21.9270  -30.7310 C   0  0  0  0  0  0  0  0  0  0  0  0
   -0.9570   21.0870  -31.7210 C   0  0  0  0  0  0  0  0  0  0  0  0
   -0.1234   19.1934  -27.4099 H   0  0  0  0  0  0  0  0  0  0  0  0
   -1.0663   20.1882  -28.5710 H   0  0  0  0  0  0  0  0  0  0  0  0
   -1.2413   18.4004  -28.5710 H   0  0  0  0  0  0  0  0  0  0  0  0
    0.5585   19.9896  -30.1204 H   0  0  0  0  0  0  0  0  0  0  0  0
    1.5516   19.0985  -28.8998 H   0  0  0  0  0  0  0  0  0  0  0  0
    1.1489   17.0790  -29.8500 H   0  0  0  0  0  0  0  0  0  0  0  0
   -0.5727   17.5004  -30.2258 H   0  0  0  0  0  0  0  0  0  0  0  0
   -3.5669   14.9332  -34.0781 H   0  0  0  0  0  0  0  0  0  0  0  0
   -2.8700   14.4093  -32.4976 H   0  0  0  0  0  0  0  0  0  0  0  0
   -4.4753   15.5929  -31.2512 H   0  0  0  0  0  0  0  0  0  0  0  0
   -4.9008   16.6639  -32.6291 H   0  0  0  0  0  0  0  0  0  0  0  0
   -5.4300   14.9473  -32.6291 H   0  0  0  0  0  0  0  0  0  0  0  0
   -4.6280   18.0918  -33.9550 H   0  0  0  0  0  0  0  0  0  0  0  0
   -3.4978   18.9772  -35.0501 H   0  0  0  0  0  0  0  0  0  0  0  0
   -4.1723   15.9968  -35.2037 H   0  0  0  0  0  0  0  0  0  0  0  0
   -4.8066   17.2786  -36.2906 H   0  0  0  0  0  0  0  0  0  0  0  0
   -3.0534   16.8875  -36.2906 H   0  0  0  0  0  0  0  0  0  0  0  0
   -0.1327   19.9183  -33.9733 H   0  0  0  0  0  0  0  0  0  0  0  0
   -1.7255   19.9571  -34.8158 H   0  0  0  0  0  0  0  0  0  0  0  0
   -3.6722   20.9571  -33.7977 H   0  0  0  0  0  0  0  0  0  0  0  0
   -4.5736   22.4920  -32.0538 H   0  0  0  0  0  0  0  0  0  0  0  0
   -5.5934   24.5275  -28.4311 H   0  0  0  0  0  0  0  0  0  0  0  0
   -6.8270   26.1974  -29.2193 H   0  0  0  0  0  0  0  0  0  0  0  0
   -5.7769   26.2361  -30.6762 H   0  0  0  0  0  0  0  0  0  0  0  0
   -7.2769   25.2477  -30.6762 H   0  0  0  0  0  0  0  0  0  0  0  0
   -5.5456   21.5672  -33.5736 H   0  0  0  0  0  0  0  0  0  0  0  0
   -5.6694   19.1637  -34.2251 H   0  0  0  0  0  0  0  0  0  0  0  0
   -7.3079   16.6100  -32.2254 H   0  0  0  0  0  0  0  0  0  0  0  0
   -8.1815   17.0598  -33.7292 H   0  0  0  0  0  0  0  0  0  0  0  0
   -6.3882   16.9557  -33.7292 H   0  0  0  0  0  0  0  0  0  0  0  0
   -8.6593   18.4903  -31.1656 H   0  0  0  0  0  0  0  0  0  0  0  0
   -8.5094   20.8859  -30.4933 H   0  0  0  0  0  0  0  0  0  0  0  0
   -0.8497   22.2135  -29.8725 H   0  0  0  0  0  0  0  0  0  0  0  0
    0.0743   20.7135  -31.6376 H   0  0  0  0  0  0  0  0  0  0  0  0
  1  2  1  0
  2  3  1  0
  3  4  1  0
  4  5  1  0
  5  6  2  0
  6  7  1  0
  7  8  1  0
  8  9  1  0
  7 10  2  0
 10 11  1  0
 11 12  1  0
 10 13  1  0
 13 14  1  0
 14 15  1  0
 15 16  2  0
 16 17  1  0
 17 18  2  0
 18 19  1  0
 19 20  1  0
 20 21  2  0
 20 22  1  0
 22 23  1  0
 22 24  1  0
 24 25  1  0
 25 26  2  0
 25 27  2  0
 25 28  1  0
 28 29  2  0
 29 30  1  0
 30 31  2  0
 31 32  1  0
 31 33  1  0
 33 34  2  0
 18 35  1  0
 35 36  2  0
 13  5  1  0
 36 15  1  0
 34 28  1  0
  1 37  1  0
  1 38  1  0
  1 39  1  0
  2 40  1  0
  2 41  1  0
  3 42  1  0
  3 43  1  0
  8 44  1  0
  8 45  1  0
  9 46  1  0
  9 47  1  0
  9 48  1  0
 11 49  1  0
 11 50  1  0
 12 51  1  0
 12 52  1  0
 12 53  1  0
 14 54  1  0
 14 55  1  0
 16 56  1  0
 17 57  1  0
 22 58  1  1
 23 59  1  0
 23 60  1  0
 23 61  1  0
 29 62  1  0
 30 63  1  0
 32 64  1  0
 32 65  1  0
 32 66  1  0
 33 67  1  0
 34 68  1  0
 35 69  1  0
 36 70  1  0
M  CHG  2  19  -1  24  -1
M  END
>  <UniqueID>  (22) 
22

>  <SMILES>  (22) 
CCCSc1nc(CC)c(CC)n1Cc1ccc([N-]C(=O)[C@@H](C)[N-]S(=O)(=O)c2ccc(C)cc2)cc1

>  <Energy>  (22) 
85.03387295856851

>  <Genealogy>  (22) 
CCCSc1nc(CC)c(CC)n1Cc1ccc([N-]C(=O)C(C)[N-]S(=O)(=O)c2ccc(C)cc2)cc1 (protonated)
CCCSc1nc(CC)c(CC)n1Cc1ccc([N-]C(=O)[C@@H](C)[N-]S(=O)(=O)c2ccc(C)cc2)cc1 (chirality)
CCCSc1nc(CC)c(CC)n1Cc1ccc([N-]C(=O)[C@@H](C)[N-]S(=O)(=O)c2ccc(C)cc2)cc1 (3D coordinates assigned)
CCCSc1nc(CC)c(CC)n1Cc1ccc([N-]C(=O)[C@@H](C)[N-]S(=O)(=O)c2ccc(C)cc2)cc1 (optimized conformer: 85.03387295856851 kcal/mol)

>  <smiles>  (22) 
CCCSc1nc(CC)c(CC)n1Cc1ccc(NC(=O)C(C)NS(=O)(=O)c2ccc(C)cc2)cc1

>  <score_type>  (22) 
oracle

>  <origin>  (22) 
adgpu

>  <m_score__min__energy>  (22) 
-11.890000000000001

>  <m_primary>  (22) 
energy

$$$$
22:0
     RDKit          3D

 32 34  0  0  0  0  0  0  0  0999 V2000
   -3.2430   21.0760  -29.1780 C   0  0  0  0  0  0  0  0  0  0  0  0
   -3.3670   22.5540  -29.4420 C   0  0  0  0  0  0  0  0  0  0  0  0
   -2.2970   23.3990  -29.1050 C   0  0  0  0  0  0  0  0  0  0  0  0
   -2.3900   24.7710  -29.3430 C   0  0  0  0  0  0  0  0  0  0  0  0
   -1.4320   25.5310  -29.0410 O   0  0  0  0  0  0  0  0  0  0  0  0
   -3.5110   25.2920  -29.9010 N   0  0  0  0  0  0  0  0  0  0  0  0
   -4.5710   24.5150  -30.2440 C   0  0  0  0  0  0  0  0  0  0  0  0
   -5.7010   25.1040  -30.8210 C   0  0  0  0  0  0  0  0  0  0  0  0
   -6.7970   24.3190  -31.1820 C   0  0  0  0  0  0  0  0  0  0  0  0
   -6.7780   22.9360  -30.9610 C   0  0  0  0  0  0  0  0  0  0  0  0
   -8.1490   21.9430  -31.4470 S   0  0  0  0  0  0  0  0  0  0  0  0
   -9.0660   22.7520  -32.3210 O   0  0  0  0  0  0  0  0  0  0  0  0
   -8.9050   21.4930  -30.2280 O   0  0  0  0  0  0  0  0  0  0  0  0
   -7.5830   20.5610  -32.3230 N   0  0  0  0  0  0  0  0  0  0  0  0
   -6.3680   20.5070  -33.1170 C   0  0  0  0  0  0  0  0  0  0  0  0
   -6.2380   19.0300  -33.5640 C   0  0  0  0  0  0  0  0  0  0  0  0
   -7.3420   18.3060  -32.9390 N   0  0  0  0  0  0  0  0  0  0  0  0
   -8.1000   19.2560  -32.2240 C   0  0  0  0  0  0  0  0  0  0  0  0
   -9.1260   18.9580  -31.5570 O   0  0  0  0  0  0  0  0  0  0  0  0
   -5.6470   22.3370  -30.3900 C   0  0  0  0  0  0  0  0  0  0  0  0
   -4.5310   23.1160  -30.0230 C   0  0  0  0  0  0  0  0  0  0  0  0
   -3.2280   20.8974  -28.0927 H   0  0  0  0  0  0  0  0  0  0  0  0
   -4.1002   20.5506  -29.6243 H   0  0  0  0  0  0  0  0  0  0  0  0
   -2.3102   20.7008  -29.6243 H   0  0  0  0  0  0  0  0  0  0  0  0
   -1.3858   22.9795  -28.6536 H   0  0  0  0  0  0  0  0  0  0  0  0
   -5.7259   26.1905  -30.9909 H   0  0  0  0  0  0  0  0  0  0  0  0
   -7.6792   24.7882  -31.6419 H   0  0  0  0  0  0  0  0  0  0  0  0
   -6.4496   21.1687  -33.9919 H   0  0  0  0  0  0  0  0  0  0  0  0
   -5.4894   20.8418  -32.5460 H   0  0  0  0  0  0  0  0  0  0  0  0
   -6.3083   18.9574  -34.6593 H   0  0  0  0  0  0  0  0  0  0  0  0
   -5.2671   18.6088  -33.2640 H   0  0  0  0  0  0  0  0  0  0  0  0
   -5.6300   21.2493  -30.2268 H   0  0  0  0  0  0  0  0  0  0  0  0
  1  2  1  0
  2  3  2  0
  3  4  1  0
  4  5  2  0
  4  6  1  0
  6  7  1  0
  7  8  2  0
  8  9  1  0
  9 10  2  0
 10 11  1  0
 11 12  2  0
 11 13  2  0
 11 14  1  0
 14 15  1  0
 15 16  1  0
 16 17  1  0
 17 18  1  0
 18 19  2  0
 10 20  1  0
 20 21  2  0
 21  2  1  0
 21  7  1  0
 18 14  1  0
  1 22  1  0
  1 23  1  0
  1 24  1  0
  3 25  1  0
  8 26  1  0
  9 27  1  0
 15 28  1  0
 15 29  1  0
 16 30  1  0
 16 31  1  0
 20 32  1  0
M  CHG  2   6  -1  17  -1
M  END
>  <UniqueID>  (23) 
23

>  <SMILES>  (23) 
Cc1cc(=O)[n-]c2ccc(S(=O)(=O)N3CC[N-]C3=O)cc12

>  <Energy>  (23) 
53.4843305726902

>  <Genealogy>  (23) 
Cc1cc(=O)[n-]c2ccc(S(=O)(=O)N3CC[N-]C3=O)cc12 (protonated)
Cc1cc(=O)[n-]c2ccc(S(=O)(=O)N3CC[N-]C3=O)cc12 (3D coordinates assigned)
Cc1cc(=O)[n-]c2ccc(S(=O)(=O)N3CC[N-]C3=O)cc12 (nonaromatic ring conformer: 53.4843305726902 kcal/mol)

>  <smiles>  (23) 
Cc1cc(=O)[nH]c2ccc(S(=O)(=O)N3CCNC3=O)cc12

>  <score_type>  (23) 
oracle

>  <origin>  (23) 
adgpu

>  <m_score__min__energy>  (23) 
-9.9700000000000006

>  <m_primary>  (23) 
energy

$$$$
23:0
     RDKit          3D

 65 69  0  0  0  0  0  0  0  0999 V2000
   -2.6690   21.6560  -28.6970 O   0  0  0  0  0  0  0  0  0  0  0  0
   -2.5810   22.2060  -29.8270 C   0  0  0  0  0  0  0  0  0  0  0  0
   -1.4660   21.9260  -30.6850 N   0  0  0  0  0  0  0  0  0  0  0  0
   -1.4990   21.2540  -31.9530 C   0  0  0  0  0  0  0  0  0  0  0  0
   -0.5700   21.5510  -32.9690 C   0  0  0  0  0  0  0  0  0  0  0  0
   -0.6040   20.8650  -34.1900 C   0  0  0  0  0  0  0  0  0  0  0  0
    0.5790   21.2270  -35.4490 S   0  0  0  0  0  0  0  0  0  0  0  0
    1.0650   22.6390  -35.2830 O   0  0  0  0  0  0  0  0  0  0  0  0
   -0.0830   21.1200  -36.7940 O   0  0  0  0  0  0  0  0  0  0  0  0
    1.9380   20.1300  -35.3860 N   0  0  0  0  0  0  0  0  0  0  0  0
    1.5900   18.7960  -35.9350 C   0  0  0  0  0  0  0  0  0  0  0  0
    1.3880   17.7320  -34.8470 C   0  0  0  0  0  0  0  0  0  0  0  0
    2.6510   17.5770  -33.9840 C   0  0  0  0  0  0  0  0  0  0  0  0
    3.4350   18.8950  -33.8290 C   0  0  0  0  0  0  0  0  0  0  0  0
    2.5200   20.1090  -34.0250 C   0  0  0  0  0  0  0  0  0  0  0  0
   -1.5760   19.8810  -34.4020 C   0  0  0  0  0  0  0  0  0  0  0  0
   -2.4890   19.5660  -33.3930 C   0  0  0  0  0  0  0  0  0  0  0  0
   -2.4480   20.2360  -32.1670 C   0  0  0  0  0  0  0  0  0  0  0  0
   -3.3670   19.8810  -31.1780 O   0  0  0  0  0  0  0  0  0  0  0  0
   -3.5980   23.1930  -30.2340 C   0  0  0  0  0  0  0  0  0  0  0  0
   -3.4860   24.5780  -30.1640 C   0  0  0  0  0  0  0  0  0  0  0  0
   -2.3780   25.2610  -29.6790 O   0  0  0  0  0  0  0  0  0  0  0  0
   -4.5840   25.2100  -30.6370 N   0  0  0  0  0  0  0  0  0  0  0  0
   -5.4050   24.2090  -31.0080 C   0  0  0  0  0  0  0  0  0  0  0  0
   -6.6750   24.3500  -31.5610 C   0  0  0  0  0  0  0  0  0  0  0  0
   -7.3910   23.1850  -31.8800 C   0  0  0  0  0  0  0  0  0  0  0  0
   -6.8350   21.9080  -31.6360 C   0  0  0  0  0  0  0  0  0  0  0  0
   -7.7420   20.4500  -32.0480 S   0  0  0  0  0  0  0  0  0  0  0  0
   -8.7810   20.7830  -33.0820 O   0  0  0  0  0  0  0  0  0  0  0  0
   -8.4510   19.9510  -30.8190 O   0  0  0  0  0  0  0  0  0  0  0  0
   -6.6950   19.1970  -32.6680 N   0  0  0  0  0  0  0  0  0  0  0  0
   -6.4050   19.4270  -34.0930 C   0  0  0  0  0  0  0  0  0  0  0  0
   -5.2910   18.4780  -34.5710 C   0  0  0  0  0  0  0  0  0  0  0  0
   -5.2100   17.1950  -33.7280 C   0  0  0  0  0  0  0  0  0  0  0  0
   -6.5990   16.7550  -33.2580 C   0  0  0  0  0  0  0  0  0  0  0  0
   -7.3110   17.8690  -32.4600 C   0  0  0  0  0  0  0  0  0  0  0  0
   -5.5480   21.7970  -31.0710 C   0  0  0  0  0  0  0  0  0  0  0  0
   -4.8510   22.9720  -30.7780 C   0  0  0  0  0  0  0  0  0  0  0  0
    0.1895   22.3290  -32.8022 H   0  0  0  0  0  0  0  0  0  0  0  0
    0.6585   18.8872  -36.5129 H   0  0  0  0  0  0  0  0  0  0  0  0
    2.4327   18.4689  -36.5618 H   0  0  0  0  0  0  0  0  0  0  0  0
    0.5475   18.0311  -34.2035 H   0  0  0  0  0  0  0  0  0  0  0  0
    1.1774   16.7688  -35.3347 H   0  0  0  0  0  0  0  0  0  0  0  0
    2.3530   17.2260  -32.9850 H   0  0  0  0  0  0  0  0  0  0  0  0
    3.3110   16.8570  -34.4899 H   0  0  0  0  0  0  0  0  0  0  0  0
    3.8740   18.9352  -32.8212 H   0  0  0  0  0  0  0  0  0  0  0  0
    4.2229   18.9245  -34.5960 H   0  0  0  0  0  0  0  0  0  0  0  0
    1.7050   20.0662  -33.2875 H   0  0  0  0  0  0  0  0  0  0  0  0
    3.1198   21.0211  -33.8899 H   0  0  0  0  0  0  0  0  0  0  0  0
   -1.6212   19.3538  -35.3664 H   0  0  0  0  0  0  0  0  0  0  0  0
   -3.2451   18.7857  -33.5643 H   0  0  0  0  0  0  0  0  0  0  0  0
   -3.3190   20.2440  -30.2340 H   0  0  0  0  0  0  0  0  0  0  0  0
   -7.1053   25.3459  -31.7429 H   0  0  0  0  0  0  0  0  0  0  0  0
   -8.3941   23.2666  -32.3240 H   0  0  0  0  0  0  0  0  0  0  0  0
   -7.3154   19.2442  -34.6828 H   0  0  0  0  0  0  0  0  0  0  0  0
   -6.0717   20.4667  -34.2273 H   0  0  0  0  0  0  0  0  0  0  0  0
   -5.4881   18.2011  -35.6172 H   0  0  0  0  0  0  0  0  0  0  0  0
   -4.3326   19.0078  -34.4670 H   0  0  0  0  0  0  0  0  0  0  0  0
   -4.7659   16.3931  -34.3361 H   0  0  0  0  0  0  0  0  0  0  0  0
   -4.5898   17.3977  -32.8424 H   0  0  0  0  0  0  0  0  0  0  0  0
   -7.2090   16.5008  -34.1374 H   0  0  0  0  0  0  0  0  0  0  0  0
   -6.4776   15.8838  -32.5974 H   0  0  0  0  0  0  0  0  0  0  0  0
   -8.3628   17.9142  -32.7790 H   0  0  0  0  0  0  0  0  0  0  0  0
   -7.2225   17.6233  -31.3915 H   0  0  0  0  0  0  0  0  0  0  0  0
   -5.1044   20.8115  -30.8663 H   0  0  0  0  0  0  0  0  0  0  0  0
  1  2  2  0
  2  3  1  0
  3  4  1  0
  4  5  2  0
  5  6  1  0
  6  7  1  0
  7  8  2  0
  7  9  2  0
  7 10  1  0
 10 11  1  0
 11 12  1  0
 12 13  1  0
 13 14  1  0
 14 15  1  0
  6 16  2  0
 16 17  1  0
 17 18  2  0
 18 19  1  0
  2 20  1  0
 20 21  2  0
 21 22  1  0
 21 23  1  0
 23 24  1  0
 24 25  2  0
 25 26  1  0
 26 27  2  0
 27 28  1  0
 28 29  2  0
 28 30  2  0
 28 31  1  0
 31 32  1  0
 32 33  1  0
 33 34  1  0
 34 35  1  0
 35 36  1  0
 27 37  1  0
 37 38  2  0
 18  4  1  0
 38 20  1  0
 15 10  1  0
 38 24  1  0
 36 31  1  0
  5 39  1  0
 11 40  1  0
 11 41  1  0
 12 42  1  0
 12 43  1  0
 13 44  1  0
 13 45  1  0
 14 46  1  0
 14 47  1  0
 15 48  1  0
 15 49  1  0
 16 50  1  0
 17 51  1  0
 19 52  1  0
 25 53  1  0
 26 54  1  0
 32 55  1  0
 32 56  1  0
 33 57  1  0
 33 58  1  0
 34 59  1  0
 34 60  1  0
 35 61  1  0
 35 62  1  0
 36 63  1  0
 36 64  1  0
 37 65  1  0
M  CHG  3   3  -1  22  -1  23  -1
M  END
>  <UniqueID>  (24) 
24

>  <SMILES>  (24) 
O=C([N-]c1cc(S(=O)(=O)N2CCCCC2)ccc1O)c1c([O-])[n-]c2ccc(S(=O)(=O)N3CCCCC3)cc12

>  <Energy>  (24) 
112.21998185046087

>  <Genealogy>  (24) 
O=C([N-]c1cc(S(=O)(=O)N2CCCCC2)ccc1O)c1c([O-])[n-]c2ccc(S(=O)(=O)N3CCCCC3)cc12 (protonated)
O=C([N-]c1cc(S(=O)(=O)N2CCCCC2)ccc1O)c1c([O-])[n-]c2ccc(S(=O)(=O)N3CCCCC3)cc12 (3D coordinates assigned)
O=C([N-]c1cc(S(=O)(=O)N2CCCCC2)ccc1O)c1c([O-])[n-]c2ccc(S(=O)(=O)N3CCCCC3)cc12 (nonaromatic ring conformer: 112.21998185046087 kcal/mol)

>  <smiles>  (24) 
O=C(Nc1cc(S(=O)(=O)N2CCCCC2)ccc1O)c1c(O)[nH]c2ccc(S(=O)(=O)N3CCCCC3)cc12

>  <score_type>  (24) 
oracle

>  <origin>  (24) 
adgpu

>  <m_score__min__energy>  (24) 
-14.9

>  <m_primary>  (24) 
energy

$$$$
24:0
     RDKit          3D

 57 60  0  0  0  0  0  0  0  0999 V2000
   -0.9980   22.5560  -26.0410 C   0  0  0  0  0  0  0  0  0  0  0  0
   -1.5820   23.2770  -27.2290 C   0  0  0  0  0  0  0  0  0  0  0  0
   -2.7710   22.7660  -27.7740 C   0  0  0  0  0  0  0  0  0  0  0  0
   -3.3970   23.4010  -28.8420 C   0  0  0  0  0  0  0  0  0  0  0  0
   -2.8590   24.5640  -29.3920 C   0  0  0  0  0  0  0  0  0  0  0  0
   -3.5730   25.2000  -30.4610 N   0  0  0  0  0  0  0  0  0  0  0  0
   -4.9590   25.0180  -30.7760 C   0  0  0  0  0  0  0  0  0  0  0  0
   -5.6950   26.0140  -31.0030 O   0  0  0  0  0  0  0  0  0  0  0  0
   -5.4960   23.7020  -30.9370 N   0  0  0  0  0  0  0  0  0  0  0  0
   -4.8710   22.6330  -31.6610 C   0  0  0  0  0  0  0  0  0  0  0  0
   -5.6760   21.7100  -32.3390 C   0  0  0  0  0  0  0  0  0  0  0  0
   -5.0990   20.6550  -33.0470 C   0  0  0  0  0  0  0  0  0  0  0  0
   -3.7050   20.5140  -33.0880 C   0  0  0  0  0  0  0  0  0  0  0  0
   -2.8880   21.4080  -32.3810 C   0  0  0  0  0  0  0  0  0  0  0  0
   -3.4760   22.4520  -31.6530 C   0  0  0  0  0  0  0  0  0  0  0  0
   -1.3940   21.1760  -32.3110 C   0  0  0  0  0  0  0  0  0  0  0  0
   -0.8160   20.4350  -33.4740 N   0  0  0  0  0  0  0  0  0  0  0  0
    0.2880   21.1930  -34.1000 C   0  0  0  0  0  0  0  0  0  0  0  0
   -1.7820   19.9970  -34.5110 C   0  0  0  0  0  0  0  0  0  0  0  0
   -3.0550   19.4290  -33.8830 C   0  0  0  0  0  0  0  0  0  0  0  0
   -1.6980   25.1260  -28.8240 C   0  0  0  0  0  0  0  0  0  0  0  0
   -1.2280   26.3470  -29.3030 O   0  0  0  0  0  0  0  0  0  0  0  0
   -1.0270   24.4780  -27.7590 C   0  0  0  0  0  0  0  0  0  0  0  0
    0.4530   25.2320  -27.0860 S   0  0  0  0  0  0  0  0  0  0  0  0
    1.6510   24.5780  -27.7180 O   0  0  0  0  0  0  0  0  0  0  0  0
    0.5180   26.6860  -27.4630 O   0  0  0  0  0  0  0  0  0  0  0  0
    0.6080   25.0860  -25.3430 N   0  0  0  0  0  0  0  0  0  0  0  0
   -0.6550   25.2910  -24.6070 C   0  0  0  0  0  0  0  0  0  0  0  0
   -0.8750   26.7620  -24.2150 C   0  0  0  0  0  0  0  0  0  0  0  0
    0.2510   27.2800  -23.5370 O   0  0  0  0  0  0  0  0  0  0  0  0
    1.3610   27.2710  -24.4080 C   0  0  0  0  0  0  0  0  0  0  0  0
    1.7430   25.8310  -24.7740 C   0  0  0  0  0  0  0  0  0  0  0  0
   -1.3704   23.0158  -25.1137 H   0  0  0  0  0  0  0  0  0  0  0  0
   -1.2966   21.4977  -26.0712 H   0  0  0  0  0  0  0  0  0  0  0  0
    0.0992   22.6284  -26.0712 H   0  0  0  0  0  0  0  0  0  0  0  0
   -3.2132   21.8519  -27.3511 H   0  0  0  0  0  0  0  0  0  0  0  0
   -4.3255   22.9815  -29.2566 H   0  0  0  0  0  0  0  0  0  0  0  0
   -6.7705   21.8171  -32.3135 H   0  0  0  0  0  0  0  0  0  0  0  0
   -5.7395   19.9325  -33.5740 H   0  0  0  0  0  0  0  0  0  0  0  0
   -2.8409   23.1356  -31.0704 H   0  0  0  0  0  0  0  0  0  0  0  0
   -0.8986   22.1563  -32.2503 H   0  0  0  0  0  0  0  0  0  0  0  0
   -1.2213   20.5448  -31.4268 H   0  0  0  0  0  0  0  0  0  0  0  0
    0.9239   21.6296  -33.3158 H   0  0  0  0  0  0  0  0  0  0  0  0
    0.8892   20.5163  -34.7250 H   0  0  0  0  0  0  0  0  0  0  0  0
   -0.1276   21.9971  -34.7250 H   0  0  0  0  0  0  0  0  0  0  0  0
   -2.0473   20.8595  -35.1401 H   0  0  0  0  0  0  0  0  0  0  0  0
   -1.3098   19.2060  -35.1121 H   0  0  0  0  0  0  0  0  0  0  0  0
   -3.7388   19.0849  -34.6729 H   0  0  0  0  0  0  0  0  0  0  0  0
   -2.8112   18.5751  -33.2339 H   0  0  0  0  0  0  0  0  0  0  0  0
   -1.4912   24.9666  -25.2438 H   0  0  0  0  0  0  0  0  0  0  0  0
   -0.6013   24.7019  -23.6796 H   0  0  0  0  0  0  0  0  0  0  0  0
   -1.0505   27.3543  -25.1252 H   0  0  0  0  0  0  0  0  0  0  0  0
   -1.7446   26.8191  -23.5438 H   0  0  0  0  0  0  0  0  0  0  0  0
    1.1064   27.8225  -25.3251 H   0  0  0  0  0  0  0  0  0  0  0  0
    2.2138   27.7488  -23.9036 H   0  0  0  0  0  0  0  0  0  0  0  0
    2.5571   25.8567  -25.5133 H   0  0  0  0  0  0  0  0  0  0  0  0
    2.0575   25.3188  -23.8527 H   0  0  0  0  0  0  0  0  0  0  0  0
  1  2  1  0
  2  3  2  0
  3  4  1  0
  4  5  2  0
  5  6  1  0
  6  7  1  0
  7  8  2  0
  7  9  1  0
  9 10  1  0
 10 11  2  0
 11 12  1  0
 12 13  2  0
 13 14  1  0
 14 15  2  0
 14 16  1  0
 16 17  1  0
 17 18  1  0
 17 19  1  0
 19 20  1  0
  5 21  1  0
 21 22  1  0
 21 23  2  0
 23 24  1  0
 24 25  2  0
 24 26  2  0
 24 27  1  0
 27 28  1  0
 28 29  1  0
 29 30  1  0
 30 31  1  0
 31 32  1  0
 23  2  1  0
 32 27  1  0
 15 10  1  0
 20 13  1  0
  1 33  1  0
  1 34  1  0
  1 35  1  0
  3 36  1  0
  4 37  1  0
 11 38  1  0
 12 39  1  0
 15 40  1  0
 16 41  1  0
 16 42  1  0
 18 43  1  0
 18 44  1  0
 18 45  1  0
 19 46  1  0
 19 47  1  0
 20 48  1  0
 20 49  1  0
 28 50  1  0
 28 51  1  0
 29 52  1  0
 29 53  1  0
 31 54  1  0
 31 55  1  0
 32 56  1  0
 32 57  1  0
M  CHG  3   6  -1   9  -1  22  -1
M  END
>  <UniqueID>  (25) 
25

>  <SMILES>  (25) 
Cc1ccc([N-]C(=O)[N-]c2ccc3c(c2)CN(C)CC3)c([O-])c1S(=O)(=O)N1CCOCC1

>  <Energy>  (25) 
88.20640733050166

>  <Genealogy>  (25) 
Cc1ccc([N-]C(=O)[N-]c2ccc3c(c2)CN(C)CC3)c([O-])c1S(=O)(=O)N1CCOCC1 (protonated)
Cc1ccc([N-]C(=O)[N-]c2ccc3c(c2)CN(C)CC3)c([O-])c1S(=O)(=O)N1CCOCC1 (3D coordinates assigned)
Cc1ccc([N-]C(=O)[N-]c2ccc3c(c2)CN(C)CC3)c([O-])c1S(=O)(=O)N1CCOCC1 (nonaromatic ring conformer: 88.20640733050166 kcal/mol)

>  <smiles>  (25) 
Cc1ccc(NC(=O)Nc2ccc3c(c2)CN(C)CC3)c(O)c1S(=O)(=O)N1CCOCC1

>  <score_type>  (25) 
oracle

>  <origin>  (25) 
adgpu

>  <m_score__min__energy>  (25) 
-16.530000000000001

>  <m_primary>  (25) 
energy

$$$$
25:0
     RDKit          3D

 53 55  0  0  0  0  0  0  0  0999 V2000
   -4.9270   19.7600  -33.4290 C   0  0  0  0  0  0  0  0  0  0  0  0
   -6.1810   20.3400  -32.8610 C   0  0  0  0  0  0  0  0  0  0  0  0
   -7.3250   19.5520  -32.7000 C   0  0  0  0  0  0  0  0  0  0  0  0
   -8.4580   20.1110  -32.1980 N   0  0  0  0  0  0  0  0  0  0  0  0
   -8.5070   21.4250  -31.8470 C   0  0  0  0  0  0  0  0  0  0  0  0
   -9.6070   21.9280  -31.3870 N   0  0  0  0  0  0  0  0  0  0  0  0
   -7.3530   22.2210  -32.0010 C   0  0  0  0  0  0  0  0  0  0  0  0
   -7.3630   23.6960  -31.7130 C   0  0  0  0  0  0  0  0  0  0  0  0
   -5.9980   24.2100  -31.7720 N   0  0  0  0  0  0  0  0  0  0  0  0
   -5.4850   25.1490  -30.8170 C   0  0  0  0  0  0  0  0  0  0  0  0
   -6.2740   25.8450  -30.1230 O   0  0  0  0  0  0  0  0  0  0  0  0
   -4.0740   25.3340  -30.6560 N   0  0  0  0  0  0  0  0  0  0  0  0
   -3.1820   24.3460  -30.1270 C   0  0  0  0  0  0  0  0  0  0  0  0
   -3.3180   23.0170  -30.5430 C   0  0  0  0  0  0  0  0  0  0  0  0
   -2.4720   22.0310  -30.0350 C   0  0  0  0  0  0  0  0  0  0  0  0
   -1.4650   22.3680  -29.1290 C   0  0  0  0  0  0  0  0  0  0  0  0
   -1.2750   23.7040  -28.7460 C   0  0  0  0  0  0  0  0  0  0  0  0
    0.0580   24.1490  -27.6720 S   0  0  0  0  0  0  0  0  0  0  0  0
    0.0840   23.2060  -26.5010 O   0  0  0  0  0  0  0  0  0  0  0  0
    1.3500   24.0280  -28.4340 O   0  0  0  0  0  0  0  0  0  0  0  0
   -0.1450   25.7880  -27.1020 N   0  0  0  0  0  0  0  0  0  0  0  0
    1.1520   26.3570  -26.6820 C   0  0  0  0  0  0  0  0  0  0  0  0
    0.9880   27.6510  -25.8510 C   0  0  0  0  0  0  0  0  0  0  0  0
   -0.4000   28.3030  -26.0320 C   0  0  0  0  0  0  0  0  0  0  0  0
   -0.5500   28.9170  -27.4360 C   0  0  0  0  0  0  0  0  0  0  0  0
   -1.5320   27.2880  -25.7260 C   0  0  0  0  0  0  0  0  0  0  0  0
   -1.1210   25.8320  -26.0010 C   0  0  0  0  0  0  0  0  0  0  0  0
   -2.1350   24.6950  -29.2500 C   0  0  0  0  0  0  0  0  0  0  0  0
   -1.9340   26.0270  -28.9020 O   0  0  0  0  0  0  0  0  0  0  0  0
   -6.2280   21.6550  -32.5160 N   0  0  0  0  0  0  0  0  0  0  0  0
   -4.2613   19.4521  -32.6092 H   0  0  0  0  0  0  0  0  0  0  0  0
   -5.1752   18.8852  -34.0480 H   0  0  0  0  0  0  0  0  0  0  0  0
   -4.4211   20.5156  -34.0480 H   0  0  0  0  0  0  0  0  0  0  0  0
   -7.3082   18.4877  -32.9775 H   0  0  0  0  0  0  0  0  0  0  0  0
  -10.4730   21.3540  -31.2730 H   0  0  0  0  0  0  0  0  0  0  0  0
   -7.9823   24.2120  -32.4615 H   0  0  0  0  0  0  0  0  0  0  0  0
   -7.7793   23.8721  -30.7101 H   0  0  0  0  0  0  0  0  0  0  0  0
   -5.3390   23.7690  -32.4530 H   0  0  0  0  0  0  0  0  0  0  0  0
   -4.0952   22.7486  -31.2736 H   0  0  0  0  0  0  0  0  0  0  0  0
   -2.5989   20.9845  -30.3494 H   0  0  0  0  0  0  0  0  0  0  0  0
   -0.8173   21.5821  -28.7133 H   0  0  0  0  0  0  0  0  0  0  0  0
    1.6840   25.6113  -26.0730 H   0  0  0  0  0  0  0  0  0  0  0  0
    1.7160   26.6121  -27.5913 H   0  0  0  0  0  0  0  0  0  0  0  0
    1.1259   27.4062  -24.7875 H   0  0  0  0  0  0  0  0  0  0  0  0
    1.7418   28.3704  -26.2037 H   0  0  0  0  0  0  0  0  0  0  0  0
   -0.4868   29.1257  -25.3071 H   0  0  0  0  0  0  0  0  0  0  0  0
   -0.8101   29.9819  -27.3446 H   0  0  0  0  0  0  0  0  0  0  0  0
    0.3990   28.8170  -27.9832 H   0  0  0  0  0  0  0  0  0  0  0  0
   -1.3460   28.3907  -27.9832 H   0  0  0  0  0  0  0  0  0  0  0  0
   -1.8087   27.3802  -24.6654 H   0  0  0  0  0  0  0  0  0  0  0  0
   -2.3756   27.5240  -26.3913 H   0  0  0  0  0  0  0  0  0  0  0  0
   -0.6685   25.4031  -25.0948 H   0  0  0  0  0  0  0  0  0  0  0  0
   -2.0115   25.2505  -26.2820 H   0  0  0  0  0  0  0  0  0  0  0  0
  1  2  1  0
  2  3  2  0
  3  4  1  0
  4  5  1  0
  5  6  2  3
  5  7  1  0
  7  8  1  0
  8  9  1  0
  9 10  1  0
 10 11  2  0
 10 12  1  0
 12 13  1  0
 13 14  2  0
 14 15  1  0
 15 16  2  0
 16 17  1  0
 17 18  1  0
 18 19  2  0
 18 20  2  0
 18 21  1  0
 21 22  1  0
 22 23  1  0
 23 24  1  0
 24 25  1  0
 24 26  1  0
 26 27  1  0
 17 28  2  0
 28 29  1  0
  7 30  2  0
 30  2  1  0
 28 13  1  0
 27 21  1  0
  1 31  1  0
  1 32  1  0
  1 33  1  0
  3 34  1  0
  6 35  1  0
  8 36  1  0
  8 37  1  0
  9 38  1  0
 14 39  1  0
 15 40  1  0
 16 41  1  0
 22 42  1  0
 22 43  1  0
 23 44  1  0
 23 45  1  0
 24 46  1  0
 25 47  1  0
 25 48  1  0
 25 49  1  0
 26 50  1  0
 26 51  1  0
 27 52  1  0
 27 53  1  0
M  CHG  3   4  -1  12  -1  29  -1
M  END
>  <UniqueID>  (26) 
26

>  <SMILES>  (26) 
Cc1c[n-]c(=N)c(CNC(=O)[N-]c2cccc(S(=O)(=O)N3CCC(C)CC3)c2[O-])n1

>  <Energy>  (26) 
60.959268889830796

>  <Genealogy>  (26) 
Cc1c[n-]c(=N)c(CNC(=O)[N-]c2cccc(S(=O)(=O)N3CCC(C)CC3)c2[O-])n1 (protonated)
Cc1c[n-]c(=N)c(CNC(=O)[N-]c2cccc(S(=O)(=O)N3CCC(C)CC3)c2[O-])n1 (3D coordinates assigned)
Cc1c[n-]c(=N)c(CNC(=O)[N-]c2cccc(S(=O)(=O)N3CCC(C)CC3)c2[O-])n1 (nonaromatic ring conformer: 60.959268889830796 kcal/mol)

>  <smiles>  (26) 
Cc1c[nH]c(=N)c(CNC(=O)Nc2cccc(S(=O)(=O)N3CCC(C)CC3)c2O)n1

>  <score_type>  (26) 
oracle

>  <origin>  (26) 
adgpu

>  <m_score__min__energy>  (26) 
-14.34

>  <m_primary>  (26) 
energy

$$$$
26:0
     RDKit          3D

 54 57  0  0  0  0  0  0  0  0999 V2000
   -6.8460   19.8880  -34.3050 O   0  0  0  0  0  0  0  0  0  0  0  0
   -6.0820   20.4030  -33.4420 C   0  0  0  0  0  0  0  0  0  0  0  0
   -4.6730   19.9460  -33.3590 C   0  0  0  0  0  0  0  0  0  0  0  0
   -4.3640   18.5840  -33.1870 C   0  0  0  0  0  0  0  0  0  0  0  0
   -3.0310   18.1640  -33.1250 C   0  0  0  0  0  0  0  0  0  0  0  0
   -1.9970   19.0950  -33.2410 C   0  0  0  0  0  0  0  0  0  0  0  0
   -2.2920   20.4480  -33.4240 C   0  0  0  0  0  0  0  0  0  0  0  0
   -3.6230   20.8720  -33.4880 C   0  0  0  0  0  0  0  0  0  0  0  0
   -6.6340   21.4350  -32.5340 C   0  0  0  0  0  0  0  0  0  0  0  0
   -5.7840   22.4370  -32.0410 C   0  0  0  0  0  0  0  0  0  0  0  0
   -6.2580   23.3910  -31.1290 C   0  0  0  0  0  0  0  0  0  0  0  0
   -5.1370   24.5580  -30.4290 S   0  0  0  0  0  0  0  0  0  0  0  0
   -5.4510   25.9320  -30.9480 O   0  0  0  0  0  0  0  0  0  0  0  0
   -5.2780   24.5600  -28.9320 O   0  0  0  0  0  0  0  0  0  0  0  0
   -3.5070   24.1400  -30.8400 N   0  0  0  0  0  0  0  0  0  0  0  0
   -2.6480   23.5140  -29.8850 C   0  0  0  0  0  0  0  0  0  0  0  0
   -2.7080   22.1260  -29.7000 C   0  0  0  0  0  0  0  0  0  0  0  0
   -3.5550   21.3560  -30.4960 O   0  0  0  0  0  0  0  0  0  0  0  0
   -1.9250   21.5220  -28.7080 C   0  0  0  0  0  0  0  0  0  0  0  0
   -1.0980   22.2980  -27.8930 C   0  0  0  0  0  0  0  0  0  0  0  0
   -1.0290   23.6870  -28.0750 C   0  0  0  0  0  0  0  0  0  0  0  0
   -0.0090   24.6720  -27.0250 S   0  0  0  0  0  0  0  0  0  0  0  0
    1.0240   25.4000  -27.8410 O   0  0  0  0  0  0  0  0  0  0  0  0
    0.6920   23.7710  -26.0460 O   0  0  0  0  0  0  0  0  0  0  0  0
   -1.0070   25.8130  -26.1610 N   0  0  0  0  0  0  0  0  0  0  0  0
   -0.5960   27.1900  -26.4320 C   0  0  0  0  0  0  0  0  0  0  0  0
   -0.9910   28.0090  -25.2120 C   0  0  0  0  0  0  0  0  0  0  0  0
   -1.1810   26.9980  -24.0910 C   0  0  0  0  0  0  0  0  0  0  0  0
   -0.8780   25.6430  -24.7140 C   0  0  0  0  0  0  0  0  0  0  0  0
   -1.7910   24.2920  -29.0880 C   0  0  0  0  0  0  0  0  0  0  0  0
   -1.7120   25.6650  -29.2990 O   0  0  0  0  0  0  0  0  0  0  0  0
   -7.5980   23.3550  -30.7230 C   0  0  0  0  0  0  0  0  0  0  0  0
   -8.4520   22.3640  -31.2120 C   0  0  0  0  0  0  0  0  0  0  0  0
   -7.9750   21.3950  -32.1010 C   0  0  0  0  0  0  0  0  0  0  0  0
   -8.8320   20.3820  -32.5200 O   0  0  0  0  0  0  0  0  0  0  0  0
   -5.1748   17.8457  -33.1008 H   0  0  0  0  0  0  0  0  0  0  0  0
   -2.7971   17.0984  -32.9846 H   0  0  0  0  0  0  0  0  0  0  0  0
   -0.9497   18.7629  -33.1883 H   0  0  0  0  0  0  0  0  0  0  0  0
   -1.4767   21.1805  -33.5178 H   0  0  0  0  0  0  0  0  0  0  0  0
   -3.8501   21.9375  -33.6403 H   0  0  0  0  0  0  0  0  0  0  0  0
   -4.7360   22.4744  -32.3731 H   0  0  0  0  0  0  0  0  0  0  0  0
   -3.9440   21.7170  -31.3590 H   0  0  0  0  0  0  0  0  0  0  0  0
   -1.9617   20.4313  -28.5703 H   0  0  0  0  0  0  0  0  0  0  0  0
   -0.4985   21.8181  -27.1054 H   0  0  0  0  0  0  0  0  0  0  0  0
    0.4922   27.2382  -26.5855 H   0  0  0  0  0  0  0  0  0  0  0  0
   -1.0778   27.5762  -27.3423 H   0  0  0  0  0  0  0  0  0  0  0  0
   -0.1958   28.7241  -24.9546 H   0  0  0  0  0  0  0  0  0  0  0  0
   -1.9032   28.5968  -25.3917 H   0  0  0  0  0  0  0  0  0  0  0  0
   -0.4863   27.2054  -23.2638 H   0  0  0  0  0  0  0  0  0  0  0  0
   -2.1972   27.0377  -23.6719 H   0  0  0  0  0  0  0  0  0  0  0  0
    0.1441   25.3271  -24.4581 H   0  0  0  0  0  0  0  0  0  0  0  0
   -1.5670   24.8708  -24.3412 H   0  0  0  0  0  0  0  0  0  0  0  0
   -7.9784   24.1086  -30.0177 H   0  0  0  0  0  0  0  0  0  0  0  0
   -9.5056   22.3453  -30.8963 H   0  0  0  0  0  0  0  0  0  0  0  0
  1  2  2  0
  2  3  1  0
  3  4  2  0
  4  5  1  0
  5  6  2  0
  6  7  1  0
  7  8  2  0
  2  9  1  0
  9 10  2  0
 10 11  1  0
 11 12  1  0
 12 13  2  0
 12 14  2  0
 12 15  1  0
 15 16  1  0
 16 17  2  0
 17 18  1  0
 17 19  1  0
 19 20  2  0
 20 21  1  0
 21 22  1  0
 22 23  2  0
 22 24  2  0
 22 25  1  0
 25 26  1  0
 26 27  1  0
 27 28  1  0
 28 29  1  0
 21 30  2  0
 30 31  1  0
 11 32  2  0
 32 33  1  0
 33 34  2  0
 34 35  1  0
  8  3  1  0
 34  9  1  0
 30 16  1  0
 29 25  1  0
  4 36  1  0
  5 37  1  0
  6 38  1  0
  7 39  1  0
  8 40  1  0
 10 41  1  0
 18 42  1  0
 19 43  1  0
 20 44  1  0
 26 45  1  0
 26 46  1  0
 27 47  1  0
 27 48  1  0
 28 49  1  0
 28 50  1  0
 29 51  1  0
 29 52  1  0
 32 53  1  0
 33 54  1  0
M  CHG  3  15  -1  31  -1  35  -1
M  END
>  <UniqueID>  (27) 
27

>  <SMILES>  (27) 
O=C(c1ccccc1)c1cc(S(=O)(=O)[N-]c2c(O)ccc(S(=O)(=O)N3CCCC3)c2[O-])ccc1[O-]

>  <Energy>  (27) 
73.924535193833

>  <Genealogy>  (27) 
O=C(c1ccccc1)c1cc(S(=O)(=O)[N-]c2c(O)ccc(S(=O)(=O)N3CCCC3)c2[O-])ccc1[O-] (protonated)
O=C(c1ccccc1)c1cc(S(=O)(=O)[N-]c2c(O)ccc(S(=O)(=O)N3CCCC3)c2[O-])ccc1[O-] (3D coordinates assigned)
O=C(c1ccccc1)c1cc(S(=O)(=O)[N-]c2c(O)ccc(S(=O)(=O)N3CCCC3)c2[O-])ccc1[O-] (nonaromatic ring conformer: 73.924535193833 kcal/mol)

>  <smiles>  (27) 
O=C(c1ccccc1)c1cc(S(=O)(=O)Nc2c(O)ccc(S(=O)(=O)N3CCCC3)c2O)ccc1O

>  <score_type>  (27) 
oracle

>  <origin>  (27) 
adgpu

>  <m_score__min__energy>  (27) 
-15.029999999999999

>  <m_primary>  (27) 
energy

$$$$
27:0
     RDKit          3D

 56 59  0  0  0  0  0  0  0  0999 V2000
   -3.5840   20.5060  -32.3130 O   0  0  0  0  0  0  0  0  0  0  0  0
   -2.9260   21.4370  -31.7800 C   0  0  0  0  0  0  0  0  0  0  0  0
   -1.7200   21.1220  -31.0770 N   0  0  0  0  0  0  0  0  0  0  0  0
   -1.3750   21.5590  -29.7550 C   0  0  0  0  0  0  0  0  0  0  0  0
   -0.6060   22.7190  -29.6070 C   0  0  0  0  0  0  0  0  0  0  0  0
   -0.2800   23.1970  -28.3340 C   0  0  0  0  0  0  0  0  0  0  0  0
   -0.7330   22.5260  -27.1910 C   0  0  0  0  0  0  0  0  0  0  0  0
   -0.3550   23.1730  -25.5970 S   0  0  0  0  0  0  0  0  0  0  0  0
   -0.7000   22.1650  -24.5350 O   0  0  0  0  0  0  0  0  0  0  0  0
    1.1180   23.4670  -25.5240 O   0  0  0  0  0  0  0  0  0  0  0  0
   -1.2620   24.6450  -25.3540 N   0  0  0  0  0  0  0  0  0  0  0  0
   -0.8210   25.3480  -24.1500 C   0  0  0  0  0  0  0  0  0  0  0  0
   -1.1120   26.8220  -24.3780 C   0  0  0  0  0  0  0  0  0  0  0  0
   -1.2770   26.9750  -25.8830 C   0  0  0  0  0  0  0  0  0  0  0  0
   -1.0580   25.5840  -26.4560 C   0  0  0  0  0  0  0  0  0  0  0  0
   -1.5240   21.3780  -27.3340 C   0  0  0  0  0  0  0  0  0  0  0  0
   -1.8490   20.8990  -28.6080 C   0  0  0  0  0  0  0  0  0  0  0  0
   -3.3770   22.7930  -31.8750 N   0  0  0  0  0  0  0  0  0  0  0  0
   -4.5910   23.3250  -31.3270 C   0  0  0  0  0  0  0  0  0  0  0  0
   -5.7880   22.6490  -31.5920 C   0  0  0  0  0  0  0  0  0  0  0  0
   -7.0100   23.1560  -31.1340 C   0  0  0  0  0  0  0  0  0  0  0  0
   -8.5100   22.3200  -31.5230 S   0  0  0  0  0  0  0  0  0  0  0  0
   -9.0010   21.6110  -30.2930 O   0  0  0  0  0  0  0  0  0  0  0  0
   -9.5550   23.3000  -31.9790 O   0  0  0  0  0  0  0  0  0  0  0  0
   -8.2350   21.1570  -32.7820 N   0  0  0  0  0  0  0  0  0  0  0  0
   -7.5090   19.9300  -32.6160 C   0  0  0  0  0  0  0  0  0  0  0  0
   -7.8770   19.0640  -31.5800 C   0  0  0  0  0  0  0  0  0  0  0  0
   -7.1640   17.8840  -31.3530 C   0  0  0  0  0  0  0  0  0  0  0  0
   -6.0780   17.5470  -32.1640 C   0  0  0  0  0  0  0  0  0  0  0  0
   -5.3840   16.3650  -31.8970 O   0  0  0  0  0  0  0  0  0  0  0  0
   -5.7100   18.4010  -33.2220 C   0  0  0  0  0  0  0  0  0  0  0  0
   -4.3550   18.0270  -34.2760 Cl  0  0  0  0  0  0  0  0  0  0  0  0
   -6.4290   19.5830  -33.4470 C   0  0  0  0  0  0  0  0  0  0  0  0
   -7.0330   24.3430  -30.3930 C   0  0  0  0  0  0  0  0  0  0  0  0
   -5.8460   25.0340  -30.1390 C   0  0  0  0  0  0  0  0  0  0  0  0
   -4.6280   24.5440  -30.6200 C   0  0  0  0  0  0  0  0  0  0  0  0
   -3.4760   25.2960  -30.4250 O   0  0  0  0  0  0  0  0  0  0  0  0
   -0.2554   23.2588  -30.4990 H   0  0  0  0  0  0  0  0  0  0  0  0
    0.3345   24.1034  -28.2298 H   0  0  0  0  0  0  0  0  0  0  0  0
   -1.3750   24.9828  -23.2727 H   0  0  0  0  0  0  0  0  0  0  0  0
    0.2494   25.1791  -23.9612 H   0  0  0  0  0  0  0  0  0  0  0  0
   -2.0355   27.1166  -23.8580 H   0  0  0  0  0  0  0  0  0  0  0  0
   -0.3069   27.4623  -23.9882 H   0  0  0  0  0  0  0  0  0  0  0  0
   -2.2875   27.3362  -26.1247 H   0  0  0  0  0  0  0  0  0  0  0  0
   -0.5686   27.7058  -26.3002 H   0  0  0  0  0  0  0  0  0  0  0  0
   -1.7801   25.3869  -27.2620 H   0  0  0  0  0  0  0  0  0  0  0  0
   -0.0492   25.4836  -26.8830 H   0  0  0  0  0  0  0  0  0  0  0  0
   -1.8910   20.8511  -26.4408 H   0  0  0  0  0  0  0  0  0  0  0  0
   -2.4778   20.0025  -28.7123 H   0  0  0  0  0  0  0  0  0  0  0  0
   -5.7682   21.7106  -32.1655 H   0  0  0  0  0  0  0  0  0  0  0  0
   -8.7350   19.3145  -30.9389 H   0  0  0  0  0  0  0  0  0  0  0  0
   -7.4598   17.2163  -30.5304 H   0  0  0  0  0  0  0  0  0  0  0  0
   -4.3890   16.2690  -32.0550 H   0  0  0  0  0  0  0  0  0  0  0  0
   -6.1464   20.2439  -34.2796 H   0  0  0  0  0  0  0  0  0  0  0  0
   -7.9877   24.7325  -30.0099 H   0  0  0  0  0  0  0  0  0  0  0  0
   -5.8695   25.9678  -29.5580 H   0  0  0  0  0  0  0  0  0  0  0  0
  1  2  2  0
  2  3  1  0
  3  4  1  0
  4  5  2  0
  5  6  1  0
  6  7  2  0
  7  8  1  0
  8  9  2  0
  8 10  2  0
  8 11  1  0
 11 12  1  0
 12 13  1  0
 13 14  1  0
 14 15  1  0
  7 16  1  0
 16 17  2  0
  2 18  1  0
 18 19  1  0
 19 20  2  0
 20 21  1  0
 21 22  1  0
 22 23  2  0
 22 24  2  0
 22 25  1  0
 25 26  1  0
 26 27  2  0
 27 28  1  0
 28 29  2  0
 29 30  1  0
 29 31  1  0
 31 32  1  0
 31 33  2  0
 21 34  2  0
 34 35  1  0
 35 36  2  0
 36 37  1  0
 17  4  1  0
 36 19  1  0
 15 11  1  0
 33 26  1  0
  5 38  1  0
  6 39  1  0
 12 40  1  0
 12 41  1  0
 13 42  1  0
 13 43  1  0
 14 44  1  0
 14 45  1  0
 15 46  1  0
 15 47  1  0
 16 48  1  0
 17 49  1  0
 20 50  1  0
 27 51  1  0
 28 52  1  0
 30 53  1  0
 33 54  1  0
 34 55  1  0
 35 56  1  0
M  CHG  4   3  -1  18  -1  25  -1  37  -1
M  END
>  <UniqueID>  (28) 
28

>  <SMILES>  (28) 
O=C([N-]c1ccc(S(=O)(=O)N2CCCC2)cc1)[N-]c1cc(S(=O)(=O)[N-]c2ccc(O)c(Cl)c2)ccc1[O-]

>  <Energy>  (28) 
72.57495091990755

>  <Genealogy>  (28) 
O=C([N-]c1ccc(S(=O)(=O)N2CCCC2)cc1)[N-]c1cc(S(=O)(=O)[N-]c2ccc(O)c(Cl)c2)ccc1[O-] (protonated)
O=C([N-]c1ccc(S(=O)(=O)N2CCCC2)cc1)[N-]c1cc(S(=O)(=O)[N-]c2ccc(O)c(Cl)c2)ccc1[O-] (3D coordinates assigned)
O=C([N-]c1ccc(S(=O)(=O)N2CCCC2)cc1)[N-]c1cc(S(=O)(=O)[N-]c2ccc(O)c(Cl)c2)ccc1[O-] (nonaromatic ring conformer: 72.57495091990755 kcal/mol)

>  <smiles>  (28) 
O=C(Nc1ccc(S(=O)(=O)N2CCCC2)cc1)Nc1cc(S(=O)(=O)Nc2ccc(O)c(Cl)c2)ccc1O

>  <score_type>  (28) 
oracle

>  <origin>  (28) 
adgpu

>  <m_score__min__energy>  (28) 
-16.399999999999999

>  <m_primary>  (28) 
energy

$$$$
28:0
     RDKit          3D

 59 63  0  0  0  0  0  0  0  0999 V2000
   -5.9340   24.2170  -32.3750 O   0  0  0  0  0  0  0  0  0  0  0  0
   -5.3930   23.3190  -31.6780 C   0  0  0  0  0  0  0  0  0  0  0  0
   -5.8090   21.9590  -31.8520 N   0  0  0  0  0  0  0  0  0  0  0  0
   -5.0290   20.9300  -32.4770 C   0  0  0  0  0  0  0  0  0  0  0  0
   -3.6830   21.1950  -32.7570 C   0  0  0  0  0  0  0  0  0  0  0  0
   -2.8650   20.2130  -33.3320 C   0  0  0  0  0  0  0  0  0  0  0  0
   -1.1550   20.5460  -33.6400 S   0  0  0  0  0  0  0  0  0  0  0  0
   -1.0190   21.9290  -34.2150 O   0  0  0  0  0  0  0  0  0  0  0  0
   -0.6440   19.5670  -34.6600 O   0  0  0  0  0  0  0  0  0  0  0  0
   -0.1730   20.4450  -32.1950 N   0  0  0  0  0  0  0  0  0  0  0  0
   -0.5470   21.4400  -31.1820 C   0  0  0  0  0  0  0  0  0  0  0  0
   -0.5240   20.7480  -29.8210 C   0  0  0  0  0  0  0  0  0  0  0  0
    0.0060   19.3560  -30.0880 C   0  0  0  0  0  0  0  0  0  0  0  0
   -0.2720   19.1330  -31.5580 C   0  0  0  0  0  0  0  0  0  0  0  0
   -3.4140   18.9730  -33.6740 C   0  0  0  0  0  0  0  0  0  0  0  0
   -4.7580   18.7030  -33.4110 C   0  0  0  0  0  0  0  0  0  0  0  0
   -5.5790   19.6710  -32.8140 C   0  0  0  0  0  0  0  0  0  0  0  0
   -6.9730   19.3860  -32.6140 N   0  0  0  0  0  0  0  0  0  0  0  0
   -7.4460   18.2890  -31.7890 C   0  0  0  0  0  0  0  0  0  0  0  0
   -8.9620   18.3260  -31.9080 C   0  0  0  0  0  0  0  0  0  0  0  0
   -9.3090   19.7350  -32.3850 C   0  0  0  0  0  0  0  0  0  0  0  0
   -8.0360   20.2980  -33.0040 C   0  0  0  0  0  0  0  0  0  0  0  0
   -4.3260   23.6890  -30.7340 C   0  0  0  0  0  0  0  0  0  0  0  0
   -3.6630   22.8430  -29.8720 C   0  0  0  0  0  0  0  0  0  0  0  0
   -2.7430   23.6610  -29.2450 C   0  0  0  0  0  0  0  0  0  0  0  0
   -1.7640   23.2580  -28.2120 C   0  0  0  0  0  0  0  0  0  0  0  0
   -2.1110   22.2530  -27.2920 C   0  0  0  0  0  0  0  0  0  0  0  0
   -1.2010   21.8370  -26.3180 C   0  0  0  0  0  0  0  0  0  0  0  0
    0.0640   22.4240  -26.2450 C   0  0  0  0  0  0  0  0  0  0  0  0
    0.4160   23.4380  -27.1390 C   0  0  0  0  0  0  0  0  0  0  0  0
   -0.4940   23.8700  -28.1150 C   0  0  0  0  0  0  0  0  0  0  0  0
   -0.1470   24.9200  -28.9660 O   0  0  0  0  0  0  0  0  0  0  0  0
   -2.8690   24.9200  -29.7100 N   0  0  0  0  0  0  0  0  0  0  0  0
   -3.8240   24.9340  -30.6270 N   0  0  0  0  0  0  0  0  0  0  0  0
   -3.2631   22.1845  -32.5232 H   0  0  0  0  0  0  0  0  0  0  0  0
    0.1719   22.2725  -31.1912 H   0  0  0  0  0  0  0  0  0  0  0  0
   -1.5479   21.8454  -31.3912 H   0  0  0  0  0  0  0  0  0  0  0  0
    0.1386   21.2857  -29.1268 H   0  0  0  0  0  0  0  0  0  0  0  0
   -1.5209   20.7245  -29.3567 H   0  0  0  0  0  0  0  0  0  0  0  0
    1.0852   19.3025  -29.8819 H   0  0  0  0  0  0  0  0  0  0  0  0
   -0.4643   18.5946  -29.4484 H   0  0  0  0  0  0  0  0  0  0  0  0
    0.4708   18.4440  -31.9864 H   0  0  0  0  0  0  0  0  0  0  0  0
   -1.2642   18.6849  -31.7150 H   0  0  0  0  0  0  0  0  0  0  0  0
   -2.7845   18.2079  -34.1519 H   0  0  0  0  0  0  0  0  0  0  0  0
   -5.1776   17.7210  -33.6746 H   0  0  0  0  0  0  0  0  0  0  0  0
   -7.0532   17.3306  -32.1593 H   0  0  0  0  0  0  0  0  0  0  0  0
   -7.1129   18.3860  -30.7452 H   0  0  0  0  0  0  0  0  0  0  0  0
   -9.3071   17.5789  -32.6379 H   0  0  0  0  0  0  0  0  0  0  0  0
   -9.4487   18.0922  -30.9496 H   0  0  0  0  0  0  0  0  0  0  0  0
  -10.1132   19.6969  -33.1345 H   0  0  0  0  0  0  0  0  0  0  0  0
   -9.6640   20.3637  -31.5551 H   0  0  0  0  0  0  0  0  0  0  0  0
   -8.1264   20.3358  -34.0996 H   0  0  0  0  0  0  0  0  0  0  0  0
   -7.8370   21.3241  -32.6613 H   0  0  0  0  0  0  0  0  0  0  0  0
   -3.8279   21.7663  -29.7186 H   0  0  0  0  0  0  0  0  0  0  0  0
   -3.1079   21.7905  -27.3399 H   0  0  0  0  0  0  0  0  0  0  0  0
   -1.4810   21.0457  -25.6071 H   0  0  0  0  0  0  0  0  0  0  0  0
    0.7832   22.0879  -25.4836 H   0  0  0  0  0  0  0  0  0  0  0  0
    1.4123   23.9002  -27.0772 H   0  0  0  0  0  0  0  0  0  0  0  0
   -0.7180   25.1720  -29.7640 H   0  0  0  0  0  0  0  0  0  0  0  0
  1  2  2  0
  2  3  1  0
  3  4  1  0
  4  5  2  0
  5  6  1  0
  6  7  1  0
  7  8  2  0
  7  9  2  0
  7 10  1  0
 10 11  1  0
 11 12  1  0
 12 13  1  0
 13 14  1  0
  6 15  2  0
 15 16  1  0
 16 17  2  0
 17 18  1  0
 18 19  1  0
 19 20  1  0
 20 21  1  0
 21 22  1  0
  2 23  1  0
 23 24  1  0
 24 25  2  0
 25 26  1  0
 26 27  2  0
 27 28  1  0
 28 29  2  0
 29 30  1  0
 30 31  2  0
 31 32  1  0
 25 33  1  0
 33 34  1  0
 17  4  1  0
 22 18  1  0
 34 23  2  0
 14 10  1  0
 31 26  1  0
  5 35  1  0
 11 36  1  0
 11 37  1  0
 12 38  1  0
 12 39  1  0
 13 40  1  0
 13 41  1  0
 14 42  1  0
 14 43  1  0
 15 44  1  0
 16 45  1  0
 19 46  1  0
 19 47  1  0
 20 48  1  0
 20 49  1  0
 21 50  1  0
 21 51  1  0
 22 52  1  0
 22 53  1  0
 24 54  1  0
 27 55  1  0
 28 56  1  0
 29 57  1  0
 30 58  1  0
 32 59  1  0
M  CHG  2   3  -1  33  -1
M  END
>  <UniqueID>  (29) 
29

>  <SMILES>  (29) 
O=C([N-]c1cc(S(=O)(=O)N2CCCC2)ccc1N1CCCC1)c1cc(-c2ccccc2O)[n-]n1

>  <Energy>  (29) 
105.60577687965178

>  <Genealogy>  (29) 
O=C([N-]c1cc(S(=O)(=O)N2CCCC2)ccc1N1CCCC1)c1cc(-c2ccccc2O)[n-]n1 (protonated)
O=C([N-]c1cc(S(=O)(=O)N2CCCC2)ccc1N1CCCC1)c1cc(-c2ccccc2O)[n-]n1 (3D coordinates assigned)
O=C([N-]c1cc(S(=O)(=O)N2CCCC2)ccc1N1CCCC1)c1cc(-c2ccccc2O)[n-]n1 (nonaromatic ring conformer: 105.60577687965178 kcal/mol)

>  <smiles>  (29) 
O=C(Nc1cc(S(=O)(=O)N2CCCC2)ccc1N1CCCC1)c1cc(-c2ccccc2O)[nH]n1

>  <score_type>  (29) 
oracle

>  <origin>  (29) 
adgpu

>  <m_score__min__energy>  (29) 
-13.050000000000001

>  <m_primary>  (29) 
energy

$$$$
29:0
     RDKit          3D

 58 62  0  0  0  0  0  0  0  0999 V2000
   -4.1160   25.6760  -30.8870 O   0  0  0  0  0  0  0  0  0  0  0  0
   -4.1630   24.5520  -30.3220 C   0  0  0  0  0  0  0  0  0  0  0  0
   -3.1790   24.2450  -29.3250 N   0  0  0  0  0  0  0  0  0  0  0  0
   -3.4420   23.6260  -28.0300 C   0  0  0  0  0  0  0  0  0  0  0  0
   -2.3860   24.0570  -27.0490 C   0  0  0  0  0  0  0  0  0  0  0  0
   -2.4350   25.3270  -26.5690 N   0  0  0  0  0  0  0  0  0  0  0  0
   -1.5040   25.7980  -25.7070 C   0  0  0  0  0  0  0  0  0  0  0  0
   -1.5940   27.1110  -25.2290 C   0  0  0  0  0  0  0  0  0  0  0  0
   -0.6310   27.5980  -24.3390 C   0  0  0  0  0  0  0  0  0  0  0  0
    0.4230   26.7790  -23.9280 C   0  0  0  0  0  0  0  0  0  0  0  0
    0.5200   25.4660  -24.4010 C   0  0  0  0  0  0  0  0  0  0  0  0
   -0.4450   24.9660  -25.2960 C   0  0  0  0  0  0  0  0  0  0  0  0
   -0.3960   23.6570  -25.8030 C   0  0  0  0  0  0  0  0  0  0  0  0
    0.5420   22.8830  -25.4560 O   0  0  0  0  0  0  0  0  0  0  0  0
   -1.3630   23.2180  -26.6700 N   0  0  0  0  0  0  0  0  0  0  0  0
   -1.2920   21.8720  -27.1810 C   0  0  0  0  0  0  0  0  0  0  0  0
   -0.8770   21.6410  -28.5010 C   0  0  0  0  0  0  0  0  0  0  0  0
   -0.8380   20.3370  -29.0050 C   0  0  0  0  0  0  0  0  0  0  0  0
   -1.2070   19.2610  -28.1930 C   0  0  0  0  0  0  0  0  0  0  0  0
   -1.6140   19.4870  -26.8750 C   0  0  0  0  0  0  0  0  0  0  0  0
   -1.6520   20.7880  -26.3670 C   0  0  0  0  0  0  0  0  0  0  0  0
   -5.1920   23.5800  -30.7450 C   0  0  0  0  0  0  0  0  0  0  0  0
   -6.4870   24.0020  -31.0850 C   0  0  0  0  0  0  0  0  0  0  0  0
   -7.4540   23.0700  -31.4680 C   0  0  0  0  0  0  0  0  0  0  0  0
   -7.1380   21.7070  -31.5230 C   0  0  0  0  0  0  0  0  0  0  0  0
   -8.3610   20.5430  -32.0220 S   0  0  0  0  0  0  0  0  0  0  0  0
   -9.5060   21.2780  -32.6620 O   0  0  0  0  0  0  0  0  0  0  0  0
   -8.8800   19.8000  -30.8200 O   0  0  0  0  0  0  0  0  0  0  0  0
   -7.6620   19.4340  -33.1740 N   0  0  0  0  0  0  0  0  0  0  0  0
   -6.4960   20.0190  -33.8360 C   0  0  0  0  0  0  0  0  0  0  0  0
   -5.5980   18.8600  -34.2380 C   0  0  0  0  0  0  0  0  0  0  0  0
   -6.0500   17.6830  -33.3890 C   0  0  0  0  0  0  0  0  0  0  0  0
   -7.1710   18.2240  -32.5160 C   0  0  0  0  0  0  0  0  0  0  0  0
   -5.8380   21.2850  -31.2180 C   0  0  0  0  0  0  0  0  0  0  0  0
   -4.8680   22.2170  -30.8370 C   0  0  0  0  0  0  0  0  0  0  0  0
   -4.4314   23.9406  -27.6666 H   0  0  0  0  0  0  0  0  0  0  0  0
   -3.4230   22.5311  -28.1344 H   0  0  0  0  0  0  0  0  0  0  0  0
   -2.4215   27.7592  -25.5532 H   0  0  0  0  0  0  0  0  0  0  0  0
   -0.7040   28.6287  -23.9618 H   0  0  0  0  0  0  0  0  0  0  0  0
    1.1793   27.1676  -23.2301 H   0  0  0  0  0  0  0  0  0  0  0  0
    1.3508   24.8238  -24.0734 H   0  0  0  0  0  0  0  0  0  0  0  0
   -0.5820   22.4862  -29.1402 H   0  0  0  0  0  0  0  0  0  0  0  0
   -0.5165   20.1581  -30.0416 H   0  0  0  0  0  0  0  0  0  0  0  0
   -1.1771   18.2360  -28.5912 H   0  0  0  0  0  0  0  0  0  0  0  0
   -1.9048   18.6395  -26.2369 H   0  0  0  0  0  0  0  0  0  0  0  0
   -1.9648   20.9624  -25.3269 H   0  0  0  0  0  0  0  0  0  0  0  0
   -6.7412   25.0716  -31.0496 H   0  0  0  0  0  0  0  0  0  0  0  0
   -8.4681   23.4081  -31.7275 H   0  0  0  0  0  0  0  0  0  0  0  0
   -6.8088   20.5835  -34.7268 H   0  0  0  0  0  0  0  0  0  0  0  0
   -5.9689   20.7162  -33.1682 H   0  0  0  0  0  0  0  0  0  0  0  0
   -5.7199   18.6321  -35.3072 H   0  0  0  0  0  0  0  0  0  0  0  0
   -4.5348   19.0933  -34.0794 H   0  0  0  0  0  0  0  0  0  0  0  0
   -6.4188   16.8667  -34.0275 H   0  0  0  0  0  0  0  0  0  0  0  0
   -5.2258   17.2704  -32.7886 H   0  0  0  0  0  0  0  0  0  0  0  0
   -7.9791   17.4824  -32.4321 H   0  0  0  0  0  0  0  0  0  0  0  0
   -6.8136   18.4414  -31.4987 H   0  0  0  0  0  0  0  0  0  0  0  0
   -5.5794   20.2175  -31.2783 H   0  0  0  0  0  0  0  0  0  0  0  0
   -3.8460   21.8807  -30.6082 H   0  0  0  0  0  0  0  0  0  0  0  0
  1  2  2  0
  2  3  1  0
  3  4  1  0
  4  5  1  0
  5  6  2  0
  6  7  1  0
  7  8  2  0
  8  9  1  0
  9 10  2  0
 10 11  1  0
 11 12  2  0
 12 13  1  0
 13 14  2  0
 13 15  1  0
 15 16  1  0
 16 17  2  0
 17 18  1  0
 18 19  2  0
 19 20  1  0
 20 21  2  0
  2 22  1  0
 22 23  2  0
 23 24  1  0
 24 25  2  0
 25 26  1  0
 26 27  2  0
 26 28  2  0
 26 29  1  0
 29 30  1  0
 30 31  1  0
 31 32  1  0
 32 33  1  0
 25 34  1  0
 34 35  2  0
 15  5  1  0
 21 16  1  0
 35 22  1  0
 12  7  1  0
 33 29  1  0
  4 36  1  0
  4 37  1  0
  8 38  1  0
  9 39  1  0
 10 40  1  0
 11 41  1  0
 17 42  1  0
 18 43  1  0
 19 44  1  0
 20 45  1  0
 21 46  1  0
 23 47  1  0
 24 48  1  0
 30 49  1  0
 30 50  1  0
 31 51  1  0
 31 52  1  0
 32 53  1  0
 32 54  1  0
 33 55  1  0
 33 56  1  0
 34 57  1  0
 35 58  1  0
M  CHG  1   3  -1
M  END
>  <UniqueID>  (30) 
30

>  <SMILES>  (30) 
O=C([N-]Cc1nc2ccccc2c(=O)n1-c1ccccc1)c1ccc(S(=O)(=O)N2CCCC2)cc1

>  <Energy>  (30) 
80.00611977518686

>  <Genealogy>  (30) 
O=C([N-]Cc1nc2ccccc2c(=O)n1-c1ccccc1)c1ccc(S(=O)(=O)N2CCCC2)cc1 (protonated)
O=C([N-]Cc1nc2ccccc2c(=O)n1-c1ccccc1)c1ccc(S(=O)(=O)N2CCCC2)cc1 (3D coordinates assigned)
O=C([N-]Cc1nc2ccccc2c(=O)n1-c1ccccc1)c1ccc(S(=O)(=O)N2CCCC2)cc1 (nonaromatic ring conformer: 80.00611977518686 kcal/mol)

>  <smiles>  (30) 
O=C(NCc1nc2ccccc2c(=O)n1-c1ccccc1)c1ccc(S(=O)(=O)N2CCCC2)cc1

>  <score_type>  (30) 
oracle

>  <origin>  (30) 
adgpu

>  <m_score__min__energy>  (30) 
-12.93

>  <m_primary>  (30) 
energy

$$$$
30:0
     RDKit          3D

 48 50  0  0  0  0  0  0  0  0999 V2000
   -0.6030   24.4610  -27.4950 C   0  0  0  0  0  0  0  0  0  0  0  0
   -0.3980   23.1920  -28.1070 O   0  0  0  0  0  0  0  0  0  0  0  0
   -1.1690   22.0470  -27.8480 C   0  0  0  0  0  0  0  0  0  0  0  0
   -1.0140   21.3030  -26.6610 C   0  0  0  0  0  0  0  0  0  0  0  0
   -1.8070   20.1770  -26.4240 C   0  0  0  0  0  0  0  0  0  0  0  0
   -2.7610   19.7840  -27.3610 C   0  0  0  0  0  0  0  0  0  0  0  0
   -2.9240   20.5100  -28.5410 C   0  0  0  0  0  0  0  0  0  0  0  0
   -2.1250   21.6360  -28.8000 C   0  0  0  0  0  0  0  0  0  0  0  0
   -2.3440   22.5400  -30.3040 S   0  0  0  0  0  0  0  0  0  0  0  0
   -1.2710   22.1840  -31.2920 O   0  0  0  0  0  0  0  0  0  0  0  0
   -2.2220   24.0070  -29.9920 O   0  0  0  0  0  0  0  0  0  0  0  0
   -3.9360   22.2110  -31.0210 C   0  0  0  0  0  0  0  0  0  0  0  0
   -4.0890   21.0170  -31.7490 C   0  0  0  0  0  0  0  0  0  0  0  0
   -5.3090   20.6860  -32.3580 C   0  0  0  0  0  0  0  0  0  0  0  0
   -5.4600   19.4260  -33.1270 C   0  0  0  0  0  0  0  0  0  0  0  0
   -5.9460   19.4630  -34.2910 O   0  0  0  0  0  0  0  0  0  0  0  0
   -5.1040   18.1610  -32.5450 N   0  0  0  0  0  0  0  0  0  0  0  0
   -4.8200   16.9800  -33.3150 C   0  0  0  0  0  0  0  0  0  0  0  0
   -3.6040   16.8840  -34.0040 C   0  0  0  0  0  0  0  0  0  0  0  0
   -3.3140   15.7560  -34.7730 C   0  0  0  0  0  0  0  0  0  0  0  0
   -4.2400   14.7140  -34.8780 C   0  0  0  0  0  0  0  0  0  0  0  0
   -3.9140   13.6050  -35.6510 O   0  0  0  0  0  0  0  0  0  0  0  0
   -5.4800   14.8010  -34.2090 C   0  0  0  0  0  0  0  0  0  0  0  0
   -6.5020   13.7360  -34.2980 C   0  0  0  0  0  0  0  0  0  0  0  0
   -7.6170   13.9340  -34.8490 O   0  0  0  0  0  0  0  0  0  0  0  0
   -5.7610   15.9410  -33.4370 C   0  0  0  0  0  0  0  0  0  0  0  0
   -6.3830   21.5780  -32.2500 C   0  0  0  0  0  0  0  0  0  0  0  0
   -6.2460   22.7700  -31.5410 C   0  0  0  0  0  0  0  0  0  0  0  0
   -5.0300   23.1100  -30.9270 C   0  0  0  0  0  0  0  0  0  0  0  0
   -4.9490   24.6500  -30.0500 S   0  0  0  0  0  0  0  0  0  0  0  0
   -6.3050   25.2920  -29.9770 O   0  0  0  0  0  0  0  0  0  0  0  0
   -4.4680   24.4180  -28.6450 O   0  0  0  0  0  0  0  0  0  0  0  0
   -3.8700   25.6820  -30.8190 O   0  0  0  0  0  0  0  0  0  0  0  0
   -0.5847   24.3477  -26.4010 H   0  0  0  0  0  0  0  0  0  0  0  0
    0.1953   25.1511  -27.8056 H   0  0  0  0  0  0  0  0  0  0  0  0
   -1.5780   24.8646  -27.8056 H   0  0  0  0  0  0  0  0  0  0  0  0
   -0.2645   21.6104  -25.9169 H   0  0  0  0  0  0  0  0  0  0  0  0
   -1.6781   19.5999  -25.4964 H   0  0  0  0  0  0  0  0  0  0  0  0
   -3.3866   18.8997  -27.1697 H   0  0  0  0  0  0  0  0  0  0  0  0
   -3.6833   20.1987  -29.2735 H   0  0  0  0  0  0  0  0  0  0  0  0
   -3.2355   20.3294  -31.8427 H   0  0  0  0  0  0  0  0  0  0  0  0
   -5.1650   18.0650  -31.5060 H   0  0  0  0  0  0  0  0  0  0  0  0
   -2.8728   17.7032  -33.9385 H   0  0  0  0  0  0  0  0  0  0  0  0
   -2.3508   15.6864  -35.2997 H   0  0  0  0  0  0  0  0  0  0  0  0
   -6.2828   12.7457  -33.8722 H   0  0  0  0  0  0  0  0  0  0  0  0
   -6.7292   16.0222  -32.9213 H   0  0  0  0  0  0  0  0  0  0  0  0
   -7.3432   21.3358  -32.7289 H   0  0  0  0  0  0  0  0  0  0  0  0
   -7.1033   23.4546  -31.4613 H   0  0  0  0  0  0  0  0  0  0  0  0
  1  2  1  0
  2  3  1  0
  3  4  2  0
  4  5  1  0
  5  6  2  0
  6  7  1  0
  7  8  2  0
  8  9  1  0
  9 10  2  0
  9 11  2  0
  9 12  1  0
 12 13  2  0
 13 14  1  0
 14 15  1  0
 15 16  2  0
 15 17  1  0
 17 18  1  0
 18 19  2  0
 19 20  1  0
 20 21  2  0
 21 22  1  0
 21 23  1  0
 23 24  1  0
 24 25  2  0
 23 26  2  0
 14 27  2  0
 27 28  1  0
 28 29  2  0
 29 30  1  0
 30 31  2  0
 30 32  2  0
 30 33  1  0
  8  3  1  0
 29 12  1  0
 26 18  1  0
  1 34  1  0
  1 35  1  0
  1 36  1  0
  4 37  1  0
  5 38  1  0
  6 39  1  0
  7 40  1  0
 13 41  1  0
 17 42  1  0
 19 43  1  0
 20 44  1  0
 24 45  1  0
 26 46  1  0
 27 47  1  0
 28 48  1  0
M  CHG  2  22  -1  33  -1
M  END
>  <UniqueID>  (31) 
31

>  <SMILES>  (31) 
COc1ccccc1S(=O)(=O)c1cc(C(=O)Nc2ccc([O-])c(C=O)c2)ccc1S(=O)(=O)[O-]

>  <Energy>  (31) 
64.73597994122117

>  <Genealogy>  (31) 
COc1ccccc1S(=O)(=O)c1cc(C(=O)Nc2ccc([O-])c(C=O)c2)ccc1S(=O)(=O)[O-] (protonated)
COc1ccccc1S(=O)(=O)c1cc(C(=O)Nc2ccc([O-])c(C=O)c2)ccc1S(=O)(=O)[O-] (3D coordinates assigned)
COc1ccccc1S(=O)(=O)c1cc(C(=O)Nc2ccc([O-])c(C=O)c2)ccc1S(=O)(=O)[O-] (optimized conformer: 64.73597994122117 kcal/mol)

>  <smiles>  (31) 
COc1ccccc1S(=O)(=O)c1cc(C(=O)Nc2ccc(O)c(C=O)c2)ccc1S(=O)(=O)[O-]

>  <score_type>  (31) 
oracle

>  <origin>  (31) 
adgpu

>  <m_score__min__energy>  (31) 
-11.68

>  <m_primary>  (31) 
energy

$$$$
31:0
     RDKit          3D

 75 79  0  0  0  0  0  0  0  0999 V2000
    2.1730   15.4740  -26.3730 C   0  0  0  0  0  0  0  0  0  0  0  0
    1.4150   15.1140  -27.6460 C   0  0  0  0  0  0  0  0  0  0  0  0
    1.5660   16.1990  -28.6450 N   0  0  0  0  0  0  0  0  0  0  0  0
    0.8320   15.8840  -29.8890 C   0  0  0  0  0  0  0  0  0  0  0  0
    1.7690   15.8000  -31.0930 C   0  0  0  0  0  0  0  0  0  0  0  0
    1.0330   17.7270  -27.9670 S   0  0  0  0  0  0  0  0  0  0  0  0
    2.1680   18.3900  -27.2360 O   0  0  0  0  0  0  0  0  0  0  0  0
   -0.0980   17.5080  -27.0010 O   0  0  0  0  0  0  0  0  0  0  0  0
    0.4410   18.7920  -29.2400 C   0  0  0  0  0  0  0  0  0  0  0  0
   -0.8720   19.2740  -29.1840 C   0  0  0  0  0  0  0  0  0  0  0  0
   -1.3580   20.1160  -30.1880 C   0  0  0  0  0  0  0  0  0  0  0  0
   -0.5220   20.5070  -31.2510 C   0  0  0  0  0  0  0  0  0  0  0  0
   -0.9550   21.3950  -32.2950 N   0  0  0  0  0  0  0  0  0  0  0  0
   -1.9670   21.1770  -33.2890 C   0  0  0  0  0  0  0  0  0  0  0  0
   -1.6430   21.0450  -34.4960 O   0  0  0  0  0  0  0  0  0  0  0  0
   -3.3960   21.1140  -32.8790 C   0  0  0  0  0  0  0  0  0  0  0  0
   -3.9800   22.2470  -32.2680 C   0  0  0  0  0  0  0  0  0  0  0  0
   -5.3360   22.2570  -31.8950 C   0  0  0  0  0  0  0  0  0  0  0  0
   -6.0040   23.6360  -31.0270 S   0  0  0  0  0  0  0  0  0  0  0  0
   -7.5040   23.6000  -31.1060 O   0  0  0  0  0  0  0  0  0  0  0  0
   -5.5170   24.9240  -31.6300 O   0  0  0  0  0  0  0  0  0  0  0  0
   -5.5150   23.5410  -29.3720 N   0  0  0  0  0  0  0  0  0  0  0  0
   -4.1480   23.3150  -29.0410 C   0  0  0  0  0  0  0  0  0  0  0  0
   -3.8070   22.2830  -28.1560 C   0  0  0  0  0  0  0  0  0  0  0  0
   -2.4660   22.0750  -27.8070 C   0  0  0  0  0  0  0  0  0  0  0  0
   -1.4680   22.8900  -28.3440 C   0  0  0  0  0  0  0  0  0  0  0  0
   -1.8030   23.9180  -29.2350 C   0  0  0  0  0  0  0  0  0  0  0  0
   -3.1440   24.1340  -29.5820 C   0  0  0  0  0  0  0  0  0  0  0  0
   -3.4880   25.1620  -30.4600 O   0  0  0  0  0  0  0  0  0  0  0  0
   -0.0440   22.5840  -27.9710 C   0  0  0  0  0  0  0  0  0  0  0  0
    0.0940   22.3200  -26.5180 N   0  0  0  0  0  0  0  0  0  0  0  0
    0.2620   23.5770  -25.7720 C   0  0  0  0  0  0  0  0  0  0  0  0
   -0.9720   21.4650  -25.9120 C   0  0  0  0  0  0  0  0  0  0  0  0
   -2.0420   20.9610  -26.9000 C   0  0  0  0  0  0  0  0  0  0  0  0
   -6.1350   21.1330  -32.1320 C   0  0  0  0  0  0  0  0  0  0  0  0
   -5.5630   20.0110  -32.7240 C   0  0  0  0  0  0  0  0  0  0  0  0
   -4.2290   19.9830  -33.0750 C   0  0  0  0  0  0  0  0  0  0  0  0
   -3.9490   18.6370  -33.5650 C   0  0  0  0  0  0  0  0  0  0  0  0
   -2.8140   18.1800  -33.8600 O   0  0  0  0  0  0  0  0  0  0  0  0
   -5.1880   17.8060  -33.5910 C   0  0  0  0  0  0  0  0  0  0  0  0
   -6.2710   18.7230  -32.9950 C   0  0  0  0  0  0  0  0  0  0  0  0
    0.7740   19.9840  -31.3230 C   0  0  0  0  0  0  0  0  0  0  0  0
    1.2590   19.1390  -30.3220 C   0  0  0  0  0  0  0  0  0  0  0  0
    1.5731   15.1891  -25.4961 H   0  0  0  0  0  0  0  0  0  0  0  0
    3.1317   14.9350  -26.3523 H   0  0  0  0  0  0  0  0  0  0  0  0
    2.3611   16.5576  -26.3523 H   0  0  0  0  0  0  0  0  0  0  0  0
    1.8194   14.1783  -28.0594 H   0  0  0  0  0  0  0  0  0  0  0  0
    0.3486   14.9846  -27.4091 H   0  0  0  0  0  0  0  0  0  0  0  0
    0.3216   14.9173  -29.7665 H   0  0  0  0  0  0  0  0  0  0  0  0
    0.1084   16.6916  -30.0737 H   0  0  0  0  0  0  0  0  0  0  0  0
    2.8078   15.7069  -30.7434 H   0  0  0  0  0  0  0  0  0  0  0  0
    1.5067   14.9218  -31.7012 H   0  0  0  0  0  0  0  0  0  0  0  0
    1.6671   16.7109  -31.7012 H   0  0  0  0  0  0  0  0  0  0  0  0
   -1.5245   18.9886  -28.3456 H   0  0  0  0  0  0  0  0  0  0  0  0
   -2.3972   20.4744  -30.1475 H   0  0  0  0  0  0  0  0  0  0  0  0
   -3.3622   23.1377  -32.0807 H   0  0  0  0  0  0  0  0  0  0  0  0
   -4.5917   21.6368  -27.7357 H   0  0  0  0  0  0  0  0  0  0  0  0
   -1.0145   24.5551  -29.6619 H   0  0  0  0  0  0  0  0  0  0  0  0
   -3.6340   24.9900  -31.4470 H   0  0  0  0  0  0  0  0  0  0  0  0
    0.2883   21.6959  -28.5285 H   0  0  0  0  0  0  0  0  0  0  0  0
    0.5736   23.4588  -28.2224 H   0  0  0  0  0  0  0  0  0  0  0  0
    0.2342   23.3691  -24.6922 H   0  0  0  0  0  0  0  0  0  0  0  0
    1.2289   24.0319  -26.0330 H   0  0  0  0  0  0  0  0  0  0  0  0
   -0.5515   24.2698  -26.0330 H   0  0  0  0  0  0  0  0  0  0  0  0
   -0.4884   20.5884  -25.4561 H   0  0  0  0  0  0  0  0  0  0  0  0
   -1.4994   22.1000  -25.1849 H   0  0  0  0  0  0  0  0  0  0  0  0
   -1.6247   20.1401  -27.5016 H   0  0  0  0  0  0  0  0  0  0  0  0
   -2.9152   20.6026  -26.3352 H   0  0  0  0  0  0  0  0  0  0  0  0
   -7.1994   21.1362  -31.8545 H   0  0  0  0  0  0  0  0  0  0  0  0
   -5.4437   17.5192  -34.6217 H   0  0  0  0  0  0  0  0  0  0  0  0
   -5.0766   16.8663  -33.0302 H   0  0  0  0  0  0  0  0  0  0  0  0
   -7.0910   18.8736  -33.7126 H   0  0  0  0  0  0  0  0  0  0  0  0
   -6.7270   18.2976  -32.0888 H   0  0  0  0  0  0  0  0  0  0  0  0
    1.4178   20.2411  -32.1771 H   0  0  0  0  0  0  0  0  0  0  0  0
    2.2845   18.7459  -30.3839 H   0  0  0  0  0  0  0  0  0  0  0  0
  1  2  1  0
  2  3  1  0
  3  4  1  0
  4  5  1  0
  3  6  1  0
  6  7  2  0
  6  8  2  0
  6  9  1  0
  9 10  2  0
 10 11  1  0
 11 12  2  0
 12 13  1  0
 13 14  1  0
 14 15  2  0
 14 16  1  0
 16 17  2  0
 17 18  1  0
 18 19  1  0
 19 20  2  0
 19 21  2  0
 19 22  1  0
 22 23  1  0
 23 24  2  0
 24 25  1  0
 25 26  2  0
 26 27  1  0
 27 28  2  0
 28 29  1  0
 26 30  1  0
 30 31  1  0
 31 32  1  0
 31 33  1  0
 33 34  1  0
 18 35  2  0
 35 36  1  0
 36 37  2  0
 37 38  1  0
 38 39  2  0
 38 40  1  0
 40 41  1  0
 12 42  1  0
 42 43  2  0
 43  9  1  0
 37 16  1  0
 28 23  1  0
 41 36  1  0
 34 25  1  0
  1 44  1  0
  1 45  1  0
  1 46  1  0
  2 47  1  0
  2 48  1  0
  4 49  1  0
  4 50  1  0
  5 51  1  0
  5 52  1  0
  5 53  1  0
 10 54  1  0
 11 55  1  0
 17 56  1  0
 24 57  1  0
 27 58  1  0
 29 59  1  0
 30 60  1  0
 30 61  1  0
 32 62  1  0
 32 63  1  0
 32 64  1  0
 33 65  1  0
 33 66  1  0
 34 67  1  0
 34 68  1  0
 35 69  1  0
 40 70  1  0
 40 71  1  0
 41 72  1  0
 41 73  1  0
 42 74  1  0
 43 75  1  0
M  CHG  2  13  -1  22  -1
M  END
>  <UniqueID>  (32) 
32

>  <SMILES>  (32) 
CCN(CC)S(=O)(=O)c1ccc([N-]C(=O)c2cc(S(=O)(=O)[N-]c3cc4c(cc3O)CN(C)CC4)cc3c2C(=O)CC3)cc1

>  <Energy>  (32) 
117.28280295476908

>  <Genealogy>  (32) 
CCN(CC)S(=O)(=O)c1ccc([N-]C(=O)c2cc(S(=O)(=O)[N-]c3cc4c(cc3O)CN(C)CC4)cc3c2C(=O)CC3)cc1 (protonated)
CCN(CC)S(=O)(=O)c1ccc([N-]C(=O)c2cc(S(=O)(=O)[N-]c3cc4c(cc3O)CN(C)CC4)cc3c2C(=O)CC3)cc1 (3D coordinates assigned)
CCN(CC)S(=O)(=O)c1ccc([N-]C(=O)c2cc(S(=O)(=O)[N-]c3cc4c(cc3O)CN(C)CC4)cc3c2C(=O)CC3)cc1 (nonaromatic ring conformer: 117.28280295476908 kcal/mol)

>  <smiles>  (32) 
CCN(CC)S(=O)(=O)c1ccc(NC(=O)c2cc(S(=O)(=O)Nc3cc4c(cc3O)CN(C)CC4)cc3c2C(=O)CC3)cc1

>  <score_type>  (32) 
oracle

>  <origin>  (32) 
adgpu

>  <m_score__min__energy>  (32) 
-13.25

>  <m_primary>  (32) 
energy

$$$$
32:0
     RDKit          3D

 26 27  0  0  0  0  0  0  0  0999 V2000
   -1.2540   24.5990  -28.6630 H   0  0  0  0  0  0  0  0  0  0  0  0
   -1.9190   25.1040  -29.2920 N   0  0  0  0  0  0  0  0  0  0  0  0
   -3.0480   24.5890  -29.6650 C   0  0  0  0  0  0  0  0  0  0  0  0
   -3.8670   25.2990  -30.4870 N   0  0  0  0  0  0  0  0  0  0  0  0
   -5.0620   24.8080  -30.9090 C   0  0  0  0  0  0  0  0  0  0  0  0
   -5.7000   25.4116  -31.5713 H   0  0  0  0  0  0  0  0  0  0  0  0
   -5.4830   23.5360  -30.5030 C   0  0  0  0  0  0  0  0  0  0  0  0
   -7.0260   22.8940  -31.0550 S   0  0  0  0  0  0  0  0  0  0  0  0
   -7.6250   21.9870  -30.0170 O   0  0  0  0  0  0  0  0  0  0  0  0
   -7.9660   24.0410  -31.3020 O   0  0  0  0  0  0  0  0  0  0  0  0
   -6.8100   22.0040  -32.5300 N   0  0  0  0  0  0  0  0  0  0  0  0
   -6.5080   22.5470  -33.3690 H   0  0  0  0  0  0  0  0  0  0  0  0
   -6.9540   20.5770  -32.6370 C   0  0  0  0  0  0  0  0  0  0  0  0
   -5.9220   19.7500  -33.1210 C   0  0  0  0  0  0  0  0  0  0  0  0
   -4.9644   20.1934  -33.4314 H   0  0  0  0  0  0  0  0  0  0  0  0
   -6.1050   18.4060  -33.2060 N   0  0  0  0  0  0  0  0  0  0  0  0
   -7.2720   17.8160  -32.8320 C   0  0  0  0  0  0  0  0  0  0  0  0
   -7.3881   16.7253  -32.9154 H   0  0  0  0  0  0  0  0  0  0  0  0
   -8.3210   18.5930  -32.3430 C   0  0  0  0  0  0  0  0  0  0  0  0
   -9.2666   18.1212  -32.0375 H   0  0  0  0  0  0  0  0  0  0  0  0
   -8.1590   19.9760  -32.2450 C   0  0  0  0  0  0  0  0  0  0  0  0
   -8.9803   20.5974  -31.8585 H   0  0  0  0  0  0  0  0  0  0  0  0
   -4.6590   22.7890  -29.6550 C   0  0  0  0  0  0  0  0  0  0  0  0
   -4.9747   21.7895  -29.3215 H   0  0  0  0  0  0  0  0  0  0  0  0
   -3.4360   23.3120  -29.2320 C   0  0  0  0  0  0  0  0  0  0  0  0
   -2.7830   22.7290  -28.5659 H   0  0  0  0  0  0  0  0  0  0  0  0
  1  2  1  0
  2  3  2  0
  3  4  1  0
  4  5  1  0
  5  6  1  0
  5  7  2  0
  7  8  1  0
  8  9  2  0
  8 10  2  0
  8 11  1  0
 11 12  1  0
 11 13  1  0
 13 14  2  0
 14 15  1  0
 14 16  1  0
 16 17  2  0
 17 18  1  0
 17 19  1  0
 19 20  1  0
 19 21  2  0
 21 22  1  0
  7 23  1  0
 23 24  1  0
 23 25  2  0
 25 26  1  0
 25  3  1  0
 21 13  1  0
M  CHG  1   4  -1
M  END
>  <UniqueID>  (33) 
33

>  <SMILES>  (33) 
[H]/N=c1\ccc(S(=O)(=O)Nc2cccnc2)c[n-]1

>  <Energy>  (33) 
31.396327611074273

>  <Genealogy>  (33) 
N=c1ccc(S(=O)(=O)Nc2cccnc2)c[n-]1 (protonated)
[H]/N=c1\ccc(S(=O)(=O)Nc2cccnc2)c[n-]1 (cis-trans isomerization)
[H]/N=c1\ccc(S(=O)(=O)Nc2cccnc2)c[n-]1 (3D coordinates assigned)
[H]/N=c1\ccc(S(=O)(=O)Nc2cccnc2)c[n-]1 (optimized conformer: 31.396327611074273 kcal/mol)

>  <smiles>  (33) 
N=c1ccc(S(=O)(=O)Nc2cccnc2)c[nH]1

>  <score_type>  (33) 
oracle

>  <origin>  (33) 
adgpu

>  <m_score__min__energy>  (33) 
-8.9600000000000009

>  <m_primary>  (33) 
energy

$$$$
33:0
     RDKit          3D

 35 36  0  0  0  0  0  0  0  0999 V2000
    0.0040   19.6280  -31.2400 C   0  0  0  0  0  0  0  0  0  0  0  0
   -1.0420   20.1720  -30.3530 N   0  0  0  0  0  0  0  0  0  0  0  0
   -1.9000   21.1450  -30.8210 C   0  0  0  0  0  0  0  0  0  0  0  0
   -1.8250   21.6270  -32.2250 C   0  0  0  0  0  0  0  0  0  0  0  0
   -2.8300   21.5500  -33.1110 C   0  0  0  0  0  0  0  0  0  0  0  0
   -4.2070   21.1050  -32.7880 C   0  0  0  0  0  0  0  0  0  0  0  0
   -5.1180   22.0030  -32.2120 C   0  0  0  0  0  0  0  0  0  0  0  0
   -6.4190   21.6020  -31.9160 C   0  0  0  0  0  0  0  0  0  0  0  0
   -6.8470   20.2980  -32.2020 C   0  0  0  0  0  0  0  0  0  0  0  0
   -8.5060   19.8100  -31.8100 S   0  0  0  0  0  0  0  0  0  0  0  0
   -9.4680   19.5740  -33.2300 N   0  0  0  0  0  0  0  0  0  0  0  0
   -8.4720   18.5220  -31.0370 O   0  0  0  0  0  0  0  0  0  0  0  0
   -9.1510   20.8790  -30.9720 O   0  0  0  0  0  0  0  0  0  0  0  0
   -5.9480   19.3920  -32.8050 C   0  0  0  0  0  0  0  0  0  0  0  0
   -6.4550   17.7440  -33.1910 Cl  0  0  0  0  0  0  0  0  0  0  0  0
   -4.6310   19.7990  -33.1040 C   0  0  0  0  0  0  0  0  0  0  0  0
   -3.5010   18.6550  -33.8380 Cl  0  0  0  0  0  0  0  0  0  0  0  0
   -2.9050   21.6540  -29.9850 C   0  0  0  0  0  0  0  0  0  0  0  0
   -3.0260   21.1890  -28.6810 C   0  0  0  0  0  0  0  0  0  0  0  0
   -2.1650   20.2010  -28.2150 C   0  0  0  0  0  0  0  0  0  0  0  0
   -2.3090   19.7130  -26.8650 C   0  0  0  0  0  0  0  0  0  0  0  0
   -2.4250   19.3220  -25.7820 N   0  0  0  0  0  0  0  0  0  0  0  0
   -1.1770   19.6860  -29.0710 C   0  0  0  0  0  0  0  0  0  0  0  0
   -0.4140   18.7710  -28.6500 O   0  0  0  0  0  0  0  0  0  0  0  0
    0.8171   19.2051  -30.6317 H   0  0  0  0  0  0  0  0  0  0  0  0
   -0.4270   18.8398  -31.8748 H   0  0  0  0  0  0  0  0  0  0  0  0
    0.4018   20.4335  -31.8748 H   0  0  0  0  0  0  0  0  0  0  0  0
   -0.8799   22.0783  -32.5613 H   0  0  0  0  0  0  0  0  0  0  0  0
   -2.6170   21.8376  -34.1512 H   0  0  0  0  0  0  0  0  0  0  0  0
   -4.8021   23.0334  -31.9920 H   0  0  0  0  0  0  0  0  0  0  0  0
   -7.1170   22.3153  -31.4535 H   0  0  0  0  0  0  0  0  0  0  0  0
   -8.9940   20.0680  -34.0190 H   0  0  0  0  0  0  0  0  0  0  0  0
   -9.4680   18.5520  -33.4460 H   0  0  0  0  0  0  0  0  0  0  0  0
   -3.5974   22.4213  -30.3617 H   0  0  0  0  0  0  0  0  0  0  0  0
   -3.8013   21.6015  -28.0186 H   0  0  0  0  0  0  0  0  0  0  0  0
  1  2  1  0
  2  3  1  0
  3  4  1  0
  4  5  2  3
  5  6  1  0
  6  7  2  0
  7  8  1  0
  8  9  2  0
  9 10  1  0
 10 11  1  0
 10 12  2  0
 10 13  2  0
  9 14  1  0
 14 15  1  0
 14 16  2  0
 16 17  1  0
  3 18  2  0
 18 19  1  0
 19 20  2  0
 20 21  1  0
 21 22  3  0
 20 23  1  0
 23 24  2  0
 23  2  1  0
 16  6  1  0
  1 25  1  0
  1 26  1  0
  1 27  1  0
  4 28  1  0
  5 29  1  0
  7 30  1  0
  8 31  1  0
 11 32  1  0
 11 33  1  0
 18 34  1  0
 19 35  1  0
M  END
>  <UniqueID>  (34) 
34

>  <SMILES>  (34) 
Cn1c(C=Cc2ccc(S(N)(=O)=O)c(Cl)c2Cl)ccc(C#N)c1=O

>  <Energy>  (34) 
53.83080810573003

>  <Genealogy>  (34) 
Cn1c(C=Cc2ccc(S(N)(=O)=O)c(Cl)c2Cl)ccc(C#N)c1=O (3D coordinates assigned)
Cn1c(C=Cc2ccc(S(N)(=O)=O)c(Cl)c2Cl)ccc(C#N)c1=O (optimized conformer: 53.83080810573003 kcal/mol)

>  <smiles>  (34) 
Cn1c(C=Cc2ccc(S(N)(=O)=O)c(Cl)c2Cl)ccc(C#N)c1=O

>  <score_type>  (34) 
oracle

>  <origin>  (34) 
adgpu

>  <m_score__min__energy>  (34) 
-8.7300000000000004

>  <m_primary>  (34) 
energy

$$$$
34:0
     RDKit          3D

 40 42  0  0  0  0  0  0  0  0999 V2000
   -3.9879   19.5892  -26.5894 H   0  0  0  0  0  0  0  0  0  0  0  0
   -3.0870   19.9490  -27.1080 C   0  0  0  0  0  0  0  0  0  0  0  0
   -1.9840   19.1050  -27.2590 C   0  0  0  0  0  0  0  0  0  0  0  0
   -2.0134   18.0840  -26.8507 H   0  0  0  0  0  0  0  0  0  0  0  0
   -0.8420   19.5570  -27.9290 C   0  0  0  0  0  0  0  0  0  0  0  0
    0.5320   18.4860  -28.1440 Cl  0  0  0  0  0  0  0  0  0  0  0  0
   -0.7980   20.8620  -28.4340 C   0  0  0  0  0  0  0  0  0  0  0  0
    0.0959   21.2130  -28.9704 H   0  0  0  0  0  0  0  0  0  0  0  0
   -1.8950   21.7260  -28.2570 C   0  0  0  0  0  0  0  0  0  0  0  0
   -1.9020   23.0710  -28.7640 N   0  0  0  0  0  0  0  0  0  0  0  0
   -2.8690   23.6540  -29.4110 C   0  0  0  0  0  0  0  0  0  0  0  0
   -4.0170   23.0510  -29.7800 N   0  0  0  0  0  0  0  0  0  0  0  0
   -4.6280   24.0450  -30.4620 C   0  0  0  0  0  0  0  0  0  0  0  0
   -6.2230   23.8640  -31.2590 S   0  0  0  0  0  0  0  0  0  0  0  0
   -6.4720   22.1320  -30.7290 C   0  0  0  0  0  0  0  0  0  0  0  0
   -7.5499   21.9445  -30.6146 H   0  0  0  0  0  0  0  0  0  0  0  0
   -5.9456   21.9838  -29.7746 H   0  0  0  0  0  0  0  0  0  0  0  0
   -5.9100   21.1610  -31.7350 C   0  0  0  0  0  0  0  0  0  0  0  0
   -6.7240   20.1530  -32.2720 C   0  0  0  0  0  0  0  0  0  0  0  0
   -7.7684   20.0570  -31.9404 H   0  0  0  0  0  0  0  0  0  0  0  0
   -6.2130   19.2710  -33.2260 C   0  0  0  0  0  0  0  0  0  0  0  0
   -6.8531   18.4779  -33.6398 H   0  0  0  0  0  0  0  0  0  0  0  0
   -4.8880   19.3950  -33.6560 C   0  0  0  0  0  0  0  0  0  0  0  0
   -4.4912   18.6969  -34.4078 H   0  0  0  0  0  0  0  0  0  0  0  0
   -4.0620   20.4000  -33.1380 C   0  0  0  0  0  0  0  0  0  0  0  0
   -2.7460   20.4820  -33.6150 O   0  0  0  0  0  0  0  0  0  0  0  0
   -1.3900   20.9870  -32.6980 S   0  0  0  0  0  0  0  0  0  0  0  0
   -0.3440   21.5160  -33.6370 O   0  0  0  0  0  0  0  0  0  0  0  0
   -1.7880   22.0810  -31.7450 O   0  0  0  0  0  0  0  0  0  0  0  0
   -0.7060   19.6110  -31.8000 C   0  0  0  0  0  0  0  0  0  0  0  0
   -0.7980   19.7961  -30.7196 H   0  0  0  0  0  0  0  0  0  0  0  0
   -1.2529   18.6934  -32.0627 H   0  0  0  0  0  0  0  0  0  0  0  0
    0.3556   19.4930  -32.0627 H   0  0  0  0  0  0  0  0  0  0  0  0
   -4.5820   21.2850  -32.1740 C   0  0  0  0  0  0  0  0  0  0  0  0
   -3.9429   22.0797  -31.7616 H   0  0  0  0  0  0  0  0  0  0  0  0
   -3.9000   25.1770  -30.5140 N   0  0  0  0  0  0  0  0  0  0  0  0
   -2.7900   24.9180  -29.8500 N   0  0  0  0  0  0  0  0  0  0  0  0
   -2.0010   25.5890  -29.7190 H   0  0  0  0  0  0  0  0  0  0  0  0
   -3.0460   21.2510  -27.6160 C   0  0  0  0  0  0  0  0  0  0  0  0
   -3.9233   21.9063  -27.5115 H   0  0  0  0  0  0  0  0  0  0  0  0
  1  2  1  0
  2  3  2  0
  3  4  1  0
  3  5  1  0
  5  6  1  0
  5  7  2  0
  7  8  1  0
  7  9  1  0
  9 10  1  0
 10 11  2  0
 11 12  1  0
 12 13  2  0
 13 14  1  0
 14 15  1  0
 15 16  1  0
 15 17  1  0
 15 18  1  0
 18 19  2  0
 19 20  1  0
 19 21  1  0
 21 22  1  0
 21 23  2  0
 23 24  1  0
 23 25  1  0
 25 26  1  0
 26 27  1  0
 27 28  2  0
 27 29  2  0
 27 30  1  0
 30 31  1  0
 30 32  1  0
 30 33  1  0
 25 34  2  0
 34 35  1  0
 13 36  1  0
 36 37  1  0
 37 38  1  0
  9 39  2  0
 39 40  1  0
 39  2  1  0
 37 11  1  0
 34 18  1  0
M  CHG  1  36  -1
M  END
>  <UniqueID>  (35) 
35

>  <SMILES>  (35) 
CS(=O)(=O)Oc1cccc(CSc2n/c(=N\c3cccc(Cl)c3)[nH][n-]2)c1

>  <Energy>  (35) 
71.27297714219826

>  <Genealogy>  (35) 
CS(=O)(=O)Oc1cccc(CSc2nc(=Nc3cccc(Cl)c3)[nH][n-]2)c1 (protonated)
CS(=O)(=O)Oc1cccc(CSc2n/c(=N\c3cccc(Cl)c3)[nH][n-]2)c1 (cis-trans isomerization)
CS(=O)(=O)Oc1cccc(CSc2n/c(=N\c3cccc(Cl)c3)[nH][n-]2)c1 (3D coordinates assigned)
CS(=O)(=O)Oc1cccc(CSc2n/c(=N\c3cccc(Cl)c3)[nH][n-]2)c1 (optimized conformer: 71.27297714219826 kcal/mol)

>  <smiles>  (35) 
CS(=O)(=O)Oc1cccc(CSc2nc(=Nc3cccc(Cl)c3)[nH][nH]2)c1

>  <score_type>  (35) 
oracle

>  <origin>  (35) 
adgpu

>  <m_score__min__energy>  (35) 
-10.880000000000001

>  <m_primary>  (35) 
energy

$$$$
35:0
     RDKit          3D

 53 58  0  0  0  0  0  0  0  0999 V2000
   -1.7180   22.7880  -29.4610 O   0  0  0  0  0  0  0  0  0  0  0  0
   -2.5300   22.5640  -30.3990 C   0  0  0  0  0  0  0  0  0  0  0  0
   -3.8150   23.2850  -30.4170 C   0  0  0  0  0  0  0  0  0  0  0  0
   -4.9770   22.6170  -30.8260 C   0  0  0  0  0  0  0  0  0  0  0  0
   -6.2200   23.2760  -30.8460 C   0  0  0  0  0  0  0  0  0  0  0  0
   -7.4410   22.5650  -31.3020 C   0  0  0  0  0  0  0  0  0  0  0  0
   -8.6210   23.1770  -31.5760 N   0  0  0  0  0  0  0  0  0  0  0  0
   -9.4970   22.2370  -31.9290 N   0  0  0  0  0  0  0  0  0  0  0  0
   -8.8370   21.0680  -31.8610 C   0  0  0  0  0  0  0  0  0  0  0  0
   -9.3400   19.7950  -32.0940 C   0  0  0  0  0  0  0  0  0  0  0  0
   -8.4610   18.7170  -31.9050 C   0  0  0  0  0  0  0  0  0  0  0  0
   -7.1320   18.9590  -31.4930 C   0  0  0  0  0  0  0  0  0  0  0  0
   -6.0020   17.5950  -31.2330 S   0  0  0  0  0  0  0  0  0  0  0  0
   -5.5550   17.4980  -32.9730 C   0  0  0  0  0  0  0  0  0  0  0  0
   -5.9920   18.5080  -33.8430 C   0  0  0  0  0  0  0  0  0  0  0  0
   -5.6650   18.4570  -35.2020 C   0  0  0  0  0  0  0  0  0  0  0  0
   -4.9060   17.3960  -35.6990 C   0  0  0  0  0  0  0  0  0  0  0  0
   -4.4710   16.3830  -34.8380 C   0  0  0  0  0  0  0  0  0  0  0  0
   -4.7930   16.4260  -33.4760 C   0  0  0  0  0  0  0  0  0  0  0  0
   -4.2450   15.1190  -32.4340 Cl  0  0  0  0  0  0  0  0  0  0  0  0
   -6.7120   20.2400  -31.2780 N   0  0  0  0  0  0  0  0  0  0  0  0
   -7.5690   21.2390  -31.4820 N   0  0  0  0  0  0  0  0  0  0  0  0
   -6.2820   24.6300  -30.4530 C   0  0  0  0  0  0  0  0  0  0  0  0
   -7.4970   25.3160  -30.4620 O   0  0  0  0  0  0  0  0  0  0  0  0
   -5.1200   25.2920  -30.0350 C   0  0  0  0  0  0  0  0  0  0  0  0
   -3.8950   24.6250  -30.0050 C   0  0  0  0  0  0  0  0  0  0  0  0
   -2.7640   25.2950  -29.5470 O   0  0  0  0  0  0  0  0  0  0  0  0
   -2.1970   21.6050  -31.4190 N   0  0  0  0  0  0  0  0  0  0  0  0
   -3.1710   20.9870  -32.3230 C   0  0  0  0  0  0  0  0  0  0  0  0
   -2.3550   20.0000  -33.0700 C   0  0  0  0  0  0  0  0  0  0  0  0
   -2.7650   19.1470  -34.0980 C   0  0  0  0  0  0  0  0  0  0  0  0
   -1.8130   18.2990  -34.6860 C   0  0  0  0  0  0  0  0  0  0  0  0
   -0.4780   18.3120  -34.2380 C   0  0  0  0  0  0  0  0  0  0  0  0
   -0.0880   19.1760  -33.2020 C   0  0  0  0  0  0  0  0  0  0  0  0
   -1.0490   20.0140  -32.6350 C   0  0  0  0  0  0  0  0  0  0  0  0
   -0.8640   21.0110  -31.5530 C   0  0  0  0  0  0  0  0  0  0  0  0
   -4.9165   21.5632  -31.1356 H   0  0  0  0  0  0  0  0  0  0  0  0
  -10.3811   19.6382  -32.4126 H   0  0  0  0  0  0  0  0  0  0  0  0
   -8.8063   17.6869  -32.0773 H   0  0  0  0  0  0  0  0  0  0  0  0
   -6.5939   19.3430  -33.4551 H   0  0  0  0  0  0  0  0  0  0  0  0
   -6.0062   19.2535  -35.8796 H   0  0  0  0  0  0  0  0  0  0  0  0
   -4.6499   17.3566  -36.7681 H   0  0  0  0  0  0  0  0  0  0  0  0
   -3.8730   15.5485  -35.2329 H   0  0  0  0  0  0  0  0  0  0  0  0
   -8.3320   24.9150  -30.8720 H   0  0  0  0  0  0  0  0  0  0  0  0
   -5.1741   26.3468  -29.7278 H   0  0  0  0  0  0  0  0  0  0  0  0
   -3.9738   20.4898  -31.7588 H   0  0  0  0  0  0  0  0  0  0  0  0
   -3.6772   21.7132  -32.9760 H   0  0  0  0  0  0  0  0  0  0  0  0
   -3.8108   19.1400  -34.4391 H   0  0  0  0  0  0  0  0  0  0  0  0
   -2.1111   17.6217  -35.4999 H   0  0  0  0  0  0  0  0  0  0  0  0
    0.2620   17.6429  -34.7013 H   0  0  0  0  0  0  0  0  0  0  0  0
    0.9524   19.1919  -32.8452 H   0  0  0  0  0  0  0  0  0  0  0  0
   -0.5521   20.5249  -30.6168 H   0  0  0  0  0  0  0  0  0  0  0  0
   -0.0807   21.7507  -31.7751 H   0  0  0  0  0  0  0  0  0  0  0  0
  1  2  2  0
  2  3  1  0
  3  4  2  0
  4  5  1  0
  5  6  1  0
  6  7  2  0
  7  8  1  0
  8  9  2  0
  9 10  1  0
 10 11  2  0
 11 12  1  0
 12 13  1  0
 13 14  1  0
 14 15  2  0
 15 16  1  0
 16 17  2  0
 17 18  1  0
 18 19  2  0
 19 20  1  0
 12 21  2  0
 21 22  1  0
  5 23  2  0
 23 24  1  0
 23 25  1  0
 25 26  2  0
 26 27  1  0
  2 28  1  0
 28 29  1  0
 29 30  1  0
 30 31  2  0
 31 32  1  0
 32 33  2  0
 33 34  1  0
 34 35  2  0
 35 36  1  0
 26  3  1  0
 36 28  1  0
 22  6  1  0
 35 30  1  0
 22  9  1  0
 19 14  1  0
  4 37  1  0
 10 38  1  0
 11 39  1  0
 15 40  1  0
 16 41  1  0
 17 42  1  0
 18 43  1  0
 24 44  1  0
 25 45  1  0
 29 46  1  0
 29 47  1  0
 31 48  1  0
 32 49  1  0
 33 50  1  0
 34 51  1  0
 36 52  1  0
 36 53  1  0
M  CHG  1  27  -1
M  END
>  <UniqueID>  (36) 
36

>  <SMILES>  (36) 
O=C(c1cc(-c2nnc3ccc(Sc4ccccc4Cl)nn23)c(O)cc1[O-])N1Cc2ccccc2C1

>  <Energy>  (36) 
120.41301752713852

>  <Genealogy>  (36) 
O=C(c1cc(-c2nnc3ccc(Sc4ccccc4Cl)nn23)c(O)cc1[O-])N1Cc2ccccc2C1 (protonated)
O=C(c1cc(-c2nnc3ccc(Sc4ccccc4Cl)nn23)c(O)cc1[O-])N1Cc2ccccc2C1 (3D coordinates assigned)
O=C(c1cc(-c2nnc3ccc(Sc4ccccc4Cl)nn23)c(O)cc1[O-])N1Cc2ccccc2C1 (nonaromatic ring conformer: 120.41301752713852 kcal/mol)

>  <smiles>  (36) 
O=C(c1cc(-c2nnc3ccc(Sc4ccccc4Cl)nn23)c(O)cc1O)N1Cc2ccccc2C1

>  <score_type>  (36) 
oracle

>  <origin>  (36) 
adgpu

>  <m_score__min__energy>  (36) 
-13

>  <m_primary>  (36) 
energy

$$$$
36:0
     RDKit          3D

 57 60  0  0  0  0  0  0  0  0999 V2000
   -2.0110   18.2270  -26.3610 C   0  0  0  0  0  0  0  0  0  0  0  0
   -2.2950   19.6280  -26.8030 C   0  0  0  0  0  0  0  0  0  0  0  0
   -3.4910   20.0180  -26.8800 O   0  0  0  0  0  0  0  0  0  0  0  0
   -1.2100   20.5130  -27.1200 N   0  0  0  0  0  0  0  0  0  0  0  0
   -1.3720   21.8390  -27.6500 C   0  0  0  0  0  0  0  0  0  0  0  0
   -0.3650   22.7880  -27.4330 C   0  0  0  0  0  0  0  0  0  0  0  0
   -0.4690   24.0690  -27.9740 C   0  0  0  0  0  0  0  0  0  0  0  0
   -1.5720   24.4180  -28.7530 C   0  0  0  0  0  0  0  0  0  0  0  0
   -1.6030   25.6790  -29.3400 O   0  0  0  0  0  0  0  0  0  0  0  0
   -2.6090   23.4860  -28.9700 C   0  0  0  0  0  0  0  0  0  0  0  0
   -3.8060   23.8270  -29.7800 C   0  0  0  0  0  0  0  0  0  0  0  0
   -3.7930   24.8660  -30.4930 O   0  0  0  0  0  0  0  0  0  0  0  0
   -5.0320   22.9550  -29.7770 C   0  0  0  0  0  0  0  0  0  0  0  0
   -5.7700   22.7880  -31.4420 S   0  0  0  0  0  0  0  0  0  0  0  0
   -4.5280   21.6430  -32.0570 C   0  0  0  0  0  0  0  0  0  0  0  0
   -3.2500   21.6690  -31.6410 N   0  0  0  0  0  0  0  0  0  0  0  0
   -2.6210   20.6900  -32.2690 N   0  0  0  0  0  0  0  0  0  0  0  0
   -3.5250   20.0720  -33.0540 C   0  0  0  0  0  0  0  0  0  0  0  0
   -3.1780   18.9040  -33.9360 C   0  0  0  0  0  0  0  0  0  0  0  0
   -4.1810   17.7940  -33.7510 C   0  0  0  0  0  0  0  0  0  0  0  0
   -4.0220   16.8650  -32.7080 C   0  0  0  0  0  0  0  0  0  0  0  0
   -4.9140   15.7980  -32.5740 C   0  0  0  0  0  0  0  0  0  0  0  0
   -5.9650   15.6460  -33.4820 C   0  0  0  0  0  0  0  0  0  0  0  0
   -6.1320   16.5640  -34.5180 C   0  0  0  0  0  0  0  0  0  0  0  0
   -5.2440   17.6350  -34.6570 C   0  0  0  0  0  0  0  0  0  0  0  0
   -4.7390   20.6670  -32.9660 N   0  0  0  0  0  0  0  0  0  0  0  0
   -5.9500   20.4150  -33.7570 C   0  0  0  0  0  0  0  0  0  0  0  0
   -7.0220   19.7710  -32.9180 C   0  0  0  0  0  0  0  0  0  0  0  0
   -8.3540   20.2130  -33.0120 C   0  0  0  0  0  0  0  0  0  0  0  0
   -9.3460   19.6220  -32.2230 C   0  0  0  0  0  0  0  0  0  0  0  0
   -9.0250   18.5790  -31.3530 C   0  0  0  0  0  0  0  0  0  0  0  0
   -7.7080   18.1240  -31.2640 C   0  0  0  0  0  0  0  0  0  0  0  0
   -6.7080   18.7170  -32.0420 C   0  0  0  0  0  0  0  0  0  0  0  0
   -2.4850   22.1890  -28.4360 C   0  0  0  0  0  0  0  0  0  0  0  0
   -2.0023   18.1839  -25.2619 H   0  0  0  0  0  0  0  0  0  0  0  0
   -2.7912   17.5551  -26.7481 H   0  0  0  0  0  0  0  0  0  0  0  0
   -1.0307   17.9120  -26.7481 H   0  0  0  0  0  0  0  0  0  0  0  0
   -0.2490   20.2150  -26.8450 H   0  0  0  0  0  0  0  0  0  0  0  0
    0.5156   22.5205  -26.8305 H   0  0  0  0  0  0  0  0  0  0  0  0
    0.3233   24.8084  -27.7853 H   0  0  0  0  0  0  0  0  0  0  0  0
   -4.7541   21.9554  -29.4115 H   0  0  0  0  0  0  0  0  0  0  0  0
   -5.7797   23.4284  -29.1237 H   0  0  0  0  0  0  0  0  0  0  0  0
   -3.1849   19.2281  -34.9871 H   0  0  0  0  0  0  0  0  0  0  0  0
   -2.1789   18.5333  -33.6631 H   0  0  0  0  0  0  0  0  0  0  0  0
   -3.1923   16.9785  -31.9948 H   0  0  0  0  0  0  0  0  0  0  0  0
   -4.7887   15.0769  -31.7528 H   0  0  0  0  0  0  0  0  0  0  0  0
   -6.6616   14.8009  -33.3794 H   0  0  0  0  0  0  0  0  0  0  0  0
   -6.9642   16.4454  -35.2275 H   0  0  0  0  0  0  0  0  0  0  0  0
   -5.3776   18.3552  -35.4776 H   0  0  0  0  0  0  0  0  0  0  0  0
   -6.3273   21.3705  -34.1504 H   0  0  0  0  0  0  0  0  0  0  0  0
   -5.6935   19.7320  -34.5802 H   0  0  0  0  0  0  0  0  0  0  0  0
   -8.6158   21.0245  -33.7069 H   0  0  0  0  0  0  0  0  0  0  0  0
  -10.3838   19.9808  -32.2884 H   0  0  0  0  0  0  0  0  0  0  0  0
   -9.8098   18.1153  -30.7373 H   0  0  0  0  0  0  0  0  0  0  0  0
   -7.4566   17.2987  -30.5816 H   0  0  0  0  0  0  0  0  0  0  0  0
   -5.6712   18.3570  -31.9681 H   0  0  0  0  0  0  0  0  0  0  0  0
   -3.2668   21.4414  -28.6356 H   0  0  0  0  0  0  0  0  0  0  0  0
  1  2  1  0
  2  3  2  0
  2  4  1  0
  4  5  1  0
  5  6  2  0
  6  7  1  0
  7  8  2  0
  8  9  1  0
  8 10  1  0
 10 11  1  0
 11 12  2  0
 11 13  1  0
 13 14  1  0
 14 15  1  0
 15 16  2  0
 16 17  1  0
 17 18  2  0
 18 19  1  0
 19 20  1  0
 20 21  2  0
 21 22  1  0
 22 23  2  0
 23 24  1  0
 24 25  2  0
 18 26  1  0
 26 27  1  0
 27 28  1  0
 28 29  2  0
 29 30  1  0
 30 31  2  0
 31 32  1  0
 32 33  2  0
 10 34  2  0
 34  5  1  0
 26 15  1  0
 33 28  1  0
 25 20  1  0
  1 35  1  0
  1 36  1  0
  1 37  1  0
  4 38  1  0
  6 39  1  0
  7 40  1  0
 13 41  1  0
 13 42  1  0
 19 43  1  0
 19 44  1  0
 21 45  1  0
 22 46  1  0
 23 47  1  0
 24 48  1  0
 25 49  1  0
 27 50  1  0
 27 51  1  0
 29 52  1  0
 30 53  1  0
 31 54  1  0
 32 55  1  0
 33 56  1  0
 34 57  1  0
M  CHG  1   9  -1
M  END
>  <UniqueID>  (37) 
37

>  <SMILES>  (37) 
CC(=O)Nc1ccc([O-])c(C(=O)CSc2nnc(Cc3ccccc3)n2Cc2ccccc2)c1

>  <Energy>  (37) 
89.48720394972862

>  <Genealogy>  (37) 
CC(=O)Nc1ccc([O-])c(C(=O)CSc2nnc(Cc3ccccc3)n2Cc2ccccc2)c1 (protonated)
CC(=O)Nc1ccc([O-])c(C(=O)CSc2nnc(Cc3ccccc3)n2Cc2ccccc2)c1 (3D coordinates assigned)
CC(=O)Nc1ccc([O-])c(C(=O)CSc2nnc(Cc3ccccc3)n2Cc2ccccc2)c1 (optimized conformer: 89.48720394972862 kcal/mol)

>  <smiles>  (37) 
CC(=O)Nc1ccc(O)c(C(=O)CSc2nnc(Cc3ccccc3)n2Cc2ccccc2)c1

>  <score_type>  (37) 
oracle

>  <origin>  (37) 
adgpu

>  <m_score__min__energy>  (37) 
-14.300000000000001

>  <m_primary>  (37) 
energy

$$$$
37:0
     RDKit          3D

 55 59  0  0  0  0  0  0  0  0999 V2000
    3.1960   23.6030  -27.2900 O   0  0  0  0  0  0  0  0  0  0  0  0
    2.1910   24.2600  -27.6320 N   0  0  0  0  0  0  0  0  0  0  0  0
    2.2900   25.6240  -27.7750 O   0  0  0  0  0  0  0  0  0  0  0  0
    0.9420   23.6060  -27.8720 C   0  0  0  0  0  0  0  0  0  0  0  0
   -0.1780   24.1850  -28.4250 C   0  0  0  0  0  0  0  0  0  0  0  0
   -1.1330   23.2350  -28.4880 N   0  0  0  0  0  0  0  0  0  0  0  0
   -2.4700   23.3420  -29.0160 C   0  0  0  0  0  0  0  0  0  0  0  0
   -2.7720   22.8790  -30.2350 C   0  0  0  0  0  0  0  0  0  0  0  0
   -4.1500   23.0120  -30.8580 C   0  0  1  0  0  0  0  0  0  0  0  0
   -4.6420   21.7370  -31.5810 C   0  0  0  0  0  0  0  0  0  0  0  0
   -3.8010   20.5970  -31.6730 C   0  0  0  0  0  0  0  0  0  0  0  0
   -4.1800   19.4650  -32.3890 C   0  0  0  0  0  0  0  0  0  0  0  0
   -5.4100   19.4210  -33.0350 C   0  0  0  0  0  0  0  0  0  0  0  0
   -5.8990   17.9730  -33.9080 S   0  0  0  0  0  0  0  0  0  0  0  0
   -5.7690   18.1970  -35.3890 O   0  0  0  0  0  0  0  0  0  0  0  0
   -7.3380   17.6580  -33.6090 O   0  0  0  0  0  0  0  0  0  0  0  0
   -4.8730   16.6340  -33.4110 C   0  0  0  0  0  0  0  0  0  0  0  0
   -3.6180   16.4500  -34.0040 C   0  0  0  0  0  0  0  0  0  0  0  0
   -2.8110   15.3740  -33.6240 C   0  0  0  0  0  0  0  0  0  0  0  0
   -3.2580   14.4520  -32.6610 C   0  0  0  0  0  0  0  0  0  0  0  0
   -2.3670   13.3200  -32.2150 C   0  0  0  0  0  0  0  0  0  0  0  0
   -2.2680   12.3570  -33.2050 F   0  0  0  0  0  0  0  0  0  0  0  0
   -2.8990   12.7440  -31.0770 F   0  0  0  0  0  0  0  0  0  0  0  0
   -1.0930   13.7820  -31.9330 F   0  0  0  0  0  0  0  0  0  0  0  0
   -4.5110   14.6530  -32.0570 C   0  0  0  0  0  0  0  0  0  0  0  0
   -5.3170   15.7300  -32.4380 C   0  0  0  0  0  0  0  0  0  0  0  0
   -6.2820   20.5020  -32.9280 C   0  0  0  0  0  0  0  0  0  0  0  0
   -5.9290   21.6680  -32.2170 C   0  0  0  0  0  0  0  0  0  0  0  0
   -7.0500   22.6870  -32.0450 C   0  0  0  0  0  0  0  0  0  0  0  0
   -6.6150   24.1520  -31.9680 C   0  0  0  0  0  0  0  0  0  0  0  0
   -6.1640   24.5610  -30.5580 C   0  0  0  0  0  0  0  0  0  0  0  0
   -5.2380   23.5350  -29.8690 C   0  0  2  0  0  0  0  0  0  0  0  0
   -4.6960   24.1510  -28.6040 C   0  0  0  0  0  0  0  0  0  0  0  0
   -3.4650   24.0100  -28.2350 N   0  0  0  0  0  0  0  0  0  0  0  0
   -0.5640   22.1170  -27.9860 C   0  0  0  0  0  0  0  0  0  0  0  0
    0.7140   22.3080  -27.5930 N   0  0  0  0  0  0  0  0  0  0  0  0
   -0.2758   25.2299  -28.7547 H   0  0  0  0  0  0  0  0  0  0  0  0
   -1.9827   22.3773  -30.8140 H   0  0  0  0  0  0  0  0  0  0  0  0
   -4.0060   23.7836  -31.6287 H   0  0  0  0  0  0  0  0  0  0  0  0
   -2.8251   20.6085  -31.1656 H   0  0  0  0  0  0  0  0  0  0  0  0
   -3.5022   18.6003  -32.4439 H   0  0  0  0  0  0  0  0  0  0  0  0
   -3.2659   17.1548  -34.7717 H   0  0  0  0  0  0  0  0  0  0  0  0
   -1.8188   15.2475  -34.0817 H   0  0  0  0  0  0  0  0  0  0  0  0
   -4.8600   13.9581  -31.2790 H   0  0  0  0  0  0  0  0  0  0  0  0
   -6.3037   15.8678  -31.9717 H   0  0  0  0  0  0  0  0  0  0  0  0
   -7.2694   20.4450  -33.4094 H   0  0  0  0  0  0  0  0  0  0  0  0
   -7.7342   22.5830  -32.9000 H   0  0  0  0  0  0  0  0  0  0  0  0
   -7.5107   22.4616  -31.0719 H   0  0  0  0  0  0  0  0  0  0  0  0
   -5.7782   24.3081  -32.6647 H   0  0  0  0  0  0  0  0  0  0  0  0
   -7.4843   24.7719  -32.2326 H   0  0  0  0  0  0  0  0  0  0  0  0
   -5.6255   25.5174  -30.6315 H   0  0  0  0  0  0  0  0  0  0  0  0
   -7.0729   24.6310  -29.9424 H   0  0  0  0  0  0  0  0  0  0  0  0
   -5.7962   22.6340  -29.5748 H   0  0  0  0  0  0  0  0  0  0  0  0
   -5.3737   24.7428  -27.9711 H   0  0  0  0  0  0  0  0  0  0  0  0
   -1.0868   21.1525  -27.9058 H   0  0  0  0  0  0  0  0  0  0  0  0
  1  2  2  0
  2  3  1  0
  2  4  1  0
  4  5  2  0
  5  6  1  0
  6  7  1  0
  7  8  2  0
  8  9  1  0
  9 10  1  0
 10 11  2  0
 11 12  1  0
 12 13  2  0
 13 14  1  0
 14 15  2  0
 14 16  2  0
 14 17  1  0
 17 18  2  0
 18 19  1  0
 19 20  2  0
 20 21  1  0
 21 22  1  0
 21 23  1  0
 21 24  1  0
 20 25  1  0
 25 26  2  0
 13 27  1  0
 27 28  2  0
 28 29  1  0
 29 30  1  0
 30 31  1  0
 31 32  1  0
 32 33  1  0
 33 34  2  0
  6 35  1  0
 35 36  2  0
 36  4  1  0
 34  7  1  0
 32  9  1  0
 28 10  1  0
 26 17  1  0
  5 37  1  0
  8 38  1  0
  9 39  1  6
 11 40  1  0
 12 41  1  0
 18 42  1  0
 19 43  1  0
 25 44  1  0
 26 45  1  0
 27 46  1  0
 29 47  1  0
 29 48  1  0
 30 49  1  0
 30 50  1  0
 31 51  1  0
 31 52  1  0
 32 53  1  1
 33 54  1  0
 35 55  1  0
M  CHG  2   2   1   3  -1
M  END
>  <UniqueID>  (38) 
38

>  <SMILES>  (38) 
O=[N+]([O-])c1cn(C2=C[C@H]3c4ccc(S(=O)(=O)c5ccc(C(F)(F)F)cc5)cc4CCC[C@@H]3C=N2)cn1

>  <Energy>  (38) 
114.41230101402623

>  <Genealogy>  (38) 
O=[N+]([O-])c1cn(C2=C[C@H]3c4ccc(S(=O)(=O)c5ccc(C(F)(F)F)cc5)cc4CCC[C@@H]3C=N2)cn1 (chirality)
O=[N+]([O-])c1cn(C2=C[C@H]3c4ccc(S(=O)(=O)c5ccc(C(F)(F)F)cc5)cc4CCC[C@@H]3C=N2)cn1 (3D coordinates assigned)
O=[N+]([O-])c1cn(C2=C[C@H]3c4ccc(S(=O)(=O)c5ccc(C(F)(F)F)cc5)cc4CCC[C@@H]3C=N2)cn1 (nonaromatic ring conformer: 114.41230101402623 kcal/mol)

>  <smiles>  (38) 
O=[N+]([O-])c1cn(C2=CC3c4ccc(S(=O)(=O)c5ccc(C(F)(F)F)cc5)cc4CCCC3C=N2)cn1

>  <score_type>  (38) 
oracle

>  <origin>  (38) 
adgpu

>  <m_score__min__energy>  (38) 
-8.4399999999999995

>  <m_primary>  (38) 
energy

$$$$
38:0
     RDKit          3D

 58 61  0  0  0  0  0  0  0  0999 V2000
   -3.9560   23.9660  -31.1440 O   0  0  0  0  0  0  0  0  0  0  0  0
   -4.7250   22.9660  -31.1660 C   0  0  0  0  0  0  0  0  0  0  0  0
   -6.0640   23.0710  -30.6640 N   0  0  0  0  0  0  0  0  0  0  0  0
   -7.2080   22.3400  -31.1280 C   0  0  0  0  0  0  0  0  0  0  0  0
   -8.4140   22.9790  -31.4680 C   0  0  0  0  0  0  0  0  0  0  0  0
   -9.4980   22.2310  -31.9360 C   0  0  0  0  0  0  0  0  0  0  0  0
   -9.3840   20.8480  -32.0840 C   0  0  0  0  0  0  0  0  0  0  0  0
   -8.1770   20.2030  -31.7810 C   0  0  0  0  0  0  0  0  0  0  0  0
   -8.0300   18.4520  -31.9740 S   0  0  0  0  0  0  0  0  0  0  0  0
   -7.2270   17.8990  -30.8290 O   0  0  0  0  0  0  0  0  0  0  0  0
   -9.4000   17.8370  -31.9200 O   0  0  0  0  0  0  0  0  0  0  0  0
   -7.2630   17.9960  -33.4770 N   0  0  0  0  0  0  0  0  0  0  0  0
   -6.3060   19.0020  -33.9340 C   0  0  0  0  0  0  0  0  0  0  0  0
   -5.3010   18.2700  -34.8110 C   0  0  0  0  0  0  0  0  0  0  0  0
   -5.4290   16.8020  -34.4310 C   0  0  0  0  0  0  0  0  0  0  0  0
   -6.4980   16.7570  -33.3510 C   0  0  0  0  0  0  0  0  0  0  0  0
   -7.0940   20.9540  -31.3020 C   0  0  0  0  0  0  0  0  0  0  0  0
   -4.2430   21.6890  -31.6020 N   0  0  0  0  0  0  0  0  0  0  0  0
   -2.9930   21.4850  -32.2830 C   0  0  0  0  0  0  0  0  0  0  0  0
   -1.7920   21.7680  -31.6160 C   0  0  0  0  0  0  0  0  0  0  0  0
   -0.5630   21.5620  -32.2490 C   0  0  0  0  0  0  0  0  0  0  0  0
   -0.5170   21.0590  -33.5570 C   0  0  0  0  0  0  0  0  0  0  0  0
    1.0350   20.8200  -34.3650 S   0  0  0  0  0  0  0  0  0  0  0  0
    1.9260   19.9850  -33.4880 O   0  0  0  0  0  0  0  0  0  0  0  0
    0.8140   20.0730  -35.6490 O   0  0  0  0  0  0  0  0  0  0  0  0
    1.8220   22.3430  -34.7120 N   0  0  0  0  0  0  0  0  0  0  0  0
    3.2400   22.1530  -35.0890 C   0  0  0  0  0  0  0  0  0  0  0  0
    3.4640   22.3310  -36.6020 C   0  0  0  0  0  0  0  0  0  0  0  0
    3.0660   23.6080  -37.0800 O   0  0  0  0  0  0  0  0  0  0  0  0
    1.9450   24.1550  -36.3970 C   0  0  0  0  0  0  0  0  0  0  0  0
    1.0530   23.1040  -35.7150 C   0  0  0  0  0  0  0  0  0  0  0  0
   -1.7130   20.7440  -34.2150 C   0  0  0  0  0  0  0  0  0  0  0  0
   -2.9430   20.9500  -33.5830 C   0  0  0  0  0  0  0  0  0  0  0  0
   -8.5043   24.0705  -31.3653 H   0  0  0  0  0  0  0  0  0  0  0  0
  -10.4433   22.7337  -32.1883 H   0  0  0  0  0  0  0  0  0  0  0  0
  -10.2443   20.2621  -32.4397 H   0  0  0  0  0  0  0  0  0  0  0  0
   -6.8212   19.7814  -34.5146 H   0  0  0  0  0  0  0  0  0  0  0  0
   -5.8102   19.4959  -33.0854 H   0  0  0  0  0  0  0  0  0  0  0  0
   -5.5408   18.4148  -35.8747 H   0  0  0  0  0  0  0  0  0  0  0  0
   -4.2775   18.6442  -34.6612 H   0  0  0  0  0  0  0  0  0  0  0  0
   -5.7362   16.2043  -35.3018 H   0  0  0  0  0  0  0  0  0  0  0  0
   -4.4737   16.3855  -34.0790 H   0  0  0  0  0  0  0  0  0  0  0  0
   -7.1546   15.8873  -33.5014 H   0  0  0  0  0  0  0  0  0  0  0  0
   -6.0508   16.6640  -32.3503 H   0  0  0  0  0  0  0  0  0  0  0  0
   -6.1462   20.4506  -31.0606 H   0  0  0  0  0  0  0  0  0  0  0  0
   -4.8040   20.8470  -31.3380 H   0  0  0  0  0  0  0  0  0  0  0  0
   -1.8176   22.1551  -30.5867 H   0  0  0  0  0  0  0  0  0  0  0  0
    0.3721   21.7955  -31.7188 H   0  0  0  0  0  0  0  0  0  0  0  0
    3.8526   22.8909  -34.5502 H   0  0  0  0  0  0  0  0  0  0  0  0
    3.5276   21.1255  -34.8217 H   0  0  0  0  0  0  0  0  0  0  0  0
    4.5347   22.1960  -36.8152 H   0  0  0  0  0  0  0  0  0  0  0  0
    2.8430   21.5818  -37.1148 H   0  0  0  0  0  0  0  0  0  0  0  0
    2.3140   24.8478  -35.6264 H   0  0  0  0  0  0  0  0  0  0  0  0
    1.3242   24.6553  -37.1548 H   0  0  0  0  0  0  0  0  0  0  0  0
    0.2125   23.6106  -35.2181 H   0  0  0  0  0  0  0  0  0  0  0  0
    0.6787   22.4067  -36.4790 H   0  0  0  0  0  0  0  0  0  0  0  0
   -1.6842   20.3323  -35.2346 H   0  0  0  0  0  0  0  0  0  0  0  0
   -3.8764   20.6924  -34.1050 H   0  0  0  0  0  0  0  0  0  0  0  0
  1  2  2  0
  2  3  1  0
  3  4  1  0
  4  5  2  0
  5  6  1  0
  6  7  2  0
  7  8  1  0
  8  9  1  0
  9 10  2  0
  9 11  2  0
  9 12  1  0
 12 13  1  0
 13 14  1  0
 14 15  1  0
 15 16  1  0
  8 17  2  0
  2 18  1  0
 18 19  1  0
 19 20  2  0
 20 21  1  0
 21 22  2  0
 22 23  1  0
 23 24  2  0
 23 25  2  0
 23 26  1  0
 26 27  1  0
 27 28  1  0
 28 29  1  0
 29 30  1  0
 30 31  1  0
 22 32  1  0
 32 33  2  0
 17  4  1  0
 33 19  1  0
 16 12  1  0
 31 26  1  0
  5 34  1  0
  6 35  1  0
  7 36  1  0
 13 37  1  0
 13 38  1  0
 14 39  1  0
 14 40  1  0
 15 41  1  0
 15 42  1  0
 16 43  1  0
 16 44  1  0
 17 45  1  0
 18 46  1  0
 20 47  1  0
 21 48  1  0
 27 49  1  0
 27 50  1  0
 28 51  1  0
 28 52  1  0
 30 53  1  0
 30 54  1  0
 31 55  1  0
 31 56  1  0
 32 57  1  0
 33 58  1  0
M  CHG  1   3  -1
M  END
>  <UniqueID>  (39) 
39

>  <SMILES>  (39) 
O=C([N-]c1cccc(S(=O)(=O)N2CCCC2)c1)Nc1ccc(S(=O)(=O)N2CCOCC2)cc1

>  <Energy>  (39) 
79.34215938445152

>  <Genealogy>  (39) 
O=C([N-]c1cccc(S(=O)(=O)N2CCCC2)c1)Nc1ccc(S(=O)(=O)N2CCOCC2)cc1 (protonated)
O=C([N-]c1cccc(S(=O)(=O)N2CCCC2)c1)Nc1ccc(S(=O)(=O)N2CCOCC2)cc1 (3D coordinates assigned)
O=C([N-]c1cccc(S(=O)(=O)N2CCCC2)c1)Nc1ccc(S(=O)(=O)N2CCOCC2)cc1 (nonaromatic ring conformer: 79.34215938445152 kcal/mol)

>  <smiles>  (39) 
O=C(Nc1ccc(S(=O)(=O)N2CCOCC2)cc1)Nc1cccc(S(=O)(=O)N2CCCC2)c1

>  <score_type>  (39) 
oracle

>  <origin>  (39) 
adgpu

>  <m_score__min__energy>  (39) 
-11.630000000000001

>  <m_primary>  (39) 
energy

$$$$
39:0
     RDKit          3D

 57 61  0  0  0  0  0  0  0  0999 V2000
   -5.5830   25.0940  -28.7760 O   0  0  0  0  0  0  0  0  0  0  0  0
   -5.2230   25.0370  -30.2330 S   0  0  0  0  0  0  0  0  0  0  0  0
   -5.6700   26.3230  -30.8670 O   0  0  0  0  0  0  0  0  0  0  0  0
   -3.5020   24.9100  -30.4490 N   0  0  0  0  0  0  0  0  0  0  0  0
   -2.6270   23.9450  -29.8460 C   0  0  0  0  0  0  0  0  0  0  0  0
   -1.6980   24.4010  -28.8750 C   0  0  0  0  0  0  0  0  0  0  0  0
   -0.7830   23.5140  -28.2780 C   0  0  0  0  0  0  0  0  0  0  0  0
   -0.8340   22.1800  -28.6630 C   0  0  0  0  0  0  0  0  0  0  0  0
   -0.0460   21.1760  -28.2550 N   0  0  0  0  0  0  0  0  0  0  0  0
   -0.5260   20.1190  -28.9660 C   0  0  0  0  0  0  0  0  0  0  0  0
    0.0160   18.7920  -28.8470 N   0  0  0  0  0  0  0  0  0  0  0  0
   -0.1050   18.0680  -27.5720 C   0  0  0  0  0  0  0  0  0  0  0  0
    0.9970   17.0090  -27.4600 C   0  0  0  0  0  0  0  0  0  0  0  0
    1.0290   16.1950  -28.6160 O   0  0  0  0  0  0  0  0  0  0  0  0
    1.4140   16.9730  -29.7330 C   0  0  0  0  0  0  0  0  0  0  0  0
    0.3500   18.0270  -30.0540 C   0  0  0  0  0  0  0  0  0  0  0  0
   -1.5690   20.4170  -29.7880 N   0  0  0  0  0  0  0  0  0  0  0  0
   -1.7360   21.7290  -29.5780 C   0  0  0  0  0  0  0  0  0  0  0  0
   -2.6580   22.5760  -30.1870 C   0  0  0  0  0  0  0  0  0  0  0  0
   -6.0380   23.6800  -31.0180 C   0  0  0  0  0  0  0  0  0  0  0  0
   -7.4150   23.7330  -31.2830 C   0  0  0  0  0  0  0  0  0  0  0  0
   -8.0510   22.6600  -31.9120 C   0  0  0  0  0  0  0  0  0  0  0  0
   -7.3180   21.5310  -32.2850 C   0  0  0  0  0  0  0  0  0  0  0  0
   -5.9420   21.4710  -32.0310 C   0  0  0  0  0  0  0  0  0  0  0  0
   -5.0190   20.0570  -32.5340 S   0  0  0  0  0  0  0  0  0  0  0  0
   -5.1890   19.8290  -34.0120 O   0  0  0  0  0  0  0  0  0  0  0  0
   -5.5520   18.8570  -31.7990 O   0  0  0  0  0  0  0  0  0  0  0  0
   -3.3260   20.2900  -32.1530 N   0  0  0  0  0  0  0  0  0  0  0  0
   -2.5660   19.0510  -32.3550 C   0  0  0  0  0  0  0  0  0  0  0  0
   -2.0020   19.0820  -33.7670 C   0  0  0  0  0  0  0  0  0  0  0  0
   -2.0570   20.5380  -34.1960 C   0  0  0  0  0  0  0  0  0  0  0  0
   -2.7130   21.2860  -33.0440 C   0  0  0  0  0  0  0  0  0  0  0  0
   -5.3080   22.5430  -31.3890 C   0  0  0  0  0  0  0  0  0  0  0  0
   -1.6930   25.4621  -28.5851 H   0  0  0  0  0  0  0  0  0  0  0  0
   -0.0534   23.8643  -27.5331 H   0  0  0  0  0  0  0  0  0  0  0  0
   -0.0109   18.7802  -26.7390 H   0  0  0  0  0  0  0  0  0  0  0  0
   -1.0859   17.5719  -27.5319 H   0  0  0  0  0  0  0  0  0  0  0  0
    1.9692   17.5106  -27.3449 H   0  0  0  0  0  0  0  0  0  0  0  0
    0.7888   16.3737  -26.5865 H   0  0  0  0  0  0  0  0  0  0  0  0
    2.3658   17.4775  -29.5104 H   0  0  0  0  0  0  0  0  0  0  0  0
    1.5269   16.3094  -30.6030 H   0  0  0  0  0  0  0  0  0  0  0  0
    0.7369   18.7118  -30.8230 H   0  0  0  0  0  0  0  0  0  0  0  0
   -0.5557   17.5230  -30.4223 H   0  0  0  0  0  0  0  0  0  0  0  0
   -3.3890   22.1895  -30.9125 H   0  0  0  0  0  0  0  0  0  0  0  0
   -7.9952   24.6219  -30.9946 H   0  0  0  0  0  0  0  0  0  0  0  0
   -9.1314   22.7043  -32.1140 H   0  0  0  0  0  0  0  0  0  0  0  0
   -7.8224   20.6875  -32.7791 H   0  0  0  0  0  0  0  0  0  0  0  0
   -3.2500   20.5990  -31.1540 H   0  0  0  0  0  0  0  0  0  0  0  0
   -1.7456   18.9910  -31.6247 H   0  0  0  0  0  0  0  0  0  0  0  0
   -3.2147   18.1733  -32.2175 H   0  0  0  0  0  0  0  0  0  0  0  0
   -0.9638   18.7184  -33.7740 H   0  0  0  0  0  0  0  0  0  0  0  0
   -2.5737   18.4347  -34.4483 H   0  0  0  0  0  0  0  0  0  0  0  0
   -1.0422   20.9233  -34.3743 H   0  0  0  0  0  0  0  0  0  0  0  0
   -2.6204   20.6628  -35.1325 H   0  0  0  0  0  0  0  0  0  0  0  0
   -1.9561   21.8645  -32.4941 H   0  0  0  0  0  0  0  0  0  0  0  0
   -3.4747   21.9834  -33.4227 H   0  0  0  0  0  0  0  0  0  0  0  0
   -4.2303   22.4916  -31.1749 H   0  0  0  0  0  0  0  0  0  0  0  0
  1  2  2  0
  2  3  2  0
  2  4  1  0
  4  5  1  0
  5  6  2  0
  6  7  1  0
  7  8  2  0
  8  9  1  0
  9 10  1  0
 10 11  1  0
 11 12  1  0
 12 13  1  0
 13 14  1  0
 14 15  1  0
 15 16  1  0
 10 17  2  0
 17 18  1  0
 18 19  2  0
  2 20  1  0
 20 21  2  0
 21 22  1  0
 22 23  2  0
 23 24  1  0
 24 25  1  0
 25 26  2  0
 25 27  2  0
 25 28  1  0
 28 29  1  0
 29 30  1  0
 30 31  1  0
 31 32  1  0
 24 33  2  0
 19  5  1  0
 33 20  1  0
 18  8  1  0
 32 28  1  0
 16 11  1  0
  6 34  1  0
  7 35  1  0
 12 36  1  0
 12 37  1  0
 13 38  1  0
 13 39  1  0
 15 40  1  0
 15 41  1  0
 16 42  1  0
 16 43  1  0
 19 44  1  0
 21 45  1  0
 22 46  1  0
 23 47  1  0
 28 48  1  0
 29 49  1  0
 29 50  1  0
 30 51  1  0
 30 52  1  0
 31 53  1  0
 31 54  1  0
 32 55  1  0
 32 56  1  0
 33 57  1  0
M  CHG  3   4  -1   9  -1  28   1
M  END
>  <UniqueID>  (40) 
40

>  <SMILES>  (40) 
O=S(=O)([N-]c1ccc2[n-]c(N3CCOCC3)nc2c1)c1cccc(S(=O)(=O)[NH+]2CCCC2)c1

>  <Energy>  (40) 
103.1119508417495

>  <Genealogy>  (40) 
O=S(=O)([N-]c1ccc2[n-]c(N3CCOCC3)nc2c1)c1cccc(S(=O)(=O)[NH+]2CCCC2)c1 (protonated)
O=S(=O)([N-]c1ccc2[n-]c(N3CCOCC3)nc2c1)c1cccc(S(=O)(=O)[NH+]2CCCC2)c1 (3D coordinates assigned)
O=S(=O)([N-]c1ccc2[n-]c(N3CCOCC3)nc2c1)c1cccc(S(=O)(=O)[NH+]2CCCC2)c1 (nonaromatic ring conformer: 103.1119508417495 kcal/mol)

>  <smiles>  (40) 
O=S(=O)(Nc1ccc2[nH]c(N3CCOCC3)nc2c1)c1cccc(S(=O)(=O)N2CCCC2)c1

>  <score_type>  (40) 
oracle

>  <origin>  (40) 
adgpu

>  <m_score__min__energy>  (40) 
-11.69

>  <m_primary>  (40) 
energy

$$$$
40:0
     RDKit          3D

 48 51  0  0  0  0  0  0  0  0999 V2000
   -6.0720   26.1450  -29.9830 O   0  0  0  0  0  0  0  0  0  0  0  0
   -5.2810   25.2000  -30.2490 C   0  0  0  0  0  0  0  0  0  0  0  0
   -5.8270   23.8540  -30.6010 C   0  0  0  0  0  0  0  0  0  0  0  0
   -5.3530   23.3910  -32.3050 S   0  0  0  0  0  0  0  0  0  0  0  0
   -6.1320   21.7780  -32.2350 C   0  0  0  0  0  0  0  0  0  0  0  0
   -5.4870   20.6390  -32.5980 N   0  0  0  0  0  0  0  0  0  0  0  0
   -6.4340   19.7070  -32.4200 C   0  0  0  0  0  0  0  0  0  0  0  0
   -6.3360   18.3370  -32.6530 C   0  0  0  0  0  0  0  0  0  0  0  0
   -7.4770   17.5490  -32.4100 C   0  0  0  0  0  0  0  0  0  0  0  0
   -8.6710   18.1450  -31.9430 C   0  0  0  0  0  0  0  0  0  0  0  0
   -8.7330   19.5340  -31.7180 C   0  0  0  0  0  0  0  0  0  0  0  0
   -7.5830   20.2820  -31.9730 C   0  0  0  0  0  0  0  0  0  0  0  0
   -7.4200   21.6060  -31.8420 N   0  0  0  0  0  0  0  0  0  0  0  0
   -3.8620   25.4030  -30.2360 N   0  0  0  0  0  0  0  0  0  0  0  0
   -2.8770   24.4890  -29.7330 C   0  0  0  0  0  0  0  0  0  0  0  0
   -2.1940   24.7190  -28.5240 C   0  0  0  0  0  0  0  0  0  0  0  0
   -1.2700   23.7840  -28.0520 C   0  0  0  0  0  0  0  0  0  0  0  0
   -1.0360   22.6060  -28.7640 C   0  0  0  0  0  0  0  0  0  0  0  0
   -1.7400   22.3470  -29.9490 C   0  0  0  0  0  0  0  0  0  0  0  0
   -1.4860   20.8370  -30.8260 S   0  0  0  0  0  0  0  0  0  0  0  0
   -0.1080   20.8620  -31.4340 O   0  0  0  0  0  0  0  0  0  0  0  0
   -1.5340   19.6910  -29.8540 O   0  0  0  0  0  0  0  0  0  0  0  0
   -2.6650   20.5720  -32.1010 N   0  0  0  0  0  0  0  0  0  0  0  0
   -2.8320   19.1340  -32.4230 C   0  0  0  0  0  0  0  0  0  0  0  0
   -2.0490   18.7030  -33.6760 C   0  0  0  0  0  0  0  0  0  0  0  0
   -0.9050   19.5070  -33.8510 O   0  0  0  0  0  0  0  0  0  0  0  0
   -1.2930   20.8190  -34.2080 C   0  0  0  0  0  0  0  0  0  0  0  0
   -2.3970   21.4030  -33.2950 C   0  0  0  0  0  0  0  0  0  0  0  0
   -2.6540   23.2940  -30.4300 C   0  0  0  0  0  0  0  0  0  0  0  0
   -5.4272   23.1072  -29.8993 H   0  0  0  0  0  0  0  0  0  0  0  0
   -6.9245   23.8891  -30.5360 H   0  0  0  0  0  0  0  0  0  0  0  0
   -5.3997   17.8867  -33.0143 H   0  0  0  0  0  0  0  0  0  0  0  0
   -7.4394   16.4636  -32.5844 H   0  0  0  0  0  0  0  0  0  0  0  0
   -9.5566   17.5204  -31.7543 H   0  0  0  0  0  0  0  0  0  0  0  0
   -9.6547   20.0118  -31.3544 H   0  0  0  0  0  0  0  0  0  0  0  0
   -2.3883   25.6369  -27.9498 H   0  0  0  0  0  0  0  0  0  0  0  0
   -0.7248   23.9764  -27.1162 H   0  0  0  0  0  0  0  0  0  0  0  0
   -0.2976   21.8792  -28.3946 H   0  0  0  0  0  0  0  0  0  0  0  0
   -3.5740   20.9060  -31.7000 H   0  0  0  0  0  0  0  0  0  0  0  0
   -2.4786   18.5399  -31.5673 H   0  0  0  0  0  0  0  0  0  0  0  0
   -3.8994   18.9647  -32.6278 H   0  0  0  0  0  0  0  0  0  0  0  0
   -1.7389   17.6535  -33.5644 H   0  0  0  0  0  0  0  0  0  0  0  0
   -2.6993   18.8180  -34.5557 H   0  0  0  0  0  0  0  0  0  0  0  0
   -0.4099   21.4721  -34.1487 H   0  0  0  0  0  0  0  0  0  0  0  0
   -1.7061   20.7698  -35.2263 H   0  0  0  0  0  0  0  0  0  0  0  0
   -2.0824   22.4030  -32.9617 H   0  0  0  0  0  0  0  0  0  0  0  0
   -3.3249   21.4373  -33.8847 H   0  0  0  0  0  0  0  0  0  0  0  0
   -3.2016   23.0975  -31.3635 H   0  0  0  0  0  0  0  0  0  0  0  0
  1  2  2  0
  2  3  1  0
  3  4  1  0
  4  5  1  0
  5  6  2  0
  6  7  1  0
  7  8  2  0
  8  9  1  0
  9 10  2  0
 10 11  1  0
 11 12  2  0
 12 13  1  0
  2 14  1  0
 14 15  1  0
 15 16  2  0
 16 17  1  0
 17 18  2  0
 18 19  1  0
 19 20  1  0
 20 21  2  0
 20 22  2  0
 20 23  1  0
 23 24  1  0
 24 25  1  0
 25 26  1  0
 26 27  1  0
 27 28  1  0
 19 29  2  0
 13  5  1  0
 29 15  1  0
 12  7  1  0
 28 23  1  0
  3 30  1  0
  3 31  1  0
  8 32  1  0
  9 33  1  0
 10 34  1  0
 11 35  1  0
 16 36  1  0
 17 37  1  0
 18 38  1  0
 23 39  1  0
 24 40  1  0
 24 41  1  0
 25 42  1  0
 25 43  1  0
 27 44  1  0
 27 45  1  0
 28 46  1  0
 28 47  1  0
 29 48  1  0
M  CHG  3  13  -1  14  -1  23   1
M  END
>  <UniqueID>  (41) 
41

>  <SMILES>  (41) 
O=C(CSc1nc2ccccc2[n-]1)[N-]c1cccc(S(=O)(=O)[NH+]2CCOCC2)c1

>  <Energy>  (41) 
94.49984450346385

>  <Genealogy>  (41) 
O=C(CSc1nc2ccccc2[n-]1)[N-]c1cccc(S(=O)(=O)[NH+]2CCOCC2)c1 (protonated)
O=C(CSc1nc2ccccc2[n-]1)[N-]c1cccc(S(=O)(=O)[NH+]2CCOCC2)c1 (3D coordinates assigned)
O=C(CSc1nc2ccccc2[n-]1)[N-]c1cccc(S(=O)(=O)[NH+]2CCOCC2)c1 (nonaromatic ring conformer: 94.49984450346385 kcal/mol)

>  <smiles>  (41) 
O=C(CSc1nc2ccccc2[nH]1)Nc1cccc(S(=O)(=O)N2CCOCC2)c1

>  <score_type>  (41) 
oracle

>  <origin>  (41) 
adgpu

>  <m_score__min__energy>  (41) 
-11.4

>  <m_primary>  (41) 
energy

$$$$
41:0
     RDKit          3D

 83 88  0  0  0  0  0  0  0  0999 V2000
   -3.3090   21.7880  -32.5090 C   0  0  0  0  0  0  0  0  0  0  0  0
   -2.4180   20.7810  -31.8990 N   0  0  0  0  0  0  0  0  0  0  0  0
   -1.9790   19.7160  -32.6540 C   0  0  0  0  0  0  0  0  0  0  0  0
   -2.2860   19.6290  -33.8750 O   0  0  0  0  0  0  0  0  0  0  0  0
   -1.1580   18.7210  -32.0900 C   0  0  0  0  0  0  0  0  0  0  0  0
   -0.7020   17.6190  -32.8320 O   0  0  0  0  0  0  0  0  0  0  0  0
   -0.1050   17.7010  -34.0990 C   0  0  0  0  0  0  0  0  0  0  0  0
    0.9670   18.5840  -34.3260 C   0  0  0  0  0  0  0  0  0  0  0  0
    1.5110   18.7270  -35.6020 C   0  0  0  0  0  0  0  0  0  0  0  0
    0.9810   18.0060  -36.6700 C   0  0  0  0  0  0  0  0  0  0  0  0
   -0.0830   17.1270  -36.4610 C   0  0  0  0  0  0  0  0  0  0  0  0
   -0.6200   16.9480  -35.1790 C   0  0  0  0  0  0  0  0  0  0  0  0
   -1.7080   16.0240  -35.0280 N   0  0  0  0  0  0  0  0  0  0  0  0
   -3.1080   16.3260  -35.0950 C   0  0  0  0  0  0  0  0  0  0  0  0
   -3.6890   16.4280  -36.2070 O   0  0  0  0  0  0  0  0  0  0  0  0
   -3.8740   16.5860  -33.8640 C   0  0  0  0  0  0  0  0  0  0  0  0
   -4.7750   17.5690  -33.7720 C   0  0  0  0  0  0  0  0  0  0  0  0
   -5.5970   17.7670  -32.5180 C   0  0  0  0  0  0  0  0  0  0  0  0
   -7.1050   17.5580  -32.8170 C   0  0  0  0  0  0  0  0  0  0  0  0
   -7.9820   18.5680  -32.0740 C   0  0  0  0  0  0  0  0  0  0  0  0
   -7.6500   19.9500  -32.4820 N   0  0  0  0  0  0  0  0  0  0  0  0
   -8.3940   20.9270  -31.6620 C   0  0  0  0  0  0  0  0  0  0  0  0
   -7.5200   22.1130  -31.3430 C   0  0  0  0  0  0  0  0  0  0  0  0
   -7.1810   23.0210  -32.3550 C   0  0  0  0  0  0  0  0  0  0  0  0
   -6.3380   24.1030  -32.0810 C   0  0  0  0  0  0  0  0  0  0  0  0
   -5.8170   24.2920  -30.7890 C   0  0  0  0  0  0  0  0  0  0  0  0
   -4.9140   25.4290  -30.5060 C   0  0  0  0  0  0  0  0  0  0  0  0
   -5.3810   26.5810  -30.2900 O   0  0  0  0  0  0  0  0  0  0  0  0
   -3.5380   25.2440  -30.4740 O   0  0  0  0  0  0  0  0  0  0  0  0
   -6.1680   23.3840  -29.7740 C   0  0  0  0  0  0  0  0  0  0  0  0
   -7.0130   22.3050  -30.0490 C   0  0  0  0  0  0  0  0  0  0  0  0
   -6.1890   20.2430  -32.5300 C   0  0  0  0  0  0  0  0  0  0  0  0
   -5.3190   19.1500  -31.8880 C   0  0  0  0  0  0  0  0  0  0  0  0
   -0.7450   18.8490  -30.7710 C   0  0  0  0  0  0  0  0  0  0  0  0
   -1.1690   19.9320  -30.0040 C   0  0  0  0  0  0  0  0  0  0  0  0
   -0.7560   20.0480  -28.6710 C   0  0  0  0  0  0  0  0  0  0  0  0
   -1.1620   21.1340  -27.8970 C   0  0  0  0  0  0  0  0  0  0  0  0
   -1.9900   22.1300  -28.4400 C   0  0  0  0  0  0  0  0  0  0  0  0
   -2.3980   23.2630  -27.6390 N   0  0  0  0  0  0  0  0  0  0  0  0
   -1.5120   23.8030  -26.5980 C   0  0  0  0  0  0  0  0  0  0  0  0
   -1.8160   25.2880  -26.3670 C   0  0  0  0  0  0  0  0  0  0  0  0
   -3.2250   25.5310  -26.0060 N   0  0  0  0  0  0  0  0  0  0  0  0
   -4.1930   24.5650  -26.5630 C   0  0  0  0  0  0  0  0  0  0  0  0
   -3.7040   23.8990  -27.8560 C   0  0  0  0  0  0  0  0  0  0  0  0
   -2.4110   22.0100  -29.7780 C   0  0  0  0  0  0  0  0  0  0  0  0
   -2.0170   20.9100  -30.5810 C   0  0  0  0  0  0  0  0  0  0  0  0
   -3.8142   22.3590  -31.7160 H   0  0  0  0  0  0  0  0  0  0  0  0
   -2.7157   22.4728  -33.1327 H   0  0  0  0  0  0  0  0  0  0  0  0
   -4.0610   21.2825  -33.1327 H   0  0  0  0  0  0  0  0  0  0  0  0
    1.3796   19.1667  -33.4892 H   0  0  0  0  0  0  0  0  0  0  0  0
    2.3585   19.4090  -35.7654 H   0  0  0  0  0  0  0  0  0  0  0  0
    1.4015   18.1296  -37.6789 H   0  0  0  0  0  0  0  0  0  0  0  0
   -0.5040   16.5695  -37.3107 H   0  0  0  0  0  0  0  0  0  0  0  0
   -3.6977   15.9465  -32.9865 H   0  0  0  0  0  0  0  0  0  0  0  0
   -4.9216   18.2475  -34.6253 H   0  0  0  0  0  0  0  0  0  0  0  0
   -5.2979   17.0092  -31.7789 H   0  0  0  0  0  0  0  0  0  0  0  0
   -7.2716   17.6709  -33.8984 H   0  0  0  0  0  0  0  0  0  0  0  0
   -7.3828   16.5502  -32.4747 H   0  0  0  0  0  0  0  0  0  0  0  0
   -9.0385   18.3674  -32.3053 H   0  0  0  0  0  0  0  0  0  0  0  0
   -7.8010   18.4655  -30.9938 H   0  0  0  0  0  0  0  0  0  0  0  0
   -9.2799   21.2678  -32.2179 H   0  0  0  0  0  0  0  0  0  0  0  0
   -8.7020   20.4455  -30.7222 H   0  0  0  0  0  0  0  0  0  0  0  0
   -7.5801   22.8821  -33.3706 H   0  0  0  0  0  0  0  0  0  0  0  0
   -6.0808   24.8113  -32.8824 H   0  0  0  0  0  0  0  0  0  0  0  0
   -5.7747   23.5239  -28.7563 H   0  0  0  0  0  0  0  0  0  0  0  0
   -7.2820   21.6025  -29.2464 H   0  0  0  0  0  0  0  0  0  0  0  0
   -5.8906   20.3506  -33.5833 H   0  0  0  0  0  0  0  0  0  0  0  0
   -6.0264   21.1647  -31.9520 H   0  0  0  0  0  0  0  0  0  0  0  0
   -4.2588   19.4039  -32.0350 H   0  0  0  0  0  0  0  0  0  0  0  0
   -5.5625   19.0980  -30.8166 H   0  0  0  0  0  0  0  0  0  0  0  0
   -0.0801   18.0921  -30.3294 H   0  0  0  0  0  0  0  0  0  0  0  0
   -0.1065   19.2766  -28.2315 H   0  0  0  0  0  0  0  0  0  0  0  0
   -0.8307   21.2116  -26.8510 H   0  0  0  0  0  0  0  0  0  0  0  0
   -1.6711   23.2489  -25.6612 H   0  0  0  0  0  0  0  0  0  0  0  0
   -0.4666   23.6954  -26.9230 H   0  0  0  0  0  0  0  0  0  0  0  0
   -1.1754   25.6557  -25.5519 H   0  0  0  0  0  0  0  0  0  0  0  0
   -1.6185   25.8182  -27.3103 H   0  0  0  0  0  0  0  0  0  0  0  0
   -3.4790   26.4910  -26.3420 H   0  0  0  0  0  0  0  0  0  0  0  0
   -4.3760   23.7812  -25.8132 H   0  0  0  0  0  0  0  0  0  0  0  0
   -5.1087   25.1231  -26.8080 H   0  0  0  0  0  0  0  0  0  0  0  0
   -4.4318   23.1359  -28.1689 H   0  0  0  0  0  0  0  0  0  0  0  0
   -3.6031   24.6662  -28.6378 H   0  0  0  0  0  0  0  0  0  0  0  0
   -3.0596   22.7864  -30.2098 H   0  0  0  0  0  0  0  0  0  0  0  0
  1  2  1  0
  2  3  1  0
  3  4  2  0
  3  5  1  0
  5  6  1  0
  6  7  1  0
  7  8  2  0
  8  9  1  0
  9 10  2  0
 10 11  1  0
 11 12  2  0
 12 13  1  0
 13 14  1  0
 14 15  2  0
 14 16  1  0
 16 17  2  3
 17 18  1  0
 18 19  1  0
 19 20  1  0
 20 21  1  0
 21 22  1  0
 22 23  1  0
 23 24  2  0
 24 25  1  0
 25 26  2  0
 26 27  1  0
 27 28  2  0
 27 29  1  0
 26 30  1  0
 30 31  2  0
 21 32  1  0
 32 33  1  0
  5 34  2  0
 34 35  1  0
 35 36  2  0
 36 37  1  0
 37 38  2  0
 38 39  1  0
 39 40  1  0
 40 41  1  0
 41 42  1  0
 42 43  1  0
 43 44  1  0
 38 45  1  0
 45 46  2  0
 46  2  1  0
 12  7  1  0
 33 18  1  0
 46 35  1  0
 31 23  1  0
 44 39  1  0
  1 47  1  0
  1 48  1  0
  1 49  1  0
  8 50  1  0
  9 51  1  0
 10 52  1  0
 11 53  1  0
 16 54  1  0
 17 55  1  0
 18 56  1  0
 19 57  1  0
 19 58  1  0
 20 59  1  0
 20 60  1  0
 22 61  1  0
 22 62  1  0
 24 63  1  0
 25 64  1  0
 30 65  1  0
 31 66  1  0
 32 67  1  0
 32 68  1  0
 33 69  1  0
 33 70  1  0
 34 71  1  0
 36 72  1  0
 37 73  1  0
 40 74  1  0
 40 75  1  0
 41 76  1  0
 41 77  1  0
 42 78  1  0
 43 79  1  0
 43 80  1  0
 44 81  1  0
 44 82  1  0
 45 83  1  0
M  CHG  2  13  -1  29  -1
M  END
>  <UniqueID>  (42) 
42

>  <SMILES>  (42) 
Cn1c(=O)c(Oc2ccccc2[N-]C(=O)C=CC2CCN(Cc3ccc(C(=O)[O-])cc3)CC2)cc2ccc(N3CCNCC3)cc21

>  <Energy>  (42) 
127.07491603853228

>  <Genealogy>  (42) 
Cn1c(=O)c(Oc2ccccc2[N-]C(=O)C=CC2CCN(Cc3ccc(C(=O)[O-])cc3)CC2)cc2ccc(N3CCNCC3)cc21 (protonated)
Cn1c(=O)c(Oc2ccccc2[N-]C(=O)C=CC2CCN(Cc3ccc(C(=O)[O-])cc3)CC2)cc2ccc(N3CCNCC3)cc21 (3D coordinates assigned)
Cn1c(=O)c(Oc2ccccc2[N-]C(=O)C=CC2CCN(Cc3ccc(C(=O)[O-])cc3)CC2)cc2ccc(N3CCNCC3)cc21 (nonaromatic ring conformer: 127.07491603853228 kcal/mol)

>  <smiles>  (42) 
Cn1c(=O)c(Oc2ccccc2NC(=O)C=CC2CCN(Cc3ccc(C(=O)O)cc3)CC2)cc2ccc(N3CCNCC3)cc21

>  <score_type>  (42) 
oracle

>  <origin>  (42) 
adgpu

>  <m_score__min__energy>  (42) 
-12.83

>  <m_primary>  (42) 
energy

$$$$
42:0
     RDKit          3D

 39 41  0  0  0  0  0  0  0  0999 V2000
   -5.2040   25.3650  -30.8010 C   0  0  0  0  0  0  0  0  0  0  0  0
   -3.8480   25.0980  -30.4630 O   0  0  0  0  0  0  0  0  0  0  0  0
   -3.4780   24.1840  -29.4700 C   0  0  0  0  0  0  0  0  0  0  0  0
   -3.3270   24.4500  -28.1230 C   0  0  0  0  0  0  0  0  0  0  0  0
   -2.9030   23.2500  -27.5880 C   0  0  0  0  0  0  0  0  0  0  0  0
   -2.8100   22.3230  -28.5620 N   0  0  0  0  0  0  0  0  0  0  0  0
   -3.1710   22.8910  -29.7040 N   0  0  0  0  0  0  0  0  0  0  0  0
   -3.1790   22.1960  -30.9640 C   0  0  0  0  0  0  0  0  0  0  0  0
   -1.9790   21.8490  -31.6110 C   0  0  0  0  0  0  0  0  0  0  0  0
   -2.0070   21.1730  -32.8330 C   0  0  0  0  0  0  0  0  0  0  0  0
   -3.2280   20.8530  -33.4310 C   0  0  0  0  0  0  0  0  0  0  0  0
   -4.4310   21.2220  -32.8220 C   0  0  0  0  0  0  0  0  0  0  0  0
   -5.6360   20.8760  -33.4500 O   0  0  0  0  0  0  0  0  0  0  0  0
   -6.7820   20.3860  -32.8030 C   0  0  0  0  0  0  0  0  0  0  0  0
   -7.6120   21.2310  -32.0470 C   0  0  0  0  0  0  0  0  0  0  0  0
   -8.7540   20.7120  -31.4400 C   0  0  0  0  0  0  0  0  0  0  0  0
   -9.0700   19.4000  -31.5920 N   0  0  0  0  0  0  0  0  0  0  0  0
   -8.2970   18.5600  -32.3280 C   0  0  0  0  0  0  0  0  0  0  0  0
   -7.1350   19.0340  -32.9530 C   0  0  0  0  0  0  0  0  0  0  0  0
   -6.1360   17.9440  -33.9170 S   0  0  0  0  0  0  0  0  0  0  0  0
   -4.5840   17.6720  -33.0900 C   0  0  0  0  0  0  0  0  0  0  0  0
   -5.8710   18.5430  -35.2700 O   0  0  0  0  0  0  0  0  0  0  0  0
   -6.8510   16.6350  -34.0990 O   0  0  0  0  0  0  0  0  0  0  0  0
   -4.4020   21.8830  -31.5810 C   0  0  0  0  0  0  0  0  0  0  0  0
   -5.7952   25.4814  -29.8807 H   0  0  0  0  0  0  0  0  0  0  0  0
   -5.2591   26.2912  -31.3918 H   0  0  0  0  0  0  0  0  0  0  0  0
   -5.6061   24.5288  -31.3918 H   0  0  0  0  0  0  0  0  0  0  0  0
   -3.5040   25.3999  -27.5973 H   0  0  0  0  0  0  0  0  0  0  0  0
   -2.6752   23.0764  -26.5259 H   0  0  0  0  0  0  0  0  0  0  0  0
   -1.0141   22.1113  -31.1524 H   0  0  0  0  0  0  0  0  0  0  0  0
   -1.0646   20.8918  -33.3259 H   0  0  0  0  0  0  0  0  0  0  0  0
   -3.2431   20.3077  -34.3862 H   0  0  0  0  0  0  0  0  0  0  0  0
   -7.3617   22.2963  -31.9349 H   0  0  0  0  0  0  0  0  0  0  0  0
   -9.4006   21.3662  -30.8367 H   0  0  0  0  0  0  0  0  0  0  0  0
   -8.5839   17.5034  -32.4341 H   0  0  0  0  0  0  0  0  0  0  0  0
   -4.7390   17.6992  -32.0013 H   0  0  0  0  0  0  0  0  0  0  0  0
   -4.1819   16.6897  -33.3787 H   0  0  0  0  0  0  0  0  0  0  0  0
   -3.8718   18.4590  -33.3787 H   0  0  0  0  0  0  0  0  0  0  0  0
   -5.3463   22.1578  -31.0883 H   0  0  0  0  0  0  0  0  0  0  0  0
  1  2  1  0
  2  3  1  0
  3  4  2  0
  4  5  1  0
  5  6  2  0
  6  7  1  0
  7  8  1  0
  8  9  2  0
  9 10  1  0
 10 11  2  0
 11 12  1  0
 12 13  1  0
 13 14  1  0
 14 15  2  0
 15 16  1  0
 16 17  2  0
 17 18  1  0
 18 19  2  0
 19 20  1  0
 20 21  1  0
 20 22  2  0
 20 23  2  0
 12 24  2  0
  7  3  1  0
 24  8  1  0
 19 14  1  0
  1 25  1  0
  1 26  1  0
  1 27  1  0
  4 28  1  0
  5 29  1  0
  9 30  1  0
 10 31  1  0
 11 32  1  0
 15 33  1  0
 16 34  1  0
 18 35  1  0
 21 36  1  0
 21 37  1  0
 21 38  1  0
 24 39  1  0
M  END
>  <UniqueID>  (43) 
43

>  <SMILES>  (43) 
COc1ccnn1-c1cccc(Oc2ccncc2S(C)(=O)=O)c1

>  <Energy>  (43) 
78.75143049213337

>  <Genealogy>  (43) 
COc1ccnn1-c1cccc(Oc2ccncc2S(C)(=O)=O)c1 (3D coordinates assigned)
COc1ccnn1-c1cccc(Oc2ccncc2S(C)(=O)=O)c1 (optimized conformer: 78.75143049213337 kcal/mol)

>  <smiles>  (43) 
COc1ccnn1-c1cccc(Oc2ccncc2S(C)(=O)=O)c1

>  <score_type>  (43) 
oracle

>  <origin>  (43) 
adgpu

>  <m_score__min__energy>  (43) 
-8.3900000000000006

>  <m_primary>  (43) 
energy

$$$$
43:0
     RDKit          3D

 54 57  0  0  0  0  0  0  0  0999 V2000
   -6.0630   17.0870  -31.4030 C   0  0  0  0  0  0  0  0  0  0  0  0
   -5.4320   16.6840  -32.5100 C   0  0  0  0  0  0  0  0  0  0  0  0
   -4.6010   17.6230  -33.3360 C   0  0  0  0  0  0  0  0  0  0  0  0
   -5.6290   18.4980  -34.5660 S   0  0  0  0  0  0  0  0  0  0  0  0
   -5.9550   19.9020  -33.4990 C   0  0  0  0  0  0  0  0  0  0  0  0
   -5.0680   20.9190  -33.3410 N   0  0  0  0  0  0  0  0  0  0  0  0
   -5.6760   21.7100  -32.4390 C   0  0  0  0  0  0  0  0  0  0  0  0
   -5.1840   22.8810  -31.8720 C   0  0  0  0  0  0  0  0  0  0  0  0
   -5.9540   23.5040  -30.8670 C   0  0  0  0  0  0  0  0  0  0  0  0
   -5.3330   24.9470  -30.0680 S   0  0  0  0  0  0  0  0  0  0  0  0
   -4.2190   25.5380  -30.8850 O   0  0  0  0  0  0  0  0  0  0  0  0
   -6.4270   25.9680  -29.9390 O   0  0  0  0  0  0  0  0  0  0  0  0
   -4.7550   24.5390  -28.4890 N   0  0  0  0  0  0  0  0  0  0  0  0
   -3.6290   23.6740  -28.3380 C   0  0  0  0  0  0  0  0  0  0  0  0
   -3.8100   22.3960  -27.7970 C   0  0  0  0  0  0  0  0  0  0  0  0
   -2.7410   21.4920  -27.7250 C   0  0  0  0  0  0  0  0  0  0  0  0
   -1.4700   21.8770  -28.2170 C   0  0  0  0  0  0  0  0  0  0  0  0
   -1.2850   23.1780  -28.7090 C   0  0  0  0  0  0  0  0  0  0  0  0
   -2.3570   24.0730  -28.7810 C   0  0  0  0  0  0  0  0  0  0  0  0
   -2.1340   25.3490  -29.2980 O   0  0  0  0  0  0  0  0  0  0  0  0
   -0.2740   20.9560  -28.1280 C   0  0  0  0  0  0  0  0  0  0  0  0
   -0.6760   19.4840  -27.9760 C   0  0  0  0  0  0  0  0  0  0  0  0
   -1.7270   19.3300  -26.8770 C   0  0  0  0  0  0  0  0  0  0  0  0
   -3.0100   20.0800  -27.2580 C   0  0  0  0  0  0  0  0  0  0  0  0
   -7.1930   22.9410  -30.4720 C   0  0  0  0  0  0  0  0  0  0  0  0
   -7.6680   21.7640  -31.0770 C   0  0  0  0  0  0  0  0  0  0  0  0
   -6.8760   21.1750  -32.0610 C   0  0  0  0  0  0  0  0  0  0  0  0
   -7.0770   20.0380  -32.7460 N   0  0  0  0  0  0  0  0  0  0  0  0
   -8.1790   19.0800  -32.6010 C   0  0  0  0  0  0  0  0  0  0  0  0
   -9.5220   19.7900  -32.7390 C   0  0  0  0  0  0  0  0  0  0  0  0
   -6.6637   16.3724  -30.8213 H   0  0  0  0  0  0  0  0  0  0  0  0
   -5.9816   18.1333  -31.0736 H   0  0  0  0  0  0  0  0  0  0  0  0
   -5.5241   15.6341  -32.8251 H   0  0  0  0  0  0  0  0  0  0  0  0
   -4.1267   18.3616  -32.6730 H   0  0  0  0  0  0  0  0  0  0  0  0
   -3.8377   17.0379  -33.8700 H   0  0  0  0  0  0  0  0  0  0  0  0
   -4.2240   23.3083  -32.1971 H   0  0  0  0  0  0  0  0  0  0  0  0
   -4.8011   22.0979  -27.4245 H   0  0  0  0  0  0  0  0  0  0  0  0
   -0.2862   23.4972  -29.0415 H   0  0  0  0  0  0  0  0  0  0  0  0
   -2.8660   26.0470  -29.3470 H   0  0  0  0  0  0  0  0  0  0  0  0
    0.3244   21.0654  -29.0445 H   0  0  0  0  0  0  0  0  0  0  0  0
    0.3002   21.2396  -27.2337 H   0  0  0  0  0  0  0  0  0  0  0  0
   -1.0911   19.1214  -28.9280 H   0  0  0  0  0  0  0  0  0  0  0  0
    0.2137   18.8972  -27.7039 H   0  0  0  0  0  0  0  0  0  0  0  0
   -1.9571   18.2628  -26.7420 H   0  0  0  0  0  0  0  0  0  0  0  0
   -1.3307   19.7515  -25.9414 H   0  0  0  0  0  0  0  0  0  0  0  0
   -3.5118   19.5306  -28.0681 H   0  0  0  0  0  0  0  0  0  0  0  0
   -3.6399   20.1410  -26.3583 H   0  0  0  0  0  0  0  0  0  0  0  0
   -7.7879   23.4287  -29.6857 H   0  0  0  0  0  0  0  0  0  0  0  0
   -8.6321   21.3230  -30.7836 H   0  0  0  0  0  0  0  0  0  0  0  0
   -8.0945   18.3094  -33.3814 H   0  0  0  0  0  0  0  0  0  0  0  0
   -8.1207   18.6170  -31.6049 H   0  0  0  0  0  0  0  0  0  0  0  0
   -9.9278   20.0045  -31.7393 H   0  0  0  0  0  0  0  0  0  0  0  0
   -9.3836   20.7328  -33.2886 H   0  0  0  0  0  0  0  0  0  0  0  0
  -10.2231   19.1447  -33.2886 H   0  0  0  0  0  0  0  0  0  0  0  0
  1  2  2  0
  2  3  1  0
  3  4  1  0
  4  5  1  0
  5  6  2  0
  6  7  1  0
  7  8  2  0
  8  9  1  0
  9 10  1  0
 10 11  2  0
 10 12  2  0
 10 13  1  0
 13 14  1  0
 14 15  2  0
 15 16  1  0
 16 17  2  0
 17 18  1  0
 18 19  2  0
 19 20  1  0
 17 21  1  0
 21 22  1  0
 22 23  1  0
 23 24  1  0
  9 25  2  0
 25 26  1  0
 26 27  2  0
 27 28  1  0
 28 29  1  0
 29 30  1  0
 28  5  1  0
 27  7  1  0
 19 14  1  0
 24 16  1  0
  1 31  1  0
  1 32  1  0
  2 33  1  0
  3 34  1  0
  3 35  1  0
  8 36  1  0
 15 37  1  0
 18 38  1  0
 20 39  1  0
 21 40  1  0
 21 41  1  0
 22 42  1  0
 22 43  1  0
 23 44  1  0
 23 45  1  0
 24 46  1  0
 24 47  1  0
 25 48  1  0
 26 49  1  0
 29 50  1  0
 29 51  1  0
 30 52  1  0
 30 53  1  0
 30 54  1  0
M  CHG  1  13  -1
M  END
>  <UniqueID>  (44) 
44

>  <SMILES>  (44) 
C=CCSc1nc2cc(S(=O)(=O)[N-]c3cc4c(cc3O)CCCC4)ccc2n1CC

>  <Energy>  (44) 
91.5923003785201

>  <Genealogy>  (44) 
C=CCSc1nc2cc(S(=O)(=O)[N-]c3cc4c(cc3O)CCCC4)ccc2n1CC (protonated)
C=CCSc1nc2cc(S(=O)(=O)[N-]c3cc4c(cc3O)CCCC4)ccc2n1CC (3D coordinates assigned)
C=CCSc1nc2cc(S(=O)(=O)[N-]c3cc4c(cc3O)CCCC4)ccc2n1CC (nonaromatic ring conformer: 91.5923003785201 kcal/mol)

>  <smiles>  (44) 
C=CCSc1nc2cc(S(=O)(=O)Nc3cc4c(cc3O)CCCC4)ccc2n1CC

>  <score_type>  (44) 
oracle

>  <origin>  (44) 
adgpu

>  <m_score__min__energy>  (44) 
-13.460000000000001

>  <m_primary>  (44) 
energy

$$$$
44:0
     RDKit          3D

 57 60  0  0  0  0  0  0  0  0999 V2000
   -3.9830   15.8290  -33.6500 C   0  0  0  0  0  0  0  0  0  0  0  0
   -4.5580   17.0540  -34.2880 C   0  0  0  0  0  0  0  0  0  0  0  0
   -4.1940   17.3560  -35.4550 O   0  0  0  0  0  0  0  0  0  0  0  0
   -5.5390   17.8700  -33.6240 N   0  0  0  0  0  0  0  0  0  0  0  0
   -6.9020   17.4090  -33.3500 C   0  0  0  0  0  0  0  0  0  0  0  0
   -7.5380   18.4700  -32.4220 C   0  0  0  0  0  0  0  0  0  0  0  0
   -6.4810   19.5110  -32.3150 C   0  0  0  0  0  0  0  0  0  0  0  0
   -6.5590   20.7390  -31.6560 C   0  0  0  0  0  0  0  0  0  0  0  0
   -5.4640   21.6170  -31.7330 C   0  0  0  0  0  0  0  0  0  0  0  0
   -5.5270   23.1590  -30.8890 S   0  0  0  0  0  0  0  0  0  0  0  0
   -6.7740   23.2140  -30.0510 O   0  0  0  0  0  0  0  0  0  0  0  0
   -5.5710   24.2970  -31.8700 O   0  0  0  0  0  0  0  0  0  0  0  0
   -4.0930   23.3120  -29.8730 C   0  0  0  0  0  0  0  0  0  0  0  0
   -3.6000   22.1920  -29.1840 C   0  0  0  0  0  0  0  0  0  0  0  0
   -2.4520   22.2980  -28.3880 C   0  0  0  0  0  0  0  0  0  0  0  0
   -1.8520   20.9010  -27.4970 S   0  0  0  0  0  0  0  0  0  0  0  0
   -2.9350   19.8590  -27.4420 O   0  0  0  0  0  0  0  0  0  0  0  0
   -1.5060   21.3040  -26.0890 O   0  0  0  0  0  0  0  0  0  0  0  0
   -0.4420   20.2450  -28.2960 N   0  0  0  0  0  0  0  0  0  0  0  0
   -0.6250   18.7940  -28.5240 C   0  0  0  0  0  0  0  0  0  0  0  0
    0.3070   18.2810  -29.6320 C   0  0  0  0  0  0  0  0  0  0  0  0
    0.0640   18.9570  -30.9310 N   0  0  0  0  0  0  0  0  0  0  0  0
   -0.6920   18.0940  -31.8520 C   0  0  0  0  0  0  0  0  0  0  0  0
   -0.5990   20.2740  -30.8010 C   0  0  0  0  0  0  0  0  0  0  0  0
   -0.1330   21.0080  -29.5340 C   0  0  0  0  0  0  0  0  0  0  0  0
   -1.7990   23.5310  -28.2740 C   0  0  0  0  0  0  0  0  0  0  0  0
   -2.2790   24.6460  -28.9650 C   0  0  0  0  0  0  0  0  0  0  0  0
   -3.4190   24.5410  -29.7670 C   0  0  0  0  0  0  0  0  0  0  0  0
   -3.8730   25.6610  -30.4560 O   0  0  0  0  0  0  0  0  0  0  0  0
   -4.3220   21.2500  -32.4760 C   0  0  0  0  0  0  0  0  0  0  0  0
   -4.2710   20.0110  -33.1350 C   0  0  0  0  0  0  0  0  0  0  0  0
   -5.3610   19.1420  -33.0110 C   0  0  0  0  0  0  0  0  0  0  0  0
   -4.0300   15.9291  -32.5556 H   0  0  0  0  0  0  0  0  0  0  0  0
   -4.5612   14.9470  -33.9627 H   0  0  0  0  0  0  0  0  0  0  0  0
   -2.9351   15.7102  -33.9627 H   0  0  0  0  0  0  0  0  0  0  0  0
   -7.4733   17.3300  -34.2867 H   0  0  0  0  0  0  0  0  0  0  0  0
   -6.9019   16.4142  -32.8805 H   0  0  0  0  0  0  0  0  0  0  0  0
   -8.4547   18.8839  -32.8673 H   0  0  0  0  0  0  0  0  0  0  0  0
   -7.8398   18.0620  -31.4461 H   0  0  0  0  0  0  0  0  0  0  0  0
   -7.4596   21.0142  -31.0876 H   0  0  0  0  0  0  0  0  0  0  0  0
   -4.1184   21.2256  -29.2698 H   0  0  0  0  0  0  0  0  0  0  0  0
    0.3600   20.3700  -27.6320 H   0  0  0  0  0  0  0  0  0  0  0  0
   -0.4040   18.2541  -27.5914 H   0  0  0  0  0  0  0  0  0  0  0  0
   -1.6651   18.6203  -28.8372 H   0  0  0  0  0  0  0  0  0  0  0  0
    1.3490   18.4610  -29.3291 H   0  0  0  0  0  0  0  0  0  0  0  0
    0.1079   17.2079  -29.7689 H   0  0  0  0  0  0  0  0  0  0  0  0
   -1.3082   17.3906  -31.2728 H   0  0  0  0  0  0  0  0  0  0  0  0
   -1.3421   18.7149  -32.4859 H   0  0  0  0  0  0  0  0  0  0  0  0
    0.0091   17.5313  -32.4859 H   0  0  0  0  0  0  0  0  0  0  0  0
   -0.3549   20.8870  -31.6811 H   0  0  0  0  0  0  0  0  0  0  0  0
   -1.6847   20.1120  -30.7303 H   0  0  0  0  0  0  0  0  0  0  0  0
    0.9547   21.1611  -29.5933 H   0  0  0  0  0  0  0  0  0  0  0  0
   -0.6705   21.9664  -29.4825 H   0  0  0  0  0  0  0  0  0  0  0  0
   -0.9057   23.6220  -27.6387 H   0  0  0  0  0  0  0  0  0  0  0  0
   -1.7577   25.6107  -28.8777 H   0  0  0  0  0  0  0  0  0  0  0  0
   -3.4665   21.9386  -32.5394 H   0  0  0  0  0  0  0  0  0  0  0  0
   -3.3934   19.7296  -33.7356 H   0  0  0  0  0  0  0  0  0  0  0  0
  1  2  1  0
  2  3  2  0
  2  4  1  0
  4  5  1  0
  5  6  1  0
  6  7  1  0
  7  8  2  0
  8  9  1  0
  9 10  1  0
 10 11  2  0
 10 12  2  0
 10 13  1  0
 13 14  2  0
 14 15  1  0
 15 16  1  0
 16 17  2  0
 16 18  2  0
 16 19  1  0
 19 20  1  0
 20 21  1  0
 21 22  1  0
 22 23  1  0
 22 24  1  0
 24 25  1  0
 15 26  2  0
 26 27  1  0
 27 28  2  0
 28 29  1  0
  9 30  2  0
 30 31  1  0
 31 32  2  0
 32  4  1  0
 32  7  1  0
 28 13  1  0
 25 19  1  0
  1 33  1  0
  1 34  1  0
  1 35  1  0
  5 36  1  0
  5 37  1  0
  6 38  1  0
  6 39  1  0
  8 40  1  0
 14 41  1  0
 19 42  1  0
 20 43  1  0
 20 44  1  0
 21 45  1  0
 21 46  1  0
 23 47  1  0
 23 48  1  0
 23 49  1  0
 24 50  1  0
 24 51  1  0
 25 52  1  0
 25 53  1  0
 26 54  1  0
 27 55  1  0
 30 56  1  0
 31 57  1  0
M  CHG  2  19   1  29  -1
M  END
>  <UniqueID>  (45) 
45

>  <SMILES>  (45) 
CC(=O)N1CCc2cc(S(=O)(=O)c3cc(S(=O)(=O)[NH+]4CCN(C)CC4)ccc3[O-])ccc21

>  <Energy>  (45) 
88.38470264992208

>  <Genealogy>  (45) 
CC(=O)N1CCc2cc(S(=O)(=O)c3cc(S(=O)(=O)[NH+]4CCN(C)CC4)ccc3[O-])ccc21 (protonated)
CC(=O)N1CCc2cc(S(=O)(=O)c3cc(S(=O)(=O)[NH+]4CCN(C)CC4)ccc3[O-])ccc21 (3D coordinates assigned)
CC(=O)N1CCc2cc(S(=O)(=O)c3cc(S(=O)(=O)[NH+]4CCN(C)CC4)ccc3[O-])ccc21 (nonaromatic ring conformer: 88.38470264992208 kcal/mol)

>  <smiles>  (45) 
CC(=O)N1CCc2cc(S(=O)(=O)c3cc(S(=O)(=O)N4CCN(C)CC4)ccc3O)ccc21

>  <score_type>  (45) 
oracle

>  <origin>  (45) 
adgpu

>  <m_score__min__energy>  (45) 
-13.34

>  <m_primary>  (45) 
energy

$$$$
45:0
     RDKit          3D

 56 59  0  0  0  0  0  0  0  0999 V2000
   -0.8920   18.3380  -27.4240 C   0  0  0  0  0  0  0  0  0  0  0  0
   -0.5660   19.7060  -26.9610 N   0  0  0  0  0  0  0  0  0  0  0  0
    0.5180   20.2720  -27.7990 C   0  0  0  0  0  0  0  0  0  0  0  0
    0.7350   21.7550  -27.4980 C   0  0  0  0  0  0  0  0  0  0  0  0
   -0.5230   22.4870  -27.8370 C   0  0  0  0  0  0  0  0  0  0  0  0
   -0.4900   23.7560  -28.4300 C   0  0  0  0  0  0  0  0  0  0  0  0
   -1.6780   24.4130  -28.7580 C   0  0  0  0  0  0  0  0  0  0  0  0
   -1.6180   25.6710  -29.3480 O   0  0  0  0  0  0  0  0  0  0  0  0
   -2.9190   23.8110  -28.4830 C   0  0  0  0  0  0  0  0  0  0  0  0
   -4.1390   24.5060  -28.8000 N   0  0  0  0  0  0  0  0  0  0  0  0
   -4.9790   24.3020  -30.3040 S   0  0  0  0  0  0  0  0  0  0  0  0
   -4.8440   25.5610  -31.1170 O   0  0  0  0  0  0  0  0  0  0  0  0
   -6.4340   24.0460  -30.0330 O   0  0  0  0  0  0  0  0  0  0  0  0
   -4.3150   22.9210  -31.1760 C   0  0  0  0  0  0  0  0  0  0  0  0
   -5.1650   22.1230  -31.9540 C   0  0  0  0  0  0  0  0  0  0  0  0
   -4.6650   20.9970  -32.6190 C   0  0  0  0  0  0  0  0  0  0  0  0
   -5.7480   20.0220  -33.6010 Cl  0  0  0  0  0  0  0  0  0  0  0  0
   -3.3070   20.6610  -32.5130 C   0  0  0  0  0  0  0  0  0  0  0  0
   -2.8260   19.5220  -33.1740 O   0  0  0  0  0  0  0  0  0  0  0  0
   -1.6770   19.4990  -33.9780 C   0  0  0  0  0  0  0  0  0  0  0  0
   -1.2840   20.6840  -34.6130 C   0  0  0  0  0  0  0  0  0  0  0  0
   -0.1260   20.7170  -35.3950 C   0  0  0  0  0  0  0  0  0  0  0  0
    0.6580   19.5650  -35.5430 C   0  0  0  0  0  0  0  0  0  0  0  0
    2.1300   19.6210  -36.5090 S   0  0  0  0  0  0  0  0  0  0  0  0
    3.4680   18.8690  -35.6020 C   0  0  0  0  0  0  0  0  0  0  0  0
    1.9130   18.8780  -37.8000 O   0  0  0  0  0  0  0  0  0  0  0  0
    2.4820   21.0520  -36.8260 O   0  0  0  0  0  0  0  0  0  0  0  0
    0.2620   18.3740  -34.9220 C   0  0  0  0  0  0  0  0  0  0  0  0
   -0.8970   18.3400  -34.1410 C   0  0  0  0  0  0  0  0  0  0  0  0
   -2.4530   21.4570  -31.7240 C   0  0  0  0  0  0  0  0  0  0  0  0
   -0.7590   21.0370  -31.5110 Cl  0  0  0  0  0  0  0  0  0  0  0  0
   -2.9590   22.5860  -31.0670 C   0  0  0  0  0  0  0  0  0  0  0  0
   -2.9430   22.5350  -27.8910 C   0  0  0  0  0  0  0  0  0  0  0  0
   -1.7520   21.8700  -27.5680 C   0  0  0  0  0  0  0  0  0  0  0  0
   -1.8020   20.5410  -26.8410 C   0  0  0  0  0  0  0  0  0  0  0  0
   -1.0479   17.6837  -26.5536 H   0  0  0  0  0  0  0  0  0  0  0  0
   -1.8088   18.3652  -28.0312 H   0  0  0  0  0  0  0  0  0  0  0  0
   -0.0615   17.9487  -28.0312 H   0  0  0  0  0  0  0  0  0  0  0  0
    1.4505   19.7249  -27.5963 H   0  0  0  0  0  0  0  0  0  0  0  0
    0.2294   20.1705  -28.8556 H   0  0  0  0  0  0  0  0  0  0  0  0
    0.9681   21.8886  -26.4313 H   0  0  0  0  0  0  0  0  0  0  0  0
    1.5746   22.1453  -28.0919 H   0  0  0  0  0  0  0  0  0  0  0  0
    0.4768   24.2374  -28.6384 H   0  0  0  0  0  0  0  0  0  0  0  0
   -4.6220   25.0600  -28.0600 H   0  0  0  0  0  0  0  0  0  0  0  0
   -6.2302   22.3827  -32.0425 H   0  0  0  0  0  0  0  0  0  0  0  0
   -1.8904   21.5942  -34.4955 H   0  0  0  0  0  0  0  0  0  0  0  0
    0.1709   21.6503  -35.8959 H   0  0  0  0  0  0  0  0  0  0  0  0
    3.2832   18.9728  -34.5226 H   0  0  0  0  0  0  0  0  0  0  0  0
    3.5331   17.8021  -35.8619 H   0  0  0  0  0  0  0  0  0  0  0  0
    4.4132   19.3680  -35.8619 H   0  0  0  0  0  0  0  0  0  0  0  0
    0.8646   17.4626  -35.0491 H   0  0  0  0  0  0  0  0  0  0  0  0
   -1.2003   17.4026  -33.6518 H   0  0  0  0  0  0  0  0  0  0  0  0
   -2.2878   23.2132  -30.4620 H   0  0  0  0  0  0  0  0  0  0  0  0
   -3.9087   22.0530  -27.6789 H   0  0  0  0  0  0  0  0  0  0  0  0
   -1.9750   20.7426  -25.7736 H   0  0  0  0  0  0  0  0  0  0  0  0
   -2.6098   19.9630  -27.3136 H   0  0  0  0  0  0  0  0  0  0  0  0
  1  2  1  0
  2  3  1  0
  3  4  1  0
  4  5  1  0
  5  6  2  0
  6  7  1  0
  7  8  1  0
  7  9  2  0
  9 10  1  0
 10 11  1  0
 11 12  2  0
 11 13  2  0
 11 14  1  0
 14 15  2  0
 15 16  1  0
 16 17  1  0
 16 18  2  0
 18 19  1  0
 19 20  1  0
 20 21  2  0
 21 22  1  0
 22 23  2  0
 23 24  1  0
 24 25  1  0
 24 26  2  0
 24 27  2  0
 23 28  1  0
 28 29  2  0
 18 30  1  0
 30 31  1  0
 30 32  2  0
  9 33  1  0
 33 34  2  0
 34 35  1  0
 35  2  1  0
 34  5  1  0
 32 14  1  0
 29 20  1  0
  1 36  1  0
  1 37  1  0
  1 38  1  0
  3 39  1  0
  3 40  1  0
  4 41  1  0
  4 42  1  0
  6 43  1  0
 10 44  1  0
 15 45  1  0
 21 46  1  0
 22 47  1  0
 25 48  1  0
 25 49  1  0
 25 50  1  0
 28 51  1  0
 29 52  1  0
 32 53  1  0
 33 54  1  0
 35 55  1  0
 35 56  1  0
M  CHG  1   8  -1
M  END
>  <UniqueID>  (46) 
46

>  <SMILES>  (46) 
CN1CCc2cc([O-])c(NS(=O)(=O)c3cc(Cl)c(Oc4ccc(S(C)(=O)=O)cc4)c(Cl)c3)cc2C1

>  <Energy>  (46) 
78.07753743177331

>  <Genealogy>  (46) 
CN1CCc2cc([O-])c(NS(=O)(=O)c3cc(Cl)c(Oc4ccc(S(C)(=O)=O)cc4)c(Cl)c3)cc2C1 (protonated)
CN1CCc2cc([O-])c(NS(=O)(=O)c3cc(Cl)c(Oc4ccc(S(C)(=O)=O)cc4)c(Cl)c3)cc2C1 (3D coordinates assigned)
CN1CCc2cc([O-])c(NS(=O)(=O)c3cc(Cl)c(Oc4ccc(S(C)(=O)=O)cc4)c(Cl)c3)cc2C1 (nonaromatic ring conformer: 78.07753743177331 kcal/mol)

>  <smiles>  (46) 
CN1CCc2cc(O)c(NS(=O)(=O)c3cc(Cl)c(Oc4ccc(S(C)(=O)=O)cc4)c(Cl)c3)cc2C1

>  <score_type>  (46) 
oracle

>  <origin>  (46) 
adgpu

>  <m_score__min__energy>  (46) 
-15.51

>  <m_primary>  (46) 
energy

$$$$
46:0
     RDKit          3D

 48 51  0  0  0  0  0  0  0  0999 V2000
   -0.0750   21.0880  -26.7980 O   0  0  0  0  0  0  0  0  0  0  0  0
   -0.5680   20.9250  -27.9460 C   0  0  0  0  0  0  0  0  0  0  0  0
   -0.4350   19.6650  -28.6240 N   0  0  0  0  0  0  0  0  0  0  0  0
    0.4610   18.6190  -28.2100 C   0  0  0  0  0  0  0  0  0  0  0  0
   -0.0000   17.4900  -27.5080 C   0  0  0  0  0  0  0  0  0  0  0  0
    0.8970   16.5010  -27.0960 C   0  0  0  0  0  0  0  0  0  0  0  0
    2.2670   16.6320  -27.3570 C   0  0  0  0  0  0  0  0  0  0  0  0
    3.3970   15.3760  -26.8400 S   0  0  0  0  0  0  0  0  0  0  0  0
    4.5800   15.3700  -27.7680 O   0  0  0  0  0  0  0  0  0  0  0  0
    3.8940   15.7030  -25.4590 O   0  0  0  0  0  0  0  0  0  0  0  0
    2.6810   13.7820  -26.8230 N   0  0  0  0  0  0  0  0  0  0  0  0
    2.0450   13.4510  -28.0960 C   0  0  0  0  0  0  0  0  0  0  0  0
    0.9770   12.4140  -27.7850 C   0  0  0  0  0  0  0  0  0  0  0  0
    0.7030   12.5520  -26.2940 C   0  0  0  0  0  0  0  0  0  0  0  0
    1.6280   13.6620  -25.8170 C   0  0  0  0  0  0  0  0  0  0  0  0
    2.7300   17.7610  -28.0460 C   0  0  0  0  0  0  0  0  0  0  0  0
    1.8360   18.7510  -28.4590 C   0  0  0  0  0  0  0  0  0  0  0  0
   -1.3200   22.0200  -28.5740 C   0  0  0  0  0  0  0  0  0  0  0  0
   -0.9010   23.3310  -28.6890 C   0  0  0  0  0  0  0  0  0  0  0  0
   -1.9160   23.9930  -29.3470 C   0  0  0  0  0  0  0  0  0  0  0  0
   -2.8980   23.0430  -29.5910 C   0  0  0  0  0  0  0  0  0  0  0  0
   -4.1870   23.2410  -30.2920 C   0  0  0  0  0  0  0  0  0  0  0  0
   -5.0220   22.1260  -30.4940 C   0  0  0  0  0  0  0  0  0  0  0  0
   -6.2440   22.2610  -31.1570 C   0  0  0  0  0  0  0  0  0  0  0  0
   -6.6530   23.5100  -31.6220 C   0  0  0  0  0  0  0  0  0  0  0  0
   -5.8450   24.6300  -31.4160 C   0  0  0  0  0  0  0  0  0  0  0  0
   -4.6220   24.5070  -30.7480 C   0  0  0  0  0  0  0  0  0  0  0  0
   -3.8680   25.6530  -30.5230 O   0  0  0  0  0  0  0  0  0  0  0  0
   -2.5050   21.8790  -29.1210 O   0  0  0  0  0  0  0  0  0  0  0  0
   -1.0880   19.4620  -29.4140 H   0  0  0  0  0  0  0  0  0  0  0  0
   -1.0716   17.3855  -27.2825 H   0  0  0  0  0  0  0  0  0  0  0  0
    0.5248   15.6136  -26.5631 H   0  0  0  0  0  0  0  0  0  0  0  0
    1.5869   14.3485  -28.5372 H   0  0  0  0  0  0  0  0  0  0  0  0
    2.7778   13.0644  -28.8195 H   0  0  0  0  0  0  0  0  0  0  0  0
    0.0641   12.6158  -28.3645 H   0  0  0  0  0  0  0  0  0  0  0  0
    1.3041   11.3975  -28.0488 H   0  0  0  0  0  0  0  0  0  0  0  0
   -0.3482   12.8246  -26.1190 H   0  0  0  0  0  0  0  0  0  0  0  0
    0.8813   11.6097  -25.7553 H   0  0  0  0  0  0  0  0  0  0  0  0
    1.0740   14.6084  -25.7313 H   0  0  0  0  0  0  0  0  0  0  0  0
    2.0473   13.4336  -24.8260 H   0  0  0  0  0  0  0  0  0  0  0  0
    3.8032   17.8679  -28.2626 H   0  0  0  0  0  0  0  0  0  0  0  0
    2.2124   19.6415  -28.9837 H   0  0  0  0  0  0  0  0  0  0  0  0
    0.0467   23.7587  -28.3299 H   0  0  0  0  0  0  0  0  0  0  0  0
   -1.9421   25.0576  -29.6225 H   0  0  0  0  0  0  0  0  0  0  0  0
   -4.7089   21.1379  -30.1258 H   0  0  0  0  0  0  0  0  0  0  0  0
   -6.8846   21.3804  -31.3125 H   0  0  0  0  0  0  0  0  0  0  0  0
   -7.6119   23.6132  -32.1510 H   0  0  0  0  0  0  0  0  0  0  0  0
   -6.1720   25.6148  -31.7811 H   0  0  0  0  0  0  0  0  0  0  0  0
  1  2  2  0
  2  3  1  0
  3  4  1  0
  4  5  2  0
  5  6  1  0
  6  7  2  0
  7  8  1  0
  8  9  2  0
  8 10  2  0
  8 11  1  0
 11 12  1  0
 12 13  1  0
 13 14  1  0
 14 15  1  0
  7 16  1  0
 16 17  2  0
  2 18  1  0
 18 19  2  0
 19 20  1  0
 20 21  2  0
 21 22  1  0
 22 23  2  0
 23 24  1  0
 24 25  2  0
 25 26  1  0
 26 27  2  0
 27 28  1  0
 21 29  1  0
 17  4  1  0
 29 18  1  0
 15 11  1  0
 27 22  1  0
  3 30  1  0
  5 31  1  0
  6 32  1  0
 12 33  1  0
 12 34  1  0
 13 35  1  0
 13 36  1  0
 14 37  1  0
 14 38  1  0
 15 39  1  0
 15 40  1  0
 16 41  1  0
 17 42  1  0
 19 43  1  0
 20 44  1  0
 23 45  1  0
 24 46  1  0
 25 47  1  0
 26 48  1  0
M  CHG  1  28  -1
M  END
>  <UniqueID>  (47) 
47

>  <SMILES>  (47) 
O=C(Nc1ccc(S(=O)(=O)N2CCCC2)cc1)c1ccc(-c2ccccc2[O-])o1

>  <Energy>  (47) 
84.89687460404316

>  <Genealogy>  (47) 
O=C(Nc1ccc(S(=O)(=O)N2CCCC2)cc1)c1ccc(-c2ccccc2[O-])o1 (protonated)
O=C(Nc1ccc(S(=O)(=O)N2CCCC2)cc1)c1ccc(-c2ccccc2[O-])o1 (3D coordinates assigned)
O=C(Nc1ccc(S(=O)(=O)N2CCCC2)cc1)c1ccc(-c2ccccc2[O-])o1 (nonaromatic ring conformer: 84.89687460404316 kcal/mol)

>  <smiles>  (47) 
O=C(Nc1ccc(S(=O)(=O)N2CCCC2)cc1)c1ccc(-c2ccccc2O)o1

>  <score_type>  (47) 
oracle

>  <origin>  (47) 
adgpu

>  <m_score__min__energy>  (47) 
-10.140000000000001

>  <m_primary>  (47) 
energy

$$$$
47:0
     RDKit          3D

 62 65  0  0  0  0  0  0  0  0999 V2000
    2.1760   16.6860  -29.6350 C   0  0  0  0  0  0  0  0  0  0  0  0
    1.0040   17.5220  -29.1150 C   0  0  0  0  0  0  0  0  0  0  0  0
    0.6210   17.1070  -27.6840 C   0  0  0  0  0  0  0  0  0  0  0  0
   -0.5700   17.9350  -27.1500 C   0  0  0  0  0  0  0  0  0  0  0  0
   -0.7810   19.1780  -27.9220 N   0  0  0  0  0  0  0  0  0  0  0  0
   -1.8940   20.2320  -27.0880 S   0  0  0  0  0  0  0  0  0  0  0  0
   -3.1460   19.4740  -26.7390 O   0  0  0  0  0  0  0  0  0  0  0  0
   -1.2580   20.6900  -25.8040 O   0  0  0  0  0  0  0  0  0  0  0  0
   -2.3290   21.6420  -28.0570 C   0  0  0  0  0  0  0  0  0  0  0  0
   -2.9210   22.7600  -27.4530 C   0  0  0  0  0  0  0  0  0  0  0  0
   -3.3220   23.8490  -28.2300 C   0  0  0  0  0  0  0  0  0  0  0  0
   -3.1220   23.8460  -29.6140 C   0  0  0  0  0  0  0  0  0  0  0  0
   -3.6160   24.9500  -30.3890 N   0  0  0  0  0  0  0  0  0  0  0  0
   -4.9940   25.2180  -30.6720 C   0  0  0  0  0  0  0  0  0  0  0  0
   -5.3810   26.4150  -30.7290 O   0  0  0  0  0  0  0  0  0  0  0  0
   -5.9540   24.1270  -30.9400 C   0  0  0  0  0  0  0  0  0  0  0  0
   -6.4860   23.3770  -29.8810 C   0  0  0  0  0  0  0  0  0  0  0  0
   -7.3640   22.3200  -30.1380 C   0  0  0  0  0  0  0  0  0  0  0  0
   -7.7390   22.0180  -31.4540 C   0  0  0  0  0  0  0  0  0  0  0  0
   -8.8060   20.6540  -31.7840 S   0  0  0  0  0  0  0  0  0  0  0  0
  -10.1030   21.1710  -32.3400 O   0  0  0  0  0  0  0  0  0  0  0  0
   -9.1090   19.9380  -30.4970 O   0  0  0  0  0  0  0  0  0  0  0  0
   -8.0870   19.5110  -32.9020 N   0  0  0  0  0  0  0  0  0  0  0  0
   -8.0320   18.1450  -32.3430 C   0  0  0  0  0  0  0  0  0  0  0  0
   -6.7800   17.8970  -31.4610 C   0  0  0  0  0  0  0  0  0  0  0  0
   -5.7660   18.8720  -31.6160 O   0  0  0  0  0  0  0  0  0  0  0  0
   -5.6010   19.1820  -32.9780 C   0  0  0  0  0  0  0  0  0  0  0  0
   -6.8080   19.9850  -33.4780 C   0  0  0  0  0  0  0  0  0  0  0  0
   -7.2440   22.7940  -32.5090 C   0  0  0  0  0  0  0  0  0  0  0  0
   -6.3460   23.8340  -32.2560 C   0  0  0  0  0  0  0  0  0  0  0  0
   -2.5210   22.7270  -30.2200 C   0  0  0  0  0  0  0  0  0  0  0  0
   -2.1250   21.6340  -29.4440 C   0  0  0  0  0  0  0  0  0  0  0  0
    0.4950   19.8590  -28.1860 C   0  0  0  0  0  0  0  0  0  0  0  0
    1.3270   19.0330  -29.1860 C   0  0  0  0  0  0  0  0  0  0  0  0
    2.7436   16.2811  -28.7842 H   0  0  0  0  0  0  0  0  0  0  0  0
    1.7918   15.8568  -30.2473 H   0  0  0  0  0  0  0  0  0  0  0  0
    2.8349   17.3192  -30.2473 H   0  0  0  0  0  0  0  0  0  0  0  0
    0.1378   17.3298  -29.7652 H   0  0  0  0  0  0  0  0  0  0  0  0
    0.3443   16.0424  -27.6832 H   0  0  0  0  0  0  0  0  0  0  0  0
    1.4866   17.2888  -27.0301 H   0  0  0  0  0  0  0  0  0  0  0  0
   -1.4817   17.3224  -27.2100 H   0  0  0  0  0  0  0  0  0  0  0  0
   -0.3437   18.2185  -26.1115 H   0  0  0  0  0  0  0  0  0  0  0  0
   -3.0702   22.7796  -26.3633 H   0  0  0  0  0  0  0  0  0  0  0  0
   -3.7989   24.7160  -27.7495 H   0  0  0  0  0  0  0  0  0  0  0  0
   -6.2113   23.6214  -28.8443 H   0  0  0  0  0  0  0  0  0  0  0  0
   -7.7620   21.7231  -29.3041 H   0  0  0  0  0  0  0  0  0  0  0  0
   -8.9302   17.9817  -31.7293 H   0  0  0  0  0  0  0  0  0  0  0  0
   -7.9790   17.4461  -33.1908 H   0  0  0  0  0  0  0  0  0  0  0  0
   -7.0950   17.8897  -30.4071 H   0  0  0  0  0  0  0  0  0  0  0  0
   -6.3501   16.9362  -31.7805 H   0  0  0  0  0  0  0  0  0  0  0  0
   -4.6861   19.7786  -33.1085 H   0  0  0  0  0  0  0  0  0  0  0  0
   -5.5209   18.2493  -33.5556 H   0  0  0  0  0  0  0  0  0  0  0  0
   -6.6674   21.0405  -33.2021 H   0  0  0  0  0  0  0  0  0  0  0  0
   -6.8657   19.8543  -34.5687 H   0  0  0  0  0  0  0  0  0  0  0  0
   -7.5632   22.5842  -33.5405 H   0  0  0  0  0  0  0  0  0  0  0  0
   -5.9443   24.4259  -33.0916 H   0  0  0  0  0  0  0  0  0  0  0  0
   -2.3623   22.7125  -31.3084 H   0  0  0  0  0  0  0  0  0  0  0  0
   -1.6516   20.7644  -29.9233 H   0  0  0  0  0  0  0  0  0  0  0  0
    0.2973   20.8548  -28.6095 H   0  0  0  0  0  0  0  0  0  0  0  0
    1.0544   19.9625  -27.2445 H   0  0  0  0  0  0  0  0  0  0  0  0
    1.1147   19.3922  -30.2038 H   0  0  0  0  0  0  0  0  0  0  0  0
    2.3881   19.1618  -28.9264 H   0  0  0  0  0  0  0  0  0  0  0  0
  1  2  1  0
  2  3  1  0
  3  4  1  0
  4  5  1  0
  5  6  1  0
  6  7  2  0
  6  8  2  0
  6  9  1  0
  9 10  2  0
 10 11  1  0
 11 12  2  0
 12 13  1  0
 13 14  1  0
 14 15  2  0
 14 16  1  0
 16 17  2  0
 17 18  1  0
 18 19  2  0
 19 20  1  0
 20 21  2  0
 20 22  2  0
 20 23  1  0
 23 24  1  0
 24 25  1  0
 25 26  1  0
 26 27  1  0
 27 28  1  0
 19 29  1  0
 29 30  2  0
 12 31  1  0
 31 32  2  0
  5 33  1  0
 33 34  1  0
 34  2  1  0
 32  9  1  0
 30 16  1  0
 28 23  1  0
  1 35  1  0
  1 36  1  0
  1 37  1  0
  2 38  1  0
  3 39  1  0
  3 40  1  0
  4 41  1  0
  4 42  1  0
 10 43  1  0
 11 44  1  0
 17 45  1  0
 18 46  1  0
 24 47  1  0
 24 48  1  0
 25 49  1  0
 25 50  1  0
 27 51  1  0
 27 52  1  0
 28 53  1  0
 28 54  1  0
 29 55  1  0
 30 56  1  0
 31 57  1  0
 32 58  1  0
 33 59  1  0
 33 60  1  0
 34 61  1  0
 34 62  1  0
M  CHG  1  13  -1
M  END
>  <UniqueID>  (48) 
48

>  <SMILES>  (48) 
CC1CCN(S(=O)(=O)c2ccc([N-]C(=O)c3ccc(S(=O)(=O)N4CCOCC4)cc3)cc2)CC1

>  <Energy>  (48) 
79.76698653092265

>  <Genealogy>  (48) 
CC1CCN(S(=O)(=O)c2ccc([N-]C(=O)c3ccc(S(=O)(=O)N4CCOCC4)cc3)cc2)CC1 (protonated)
CC1CCN(S(=O)(=O)c2ccc([N-]C(=O)c3ccc(S(=O)(=O)N4CCOCC4)cc3)cc2)CC1 (3D coordinates assigned)
CC1CCN(S(=O)(=O)c2ccc([N-]C(=O)c3ccc(S(=O)(=O)N4CCOCC4)cc3)cc2)CC1 (nonaromatic ring conformer: 79.76698653092265 kcal/mol)

>  <smiles>  (48) 
CC1CCN(S(=O)(=O)c2ccc(NC(=O)c3ccc(S(=O)(=O)N4CCOCC4)cc3)cc2)CC1

>  <score_type>  (48) 
oracle

>  <origin>  (48) 
adgpu

>  <m_score__min__energy>  (48) 
-12.76

>  <m_primary>  (48) 
energy

$$$$
48:0
     RDKit          3D

 40 42  0  0  0  0  0  0  0  0999 V2000
   -6.8640   25.2960  -29.8530 C   0  0  0  0  0  0  0  0  0  0  0  0
   -5.4810   24.7950  -30.1180 C   0  0  0  0  0  0  0  0  0  0  0  0
   -4.3850   25.5750  -30.0390 N   0  0  0  0  0  0  0  0  0  0  0  0
   -3.3720   24.8510  -30.4210 O   0  0  0  0  0  0  0  0  0  0  0  0
   -3.7490   23.6390  -30.7570 C   0  0  0  0  0  0  0  0  0  0  0  0
   -2.8120   22.5930  -31.2670 C   0  0  0  0  0  0  0  0  0  0  0  0
   -5.1170   23.5390  -30.5730 C   0  0  0  0  0  0  0  0  0  0  0  0
   -6.1700   22.1570  -30.9120 S   0  0  0  0  0  0  0  0  0  0  0  0
   -5.3320   20.9130  -31.0130 O   0  0  0  0  0  0  0  0  0  0  0  0
   -7.1260   21.9700  -29.7670 O   0  0  0  0  0  0  0  0  0  0  0  0
   -7.0750   22.3700  -32.3940 N   0  0  2  0  0  0  0  0  0  0  0  0
   -7.1780   23.8030  -32.7130 C   0  0  0  0  0  0  0  0  0  0  0  0
   -8.4060   21.7440  -32.2670 C   0  0  0  0  0  0  0  0  0  0  0  0
   -8.3090   20.2520  -32.1000 C   0  0  0  0  0  0  0  0  0  0  0  0
   -9.1000   19.4550  -31.2770 C   0  0  0  0  0  0  0  0  0  0  0  0
   -8.7630   18.1530  -31.4160 N   0  0  0  0  0  0  0  0  0  0  0  0
   -7.7710   18.1220  -32.3240 C   0  0  0  0  0  0  0  0  0  0  0  0
   -7.1000   16.9970  -32.8050 C   0  0  0  0  0  0  0  0  0  0  0  0
   -6.0930   17.1940  -33.7680 C   0  0  0  0  0  0  0  0  0  0  0  0
   -5.7820   18.4960  -34.2230 C   0  0  0  0  0  0  0  0  0  0  0  0
   -6.4760   19.6110  -33.7200 C   0  0  0  0  0  0  0  0  0  0  0  0
   -7.4670   19.3840  -32.7660 C   0  0  0  0  0  0  0  0  0  0  0  0
   -7.0304   25.3563  -28.7673 H   0  0  0  0  0  0  0  0  0  0  0  0
   -6.9838   26.2947  -30.2983 H   0  0  0  0  0  0  0  0  0  0  0  0
   -7.5956   24.6058  -30.2983 H   0  0  0  0  0  0  0  0  0  0  0  0
   -2.3458   22.0726  -30.4174 H   0  0  0  0  0  0  0  0  0  0  0  0
   -3.3691   21.8689  -31.8796 H   0  0  0  0  0  0  0  0  0  0  0  0
   -2.0312   23.0674  -31.8796 H   0  0  0  0  0  0  0  0  0  0  0  0
   -6.5350   21.8960  -33.1560 H   0  0  0  0  0  0  0  0  0  0  0  0
   -7.2198   24.3842  -31.7800 H   0  0  0  0  0  0  0  0  0  0  0  0
   -6.2998   24.1123  -33.2987 H   0  0  0  0  0  0  0  0  0  0  0  0
   -8.0914   23.9835  -33.2987 H   0  0  0  0  0  0  0  0  0  0  0  0
   -8.9164   22.1679  -31.3896 H   0  0  0  0  0  0  0  0  0  0  0  0
   -8.9690   21.9485  -33.1896 H   0  0  0  0  0  0  0  0  0  0  0  0
   -9.8879   19.8314  -30.6081 H   0  0  0  0  0  0  0  0  0  0  0  0
   -9.1940   17.3390  -30.9240 H   0  0  0  0  0  0  0  0  0  0  0  0
   -7.3501   15.9888  -32.4431 H   0  0  0  0  0  0  0  0  0  0  0  0
   -5.5442   16.3293  -34.1694 H   0  0  0  0  0  0  0  0  0  0  0  0
   -4.9921   18.6378  -34.9753 H   0  0  0  0  0  0  0  0  0  0  0  0
   -6.2446   20.6286  -34.0678 H   0  0  0  0  0  0  0  0  0  0  0  0
  1  2  1  0
  2  3  2  0
  3  4  1  0
  4  5  1  0
  5  6  1  0
  5  7  2  0
  7  8  1  0
  8  9  2  0
  8 10  2  0
  8 11  1  0
 11 12  1  0
 11 13  1  0
 13 14  1  0
 14 15  2  0
 15 16  1  0
 16 17  1  0
 17 18  2  0
 18 19  1  0
 19 20  2  0
 20 21  1  0
 21 22  2  0
  7  2  1  0
 22 14  1  0
 22 17  1  0
  1 23  1  0
  1 24  1  0
  1 25  1  0
  6 26  1  0
  6 27  1  0
  6 28  1  0
 11 29  1  6
 12 30  1  0
 12 31  1  0
 12 32  1  0
 13 33  1  0
 13 34  1  0
 15 35  1  0
 16 36  1  0
 18 37  1  0
 19 38  1  0
 20 39  1  0
 21 40  1  0
M  CHG  1  11   1
M  END
>  <UniqueID>  (49) 
49

>  <SMILES>  (49) 
Cc1noc(C)c1S(=O)(=O)[N@H+](C)Cc1c[nH]c2ccccc12

>  <Energy>  (49) 
101.58904050457522

>  <Genealogy>  (49) 
Cc1noc(C)c1S(=O)(=O)[NH+](C)Cc1c[nH]c2ccccc12 (protonated)
Cc1noc(C)c1S(=O)(=O)[N@H+](C)Cc1c[nH]c2ccccc12 (chirality)
Cc1noc(C)c1S(=O)(=O)[N@H+](C)Cc1c[nH]c2ccccc12 (3D coordinates assigned)
Cc1noc(C)c1S(=O)(=O)[N@H+](C)Cc1c[nH]c2ccccc12 (optimized conformer: 101.58904050457522 kcal/mol)

>  <smiles>  (49) 
Cc1noc(C)c1S(=O)(=O)N(C)Cc1c[nH]c2ccccc12

>  <score_type>  (49) 
oracle

>  <origin>  (49) 
adgpu

>  <m_score__min__energy>  (49) 
-7.9199999999999999

>  <m_primary>  (49) 
energy

$$$$
49:0
     RDKit          3D

 39 41  0  0  0  0  0  0  0  0999 V2000
   -9.8210   21.8850  -30.7200 N   0  0  0  0  0  0  0  0  0  0  0  0
   -8.7610   21.6600  -31.1280 C   0  0  0  0  0  0  0  0  0  0  0  0
   -7.4390   21.3810  -31.6370 C   0  0  0  0  0  0  0  0  0  0  0  0
   -6.4480   22.3610  -31.4900 C   0  0  0  0  0  0  0  0  0  0  0  0
   -5.1500   22.1400  -31.9570 C   0  0  0  0  0  0  0  0  0  0  0  0
   -4.1960   23.1560  -31.7990 O   0  0  0  0  0  0  0  0  0  0  0  0
   -3.0700   23.0820  -30.9660 C   0  0  0  0  0  0  0  0  0  0  0  0
   -2.2500   21.9500  -31.0480 C   0  0  0  0  0  0  0  0  0  0  0  0
   -1.1170   21.8270  -30.2290 C   0  0  0  0  0  0  0  0  0  0  0  0
   -0.2280   20.6190  -30.3390 C   0  0  0  0  0  0  0  0  0  0  0  0
   -0.4160   19.7260  -29.1480 C   0  0  0  0  0  0  0  0  0  0  0  0
   -1.4810   19.8960  -28.2590 C   0  0  0  0  0  0  0  0  0  0  0  0
   -1.7270   19.0560  -27.1470 C   0  0  0  0  0  0  0  0  0  0  0  0
   -2.7200   19.3270  -26.4180 O   0  0  0  0  0  0  0  0  0  0  0  0
   -0.9520   17.9720  -26.8170 N   0  0  0  0  0  0  0  0  0  0  0  0
    0.1400   17.5580  -27.5130 C   0  0  0  0  0  0  0  0  0  0  0  0
    0.7900   16.5450  -27.1430 O   0  0  0  0  0  0  0  0  0  0  0  0
    0.6130   18.4180  -28.8810 S   0  0  0  0  0  0  0  0  0  0  0  0
   -0.7880   22.8690  -29.3490 C   0  0  0  0  0  0  0  0  0  0  0  0
   -1.5880   24.0130  -29.2810 C   0  0  0  0  0  0  0  0  0  0  0  0
   -2.7200   24.1290  -30.0920 C   0  0  0  0  0  0  0  0  0  0  0  0
   -3.4730   25.2970  -30.0450 O   0  0  0  0  0  0  0  0  0  0  0  0
   -4.8490   20.9320  -32.6040 C   0  0  0  0  0  0  0  0  0  0  0  0
   -5.8280   19.9480  -32.7550 C   0  0  0  0  0  0  0  0  0  0  0  0
   -7.1340   20.1530  -32.2720 C   0  0  0  0  0  0  0  0  0  0  0  0
   -8.1910   19.0780  -32.4400 C   0  0  0  0  0  0  0  0  0  0  0  0
   -9.3060   19.5520  -33.1100 F   0  0  0  0  0  0  0  0  0  0  0  0
   -7.6680   18.0200  -33.1610 F   0  0  0  0  0  0  0  0  0  0  0  0
   -8.5920   18.6250  -31.1960 F   0  0  0  0  0  0  0  0  0  0  0  0
   -6.6950   23.3151  -31.0014 H   0  0  0  0  0  0  0  0  0  0  0  0
   -2.4962   21.1495  -31.7611 H   0  0  0  0  0  0  0  0  0  0  0  0
   -0.4822   20.0631  -31.2535 H   0  0  0  0  0  0  0  0  0  0  0  0
    0.8209   20.9481  -30.3784 H   0  0  0  0  0  0  0  0  0  0  0  0
   -2.1707   20.7347  -28.4346 H   0  0  0  0  0  0  0  0  0  0  0  0
   -1.2240   17.4190  -25.9710 H   0  0  0  0  0  0  0  0  0  0  0  0
    0.1033   22.7852  -28.7099 H   0  0  0  0  0  0  0  0  0  0  0  0
   -1.3256   24.8248  -28.5867 H   0  0  0  0  0  0  0  0  0  0  0  0
   -3.8354   20.7590  -32.9947 H   0  0  0  0  0  0  0  0  0  0  0  0
   -5.5758   19.0022  -33.2569 H   0  0  0  0  0  0  0  0  0  0  0  0
  1  2  3  0
  2  3  1  0
  3  4  2  0
  4  5  1  0
  5  6  1  0
  6  7  1  0
  7  8  2  0
  8  9  1  0
  9 10  1  0
 10 11  1  0
 11 12  2  0
 12 13  1  0
 13 14  2  0
 13 15  1  0
 15 16  1  0
 16 17  2  0
 16 18  1  0
  9 19  2  0
 19 20  1  0
 20 21  2  0
 21 22  1  0
  5 23  2  0
 23 24  1  0
 24 25  2  0
 25 26  1  0
 26 27  1  0
 26 28  1  0
 26 29  1  0
 25  3  1  0
 21  7  1  0
 18 11  1  0
  4 30  1  0
  8 31  1  0
 10 32  1  0
 10 33  1  0
 12 34  1  0
 15 35  1  0
 19 36  1  0
 20 37  1  0
 23 38  1  0
 24 39  1  0
M  CHG  1  22  -1
M  END
>  <UniqueID>  (50) 
50

>  <SMILES>  (50) 
N#Cc1cc(Oc2cc(Cc3cc(=O)[nH]c(=O)s3)ccc2[O-])ccc1C(F)(F)F

>  <Energy>  (50) 
53.932215846194794

>  <Genealogy>  (50) 
N#Cc1cc(Oc2cc(Cc3cc(=O)[nH]c(=O)s3)ccc2[O-])ccc1C(F)(F)F (protonated)
N#Cc1cc(Oc2cc(Cc3cc(=O)[nH]c(=O)s3)ccc2[O-])ccc1C(F)(F)F (3D coordinates assigned)
N#Cc1cc(Oc2cc(Cc3cc(=O)[nH]c(=O)s3)ccc2[O-])ccc1C(F)(F)F (optimized conformer: 53.932215846194794 kcal/mol)

>  <smiles>  (50) 
N#Cc1cc(Oc2cc(Cc3cc(=O)[nH]c(=O)s3)ccc2O)ccc1C(F)(F)F

>  <score_type>  (50) 
oracle

>  <origin>  (50) 
adgpu

>  <m_score__min__energy>  (50) 
-11.73

>  <m_primary>  (50) 
energy

$$$$
