0:0
     RDKit          3D

 54 57  0  0  0  0  0  0  0  0999 V2000
   -2.0980   20.4450  -28.8420 C   0  0  0  0  0  0  0  0  0  0  0  0
   -1.9750   21.9400  -28.8190 C   0  0  0  0  0  0  0  0  0  0  0  0
   -2.8280   22.7250  -29.6360 C   0  0  0  0  0  0  0  0  0  0  0  0
   -2.7270   24.1330  -29.6400 C   0  0  0  0  0  0  0  0  0  0  0  0
   -3.5660   24.9550  -30.4580 N   0  0  0  0  0  0  0  0  0  0  0  0
   -5.2710   25.1490  -30.1940 S   0  0  0  0  0  0  0  0  0  0  0  0
   -5.5250   25.2640  -28.7180 O   0  0  0  0  0  0  0  0  0  0  0  0
   -5.7320   26.4160  -30.8560 O   0  0  0  0  0  0  0  0  0  0  0  0
   -6.1820   23.7800  -30.8220 C   0  0  0  0  0  0  0  0  0  0  0  0
   -6.9650   23.0010  -29.9590 C   0  0  0  0  0  0  0  0  0  0  0  0
   -7.6040   21.8540  -30.4350 C   0  0  0  0  0  0  0  0  0  0  0  0
   -7.4660   21.4750  -31.7770 C   0  0  0  0  0  0  0  0  0  0  0  0
   -8.1560   19.9610  -32.3540 S   0  0  0  0  0  0  0  0  0  0  0  0
   -9.4360   20.2580  -33.0860 O   0  0  0  0  0  0  0  0  0  0  0  0
   -8.4650   19.0600  -31.1900 O   0  0  0  0  0  0  0  0  0  0  0  0
   -7.0210   19.1830  -33.4340 N   0  0  0  0  0  0  0  0  0  0  0  0
   -7.2150   17.7050  -33.4350 C   0  0  0  0  0  0  0  0  0  0  0  0
   -6.1470   16.9590  -32.6210 C   0  0  0  0  0  0  0  0  0  0  0  0
   -4.7360   17.2540  -33.1560 C   0  0  0  0  0  0  0  0  0  0  0  0
   -4.5980   18.6820  -33.7160 C   0  0  0  0  0  0  0  0  0  0  0  0
   -5.6420   19.6180  -33.1010 C   0  0  0  0  0  0  0  0  0  0  0  0
   -6.6950   22.2610  -32.6430 C   0  0  0  0  0  0  0  0  0  0  0  0
   -6.0600   23.4110  -32.1690 C   0  0  0  0  0  0  0  0  0  0  0  0
   -1.8090   24.7150  -28.7690 C   0  0  0  0  0  0  0  0  0  0  0  0
   -1.5530   26.0280  -28.5980 N   0  0  0  0  0  0  0  0  0  0  0  0
   -0.5670   26.0310  -27.6640 C   0  0  0  0  0  0  0  0  0  0  0  0
   -0.2140   24.7870  -27.2580 N   0  0  0  0  0  0  0  0  0  0  0  0
    0.8350   24.4310  -26.3090 C   0  0  0  0  0  0  0  0  0  0  0  0
   -1.0000   23.9640  -27.9690 C   0  0  0  0  0  0  0  0  0  0  0  0
   -1.0430   22.5700  -27.9660 C   0  0  0  0  0  0  0  0  0  0  0  0
   -2.1294   20.0638  -27.8107 H   0  0  0  0  0  0  0  0  0  0  0  0
   -3.0225   20.1612  -29.3661 H   0  0  0  0  0  0  0  0  0  0  0  0
   -1.2323   20.0139  -29.3661 H   0  0  0  0  0  0  0  0  0  0  0  0
   -3.5764   22.2314  -30.2734 H   0  0  0  0  0  0  0  0  0  0  0  0
   -7.0764   23.2937  -28.9045 H   0  0  0  0  0  0  0  0  0  0  0  0
   -8.2178   21.2460  -29.7541 H   0  0  0  0  0  0  0  0  0  0  0  0
   -7.2430   19.5350  -34.3950 H   0  0  0  0  0  0  0  0  0  0  0  0
   -8.2028   17.4808  -33.0060 H   0  0  0  0  0  0  0  0  0  0  0  0
   -7.1328   17.3630  -34.4773 H   0  0  0  0  0  0  0  0  0  0  0  0
   -6.2071   17.2797  -31.5705 H   0  0  0  0  0  0  0  0  0  0  0  0
   -6.3341   15.8784  -32.7070 H   0  0  0  0  0  0  0  0  0  0  0  0
   -4.0149   17.1269  -32.3351 H   0  0  0  0  0  0  0  0  0  0  0  0
   -4.5410   16.5536  -33.9815 H   0  0  0  0  0  0  0  0  0  0  0  0
   -3.5926   19.0633  -33.4842 H   0  0  0  0  0  0  0  0  0  0  0  0
   -4.7569   18.6477  -34.8039 H   0  0  0  0  0  0  0  0  0  0  0  0
   -5.5213   19.6199  -32.0076 H   0  0  0  0  0  0  0  0  0  0  0  0
   -5.4880   20.6266  -33.5120 H   0  0  0  0  0  0  0  0  0  0  0  0
   -6.5894   21.9717  -33.6990 H   0  0  0  0  0  0  0  0  0  0  0  0
   -5.4622   24.0293  -32.8548 H   0  0  0  0  0  0  0  0  0  0  0  0
   -0.1022   26.9496  -27.2765 H   0  0  0  0  0  0  0  0  0  0  0  0
    0.4598   24.5583  -25.2829 H   0  0  0  0  0  0  0  0  0  0  0  0
    1.1295   23.3826  -26.4642 H   0  0  0  0  0  0  0  0  0  0  0  0
    1.7068   25.0836  -26.4642 H   0  0  0  0  0  0  0  0  0  0  0  0
   -0.3737   21.9816  -27.3211 H   0  0  0  0  0  0  0  0  0  0  0  0
  1  2  1  0
  2  3  2  0
  3  4  1  0
  4  5  1  0
  5  6  1  0
  6  7  2  0
  6  8  2  0
  6  9  1  0
  9 10  2  0
 10 11  1  0
 11 12  2  0
 12 13  1  0
 13 14  2  0
 13 15  2  0
 13 16  1  0
 16 17  1  0
 17 18  1  0
 18 19  1  0
 19 20  1  0
 20 21  1  0
 12 22  1  0
 22 23  2  0
  4 24  2  0
 24 25  1  0
 25 26  2  0
 26 27  1  0
 27 28  1  0
 27 29  1  0
 29 30  2  0
 30  2  1  0
 23  9  1  0
 29 24  1  0
 21 16  1  0
  1 31  1  0
  1 32  1  0
  1 33  1  0
  3 34  1  0
 10 35  1  0
 11 36  1  0
 16 37  1  0
 17 38  1  0
 17 39  1  0
 18 40  1  0
 18 41  1  0
 19 42  1  0
 19 43  1  0
 20 44  1  0
 20 45  1  0
 21 46  1  0
 21 47  1  0
 22 48  1  0
 23 49  1  0
 26 50  1  0
 28 51  1  0
 28 52  1  0
 28 53  1  0
 30 54  1  0
M  CHG  2   5  -1  16   1
M  END
>  <UniqueID>  (1) 
1

>  <SMILES>  (1) 
Cc1cc([N-]S(=O)(=O)c2ccc(S(=O)(=O)[NH+]3CCCCC3)cc2)c2ncn(C)c2c1

>  <Energy>  (1) 
103.77048486691821

>  <Genealogy>  (1) 
Cc1cc([N-]S(=O)(=O)c2ccc(S(=O)(=O)[NH+]3CCCCC3)cc2)c2ncn(C)c2c1 (protonated)
Cc1cc([N-]S(=O)(=O)c2ccc(S(=O)(=O)[NH+]3CCCCC3)cc2)c2ncn(C)c2c1 (3D coordinates assigned)
Cc1cc([N-]S(=O)(=O)c2ccc(S(=O)(=O)[NH+]3CCCCC3)cc2)c2ncn(C)c2c1 (nonaromatic ring conformer: 103.77048486691821 kcal/mol)

>  <smiles>  (1) 
Cc1cc(NS(=O)(=O)c2ccc(S(=O)(=O)N3CCCCC3)cc2)c2ncn(C)c2c1

>  <score_type>  (1) 
oracle

>  <origin>  (1) 
adgpu

>  <m_score__min__energy>  (1) 
-11.880000000000001

>  <m_primary>  (1) 
energy

$$$$
1:0
     RDKit          3D

 54 57  0  0  0  0  0  0  0  0999 V2000
   -6.8270   15.4010  -34.2460 C   0  0  0  0  0  0  0  0  0  0  0  0
   -6.7360   16.8460  -34.0800 N   0  0  0  0  0  0  0  0  0  0  0  0
   -6.4310   17.4390  -32.8130 C   0  0  0  0  0  0  0  0  0  0  0  0
   -6.0900   16.7090  -31.8450 O   0  0  0  0  0  0  0  0  0  0  0  0
   -6.4780   18.9030  -32.6330 C   0  0  0  0  0  0  0  0  0  0  0  0
   -7.5850   19.6730  -32.2650 C   0  0  0  0  0  0  0  0  0  0  0  0
   -8.9580   19.1640  -31.9590 C   0  0  0  0  0  0  0  0  0  0  0  0
   -7.2610   20.9520  -32.2170 O   0  0  0  0  0  0  0  0  0  0  0  0
   -5.9960   21.0540  -32.5470 C   0  0  0  0  0  0  0  0  0  0  0  0
   -5.2460   22.2210  -32.6550 C   0  0  0  0  0  0  0  0  0  0  0  0
   -3.9140   22.1120  -33.0860 C   0  0  0  0  0  0  0  0  0  0  0  0
   -3.3590   20.8460  -33.4090 C   0  0  0  0  0  0  0  0  0  0  0  0
   -2.0240   20.7130  -33.9110 N   0  0  0  0  0  0  0  0  0  0  0  0
   -0.6170   20.5560  -32.9130 S   0  0  0  0  0  0  0  0  0  0  0  0
   -0.0460   19.1730  -33.0550 O   0  0  0  0  0  0  0  0  0  0  0  0
    0.4130   21.5580  -33.3550 O   0  0  0  0  0  0  0  0  0  0  0  0
   -1.0580   20.8990  -31.2440 C   0  0  0  0  0  0  0  0  0  0  0  0
   -0.5640   20.0800  -30.2240 C   0  0  0  0  0  0  0  0  0  0  0  0
   -0.8420   20.3760  -28.8880 C   0  0  0  0  0  0  0  0  0  0  0  0
   -1.6090   21.4950  -28.5630 C   0  0  0  0  0  0  0  0  0  0  0  0
   -2.1200   22.3190  -29.5760 C   0  0  0  0  0  0  0  0  0  0  0  0
   -3.0650   23.7530  -29.1600 S   0  0  0  0  0  0  0  0  0  0  0  0
   -3.4610   23.6720  -27.7130 O   0  0  0  0  0  0  0  0  0  0  0  0
   -2.2060   24.9750  -29.3370 O   0  0  0  0  0  0  0  0  0  0  0  0
   -4.5060   23.9220  -30.1330 N   0  0  0  0  0  0  0  0  0  0  0  0
   -5.5940   23.0730  -29.6540 C   0  0  0  0  0  0  0  0  0  0  0  0
   -6.8870   23.7280  -30.1170 C   0  0  0  0  0  0  0  0  0  0  0  0
   -6.5190   25.1740  -30.4200 C   0  0  0  0  0  0  0  0  0  0  0  0
   -5.0340   25.2850  -30.1060 C   0  0  0  0  0  0  0  0  0  0  0  0
   -1.8410   22.0170  -30.9180 C   0  0  0  0  0  0  0  0  0  0  0  0
   -4.1410   19.6820  -33.2610 C   0  0  0  0  0  0  0  0  0  0  0  0
   -5.4580   19.8210  -32.8160 C   0  0  0  0  0  0  0  0  0  0  0  0
   -6.8573   14.9195  -33.2574 H   0  0  0  0  0  0  0  0  0  0  0  0
   -7.7426   15.1528  -34.8029 H   0  0  0  0  0  0  0  0  0  0  0  0
   -5.9498   15.0399  -34.8029 H   0  0  0  0  0  0  0  0  0  0  0  0
   -6.8370   17.4500  -34.9240 H   0  0  0  0  0  0  0  0  0  0  0  0
   -9.0956   19.1130  -30.8688 H   0  0  0  0  0  0  0  0  0  0  0  0
   -9.7062   19.8445  -32.3916 H   0  0  0  0  0  0  0  0  0  0  0  0
   -9.0818   18.1602  -32.3916 H   0  0  0  0  0  0  0  0  0  0  0  0
   -5.6836   23.2000  -32.4100 H   0  0  0  0  0  0  0  0  0  0  0  0
   -3.2945   23.0167  -33.1742 H   0  0  0  0  0  0  0  0  0  0  0  0
    0.0457   19.1995  -30.4749 H   0  0  0  0  0  0  0  0  0  0  0  0
   -0.4553   19.7253  -28.0899 H   0  0  0  0  0  0  0  0  0  0  0  0
   -1.8136   21.7318  -27.5085 H   0  0  0  0  0  0  0  0  0  0  0  0
   -5.5049   22.0634  -30.0814 H   0  0  0  0  0  0  0  0  0  0  0  0
   -5.5683   22.9724  -28.5589 H   0  0  0  0  0  0  0  0  0  0  0  0
   -7.2690   23.2302  -31.0205 H   0  0  0  0  0  0  0  0  0  0  0  0
   -7.6780   23.6571  -29.3559 H   0  0  0  0  0  0  0  0  0  0  0  0
   -6.7073   25.4057  -31.4787 H   0  0  0  0  0  0  0  0  0  0  0  0
   -7.1173   25.8821  -29.8278 H   0  0  0  0  0  0  0  0  0  0  0  0
   -4.5299   25.9038  -30.8629 H   0  0  0  0  0  0  0  0  0  0  0  0
   -4.8665   25.7594  -29.1278 H   0  0  0  0  0  0  0  0  0  0  0  0
   -2.2379   22.6595  -31.7178 H   0  0  0  0  0  0  0  0  0  0  0  0
   -3.7247   18.6899  -33.4901 H   0  0  0  0  0  0  0  0  0  0  0  0
  1  2  1  0
  2  3  1  0
  3  4  2  0
  3  5  1  0
  5  6  2  0
  6  7  1  0
  6  8  1  0
  8  9  1  0
  9 10  2  0
 10 11  1  0
 11 12  2  0
 12 13  1  0
 13 14  1  0
 14 15  2  0
 14 16  2  0
 14 17  1  0
 17 18  2  0
 18 19  1  0
 19 20  2  0
 20 21  1  0
 21 22  1  0
 22 23  2  0
 22 24  2  0
 22 25  1  0
 25 26  1  0
 26 27  1  0
 27 28  1  0
 28 29  1  0
 21 30  2  0
 12 31  1  0
 31 32  2  0
 32  5  1  0
 32  9  1  0
 30 17  1  0
 29 25  1  0
  1 33  1  0
  1 34  1  0
  1 35  1  0
  2 36  1  0
  7 37  1  0
  7 38  1  0
  7 39  1  0
 10 40  1  0
 11 41  1  0
 18 42  1  0
 19 43  1  0
 20 44  1  0
 26 45  1  0
 26 46  1  0
 27 47  1  0
 27 48  1  0
 28 49  1  0
 28 50  1  0
 29 51  1  0
 29 52  1  0
 30 53  1  0
 31 54  1  0
M  CHG  1  13  -1
M  END
>  <UniqueID>  (2) 
2

>  <SMILES>  (2) 
CNC(=O)c1c(C)oc2ccc([N-]S(=O)(=O)c3cccc(S(=O)(=O)N4CCCC4)c3)cc12

>  <Energy>  (2) 
94.50869381962646

>  <Genealogy>  (2) 
CNC(=O)c1c(C)oc2ccc([N-]S(=O)(=O)c3cccc(S(=O)(=O)N4CCCC4)c3)cc12 (protonated)
CNC(=O)c1c(C)oc2ccc([N-]S(=O)(=O)c3cccc(S(=O)(=O)N4CCCC4)c3)cc12 (3D coordinates assigned)
CNC(=O)c1c(C)oc2ccc([N-]S(=O)(=O)c3cccc(S(=O)(=O)N4CCCC4)c3)cc12 (nonaromatic ring conformer: 94.50869381962646 kcal/mol)

>  <smiles>  (2) 
CNC(=O)c1c(C)oc2ccc(NS(=O)(=O)c3cccc(S(=O)(=O)N4CCCC4)c3)cc12

>  <score_type>  (2) 
oracle

>  <origin>  (2) 
adgpu

>  <m_score__min__energy>  (2) 
-11.48

>  <m_primary>  (2) 
energy

$$$$
2:0
     RDKit          3D

 55 58  0  0  0  0  0  0  0  0999 V2000
   -6.5040   16.7980  -32.3520 C   0  0  0  0  0  0  0  0  0  0  0  0
   -7.1530   18.0410  -31.9080 N   0  0  0  0  0  0  0  0  0  0  0  0
   -8.3240   18.3300  -32.7550 C   0  0  0  0  0  0  0  0  0  0  0  0
   -9.1240   19.4880  -32.1530 C   0  0  0  0  0  0  0  0  0  0  0  0
   -8.2370   20.6470  -31.7770 C   0  0  0  0  0  0  0  0  0  0  0  0
   -8.8130   21.8950  -31.5030 C   0  0  0  0  0  0  0  0  0  0  0  0
   -8.0170   22.9700  -31.1030 C   0  0  0  0  0  0  0  0  0  0  0  0
   -6.6300   22.8090  -30.9500 C   0  0  0  0  0  0  0  0  0  0  0  0
   -5.7840   23.9100  -30.5740 N   0  0  0  0  0  0  0  0  0  0  0  0
   -4.3800   23.9840  -30.8720 C   0  0  0  0  0  0  0  0  0  0  0  0
   -3.8930   23.3030  -31.8130 O   0  0  0  0  0  0  0  0  0  0  0  0
   -3.5330   24.9020  -30.1720 N   0  0  0  0  0  0  0  0  0  0  0  0
   -2.8380   24.6210  -28.9480 C   0  0  0  0  0  0  0  0  0  0  0  0
   -3.3520   23.6360  -28.0980 C   0  0  0  0  0  0  0  0  0  0  0  0
   -2.7070   23.3300  -26.8990 C   0  0  0  0  0  0  0  0  0  0  0  0
   -1.5500   24.0200  -26.5300 C   0  0  0  0  0  0  0  0  0  0  0  0
   -1.0400   25.0340  -27.3520 C   0  0  0  0  0  0  0  0  0  0  0  0
    0.4040   25.9270  -26.8670 S   0  0  0  0  0  0  0  0  0  0  0  0
    0.2630   27.3530  -27.3240 O   0  0  0  0  0  0  0  0  0  0  0  0
    1.6260   25.3290  -27.5090 O   0  0  0  0  0  0  0  0  0  0  0  0
    0.5690   25.8720  -25.1290 N   0  0  0  0  0  0  0  0  0  0  0  0
    1.8040   26.5590  -24.6860 C   0  0  0  0  0  0  0  0  0  0  0  0
    1.5090   27.9240  -24.0400 C   0  0  0  0  0  0  0  0  0  0  0  0
    0.6410   27.8360  -22.9190 O   0  0  0  0  0  0  0  0  0  0  0  0
   -0.3600   26.8330  -23.0450 C   0  0  0  0  0  0  0  0  0  0  0  0
   -0.6490   26.4070  -24.4930 C   0  0  0  0  0  0  0  0  0  0  0  0
   -1.6960   25.3500  -28.5560 C   0  0  0  0  0  0  0  0  0  0  0  0
   -1.2290   26.4010  -29.3400 O   0  0  0  0  0  0  0  0  0  0  0  0
   -6.0510   21.5640  -31.2340 C   0  0  0  0  0  0  0  0  0  0  0  0
   -6.8470   20.4730  -31.6200 C   0  0  0  0  0  0  0  0  0  0  0  0
   -6.1910   19.1600  -31.9700 C   0  0  0  0  0  0  0  0  0  0  0  0
   -6.1973   16.2106  -31.4740 H   0  0  0  0  0  0  0  0  0  0  0  0
   -7.2108   16.2112  -32.9570 H   0  0  0  0  0  0  0  0  0  0  0  0
   -5.6185   17.0426  -32.9570 H   0  0  0  0  0  0  0  0  0  0  0  0
   -7.9857   18.6055  -33.7648 H   0  0  0  0  0  0  0  0  0  0  0  0
   -8.9628   17.4362  -32.8101 H   0  0  0  0  0  0  0  0  0  0  0  0
   -9.8638   19.8310  -32.8912 H   0  0  0  0  0  0  0  0  0  0  0  0
   -9.6160   19.1241  -31.2389 H   0  0  0  0  0  0  0  0  0  0  0  0
   -9.9002   22.0285  -31.6038 H   0  0  0  0  0  0  0  0  0  0  0  0
   -8.4788   23.9489  -30.9065 H   0  0  0  0  0  0  0  0  0  0  0  0
   -6.2270   24.7370  -30.1150 H   0  0  0  0  0  0  0  0  0  0  0  0
   -4.2707   23.0991  -28.3766 H   0  0  0  0  0  0  0  0  0  0  0  0
   -3.1104   22.5442  -26.2434 H   0  0  0  0  0  0  0  0  0  0  0  0
   -1.0371   23.7665  -25.5905 H   0  0  0  0  0  0  0  0  0  0  0  0
    2.3191   25.9230  -23.9511 H   0  0  0  0  0  0  0  0  0  0  0  0
    2.4307   26.7332  -25.5731 H   0  0  0  0  0  0  0  0  0  0  0  0
    2.4602   28.3685  -23.7118 H   0  0  0  0  0  0  0  0  0  0  0  0
    1.0040   28.5420  -24.7971 H   0  0  0  0  0  0  0  0  0  0  0  0
   -0.0314   25.9458  -22.4839 H   0  0  0  0  0  0  0  0  0  0  0  0
   -1.2916   27.2663  -22.6520 H   0  0  0  0  0  0  0  0  0  0  0  0
   -1.4278   25.6302  -24.4928 H   0  0  0  0  0  0  0  0  0  0  0  0
   -0.9887   27.2860  -25.0604 H   0  0  0  0  0  0  0  0  0  0  0  0
   -4.9609   21.4403  -31.1536 H   0  0  0  0  0  0  0  0  0  0  0  0
   -5.7832   19.2247  -32.9896 H   0  0  0  0  0  0  0  0  0  0  0  0
   -5.3910   18.9683  -31.2398 H   0  0  0  0  0  0  0  0  0  0  0  0
  1  2  1  0
  2  3  1  0
  3  4  1  0
  4  5  1  0
  5  6  2  0
  6  7  1  0
  7  8  2  0
  8  9  1  0
  9 10  1  0
 10 11  2  0
 10 12  1  0
 12 13  1  0
 13 14  2  0
 14 15  1  0
 15 16  2  0
 16 17  1  0
 17 18  1  0
 18 19  2  0
 18 20  2  0
 18 21  1  0
 21 22  1  0
 22 23  1  0
 23 24  1  0
 24 25  1  0
 25 26  1  0
 17 27  2  0
 27 28  1  0
  8 29  1  0
 29 30  2  0
 30 31  1  0
 31  2  1  0
 30  5  1  0
 27 13  1  0
 26 21  1  0
  1 32  1  0
  1 33  1  0
  1 34  1  0
  3 35  1  0
  3 36  1  0
  4 37  1  0
  4 38  1  0
  6 39  1  0
  7 40  1  0
  9 41  1  0
 14 42  1  0
 15 43  1  0
 16 44  1  0
 22 45  1  0
 22 46  1  0
 23 47  1  0
 23 48  1  0
 25 49  1  0
 25 50  1  0
 26 51  1  0
 26 52  1  0
 29 53  1  0
 31 54  1  0
 31 55  1  0
M  CHG  2  12  -1  28  -1
M  END
>  <UniqueID>  (3) 
3

>  <SMILES>  (3) 
CN1CCc2ccc(NC(=O)[N-]c3cccc(S(=O)(=O)N4CCOCC4)c3[O-])cc2C1

>  <Energy>  (3) 
80.73017053540755

>  <Genealogy>  (3) 
CN1CCc2ccc(NC(=O)[N-]c3cccc(S(=O)(=O)N4CCOCC4)c3[O-])cc2C1 (protonated)
CN1CCc2ccc(NC(=O)[N-]c3cccc(S(=O)(=O)N4CCOCC4)c3[O-])cc2C1 (3D coordinates assigned)
CN1CCc2ccc(NC(=O)[N-]c3cccc(S(=O)(=O)N4CCOCC4)c3[O-])cc2C1 (nonaromatic ring conformer: 80.73017053540755 kcal/mol)

>  <smiles>  (3) 
CN1CCc2ccc(NC(=O)Nc3cccc(S(=O)(=O)N4CCOCC4)c3O)cc2C1

>  <score_type>  (3) 
oracle

>  <origin>  (3) 
adgpu

>  <m_score__min__energy>  (3) 
-13.75

>  <m_primary>  (3) 
energy

$$$$
3:0
     RDKit          3D

 59 62  0  0  0  0  0  0  0  0999 V2000
    1.6220   22.9360  -35.6790 C   0  0  0  0  0  0  0  0  0  0  0  0
    0.6030   21.9950  -36.0020 O   0  0  0  0  0  0  0  0  0  0  0  0
    0.0160   21.1120  -35.0810 C   0  0  0  0  0  0  0  0  0  0  0  0
   -0.5360   21.5590  -33.8650 C   0  0  0  0  0  0  0  0  0  0  0  0
   -1.0820   20.6450  -32.9520 C   0  0  0  0  0  0  0  0  0  0  0  0
   -1.6680   21.2030  -31.3880 S   0  0  0  0  0  0  0  0  0  0  0  0
   -0.5220   21.7730  -30.6010 O   0  0  0  0  0  0  0  0  0  0  0  0
   -2.2650   20.0620  -30.6150 O   0  0  0  0  0  0  0  0  0  0  0  0
   -2.8600   22.4330  -31.6410 N   0  0  0  0  0  0  0  0  0  0  0  0
   -4.2520   22.1070  -31.5870 C   0  0  0  0  0  0  0  0  0  0  0  0
   -4.7240   21.0390  -32.3790 C   0  0  0  0  0  0  0  0  0  0  0  0
   -6.0900   20.7750  -32.3840 C   0  0  0  0  0  0  0  0  0  0  0  0
   -6.9670   21.5090  -31.6380 C   0  0  0  0  0  0  0  0  0  0  0  0
   -6.5430   22.5600  -30.8290 C   0  0  0  0  0  0  0  0  0  0  0  0
   -5.1650   22.8670  -30.7890 C   0  0  0  0  0  0  0  0  0  0  0  0
   -4.6520   24.2630  -29.8190 S   0  0  0  0  0  0  0  0  0  0  0  0
   -3.5030   24.9710  -30.4810 O   0  0  0  0  0  0  0  0  0  0  0  0
   -5.7960   25.2360  -29.7600 O   0  0  0  0  0  0  0  0  0  0  0  0
   -4.1960   23.8320  -28.1820 N   0  0  0  0  0  0  0  0  0  0  0  0
   -3.0680   24.6280  -27.6600 C   0  0  0  0  0  0  0  0  0  0  0  0
   -1.6870   24.0950  -28.0900 C   0  0  0  0  0  0  0  0  0  0  0  0
   -1.6180   22.5630  -28.1840 C   0  0  0  0  0  0  0  0  0  0  0  0
   -2.7540   21.9000  -27.4140 C   0  0  0  0  0  0  0  0  0  0  0  0
   -4.1100   22.3680  -27.9610 C   0  0  0  0  0  0  0  0  0  0  0  0
   -8.2170   21.0350  -31.8220 N   0  0  0  0  0  0  0  0  0  0  0  0
   -9.4430   21.4640  -31.1540 C   0  0  0  0  0  0  0  0  0  0  0  0
   -8.0530   19.9940  -32.6750 C   0  0  0  0  0  0  0  0  0  0  0  0
   -8.9990   19.2520  -33.0590 O   0  0  0  0  0  0  0  0  0  0  0  0
   -6.7640   19.8210  -33.0600 N   0  0  0  0  0  0  0  0  0  0  0  0
   -6.2150   18.7630  -33.9050 C   0  0  0  0  0  0  0  0  0  0  0  0
   -1.0800   19.2790  -33.2560 C   0  0  0  0  0  0  0  0  0  0  0  0
   -0.5560   18.8310  -34.4700 C   0  0  0  0  0  0  0  0  0  0  0  0
   -0.0100   19.7410  -35.3810 C   0  0  0  0  0  0  0  0  0  0  0  0
    0.6590   19.1460  -36.8930 Cl  0  0  0  0  0  0  0  0  0  0  0  0
    1.7116   23.0187  -34.5858 H   0  0  0  0  0  0  0  0  0  0  0  0
    2.5801   22.5982  -36.1009 H   0  0  0  0  0  0  0  0  0  0  0  0
    1.3614   23.9179  -36.1009 H   0  0  0  0  0  0  0  0  0  0  0  0
   -0.5390   22.6335  -33.6294 H   0  0  0  0  0  0  0  0  0  0  0  0
   -2.5480   23.3540  -32.0150 H   0  0  0  0  0  0  0  0  0  0  0  0
   -4.0297   20.4306  -32.9772 H   0  0  0  0  0  0  0  0  0  0  0  0
   -7.2653   23.1384  -30.2342 H   0  0  0  0  0  0  0  0  0  0  0  0
   -3.1719   25.6602  -28.0257 H   0  0  0  0  0  0  0  0  0  0  0  0
   -3.1103   24.5674  -26.5625 H   0  0  0  0  0  0  0  0  0  0  0  0
   -1.4449   24.5147  -29.0775 H   0  0  0  0  0  0  0  0  0  0  0  0
   -0.9686   24.4022  -27.3157 H   0  0  0  0  0  0  0  0  0  0  0  0
   -1.6837   22.2673  -29.2415 H   0  0  0  0  0  0  0  0  0  0  0  0
   -0.6659   22.2345  -27.7416 H   0  0  0  0  0  0  0  0  0  0  0  0
   -2.6765   20.8080  -27.5209 H   0  0  0  0  0  0  0  0  0  0  0  0
   -2.6793   22.1799  -26.3528 H   0  0  0  0  0  0  0  0  0  0  0  0
   -4.2896   21.8617  -28.9209 H   0  0  0  0  0  0  0  0  0  0  0  0
   -4.8650   22.1148  -27.2021 H   0  0  0  0  0  0  0  0  0  0  0  0
   -9.3031   21.4150  -30.0640 H   0  0  0  0  0  0  0  0  0  0  0  0
   -9.6780   22.4978  -31.4474 H   0  0  0  0  0  0  0  0  0  0  0  0
  -10.2713   20.8023  -31.4474 H   0  0  0  0  0  0  0  0  0  0  0  0
   -5.8010   17.9651  -33.2710 H   0  0  0  0  0  0  0  0  0  0  0  0
   -7.0126   18.3500  -34.5401 H   0  0  0  0  0  0  0  0  0  0  0  0
   -5.4181   19.1774  -34.5401 H   0  0  0  0  0  0  0  0  0  0  0  0
   -1.4924   18.5563  -32.5365 H   0  0  0  0  0  0  0  0  0  0  0  0
   -0.5726   17.7579  -34.7110 H   0  0  0  0  0  0  0  0  0  0  0  0
  1  2  1  0
  2  3  1  0
  3  4  2  0
  4  5  1  0
  5  6  1  0
  6  7  2  0
  6  8  2  0
  6  9  1  0
  9 10  1  0
 10 11  2  0
 11 12  1  0
 12 13  2  0
 13 14  1  0
 14 15  2  0
 15 16  1  0
 16 17  2  0
 16 18  2  0
 16 19  1  0
 19 20  1  0
 20 21  1  0
 21 22  1  0
 22 23  1  0
 23 24  1  0
 13 25  1  0
 25 26  1  0
 25 27  1  0
 27 28  2  0
 27 29  1  0
 29 30  1  0
  5 31  2  0
 31 32  1  0
 32 33  2  0
 33 34  1  0
 33  3  1  0
 15 10  1  0
 24 19  1  0
 29 12  1  0
  1 35  1  0
  1 36  1  0
  1 37  1  0
  4 38  1  0
  9 39  1  0
 11 40  1  0
 14 41  1  0
 20 42  1  0
 20 43  1  0
 21 44  1  0
 21 45  1  0
 22 46  1  0
 22 47  1  0
 23 48  1  0
 23 49  1  0
 24 50  1  0
 24 51  1  0
 26 52  1  0
 26 53  1  0
 26 54  1  0
 30 55  1  0
 30 56  1  0
 30 57  1  0
 31 58  1  0
 32 59  1  0
M  END
>  <UniqueID>  (4) 
4

>  <SMILES>  (4) 
COc1cc(S(=O)(=O)Nc2cc3c(cc2S(=O)(=O)N2CCCCC2)n(C)c(=O)n3C)ccc1Cl

>  <Energy>  (4) 
113.31380129181994

>  <Genealogy>  (4) 
COc1cc(S(=O)(=O)Nc2cc3c(cc2S(=O)(=O)N2CCCCC2)n(C)c(=O)n3C)ccc1Cl (3D coordinates assigned)
COc1cc(S(=O)(=O)Nc2cc3c(cc2S(=O)(=O)N2CCCCC2)n(C)c(=O)n3C)ccc1Cl (nonaromatic ring conformer: 113.31380129181994 kcal/mol)

>  <smiles>  (4) 
COc1cc(S(=O)(=O)Nc2cc3c(cc2S(=O)(=O)N2CCCCC2)n(C)c(=O)n3C)ccc1Cl

>  <score_type>  (4) 
oracle

>  <origin>  (4) 
adgpu

>  <m_score__min__energy>  (4) 
-10.470000000000001

>  <m_primary>  (4) 
energy

$$$$
4:0
     RDKit          3D

 33 35  0  0  0  0  0  0  0  0999 V2000
   -6.0920   25.6850  -29.8170 C   0  0  0  0  0  0  0  0  0  0  0  0
   -5.2690   24.5620  -30.3500 C   0  0  0  0  0  0  0  0  0  0  0  0
   -4.3840   23.8640  -29.5980 N   0  0  0  0  0  0  0  0  0  0  0  0
   -3.9410   22.9500  -30.4820 C   0  0  0  0  0  0  0  0  0  0  0  0
   -4.5540   23.0650  -31.6670 N   0  0  0  0  0  0  0  0  0  0  0  0
   -5.3880   24.0870  -31.6090 N   0  0  0  0  0  0  0  0  0  0  0  0
   -4.2660   22.2780  -32.8630 C   0  0  0  0  0  0  0  0  0  0  0  0
   -3.5930   20.9320  -32.4850 C   0  0  2  0  0  0  0  0  0  0  0  0
   -4.5790   19.9500  -31.9540 N   0  0  0  0  0  0  0  0  0  0  0  0
   -5.7230   19.7260  -32.8580 C   0  0  0  0  0  0  0  0  0  0  0  0
   -6.9900   20.3400  -32.3360 C   0  0  0  0  0  0  0  0  0  0  0  0
   -8.2430   20.0630  -32.8730 C   0  0  0  0  0  0  0  0  0  0  0  0
   -9.3780   20.9100  -31.9680 S   0  0  0  0  0  0  0  0  0  0  0  0
   -8.2360   21.5860  -30.9380 C   0  0  0  0  0  0  0  0  0  0  0  0
   -6.9920   21.1780  -31.2640 N   0  0  0  0  0  0  0  0  0  0  0  0
   -2.4560   21.2010  -31.4610 C   0  0  0  0  0  0  0  0  0  0  0  0
   -2.9730   21.8530  -30.1650 C   0  0  0  0  0  0  0  0  0  0  0  0
   -6.0752   25.6621  -28.7174 H   0  0  0  0  0  0  0  0  0  0  0  0
   -5.6796   26.6416  -30.1702 H   0  0  0  0  0  0  0  0  0  0  0  0
   -7.1284   25.5798  -30.1702 H   0  0  0  0  0  0  0  0  0  0  0  0
   -5.2063   22.0743  -33.3963 H   0  0  0  0  0  0  0  0  0  0  0  0
   -3.5790   22.8489  -33.5050 H   0  0  0  0  0  0  0  0  0  0  0  0
   -3.1648   20.4833  -33.3935 H   0  0  0  0  0  0  0  0  0  0  0  0
   -4.1220   19.0170  -31.8300 H   0  0  0  0  0  0  0  0  0  0  0  0
   -4.9270   20.2360  -31.0080 H   0  0  0  0  0  0  0  0  0  0  0  0
   -5.4921   20.1700  -33.8376 H   0  0  0  0  0  0  0  0  0  0  0  0
   -5.8824   18.6405  -32.9367 H   0  0  0  0  0  0  0  0  0  0  0  0
   -8.4526   19.4093  -33.7325 H   0  0  0  0  0  0  0  0  0  0  0  0
   -8.4710   22.2697  -30.1089 H   0  0  0  0  0  0  0  0  0  0  0  0
   -1.9756   20.2444  -31.2076 H   0  0  0  0  0  0  0  0  0  0  0  0
   -1.7448   21.8993  -31.9263 H   0  0  0  0  0  0  0  0  0  0  0  0
   -3.4769   21.0911  -29.5521 H   0  0  0  0  0  0  0  0  0  0  0  0
   -2.1204   22.2778  -29.6150 H   0  0  0  0  0  0  0  0  0  0  0  0
  1  2  1  0
  2  3  1  0
  3  4  2  0
  4  5  1  0
  5  6  1  0
  5  7  1  0
  7  8  1  0
  8  9  1  0
  9 10  1  0
 10 11  1  0
 11 12  2  0
 12 13  1  0
 13 14  1  0
 14 15  2  0
  8 16  1  0
 16 17  1  0
  6  2  2  0
 15 11  1  0
 17  4  1  0
  1 18  1  0
  1 19  1  0
  1 20  1  0
  7 21  1  0
  7 22  1  0
  8 23  1  6
  9 24  1  0
  9 25  1  0
 10 26  1  0
 10 27  1  0
 12 28  1  0
 14 29  1  0
 16 30  1  0
 16 31  1  0
 17 32  1  0
 17 33  1  0
M  CHG  1   9   1
M  END
>  <UniqueID>  (5) 
5

>  <SMILES>  (5) 
Cc1nc2n(n1)C[C@H]([NH2+]Cc1cscn1)CC2

>  <Energy>  (5) 
96.80061372861813

>  <Genealogy>  (5) 
Cc1nc2n(n1)CC([NH2+]Cc1cscn1)CC2 (protonated)
Cc1nc2n(n1)C[C@H]([NH2+]Cc1cscn1)CC2 (chirality)
Cc1nc2n(n1)C[C@H]([NH2+]Cc1cscn1)CC2 (3D coordinates assigned)
Cc1nc2n(n1)C[C@H]([NH2+]Cc1cscn1)CC2 (nonaromatic ring conformer: 96.80061372861813 kcal/mol)

>  <smiles>  (5) 
Cc1nc2n(n1)CC(NCc1cscn1)CC2

>  <score_type>  (5) 
oracle

>  <origin>  (5) 
adgpu

>  <m_score__min__energy>  (5) 
-5.3700000000000001

>  <m_primary>  (5) 
energy

$$$$
5:0
     RDKit          3D

 34 35  0  0  0  0  0  0  0  0999 V2000
   -3.1260   19.1030  -26.7010 C   0  0  0  0  0  0  0  0  0  0  0  0
   -3.1160   20.3270  -27.6170 C   0  0  0  0  0  0  0  0  0  0  0  0
   -1.7580   20.9850  -27.7030 C   0  0  0  0  0  0  0  0  0  0  0  0
   -0.7240   20.3080  -27.4450 O   0  0  0  0  0  0  0  0  0  0  0  0
   -1.6100   22.4010  -28.1320 C   0  0  0  0  0  0  0  0  0  0  0  0
   -0.5520   23.2020  -27.6620 C   0  0  0  0  0  0  0  0  0  0  0  0
   -0.4330   24.5300  -28.0720 C   0  0  0  0  0  0  0  0  0  0  0  0
   -1.3680   25.0850  -28.9470 C   0  0  0  0  0  0  0  0  0  0  0  0
   -1.2380   26.4130  -29.3400 O   0  0  0  0  0  0  0  0  0  0  0  0
   -2.4350   24.3110  -29.4240 C   0  0  0  0  0  0  0  0  0  0  0  0
   -3.3840   24.9170  -30.3130 N   0  0  0  0  0  0  0  0  0  0  0  0
   -5.1040   24.9350  -30.0830 S   0  0  0  0  0  0  0  0  0  0  0  0
   -5.4060   24.7870  -28.6190 O   0  0  0  0  0  0  0  0  0  0  0  0
   -5.6490   26.2500  -30.5670 O   0  0  0  0  0  0  0  0  0  0  0  0
   -5.8440   23.5970  -30.9560 C   0  0  0  0  0  0  0  0  0  0  0  0
   -5.0380   22.6890  -31.6580 C   0  0  0  0  0  0  0  0  0  0  0  0
   -5.6230   21.6330  -32.3640 C   0  0  0  0  0  0  0  0  0  0  0  0
   -7.0120   21.4780  -32.3710 C   0  0  0  0  0  0  0  0  0  0  0  0
   -7.5780   20.4540  -33.0570 F   0  0  0  0  0  0  0  0  0  0  0  0
   -7.8180   22.3780  -31.6670 C   0  0  0  0  0  0  0  0  0  0  0  0
   -7.2370   23.4350  -30.9600 C   0  0  0  0  0  0  0  0  0  0  0  0
   -2.5470   22.9690  -29.0170 C   0  0  0  0  0  0  0  0  0  0  0  0
   -3.1233   19.4308  -25.6510 H   0  0  0  0  0  0  0  0  0  0  0  0
   -4.0291   18.5061  -26.8965 H   0  0  0  0  0  0  0  0  0  0  0  0
   -2.2328   18.4914  -26.8965 H   0  0  0  0  0  0  0  0  0  0  0  0
   -3.4184   20.0124  -28.6268 H   0  0  0  0  0  0  0  0  0  0  0  0
   -3.8138   21.0635  -27.1921 H   0  0  0  0  0  0  0  0  0  0  0  0
    0.1865   22.7774  -26.9661 H   0  0  0  0  0  0  0  0  0  0  0  0
    0.4025   25.1433  -27.7036 H   0  0  0  0  0  0  0  0  0  0  0  0
   -3.9444   22.8076  -31.6533 H   0  0  0  0  0  0  0  0  0  0  0  0
   -4.9887   20.9230  -32.9149 H   0  0  0  0  0  0  0  0  0  0  0  0
   -8.9110   22.2542  -31.6694 H   0  0  0  0  0  0  0  0  0  0  0  0
   -7.8735   24.1407  -30.4060 H   0  0  0  0  0  0  0  0  0  0  0  0
   -3.3777   22.3549  -29.3951 H   0  0  0  0  0  0  0  0  0  0  0  0
  1  2  1  0
  2  3  1  0
  3  4  2  0
  3  5  1  0
  5  6  2  0
  6  7  1  0
  7  8  2  0
  8  9  1  0
  8 10  1  0
 10 11  1  0
 11 12  1  0
 12 13  2  0
 12 14  2  0
 12 15  1  0
 15 16  2  0
 16 17  1  0
 17 18  2  0
 18 19  1  0
 18 20  1  0
 20 21  2  0
 10 22  2  0
 22  5  1  0
 21 15  1  0
  1 23  1  0
  1 24  1  0
  1 25  1  0
  2 26  1  0
  2 27  1  0
  6 28  1  0
  7 29  1  0
 16 30  1  0
 17 31  1  0
 20 32  1  0
 21 33  1  0
 22 34  1  0
M  CHG  2   9  -1  11  -1
M  END
>  <UniqueID>  (6) 
6

>  <SMILES>  (6) 
CCC(=O)c1ccc([O-])c([N-]S(=O)(=O)c2ccc(F)cc2)c1

>  <Energy>  (6) 
37.42768871627148

>  <Genealogy>  (6) 
CCC(=O)c1ccc([O-])c([N-]S(=O)(=O)c2ccc(F)cc2)c1 (protonated)
CCC(=O)c1ccc([O-])c([N-]S(=O)(=O)c2ccc(F)cc2)c1 (3D coordinates assigned)
CCC(=O)c1ccc([O-])c([N-]S(=O)(=O)c2ccc(F)cc2)c1 (optimized conformer: 37.42768871627148 kcal/mol)

>  <smiles>  (6) 
CCC(=O)c1ccc(O)c(NS(=O)(=O)c2ccc(F)cc2)c1

>  <score_type>  (6) 
oracle

>  <origin>  (6) 
adgpu

>  <m_score__min__energy>  (6) 
-12.43

>  <m_primary>  (6) 
energy

$$$$
6:0
     RDKit          3D

 52 56  0  0  0  0  0  0  0  0999 V2000
   -6.4880   18.8020  -33.7940 C   0  0  0  0  0  0  0  0  0  0  0  0
   -7.0640   19.7740  -32.8740 N   0  0  0  0  0  0  0  0  0  0  0  0
   -8.4410   19.8550  -32.5060 C   0  0  0  0  0  0  0  0  0  0  0  0
   -9.2750   18.9270  -32.6730 O   0  0  0  0  0  0  0  0  0  0  0  0
   -8.7130   21.1380  -31.8760 C   0  0  0  0  0  0  0  0  0  0  0  0
   -9.8070   21.5310  -31.3970 O   0  0  0  0  0  0  0  0  0  0  0  0
   -7.4480   21.8510  -31.8810 C   0  0  0  0  0  0  0  0  0  0  0  0
   -7.1060   23.0670  -31.3000 C   0  0  0  0  0  0  0  0  0  0  0  0
   -5.7520   23.4590  -31.3250 C   0  0  0  0  0  0  0  0  0  0  0  0
   -5.2090   24.8410  -30.3720 S   0  0  0  0  0  0  0  0  0  0  0  0
   -5.8340   26.0860  -30.9320 O   0  0  0  0  0  0  0  0  0  0  0  0
   -5.6210   24.6870  -28.9320 O   0  0  0  0  0  0  0  0  0  0  0  0
   -3.4790   24.9840  -30.4580 N   0  0  0  0  0  0  0  0  0  0  0  0
   -2.5610   24.1650  -29.7230 C   0  0  0  0  0  0  0  0  0  0  0  0
   -2.5420   22.7630  -29.8960 C   0  0  0  0  0  0  0  0  0  0  0  0
   -1.5140   22.0370  -29.3100 C   0  0  0  0  0  0  0  0  0  0  0  0
   -0.5620   22.6400  -28.5240 C   0  0  0  0  0  0  0  0  0  0  0  0
   -0.5950   24.0080  -28.2640 C   0  0  0  0  0  0  0  0  0  0  0  0
   -1.6070   24.7780  -28.8660 C   0  0  0  0  0  0  0  0  0  0  0  0
   -1.6290   26.1540  -28.6290 O   0  0  0  0  0  0  0  0  0  0  0  0
    0.4240   21.6260  -28.1670 C   0  0  0  0  0  0  0  0  0  0  0  0
    1.4760   21.8330  -27.5070 O   0  0  0  0  0  0  0  0  0  0  0  0
    0.0700   20.3670  -28.7530 N   0  0  0  0  0  0  0  0  0  0  0  0
    0.9420   19.2370  -28.9260 C   0  0  0  0  0  0  0  0  0  0  0  0
    0.8200   18.4030  -30.0510 C   0  0  0  0  0  0  0  0  0  0  0  0
    1.6770   17.3130  -30.2190 C   0  0  0  0  0  0  0  0  0  0  0  0
    2.6660   17.0470  -29.2700 C   0  0  0  0  0  0  0  0  0  0  0  0
    2.8090   17.8810  -28.1530 C   0  0  0  0  0  0  0  0  0  0  0  0
    4.0620   17.5570  -26.9620 S   0  0  0  0  0  0  0  0  0  0  0  0
    4.9520   19.0110  -26.6460 N   0  0  0  0  0  0  0  0  0  0  0  0
    3.4270   17.0630  -25.6890 O   0  0  0  0  0  0  0  0  0  0  0  0
    4.9960   16.4970  -27.4850 O   0  0  0  0  0  0  0  0  0  0  0  0
    1.9430   18.9680  -27.9810 C   0  0  0  0  0  0  0  0  0  0  0  0
   -1.1430   20.6370  -29.4640 C   0  0  0  0  0  0  0  0  0  0  0  0
   -1.7910   19.7790  -30.1210 O   0  0  0  0  0  0  0  0  0  0  0  0
   -4.7930   22.6480  -31.9730 C   0  0  0  0  0  0  0  0  0  0  0  0
   -5.1660   21.4260  -32.5590 C   0  0  0  0  0  0  0  0  0  0  0  0
   -6.5050   21.0370  -32.4850 C   0  0  0  0  0  0  0  0  0  0  0  0
   -6.0092   17.9940  -33.2213 H   0  0  0  0  0  0  0  0  0  0  0  0
   -7.2826   18.3812  -34.4276 H   0  0  0  0  0  0  0  0  0  0  0  0
   -5.7373   19.2969  -34.4276 H   0  0  0  0  0  0  0  0  0  0  0  0
   -7.8707   23.7055  -30.8337 H   0  0  0  0  0  0  0  0  0  0  0  0
   -3.3242   22.2580  -30.4818 H   0  0  0  0  0  0  0  0  0  0  0  0
    0.1515   24.4747  -27.6045 H   0  0  0  0  0  0  0  0  0  0  0  0
   -2.3880   26.7450  -28.9450 H   0  0  0  0  0  0  0  0  0  0  0  0
    0.0449   18.6101  -30.8036 H   0  0  0  0  0  0  0  0  0  0  0  0
    1.5726   16.6631  -31.1003 H   0  0  0  0  0  0  0  0  0  0  0  0
    3.3334   16.1822  -29.3993 H   0  0  0  0  0  0  0  0  0  0  0  0
    4.7520   19.2860  -25.6650 H   0  0  0  0  0  0  0  0  0  0  0  0
    2.0486   19.6157  -27.0982 H   0  0  0  0  0  0  0  0  0  0  0  0
   -3.7442   22.9763  -32.0192 H   0  0  0  0  0  0  0  0  0  0  0  0
   -4.4217   20.7921  -33.0632 H   0  0  0  0  0  0  0  0  0  0  0  0
  1  2  1  0
  2  3  1  0
  3  4  2  0
  3  5  1  0
  5  6  2  0
  5  7  1  0
  7  8  2  0
  8  9  1  0
  9 10  1  0
 10 11  2  0
 10 12  2  0
 10 13  1  0
 13 14  1  0
 14 15  2  0
 15 16  1  0
 16 17  2  0
 17 18  1  0
 18 19  2  0
 19 20  1  0
 17 21  1  0
 21 22  2  0
 21 23  1  0
 23 24  1  0
 24 25  2  0
 25 26  1  0
 26 27  2  0
 27 28  1  0
 28 29  1  0
 29 30  1  0
 29 31  2  0
 29 32  2  0
 28 33  2  0
 23 34  1  0
 34 35  2  0
  9 36  2  0
 36 37  1  0
 37 38  2  0
 38  2  1  0
 38  7  1  0
 19 14  1  0
 33 24  1  0
 34 16  1  0
  1 39  1  0
  1 40  1  0
  1 41  1  0
  8 42  1  0
 15 43  1  0
 18 44  1  0
 20 45  1  0
 25 46  1  0
 26 47  1  0
 27 48  1  0
 30 49  1  0
 33 50  1  0
 36 51  1  0
 37 52  1  0
M  CHG  2  13  -1  30  -1
M  END
>  <UniqueID>  (7) 
7

>  <SMILES>  (7) 
CN1C(=O)C(=O)c2cc(S(=O)(=O)[N-]c3cc4c(cc3O)C(=O)N(c3cccc(S([NH-])(=O)=O)c3)C4=O)ccc21

>  <Energy>  (7) 
132.21840086631258

>  <Genealogy>  (7) 
CN1C(=O)C(=O)c2cc(S(=O)(=O)[N-]c3cc4c(cc3O)C(=O)N(c3cccc(S([NH-])(=O)=O)c3)C4=O)ccc21 (protonated)
CN1C(=O)C(=O)c2cc(S(=O)(=O)[N-]c3cc4c(cc3O)C(=O)N(c3cccc(S([NH-])(=O)=O)c3)C4=O)ccc21 (3D coordinates assigned)
CN1C(=O)C(=O)c2cc(S(=O)(=O)[N-]c3cc4c(cc3O)C(=O)N(c3cccc(S([NH-])(=O)=O)c3)C4=O)ccc21 (nonaromatic ring conformer: 132.21840086631258 kcal/mol)

>  <smiles>  (7) 
CN1C(=O)C(=O)c2cc(S(=O)(=O)Nc3cc4c(cc3O)C(=O)N(c3cccc(S(N)(=O)=O)c3)C4=O)ccc21

>  <score_type>  (7) 
oracle

>  <origin>  (7) 
adgpu

>  <m_score__min__energy>  (7) 
-13.93

>  <m_primary>  (7) 
energy

$$$$
7:0
     RDKit          3D

 51 54  0  0  0  0  0  0  0  0999 V2000
   -5.3830   25.1980  -29.9070 C   0  0  0  0  0  0  0  0  0  0  0  0
   -4.1380   24.6910  -30.4790 N   0  0  0  0  0  0  0  0  0  0  0  0
   -3.8710   23.0580  -29.9460 S   0  0  0  0  0  0  0  0  0  0  0  0
   -3.0960   23.0860  -28.6590 O   0  0  0  0  0  0  0  0  0  0  0  0
   -5.1960   22.4020  -29.6820 O   0  0  0  0  0  0  0  0  0  0  0  0
   -2.9190   22.1800  -31.1570 C   0  0  0  0  0  0  0  0  0  0  0  0
   -1.5250   22.1720  -31.0050 C   0  0  0  0  0  0  0  0  0  0  0  0
   -0.7070   21.5440  -31.9460 C   0  0  0  0  0  0  0  0  0  0  0  0
   -1.2730   20.9020  -33.0580 C   0  0  0  0  0  0  0  0  0  0  0  0
   -0.4870   20.2830  -34.0430 O   0  0  0  0  0  0  0  0  0  0  0  0
    0.5690   20.8850  -34.7420 C   0  0  0  0  0  0  0  0  0  0  0  0
    1.8370   20.2970  -34.6780 C   0  0  0  0  0  0  0  0  0  0  0  0
    2.9150   20.8690  -35.3570 C   0  0  0  0  0  0  0  0  0  0  0  0
    2.7370   22.0430  -36.0930 C   0  0  0  0  0  0  0  0  0  0  0  0
    1.4850   22.6660  -36.1440 C   0  0  0  0  0  0  0  0  0  0  0  0
    1.3630   23.8580  -36.8720 O   0  0  0  0  0  0  0  0  0  0  0  0
    0.7610   25.0500  -36.3690 C   0  0  0  0  0  0  0  0  0  0  0  0
    0.4000   22.0830  -35.4600 C   0  0  0  0  0  0  0  0  0  0  0  0
   -2.6600   20.9180  -33.2240 C   0  0  0  0  0  0  0  0  0  0  0  0
   -3.4930   21.5430  -32.2820 C   0  0  0  0  0  0  0  0  0  0  0  0
   -4.9130   21.4750  -32.4600 N   0  0  0  0  0  0  0  0  0  0  0  0
   -5.7670   22.6130  -32.3790 C   0  0  0  0  0  0  0  0  0  0  0  0
   -5.3710   23.8060  -32.4840 O   0  0  0  0  0  0  0  0  0  0  0  0
   -7.1250   22.1950  -32.1350 C   0  0  0  0  0  0  0  0  0  0  0  0
   -8.2900   22.9450  -31.9860 C   0  0  0  0  0  0  0  0  0  0  0  0
   -9.4890   22.2570  -31.7310 C   0  0  0  0  0  0  0  0  0  0  0  0
   -9.4940   20.8510  -31.6240 C   0  0  0  0  0  0  0  0  0  0  0  0
   -8.3010   20.1230  -31.7700 C   0  0  0  0  0  0  0  0  0  0  0  0
   -7.1210   20.8220  -32.0320 C   0  0  0  0  0  0  0  0  0  0  0  0
   -5.7280   20.2750  -32.1950 C   0  0  1  0  0  0  0  0  0  0  0  0
   -5.6510   19.3700  -33.2670 O   0  0  0  0  0  0  0  0  0  0  0  0
   -5.3194   25.1721  -28.8091 H   0  0  0  0  0  0  0  0  0  0  0  0
   -5.5448   26.2336  -30.2406 H   0  0  0  0  0  0  0  0  0  0  0  0
   -6.2223   24.5700  -30.2406 H   0  0  0  0  0  0  0  0  0  0  0  0
   -4.2540   24.6650  -31.5190 H   0  0  0  0  0  0  0  0  0  0  0  0
   -1.0706   22.6665  -30.1338 H   0  0  0  0  0  0  0  0  0  0  0  0
    0.3852   21.5525  -31.8153 H   0  0  0  0  0  0  0  0  0  0  0  0
    1.9855   19.3794  -34.0898 H   0  0  0  0  0  0  0  0  0  0  0  0
    3.9062   20.3942  -35.3122 H   0  0  0  0  0  0  0  0  0  0  0  0
    3.5873   22.4809  -36.6364 H   0  0  0  0  0  0  0  0  0  0  0  0
    0.7711   25.0300  -35.2692 H   0  0  0  0  0  0  0  0  0  0  0  0
    1.3256   25.9243  -36.7250 H   0  0  0  0  0  0  0  0  0  0  0  0
   -0.2778   25.1146  -36.7250 H   0  0  0  0  0  0  0  0  0  0  0  0
   -0.5868   22.5682  -35.4876 H   0  0  0  0  0  0  0  0  0  0  0  0
   -3.1061   20.4340  -34.1054 H   0  0  0  0  0  0  0  0  0  0  0  0
   -8.2719   24.0420  -32.0655 H   0  0  0  0  0  0  0  0  0  0  0  0
  -10.4279   22.8181  -31.6144 H   0  0  0  0  0  0  0  0  0  0  0  0
  -10.4372   20.3210  -31.4251 H   0  0  0  0  0  0  0  0  0  0  0  0
   -8.2968   19.0267  -31.6799 H   0  0  0  0  0  0  0  0  0  0  0  0
   -5.3918   19.7112  -31.3124 H   0  0  0  0  0  0  0  0  0  0  0  0
   -6.3660   19.6140  -33.9120 H   0  0  0  0  0  0  0  0  0  0  0  0
  1  2  1  0
  2  3  1  0
  3  4  2  0
  3  5  2  0
  3  6  1  0
  6  7  2  0
  7  8  1  0
  8  9  2  0
  9 10  1  0
 10 11  1  0
 11 12  2  0
 12 13  1  0
 13 14  2  0
 14 15  1  0
 15 16  1  0
 16 17  1  0
 15 18  2  0
  9 19  1  0
 19 20  2  0
 20 21  1  0
 21 22  1  0
 22 23  2  0
 22 24  1  0
 24 25  2  0
 25 26  1  0
 26 27  2  0
 27 28  1  0
 28 29  2  0
 29 30  1  0
 30 31  1  0
 20  6  1  0
 30 21  1  0
 18 11  1  0
 29 24  1  0
  1 32  1  0
  1 33  1  0
  1 34  1  0
  2 35  1  0
  7 36  1  0
  8 37  1  0
 12 38  1  0
 13 39  1  0
 14 40  1  0
 17 41  1  0
 17 42  1  0
 17 43  1  0
 18 44  1  0
 19 45  1  0
 25 46  1  0
 26 47  1  0
 27 48  1  0
 28 49  1  0
 30 50  1  1
 31 51  1  0
M  END
>  <UniqueID>  (8) 
8

>  <SMILES>  (8) 
CNS(=O)(=O)c1ccc(Oc2cccc(OC)c2)cc1N1C(=O)c2ccccc2[C@H]1O

>  <Energy>  (8) 
88.6583732024693

>  <Genealogy>  (8) 
CNS(=O)(=O)c1ccc(Oc2cccc(OC)c2)cc1N1C(=O)c2ccccc2[C@H]1O (chirality)
CNS(=O)(=O)c1ccc(Oc2cccc(OC)c2)cc1N1C(=O)c2ccccc2[C@H]1O (3D coordinates assigned)
CNS(=O)(=O)c1ccc(Oc2cccc(OC)c2)cc1N1C(=O)c2ccccc2[C@H]1O (nonaromatic ring conformer: 88.6583732024693 kcal/mol)

>  <smiles>  (8) 
CNS(=O)(=O)c1ccc(Oc2cccc(OC)c2)cc1N1C(=O)c2ccccc2C1O

>  <score_type>  (8) 
oracle

>  <origin>  (8) 
adgpu

>  <m_score__min__energy>  (8) 
-9.2200000000000006

>  <m_primary>  (8) 
energy

$$$$
8:0
     RDKit          3D

 46 49  0  0  0  0  0  0  0  0999 V2000
   -1.1170   19.4040  -27.8250 C   0  0  0  0  0  0  0  0  0  0  0  0
   -2.0100   20.0440  -26.8430 N   0  0  0  0  0  0  0  0  0  0  0  0
   -1.2720   20.8060  -25.8170 C   0  0  0  0  0  0  0  0  0  0  0  0
   -0.5240   22.0120  -26.4070 C   0  0  0  0  0  0  0  0  0  0  0  0
   -1.3620   22.7770  -27.3970 C   0  0  0  0  0  0  0  0  0  0  0  0
   -0.9310   24.0410  -27.8240 C   0  0  0  0  0  0  0  0  0  0  0  0
   -1.6640   24.7590  -28.7720 C   0  0  0  0  0  0  0  0  0  0  0  0
   -1.2190   26.0180  -29.1600 O   0  0  0  0  0  0  0  0  0  0  0  0
   -2.8420   24.2200  -29.3160 C   0  0  0  0  0  0  0  0  0  0  0  0
   -3.6080   24.9810  -30.2680 N   0  0  0  0  0  0  0  0  0  0  0  0
   -5.3400   24.9200  -30.3550 S   0  0  0  0  0  0  0  0  0  0  0  0
   -5.8380   26.1160  -31.1170 O   0  0  0  0  0  0  0  0  0  0  0  0
   -5.9120   24.9520  -28.9660 O   0  0  0  0  0  0  0  0  0  0  0  0
   -5.8400   23.4240  -31.1380 C   0  0  0  0  0  0  0  0  0  0  0  0
   -7.1620   22.9560  -30.9620 C   0  0  0  0  0  0  0  0  0  0  0  0
   -7.5720   21.7360  -31.5280 C   0  0  0  0  0  0  0  0  0  0  0  0
   -6.6460   21.0060  -32.2720 C   0  0  0  0  0  0  0  0  0  0  0  0
   -5.3520   21.4670  -32.4450 C   0  0  0  0  0  0  0  0  0  0  0  0
   -4.9190   22.6690  -31.8910 C   0  0  0  0  0  0  0  0  0  0  0  0
   -4.6230   20.4670  -33.2050 C   0  0  0  0  0  0  0  0  0  0  0  0
   -3.4130   20.5040  -33.5490 O   0  0  0  0  0  0  0  0  0  0  0  0
   -5.5770   19.3970  -33.4560 C   0  0  0  0  0  0  0  0  0  0  0  0
   -5.3220   18.3120  -34.0430 O   0  0  0  0  0  0  0  0  0  0  0  0
   -6.8530   19.7370  -32.9080 N   0  0  0  0  0  0  0  0  0  0  0  0
   -7.9280   18.7960  -32.6190 C   0  0  0  0  0  0  0  0  0  0  0  0
   -3.2520   22.9360  -28.9140 C   0  0  0  0  0  0  0  0  0  0  0  0
   -2.5180   22.2090  -27.9670 C   0  0  0  0  0  0  0  0  0  0  0  0
   -3.0440   20.8730  -27.4920 C   0  0  0  0  0  0  0  0  0  0  0  0
   -0.3330   18.8421  -27.2961 H   0  0  0  0  0  0  0  0  0  0  0  0
   -1.6989   18.7160  -28.4560 H   0  0  0  0  0  0  0  0  0  0  0  0
   -0.6525   20.1761  -28.4560 H   0  0  0  0  0  0  0  0  0  0  0  0
   -1.9871   21.1681  -25.0636 H   0  0  0  0  0  0  0  0  0  0  0  0
   -0.5243   20.1326  -25.3727 H   0  0  0  0  0  0  0  0  0  0  0  0
   -0.2405   22.6880  -25.5868 H   0  0  0  0  0  0  0  0  0  0  0  0
    0.3606   21.6315  -26.9386 H   0  0  0  0  0  0  0  0  0  0  0  0
   -0.0076   24.4711  -27.4089 H   0  0  0  0  0  0  0  0  0  0  0  0
   -3.1340   25.7130  -30.8430 H   0  0  0  0  0  0  0  0  0  0  0  0
   -7.8772   23.5522  -30.3764 H   0  0  0  0  0  0  0  0  0  0  0  0
   -8.5985   21.3664  -31.3872 H   0  0  0  0  0  0  0  0  0  0  0  0
   -3.8866   23.0193  -32.0372 H   0  0  0  0  0  0  0  0  0  0  0  0
   -8.0437   18.6947  -31.5298 H   0  0  0  0  0  0  0  0  0  0  0  0
   -8.8673   19.1674  -33.0546 H   0  0  0  0  0  0  0  0  0  0  0  0
   -7.6842   17.8158  -33.0546 H   0  0  0  0  0  0  0  0  0  0  0  0
   -4.1616   22.4963  -29.3490 H   0  0  0  0  0  0  0  0  0  0  0  0
   -3.8541   21.0519  -26.7697 H   0  0  0  0  0  0  0  0  0  0  0  0
   -3.3973   20.3247  -28.3777 H   0  0  0  0  0  0  0  0  0  0  0  0
  1  2  1  0
  2  3  1  0
  3  4  1  0
  4  5  1  0
  5  6  2  0
  6  7  1  0
  7  8  1  0
  7  9  2  0
  9 10  1  0
 10 11  1  0
 11 12  2  0
 11 13  2  0
 11 14  1  0
 14 15  2  0
 15 16  1  0
 16 17  2  0
 17 18  1  0
 18 19  2  0
 18 20  1  0
 20 21  2  0
 20 22  1  0
 22 23  2  0
 22 24  1  0
 24 25  1  0
  9 26  1  0
 26 27  2  0
 27 28  1  0
 28  2  1  0
 27  5  1  0
 19 14  1  0
 24 17  1  0
  1 29  1  0
  1 30  1  0
  1 31  1  0
  3 32  1  0
  3 33  1  0
  4 34  1  0
  4 35  1  0
  6 36  1  0
 10 37  1  0
 15 38  1  0
 16 39  1  0
 19 40  1  0
 25 41  1  0
 25 42  1  0
 25 43  1  0
 26 44  1  0
 28 45  1  0
 28 46  1  0
M  CHG  1   8  -1
M  END
>  <UniqueID>  (9) 
9

>  <SMILES>  (9) 
CN1CCc2cc([O-])c(NS(=O)(=O)c3ccc4c(c3)C(=O)C(=O)N4C)cc2C1

>  <Energy>  (9) 
88.58641502043938

>  <Genealogy>  (9) 
CN1CCc2cc([O-])c(NS(=O)(=O)c3ccc4c(c3)C(=O)C(=O)N4C)cc2C1 (protonated)
CN1CCc2cc([O-])c(NS(=O)(=O)c3ccc4c(c3)C(=O)C(=O)N4C)cc2C1 (3D coordinates assigned)
CN1CCc2cc([O-])c(NS(=O)(=O)c3ccc4c(c3)C(=O)C(=O)N4C)cc2C1 (nonaromatic ring conformer: 88.58641502043938 kcal/mol)

>  <smiles>  (9) 
CN1CCc2cc(O)c(NS(=O)(=O)c3ccc4c(c3)C(=O)C(=O)N4C)cc2C1

>  <score_type>  (9) 
oracle

>  <origin>  (9) 
adgpu

>  <m_score__min__energy>  (9) 
-13.529999999999999

>  <m_primary>  (9) 
energy

$$$$
9:0
     RDKit          3D

 49 51  0  0  0  0  0  0  0  0999 V2000
   -6.4440   23.8200  -31.7180 C   0  0  0  0  0  0  0  0  0  0  0  0
   -5.8910   24.0260  -30.5190 C   0  0  0  0  0  0  0  0  0  0  0  0
   -4.6550   24.8640  -30.3510 C   0  0  0  0  0  0  0  0  0  0  0  0
   -3.4260   23.9930  -30.2530 C   0  0  0  0  0  0  0  0  0  0  0  0
   -3.4230   22.7330  -30.8770 C   0  0  0  0  0  0  0  0  0  0  0  0
   -2.2830   21.9100  -30.8300 C   0  0  0  0  0  0  0  0  0  0  0  0
   -2.2760   20.5790  -31.4860 C   0  0  0  0  0  0  0  0  0  0  0  0
   -1.6500   19.6260  -30.9460 O   0  0  0  0  0  0  0  0  0  0  0  0
   -2.9330   20.3730  -32.7480 N   0  0  0  0  0  0  0  0  0  0  0  0
   -3.2160   19.0670  -33.2770 C   0  0  0  0  0  0  0  0  0  0  0  0
   -2.1660   18.1540  -33.4820 C   0  0  0  0  0  0  0  0  0  0  0  0
   -2.4260   16.8610  -33.9400 C   0  0  0  0  0  0  0  0  0  0  0  0
   -3.7380   16.4590  -34.1850 C   0  0  0  0  0  0  0  0  0  0  0  0
   -4.7930   17.3500  -33.9810 C   0  0  0  0  0  0  0  0  0  0  0  0
   -4.5460   18.6590  -33.5370 C   0  0  0  0  0  0  0  0  0  0  0  0
   -5.9100   19.7700  -33.3320 S   0  0  0  0  0  0  0  0  0  0  0  0
   -5.3710   21.1710  -33.2500 O   0  0  0  0  0  0  0  0  0  0  0  0
   -6.8280   19.6580  -34.5180 O   0  0  0  0  0  0  0  0  0  0  0  0
   -6.7880   19.3790  -31.8660 N   0  0  0  0  0  0  0  0  0  0  0  0
   -7.7900   18.3130  -32.0940 C   0  0  0  0  0  0  0  0  0  0  0  0
   -9.2170   18.8640  -32.2720 C   0  0  0  0  0  0  0  0  0  0  0  0
   -9.1790   20.1230  -32.9020 O   0  0  0  0  0  0  0  0  0  0  0  0
   -8.6140   21.0910  -32.0330 C   0  0  0  0  0  0  0  0  0  0  0  0
   -7.3830   20.5780  -31.2490 C   0  0  0  0  0  0  0  0  0  0  0  0
   -1.1490   22.3560  -30.1320 C   0  0  0  0  0  0  0  0  0  0  0  0
   -1.1430   23.6100  -29.5160 C   0  0  0  0  0  0  0  0  0  0  0  0
   -2.2720   24.4310  -29.5780 C   0  0  0  0  0  0  0  0  0  0  0  0
   -2.2350   25.6790  -28.9640 O   0  0  0  0  0  0  0  0  0  0  0  0
   -7.3491   23.2013  -31.8073 H   0  0  0  0  0  0  0  0  0  0  0  0
   -5.9941   24.2692  -32.6157 H   0  0  0  0  0  0  0  0  0  0  0  0
   -6.3530   23.5698  -29.6311 H   0  0  0  0  0  0  0  0  0  0  0  0
   -4.5536   25.5347  -31.2170 H   0  0  0  0  0  0  0  0  0  0  0  0
   -4.7483   25.4478  -29.4234 H   0  0  0  0  0  0  0  0  0  0  0  0
   -4.3221   22.3869  -31.4079 H   0  0  0  0  0  0  0  0  0  0  0  0
   -3.1430   21.2060  -33.3410 H   0  0  0  0  0  0  0  0  0  0  0  0
   -1.1295   18.4618  -33.2794 H   0  0  0  0  0  0  0  0  0  0  0  0
   -1.5955   16.1595  -34.1075 H   0  0  0  0  0  0  0  0  0  0  0  0
   -3.9423   15.4380  -34.5397 H   0  0  0  0  0  0  0  0  0  0  0  0
   -5.8265   17.0239  -34.1696 H   0  0  0  0  0  0  0  0  0  0  0  0
   -7.5119   17.7575  -33.0018 H   0  0  0  0  0  0  0  0  0  0  0  0
   -7.7933   17.6657  -31.2047 H   0  0  0  0  0  0  0  0  0  0  0  0
   -9.8011   18.1663  -32.8901 H   0  0  0  0  0  0  0  0  0  0  0  0
   -9.6850   18.9727  -31.2825 H   0  0  0  0  0  0  0  0  0  0  0  0
   -8.3062   21.9597  -32.6336 H   0  0  0  0  0  0  0  0  0  0  0  0
   -9.3848   21.3465  -31.2910 H   0  0  0  0  0  0  0  0  0  0  0  0
   -6.6248   21.3744  -31.2200 H   0  0  0  0  0  0  0  0  0  0  0  0
   -7.7175   20.3055  -30.2372 H   0  0  0  0  0  0  0  0  0  0  0  0
   -0.2586   21.7131  -30.0698 H   0  0  0  0  0  0  0  0  0  0  0  0
   -0.2456   23.9525  -28.9799 H   0  0  0  0  0  0  0  0  0  0  0  0
  1  2  2  0
  2  3  1  0
  3  4  1  0
  4  5  2  0
  5  6  1  0
  6  7  1  0
  7  8  2  0
  7  9  1  0
  9 10  1  0
 10 11  2  0
 11 12  1  0
 12 13  2  0
 13 14  1  0
 14 15  2  0
 15 16  1  0
 16 17  2  0
 16 18  2  0
 16 19  1  0
 19 20  1  0
 20 21  1  0
 21 22  1  0
 22 23  1  0
 23 24  1  0
  6 25  2  0
 25 26  1  0
 26 27  2  0
 27 28  1  0
 27  4  1  0
 15 10  1  0
 24 19  1  0
  1 29  1  0
  1 30  1  0
  2 31  1  0
  3 32  1  0
  3 33  1  0
  5 34  1  0
  9 35  1  0
 11 36  1  0
 12 37  1  0
 13 38  1  0
 14 39  1  0
 20 40  1  0
 20 41  1  0
 21 42  1  0
 21 43  1  0
 23 44  1  0
 23 45  1  0
 24 46  1  0
 24 47  1  0
 25 48  1  0
 26 49  1  0
M  CHG  1  28  -1
M  END
>  <UniqueID>  (10) 
10

>  <SMILES>  (10) 
C=CCc1cc(C(=O)Nc2ccccc2S(=O)(=O)N2CCOCC2)ccc1[O-]

>  <Energy>  (10) 
66.06614991811666

>  <Genealogy>  (10) 
C=CCc1cc(C(=O)Nc2ccccc2S(=O)(=O)N2CCOCC2)ccc1[O-] (protonated)
C=CCc1cc(C(=O)Nc2ccccc2S(=O)(=O)N2CCOCC2)ccc1[O-] (3D coordinates assigned)
C=CCc1cc(C(=O)Nc2ccccc2S(=O)(=O)N2CCOCC2)ccc1[O-] (nonaromatic ring conformer: 66.06614991811666 kcal/mol)

>  <smiles>  (10) 
C=CCc1cc(C(=O)Nc2ccccc2S(=O)(=O)N2CCOCC2)ccc1O

>  <score_type>  (10) 
oracle

>  <origin>  (10) 
adgpu

>  <m_score__min__energy>  (10) 
-11.02

>  <m_primary>  (10) 
energy

$$$$
10:0
     RDKit          3D

 72 76  0  0  0  0  0  0  0  0999 V2000
   -5.7230   12.9660  -33.5760 N   0  0  0  0  0  0  0  0  0  0  0  0
   -5.3520   14.1680  -33.8950 C   0  0  0  0  0  0  0  0  0  0  0  0
   -4.0630   14.4220  -34.2450 N   0  0  0  0  0  0  0  0  0  0  0  0
   -3.6880   15.6920  -34.5780 C   0  0  0  0  0  0  0  0  0  0  0  0
   -4.5700   16.7430  -34.5760 C   0  0  0  0  0  0  0  0  0  0  0  0
   -4.2610   18.1350  -34.9200 C   0  0  0  0  0  0  0  0  0  0  0  0
   -3.6520   18.9080  -33.8580 N   0  0  0  0  0  0  0  0  0  0  0  0
   -4.4470   19.9410  -33.2950 C   0  0  0  0  0  0  0  0  0  0  0  0
   -5.6130   20.0520  -33.8180 O   0  0  0  0  0  0  0  0  0  0  0  0
   -4.0500   20.8270  -32.2300 C   0  0  0  0  0  0  0  0  0  0  0  0
   -5.0160   21.6570  -31.6910 C   0  0  0  0  0  0  0  0  0  0  0  0
   -4.7650   22.5350  -30.6850 N   0  0  0  0  0  0  0  0  0  0  0  0
   -5.9080   23.2750  -30.1960 C   0  0  0  0  0  0  0  0  0  0  0  0
   -7.2000   22.9010  -30.7560 C   0  0  0  0  0  0  0  0  0  0  0  0
   -7.9770   21.9920  -30.0080 C   0  0  0  0  0  0  0  0  0  0  0  0
   -9.2090   21.5650  -30.4140 C   0  0  0  0  0  0  0  0  0  0  0  0
   -9.7550   22.0030  -31.5780 C   0  0  0  0  0  0  0  0  0  0  0  0
   -9.0330   22.8890  -32.3400 C   0  0  0  0  0  0  0  0  0  0  0  0
   -7.7710   23.3250  -31.9210 C   0  0  0  0  0  0  0  0  0  0  0  0
   -7.1500   24.1820  -32.7430 F   0  0  0  0  0  0  0  0  0  0  0  0
   -3.5280   22.6160  -30.1780 C   0  0  0  0  0  0  0  0  0  0  0  0
   -3.2060   23.4970  -29.1740 C   0  0  0  0  0  0  0  0  0  0  0  0
   -1.9560   23.6400  -28.6220 C   0  0  0  0  0  0  0  0  0  0  0  0
   -1.6520   24.5540  -27.5720 N   0  0  0  0  0  0  0  0  0  0  0  0
   -0.3780   25.1630  -27.3510 C   0  0  0  0  0  0  0  0  0  0  0  0
   -0.5630   26.6590  -27.2110 C   0  0  0  0  0  0  0  0  0  0  0  0
   -1.4410   26.9910  -26.1040 N   0  0  0  0  0  0  0  0  0  0  0  0
   -0.7140   27.6700  -25.0490 C   0  0  0  0  0  0  0  0  0  0  0  0
   -0.5140   26.8580  -23.8040 C   0  0  0  0  0  0  0  0  0  0  0  0
    0.2780   25.7450  -23.9940 O   0  0  0  0  0  0  0  0  0  0  0  0
   -2.2410   25.9170  -25.6270 C   0  0  0  0  0  0  0  0  0  0  0  0
   -2.7180   24.9250  -26.6340 C   0  0  0  0  0  0  0  0  0  0  0  0
   -0.9640   22.8130  -29.1450 C   0  0  0  0  0  0  0  0  0  0  0  0
    0.3090   22.8200  -28.7260 F   0  0  0  0  0  0  0  0  0  0  0  0
   -1.2580   21.9030  -30.1700 C   0  0  0  0  0  0  0  0  0  0  0  0
   -0.2570   21.0850  -30.6810 O   0  0  0  0  0  0  0  0  0  0  0  0
   -2.5320   21.8130  -30.6760 C   0  0  0  0  0  0  0  0  0  0  0  0
   -2.7900   20.9240  -31.6970 C   0  0  0  0  0  0  0  0  0  0  0  0
   -1.8520   20.2240  -32.1070 O   0  0  0  0  0  0  0  0  0  0  0  0
   -5.8790   16.4430  -34.2120 C   0  0  0  0  0  0  0  0  0  0  0  0
   -6.8110   17.3450  -34.1700 N   0  0  0  0  0  0  0  0  0  0  0  0
   -6.2410   15.1920  -33.8850 N   0  0  0  0  0  0  0  0  0  0  0  0
   -6.6960   12.7070  -33.2980 H   0  0  0  0  0  0  0  0  0  0  0  0
   -3.3680   13.6420  -34.2570 H   0  0  0  0  0  0  0  0  0  0  0  0
   -2.6409   15.8793  -34.8580 H   0  0  0  0  0  0  0  0  0  0  0  0
   -3.5710   18.1295  -35.7766 H   0  0  0  0  0  0  0  0  0  0  0  0
   -5.2247   18.6186  -35.1378 H   0  0  0  0  0  0  0  0  0  0  0  0
   -2.6990   18.7370  -33.5130 H   0  0  0  0  0  0  0  0  0  0  0  0
   -6.0372   21.6037  -32.0965 H   0  0  0  0  0  0  0  0  0  0  0  0
   -5.9598   23.1325  -29.1065 H   0  0  0  0  0  0  0  0  0  0  0  0
   -5.7411   24.3168  -30.5071 H   0  0  0  0  0  0  0  0  0  0  0  0
   -7.5738   21.6112  -29.0580 H   0  0  0  0  0  0  0  0  0  0  0  0
   -9.7685   20.8544  -29.7879 H   0  0  0  0  0  0  0  0  0  0  0  0
  -10.7480   21.6577  -31.9016 H   0  0  0  0  0  0  0  0  0  0  0  0
   -9.4506   23.2591  -33.2880 H   0  0  0  0  0  0  0  0  0  0  0  0
   -4.0105   24.1367  -28.7822 H   0  0  0  0  0  0  0  0  0  0  0  0
    0.0689   24.7592  -26.4305 H   0  0  0  0  0  0  0  0  0  0  0  0
    0.2878   24.9493  -28.2002 H   0  0  0  0  0  0  0  0  0  0  0  0
    0.4186   27.1249  -27.0393 H   0  0  0  0  0  0  0  0  0  0  0  0
   -1.0221   27.0355  -28.1370 H   0  0  0  0  0  0  0  0  0  0  0  0
    0.2760   27.9485  -25.4393 H   0  0  0  0  0  0  0  0  0  0  0  0
   -1.3245   28.5381  -24.7595 H   0  0  0  0  0  0  0  0  0  0  0  0
   -0.0402   27.4968  -23.0441 H   0  0  0  0  0  0  0  0  0  0  0  0
   -1.5051   26.4997  -23.4889 H   0  0  0  0  0  0  0  0  0  0  0  0
    0.5950   25.3300  -23.1690 H   0  0  0  0  0  0  0  0  0  0  0  0
   -1.6492   25.3703  -24.8780 H   0  0  0  0  0  0  0  0  0  0  0  0
   -3.1548   26.3926  -25.2413 H   0  0  0  0  0  0  0  0  0  0  0  0
   -3.0630   24.0215  -26.1098 H   0  0  0  0  0  0  0  0  0  0  0  0
   -3.5376   25.3828  -27.2073 H   0  0  0  0  0  0  0  0  0  0  0  0
   -0.3590   20.6860  -31.6220 H   0  0  0  0  0  0  0  0  0  0  0  0
   -6.6390   18.3500  -34.4070 H   0  0  0  0  0  0  0  0  0  0  0  0
   -7.2260   14.9850  -33.6140 H   0  0  0  0  0  0  0  0  0  0  0  0
  1  2  2  3
  2  3  1  0
  3  4  1  0
  4  5  2  0
  5  6  1  0
  6  7  1  0
  7  8  1  0
  8  9  2  0
  8 10  1  0
 10 11  2  0
 11 12  1  0
 12 13  1  0
 13 14  1  0
 14 15  2  0
 15 16  1  0
 16 17  2  0
 17 18  1  0
 18 19  2  0
 19 20  1  0
 12 21  1  0
 21 22  2  0
 22 23  1  0
 23 24  1  0
 24 25  1  0
 25 26  1  0
 26 27  1  0
 27 28  1  0
 28 29  1  0
 29 30  1  0
 27 31  1  0
 31 32  1  0
 23 33  2  0
 33 34  1  0
 33 35  1  0
 35 36  1  0
 35 37  2  0
 37 38  1  0
 38 39  2  0
  5 40  1  0
 40 41  2  3
 40 42  1  0
 42  2  1  0
 38 10  1  0
 19 14  1  0
 37 21  1  0
 32 24  1  0
  1 43  1  0
  3 44  1  0
  4 45  1  0
  6 46  1  0
  6 47  1  0
  7 48  1  0
 11 49  1  0
 13 50  1  0
 13 51  1  0
 15 52  1  0
 16 53  1  0
 17 54  1  0
 18 55  1  0
 22 56  1  0
 25 57  1  0
 25 58  1  0
 26 59  1  0
 26 60  1  0
 28 61  1  0
 28 62  1  0
 29 63  1  0
 29 64  1  0
 30 65  1  0
 31 66  1  0
 31 67  1  0
 32 68  1  0
 32 69  1  0
 36 70  1  0
 41 71  1  0
 42 72  1  0
M  END
>  <smiles>  (11) 
N=c1[nH]cc(CNC(=O)c2cn(Cc3ccccc3F)c3cc(N4CCN(CCO)CC4)c(F)c(O)c3c2=O)c(=N)[nH]1

>  <score_type>  (11) 
oracle

>  <origin>  (11) 
adgpu

>  <m_score__min__energy>  (11) 
-9.5700000000000003

>  <m_primary>  (11) 
energy

$$$$
11:0
     RDKit          3D

 53 56  0  0  0  0  0  0  0  0999 V2000
   -5.7370   26.4560  -30.8930 O   0  0  0  0  0  0  0  0  0  0  0  0
   -5.3360   25.1810  -30.2050 S   0  0  0  0  0  0  0  0  0  0  0  0
   -5.6420   25.3030  -28.7390 O   0  0  0  0  0  0  0  0  0  0  0  0
   -3.6370   24.9070  -30.4190 N   0  0  0  0  0  0  0  0  0  0  0  0
   -2.8140   24.1440  -29.5250 C   0  0  0  0  0  0  0  0  0  0  0  0
   -3.1390   22.8260  -29.1590 C   0  0  0  0  0  0  0  0  0  0  0  0
   -2.3320   22.1100  -28.2630 C   0  0  0  0  0  0  0  0  0  0  0  0
   -1.1550   22.7010  -27.7620 C   0  0  0  0  0  0  0  0  0  0  0  0
   -0.8370   24.0200  -28.1180 C   0  0  0  0  0  0  0  0  0  0  0  0
   -1.6560   24.7340  -28.9970 C   0  0  0  0  0  0  0  0  0  0  0  0
   -1.3210   26.0410  -29.3370 O   0  0  0  0  0  0  0  0  0  0  0  0
   -0.2790   21.9610  -26.7780 C   0  0  0  0  0  0  0  0  0  0  0  0
   -0.4630   20.5050  -26.8550 N   0  0  0  0  0  0  0  0  0  0  0  0
   -1.8830   20.1530  -26.7380 C   0  0  0  0  0  0  0  0  0  0  0  0
   -2.6830   20.6820  -27.9350 C   0  0  0  0  0  0  0  0  0  0  0  0
   -6.2140   23.8030  -30.8590 C   0  0  0  0  0  0  0  0  0  0  0  0
   -5.8270   23.2150  -32.0720 C   0  0  0  0  0  0  0  0  0  0  0  0
   -6.4280   22.0280  -32.4970 C   0  0  0  0  0  0  0  0  0  0  0  0
   -7.4260   21.4230  -31.7210 C   0  0  0  0  0  0  0  0  0  0  0  0
   -8.0770   19.8480  -32.1780 S   0  0  0  0  0  0  0  0  0  0  0  0
   -9.0890   20.0270  -33.2760 O   0  0  0  0  0  0  0  0  0  0  0  0
   -8.7740   19.2360  -30.9960 O   0  0  0  0  0  0  0  0  0  0  0  0
   -6.8070   18.7800  -32.7310 N   0  0  0  0  0  0  0  0  0  0  0  0
   -5.7070   18.6740  -31.7390 C   0  0  0  0  0  0  0  0  0  0  0  0
   -4.4570   19.4750  -32.1360 C   0  0  0  0  0  0  0  0  0  0  0  0
   -3.9150   19.0180  -33.5000 C   0  0  0  0  0  0  0  0  0  0  0  0
   -5.0240   18.5250  -34.4480 C   0  0  0  0  0  0  0  0  0  0  0  0
   -6.3740   19.1600  -34.0950 C   0  0  0  0  0  0  0  0  0  0  0  0
   -7.8530   22.0440  -30.5390 C   0  0  0  0  0  0  0  0  0  0  0  0
   -7.2410   23.2230  -30.1060 C   0  0  0  0  0  0  0  0  0  0  0  0
   -4.0370   22.3507  -29.5805 H   0  0  0  0  0  0  0  0  0  0  0  0
    0.0635   24.4958  -27.7023 H   0  0  0  0  0  0  0  0  0  0  0  0
    0.7735   22.1968  -26.9940 H   0  0  0  0  0  0  0  0  0  0  0  0
   -0.5624   22.2836  -25.7653 H   0  0  0  0  0  0  0  0  0  0  0  0
   -0.1010   20.1650  -27.7770 H   0  0  0  0  0  0  0  0  0  0  0  0
   -1.9796   19.0580  -26.6969 H   0  0  0  0  0  0  0  0  0  0  0  0
   -2.2822   20.6108  -25.8209 H   0  0  0  0  0  0  0  0  0  0  0  0
   -2.4677   20.0533  -28.8116 H   0  0  0  0  0  0  0  0  0  0  0  0
   -3.7505   20.6468  -27.6719 H   0  0  0  0  0  0  0  0  0  0  0  0
   -5.0495   23.6890  -32.6892 H   0  0  0  0  0  0  0  0  0  0  0  0
   -6.1165   21.5658  -33.4453 H   0  0  0  0  0  0  0  0  0  0  0  0
   -6.0709   19.0500  -30.7714 H   0  0  0  0  0  0  0  0  0  0  0  0
   -5.4144   17.6149  -31.6860 H   0  0  0  0  0  0  0  0  0  0  0  0
   -4.7175   20.5422  -32.1925 H   0  0  0  0  0  0  0  0  0  0  0  0
   -3.6789   19.3058  -31.3771 H   0  0  0  0  0  0  0  0  0  0  0  0
   -3.3979   19.8651  -33.9744 H   0  0  0  0  0  0  0  0  0  0  0  0
   -3.2338   18.1734  -33.3196 H   0  0  0  0  0  0  0  0  0  0  0  0
   -4.7595   18.7943  -35.4812 H   0  0  0  0  0  0  0  0  0  0  0  0
   -5.1132   17.4336  -34.3438 H   0  0  0  0  0  0  0  0  0  0  0  0
   -6.2802   20.2547  -34.1492 H   0  0  0  0  0  0  0  0  0  0  0  0
   -7.1260   18.7979  -34.8115 H   0  0  0  0  0  0  0  0  0  0  0  0
   -8.6713   21.6023  -29.9514 H   0  0  0  0  0  0  0  0  0  0  0  0
   -7.5679   23.6974  -29.1690 H   0  0  0  0  0  0  0  0  0  0  0  0
  1  2  2  0
  2  3  2  0
  2  4  1  0
  4  5  1  0
  5  6  2  0
  6  7  1  0
  7  8  2  0
  8  9  1  0
  9 10  2  0
 10 11  1  0
  8 12  1  0
 12 13  1  0
 13 14  1  0
 14 15  1  0
  2 16  1  0
 16 17  2  0
 17 18  1  0
 18 19  2  0
 19 20  1  0
 20 21  2  0
 20 22  2  0
 20 23  1  0
 23 24  1  0
 24 25  1  0
 25 26  1  0
 26 27  1  0
 27 28  1  0
 19 29  1  0
 29 30  2  0
 10  5  1  0
 30 16  1  0
 15  7  1  0
 28 23  1  0
  6 31  1  0
  9 32  1  0
 12 33  1  0
 12 34  1  0
 13 35  1  0
 14 36  1  0
 14 37  1  0
 15 38  1  0
 15 39  1  0
 17 40  1  0
 18 41  1  0
 24 42  1  0
 24 43  1  0
 25 44  1  0
 25 45  1  0
 26 46  1  0
 26 47  1  0
 27 48  1  0
 27 49  1  0
 28 50  1  0
 28 51  1  0
 29 52  1  0
 30 53  1  0
M  CHG  2   4  -1  11  -1
M  END
>  <UniqueID>  (12) 
11

>  <SMILES>  (12) 
O=S(=O)([N-]c1cc2c(cc1[O-])CNCC2)c1ccc(S(=O)(=O)N2CCCCC2)cc1

>  <Energy>  (12) 
62.27005790435437

>  <Genealogy>  (12) 
O=S(=O)([N-]c1cc2c(cc1[O-])CNCC2)c1ccc(S(=O)(=O)N2CCCCC2)cc1 (protonated)
O=S(=O)([N-]c1cc2c(cc1[O-])CNCC2)c1ccc(S(=O)(=O)N2CCCCC2)cc1 (3D coordinates assigned)
O=S(=O)([N-]c1cc2c(cc1[O-])CNCC2)c1ccc(S(=O)(=O)N2CCCCC2)cc1 (nonaromatic ring conformer: 62.27005790435437 kcal/mol)

>  <smiles>  (12) 
O=S(=O)(Nc1cc2c(cc1O)CNCC2)c1ccc(S(=O)(=O)N2CCCCC2)cc1

>  <score_type>  (12) 
oracle

>  <origin>  (12) 
adgpu

>  <m_score__min__energy>  (12) 
-15.84

>  <m_primary>  (12) 
energy

$$$$
12:0
     RDKit          3D

 64 68  0  0  0  0  0  0  0  0999 V2000
   -4.9900   23.6780  -31.8090 O   0  0  0  0  0  0  0  0  0  0  0  0
   -4.5980   22.6920  -31.1260 C   0  0  0  0  0  0  0  0  0  0  0  0
   -3.7050   22.9240  -29.9640 C   0  0  0  0  0  0  0  0  0  0  0  0
   -3.3310   21.8390  -29.1560 C   0  0  0  0  0  0  0  0  0  0  0  0
   -2.4910   22.0090  -28.0430 C   0  0  0  0  0  0  0  0  0  0  0  0
   -2.1010   20.5680  -27.0790 S   0  0  0  0  0  0  0  0  0  0  0  0
   -1.4910   20.9480  -25.7580 O   0  0  0  0  0  0  0  0  0  0  0  0
   -3.3790   19.8360  -26.7760 O   0  0  0  0  0  0  0  0  0  0  0  0
   -1.0290   19.4890  -27.9390 N   0  0  0  0  0  0  0  0  0  0  0  0
   -0.8240   18.2420  -27.1750 C   0  0  0  0  0  0  0  0  0  0  0  0
    0.2630   17.3410  -27.8070 C   0  0  0  0  0  0  0  0  0  0  0  0
    0.6760   17.8310  -29.1990 C   0  0  0  0  0  0  0  0  0  0  0  0
    1.1180   19.3030  -29.1600 C   0  0  0  0  0  0  0  0  0  0  0  0
    0.2590   20.1520  -28.2000 C   0  0  0  0  0  0  0  0  0  0  0  0
   -1.9970   23.3060  -27.7480 C   0  0  0  0  0  0  0  0  0  0  0  0
   -1.1240   23.5720  -26.6920 O   0  0  0  0  0  0  0  0  0  0  0  0
   -2.3740   24.3850  -28.5530 C   0  0  0  0  0  0  0  0  0  0  0  0
   -3.2070   24.2040  -29.6590 C   0  0  0  0  0  0  0  0  0  0  0  0
   -3.5040   25.3010  -30.4600 O   0  0  0  0  0  0  0  0  0  0  0  0
   -5.0360   21.3680  -31.4880 N   0  0  0  0  0  0  0  0  0  0  0  0
   -4.0790   20.2620  -31.4820 C   0  0  0  0  0  0  0  0  0  0  0  0
   -4.2380   19.4410  -32.7620 C   0  0  0  0  0  0  0  0  0  0  0  0
   -5.6400   19.0610  -32.9930 N   0  0  0  0  0  0  0  0  0  0  0  0
   -5.9290   17.7300  -34.0850 S   0  0  0  0  0  0  0  0  0  0  0  0
   -7.2570   17.1020  -33.7640 O   0  0  0  0  0  0  0  0  0  0  0  0
   -5.9710   18.2200  -35.5050 O   0  0  0  0  0  0  0  0  0  0  0  0
   -4.6220   16.5620  -33.9330 C   0  0  0  0  0  0  0  0  0  0  0  0
   -3.5660   16.5790  -34.8550 C   0  0  0  0  0  0  0  0  0  0  0  0
   -2.5190   15.6590  -34.7440 C   0  0  0  0  0  0  0  0  0  0  0  0
   -2.5220   14.7190  -33.7090 C   0  0  0  0  0  0  0  0  0  0  0  0
   -3.5700   14.7000  -32.7820 C   0  0  0  0  0  0  0  0  0  0  0  0
   -4.6230   15.6140  -32.8970 C   0  0  0  0  0  0  0  0  0  0  0  0
   -6.7230   19.8830  -32.4820 C   0  0  0  0  0  0  0  0  0  0  0  0
   -8.0770   19.5380  -32.6800 C   0  0  0  0  0  0  0  0  0  0  0  0
   -9.0980   20.3440  -32.1750 C   0  0  0  0  0  0  0  0  0  0  0  0
   -8.7910   21.4930  -31.4510 C   0  0  0  0  0  0  0  0  0  0  0  0
   -7.4600   21.8430  -31.2280 C   0  0  0  0  0  0  0  0  0  0  0  0
   -6.4190   21.0490  -31.7450 C   0  0  0  0  0  0  0  0  0  0  0  0
   -3.7039   20.8333  -29.3997 H   0  0  0  0  0  0  0  0  0  0  0  0
   -0.5180   18.5006  -26.1505 H   0  0  0  0  0  0  0  0  0  0  0  0
   -1.7713   17.6829  -27.1811 H   0  0  0  0  0  0  0  0  0  0  0  0
    1.1479   17.3404  -27.1536 H   0  0  0  0  0  0  0  0  0  0  0  0
   -0.1539   16.3286  -27.9128 H   0  0  0  0  0  0  0  0  0  0  0  0
    1.5112   17.2148  -29.5634 H   0  0  0  0  0  0  0  0  0  0  0  0
   -0.1907   17.7445  -29.8708 H   0  0  0  0  0  0  0  0  0  0  0  0
    2.1661   19.3481  -28.8291 H   0  0  0  0  0  0  0  0  0  0  0  0
    0.9956   19.7159  -30.1722 H   0  0  0  0  0  0  0  0  0  0  0  0
    0.7985   20.2819  -27.2502 H   0  0  0  0  0  0  0  0  0  0  0  0
    0.0681   21.1308  -28.6642 H   0  0  0  0  0  0  0  0  0  0  0  0
   -1.1140   23.0640  -25.8210 H   0  0  0  0  0  0  0  0  0  0  0  0
   -2.0082   25.3938  -28.3110 H   0  0  0  0  0  0  0  0  0  0  0  0
   -3.0561   20.6630  -31.4287 H   0  0  0  0  0  0  0  0  0  0  0  0
   -4.2679   19.6195  -30.6094 H   0  0  0  0  0  0  0  0  0  0  0  0
   -3.8853   20.0389  -33.6153 H   0  0  0  0  0  0  0  0  0  0  0  0
   -3.6459   18.5201  -32.6549 H   0  0  0  0  0  0  0  0  0  0  0  0
   -3.5611   17.3190  -35.6689 H   0  0  0  0  0  0  0  0  0  0  0  0
   -1.6933   15.6747  -35.4706 H   0  0  0  0  0  0  0  0  0  0  0  0
   -1.6996   13.9936  -33.6233 H   0  0  0  0  0  0  0  0  0  0  0  0
   -3.5659   13.9662  -31.9626 H   0  0  0  0  0  0  0  0  0  0  0  0
   -5.4526   15.5900  -32.1751 H   0  0  0  0  0  0  0  0  0  0  0  0
   -8.3301   18.6245  -33.2381 H   0  0  0  0  0  0  0  0  0  0  0  0
  -10.1491   20.0707  -32.3495 H   0  0  0  0  0  0  0  0  0  0  0  0
   -9.5993   22.1251  -31.0546 H   0  0  0  0  0  0  0  0  0  0  0  0
   -7.2220   22.7447  -30.6447 H   0  0  0  0  0  0  0  0  0  0  0  0
  1  2  2  0
  2  3  1  0
  3  4  2  0
  4  5  1  0
  5  6  1  0
  6  7  2  0
  6  8  2  0
  6  9  1  0
  9 10  1  0
 10 11  1  0
 11 12  1  0
 12 13  1  0
 13 14  1  0
  5 15  2  0
 15 16  1  0
 15 17  1  0
 17 18  2  0
 18 19  1  0
  2 20  1  0
 20 21  1  0
 21 22  1  0
 22 23  1  0
 23 24  1  0
 24 25  2  0
 24 26  2  0
 24 27  1  0
 27 28  2  0
 28 29  1  0
 29 30  2  0
 30 31  1  0
 31 32  2  0
 23 33  1  0
 33 34  2  0
 34 35  1  0
 35 36  2  0
 36 37  1  0
 37 38  2  0
 18  3  1  0
 38 20  1  0
 14  9  1  0
 32 27  1  0
 38 33  1  0
  4 39  1  0
 10 40  1  0
 10 41  1  0
 11 42  1  0
 11 43  1  0
 12 44  1  0
 12 45  1  0
 13 46  1  0
 13 47  1  0
 14 48  1  0
 14 49  1  0
 16 50  1  0
 17 51  1  0
 21 52  1  0
 21 53  1  0
 22 54  1  0
 22 55  1  0
 28 56  1  0
 29 57  1  0
 30 58  1  0
 31 59  1  0
 32 60  1  0
 34 61  1  0
 35 62  1  0
 36 63  1  0
 37 64  1  0
M  CHG  1  19  -1
M  END
>  <UniqueID>  (13) 
12

>  <SMILES>  (13) 
O=C(c1cc(S(=O)(=O)N2CCCCC2)c(O)cc1[O-])N1CCN(S(=O)(=O)c2ccccc2)c2ccccc21

>  <Energy>  (13) 
88.67819914444712

>  <Genealogy>  (13) 
O=C(c1cc(S(=O)(=O)N2CCCCC2)c(O)cc1[O-])N1CCN(S(=O)(=O)c2ccccc2)c2ccccc21 (protonated)
O=C(c1cc(S(=O)(=O)N2CCCCC2)c(O)cc1[O-])N1CCN(S(=O)(=O)c2ccccc2)c2ccccc21 (3D coordinates assigned)
O=C(c1cc(S(=O)(=O)N2CCCCC2)c(O)cc1[O-])N1CCN(S(=O)(=O)c2ccccc2)c2ccccc21 (nonaromatic ring conformer: 88.67819914444712 kcal/mol)

>  <smiles>  (13) 
O=C(c1cc(S(=O)(=O)N2CCCCC2)c(O)cc1O)N1CCN(S(=O)(=O)c2ccccc2)c2ccccc21

>  <score_type>  (13) 
oracle

>  <origin>  (13) 
adgpu

>  <m_score__min__energy>  (13) 
-13.99

>  <m_primary>  (13) 
energy

$$$$
13:0
     RDKit          3D

 57 61  0  0  0  0  0  0  0  0999 V2000
   -0.1360   19.8310  -34.2340 O   0  0  0  0  0  0  0  0  0  0  0  0
   -1.1960   19.9090  -33.1710 S   0  0  0  0  0  0  0  0  0  0  0  0
   -0.5380   19.8920  -31.8210 O   0  0  0  0  0  0  0  0  0  0  0  0
   -2.0730   21.3970  -33.3500 N   0  0  0  0  0  0  0  0  0  0  0  0
   -2.9400   21.9540  -32.3440 C   0  0  0  0  0  0  0  0  0  0  0  0
   -4.2710   22.2850  -32.6990 C   0  0  0  0  0  0  0  0  0  0  0  0
   -5.1570   22.8290  -31.7540 C   0  0  0  0  0  0  0  0  0  0  0  0
   -4.6880   23.0220  -30.4590 C   0  0  0  0  0  0  0  0  0  0  0  0
   -5.3360   23.5060  -29.3440 C   0  0  0  0  0  0  0  0  0  0  0  0
   -4.3920   23.4560  -28.3240 C   0  0  0  0  0  0  0  0  0  0  0  0
   -3.2180   22.9600  -28.7830 N   0  0  0  0  0  0  0  0  0  0  0  0
   -2.0080   22.7640  -27.9870 C   0  0  0  0  0  0  0  0  0  0  0  0
   -1.7430   21.2970  -27.7890 C   0  0  0  0  0  0  0  0  0  0  0  0
   -0.5710   20.7200  -28.3030 C   0  0  0  0  0  0  0  0  0  0  0  0
   -0.3110   19.3580  -28.1100 C   0  0  0  0  0  0  0  0  0  0  0  0
   -1.2240   18.5650  -27.4150 C   0  0  0  0  0  0  0  0  0  0  0  0
   -2.3990   19.1290  -26.9120 C   0  0  0  0  0  0  0  0  0  0  0  0
   -2.6660   20.4880  -27.1050 C   0  0  0  0  0  0  0  0  0  0  0  0
   -3.4060   22.7050  -30.0950 C   0  0  0  0  0  0  0  0  0  0  0  0
   -2.4980   22.1760  -31.0150 C   0  0  0  0  0  0  0  0  0  0  0  0
   -2.2820   18.5310  -33.2840 C   0  0  0  0  0  0  0  0  0  0  0  0
   -1.8230   17.2490  -32.9560 C   0  0  0  0  0  0  0  0  0  0  0  0
   -2.6850   16.1530  -33.0330 C   0  0  0  0  0  0  0  0  0  0  0  0
   -4.0100   16.3310  -33.4460 C   0  0  0  0  0  0  0  0  0  0  0  0
   -4.4760   17.6090  -33.7810 C   0  0  0  0  0  0  0  0  0  0  0  0
   -6.1210   17.8330  -34.3640 S   0  0  0  0  0  0  0  0  0  0  0  0
   -6.0930   18.5720  -35.6740 O   0  0  0  0  0  0  0  0  0  0  0  0
   -6.7740   16.4980  -34.5880 O   0  0  0  0  0  0  0  0  0  0  0  0
   -7.0410   18.7390  -33.1660 C   0  0  0  0  0  0  0  0  0  0  0  0
   -6.9440   20.1370  -33.0980 C   0  0  0  0  0  0  0  0  0  0  0  0
   -7.6960   20.8490  -32.1610 C   0  0  0  0  0  0  0  0  0  0  0  0
   -8.5490   20.1700  -31.2860 C   0  0  0  0  0  0  0  0  0  0  0  0
   -8.6430   18.7760  -31.3450 C   0  0  0  0  0  0  0  0  0  0  0  0
   -7.8900   18.0610  -32.2790 C   0  0  0  0  0  0  0  0  0  0  0  0
   -3.6110   18.7080  -33.6870 C   0  0  0  0  0  0  0  0  0  0  0  0
   -1.9140   21.9330  -34.2310 H   0  0  0  0  0  0  0  0  0  0  0  0
   -4.6157   22.1136  -33.7294 H   0  0  0  0  0  0  0  0  0  0  0  0
   -6.1885   23.0938  -32.0295 H   0  0  0  0  0  0  0  0  0  0  0  0
   -6.3763   23.8566  -29.2752 H   0  0  0  0  0  0  0  0  0  0  0  0
   -4.5737   23.7753  -27.2872 H   0  0  0  0  0  0  0  0  0  0  0  0
   -1.1533   23.2196  -28.5085 H   0  0  0  0  0  0  0  0  0  0  0  0
   -2.1469   23.2375  -27.0039 H   0  0  0  0  0  0  0  0  0  0  0  0
    0.1463   21.3408  -28.8599 H   0  0  0  0  0  0  0  0  0  0  0  0
    0.6136   18.9131  -28.5066 H   0  0  0  0  0  0  0  0  0  0  0  0
   -1.0188   17.4951  -27.2629 H   0  0  0  0  0  0  0  0  0  0  0  0
   -3.1165   18.5020  -26.3623 H   0  0  0  0  0  0  0  0  0  0  0  0
   -3.5999   20.9243  -26.7208 H   0  0  0  0  0  0  0  0  0  0  0  0
   -1.4665   21.9377  -30.7163 H   0  0  0  0  0  0  0  0  0  0  0  0
   -0.7802   17.1050  -32.6367 H   0  0  0  0  0  0  0  0  0  0  0  0
   -2.3220   15.1488  -32.7687 H   0  0  0  0  0  0  0  0  0  0  0  0
   -4.6868   15.4661  -33.5077 H   0  0  0  0  0  0  0  0  0  0  0  0
   -6.2734   20.6740  -33.7850 H   0  0  0  0  0  0  0  0  0  0  0  0
   -7.6170   21.9450  -32.1114 H   0  0  0  0  0  0  0  0  0  0  0  0
   -9.1455   20.7316  -30.5520 H   0  0  0  0  0  0  0  0  0  0  0  0
   -9.3116   18.2414  -30.6542 H   0  0  0  0  0  0  0  0  0  0  0  0
   -7.9629   16.9642  -32.3191 H   0  0  0  0  0  0  0  0  0  0  0  0
   -3.9786   19.7155  -33.9313 H   0  0  0  0  0  0  0  0  0  0  0  0
  1  2  2  0
  2  3  2  0
  2  4  1  0
  4  5  1  0
  5  6  2  0
  6  7  1  0
  7  8  2  0
  8  9  1  0
  9 10  2  0
 10 11  1  0
 11 12  1  0
 12 13  1  0
 13 14  2  0
 14 15  1  0
 15 16  2  0
 16 17  1  0
 17 18  2  0
 11 19  1  0
 19 20  2  0
  2 21  1  0
 21 22  2  0
 22 23  1  0
 23 24  2  0
 24 25  1  0
 25 26  1  0
 26 27  2  0
 26 28  2  0
 26 29  1  0
 29 30  2  0
 30 31  1  0
 31 32  2  0
 32 33  1  0
 33 34  2  0
 25 35  2  0
 20  5  1  0
 35 21  1  0
 19  8  1  0
 34 29  1  0
 18 13  1  0
  4 36  1  0
  6 37  1  0
  7 38  1  0
  9 39  1  0
 10 40  1  0
 12 41  1  0
 12 42  1  0
 14 43  1  0
 15 44  1  0
 16 45  1  0
 17 46  1  0
 18 47  1  0
 20 48  1  0
 22 49  1  0
 23 50  1  0
 24 51  1  0
 30 52  1  0
 31 53  1  0
 32 54  1  0
 33 55  1  0
 34 56  1  0
 35 57  1  0
M  END
>  <UniqueID>  (14) 
13

>  <SMILES>  (14) 
O=S(=O)(Nc1ccc2ccn(Cc3ccccc3)c2c1)c1cccc(S(=O)(=O)c2ccccc2)c1

>  <Energy>  (14) 
88.87986627085739

>  <Genealogy>  (14) 
O=S(=O)(Nc1ccc2ccn(Cc3ccccc3)c2c1)c1cccc(S(=O)(=O)c2ccccc2)c1 (3D coordinates assigned)
O=S(=O)(Nc1ccc2ccn(Cc3ccccc3)c2c1)c1cccc(S(=O)(=O)c2ccccc2)c1 (optimized conformer: 88.87986627085739 kcal/mol)

>  <smiles>  (14) 
O=S(=O)(Nc1ccc2ccn(Cc3ccccc3)c2c1)c1cccc(S(=O)(=O)c2ccccc2)c1

>  <score_type>  (14) 
oracle

>  <origin>  (14) 
adgpu

>  <m_score__min__energy>  (14) 
-12.49

>  <m_primary>  (14) 
energy

$$$$
14:0
     RDKit          3D

 55 58  0  0  0  0  0  0  0  0999 V2000
   -2.5710   20.5670  -34.2300 O   0  0  0  0  0  0  0  0  0  0  0  0
   -3.2500   20.6490  -33.1720 C   0  0  0  0  0  0  0  0  0  0  0  0
   -2.8210   21.5100  -32.1120 N   0  0  0  0  0  0  0  0  0  0  0  0
   -2.7020   21.0860  -30.7220 C   0  0  0  0  0  0  0  0  0  0  0  0
   -2.9220   22.2610  -29.8130 C   0  0  0  0  0  0  0  0  0  0  0  0
   -3.9050   22.2200  -28.8100 C   0  0  0  0  0  0  0  0  0  0  0  0
   -4.1100   23.3310  -27.9820 C   0  0  0  0  0  0  0  0  0  0  0  0
   -3.3440   24.4890  -28.1580 C   0  0  0  0  0  0  0  0  0  0  0  0
   -2.3750   24.5400  -29.1650 C   0  0  0  0  0  0  0  0  0  0  0  0
   -1.6130   25.6890  -29.3420 O   0  0  0  0  0  0  0  0  0  0  0  0
   -2.1690   23.4330  -29.9930 C   0  0  0  0  0  0  0  0  0  0  0  0
   -4.4770   19.8360  -33.0070 C   0  0  0  0  0  0  0  0  0  0  0  0
   -5.6710   20.4770  -32.6250 C   0  0  0  0  0  0  0  0  0  0  0  0
   -6.8410   19.7410  -32.4010 C   0  0  0  0  0  0  0  0  0  0  0  0
   -8.3290   20.5610  -31.9140 S   0  0  0  0  0  0  0  0  0  0  0  0
   -8.9600   19.8020  -30.7800 O   0  0  0  0  0  0  0  0  0  0  0  0
   -9.2920   20.5530  -33.0690 O   0  0  0  0  0  0  0  0  0  0  0  0
   -8.0590   22.2130  -31.4130 N   0  0  0  0  0  0  0  0  0  0  0  0
   -7.3440   22.2900  -30.1420 C   0  0  0  0  0  0  0  0  0  0  0  0
   -6.6270   23.6310  -30.1310 C   0  0  0  0  0  0  0  0  0  0  0  0
   -6.5580   24.0640  -31.5870 C   0  0  0  0  0  0  0  0  0  0  0  0
   -7.2370   22.9510  -32.3710 C   0  0  0  0  0  0  0  0  0  0  0  0
   -6.8180   18.3490  -32.5470 C   0  0  0  0  0  0  0  0  0  0  0  0
   -5.6460   17.7010  -32.9380 C   0  0  0  0  0  0  0  0  0  0  0  0
   -4.4740   18.4320  -33.1780 C   0  0  0  0  0  0  0  0  0  0  0  0
   -3.3110   17.7420  -33.6560 N   0  0  0  0  0  0  0  0  0  0  0  0
   -3.2120   17.1760  -34.9890 C   0  0  0  0  0  0  0  0  0  0  0  0
   -1.8110   16.5840  -35.0710 C   0  0  0  0  0  0  0  0  0  0  0  0
   -1.0150   17.2370  -33.9430 C   0  0  0  0  0  0  0  0  0  0  0  0
   -2.0450   17.7530  -32.9440 C   0  0  0  0  0  0  0  0  0  0  0  0
   -3.4558   20.3135  -30.5097 H   0  0  0  0  0  0  0  0  0  0  0  0
   -1.6952   20.6771  -30.5511 H   0  0  0  0  0  0  0  0  0  0  0  0
   -4.5144   21.3143  -28.6748 H   0  0  0  0  0  0  0  0  0  0  0  0
   -4.8745   23.2933  -27.1920 H   0  0  0  0  0  0  0  0  0  0  0  0
   -3.5042   25.3590  -27.5042 H   0  0  0  0  0  0  0  0  0  0  0  0
   -1.4127   23.4799  -30.7904 H   0  0  0  0  0  0  0  0  0  0  0  0
   -5.6849   21.5699  -32.5009 H   0  0  0  0  0  0  0  0  0  0  0  0
   -8.0529   22.2311  -29.3029 H   0  0  0  0  0  0  0  0  0  0  0  0
   -6.6329   21.4576  -30.0343 H   0  0  0  0  0  0  0  0  0  0  0  0
   -7.1922   24.3648  -29.5376 H   0  0  0  0  0  0  0  0  0  0  0  0
   -5.6271   23.5566  -29.6786 H   0  0  0  0  0  0  0  0  0  0  0  0
   -7.0896   25.0162  -31.7311 H   0  0  0  0  0  0  0  0  0  0  0  0
   -5.5213   24.2243  -31.9179 H   0  0  0  0  0  0  0  0  0  0  0  0
   -7.8679   23.3757  -33.1657 H   0  0  0  0  0  0  0  0  0  0  0  0
   -6.4976   22.2935  -32.8516 H   0  0  0  0  0  0  0  0  0  0  0  0
   -7.7285   17.7632  -32.3525 H   0  0  0  0  0  0  0  0  0  0  0  0
   -5.6414   16.6077  -33.0590 H   0  0  0  0  0  0  0  0  0  0  0  0
   -3.9705   16.3923  -35.1322 H   0  0  0  0  0  0  0  0  0  0  0  0
   -3.3842   17.9318  -35.7694 H   0  0  0  0  0  0  0  0  0  0  0  0
   -1.8476   15.4934  -34.9321 H   0  0  0  0  0  0  0  0  0  0  0  0
   -1.3499   16.7711  -36.0520 H   0  0  0  0  0  0  0  0  0  0  0  0
   -0.3550   16.4987  -33.4642 H   0  0  0  0  0  0  0  0  0  0  0  0
   -0.3769   18.0502  -34.3193 H   0  0  0  0  0  0  0  0  0  0  0  0
   -2.0922   17.0939  -32.0646 H   0  0  0  0  0  0  0  0  0  0  0  0
   -1.7909   18.7581  -32.5762 H   0  0  0  0  0  0  0  0  0  0  0  0
  1  2  2  0
  2  3  1  0
  3  4  1  0
  4  5  1  0
  5  6  2  0
  6  7  1  0
  7  8  2  0
  8  9  1  0
  9 10  1  0
  9 11  2  0
  2 12  1  0
 12 13  2  0
 13 14  1  0
 14 15  1  0
 15 16  2  0
 15 17  2  0
 15 18  1  0
 18 19  1  0
 19 20  1  0
 20 21  1  0
 21 22  1  0
 14 23  2  0
 23 24  1  0
 24 25  2  0
 25 26  1  0
 26 27  1  0
 27 28  1  0
 28 29  1  0
 29 30  1  0
 11  5  1  0
 25 12  1  0
 30 26  1  0
 22 18  1  0
  4 31  1  0
  4 32  1  0
  6 33  1  0
  7 34  1  0
  8 35  1  0
 11 36  1  0
 13 37  1  0
 19 38  1  0
 19 39  1  0
 20 40  1  0
 20 41  1  0
 21 42  1  0
 21 43  1  0
 22 44  1  0
 22 45  1  0
 23 46  1  0
 24 47  1  0
 27 48  1  0
 27 49  1  0
 28 50  1  0
 28 51  1  0
 29 52  1  0
 29 53  1  0
 30 54  1  0
 30 55  1  0
M  CHG  2   3  -1  10  -1
M  END
>  <UniqueID>  (15) 
14

>  <SMILES>  (15) 
O=C([N-]Cc1cccc([O-])c1)c1cc(S(=O)(=O)N2CCCC2)ccc1N1CCCC1

>  <Energy>  (15) 
64.29703539022326

>  <Genealogy>  (15) 
O=C([N-]Cc1cccc([O-])c1)c1cc(S(=O)(=O)N2CCCC2)ccc1N1CCCC1 (protonated)
O=C([N-]Cc1cccc([O-])c1)c1cc(S(=O)(=O)N2CCCC2)ccc1N1CCCC1 (3D coordinates assigned)
O=C([N-]Cc1cccc([O-])c1)c1cc(S(=O)(=O)N2CCCC2)ccc1N1CCCC1 (nonaromatic ring conformer: 64.29703539022326 kcal/mol)

>  <smiles>  (15) 
O=C(NCc1cccc(O)c1)c1cc(S(=O)(=O)N2CCCC2)ccc1N1CCCC1

>  <score_type>  (15) 
oracle

>  <origin>  (15) 
adgpu

>  <m_score__min__energy>  (15) 
-12.4

>  <m_primary>  (15) 
energy

$$$$
15:0
     RDKit          3D

 44 46  0  0  0  0  0  0  0  0999 V2000
    1.9210   24.3430  -24.4590 C   0  0  0  0  0  0  0  0  0  0  0  0
    0.5790   24.9880  -24.6810 C   0  0  0  0  0  0  0  0  0  0  0  0
    0.4060   26.3440  -24.3570 C   0  0  0  0  0  0  0  0  0  0  0  0
   -0.8340   26.9580  -24.5350 C   0  0  0  0  0  0  0  0  0  0  0  0
   -1.8990   26.2130  -25.0350 C   0  0  0  0  0  0  0  0  0  0  0  0
   -1.7290   24.8990  -25.3310 N   0  0  0  0  0  0  0  0  0  0  0  0
   -0.5370   24.2610  -25.1610 C   0  0  0  0  0  0  0  0  0  0  0  0
   -0.4670   22.7900  -25.4870 C   0  0  0  0  0  0  0  0  0  0  0  0
   -0.2100   22.5670  -26.9080 N   0  0  0  0  0  0  0  0  0  0  0  0
   -0.3090   23.5350  -27.9640 C   0  0  0  0  0  0  0  0  0  0  0  0
    0.7190   24.1900  -28.2770 O   0  0  0  0  0  0  0  0  0  0  0  0
   -1.5520   23.7590  -28.7250 C   0  0  0  0  0  0  0  0  0  0  0  0
   -2.5680   22.8490  -28.9750 C   0  0  0  0  0  0  0  0  0  0  0  0
   -3.5430   23.4330  -29.7100 N   0  0  0  0  0  0  0  0  0  0  0  0
   -4.7350   22.7900  -30.1970 C   0  0  0  0  0  0  0  0  0  0  0  0
   -4.6560   21.7420  -31.1310 C   0  0  0  0  0  0  0  0  0  0  0  0
   -5.8180   21.1230  -31.6000 C   0  0  0  0  0  0  0  0  0  0  0  0
   -7.0750   21.5470  -31.1490 C   0  0  0  0  0  0  0  0  0  0  0  0
   -8.5370   20.7540  -31.7260 S   0  0  0  0  0  0  0  0  0  0  0  0
   -8.1280   19.6780  -33.0810 C   0  0  0  0  0  0  0  0  0  0  0  0
   -9.1530   19.9500  -30.6150 O   0  0  0  0  0  0  0  0  0  0  0  0
   -9.5300   21.7840  -32.1830 O   0  0  0  0  0  0  0  0  0  0  0  0
   -7.1590   22.5900  -30.2180 C   0  0  0  0  0  0  0  0  0  0  0  0
   -5.9990   23.2100  -29.7500 C   0  0  0  0  0  0  0  0  0  0  0  0
   -3.1580   24.7120  -29.9160 C   0  0  0  0  0  0  0  0  0  0  0  0
   -3.8680   25.6430  -30.6640 O   0  0  0  0  0  0  0  0  0  0  0  0
   -1.9460   24.9440  -29.3130 C   0  0  0  0  0  0  0  0  0  0  0  0
   -1.2400   26.1400  -29.3210 O   0  0  0  0  0  0  0  0  0  0  0  0
    2.1100   24.2522  -23.3792 H   0  0  0  0  0  0  0  0  0  0  0  0
    1.9277   23.3433  -24.9178 H   0  0  0  0  0  0  0  0  0  0  0  0
    2.7059   24.9623  -24.9178 H   0  0  0  0  0  0  0  0  0  0  0  0
    1.2524   26.9244  -23.9610 H   0  0  0  0  0  0  0  0  0  0  0  0
   -0.9691   28.0202  -24.2829 H   0  0  0  0  0  0  0  0  0  0  0  0
   -2.8783   26.6893  -25.1902 H   0  0  0  0  0  0  0  0  0  0  0  0
    0.3439   22.3325  -24.9012 H   0  0  0  0  0  0  0  0  0  0  0  0
   -1.4366   22.3350  -25.2366 H   0  0  0  0  0  0  0  0  0  0  0  0
   -2.5798   21.8056  -28.6270 H   0  0  0  0  0  0  0  0  0  0  0  0
   -3.6734   21.4072  -31.4949 H   0  0  0  0  0  0  0  0  0  0  0  0
   -5.7454   20.2998  -32.3260 H   0  0  0  0  0  0  0  0  0  0  0  0
   -7.7628   18.7173  -32.6890 H   0  0  0  0  0  0  0  0  0  0  0  0
   -9.0236   19.5064  -33.6962 H   0  0  0  0  0  0  0  0  0  0  0  0
   -7.3445   20.1446  -33.6962 H   0  0  0  0  0  0  0  0  0  0  0  0
   -8.1426   22.9219  -29.8542 H   0  0  0  0  0  0  0  0  0  0  0  0
   -6.0753   24.0341  -29.0254 H   0  0  0  0  0  0  0  0  0  0  0  0
  1  2  1  0
  2  3  2  0
  3  4  1  0
  4  5  2  0
  5  6  1  0
  6  7  2  0
  7  8  1  0
  8  9  1  0
  9 10  1  0
 10 11  2  0
 10 12  1  0
 12 13  2  0
 13 14  1  0
 14 15  1  0
 15 16  2  0
 16 17  1  0
 17 18  2  0
 18 19  1  0
 19 20  1  0
 19 21  2  0
 19 22  2  0
 18 23  1  0
 23 24  2  0
 14 25  1  0
 25 26  1  0
 25 27  2  0
 27 28  1  0
  7  2  1  0
 27 12  1  0
 24 15  1  0
  1 29  1  0
  1 30  1  0
  1 31  1  0
  3 32  1  0
  4 33  1  0
  5 34  1  0
  8 35  1  0
  8 36  1  0
 13 37  1  0
 16 38  1  0
 17 39  1  0
 20 40  1  0
 20 41  1  0
 20 42  1  0
 23 43  1  0
 24 44  1  0
M  CHG  3   9  -1  26  -1  28  -1
M  END
>  <UniqueID>  (16) 
15

>  <SMILES>  (16) 
Cc1cccnc1C[N-]C(=O)c1cn(-c2ccc(S(C)(=O)=O)cc2)c([O-])c1[O-]

>  <Energy>  (16) 
79.57163998533764

>  <Genealogy>  (16) 
Cc1cccnc1C[N-]C(=O)c1cn(-c2ccc(S(C)(=O)=O)cc2)c([O-])c1[O-] (protonated)
Cc1cccnc1C[N-]C(=O)c1cn(-c2ccc(S(C)(=O)=O)cc2)c([O-])c1[O-] (3D coordinates assigned)
Cc1cccnc1C[N-]C(=O)c1cn(-c2ccc(S(C)(=O)=O)cc2)c([O-])c1[O-] (optimized conformer: 79.57163998533764 kcal/mol)

>  <smiles>  (16) 
Cc1cccnc1CNC(=O)c1cn(-c2ccc(S(C)(=O)=O)cc2)c(O)c1O

>  <score_type>  (16) 
oracle

>  <origin>  (16) 
adgpu

>  <m_score__min__energy>  (16) 
-14.880000000000001

>  <m_primary>  (16) 
energy

$$$$
16:0
     RDKit          3D

 54 57  0  0  0  0  0  0  0  0999 V2000
   -5.3160   17.6860  -34.2630 O   0  0  0  0  0  0  0  0  0  0  0  0
   -5.3920   18.6850  -33.4980 C   0  0  0  0  0  0  0  0  0  0  0  0
   -6.6930   18.9940  -32.8790 C   0  0  0  0  0  0  0  0  0  0  0  0
   -7.5450   20.0290  -33.2090 C   0  0  0  0  0  0  0  0  0  0  0  0
   -8.6000   19.8660  -32.3380 C   0  0  0  0  0  0  0  0  0  0  0  0
   -9.8460   20.6930  -32.2840 C   0  0  0  0  0  0  0  0  0  0  0  0
   -9.5200   22.0560  -32.0100 O   0  0  0  0  0  0  0  0  0  0  0  0
   -8.2900   22.5120  -31.5080 C   0  0  0  0  0  0  0  0  0  0  0  0
   -7.8520   22.2320  -30.1990 C   0  0  0  0  0  0  0  0  0  0  0  0
   -6.6080   22.6930  -29.7580 C   0  0  0  0  0  0  0  0  0  0  0  0
   -5.7890   23.4430  -30.6130 C   0  0  0  0  0  0  0  0  0  0  0  0
   -4.2300   24.0480  -30.0590 S   0  0  0  0  0  0  0  0  0  0  0  0
   -4.3500   24.4020  -28.6030 O   0  0  0  0  0  0  0  0  0  0  0  0
   -3.8680   25.2940  -30.8190 O   0  0  0  0  0  0  0  0  0  0  0  0
   -2.9880   22.8290  -30.2550 N   0  0  0  0  0  0  0  0  0  0  0  0
   -1.6870   23.2620  -29.7060 C   0  0  0  0  0  0  0  0  0  0  0  0
   -1.6540   23.2470  -28.1660 C   0  0  0  0  0  0  0  0  0  0  0  0
   -2.3880   22.0380  -27.5570 C   0  0  0  0  0  0  0  0  0  0  0  0
   -2.6390   20.9430  -28.5920 C   0  0  0  0  0  0  0  0  0  0  0  0
   -3.4410   21.4950  -29.7840 C   0  0  0  0  0  0  0  0  0  0  0  0
   -6.2320   23.7400  -31.9070 C   0  0  0  0  0  0  0  0  0  0  0  0
   -7.4740   23.2770  -32.3500 C   0  0  0  0  0  0  0  0  0  0  0  0
   -8.3580   18.8370  -31.5620 O   0  0  0  0  0  0  0  0  0  0  0  0
   -7.2130   18.2910  -31.8540 N   0  0  0  0  0  0  0  0  0  0  0  0
   -4.2270   19.5040  -33.2840 N   0  0  0  0  0  0  0  0  0  0  0  0
   -2.9040   19.1000  -33.7330 C   0  0  0  0  0  0  0  0  0  0  0  0
   -1.9940   20.2880  -33.4520 C   0  0  0  0  0  0  0  0  0  0  0  0
   -2.9240   21.4860  -33.2940 C   0  0  0  0  0  0  0  0  0  0  0  0
   -4.2720   20.9050  -32.8900 C   0  0  0  0  0  0  0  0  0  0  0  0
   -7.4130   20.7998  -33.9826 H   0  0  0  0  0  0  0  0  0  0  0  0
  -10.3659   20.6309  -33.2514 H   0  0  0  0  0  0  0  0  0  0  0  0
  -10.4967   20.3110  -31.4836 H   0  0  0  0  0  0  0  0  0  0  0  0
   -8.4915   21.6481  -29.5207 H   0  0  0  0  0  0  0  0  0  0  0  0
   -6.2707   22.4662  -28.7359 H   0  0  0  0  0  0  0  0  0  0  0  0
   -0.9047   22.5856  -30.0809 H   0  0  0  0  0  0  0  0  0  0  0  0
   -1.5194   24.2995  -30.0307 H   0  0  0  0  0  0  0  0  0  0  0  0
   -0.6042   23.2202  -27.8387 H   0  0  0  0  0  0  0  0  0  0  0  0
   -2.1712   24.1534  -27.8184 H   0  0  0  0  0  0  0  0  0  0  0  0
   -1.7757   21.6237  -26.7425 H   0  0  0  0  0  0  0  0  0  0  0  0
   -3.3632   22.3841  -27.1838 H   0  0  0  0  0  0  0  0  0  0  0  0
   -1.6734   20.5592  -28.9531 H   0  0  0  0  0  0  0  0  0  0  0  0
   -3.2179   20.1357  -28.1196 H   0  0  0  0  0  0  0  0  0  0  0  0
   -3.3509   20.7850  -30.6193 H   0  0  0  0  0  0  0  0  0  0  0  0
   -4.4784   21.6162  -29.4390 H   0  0  0  0  0  0  0  0  0  0  0  0
   -5.6000   24.3403  -32.5780 H   0  0  0  0  0  0  0  0  0  0  0  0
   -7.8133   23.5156  -33.3688 H   0  0  0  0  0  0  0  0  0  0  0  0
   -2.5631   18.2152  -33.1754 H   0  0  0  0  0  0  0  0  0  0  0  0
   -2.9017   18.8296  -34.7992 H   0  0  0  0  0  0  0  0  0  0  0  0
   -1.4201   20.1225  -32.5283 H   0  0  0  0  0  0  0  0  0  0  0  0
   -1.2637   20.4424  -34.2600 H   0  0  0  0  0  0  0  0  0  0  0  0
   -2.5482   22.1639  -32.5135 H   0  0  0  0  0  0  0  0  0  0  0  0
   -2.9944   22.0727  -34.2218 H   0  0  0  0  0  0  0  0  0  0  0  0
   -4.4187   20.9940  -31.8035 H   0  0  0  0  0  0  0  0  0  0  0  0
   -5.1059   21.4371  -33.3712 H   0  0  0  0  0  0  0  0  0  0  0  0
  1  2  2  0
  2  3  1  0
  3  4  1  0
  4  5  2  0
  5  6  1  0
  6  7  1  0
  7  8  1  0
  8  9  2  0
  9 10  1  0
 10 11  2  0
 11 12  1  0
 12 13  2  0
 12 14  2  0
 12 15  1  0
 15 16  1  0
 16 17  1  0
 17 18  1  0
 18 19  1  0
 19 20  1  0
 11 21  1  0
 21 22  2  0
  5 23  1  0
 23 24  1  0
  2 25  1  0
 25 26  1  0
 26 27  1  0
 27 28  1  0
 28 29  1  0
 24  3  2  0
 29 25  1  0
 22  8  1  0
 20 15  1  0
  4 30  1  0
  6 31  1  0
  6 32  1  0
  9 33  1  0
 10 34  1  0
 16 35  1  0
 16 36  1  0
 17 37  1  0
 17 38  1  0
 18 39  1  0
 18 40  1  0
 19 41  1  0
 19 42  1  0
 20 43  1  0
 20 44  1  0
 21 45  1  0
 22 46  1  0
 26 47  1  0
 26 48  1  0
 27 49  1  0
 27 50  1  0
 28 51  1  0
 28 52  1  0
 29 53  1  0
 29 54  1  0
M  END
>  <UniqueID>  (17) 
16

>  <SMILES>  (17) 
O=C(c1cc(COc2ccc(S(=O)(=O)N3CCCCC3)cc2)on1)N1CCCC1

>  <Energy>  (17) 
93.60756422037981

>  <Genealogy>  (17) 
O=C(c1cc(COc2ccc(S(=O)(=O)N3CCCCC3)cc2)on1)N1CCCC1 (3D coordinates assigned)
O=C(c1cc(COc2ccc(S(=O)(=O)N3CCCCC3)cc2)on1)N1CCCC1 (nonaromatic ring conformer: 93.60756422037981 kcal/mol)

>  <smiles>  (17) 
O=C(c1cc(COc2ccc(S(=O)(=O)N3CCCCC3)cc2)on1)N1CCCC1

>  <score_type>  (17) 
oracle

>  <origin>  (17) 
adgpu

>  <m_score__min__energy>  (17) 
-10.609999999999999

>  <m_primary>  (17) 
energy

$$$$
17:0
     RDKit          3D

 32 33  0  0  0  0  0  0  0  0999 V2000
   -1.6840   26.2650  -25.4560 C   0  0  0  0  0  0  0  0  0  0  0  0
   -1.2910   25.5310  -26.6970 C   0  0  0  0  0  0  0  0  0  0  0  0
    0.0580   25.3410  -27.0170 C   0  0  0  0  0  0  0  0  0  0  0  0
    0.3880   24.6610  -28.1470 N   0  0  0  0  0  0  0  0  0  0  0  0
   -0.5670   24.1560  -28.9700 C   0  0  0  0  0  0  0  0  0  0  0  0
   -1.9200   24.3300  -28.6470 C   0  0  0  0  0  0  0  0  0  0  0  0
   -3.0050   23.7610  -29.5170 C   0  0  0  0  0  0  0  0  0  0  0  0
   -3.5020   24.7600  -30.4660 N   0  0  0  0  0  0  0  0  0  0  0  0
   -5.2410   24.8510  -30.4450 S   0  0  0  0  0  0  0  0  0  0  0  0
   -5.7010   26.1360  -31.0780 O   0  0  0  0  0  0  0  0  0  0  0  0
   -5.7170   24.8260  -29.0200 O   0  0  0  0  0  0  0  0  0  0  0  0
   -5.9250   23.4670  -31.2930 C   0  0  0  0  0  0  0  0  0  0  0  0
   -5.0970   22.5480  -31.9530 C   0  0  0  0  0  0  0  0  0  0  0  0
   -5.6480   21.4160  -32.5620 C   0  0  0  0  0  0  0  0  0  0  0  0
   -7.0320   21.1950  -32.5200 C   0  0  0  0  0  0  0  0  0  0  0  0
   -7.5930   20.0290  -33.1270 N   0  0  0  0  0  0  0  0  0  0  0  0
   -7.8610   22.1220  -31.8720 C   0  0  0  0  0  0  0  0  0  0  0  0
   -7.3090   23.2510  -31.2620 C   0  0  0  0  0  0  0  0  0  0  0  0
   -2.2460   25.0250  -27.5230 N   0  0  0  0  0  0  0  0  0  0  0  0
   -1.3739   25.6858  -24.5737 H   0  0  0  0  0  0  0  0  0  0  0  0
   -1.1919   27.2487  -25.4404 H   0  0  0  0  0  0  0  0  0  0  0  0
   -2.7755   26.4008  -25.4404 H   0  0  0  0  0  0  0  0  0  0  0  0
    0.8451   25.7387  -26.3595 H   0  0  0  0  0  0  0  0  0  0  0  0
   -0.2809   23.6143  -29.8836 H   0  0  0  0  0  0  0  0  0  0  0  0
   -2.6034   22.9033  -30.0765 H   0  0  0  0  0  0  0  0  0  0  0  0
   -3.8395   23.4475  -28.8726 H   0  0  0  0  0  0  0  0  0  0  0  0
   -4.0109   22.7178  -31.9919 H   0  0  0  0  0  0  0  0  0  0  0  0
   -4.9934   20.6966  -33.0757 H   0  0  0  0  0  0  0  0  0  0  0  0
   -7.7070   19.1450  -32.5830 H   0  0  0  0  0  0  0  0  0  0  0  0
   -7.9050   20.0420  -34.1240 H   0  0  0  0  0  0  0  0  0  0  0  0
   -8.9486   21.9597  -31.8440 H   0  0  0  0  0  0  0  0  0  0  0  0
   -7.9644   23.9742  -30.7546 H   0  0  0  0  0  0  0  0  0  0  0  0
  1  2  1  0
  2  3  2  0
  3  4  1  0
  4  5  2  0
  5  6  1  0
  6  7  1  0
  7  8  1  0
  8  9  1  0
  9 10  2  0
  9 11  2  0
  9 12  1  0
 12 13  2  0
 13 14  1  0
 14 15  2  0
 15 16  1  0
 15 17  1  0
 17 18  2  0
  6 19  2  0
 19  2  1  0
 18 12  1  0
  1 20  1  0
  1 21  1  0
  1 22  1  0
  3 23  1  0
  5 24  1  0
  7 25  1  0
  7 26  1  0
 13 27  1  0
 14 28  1  0
 16 29  1  0
 16 30  1  0
 17 31  1  0
 18 32  1  0
M  CHG  1   8  -1
M  END
>  <UniqueID>  (18) 
17

>  <SMILES>  (18) 
Cc1cncc(C[N-]S(=O)(=O)c2ccc(N)cc2)n1

>  <Energy>  (18) 
27.39062139958139

>  <Genealogy>  (18) 
Cc1cncc(C[N-]S(=O)(=O)c2ccc(N)cc2)n1 (protonated)
Cc1cncc(C[N-]S(=O)(=O)c2ccc(N)cc2)n1 (3D coordinates assigned)
Cc1cncc(C[N-]S(=O)(=O)c2ccc(N)cc2)n1 (optimized conformer: 27.39062139958139 kcal/mol)

>  <smiles>  (18) 
Cc1cncc(CNS(=O)(=O)c2ccc(N)cc2)n1

>  <score_type>  (18) 
oracle

>  <origin>  (18) 
adgpu

>  <m_score__min__energy>  (18) 
-8.5099999999999998

>  <m_primary>  (18) 
energy

$$$$
18:0
     RDKit          3D

 59 62  0  0  0  0  0  0  0  0999 V2000
   -0.5040   20.5190  -34.6030 C   0  0  0  0  0  0  0  0  0  0  0  0
   -1.6930   20.0630  -33.8120 C   0  0  0  0  0  0  0  0  0  0  0  0
   -2.4320   19.1670  -34.3050 O   0  0  0  0  0  0  0  0  0  0  0  0
   -2.0150   20.6340  -32.4770 C   0  0  0  0  0  0  0  0  0  0  0  0
   -3.2080   20.2710  -31.8250 C   0  0  0  0  0  0  0  0  0  0  0  0
   -3.5240   20.8010  -30.5720 C   0  0  0  0  0  0  0  0  0  0  0  0
   -2.6560   21.7020  -29.9400 C   0  0  0  0  0  0  0  0  0  0  0  0
   -2.9890   22.2560  -28.6500 N   0  0  0  0  0  0  0  0  0  0  0  0
   -2.0180   22.1490  -27.5530 C   0  0  0  0  0  0  0  0  0  0  0  0
   -1.5530   20.7280  -27.4100 C   0  0  0  0  0  0  0  0  0  0  0  0
   -2.3650   19.7690  -26.7880 C   0  0  0  0  0  0  0  0  0  0  0  0
   -1.9240   18.4470  -26.7090 C   0  0  0  0  0  0  0  0  0  0  0  0
   -0.6880   18.0930  -27.2510 C   0  0  0  0  0  0  0  0  0  0  0  0
    0.0920   19.0720  -27.8710 C   0  0  0  0  0  0  0  0  0  0  0  0
   -0.3550   20.3550  -27.9400 N   0  0  0  0  0  0  0  0  0  0  0  0
   -4.1310   23.1290  -28.5080 C   0  0  0  0  0  0  0  0  0  0  0  0
   -4.4110   23.6180  -27.3790 O   0  0  0  0  0  0  0  0  0  0  0  0
   -4.9780   23.4860  -29.6680 C   0  0  0  0  0  0  0  0  0  0  0  0
   -6.1270   22.7270  -29.9430 C   0  0  0  0  0  0  0  0  0  0  0  0
   -6.9600   23.0570  -31.0200 C   0  0  0  0  0  0  0  0  0  0  0  0
   -8.4090   22.1040  -31.3490 S   0  0  0  0  0  0  0  0  0  0  0  0
   -9.0770   21.7570  -30.0470 O   0  0  0  0  0  0  0  0  0  0  0  0
   -9.3700   22.9310  -32.1580 O   0  0  0  0  0  0  0  0  0  0  0  0
   -8.0400   20.6360  -32.2190 N   0  0  0  0  0  0  0  0  0  0  0  0
   -6.6250   20.6120  -32.6130 C   0  0  0  0  0  0  0  0  0  0  0  0
   -6.3080   19.3040  -33.3680 C   0  0  0  0  0  0  0  0  0  0  0  0
   -7.4210   18.4290  -33.4080 O   0  0  0  0  0  0  0  0  0  0  0  0
   -7.8710   18.1670  -32.0920 C   0  0  0  0  0  0  0  0  0  0  0  0
   -8.3580   19.4560  -31.3990 C   0  0  0  0  0  0  0  0  0  0  0  0
   -6.6360   24.1490  -31.8350 C   0  0  0  0  0  0  0  0  0  0  0  0
   -5.4840   24.8970  -31.5820 C   0  0  0  0  0  0  0  0  0  0  0  0
   -4.6500   24.5670  -30.5100 C   0  0  0  0  0  0  0  0  0  0  0  0
   -3.4870   25.3020  -30.3050 O   0  0  0  0  0  0  0  0  0  0  0  0
   -1.4660   22.0710  -30.5850 C   0  0  0  0  0  0  0  0  0  0  0  0
   -1.1480   21.5420  -31.8390 C   0  0  0  0  0  0  0  0  0  0  0  0
    0.2977   20.8265  -33.9155 H   0  0  0  0  0  0  0  0  0  0  0  0
   -0.1470   19.6940  -35.2370 H   0  0  0  0  0  0  0  0  0  0  0  0
   -0.7903   21.3711  -35.2370 H   0  0  0  0  0  0  0  0  0  0  0  0
   -3.8984   19.5630  -32.3068 H   0  0  0  0  0  0  0  0  0  0  0  0
   -4.4619   20.5089  -30.0770 H   0  0  0  0  0  0  0  0  0  0  0  0
   -1.1537   22.7944  -27.7683 H   0  0  0  0  0  0  0  0  0  0  0  0
   -2.4985   22.4659  -26.6156 H   0  0  0  0  0  0  0  0  0  0  0  0
   -3.3398   20.0556  -26.3665 H   0  0  0  0  0  0  0  0  0  0  0  0
   -2.5498   17.6857  -26.2203 H   0  0  0  0  0  0  0  0  0  0  0  0
   -0.3316   17.0541  -27.1907 H   0  0  0  0  0  0  0  0  0  0  0  0
    1.0677   18.8055  -28.3035 H   0  0  0  0  0  0  0  0  0  0  0  0
   -6.3754   21.8649  -29.3066 H   0  0  0  0  0  0  0  0  0  0  0  0
   -6.4149   21.4704  -33.2679 H   0  0  0  0  0  0  0  0  0  0  0  0
   -5.9985   20.6682  -31.7106 H   0  0  0  0  0  0  0  0  0  0  0  0
   -6.0142   19.5516  -34.3987 H   0  0  0  0  0  0  0  0  0  0  0  0
   -5.4941   18.7927  -32.8330 H   0  0  0  0  0  0  0  0  0  0  0  0
   -8.7016   17.4471  -32.1340 H   0  0  0  0  0  0  0  0  0  0  0  0
   -7.0302   17.7579  -31.5127 H   0  0  0  0  0  0  0  0  0  0  0  0
   -9.4469   19.3993  -31.2538 H   0  0  0  0  0  0  0  0  0  0  0  0
   -7.8495   19.5509  -30.4282 H   0  0  0  0  0  0  0  0  0  0  0  0
   -7.2908   24.4183  -32.6768 H   0  0  0  0  0  0  0  0  0  0  0  0
   -5.2319   25.7498  -32.2294 H   0  0  0  0  0  0  0  0  0  0  0  0
   -0.7792   22.7809  -30.1009 H   0  0  0  0  0  0  0  0  0  0  0  0
   -0.2107   21.8380  -32.3328 H   0  0  0  0  0  0  0  0  0  0  0  0
  1  2  1  0
  2  3  2  0
  2  4  1  0
  4  5  2  0
  5  6  1  0
  6  7  2  0
  7  8  1  0
  8  9  1  0
  9 10  1  0
 10 11  2  0
 11 12  1  0
 12 13  2  0
 13 14  1  0
 14 15  2  0
  8 16  1  0
 16 17  2  0
 16 18  1  0
 18 19  2  0
 19 20  1  0
 20 21  1  0
 21 22  2  0
 21 23  2  0
 21 24  1  0
 24 25  1  0
 25 26  1  0
 26 27  1  0
 27 28  1  0
 28 29  1  0
 20 30  2  0
 30 31  1  0
 31 32  2  0
 32 33  1  0
  7 34  1  0
 34 35  2  0
 35  4  1  0
 15 10  1  0
 32 18  1  0
 29 24  1  0
  1 36  1  0
  1 37  1  0
  1 38  1  0
  5 39  1  0
  6 40  1  0
  9 41  1  0
  9 42  1  0
 11 43  1  0
 12 44  1  0
 13 45  1  0
 14 46  1  0
 19 47  1  0
 25 48  1  0
 25 49  1  0
 26 50  1  0
 26 51  1  0
 28 52  1  0
 28 53  1  0
 29 54  1  0
 29 55  1  0
 30 56  1  0
 31 57  1  0
 34 58  1  0
 35 59  1  0
M  CHG  1  33  -1
M  END
>  <UniqueID>  (19) 
18

>  <SMILES>  (19) 
CC(=O)c1ccc(N(Cc2ccccn2)C(=O)c2cc(S(=O)(=O)N3CCOCC3)ccc2[O-])cc1

>  <Energy>  (19) 
78.91310523557377

>  <Genealogy>  (19) 
CC(=O)c1ccc(N(Cc2ccccn2)C(=O)c2cc(S(=O)(=O)N3CCOCC3)ccc2[O-])cc1 (protonated)
CC(=O)c1ccc(N(Cc2ccccn2)C(=O)c2cc(S(=O)(=O)N3CCOCC3)ccc2[O-])cc1 (3D coordinates assigned)
CC(=O)c1ccc(N(Cc2ccccn2)C(=O)c2cc(S(=O)(=O)N3CCOCC3)ccc2[O-])cc1 (nonaromatic ring conformer: 78.91310523557377 kcal/mol)

>  <smiles>  (19) 
CC(=O)c1ccc(N(Cc2ccccn2)C(=O)c2cc(S(=O)(=O)N3CCOCC3)ccc2O)cc1

>  <score_type>  (19) 
oracle

>  <origin>  (19) 
adgpu

>  <m_score__min__energy>  (19) 
-13.470000000000001

>  <m_primary>  (19) 
energy

$$$$
19:0
     RDKit          3D

 38 40  0  0  0  0  0  0  0  0999 V2000
   -6.0230   15.0770  -34.2090 C   0  0  0  0  0  0  0  0  0  0  0  0
   -6.2550   16.5310  -33.9500 C   0  0  0  0  0  0  0  0  0  0  0  0
   -5.4500   17.4980  -34.5710 C   0  0  0  0  0  0  0  0  0  0  0  0
   -5.6660   18.8500  -34.2990 C   0  0  0  0  0  0  0  0  0  0  0  0
   -6.6730   19.2300  -33.4050 C   0  0  0  0  0  0  0  0  0  0  0  0
   -6.8980   20.5780  -33.0910 C   0  0  0  0  0  0  0  0  0  0  0  0
   -7.8930   20.9280  -32.1650 C   0  0  0  0  0  0  0  0  0  0  0  0
   -8.1170   22.6050  -31.6780 S   0  0  0  0  0  0  0  0  0  0  0  0
   -9.4900   23.0830  -32.0640 O   0  0  0  0  0  0  0  0  0  0  0  0
   -7.9870   22.6940  -30.1830 O   0  0  0  0  0  0  0  0  0  0  0  0
   -6.9080   23.6180  -32.4170 N   0  0  0  0  0  0  0  0  0  0  0  0
   -5.8510   23.9690  -31.4600 C   0  0  0  0  0  0  0  0  0  0  0  0
   -4.6750   23.0550  -31.6080 C   0  0  0  0  0  0  0  0  0  0  0  0
   -3.6890   22.8450  -30.6620 C   0  0  0  0  0  0  0  0  0  0  0  0
   -2.8320   21.9160  -31.2160 C   0  0  0  0  0  0  0  0  0  0  0  0
   -3.3500   21.6260  -32.4630 C   0  0  0  0  0  0  0  0  0  0  0  0
   -2.7650   20.6700  -33.4460 C   0  0  0  0  0  0  0  0  0  0  0  0
   -4.4420   22.3240  -32.6740 O   0  0  0  0  0  0  0  0  0  0  0  0
   -8.6730   19.9260  -31.5700 C   0  0  0  0  0  0  0  0  0  0  0  0
   -8.4580   18.5820  -31.8830 C   0  0  0  0  0  0  0  0  0  0  0  0
   -7.4570   18.2270  -32.7940 C   0  0  0  0  0  0  0  0  0  0  0  0
   -7.2260   16.9170  -33.0790 N   0  0  0  0  0  0  0  0  0  0  0  0
   -5.9378   14.5430  -33.2511 H   0  0  0  0  0  0  0  0  0  0  0  0
   -6.8672   14.6676  -34.7832 H   0  0  0  0  0  0  0  0  0  0  0  0
   -5.0933   14.9506  -34.7832 H   0  0  0  0  0  0  0  0  0  0  0  0
   -4.6546   17.1930  -35.2670 H   0  0  0  0  0  0  0  0  0  0  0  0
   -5.0452   19.6158  -34.7870 H   0  0  0  0  0  0  0  0  0  0  0  0
   -6.2940   21.3621  -33.5710 H   0  0  0  0  0  0  0  0  0  0  0  0
   -6.4710   23.0500  -33.1780 H   0  0  0  0  0  0  0  0  0  0  0  0
   -5.5282   25.0045  -31.6430 H   0  0  0  0  0  0  0  0  0  0  0  0
   -6.2506   23.8670  -30.4402 H   0  0  0  0  0  0  0  0  0  0  0  0
   -3.6050   23.3197  -29.6733 H   0  0  0  0  0  0  0  0  0  0  0  0
   -1.9246   21.4940  -30.7592 H   0  0  0  0  0  0  0  0  0  0  0  0
   -2.2642   19.8516  -32.9081 H   0  0  0  0  0  0  0  0  0  0  0  0
   -3.5657   20.2577  -34.0776 H   0  0  0  0  0  0  0  0  0  0  0  0
   -2.0335   21.1953  -34.0776 H   0  0  0  0  0  0  0  0  0  0  0  0
   -9.4596   20.2005  -30.8518 H   0  0  0  0  0  0  0  0  0  0  0  0
   -9.0757   17.8024  -31.4133 H   0  0  0  0  0  0  0  0  0  0  0  0
  1  2  1  0
  2  3  2  0
  3  4  1  0
  4  5  2  0
  5  6  1  0
  6  7  2  0
  7  8  1  0
  8  9  2  0
  8 10  2  0
  8 11  1  0
 11 12  1  0
 12 13  1  0
 13 14  2  0
 14 15  1  0
 15 16  2  0
 16 17  1  0
 16 18  1  0
  7 19  1  0
 19 20  2  0
 20 21  1  0
 21 22  2  0
 22  2  1  0
 21  5  1  0
 18 13  1  0
  1 23  1  0
  1 24  1  0
  1 25  1  0
  3 26  1  0
  4 27  1  0
  6 28  1  0
 11 29  1  0
 12 30  1  0
 12 31  1  0
 14 32  1  0
 15 33  1  0
 17 34  1  0
 17 35  1  0
 17 36  1  0
 19 37  1  0
 20 38  1  0
M  END
>  <UniqueID>  (20) 
19

>  <SMILES>  (20) 
Cc1ccc2cc(S(=O)(=O)NCc3ccc(C)o3)ccc2n1

>  <Energy>  (20) 
59.40762985953285

>  <Genealogy>  (20) 
Cc1ccc2cc(S(=O)(=O)NCc3ccc(C)o3)ccc2n1 (3D coordinates assigned)
Cc1ccc2cc(S(=O)(=O)NCc3ccc(C)o3)ccc2n1 (optimized conformer: 59.40762985953285 kcal/mol)

>  <smiles>  (20) 
Cc1ccc2cc(S(=O)(=O)NCc3ccc(C)o3)ccc2n1

>  <score_type>  (20) 
oracle

>  <origin>  (20) 
adgpu

>  <m_score__min__energy>  (20) 
-8.8100000000000005

>  <m_primary>  (20) 
energy

$$$$
20:0
     RDKit          3D

 61 64  0  0  0  0  0  0  0  0999 V2000
    1.3880   19.8334  -33.2436 H   0  0  0  0  0  0  0  0  0  0  0  0
    0.5420   20.0950  -32.5910 C   0  0  0  0  0  0  0  0  0  0  0  0
   -0.6610   20.5470  -33.1530 C   0  0  0  0  0  0  0  0  0  0  0  0
   -0.7516   20.6491  -34.2445 H   0  0  0  0  0  0  0  0  0  0  0  0
   -1.7480   20.8690  -32.3290 C   0  0  0  0  0  0  0  0  0  0  0  0
   -3.0560   21.3070  -32.9300 C   0  0  0  0  0  0  0  0  0  0  0  0
   -3.7676   21.5453  -32.1257 H   0  0  0  0  0  0  0  0  0  0  0  0
   -2.8932   22.1996  -33.5518 H   0  0  0  0  0  0  0  0  0  0  0  0
   -3.4635   20.4963  -33.5518 H   0  0  0  0  0  0  0  0  0  0  0  0
   -1.6240   20.7210  -30.9370 C   0  0  0  0  0  0  0  0  0  0  0  0
   -2.4838   20.9390  -30.2865 H   0  0  0  0  0  0  0  0  0  0  0  0
   -0.4140   20.2980  -30.3710 C   0  0  0  0  0  0  0  0  0  0  0  0
   -0.2610   20.1700  -28.5870 S   0  0  0  0  0  0  0  0  0  0  0  0
   -0.9960   21.7970  -28.3240 C   0  0  0  0  0  0  0  0  0  0  0  0
   -2.3540   21.8790  -28.0140 C   0  0  0  0  0  0  0  0  0  0  0  0
   -3.0670   20.6670  -27.4640 C   0  0  0  0  0  0  0  0  0  0  0  0
   -3.0486   20.6983  -26.3646 H   0  0  0  0  0  0  0  0  0  0  0  0
   -4.1100   20.6653  -27.8134 H   0  0  0  0  0  0  0  0  0  0  0  0
   -2.5618   19.7545  -27.8134 H   0  0  0  0  0  0  0  0  0  0  0  0
   -3.1540   22.9260  -28.4490 C   0  0  0  0  0  0  0  0  0  0  0  0
   -4.2399   22.7560  -28.4061 H   0  0  0  0  0  0  0  0  0  0  0  0
   -2.7440   24.1730  -28.9360 C   0  0  0  0  0  0  0  0  0  0  0  0
   -3.5860   24.8920  -29.6350 N   0  0  0  0  0  0  0  0  0  0  0  0
   -4.8070   24.4550  -30.2570 C   0  0  0  0  0  0  0  0  0  0  0  0
   -6.0490   24.9840  -29.8650 C   0  0  0  0  0  0  0  0  0  0  0  0
   -6.0902   25.7681  -29.0946 H   0  0  0  0  0  0  0  0  0  0  0  0
   -7.2330   24.5200  -30.4480 C   0  0  0  0  0  0  0  0  0  0  0  0
   -8.1981   24.9582  -30.1538 H   0  0  0  0  0  0  0  0  0  0  0  0
   -7.1920   23.4960  -31.4080 C   0  0  0  0  0  0  0  0  0  0  0  0
   -8.4290   23.0000  -32.0440 C   0  0  0  0  0  0  0  0  0  0  0  0
   -9.1330   23.8000  -32.7150 O   0  0  0  0  0  0  0  0  0  0  0  0
   -8.8350   21.6310  -31.9640 N   0  0  0  0  0  0  0  0  0  0  0  0
   -8.0250   20.4940  -32.3740 C   0  0  0  0  0  0  0  0  0  0  0  0
   -7.6513   19.9695  -31.4823 H   0  0  0  0  0  0  0  0  0  0  0  0
   -8.6372   19.8054  -32.9749 H   0  0  0  0  0  0  0  0  0  0  0  0
   -7.1742   20.8476  -32.9749 H   0  0  0  0  0  0  0  0  0  0  0  0
   -5.9500   22.9620  -31.7920 C   0  0  0  0  0  0  0  0  0  0  0  0
   -5.9066   22.1749  -32.5592 H   0  0  0  0  0  0  0  0  0  0  0  0
   -4.7690   23.4260  -31.2040 C   0  0  0  0  0  0  0  0  0  0  0  0
   -3.8047   22.9793  -31.4878 H   0  0  0  0  0  0  0  0  0  0  0  0
   -1.5640   24.8190  -28.5110 C   0  0  0  0  0  0  0  0  0  0  0  0
   -1.5930   26.0840  -28.5430 O   0  0  0  0  0  0  0  0  0  0  0  0
   -0.4030   24.1920  -28.0960 N   0  0  0  0  0  0  0  0  0  0  0  0
    0.6820   25.0360  -27.4850 C   0  0  2  0  0  0  0  0  0  0  0  0
    0.5478   26.0073  -27.9836 H   0  0  0  0  0  0  0  0  0  0  0  0
    2.1100   24.5530  -27.8030 C   0  0  0  0  0  0  0  0  0  0  0  0
    2.6526   24.3695  -26.8639 H   0  0  0  0  0  0  0  0  0  0  0  0
    2.0607   23.6215  -28.3861 H   0  0  0  0  0  0  0  0  0  0  0  0
    2.6362   25.3231  -28.3861 H   0  0  0  0  0  0  0  0  0  0  0  0
    0.5170   25.2760  -25.9580 C   0  0  0  0  0  0  0  0  0  0  0  0
    1.5415   25.6674  -25.8727 H   0  0  0  0  0  0  0  0  0  0  0  0
   -0.3310   24.3010  -25.1560 C   0  0  0  0  0  0  0  0  0  0  0  0
   -0.7918   23.4351  -25.6539 H   0  0  0  0  0  0  0  0  0  0  0  0
   -0.1730   23.6971  -24.2503 H   0  0  0  0  0  0  0  0  0  0  0  0
   -0.8510   25.7040  -25.4350 C   0  0  0  0  0  0  0  0  0  0  0  0
   -1.6862   25.8523  -26.1353 H   0  0  0  0  0  0  0  0  0  0  0  0
   -1.2233   26.5338  -24.8162 H   0  0  0  0  0  0  0  0  0  0  0  0
   -0.1140   22.8770  -28.3560 C   0  0  0  0  0  0  0  0  0  0  0  0
    0.9294   22.6485  -28.6190 H   0  0  0  0  0  0  0  0  0  0  0  0
    0.6690   19.9760  -31.2040 C   0  0  0  0  0  0  0  0  0  0  0  0
    1.8710   19.5330  -30.6610 O   0  0  0  0  0  0  0  0  0  0  0  0
  1  2  1  0
  2  3  2  0
  3  4  1  0
  3  5  1  0
  5  6  1  0
  6  7  1  0
  6  8  1  0
  6  9  1  0
  5 10  2  0
 10 11  1  0
 10 12  1  0
 12 13  1  0
 13 14  1  0
 14 15  1  0
 15 16  1  0
 16 17  1  0
 16 18  1  0
 16 19  1  0
 15 20  2  0
 20 21  1  0
 20 22  1  0
 22 23  2  0
 23 24  1  0
 24 25  2  0
 25 26  1  0
 25 27  1  0
 27 28  1  0
 27 29  2  0
 29 30  1  0
 30 31  2  0
 30 32  1  0
 32 33  1  0
 33 34  1  0
 33 35  1  0
 33 36  1  0
 29 37  1  0
 37 38  1  0
 37 39  2  0
 39 40  1  0
 22 41  1  0
 41 42  2  0
 41 43  1  0
 43 44  1  0
 44 45  1  6
 44 46  1  0
 46 47  1  0
 46 48  1  0
 46 49  1  0
 44 50  1  0
 50 51  1  0
 50 52  1  0
 52 53  1  0
 52 54  1  0
 52 55  1  0
 55 56  1  0
 55 57  1  0
 43 58  1  0
 58 59  1  0
 12 60  2  0
 60 61  1  0
 60  2  1  0
 58 14  2  0
 39 24  1  0
 55 50  1  0
M  CHG  2  32  -1  61  -1
M  END
>  <UniqueID>  (21) 
20

>  <SMILES>  (21) 
C[N-]C(=O)c1ccc(/N=c2\cc(C)c(Sc3cc(C)ccc3[O-])cn([C@H](C)C3CC3)c2=O)cc1

>  <Energy>  (21) 
382.3153716324046

>  <Genealogy>  (21) 
C[N-]C(=O)c1ccc(N=c2cc(C)c(Sc3cc(C)ccc3[O-])cn(C(C)C3CC3)c2=O)cc1 (protonated)
C[N-]C(=O)c1ccc(N=c2cc(C)c(Sc3cc(C)ccc3[O-])cn([C@H](C)C3CC3)c2=O)cc1 (chirality)
C[N-]C(=O)c1ccc(/N=c2\cc(C)c(Sc3cc(C)ccc3[O-])cn([C@H](C)C3CC3)c2=O)cc1 (cis-trans isomerization)
C[N-]C(=O)c1ccc(/N=c2\cc(C)c(Sc3cc(C)ccc3[O-])cn([C@H](C)C3CC3)c2=O)cc1 (3D coordinates assigned)
C[N-]C(=O)c1ccc(/N=c2\cc(C)c(Sc3cc(C)ccc3[O-])cn([C@H](C)C3CC3)c2=O)cc1 (nonaromatic ring conformer: 382.3153716324046 kcal/mol)

>  <smiles>  (21) 
CNC(=O)c1ccc(N=c2cc(C)c(Sc3cc(C)ccc3O)cn(C(C)C3CC3)c2=O)cc1

>  <score_type>  (21) 
oracle

>  <origin>  (21) 
adgpu

>  <m_score__min__energy>  (21) 
-12.91

>  <m_primary>  (21) 
energy

$$$$
21:0
     RDKit          3D

 47 50  0  0  0  0  0  0  0  0999 V2000
   -2.0300   21.2150  -31.3490 O   0  0  0  0  0  0  0  0  0  0  0  0
   -2.4600   21.4030  -30.1780 C   0  0  0  0  0  0  0  0  0  0  0  0
   -3.4440   22.4880  -29.9380 C   0  0  0  0  0  0  0  0  0  0  0  0
   -3.1510   23.4740  -28.9710 C   0  0  0  0  0  0  0  0  0  0  0  0
   -1.9360   23.4210  -28.2200 N   0  0  0  0  0  0  0  0  0  0  0  0
   -0.8200   24.7440  -28.2270 S   0  0  0  0  0  0  0  0  0  0  0  0
   -1.2380   25.7430  -29.2710 O   0  0  0  0  0  0  0  0  0  0  0  0
    0.5510   24.2370  -28.5700 O   0  0  0  0  0  0  0  0  0  0  0  0
   -0.7870   25.5110  -26.6320 C   0  0  0  0  0  0  0  0  0  0  0  0
   -0.8030   26.9140  -26.5160 C   0  0  0  0  0  0  0  0  0  0  0  0
   -0.8150   27.7050  -27.6180 F   0  0  0  0  0  0  0  0  0  0  0  0
   -0.8230   27.5140  -25.2520 C   0  0  0  0  0  0  0  0  0  0  0  0
   -0.8320   26.7240  -24.0990 C   0  0  0  0  0  0  0  0  0  0  0  0
   -0.8270   25.3320  -24.2060 C   0  0  0  0  0  0  0  0  0  0  0  0
   -0.8090   24.7240  -25.4660 C   0  0  0  0  0  0  0  0  0  0  0  0
   -0.8340   23.3690  -25.5420 F   0  0  0  0  0  0  0  0  0  0  0  0
   -4.0260   24.5430  -28.7630 C   0  0  0  0  0  0  0  0  0  0  0  0
   -5.1950   24.6550  -29.5090 C   0  0  0  0  0  0  0  0  0  0  0  0
   -5.5180   23.6860  -30.4690 C   0  0  0  0  0  0  0  0  0  0  0  0
   -6.7080   23.8030  -31.2060 C   0  0  0  0  0  0  0  0  0  0  0  0
   -7.0500   22.8310  -32.1460 C   0  0  0  0  0  0  0  0  0  0  0  0
   -6.2160   21.7340  -32.3530 C   0  0  0  0  0  0  0  0  0  0  0  0
   -5.0270   21.6030  -31.6300 C   0  0  0  0  0  0  0  0  0  0  0  0
   -4.6480   22.5850  -30.6880 C   0  0  0  0  0  0  0  0  0  0  0  0
   -1.9410   20.6120  -29.0900 N   0  0  0  0  0  0  0  0  0  0  0  0
   -0.6660   19.9070  -29.2450 C   0  0  0  0  0  0  0  0  0  0  0  0
    0.0020   19.7430  -27.8770 C   0  0  0  0  0  0  0  0  0  0  0  0
   -0.8870   19.1470  -26.9500 O   0  0  0  0  0  0  0  0  0  0  0  0
   -1.9810   20.0140  -26.7120 C   0  0  0  0  0  0  0  0  0  0  0  0
   -2.8140   20.2010  -27.9840 C   0  0  0  0  0  0  0  0  0  0  0  0
   -0.8317   28.6106  -25.1655 H   0  0  0  0  0  0  0  0  0  0  0  0
   -0.8430   27.1992  -23.1070 H   0  0  0  0  0  0  0  0  0  0  0  0
   -0.8372   24.7118  -23.2976 H   0  0  0  0  0  0  0  0  0  0  0  0
   -3.7888   25.3023  -28.0033 H   0  0  0  0  0  0  0  0  0  0  0  0
   -5.8693   25.5084  -29.3446 H   0  0  0  0  0  0  0  0  0  0  0  0
   -7.3724   24.6641  -31.0413 H   0  0  0  0  0  0  0  0  0  0  0  0
   -7.9799   22.9306  -32.7251 H   0  0  0  0  0  0  0  0  0  0  0  0
   -6.4951   20.9665  -33.0899 H   0  0  0  0  0  0  0  0  0  0  0  0
   -4.3812   20.7281  -31.7959 H   0  0  0  0  0  0  0  0  0  0  0  0
   -0.8476   18.9152  -29.6846 H   0  0  0  0  0  0  0  0  0  0  0  0
   -0.0060   20.4883  -29.9056 H   0  0  0  0  0  0  0  0  0  0  0  0
    0.8916   19.1050  -27.9845 H   0  0  0  0  0  0  0  0  0  0  0  0
    0.2862   20.7375  -27.5026 H   0  0  0  0  0  0  0  0  0  0  0  0
   -2.6172   19.5840  -25.9243 H   0  0  0  0  0  0  0  0  0  0  0  0
   -1.5923   20.9940  -26.3980 H   0  0  0  0  0  0  0  0  0  0  0  0
   -3.3076   19.2521  -28.2408 H   0  0  0  0  0  0  0  0  0  0  0  0
   -3.5739   20.9773  -27.8114 H   0  0  0  0  0  0  0  0  0  0  0  0
  1  2  2  0
  2  3  1  0
  3  4  1  0
  4  5  1  0
  5  6  1  0
  6  7  2  0
  6  8  2  0
  6  9  1  0
  9 10  2  0
 10 11  1  0
 10 12  1  0
 12 13  2  0
 13 14  1  0
 14 15  2  0
 15 16  1  0
  4 17  2  0
 17 18  1  0
 18 19  2  0
 19 20  1  0
 20 21  2  0
 21 22  1  0
 22 23  2  0
 23 24  1  0
  2 25  1  0
 25 26  1  0
 26 27  1  0
 27 28  1  0
 28 29  1  0
 29 30  1  0
 24  3  2  0
 30 25  1  0
 15  9  1  0
 24 19  1  0
 12 31  1  0
 13 32  1  0
 14 33  1  0
 17 34  1  0
 18 35  1  0
 20 36  1  0
 21 37  1  0
 22 38  1  0
 23 39  1  0
 26 40  1  0
 26 41  1  0
 27 42  1  0
 27 43  1  0
 29 44  1  0
 29 45  1  0
 30 46  1  0
 30 47  1  0
M  CHG  1   5  -1
M  END
>  <UniqueID>  (22) 
21

>  <SMILES>  (22) 
O=C(c1c([N-]S(=O)(=O)c2c(F)cccc2F)ccc2ccccc12)N1CCOCC1

>  <Energy>  (22) 
72.99076065846769

>  <Genealogy>  (22) 
O=C(c1c([N-]S(=O)(=O)c2c(F)cccc2F)ccc2ccccc12)N1CCOCC1 (protonated)
O=C(c1c([N-]S(=O)(=O)c2c(F)cccc2F)ccc2ccccc12)N1CCOCC1 (3D coordinates assigned)
O=C(c1c([N-]S(=O)(=O)c2c(F)cccc2F)ccc2ccccc12)N1CCOCC1 (nonaromatic ring conformer: 72.99076065846769 kcal/mol)

>  <smiles>  (22) 
O=C(c1c(NS(=O)(=O)c2c(F)cccc2F)ccc2ccccc12)N1CCOCC1

>  <score_type>  (22) 
oracle

>  <origin>  (22) 
adgpu

>  <m_score__min__energy>  (22) 
-10.289999999999999

>  <m_primary>  (22) 
energy

$$$$
22:0
     RDKit          3D

 47 50  0  0  0  0  0  0  0  0999 V2000
   -3.0730   19.5070  -33.7520 C   0  0  0  0  0  0  0  0  0  0  0  0
   -3.7910   20.5780  -32.9960 C   0  0  0  0  0  0  0  0  0  0  0  0
   -3.0730   21.5820  -32.3330 C   0  0  0  0  0  0  0  0  0  0  0  0
   -3.7600   22.5900  -31.6560 C   0  0  0  0  0  0  0  0  0  0  0  0
   -5.1710   22.6100  -31.6460 C   0  0  0  0  0  0  0  0  0  0  0  0
   -5.9240   23.6140  -30.9750 C   0  0  0  0  0  0  0  0  0  0  0  0
   -5.1500   24.9220  -30.0610 S   0  0  0  0  0  0  0  0  0  0  0  0
   -4.0810   25.5490  -30.9160 O   0  0  0  0  0  0  0  0  0  0  0  0
   -6.1510   25.9850  -29.6900 O   0  0  0  0  0  0  0  0  0  0  0  0
   -4.4810   24.2440  -28.6080 N   0  0  0  0  0  0  0  0  0  0  0  0
   -3.2360   23.5370  -28.5290 C   0  0  0  0  0  0  0  0  0  0  0  0
   -3.1820   22.1740  -28.1990 C   0  0  0  0  0  0  0  0  0  0  0  0
   -1.9460   21.5090  -28.1030 C   0  0  0  0  0  0  0  0  0  0  0  0
   -0.7500   22.2250  -28.3180 C   0  0  0  0  0  0  0  0  0  0  0  0
   -0.8120   23.5740  -28.6940 C   0  0  0  0  0  0  0  0  0  0  0  0
   -2.0480   24.2280  -28.8030 C   0  0  0  0  0  0  0  0  0  0  0  0
   -2.1020   25.5740  -29.1620 O   0  0  0  0  0  0  0  0  0  0  0  0
    0.5910   21.5380  -28.2410 C   0  0  0  0  0  0  0  0  0  0  0  0
    0.5020   20.2030  -27.4970 C   0  0  0  0  0  0  0  0  0  0  0  0
   -0.6270   19.4180  -28.0250 N   0  0  0  0  0  0  0  0  0  0  0  0
   -0.5860   18.0490  -27.4900 C   0  0  0  0  0  0  0  0  0  0  0  0
   -1.9100   20.0620  -27.6710 C   0  0  0  0  0  0  0  0  0  0  0  0
   -7.3280   23.5560  -31.0130 C   0  0  0  0  0  0  0  0  0  0  0  0
   -7.9840   22.5320  -31.7040 C   0  0  0  0  0  0  0  0  0  0  0  0
   -7.2520   21.5460  -32.3660 C   0  0  0  0  0  0  0  0  0  0  0  0
   -5.8530   21.5770  -32.3410 C   0  0  0  0  0  0  0  0  0  0  0  0
   -5.1510   20.6060  -32.9880 N   0  0  0  0  0  0  0  0  0  0  0  0
   -2.6048   18.8086  -33.0428 H   0  0  0  0  0  0  0  0  0  0  0  0
   -3.7889   18.9620  -34.3848 H   0  0  0  0  0  0  0  0  0  0  0  0
   -2.2969   19.9622  -34.3848 H   0  0  0  0  0  0  0  0  0  0  0  0
   -1.9731   21.5755  -32.3462 H   0  0  0  0  0  0  0  0  0  0  0  0
   -3.1984   23.3739  -31.1268 H   0  0  0  0  0  0  0  0  0  0  0  0
   -4.1145   21.6207  -28.0137 H   0  0  0  0  0  0  0  0  0  0  0  0
    0.1167   24.1244  -28.9054 H   0  0  0  0  0  0  0  0  0  0  0  0
   -2.9830   26.0400  -29.3450 H   0  0  0  0  0  0  0  0  0  0  0  0
    0.9559   21.3533  -29.2621 H   0  0  0  0  0  0  0  0  0  0  0  0
    1.2804   22.1931  -27.6882 H   0  0  0  0  0  0  0  0  0  0  0  0
    1.4370   19.6413  -27.6396 H   0  0  0  0  0  0  0  0  0  0  0  0
    0.3461   20.3919  -26.4246 H   0  0  0  0  0  0  0  0  0  0  0  0
   -0.5871   18.0848  -26.3906 H   0  0  0  0  0  0  0  0  0  0  0  0
   -1.4679   17.4921  -27.8396 H   0  0  0  0  0  0  0  0  0  0  0  0
    0.3276   17.5459  -27.8396 H   0  0  0  0  0  0  0  0  0  0  0  0
   -2.7293   19.5212  -28.1672 H   0  0  0  0  0  0  0  0  0  0  0  0
   -2.0210   20.0276  -26.5772 H   0  0  0  0  0  0  0  0  0  0  0  0
   -7.9179   24.3252  -30.4930 H   0  0  0  0  0  0  0  0  0  0  0  0
   -9.0834   22.5040  -31.7256 H   0  0  0  0  0  0  0  0  0  0  0  0
   -7.7746   20.7439  -32.9078 H   0  0  0  0  0  0  0  0  0  0  0  0
  1  2  1  0
  2  3  2  0
  3  4  1  0
  4  5  2  0
  5  6  1  0
  6  7  1  0
  7  8  2  0
  7  9  2  0
  7 10  1  0
 10 11  1  0
 11 12  2  0
 12 13  1  0
 13 14  2  0
 14 15  1  0
 15 16  2  0
 16 17  1  0
 14 18  1  0
 18 19  1  0
 19 20  1  0
 20 21  1  0
 20 22  1  0
  6 23  2  0
 23 24  1  0
 24 25  2  0
 25 26  1  0
 26 27  2  0
 27  2  1  0
 26  5  1  0
 16 11  1  0
 22 13  1  0
  1 28  1  0
  1 29  1  0
  1 30  1  0
  3 31  1  0
  4 32  1  0
 12 33  1  0
 15 34  1  0
 17 35  1  0
 18 36  1  0
 18 37  1  0
 19 38  1  0
 19 39  1  0
 21 40  1  0
 21 41  1  0
 21 42  1  0
 22 43  1  0
 22 44  1  0
 23 45  1  0
 24 46  1  0
 25 47  1  0
M  CHG  1  10  -1
M  END
>  <UniqueID>  (23) 
22

>  <SMILES>  (23) 
Cc1ccc2c(S(=O)(=O)[N-]c3cc4c(cc3O)CCN(C)C4)cccc2n1

>  <Energy>  (23) 
63.660552732426964

>  <Genealogy>  (23) 
Cc1ccc2c(S(=O)(=O)[N-]c3cc4c(cc3O)CCN(C)C4)cccc2n1 (protonated)
Cc1ccc2c(S(=O)(=O)[N-]c3cc4c(cc3O)CCN(C)C4)cccc2n1 (3D coordinates assigned)
Cc1ccc2c(S(=O)(=O)[N-]c3cc4c(cc3O)CCN(C)C4)cccc2n1 (nonaromatic ring conformer: 63.660552732426964 kcal/mol)

>  <smiles>  (23) 
Cc1ccc2c(S(=O)(=O)Nc3cc4c(cc3O)CCN(C)C4)cccc2n1

>  <score_type>  (23) 
oracle

>  <origin>  (23) 
adgpu

>  <m_score__min__energy>  (23) 
-12.039999999999999

>  <m_primary>  (23) 
energy

$$$$
23:0
     RDKit          3D

 61 65  0  0  0  0  0  0  0  0999 V2000
   -1.3340   19.9880  -28.0980 O   0  0  0  0  0  0  0  0  0  0  0  0
   -1.0560   20.9170  -28.9040 C   0  0  0  0  0  0  0  0  0  0  0  0
   -0.2790   20.6300  -30.0730 N   0  0  0  0  0  0  0  0  0  0  0  0
   -0.8380   20.4780  -31.3950 C   0  0  0  0  0  0  0  0  0  0  0  0
   -0.5970   21.4720  -32.3530 C   0  0  0  0  0  0  0  0  0  0  0  0
   -1.0590   21.3050  -33.6620 C   0  0  0  0  0  0  0  0  0  0  0  0
   -1.7840   20.1570  -34.0050 C   0  0  0  0  0  0  0  0  0  0  0  0
   -2.0540   19.1770  -33.0450 C   0  0  0  0  0  0  0  0  0  0  0  0
   -3.1040   17.8090  -33.4240 S   0  0  0  0  0  0  0  0  0  0  0  0
   -2.5980   16.5810  -32.7190 O   0  0  0  0  0  0  0  0  0  0  0  0
   -3.0570   17.5550  -34.9060 O   0  0  0  0  0  0  0  0  0  0  0  0
   -4.7980   18.0980  -32.9860 N   0  0  0  0  0  0  0  0  0  0  0  0
   -5.4200   16.8760  -32.4570 C   0  0  0  0  0  0  0  0  0  0  0  0
   -6.1290   16.1610  -33.5930 C   0  0  0  0  0  0  0  0  0  0  0  0
   -6.4370   17.2470  -34.5930 C   0  0  0  0  0  0  0  0  0  0  0  0
   -5.5800   18.4390  -34.1890 C   0  0  0  0  0  0  0  0  0  0  0  0
   -1.5950   19.3370  -31.7410 C   0  0  0  0  0  0  0  0  0  0  0  0
   -1.5610   22.2920  -28.6390 C   0  0  0  0  0  0  0  0  0  0  0  0
   -1.7900   22.6850  -27.3140 C   0  0  0  0  0  0  0  0  0  0  0  0
   -2.3040   23.9460  -27.0270 C   0  0  0  0  0  0  0  0  0  0  0  0
   -2.6800   24.7850  -28.0730 C   0  0  0  0  0  0  0  0  0  0  0  0
   -2.6100   24.3550  -29.4140 C   0  0  0  0  0  0  0  0  0  0  0  0
   -3.4920   24.9000  -30.4320 N   0  0  0  0  0  0  0  0  0  0  0  0
   -5.2410   24.9390  -30.3540 S   0  0  0  0  0  0  0  0  0  0  0  0
   -5.7380   25.0890  -28.9360 O   0  0  0  0  0  0  0  0  0  0  0  0
   -5.7630   26.0900  -31.1490 O   0  0  0  0  0  0  0  0  0  0  0  0
   -5.9120   23.4150  -30.9550 C   0  0  0  0  0  0  0  0  0  0  0  0
   -5.0510   22.4430  -31.5100 C   0  0  0  0  0  0  0  0  0  0  0  0
   -5.5650   21.2370  -32.0110 C   0  0  0  0  0  0  0  0  0  0  0  0
   -6.9410   21.0140  -31.9360 C   0  0  0  0  0  0  0  0  0  0  0  0
   -7.7870   21.9610  -31.4160 C   0  0  0  0  0  0  0  0  0  0  0  0
   -7.3070   23.1890  -30.9530 C   0  0  0  0  0  0  0  0  0  0  0  0
   -9.2080   21.5440  -31.5080 C   0  0  0  0  0  0  0  0  0  0  0  0
   -9.1580   20.1950  -32.2740 C   0  0  0  0  0  0  0  0  0  0  0  0
   -7.6700   19.8070  -32.4040 C   0  0  0  0  0  0  0  0  0  0  0  0
   -2.0270   23.1060  -29.6910 C   0  0  0  0  0  0  0  0  0  0  0  0
   -0.0452   22.3822  -32.0755 H   0  0  0  0  0  0  0  0  0  0  0  0
   -0.8534   22.0740  -34.4211 H   0  0  0  0  0  0  0  0  0  0  0  0
   -2.1434   20.0254  -35.0363 H   0  0  0  0  0  0  0  0  0  0  0  0
   -4.6456   16.2201  -32.0326 H   0  0  0  0  0  0  0  0  0  0  0  0
   -6.1414   17.1337  -31.6675 H   0  0  0  0  0  0  0  0  0  0  0  0
   -5.4754   15.3967  -34.0388 H   0  0  0  0  0  0  0  0  0  0  0  0
   -7.0348   15.6364  -33.2548 H   0  0  0  0  0  0  0  0  0  0  0  0
   -6.1780   16.9161  -35.6096 H   0  0  0  0  0  0  0  0  0  0  0  0
   -7.5072   17.5011  -34.5975 H   0  0  0  0  0  0  0  0  0  0  0  0
   -4.8952   18.6936  -35.0113 H   0  0  0  0  0  0  0  0  0  0  0  0
   -6.2291   19.3001  -33.9720 H   0  0  0  0  0  0  0  0  0  0  0  0
   -1.8216   18.5754  -30.9804 H   0  0  0  0  0  0  0  0  0  0  0  0
   -1.5613   21.9901  -26.4925 H   0  0  0  0  0  0  0  0  0  0  0  0
   -2.4123   24.2770  -25.9836 H   0  0  0  0  0  0  0  0  0  0  0  0
   -3.0378   25.8008  -27.8491 H   0  0  0  0  0  0  0  0  0  0  0  0
   -3.9682   22.6327  -31.5500 H   0  0  0  0  0  0  0  0  0  0  0  0
   -4.8974   20.4831  -32.4536 H   0  0  0  0  0  0  0  0  0  0  0  0
   -8.0007   23.9637  -30.5944 H   0  0  0  0  0  0  0  0  0  0  0  0
   -9.6407   21.4082  -30.5059 H   0  0  0  0  0  0  0  0  0  0  0  0
   -9.8359   22.2930  -32.0127 H   0  0  0  0  0  0  0  0  0  0  0  0
   -9.7029   19.4213  -31.7132 H   0  0  0  0  0  0  0  0  0  0  0  0
   -9.6284   20.2872  -33.2641 H   0  0  0  0  0  0  0  0  0  0  0  0
   -7.4357   18.9387  -31.7706 H   0  0  0  0  0  0  0  0  0  0  0  0
   -7.3960   19.5183  -33.4295 H   0  0  0  0  0  0  0  0  0  0  0  0
   -1.9343   22.7630  -30.7320 H   0  0  0  0  0  0  0  0  0  0  0  0
  1  2  2  0
  2  3  1  0
  3  4  1  0
  4  5  2  0
  5  6  1  0
  6  7  2  0
  7  8  1  0
  8  9  1  0
  9 10  2  0
  9 11  2  0
  9 12  1  0
 12 13  1  0
 13 14  1  0
 14 15  1  0
 15 16  1  0
  8 17  2  0
  2 18  1  0
 18 19  2  0
 19 20  1  0
 20 21  2  0
 21 22  1  0
 22 23  1  0
 23 24  1  0
 24 25  2  0
 24 26  2  0
 24 27  1  0
 27 28  2  0
 28 29  1  0
 29 30  2  0
 30 31  1  0
 31 32  2  0
 31 33  1  0
 33 34  1  0
 34 35  1  0
 22 36  2  0
 17  4  1  0
 36 18  1  0
 16 12  1  0
 32 27  1  0
 35 30  1  0
  5 37  1  0
  6 38  1  0
  7 39  1  0
 13 40  1  0
 13 41  1  0
 14 42  1  0
 14 43  1  0
 15 44  1  0
 15 45  1  0
 16 46  1  0
 16 47  1  0
 17 48  1  0
 19 49  1  0
 20 50  1  0
 21 51  1  0
 28 52  1  0
 29 53  1  0
 32 54  1  0
 33 55  1  0
 33 56  1  0
 34 57  1  0
 34 58  1  0
 35 59  1  0
 35 60  1  0
 36 61  1  0
M  CHG  2   3  -1  23  -1
M  END
>  <UniqueID>  (24) 
23

>  <SMILES>  (24) 
O=C([N-]c1cccc(S(=O)(=O)N2CCCC2)c1)c1cccc([N-]S(=O)(=O)c2ccc3c(c2)CCC3)c1

>  <Energy>  (24) 
95.70367966756372

>  <Genealogy>  (24) 
O=C([N-]c1cccc(S(=O)(=O)N2CCCC2)c1)c1cccc([N-]S(=O)(=O)c2ccc3c(c2)CCC3)c1 (protonated)
O=C([N-]c1cccc(S(=O)(=O)N2CCCC2)c1)c1cccc([N-]S(=O)(=O)c2ccc3c(c2)CCC3)c1 (3D coordinates assigned)
O=C([N-]c1cccc(S(=O)(=O)N2CCCC2)c1)c1cccc([N-]S(=O)(=O)c2ccc3c(c2)CCC3)c1 (nonaromatic ring conformer: 95.70367966756372 kcal/mol)

>  <smiles>  (24) 
O=C(Nc1cccc(S(=O)(=O)N2CCCC2)c1)c1cccc(NS(=O)(=O)c2ccc3c(c2)CCC3)c1

>  <score_type>  (24) 
oracle

>  <origin>  (24) 
adgpu

>  <m_score__min__energy>  (24) 
-13.18

>  <m_primary>  (24) 
energy

$$$$
24:0
     RDKit          3D

 47 49  0  0  0  0  0  0  0  0999 V2000
    1.4380   20.3670  -32.2680 H   0  0  0  0  0  0  0  0  0  0  0  0
    0.5190   20.5230  -32.7410 N   0  0  0  0  0  0  0  0  0  0  0  0
   -0.4640   21.1290  -32.1520 C   0  0  0  0  0  0  0  0  0  0  0  0
   -1.6710   21.3070  -32.8330 C   0  0  0  0  0  0  0  0  0  0  0  0
   -1.7756   20.9544  -33.8697 H   0  0  0  0  0  0  0  0  0  0  0  0
   -2.7460   21.9340  -32.1950 C   0  0  0  0  0  0  0  0  0  0  0  0
   -3.9570   22.0410  -32.8900 O   0  0  0  0  0  0  0  0  0  0  0  0
   -5.1210   21.2890  -32.6380 C   0  0  0  0  0  0  0  0  0  0  0  0
   -5.0140   19.8790  -32.6420 C   0  0  0  0  0  0  0  0  0  0  0  0
   -3.7010   19.1900  -32.8990 C   0  0  0  0  0  0  0  0  0  0  0  0
   -3.2243   18.9398  -31.9398 H   0  0  0  0  0  0  0  0  0  0  0  0
   -3.8768   18.2680  -33.4725 H   0  0  0  0  0  0  0  0  0  0  0  0
   -3.0422   19.8586  -33.4725 H   0  0  0  0  0  0  0  0  0  0  0  0
   -6.1570   19.0880  -32.4630 C   0  0  0  0  0  0  0  0  0  0  0  0
   -6.0731   17.9919  -32.5011 H   0  0  0  0  0  0  0  0  0  0  0  0
   -7.4000   19.6790  -32.2370 C   0  0  0  0  0  0  0  0  0  0  0  0
   -8.5700   18.8570  -32.0720 C   0  0  0  0  0  0  0  0  0  0  0  0
   -9.5120   18.1970  -31.9420 N   0  0  0  0  0  0  0  0  0  0  0  0
   -7.5080   21.0690  -32.1650 C   0  0  0  0  0  0  0  0  0  0  0  0
   -8.4881   21.5289  -31.9706 H   0  0  0  0  0  0  0  0  0  0  0  0
   -6.3790   21.8870  -32.3380 C   0  0  0  0  0  0  0  0  0  0  0  0
   -6.5440   23.3710  -32.1430 C   0  0  0  0  0  0  0  0  0  0  0  0
   -6.5693   23.5989  -31.0672 H   0  0  0  0  0  0  0  0  0  0  0  0
   -5.6990   23.8983  -32.6097 H   0  0  0  0  0  0  0  0  0  0  0  0
   -7.4842   23.6998  -32.6097 H   0  0  0  0  0  0  0  0  0  0  0  0
   -2.5700   22.4570  -30.8960 C   0  0  0  0  0  0  0  0  0  0  0  0
   -3.7940   23.4600  -30.1060 S   0  0  0  0  0  0  0  0  0  0  0  0
   -4.2690   24.5240  -31.0560 O   0  0  0  0  0  0  0  0  0  0  0  0
   -4.9690   22.5940  -29.7530 O   0  0  0  0  0  0  0  0  0  0  0  0
   -3.1520   24.2420  -28.6660 C   0  0  0  0  0  0  0  0  0  0  0  0
   -3.9080   24.2810  -27.4860 C   0  0  0  0  0  0  0  0  0  0  0  0
   -4.9081   23.8238  -27.4603 H   0  0  0  0  0  0  0  0  0  0  0  0
   -3.3950   24.8990  -26.3420 C   0  0  0  0  0  0  0  0  0  0  0  0
   -3.9971   24.9357  -25.4221 H   0  0  0  0  0  0  0  0  0  0  0  0
   -2.1140   25.4730  -26.3630 C   0  0  0  0  0  0  0  0  0  0  0  0
   -1.5650   26.1430  -25.1390 C   0  0  0  0  0  0  0  0  0  0  0  0
   -1.9673   25.6520  -24.2406 H   0  0  0  0  0  0  0  0  0  0  0  0
   -0.4678   26.0650  -25.1392 H   0  0  0  0  0  0  0  0  0  0  0  0
   -1.8572   27.2035  -25.1392 H   0  0  0  0  0  0  0  0  0  0  0  0
   -1.3750   25.4650  -27.5560 C   0  0  0  0  0  0  0  0  0  0  0  0
   -0.3834   25.9399  -27.5893 H   0  0  0  0  0  0  0  0  0  0  0  0
   -1.8940   24.8560  -28.7020 C   0  0  0  0  0  0  0  0  0  0  0  0
   -1.3122   24.8590  -29.6355 H   0  0  0  0  0  0  0  0  0  0  0  0
   -1.3420   22.2480  -30.2480 C   0  0  0  0  0  0  0  0  0  0  0  0
   -1.1967   22.6193  -29.2228 H   0  0  0  0  0  0  0  0  0  0  0  0
   -0.3310   21.5910  -30.8760 N   0  0  0  0  0  0  0  0  0  0  0  0
    0.5690   21.4580  -30.3610 H   0  0  0  0  0  0  0  0  0  0  0  0
  1  2  1  0
  2  3  2  0
  3  4  1  0
  4  5  1  0
  4  6  2  0
  6  7  1  0
  7  8  1  0
  8  9  2  0
  9 10  1  0
 10 11  1  0
 10 12  1  0
 10 13  1  0
  9 14  1  0
 14 15  1  0
 14 16  2  0
 16 17  1  0
 17 18  3  0
 16 19  1  0
 19 20  1  0
 19 21  2  0
 21 22  1  0
 22 23  1  0
 22 24  1  0
 22 25  1  0
  6 26  1  0
 26 27  1  0
 27 28  2  0
 27 29  2  0
 27 30  1  0
 30 31  2  0
 31 32  1  0
 31 33  1  0
 33 34  1  0
 33 35  2  0
 35 36  1  0
 36 37  1  0
 36 38  1  0
 36 39  1  0
 35 40  1  0
 40 41  1  0
 40 42  2  0
 42 43  1  0
 26 44  2  0
 44 45  1  0
 44 46  1  0
 46 47  1  0
 46  3  1  0
 21  8  1  0
 42 30  1  0
M  END
>  <UniqueID>  (25) 
24

>  <SMILES>  (25) 
[H]/N=c1/cc(Oc2c(C)cc(C#N)cc2C)c(S(=O)(=O)c2ccc(C)cc2)c[nH]1

>  <Energy>  (25) 
57.243806721311344

>  <Genealogy>  (25) 
[H]/N=c1/cc(Oc2c(C)cc(C#N)cc2C)c(S(=O)(=O)c2ccc(C)cc2)c[nH]1 (cis-trans isomerization)
[H]/N=c1/cc(Oc2c(C)cc(C#N)cc2C)c(S(=O)(=O)c2ccc(C)cc2)c[nH]1 (3D coordinates assigned)
[H]/N=c1/cc(Oc2c(C)cc(C#N)cc2C)c(S(=O)(=O)c2ccc(C)cc2)c[nH]1 (optimized conformer: 57.243806721311344 kcal/mol)

>  <smiles>  (25) 
Cc1ccc(S(=O)(=O)c2c[nH]c(=N)cc2Oc2c(C)cc(C#N)cc2C)cc1

>  <score_type>  (25) 
oracle

>  <origin>  (25) 
adgpu

>  <m_score__min__energy>  (25) 
-9.5

>  <m_primary>  (25) 
energy

$$$$
25:0
     RDKit          3D

 51 55  0  0  0  0  0  0  0  0999 V2000
   -3.9170   14.8100  -34.5580 C   0  0  0  0  0  0  0  0  0  0  0  0
   -5.3070   15.1100  -34.5940 O   0  0  0  0  0  0  0  0  0  0  0  0
   -5.8290   16.3230  -34.1380 C   0  0  0  0  0  0  0  0  0  0  0  0
   -5.3970   17.5190  -34.7190 C   0  0  0  0  0  0  0  0  0  0  0  0
   -5.9180   18.7320  -34.2630 C   0  0  0  0  0  0  0  0  0  0  0  0
   -6.8550   18.7470  -33.2220 C   0  0  0  0  0  0  0  0  0  0  0  0
   -7.4100   19.9910  -32.7640 N   0  0  0  0  0  0  0  0  0  0  0  0
   -8.8460   20.2540  -32.6560 C   0  0  0  0  0  0  0  0  0  0  0  0
   -8.9830   21.5730  -31.8540 C   0  0  0  0  0  0  0  0  0  0  0  0
   -7.5710   21.9830  -31.6250 C   0  0  0  0  0  0  0  0  0  0  0  0
   -7.1070   23.1400  -30.9990 C   0  0  0  0  0  0  0  0  0  0  0  0
   -5.7190   23.3560  -30.9220 C   0  0  0  0  0  0  0  0  0  0  0  0
   -5.1040   24.7880  -30.1040 S   0  0  0  0  0  0  0  0  0  0  0  0
   -6.1730   25.8420  -30.1080 O   0  0  0  0  0  0  0  0  0  0  0  0
   -3.8860   25.3200  -30.8070 O   0  0  0  0  0  0  0  0  0  0  0  0
   -4.6870   24.3970  -28.4650 N   0  0  0  0  0  0  0  0  0  0  0  0
   -3.6180   23.4970  -28.1160 C   0  0  0  0  0  0  0  0  0  0  0  0
   -3.8510   22.1140  -27.9810 C   0  0  0  0  0  0  0  0  0  0  0  0
   -2.8130   21.2460  -27.6360 C   0  0  0  0  0  0  0  0  0  0  0  0
   -1.5230   21.7370  -27.4270 C   0  0  0  0  0  0  0  0  0  0  0  0
   -1.2640   23.1060  -27.5640 C   0  0  0  0  0  0  0  0  0  0  0  0
    0.0210   23.6210  -27.3570 C   0  0  0  0  0  0  0  0  0  0  0  0
    0.2520   24.9910  -27.4930 C   0  0  0  0  0  0  0  0  0  0  0  0
   -0.8070   25.8340  -27.8340 C   0  0  0  0  0  0  0  0  0  0  0  0
   -2.0510   25.3230  -28.0330 N   0  0  0  0  0  0  0  0  0  0  0  0
   -2.3130   23.9910  -27.9120 C   0  0  0  0  0  0  0  0  0  0  0  0
   -4.8310   22.4230  -31.4980 C   0  0  0  0  0  0  0  0  0  0  0  0
   -5.3240   21.2700  -32.1290 C   0  0  0  0  0  0  0  0  0  0  0  0
   -6.7080   21.0630  -32.1540 C   0  0  0  0  0  0  0  0  0  0  0  0
   -7.2740   17.5240  -32.6760 C   0  0  0  0  0  0  0  0  0  0  0  0
   -6.7560   16.3550  -33.1400 N   0  0  0  0  0  0  0  0  0  0  0  0
   -3.5844   14.7382  -33.5120 H   0  0  0  0  0  0  0  0  0  0  0  0
   -3.7354   13.8520  -35.0671 H   0  0  0  0  0  0  0  0  0  0  0  0
   -3.3564   15.6078  -35.0671 H   0  0  0  0  0  0  0  0  0  0  0  0
   -4.6527   17.5048  -35.5288 H   0  0  0  0  0  0  0  0  0  0  0  0
   -5.5920   19.6770  -34.7221 H   0  0  0  0  0  0  0  0  0  0  0  0
   -9.2894   20.3677  -33.6562 H   0  0  0  0  0  0  0  0  0  0  0  0
   -9.3697   19.4249  -32.1578 H   0  0  0  0  0  0  0  0  0  0  0  0
   -9.5247   22.3334  -32.4357 H   0  0  0  0  0  0  0  0  0  0  0  0
   -9.5527   21.4520  -30.9208 H   0  0  0  0  0  0  0  0  0  0  0  0
   -7.8125   23.8691  -30.5739 H   0  0  0  0  0  0  0  0  0  0  0  0
   -5.3330   24.7460  -27.7230 H   0  0  0  0  0  0  0  0  0  0  0  0
   -4.8617   21.7137  -28.1492 H   0  0  0  0  0  0  0  0  0  0  0  0
   -3.0128   20.1697  -27.5283 H   0  0  0  0  0  0  0  0  0  0  0  0
   -0.7099   21.0481  -27.1546 H   0  0  0  0  0  0  0  0  0  0  0  0
    0.8476   22.9471  -27.0875 H   0  0  0  0  0  0  0  0  0  0  0  0
    1.2595   25.4025  -27.3329 H   0  0  0  0  0  0  0  0  0  0  0  0
   -0.6345   26.9150  -27.9420 H   0  0  0  0  0  0  0  0  0  0  0  0
   -3.7463   22.6001  -31.4523 H   0  0  0  0  0  0  0  0  0  0  0  0
   -4.6383   20.5458  -32.5931 H   0  0  0  0  0  0  0  0  0  0  0  0
   -8.0232   17.5107  -31.8707 H   0  0  0  0  0  0  0  0  0  0  0  0
  1  2  1  0
  2  3  1  0
  3  4  2  0
  4  5  1  0
  5  6  2  0
  6  7  1  0
  7  8  1  0
  8  9  1  0
  9 10  1  0
 10 11  2  0
 11 12  1  0
 12 13  1  0
 13 14  2  0
 13 15  2  0
 13 16  1  0
 16 17  1  0
 17 18  2  0
 18 19  1  0
 19 20  2  0
 20 21  1  0
 21 22  2  0
 22 23  1  0
 23 24  2  0
 24 25  1  0
 25 26  2  0
 12 27  2  0
 27 28  1  0
 28 29  2  0
  6 30  1  0
 30 31  2  0
 31  3  1  0
 29  7  1  0
 29 10  1  0
 26 17  1  0
 26 21  1  0
  1 32  1  0
  1 33  1  0
  1 34  1  0
  4 35  1  0
  5 36  1  0
  8 37  1  0
  8 38  1  0
  9 39  1  0
  9 40  1  0
 11 41  1  0
 16 42  1  0
 18 43  1  0
 19 44  1  0
 20 45  1  0
 22 46  1  0
 23 47  1  0
 24 48  1  0
 27 49  1  0
 28 50  1  0
 30 51  1  0
M  END
>  <UniqueID>  (26) 
25

>  <SMILES>  (26) 
COc1ccc(N2CCc3cc(S(=O)(=O)Nc4cccc5cccnc45)ccc32)cn1

>  <Energy>  (26) 
81.5418324939757

>  <Genealogy>  (26) 
COc1ccc(N2CCc3cc(S(=O)(=O)Nc4cccc5cccnc45)ccc32)cn1 (3D coordinates assigned)
COc1ccc(N2CCc3cc(S(=O)(=O)Nc4cccc5cccnc45)ccc32)cn1 (nonaromatic ring conformer: 81.5418324939757 kcal/mol)

>  <smiles>  (26) 
COc1ccc(N2CCc3cc(S(=O)(=O)Nc4cccc5cccnc45)ccc32)cn1

>  <score_type>  (26) 
oracle

>  <origin>  (26) 
adgpu

>  <m_score__min__energy>  (26) 
-11.24

>  <m_primary>  (26) 
energy

$$$$
26:0
     RDKit          3D

 42 44  0  0  0  0  0  0  0  0999 V2000
   -2.4260   20.2860  -27.4720 C   0  0  0  0  0  0  0  0  0  0  0  0
   -2.3150   21.7070  -27.9400 C   0  0  0  0  0  0  0  0  0  0  0  0
   -1.0590   22.2600  -28.2270 C   0  0  0  0  0  0  0  0  0  0  0  0
   -0.9610   23.5710  -28.6960 C   0  0  0  0  0  0  0  0  0  0  0  0
   -2.1130   24.3420  -28.8860 C   0  0  0  0  0  0  0  0  0  0  0  0
   -1.9850   25.6500  -29.3410 O   0  0  0  0  0  0  0  0  0  0  0  0
   -3.3820   23.7990  -28.6110 C   0  0  0  0  0  0  0  0  0  0  0  0
   -4.5610   24.6050  -28.7950 N   0  0  0  0  0  0  0  0  0  0  0  0
   -5.3810   24.7620  -30.3180 S   0  0  0  0  0  0  0  0  0  0  0  0
   -6.7330   25.3780  -30.0920 O   0  0  0  0  0  0  0  0  0  0  0  0
   -4.5740   25.6580  -31.2150 O   0  0  0  0  0  0  0  0  0  0  0  0
   -5.5980   23.1770  -31.0580 C   0  0  0  0  0  0  0  0  0  0  0  0
   -4.4970   22.4650  -31.5280 C   0  0  0  0  0  0  0  0  0  0  0  0
   -4.6640   21.1990  -32.0830 C   0  0  0  0  0  0  0  0  0  0  0  0
   -5.9450   20.6040  -32.1780 C   0  0  0  0  0  0  0  0  0  0  0  0
   -7.0750   21.3280  -31.6990 C   0  0  0  0  0  0  0  0  0  0  0  0
   -6.8760   22.6220  -31.1570 C   0  0  0  0  0  0  0  0  0  0  0  0
   -8.3290   20.7610  -31.7660 N   0  0  0  0  0  0  0  0  0  0  0  0
   -9.5120   21.4830  -31.2500 C   0  0  0  0  0  0  0  0  0  0  0  0
   -8.4820   19.5140  -32.3120 C   0  0  0  0  0  0  0  0  0  0  0  0
   -9.6240   18.9800  -32.3940 O   0  0  0  0  0  0  0  0  0  0  0  0
   -7.3750   18.8060  -32.7900 C   0  0  0  0  0  0  0  0  0  0  0  0
   -7.5560   17.6590  -33.2850 O   0  0  0  0  0  0  0  0  0  0  0  0
   -6.1170   19.3470  -32.7180 N   0  0  0  0  0  0  0  0  0  0  0  0
   -4.9610   18.5780  -33.2230 C   0  0  0  0  0  0  0  0  0  0  0  0
   -3.4720   22.4690  -28.1550 C   0  0  0  0  0  0  0  0  0  0  0  0
   -2.4279   20.2612  -26.3723 H   0  0  0  0  0  0  0  0  0  0  0  0
   -3.3611   19.8474  -27.8503 H   0  0  0  0  0  0  0  0  0  0  0  0
   -1.5703   19.7075  -27.8503 H   0  0  0  0  0  0  0  0  0  0  0  0
   -0.1489   21.6594  -28.0823 H   0  0  0  0  0  0  0  0  0  0  0  0
    0.0273   24.0003  -28.9174 H   0  0  0  0  0  0  0  0  0  0  0  0
   -5.0370   25.0180  -27.9620 H   0  0  0  0  0  0  0  0  0  0  0  0
   -3.4910   22.9049  -31.4604 H   0  0  0  0  0  0  0  0  0  0  0  0
   -3.7851   20.6515  -32.4542 H   0  0  0  0  0  0  0  0  0  0  0  0
   -7.7441   23.2002  -30.8077 H   0  0  0  0  0  0  0  0  0  0  0  0
   -9.4964   21.4735  -30.1502 H   0  0  0  0  0  0  0  0  0  0  0  0
   -9.4919   22.5229  -31.6080 H   0  0  0  0  0  0  0  0  0  0  0  0
  -10.4276   20.9896  -31.6080 H   0  0  0  0  0  0  0  0  0  0  0  0
   -4.3789   18.1908  -32.3737 H   0  0  0  0  0  0  0  0  0  0  0  0
   -5.3191   17.7375  -33.8356 H   0  0  0  0  0  0  0  0  0  0  0  0
   -4.3242   19.2331  -33.8356 H   0  0  0  0  0  0  0  0  0  0  0  0
   -4.4600   22.0240  -27.9658 H   0  0  0  0  0  0  0  0  0  0  0  0
  1  2  1  0
  2  3  2  0
  3  4  1  0
  4  5  2  0
  5  6  1  0
  5  7  1  0
  7  8  1  0
  8  9  1  0
  9 10  2  0
  9 11  2  0
  9 12  1  0
 12 13  2  0
 13 14  1  0
 14 15  2  0
 15 16  1  0
 16 17  2  0
 16 18  1  0
 18 19  1  0
 18 20  1  0
 20 21  2  0
 20 22  1  0
 22 23  2  0
 22 24  1  0
 24 25  1  0
  7 26  2  0
 26  2  1  0
 17 12  1  0
 24 15  1  0
  1 27  1  0
  1 28  1  0
  1 29  1  0
  3 30  1  0
  4 31  1  0
  8 32  1  0
 13 33  1  0
 14 34  1  0
 17 35  1  0
 19 36  1  0
 19 37  1  0
 19 38  1  0
 25 39  1  0
 25 40  1  0
 25 41  1  0
 26 42  1  0
M  CHG  1   6  -1
M  END
>  <UniqueID>  (27) 
26

>  <SMILES>  (27) 
Cc1ccc([O-])c(NS(=O)(=O)c2ccc3c(c2)n(C)c(=O)c(=O)n3C)c1

>  <Energy>  (27) 
63.638587143375915

>  <Genealogy>  (27) 
Cc1ccc([O-])c(NS(=O)(=O)c2ccc3c(c2)n(C)c(=O)c(=O)n3C)c1 (protonated)
Cc1ccc([O-])c(NS(=O)(=O)c2ccc3c(c2)n(C)c(=O)c(=O)n3C)c1 (3D coordinates assigned)
Cc1ccc([O-])c(NS(=O)(=O)c2ccc3c(c2)n(C)c(=O)c(=O)n3C)c1 (optimized conformer: 63.638587143375915 kcal/mol)

>  <smiles>  (27) 
Cc1ccc(O)c(NS(=O)(=O)c2ccc3c(c2)n(C)c(=O)c(=O)n3C)c1

>  <score_type>  (27) 
oracle

>  <origin>  (27) 
adgpu

>  <m_score__min__energy>  (27) 
-13.25

>  <m_primary>  (27) 
energy

$$$$
27:0
     RDKit          3D

 51 54  0  0  0  0  0  0  0  0999 V2000
   -6.8220   25.8560  -29.7530 O   0  0  0  0  0  0  0  0  0  0  0  0
   -5.6280   25.0050  -30.0750 S   0  0  0  0  0  0  0  0  0  0  0  0
   -4.8460   25.6570  -31.1810 O   0  0  0  0  0  0  0  0  0  0  0  0
   -4.6200   24.8660  -28.6680 N   0  0  0  0  0  0  0  0  0  0  0  0
   -3.5220   23.9400  -28.5790 C   0  0  0  0  0  0  0  0  0  0  0  0
   -3.7260   22.6080  -28.1750 C   0  0  0  0  0  0  0  0  0  0  0  0
   -2.6490   21.7170  -28.0630 C   0  0  0  0  0  0  0  0  0  0  0  0
   -1.3440   22.1620  -28.3490 C   0  0  0  0  0  0  0  0  0  0  0  0
   -1.1440   23.4770  -28.7900 C   0  0  0  0  0  0  0  0  0  0  0  0
   -2.2200   24.3620  -28.9010 C   0  0  0  0  0  0  0  0  0  0  0  0
   -1.9840   25.6670  -29.3200 O   0  0  0  0  0  0  0  0  0  0  0  0
   -0.1750   21.2070  -28.2940 C   0  0  0  0  0  0  0  0  0  0  0  0
   -0.4410   20.0450  -27.4340 N   0  0  0  0  0  0  0  0  0  0  0  0
   -1.7040   19.3980  -27.8070 C   0  0  0  0  0  0  0  0  0  0  0  0
   -2.8970   20.3250  -27.5450 C   0  0  0  0  0  0  0  0  0  0  0  0
   -6.1840   23.4050  -30.5570 C   0  0  0  0  0  0  0  0  0  0  0  0
   -7.5070   23.0050  -30.3220 C   0  0  0  0  0  0  0  0  0  0  0  0
   -7.9570   21.7650  -30.7850 C   0  0  0  0  0  0  0  0  0  0  0  0
   -7.0920   20.9150  -31.4880 C   0  0  0  0  0  0  0  0  0  0  0  0
   -7.6710   19.3640  -32.1010 S   0  0  0  0  0  0  0  0  0  0  0  0
   -8.7650   19.6110  -33.1020 O   0  0  0  0  0  0  0  0  0  0  0  0
   -8.2530   18.5730  -30.9610 O   0  0  0  0  0  0  0  0  0  0  0  0
   -6.4090   18.4220  -32.8600 N   0  0  0  0  0  0  0  0  0  0  0  0
   -6.0340   18.9540  -34.1690 C   0  0  0  0  0  0  0  0  0  0  0  0
   -5.5040   17.7800  -34.9830 C   0  0  0  0  0  0  0  0  0  0  0  0
   -5.9400   16.5330  -34.2280 C   0  0  0  0  0  0  0  0  0  0  0  0
   -6.8230   17.0430  -33.1030 C   0  0  0  0  0  0  0  0  0  0  0  0
   -5.7610   21.3060  -31.6970 C   0  0  0  0  0  0  0  0  0  0  0  0
   -5.3120   22.5470  -31.2380 C   0  0  0  0  0  0  0  0  0  0  0  0
   -4.9320   25.3790  -27.8130 H   0  0  0  0  0  0  0  0  0  0  0  0
   -4.7439   22.2608  -27.9439 H   0  0  0  0  0  0  0  0  0  0  0  0
   -0.1306   23.8159  -29.0513 H   0  0  0  0  0  0  0  0  0  0  0  0
    0.0387   20.8511  -29.3127 H   0  0  0  0  0  0  0  0  0  0  0  0
    0.6820   21.7499  -27.8688 H   0  0  0  0  0  0  0  0  0  0  0  0
   -0.5000   20.3660  -26.4400 H   0  0  0  0  0  0  0  0  0  0  0  0
   -1.6750   19.1432  -28.8767 H   0  0  0  0  0  0  0  0  0  0  0  0
   -1.8256   18.4908  -27.1969 H   0  0  0  0  0  0  0  0  0  0  0  0
   -3.7852   19.9120  -28.0455 H   0  0  0  0  0  0  0  0  0  0  0  0
   -3.0487   20.3873  -26.4573 H   0  0  0  0  0  0  0  0  0  0  0  0
   -8.1918   23.6677  -29.7726 H   0  0  0  0  0  0  0  0  0  0  0  0
   -8.9954   21.4547  -30.5966 H   0  0  0  0  0  0  0  0  0  0  0  0
   -6.9117   19.3938  -34.6651 H   0  0  0  0  0  0  0  0  0  0  0  0
   -5.2743   19.7437  -34.0724 H   0  0  0  0  0  0  0  0  0  0  0  0
   -5.9356   17.7876  -35.9948 H   0  0  0  0  0  0  0  0  0  0  0  0
   -4.4112   17.8249  -35.1007 H   0  0  0  0  0  0  0  0  0  0  0  0
   -6.5057   15.8593  -34.8884 H   0  0  0  0  0  0  0  0  0  0  0  0
   -5.0819   15.9573  -33.8510 H   0  0  0  0  0  0  0  0  0  0  0  0
   -7.8810   17.0086  -33.4020 H   0  0  0  0  0  0  0  0  0  0  0  0
   -6.7196   16.4259  -32.1983 H   0  0  0  0  0  0  0  0  0  0  0  0
   -5.0684   20.6333  -32.2241 H   0  0  0  0  0  0  0  0  0  0  0  0
   -4.2693   22.8511  -31.4124 H   0  0  0  0  0  0  0  0  0  0  0  0
  1  2  2  0
  2  3  2  0
  2  4  1  0
  4  5  1  0
  5  6  2  0
  6  7  1  0
  7  8  2  0
  8  9  1  0
  9 10  2  0
 10 11  1  0
  8 12  1  0
 12 13  1  0
 13 14  1  0
 14 15  1  0
  2 16  1  0
 16 17  2  0
 17 18  1  0
 18 19  2  0
 19 20  1  0
 20 21  2  0
 20 22  2  0
 20 23  1  0
 23 24  1  0
 24 25  1  0
 25 26  1  0
 26 27  1  0
 19 28  1  0
 28 29  2  0
 10  5  1  0
 29 16  1  0
 15  7  1  0
 27 23  1  0
  4 30  1  0
  6 31  1  0
  9 32  1  0
 12 33  1  0
 12 34  1  0
 13 35  1  0
 14 36  1  0
 14 37  1  0
 15 38  1  0
 15 39  1  0
 17 40  1  0
 18 41  1  0
 24 42  1  0
 24 43  1  0
 25 44  1  0
 25 45  1  0
 26 46  1  0
 26 47  1  0
 27 48  1  0
 27 49  1  0
 28 50  1  0
 29 51  1  0
M  CHG  1  11  -1
M  END
>  <UniqueID>  (28) 
27

>  <SMILES>  (28) 
O=S(=O)(Nc1cc2c(cc1[O-])CNCC2)c1ccc(S(=O)(=O)N2CCCC2)cc1

>  <Energy>  (28) 
56.83570178662289

>  <Genealogy>  (28) 
O=S(=O)(Nc1cc2c(cc1[O-])CNCC2)c1ccc(S(=O)(=O)N2CCCC2)cc1 (protonated)
O=S(=O)(Nc1cc2c(cc1[O-])CNCC2)c1ccc(S(=O)(=O)N2CCCC2)cc1 (3D coordinates assigned)
O=S(=O)(Nc1cc2c(cc1[O-])CNCC2)c1ccc(S(=O)(=O)N2CCCC2)cc1 (nonaromatic ring conformer: 56.83570178662289 kcal/mol)

>  <smiles>  (28) 
O=S(=O)(Nc1cc2c(cc1O)CNCC2)c1ccc(S(=O)(=O)N2CCCC2)cc1

>  <score_type>  (28) 
oracle

>  <origin>  (28) 
adgpu

>  <m_score__min__energy>  (28) 
-14.75

>  <m_primary>  (28) 
energy

$$$$
28:0
     RDKit          3D

 59 61  0  0  0  0  0  0  0  0999 V2000
   -8.1240   19.2420  -32.6200 C   0  0  0  0  0  0  0  0  0  0  0  0
   -6.6300   19.0060  -32.9010 C   0  0  0  0  0  0  0  0  0  0  0  0
   -6.4790   17.7780  -33.8180 C   0  0  0  0  0  0  0  0  0  0  0  0
   -5.9010   18.7790  -31.5620 C   0  0  0  0  0  0  0  0  0  0  0  0
   -6.1040   20.2040  -33.5710 N   0  0  0  0  0  0  0  0  0  0  0  0
   -5.3040   21.2450  -32.9890 C   0  0  0  0  0  0  0  0  0  0  0  0
   -5.8290   22.1070  -32.2320 O   0  0  0  0  0  0  0  0  0  0  0  0
   -3.8220   21.2690  -33.2810 C   0  0  0  0  0  0  0  0  0  0  0  0
   -3.2610   19.8720  -33.6480 C   0  0  0  0  0  0  0  0  0  0  0  0
   -1.7360   19.8410  -33.4800 C   0  0  0  0  0  0  0  0  0  0  0  0
   -1.3020   20.1120  -32.0810 N   0  0  0  0  0  0  0  0  0  0  0  0
   -0.8810   18.8700  -31.3940 C   0  0  0  0  0  0  0  0  0  0  0  0
   -0.1250   19.1880  -30.1280 C   0  0  0  0  0  0  0  0  0  0  0  0
    1.2790   19.1550  -30.1200 C   0  0  0  0  0  0  0  0  0  0  0  0
    1.9870   19.5890  -28.9960 C   0  0  0  0  0  0  0  0  0  0  0  0
    1.3000   20.0790  -27.8840 C   0  0  0  0  0  0  0  0  0  0  0  0
   -0.1050   20.1190  -27.8820 C   0  0  0  0  0  0  0  0  0  0  0  0
   -0.8260   20.6780  -26.7770 N   0  0  0  0  0  0  0  0  0  0  0  0
   -1.0260   22.0850  -26.5740 C   0  0  0  0  0  0  0  0  0  0  0  0
   -0.6530   22.6030  -25.4860 O   0  0  0  0  0  0  0  0  0  0  0  0
   -1.7040   22.9270  -27.5910 C   0  0  0  0  0  0  0  0  0  0  0  0
   -1.1470   24.1540  -27.9960 C   0  0  0  0  0  0  0  0  0  0  0  0
   -1.7830   24.9420  -28.9580 C   0  0  0  0  0  0  0  0  0  0  0  0
   -1.2210   26.1550  -29.3380 O   0  0  0  0  0  0  0  0  0  0  0  0
   -2.9770   24.5070  -29.5430 C   0  0  0  0  0  0  0  0  0  0  0  0
   -3.6050   25.2980  -30.5010 O   0  0  0  0  0  0  0  0  0  0  0  0
   -3.5300   23.2720  -29.1680 C   0  0  0  0  0  0  0  0  0  0  0  0
   -4.7070   22.8020  -29.7540 O   0  0  0  0  0  0  0  0  0  0  0  0
   -2.8920   22.4890  -28.1980 C   0  0  0  0  0  0  0  0  0  0  0  0
   -0.8120   19.6470  -28.9930 C   0  0  0  0  0  0  0  0  0  0  0  0
   -2.2990   20.8670  -31.2760 C   0  0  0  0  0  0  0  0  0  0  0  0
   -3.0300   21.9170  -32.1160 C   0  0  0  0  0  0  0  0  0  0  0  0
   -8.2930   19.2687  -31.5334 H   0  0  0  0  0  0  0  0  0  0  0  0
   -8.4335   20.2002  -33.0628 H   0  0  0  0  0  0  0  0  0  0  0  0
   -8.7138   18.4259  -33.0628 H   0  0  0  0  0  0  0  0  0  0  0  0
   -6.3677   16.8727  -33.2031 H   0  0  0  0  0  0  0  0  0  0  0  0
   -7.3722   17.6825  -34.4529 H   0  0  0  0  0  0  0  0  0  0  0  0
   -5.5893   17.9017  -34.4529 H   0  0  0  0  0  0  0  0  0  0  0  0
   -6.5878   18.9928  -30.7298 H   0  0  0  0  0  0  0  0  0  0  0  0
   -5.5645   17.7335  -31.5003 H   0  0  0  0  0  0  0  0  0  0  0  0
   -5.0305   19.4486  -31.5003 H   0  0  0  0  0  0  0  0  0  0  0  0
   -3.6857   21.8984  -34.1728 H   0  0  0  0  0  0  0  0  0  0  0  0
   -3.7128   19.1164  -32.9885 H   0  0  0  0  0  0  0  0  0  0  0  0
   -3.5065   19.6561  -34.6983 H   0  0  0  0  0  0  0  0  0  0  0  0
   -1.3705   18.8462  -33.7746 H   0  0  0  0  0  0  0  0  0  0  0  0
   -1.3174   20.6353  -34.1155 H   0  0  0  0  0  0  0  0  0  0  0  0
   -1.7727   18.2771  -31.1423 H   0  0  0  0  0  0  0  0  0  0  0  0
   -0.2206   18.3020  -32.0658 H   0  0  0  0  0  0  0  0  0  0  0  0
    1.8234   18.7862  -31.0018 H   0  0  0  0  0  0  0  0  0  0  0  0
    3.0861   19.5445  -28.9875 H   0  0  0  0  0  0  0  0  0  0  0  0
    1.8599   20.4349  -27.0066 H   0  0  0  0  0  0  0  0  0  0  0  0
   -0.2012   24.4961  -27.5505 H   0  0  0  0  0  0  0  0  0  0  0  0
   -5.1230   23.2530  -30.5600 H   0  0  0  0  0  0  0  0  0  0  0  0
   -3.3261   21.5206  -27.9085 H   0  0  0  0  0  0  0  0  0  0  0  0
   -1.9118   19.6354  -28.9772 H   0  0  0  0  0  0  0  0  0  0  0  0
   -3.0368   20.1600  -30.8689 H   0  0  0  0  0  0  0  0  0  0  0  0
   -1.7630   21.3876  -30.4687 H   0  0  0  0  0  0  0  0  0  0  0  0
   -3.7312   22.4655  -31.4698 H   0  0  0  0  0  0  0  0  0  0  0  0
   -2.2788   22.5951  -32.5472 H   0  0  0  0  0  0  0  0  0  0  0  0
  1  2  1  0
  2  3  1  0
  2  4  1  0
  2  5  1  0
  5  6  1  0
  6  7  2  0
  6  8  1  0
  8  9  1  0
  9 10  1  0
 10 11  1  0
 11 12  1  0
 12 13  1  0
 13 14  2  0
 14 15  1  0
 15 16  2  0
 16 17  1  0
 17 18  1  0
 18 19  1  0
 19 20  2  0
 19 21  1  0
 21 22  2  0
 22 23  1  0
 23 24  1  0
 23 25  2  0
 25 26  1  0
 25 27  1  0
 27 28  1  0
 27 29  2  0
 17 30  2  0
 11 31  1  0
 31 32  1  0
 32  8  1  0
 30 13  1  0
 29 21  1  0
  1 33  1  0
  1 34  1  0
  1 35  1  0
  3 36  1  0
  3 37  1  0
  3 38  1  0
  4 39  1  0
  4 40  1  0
  4 41  1  0
  8 42  1  0
  9 43  1  0
  9 44  1  0
 10 45  1  0
 10 46  1  0
 12 47  1  0
 12 48  1  0
 14 49  1  0
 15 50  1  0
 16 51  1  0
 22 52  1  0
 28 53  1  0
 29 54  1  0
 30 55  1  0
 31 56  1  0
 31 57  1  0
 32 58  1  0
 32 59  1  0
M  CHG  4   5  -1  18  -1  24  -1  26  -1
M  END
>  <UniqueID>  (29) 
28

>  <SMILES>  (29) 
CC(C)(C)[N-]C(=O)C1CCN(Cc2cccc([N-]C(=O)c3cc([O-])c([O-])c(O)c3)c2)CC1

>  <Energy>  (29) 
71.89797717338858

>  <Genealogy>  (29) 
CC(C)(C)[N-]C(=O)C1CCN(Cc2cccc([N-]C(=O)c3cc([O-])c([O-])c(O)c3)c2)CC1 (protonated)
CC(C)(C)[N-]C(=O)C1CCN(Cc2cccc([N-]C(=O)c3cc([O-])c([O-])c(O)c3)c2)CC1 (3D coordinates assigned)
CC(C)(C)[N-]C(=O)C1CCN(Cc2cccc([N-]C(=O)c3cc([O-])c([O-])c(O)c3)c2)CC1 (nonaromatic ring conformer: 71.89797717338858 kcal/mol)

>  <smiles>  (29) 
CC(C)(C)NC(=O)C1CCN(Cc2cccc(NC(=O)c3cc(O)c(O)c(O)c3)c2)CC1

>  <score_type>  (29) 
oracle

>  <origin>  (29) 
adgpu

>  <m_score__min__energy>  (29) 
-14.619999999999999

>  <m_primary>  (29) 
energy

$$$$
29:0
     RDKit          3D

 61 63  0  0  0  0  0  0  0  0999 V2000
    3.0950   18.1090  -36.3620 C   0  0  0  0  0  0  0  0  0  0  0  0
    2.1450   19.3270  -36.4570 C   0  0  0  0  0  0  0  0  0  0  0  0
    1.0720   19.0030  -37.5200 C   0  0  0  0  0  0  0  0  0  0  0  0
    2.9800   20.5390  -36.9240 C   0  0  0  0  0  0  0  0  0  0  0  0
    1.4570   19.6640  -35.1180 C   0  0  0  0  0  0  0  0  0  0  0  0
    0.6290   20.8000  -34.9470 C   0  0  0  0  0  0  0  0  0  0  0  0
    0.0130   21.0600  -33.7200 C   0  0  0  0  0  0  0  0  0  0  0  0
    0.1980   20.1960  -32.6370 C   0  0  0  0  0  0  0  0  0  0  0  0
   -0.5950   20.5000  -31.0950 S   0  0  0  0  0  0  0  0  0  0  0  0
    0.2530   21.3670  -30.2090 O   0  0  0  0  0  0  0  0  0  0  0  0
   -0.7730   19.1700  -30.4170 O   0  0  0  0  0  0  0  0  0  0  0  0
   -2.1730   21.2810  -31.3380 C   0  0  0  0  0  0  0  0  0  0  0  0
   -2.4150   22.4830  -30.6490 C   0  0  0  0  0  0  0  0  0  0  0  0
   -3.6410   23.1420  -30.7540 C   0  0  0  0  0  0  0  0  0  0  0  0
   -3.8890   24.6730  -29.9180 S   0  0  0  0  0  0  0  0  0  0  0  0
   -4.8130   24.4520  -28.7530 O   0  0  0  0  0  0  0  0  0  0  0  0
   -4.5250   25.6720  -30.8450 O   0  0  0  0  0  0  0  0  0  0  0  0
   -2.3750   25.2980  -29.3340 N   0  0  0  0  0  0  0  0  0  0  0  0
   -2.1070   24.8530  -27.9630 C   0  0  0  0  0  0  0  0  0  0  0  0
   -0.6980   24.2760  -27.8630 C   0  0  0  0  0  0  0  0  0  0  0  0
   -0.0100   24.5160  -29.0590 O   0  0  0  0  0  0  0  0  0  0  0  0
   -4.6490   22.6000  -31.5530 C   0  0  0  0  0  0  0  0  0  0  0  0
   -4.4290   21.4140  -32.2490 C   0  0  0  0  0  0  0  0  0  0  0  0
   -3.1940   20.7470  -32.1740 C   0  0  0  0  0  0  0  0  0  0  0  0
   -3.0090   19.2540  -33.1220 S   0  0  0  0  0  0  0  0  0  0  0  0
   -2.5530   19.5440  -34.5230 O   0  0  0  0  0  0  0  0  0  0  0  0
   -2.0040   18.3590  -32.4530 O   0  0  0  0  0  0  0  0  0  0  0  0
   -4.5510   18.4070  -33.2520 C   0  0  0  0  0  0  0  0  0  0  0  0
   -4.8890   17.7610  -34.4500 C   0  0  0  0  0  0  0  0  0  0  0  0
   -6.1170   17.1030  -34.5700 C   0  0  0  0  0  0  0  0  0  0  0  0
   -7.0130   17.0890  -33.4970 C   0  0  0  0  0  0  0  0  0  0  0  0
   -6.6820   17.7360  -32.3020 C   0  0  0  0  0  0  0  0  0  0  0  0
   -5.4560   18.3950  -32.1790 C   0  0  0  0  0  0  0  0  0  0  0  0
    1.0250   19.0790  -32.7820 C   0  0  0  0  0  0  0  0  0  0  0  0
    1.6440   18.8140  -34.0050 C   0  0  0  0  0  0  0  0  0  0  0  0
    3.2809   17.8706  -35.3044 H   0  0  0  0  0  0  0  0  0  0  0  0
    2.6315   17.2429  -36.8571 H   0  0  0  0  0  0  0  0  0  0  0  0
    4.0479   18.3477  -36.8571 H   0  0  0  0  0  0  0  0  0  0  0  0
    0.1341   18.7198  -37.0198 H   0  0  0  0  0  0  0  0  0  0  0  0
    0.8993   19.8890  -38.1486 H   0  0  0  0  0  0  0  0  0  0  0  0
    1.4185   18.1694  -38.1486 H   0  0  0  0  0  0  0  0  0  0  0  0
    3.3562   21.0851  -36.0464 H   0  0  0  0  0  0  0  0  0  0  0  0
    3.8289   20.1881  -37.5292 H   0  0  0  0  0  0  0  0  0  0  0  0
    2.3497   21.2072  -37.5292 H   0  0  0  0  0  0  0  0  0  0  0  0
    0.4686   21.4868  -35.7912 H   0  0  0  0  0  0  0  0  0  0  0  0
   -0.6220   21.9509  -33.6056 H   0  0  0  0  0  0  0  0  0  0  0  0
   -1.6239   22.9115  -30.0160 H   0  0  0  0  0  0  0  0  0  0  0  0
   -2.1986   25.7092  -27.2785 H   0  0  0  0  0  0  0  0  0  0  0  0
   -2.8343   24.0744  -27.6894 H   0  0  0  0  0  0  0  0  0  0  0  0
   -0.1635   24.7556  -27.0298 H   0  0  0  0  0  0  0  0  0  0  0  0
   -0.7571   23.1921  -27.6848 H   0  0  0  0  0  0  0  0  0  0  0  0
   -0.6810   24.8830  -29.6920 H   0  0  0  0  0  0  0  0  0  0  0  0
   -5.6198   23.1110  -31.6331 H   0  0  0  0  0  0  0  0  0  0  0  0
   -5.2349   20.9923  -32.8676 H   0  0  0  0  0  0  0  0  0  0  0  0
   -4.1869   17.7719  -35.2967 H   0  0  0  0  0  0  0  0  0  0  0  0
   -6.3784   16.5955  -35.5103 H   0  0  0  0  0  0  0  0  0  0  0  0
   -7.9778   16.5694  -33.5925 H   0  0  0  0  0  0  0  0  0  0  0  0
   -7.3875   17.7261  -31.4581 H   0  0  0  0  0  0  0  0  0  0  0  0
   -5.1994   18.9056  -31.2391 H   0  0  0  0  0  0  0  0  0  0  0  0
    1.1891   18.4051  -31.9282 H   0  0  0  0  0  0  0  0  0  0  0  0
    2.2885   17.9281  -34.1038 H   0  0  0  0  0  0  0  0  0  0  0  0
  1  2  1  0
  2  3  1  0
  2  4  1  0
  2  5  1  0
  5  6  2  0
  6  7  1  0
  7  8  2  0
  8  9  1  0
  9 10  2  0
  9 11  2  0
  9 12  1  0
 12 13  2  0
 13 14  1  0
 14 15  1  0
 15 16  2  0
 15 17  2  0
 15 18  1  0
 18 19  1  0
 19 20  1  0
 20 21  1  0
 14 22  2  0
 22 23  1  0
 23 24  2  0
 24 25  1  0
 25 26  2  0
 25 27  2  0
 25 28  1  0
 28 29  2  0
 29 30  1  0
 30 31  2  0
 31 32  1  0
 32 33  2  0
  8 34  1  0
 34 35  2  0
 35  5  1  0
 24 12  1  0
 33 28  1  0
  1 36  1  0
  1 37  1  0
  1 38  1  0
  3 39  1  0
  3 40  1  0
  3 41  1  0
  4 42  1  0
  4 43  1  0
  4 44  1  0
  6 45  1  0
  7 46  1  0
 13 47  1  0
 19 48  1  0
 19 49  1  0
 20 50  1  0
 20 51  1  0
 21 52  1  0
 22 53  1  0
 23 54  1  0
 29 55  1  0
 30 56  1  0
 31 57  1  0
 32 58  1  0
 33 59  1  0
 34 60  1  0
 35 61  1  0
M  CHG  1  18  -1
M  END
>  <UniqueID>  (30) 
29

>  <SMILES>  (30) 
CC(C)(C)c1ccc(S(=O)(=O)c2cc(S(=O)(=O)[N-]CCO)ccc2S(=O)(=O)c2ccccc2)cc1

>  <Energy>  (30) 
67.96343927750968

>  <Genealogy>  (30) 
CC(C)(C)c1ccc(S(=O)(=O)c2cc(S(=O)(=O)[N-]CCO)ccc2S(=O)(=O)c2ccccc2)cc1 (protonated)
CC(C)(C)c1ccc(S(=O)(=O)c2cc(S(=O)(=O)[N-]CCO)ccc2S(=O)(=O)c2ccccc2)cc1 (3D coordinates assigned)
CC(C)(C)c1ccc(S(=O)(=O)c2cc(S(=O)(=O)[N-]CCO)ccc2S(=O)(=O)c2ccccc2)cc1 (optimized conformer: 67.96343927750968 kcal/mol)

>  <smiles>  (30) 
CC(C)(C)c1ccc(S(=O)(=O)c2cc(S(=O)(=O)NCCO)ccc2S(=O)(=O)c2ccccc2)cc1

>  <score_type>  (30) 
oracle

>  <origin>  (30) 
adgpu

>  <m_score__min__energy>  (30) 
-10.94

>  <m_primary>  (30) 
energy

$$$$
30:0
     RDKit          3D

 21 22  0  0  0  0  0  0  0  0999 V2000
   -4.8480   21.8170  -32.4620 N   0  0  0  0  0  0  0  0  0  0  0  0
   -4.8990   22.9560  -31.5900 C   0  0  0  0  0  0  0  0  0  0  0  0
   -6.0870   23.7020  -31.5300 C   0  0  0  0  0  0  0  0  0  0  0  0
   -6.1590   24.8650  -30.7630 C   0  0  0  0  0  0  0  0  0  0  0  0
   -5.0460   25.3010  -30.0490 C   0  0  0  0  0  0  0  0  0  0  0  0
   -3.8610   24.5630  -30.0740 C   0  0  0  0  0  0  0  0  0  0  0  0
   -3.7800   23.3620  -30.8190 C   0  0  0  0  0  0  0  0  0  0  0  0
   -2.4620   22.6070  -30.8620 C   0  0  0  0  0  0  0  0  0  0  0  0
   -1.6190   22.7890  -29.5900 C   0  0  0  0  0  0  0  0  0  0  0  0
   -1.5710   24.2250  -29.1760 C   0  0  0  0  0  0  0  0  0  0  0  0
   -0.5460   24.6930  -28.6130 O   0  0  0  0  0  0  0  0  0  0  0  0
   -2.7280   25.0410  -29.3420 N   0  0  0  0  0  0  0  0  0  0  0  0
   -4.5430   20.8760  -32.1350 H   0  0  0  0  0  0  0  0  0  0  0  0
   -5.0230   21.9290  -33.4850 H   0  0  0  0  0  0  0  0  0  0  0  0
   -6.9699   23.3660  -32.0935 H   0  0  0  0  0  0  0  0  0  0  0  0
   -7.0967   25.4386  -30.7222 H   0  0  0  0  0  0  0  0  0  0  0  0
   -5.1005   26.2303  -29.4630 H   0  0  0  0  0  0  0  0  0  0  0  0
   -2.6767   21.5356  -30.9890 H   0  0  0  0  0  0  0  0  0  0  0  0
   -1.8793   23.0137  -31.7017 H   0  0  0  0  0  0  0  0  0  0  0  0
   -2.0628   22.1955  -28.7771 H   0  0  0  0  0  0  0  0  0  0  0  0
   -0.5932   22.4518  -29.7999 H   0  0  0  0  0  0  0  0  0  0  0  0
  1  2  1  0
  2  3  2  0
  3  4  1  0
  4  5  2  0
  5  6  1  0
  6  7  2  0
  7  8  1  0
  8  9  1  0
  9 10  1  0
 10 11  2  0
 10 12  1  0
  7  2  1  0
 12  6  1  0
  1 13  1  0
  1 14  1  0
  3 15  1  0
  4 16  1  0
  5 17  1  0
  8 18  1  0
  8 19  1  0
  9 20  1  0
  9 21  1  0
M  CHG  1  12  -1
M  END
>  <UniqueID>  (31) 
30

>  <SMILES>  (31) 
Nc1cccc2c1CCC(=O)[N-]2

>  <Energy>  (31) 
23.281706600920405

>  <Genealogy>  (31) 
Nc1cccc2c1CCC(=O)[N-]2 (protonated)
Nc1cccc2c1CCC(=O)[N-]2 (3D coordinates assigned)
Nc1cccc2c1CCC(=O)[N-]2 (nonaromatic ring conformer: 23.281706600920405 kcal/mol)

>  <smiles>  (31) 
Nc1cccc2c1CCC(=O)N2

>  <score_type>  (31) 
oracle

>  <origin>  (31) 
adgpu

>  <m_score__min__energy>  (31) 
-6.7599999999999998

>  <m_primary>  (31) 
energy

$$$$
31:0
     RDKit          3D

 47 50  0  0  1  0  0  0  0  0999 V2000
   -5.5610   25.2470  -30.7160 C   0  0  0  0  0  0  0  0  0  0  0  0
   -5.0890   24.2110  -31.5500 O   0  0  0  0  0  0  0  0  0  0  0  0
   -5.8260   23.0450  -31.6620 C   0  0  0  0  0  0  0  0  0  0  0  0
   -7.2220   23.0550  -31.6330 C   0  0  0  0  0  0  0  0  0  0  0  0
   -7.9660   21.8910  -31.7440 C   0  0  0  0  0  0  0  0  0  0  0  0
   -9.4720   21.9330  -31.7100 C   0  0  0  0  0  0  0  0  0  0  0  0
   -9.8560   23.1470  -32.2910 F   0  0  0  0  0  0  0  0  0  0  0  0
   -9.8870   21.9190  -30.4140 F   0  0  0  0  0  0  0  0  0  0  0  0
   -9.9760   20.8870  -32.4370 F   0  0  0  0  0  0  0  0  0  0  0  0
   -7.3030   20.6860  -31.8890 C   0  0  0  0  0  0  0  0  0  0  0  0
   -5.9130   20.6440  -31.9220 C   0  0  0  0  0  0  0  0  0  0  0  0
   -5.1820   21.8070  -31.8100 C   0  0  0  0  0  0  0  0  0  0  0  0
   -3.7200   21.7300  -31.8250 C   0  0  0  0  0  0  0  0  0  0  0  0
   -3.0900   21.1450  -32.8640 N   0  0  0  0  0  0  0  0  0  0  0  0
   -1.7640   21.0550  -32.9230 C   0  0  0  0  0  0  0  0  0  0  0  0
   -0.9280   21.5420  -31.9390 C   0  0  0  0  0  0  0  0  0  0  0  0
   -1.5320   22.1470  -30.8570 C   0  0  0  0  0  0  0  0  0  0  0  0
   -0.7840   22.6520  -29.8390 C   0  0  0  0  0  0  0  0  0  0  0  0
   -1.3540   23.2620  -28.7320 C   0  0  0  0  0  0  0  0  0  0  0  0
   -0.3980   23.9190  -27.4240 S   0  0  0  0  0  0  0  0  0  0  0  0
    0.1790   22.7820  -26.6000 O   0  0  0  0  0  0  0  0  0  0  0  0
    0.8170   24.6040  -28.0380 O   0  0  0  0  0  0  0  0  0  0  0  0
   -1.2650   25.0100  -26.4410 N   0  0  0  0  0  0  0  0  0  0  0  0
   -0.6470   25.5410  -25.4220 C   0  0  0  0  0  0  0  0  0  0  0  0
   -1.2470   26.4310  -24.5670 C   0  0  0  0  0  0  0  0  0  0  0  0
   -0.5370   26.9680  -23.4890 C   0  0  0  0  0  0  0  0  0  0  0  0
    0.7530   26.5710  -23.3380 N   0  0  0  0  0  0  0  0  0  0  0  0
    1.3570   25.7090  -24.1560 C   0  0  0  0  0  0  0  0  0  0  0  0
    0.6270   25.2150  -25.1870 N   0  0  0  0  0  0  0  0  0  0  0  0
   -2.7180   23.3400  -28.7000 C   0  0  0  0  0  0  0  0  0  0  0  0
   -3.4920   22.8350  -29.7220 C   0  0  0  0  0  0  0  0  0  0  0  0
   -2.9270   22.2290  -30.8210 C   0  0  0  0  0  0  0  0  0  0  0  0
   -5.4295   24.9584  -29.6627 H   0  0  0  0  0  0  0  0  0  0  0  0
   -4.9934   26.1674  -30.9176 H   0  0  0  0  0  0  0  0  0  0  0  0
   -6.6280   25.4227  -30.9176 H   0  0  0  0  0  0  0  0  0  0  0  0
   -7.7467   24.0150  -31.5187 H   0  0  0  0  0  0  0  0  0  0  0  0
   -7.8794   19.7534  -31.9789 H   0  0  0  0  0  0  0  0  0  0  0  0
   -5.3959   19.6800  -32.0378 H   0  0  0  0  0  0  0  0  0  0  0  0
   -1.3116   20.5683  -33.7996 H   0  0  0  0  0  0  0  0  0  0  0  0
    0.1657   21.4521  -32.0140 H   0  0  0  0  0  0  0  0  0  0  0  0
    0.3117   22.5736  -29.8962 H   0  0  0  0  0  0  0  0  0  0  0  0
   -2.2945   26.7241  -24.7310 H   0  0  0  0  0  0  0  0  0  0  0  0
   -1.0030   27.6812  -22.7932 H   0  0  0  0  0  0  0  0  0  0  0  0
    1.3330   26.9490  -22.5410 H   0  0  0  0  0  0  0  0  0  0  0  0
    2.4044   25.4106  -24.0013 H   0  0  0  0  0  0  0  0  0  0  0  0
   -3.2091   23.8167  -27.8389 H   0  0  0  0  0  0  0  0  0  0  0  0
   -4.5870   22.9181  -29.6580 H   0  0  0  0  0  0  0  0  0  0  0  0
  1  2  1  0
  2  3  1  0
  3  4  2  0
  4  5  1  0
  5  6  1  0
  6  7  1  0
  6  8  1  0
  6  9  1  0
  5 10  2  0
 10 11  1  0
 11 12  2  0
 12 13  1  0
 13 14  2  0
 14 15  1  0
 15 16  2  0
 16 17  1  0
 17 18  2  0
 18 19  1  0
 19 20  1  0
 20 21  2  0
 20 22  2  0
 20 23  1  0
 23 24  2  0
 24 25  1  0
 25 26  2  0
 26 27  1  0
 27 28  1  0
 28 29  2  0
 19 30  2  0
 30 31  1  0
 31 32  2  0
 12  3  1  0
 32 13  1  0
 32 17  1  0
 29 24  1  0
  1 33  1  0
  1 34  1  0
  1 35  1  0
  4 36  1  0
 10 37  1  0
 11 38  1  0
 15 39  1  0
 16 40  1  0
 18 41  1  0
 25 42  1  0
 26 43  1  0
 27 44  1  0
 28 45  1  0
 30 46  1  0
 31 47  1  0
M  END
>  <smiles>  (32) 
COc1cc(C(F)(F)F)ccc1-c1nccc2cc(S(=O)(=O)N=c3cc[nH]cn3)ccc12

>  <score_type>  (32) 
oracle

>  <origin>  (32) 
adgpu

>  <m_score__min__energy>  (32) 
-10.07

>  <m_primary>  (32) 
energy

$$$$
32:0
     RDKit          3D

 44 47  0  0  0  0  0  0  0  0999 V2000
   -0.5060   17.3580  -34.8720 C   0  0  0  0  0  0  0  0  0  0  0  0
   -1.8640   17.9020  -34.5470 C   0  0  0  0  0  0  0  0  0  0  0  0
   -3.0240   17.1540  -34.8720 C   0  0  0  0  0  0  0  0  0  0  0  0
   -4.3040   17.6350  -34.5370 C   0  0  0  0  0  0  0  0  0  0  0  0
   -4.3820   18.8540  -33.8690 C   0  0  0  0  0  0  0  0  0  0  0  0
   -5.4850   19.4930  -33.4560 N   0  0  0  0  0  0  0  0  0  0  0  0
   -4.9790   20.6130  -32.8710 C   0  0  0  0  0  0  0  0  0  0  0  0
   -5.8320   21.6550  -32.2540 C   0  0  0  0  0  0  0  0  0  0  0  0
   -7.2290   21.6170  -32.4100 C   0  0  0  0  0  0  0  0  0  0  0  0
   -8.0370   22.6050  -31.8290 C   0  0  0  0  0  0  0  0  0  0  0  0
   -9.4570   22.5650  -31.9990 N   0  0  0  0  0  0  0  0  0  0  0  0
   -7.4490   23.6350  -31.0860 C   0  0  0  0  0  0  0  0  0  0  0  0
   -6.0590   23.6830  -30.9240 C   0  0  0  0  0  0  0  0  0  0  0  0
   -5.3120   24.9880  -30.0070 S   0  0  0  0  0  0  0  0  0  0  0  0
   -6.3590   26.0090  -29.6680 O   0  0  0  0  0  0  0  0  0  0  0  0
   -4.2240   25.6490  -30.8060 O   0  0  0  0  0  0  0  0  0  0  0  0
   -4.6320   24.3630  -28.5400 N   0  0  0  0  0  0  0  0  0  0  0  0
   -3.4590   23.5400  -28.4540 C   0  0  0  0  0  0  0  0  0  0  0  0
   -3.5180   22.2170  -27.9730 C   0  0  0  0  0  0  0  0  0  0  0  0
   -2.3600   21.4350  -27.9040 C   0  0  0  0  0  0  0  0  0  0  0  0
   -2.4490   19.7880  -27.3040 Cl  0  0  0  0  0  0  0  0  0  0  0  0
   -1.1350   21.9620  -28.3180 C   0  0  0  0  0  0  0  0  0  0  0  0
   -1.0650   23.2710  -28.7990 C   0  0  0  0  0  0  0  0  0  0  0  0
   -2.2170   24.0640  -28.8680 C   0  0  0  0  0  0  0  0  0  0  0  0
   -2.1040   25.3690  -29.3470 O   0  0  0  0  0  0  0  0  0  0  0  0
   -5.2550   22.6930  -31.5040 C   0  0  0  0  0  0  0  0  0  0  0  0
   -3.6210   20.6950  -32.9030 N   0  0  0  0  0  0  0  0  0  0  0  0
   -3.2740   19.5680  -33.5410 C   0  0  0  0  0  0  0  0  0  0  0  0
   -1.9900   19.1280  -33.8540 C   0  0  0  0  0  0  0  0  0  0  0  0
    0.0351   17.1413  -33.9391 H   0  0  0  0  0  0  0  0  0  0  0  0
   -0.6121   16.4330  -35.4577 H   0  0  0  0  0  0  0  0  0  0  0  0
    0.0559   18.1005  -35.4577 H   0  0  0  0  0  0  0  0  0  0  0  0
   -2.9228   16.1892  -35.3906 H   0  0  0  0  0  0  0  0  0  0  0  0
   -5.2107   17.0676  -34.7940 H   0  0  0  0  0  0  0  0  0  0  0  0
   -7.6914   20.8063  -32.9921 H   0  0  0  0  0  0  0  0  0  0  0  0
   -9.8870   22.0380  -32.7920 H   0  0  0  0  0  0  0  0  0  0  0  0
  -10.0900   23.0570  -31.3300 H   0  0  0  0  0  0  0  0  0  0  0  0
   -8.0812   24.4097  -30.6276 H   0  0  0  0  0  0  0  0  0  0  0  0
   -4.4814   21.7960  -27.6494 H   0  0  0  0  0  0  0  0  0  0  0  0
   -0.2252   21.3460  -28.2652 H   0  0  0  0  0  0  0  0  0  0  0  0
   -0.0984   23.6820  -29.1259 H   0  0  0  0  0  0  0  0  0  0  0  0
   -2.8790   26.0230  -29.3380 H   0  0  0  0  0  0  0  0  0  0  0  0
   -4.1637   22.7289  -31.3710 H   0  0  0  0  0  0  0  0  0  0  0  0
   -1.1035   19.7148  -33.5714 H   0  0  0  0  0  0  0  0  0  0  0  0
  1  2  1  0
  2  3  2  0
  3  4  1  0
  4  5  2  0
  5  6  1  0
  6  7  1  0
  7  8  1  0
  8  9  2  0
  9 10  1  0
 10 11  1  0
 10 12  2  0
 12 13  1  0
 13 14  1  0
 14 15  2  0
 14 16  2  0
 14 17  1  0
 17 18  1  0
 18 19  2  0
 19 20  1  0
 20 21  1  0
 20 22  2  0
 22 23  1  0
 23 24  2  0
 24 25  1  0
 13 26  2  0
  7 27  2  0
 27 28  1  0
 28 29  2  0
 29  2  1  0
 28  5  1  0
 26  8  1  0
 24 18  1  0
  1 30  1  0
  1 31  1  0
  1 32  1  0
  3 33  1  0
  4 34  1  0
  9 35  1  0
 11 36  1  0
 11 37  1  0
 12 38  1  0
 19 39  1  0
 22 40  1  0
 23 41  1  0
 25 42  1  0
 26 43  1  0
 29 44  1  0
M  CHG  2   6  -1  17  -1
M  END
>  <UniqueID>  (33) 
31

>  <SMILES>  (33) 
Cc1ccc2[n-]c(-c3cc(N)cc(S(=O)(=O)[N-]c4cc(Cl)ccc4O)c3)nc2c1

>  <Energy>  (33) 
85.14994510197185

>  <Genealogy>  (33) 
Cc1ccc2[n-]c(-c3cc(N)cc(S(=O)(=O)[N-]c4cc(Cl)ccc4O)c3)nc2c1 (protonated)
Cc1ccc2[n-]c(-c3cc(N)cc(S(=O)(=O)[N-]c4cc(Cl)ccc4O)c3)nc2c1 (3D coordinates assigned)
Cc1ccc2[n-]c(-c3cc(N)cc(S(=O)(=O)[N-]c4cc(Cl)ccc4O)c3)nc2c1 (optimized conformer: 85.14994510197185 kcal/mol)

>  <smiles>  (33) 
Cc1ccc2[nH]c(-c3cc(N)cc(S(=O)(=O)Nc4cc(Cl)ccc4O)c3)nc2c1

>  <score_type>  (33) 
oracle

>  <origin>  (33) 
adgpu

>  <m_score__min__energy>  (33) 
-11.529999999999999

>  <m_primary>  (33) 
energy

$$$$
33:0
     RDKit          3D

 58 62  0  0  0  0  0  0  0  0999 V2000
   -0.1930   17.5810  -34.2810 C   0  0  0  0  0  0  0  0  0  0  0  0
   -0.8840   18.6010  -33.4690 N   0  0  1  0  0  0  0  0  0  0  0  0
   -0.2530   18.6970  -32.1320 C   0  0  0  0  0  0  0  0  0  0  0  0
    0.2320   20.1220  -31.8470 C   0  0  0  0  0  0  0  0  0  0  0  0
   -0.8840   21.0920  -31.5030 C   0  0  0  0  0  0  0  0  0  0  0  0
   -0.8320   21.7090  -30.2400 C   0  0  0  0  0  0  0  0  0  0  0  0
   -1.8310   22.5870  -29.8250 C   0  0  0  0  0  0  0  0  0  0  0  0
   -2.9170   22.8580  -30.6570 C   0  0  0  0  0  0  0  0  0  0  0  0
   -4.1650   23.9930  -30.1570 S   0  0  0  0  0  0  0  0  0  0  0  0
   -3.9180   25.3380  -30.7800 O   0  0  0  0  0  0  0  0  0  0  0  0
   -4.1350   24.1570  -28.6620 O   0  0  0  0  0  0  0  0  0  0  0  0
   -5.7380   23.3830  -30.6580 C   0  0  0  0  0  0  0  0  0  0  0  0
   -6.5570   22.7140  -29.7370 C   0  0  0  0  0  0  0  0  0  0  0  0
   -7.8050   22.2260  -30.1300 C   0  0  0  0  0  0  0  0  0  0  0  0
   -8.2480   22.3960  -31.4520 C   0  0  0  0  0  0  0  0  0  0  0  0
   -9.6080   21.9090  -31.8740 C   0  0  0  0  0  0  0  0  0  0  0  0
   -9.5080   20.5850  -32.4780 N   0  0  0  0  0  0  0  0  0  0  0  0
   -8.7210   19.5190  -31.9310 C   0  0  0  0  0  0  0  0  0  0  0  0
   -9.1620   18.8460  -30.9600 O   0  0  0  0  0  0  0  0  0  0  0  0
   -7.3950   19.2010  -32.5090 C   0  0  0  0  0  0  0  0  0  0  0  0
   -6.7250   20.1420  -33.3420 C   0  0  0  0  0  0  0  0  0  0  0  0
   -5.4940   19.8590  -33.8680 N   0  0  0  0  0  0  0  0  0  0  0  0
   -4.9240   18.6620  -33.5940 C   0  0  0  0  0  0  0  0  0  0  0  0
   -3.7280   18.2270  -34.0180 N   0  0  0  0  0  0  0  0  0  0  0  0
   -3.5600   17.0100  -33.5040 N   0  0  0  0  0  0  0  0  0  0  0  0
   -4.6450   16.6810  -32.7600 C   0  0  0  0  0  0  0  0  0  0  0  0
   -5.5250   17.7340  -32.8070 C   0  0  0  0  0  0  0  0  0  0  0  0
   -6.7680   17.9620  -32.2330 C   0  0  0  0  0  0  0  0  0  0  0  0
   -7.4230   23.0600  -32.3740 C   0  0  0  0  0  0  0  0  0  0  0  0
   -6.1740   23.5460  -31.9800 C   0  0  0  0  0  0  0  0  0  0  0  0
   -2.9960   22.2460  -31.9130 C   0  0  0  0  0  0  0  0  0  0  0  0
   -2.0070   21.3420  -32.3470 C   0  0  0  0  0  0  0  0  0  0  0  0
   -2.1570   20.7740  -33.7460 C   0  0  0  0  0  0  0  0  0  0  0  0
   -0.9730   19.8960  -34.1930 C   0  0  0  0  0  0  0  0  0  0  0  0
    0.2988   16.8550  -33.6168 H   0  0  0  0  0  0  0  0  0  0  0  0
   -0.9249   17.0600  -34.9157 H   0  0  0  0  0  0  0  0  0  0  0  0
    0.5622   18.0675  -34.9157 H   0  0  0  0  0  0  0  0  0  0  0  0
   -1.8650   18.2560  -33.3310 H   0  0  0  0  0  0  0  0  0  0  0  0
   -0.9890   18.4091  -31.3668 H   0  0  0  0  0  0  0  0  0  0  0  0
    0.6161   18.0231  -32.1088 H   0  0  0  0  0  0  0  0  0  0  0  0
    0.9339   20.0867  -31.0007 H   0  0  0  0  0  0  0  0  0  0  0  0
    0.7034   20.4905  -32.7700 H   0  0  0  0  0  0  0  0  0  0  0  0
    0.0122   21.4945  -29.5682 H   0  0  0  0  0  0  0  0  0  0  0  0
   -1.7630   23.0680  -28.8381 H   0  0  0  0  0  0  0  0  0  0  0  0
   -6.2151   22.5731  -28.7010 H   0  0  0  0  0  0  0  0  0  0  0  0
   -8.4440   21.7061  -29.4010 H   0  0  0  0  0  0  0  0  0  0  0  0
  -10.2641   21.8569  -30.9926 H   0  0  0  0  0  0  0  0  0  0  0  0
  -10.0244   22.6086  -32.6137 H   0  0  0  0  0  0  0  0  0  0  0  0
   -7.2027   21.1074  -33.5651 H   0  0  0  0  0  0  0  0  0  0  0  0
   -4.7939   15.7372  -32.2150 H   0  0  0  0  0  0  0  0  0  0  0  0
   -7.2470   17.2097  -31.5891 H   0  0  0  0  0  0  0  0  0  0  0  0
   -7.7618   23.1981  -33.4114 H   0  0  0  0  0  0  0  0  0  0  0  0
   -5.5303   24.0585  -32.7100 H   0  0  0  0  0  0  0  0  0  0  0  0
   -3.8456   22.4750  -32.5731 H   0  0  0  0  0  0  0  0  0  0  0  0
   -3.0716   20.1636  -33.7758 H   0  0  0  0  0  0  0  0  0  0  0  0
   -2.1982   21.6300  -34.4356 H   0  0  0  0  0  0  0  0  0  0  0  0
   -1.0818   19.6867  -35.2674 H   0  0  0  0  0  0  0  0  0  0  0  0
   -0.0536   20.4556  -33.9660 H   0  0  0  0  0  0  0  0  0  0  0  0
  1  2  1  0
  2  3  1  0
  3  4  1  0
  4  5  1  0
  5  6  2  0
  6  7  1  0
  7  8  2  0
  8  9  1  0
  9 10  2  0
  9 11  2  0
  9 12  1  0
 12 13  2  0
 13 14  1  0
 14 15  2  0
 15 16  1  0
 16 17  1  0
 17 18  1  0
 18 19  2  0
 18 20  1  0
 20 21  2  0
 21 22  1  0
 22 23  2  0
 23 24  1  0
 24 25  1  0
 25 26  2  0
 26 27  1  0
 27 28  2  0
 15 29  1  0
 29 30  2  0
  8 31  1  0
 31 32  2  0
 32 33  1  0
 33 34  1  0
 34  2  1  0
 32  5  1  0
 30 12  1  0
 28 20  1  0
 27 23  1  0
  1 35  1  0
  1 36  1  0
  1 37  1  0
  2 38  1  1
  3 39  1  0
  3 40  1  0
  4 41  1  0
  4 42  1  0
  6 43  1  0
  7 44  1  0
 13 45  1  0
 14 46  1  0
 16 47  1  0
 16 48  1  0
 21 49  1  0
 26 50  1  0
 28 51  1  0
 29 52  1  0
 30 53  1  0
 31 54  1  0
 33 55  1  0
 33 56  1  0
 34 57  1  0
 34 58  1  0
M  CHG  3   2   1  17  -1  24  -1
M  END
>  <UniqueID>  (34) 
32

>  <SMILES>  (34) 
C[N@H+]1CCc2ccc(S(=O)(=O)c3ccc(C[N-]C(=O)c4cnc5[n-]ncc5c4)cc3)cc2CC1

>  <Energy>  (34) 
116.3168646653734

>  <Genealogy>  (34) 
C[NH+]1CCc2ccc(S(=O)(=O)c3ccc(C[N-]C(=O)c4cnc5[n-]ncc5c4)cc3)cc2CC1 (protonated)
C[N@H+]1CCc2ccc(S(=O)(=O)c3ccc(C[N-]C(=O)c4cnc5[n-]ncc5c4)cc3)cc2CC1 (chirality)
C[N@H+]1CCc2ccc(S(=O)(=O)c3ccc(C[N-]C(=O)c4cnc5[n-]ncc5c4)cc3)cc2CC1 (3D coordinates assigned)
C[N@H+]1CCc2ccc(S(=O)(=O)c3ccc(C[N-]C(=O)c4cnc5[n-]ncc5c4)cc3)cc2CC1 (nonaromatic ring conformer: 116.3168646653734 kcal/mol)

>  <smiles>  (34) 
CN1CCc2ccc(S(=O)(=O)c3ccc(CNC(=O)c4cnc5[nH]ncc5c4)cc3)cc2CC1

>  <score_type>  (34) 
oracle

>  <origin>  (34) 
adgpu

>  <m_score__min__energy>  (34) 
-11.109999999999999

>  <m_primary>  (34) 
energy

$$$$
34:0
     RDKit          3D

 40 42  0  0  0  0  0  0  0  0999 V2000
   -8.8030   19.3430  -31.3590 C   0  0  0  0  0  0  0  0  0  0  0  0
   -7.5670   20.0560  -31.8220 C   0  0  0  0  0  0  0  0  0  0  0  0
   -6.8920   19.6230  -32.9690 C   0  0  0  0  0  0  0  0  0  0  0  0
   -5.7660   20.3100  -33.4230 C   0  0  0  0  0  0  0  0  0  0  0  0
   -5.3000   21.4440  -32.7450 C   0  0  0  0  0  0  0  0  0  0  0  0
   -3.8280   22.2600  -33.3830 S   0  0  0  0  0  0  0  0  0  0  0  0
   -2.7010   21.1140  -32.5890 C   0  0  0  0  0  0  0  0  0  0  0  0
   -2.0900   21.4610  -31.3770 C   0  0  0  0  0  0  0  0  0  0  0  0
   -1.2130   20.5690  -30.7540 C   0  0  0  0  0  0  0  0  0  0  0  0
   -0.9320   19.3330  -31.3460 C   0  0  0  0  0  0  0  0  0  0  0  0
   -0.0800   18.4700  -30.7420 F   0  0  0  0  0  0  0  0  0  0  0  0
   -1.5270   18.9910  -32.5660 C   0  0  0  0  0  0  0  0  0  0  0  0
   -2.4070   19.8830  -33.1890 C   0  0  0  0  0  0  0  0  0  0  0  0
   -5.9880   21.9050  -31.5980 C   0  0  0  0  0  0  0  0  0  0  0  0
   -5.5580   23.0750  -30.8760 N   0  0  0  0  0  0  0  0  0  0  0  0
   -4.7260   22.9500  -29.6730 C   0  0  0  0  0  0  0  0  0  0  0  0
   -3.5800   23.9840  -29.6800 C   0  0  0  0  0  0  0  0  0  0  0  0
   -3.9100   25.2550  -30.3590 N   0  0  0  0  0  0  0  0  0  0  0  0
   -5.3510   25.4960  -30.4730 C   0  0  0  0  0  0  0  0  0  0  0  0
   -5.9760   24.4040  -31.3400 C   0  0  0  0  0  0  0  0  0  0  0  0
   -7.1220   21.2040  -31.1520 C   0  0  0  0  0  0  0  0  0  0  0  0
   -8.8278   19.3287  -30.2594 H   0  0  0  0  0  0  0  0  0  0  0  0
   -9.6925   19.8667  -31.7391 H   0  0  0  0  0  0  0  0  0  0  0  0
   -8.7950   18.3108  -31.7391 H   0  0  0  0  0  0  0  0  0  0  0  0
   -7.2507   18.7377  -33.5145 H   0  0  0  0  0  0  0  0  0  0  0  0
   -5.2389   19.9580  -34.3220 H   0  0  0  0  0  0  0  0  0  0  0  0
   -2.3008   22.4368  -30.9152 H   0  0  0  0  0  0  0  0  0  0  0  0
   -0.7430   20.8391  -29.7968 H   0  0  0  0  0  0  0  0  0  0  0  0
   -1.3029   18.0215  -33.0348 H   0  0  0  0  0  0  0  0  0  0  0  0
   -2.8686   19.6170  -34.1514 H   0  0  0  0  0  0  0  0  0  0  0  0
   -5.3527   23.1144  -28.7841 H   0  0  0  0  0  0  0  0  0  0  0  0
   -4.2867   21.9417  -29.6553 H   0  0  0  0  0  0  0  0  0  0  0  0
   -3.3138   24.2100  -28.6369 H   0  0  0  0  0  0  0  0  0  0  0  0
   -2.7516   23.5315  -30.2449 H   0  0  0  0  0  0  0  0  0  0  0  0
   -3.4900   26.0450  -29.8160 H   0  0  0  0  0  0  0  0  0  0  0  0
   -5.8074   25.4775  -29.4723 H   0  0  0  0  0  0  0  0  0  0  0  0
   -5.5259   26.4793  -30.9341 H   0  0  0  0  0  0  0  0  0  0  0  0
   -7.0719   24.4792  -31.2822 H   0  0  0  0  0  0  0  0  0  0  0  0
   -5.6402   24.5394  -32.3787 H   0  0  0  0  0  0  0  0  0  0  0  0
   -7.6672   21.5610  -30.2658 H   0  0  0  0  0  0  0  0  0  0  0  0
  1  2  1  0
  2  3  2  0
  3  4  1  0
  4  5  2  0
  5  6  1  0
  6  7  1  0
  7  8  2  0
  8  9  1  0
  9 10  2  0
 10 11  1  0
 10 12  1  0
 12 13  2  0
  5 14  1  0
 14 15  1  0
 15 16  1  0
 16 17  1  0
 17 18  1  0
 18 19  1  0
 19 20  1  0
 14 21  2  0
 21  2  1  0
 13  7  1  0
 20 15  1  0
  1 22  1  0
  1 23  1  0
  1 24  1  0
  3 25  1  0
  4 26  1  0
  8 27  1  0
  9 28  1  0
 12 29  1  0
 13 30  1  0
 16 31  1  0
 16 32  1  0
 17 33  1  0
 17 34  1  0
 18 35  1  0
 19 36  1  0
 19 37  1  0
 20 38  1  0
 20 39  1  0
 21 40  1  0
M  END
>  <UniqueID>  (35) 
33

>  <SMILES>  (35) 
Cc1ccc(Sc2ccc(F)cc2)c(N2CCNCC2)c1

>  <Energy>  (35) 
44.52506908547585

>  <Genealogy>  (35) 
Cc1ccc(Sc2ccc(F)cc2)c(N2CCNCC2)c1 (3D coordinates assigned)
Cc1ccc(Sc2ccc(F)cc2)c(N2CCNCC2)c1 (nonaromatic ring conformer: 44.52506908547585 kcal/mol)

>  <smiles>  (35) 
Cc1ccc(Sc2ccc(F)cc2)c(N2CCNCC2)c1

>  <score_type>  (35) 
oracle

>  <origin>  (35) 
adgpu

>  <m_score__min__energy>  (35) 
-7.6299999999999999

>  <m_primary>  (35) 
energy

$$$$
35:0
     RDKit          3D

 53 56  0  0  0  0  0  0  0  0999 V2000
   -9.4600   21.1730  -31.2600 C   0  0  0  0  0  0  0  0  0  0  0  0
   -8.0510   21.3680  -31.2020 O   0  0  0  0  0  0  0  0  0  0  0  0
   -7.1250   20.7130  -32.0310 C   0  0  0  0  0  0  0  0  0  0  0  0
   -7.4080   19.4690  -32.6290 C   0  0  0  0  0  0  0  0  0  0  0  0
   -6.4630   18.8460  -33.4490 C   0  0  0  0  0  0  0  0  0  0  0  0
   -5.2320   19.4560  -33.6820 C   0  0  0  0  0  0  0  0  0  0  0  0
   -4.9390   20.6900  -33.0970 C   0  0  0  0  0  0  0  0  0  0  0  0
   -5.8810   21.3220  -32.2740 C   0  0  0  0  0  0  0  0  0  0  0  0
   -5.5610   22.6270  -31.6710 C   0  0  0  0  0  0  0  0  0  0  0  0
   -4.3460   22.7820  -30.9860 C   0  0  0  0  0  0  0  0  0  0  0  0
   -4.0120   24.0080  -30.3850 C   0  0  0  0  0  0  0  0  0  0  0  0
   -2.7120   24.2040  -29.7030 C   0  0  0  0  0  0  0  0  0  0  0  0
   -2.4430   25.2880  -28.9520 N   0  0  0  0  0  0  0  0  0  0  0  0
   -1.1550   25.1280  -28.5920 C   0  0  0  0  0  0  0  0  0  0  0  0
   -0.2820   26.2920  -27.5500 S   0  0  0  0  0  0  0  0  0  0  0  0
   -1.4520   26.1110  -26.1690 C   0  0  0  0  0  0  0  0  0  0  0  0
   -0.5880   24.0010  -29.0660 N   0  0  0  0  0  0  0  0  0  0  0  0
   -1.5740   23.4120  -29.7660 C   0  0  0  0  0  0  0  0  0  0  0  0
   -1.4230   22.0740  -30.3680 C   0  0  0  0  0  0  0  0  0  0  0  0
   -1.5210   21.9210  -31.7570 C   0  0  0  0  0  0  0  0  0  0  0  0
   -1.3200   20.6700  -32.3440 C   0  0  0  0  0  0  0  0  0  0  0  0
   -0.9970   19.5540  -31.5620 C   0  0  0  0  0  0  0  0  0  0  0  0
   -0.7550   18.3090  -32.2410 N   0  0  0  0  0  0  0  0  0  0  0  0
   -1.6350   17.5200  -33.0520 C   0  0  0  0  0  0  0  0  0  0  0  0
   -2.2200   18.1210  -34.2860 C   0  0  0  0  0  0  0  0  0  0  0  0
   -1.9680   16.3540  -32.7190 O   0  0  0  0  0  0  0  0  0  0  0  0
   -0.8810   19.7120  -30.1660 C   0  0  0  0  0  0  0  0  0  0  0  0
   -1.1000   20.9610  -29.5740 C   0  0  0  0  0  0  0  0  0  0  0  0
   -4.8990   25.0900  -30.5080 C   0  0  0  0  0  0  0  0  0  0  0  0
   -6.1060   24.9420  -31.1950 C   0  0  0  0  0  0  0  0  0  0  0  0
   -6.4480   23.7190  -31.7750 C   0  0  0  0  0  0  0  0  0  0  0  0
   -7.6700   23.6140  -32.4430 O   0  0  0  0  0  0  0  0  0  0  0  0
   -9.8648   21.1170  -30.2387 H   0  0  0  0  0  0  0  0  0  0  0  0
   -9.9251   22.0153  -31.7931 H   0  0  0  0  0  0  0  0  0  0  0  0
   -9.6789   20.2360  -31.7931 H   0  0  0  0  0  0  0  0  0  0  0  0
   -8.3792   18.9848  -32.4493 H   0  0  0  0  0  0  0  0  0  0  0  0
   -6.6911   17.8739  -33.9105 H   0  0  0  0  0  0  0  0  0  0  0  0
   -4.4895   18.9647  -34.3280 H   0  0  0  0  0  0  0  0  0  0  0  0
   -3.9656   21.1674  -33.2829 H   0  0  0  0  0  0  0  0  0  0  0  0
   -3.6475   21.9349  -30.9187 H   0  0  0  0  0  0  0  0  0  0  0  0
   -0.9097   26.1949  -25.2156 H   0  0  0  0  0  0  0  0  0  0  0  0
   -2.2142   26.9019  -26.2281 H   0  0  0  0  0  0  0  0  0  0  0  0
   -1.9396   25.1267  -26.2281 H   0  0  0  0  0  0  0  0  0  0  0  0
   -1.7574   22.7903  -32.3882 H   0  0  0  0  0  0  0  0  0  0  0  0
   -1.4166   20.5597  -33.4342 H   0  0  0  0  0  0  0  0  0  0  0  0
   -2.9620   18.8833  -34.0063 H   0  0  0  0  0  0  0  0  0  0  0  0
   -1.4210   18.5878  -34.8807 H   0  0  0  0  0  0  0  0  0  0  0  0
   -2.7082   17.3349  -34.8807 H   0  0  0  0  0  0  0  0  0  0  0  0
   -0.6167   18.8483  -29.5382 H   0  0  0  0  0  0  0  0  0  0  0  0
   -1.0189   21.0717  -28.4826 H   0  0  0  0  0  0  0  0  0  0  0  0
   -4.6412   26.0610  -30.0600 H   0  0  0  0  0  0  0  0  0  0  0  0
   -6.7933   25.7967  -31.2798 H   0  0  0  0  0  0  0  0  0  0  0  0
   -8.3610   22.9090  -32.2130 H   0  0  0  0  0  0  0  0  0  0  0  0
  1  2  1  0
  2  3  1  0
  3  4  2  0
  4  5  1  0
  5  6  2  0
  6  7  1  0
  7  8  2  0
  8  9  1  0
  9 10  2  0
 10 11  1  0
 11 12  1  0
 12 13  1  0
 13 14  2  0
 14 15  1  0
 15 16  1  0
 14 17  1  0
 17 18  1  0
 18 19  1  0
 19 20  2  0
 20 21  1  0
 21 22  2  0
 22 23  1  0
 23 24  1  0
 24 25  1  0
 24 26  2  0
 22 27  1  0
 27 28  2  0
 11 29  2  0
 29 30  1  0
 30 31  2  0
 31 32  1  0
  8  3  1  0
 31  9  1  0
 18 12  2  0
 28 19  1  0
  1 33  1  0
  1 34  1  0
  1 35  1  0
  4 36  1  0
  5 37  1  0
  6 38  1  0
  7 39  1  0
 10 40  1  0
 16 41  1  0
 16 42  1  0
 16 43  1  0
 20 44  1  0
 21 45  1  0
 25 46  1  0
 25 47  1  0
 25 48  1  0
 27 49  1  0
 28 50  1  0
 29 51  1  0
 30 52  1  0
 32 53  1  0
M  CHG  2  17  -1  23  -1
M  END
>  <UniqueID>  (36) 
34

>  <SMILES>  (36) 
COc1ccccc1-c1cc(-c2nc(SC)[n-]c2-c2ccc([N-]C(C)=O)cc2)ccc1O

>  <Energy>  (36) 
97.06582869790985

>  <Genealogy>  (36) 
COc1ccccc1-c1cc(-c2nc(SC)[n-]c2-c2ccc([N-]C(C)=O)cc2)ccc1O (protonated)
COc1ccccc1-c1cc(-c2nc(SC)[n-]c2-c2ccc([N-]C(C)=O)cc2)ccc1O (3D coordinates assigned)
COc1ccccc1-c1cc(-c2nc(SC)[n-]c2-c2ccc([N-]C(C)=O)cc2)ccc1O (optimized conformer: 97.06582869790985 kcal/mol)

>  <smiles>  (36) 
COc1ccccc1-c1cc(-c2nc(SC)[nH]c2-c2ccc(NC(C)=O)cc2)ccc1O

>  <score_type>  (36) 
oracle

>  <origin>  (36) 
adgpu

>  <m_score__min__energy>  (36) 
-9.9700000000000006

>  <m_primary>  (36) 
energy

$$$$
36:0
     RDKit          3D

 52 55  0  0  0  0  0  0  0  0999 V2000
   -2.7940   19.1230  -33.8330 C   0  0  0  0  0  0  0  0  0  0  0  0
   -3.4620   20.4030  -33.4410 C   0  0  0  0  0  0  0  0  0  0  0  0
   -2.8010   21.4750  -33.4920 O   0  0  0  0  0  0  0  0  0  0  0  0
   -4.8530   20.4190  -33.0650 N   0  0  0  0  0  0  0  0  0  0  0  0
   -5.8260   19.4150  -33.5000 C   0  0  0  0  0  0  0  0  0  0  0  0
   -7.2180   19.9600  -33.1050 C   0  0  0  0  0  0  0  0  0  0  0  0
   -6.9050   21.2490  -32.4320 C   0  0  0  0  0  0  0  0  0  0  0  0
   -7.8010   22.1500  -31.8560 C   0  0  0  0  0  0  0  0  0  0  0  0
   -7.2930   23.3060  -31.2460 C   0  0  0  0  0  0  0  0  0  0  0  0
   -5.9030   23.5350  -31.2060 C   0  0  0  0  0  0  0  0  0  0  0  0
   -5.2510   24.9750  -30.4280 S   0  0  0  0  0  0  0  0  0  0  0  0
   -5.7740   25.1140  -29.0240 O   0  0  0  0  0  0  0  0  0  0  0  0
   -5.6750   26.1830  -31.2140 O   0  0  0  0  0  0  0  0  0  0  0  0
   -3.5180   24.8950  -30.3990 N   0  0  0  0  0  0  0  0  0  0  0  0
   -2.7220   24.5260  -29.2650 C   0  0  0  0  0  0  0  0  0  0  0  0
   -1.5870   25.2880  -28.9690 C   0  0  0  0  0  0  0  0  0  0  0  0
   -0.7870   24.9740  -27.8660 C   0  0  0  0  0  0  0  0  0  0  0  0
   -1.1200   23.8930  -27.0370 C   0  0  0  0  0  0  0  0  0  0  0  0
   -0.1120   23.4920  -25.6420 S   0  0  0  0  0  0  0  0  0  0  0  0
   -0.6080   22.2130  -25.0310 O   0  0  0  0  0  0  0  0  0  0  0  0
    1.2990   23.2670  -26.1100 O   0  0  0  0  0  0  0  0  0  0  0  0
   -0.1160   24.7390  -24.4170 N   0  0  0  0  0  0  0  0  0  0  0  0
   -1.2330   25.6690  -24.5740 C   0  0  0  0  0  0  0  0  0  0  0  0
   -0.7870   26.9930  -23.9680 C   0  0  0  0  0  0  0  0  0  0  0  0
    0.7260   26.8950  -23.8440 C   0  0  0  0  0  0  0  0  0  0  0  0
    1.0910   25.5610  -24.4720 C   0  0  0  0  0  0  0  0  0  0  0  0
   -2.2490   23.1180  -27.3380 C   0  0  0  0  0  0  0  0  0  0  0  0
   -3.0480   23.4330  -28.4410 C   0  0  0  0  0  0  0  0  0  0  0  0
   -5.0210   22.6060  -31.7890 C   0  0  0  0  0  0  0  0  0  0  0  0
   -5.5570   21.4760  -32.4220 C   0  0  0  0  0  0  0  0  0  0  0  0
   -2.5046   18.5684  -32.9282 H   0  0  0  0  0  0  0  0  0  0  0  0
   -3.4894   18.5142  -34.4295 H   0  0  0  0  0  0  0  0  0  0  0  0
   -1.8969   19.3453  -34.4295 H   0  0  0  0  0  0  0  0  0  0  0  0
   -5.7671   19.2744  -34.5894 H   0  0  0  0  0  0  0  0  0  0  0  0
   -5.6307   18.4394  -33.0308 H   0  0  0  0  0  0  0  0  0  0  0  0
   -7.8442   20.1223  -33.9947 H   0  0  0  0  0  0  0  0  0  0  0  0
   -7.7845   19.2677  -32.4649 H   0  0  0  0  0  0  0  0  0  0  0  0
   -8.8838   21.9576  -31.8799 H   0  0  0  0  0  0  0  0  0  0  0  0
   -7.9819   24.0367  -30.7971 H   0  0  0  0  0  0  0  0  0  0  0  0
   -1.3214   26.1419  -29.6096 H   0  0  0  0  0  0  0  0  0  0  0  0
    0.1067   25.5770  -27.6478 H   0  0  0  0  0  0  0  0  0  0  0  0
   -1.4701   25.8005  -25.6401 H   0  0  0  0  0  0  0  0  0  0  0  0
   -2.1373   25.2898  -24.0755 H   0  0  0  0  0  0  0  0  0  0  0  0
   -1.0653   27.8297  -24.6256 H   0  0  0  0  0  0  0  0  0  0  0  0
   -1.2648   27.1774  -22.9945 H   0  0  0  0  0  0  0  0  0  0  0  0
    1.2117   27.7213  -24.3838 H   0  0  0  0  0  0  0  0  0  0  0  0
    1.0581   26.9615  -22.7974 H   0  0  0  0  0  0  0  0  0  0  0  0
    1.4068   25.7049  -25.5158 H   0  0  0  0  0  0  0  0  0  0  0  0
    1.9257   25.0826  -23.9387 H   0  0  0  0  0  0  0  0  0  0  0  0
   -2.5073   22.2577  -26.7030 H   0  0  0  0  0  0  0  0  0  0  0  0
   -3.9357   22.8236  -28.6658 H   0  0  0  0  0  0  0  0  0  0  0  0
   -3.9331   22.7635  -31.7487 H   0  0  0  0  0  0  0  0  0  0  0  0
  1  2  1  0
  2  3  2  0
  2  4  1  0
  4  5  1  0
  5  6  1  0
  6  7  1  0
  7  8  2  0
  8  9  1  0
  9 10  2  0
 10 11  1  0
 11 12  2  0
 11 13  2  0
 11 14  1  0
 14 15  1  0
 15 16  2  0
 16 17  1  0
 17 18  2  0
 18 19  1  0
 19 20  2  0
 19 21  2  0
 19 22  1  0
 22 23  1  0
 23 24  1  0
 24 25  1  0
 25 26  1  0
 18 27  1  0
 27 28  2  0
 10 29  1  0
 29 30  2  0
 30  4  1  0
 30  7  1  0
 28 15  1  0
 26 22  1  0
  1 31  1  0
  1 32  1  0
  1 33  1  0
  5 34  1  0
  5 35  1  0
  6 36  1  0
  6 37  1  0
  8 38  1  0
  9 39  1  0
 16 40  1  0
 17 41  1  0
 23 42  1  0
 23 43  1  0
 24 44  1  0
 24 45  1  0
 25 46  1  0
 25 47  1  0
 26 48  1  0
 26 49  1  0
 27 50  1  0
 28 51  1  0
 29 52  1  0
M  CHG  1  14  -1
M  END
>  <UniqueID>  (37) 
35

>  <SMILES>  (37) 
CC(=O)N1CCc2ccc(S(=O)(=O)[N-]c3ccc(S(=O)(=O)N4CCCC4)cc3)cc21

>  <Energy>  (37) 
73.71599867120182

>  <Genealogy>  (37) 
CC(=O)N1CCc2ccc(S(=O)(=O)[N-]c3ccc(S(=O)(=O)N4CCCC4)cc3)cc21 (protonated)
CC(=O)N1CCc2ccc(S(=O)(=O)[N-]c3ccc(S(=O)(=O)N4CCCC4)cc3)cc21 (3D coordinates assigned)
CC(=O)N1CCc2ccc(S(=O)(=O)[N-]c3ccc(S(=O)(=O)N4CCCC4)cc3)cc21 (nonaromatic ring conformer: 73.71599867120182 kcal/mol)

>  <smiles>  (37) 
CC(=O)N1CCc2ccc(S(=O)(=O)Nc3ccc(S(=O)(=O)N4CCCC4)cc3)cc21

>  <score_type>  (37) 
oracle

>  <origin>  (37) 
adgpu

>  <m_score__min__energy>  (37) 
-12.33

>  <m_primary>  (37) 
energy

$$$$
37:0
     RDKit          3D

 65 68  0  0  0  0  0  0  0  0999 V2000
   -9.4820   22.2850  -31.5960 C   0  0  0  0  0  0  0  0  0  0  0  0
   -7.9920   22.2340  -31.3800 C   0  0  0  0  0  0  0  0  0  0  0  0
   -7.3510   23.3540  -30.8290 C   0  0  0  0  0  0  0  0  0  0  0  0
   -5.9640   23.3780  -30.6060 C   0  0  0  0  0  0  0  0  0  0  0  0
   -5.2610   24.8480  -29.8900 S   0  0  0  0  0  0  0  0  0  0  0  0
   -4.4250   24.5110  -28.3520 C   0  0  0  0  0  0  0  0  0  0  0  0
   -6.3300   25.8570  -29.5850 O   0  0  0  0  0  0  0  0  0  0  0  0
   -4.2630   25.4430  -30.8430 O   0  0  0  0  0  0  0  0  0  0  0  0
   -5.2000   22.2230  -30.9260 C   0  0  0  0  0  0  0  0  0  0  0  0
   -3.4480   22.0980  -30.6530 S   0  0  0  0  0  0  0  0  0  0  0  0
   -3.1940   21.6280  -29.2490 O   0  0  0  0  0  0  0  0  0  0  0  0
   -2.7990   23.4450  -30.8120 O   0  0  0  0  0  0  0  0  0  0  0  0
   -2.7030   21.0230  -31.8300 C   0  0  0  0  0  0  0  0  0  0  0  0
   -2.9370   21.1880  -33.2030 C   0  0  0  0  0  0  0  0  0  0  0  0
   -2.3380   20.3250  -34.1260 C   0  0  0  0  0  0  0  0  0  0  0  0
   -1.5070   19.2910  -33.6820 C   0  0  0  0  0  0  0  0  0  0  0  0
   -1.2790   19.1180  -32.3140 C   0  0  0  0  0  0  0  0  0  0  0  0
   -1.8770   19.9780  -31.3880 C   0  0  0  0  0  0  0  0  0  0  0  0
   -5.8490   21.1040  -31.4670 C   0  0  0  0  0  0  0  0  0  0  0  0
   -7.2340   21.0820  -31.6760 C   0  0  0  0  0  0  0  0  0  0  0  0
   -7.9810   19.6060  -32.3200 S   0  0  0  0  0  0  0  0  0  0  0  0
   -8.7480   18.8900  -31.2430 O   0  0  0  0  0  0  0  0  0  0  0  0
   -8.9290   19.9810  -33.4250 O   0  0  0  0  0  0  0  0  0  0  0  0
   -6.7520   18.4950  -32.9360 C   0  0  0  0  0  0  0  0  0  0  0  0
   -6.7900   17.1390  -32.5850 C   0  0  0  0  0  0  0  0  0  0  0  0
   -5.8530   16.2470  -33.1120 C   0  0  0  0  0  0  0  0  0  0  0  0
   -4.8610   16.6970  -33.9970 C   0  0  0  0  0  0  0  0  0  0  0  0
   -3.9170   15.7710  -34.5710 N   0  0  0  0  0  0  0  0  0  0  0  0
   -3.7740   14.4230  -34.0140 C   0  0  0  0  0  0  0  0  0  0  0  0
   -2.3970   13.8320  -34.3660 C   0  0  0  0  0  0  0  0  0  0  0  0
   -1.3320   14.8630  -34.3490 N   0  0  0  0  0  0  0  0  0  0  0  0
   -1.1120   15.3910  -32.9880 C   0  0  0  0  0  0  0  0  0  0  0  0
   -1.5730   15.9620  -35.3280 C   0  0  0  0  0  0  0  0  0  0  0  0
   -3.0580   16.1570  -35.6940 C   0  0  0  0  0  0  0  0  0  0  0  0
   -4.8290   18.0550  -34.3540 C   0  0  0  0  0  0  0  0  0  0  0  0
   -5.7670   18.9500  -33.8290 C   0  0  0  0  0  0  0  0  0  0  0  0
   -5.7200   20.2860  -34.2120 O   0  0  0  0  0  0  0  0  0  0  0  0
   -9.9933   22.3025  -30.6222 H   0  0  0  0  0  0  0  0  0  0  0  0
   -9.7396   23.1925  -32.1618 H   0  0  0  0  0  0  0  0  0  0  0  0
   -9.8011   21.3973  -32.1618 H   0  0  0  0  0  0  0  0  0  0  0  0
   -7.9508   24.2373  -30.5644 H   0  0  0  0  0  0  0  0  0  0  0  0
   -5.0829   24.7762  -27.5113 H   0  0  0  0  0  0  0  0  0  0  0  0
   -4.1739   23.4414  -28.2978 H   0  0  0  0  0  0  0  0  0  0  0  0
   -3.5023   25.1074  -28.2978 H   0  0  0  0  0  0  0  0  0  0  0  0
   -3.5931   21.9979  -33.5545 H   0  0  0  0  0  0  0  0  0  0  0  0
   -2.5205   20.4594  -35.2024 H   0  0  0  0  0  0  0  0  0  0  0  0
   -1.0334   18.6147  -34.4089 H   0  0  0  0  0  0  0  0  0  0  0  0
   -0.6275   18.3033  -31.9650 H   0  0  0  0  0  0  0  0  0  0  0  0
   -1.6999   19.8354  -30.3118 H   0  0  0  0  0  0  0  0  0  0  0  0
   -5.2539   20.2185  -31.7348 H   0  0  0  0  0  0  0  0  0  0  0  0
   -7.5617   16.7750  -31.8908 H   0  0  0  0  0  0  0  0  0  0  0  0
   -5.8929   15.1842  -32.8313 H   0  0  0  0  0  0  0  0  0  0  0  0
   -3.8771   14.4716  -32.9199 H   0  0  0  0  0  0  0  0  0  0  0  0
   -4.5555   13.7785  -34.4428 H   0  0  0  0  0  0  0  0  0  0  0  0
   -2.1474   13.0508  -33.6329 H   0  0  0  0  0  0  0  0  0  0  0  0
   -2.4540   13.4176  -35.3834 H   0  0  0  0  0  0  0  0  0  0  0  0
   -0.4420   14.3820  -34.6250 H   0  0  0  0  0  0  0  0  0  0  0  0
   -1.4251   14.6396  -32.2482 H   0  0  0  0  0  0  0  0  0  0  0  0
   -0.0444   15.6180  -32.8509 H   0  0  0  0  0  0  0  0  0  0  0  0
   -1.7026   16.3088  -32.8509 H   0  0  0  0  0  0  0  0  0  0  0  0
   -1.1967   16.9005  -34.8949 H   0  0  0  0  0  0  0  0  0  0  0  0
   -1.0491   15.6851  -36.2547 H   0  0  0  0  0  0  0  0  0  0  0  0
   -3.2349   17.2148  -35.9385 H   0  0  0  0  0  0  0  0  0  0  0  0
   -3.2977   15.5230  -36.5604 H   0  0  0  0  0  0  0  0  0  0  0  0
   -4.0601   18.4176  -35.0521 H   0  0  0  0  0  0  0  0  0  0  0  0
  1  2  1  0
  2  3  2  0
  3  4  1  0
  4  5  1  0
  5  6  1  0
  5  7  2  0
  5  8  2  0
  4  9  2  0
  9 10  1  0
 10 11  2  0
 10 12  2  0
 10 13  1  0
 13 14  2  0
 14 15  1  0
 15 16  2  0
 16 17  1  0
 17 18  2  0
  9 19  1  0
 19 20  2  0
 20 21  1  0
 21 22  2  0
 21 23  2  0
 21 24  1  0
 24 25  2  0
 25 26  1  0
 26 27  2  0
 27 28  1  0
 28 29  1  0
 29 30  1  0
 30 31  1  0
 31 32  1  0
 31 33  1  0
 33 34  1  0
 27 35  1  0
 35 36  2  0
 36 37  1  0
 20  2  1  0
 36 24  1  0
 18 13  1  0
 34 28  1  0
  1 38  1  0
  1 39  1  0
  1 40  1  0
  3 41  1  0
  6 42  1  0
  6 43  1  0
  6 44  1  0
 14 45  1  0
 15 46  1  0
 16 47  1  0
 17 48  1  0
 18 49  1  0
 19 50  1  0
 25 51  1  0
 26 52  1  0
 29 53  1  0
 29 54  1  0
 30 55  1  0
 30 56  1  0
 31 57  1  0
 32 58  1  0
 32 59  1  0
 32 60  1  0
 33 61  1  0
 33 62  1  0
 34 63  1  0
 34 64  1  0
 35 65  1  0
M  CHG  2  31   1  37  -1
M  END
>  <UniqueID>  (38) 
36

>  <SMILES>  (38) 
Cc1cc(S(C)(=O)=O)c(S(=O)(=O)c2ccccc2)cc1S(=O)(=O)c1ccc(N2CC[NH+](C)CC2)cc1[O-]

>  <Energy>  (38) 
87.75997839467458

>  <Genealogy>  (38) 
Cc1cc(S(C)(=O)=O)c(S(=O)(=O)c2ccccc2)cc1S(=O)(=O)c1ccc(N2CC[NH+](C)CC2)cc1[O-] (protonated)
Cc1cc(S(C)(=O)=O)c(S(=O)(=O)c2ccccc2)cc1S(=O)(=O)c1ccc(N2CC[NH+](C)CC2)cc1[O-] (3D coordinates assigned)
Cc1cc(S(C)(=O)=O)c(S(=O)(=O)c2ccccc2)cc1S(=O)(=O)c1ccc(N2CC[NH+](C)CC2)cc1[O-] (nonaromatic ring conformer: 87.75997839467458 kcal/mol)

>  <smiles>  (38) 
Cc1cc(S(C)(=O)=O)c(S(=O)(=O)c2ccccc2)cc1S(=O)(=O)c1ccc(N2CCN(C)CC2)cc1O

>  <score_type>  (38) 
oracle

>  <origin>  (38) 
adgpu

>  <m_score__min__energy>  (38) 
-13.4

>  <m_primary>  (38) 
energy

$$$$
38:0
     RDKit          3D

 62 65  0  0  0  0  0  0  0  0999 V2000
   -9.4020   20.0630  -32.5940 C   0  0  0  0  0  0  0  0  0  0  0  0
   -9.4220   20.5840  -31.2830 O   0  0  0  0  0  0  0  0  0  0  0  0
   -9.0890   21.9620  -31.2870 C   0  0  0  0  0  0  0  0  0  0  0  0
   -7.7810   22.1930  -30.5240 C   0  0  0  0  0  0  0  0  0  0  0  0
   -6.6250   21.8300  -31.3520 N   0  0  0  0  0  0  0  0  0  0  0  0
   -5.7640   22.6480  -32.0070 C   0  0  0  0  0  0  0  0  0  0  0  0
   -5.7560   24.1510  -31.9650 C   0  0  0  0  0  0  0  0  0  0  0  0
   -5.0340   24.6440  -30.7400 C   0  0  0  0  0  0  0  0  0  0  0  0
   -5.6500   25.3480  -29.8970 O   0  0  0  0  0  0  0  0  0  0  0  0
   -3.6630   24.3050  -30.4930 N   0  0  0  0  0  0  0  0  0  0  0  0
   -3.2030   23.2430  -29.6460 C   0  0  0  0  0  0  0  0  0  0  0  0
   -2.9930   21.9460  -30.1480 C   0  0  0  0  0  0  0  0  0  0  0  0
   -2.5110   20.9370  -29.3080 C   0  0  0  0  0  0  0  0  0  0  0  0
   -2.2370   21.2090  -27.9610 C   0  0  0  0  0  0  0  0  0  0  0  0
   -1.6550   19.9260  -26.8950 S   0  0  0  0  0  0  0  0  0  0  0  0
   -1.6020   20.4410  -25.4820 O   0  0  0  0  0  0  0  0  0  0  0  0
   -2.6210   18.7740  -26.9340 O   0  0  0  0  0  0  0  0  0  0  0  0
   -0.0690   19.3600  -27.3700 N   0  0  0  0  0  0  0  0  0  0  0  0
   -0.1240   17.9960  -27.9410 C   0  0  0  0  0  0  0  0  0  0  0  0
    0.0190   18.0060  -29.4750 C   0  0  0  0  0  0  0  0  0  0  0  0
    1.2340   18.5990  -29.9190 O   0  0  0  0  0  0  0  0  0  0  0  0
    1.6910   19.6640  -29.0910 C   0  0  0  0  0  0  0  0  0  0  0  0
    0.5790   20.3370  -28.2650 C   0  0  0  0  0  0  0  0  0  0  0  0
   -2.4210   22.5100  -27.4680 C   0  0  0  0  0  0  0  0  0  0  0  0
   -2.8890   23.5220  -28.3110 C   0  0  0  0  0  0  0  0  0  0  0  0
   -4.8690   21.8590  -32.7060 C   0  0  0  0  0  0  0  0  0  0  0  0
   -3.8360   22.3240  -33.5150 O   0  0  0  0  0  0  0  0  0  0  0  0
   -5.1680   20.5570  -32.5140 N   0  0  0  0  0  0  0  0  0  0  0  0
   -4.4980   19.4100  -33.0700 C   0  0  0  0  0  0  0  0  0  0  0  0
   -3.1230   19.2130  -32.8520 C   0  0  0  0  0  0  0  0  0  0  0  0
   -2.4740   18.0990  -33.3940 C   0  0  0  0  0  0  0  0  0  0  0  0
   -3.1900   17.1740  -34.1600 C   0  0  0  0  0  0  0  0  0  0  0  0
   -2.3740   15.7750  -34.8390 Cl  0  0  0  0  0  0  0  0  0  0  0  0
   -4.5570   17.3620  -34.3830 C   0  0  0  0  0  0  0  0  0  0  0  0
   -5.2100   18.4730  -33.8400 C   0  0  0  0  0  0  0  0  0  0  0  0
   -6.2440   20.5760  -31.6900 C   0  0  0  0  0  0  0  0  0  0  0  0
   -6.8200   19.5360  -31.2670 O   0  0  0  0  0  0  0  0  0  0  0  0
   -9.3598   18.9646  -32.5515 H   0  0  0  0  0  0  0  0  0  0  0  0
  -10.3128   20.3746  -33.1263 H   0  0  0  0  0  0  0  0  0  0  0  0
   -8.5178   20.4435  -33.1263 H   0  0  0  0  0  0  0  0  0  0  0  0
   -8.9688   22.3036  -32.3257 H   0  0  0  0  0  0  0  0  0  0  0  0
   -9.8951   22.5272  -30.7963 H   0  0  0  0  0  0  0  0  0  0  0  0
   -7.7074   23.2551  -30.2473 H   0  0  0  0  0  0  0  0  0  0  0  0
   -7.7818   21.5623  -29.6228 H   0  0  0  0  0  0  0  0  0  0  0  0
   -5.2486   24.5348  -32.8624 H   0  0  0  0  0  0  0  0  0  0  0  0
   -6.7953   24.5099  -31.9319 H   0  0  0  0  0  0  0  0  0  0  0  0
   -3.2084   21.7247  -31.2038 H   0  0  0  0  0  0  0  0  0  0  0  0
   -2.3462   19.9251  -29.7066 H   0  0  0  0  0  0  0  0  0  0  0  0
    0.6937   17.3982  -27.5120 H   0  0  0  0  0  0  0  0  0  0  0  0
   -1.1049   17.5637  -27.6941 H   0  0  0  0  0  0  0  0  0  0  0  0
   -0.0163   16.9677  -29.8366 H   0  0  0  0  0  0  0  0  0  0  0  0
   -0.8071   18.6108  -29.8773 H   0  0  0  0  0  0  0  0  0  0  0  0
    2.4437   19.2633  -28.3961 H   0  0  0  0  0  0  0  0  0  0  0  0
    2.1004   20.4345  -29.7608 H   0  0  0  0  0  0  0  0  0  0  0  0
    1.0168   21.1453  -27.6609 H   0  0  0  0  0  0  0  0  0  0  0  0
   -0.1773   20.7420  -28.9535 H   0  0  0  0  0  0  0  0  0  0  0  0
   -2.1962   22.7341  -26.4148 H   0  0  0  0  0  0  0  0  0  0  0  0
   -3.0112   24.5439  -27.9228 H   0  0  0  0  0  0  0  0  0  0  0  0
   -2.5547   19.9389  -32.2520 H   0  0  0  0  0  0  0  0  0  0  0  0
   -1.3985   17.9503  -33.2174 H   0  0  0  0  0  0  0  0  0  0  0  0
   -5.1200   16.6349  -34.9866 H   0  0  0  0  0  0  0  0  0  0  0  0
   -6.2865   18.6148  -34.0161 H   0  0  0  0  0  0  0  0  0  0  0  0
  1  2  1  0
  2  3  1  0
  3  4  1  0
  4  5  1  0
  5  6  1  0
  6  7  1  0
  7  8  1  0
  8  9  2  0
  8 10  1  0
 10 11  1  0
 11 12  2  0
 12 13  1  0
 13 14  2  0
 14 15  1  0
 15 16  2  0
 15 17  2  0
 15 18  1  0
 18 19  1  0
 19 20  1  0
 20 21  1  0
 21 22  1  0
 22 23  1  0
 14 24  1  0
 24 25  2  0
  6 26  2  0
 26 27  1  0
 26 28  1  0
 28 29  1  0
 29 30  2  0
 30 31  1  0
 31 32  2  0
 32 33  1  0
 32 34  1  0
 34 35  2  0
 28 36  1  0
 36 37  2  0
 36  5  1  0
 25 11  1  0
 35 29  1  0
 23 18  1  0
  1 38  1  0
  1 39  1  0
  1 40  1  0
  3 41  1  0
  3 42  1  0
  4 43  1  0
  4 44  1  0
  7 45  1  0
  7 46  1  0
 12 47  1  0
 13 48  1  0
 19 49  1  0
 19 50  1  0
 20 51  1  0
 20 52  1  0
 22 53  1  0
 22 54  1  0
 23 55  1  0
 23 56  1  0
 24 57  1  0
 25 58  1  0
 30 59  1  0
 31 60  1  0
 34 61  1  0
 35 62  1  0
M  CHG  2  10  -1  27  -1
M  END
>  <UniqueID>  (39) 
37

>  <SMILES>  (39) 
COCCn1c(CC(=O)[N-]c2ccc(S(=O)(=O)N3CCOCC3)cc2)c([O-])n(-c2ccc(Cl)cc2)c1=O

>  <Energy>  (39) 
119.05897138927884

>  <Genealogy>  (39) 
COCCn1c(CC(=O)[N-]c2ccc(S(=O)(=O)N3CCOCC3)cc2)c([O-])n(-c2ccc(Cl)cc2)c1=O (protonated)
COCCn1c(CC(=O)[N-]c2ccc(S(=O)(=O)N3CCOCC3)cc2)c([O-])n(-c2ccc(Cl)cc2)c1=O (3D coordinates assigned)
COCCn1c(CC(=O)[N-]c2ccc(S(=O)(=O)N3CCOCC3)cc2)c([O-])n(-c2ccc(Cl)cc2)c1=O (nonaromatic ring conformer: 119.05897138927884 kcal/mol)

>  <smiles>  (39) 
COCCn1c(CC(=O)Nc2ccc(S(=O)(=O)N3CCOCC3)cc2)c(O)n(-c2ccc(Cl)cc2)c1=O

>  <score_type>  (39) 
oracle

>  <origin>  (39) 
adgpu

>  <m_score__min__energy>  (39) 
-14

>  <m_primary>  (39) 
energy

$$$$
39:0
     RDKit          3D

 56 59  0  0  0  0  0  0  0  0999 V2000
   -1.9270   19.8520  -26.4430 C   0  0  0  0  0  0  0  0  0  0  0  0
   -1.1650   19.7840  -27.7050 N   0  0  0  0  0  0  0  0  0  0  0  0
    0.1970   20.3380  -27.5760 C   0  0  0  0  0  0  0  0  0  0  0  0
    0.1880   21.8460  -27.2790 C   0  0  0  0  0  0  0  0  0  0  0  0
   -0.8020   22.5920  -28.1380 C   0  0  0  0  0  0  0  0  0  0  0  0
   -0.7550   23.9930  -28.1800 C   0  0  0  0  0  0  0  0  0  0  0  0
   -1.6820   24.7120  -28.9370 C   0  0  0  0  0  0  0  0  0  0  0  0
   -1.6100   26.1000  -28.9690 O   0  0  0  0  0  0  0  0  0  0  0  0
   -2.6680   24.0420  -29.6710 C   0  0  0  0  0  0  0  0  0  0  0  0
   -3.5660   24.8030  -30.4900 N   0  0  0  0  0  0  0  0  0  0  0  0
   -5.2550   25.0080  -30.1590 S   0  0  0  0  0  0  0  0  0  0  0  0
   -5.4570   25.1800  -28.6800 O   0  0  0  0  0  0  0  0  0  0  0  0
   -5.7540   26.2360  -30.8700 O   0  0  0  0  0  0  0  0  0  0  0  0
   -6.1310   23.6040  -30.7660 C   0  0  0  0  0  0  0  0  0  0  0  0
   -5.4930   22.3580  -30.8030 C   0  0  0  0  0  0  0  0  0  0  0  0
   -6.1940   21.2210  -31.2160 C   0  0  0  0  0  0  0  0  0  0  0  0
   -7.5370   21.3200  -31.6020 C   0  0  0  0  0  0  0  0  0  0  0  0
   -8.4270   19.8750  -32.0910 S   0  0  0  0  0  0  0  0  0  0  0  0
   -8.7740   19.0730  -30.8700 O   0  0  0  0  0  0  0  0  0  0  0  0
   -9.7100   20.2850  -32.7540 O   0  0  0  0  0  0  0  0  0  0  0  0
   -7.4980   18.8860  -33.1930 N   0  0  0  0  0  0  0  0  0  0  0  0
   -6.9340   17.7170  -32.4820 C   0  0  0  0  0  0  0  0  0  0  0  0
   -5.8300   17.0450  -33.3070 C   0  0  0  0  0  0  0  0  0  0  0  0
   -4.6530   18.0080  -33.5580 C   0  0  0  0  0  0  0  0  0  0  0  0
   -5.0630   19.4880  -33.4620 C   0  0  0  0  0  0  0  0  0  0  0  0
   -6.5060   19.6940  -33.9490 C   0  0  0  0  0  0  0  0  0  0  0  0
   -8.1730   22.5700  -31.5760 C   0  0  0  0  0  0  0  0  0  0  0  0
   -7.4720   23.7060  -31.1590 C   0  0  0  0  0  0  0  0  0  0  0  0
   -2.7410   22.6420  -29.6030 C   0  0  0  0  0  0  0  0  0  0  0  0
   -1.8250   21.9140  -28.8290 C   0  0  0  0  0  0  0  0  0  0  0  0
   -1.8970   20.4030  -28.8300 C   0  0  0  0  0  0  0  0  0  0  0  0
   -1.2330   19.7901  -25.5918 H   0  0  0  0  0  0  0  0  0  0  0  0
   -2.4782   20.8029  -26.3983 H   0  0  0  0  0  0  0  0  0  0  0  0
   -2.6378   19.0137  -26.3983 H   0  0  0  0  0  0  0  0  0  0  0  0
    0.7137   19.8190  -26.7552 H   0  0  0  0  0  0  0  0  0  0  0  0
    0.7137   20.1872  -28.5353 H   0  0  0  0  0  0  0  0  0  0  0  0
   -0.0764   21.9969  -26.2220 H   0  0  0  0  0  0  0  0  0  0  0  0
    1.1908   22.2392  -27.5020 H   0  0  0  0  0  0  0  0  0  0  0  0
    0.0188   24.5300  -27.6117 H   0  0  0  0  0  0  0  0  0  0  0  0
   -4.4372   22.2735  -30.5062 H   0  0  0  0  0  0  0  0  0  0  0  0
   -5.6886   20.2442  -31.2379 H   0  0  0  0  0  0  0  0  0  0  0  0
   -6.5122   18.0502  -31.5223 H   0  0  0  0  0  0  0  0  0  0  0  0
   -7.7402   16.9866  -32.3191 H   0  0  0  0  0  0  0  0  0  0  0  0
   -5.4616   16.1635  -32.7618 H   0  0  0  0  0  0  0  0  0  0  0  0
   -6.2527   16.7528  -34.2796 H   0  0  0  0  0  0  0  0  0  0  0  0
   -3.8715   17.8105  -32.8095 H   0  0  0  0  0  0  0  0  0  0  0  0
   -4.2918   17.8300  -34.5816 H   0  0  0  0  0  0  0  0  0  0  0  0
   -4.9871   19.8148  -32.4144 H   0  0  0  0  0  0  0  0  0  0  0  0
   -4.3905   20.0794  -34.1007 H   0  0  0  0  0  0  0  0  0  0  0  0
   -6.7641   20.7576  -33.8388 H   0  0  0  0  0  0  0  0  0  0  0  0
   -6.5477   19.3663  -34.9982 H   0  0  0  0  0  0  0  0  0  0  0  0
   -9.2253   22.6569  -31.8843 H   0  0  0  0  0  0  0  0  0  0  0  0
   -7.9756   24.6838  -31.1395 H   0  0  0  0  0  0  0  0  0  0  0  0
   -3.5246   22.1100  -30.1624 H   0  0  0  0  0  0  0  0  0  0  0  0
   -2.9535   20.1034  -28.7666 H   0  0  0  0  0  0  0  0  0  0  0  0
   -1.4233   20.0540  -29.7594 H   0  0  0  0  0  0  0  0  0  0  0  0
  1  2  1  0
  2  3  1  0
  3  4  1  0
  4  5  1  0
  5  6  2  0
  6  7  1  0
  7  8  1  0
  7  9  2  0
  9 10  1  0
 10 11  1  0
 11 12  2  0
 11 13  2  0
 11 14  1  0
 14 15  2  0
 15 16  1  0
 16 17  2  0
 17 18  1  0
 18 19  2  0
 18 20  2  0
 18 21  1  0
 21 22  1  0
 22 23  1  0
 23 24  1  0
 24 25  1  0
 25 26  1  0
 17 27  1  0
 27 28  2  0
  9 29  1  0
 29 30  2  0
 30 31  1  0
 31  2  1  0
 30  5  1  0
 28 14  1  0
 26 21  1  0
  1 32  1  0
  1 33  1  0
  1 34  1  0
  3 35  1  0
  3 36  1  0
  4 37  1  0
  4 38  1  0
  6 39  1  0
 15 40  1  0
 16 41  1  0
 22 42  1  0
 22 43  1  0
 23 44  1  0
 23 45  1  0
 24 46  1  0
 24 47  1  0
 25 48  1  0
 25 49  1  0
 26 50  1  0
 26 51  1  0
 27 52  1  0
 28 53  1  0
 29 54  1  0
 31 55  1  0
 31 56  1  0
M  CHG  2   8  -1  10  -1
M  END
>  <UniqueID>  (40) 
38

>  <SMILES>  (40) 
CN1CCc2cc([O-])c([N-]S(=O)(=O)c3ccc(S(=O)(=O)N4CCCCC4)cc3)cc2C1

>  <Energy>  (40) 
71.26756915986448

>  <Genealogy>  (40) 
CN1CCc2cc([O-])c([N-]S(=O)(=O)c3ccc(S(=O)(=O)N4CCCCC4)cc3)cc2C1 (protonated)
CN1CCc2cc([O-])c([N-]S(=O)(=O)c3ccc(S(=O)(=O)N4CCCCC4)cc3)cc2C1 (3D coordinates assigned)
CN1CCc2cc([O-])c([N-]S(=O)(=O)c3ccc(S(=O)(=O)N4CCCCC4)cc3)cc2C1 (nonaromatic ring conformer: 71.26756915986448 kcal/mol)

>  <smiles>  (40) 
CN1CCc2cc(O)c(NS(=O)(=O)c3ccc(S(=O)(=O)N4CCCCC4)cc3)cc2C1

>  <score_type>  (40) 
oracle

>  <origin>  (40) 
adgpu

>  <m_score__min__energy>  (40) 
-15.869999999999999

>  <m_primary>  (40) 
energy

$$$$
40:0
     RDKit          3D

 58 61  0  0  0  0  0  0  0  0999 V2000
   -3.4050   17.0630  -35.5410 O   0  0  0  0  0  0  0  0  0  0  0  0
   -4.0020   17.4210  -34.4910 C   0  0  0  0  0  0  0  0  0  0  0  0
   -5.5040   17.3320  -34.4410 C   0  0  0  0  0  0  0  0  0  0  0  0
   -6.1330   18.7060  -34.1890 C   0  0  0  0  0  0  0  0  0  0  0  0
   -6.9470   18.7490  -32.6020 S   0  0  0  0  0  0  0  0  0  0  0  0
   -6.1650   17.9390  -31.6060 O   0  0  0  0  0  0  0  0  0  0  0  0
   -8.3280   18.1660  -32.7210 O   0  0  0  0  0  0  0  0  0  0  0  0
   -7.0470   20.4180  -32.0510 C   0  0  0  0  0  0  0  0  0  0  0  0
   -8.2990   21.0200  -31.8640 C   0  0  0  0  0  0  0  0  0  0  0  0
   -8.3850   22.3440  -31.4220 C   0  0  0  0  0  0  0  0  0  0  0  0
   -7.2190   23.0680  -31.1500 C   0  0  0  0  0  0  0  0  0  0  0  0
   -5.9630   22.4710  -31.3330 C   0  0  0  0  0  0  0  0  0  0  0  0
   -5.8780   21.1440  -31.7810 C   0  0  0  0  0  0  0  0  0  0  0  0
   -4.7810   23.2430  -31.1020 N   0  0  0  0  0  0  0  0  0  0  0  0
   -4.8870   24.5780  -30.5980 C   0  0  0  0  0  0  0  0  0  0  0  0
   -3.8590   25.2980  -30.4980 O   0  0  0  0  0  0  0  0  0  0  0  0
   -6.2130   25.0910  -30.1100 C   0  0  0  0  0  0  0  0  0  0  0  0
   -7.3060   24.3970  -30.7180 O   0  0  0  0  0  0  0  0  0  0  0  0
   -3.2200   17.7860  -33.3450 N   0  0  0  0  0  0  0  0  0  0  0  0
   -2.5500   19.0350  -33.1270 C   0  0  0  0  0  0  0  0  0  0  0  0
   -1.6870   19.5840  -34.0910 C   0  0  0  0  0  0  0  0  0  0  0  0
   -1.0310   20.7920  -33.8390 C   0  0  0  0  0  0  0  0  0  0  0  0
   -1.2170   21.4520  -32.6210 C   0  0  0  0  0  0  0  0  0  0  0  0
   -2.0500   20.8950  -31.6400 C   0  0  0  0  0  0  0  0  0  0  0  0
   -2.2760   21.6940  -30.0870 S   0  0  0  0  0  0  0  0  0  0  0  0
   -3.6940   21.4760  -29.6380 O   0  0  0  0  0  0  0  0  0  0  0  0
   -2.0280   23.1720  -30.2230 O   0  0  0  0  0  0  0  0  0  0  0  0
   -1.1660   21.0190  -28.9190 N   0  0  0  0  0  0  0  0  0  0  0  0
   -1.7370   21.0700  -27.5500 C   0  0  0  0  0  0  0  0  0  0  0  0
   -2.2920   19.7170  -27.0790 C   0  0  0  0  0  0  0  0  0  0  0  0
   -1.2070   18.6280  -27.1020 C   0  0  0  0  0  0  0  0  0  0  0  0
   -0.1490   18.8660  -28.1940 C   0  0  0  0  0  0  0  0  0  0  0  0
   -0.7340   19.6730  -29.3570 C   0  0  0  0  0  0  0  0  0  0  0  0
   -2.7050   19.6810  -31.8950 C   0  0  0  0  0  0  0  0  0  0  0  0
   -5.8722   16.9395  -35.4004 H   0  0  0  0  0  0  0  0  0  0  0  0
   -5.7857   16.6634  -33.6142 H   0  0  0  0  0  0  0  0  0  0  0  0
   -5.3447   19.4729  -34.2108 H   0  0  0  0  0  0  0  0  0  0  0  0
   -6.8792   18.9013  -34.9733 H   0  0  0  0  0  0  0  0  0  0  0  0
   -9.2172   20.4489  -32.0657 H   0  0  0  0  0  0  0  0  0  0  0  0
   -9.3694   22.8163  -31.2882 H   0  0  0  0  0  0  0  0  0  0  0  0
   -4.8938   20.6729  -31.9205 H   0  0  0  0  0  0  0  0  0  0  0  0
   -3.8390   22.8480  -31.3230 H   0  0  0  0  0  0  0  0  0  0  0  0
   -6.2677   24.9563  -29.0196 H   0  0  0  0  0  0  0  0  0  0  0  0
   -6.2895   26.1544  -30.3807 H   0  0  0  0  0  0  0  0  0  0  0  0
   -1.5276   19.0617  -35.0459 H   0  0  0  0  0  0  0  0  0  0  0  0
   -0.3664   21.2246  -34.6013 H   0  0  0  0  0  0  0  0  0  0  0  0
   -0.7094   22.4094  -32.4318 H   0  0  0  0  0  0  0  0  0  0  0  0
   -0.9474   21.3866  -26.8527 H   0  0  0  0  0  0  0  0  0  0  0  0
   -2.5766   21.7803  -27.5705 H   0  0  0  0  0  0  0  0  0  0  0  0
   -2.6708   19.8234  -26.0518 H   0  0  0  0  0  0  0  0  0  0  0  0
   -3.0993   19.4164  -27.7631 H   0  0  0  0  0  0  0  0  0  0  0  0
   -0.7049   18.6109  -26.1234 H   0  0  0  0  0  0  0  0  0  0  0  0
   -1.7020   17.6707  -27.3223 H   0  0  0  0  0  0  0  0  0  0  0  0
    0.6968   19.4201  -27.7610 H   0  0  0  0  0  0  0  0  0  0  0  0
    0.1856   17.8906  -28.5770 H   0  0  0  0  0  0  0  0  0  0  0  0
    0.0322   19.7802  -30.1390 H   0  0  0  0  0  0  0  0  0  0  0  0
   -1.6135   19.1362  -29.7421 H   0  0  0  0  0  0  0  0  0  0  0  0
   -3.3454   19.2333  -31.1208 H   0  0  0  0  0  0  0  0  0  0  0  0
  1  2  2  0
  2  3  1  0
  3  4  1  0
  4  5  1  0
  5  6  2  0
  5  7  2  0
  5  8  1  0
  8  9  2  0
  9 10  1  0
 10 11  2  0
 11 12  1  0
 12 13  2  0
 12 14  1  0
 14 15  1  0
 15 16  2  0
 15 17  1  0
 17 18  1  0
  2 19  1  0
 19 20  1  0
 20 21  2  0
 21 22  1  0
 22 23  2  0
 23 24  1  0
 24 25  1  0
 25 26  2  0
 25 27  2  0
 25 28  1  0
 28 29  1  0
 29 30  1  0
 30 31  1  0
 31 32  1  0
 32 33  1  0
 24 34  2  0
 13  8  1  0
 34 20  1  0
 18 11  1  0
 33 28  1  0
  3 35  1  0
  3 36  1  0
  4 37  1  0
  4 38  1  0
  9 39  1  0
 10 40  1  0
 13 41  1  0
 14 42  1  0
 17 43  1  0
 17 44  1  0
 21 45  1  0
 22 46  1  0
 23 47  1  0
 29 48  1  0
 29 49  1  0
 30 50  1  0
 30 51  1  0
 31 52  1  0
 31 53  1  0
 32 54  1  0
 32 55  1  0
 33 56  1  0
 33 57  1  0
 34 58  1  0
M  CHG  1  19  -1
M  END
>  <UniqueID>  (41) 
39

>  <SMILES>  (41) 
O=C(CCS(=O)(=O)c1ccc2c(c1)NC(=O)CO2)[N-]c1cccc(S(=O)(=O)N2CCCCC2)c1

>  <Energy>  (41) 
66.86780325526327

>  <Genealogy>  (41) 
O=C(CCS(=O)(=O)c1ccc2c(c1)NC(=O)CO2)[N-]c1cccc(S(=O)(=O)N2CCCCC2)c1 (protonated)
O=C(CCS(=O)(=O)c1ccc2c(c1)NC(=O)CO2)[N-]c1cccc(S(=O)(=O)N2CCCCC2)c1 (3D coordinates assigned)
O=C(CCS(=O)(=O)c1ccc2c(c1)NC(=O)CO2)[N-]c1cccc(S(=O)(=O)N2CCCCC2)c1 (nonaromatic ring conformer: 66.86780325526327 kcal/mol)

>  <smiles>  (41) 
O=C(CCS(=O)(=O)c1ccc2c(c1)NC(=O)CO2)Nc1cccc(S(=O)(=O)N2CCCCC2)c1

>  <score_type>  (41) 
oracle

>  <origin>  (41) 
adgpu

>  <m_score__min__energy>  (41) 
-12.869999999999999

>  <m_primary>  (41) 
energy

$$$$
41:0
     RDKit          3D

 68 72  0  0  0  0  0  0  0  0999 V2000
   -5.5980   18.6320  -31.4640 O   0  0  0  0  0  0  0  0  0  0  0  0
   -5.2610   19.1350  -32.5700 C   0  0  0  0  0  0  0  0  0  0  0  0
   -6.1810   19.9720  -33.2840 N   0  0  0  0  0  0  0  0  0  0  0  0
   -7.3220   20.5810  -32.6580 C   0  0  0  0  0  0  0  0  0  0  0  0
   -8.5850   19.9730  -32.7410 C   0  0  0  0  0  0  0  0  0  0  0  0
   -9.6690   20.5090  -32.0470 C   0  0  0  0  0  0  0  0  0  0  0  0
   -9.4820   21.6480  -31.2650 C   0  0  0  0  0  0  0  0  0  0  0  0
   -8.2590   22.2360  -31.2000 N   0  0  0  0  0  0  0  0  0  0  0  0
   -7.1820   21.7480  -31.8750 C   0  0  0  0  0  0  0  0  0  0  0  0
   -5.9210   22.4380  -31.7810 N   0  0  0  0  0  0  0  0  0  0  0  0
   -5.7840   23.7970  -32.3240 C   0  0  0  0  0  0  0  0  0  0  0  0
   -5.8960   24.8220  -31.1960 C   0  0  0  0  0  0  0  0  0  0  0  0
   -4.5480   24.6010  -29.9810 S   0  0  0  0  0  0  0  0  0  0  0  0
   -4.9750   22.8740  -29.5600 C   0  0  0  0  0  0  0  0  0  0  0  0
   -4.9230   21.9900  -30.8050 C   0  0  0  0  0  0  0  0  0  0  0  0
   -3.9210   18.8490  -33.1260 C   0  0  0  0  0  0  0  0  0  0  0  0
   -2.8990   19.8050  -32.9810 C   0  0  0  0  0  0  0  0  0  0  0  0
   -1.5870   19.5320  -33.3970 C   0  0  0  0  0  0  0  0  0  0  0  0
   -0.3200   20.7400  -33.1050 S   0  0  0  0  0  0  0  0  0  0  0  0
    1.0100   20.1180  -33.4280 O   0  0  0  0  0  0  0  0  0  0  0  0
   -0.5450   21.8930  -34.0430 O   0  0  0  0  0  0  0  0  0  0  0  0
   -0.2380   21.3310  -31.4580 N   0  0  0  0  0  0  0  0  0  0  0  0
   -0.0600   20.2260  -30.5000 C   0  0  0  0  0  0  0  0  0  0  0  0
    0.2440   20.7710  -29.0910 C   0  0  0  0  0  0  0  0  0  0  0  0
   -0.4720   22.1030  -28.7950 C   0  0  0  0  0  0  0  0  0  0  0  0
   -1.7310   22.2660  -29.6510 C   0  0  0  0  0  0  0  0  0  0  0  0
   -1.3740   22.2310  -31.1500 C   0  0  0  0  0  0  0  0  0  0  0  0
   -1.2980   18.2770  -33.9520 C   0  0  0  0  0  0  0  0  0  0  0  0
   -2.3090   17.3330  -34.1340 C   0  0  0  0  0  0  0  0  0  0  0  0
   -3.6230   17.6070  -33.7320 C   0  0  0  0  0  0  0  0  0  0  0  0
   -4.6540   16.6410  -33.9940 N   0  0  0  0  0  0  0  0  0  0  0  0
   -4.6110   15.2900  -33.4680 C   0  0  0  0  0  0  0  0  0  0  0  0
   -5.9190   14.6420  -33.9000 C   0  0  0  0  0  0  0  0  0  0  0  0
   -6.8420   15.7860  -34.3160 C   0  0  0  0  0  0  0  0  0  0  0  0
   -5.9370   16.9840  -34.5770 C   0  0  0  0  0  0  0  0  0  0  0  0
   -6.0660   20.0650  -34.3180 H   0  0  0  0  0  0  0  0  0  0  0  0
   -8.7197   19.0707  -33.3557 H   0  0  0  0  0  0  0  0  0  0  0  0
  -10.6609   20.0384  -32.1157 H   0  0  0  0  0  0  0  0  0  0  0  0
  -10.3257   22.0710  -30.7000 H   0  0  0  0  0  0  0  0  0  0  0  0
   -4.8033   23.8975  -32.8120 H   0  0  0  0  0  0  0  0  0  0  0  0
   -6.5844   23.9764  -33.0569 H   0  0  0  0  0  0  0  0  0  0  0  0
   -5.8354   25.8345  -31.6216 H   0  0  0  0  0  0  0  0  0  0  0  0
   -6.8589   24.6786  -30.6839 H   0  0  0  0  0  0  0  0  0  0  0  0
   -4.2580   22.4949  -28.8169 H   0  0  0  0  0  0  0  0  0  0  0  0
   -5.9954   22.8502  -29.1498 H   0  0  0  0  0  0  0  0  0  0  0  0
   -3.9208   22.0523  -31.2542 H   0  0  0  0  0  0  0  0  0  0  0  0
   -5.1399   20.9503  -30.5186 H   0  0  0  0  0  0  0  0  0  0  0  0
   -3.1323   20.7827  -32.5341 H   0  0  0  0  0  0  0  0  0  0  0  0
   -0.9818   19.6268  -30.4644 H   0  0  0  0  0  0  0  0  0  0  0  0
    0.7861   19.6050  -30.8293 H   0  0  0  0  0  0  0  0  0  0  0  0
   -0.0800   20.0261  -28.3493 H   0  0  0  0  0  0  0  0  0  0  0  0
    1.3264   20.9593  -29.0367 H   0  0  0  0  0  0  0  0  0  0  0  0
   -0.7565   22.1275  -27.7327 H   0  0  0  0  0  0  0  0  0  0  0  0
    0.2173   22.9260  -29.0350 H   0  0  0  0  0  0  0  0  0  0  0  0
   -2.4299   21.4468  -29.4263 H   0  0  0  0  0  0  0  0  0  0  0  0
   -2.1955   23.2357  -29.4189 H   0  0  0  0  0  0  0  0  0  0  0  0
   -2.2551   21.8867  -31.7114 H   0  0  0  0  0  0  0  0  0  0  0  0
   -1.0725   23.2488  -31.4383 H   0  0  0  0  0  0  0  0  0  0  0  0
   -0.2661   18.0350  -34.2462 H   0  0  0  0  0  0  0  0  0  0  0  0
   -2.0722   16.3640  -34.5977 H   0  0  0  0  0  0  0  0  0  0  0  0
   -3.7541   14.7418  -33.8866 H   0  0  0  0  0  0  0  0  0  0  0  0
   -4.4940   15.2821  -32.3743 H   0  0  0  0  0  0  0  0  0  0  0  0
   -5.7467   13.9630  -34.7481 H   0  0  0  0  0  0  0  0  0  0  0  0
   -6.3595   14.0458  -33.0873 H   0  0  0  0  0  0  0  0  0  0  0  0
   -7.3943   15.5185  -35.2289 H   0  0  0  0  0  0  0  0  0  0  0  0
   -7.5863   16.0062  -33.5365 H   0  0  0  0  0  0  0  0  0  0  0  0
   -5.8329   17.1577  -35.6582 H   0  0  0  0  0  0  0  0  0  0  0  0
   -6.3480   17.9061  -34.1401 H   0  0  0  0  0  0  0  0  0  0  0  0
  1  2  2  0
  2  3  1  0
  3  4  1  0
  4  5  2  0
  5  6  1  0
  6  7  2  0
  7  8  1  0
  8  9  2  0
  9 10  1  0
 10 11  1  0
 11 12  1  0
 12 13  1  0
 13 14  1  0
 14 15  1  0
  2 16  1  0
 16 17  2  0
 17 18  1  0
 18 19  1  0
 19 20  2  0
 19 21  2  0
 19 22  1  0
 22 23  1  0
 23 24  1  0
 24 25  1  0
 25 26  1  0
 26 27  1  0
 18 28  2  0
 28 29  1  0
 29 30  2  0
 30 31  1  0
 31 32  1  0
 32 33  1  0
 33 34  1  0
 34 35  1  0
  9  4  1  0
 15 10  1  0
 30 16  1  0
 35 31  1  0
 27 22  1  0
  3 36  1  0
  5 37  1  0
  6 38  1  0
  7 39  1  0
 11 40  1  0
 11 41  1  0
 12 42  1  0
 12 43  1  0
 14 44  1  0
 14 45  1  0
 15 46  1  0
 15 47  1  0
 17 48  1  0
 23 49  1  0
 23 50  1  0
 24 51  1  0
 24 52  1  0
 25 53  1  0
 25 54  1  0
 26 55  1  0
 26 56  1  0
 27 57  1  0
 27 58  1  0
 28 59  1  0
 29 60  1  0
 32 61  1  0
 32 62  1  0
 33 63  1  0
 33 64  1  0
 34 65  1  0
 34 66  1  0
 35 67  1  0
 35 68  1  0
M  END
>  <UniqueID>  (42) 
40

>  <SMILES>  (42) 
O=C(Nc1cccnc1N1CCSCC1)c1cc(S(=O)(=O)N2CCCCC2)ccc1N1CCCC1

>  <Energy>  (42) 
89.81404110437155

>  <Genealogy>  (42) 
O=C(Nc1cccnc1N1CCSCC1)c1cc(S(=O)(=O)N2CCCCC2)ccc1N1CCCC1 (3D coordinates assigned)
O=C(Nc1cccnc1N1CCSCC1)c1cc(S(=O)(=O)N2CCCCC2)ccc1N1CCCC1 (nonaromatic ring conformer: 89.81404110437155 kcal/mol)

>  <smiles>  (42) 
O=C(Nc1cccnc1N1CCSCC1)c1cc(S(=O)(=O)N2CCCCC2)ccc1N1CCCC1

>  <score_type>  (42) 
oracle

>  <origin>  (42) 
adgpu

>  <m_score__min__energy>  (42) 
-10.039999999999999

>  <m_primary>  (42) 
energy

$$$$
42:0
     RDKit          3D

 48 50  0  0  0  0  0  0  0  0999 V2000
   -6.2250   17.4540  -31.6090 C   0  0  0  0  0  0  0  0  0  0  0  0
   -7.2120   17.8550  -33.0830 S   0  0  0  0  0  0  0  0  0  0  0  0
   -7.8580   19.3710  -32.3730 C   0  0  0  0  0  0  0  0  0  0  0  0
   -9.1360   19.5150  -31.9790 N   0  0  0  0  0  0  0  0  0  0  0  0
   -9.2600   20.7500  -31.5150 N   0  0  0  0  0  0  0  0  0  0  0  0
   -8.0540   21.3390  -31.6320 C   0  0  0  0  0  0  0  0  0  0  0  0
   -7.7900   22.7590  -31.2250 C   0  0  0  0  0  0  0  0  0  0  0  0
   -6.5860   22.8330  -30.4000 N   0  0  0  0  0  0  0  0  0  0  0  0
   -5.4330   23.5940  -30.7960 C   0  0  0  0  0  0  0  0  0  0  0  0
   -5.4010   24.1270  -31.9390 O   0  0  0  0  0  0  0  0  0  0  0  0
   -4.2670   23.7470  -29.8930 C   0  0  0  0  0  0  0  0  0  0  0  0
   -2.9650   23.4320  -30.3240 C   0  0  0  0  0  0  0  0  0  0  0  0
   -1.8770   23.5770  -29.4580 C   0  0  0  0  0  0  0  0  0  0  0  0
   -2.0710   24.0360  -28.1500 C   0  0  0  0  0  0  0  0  0  0  0  0
   -0.6920   24.2270  -27.0640 S   0  0  0  0  0  0  0  0  0  0  0  0
    0.4980   24.6910  -27.8550 O   0  0  0  0  0  0  0  0  0  0  0  0
   -0.3530   22.8940  -26.4540 O   0  0  0  0  0  0  0  0  0  0  0  0
   -1.0200   25.3780  -25.7910 N   0  0  0  0  0  0  0  0  0  0  0  0
   -0.1570   25.1210  -24.6290 C   0  0  0  0  0  0  0  0  0  0  0  0
   -0.4820   26.1280  -23.5040 C   0  0  0  0  0  0  0  0  0  0  0  0
   -1.3700   27.1450  -23.9320 O   0  0  0  0  0  0  0  0  0  0  0  0
   -0.8710   27.7570  -25.1050 C   0  0  0  0  0  0  0  0  0  0  0  0
   -0.8240   26.7540  -26.2760 C   0  0  0  0  0  0  0  0  0  0  0  0
   -3.3650   24.3370  -27.7090 C   0  0  0  0  0  0  0  0  0  0  0  0
   -4.4550   24.1900  -28.5710 C   0  0  0  0  0  0  0  0  0  0  0  0
   -7.1470   20.4970  -32.1680 N   0  0  0  0  0  0  0  0  0  0  0  0
   -5.7440   20.7610  -32.4850 C   0  0  0  0  0  0  0  0  0  0  0  0
   -6.8047   17.6895  -30.7043 H   0  0  0  0  0  0  0  0  0  0  0  0
   -5.9747   16.3829  -31.6156 H   0  0  0  0  0  0  0  0  0  0  0  0
   -5.2986   18.0471  -31.6156 H   0  0  0  0  0  0  0  0  0  0  0  0
   -7.6516   23.3752  -32.1256 H   0  0  0  0  0  0  0  0  0  0  0  0
   -8.6466   23.1304  -30.6433 H   0  0  0  0  0  0  0  0  0  0  0  0
   -6.5650   22.2700  -29.5220 H   0  0  0  0  0  0  0  0  0  0  0  0
   -2.8021   23.0691  -31.3496 H   0  0  0  0  0  0  0  0  0  0  0  0
   -0.8635   23.3291  -29.8063 H   0  0  0  0  0  0  0  0  0  0  0  0
   -0.3302   24.0977  -24.2646 H   0  0  0  0  0  0  0  0  0  0  0  0
    0.8960   25.2351  -24.9259 H   0  0  0  0  0  0  0  0  0  0  0  0
   -0.9436   25.5852  -22.6660 H   0  0  0  0  0  0  0  0  0  0  0  0
    0.4596   26.6094  -23.2013 H   0  0  0  0  0  0  0  0  0  0  0  0
   -1.5254   28.5980  -25.3780 H   0  0  0  0  0  0  0  0  0  0  0  0
    0.1512   28.1119  -24.9069 H   0  0  0  0  0  0  0  0  0  0  0  0
   -1.6196   27.0003  -26.9945 H   0  0  0  0  0  0  0  0  0  0  0  0
    0.1616   26.8213  -26.7598 H   0  0  0  0  0  0  0  0  0  0  0  0
   -3.5245   24.6907  -26.6797 H   0  0  0  0  0  0  0  0  0  0  0  0
   -5.4687   24.4227  -28.2128 H   0  0  0  0  0  0  0  0  0  0  0  0
   -5.1713   20.8688  -31.5520 H   0  0  0  0  0  0  0  0  0  0  0  0
   -5.3366   19.9238  -33.0707 H   0  0  0  0  0  0  0  0  0  0  0  0
   -5.6688   21.6891  -33.0707 H   0  0  0  0  0  0  0  0  0  0  0  0
  1  2  1  0
  2  3  1  0
  3  4  2  0
  4  5  1  0
  5  6  2  0
  6  7  1  0
  7  8  1  0
  8  9  1  0
  9 10  2  0
  9 11  1  0
 11 12  2  0
 12 13  1  0
 13 14  2  0
 14 15  1  0
 15 16  2  0
 15 17  2  0
 15 18  1  0
 18 19  1  0
 19 20  1  0
 20 21  1  0
 21 22  1  0
 22 23  1  0
 14 24  1  0
 24 25  2  0
  6 26  1  0
 26 27  1  0
 26  3  1  0
 25 11  1  0
 23 18  1  0
  1 28  1  0
  1 29  1  0
  1 30  1  0
  7 31  1  0
  7 32  1  0
  8 33  1  0
 12 34  1  0
 13 35  1  0
 19 36  1  0
 19 37  1  0
 20 38  1  0
 20 39  1  0
 22 40  1  0
 22 41  1  0
 23 42  1  0
 23 43  1  0
 24 44  1  0
 25 45  1  0
 27 46  1  0
 27 47  1  0
 27 48  1  0
M  END
>  <UniqueID>  (43) 
41

>  <SMILES>  (43) 
CSc1nnc(CNC(=O)c2ccc(S(=O)(=O)N3CCOCC3)cc2)n1C

>  <Energy>  (43) 
86.42288225834074

>  <Genealogy>  (43) 
CSc1nnc(CNC(=O)c2ccc(S(=O)(=O)N3CCOCC3)cc2)n1C (3D coordinates assigned)
CSc1nnc(CNC(=O)c2ccc(S(=O)(=O)N3CCOCC3)cc2)n1C (nonaromatic ring conformer: 86.42288225834074 kcal/mol)

>  <smiles>  (43) 
CSc1nnc(CNC(=O)c2ccc(S(=O)(=O)N3CCOCC3)cc2)n1C

>  <score_type>  (43) 
oracle

>  <origin>  (43) 
adgpu

>  <m_score__min__energy>  (43) 
-8.8399999999999999

>  <m_primary>  (43) 
energy

$$$$
43:0
     RDKit          3D

 48 51  0  0  0  0  0  0  0  0999 V2000
   -6.5310   17.1260  -32.7090 C   0  0  0  0  0  0  0  0  0  0  0  0
   -7.0620   17.8070  -31.4510 C   0  0  0  0  0  0  0  0  0  0  0  0
   -7.3300   19.2680  -31.7140 C   0  0  0  0  0  0  0  0  0  0  0  0
   -6.3590   20.1780  -31.5290 C   0  0  0  0  0  0  0  0  0  0  0  0
   -6.5830   21.6240  -31.9210 C   0  0  2  0  0  0  0  0  0  0  0  0
   -5.5790   22.5630  -31.2560 C   0  0  0  0  0  0  0  0  0  0  0  0
   -4.2000   22.2830  -31.3140 C   0  0  0  0  0  0  0  0  0  0  0  0
   -3.2620   23.1740  -30.7780 C   0  0  0  0  0  0  0  0  0  0  0  0
   -1.8630   22.8930  -30.8560 N   0  0  0  0  0  0  0  0  0  0  0  0
   -1.2230   21.2870  -30.7640 S   0  0  0  0  0  0  0  0  0  0  0  0
    0.2630   21.3370  -30.9800 O   0  0  0  0  0  0  0  0  0  0  0  0
   -1.8320   20.4590  -31.8590 O   0  0  0  0  0  0  0  0  0  0  0  0
   -1.5840   20.5240  -29.2170 C   0  0  0  0  0  0  0  0  0  0  0  0
   -2.7770   20.8340  -28.5450 C   0  0  0  0  0  0  0  0  0  0  0  0
   -3.0860   20.2000  -27.3370 C   0  0  0  0  0  0  0  0  0  0  0  0
   -2.2110   19.2530  -26.7980 C   0  0  0  0  0  0  0  0  0  0  0  0
   -2.5270   18.6170  -25.6420 F   0  0  0  0  0  0  0  0  0  0  0  0
   -1.0140   18.9540  -27.4550 C   0  0  0  0  0  0  0  0  0  0  0  0
   -0.6970   19.5910  -28.6590 C   0  0  0  0  0  0  0  0  0  0  0  0
   -3.6940   24.3870  -30.2320 C   0  0  0  0  0  0  0  0  0  0  0  0
   -2.7700   25.2890  -29.7140 O   0  0  0  0  0  0  0  0  0  0  0  0
   -5.0530   24.7000  -30.2080 C   0  0  0  0  0  0  0  0  0  0  0  0
   -5.9970   23.8120  -30.7430 C   0  0  0  0  0  0  0  0  0  0  0  0
   -7.4510   24.2030  -30.7400 C   0  0  0  0  0  0  0  0  0  0  0  0
   -8.2300   23.4180  -31.7900 C   0  0  0  0  0  0  0  0  0  0  0  0
   -7.9850   21.9830  -31.5890 N   0  0  0  0  0  0  0  0  0  0  0  0
   -8.9230   21.1810  -32.4010 C   0  0  0  0  0  0  0  0  0  0  0  0
   -8.6500   19.7140  -32.2140 C   0  0  0  0  0  0  0  0  0  0  0  0
   -9.5370   18.8730  -32.5230 O   0  0  0  0  0  0  0  0  0  0  0  0
   -5.8776   16.2881  -32.4244 H   0  0  0  0  0  0  0  0  0  0  0  0
   -7.3746   16.7472  -33.3048 H   0  0  0  0  0  0  0  0  0  0  0  0
   -5.9580   17.8518  -33.3048 H   0  0  0  0  0  0  0  0  0  0  0  0
   -7.9972   17.3174  -31.1417 H   0  0  0  0  0  0  0  0  0  0  0  0
   -6.3078   17.7214  -30.6549 H   0  0  0  0  0  0  0  0  0  0  0  0
   -5.3975   19.8718  -31.0911 H   0  0  0  0  0  0  0  0  0  0  0  0
   -6.4193   21.7393  -33.0026 H   0  0  0  0  0  0  0  0  0  0  0  0
   -3.8550   21.3516  -31.7868 H   0  0  0  0  0  0  0  0  0  0  0  0
   -3.4695   21.5762  -28.9688 H   0  0  0  0  0  0  0  0  0  0  0  0
   -4.0195   20.4473  -26.8103 H   0  0  0  0  0  0  0  0  0  0  0  0
   -0.3204   18.2167  -27.0245 H   0  0  0  0  0  0  0  0  0  0  0  0
    0.2496   19.3601  -29.1695 H   0  0  0  0  0  0  0  0  0  0  0  0
   -5.3866   25.6505  -29.7661 H   0  0  0  0  0  0  0  0  0  0  0  0
   -7.8770   23.9965  -29.7471 H   0  0  0  0  0  0  0  0  0  0  0  0
   -7.5263   25.2747  -30.9763 H   0  0  0  0  0  0  0  0  0  0  0  0
   -9.3048   23.6274  -31.6857 H   0  0  0  0  0  0  0  0  0  0  0  0
   -7.9021   23.7150  -32.7971 H   0  0  0  0  0  0  0  0  0  0  0  0
   -9.9543   21.4013  -32.0880 H   0  0  0  0  0  0  0  0  0  0  0  0
   -8.7890   21.4382  -33.4621 H   0  0  0  0  0  0  0  0  0  0  0  0
  1  2  1  0
  2  3  1  0
  3  4  2  0
  4  5  1  0
  5  6  1  0
  6  7  2  0
  7  8  1  0
  8  9  1  0
  9 10  1  0
 10 11  2  0
 10 12  2  0
 10 13  1  0
 13 14  2  0
 14 15  1  0
 15 16  2  0
 16 17  1  0
 16 18  1  0
 18 19  2  0
  8 20  2  0
 20 21  1  0
 20 22  1  0
 22 23  2  0
 23 24  1  0
 24 25  1  0
 25 26  1  0
 26 27  1  0
 27 28  1  0
 28 29  2  0
 28  3  1  0
 26  5  1  0
 23  6  1  0
 19 13  1  0
  1 30  1  0
  1 31  1  0
  1 32  1  0
  2 33  1  0
  2 34  1  0
  4 35  1  0
  5 36  1  6
  7 37  1  0
 14 38  1  0
 15 39  1  0
 18 40  1  0
 19 41  1  0
 22 42  1  0
 24 43  1  0
 24 44  1  0
 25 45  1  0
 25 46  1  0
 27 47  1  0
 27 48  1  0
M  CHG  2   9  -1  21  -1
M  END
>  <UniqueID>  (44) 
42

>  <SMILES>  (44) 
CCC1=C[C@@H]2c3cc([N-]S(=O)(=O)c4ccc(F)cc4)c([O-])cc3CCN2CC1=O

>  <Energy>  (44) 
61.376897225464106

>  <Genealogy>  (44) 
CCC1=CC2c3cc([N-]S(=O)(=O)c4ccc(F)cc4)c([O-])cc3CCN2CC1=O (protonated)
CCC1=C[C@@H]2c3cc([N-]S(=O)(=O)c4ccc(F)cc4)c([O-])cc3CCN2CC1=O (chirality)
CCC1=C[C@@H]2c3cc([N-]S(=O)(=O)c4ccc(F)cc4)c([O-])cc3CCN2CC1=O (3D coordinates assigned)
CCC1=C[C@@H]2c3cc([N-]S(=O)(=O)c4ccc(F)cc4)c([O-])cc3CCN2CC1=O (nonaromatic ring conformer: 61.376897225464106 kcal/mol)

>  <smiles>  (44) 
CCC1=CC2c3cc(NS(=O)(=O)c4ccc(F)cc4)c(O)cc3CCN2CC1=O

>  <score_type>  (44) 
oracle

>  <origin>  (44) 
adgpu

>  <m_score__min__energy>  (44) 
-13.1

>  <m_primary>  (44) 
energy

$$$$
44:0
     RDKit          3D

 40 42  0  0  0  0  0  0  0  0999 V2000
   -2.0510   25.4220  -26.6000 C   0  0  0  0  0  0  0  0  0  0  0  0
   -1.9100   24.1420  -27.3540 C   0  0  0  0  0  0  0  0  0  0  0  0
   -1.5320   22.9800  -26.7870 N   0  0  0  0  0  0  0  0  0  0  0  0
   -1.6050   22.0350  -27.7140 N   0  0  0  0  0  0  0  0  0  0  0  0
   -1.3390   20.6270  -27.4430 C   0  0  0  0  0  0  0  0  0  0  0  0
   -2.0620   22.5600  -28.8730 C   0  0  0  0  0  0  0  0  0  0  0  0
   -2.4200   21.7580  -30.0900 C   0  0  0  0  0  0  0  0  0  0  0  0
   -2.2260   23.9210  -28.6810 C   0  0  0  0  0  0  0  0  0  0  0  0
   -2.7770   24.8890  -29.5840 N   0  0  0  0  0  0  0  0  0  0  0  0
   -4.1300   24.9230  -30.0540 C   0  0  0  0  0  0  0  0  0  0  0  0
   -4.3570   25.3450  -31.2190 O   0  0  0  0  0  0  0  0  0  0  0  0
   -5.2750   24.3910  -29.2380 C   0  0  0  0  0  0  0  0  0  0  0  0
   -6.8710   24.8260  -30.0060 S   0  0  0  0  0  0  0  0  0  0  0  0
   -6.9950   23.3000  -30.9400 C   0  0  0  0  0  0  0  0  0  0  0  0
   -8.1990   22.6830  -31.0610 N   0  0  0  0  0  0  0  0  0  0  0  0
   -8.3340   21.5220  -31.7470 C   0  0  0  0  0  0  0  0  0  0  0  0
   -9.4690   20.9790  -31.8270 O   0  0  0  0  0  0  0  0  0  0  0  0
   -7.2110   20.9390  -32.3560 C   0  0  0  0  0  0  0  0  0  0  0  0
   -7.2880   19.7330  -33.0780 C   0  0  0  0  0  0  0  0  0  0  0  0
   -6.1390   19.1940  -33.6630 C   0  0  0  0  0  0  0  0  0  0  0  0
   -4.9110   19.8490  -33.5380 C   0  0  0  0  0  0  0  0  0  0  0  0
   -4.8240   21.0480  -32.8250 C   0  0  0  0  0  0  0  0  0  0  0  0
   -5.9680   21.5990  -32.2280 C   0  0  0  0  0  0  0  0  0  0  0  0
   -5.8880   22.7610  -31.5200 N   0  0  0  0  0  0  0  0  0  0  0  0
   -2.0283   25.2156  -25.5198 H   0  0  0  0  0  0  0  0  0  0  0  0
   -1.2216   26.0953  -26.8622 H   0  0  0  0  0  0  0  0  0  0  0  0
   -3.0071   25.8986  -26.8622 H   0  0  0  0  0  0  0  0  0  0  0  0
   -1.3079   20.4624  -26.3558 H   0  0  0  0  0  0  0  0  0  0  0  0
   -2.1368   20.0116  -27.8844 H   0  0  0  0  0  0  0  0  0  0  0  0
   -0.3717   20.3450  -27.8844 H   0  0  0  0  0  0  0  0  0  0  0  0
   -2.8503   20.7941  -29.7804 H   0  0  0  0  0  0  0  0  0  0  0  0
   -3.1562   22.3121  -30.6908 H   0  0  0  0  0  0  0  0  0  0  0  0
   -1.5159   21.5799  -30.6908 H   0  0  0  0  0  0  0  0  0  0  0  0
   -5.1929   23.2961  -29.1714 H   0  0  0  0  0  0  0  0  0  0  0  0
   -5.2319   24.8388  -28.2342 H   0  0  0  0  0  0  0  0  0  0  0  0
   -8.2527   19.2148  -33.1817 H   0  0  0  0  0  0  0  0  0  0  0  0
   -6.2015   18.2501  -34.2243 H   0  0  0  0  0  0  0  0  0  0  0  0
   -4.0106   19.4199  -34.0019 H   0  0  0  0  0  0  0  0  0  0  0  0
   -3.8556   21.5613  -32.7316 H   0  0  0  0  0  0  0  0  0  0  0  0
   -4.9710   23.2500  -31.4140 H   0  0  0  0  0  0  0  0  0  0  0  0
  1  2  1  0
  2  3  2  0
  3  4  1  0
  4  5  1  0
  4  6  1  0
  6  7  1  0
  6  8  2  0
  8  9  1  0
  9 10  1  0
 10 11  2  0
 10 12  1  0
 12 13  1  0
 13 14  1  0
 14 15  2  0
 15 16  1  0
 16 17  2  0
 16 18  1  0
 18 19  2  0
 19 20  1  0
 20 21  2  0
 21 22  1  0
 22 23  2  0
 23 24  1  0
  8  2  1  0
 24 14  1  0
 23 18  1  0
  1 25  1  0
  1 26  1  0
  1 27  1  0
  5 28  1  0
  5 29  1  0
  5 30  1  0
  7 31  1  0
  7 32  1  0
  7 33  1  0
 12 34  1  0
 12 35  1  0
 19 36  1  0
 20 37  1  0
 21 38  1  0
 22 39  1  0
 24 40  1  0
M  CHG  1   9  -1
M  END
>  <UniqueID>  (45) 
43

>  <SMILES>  (45) 
Cc1nn(C)c(C)c1[N-]C(=O)CSc1nc(=O)c2ccccc2[nH]1

>  <Energy>  (45) 
72.98548381765934

>  <Genealogy>  (45) 
Cc1nn(C)c(C)c1[N-]C(=O)CSc1nc(=O)c2ccccc2[nH]1 (protonated)
Cc1nn(C)c(C)c1[N-]C(=O)CSc1nc(=O)c2ccccc2[nH]1 (3D coordinates assigned)
Cc1nn(C)c(C)c1[N-]C(=O)CSc1nc(=O)c2ccccc2[nH]1 (optimized conformer: 72.98548381765934 kcal/mol)

>  <smiles>  (45) 
Cc1nn(C)c(C)c1NC(=O)CSc1nc(=O)c2ccccc2[nH]1

>  <score_type>  (45) 
oracle

>  <origin>  (45) 
adgpu

>  <m_score__min__energy>  (45) 
-10.109999999999999

>  <m_primary>  (45) 
energy

$$$$
45:0
     RDKit          3D

 54 58  0  0  0  0  0  0  0  0999 V2000
   -0.1460   21.5370  -27.1900 O   0  0  0  0  0  0  0  0  0  0  0  0
   -1.4440   21.4940  -27.9510 S   0  0  0  0  0  0  0  0  0  0  0  0
   -2.3850   20.5350  -27.2710 O   0  0  0  0  0  0  0  0  0  0  0  0
   -2.1580   23.0770  -27.9770 N   0  0  0  0  0  0  0  0  0  0  0  0
   -3.1970   23.4620  -28.8840 C   0  0  0  0  0  0  0  0  0  0  0  0
   -4.3000   22.6280  -29.1250 C   0  0  0  0  0  0  0  0  0  0  0  0
   -5.2480   22.9620  -30.0980 C   0  0  0  0  0  0  0  0  0  0  0  0
   -5.0980   24.1510  -30.8390 C   0  0  0  0  0  0  0  0  0  0  0  0
   -4.0370   25.0170  -30.5440 C   0  0  0  0  0  0  0  0  0  0  0  0
   -3.0880   24.6730  -29.5770 C   0  0  0  0  0  0  0  0  0  0  0  0
   -2.0200   25.5280  -29.3270 O   0  0  0  0  0  0  0  0  0  0  0  0
   -6.1180   24.5430  -31.8810 C   0  0  0  0  0  0  0  0  0  0  0  0
   -6.8690   23.3840  -32.3890 N   0  0  0  0  0  0  0  0  0  0  0  0
   -7.4500   22.6210  -31.2760 C   0  0  0  0  0  0  0  0  0  0  0  0
   -6.3510   21.9880  -30.4100 C   0  0  0  0  0  0  0  0  0  0  0  0
   -1.1210   20.9960  -29.6130 C   0  0  0  0  0  0  0  0  0  0  0  0
   -0.7730   19.6690  -29.9100 C   0  0  0  0  0  0  0  0  0  0  0  0
   -0.6960   19.2460  -31.2400 C   0  0  0  0  0  0  0  0  0  0  0  0
   -0.9580   20.1450  -32.2850 C   0  0  0  0  0  0  0  0  0  0  0  0
   -0.9430   19.5780  -33.9520 S   0  0  0  0  0  0  0  0  0  0  0  0
   -0.9630   20.7820  -34.8580 O   0  0  0  0  0  0  0  0  0  0  0  0
    0.3100   18.7910  -34.2370 O   0  0  0  0  0  0  0  0  0  0  0  0
   -2.3530   18.5440  -34.2540 C   0  0  0  0  0  0  0  0  0  0  0  0
   -2.1420   17.2790  -34.8190 C   0  0  0  0  0  0  0  0  0  0  0  0
   -3.2130   16.4290  -35.0870 C   0  0  0  0  0  0  0  0  0  0  0  0
   -4.5160   16.8250  -34.8010 C   0  0  0  0  0  0  0  0  0  0  0  0
   -4.7620   18.0810  -34.2400 C   0  0  0  0  0  0  0  0  0  0  0  0
   -6.0800   18.4720  -33.9590 C   0  0  0  0  0  0  0  0  0  0  0  0
   -6.3360   19.7230  -33.4010 C   0  0  0  0  0  0  0  0  0  0  0  0
   -5.2840   20.5930  -33.1150 C   0  0  0  0  0  0  0  0  0  0  0  0
   -3.9660   20.2180  -33.3870 C   0  0  0  0  0  0  0  0  0  0  0  0
   -3.6800   18.9580  -33.9560 C   0  0  0  0  0  0  0  0  0  0  0  0
   -1.2710   21.4780  -31.9900 C   0  0  0  0  0  0  0  0  0  0  0  0
   -1.3510   21.9010  -30.6600 C   0  0  0  0  0  0  0  0  0  0  0  0
   -4.4202   21.7024  -28.5429 H   0  0  0  0  0  0  0  0  0  0  0  0
   -3.9500   25.9751  -31.0774 H   0  0  0  0  0  0  0  0  0  0  0  0
   -6.8265   25.2550  -31.4326 H   0  0  0  0  0  0  0  0  0  0  0  0
   -5.5791   24.9930  -32.7278 H   0  0  0  0  0  0  0  0  0  0  0  0
   -6.2120   22.7660  -32.9270 H   0  0  0  0  0  0  0  0  0  0  0  0
   -8.0542   23.2970  -30.6531 H   0  0  0  0  0  0  0  0  0  0  0  0
   -8.0758   21.8172  -31.6910 H   0  0  0  0  0  0  0  0  0  0  0  0
   -6.7976   21.6429  -29.4658 H   0  0  0  0  0  0  0  0  0  0  0  0
   -5.9148   21.1501  -30.9737 H   0  0  0  0  0  0  0  0  0  0  0  0
   -0.5606   18.9612  -29.0952 H   0  0  0  0  0  0  0  0  0  0  0  0
   -0.4288   18.2037  -31.4685 H   0  0  0  0  0  0  0  0  0  0  0  0
   -1.1180   16.9530  -35.0538 H   0  0  0  0  0  0  0  0  0  0  0  0
   -3.0273   15.4383  -35.5276 H   0  0  0  0  0  0  0  0  0  0  0  0
   -5.3550   16.1472  -35.0172 H   0  0  0  0  0  0  0  0  0  0  0  0
   -6.9135   17.7890  -34.1798 H   0  0  0  0  0  0  0  0  0  0  0  0
   -7.3714   20.0254  -33.1853 H   0  0  0  0  0  0  0  0  0  0  0  0
   -5.4930   21.5786  -32.6734 H   0  0  0  0  0  0  0  0  0  0  0  0
   -3.1435   20.9108  -33.1557 H   0  0  0  0  0  0  0  0  0  0  0  0
   -1.4541   22.1928  -32.8058 H   0  0  0  0  0  0  0  0  0  0  0  0
   -1.5956   22.9492  -30.4332 H   0  0  0  0  0  0  0  0  0  0  0  0
  1  2  2  0
  2  3  2  0
  2  4  1  0
  4  5  1  0
  5  6  2  0
  6  7  1  0
  7  8  2  0
  8  9  1  0
  9 10  2  0
 10 11  1  0
  8 12  1  0
 12 13  1  0
 13 14  1  0
 14 15  1  0
  2 16  1  0
 16 17  2  0
 17 18  1  0
 18 19  2  0
 19 20  1  0
 20 21  2  0
 20 22  2  0
 20 23  1  0
 23 24  2  0
 24 25  1  0
 25 26  2  0
 26 27  1  0
 27 28  2  0
 28 29  1  0
 29 30  2  0
 30 31  1  0
 31 32  2  0
 19 33  1  0
 33 34  2  0
 10  5  1  0
 34 16  1  0
 15  7  1  0
 32 23  1  0
 32 27  1  0
  6 35  1  0
  9 36  1  0
 12 37  1  0
 12 38  1  0
 13 39  1  0
 14 40  1  0
 14 41  1  0
 15 42  1  0
 15 43  1  0
 17 44  1  0
 18 45  1  0
 24 46  1  0
 25 47  1  0
 26 48  1  0
 28 49  1  0
 29 50  1  0
 30 51  1  0
 31 52  1  0
 33 53  1  0
 34 54  1  0
M  CHG  2   4  -1  11  -1
M  END
>  <UniqueID>  (46) 
44

>  <SMILES>  (46) 
O=S(=O)([N-]c1cc2c(cc1[O-])CNCC2)c1ccc(S(=O)(=O)c2cccc3ccccc23)cc1

>  <Energy>  (46) 
73.64827496092089

>  <Genealogy>  (46) 
O=S(=O)([N-]c1cc2c(cc1[O-])CNCC2)c1ccc(S(=O)(=O)c2cccc3ccccc23)cc1 (protonated)
O=S(=O)([N-]c1cc2c(cc1[O-])CNCC2)c1ccc(S(=O)(=O)c2cccc3ccccc23)cc1 (3D coordinates assigned)
O=S(=O)([N-]c1cc2c(cc1[O-])CNCC2)c1ccc(S(=O)(=O)c2cccc3ccccc23)cc1 (nonaromatic ring conformer: 73.64827496092089 kcal/mol)

>  <smiles>  (46) 
O=S(=O)(Nc1cc2c(cc1O)CNCC2)c1ccc(S(=O)(=O)c2cccc3ccccc23)cc1

>  <score_type>  (46) 
oracle

>  <origin>  (46) 
adgpu

>  <m_score__min__energy>  (46) 
-15.94

>  <m_primary>  (46) 
energy

$$$$
46:0
     RDKit          3D

 47 50  0  0  0  0  0  0  0  0999 V2000
   -0.0075   20.0467  -34.9215 H   0  0  0  0  0  0  0  0  0  0  0  0
   -0.9660   20.0560  -34.3820 C   0  0  0  0  0  0  0  0  0  0  0  0
   -1.8020   18.9890  -34.4670 N   0  0  0  0  0  0  0  0  0  0  0  0
   -3.0010   18.9460  -33.8260 C   0  0  0  0  0  0  0  0  0  0  0  0
   -3.8150   17.7180  -33.9620 C   0  0  0  0  0  0  0  0  0  0  0  0
   -5.2040   17.8200  -34.1330 C   0  0  0  0  0  0  0  0  0  0  0  0
   -5.6762   18.8119  -34.1886 H   0  0  0  0  0  0  0  0  0  0  0  0
   -5.9900   16.6720  -34.2330 C   0  0  0  0  0  0  0  0  0  0  0  0
   -7.0784   16.7650  -34.3622 H   0  0  0  0  0  0  0  0  0  0  0  0
   -5.4020   15.3990  -34.1700 C   0  0  0  0  0  0  0  0  0  0  0  0
   -6.2570   14.1570  -34.2280 C   0  0  0  0  0  0  0  0  0  0  0  0
   -6.0480   13.3710  -33.1080 F   0  0  0  0  0  0  0  0  0  0  0  0
   -7.5890   14.5240  -34.2790 F   0  0  0  0  0  0  0  0  0  0  0  0
   -5.9540   13.4030  -35.3490 F   0  0  0  0  0  0  0  0  0  0  0  0
   -4.0160   15.2960  -33.9540 C   0  0  0  0  0  0  0  0  0  0  0  0
   -3.5525   14.3027  -33.8620 H   0  0  0  0  0  0  0  0  0  0  0  0
   -3.2140   16.4510  -33.8540 C   0  0  0  0  0  0  0  0  0  0  0  0
   -1.8250   16.3740  -33.6550 O   0  0  0  0  0  0  0  0  0  0  0  0
   -1.1810   16.4960  -32.3910 C   0  0  0  0  0  0  0  0  0  0  0  0
   -1.9197   16.3561  -31.5881 H   0  0  0  0  0  0  0  0  0  0  0  0
   -0.3957   15.7306  -32.3042 H   0  0  0  0  0  0  0  0  0  0  0  0
   -0.7300   17.4955  -32.3042 H   0  0  0  0  0  0  0  0  0  0  0  0
   -3.4180   20.0580  -33.0500 C   0  0  0  0  0  0  0  0  0  0  0  0
   -4.6710   20.1060  -32.4080 C   0  0  0  0  0  0  0  0  0  0  0  0
   -5.3664   19.2590  -32.5028 H   0  0  0  0  0  0  0  0  0  0  0  0
   -5.0360   21.2220  -31.6520 C   0  0  0  0  0  0  0  0  0  0  0  0
   -6.0151   21.2459  -31.1512 H   0  0  0  0  0  0  0  0  0  0  0  0
   -4.1650   22.3100  -31.5270 C   0  0  0  0  0  0  0  0  0  0  0  0
   -4.6240   23.7090  -30.5610 S   0  0  0  0  0  0  0  0  0  0  0  0
   -5.2610   23.2770  -29.2680 O   0  0  0  0  0  0  0  0  0  0  0  0
   -5.6100   24.5320  -31.3400 O   0  0  0  0  0  0  0  0  0  0  0  0
   -3.2290   24.6830  -30.2090 N   0  0  0  0  0  0  0  0  0  0  0  0
   -2.7210   24.9160  -29.0320 C   0  0  0  0  0  0  0  0  0  0  0  0
   -1.6100   25.6980  -28.9500 N   0  0  0  0  0  0  0  0  0  0  0  0
   -1.0080   25.9850  -27.7660 C   0  0  0  0  0  0  0  0  0  0  0  0
   -0.1104   26.6205  -27.7453 H   0  0  0  0  0  0  0  0  0  0  0  0
   -1.5280   25.4740  -26.5770 C   0  0  0  0  0  0  0  0  0  0  0  0
   -1.0447   25.7016  -25.6154 H   0  0  0  0  0  0  0  0  0  0  0  0
   -2.6680   24.6710  -26.6210 C   0  0  0  0  0  0  0  0  0  0  0  0
   -3.0891   24.2612  -25.6911 H   0  0  0  0  0  0  0  0  0  0  0  0
   -3.2740   24.3880  -27.8470 C   0  0  0  0  0  0  0  0  0  0  0  0
   -4.1751   23.7585  -27.8880 H   0  0  0  0  0  0  0  0  0  0  0  0
   -2.9280   22.2870  -32.1810 C   0  0  0  0  0  0  0  0  0  0  0  0
   -2.2482   23.1475  -32.0954 H   0  0  0  0  0  0  0  0  0  0  0  0
   -2.5500   21.1730  -32.9450 C   0  0  0  0  0  0  0  0  0  0  0  0
   -1.3200   21.1620  -33.6130 C   0  0  0  0  0  0  0  0  0  0  0  0
   -0.6377   22.0209  -33.5312 H   0  0  0  0  0  0  0  0  0  0  0  0
  1  2  1  0
  2  3  2  0
  3  4  1  0
  4  5  1  0
  5  6  2  0
  6  7  1  0
  6  8  1  0
  8  9  1  0
  8 10  2  0
 10 11  1  0
 11 12  1  0
 11 13  1  0
 11 14  1  0
 10 15  1  0
 15 16  1  0
 15 17  2  0
 17 18  1  0
 18 19  1  0
 19 20  1  0
 19 21  1  0
 19 22  1  0
  4 23  2  0
 23 24  1  0
 24 25  1  0
 24 26  2  0
 26 27  1  0
 26 28  1  0
 28 29  1  0
 29 30  2  0
 29 31  2  0
 29 32  1  0
 32 33  2  0
 33 34  1  0
 34 35  1  0
 35 36  1  0
 35 37  2  0
 37 38  1  0
 37 39  1  0
 39 40  1  0
 39 41  2  0
 41 42  1  0
 28 43  2  0
 43 44  1  0
 43 45  1  0
 45 46  2  0
 46 47  1  0
 46  2  1  0
 17  5  1  0
 45 23  1  0
 41 33  1  0
M  CHG  1  34  -1
M  END
>  <UniqueID>  (47) 
45

>  <SMILES>  (47) 
COc1cc(C(F)(F)F)ccc1-c1nccc2cc(S(=O)(=O)/N=c3\cccc[n-]3)ccc12

>  <Energy>  (47) 
70.05256943447058

>  <Genealogy>  (47) 
COc1cc(C(F)(F)F)ccc1-c1nccc2cc(S(=O)(=O)N=c3cccc[n-]3)ccc12 (protonated)
COc1cc(C(F)(F)F)ccc1-c1nccc2cc(S(=O)(=O)/N=c3\cccc[n-]3)ccc12 (cis-trans isomerization)
COc1cc(C(F)(F)F)ccc1-c1nccc2cc(S(=O)(=O)/N=c3\cccc[n-]3)ccc12 (3D coordinates assigned)
COc1cc(C(F)(F)F)ccc1-c1nccc2cc(S(=O)(=O)/N=c3\cccc[n-]3)ccc12 (optimized conformer: 70.05256943447058 kcal/mol)

>  <smiles>  (47) 
COc1cc(C(F)(F)F)ccc1-c1nccc2cc(S(=O)(=O)N=c3cccc[nH]3)ccc12

>  <score_type>  (47) 
oracle

>  <origin>  (47) 
adgpu

>  <m_score__min__energy>  (47) 
-10.94

>  <m_primary>  (47) 
energy

$$$$
47:0
     RDKit          3D

 68 72  0  0  0  0  0  0  0  0999 V2000
   -5.1980   18.1720  -35.6930 O   0  0  0  0  0  0  0  0  0  0  0  0
   -4.8100   18.4950  -34.5400 C   0  0  0  0  0  0  0  0  0  0  0  0
   -3.4080   18.5060  -34.2320 N   0  0  0  0  0  0  0  0  0  0  0  0
   -2.7200   19.4700  -33.4240 C   0  0  0  0  0  0  0  0  0  0  0  0
   -2.9490   20.8500  -33.5490 C   0  0  0  0  0  0  0  0  0  0  0  0
   -2.3100   21.7480  -32.6880 C   0  0  0  0  0  0  0  0  0  0  0  0
   -1.4600   21.2750  -31.6830 C   0  0  0  0  0  0  0  0  0  0  0  0
   -1.2510   19.8970  -31.5300 C   0  0  0  0  0  0  0  0  0  0  0  0
   -0.2200   19.2770  -30.2310 S   0  0  0  0  0  0  0  0  0  0  0  0
   -0.2090   17.7750  -30.3060 O   0  0  0  0  0  0  0  0  0  0  0  0
    1.1930   19.7640  -30.4250 O   0  0  0  0  0  0  0  0  0  0  0  0
   -0.7690   19.7550  -28.6390 N   0  0  0  0  0  0  0  0  0  0  0  0
   -2.0910   20.3800  -28.6760 C   0  0  0  0  0  0  0  0  0  0  0  0
   -2.8140   20.0000  -27.3890 C   0  0  0  0  0  0  0  0  0  0  0  0
   -1.9370   18.9640  -26.7060 C   0  0  0  0  0  0  0  0  0  0  0  0
   -0.8740   18.6140  -27.7310 C   0  0  0  0  0  0  0  0  0  0  0  0
   -1.8690   19.0050  -32.4170 C   0  0  0  0  0  0  0  0  0  0  0  0
   -5.7930   18.7810  -33.4690 C   0  0  0  0  0  0  0  0  0  0  0  0
   -6.1370   20.1190  -33.2010 C   0  0  0  0  0  0  0  0  0  0  0  0
   -7.0400   20.4370  -32.1810 C   0  0  0  0  0  0  0  0  0  0  0  0
   -7.4290   22.1240  -31.8590 S   0  0  0  0  0  0  0  0  0  0  0  0
   -6.9940   22.9430  -33.0460 O   0  0  0  0  0  0  0  0  0  0  0  0
   -8.9210   22.2450  -31.7040 O   0  0  0  0  0  0  0  0  0  0  0  0
   -6.6050   22.6420  -30.3940 N   0  0  0  0  0  0  0  0  0  0  0  0
   -6.8550   24.0580  -30.0670 C   0  0  0  0  0  0  0  0  0  0  0  0
   -5.9720   25.0010  -30.8970 C   0  0  0  0  0  0  0  0  0  0  0  0
   -4.6080   24.6750  -30.7320 O   0  0  0  0  0  0  0  0  0  0  0  0
   -4.3710   23.3720  -31.2260 C   0  0  0  0  0  0  0  0  0  0  0  0
   -5.1630   22.3340  -30.4150 C   0  0  0  0  0  0  0  0  0  0  0  0
   -7.6140   19.4130  -31.4210 C   0  0  0  0  0  0  0  0  0  0  0  0
   -7.2890   18.0810  -31.6810 C   0  0  0  0  0  0  0  0  0  0  0  0
   -6.3860   17.7510  -32.7000 C   0  0  0  0  0  0  0  0  0  0  0  0
   -6.1020   16.3700  -32.9580 N   0  0  0  0  0  0  0  0  0  0  0  0
   -6.7110   15.6340  -34.0470 C   0  0  0  0  0  0  0  0  0  0  0  0
   -6.1700   14.2170  -33.9310 C   0  0  0  0  0  0  0  0  0  0  0  0
   -4.9590   14.2930  -32.9970 C   0  0  0  0  0  0  0  0  0  0  0  0
   -5.0500   15.6350  -32.2800 C   0  0  0  0  0  0  0  0  0  0  0  0
   -3.6320   21.2252  -34.3253 H   0  0  0  0  0  0  0  0  0  0  0  0
   -2.4764   22.8294  -32.8015 H   0  0  0  0  0  0  0  0  0  0  0  0
   -0.9548   21.9850  -31.0117 H   0  0  0  0  0  0  0  0  0  0  0  0
   -1.9878   21.4733  -28.7400 H   0  0  0  0  0  0  0  0  0  0  0  0
   -2.6573   20.0365  -29.5543 H   0  0  0  0  0  0  0  0  0  0  0  0
   -2.9357   20.8827  -26.7441 H   0  0  0  0  0  0  0  0  0  0  0  0
   -3.8198   19.6045  -27.5937 H   0  0  0  0  0  0  0  0  0  0  0  0
   -1.4768   19.3839  -25.7994 H   0  0  0  0  0  0  0  0  0  0  0  0
   -2.5110   18.0814  -26.3873 H   0  0  0  0  0  0  0  0  0  0  0  0
    0.0901   18.4379  -27.2314 H   0  0  0  0  0  0  0  0  0  0  0  0
   -1.1407   17.6979  -28.2784 H   0  0  0  0  0  0  0  0  0  0  0  0
   -1.6821   17.9254  -32.3196 H   0  0  0  0  0  0  0  0  0  0  0  0
   -5.6901   20.9252  -33.8013 H   0  0  0  0  0  0  0  0  0  0  0  0
   -7.9111   24.2889  -30.2700 H   0  0  0  0  0  0  0  0  0  0  0  0
   -6.6132   24.2108  -29.0048 H   0  0  0  0  0  0  0  0  0  0  0  0
   -6.2407   24.9067  -31.9595 H   0  0  0  0  0  0  0  0  0  0  0  0
   -6.1347   26.0336  -30.5547 H   0  0  0  0  0  0  0  0  0  0  0  0
   -4.6832   23.3224  -32.2796 H   0  0  0  0  0  0  0  0  0  0  0  0
   -3.2977   23.1484  -31.1364 H   0  0  0  0  0  0  0  0  0  0  0  0
   -5.0171   21.3418  -30.8670 H   0  0  0  0  0  0  0  0  0  0  0  0
   -4.7933   22.3539  -29.3792 H   0  0  0  0  0  0  0  0  0  0  0  0
   -8.3232   19.6580  -30.6166 H   0  0  0  0  0  0  0  0  0  0  0  0
   -7.7467   17.2818  -31.0795 H   0  0  0  0  0  0  0  0  0  0  0  0
   -7.8065   15.6368  -33.9479 H   0  0  0  0  0  0  0  0  0  0  0  0
   -6.4770   16.0819  -35.0240 H   0  0  0  0  0  0  0  0  0  0  0  0
   -6.9360   13.5506  -33.5077 H   0  0  0  0  0  0  0  0  0  0  0  0
   -5.8901   13.8146  -34.9158 H   0  0  0  0  0  0  0  0  0  0  0  0
   -4.9889   13.4697  -32.2681 H   0  0  0  0  0  0  0  0  0  0  0  0
   -4.0171   14.2046  -33.5583 H   0  0  0  0  0  0  0  0  0  0  0  0
   -5.3063   15.4875  -31.2205 H   0  0  0  0  0  0  0  0  0  0  0  0
   -4.0929   16.1765  -32.3074 H   0  0  0  0  0  0  0  0  0  0  0  0
  1  2  2  0
  2  3  1  0
  3  4  1  0
  4  5  2  0
  5  6  1  0
  6  7  2  0
  7  8  1  0
  8  9  1  0
  9 10  2  0
  9 11  2  0
  9 12  1  0
 12 13  1  0
 13 14  1  0
 14 15  1  0
 15 16  1  0
  8 17  2  0
  2 18  1  0
 18 19  2  0
 19 20  1  0
 20 21  1  0
 21 22  2  0
 21 23  2  0
 21 24  1  0
 24 25  1  0
 25 26  1  0
 26 27  1  0
 27 28  1  0
 28 29  1  0
 20 30  2  0
 30 31  1  0
 31 32  2  0
 32 33  1  0
 33 34  1  0
 34 35  1  0
 35 36  1  0
 36 37  1  0
 17  4  1  0
 32 18  1  0
 37 33  1  0
 16 12  1  0
 29 24  1  0
  5 38  1  0
  6 39  1  0
  7 40  1  0
 13 41  1  0
 13 42  1  0
 14 43  1  0
 14 44  1  0
 15 45  1  0
 15 46  1  0
 16 47  1  0
 16 48  1  0
 17 49  1  0
 19 50  1  0
 25 51  1  0
 25 52  1  0
 26 53  1  0
 26 54  1  0
 28 55  1  0
 28 56  1  0
 29 57  1  0
 29 58  1  0
 30 59  1  0
 31 60  1  0
 34 61  1  0
 34 62  1  0
 35 63  1  0
 35 64  1  0
 36 65  1  0
 36 66  1  0
 37 67  1  0
 37 68  1  0
M  CHG  1   3  -1
M  END
>  <UniqueID>  (48) 
46

>  <SMILES>  (48) 
O=C([N-]c1cccc(S(=O)(=O)N2CCCC2)c1)c1cc(S(=O)(=O)N2CCOCC2)ccc1N1CCCC1

>  <Energy>  (48) 
90.81760065821557

>  <Genealogy>  (48) 
O=C([N-]c1cccc(S(=O)(=O)N2CCCC2)c1)c1cc(S(=O)(=O)N2CCOCC2)ccc1N1CCCC1 (protonated)
O=C([N-]c1cccc(S(=O)(=O)N2CCCC2)c1)c1cc(S(=O)(=O)N2CCOCC2)ccc1N1CCCC1 (3D coordinates assigned)
O=C([N-]c1cccc(S(=O)(=O)N2CCCC2)c1)c1cc(S(=O)(=O)N2CCOCC2)ccc1N1CCCC1 (nonaromatic ring conformer: 90.81760065821557 kcal/mol)

>  <smiles>  (48) 
O=C(Nc1cccc(S(=O)(=O)N2CCCC2)c1)c1cc(S(=O)(=O)N2CCOCC2)ccc1N1CCCC1

>  <score_type>  (48) 
oracle

>  <origin>  (48) 
adgpu

>  <m_score__min__energy>  (48) 
-12.140000000000001

>  <m_primary>  (48) 
energy

$$$$
48:0
     RDKit          3D

 52 55  0  0  0  0  0  0  0  0999 V2000
   -5.3670   19.1610  -33.3570 C   0  0  0  0  0  0  0  0  0  0  0  0
   -6.5710   19.6450  -32.6910 N   0  0  0  0  0  0  0  0  0  0  0  0
   -7.7350   18.8260  -32.3570 C   0  0  0  0  0  0  0  0  0  0  0  0
   -8.7340   19.7780  -31.6550 C   0  0  0  0  0  0  0  0  0  0  0  0
   -8.0170   21.0860  -31.6460 C   0  0  0  0  0  0  0  0  0  0  0  0
   -8.4440   22.2980  -31.1050 C   0  0  0  0  0  0  0  0  0  0  0  0
   -7.5900   23.4100  -31.1940 C   0  0  0  0  0  0  0  0  0  0  0  0
   -6.3300   23.3000  -31.8350 C   0  0  0  0  0  0  0  0  0  0  0  0
   -5.4200   24.4070  -31.9100 N   0  0  0  0  0  0  0  0  0  0  0  0
   -5.0630   25.2730  -30.8280 C   0  0  0  0  0  0  0  0  0  0  0  0
   -5.9640   25.9490  -30.2650 O   0  0  0  0  0  0  0  0  0  0  0  0
   -3.7210   25.2860  -30.3230 N   0  0  0  0  0  0  0  0  0  0  0  0
   -3.1600   24.3940  -29.3490 C   0  0  0  0  0  0  0  0  0  0  0  0
   -3.9010   23.3170  -28.8350 C   0  0  0  0  0  0  0  0  0  0  0  0
   -3.3560   22.4910  -27.8510 C   0  0  0  0  0  0  0  0  0  0  0  0
   -2.0750   22.7380  -27.3600 C   0  0  0  0  0  0  0  0  0  0  0  0
   -1.3220   23.8130  -27.8500 C   0  0  0  0  0  0  0  0  0  0  0  0
    0.2780   24.1160  -27.1570 S   0  0  0  0  0  0  0  0  0  0  0  0
    1.2470   24.5340  -28.2310 O   0  0  0  0  0  0  0  0  0  0  0  0
    0.7820   22.8440  -26.5380 O   0  0  0  0  0  0  0  0  0  0  0  0
    0.1710   25.3570  -25.9300 N   0  0  0  0  0  0  0  0  0  0  0  0
   -1.2090   25.4460  -25.4190 C   0  0  0  0  0  0  0  0  0  0  0  0
   -1.4370   26.7930  -24.7140 C   0  0  0  0  0  0  0  0  0  0  0  0
   -1.2270   27.9320  -25.5420 O   0  0  0  0  0  0  0  0  0  0  0  0
   -0.4390   27.6660  -26.6930 C   0  0  0  0  0  0  0  0  0  0  0  0
    0.6890   26.6510  -26.4290 C   0  0  0  0  0  0  0  0  0  0  0  0
   -1.8690   24.6540  -28.8410 C   0  0  0  0  0  0  0  0  0  0  0  0
   -1.1310   25.7410  -29.3100 O   0  0  0  0  0  0  0  0  0  0  0  0
   -5.9230   22.0550  -32.3480 C   0  0  0  0  0  0  0  0  0  0  0  0
   -6.7950   20.9690  -32.2440 C   0  0  0  0  0  0  0  0  0  0  0  0
   -4.6250   18.8627  -32.6018 H   0  0  0  0  0  0  0  0  0  0  0  0
   -5.6190   18.2943  -33.9858 H   0  0  0  0  0  0  0  0  0  0  0  0
   -4.9490   19.9610  -33.9858 H   0  0  0  0  0  0  0  0  0  0  0  0
   -8.1828   18.4066  -33.2700 H   0  0  0  0  0  0  0  0  0  0  0  0
   -7.4616   17.9786  -31.7111 H   0  0  0  0  0  0  0  0  0  0  0  0
   -9.6745   19.8486  -32.2211 H   0  0  0  0  0  0  0  0  0  0  0  0
   -9.0174   19.4367  -30.6484 H   0  0  0  0  0  0  0  0  0  0  0  0
   -9.4275   22.3817  -30.6194 H   0  0  0  0  0  0  0  0  0  0  0  0
   -7.9011   24.3731  -30.7632 H   0  0  0  0  0  0  0  0  0  0  0  0
   -4.9167   23.1236  -29.2103 H   0  0  0  0  0  0  0  0  0  0  0  0
   -3.9387   21.6430  -27.4619 H   0  0  0  0  0  0  0  0  0  0  0  0
   -1.6525   22.0845  -26.5826 H   0  0  0  0  0  0  0  0  0  0  0  0
   -1.9127   25.3537  -26.2594 H   0  0  0  0  0  0  0  0  0  0  0  0
   -1.3732   24.6338  -24.6955 H   0  0  0  0  0  0  0  0  0  0  0  0
   -2.4744   26.8193  -24.3490 H   0  0  0  0  0  0  0  0  0  0  0  0
   -0.6961   26.8529  -23.9031 H   0  0  0  0  0  0  0  0  0  0  0  0
   -1.0936   27.2654  -27.4810 H   0  0  0  0  0  0  0  0  0  0  0  0
    0.0340   28.6125  -26.9937 H   0  0  0  0  0  0  0  0  0  0  0  0
    1.2349   26.4758  -27.3678 H   0  0  0  0  0  0  0  0  0  0  0  0
    1.3481   27.0720  -25.6554 H   0  0  0  0  0  0  0  0  0  0  0  0
   -0.1180   25.7520  -29.3220 H   0  0  0  0  0  0  0  0  0  0  0  0
   -4.9371   21.9390  -32.8219 H   0  0  0  0  0  0  0  0  0  0  0  0
  1  2  1  0
  2  3  1  0
  3  4  1  0
  4  5  1  0
  5  6  2  0
  6  7  1  0
  7  8  2  0
  8  9  1  0
  9 10  1  0
 10 11  2  0
 10 12  1  0
 12 13  1  0
 13 14  2  0
 14 15  1  0
 15 16  2  0
 16 17  1  0
 17 18  1  0
 18 19  2  0
 18 20  2  0
 18 21  1  0
 21 22  1  0
 22 23  1  0
 23 24  1  0
 24 25  1  0
 25 26  1  0
 17 27  2  0
 27 28  1  0
  8 29  1  0
 29 30  2  0
 30  2  1  0
 30  5  1  0
 27 13  1  0
 26 21  1  0
  1 31  1  0
  1 32  1  0
  1 33  1  0
  3 34  1  0
  3 35  1  0
  4 36  1  0
  4 37  1  0
  6 38  1  0
  7 39  1  0
 14 40  1  0
 15 41  1  0
 16 42  1  0
 22 43  1  0
 22 44  1  0
 23 45  1  0
 23 46  1  0
 25 47  1  0
 25 48  1  0
 26 49  1  0
 26 50  1  0
 28 51  1  0
 29 52  1  0
M  CHG  2   9  -1  12  -1
M  END
>  <UniqueID>  (49) 
47

>  <SMILES>  (49) 
CN1CCc2ccc([N-]C(=O)[N-]c3cccc(S(=O)(=O)N4CCOCC4)c3O)cc21

>  <Energy>  (49) 
87.07254289940778

>  <Genealogy>  (49) 
CN1CCc2ccc([N-]C(=O)[N-]c3cccc(S(=O)(=O)N4CCOCC4)c3O)cc21 (protonated)
CN1CCc2ccc([N-]C(=O)[N-]c3cccc(S(=O)(=O)N4CCOCC4)c3O)cc21 (3D coordinates assigned)
CN1CCc2ccc([N-]C(=O)[N-]c3cccc(S(=O)(=O)N4CCOCC4)c3O)cc21 (nonaromatic ring conformer: 87.07254289940778 kcal/mol)

>  <smiles>  (49) 
CN1CCc2ccc(NC(=O)Nc3cccc(S(=O)(=O)N4CCOCC4)c3O)cc21

>  <score_type>  (49) 
oracle

>  <origin>  (49) 
adgpu

>  <m_score__min__energy>  (49) 
-13.77

>  <m_primary>  (49) 
energy

$$$$
