0:0
     RDKit          3D

 46 48  0  0  0  0  0  0  0  0999 V2000
   -2.4400   20.3800  -33.5700 N   0  0  0  0  0  0  0  0  0  0  0  0
   -1.2790   20.3410  -32.7360 C   0  0  0  0  0  0  0  0  0  0  0  0
   -0.2480   19.7440  -33.1470 O   0  0  0  0  0  0  0  0  0  0  0  0
   -1.2630   20.9820  -31.4070 C   0  0  0  0  0  0  0  0  0  0  0  0
   -1.3990   22.3360  -31.1450 C   0  0  0  0  0  0  0  0  0  0  0  0
   -1.3570   22.4530  -29.7710 C   0  0  0  0  0  0  0  0  0  0  0  0
   -1.6330   23.9140  -28.8380 S   0  0  0  0  0  0  0  0  0  0  0  0
   -2.2340   23.5430  -27.5130 O   0  0  0  0  0  0  0  0  0  0  0  0
   -0.3400   24.6480  -28.6100 O   0  0  0  0  0  0  0  0  0  0  0  0
   -2.7340   24.9250  -29.7140 N   0  0  0  0  0  0  0  0  0  0  0  0
   -4.0090   24.4630  -30.1690 C   0  0  0  0  0  0  0  0  0  0  0  0
   -5.1040   25.3360  -30.2930 C   0  0  0  0  0  0  0  0  0  0  0  0
   -6.3150   24.8730  -30.8120 C   0  0  0  0  0  0  0  0  0  0  0  0
   -6.4350   23.5480  -31.2340 C   0  0  0  0  0  0  0  0  0  0  0  0
   -5.3460   22.6710  -31.1240 C   0  0  0  0  0  0  0  0  0  0  0  0
   -5.4460   21.0450  -31.7990 S   0  0  0  0  0  0  0  0  0  0  0  0
   -4.2200   20.2680  -31.4100 O   0  0  0  0  0  0  0  0  0  0  0  0
   -5.4870   21.1320  -33.3010 O   0  0  0  0  0  0  0  0  0  0  0  0
   -6.8660   20.2060  -31.2140 N   0  0  0  0  0  0  0  0  0  0  0  0
   -8.0730   21.0690  -31.2660 C   0  0  0  0  0  0  0  0  0  0  0  0
   -8.9840   20.7560  -32.4650 C   0  0  0  0  0  0  0  0  0  0  0  0
   -9.4510   19.2900  -32.4440 C   0  0  0  0  0  0  0  0  0  0  0  0
   -8.4400   18.3530  -31.7620 C   0  0  0  0  0  0  0  0  0  0  0  0
   -7.0140   18.8980  -31.8910 C   0  0  0  0  0  0  0  0  0  0  0  0
   -4.1480   23.1250  -30.5540 C   0  0  0  0  0  0  0  0  0  0  0  0
   -1.2100   21.1870  -29.2490 C   0  0  0  0  0  0  0  0  0  0  0  0
   -1.1480   20.2930  -30.2520 N   0  0  0  0  0  0  0  0  0  0  0  0
   -3.3140   20.8700  -33.2780 H   0  0  0  0  0  0  0  0  0  0  0  0
   -2.4260   19.9130  -34.5040 H   0  0  0  0  0  0  0  0  0  0  0  0
   -1.5159   23.1472  -31.8786 H   0  0  0  0  0  0  0  0  0  0  0  0
   -5.0067   26.3862  -29.9805 H   0  0  0  0  0  0  0  0  0  0  0  0
   -7.1757   25.5537  -30.8883 H   0  0  0  0  0  0  0  0  0  0  0  0
   -7.3866   23.1905  -31.6542 H   0  0  0  0  0  0  0  0  0  0  0  0
   -8.6490   20.9224  -30.3404 H   0  0  0  0  0  0  0  0  0  0  0  0
   -7.7300   22.1084  -31.3757 H   0  0  0  0  0  0  0  0  0  0  0  0
   -9.8651   21.4134  -32.4269 H   0  0  0  0  0  0  0  0  0  0  0  0
   -8.4121   20.9252  -33.3893 H   0  0  0  0  0  0  0  0  0  0  0  0
  -10.4056   19.2328  -31.9004 H   0  0  0  0  0  0  0  0  0  0  0  0
   -9.5562   18.9606  -33.4882 H   0  0  0  0  0  0  0  0  0  0  0  0
   -8.6956   18.2625  -30.6959 H   0  0  0  0  0  0  0  0  0  0  0  0
   -8.4857   17.3700  -32.2536 H   0  0  0  0  0  0  0  0  0  0  0  0
   -6.3152   18.1801  -31.4367 H   0  0  0  0  0  0  0  0  0  0  0  0
   -6.7950   19.0377  -32.9599 H   0  0  0  0  0  0  0  0  0  0  0  0
   -3.3122   22.4248  -30.4086 H   0  0  0  0  0  0  0  0  0  0  0  0
   -1.1522   20.9445  -28.1776 H   0  0  0  0  0  0  0  0  0  0  0  0
   -1.0550   19.2590  -30.1440 H   0  0  0  0  0  0  0  0  0  0  0  0
  1  2  1  0
  2  3  2  0
  2  4  1  0
  4  5  2  0
  5  6  1  0
  6  7  1  0
  7  8  2  0
  7  9  2  0
  7 10  1  0
 10 11  1  0
 11 12  2  0
 12 13  1  0
 13 14  2  0
 14 15  1  0
 15 16  1  0
 16 17  2  0
 16 18  2  0
 16 19  1  0
 19 20  1  0
 20 21  1  0
 21 22  1  0
 22 23  1  0
 23 24  1  0
 15 25  2  0
  6 26  2  0
 26 27  1  0
 27  4  1  0
 25 11  1  0
 24 19  1  0
  1 28  1  0
  1 29  1  0
  5 30  1  0
 12 31  1  0
 13 32  1  0
 14 33  1  0
 20 34  1  0
 20 35  1  0
 21 36  1  0
 21 37  1  0
 22 38  1  0
 22 39  1  0
 23 40  1  0
 23 41  1  0
 24 42  1  0
 24 43  1  0
 25 44  1  0
 26 45  1  0
 27 46  1  0
M  CHG  1  10  -1
M  END
>  <UniqueID>  (1) 
1

>  <SMILES>  (1) 
NC(=O)c1cc(S(=O)(=O)[N-]c2cccc(S(=O)(=O)N3CCCCC3)c2)c[nH]1

>  <Energy>  (1) 
78.48152597340801

>  <Genealogy>  (1) 
NC(=O)c1cc(S(=O)(=O)[N-]c2cccc(S(=O)(=O)N3CCCCC3)c2)c[nH]1 (protonated)
NC(=O)c1cc(S(=O)(=O)[N-]c2cccc(S(=O)(=O)N3CCCCC3)c2)c[nH]1 (3D coordinates assigned)
NC(=O)c1cc(S(=O)(=O)[N-]c2cccc(S(=O)(=O)N3CCCCC3)c2)c[nH]1 (nonaromatic ring conformer: 78.48152597340801 kcal/mol)

>  <smiles>  (1) 
NC(=O)c1cc(S(=O)(=O)Nc2cccc(S(=O)(=O)N3CCCCC3)c2)c[nH]1

>  <score_type>  (1) 
oracle

>  <origin>  (1) 
adgpu

>  <m_score__min__energy>  (1) 
-11.19

>  <m_primary>  (1) 
energy

$$$$
1:0
     RDKit          3D

 77 81  0  0  0  0  0  0  0  0999 V2000
    0.6520   27.6320  -22.8490 C   0  0  0  0  0  0  0  0  0  0  0  0
    0.5320   26.4190  -23.6750 N   0  0  0  0  0  0  0  0  0  0  0  0
    1.7810   26.1980  -24.4380 C   0  0  0  0  0  0  0  0  0  0  0  0
    1.6880   24.9190  -25.2800 C   0  0  0  0  0  0  0  0  0  0  0  0
    0.4760   24.9550  -26.1040 N   0  0  0  0  0  0  0  0  0  0  0  0
    0.5310   24.6240  -27.5070 C   0  0  0  0  0  0  0  0  0  0  0  0
    1.5530   24.9280  -28.1780 O   0  0  0  0  0  0  0  0  0  0  0  0
   -0.5990   23.9460  -28.1850 C   0  0  0  0  0  0  0  0  0  0  0  0
   -0.8250   22.5760  -27.9700 C   0  0  0  0  0  0  0  0  0  0  0  0
   -1.8950   21.9280  -28.5910 C   0  0  0  0  0  0  0  0  0  0  0  0
   -2.7740   22.6480  -29.4170 C   0  0  0  0  0  0  0  0  0  0  0  0
   -3.8870   22.0520  -30.0260 O   0  0  0  0  0  0  0  0  0  0  0  0
   -3.8470   21.0250  -30.9820 C   0  0  0  0  0  0  0  0  0  0  0  0
   -2.6000   20.4690  -31.2860 C   0  0  0  0  0  0  0  0  0  0  0  0
   -2.4850   19.4480  -32.2300 C   0  0  0  0  0  0  0  0  0  0  0  0
   -3.6200   18.9840  -32.9070 C   0  0  0  0  0  0  0  0  0  0  0  0
   -3.4660   17.7310  -34.1400 S   0  0  0  0  0  0  0  0  0  0  0  0
   -4.6730   17.7680  -35.0370 O   0  0  0  0  0  0  0  0  0  0  0  0
   -2.2570   18.0270  -34.9860 O   0  0  0  0  0  0  0  0  0  0  0  0
   -3.3090   16.1310  -33.4470 N   0  0  0  0  0  0  0  0  0  0  0  0
   -2.7770   15.1350  -34.4000 C   0  0  0  0  0  0  0  0  0  0  0  0
   -3.8510   14.4750  -35.2910 C   0  0  0  0  0  0  0  0  0  0  0  0
   -5.2150   14.3150  -34.6060 C   0  0  0  0  0  0  0  0  0  0  0  0
   -5.0830   14.3640  -33.0890 C   0  0  0  0  0  0  0  0  0  0  0  0
   -4.4980   15.7170  -32.6610 C   0  0  0  0  0  0  0  0  0  0  0  0
   -4.8740   19.5260  -32.6030 C   0  0  0  0  0  0  0  0  0  0  0  0
   -5.0000   20.5640  -31.6650 C   0  0  0  0  0  0  0  0  0  0  0  0
   -6.3410   21.1440  -31.4450 C   0  0  0  0  0  0  0  0  0  0  0  0
   -6.4210   22.3140  -30.9760 O   0  0  0  0  0  0  0  0  0  0  0  0
   -7.5450   20.4010  -31.7240 N   0  0  0  0  0  0  0  0  0  0  0  0
   -8.8260   21.1180  -31.7910 C   0  0  0  0  0  0  0  0  0  0  0  0
   -9.8440   20.4030  -32.7050 C   0  0  0  0  0  0  0  0  0  0  0  0
   -9.6980   18.9350  -32.7680 N   0  0  0  0  0  0  0  0  0  0  0  0
   -8.9620   18.3780  -31.6280 C   0  0  0  0  0  0  0  0  0  0  0  0
   -7.5400   18.9380  -31.5900 C   0  0  0  0  0  0  0  0  0  0  0  0
   -2.5290   24.0030  -29.6640 C   0  0  0  0  0  0  0  0  0  0  0  0
   -1.4500   24.6530  -29.0580 C   0  0  0  0  0  0  0  0  0  0  0  0
   -1.2450   26.0030  -29.3130 O   0  0  0  0  0  0  0  0  0  0  0  0
   -0.7910   25.2760  -25.4400 C   0  0  0  0  0  0  0  0  0  0  0  0
   -0.6250   26.5400  -24.5870 C   0  0  0  0  0  0  0  0  0  0  0  0
    0.6246   27.3551  -21.7848 H   0  0  0  0  0  0  0  0  0  0  0  0
    1.6043   28.1351  -23.0726 H   0  0  0  0  0  0  0  0  0  0  0  0
   -0.1833   28.3120  -23.0726 H   0  0  0  0  0  0  0  0  0  0  0  0
    0.3780   25.6080  -23.0290 H   0  0  0  0  0  0  0  0  0  0  0  0
    1.9529   27.0563  -25.1042 H   0  0  0  0  0  0  0  0  0  0  0  0
    2.6135   26.0914  -23.7269 H   0  0  0  0  0  0  0  0  0  0  0  0
    2.5710   24.8458  -25.9319 H   0  0  0  0  0  0  0  0  0  0  0  0
    1.6477   24.0460  -24.6119 H   0  0  0  0  0  0  0  0  0  0  0  0
   -0.1540   22.0095  -27.3075 H   0  0  0  0  0  0  0  0  0  0  0  0
   -2.0499   20.8505  -28.4328 H   0  0  0  0  0  0  0  0  0  0  0  0
   -1.6997   20.8409  -30.7750 H   0  0  0  0  0  0  0  0  0  0  0  0
   -1.5004   19.0063  -32.4431 H   0  0  0  0  0  0  0  0  0  0  0  0
   -2.0482   15.6374  -35.0530 H   0  0  0  0  0  0  0  0  0  0  0  0
   -2.3274   14.3310  -33.7988 H   0  0  0  0  0  0  0  0  0  0  0  0
   -3.9852   15.0958  -36.1891 H   0  0  0  0  0  0  0  0  0  0  0  0
   -3.4917   13.4625  -35.5272 H   0  0  0  0  0  0  0  0  0  0  0  0
   -5.8782   15.1289  -34.9342 H   0  0  0  0  0  0  0  0  0  0  0  0
   -5.6311   13.3361  -34.8864 H   0  0  0  0  0  0  0  0  0  0  0  0
   -6.0750   14.2341  -32.6318 H   0  0  0  0  0  0  0  0  0  0  0  0
   -4.4130   13.5574  -32.7567 H   0  0  0  0  0  0  0  0  0  0  0  0
   -5.2768   16.4847  -32.7797 H   0  0  0  0  0  0  0  0  0  0  0  0
   -4.1698   15.6083  -31.6167 H   0  0  0  0  0  0  0  0  0  0  0  0
   -5.7714   19.1346  -33.1044 H   0  0  0  0  0  0  0  0  0  0  0  0
   -9.2471   21.1875  -30.7772 H   0  0  0  0  0  0  0  0  0  0  0  0
   -8.6343   22.1158  -32.2126 H   0  0  0  0  0  0  0  0  0  0  0  0
  -10.8545   20.6305  -32.3348 H   0  0  0  0  0  0  0  0  0  0  0  0
   -9.6597   20.7757  -33.7234 H   0  0  0  0  0  0  0  0  0  0  0  0
   -9.1900   18.6790  -33.6500 H   0  0  0  0  0  0  0  0  0  0  0  0
   -9.4817   18.6438  -30.6957 H   0  0  0  0  0  0  0  0  0  0  0  0
   -8.9132   17.2842  -31.7335 H   0  0  0  0  0  0  0  0  0  0  0  0
   -7.0722   18.6664  -30.6322 H   0  0  0  0  0  0  0  0  0  0  0  0
   -6.9735   18.5116  -32.4310 H   0  0  0  0  0  0  0  0  0  0  0  0
   -3.1915   24.5620  -30.3412 H   0  0  0  0  0  0  0  0  0  0  0  0
   -1.5681   25.4474  -26.1994 H   0  0  0  0  0  0  0  0  0  0  0  0
   -1.0844   24.4367  -24.7923 H   0  0  0  0  0  0  0  0  0  0  0  0
   -0.4704   27.4035  -25.2507 H   0  0  0  0  0  0  0  0  0  0  0  0
   -1.5338   26.6748  -23.9821 H   0  0  0  0  0  0  0  0  0  0  0  0
  1  2  1  0
  2  3  1  0
  3  4  1  0
  4  5  1  0
  5  6  1  0
  6  7  2  0
  6  8  1  0
  8  9  2  0
  9 10  1  0
 10 11  2  0
 11 12  1  0
 12 13  1  0
 13 14  2  0
 14 15  1  0
 15 16  2  0
 16 17  1  0
 17 18  2  0
 17 19  2  0
 17 20  1  0
 20 21  1  0
 21 22  1  0
 22 23  1  0
 23 24  1  0
 24 25  1  0
 16 26  1  0
 26 27  2  0
 27 28  1  0
 28 29  2  0
 28 30  1  0
 30 31  1  0
 31 32  1  0
 32 33  1  0
 33 34  1  0
 34 35  1  0
 11 36  1  0
 36 37  2  0
 37 38  1  0
  5 39  1  0
 39 40  1  0
 40  2  1  0
 37  8  1  0
 27 13  1  0
 35 30  1  0
 25 20  1  0
  1 41  1  0
  1 42  1  0
  1 43  1  0
  2 44  1  0
  3 45  1  0
  3 46  1  0
  4 47  1  0
  4 48  1  0
  9 49  1  0
 10 50  1  0
 14 51  1  0
 15 52  1  0
 21 53  1  0
 21 54  1  0
 22 55  1  0
 22 56  1  0
 23 57  1  0
 23 58  1  0
 24 59  1  0
 24 60  1  0
 25 61  1  0
 25 62  1  0
 26 63  1  0
 31 64  1  0
 31 65  1  0
 32 66  1  0
 32 67  1  0
 33 68  1  0
 34 69  1  0
 34 70  1  0
 35 71  1  0
 35 72  1  0
 36 73  1  0
 39 74  1  0
 39 75  1  0
 40 76  1  0
 40 77  1  0
M  CHG  2   2   1  38  -1
M  END
>  <UniqueID>  (2) 
2

>  <SMILES>  (2) 
C[NH+]1CCN(C(=O)c2ccc(Oc3ccc(S(=O)(=O)N4CCCCC4)cc3C(=O)N3CCNCC3)cc2[O-])CC1

>  <Energy>  (2) 
106.21106149355747

>  <Genealogy>  (2) 
C[NH+]1CCN(C(=O)c2ccc(Oc3ccc(S(=O)(=O)N4CCCCC4)cc3C(=O)N3CCNCC3)cc2[O-])CC1 (protonated)
C[NH+]1CCN(C(=O)c2ccc(Oc3ccc(S(=O)(=O)N4CCCCC4)cc3C(=O)N3CCNCC3)cc2[O-])CC1 (3D coordinates assigned)
C[NH+]1CCN(C(=O)c2ccc(Oc3ccc(S(=O)(=O)N4CCCCC4)cc3C(=O)N3CCNCC3)cc2[O-])CC1 (nonaromatic ring conformer: 106.21106149355747 kcal/mol)

>  <smiles>  (2) 
CN1CCN(C(=O)c2ccc(Oc3ccc(S(=O)(=O)N4CCCCC4)cc3C(=O)N3CCNCC3)cc2O)CC1

>  <score_type>  (2) 
oracle

>  <origin>  (2) 
adgpu

>  <m_score__min__energy>  (2) 
-13.42

>  <m_primary>  (2) 
energy

$$$$
2:0
     RDKit          3D

 45 47  0  0  0  0  0  0  0  0999 V2000
   -9.8630   21.8850  -32.2460 C   0  0  0  0  0  0  0  0  0  0  0  0
   -8.6290   21.1650  -31.9250 N   0  0  0  0  0  0  0  0  0  0  0  0
   -7.4450   21.8870  -31.5270 C   0  0  0  0  0  0  0  0  0  0  0  0
   -6.4120   22.1380  -32.4490 C   0  0  0  0  0  0  0  0  0  0  0  0
   -5.2640   22.8340  -32.0600 C   0  0  0  0  0  0  0  0  0  0  0  0
   -5.1200   23.2870  -30.7400 C   0  0  0  0  0  0  0  0  0  0  0  0
   -3.9050   24.0320  -30.3380 C   0  0  0  0  0  0  0  0  0  0  0  0
   -3.8680   25.2810  -30.5130 O   0  0  0  0  0  0  0  0  0  0  0  0
   -2.7630   23.3650  -29.7640 N   0  0  0  0  0  0  0  0  0  0  0  0
   -2.0070   23.9900  -28.6750 C   0  0  0  0  0  0  0  0  0  0  0  0
   -0.5090   23.7410  -28.8830 C   0  0  0  0  0  0  0  0  0  0  0  0
   -0.2490   22.3610  -29.0690 O   0  0  0  0  0  0  0  0  0  0  0  0
   -0.8550   21.9160  -30.2690 C   0  0  0  0  0  0  0  0  0  0  0  0
   -2.3820   22.0100  -30.1730 C   0  0  0  0  0  0  0  0  0  0  0  0
   -6.1610   23.0650  -29.8250 C   0  0  0  0  0  0  0  0  0  0  0  0
   -7.3090   22.3680  -30.2130 C   0  0  0  0  0  0  0  0  0  0  0  0
   -8.6040   19.4270  -32.0380 S   0  0  0  0  0  0  0  0  0  0  0  0
   -9.6970   18.9840  -32.9710 O   0  0  0  0  0  0  0  0  0  0  0  0
   -8.8630   18.8170  -30.6890 O   0  0  0  0  0  0  0  0  0  0  0  0
   -7.0350   18.8830  -32.6310 C   0  0  0  0  0  0  0  0  0  0  0  0
   -6.5160   19.3800  -33.8370 C   0  0  0  0  0  0  0  0  0  0  0  0
   -5.2670   18.9480  -34.2940 C   0  0  0  0  0  0  0  0  0  0  0  0
   -4.5330   18.0190  -33.5520 C   0  0  0  0  0  0  0  0  0  0  0  0
   -5.0460   17.5200  -32.3520 C   0  0  0  0  0  0  0  0  0  0  0  0
   -6.2940   17.9500  -31.8910 C   0  0  0  0  0  0  0  0  0  0  0  0
  -10.3684   22.1799  -31.3145 H   0  0  0  0  0  0  0  0  0  0  0  0
   -9.6212   22.7838  -32.8323 H   0  0  0  0  0  0  0  0  0  0  0  0
  -10.5264   21.2323  -32.8323 H   0  0  0  0  0  0  0  0  0  0  0  0
   -6.5089   21.7831  -33.4857 H   0  0  0  0  0  0  0  0  0  0  0  0
   -4.4679   23.0279  -32.7939 H   0  0  0  0  0  0  0  0  0  0  0  0
   -2.2011   25.0727  -28.6684 H   0  0  0  0  0  0  0  0  0  0  0  0
   -2.3207   23.5549  -27.7146 H   0  0  0  0  0  0  0  0  0  0  0  0
   -0.1715   24.2944  -29.7717 H   0  0  0  0  0  0  0  0  0  0  0  0
    0.0327   24.0843  -27.9893 H   0  0  0  0  0  0  0  0  0  0  0  0
   -0.5065   22.5426  -31.1033 H   0  0  0  0  0  0  0  0  0  0  0  0
   -0.5756   20.8655  -30.4375 H   0  0  0  0  0  0  0  0  0  0  0  0
   -2.8257   21.7846  -31.1540 H   0  0  0  0  0  0  0  0  0  0  0  0
   -2.7481   21.2860  -29.4301 H   0  0  0  0  0  0  0  0  0  0  0  0
   -6.0729   23.4421  -28.7954 H   0  0  0  0  0  0  0  0  0  0  0  0
   -8.1135   22.1943  -29.4833 H   0  0  0  0  0  0  0  0  0  0  0  0
   -7.0927   20.1104  -34.4234 H   0  0  0  0  0  0  0  0  0  0  0  0
   -4.8619   19.3399  -35.2386 H   0  0  0  0  0  0  0  0  0  0  0  0
   -3.5506   17.6803  -33.9128 H   0  0  0  0  0  0  0  0  0  0  0  0
   -4.4674   16.7881  -31.7693 H   0  0  0  0  0  0  0  0  0  0  0  0
   -6.6956   17.5557  -30.9459 H   0  0  0  0  0  0  0  0  0  0  0  0
  1  2  1  0
  2  3  1  0
  3  4  2  0
  4  5  1  0
  5  6  2  0
  6  7  1  0
  7  8  2  0
  7  9  1  0
  9 10  1  0
 10 11  1  0
 11 12  1  0
 12 13  1  0
 13 14  1  0
  6 15  1  0
 15 16  2  0
  2 17  1  0
 17 18  2  0
 17 19  2  0
 17 20  1  0
 20 21  2  0
 21 22  1  0
 22 23  2  0
 23 24  1  0
 24 25  2  0
 16  3  1  0
 25 20  1  0
 14  9  1  0
  1 26  1  0
  1 27  1  0
  1 28  1  0
  4 29  1  0
  5 30  1  0
 10 31  1  0
 10 32  1  0
 11 33  1  0
 11 34  1  0
 13 35  1  0
 13 36  1  0
 14 37  1  0
 14 38  1  0
 15 39  1  0
 16 40  1  0
 21 41  1  0
 22 42  1  0
 23 43  1  0
 24 44  1  0
 25 45  1  0
M  END
>  <UniqueID>  (3) 
3

>  <SMILES>  (3) 
CN(c1ccc(C(=O)N2CCOCC2)cc1)S(=O)(=O)c1ccccc1

>  <Energy>  (3) 
57.33676293828552

>  <Genealogy>  (3) 
CN(c1ccc(C(=O)N2CCOCC2)cc1)S(=O)(=O)c1ccccc1 (3D coordinates assigned)
CN(c1ccc(C(=O)N2CCOCC2)cc1)S(=O)(=O)c1ccccc1 (nonaromatic ring conformer: 57.33676293828552 kcal/mol)

>  <smiles>  (3) 
CN(c1ccc(C(=O)N2CCOCC2)cc1)S(=O)(=O)c1ccccc1

>  <score_type>  (3) 
oracle

>  <origin>  (3) 
adgpu

>  <m_score__min__energy>  (3) 
-8.9199999999999999

>  <m_primary>  (3) 
energy

$$$$
3:0
     RDKit          3D

 62 65  0  0  0  0  0  0  0  0999 V2000
   -3.8069   16.9743  -34.8849 H   0  0  0  0  0  0  0  0  0  0  0  0
   -3.2950   17.7750  -34.3310 C   0  0  0  0  0  0  0  0  0  0  0  0
   -3.6100   19.0490  -34.3810 O   0  0  0  0  0  0  0  0  0  0  0  0
   -2.7870   19.7120  -33.6010 C   0  0  0  0  0  0  0  0  0  0  0  0
   -2.8570   21.1870  -33.3690 C   0  0  0  0  0  0  0  0  0  0  0  0
   -2.2889   21.7068  -34.1545 H   0  0  0  0  0  0  0  0  0  0  0  0
   -2.4274   21.4187  -32.3832 H   0  0  0  0  0  0  0  0  0  0  0  0
   -4.2490   21.6320  -33.4030 N   0  0  0  0  0  0  0  0  0  0  0  0
   -4.5860   22.0420  -34.3020 H   0  0  0  0  0  0  0  0  0  0  0  0
   -5.2360   21.0570  -32.5280 C   0  0  0  0  0  0  0  0  0  0  0  0
   -5.1480   21.1850  -31.2280 N   0  0  0  0  0  0  0  0  0  0  0  0
   -5.7960   20.6430  -30.6150 H   0  0  0  0  0  0  0  0  0  0  0  0
   -4.2040   22.0330  -30.5540 C   0  0  0  0  0  0  0  0  0  0  0  0
   -4.4700   23.3950  -30.3390 C   0  0  0  0  0  0  0  0  0  0  0  0
   -5.4086   23.8341  -30.7081 H   0  0  0  0  0  0  0  0  0  0  0  0
   -3.5490   24.1950  -29.6590 C   0  0  0  0  0  0  0  0  0  0  0  0
   -3.7601   25.2635  -29.5051 H   0  0  0  0  0  0  0  0  0  0  0  0
   -2.3570   23.6420  -29.1720 C   0  0  0  0  0  0  0  0  0  0  0  0
   -1.2060   24.6470  -28.2870 S   0  0  0  0  0  0  0  0  0  0  0  0
   -1.3580   26.0770  -28.7280 O   0  0  0  0  0  0  0  0  0  0  0  0
    0.1920   24.2050  -28.6180 O   0  0  0  0  0  0  0  0  0  0  0  0
   -1.4590   24.5420  -26.5600 N   0  0  0  0  0  0  0  0  0  0  0  0
   -2.3450   25.6280  -26.0680 C   0  0  0  0  0  0  0  0  0  0  0  0
   -2.8858   26.0549  -26.9255 H   0  0  0  0  0  0  0  0  0  0  0  0
   -3.0302   25.1852  -25.3301 H   0  0  0  0  0  0  0  0  0  0  0  0
   -1.5760   26.7560  -25.3630 C   0  0  0  0  0  0  0  0  0  0  0  0
   -0.8825   27.2201  -26.0798 H   0  0  0  0  0  0  0  0  0  0  0  0
   -2.3024   27.4944  -24.9927 H   0  0  0  0  0  0  0  0  0  0  0  0
   -0.7740   26.2180  -24.1650 C   0  0  0  0  0  0  0  0  0  0  0  0
    0.1089   26.8573  -24.0174 H   0  0  0  0  0  0  0  0  0  0  0  0
   -1.4385   26.2315  -23.2885 H   0  0  0  0  0  0  0  0  0  0  0  0
   -0.3020   24.7660  -24.3670 C   0  0  0  0  0  0  0  0  0  0  0  0
    0.6734   24.6335  -23.8760 H   0  0  0  0  0  0  0  0  0  0  0  0
   -1.0505   24.0904  -23.9273 H   0  0  0  0  0  0  0  0  0  0  0  0
   -0.1620   24.4350  -25.8560 C   0  0  0  0  0  0  0  0  0  0  0  0
    0.5514   25.1369  -26.3126 H   0  0  0  0  0  0  0  0  0  0  0  0
    0.1953   23.3986  -25.9469 H   0  0  0  0  0  0  0  0  0  0  0  0
   -2.0950   22.2790  -29.3740 C   0  0  0  0  0  0  0  0  0  0  0  0
   -1.1583   21.8394  -29.0006 H   0  0  0  0  0  0  0  0  0  0  0  0
   -3.0200   21.4780  -30.0480 C   0  0  0  0  0  0  0  0  0  0  0  0
   -2.8182   20.4051  -30.1826 H   0  0  0  0  0  0  0  0  0  0  0  0
   -6.3740   20.2690  -33.1540 C   0  0  0  0  0  0  0  0  0  0  0  0
   -6.3215   20.4088  -34.2438 H   0  0  0  0  0  0  0  0  0  0  0  0
   -7.7580   20.8260  -32.7320 C   0  0  0  0  0  0  0  0  0  0  0  0
   -7.6533   21.9039  -32.5392 H   0  0  0  0  0  0  0  0  0  0  0  0
   -8.4538   20.6098  -33.5561 H   0  0  0  0  0  0  0  0  0  0  0  0
   -8.3390   20.1630  -31.4720 C   0  0  0  0  0  0  0  0  0  0  0  0
   -7.7762   20.5257  -30.5993 H   0  0  0  0  0  0  0  0  0  0  0  0
   -9.4041   20.4347  -31.4313 H   0  0  0  0  0  0  0  0  0  0  0  0
   -8.2710   18.6190  -31.4870 C   0  0  0  0  0  0  0  0  0  0  0  0
   -7.7333   18.2868  -30.5867 H   0  0  0  0  0  0  0  0  0  0  0  0
   -9.3078   18.2529  -31.5172 H   0  0  0  0  0  0  0  0  0  0  0  0
   -7.5580   18.0430  -32.7160 C   0  0  0  0  0  0  0  0  0  0  0  0
   -7.3873   16.9670  -32.5644 H   0  0  0  0  0  0  0  0  0  0  0  0
   -8.1890   18.2055  -33.6022 H   0  0  0  0  0  0  0  0  0  0  0  0
   -6.2130   18.7410  -32.9310 C   0  0  0  0  0  0  0  0  0  0  0  0
   -5.5830   18.5769  -32.0443 H   0  0  0  0  0  0  0  0  0  0  0  0
   -5.7520   18.3147  -33.8342 H   0  0  0  0  0  0  0  0  0  0  0  0
   -1.8960   18.8450  -33.0040 C   0  0  0  0  0  0  0  0  0  0  0  0
   -1.0921   19.0995  -32.2977 H   0  0  0  0  0  0  0  0  0  0  0  0
   -2.2240   17.5920  -33.4780 C   0  0  0  0  0  0  0  0  0  0  0  0
   -1.7326   16.6403  -33.2276 H   0  0  0  0  0  0  0  0  0  0  0  0
  1  2  1  0
  2  3  1  0
  3  4  1  0
  4  5  1  0
  5  6  1  0
  5  7  1  0
  5  8  1  0
  8  9  1  0
  8 10  1  0
 10 11  2  0
 11 12  1  0
 11 13  1  0
 13 14  2  0
 14 15  1  0
 14 16  1  0
 16 17  1  0
 16 18  2  0
 18 19  1  0
 19 20  2  0
 19 21  2  0
 19 22  1  0
 22 23  1  0
 23 24  1  0
 23 25  1  0
 23 26  1  0
 26 27  1  0
 26 28  1  0
 26 29  1  0
 29 30  1  0
 29 31  1  0
 29 32  1  0
 32 33  1  0
 32 34  1  0
 32 35  1  0
 35 36  1  0
 35 37  1  0
 18 38  1  0
 38 39  1  0
 38 40  2  0
 40 41  1  0
 10 42  1  0
 42 43  1  0
 42 44  1  0
 44 45  1  0
 44 46  1  0
 44 47  1  0
 47 48  1  0
 47 49  1  0
 47 50  1  0
 50 51  1  0
 50 52  1  0
 50 53  1  0
 53 54  1  0
 53 55  1  0
 53 56  1  0
 56 57  1  0
 56 58  1  0
  4 59  2  0
 59 60  1  0
 59 61  1  0
 61 62  1  0
 61  2  2  0
 40 13  1  0
 56 42  1  0
 35 22  1  0
M  CHG  1  11   1
M  END
>  <UniqueID>  (4) 
4

>  <SMILES>  (4) 
O=S(=O)(c1ccc(/[NH+]=C(\NCc2ccco2)C2CCCCC2)cc1)N1CCCCC1

>  <Energy>  (4) 
104.04275651703072

>  <Genealogy>  (4) 
O=S(=O)(c1ccc([NH+]=C(NCc2ccco2)C2CCCCC2)cc1)N1CCCCC1 (protonated)
O=S(=O)(c1ccc(/[NH+]=C(\NCc2ccco2)C2CCCCC2)cc1)N1CCCCC1 (cis-trans isomerization)
O=S(=O)(c1ccc(/[NH+]=C(\NCc2ccco2)C2CCCCC2)cc1)N1CCCCC1 (3D coordinates assigned)
O=S(=O)(c1ccc(/[NH+]=C(\NCc2ccco2)C2CCCCC2)cc1)N1CCCCC1 (nonaromatic ring conformer: 104.04275651703072 kcal/mol)

>  <smiles>  (4) 
O=S(=O)(c1ccc(N=C(NCc2ccco2)C2CCCCC2)cc1)N1CCCCC1

>  <score_type>  (4) 
oracle

>  <origin>  (4) 
adgpu

>  <m_score__min__energy>  (4) 
-10.640000000000001

>  <m_primary>  (4) 
energy

$$$$
4:0
     RDKit          3D

 51 53  0  0  0  0  0  0  0  0999 V2000
   -3.3420   17.0550  -33.3950 C   0  0  0  0  0  0  0  0  0  0  0  0
   -3.1130   18.4340  -32.8360 C   0  0  0  0  0  0  0  0  0  0  0  0
   -1.8170   18.7900  -32.4230 C   0  0  0  0  0  0  0  0  0  0  0  0
   -1.5490   20.0710  -31.9190 C   0  0  0  0  0  0  0  0  0  0  0  0
   -0.1640   20.4220  -31.4400 C   0  0  0  0  0  0  0  0  0  0  0  0
    0.1690   19.7110  -30.1270 C   0  0  0  0  0  0  0  0  0  0  0  0
    0.5710   20.6880  -29.1170 N   0  0  0  0  0  0  0  0  0  0  0  0
   -0.7790   21.0670  -28.0930 S   0  0  0  0  0  0  0  0  0  0  0  0
   -0.2890   21.3980  -26.7100 O   0  0  0  0  0  0  0  0  0  0  0  0
   -1.6810   19.8680  -28.0020 O   0  0  0  0  0  0  0  0  0  0  0  0
   -1.6880   22.4220  -28.7560 C   0  0  0  0  0  0  0  0  0  0  0  0
   -3.0020   22.2420  -29.2160 C   0  0  0  0  0  0  0  0  0  0  0  0
   -3.7220   23.3270  -29.7240 C   0  0  0  0  0  0  0  0  0  0  0  0
   -3.1390   24.5980  -29.7700 C   0  0  0  0  0  0  0  0  0  0  0  0
   -3.8620   25.6730  -30.2750 O   0  0  0  0  0  0  0  0  0  0  0  0
   -1.8310   24.7830  -29.3050 C   0  0  0  0  0  0  0  0  0  0  0  0
   -1.2480   26.0440  -29.3460 O   0  0  0  0  0  0  0  0  0  0  0  0
   -1.1090   23.6980  -28.7980 C   0  0  0  0  0  0  0  0  0  0  0  0
   -2.5900   21.0020  -31.8200 C   0  0  0  0  0  0  0  0  0  0  0  0
   -3.8770   20.6670  -32.2400 C   0  0  0  0  0  0  0  0  0  0  0  0
   -4.1530   19.3930  -32.7590 C   0  0  0  0  0  0  0  0  0  0  0  0
   -5.8010   19.0300  -33.2980 S   0  0  0  0  0  0  0  0  0  0  0  0
   -6.0150   19.6380  -34.6560 O   0  0  0  0  0  0  0  0  0  0  0  0
   -5.9950   17.5400  -33.4020 O   0  0  0  0  0  0  0  0  0  0  0  0
   -6.9580   19.6800  -32.1610 N   0  0  0  0  0  0  0  0  0  0  0  0
   -8.1310   18.7890  -32.0220 C   0  0  0  0  0  0  0  0  0  0  0  0
   -9.3810   19.3630  -32.7120 C   0  0  0  0  0  0  0  0  0  0  0  0
   -9.7510   20.6430  -32.2210 O   0  0  0  0  0  0  0  0  0  0  0  0
   -8.6440   21.4710  -31.8840 C   0  0  0  0  0  0  0  0  0  0  0  0
   -7.3180   21.0580  -32.5450 C   0  0  0  0  0  0  0  0  0  0  0  0
   -3.4609   16.3393  -32.5682 H   0  0  0  0  0  0  0  0  0  0  0  0
   -4.2522   17.0562  -34.0126 H   0  0  0  0  0  0  0  0  0  0  0  0
   -2.4802   16.7619  -34.0126 H   0  0  0  0  0  0  0  0  0  0  0  0
   -1.0027   18.0541  -32.4962 H   0  0  0  0  0  0  0  0  0  0  0  0
    0.5665   20.1209  -32.2054 H   0  0  0  0  0  0  0  0  0  0  0  0
   -0.1223   21.5074  -31.2664 H   0  0  0  0  0  0  0  0  0  0  0  0
   -0.7182   19.1654  -29.7731 H   0  0  0  0  0  0  0  0  0  0  0  0
    0.9968   19.0070  -30.2977 H   0  0  0  0  0  0  0  0  0  0  0  0
   -3.4658   21.2453  -29.1766 H   0  0  0  0  0  0  0  0  0  0  0  0
   -4.7496   23.1812  -30.0885 H   0  0  0  0  0  0  0  0  0  0  0  0
   -0.0828   23.8464  -28.4307 H   0  0  0  0  0  0  0  0  0  0  0  0
   -2.3918   22.0028  -31.4088 H   0  0  0  0  0  0  0  0  0  0  0  0
   -4.6847   21.4098  -32.1635 H   0  0  0  0  0  0  0  0  0  0  0  0
   -7.8920   17.8153  -32.4746 H   0  0  0  0  0  0  0  0  0  0  0  0
   -8.3534   18.6878  -30.9495 H   0  0  0  0  0  0  0  0  0  0  0  0
   -9.1783   19.4469  -33.7899 H   0  0  0  0  0  0  0  0  0  0  0  0
  -10.2152   18.6776  -32.5015 H   0  0  0  0  0  0  0  0  0  0  0  0
   -8.8772   22.5003  -32.1940 H   0  0  0  0  0  0  0  0  0  0  0  0
   -8.4976   21.3733  -30.7982 H   0  0  0  0  0  0  0  0  0  0  0  0
   -7.4257   21.1129  -33.6383 H   0  0  0  0  0  0  0  0  0  0  0  0
   -6.5241   21.7407  -32.2080 H   0  0  0  0  0  0  0  0  0  0  0  0
  1  2  1  0
  2  3  2  0
  3  4  1  0
  4  5  1  0
  5  6  1  0
  6  7  1  0
  7  8  1  0
  8  9  2  0
  8 10  2  0
  8 11  1  0
 11 12  2  0
 12 13  1  0
 13 14  2  0
 14 15  1  0
 14 16  1  0
 16 17  1  0
 16 18  2  0
  4 19  2  0
 19 20  1  0
 20 21  2  0
 21 22  1  0
 22 23  2  0
 22 24  2  0
 22 25  1  0
 25 26  1  0
 26 27  1  0
 27 28  1  0
 28 29  1  0
 29 30  1  0
 21  2  1  0
 30 25  1  0
 18 11  1  0
  1 31  1  0
  1 32  1  0
  1 33  1  0
  3 34  1  0
  5 35  1  0
  5 36  1  0
  6 37  1  0
  6 38  1  0
 12 39  1  0
 13 40  1  0
 18 41  1  0
 19 42  1  0
 20 43  1  0
 26 44  1  0
 26 45  1  0
 27 46  1  0
 27 47  1  0
 29 48  1  0
 29 49  1  0
 30 50  1  0
 30 51  1  0
M  CHG  3   7  -1  15  -1  17  -1
M  END
>  <UniqueID>  (5) 
5

>  <SMILES>  (5) 
Cc1cc(CC[N-]S(=O)(=O)c2ccc([O-])c([O-])c2)ccc1S(=O)(=O)N1CCOCC1

>  <Energy>  (5) 
61.20329928644342

>  <Genealogy>  (5) 
Cc1cc(CC[N-]S(=O)(=O)c2ccc([O-])c([O-])c2)ccc1S(=O)(=O)N1CCOCC1 (protonated)
Cc1cc(CC[N-]S(=O)(=O)c2ccc([O-])c([O-])c2)ccc1S(=O)(=O)N1CCOCC1 (3D coordinates assigned)
Cc1cc(CC[N-]S(=O)(=O)c2ccc([O-])c([O-])c2)ccc1S(=O)(=O)N1CCOCC1 (nonaromatic ring conformer: 61.20329928644342 kcal/mol)

>  <smiles>  (5) 
Cc1cc(CCNS(=O)(=O)c2ccc(O)c(O)c2)ccc1S(=O)(=O)N1CCOCC1

>  <score_type>  (5) 
oracle

>  <origin>  (5) 
adgpu

>  <m_score__min__energy>  (5) 
-14.800000000000001

>  <m_primary>  (5) 
energy

$$$$
5:0
     RDKit          3D

 43 45  0  0  0  0  0  0  0  0999 V2000
   -4.3100   23.0230  -32.0360 O   0  0  0  0  0  0  0  0  0  0  0  0
   -5.5070   23.3850  -31.2050 S   0  0  0  0  0  0  0  0  0  0  0  0
   -5.9180   24.7960  -31.5190 O   0  0  0  0  0  0  0  0  0  0  0  0
   -5.0840   23.2780  -29.5260 N   0  0  0  0  0  0  0  0  0  0  0  0
   -3.7470   23.2580  -29.0080 C   0  0  0  0  0  0  0  0  0  0  0  0
   -3.3270   22.2960  -28.0690 C   0  0  0  0  0  0  0  0  0  0  0  0
   -2.0090   22.2940  -27.6010 C   0  0  0  0  0  0  0  0  0  0  0  0
   -1.4940   21.0850  -26.4370 Cl  0  0  0  0  0  0  0  0  0  0  0  0
   -1.1030   23.2540  -28.0570 C   0  0  0  0  0  0  0  0  0  0  0  0
   -1.5130   24.2170  -28.9820 C   0  0  0  0  0  0  0  0  0  0  0  0
   -2.8320   24.2230  -29.4590 C   0  0  0  0  0  0  0  0  0  0  0  0
   -3.2370   25.1820  -30.3850 O   0  0  0  0  0  0  0  0  0  0  0  0
   -6.8140   22.2630  -31.5740 C   0  0  0  0  0  0  0  0  0  0  0  0
   -8.1260   22.7300  -31.7160 C   0  0  0  0  0  0  0  0  0  0  0  0
   -9.1620   21.8360  -31.9890 C   0  0  0  0  0  0  0  0  0  0  0  0
   -8.8960   20.4710  -32.1300 C   0  0  0  0  0  0  0  0  0  0  0  0
   -9.9260   19.6260  -32.3810 F   0  0  0  0  0  0  0  0  0  0  0  0
   -7.5790   19.9930  -32.0070 C   0  0  0  0  0  0  0  0  0  0  0  0
   -7.2050   18.2730  -32.2010 S   0  0  0  0  0  0  0  0  0  0  0  0
   -8.4670   17.4660  -32.0840 O   0  0  0  0  0  0  0  0  0  0  0  0
   -6.2810   17.8470  -31.0930 O   0  0  0  0  0  0  0  0  0  0  0  0
   -6.4500   17.9400  -33.7440 N   0  0  0  0  0  0  0  0  0  0  0  0
   -5.6560   19.0910  -34.2270 C   0  0  0  0  0  0  0  0  0  0  0  0
   -4.1440   18.8630  -34.0450 C   0  0  0  0  0  0  0  0  0  0  0  0
   -3.6630   17.7060  -34.7180 O   0  0  0  0  0  0  0  0  0  0  0  0
   -4.6120   16.6500  -34.7940 C   0  0  0  0  0  0  0  0  0  0  0  0
   -5.6740   16.6860  -33.6830 C   0  0  0  0  0  0  0  0  0  0  0  0
   -6.5450   20.8960  -31.7220 C   0  0  0  0  0  0  0  0  0  0  0  0
   -4.0392   21.5424  -27.7018 H   0  0  0  0  0  0  0  0  0  0  0  0
   -0.0668   23.2518  -27.6878 H   0  0  0  0  0  0  0  0  0  0  0  0
   -0.7985   24.9738  -29.3378 H   0  0  0  0  0  0  0  0  0  0  0  0
   -3.7480   24.9290  -31.2230 H   0  0  0  0  0  0  0  0  0  0  0  0
   -8.3407   23.8038  -31.6122 H   0  0  0  0  0  0  0  0  0  0  0  0
  -10.1923   22.2069  -32.0937 H   0  0  0  0  0  0  0  0  0  0  0  0
   -5.8663   19.2445  -35.2957 H   0  0  0  0  0  0  0  0  0  0  0  0
   -5.9411   19.9737  -33.6357 H   0  0  0  0  0  0  0  0  0  0  0  0
   -3.6093   19.7413  -34.4356 H   0  0  0  0  0  0  0  0  0  0  0  0
   -3.9651   18.7119  -32.9702 H   0  0  0  0  0  0  0  0  0  0  0  0
   -5.1244   16.7141  -35.7652 H   0  0  0  0  0  0  0  0  0  0  0  0
   -4.0541   15.7098  -34.6722 H   0  0  0  0  0  0  0  0  0  0  0  0
   -6.3565   15.8325  -33.8080 H   0  0  0  0  0  0  0  0  0  0  0  0
   -5.1680   16.6301  -32.7079 H   0  0  0  0  0  0  0  0  0  0  0  0
   -5.5140   20.5281  -31.6137 H   0  0  0  0  0  0  0  0  0  0  0  0
  1  2  2  0
  2  3  2  0
  2  4  1  0
  4  5  1  0
  5  6  2  0
  6  7  1  0
  7  8  1  0
  7  9  2  0
  9 10  1  0
 10 11  2  0
 11 12  1  0
  2 13  1  0
 13 14  2  0
 14 15  1  0
 15 16  2  0
 16 17  1  0
 16 18  1  0
 18 19  1  0
 19 20  2  0
 19 21  2  0
 19 22  1  0
 22 23  1  0
 23 24  1  0
 24 25  1  0
 25 26  1  0
 26 27  1  0
 18 28  2  0
 11  5  1  0
 28 13  1  0
 27 22  1  0
  6 29  1  0
  9 30  1  0
 10 31  1  0
 12 32  1  0
 14 33  1  0
 15 34  1  0
 23 35  1  0
 23 36  1  0
 24 37  1  0
 24 38  1  0
 26 39  1  0
 26 40  1  0
 27 41  1  0
 27 42  1  0
 28 43  1  0
M  CHG  1   4  -1
M  END
>  <UniqueID>  (6) 
6

>  <SMILES>  (6) 
O=S(=O)([N-]c1cc(Cl)ccc1O)c1ccc(F)c(S(=O)(=O)N2CCOCC2)c1

>  <Energy>  (6) 
59.37619412388838

>  <Genealogy>  (6) 
O=S(=O)([N-]c1cc(Cl)ccc1O)c1ccc(F)c(S(=O)(=O)N2CCOCC2)c1 (protonated)
O=S(=O)([N-]c1cc(Cl)ccc1O)c1ccc(F)c(S(=O)(=O)N2CCOCC2)c1 (3D coordinates assigned)
O=S(=O)([N-]c1cc(Cl)ccc1O)c1ccc(F)c(S(=O)(=O)N2CCOCC2)c1 (nonaromatic ring conformer: 59.37619412388838 kcal/mol)

>  <smiles>  (6) 
O=S(=O)(Nc1cc(Cl)ccc1O)c1ccc(F)c(S(=O)(=O)N2CCOCC2)c1

>  <score_type>  (6) 
oracle

>  <origin>  (6) 
adgpu

>  <m_score__min__energy>  (6) 
-11.210000000000001

>  <m_primary>  (6) 
energy

$$$$
6:0
     RDKit          3D

 51 53  0  0  0  0  0  0  0  0999 V2000
   -1.6150   25.6520  -27.5250 C   0  0  0  0  0  0  0  0  0  0  0  0
   -1.8410   25.6270  -28.9640 N   0  0  0  0  0  0  0  0  0  0  0  0
   -2.7820   24.7630  -29.6110 C   0  0  0  0  0  0  0  0  0  0  0  0
   -3.7630   25.2710  -30.2170 O   0  0  0  0  0  0  0  0  0  0  0  0
   -2.6510   23.2950  -29.5580 C   0  0  0  0  0  0  0  0  0  0  0  0
   -1.8090   22.7320  -28.5870 C   0  0  0  0  0  0  0  0  0  0  0  0
   -1.5870   21.3490  -28.5530 C   0  0  0  0  0  0  0  0  0  0  0  0
   -0.4860   20.6690  -27.3570 S   0  0  0  0  0  0  0  0  0  0  0  0
   -1.2790   19.8390  -26.3860 O   0  0  0  0  0  0  0  0  0  0  0  0
    0.5210   19.7810  -28.0360 O   0  0  0  0  0  0  0  0  0  0  0  0
    0.3240   21.9580  -26.5030 N   0  0  0  0  0  0  0  0  0  0  0  0
   -0.6320   22.6640  -25.6290 C   0  0  0  0  0  0  0  0  0  0  0  0
   -0.0380   23.9910  -25.1180 C   0  0  0  0  0  0  0  0  0  0  0  0
    1.3600   24.0280  -25.3220 O   0  0  0  0  0  0  0  0  0  0  0  0
    1.6440   24.0340  -26.7100 C   0  0  0  0  0  0  0  0  0  0  0  0
    0.9250   22.8940  -27.4630 C   0  0  0  0  0  0  0  0  0  0  0  0
   -2.2010   20.5260  -29.5020 C   0  0  0  0  0  0  0  0  0  0  0  0
   -3.0570   21.0740  -30.4600 C   0  0  0  0  0  0  0  0  0  0  0  0
   -3.3140   22.4490  -30.4790 C   0  0  0  0  0  0  0  0  0  0  0  0
   -4.2190   22.9370  -31.4350 O   0  0  0  0  0  0  0  0  0  0  0  0
   -5.5510   22.5150  -31.5850 C   0  0  0  0  0  0  0  0  0  0  0  0
   -6.5360   23.0590  -30.7380 C   0  0  0  0  0  0  0  0  0  0  0  0
   -6.1890   24.0310  -29.7440 N   0  0  0  0  0  0  0  0  0  0  0  0
   -7.8690   22.6410  -30.8580 C   0  0  0  0  0  0  0  0  0  0  0  0
   -8.2380   21.7050  -31.8330 C   0  0  0  0  0  0  0  0  0  0  0  0
   -9.6600   21.2340  -31.9370 C   0  0  0  0  0  0  0  0  0  0  0  0
   -7.2630   21.1750  -32.6850 C   0  0  0  0  0  0  0  0  0  0  0  0
   -5.9280   21.5860  -32.5800 C   0  0  0  0  0  0  0  0  0  0  0  0
   -4.9820   21.0860  -33.4740 O   0  0  0  0  0  0  0  0  0  0  0  0
   -2.5763   25.5457  -27.0010 H   0  0  0  0  0  0  0  0  0  0  0  0
   -0.9503   24.8219  -27.2438 H   0  0  0  0  0  0  0  0  0  0  0  0
   -1.1478   26.6073  -27.2438 H   0  0  0  0  0  0  0  0  0  0  0  0
   -1.3193   23.3816  -27.8466 H   0  0  0  0  0  0  0  0  0  0  0  0
   -1.5498   22.8760  -26.1971 H   0  0  0  0  0  0  0  0  0  0  0  0
   -0.8539   22.0231  -24.7629 H   0  0  0  0  0  0  0  0  0  0  0  0
   -0.5036   24.8269  -25.6606 H   0  0  0  0  0  0  0  0  0  0  0  0
   -0.2387   24.0744  -24.0397 H   0  0  0  0  0  0  0  0  0  0  0  0
    1.3195   24.9963  -27.1328 H   0  0  0  0  0  0  0  0  0  0  0  0
    2.7271   23.8851  -26.8313 H   0  0  0  0  0  0  0  0  0  0  0  0
    0.1355   23.3194  -28.0999 H   0  0  0  0  0  0  0  0  0  0  0  0
    1.6554   22.3547  -28.0840 H   0  0  0  0  0  0  0  0  0  0  0  0
   -2.0092   19.4429  -29.4941 H   0  0  0  0  0  0  0  0  0  0  0  0
   -3.5327   20.4195  -31.2052 H   0  0  0  0  0  0  0  0  0  0  0  0
   -5.2730   24.5300  -29.7830 H   0  0  0  0  0  0  0  0  0  0  0  0
   -6.8210   24.2350  -28.9380 H   0  0  0  0  0  0  0  0  0  0  0  0
   -8.6320   23.0517  -30.1804 H   0  0  0  0  0  0  0  0  0  0  0  0
  -10.0754   21.0964  -30.9278 H   0  0  0  0  0  0  0  0  0  0  0  0
  -10.2555   21.9829  -32.4797 H   0  0  0  0  0  0  0  0  0  0  0  0
   -9.6907   20.2777  -32.4797 H   0  0  0  0  0  0  0  0  0  0  0  0
   -7.5469   20.4300  -33.4429 H   0  0  0  0  0  0  0  0  0  0  0  0
   -4.5890   21.6600  -34.2110 H   0  0  0  0  0  0  0  0  0  0  0  0
  1  2  1  0
  2  3  1  0
  3  4  2  0
  3  5  1  0
  5  6  2  0
  6  7  1  0
  7  8  1  0
  8  9  2  0
  8 10  2  0
  8 11  1  0
 11 12  1  0
 12 13  1  0
 13 14  1  0
 14 15  1  0
 15 16  1  0
  7 17  2  0
 17 18  1  0
 18 19  2  0
 19 20  1  0
 20 21  1  0
 21 22  2  0
 22 23  1  0
 22 24  1  0
 24 25  2  0
 25 26  1  0
 25 27  1  0
 27 28  2  0
 28 29  1  0
 19  5  1  0
 28 21  1  0
 16 11  1  0
  1 30  1  0
  1 31  1  0
  1 32  1  0
  6 33  1  0
 12 34  1  0
 12 35  1  0
 13 36  1  0
 13 37  1  0
 15 38  1  0
 15 39  1  0
 16 40  1  0
 16 41  1  0
 17 42  1  0
 18 43  1  0
 23 44  1  0
 23 45  1  0
 24 46  1  0
 26 47  1  0
 26 48  1  0
 26 49  1  0
 27 50  1  0
 29 51  1  0
M  CHG  1   2  -1
M  END
>  <UniqueID>  (7) 
7

>  <SMILES>  (7) 
C[N-]C(=O)c1cc(S(=O)(=O)N2CCOCC2)ccc1Oc1c(N)cc(C)cc1O

>  <Energy>  (7) 
70.25688321505835

>  <Genealogy>  (7) 
C[N-]C(=O)c1cc(S(=O)(=O)N2CCOCC2)ccc1Oc1c(N)cc(C)cc1O (protonated)
C[N-]C(=O)c1cc(S(=O)(=O)N2CCOCC2)ccc1Oc1c(N)cc(C)cc1O (3D coordinates assigned)
C[N-]C(=O)c1cc(S(=O)(=O)N2CCOCC2)ccc1Oc1c(N)cc(C)cc1O (nonaromatic ring conformer: 70.25688321505835 kcal/mol)

>  <smiles>  (7) 
CNC(=O)c1cc(S(=O)(=O)N2CCOCC2)ccc1Oc1c(N)cc(C)cc1O

>  <score_type>  (7) 
oracle

>  <origin>  (7) 
adgpu

>  <m_score__min__energy>  (7) 
-10.529999999999999

>  <m_primary>  (7) 
energy

$$$$
7:0
     RDKit          3D

 62 65  0  0  0  0  0  0  0  0999 V2000
   -3.0630   18.8830  -25.9800 C   0  0  0  0  0  0  0  0  0  0  0  0
   -1.8020   19.7350  -26.0460 C   0  0  0  0  0  0  0  0  0  0  0  0
   -1.2890   19.7860  -27.4140 N   0  0  0  0  0  0  0  0  0  0  0  0
   -0.1720   19.1840  -27.7950 N   0  0  0  0  0  0  0  0  0  0  0  0
    0.0320   19.4700  -29.0990 C   0  0  0  0  0  0  0  0  0  0  0  0
   -0.9850   20.2890  -29.5530 C   0  0  0  0  0  0  0  0  0  0  0  0
   -1.2480   20.8160  -31.2120 S   0  0  0  0  0  0  0  0  0  0  0  0
   -0.3700   20.0070  -32.1260 O   0  0  0  0  0  0  0  0  0  0  0  0
   -0.8880   22.2710  -31.3320 O   0  0  0  0  0  0  0  0  0  0  0  0
   -2.9230   20.5980  -31.6610 N   0  0  0  0  0  0  0  0  0  0  0  0
   -3.4770   21.8620  -32.1810 C   0  0  0  0  0  0  0  0  0  0  0  0
   -4.9980   21.7380  -32.3440 C   0  0  0  0  0  0  0  0  0  0  0  0
   -5.3650   20.3800  -32.7620 N   0  0  0  0  0  0  0  0  0  0  0  0
   -6.7220   19.9320  -32.6220 C   0  0  0  0  0  0  0  0  0  0  0  0
   -7.7770   20.8540  -32.7160 C   0  0  0  0  0  0  0  0  0  0  0  0
   -9.0990   20.4280  -32.5800 C   0  0  0  0  0  0  0  0  0  0  0  0
   -9.3790   19.0820  -32.3450 C   0  0  0  0  0  0  0  0  0  0  0  0
   -8.3380   18.1560  -32.2420 C   0  0  0  0  0  0  0  0  0  0  0  0
   -6.9980   18.5730  -32.3740 C   0  0  0  0  0  0  0  0  0  0  0  0
   -5.9250   17.6780  -32.2450 O   0  0  0  0  0  0  0  0  0  0  0  0
   -5.7720   16.4840  -33.0040 C   0  0  0  0  0  0  0  0  0  0  0  0
   -4.3710   19.5380  -33.4390 C   0  0  0  0  0  0  0  0  0  0  0  0
   -3.0400   19.5060  -32.6550 C   0  0  0  0  0  0  0  0  0  0  0  0
   -1.7970   20.4790  -28.4540 C   0  0  0  0  0  0  0  0  0  0  0  0
   -2.9930   21.2680  -28.3980 N   0  0  0  0  0  0  0  0  0  0  0  0
   -2.9260   22.7270  -28.3330 C   0  0  0  0  0  0  0  0  0  0  0  0
   -4.0510   23.3370  -29.1220 C   0  0  0  0  0  0  0  0  0  0  0  0
   -5.3140   22.7210  -29.1630 C   0  0  0  0  0  0  0  0  0  0  0  0
   -6.3590   23.3050  -29.8850 C   0  0  0  0  0  0  0  0  0  0  0  0
   -6.1540   24.5060  -30.5700 C   0  0  0  0  0  0  0  0  0  0  0  0
   -4.9020   25.1250  -30.5330 C   0  0  0  0  0  0  0  0  0  0  0  0
   -3.8530   24.5450  -29.8110 C   0  0  0  0  0  0  0  0  0  0  0  0
   -3.3293   18.7031  -24.9280 H   0  0  0  0  0  0  0  0  0  0  0  0
   -3.8880   19.4095  -26.4822 H   0  0  0  0  0  0  0  0  0  0  0  0
   -2.8823   17.9211  -26.4822 H   0  0  0  0  0  0  0  0  0  0  0  0
   -2.0367   20.7555  -25.7092 H   0  0  0  0  0  0  0  0  0  0  0  0
   -1.0361   19.2875  -25.3955 H   0  0  0  0  0  0  0  0  0  0  0  0
    0.8755   19.1079  -29.7051 H   0  0  0  0  0  0  0  0  0  0  0  0
   -3.4440   20.3210  -30.7960 H   0  0  0  0  0  0  0  0  0  0  0  0
   -3.2509   22.6763  -31.4769 H   0  0  0  0  0  0  0  0  0  0  0  0
   -3.0246   22.0801  -33.1596 H   0  0  0  0  0  0  0  0  0  0  0  0
   -5.4839   21.9640  -31.3834 H   0  0  0  0  0  0  0  0  0  0  0  0
   -5.3304   22.4479  -33.1157 H   0  0  0  0  0  0  0  0  0  0  0  0
   -7.5604   21.9170  -32.8977 H   0  0  0  0  0  0  0  0  0  0  0  0
   -9.9211   21.1546  -32.6582 H   0  0  0  0  0  0  0  0  0  0  0  0
  -10.4221   18.7487  -32.2405 H   0  0  0  0  0  0  0  0  0  0  0  0
   -8.5653   17.0958  -32.0569 H   0  0  0  0  0  0  0  0  0  0  0  0
   -5.6623   15.6277  -32.3223 H   0  0  0  0  0  0  0  0  0  0  0  0
   -6.6586   16.3365  -33.6382 H   0  0  0  0  0  0  0  0  0  0  0  0
   -4.8769   16.5648  -33.6382 H   0  0  0  0  0  0  0  0  0  0  0  0
   -4.7641   18.5139  -33.5208 H   0  0  0  0  0  0  0  0  0  0  0  0
   -4.1781   19.9598  -34.4364 H   0  0  0  0  0  0  0  0  0  0  0  0
   -2.9679   18.5435  -32.1274 H   0  0  0  0  0  0  0  0  0  0  0  0
   -2.2273   19.6387  -33.3843 H   0  0  0  0  0  0  0  0  0  0  0  0
   -3.8500   20.8120  -28.0100 H   0  0  0  0  0  0  0  0  0  0  0  0
   -3.0035   23.0474  -27.2835 H   0  0  0  0  0  0  0  0  0  0  0  0
   -1.9683   23.0604  -28.7592 H   0  0  0  0  0  0  0  0  0  0  0  0
   -5.4806   21.7761  -28.6250 H   0  0  0  0  0  0  0  0  0  0  0  0
   -7.3450   22.8182  -29.9141 H   0  0  0  0  0  0  0  0  0  0  0  0
   -6.9777   24.9634  -31.1377 H   0  0  0  0  0  0  0  0  0  0  0  0
   -4.7406   26.0700  -31.0724 H   0  0  0  0  0  0  0  0  0  0  0  0
   -2.8695   25.0369  -29.7829 H   0  0  0  0  0  0  0  0  0  0  0  0
  1  2  1  0
  2  3  1  0
  3  4  1  0
  4  5  2  0
  5  6  1  0
  6  7  1  0
  7  8  2  0
  7  9  2  0
  7 10  1  0
 10 11  1  0
 11 12  1  0
 12 13  1  0
 13 14  1  0
 14 15  2  0
 15 16  1  0
 16 17  2  0
 17 18  1  0
 18 19  2  0
 19 20  1  0
 20 21  1  0
 13 22  1  0
 22 23  1  0
  6 24  2  0
 24 25  1  0
 25 26  1  0
 26 27  1  0
 27 28  2  0
 28 29  1  0
 29 30  2  0
 30 31  1  0
 31 32  2  0
 24  3  1  0
 32 27  1  0
 23 10  1  0
 19 14  1  0
  1 33  1  0
  1 34  1  0
  1 35  1  0
  2 36  1  0
  2 37  1  0
  5 38  1  0
 10 39  1  0
 11 40  1  0
 11 41  1  0
 12 42  1  0
 12 43  1  0
 15 44  1  0
 16 45  1  0
 17 46  1  0
 18 47  1  0
 21 48  1  0
 21 49  1  0
 21 50  1  0
 22 51  1  0
 22 52  1  0
 23 53  1  0
 23 54  1  0
 25 55  1  0
 26 56  1  0
 26 57  1  0
 28 58  1  0
 29 59  1  0
 30 60  1  0
 31 61  1  0
 32 62  1  0
M  CHG  1  10   1
M  END
>  <UniqueID>  (8) 
8

>  <SMILES>  (8) 
CCn1ncc(S(=O)(=O)[NH+]2CCN(c3ccccc3OC)CC2)c1NCc1ccccc1

>  <Energy>  (8) 
102.90171482582795

>  <Genealogy>  (8) 
CCn1ncc(S(=O)(=O)[NH+]2CCN(c3ccccc3OC)CC2)c1NCc1ccccc1 (protonated)
CCn1ncc(S(=O)(=O)[NH+]2CCN(c3ccccc3OC)CC2)c1NCc1ccccc1 (3D coordinates assigned)
CCn1ncc(S(=O)(=O)[NH+]2CCN(c3ccccc3OC)CC2)c1NCc1ccccc1 (nonaromatic ring conformer: 102.90171482582795 kcal/mol)

>  <smiles>  (8) 
CCn1ncc(S(=O)(=O)N2CCN(c3ccccc3OC)CC2)c1NCc1ccccc1

>  <score_type>  (8) 
oracle

>  <origin>  (8) 
adgpu

>  <m_score__min__energy>  (8) 
-8.6999999999999993

>  <m_primary>  (8) 
energy

$$$$
8:0
     RDKit          3D

 48 50  0  0  0  0  0  0  0  0999 V2000
    0.2310   17.7400  -27.8170 C   0  0  0  0  0  0  0  0  0  0  0  0
    0.1550   19.2630  -27.8970 C   0  0  0  0  0  0  0  0  0  0  0  0
   -1.1200   19.7060  -28.4990 N   0  0  0  0  0  0  0  0  0  0  0  0
   -0.9510   20.2360  -29.8680 C   0  0  0  0  0  0  0  0  0  0  0  0
   -0.4760   19.1920  -30.8880 C   0  0  0  0  0  0  0  0  0  0  0  0
   -2.0130   20.8050  -27.4620 S   0  0  0  0  0  0  0  0  0  0  0  0
   -3.4820   20.4790  -27.4970 O   0  0  0  0  0  0  0  0  0  0  0  0
   -1.5260   20.7200  -26.0410 O   0  0  0  0  0  0  0  0  0  0  0  0
   -1.7410   22.4440  -28.0390 C   0  0  0  0  0  0  0  0  0  0  0  0
   -0.6750   23.2140  -27.5570 C   0  0  0  0  0  0  0  0  0  0  0  0
   -0.5100   24.5300  -27.9990 C   0  0  0  0  0  0  0  0  0  0  0  0
   -1.4100   25.0860  -28.9140 C   0  0  0  0  0  0  0  0  0  0  0  0
   -1.2370   26.3980  -29.3360 O   0  0  0  0  0  0  0  0  0  0  0  0
   -2.4830   24.3230  -29.4000 C   0  0  0  0  0  0  0  0  0  0  0  0
   -3.4120   24.9280  -30.3120 N   0  0  0  0  0  0  0  0  0  0  0  0
   -5.1320   24.9890  -30.0900 S   0  0  0  0  0  0  0  0  0  0  0  0
   -5.4450   24.8800  -28.6250 O   0  0  0  0  0  0  0  0  0  0  0  0
   -5.6440   26.3090  -30.5980 O   0  0  0  0  0  0  0  0  0  0  0  0
   -5.9060   23.6450  -30.9390 C   0  0  0  0  0  0  0  0  0  0  0  0
   -7.3050   23.5210  -30.9210 C   0  0  0  0  0  0  0  0  0  0  0  0
   -7.9350   22.4840  -31.6140 C   0  0  0  0  0  0  0  0  0  0  0  0
   -7.1790   21.5530  -32.3290 C   0  0  0  0  0  0  0  0  0  0  0  0
   -5.7820   21.6580  -32.3560 C   0  0  0  0  0  0  0  0  0  0  0  0
   -5.0030   20.7450  -33.0780 C   0  0  0  0  0  0  0  0  0  0  0  0
   -3.6140   20.8820  -33.1020 C   0  0  0  0  0  0  0  0  0  0  0  0
   -3.0160   21.9310  -32.4020 C   0  0  0  0  0  0  0  0  0  0  0  0
   -3.7810   22.8110  -31.7040 N   0  0  0  0  0  0  0  0  0  0  0  0
   -5.1390   22.7090  -31.6590 C   0  0  0  0  0  0  0  0  0  0  0  0
   -2.6270   22.9920  -28.9720 C   0  0  0  0  0  0  0  0  0  0  0  0
    0.2465   17.4286  -26.7621 H   0  0  0  0  0  0  0  0  0  0  0  0
   -0.6464   17.3024  -28.3156 H   0  0  0  0  0  0  0  0  0  0  0  0
    1.1476   17.3919  -28.3156 H   0  0  0  0  0  0  0  0  0  0  0  0
    0.2360   19.6796  -26.8822 H   0  0  0  0  0  0  0  0  0  0  0  0
    0.9805   19.6191  -28.5308 H   0  0  0  0  0  0  0  0  0  0  0  0
   -1.9188   20.6347  -30.2064 H   0  0  0  0  0  0  0  0  0  0  0  0
   -0.1693   21.0082  -29.8158 H   0  0  0  0  0  0  0  0  0  0  0  0
   -0.0771   18.3153  -30.3567 H   0  0  0  0  0  0  0  0  0  0  0  0
   -1.3227   18.8843  -31.5192 H   0  0  0  0  0  0  0  0  0  0  0  0
    0.3123   19.6282  -31.5192 H   0  0  0  0  0  0  0  0  0  0  0  0
    0.0314   22.7839  -26.8317 H   0  0  0  0  0  0  0  0  0  0  0  0
    0.3319   25.1313  -27.6253 H   0  0  0  0  0  0  0  0  0  0  0  0
   -7.9097   24.2462  -30.3567 H   0  0  0  0  0  0  0  0  0  0  0  0
   -9.0317   22.4007  -31.5962 H   0  0  0  0  0  0  0  0  0  0  0  0
   -7.6800   20.7373  -32.8709 H   0  0  0  0  0  0  0  0  0  0  0  0
   -5.4849   19.9214  -33.6252 H   0  0  0  0  0  0  0  0  0  0  0  0
   -2.9960   20.1693  -33.6678 H   0  0  0  0  0  0  0  0  0  0  0  0
   -1.9221   22.0458  -32.4153 H   0  0  0  0  0  0  0  0  0  0  0  0
   -3.4442   22.3756  -29.3747 H   0  0  0  0  0  0  0  0  0  0  0  0
  1  2  1  0
  2  3  1  0
  3  4  1  0
  4  5  1  0
  3  6  1  0
  6  7  2  0
  6  8  2  0
  6  9  1  0
  9 10  2  0
 10 11  1  0
 11 12  2  0
 12 13  1  0
 12 14  1  0
 14 15  1  0
 15 16  1  0
 16 17  2  0
 16 18  2  0
 16 19  1  0
 19 20  2  0
 20 21  1  0
 21 22  2  0
 22 23  1  0
 23 24  2  0
 24 25  1  0
 25 26  2  0
 26 27  1  0
 27 28  2  0
 14 29  2  0
 29  9  1  0
 28 19  1  0
 28 23  1  0
  1 30  1  0
  1 31  1  0
  1 32  1  0
  2 33  1  0
  2 34  1  0
  4 35  1  0
  4 36  1  0
  5 37  1  0
  5 38  1  0
  5 39  1  0
 10 40  1  0
 11 41  1  0
 20 42  1  0
 21 43  1  0
 22 44  1  0
 24 45  1  0
 25 46  1  0
 26 47  1  0
 29 48  1  0
M  CHG  2  13  -1  15  -1
M  END
>  <UniqueID>  (9) 
9

>  <SMILES>  (9) 
CCN(CC)S(=O)(=O)c1ccc([O-])c([N-]S(=O)(=O)c2cccc3cccnc23)c1

>  <Energy>  (9) 
52.28236378332226

>  <Genealogy>  (9) 
CCN(CC)S(=O)(=O)c1ccc([O-])c([N-]S(=O)(=O)c2cccc3cccnc23)c1 (protonated)
CCN(CC)S(=O)(=O)c1ccc([O-])c([N-]S(=O)(=O)c2cccc3cccnc23)c1 (3D coordinates assigned)
CCN(CC)S(=O)(=O)c1ccc([O-])c([N-]S(=O)(=O)c2cccc3cccnc23)c1 (optimized conformer: 52.28236378332226 kcal/mol)

>  <smiles>  (9) 
CCN(CC)S(=O)(=O)c1ccc(O)c(NS(=O)(=O)c2cccc3cccnc23)c1

>  <score_type>  (9) 
oracle

>  <origin>  (9) 
adgpu

>  <m_score__min__energy>  (9) 
-13.859999999999999

>  <m_primary>  (9) 
energy

$$$$
9:0
     RDKit          3D

 68 71  0  0  0  0  0  0  0  0999 V2000
   -4.0910   23.9190  -28.2360 O   0  0  0  0  0  0  0  0  0  0  0  0
   -3.3290   24.1650  -29.5090 S   0  0  0  0  0  0  0  0  0  0  0  0
   -2.3650   25.2970  -29.2840 O   0  0  0  0  0  0  0  0  0  0  0  0
   -2.4540   22.6970  -29.9360 C   0  0  0  0  0  0  0  0  0  0  0  0
   -3.0790   21.4530  -29.7930 C   0  0  0  0  0  0  0  0  0  0  0  0
   -2.4030   20.2810  -30.1450 C   0  0  0  0  0  0  0  0  0  0  0  0
   -1.0980   20.3350  -30.6460 C   0  0  0  0  0  0  0  0  0  0  0  0
   -0.4720   19.1250  -30.9890 O   0  0  0  0  0  0  0  0  0  0  0  0
    0.3530   18.9090  -32.1360 C   0  0  0  0  0  0  0  0  0  0  0  0
   -0.3160   19.4200  -33.4180 C   0  0  0  0  0  0  0  0  0  0  0  0
   -1.2440   18.3970  -34.1210 C   0  0  0  0  0  0  0  0  0  0  0  0
   -2.7000   18.5870  -33.9170 N   0  0  0  0  0  0  0  0  0  0  0  0
   -3.0850   19.8240  -33.2140 C   0  0  0  0  0  0  0  0  0  0  0  0
   -4.5690   20.1500  -33.4660 C   0  0  0  0  0  0  0  0  0  0  0  0
   -5.4280   18.8740  -33.6850 C   0  0  0  0  0  0  0  0  0  0  0  0
   -6.8700   19.0630  -33.3760 N   0  0  0  0  0  0  0  0  0  0  0  0
   -7.2520   20.4840  -33.1650 C   0  0  0  0  0  0  0  0  0  0  0  0
   -7.5910   20.7950  -31.7020 C   0  0  0  0  0  0  0  0  0  0  0  0
   -8.7380   19.9100  -31.1840 C   0  0  0  0  0  0  0  0  0  0  0  0
   -8.8200   18.5540  -31.9040 C   0  0  0  0  0  0  0  0  0  0  0  0
   -7.4430   18.1020  -32.3990 C   0  0  0  0  0  0  0  0  0  0  0  0
   -4.8270   17.6720  -32.9340 C   0  0  0  0  0  0  0  0  0  0  0  0
   -3.4000   17.3730  -33.4340 C   0  0  0  0  0  0  0  0  0  0  0  0
   -0.4730   21.5880  -30.7960 C   0  0  0  0  0  0  0  0  0  0  0  0
   -1.1490   22.7600  -30.4410 C   0  0  0  0  0  0  0  0  0  0  0  0
   -4.4360   24.5760  -30.7970 N   0  0  0  0  0  0  0  0  0  0  0  0
   -5.5900   25.3490  -30.2830 C   0  0  0  0  0  0  0  0  0  0  0  0
   -6.8690   24.4990  -30.1990 C   0  0  0  0  0  0  0  0  0  0  0  0
   -7.2540   23.9430  -31.4480 O   0  0  0  0  0  0  0  0  0  0  0  0
   -6.1550   23.5850  -32.2800 C   0  0  0  0  0  0  0  0  0  0  0  0
   -4.8380   23.3550  -31.5200 C   0  0  0  0  0  0  0  0  0  0  0  0
   -4.1057   21.3972  -29.4023 H   0  0  0  0  0  0  0  0  0  0  0  0
   -2.9017   19.3077  -30.0270 H   0  0  0  0  0  0  0  0  0  0  0  0
    1.3062   19.4397  -31.9950 H   0  0  0  0  0  0  0  0  0  0  0  0
    0.5175   17.8266  -32.2421 H   0  0  0  0  0  0  0  0  0  0  0  0
   -0.9159   20.3055  -33.1610 H   0  0  0  0  0  0  0  0  0  0  0  0
    0.4977   19.6364  -34.1259 H   0  0  0  0  0  0  0  0  0  0  0  0
   -1.0464   18.4518  -35.2017 H   0  0  0  0  0  0  0  0  0  0  0  0
   -1.0073   17.4236  -33.6666 H   0  0  0  0  0  0  0  0  0  0  0  0
   -2.9220   19.6921  -32.1342 H   0  0  0  0  0  0  0  0  0  0  0  0
   -2.4699   20.6537  -33.5926 H   0  0  0  0  0  0  0  0  0  0  0  0
   -4.9632   20.6960  -32.5962 H   0  0  0  0  0  0  0  0  0  0  0  0
   -4.6280   20.7549  -34.3829 H   0  0  0  0  0  0  0  0  0  0  0  0
   -5.3937   18.6580  -34.7630 H   0  0  0  0  0  0  0  0  0  0  0  0
   -6.4128   21.1238  -33.4754 H   0  0  0  0  0  0  0  0  0  0  0  0
   -8.1544   20.6777  -33.7635 H   0  0  0  0  0  0  0  0  0  0  0  0
   -6.6981   20.6195  -31.0840 H   0  0  0  0  0  0  0  0  0  0  0  0
   -7.9127   21.8451  -31.6399 H   0  0  0  0  0  0  0  0  0  0  0  0
   -8.5836   19.7283  -30.1101 H   0  0  0  0  0  0  0  0  0  0  0  0
   -9.6800   20.4439  -31.3778 H   0  0  0  0  0  0  0  0  0  0  0  0
   -9.2146   17.8010  -31.2059 H   0  0  0  0  0  0  0  0  0  0  0  0
   -9.4831   18.6631  -32.7748 H   0  0  0  0  0  0  0  0  0  0  0  0
   -6.7633   18.0205  -31.5380 H   0  0  0  0  0  0  0  0  0  0  0  0
   -7.5600   17.1302  -32.9008 H   0  0  0  0  0  0  0  0  0  0  0  0
   -4.7921   17.8995  -31.8583 H   0  0  0  0  0  0  0  0  0  0  0  0
   -5.4576   16.7897  -33.1182 H   0  0  0  0  0  0  0  0  0  0  0  0
   -2.8205   16.9378  -32.6065 H   0  0  0  0  0  0  0  0  0  0  0  0
   -3.4826   16.6764  -34.2813 H   0  0  0  0  0  0  0  0  0  0  0  0
    0.5509   21.6453  -31.1939 H   0  0  0  0  0  0  0  0  0  0  0  0
   -0.6538   23.7351  -30.5589 H   0  0  0  0  0  0  0  0  0  0  0  0
   -5.3464   25.7224  -29.2774 H   0  0  0  0  0  0  0  0  0  0  0  0
   -5.7802   26.1763  -30.9826 H   0  0  0  0  0  0  0  0  0  0  0  0
   -6.6965   23.6770  -29.4886 H   0  0  0  0  0  0  0  0  0  0  0  0
   -7.6824   25.1635  -29.8722 H   0  0  0  0  0  0  0  0  0  0  0  0
   -6.4129   22.6574  -32.8120 H   0  0  0  0  0  0  0  0  0  0  0  0
   -5.9839   24.4326  -32.9599 H   0  0  0  0  0  0  0  0  0  0  0  0
   -4.9753   22.5362  -30.7984 H   0  0  0  0  0  0  0  0  0  0  0  0
   -4.0513   23.0962  -32.2439 H   0  0  0  0  0  0  0  0  0  0  0  0
  1  2  2  0
  2  3  2  0
  2  4  1  0
  4  5  2  0
  5  6  1  0
  6  7  2  0
  7  8  1  0
  8  9  1  0
  9 10  1  0
 10 11  1  0
 11 12  1  0
 12 13  1  0
 13 14  1  0
 14 15  1  0
 15 16  1  0
 16 17  1  0
 17 18  1  0
 18 19  1  0
 19 20  1  0
 20 21  1  0
 15 22  1  0
 22 23  1  0
  7 24  1  0
 24 25  2  0
  2 26  1  0
 26 27  1  0
 27 28  1  0
 28 29  1  0
 29 30  1  0
 30 31  1  0
 25  4  1  0
 31 26  1  0
 23 12  1  0
 21 16  1  0
  5 32  1  0
  6 33  1  0
  9 34  1  0
  9 35  1  0
 10 36  1  0
 10 37  1  0
 11 38  1  0
 11 39  1  0
 13 40  1  0
 13 41  1  0
 14 42  1  0
 14 43  1  0
 15 44  1  0
 17 45  1  0
 17 46  1  0
 18 47  1  0
 18 48  1  0
 19 49  1  0
 19 50  1  0
 20 51  1  0
 20 52  1  0
 21 53  1  0
 21 54  1  0
 22 55  1  0
 22 56  1  0
 23 57  1  0
 23 58  1  0
 24 59  1  0
 25 60  1  0
 27 61  1  0
 27 62  1  0
 28 63  1  0
 28 64  1  0
 30 65  1  0
 30 66  1  0
 31 67  1  0
 31 68  1  0
M  END
>  <UniqueID>  (10) 
10

>  <SMILES>  (10) 
O=S(=O)(c1ccc(OCCCN2CCC(N3CCCCC3)CC2)cc1)N1CCOCC1

>  <Energy>  (10) 
102.52160643161338

>  <Genealogy>  (10) 
O=S(=O)(c1ccc(OCCCN2CCC(N3CCCCC3)CC2)cc1)N1CCOCC1 (3D coordinates assigned)
O=S(=O)(c1ccc(OCCCN2CCC(N3CCCCC3)CC2)cc1)N1CCOCC1 (nonaromatic ring conformer: 102.52160643161338 kcal/mol)

>  <smiles>  (10) 
O=S(=O)(c1ccc(OCCCN2CCC(N3CCCCC3)CC2)cc1)N1CCOCC1

>  <score_type>  (10) 
oracle

>  <origin>  (10) 
adgpu

>  <m_score__min__energy>  (10) 
-10.35

>  <m_primary>  (10) 
energy

$$$$
10:0
     RDKit          3D

 45 47  0  0  0  0  0  0  0  0999 V2000
   -9.5120   23.0130  -31.8510 O   0  0  0  0  0  0  0  0  0  0  0  0
   -8.0440   22.7120  -31.9600 S   0  0  0  0  0  0  0  0  0  0  0  0
   -7.4720   23.5350  -33.0810 O   0  0  0  0  0  0  0  0  0  0  0  0
   -7.2650   23.1300  -30.4650 N   0  0  0  0  0  0  0  0  0  0  0  0
   -6.3750   24.2690  -30.6700 C   0  0  0  0  0  0  0  0  0  0  0  0
   -5.0270   23.9520  -30.0910 C   0  0  0  0  0  0  0  0  0  0  0  0
   -4.7050   22.6350  -29.7240 C   0  0  0  0  0  0  0  0  0  0  0  0
   -3.4370   22.3350  -29.2170 C   0  0  0  0  0  0  0  0  0  0  0  0
   -2.4780   23.3440  -29.0850 C   0  0  0  0  0  0  0  0  0  0  0  0
   -2.7850   24.6540  -29.4650 C   0  0  0  0  0  0  0  0  0  0  0  0
   -1.8290   25.6550  -29.3410 O   0  0  0  0  0  0  0  0  0  0  0  0
   -4.0540   24.9580  -29.9720 C   0  0  0  0  0  0  0  0  0  0  0  0
   -7.8310   20.9960  -32.2970 C   0  0  0  0  0  0  0  0  0  0  0  0
   -8.8470   20.0890  -31.9690 C   0  0  0  0  0  0  0  0  0  0  0  0
   -8.6770   18.7240  -32.2210 C   0  0  0  0  0  0  0  0  0  0  0  0
   -7.4920   18.2580  -32.7940 C   0  0  0  0  0  0  0  0  0  0  0  0
   -6.4660   19.1570  -33.1200 C   0  0  0  0  0  0  0  0  0  0  0  0
   -4.9660   18.5730  -33.8440 S   0  0  0  0  0  0  0  0  0  0  0  0
   -4.5050   17.3510  -33.0990 O   0  0  0  0  0  0  0  0  0  0  0  0
   -5.2240   18.1780  -35.2710 O   0  0  0  0  0  0  0  0  0  0  0  0
   -3.7080   19.7830  -33.7980 N   0  0  0  0  0  0  0  0  0  0  0  0
   -2.4200   19.2050  -34.2090 C   0  0  0  0  0  0  0  0  0  0  0  0
   -1.3270   20.2940  -34.1890 C   0  0  0  0  0  0  0  0  0  0  0  0
   -1.7830   21.5050  -33.6080 O   0  0  0  0  0  0  0  0  0  0  0  0
   -2.3380   21.2460  -32.3340 C   0  0  0  0  0  0  0  0  0  0  0  0
   -3.5980   20.3620  -32.4470 C   0  0  0  0  0  0  0  0  0  0  0  0
   -6.6390   20.5250  -32.8660 C   0  0  0  0  0  0  0  0  0  0  0  0
   -6.2751   24.4688  -31.7471 H   0  0  0  0  0  0  0  0  0  0  0  0
   -6.7912   25.1576  -30.1729 H   0  0  0  0  0  0  0  0  0  0  0  0
   -5.4533   21.8365  -29.8359 H   0  0  0  0  0  0  0  0  0  0  0  0
   -3.1935   21.3038  -28.9215 H   0  0  0  0  0  0  0  0  0  0  0  0
   -1.4822   23.1071  -28.6822 H   0  0  0  0  0  0  0  0  0  0  0  0
   -4.2899   25.9879  -30.2781 H   0  0  0  0  0  0  0  0  0  0  0  0
   -9.7800   20.4511  -31.5125 H   0  0  0  0  0  0  0  0  0  0  0  0
   -9.4791   18.0154  -31.9671 H   0  0  0  0  0  0  0  0  0  0  0  0
   -7.3629   17.1834  -32.9902 H   0  0  0  0  0  0  0  0  0  0  0  0
   -2.1439   18.3979  -33.5144 H   0  0  0  0  0  0  0  0  0  0  0  0
   -2.5120   18.8021  -35.2284 H   0  0  0  0  0  0  0  0  0  0  0  0
   -0.4697   19.9238  -33.6077 H   0  0  0  0  0  0  0  0  0  0  0  0
   -1.0450   20.5063  -35.2308 H   0  0  0  0  0  0  0  0  0  0  0  0
   -1.5904   20.7287  -31.7147 H   0  0  0  0  0  0  0  0  0  0  0  0
   -2.6231   22.2043  -31.8754 H   0  0  0  0  0  0  0  0  0  0  0  0
   -3.5358   19.5484  -31.7093 H   0  0  0  0  0  0  0  0  0  0  0  0
   -4.4849   20.9837  -32.2551 H   0  0  0  0  0  0  0  0  0  0  0  0
   -5.8348   21.2331  -33.1146 H   0  0  0  0  0  0  0  0  0  0  0  0
  1  2  2  0
  2  3  2  0
  2  4  1  0
  4  5  1  0
  5  6  1  0
  6  7  2  0
  7  8  1  0
  8  9  2  0
  9 10  1  0
 10 11  1  0
 10 12  2  0
  2 13  1  0
 13 14  2  0
 14 15  1  0
 15 16  2  0
 16 17  1  0
 17 18  1  0
 18 19  2  0
 18 20  2  0
 18 21  1  0
 21 22  1  0
 22 23  1  0
 23 24  1  0
 24 25  1  0
 25 26  1  0
 17 27  2  0
 12  6  1  0
 27 13  1  0
 26 21  1  0
  5 28  1  0
  5 29  1  0
  7 30  1  0
  8 31  1  0
  9 32  1  0
 12 33  1  0
 14 34  1  0
 15 35  1  0
 16 36  1  0
 22 37  1  0
 22 38  1  0
 23 39  1  0
 23 40  1  0
 25 41  1  0
 25 42  1  0
 26 43  1  0
 26 44  1  0
 27 45  1  0
M  CHG  2   4  -1  11  -1
M  END
>  <UniqueID>  (11) 
11

>  <SMILES>  (11) 
O=S(=O)([N-]Cc1cccc([O-])c1)c1cccc(S(=O)(=O)N2CCOCC2)c1

>  <Energy>  (11) 
50.82658869927872

>  <Genealogy>  (11) 
O=S(=O)([N-]Cc1cccc([O-])c1)c1cccc(S(=O)(=O)N2CCOCC2)c1 (protonated)
O=S(=O)([N-]Cc1cccc([O-])c1)c1cccc(S(=O)(=O)N2CCOCC2)c1 (3D coordinates assigned)
O=S(=O)([N-]Cc1cccc([O-])c1)c1cccc(S(=O)(=O)N2CCOCC2)c1 (nonaromatic ring conformer: 50.82658869927872 kcal/mol)

>  <smiles>  (11) 
O=S(=O)(NCc1cccc(O)c1)c1cccc(S(=O)(=O)N2CCOCC2)c1

>  <score_type>  (11) 
oracle

>  <origin>  (11) 
adgpu

>  <m_score__min__energy>  (11) 
-12.84

>  <m_primary>  (11) 
energy

$$$$
11:0
     RDKit          3D

 46 48  0  0  0  0  0  0  0  0999 V2000
   -4.9630   14.8130  -31.5160 N   0  0  0  0  0  0  0  0  0  0  0  0
   -5.0840   15.4850  -32.7750 C   0  0  0  0  0  0  0  0  0  0  0  0
   -4.6820   14.8900  -33.8590 N   0  0  0  0  0  0  0  0  0  0  0  0
   -5.6710   16.8470  -32.8340 C   0  0  0  0  0  0  0  0  0  0  0  0
   -5.1520   17.8040  -33.7220 C   0  0  0  0  0  0  0  0  0  0  0  0
   -5.7040   19.0870  -33.7850 C   0  0  0  0  0  0  0  0  0  0  0  0
   -6.7810   19.4380  -32.9530 C   0  0  0  0  0  0  0  0  0  0  0  0
   -7.3720   20.7090  -32.9980 O   0  0  0  0  0  0  0  0  0  0  0  0
   -6.8760   21.8590  -32.3680 C   0  0  0  0  0  0  0  0  0  0  0  0
   -7.7080   22.7240  -31.6330 C   0  0  0  0  0  0  0  0  0  0  0  0
   -7.1790   23.8680  -31.0310 C   0  0  0  0  0  0  0  0  0  0  0  0
   -5.8150   24.1710  -31.1610 C   0  0  0  0  0  0  0  0  0  0  0  0
   -5.2410   25.4110  -30.5320 C   0  0  0  0  0  0  0  0  0  0  0  0
   -3.9190   25.1340  -29.9740 N   0  0  0  0  0  0  0  0  0  0  0  0
   -3.7210   24.2150  -28.8880 C   0  0  0  0  0  0  0  0  0  0  0  0
   -4.7180   23.7040  -28.3080 O   0  0  0  0  0  0  0  0  0  0  0  0
   -2.3590   23.8890  -28.4080 C   0  0  0  0  0  0  0  0  0  0  0  0
   -2.1270   22.6490  -27.7860 C   0  0  0  0  0  0  0  0  0  0  0  0
   -0.8530   22.3190  -27.3150 C   0  0  0  0  0  0  0  0  0  0  0  0
    0.2050   23.2160  -27.4690 C   0  0  0  0  0  0  0  0  0  0  0  0
   -0.0070   24.4420  -28.1030 C   0  0  0  0  0  0  0  0  0  0  0  0
   -1.2780   24.7800  -28.5820 C   0  0  0  0  0  0  0  0  0  0  0  0
   -1.4450   25.9870  -29.2530 O   0  0  0  0  0  0  0  0  0  0  0  0
   -4.9900   23.3210  -31.9150 C   0  0  0  0  0  0  0  0  0  0  0  0
   -5.5210   22.1770  -32.5160 C   0  0  0  0  0  0  0  0  0  0  0  0
   -7.3150   18.4790  -32.0860 C   0  0  0  0  0  0  0  0  0  0  0  0
   -6.7630   17.1970  -32.0190 C   0  0  0  0  0  0  0  0  0  0  0  0
   -4.5920   13.8380  -31.4640 H   0  0  0  0  0  0  0  0  0  0  0  0
   -5.1950   15.3000  -30.6210 H   0  0  0  0  0  0  0  0  0  0  0  0
   -4.2650   13.9320  -33.8200 H   0  0  0  0  0  0  0  0  0  0  0  0
   -4.7850   15.3310  -34.8010 H   0  0  0  0  0  0  0  0  0  0  0  0
   -4.3048   17.5419  -34.3728 H   0  0  0  0  0  0  0  0  0  0  0  0
   -5.2933   19.8254  -34.4893 H   0  0  0  0  0  0  0  0  0  0  0  0
   -8.7798   22.4981  -31.5321 H   0  0  0  0  0  0  0  0  0  0  0  0
   -7.8349   24.5348  -30.4521 H   0  0  0  0  0  0  0  0  0  0  0  0
   -5.1544   26.1980  -31.2957 H   0  0  0  0  0  0  0  0  0  0  0  0
   -5.9079   25.7418  -29.7222 H   0  0  0  0  0  0  0  0  0  0  0  0
   -3.1070   25.6740  -30.3480 H   0  0  0  0  0  0  0  0  0  0  0  0
   -2.9544   21.9336  -27.6693 H   0  0  0  0  0  0  0  0  0  0  0  0
   -0.6840   21.3503  -26.8220 H   0  0  0  0  0  0  0  0  0  0  0  0
    1.2052   22.9574  -27.0912 H   0  0  0  0  0  0  0  0  0  0  0  0
    0.8293   25.1458  -28.2266 H   0  0  0  0  0  0  0  0  0  0  0  0
   -3.9220   23.5566  -32.0329 H   0  0  0  0  0  0  0  0  0  0  0  0
   -4.8686   21.5206  -33.1106 H   0  0  0  0  0  0  0  0  0  0  0  0
   -8.1763   18.7360  -31.4519 H   0  0  0  0  0  0  0  0  0  0  0  0
   -7.1853   16.4562  -31.3241 H   0  0  0  0  0  0  0  0  0  0  0  0
  1  2  1  0
  2  3  2  0
  2  4  1  0
  4  5  2  0
  5  6  1  0
  6  7  2  0
  7  8  1  0
  8  9  1  0
  9 10  2  0
 10 11  1  0
 11 12  2  0
 12 13  1  0
 13 14  1  0
 14 15  1  0
 15 16  2  0
 15 17  1  0
 17 18  2  0
 18 19  1  0
 19 20  2  0
 20 21  1  0
 21 22  2  0
 22 23  1  0
 12 24  1  0
 24 25  2  0
  7 26  1  0
 26 27  2  0
 27  4  1  0
 25  9  1  0
 22 17  1  0
  1 28  1  0
  1 29  1  0
  3 30  1  0
  3 31  1  0
  5 32  1  0
  6 33  1  0
 10 34  1  0
 11 35  1  0
 13 36  1  0
 13 37  1  0
 14 38  1  0
 18 39  1  0
 19 40  1  0
 20 41  1  0
 21 42  1  0
 24 43  1  0
 25 44  1  0
 26 45  1  0
 27 46  1  0
M  CHG  2   3   1  23  -1
M  END
>  <UniqueID>  (12) 
12

>  <SMILES>  (12) 
NC(=[NH2+])c1ccc(Oc2ccc(CNC(=O)c3ccccc3[O-])cc2)cc1

>  <Energy>  (12) 
59.47477744494456

>  <Genealogy>  (12) 
NC(=[NH2+])c1ccc(Oc2ccc(CNC(=O)c3ccccc3[O-])cc2)cc1 (protonated)
NC(=[NH2+])c1ccc(Oc2ccc(CNC(=O)c3ccccc3[O-])cc2)cc1 (3D coordinates assigned)
NC(=[NH2+])c1ccc(Oc2ccc(CNC(=O)c3ccccc3[O-])cc2)cc1 (optimized conformer: 59.47477744494456 kcal/mol)

>  <smiles>  (12) 
N=C(N)c1ccc(Oc2ccc(CNC(=O)c3ccccc3O)cc2)cc1

>  <score_type>  (12) 
oracle

>  <origin>  (12) 
adgpu

>  <m_score__min__energy>  (12) 
-11.6

>  <m_primary>  (12) 
energy

$$$$
12:0
     RDKit          3D

 62 66  0  0  0  0  0  0  0  0999 V2000
   -7.2300   24.9080  -29.7120 O   0  0  0  0  0  0  0  0  0  0  0  0
   -6.8590   24.0800  -30.5840 C   0  0  0  0  0  0  0  0  0  0  0  0
   -7.7220   23.5280  -31.5510 N   0  0  0  0  0  0  0  0  0  0  0  0
   -6.9380   22.6250  -32.3910 C   0  0  2  0  0  0  0  0  0  0  0  0
   -7.4950   21.2200  -32.3200 C   0  0  0  0  0  0  0  0  0  0  0  0
   -6.6480   20.1140  -32.4980 C   0  0  0  0  0  0  0  0  0  0  0  0
   -7.1580   18.8140  -32.4180 C   0  0  0  0  0  0  0  0  0  0  0  0
   -8.5130   18.6070  -32.1540 C   0  0  0  0  0  0  0  0  0  0  0  0
   -9.3630   19.7000  -31.9680 C   0  0  0  0  0  0  0  0  0  0  0  0
   -8.8590   21.0020  -32.0480 C   0  0  0  0  0  0  0  0  0  0  0  0
   -5.4790   22.7020  -31.8500 C   0  0  0  0  0  0  0  0  0  0  0  0
   -5.5400   23.6030  -30.7070 N   0  0  0  0  0  0  0  0  0  0  0  0
   -4.1820   24.1190  -29.7650 S   0  0  0  0  0  0  0  0  0  0  0  0
   -3.5170   25.2820  -30.4470 O   0  0  0  0  0  0  0  0  0  0  0  0
   -4.6400   24.5460  -28.3980 O   0  0  0  0  0  0  0  0  0  0  0  0
   -3.0510   22.7800  -29.5890 C   0  0  0  0  0  0  0  0  0  0  0  0
   -1.9440   22.6620  -30.4380 C   0  0  0  0  0  0  0  0  0  0  0  0
   -1.0690   21.5790  -30.3070 C   0  0  0  0  0  0  0  0  0  0  0  0
   -1.2910   20.5950  -29.3260 C   0  0  0  0  0  0  0  0  0  0  0  0
   -0.3690   19.4390  -29.1910 C   0  0  0  0  0  0  0  0  0  0  0  0
    0.2400   19.1520  -27.9560 C   0  0  0  0  0  0  0  0  0  0  0  0
    1.0990   18.0580  -27.8280 C   0  0  0  0  0  0  0  0  0  0  0  0
    1.3610   17.2380  -28.9260 C   0  0  0  0  0  0  0  0  0  0  0  0
    0.7720   17.5120  -30.1690 C   0  0  0  0  0  0  0  0  0  0  0  0
    1.0350   16.6040  -31.3400 C   0  0  0  0  0  0  0  0  0  0  0  0
   -0.1030   16.6260  -32.2680 N   0  0  0  0  0  0  0  0  0  0  0  0
    0.1170   17.5800  -33.3620 C   0  0  0  0  0  0  0  0  0  0  0  0
   -0.9280   18.6580  -33.3070 C   0  0  0  0  0  0  0  0  0  0  0  0
   -2.2790   18.3280  -33.1280 C   0  0  0  0  0  0  0  0  0  0  0  0
   -3.2470   19.3340  -33.1180 C   0  0  0  0  0  0  0  0  0  0  0  0
   -2.8560   20.6610  -33.2980 C   0  0  0  0  0  0  0  0  0  0  0  0
   -1.5440   20.9650  -33.4880 N   0  0  0  0  0  0  0  0  0  0  0  0
   -0.5820   20.0040  -33.4990 C   0  0  0  0  0  0  0  0  0  0  0  0
   -0.0960   18.6090  -30.2950 C   0  0  0  0  0  0  0  0  0  0  0  0
   -2.4080   20.7220  -28.4790 C   0  0  0  0  0  0  0  0  0  0  0  0
   -3.2790   21.8070  -28.6110 C   0  0  0  0  0  0  0  0  0  0  0  0
   -8.7390   23.7430  -31.6590 H   0  0  0  0  0  0  0  0  0  0  0  0
   -6.9729   22.9112  -33.4525 H   0  0  0  0  0  0  0  0  0  0  0  0
   -5.5784   20.2708  -32.7013 H   0  0  0  0  0  0  0  0  0  0  0  0
   -6.4896   17.9526  -32.5635 H   0  0  0  0  0  0  0  0  0  0  0  0
   -8.9114   17.5835  -32.0924 H   0  0  0  0  0  0  0  0  0  0  0  0
  -10.4303   19.5362  -31.7583 H   0  0  0  0  0  0  0  0  0  0  0  0
   -9.5313   21.8596  -31.8977 H   0  0  0  0  0  0  0  0  0  0  0  0
   -5.1308   21.7064  -31.5377 H   0  0  0  0  0  0  0  0  0  0  0  0
   -4.7756   23.0591  -32.6166 H   0  0  0  0  0  0  0  0  0  0  0  0
   -1.7619   23.4236  -31.2105 H   0  0  0  0  0  0  0  0  0  0  0  0
   -0.2001   21.4957  -30.9763 H   0  0  0  0  0  0  0  0  0  0  0  0
    0.0385   19.7933  -27.0853 H   0  0  0  0  0  0  0  0  0  0  0  0
    1.5706   17.8422  -26.8580 H   0  0  0  0  0  0  0  0  0  0  0  0
    2.0321   16.3733  -28.8164 H   0  0  0  0  0  0  0  0  0  0  0  0
    1.9391   16.9435  -31.8665 H   0  0  0  0  0  0  0  0  0  0  0  0
    1.1765   15.5772  -30.9717 H   0  0  0  0  0  0  0  0  0  0  0  0
   -0.1850   15.6720  -32.6920 H   0  0  0  0  0  0  0  0  0  0  0  0
    1.1148   18.0315  -33.2591 H   0  0  0  0  0  0  0  0  0  0  0  0
    0.0491   17.0536  -34.3255 H   0  0  0  0  0  0  0  0  0  0  0  0
   -2.5760   17.2772  -32.9955 H   0  0  0  0  0  0  0  0  0  0  0  0
   -4.3076   19.0828  -32.9696 H   0  0  0  0  0  0  0  0  0  0  0  0
   -3.6096   21.4623  -33.2863 H   0  0  0  0  0  0  0  0  0  0  0  0
    0.4701   20.2826  -33.6588 H   0  0  0  0  0  0  0  0  0  0  0  0
   -0.5672   18.8218  -31.2659 H   0  0  0  0  0  0  0  0  0  0  0  0
   -2.5969   19.9614  -27.7072 H   0  0  0  0  0  0  0  0  0  0  0  0
   -4.1479   21.8959  -27.9424 H   0  0  0  0  0  0  0  0  0  0  0  0
  1  2  2  0
  2  3  1  0
  3  4  1  0
  4  5  1  0
  5  6  2  0
  6  7  1  0
  7  8  2  0
  8  9  1  0
  9 10  2  0
  4 11  1  0
 11 12  1  0
 12 13  1  0
 13 14  2  0
 13 15  2  0
 13 16  1  0
 16 17  2  0
 17 18  1  0
 18 19  2  0
 19 20  1  0
 20 21  2  0
 21 22  1  0
 22 23  2  0
 23 24  1  0
 24 25  1  0
 25 26  1  0
 26 27  1  0
 27 28  1  0
 28 29  2  0
 29 30  1  0
 30 31  2  0
 31 32  1  0
 32 33  2  0
 24 34  2  0
 19 35  1  0
 35 36  2  0
 12  2  1  0
 36 16  1  0
 10  5  1  0
 34 20  1  0
 33 28  1  0
  3 37  1  0
  4 38  1  6
  6 39  1  0
  7 40  1  0
  8 41  1  0
  9 42  1  0
 10 43  1  0
 11 44  1  0
 11 45  1  0
 17 46  1  0
 18 47  1  0
 21 48  1  0
 22 49  1  0
 23 50  1  0
 25 51  1  0
 25 52  1  0
 26 53  1  0
 27 54  1  0
 27 55  1  0
 29 56  1  0
 30 57  1  0
 31 58  1  0
 33 59  1  0
 34 60  1  0
 35 61  1  0
 36 62  1  0
M  END
>  <UniqueID>  (13) 
13

>  <SMILES>  (13) 
O=C1N[C@H](c2ccccc2)CN1S(=O)(=O)c1ccc(-c2cccc(CNCc3cccnc3)c2)cc1

>  <Energy>  (13) 
87.00016395414312

>  <Genealogy>  (13) 
O=C1N[C@H](c2ccccc2)CN1S(=O)(=O)c1ccc(-c2cccc(CNCc3cccnc3)c2)cc1 (chirality)
O=C1N[C@H](c2ccccc2)CN1S(=O)(=O)c1ccc(-c2cccc(CNCc3cccnc3)c2)cc1 (3D coordinates assigned)
O=C1N[C@H](c2ccccc2)CN1S(=O)(=O)c1ccc(-c2cccc(CNCc3cccnc3)c2)cc1 (nonaromatic ring conformer: 87.00016395414312 kcal/mol)

>  <smiles>  (13) 
O=C1NC(c2ccccc2)CN1S(=O)(=O)c1ccc(-c2cccc(CNCc3cccnc3)c2)cc1

>  <score_type>  (13) 
oracle

>  <origin>  (13) 
adgpu

>  <m_score__min__energy>  (13) 
-10.41

>  <m_primary>  (13) 
energy

$$$$
13:0
     RDKit          3D

 78 82  0  0  0  0  0  0  0  0999 V2000
    1.6060   15.3560  -34.5160 C   0  0  0  0  0  0  0  0  0  0  0  0
    1.3960   16.7860  -34.2990 N   0  0  0  0  0  0  0  0  0  0  0  0
    0.0860   17.2700  -33.9910 C   0  0  0  0  0  0  0  0  0  0  0  0
   -0.8620   17.4220  -35.0110 C   0  0  0  0  0  0  0  0  0  0  0  0
   -2.1740   17.7880  -34.6980 C   0  0  0  0  0  0  0  0  0  0  0  0
   -2.5470   18.0020  -33.3630 C   0  0  0  0  0  0  0  0  0  0  0  0
   -4.2260   18.3590  -32.9570 S   0  0  0  0  0  0  0  0  0  0  0  0
   -4.8810   19.0530  -34.1190 O   0  0  0  0  0  0  0  0  0  0  0  0
   -4.2650   19.2900  -31.7760 O   0  0  0  0  0  0  0  0  0  0  0  0
   -5.1110   16.8980  -32.5840 N   0  0  0  0  0  0  0  0  0  0  0  0
   -6.5380   17.0060  -32.9820 C   0  0  0  0  0  0  0  0  0  0  0  0
   -6.8500   16.2750  -34.2980 C   0  0  0  0  0  0  0  0  0  0  0  0
   -6.4920   14.7810  -34.2090 C   0  0  0  0  0  0  0  0  0  0  0  0
   -5.3360   14.5030  -33.2330 C   0  0  0  0  0  0  0  0  0  0  0  0
   -4.4060   15.7150  -33.1280 C   0  0  0  0  0  0  0  0  0  0  0  0
   -1.5860   17.8810  -32.3500 C   0  0  0  0  0  0  0  0  0  0  0  0
   -0.2760   17.5080  -32.6620 C   0  0  0  0  0  0  0  0  0  0  0  0
    2.7290   17.8820  -34.1230 S   0  0  0  0  0  0  0  0  0  0  0  0
    3.8640   17.4370  -35.0040 O   0  0  0  0  0  0  0  0  0  0  0  0
    3.2180   17.9020  -32.7010 O   0  0  0  0  0  0  0  0  0  0  0  0
    2.1910   19.4920  -34.5840 C   0  0  0  0  0  0  0  0  0  0  0  0
    2.9520   20.2700  -35.4670 C   0  0  0  0  0  0  0  0  0  0  0  0
    2.4990   21.5330  -35.8570 C   0  0  0  0  0  0  0  0  0  0  0  0
    1.2780   22.0240  -35.3790 C   0  0  0  0  0  0  0  0  0  0  0  0
    0.8770   23.3060  -35.7360 O   0  0  0  0  0  0  0  0  0  0  0  0
    0.4860   21.2290  -34.5250 C   0  0  0  0  0  0  0  0  0  0  0  0
   -0.7770   21.6930  -34.0210 N   0  0  0  0  0  0  0  0  0  0  0  0
   -1.2080   21.4820  -32.6640 C   0  0  0  0  0  0  0  0  0  0  0  0
   -0.3870   21.0550  -31.8060 O   0  0  0  0  0  0  0  0  0  0  0  0
   -2.5960   21.8060  -32.2480 C   0  0  0  0  0  0  0  0  0  0  0  0
   -2.8860   22.1990  -30.9280 C   0  0  0  0  0  0  0  0  0  0  0  0
   -4.2000   22.4810  -30.5440 C   0  0  0  0  0  0  0  0  0  0  0  0
   -5.2460   22.3720  -31.4670 C   0  0  0  0  0  0  0  0  0  0  0  0
   -6.9040   22.7270  -30.9810 S   0  0  0  0  0  0  0  0  0  0  0  0
   -6.8740   23.5510  -29.7240 O   0  0  0  0  0  0  0  0  0  0  0  0
   -7.5520   23.5590  -32.0520 O   0  0  0  0  0  0  0  0  0  0  0  0
   -7.8720   21.2930  -30.7080 N   0  0  0  0  0  0  0  0  0  0  0  0
   -9.3250   21.5330  -30.8130 C   0  0  0  0  0  0  0  0  0  0  0  0
   -9.8650   21.2990  -32.2320 C   0  0  0  0  0  0  0  0  0  0  0  0
   -9.4780   20.0340  -32.7160 O   0  0  0  0  0  0  0  0  0  0  0  0
   -8.0740   19.9940  -32.8390 C   0  0  0  0  0  0  0  0  0  0  0  0
   -7.4060   20.1140  -31.4630 C   0  0  0  0  0  0  0  0  0  0  0  0
   -4.9600   22.0190  -32.7930 C   0  0  0  0  0  0  0  0  0  0  0  0
   -3.6480   21.7340  -33.1790 C   0  0  0  0  0  0  0  0  0  0  0  0
    0.9600   19.9730  -34.1210 C   0  0  0  0  0  0  0  0  0  0  0  0
    1.6811   14.8449  -33.5448 H   0  0  0  0  0  0  0  0  0  0  0  0
    0.7589   14.9429  -35.0832 H   0  0  0  0  0  0  0  0  0  0  0  0
    2.5361   15.2039  -35.0832 H   0  0  0  0  0  0  0  0  0  0  0  0
   -0.5736   17.2532  -36.0590 H   0  0  0  0  0  0  0  0  0  0  0  0
   -2.9162   17.9086  -35.5009 H   0  0  0  0  0  0  0  0  0  0  0  0
   -7.1585   16.5722  -32.1841 H   0  0  0  0  0  0  0  0  0  0  0  0
   -6.7571   18.0727  -33.1374 H   0  0  0  0  0  0  0  0  0  0  0  0
   -7.9236   16.3734  -34.5162 H   0  0  0  0  0  0  0  0  0  0  0  0
   -6.2460   16.7287  -35.0976 H   0  0  0  0  0  0  0  0  0  0  0  0
   -7.3794   14.2264  -33.8700 H   0  0  0  0  0  0  0  0  0  0  0  0
   -6.1667   14.4579  -35.2089 H   0  0  0  0  0  0  0  0  0  0  0  0
   -5.7500   14.2795  -32.2387 H   0  0  0  0  0  0  0  0  0  0  0  0
   -4.7566   13.6470  -33.6092 H   0  0  0  0  0  0  0  0  0  0  0  0
   -3.5658   15.4637  -32.4640 H   0  0  0  0  0  0  0  0  0  0  0  0
   -4.0482   15.9624  -34.1383 H   0  0  0  0  0  0  0  0  0  0  0  0
   -1.8643   18.0806  -31.3047 H   0  0  0  0  0  0  0  0  0  0  0  0
    0.4708   17.4016  -31.8614 H   0  0  0  0  0  0  0  0  0  0  0  0
    3.9074   19.8858  -35.8537 H   0  0  0  0  0  0  0  0  0  0  0  0
    3.1043   22.1442  -36.5426 H   0  0  0  0  0  0  0  0  0  0  0  0
   -1.2930   22.3930  -34.5980 H   0  0  0  0  0  0  0  0  0  0  0  0
   -2.0722   22.2849  -30.1929 H   0  0  0  0  0  0  0  0  0  0  0  0
   -4.4131   22.7904  -29.5101 H   0  0  0  0  0  0  0  0  0  0  0  0
   -9.8446   20.8525  -30.1224 H   0  0  0  0  0  0  0  0  0  0  0  0
   -9.5061   22.5879  -30.5590 H   0  0  0  0  0  0  0  0  0  0  0  0
  -10.9633   21.3566  -32.2132 H   0  0  0  0  0  0  0  0  0  0  0  0
   -9.4505   22.0710  -32.8970 H   0  0  0  0  0  0  0  0  0  0  0  0
   -7.7790   19.0407  -33.3018 H   0  0  0  0  0  0  0  0  0  0  0  0
   -7.7494   20.8384  -33.4648 H   0  0  0  0  0  0  0  0  0  0  0  0
   -7.6343   19.2094  -30.8802 H   0  0  0  0  0  0  0  0  0  0  0  0
   -6.3242   20.2286  -31.6262 H   0  0  0  0  0  0  0  0  0  0  0  0
   -5.7722   21.9662  -33.5329 H   0  0  0  0  0  0  0  0  0  0  0  0
   -3.4357   21.4507  -34.2205 H   0  0  0  0  0  0  0  0  0  0  0  0
    0.3591   19.3594  -33.4337 H   0  0  0  0  0  0  0  0  0  0  0  0
  1  2  1  0
  2  3  1  0
  3  4  2  0
  4  5  1  0
  5  6  2  0
  6  7  1  0
  7  8  2  0
  7  9  2  0
  7 10  1  0
 10 11  1  0
 11 12  1  0
 12 13  1  0
 13 14  1  0
 14 15  1  0
  6 16  1  0
 16 17  2  0
  2 18  1  0
 18 19  2  0
 18 20  2  0
 18 21  1  0
 21 22  2  0
 22 23  1  0
 23 24  2  0
 24 25  1  0
 24 26  1  0
 26 27  1  0
 27 28  1  0
 28 29  2  0
 28 30  1  0
 30 31  2  0
 31 32  1  0
 32 33  2  0
 33 34  1  0
 34 35  2  0
 34 36  2  0
 34 37  1  0
 37 38  1  0
 38 39  1  0
 39 40  1  0
 40 41  1  0
 41 42  1  0
 33 43  1  0
 43 44  2  0
 26 45  2  0
 17  3  1  0
 45 21  1  0
 15 10  1  0
 44 30  1  0
 42 37  1  0
  1 46  1  0
  1 47  1  0
  1 48  1  0
  4 49  1  0
  5 50  1  0
 11 51  1  0
 11 52  1  0
 12 53  1  0
 12 54  1  0
 13 55  1  0
 13 56  1  0
 14 57  1  0
 14 58  1  0
 15 59  1  0
 15 60  1  0
 16 61  1  0
 17 62  1  0
 22 63  1  0
 23 64  1  0
 27 65  1  0
 31 66  1  0
 32 67  1  0
 38 68  1  0
 38 69  1  0
 39 70  1  0
 39 71  1  0
 41 72  1  0
 41 73  1  0
 42 74  1  0
 42 75  1  0
 43 76  1  0
 44 77  1  0
 45 78  1  0
M  CHG  1  25  -1
M  END
>  <UniqueID>  (14) 
14

>  <SMILES>  (14) 
CN(c1ccc(S(=O)(=O)N2CCCCC2)cc1)S(=O)(=O)c1ccc([O-])c(NC(=O)c2ccc(S(=O)(=O)N3CCOCC3)cc2)c1

>  <Energy>  (14) 
103.67174723712772

>  <Genealogy>  (14) 
CN(c1ccc(S(=O)(=O)N2CCCCC2)cc1)S(=O)(=O)c1ccc([O-])c(NC(=O)c2ccc(S(=O)(=O)N3CCOCC3)cc2)c1 (protonated)
CN(c1ccc(S(=O)(=O)N2CCCCC2)cc1)S(=O)(=O)c1ccc([O-])c(NC(=O)c2ccc(S(=O)(=O)N3CCOCC3)cc2)c1 (3D coordinates assigned)
CN(c1ccc(S(=O)(=O)N2CCCCC2)cc1)S(=O)(=O)c1ccc([O-])c(NC(=O)c2ccc(S(=O)(=O)N3CCOCC3)cc2)c1 (nonaromatic ring conformer: 103.67174723712772 kcal/mol)

>  <smiles>  (14) 
CN(c1ccc(S(=O)(=O)N2CCCCC2)cc1)S(=O)(=O)c1ccc(O)c(NC(=O)c2ccc(S(=O)(=O)N3CCOCC3)cc2)c1

>  <score_type>  (14) 
oracle

>  <origin>  (14) 
adgpu

>  <m_score__min__energy>  (14) 
-11.91

>  <m_primary>  (14) 
energy

$$$$
14:0
     RDKit          3D

 53 56  0  0  0  0  0  0  0  0999 V2000
   -9.0360   19.6890  -32.3020 O   0  0  0  0  0  0  0  0  0  0  0  0
   -7.7870   19.8270  -32.4140 C   0  0  0  0  0  0  0  0  0  0  0  0
   -7.1230   20.9850  -31.7750 C   0  0  0  0  0  0  0  0  0  0  0  0
   -5.7260   21.1290  -31.8290 C   0  0  0  0  0  0  0  0  0  0  0  0
   -5.1020   22.2200  -31.2150 C   0  0  0  0  0  0  0  0  0  0  0  0
   -5.8630   23.1730  -30.5260 C   0  0  0  0  0  0  0  0  0  0  0  0
   -5.0630   24.5450  -29.7630 S   0  0  0  0  0  0  0  0  0  0  0  0
   -3.8790   24.9710  -30.5890 O   0  0  0  0  0  0  0  0  0  0  0  0
   -6.0360   25.6880  -29.6950 O   0  0  0  0  0  0  0  0  0  0  0  0
   -4.5450   24.1120  -28.1480 N   0  0  0  0  0  0  0  0  0  0  0  0
   -4.5480   22.6550  -27.9600 C   0  0  0  0  0  0  0  0  0  0  0  0
   -3.1360   22.1450  -28.2260 C   0  0  0  0  0  0  0  0  0  0  0  0
   -2.2530   23.3790  -28.2730 C   0  0  0  0  0  0  0  0  0  0  0  0
   -3.1640   24.5420  -27.9060 C   0  0  0  0  0  0  0  0  0  0  0  0
   -7.2550   23.0270  -30.4580 C   0  0  0  0  0  0  0  0  0  0  0  0
   -7.8820   21.9370  -31.0730 C   0  0  0  0  0  0  0  0  0  0  0  0
   -7.0330   18.8530  -33.1590 N   0  0  0  0  0  0  0  0  0  0  0  0
   -7.3790   17.4310  -33.0440 C   0  0  0  0  0  0  0  0  0  0  0  0
   -6.1070   16.5750  -33.1180 C   0  0  0  0  0  0  0  0  0  0  0  0
   -5.1890   17.0280  -34.1820 N   0  0  0  0  0  0  0  0  0  0  0  0
   -3.8870   16.4090  -34.3480 C   0  0  0  0  0  0  0  0  0  0  0  0
   -2.6930   17.1550  -34.2560 C   0  0  0  0  0  0  0  0  0  0  0  0
   -1.4620   16.5160  -34.4320 C   0  0  0  0  0  0  0  0  0  0  0  0
   -1.4160   15.1490  -34.6990 C   0  0  0  0  0  0  0  0  0  0  0  0
   -2.6090   14.4330  -34.7830 C   0  0  0  0  0  0  0  0  0  0  0  0
   -3.7980   15.0700  -34.6080 N   0  0  0  0  0  0  0  0  0  0  0  0
   -5.6180   18.1280  -35.0640 C   0  0  0  0  0  0  0  0  0  0  0  0
   -6.1220   19.3050  -34.2220 C   0  0  0  0  0  0  0  0  0  0  0  0
   -5.1194   20.3789  -32.3575 H   0  0  0  0  0  0  0  0  0  0  0  0
   -4.0091   22.3300  -31.2735 H   0  0  0  0  0  0  0  0  0  0  0  0
   -5.1900   24.5700  -27.4610 H   0  0  0  0  0  0  0  0  0  0  0  0
   -4.8452   22.4118  -26.9292 H   0  0  0  0  0  0  0  0  0  0  0  0
   -5.2626   22.1813  -28.6492 H   0  0  0  0  0  0  0  0  0  0  0  0
   -2.8126   21.4731  -27.4173 H   0  0  0  0  0  0  0  0  0  0  0  0
   -3.0821   21.5724  -29.1637 H   0  0  0  0  0  0  0  0  0  0  0  0
   -1.4300   23.2912  -27.5484 H   0  0  0  0  0  0  0  0  0  0  0  0
   -1.7935   23.5158  -29.2630 H   0  0  0  0  0  0  0  0  0  0  0  0
   -3.0319   24.8027  -26.8455 H   0  0  0  0  0  0  0  0  0  0  0  0
   -2.9226   25.4294  -28.5096 H   0  0  0  0  0  0  0  0  0  0  0  0
   -7.8579   23.7725  -29.9188 H   0  0  0  0  0  0  0  0  0  0  0  0
   -8.9743   21.8250  -31.0065 H   0  0  0  0  0  0  0  0  0  0  0  0
   -7.8815   17.2548  -32.0815 H   0  0  0  0  0  0  0  0  0  0  0  0
   -8.0499   17.1540  -33.8705 H   0  0  0  0  0  0  0  0  0  0  0  0
   -5.5847   16.6329  -32.1516 H   0  0  0  0  0  0  0  0  0  0  0  0
   -6.4085   15.5429  -33.3500 H   0  0  0  0  0  0  0  0  0  0  0  0
   -2.7305   18.2343  -34.0468 H   0  0  0  0  0  0  0  0  0  0  0  0
   -0.5284   17.0931  -34.3596 H   0  0  0  0  0  0  0  0  0  0  0  0
   -0.4506   14.6415  -34.8416 H   0  0  0  0  0  0  0  0  0  0  0  0
   -2.5889   13.3530  -34.9908 H   0  0  0  0  0  0  0  0  0  0  0  0
   -4.7664   18.4568  -35.6777 H   0  0  0  0  0  0  0  0  0  0  0  0
   -6.4308   17.7742  -35.7152 H   0  0  0  0  0  0  0  0  0  0  0  0
   -5.2602   19.8119  -33.7633 H   0  0  0  0  0  0  0  0  0  0  0  0
   -6.6730   19.9917  -34.8815 H   0  0  0  0  0  0  0  0  0  0  0  0
  1  2  2  0
  2  3  1  0
  3  4  2  0
  4  5  1  0
  5  6  2  0
  6  7  1  0
  7  8  2  0
  7  9  2  0
  7 10  1  0
 10 11  1  0
 11 12  1  0
 12 13  1  0
 13 14  1  0
  6 15  1  0
 15 16  2  0
  2 17  1  0
 17 18  1  0
 18 19  1  0
 19 20  1  0
 20 21  1  0
 21 22  2  0
 22 23  1  0
 23 24  2  0
 24 25  1  0
 25 26  2  0
 20 27  1  0
 27 28  1  0
 16  3  1  0
 28 17  1  0
 14 10  1  0
 26 21  1  0
  4 29  1  0
  5 30  1  0
 10 31  1  0
 11 32  1  0
 11 33  1  0
 12 34  1  0
 12 35  1  0
 13 36  1  0
 13 37  1  0
 14 38  1  0
 14 39  1  0
 15 40  1  0
 16 41  1  0
 18 42  1  0
 18 43  1  0
 19 44  1  0
 19 45  1  0
 22 46  1  0
 23 47  1  0
 24 48  1  0
 25 49  1  0
 27 50  1  0
 27 51  1  0
 28 52  1  0
 28 53  1  0
M  CHG  1  10   1
M  END
>  <UniqueID>  (15) 
15

>  <SMILES>  (15) 
O=C(c1ccc(S(=O)(=O)[NH+]2CCCC2)cc1)N1CCN(c2ccccn2)CC1

>  <Energy>  (15) 
64.90801911263087

>  <Genealogy>  (15) 
O=C(c1ccc(S(=O)(=O)[NH+]2CCCC2)cc1)N1CCN(c2ccccn2)CC1 (protonated)
O=C(c1ccc(S(=O)(=O)[NH+]2CCCC2)cc1)N1CCN(c2ccccn2)CC1 (3D coordinates assigned)
O=C(c1ccc(S(=O)(=O)[NH+]2CCCC2)cc1)N1CCN(c2ccccn2)CC1 (nonaromatic ring conformer: 64.90801911263087 kcal/mol)

>  <smiles>  (15) 
O=C(c1ccc(S(=O)(=O)N2CCCC2)cc1)N1CCN(c2ccccn2)CC1

>  <score_type>  (15) 
oracle

>  <origin>  (15) 
adgpu

>  <m_score__min__energy>  (15) 
-9.1999999999999993

>  <m_primary>  (15) 
energy

$$$$
15:0
     RDKit          3D

 52 54  0  0  0  0  0  0  0  0999 V2000
   -0.8590   20.8980  -32.9420 C   0  0  0  0  0  0  0  0  0  0  0  0
   -2.1050   20.0220  -33.0660 C   0  0  0  0  0  0  0  0  0  0  0  0
   -3.4090   20.8000  -32.7900 C   0  0  0  0  0  0  0  0  0  0  0  0
   -3.1850   22.1290  -32.0530 C   0  0  0  0  0  0  0  0  0  0  0  0
   -4.4720   22.7540  -31.6030 C   0  0  0  0  0  0  0  0  0  0  0  0
   -5.6800   22.1880  -31.7840 N   0  0  0  0  0  0  0  0  0  0  0  0
   -6.5830   22.9770  -31.2230 N   0  0  0  0  0  0  0  0  0  0  0  0
   -8.0080   22.6610  -31.2050 C   0  0  0  0  0  0  0  0  0  0  0  0
   -5.9810   24.0580  -30.6700 C   0  0  0  0  0  0  0  0  0  0  0  0
   -6.7000   25.1120  -29.8790 C   0  0  0  0  0  0  0  0  0  0  0  0
   -4.6140   23.9340  -30.8960 C   0  0  0  0  0  0  0  0  0  0  0  0
   -3.5120   24.7470  -30.4640 N   0  0  0  0  0  0  0  0  0  0  0  0
   -2.6360   24.6700  -28.9730 S   0  0  0  0  0  0  0  0  0  0  0  0
   -1.5250   25.6830  -28.9640 O   0  0  0  0  0  0  0  0  0  0  0  0
   -3.5560   24.9120  -27.8100 O   0  0  0  0  0  0  0  0  0  0  0  0
   -1.9360   23.0620  -28.8380 C   0  0  0  0  0  0  0  0  0  0  0  0
   -2.5190   22.0960  -28.0050 C   0  0  0  0  0  0  0  0  0  0  0  0
   -1.9650   20.8150  -27.9180 C   0  0  0  0  0  0  0  0  0  0  0  0
   -0.8230   20.4780  -28.6670 C   0  0  0  0  0  0  0  0  0  0  0  0
   -0.2340   19.1170  -28.5770 C   0  0  0  0  0  0  0  0  0  0  0  0
    0.5900   18.6200  -29.6000 C   0  0  0  0  0  0  0  0  0  0  0  0
    1.1400   17.3410  -29.5010 C   0  0  0  0  0  0  0  0  0  0  0  0
    0.8630   16.5560  -28.3740 C   0  0  0  0  0  0  0  0  0  0  0  0
    1.3620   15.3650  -28.2580 N   0  0  0  0  0  0  0  0  0  0  0  0
    0.0600   17.0490  -27.3890 N   0  0  0  0  0  0  0  0  0  0  0  0
   -0.4850   18.2940  -27.4660 C   0  0  0  0  0  0  0  0  0  0  0  0
   -0.2500   21.4500  -29.5070 C   0  0  0  0  0  0  0  0  0  0  0  0
   -0.8050   22.7310  -29.5920 C   0  0  0  0  0  0  0  0  0  0  0  0
   -0.6289   21.0598  -31.8786 H   0  0  0  0  0  0  0  0  0  0  0  0
   -0.0091   20.3977  -33.4291 H   0  0  0  0  0  0  0  0  0  0  0  0
   -1.0422   21.8671  -33.4291 H   0  0  0  0  0  0  0  0  0  0  0  0
   -2.1480   19.6135  -34.0864 H   0  0  0  0  0  0  0  0  0  0  0  0
   -2.0274   19.2248  -32.3120 H   0  0  0  0  0  0  0  0  0  0  0  0
   -3.8974   21.0134  -33.7522 H   0  0  0  0  0  0  0  0  0  0  0  0
   -4.0305   20.1689  -32.1377 H   0  0  0  0  0  0  0  0  0  0  0  0
   -2.5548   21.9425  -31.1709 H   0  0  0  0  0  0  0  0  0  0  0  0
   -2.6998   22.8247  -32.7534 H   0  0  0  0  0  0  0  0  0  0  0  0
   -8.3535   22.5844  -30.1635 H   0  0  0  0  0  0  0  0  0  0  0  0
   -8.5666   23.4571  -31.7190 H   0  0  0  0  0  0  0  0  0  0  0  0
   -8.1777   21.7034  -31.7190 H   0  0  0  0  0  0  0  0  0  0  0  0
   -6.5677   24.9180  -28.8044 H   0  0  0  0  0  0  0  0  0  0  0  0
   -6.2876   26.1013  -30.1265 H   0  0  0  0  0  0  0  0  0  0  0  0
   -7.7715   25.0890  -30.1265 H   0  0  0  0  0  0  0  0  0  0  0  0
   -3.4150   22.3468  -27.4182 H   0  0  0  0  0  0  0  0  0  0  0  0
   -2.4259   20.0649  -27.2586 H   0  0  0  0  0  0  0  0  0  0  0  0
    0.8027   19.2411  -30.4826 H   0  0  0  0  0  0  0  0  0  0  0  0
    1.7861   16.9522  -30.3018 H   0  0  0  0  0  0  0  0  0  0  0  0
    1.9840   14.9440  -28.9870 H   0  0  0  0  0  0  0  0  0  0  0  0
   -0.1500   16.4620  -26.5490 H   0  0  0  0  0  0  0  0  0  0  0  0
   -1.1276   18.6591  -26.6513 H   0  0  0  0  0  0  0  0  0  0  0  0
    0.6413   21.2007  -30.1015 H   0  0  0  0  0  0  0  0  0  0  0  0
   -0.3501   23.4818  -30.2548 H   0  0  0  0  0  0  0  0  0  0  0  0
  1  2  1  0
  2  3  1  0
  3  4  1  0
  4  5  1  0
  5  6  2  0
  6  7  1  0
  7  8  1  0
  7  9  1  0
  9 10  1  0
  9 11  2  0
 11 12  1  0
 12 13  1  0
 13 14  2  0
 13 15  2  0
 13 16  1  0
 16 17  2  0
 17 18  1  0
 18 19  2  0
 19 20  1  0
 20 21  1  0
 21 22  2  0
 22 23  1  0
 23 24  2  3
 23 25  1  0
 25 26  1  0
 19 27  1  0
 27 28  2  0
 11  5  1  0
 28 16  1  0
 26 20  2  0
  1 29  1  0
  1 30  1  0
  1 31  1  0
  2 32  1  0
  2 33  1  0
  3 34  1  0
  3 35  1  0
  4 36  1  0
  4 37  1  0
  8 38  1  0
  8 39  1  0
  8 40  1  0
 10 41  1  0
 10 42  1  0
 10 43  1  0
 17 44  1  0
 18 45  1  0
 21 46  1  0
 22 47  1  0
 24 48  1  0
 25 49  1  0
 26 50  1  0
 27 51  1  0
 28 52  1  0
M  CHG  1  12  -1
M  END
>  <UniqueID>  (16) 
16

>  <SMILES>  (16) 
CCCCc1nn(C)c(C)c1[N-]S(=O)(=O)c1ccc(-c2ccc(=N)[nH]c2)cc1

>  <Energy>  (16) 
91.22363758903383

>  <Genealogy>  (16) 
CCCCc1nn(C)c(C)c1[N-]S(=O)(=O)c1ccc(-c2ccc(=N)[nH]c2)cc1 (protonated)
CCCCc1nn(C)c(C)c1[N-]S(=O)(=O)c1ccc(-c2ccc(=N)[nH]c2)cc1 (3D coordinates assigned)
CCCCc1nn(C)c(C)c1[N-]S(=O)(=O)c1ccc(-c2ccc(=N)[nH]c2)cc1 (optimized conformer: 91.22363758903383 kcal/mol)

>  <smiles>  (16) 
CCCCc1nn(C)c(C)c1NS(=O)(=O)c1ccc(-c2ccc(=N)[nH]c2)cc1

>  <score_type>  (16) 
oracle

>  <origin>  (16) 
adgpu

>  <m_score__min__energy>  (16) 
-10.09

>  <m_primary>  (16) 
energy

$$$$
16:0
     RDKit          3D

 42 44  0  0  0  0  0  0  0  0999 V2000
   -5.7360   25.3060  -28.9250 O   0  0  0  0  0  0  0  0  0  0  0  0
   -5.2970   25.0280  -30.3320 S   0  0  0  0  0  0  0  0  0  0  0  0
   -5.7520   26.1530  -31.2200 O   0  0  0  0  0  0  0  0  0  0  0  0
   -3.5660   24.9240  -30.3750 N   0  0  0  0  0  0  0  0  0  0  0  0
   -2.7620   24.1930  -29.4340 C   0  0  0  0  0  0  0  0  0  0  0  0
   -3.1060   22.8930  -29.0230 C   0  0  0  0  0  0  0  0  0  0  0  0
   -2.2900   22.1990  -28.1220 C   0  0  0  0  0  0  0  0  0  0  0  0
   -2.7180   20.5760  -27.6270 Cl  0  0  0  0  0  0  0  0  0  0  0  0
   -1.1350   22.8010  -27.6140 C   0  0  0  0  0  0  0  0  0  0  0  0
   -0.7880   24.0890  -28.0200 C   0  0  0  0  0  0  0  0  0  0  0  0
   -1.5950   24.7840  -28.9270 C   0  0  0  0  0  0  0  0  0  0  0  0
   -1.2360   26.0670  -29.3180 O   0  0  0  0  0  0  0  0  0  0  0  0
   -5.9960   23.5000  -30.8610 C   0  0  0  0  0  0  0  0  0  0  0  0
   -5.3020   22.6860  -31.7650 C   0  0  0  0  0  0  0  0  0  0  0  0
   -5.8650   21.4830  -32.2010 C   0  0  0  0  0  0  0  0  0  0  0  0
   -7.1240   21.0820  -31.7350 C   0  0  0  0  0  0  0  0  0  0  0  0
   -7.8110   19.5600  -32.2950 S   0  0  0  0  0  0  0  0  0  0  0  0
   -8.8490   19.8240  -33.3500 O   0  0  0  0  0  0  0  0  0  0  0  0
   -8.4690   18.8740  -31.1320 O   0  0  0  0  0  0  0  0  0  0  0  0
   -6.5510   18.5400  -32.9430 N   0  0  0  0  0  0  0  0  0  0  0  0
   -6.1200   19.0390  -34.2640 C   0  0  0  0  0  0  0  0  0  0  0  0
   -5.4210   17.9390  -35.0820 C   0  0  0  0  0  0  0  0  0  0  0  0
   -4.8690   16.9670  -34.2220 O   0  0  0  0  0  0  0  0  0  0  0  0
   -5.9050   16.2440  -33.5730 C   0  0  0  0  0  0  0  0  0  0  0  0
   -7.0300   17.1540  -33.0340 C   0  0  0  0  0  0  0  0  0  0  0  0
   -7.8140   21.8900  -30.8230 C   0  0  0  0  0  0  0  0  0  0  0  0
   -7.2520   23.0950  -30.3870 C   0  0  0  0  0  0  0  0  0  0  0  0
   -4.0199   22.4196  -29.4111 H   0  0  0  0  0  0  0  0  0  0  0  0
   -0.5015   22.2599  -26.8958 H   0  0  0  0  0  0  0  0  0  0  0  0
    0.1241   24.5606  -27.6255 H   0  0  0  0  0  0  0  0  0  0  0  0
   -4.3120   22.9939  -32.1327 H   0  0  0  0  0  0  0  0  0  0  0  0
   -5.3171   20.8484  -32.9131 H   0  0  0  0  0  0  0  0  0  0  0  0
   -7.0025   19.3905  -34.8186 H   0  0  0  0  0  0  0  0  0  0  0  0
   -5.4042   19.8592  -34.1062 H   0  0  0  0  0  0  0  0  0  0  0  0
   -6.1542   17.4603  -35.7478 H   0  0  0  0  0  0  0  0  0  0  0  0
   -4.6134   18.3924  -35.6755 H   0  0  0  0  0  0  0  0  0  0  0  0
   -6.3417   15.5355  -34.2923 H   0  0  0  0  0  0  0  0  0  0  0  0
   -5.4565   15.7295  -32.7104 H   0  0  0  0  0  0  0  0  0  0  0  0
   -7.8926   17.1101  -33.7152 H   0  0  0  0  0  0  0  0  0  0  0  0
   -7.3285   16.8073  -32.0336 H   0  0  0  0  0  0  0  0  0  0  0  0
   -8.7998   21.5769  -30.4486 H   0  0  0  0  0  0  0  0  0  0  0  0
   -7.7972   23.7266  -29.6701 H   0  0  0  0  0  0  0  0  0  0  0  0
  1  2  2  0
  2  3  2  0
  2  4  1  0
  4  5  1  0
  5  6  2  0
  6  7  1  0
  7  8  1  0
  7  9  2  0
  9 10  1  0
 10 11  2  0
 11 12  1  0
  2 13  1  0
 13 14  2  0
 14 15  1  0
 15 16  2  0
 16 17  1  0
 17 18  2  0
 17 19  2  0
 17 20  1  0
 20 21  1  0
 21 22  1  0
 22 23  1  0
 23 24  1  0
 24 25  1  0
 16 26  1  0
 26 27  2  0
 11  5  1  0
 27 13  1  0
 25 20  1  0
  6 28  1  0
  9 29  1  0
 10 30  1  0
 14 31  1  0
 15 32  1  0
 21 33  1  0
 21 34  1  0
 22 35  1  0
 22 36  1  0
 24 37  1  0
 24 38  1  0
 25 39  1  0
 25 40  1  0
 26 41  1  0
 27 42  1  0
M  CHG  2   4  -1  12  -1
M  END
>  <UniqueID>  (17) 
17

>  <SMILES>  (17) 
O=S(=O)([N-]c1cc(Cl)ccc1[O-])c1ccc(S(=O)(=O)N2CCOCC2)cc1

>  <Energy>  (17) 
54.100490259406136

>  <Genealogy>  (17) 
O=S(=O)([N-]c1cc(Cl)ccc1[O-])c1ccc(S(=O)(=O)N2CCOCC2)cc1 (protonated)
O=S(=O)([N-]c1cc(Cl)ccc1[O-])c1ccc(S(=O)(=O)N2CCOCC2)cc1 (3D coordinates assigned)
O=S(=O)([N-]c1cc(Cl)ccc1[O-])c1ccc(S(=O)(=O)N2CCOCC2)cc1 (nonaromatic ring conformer: 54.100490259406136 kcal/mol)

>  <smiles>  (17) 
O=S(=O)(Nc1cc(Cl)ccc1O)c1ccc(S(=O)(=O)N2CCOCC2)cc1

>  <score_type>  (17) 
oracle

>  <origin>  (17) 
adgpu

>  <m_score__min__energy>  (17) 
-14.84

>  <m_primary>  (17) 
energy

$$$$
17:0
     RDKit          3D

 55 58  0  0  0  0  0  0  0  0999 V2000
   -2.9920   16.4040  -35.2430 C   0  0  0  0  0  0  0  0  0  0  0  0
   -2.9820   16.8230  -33.5120 S   0  0  0  0  0  0  0  0  0  0  0  0
   -3.4170   15.6290  -32.7040 O   0  0  0  0  0  0  0  0  0  0  0  0
   -1.5800   17.2010  -33.1200 O   0  0  0  0  0  0  0  0  0  0  0  0
   -4.0550   18.1730  -33.2230 N   0  0  0  0  0  0  0  0  0  0  0  0
   -3.3860   19.4350  -33.5760 C   0  0  0  0  0  0  0  0  0  0  0  0
   -4.2300   20.6100  -33.0590 C   0  0  0  0  0  0  0  0  0  0  0  0
   -5.6690   20.3180  -33.1820 N   0  0  0  0  0  0  0  0  0  0  0  0
   -6.6200   20.9060  -32.2700 C   0  0  0  0  0  0  0  0  0  0  0  0
   -7.6690   20.2710  -31.9690 O   0  0  0  0  0  0  0  0  0  0  0  0
   -6.3780   22.2250  -31.6400 C   0  0  0  0  0  0  0  0  0  0  0  0
   -7.4590   23.0160  -31.2240 C   0  0  0  0  0  0  0  0  0  0  0  0
   -7.2320   24.2390  -30.5880 C   0  0  0  0  0  0  0  0  0  0  0  0
   -5.9270   24.6980  -30.3790 C   0  0  0  0  0  0  0  0  0  0  0  0
   -5.7420   25.9150  -29.7280 O   0  0  0  0  0  0  0  0  0  0  0  0
   -4.8340   23.9390  -30.8390 C   0  0  0  0  0  0  0  0  0  0  0  0
   -3.5000   24.4390  -30.6560 N   0  0  0  0  0  0  0  0  0  0  0  0
   -2.6270   24.4380  -29.1520 S   0  0  0  0  0  0  0  0  0  0  0  0
   -1.5050   25.4330  -29.2470 O   0  0  0  0  0  0  0  0  0  0  0  0
   -3.5220   24.8510  -28.0160 O   0  0  0  0  0  0  0  0  0  0  0  0
   -1.9480   22.8290  -28.8640 C   0  0  0  0  0  0  0  0  0  0  0  0
   -0.7110   22.4610  -29.4220 C   0  0  0  0  0  0  0  0  0  0  0  0
   -0.1290   21.2230  -29.1170 C   0  0  0  0  0  0  0  0  0  0  0  0
   -0.7850   20.3280  -28.2630 C   0  0  0  0  0  0  0  0  0  0  0  0
   -0.2060   19.0870  -27.9430 C   0  0  0  0  0  0  0  0  0  0  0  0
   -0.8740   18.2020  -27.0970 C   0  0  0  0  0  0  0  0  0  0  0  0
   -2.1230   18.5450  -26.5670 C   0  0  0  0  0  0  0  0  0  0  0  0
   -2.7090   19.7770  -26.8750 C   0  0  0  0  0  0  0  0  0  0  0  0
   -2.0470   20.6790  -27.7180 C   0  0  0  0  0  0  0  0  0  0  0  0
   -2.6160   21.9300  -28.0190 C   0  0  0  0  0  0  0  0  0  0  0  0
   -5.0720   22.7020  -31.4630 C   0  0  0  0  0  0  0  0  0  0  0  0
   -6.0960   19.3170  -34.1720 C   0  0  0  0  0  0  0  0  0  0  0  0
   -5.3110   17.9970  -33.9910 C   0  0  0  0  0  0  0  0  0  0  0  0
   -3.0181   15.3101  -35.3553 H   0  0  0  0  0  0  0  0  0  0  0  0
   -3.8799   16.8430  -35.7214 H   0  0  0  0  0  0  0  0  0  0  0  0
   -2.0841   16.8001  -35.7214 H   0  0  0  0  0  0  0  0  0  0  0  0
   -2.3885   19.4657  -33.1133 H   0  0  0  0  0  0  0  0  0  0  0  0
   -3.2794   19.5063  -34.6685 H   0  0  0  0  0  0  0  0  0  0  0  0
   -3.9880   20.7892  -32.0010 H   0  0  0  0  0  0  0  0  0  0  0  0
   -3.9993   21.5006  -33.6621 H   0  0  0  0  0  0  0  0  0  0  0  0
   -8.4891   22.6722  -31.3991 H   0  0  0  0  0  0  0  0  0  0  0  0
   -8.0851   24.8452  -30.2493 H   0  0  0  0  0  0  0  0  0  0  0  0
   -5.0550   26.0390  -28.9940 H   0  0  0  0  0  0  0  0  0  0  0  0
   -0.1948   23.1518  -30.1049 H   0  0  0  0  0  0  0  0  0  0  0  0
    0.8458   20.9537  -29.5497 H   0  0  0  0  0  0  0  0  0  0  0  0
    0.7745   18.8141  -28.3603 H   0  0  0  0  0  0  0  0  0  0  0  0
   -0.4184   17.2328  -26.8459 H   0  0  0  0  0  0  0  0  0  0  0  0
   -2.6472   17.8411  -25.9039 H   0  0  0  0  0  0  0  0  0  0  0  0
   -3.6914   20.0382  -26.4546 H   0  0  0  0  0  0  0  0  0  0  0  0
   -3.5905   22.2049  -27.5892 H   0  0  0  0  0  0  0  0  0  0  0  0
   -4.2219   22.1004  -31.8171 H   0  0  0  0  0  0  0  0  0  0  0  0
   -7.1703   19.1183  -34.0439 H   0  0  0  0  0  0  0  0  0  0  0  0
   -5.8972   19.7104  -35.1798 H   0  0  0  0  0  0  0  0  0  0  0  0
   -5.9508   17.2786  -33.4576 H   0  0  0  0  0  0  0  0  0  0  0  0
   -5.0371   17.6359  -34.9933 H   0  0  0  0  0  0  0  0  0  0  0  0
  1  2  1  0
  2  3  2  0
  2  4  2  0
  2  5  1  0
  5  6  1  0
  6  7  1  0
  7  8  1  0
  8  9  1  0
  9 10  2  0
  9 11  1  0
 11 12  2  0
 12 13  1  0
 13 14  2  0
 14 15  1  0
 14 16  1  0
 16 17  1  0
 17 18  1  0
 18 19  2  0
 18 20  2  0
 18 21  1  0
 21 22  2  0
 22 23  1  0
 23 24  2  0
 24 25  1  0
 25 26  2  0
 26 27  1  0
 27 28  2  0
 28 29  1  0
 29 30  2  0
 16 31  2  0
  8 32  1  0
 32 33  1  0
 33  5  1  0
 31 11  1  0
 30 21  1  0
 29 24  1  0
  1 34  1  0
  1 35  1  0
  1 36  1  0
  6 37  1  0
  6 38  1  0
  7 39  1  0
  7 40  1  0
 12 41  1  0
 13 42  1  0
 15 43  1  0
 22 44  1  0
 23 45  1  0
 25 46  1  0
 26 47  1  0
 27 48  1  0
 28 49  1  0
 30 50  1  0
 31 51  1  0
 32 52  1  0
 32 53  1  0
 33 54  1  0
 33 55  1  0
M  CHG  1  17  -1
M  END
>  <UniqueID>  (18) 
18

>  <SMILES>  (18) 
CS(=O)(=O)N1CCN(C(=O)c2ccc(O)c([N-]S(=O)(=O)c3ccc4ccccc4c3)c2)CC1

>  <Energy>  (18) 
71.81474548210711

>  <Genealogy>  (18) 
CS(=O)(=O)N1CCN(C(=O)c2ccc(O)c([N-]S(=O)(=O)c3ccc4ccccc4c3)c2)CC1 (protonated)
CS(=O)(=O)N1CCN(C(=O)c2ccc(O)c([N-]S(=O)(=O)c3ccc4ccccc4c3)c2)CC1 (3D coordinates assigned)
CS(=O)(=O)N1CCN(C(=O)c2ccc(O)c([N-]S(=O)(=O)c3ccc4ccccc4c3)c2)CC1 (nonaromatic ring conformer: 71.81474548210711 kcal/mol)

>  <smiles>  (18) 
CS(=O)(=O)N1CCN(C(=O)c2ccc(O)c(NS(=O)(=O)c3ccc4ccccc4c3)c2)CC1

>  <score_type>  (18) 
oracle

>  <origin>  (18) 
adgpu

>  <m_score__min__energy>  (18) 
-13.119999999999999

>  <m_primary>  (18) 
energy

$$$$
18:0
     RDKit          3D

 48 52  0  0  0  0  0  0  0  0999 V2000
   -8.0100   19.6950  -33.4650 O   0  0  0  0  0  0  0  0  0  0  0  0
   -6.8040   19.8980  -33.1610 C   0  0  0  0  0  0  0  0  0  0  0  0
   -5.7520   18.9980  -33.6840 C   0  0  0  0  0  0  0  0  0  0  0  0
   -6.0760   17.9560  -34.5740 C   0  0  0  0  0  0  0  0  0  0  0  0
   -5.0790   17.1180  -35.0740 C   0  0  0  0  0  0  0  0  0  0  0  0
   -3.7520   17.3050  -34.6890 C   0  0  0  0  0  0  0  0  0  0  0  0
   -3.4130   18.3320  -33.8040 C   0  0  0  0  0  0  0  0  0  0  0  0
   -4.4040   19.1910  -33.3010 C   0  0  0  0  0  0  0  0  0  0  0  0
   -4.0480   20.2930  -32.3770 C   0  0  0  0  0  0  0  0  0  0  0  0
   -2.8580   20.4180  -31.9710 O   0  0  0  0  0  0  0  0  0  0  0  0
   -5.0910   21.2470  -31.9250 C   0  0  0  0  0  0  0  0  0  0  0  0
   -4.7430   22.3710  -31.1550 C   0  0  0  0  0  0  0  0  0  0  0  0
   -5.7210   23.3030  -30.7760 C   0  0  0  0  0  0  0  0  0  0  0  0
   -5.2650   24.8300  -30.0210 S   0  0  0  0  0  0  0  0  0  0  0  0
   -6.4630   25.7230  -29.8480 O   0  0  0  0  0  0  0  0  0  0  0  0
   -4.2610   25.5240  -30.8970 O   0  0  0  0  0  0  0  0  0  0  0  0
   -4.5540   24.5130  -28.4700 N   0  0  0  0  0  0  0  0  0  0  0  0
   -3.3980   23.6910  -28.2640 C   0  0  0  0  0  0  0  0  0  0  0  0
   -3.5050   22.3930  -27.7370 C   0  0  0  0  0  0  0  0  0  0  0  0
   -2.3830   21.5550  -27.6620 C   0  0  0  0  0  0  0  0  0  0  0  0
   -1.1320   22.0230  -28.1130 C   0  0  0  0  0  0  0  0  0  0  0  0
   -1.0110   23.3480  -28.5590 C   0  0  0  0  0  0  0  0  0  0  0  0
   -2.1390   24.1790  -28.6420 C   0  0  0  0  0  0  0  0  0  0  0  0
   -2.0160   25.4850  -29.1180 O   0  0  0  0  0  0  0  0  0  0  0  0
    0.0950   21.1420  -28.0410 C   0  0  0  0  0  0  0  0  0  0  0  0
   -0.2460   19.7120  -27.9630 N   0  0  0  0  0  0  0  0  0  0  0  0
   -1.2140   19.4640  -26.8880 C   0  0  0  0  0  0  0  0  0  0  0  0
   -2.5590   20.1310  -27.2010 C   0  0  0  0  0  0  0  0  0  0  0  0
   -7.0560   23.0820  -31.1210 C   0  0  0  0  0  0  0  0  0  0  0  0
   -7.4140   21.9590  -31.8680 C   0  0  0  0  0  0  0  0  0  0  0  0
   -6.4380   21.0470  -32.2970 C   0  0  0  0  0  0  0  0  0  0  0  0
   -7.1221   17.8017  -34.8770 H   0  0  0  0  0  0  0  0  0  0  0  0
   -5.3399   16.3092  -35.7724 H   0  0  0  0  0  0  0  0  0  0  0  0
   -2.9686   16.6413  -35.0836 H   0  0  0  0  0  0  0  0  0  0  0  0
   -2.3648   18.4684  -33.4997 H   0  0  0  0  0  0  0  0  0  0  0  0
   -3.6974   22.5206  -30.8478 H   0  0  0  0  0  0  0  0  0  0  0  0
   -4.4798   22.0300  -27.3792 H   0  0  0  0  0  0  0  0  0  0  0  0
   -0.0236   23.7387  -28.8460 H   0  0  0  0  0  0  0  0  0  0  0  0
   -2.8310   26.0490  -29.3360 H   0  0  0  0  0  0  0  0  0  0  0  0
    0.7050   21.3114  -28.9406 H   0  0  0  0  0  0  0  0  0  0  0  0
    0.6452   21.4065  -27.1259 H   0  0  0  0  0  0  0  0  0  0  0  0
   -0.6700   19.4200  -28.8770 H   0  0  0  0  0  0  0  0  0  0  0  0
   -1.3653   18.3796  -26.7822 H   0  0  0  0  0  0  0  0  0  0  0  0
   -0.8191   19.8888  -25.9533 H   0  0  0  0  0  0  0  0  0  0  0  0
   -3.0639   19.5597  -27.9940 H   0  0  0  0  0  0  0  0  0  0  0  0
   -3.1585   20.1415  -26.2788 H   0  0  0  0  0  0  0  0  0  0  0  0
   -7.8292   23.7966  -30.8024 H   0  0  0  0  0  0  0  0  0  0  0  0
   -8.4703   21.7874  -32.1226 H   0  0  0  0  0  0  0  0  0  0  0  0
  1  2  2  0
  2  3  1  0
  3  4  2  0
  4  5  1  0
  5  6  2  0
  6  7  1  0
  7  8  2  0
  8  9  1  0
  9 10  2  0
  9 11  1  0
 11 12  2  0
 12 13  1  0
 13 14  1  0
 14 15  2  0
 14 16  2  0
 14 17  1  0
 17 18  1  0
 18 19  2  0
 19 20  1  0
 20 21  2  0
 21 22  1  0
 22 23  2  0
 23 24  1  0
 21 25  1  0
 25 26  1  0
 26 27  1  0
 27 28  1  0
 13 29  2  0
 29 30  1  0
 30 31  2  0
 31  2  1  0
  8  3  1  0
 31 11  1  0
 23 18  1  0
 28 20  1  0
  4 32  1  0
  5 33  1  0
  6 34  1  0
  7 35  1  0
 12 36  1  0
 19 37  1  0
 22 38  1  0
 24 39  1  0
 25 40  1  0
 25 41  1  0
 26 42  1  0
 27 43  1  0
 27 44  1  0
 28 45  1  0
 28 46  1  0
 29 47  1  0
 30 48  1  0
M  CHG  1  17  -1
M  END
>  <UniqueID>  (19) 
19

>  <SMILES>  (19) 
O=C1c2ccccc2C(=O)c2cc(S(=O)(=O)[N-]c3cc4c(cc3O)CNCC4)ccc21

>  <Energy>  (19) 
64.19369511121103

>  <Genealogy>  (19) 
O=C1c2ccccc2C(=O)c2cc(S(=O)(=O)[N-]c3cc4c(cc3O)CNCC4)ccc21 (protonated)
O=C1c2ccccc2C(=O)c2cc(S(=O)(=O)[N-]c3cc4c(cc3O)CNCC4)ccc21 (3D coordinates assigned)
O=C1c2ccccc2C(=O)c2cc(S(=O)(=O)[N-]c3cc4c(cc3O)CNCC4)ccc21 (nonaromatic ring conformer: 64.19369511121103 kcal/mol)

>  <smiles>  (19) 
O=C1c2ccccc2C(=O)c2cc(S(=O)(=O)Nc3cc4c(cc3O)CNCC4)ccc21

>  <score_type>  (19) 
oracle

>  <origin>  (19) 
adgpu

>  <m_score__min__energy>  (19) 
-13.82

>  <m_primary>  (19) 
energy

$$$$
19:0
     RDKit          3D

 31 33  0  0  0  0  0  0  0  0999 V2000
   -5.4220   17.4150  -35.2260 N   0  0  0  0  0  0  0  0  0  0  0  0
   -5.6690   18.2990  -34.5210 C   0  0  0  0  0  0  0  0  0  0  0  0
   -5.9760   19.4000  -33.6450 C   0  0  0  0  0  0  0  0  0  0  0  0
   -4.9970   20.3570  -33.3520 C   0  0  0  0  0  0  0  0  0  0  0  0
   -5.2960   21.4270  -32.5010 C   0  0  0  0  0  0  0  0  0  0  0  0
   -6.5730   21.5420  -31.9360 C   0  0  0  0  0  0  0  0  0  0  0  0
   -6.9600   22.9030  -30.8880 S   0  0  0  0  0  0  0  0  0  0  0  0
   -7.5850   22.4160  -29.6110 O   0  0  0  0  0  0  0  0  0  0  0  0
   -7.9350   23.8080  -31.5860 O   0  0  0  0  0  0  0  0  0  0  0  0
   -5.4940   23.7870  -30.5210 C   0  0  0  0  0  0  0  0  0  0  0  0
   -4.9910   24.7630  -31.3090 N   0  0  0  0  0  0  0  0  0  0  0  0
   -3.8640   25.2900  -30.8340 N   0  0  0  0  0  0  0  0  0  0  0  0
   -3.4750   24.7440  -29.6620 C   0  0  0  0  0  0  0  0  0  0  0  0
   -2.3760   25.1000  -29.0640 N   0  0  0  0  0  0  0  0  0  0  0  0
   -1.9080   24.6040  -27.8030 C   0  0  0  0  0  0  0  0  0  0  0  0
   -2.7470   24.3410  -26.9020 O   0  0  0  0  0  0  0  0  0  0  0  0
   -0.4820   24.3140  -27.5710 C   0  0  0  0  0  0  0  0  0  0  0  0
    0.0190   23.3870  -26.6770 C   0  0  0  0  0  0  0  0  0  0  0  0
    1.3900   23.4480  -26.8080 C   0  0  0  0  0  0  0  0  0  0  0  0
    1.6400   24.4010  -27.7730 C   0  0  0  0  0  0  0  0  0  0  0  0
    0.5060   24.8970  -28.2100 O   0  0  0  0  0  0  0  0  0  0  0  0
   -4.5360   23.5250  -29.1630 S   0  0  0  0  0  0  0  0  0  0  0  0
   -7.5540   20.5860  -32.2380 C   0  0  0  0  0  0  0  0  0  0  0  0
   -7.2550   19.5170  -33.0880 C   0  0  0  0  0  0  0  0  0  0  0  0
   -3.9923   20.2678  -33.7909 H   0  0  0  0  0  0  0  0  0  0  0  0
   -4.5264   22.1798  -32.2751 H   0  0  0  0  0  0  0  0  0  0  0  0
   -0.5561   22.7363  -26.0018 H   0  0  0  0  0  0  0  0  0  0  0  0
    2.1341   22.8562  -26.2547 H   0  0  0  0  0  0  0  0  0  0  0  0
    2.6388   24.7002  -28.1235 H   0  0  0  0  0  0  0  0  0  0  0  0
   -8.5610   20.6776  -31.8050 H   0  0  0  0  0  0  0  0  0  0  0  0
   -8.0257   18.7670  -33.3194 H   0  0  0  0  0  0  0  0  0  0  0  0
  1  2  3  0
  2  3  1  0
  3  4  2  0
  4  5  1  0
  5  6  2  0
  6  7  1  0
  7  8  2  0
  7  9  2  0
  7 10  1  0
 10 11  2  0
 11 12  1  0
 12 13  1  0
 13 14  2  3
 14 15  1  0
 15 16  2  0
 15 17  1  0
 17 18  2  0
 18 19  1  0
 19 20  2  0
 20 21  1  0
 13 22  1  0
  6 23  1  0
 23 24  2  0
 24  3  1  0
 22 10  1  0
 21 17  1  0
  4 25  1  0
  5 26  1  0
 18 27  1  0
 19 28  1  0
 20 29  1  0
 23 30  1  0
 24 31  1  0
M  CHG  1  12  -1
M  END
>  <UniqueID>  (20) 
20

>  <SMILES>  (20) 
N#Cc1ccc(S(=O)(=O)c2n[n-]c(=NC(=O)c3ccco3)s2)cc1

>  <Energy>  (20) 
101.27774616072

>  <Genealogy>  (20) 
N#Cc1ccc(S(=O)(=O)c2n[n-]c(=NC(=O)c3ccco3)s2)cc1 (protonated)
N#Cc1ccc(S(=O)(=O)c2n[n-]c(=NC(=O)c3ccco3)s2)cc1 (3D coordinates assigned)
N#Cc1ccc(S(=O)(=O)c2n[n-]c(=NC(=O)c3ccco3)s2)cc1 (optimized conformer: 101.27774616072 kcal/mol)

>  <smiles>  (20) 
N#Cc1ccc(S(=O)(=O)c2n[nH]c(=NC(=O)c3ccco3)s2)cc1

>  <score_type>  (20) 
oracle

>  <origin>  (20) 
adgpu

>  <m_score__min__energy>  (20) 
-10.68

>  <m_primary>  (20) 
energy

$$$$
20:0
     RDKit          3D

 36 38  0  0  0  0  0  0  0  0999 V2000
   -8.4630   22.0140  -30.1960 O   0  0  0  0  0  0  0  0  0  0  0  0
   -7.8560   22.5250  -31.4720 S   0  0  0  0  0  0  0  0  0  0  0  0
   -8.5620   23.7890  -31.8810 O   0  0  0  0  0  0  0  0  0  0  0  0
   -8.0620   21.3350  -32.7160 N   0  0  0  0  0  0  0  0  0  0  0  0
   -7.4210   20.0500  -32.7530 C   0  0  0  0  0  0  0  0  0  0  0  0
   -6.3770   19.7740  -33.6530 C   0  0  0  0  0  0  0  0  0  0  0  0
   -5.7570   18.5170  -33.6680 C   0  0  0  0  0  0  0  0  0  0  0  0
   -6.1630   17.5280  -32.7520 C   0  0  0  0  0  0  0  0  0  0  0  0
   -7.2200   17.7950  -31.8720 C   0  0  0  0  0  0  0  0  0  0  0  0
   -7.8450   19.0460  -31.8630 C   0  0  0  0  0  0  0  0  0  0  0  0
   -8.8840   19.2690  -30.9600 O   0  0  0  0  0  0  0  0  0  0  0  0
   -5.5470   16.1490  -32.7790 C   0  0  0  0  0  0  0  0  0  0  0  0
   -4.2200   16.1420  -33.4110 N   0  0  0  0  0  0  0  0  0  0  0  0
   -4.2710   16.7830  -34.7310 C   0  0  0  0  0  0  0  0  0  0  0  0
   -4.5990   18.2760  -34.6030 C   0  0  0  0  0  0  0  0  0  0  0  0
   -6.1420   22.8310  -31.2050 C   0  0  0  0  0  0  0  0  0  0  0  0
   -5.2280   21.7690  -31.2470 C   0  0  0  0  0  0  0  0  0  0  0  0
   -3.8640   22.0090  -31.0520 C   0  0  0  0  0  0  0  0  0  0  0  0
   -3.4090   23.3080  -30.8100 C   0  0  0  0  0  0  0  0  0  0  0  0
   -4.3180   24.3700  -30.7620 C   0  0  0  0  0  0  0  0  0  0  0  0
   -3.8650   25.6610  -30.5190 O   0  0  0  0  0  0  0  0  0  0  0  0
   -5.6830   24.1320  -30.9560 C   0  0  0  0  0  0  0  0  0  0  0  0
   -6.0428   20.5535  -34.3535 H   0  0  0  0  0  0  0  0  0  0  0  0
   -7.5623   17.0114  -31.1800 H   0  0  0  0  0  0  0  0  0  0  0  0
   -9.2840   20.1860  -30.8050 H   0  0  0  0  0  0  0  0  0  0  0  0
   -5.4483   15.7856  -31.7455 H   0  0  0  0  0  0  0  0  0  0  0  0
   -6.2056   15.4983  -33.3730 H   0  0  0  0  0  0  0  0  0  0  0  0
   -3.5500   16.6670  -32.8000 H   0  0  0  0  0  0  0  0  0  0  0  0
   -3.2942   16.6700  -35.2241 H   0  0  0  0  0  0  0  0  0  0  0  0
   -5.0602   16.2998  -35.3257 H   0  0  0  0  0  0  0  0  0  0  0  0
   -3.7141   18.8031  -34.2169 H   0  0  0  0  0  0  0  0  0  0  0  0
   -4.8796   18.6508  -35.5984 H   0  0  0  0  0  0  0  0  0  0  0  0
   -5.5842   20.7451  -31.4336 H   0  0  0  0  0  0  0  0  0  0  0  0
   -3.1485   21.1743  -31.0892 H   0  0  0  0  0  0  0  0  0  0  0  0
   -2.3359   23.4953  -30.6572 H   0  0  0  0  0  0  0  0  0  0  0  0
   -6.3974   24.9673  -30.9131 H   0  0  0  0  0  0  0  0  0  0  0  0
  1  2  2  0
  2  3  2  0
  2  4  1  0
  4  5  1  0
  5  6  2  0
  6  7  1  0
  7  8  2  0
  8  9  1  0
  9 10  2  0
 10 11  1  0
  8 12  1  0
 12 13  1  0
 13 14  1  0
 14 15  1  0
  2 16  1  0
 16 17  2  0
 17 18  1  0
 18 19  2  0
 19 20  1  0
 20 21  1  0
 20 22  2  0
 10  5  1  0
 22 16  1  0
 15  7  1  0
  6 23  1  0
  9 24  1  0
 11 25  1  0
 12 26  1  0
 12 27  1  0
 13 28  1  0
 14 29  1  0
 14 30  1  0
 15 31  1  0
 15 32  1  0
 17 33  1  0
 18 34  1  0
 19 35  1  0
 22 36  1  0
M  CHG  2   4  -1  21  -1
M  END
>  <UniqueID>  (21) 
21

>  <SMILES>  (21) 
O=S(=O)([N-]c1cc2c(cc1O)CNCC2)c1cccc([O-])c1

>  <Energy>  (21) 
42.97320514527928

>  <Genealogy>  (21) 
O=S(=O)([N-]c1cc2c(cc1O)CNCC2)c1cccc([O-])c1 (protonated)
O=S(=O)([N-]c1cc2c(cc1O)CNCC2)c1cccc([O-])c1 (3D coordinates assigned)
O=S(=O)([N-]c1cc2c(cc1O)CNCC2)c1cccc([O-])c1 (nonaromatic ring conformer: 42.97320514527928 kcal/mol)

>  <smiles>  (21) 
O=S(=O)(Nc1cc2c(cc1O)CNCC2)c1cccc(O)c1

>  <score_type>  (21) 
oracle

>  <origin>  (21) 
adgpu

>  <m_score__min__energy>  (21) 
-10.82

>  <m_primary>  (21) 
energy

$$$$
21:0
     RDKit          3D

 67 72  0  0  0  0  0  0  0  0999 V2000
   -6.0820   24.5640  -29.3080 O   0  0  0  0  0  0  0  0  0  0  0  0
   -5.2750   24.6080  -30.5760 S   0  0  0  0  0  0  0  0  0  0  0  0
   -5.9180   25.5850  -31.5190 O   0  0  0  0  0  0  0  0  0  0  0  0
   -3.6680   25.1300  -30.2080 N   0  0  0  0  0  0  0  0  0  0  0  0
   -2.8070   24.3230  -29.4070 C   0  0  0  0  0  0  0  0  0  0  0  0
   -3.1980   23.0250  -29.0660 C   0  0  0  0  0  0  0  0  0  0  0  0
   -2.3870   22.2350  -28.2390 C   0  0  0  0  0  0  0  0  0  0  0  0
   -1.1600   22.7450  -27.7700 C   0  0  0  0  0  0  0  0  0  0  0  0
   -0.7700   24.0440  -28.1270 C   0  0  0  0  0  0  0  0  0  0  0  0
   -1.5820   24.8300  -28.9540 C   0  0  0  0  0  0  0  0  0  0  0  0
   -1.1770   26.1120  -29.3240 O   0  0  0  0  0  0  0  0  0  0  0  0
   -0.3090   21.9560  -26.7980 C   0  0  0  0  0  0  0  0  0  0  0  0
   -0.6280   20.5240  -26.7870 N   0  0  0  0  0  0  0  0  0  0  0  0
   -2.0770   20.2980  -26.6850 C   0  0  0  0  0  0  0  0  0  0  0  0
   -2.7950   20.8190  -27.9290 C   0  0  0  0  0  0  0  0  0  0  0  0
   -5.2400   23.0040  -31.3000 C   0  0  0  0  0  0  0  0  0  0  0  0
   -4.0490   22.5060  -31.8510 C   0  0  0  0  0  0  0  0  0  0  0  0
   -4.0050   21.2130  -32.3830 C   0  0  0  0  0  0  0  0  0  0  0  0
   -5.1550   20.4110  -32.3720 C   0  0  0  0  0  0  0  0  0  0  0  0
   -6.3480   20.9030  -31.8260 C   0  0  0  0  0  0  0  0  0  0  0  0
   -6.3840   22.1950  -31.2750 C   0  0  0  0  0  0  0  0  0  0  0  0
   -7.5380   19.9870  -31.7100 C   0  0  0  0  0  0  0  0  0  0  0  0
   -7.6080   18.9030  -32.8210 C   0  0  0  0  0  0  0  0  0  0  0  0
   -6.3980   18.8060  -33.6820 N   0  0  0  0  0  0  0  0  0  0  0  0
   -6.3470   17.5020  -34.3820 C   0  0  0  0  0  0  0  0  0  0  0  0
   -4.9710   16.9120  -34.3090 C   0  0  0  0  0  0  0  0  0  0  0  0
   -3.8340   17.3950  -34.9160 C   0  0  0  0  0  0  0  0  0  0  0  0
   -2.8380   16.5790  -34.5350 N   0  0  0  0  0  0  0  0  0  0  0  0
   -1.4230   16.7100  -34.8650 C   0  0  0  0  0  0  0  0  0  0  0  0
   -0.9360   18.0810  -34.4840 C   0  0  0  0  0  0  0  0  0  0  0  0
   -0.1500   18.8290  -35.3780 C   0  0  0  0  0  0  0  0  0  0  0  0
    0.2650   20.1220  -35.0380 C   0  0  0  0  0  0  0  0  0  0  0  0
   -0.1130   20.6800  -33.8130 C   0  0  0  0  0  0  0  0  0  0  0  0
   -0.9050   19.9450  -32.9240 C   0  0  0  0  0  0  0  0  0  0  0  0
   -1.3220   18.6530  -33.2610 C   0  0  0  0  0  0  0  0  0  0  0  0
   -3.3340   15.6600  -33.7200 N   0  0  0  0  0  0  0  0  0  0  0  0
   -4.6370   15.8400  -33.5630 N   0  0  0  0  0  0  0  0  0  0  0  0
   -5.1530   19.0170  -32.9170 C   0  0  0  0  0  0  0  0  0  0  0  0
   -4.1470   22.6212  -29.4485 H   0  0  0  0  0  0  0  0  0  0  0  0
    0.1823   24.4491  -27.7540 H   0  0  0  0  0  0  0  0  0  0  0  0
   -1.2370   26.4340  -30.2820 H   0  0  0  0  0  0  0  0  0  0  0  0
    0.7476   22.0774  -27.0788 H   0  0  0  0  0  0  0  0  0  0  0  0
   -0.5139   22.3461  -25.7901 H   0  0  0  0  0  0  0  0  0  0  0  0
   -0.2640   20.0920  -27.6720 H   0  0  0  0  0  0  0  0  0  0  0  0
   -2.2677   19.2194  -26.5834 H   0  0  0  0  0  0  0  0  0  0  0  0
   -2.4576   20.8380  -25.8055 H   0  0  0  0  0  0  0  0  0  0  0  0
   -2.5415   20.1767  -28.7853 H   0  0  0  0  0  0  0  0  0  0  0  0
   -3.8784   20.8018  -27.7393 H   0  0  0  0  0  0  0  0  0  0  0  0
   -3.1467   23.1350  -31.8645 H   0  0  0  0  0  0  0  0  0  0  0  0
   -3.0682   20.8255  -32.8099 H   0  0  0  0  0  0  0  0  0  0  0  0
   -7.3129   22.5726  -30.8227 H   0  0  0  0  0  0  0  0  0  0  0  0
   -7.4918   19.4808  -30.7345 H   0  0  0  0  0  0  0  0  0  0  0  0
   -8.4355   20.6138  -31.8181 H   0  0  0  0  0  0  0  0  0  0  0  0
   -7.7613   17.9273  -32.3367 H   0  0  0  0  0  0  0  0  0  0  0  0
   -8.4349   19.1958  -33.4846 H   0  0  0  0  0  0  0  0  0  0  0  0
   -7.0611   16.8112  -33.9100 H   0  0  0  0  0  0  0  0  0  0  0  0
   -6.6077   17.6589  -35.4391 H   0  0  0  0  0  0  0  0  0  0  0  0
   -3.7570   18.2703  -35.5778 H   0  0  0  0  0  0  0  0  0  0  0  0
   -0.8477   15.9518  -34.3136 H   0  0  0  0  0  0  0  0  0  0  0  0
   -1.2872   16.5639  -35.9468 H   0  0  0  0  0  0  0  0  0  0  0  0
    0.1397   18.3971  -36.3473 H   0  0  0  0  0  0  0  0  0  0  0  0
    0.8893   20.6997  -35.7355 H   0  0  0  0  0  0  0  0  0  0  0  0
    0.2123   21.6969  -33.5481 H   0  0  0  0  0  0  0  0  0  0  0  0
   -1.2000   20.3835  -31.9593 H   0  0  0  0  0  0  0  0  0  0  0  0
   -1.9549   18.0827  -32.5651 H   0  0  0  0  0  0  0  0  0  0  0  0
   -5.1011   18.2956  -32.0882 H   0  0  0  0  0  0  0  0  0  0  0  0
   -4.2814   18.8720  -33.5722 H   0  0  0  0  0  0  0  0  0  0  0  0
  1  2  2  0
  2  3  2  0
  2  4  1  0
  4  5  1  0
  5  6  2  0
  6  7  1  0
  7  8  2  0
  8  9  1  0
  9 10  2  0
 10 11  1  0
  8 12  1  0
 12 13  1  0
 13 14  1  0
 14 15  1  0
  2 16  1  0
 16 17  2  0
 17 18  1  0
 18 19  2  0
 19 20  1  0
 20 21  2  0
 20 22  1  0
 22 23  1  0
 23 24  1  0
 24 25  1  0
 25 26  1  0
 26 27  2  0
 27 28  1  0
 28 29  1  0
 29 30  1  0
 30 31  2  0
 31 32  1  0
 32 33  2  0
 33 34  1  0
 34 35  2  0
 28 36  1  0
 36 37  2  0
 24 38  1  0
 10  5  1  0
 21 16  1  0
 37 26  1  0
 15  7  1  0
 38 19  1  0
 35 30  1  0
  6 39  1  0
  9 40  1  0
 11 41  1  0
 12 42  1  0
 12 43  1  0
 13 44  1  0
 14 45  1  0
 14 46  1  0
 15 47  1  0
 15 48  1  0
 17 49  1  0
 18 50  1  0
 21 51  1  0
 22 52  1  0
 22 53  1  0
 23 54  1  0
 23 55  1  0
 25 56  1  0
 25 57  1  0
 27 58  1  0
 29 59  1  0
 29 60  1  0
 31 61  1  0
 32 62  1  0
 33 63  1  0
 34 64  1  0
 35 65  1  0
 38 66  1  0
 38 67  1  0
M  CHG  1   4  -1
M  END
>  <UniqueID>  (22) 
22

>  <SMILES>  (22) 
O=S(=O)([N-]c1cc2c(cc1O)CNCC2)c1ccc2c(c1)CCN(Cc1cn(Cc3ccccc3)nn1)C2

>  <Energy>  (22) 
126.06551877526638

>  <Genealogy>  (22) 
O=S(=O)([N-]c1cc2c(cc1O)CNCC2)c1ccc2c(c1)CCN(Cc1cn(Cc3ccccc3)nn1)C2 (protonated)
O=S(=O)([N-]c1cc2c(cc1O)CNCC2)c1ccc2c(c1)CCN(Cc1cn(Cc3ccccc3)nn1)C2 (3D coordinates assigned)
O=S(=O)([N-]c1cc2c(cc1O)CNCC2)c1ccc2c(c1)CCN(Cc1cn(Cc3ccccc3)nn1)C2 (nonaromatic ring conformer: 126.06551877526638 kcal/mol)

>  <smiles>  (22) 
O=S(=O)(Nc1cc2c(cc1O)CNCC2)c1ccc2c(c1)CCN(Cc1cn(Cc3ccccc3)nn1)C2

>  <score_type>  (22) 
oracle

>  <origin>  (22) 
adgpu

>  <m_score__min__energy>  (22) 
-13.92

>  <m_primary>  (22) 
energy

$$$$
22:0
     RDKit          3D

 60 63  0  0  0  0  0  0  0  0999 V2000
    0.4230   21.5440  -34.8510 C   0  0  0  0  0  0  0  0  0  0  0  0
   -0.5170   20.6590  -34.1010 C   0  0  0  0  0  0  0  0  0  0  0  0
   -0.1650   19.5790  -33.3110 C   0  0  0  0  0  0  0  0  0  0  0  0
   -1.3700   19.0780  -32.8630 C   0  0  0  0  0  0  0  0  0  0  0  0
   -2.3650   19.8320  -33.3720 N   0  0  0  0  0  0  0  0  0  0  0  0
   -3.7700   19.6430  -33.1410 C   0  0  0  0  0  0  0  0  0  0  0  0
   -4.3170   19.8150  -31.8590 C   0  0  0  0  0  0  0  0  0  0  0  0
   -5.6840   19.6140  -31.6620 C   0  0  0  0  0  0  0  0  0  0  0  0
   -6.5020   19.2410  -32.7340 C   0  0  0  0  0  0  0  0  0  0  0  0
   -7.9820   19.0230  -32.5270 C   0  0  0  0  0  0  0  0  0  0  0  0
   -8.7950   20.0560  -33.1920 N   0  0  0  0  0  0  0  0  0  0  0  0
   -9.3130   21.0620  -32.2510 C   0  0  0  0  0  0  0  0  0  0  0  0
   -8.1860   21.8660  -31.6600 C   0  0  0  0  0  0  0  0  0  0  0  0
   -7.2590   22.4970  -32.5030 C   0  0  0  0  0  0  0  0  0  0  0  0
   -6.2030   23.2370  -31.9620 C   0  0  0  0  0  0  0  0  0  0  0  0
   -6.0630   23.3560  -30.5740 C   0  0  0  0  0  0  0  0  0  0  0  0
   -4.7210   24.2860  -29.9180 S   0  0  0  0  0  0  0  0  0  0  0  0
   -5.0940   24.8690  -28.5820 O   0  0  0  0  0  0  0  0  0  0  0  0
   -4.4050   25.4090  -30.8680 O   0  0  0  0  0  0  0  0  0  0  0  0
   -3.3320   23.2450  -29.7430 N   0  0  0  0  0  0  0  0  0  0  0  0
   -2.9650   22.6710  -31.0460 C   0  0  0  0  0  0  0  0  0  0  0  0
   -1.5960   21.9750  -30.9530 C   0  0  0  0  0  0  0  0  0  0  0  0
   -1.3080   21.3900  -29.5470 C   0  0  0  0  0  0  0  0  0  0  0  0
   -0.4600   22.3480  -28.6930 C   0  0  0  0  0  0  0  0  0  0  0  0
   -2.6160   21.0110  -28.8300 C   0  0  0  0  0  0  0  0  0  0  0  0
   -3.6180   22.1860  -28.7530 C   0  0  0  0  0  0  0  0  0  0  0  0
   -6.9840   22.7230  -29.7280 C   0  0  0  0  0  0  0  0  0  0  0  0
   -8.0400   21.9820  -30.2680 C   0  0  0  0  0  0  0  0  0  0  0  0
   -5.9220   19.0850  -34.0010 C   0  0  0  0  0  0  0  0  0  0  0  0
   -4.5870   19.2860  -34.1710 N   0  0  0  0  0  0  0  0  0  0  0  0
   -1.8550   20.7940  -34.1270 N   0  0  0  0  0  0  0  0  0  0  0  0
    1.0331   22.1184  -34.1384 H   0  0  0  0  0  0  0  0  0  0  0  0
    1.0799   20.9289  -35.4836 H   0  0  0  0  0  0  0  0  0  0  0  0
   -0.1515   22.2367  -35.4836 H   0  0  0  0  0  0  0  0  0  0  0  0
    0.8456   19.2049  -33.0903 H   0  0  0  0  0  0  0  0  0  0  0  0
   -1.4975   18.2087  -32.2012 H   0  0  0  0  0  0  0  0  0  0  0  0
   -3.6727   20.1060  -31.0163 H   0  0  0  0  0  0  0  0  0  0  0  0
   -6.1195   19.7492  -30.6610 H   0  0  0  0  0  0  0  0  0  0  0  0
   -8.2557   18.0392  -32.9358 H   0  0  0  0  0  0  0  0  0  0  0  0
   -8.1836   19.0779  -31.4470 H   0  0  0  0  0  0  0  0  0  0  0  0
   -9.6050   19.6050  -33.6800 H   0  0  0  0  0  0  0  0  0  0  0  0
   -9.9975   21.7375  -32.7849 H   0  0  0  0  0  0  0  0  0  0  0  0
   -9.8443   20.5459  -31.4378 H   0  0  0  0  0  0  0  0  0  0  0  0
   -7.3633   22.4093  -33.5945 H   0  0  0  0  0  0  0  0  0  0  0  0
   -5.4794   23.7276  -32.6296 H   0  0  0  0  0  0  0  0  0  0  0  0
   -3.7264   21.9364  -31.3470 H   0  0  0  0  0  0  0  0  0  0  0  0
   -2.9074   23.4785  -31.7907 H   0  0  0  0  0  0  0  0  0  0  0  0
   -1.5691   21.1552  -31.6859 H   0  0  0  0  0  0  0  0  0  0  0  0
   -0.8266   22.7341  -31.1573 H   0  0  0  0  0  0  0  0  0  0  0  0
   -0.7181   20.4719  -29.6857 H   0  0  0  0  0  0  0  0  0  0  0  0
   -0.6395   22.1452  -27.6269 H   0  0  0  0  0  0  0  0  0  0  0  0
    0.6055   22.1966  -28.9207 H   0  0  0  0  0  0  0  0  0  0  0  0
   -0.7396   23.3872  -28.9207 H   0  0  0  0  0  0  0  0  0  0  0  0
   -3.0885   20.1811  -29.3759 H   0  0  0  0  0  0  0  0  0  0  0  0
   -2.3587   20.7265  -27.7991 H   0  0  0  0  0  0  0  0  0  0  0  0
   -4.6307   21.7975  -28.9359 H   0  0  0  0  0  0  0  0  0  0  0  0
   -3.5287   22.6338  -27.7522 H   0  0  0  0  0  0  0  0  0  0  0  0
   -6.8759   22.8093  -28.6367 H   0  0  0  0  0  0  0  0  0  0  0  0
   -8.7598   21.4876  -29.5991 H   0  0  0  0  0  0  0  0  0  0  0  0
   -6.5476   18.7995  -34.8595 H   0  0  0  0  0  0  0  0  0  0  0  0
  1  2  1  0
  2  3  1  0
  3  4  2  0
  4  5  1  0
  5  6  1  0
  6  7  2  0
  7  8  1  0
  8  9  2  0
  9 10  1  0
 10 11  1  0
 11 12  1  0
 12 13  1  0
 13 14  2  0
 14 15  1  0
 15 16  2  0
 16 17  1  0
 17 18  2  0
 17 19  2  0
 17 20  1  0
 20 21  1  0
 21 22  1  0
 22 23  1  0
 23 24  1  0
 23 25  1  0
 25 26  1  0
 16 27  1  0
 27 28  2  0
  9 29  1  0
 29 30  2  0
  5 31  1  0
 31  2  2  0
 30  6  1  0
 28 13  1  0
 26 20  1  0
  1 32  1  0
  1 33  1  0
  1 34  1  0
  3 35  1  0
  4 36  1  0
  7 37  1  0
  8 38  1  0
 10 39  1  0
 10 40  1  0
 11 41  1  0
 12 42  1  0
 12 43  1  0
 14 44  1  0
 15 45  1  0
 21 46  1  0
 21 47  1  0
 22 48  1  0
 22 49  1  0
 23 50  1  0
 24 51  1  0
 24 52  1  0
 24 53  1  0
 25 54  1  0
 25 55  1  0
 26 56  1  0
 26 57  1  0
 27 58  1  0
 28 59  1  0
 29 60  1  0
M  END
>  <UniqueID>  (23) 
23

>  <SMILES>  (23) 
Cc1ccn(-c2ccc(CNCc3ccc(S(=O)(=O)N4CCC(C)CC4)cc3)cn2)n1

>  <Energy>  (23) 
94.50491265282453

>  <Genealogy>  (23) 
Cc1ccn(-c2ccc(CNCc3ccc(S(=O)(=O)N4CCC(C)CC4)cc3)cn2)n1 (3D coordinates assigned)
Cc1ccn(-c2ccc(CNCc3ccc(S(=O)(=O)N4CCC(C)CC4)cc3)cn2)n1 (nonaromatic ring conformer: 94.50491265282453 kcal/mol)

>  <smiles>  (23) 
Cc1ccn(-c2ccc(CNCc3ccc(S(=O)(=O)N4CCC(C)CC4)cc3)cn2)n1

>  <score_type>  (23) 
oracle

>  <origin>  (23) 
adgpu

>  <m_score__min__energy>  (23) 
-11.039999999999999

>  <m_primary>  (23) 
energy

$$$$
23:0
     RDKit          3D

 47 50  0  0  0  0  0  0  0  0999 V2000
   -5.8330   15.8800  -33.5070 C   0  0  0  0  0  0  0  0  0  0  0  0
   -6.7090   16.8800  -34.0170 O   0  0  0  0  0  0  0  0  0  0  0  0
   -6.8740   18.1560  -33.4540 C   0  0  0  0  0  0  0  0  0  0  0  0
   -8.0140   18.4990  -32.7040 C   0  0  0  0  0  0  0  0  0  0  0  0
   -8.1490   19.7810  -32.1650 C   0  0  0  0  0  0  0  0  0  0  0  0
   -9.2480   20.0890  -31.4260 N   0  0  0  0  0  0  0  0  0  0  0  0
   -9.4180   21.3170  -30.8720 C   0  0  0  0  0  0  0  0  0  0  0  0
   -8.4570   22.3110  -31.0610 C   0  0  0  0  0  0  0  0  0  0  0  0
   -7.3250   22.0450  -31.8370 C   0  0  0  0  0  0  0  0  0  0  0  0
   -6.3990   23.0770  -32.0380 O   0  0  0  0  0  0  0  0  0  0  0  0
   -5.1140   23.1140  -31.4740 C   0  0  0  0  0  0  0  0  0  0  0  0
   -4.9060   23.9020  -30.3390 C   0  0  0  0  0  0  0  0  0  0  0  0
   -3.6460   23.9620  -29.7400 C   0  0  0  0  0  0  0  0  0  0  0  0
   -2.5650   23.2560  -30.2790 C   0  0  0  0  0  0  0  0  0  0  0  0
   -1.3230   23.3760  -29.6390 O   0  0  0  0  0  0  0  0  0  0  0  0
   -1.1120   23.9030  -28.3560 C   0  0  0  0  0  0  0  0  0  0  0  0
   -1.0750   25.2990  -28.2170 C   0  0  0  0  0  0  0  0  0  0  0  0
   -1.2380   26.1070  -29.3390 O   0  0  0  0  0  0  0  0  0  0  0  0
   -0.8900   25.8800  -26.9580 C   0  0  0  0  0  0  0  0  0  0  0  0
   -0.8620   27.7830  -26.7560 Br  0  0  0  0  0  0  0  0  0  0  0  0
   -0.7310   25.0690  -25.8340 C   0  0  0  0  0  0  0  0  0  0  0  0
   -0.7330   23.6770  -25.9580 C   0  0  0  0  0  0  0  0  0  0  0  0
   -0.4730   22.6320  -24.3710 Br  0  0  0  0  0  0  0  0  0  0  0  0
   -0.9100   23.0810  -27.2210 C   0  0  0  0  0  0  0  0  0  0  0  0
   -0.7730   21.1690  -27.3930 Br  0  0  0  0  0  0  0  0  0  0  0  0
   -2.7710   22.4400  -31.4170 C   0  0  0  0  0  0  0  0  0  0  0  0
   -1.4130   21.2950  -32.1400 Br  0  0  0  0  0  0  0  0  0  0  0  0
   -4.0360   22.3890  -32.0140 C   0  0  0  0  0  0  0  0  0  0  0  0
   -7.1430   20.7510  -32.3780 C   0  0  0  0  0  0  0  0  0  0  0  0
   -5.9920   20.3950  -33.1000 C   0  0  0  0  0  0  0  0  0  0  0  0
   -5.8600   19.1050  -33.6510 C   0  0  0  0  0  0  0  0  0  0  0  0
   -4.7330   18.7300  -34.4010 O   0  0  0  0  0  0  0  0  0  0  0  0
   -3.4360   18.5060  -33.8560 C   0  0  0  0  0  0  0  0  0  0  0  0
   -5.8522   15.9019  -32.4074 H   0  0  0  0  0  0  0  0  0  0  0  0
   -6.1606   14.8910  -33.8598 H   0  0  0  0  0  0  0  0  0  0  0  0
   -4.8095   16.0746  -33.8598 H   0  0  0  0  0  0  0  0  0  0  0  0
   -8.8050   17.7522  -32.5408 H   0  0  0  0  0  0  0  0  0  0  0  0
  -10.3157   21.5288  -30.2726 H   0  0  0  0  0  0  0  0  0  0  0  0
   -8.5898   23.3012  -30.6006 H   0  0  0  0  0  0  0  0  0  0  0  0
   -5.7406   24.4791  -29.9144 H   0  0  0  0  0  0  0  0  0  0  0  0
   -3.5019   24.5706  -28.8351 H   0  0  0  0  0  0  0  0  0  0  0  0
   -0.6031   25.5286  -24.8428 H   0  0  0  0  0  0  0  0  0  0  0  0
   -4.1888   21.7759  -32.9144 H   0  0  0  0  0  0  0  0  0  0  0  0
   -5.1857   21.1306  -33.2366 H   0  0  0  0  0  0  0  0  0  0  0  0
   -3.4931   18.5159  -32.7575 H   0  0  0  0  0  0  0  0  0  0  0  0
   -3.0595   17.5295  -34.1948 H   0  0  0  0  0  0  0  0  0  0  0  0
   -2.7538   19.2996  -34.1948 H   0  0  0  0  0  0  0  0  0  0  0  0
  1  2  1  0
  2  3  1  0
  3  4  2  0
  4  5  1  0
  5  6  2  0
  6  7  1  0
  7  8  2  0
  8  9  1  0
  9 10  1  0
 10 11  1  0
 11 12  2  0
 12 13  1  0
 13 14  2  0
 14 15  1  0
 15 16  1  0
 16 17  2  0
 17 18  1  0
 17 19  1  0
 19 20  1  0
 19 21  2  0
 21 22  1  0
 22 23  1  0
 22 24  2  0
 24 25  1  0
 14 26  1  0
 26 27  1  0
 26 28  2  0
  9 29  2  0
 29 30  1  0
 30 31  2  0
 31 32  1  0
 32 33  1  0
 31  3  1  0
 29  5  1  0
 28 11  1  0
 24 16  1  0
  1 34  1  0
  1 35  1  0
  1 36  1  0
  4 37  1  0
  7 38  1  0
  8 39  1  0
 12 40  1  0
 13 41  1  0
 21 42  1  0
 28 43  1  0
 30 44  1  0
 33 45  1  0
 33 46  1  0
 33 47  1  0
M  CHG  1  18  -1
M  END
>  <UniqueID>  (24) 
24

>  <SMILES>  (24) 
COc1cc2nccc(Oc3ccc(Oc4c([O-])c(Br)cc(Br)c4Br)c(Br)c3)c2cc1OC

>  <Energy>  (24) 
77.05304880198969

>  <Genealogy>  (24) 
COc1cc2nccc(Oc3ccc(Oc4c([O-])c(Br)cc(Br)c4Br)c(Br)c3)c2cc1OC (protonated)
COc1cc2nccc(Oc3ccc(Oc4c([O-])c(Br)cc(Br)c4Br)c(Br)c3)c2cc1OC (3D coordinates assigned)
COc1cc2nccc(Oc3ccc(Oc4c([O-])c(Br)cc(Br)c4Br)c(Br)c3)c2cc1OC (optimized conformer: 77.05304880198969 kcal/mol)

>  <smiles>  (24) 
COc1cc2nccc(Oc3ccc(Oc4c(O)c(Br)cc(Br)c4Br)c(Br)c3)c2cc1OC

>  <score_type>  (24) 
oracle

>  <origin>  (24) 
adgpu

>  <m_score__min__energy>  (24) 
-13.15

>  <m_primary>  (24) 
energy

$$$$
24:0
     RDKit          3D

 50 53  0  0  0  0  0  0  0  0999 V2000
   -0.1050   19.6780  -32.9340 O   0  0  0  0  0  0  0  0  0  0  0  0
   -1.1220   20.7450  -33.2220 S   0  0  0  0  0  0  0  0  0  0  0  0
   -0.4290   21.9190  -33.8580 O   0  0  0  0  0  0  0  0  0  0  0  0
   -2.3100   20.1190  -34.3210 N   0  0  0  0  0  0  0  0  0  0  0  0
   -3.1020   18.9450  -34.0940 C   0  0  0  0  0  0  0  0  0  0  0  0
   -2.6740   17.6630  -34.4880 C   0  0  0  0  0  0  0  0  0  0  0  0
   -3.4870   16.5490  -34.2580 C   0  0  0  0  0  0  0  0  0  0  0  0
   -4.7300   16.7030  -33.6410 C   0  0  0  0  0  0  0  0  0  0  0  0
   -5.1660   17.9730  -33.2450 C   0  0  0  0  0  0  0  0  0  0  0  0
   -6.7310   18.1780  -32.4570 S   0  0  0  0  0  0  0  0  0  0  0  0
   -7.6310   17.0490  -32.8740 O   0  0  0  0  0  0  0  0  0  0  0  0
   -6.5590   18.1230  -30.9640 O   0  0  0  0  0  0  0  0  0  0  0  0
   -7.4420   19.7060  -32.9230 N   0  0  0  0  0  0  0  0  0  0  0  0
   -8.8720   19.7720  -32.5080 C   0  0  0  0  0  0  0  0  0  0  0  0
   -9.0810   20.5790  -31.2170 C   0  0  0  0  0  0  0  0  0  0  0  0
   -8.5880   22.0260  -31.3850 C   0  0  0  0  0  0  0  0  0  0  0  0
   -7.3950   22.1380  -32.3530 C   0  0  0  0  0  0  0  0  0  0  0  0
   -6.6070   20.8230  -32.4150 C   0  0  0  0  0  0  0  0  0  0  0  0
   -4.3450   19.0880  -33.4640 C   0  0  0  0  0  0  0  0  0  0  0  0
   -1.9000   21.2120  -31.7110 C   0  0  0  0  0  0  0  0  0  0  0  0
   -1.6080   20.5060  -30.5390 C   0  0  0  0  0  0  0  0  0  0  0  0
   -2.2400   20.8440  -29.3410 C   0  0  0  0  0  0  0  0  0  0  0  0
   -3.1680   21.8880  -29.3070 C   0  0  0  0  0  0  0  0  0  0  0  0
   -3.4700   22.6130  -30.4740 C   0  0  0  0  0  0  0  0  0  0  0  0
   -4.4360   23.6810  -30.4270 N   0  0  0  0  0  0  0  0  0  0  0  0
   -5.7030   23.6550  -29.9720 C   0  0  0  0  0  0  0  0  0  0  0  0
   -6.2620   24.8690  -30.1180 N   0  0  0  0  0  0  0  0  0  0  0  0
   -5.3220   25.6260  -30.6660 N   0  0  0  0  0  0  0  0  0  0  0  0
   -4.2230   24.9130  -30.8550 N   0  0  0  0  0  0  0  0  0  0  0  0
   -2.8250   22.2650  -31.6770 C   0  0  0  0  0  0  0  0  0  0  0  0
   -1.6973   17.5374  -34.9781 H   0  0  0  0  0  0  0  0  0  0  0  0
   -3.1465   15.5488  -34.5639 H   0  0  0  0  0  0  0  0  0  0  0  0
   -5.3682   15.8244  -33.4657 H   0  0  0  0  0  0  0  0  0  0  0  0
   -7.4130   19.7350  -33.9700 H   0  0  0  0  0  0  0  0  0  0  0  0
   -9.4508   20.2445  -33.3153 H   0  0  0  0  0  0  0  0  0  0  0  0
   -9.2081   18.7429  -32.3132 H   0  0  0  0  0  0  0  0  0  0  0  0
  -10.1528   20.5907  -30.9697 H   0  0  0  0  0  0  0  0  0  0  0  0
   -8.5041   20.1040  -30.4098 H   0  0  0  0  0  0  0  0  0  0  0  0
   -9.4158   22.6370  -31.7742 H   0  0  0  0  0  0  0  0  0  0  0  0
   -8.2508   22.3791  -30.3993 H   0  0  0  0  0  0  0  0  0  0  0  0
   -7.7700   22.3796  -33.3585 H   0  0  0  0  0  0  0  0  0  0  0  0
   -6.7239   22.9300  -31.9893 H   0  0  0  0  0  0  0  0  0  0  0  0
   -5.7440   20.9558  -33.0840 H   0  0  0  0  0  0  0  0  0  0  0  0
   -6.2803   20.5707  -31.3954 H   0  0  0  0  0  0  0  0  0  0  0  0
   -4.6798   20.0839  -33.1383 H   0  0  0  0  0  0  0  0  0  0  0  0
   -0.8788   19.6827  -30.5615 H   0  0  0  0  0  0  0  0  0  0  0  0
   -2.0068   20.2870  -28.4215 H   0  0  0  0  0  0  0  0  0  0  0  0
   -3.6662   22.1449  -28.3605 H   0  0  0  0  0  0  0  0  0  0  0  0
   -6.2047   22.7739  -29.5454 H   0  0  0  0  0  0  0  0  0  0  0  0
   -3.0490   22.8241  -32.5974 H   0  0  0  0  0  0  0  0  0  0  0  0
  1  2  2  0
  2  3  2  0
  2  4  1  0
  4  5  1  0
  5  6  2  0
  6  7  1  0
  7  8  2  0
  8  9  1  0
  9 10  1  0
 10 11  2  0
 10 12  2  0
 10 13  1  0
 13 14  1  0
 14 15  1  0
 15 16  1  0
 16 17  1  0
 17 18  1  0
  9 19  2  0
  2 20  1  0
 20 21  2  0
 21 22  1  0
 22 23  2  0
 23 24  1  0
 24 25  1  0
 25 26  1  0
 26 27  2  0
 27 28  1  0
 28 29  2  0
 24 30  2  0
 19  5  1  0
 30 20  1  0
 18 13  1  0
 29 25  1  0
  6 31  1  0
  7 32  1  0
  8 33  1  0
 13 34  1  0
 14 35  1  0
 14 36  1  0
 15 37  1  0
 15 38  1  0
 16 39  1  0
 16 40  1  0
 17 41  1  0
 17 42  1  0
 18 43  1  0
 18 44  1  0
 19 45  1  0
 21 46  1  0
 22 47  1  0
 23 48  1  0
 26 49  1  0
 30 50  1  0
M  CHG  2   4  -1  13   1
M  END
>  <UniqueID>  (25) 
25

>  <SMILES>  (25) 
O=S(=O)([N-]c1cccc(S(=O)(=O)[NH+]2CCCCC2)c1)c1cccc(-n2cnnn2)c1

>  <Energy>  (25) 
102.9595296362392

>  <Genealogy>  (25) 
O=S(=O)([N-]c1cccc(S(=O)(=O)[NH+]2CCCCC2)c1)c1cccc(-n2cnnn2)c1 (protonated)
O=S(=O)([N-]c1cccc(S(=O)(=O)[NH+]2CCCCC2)c1)c1cccc(-n2cnnn2)c1 (3D coordinates assigned)
O=S(=O)([N-]c1cccc(S(=O)(=O)[NH+]2CCCCC2)c1)c1cccc(-n2cnnn2)c1 (nonaromatic ring conformer: 102.9595296362392 kcal/mol)

>  <smiles>  (25) 
O=S(=O)(Nc1cccc(S(=O)(=O)N2CCCCC2)c1)c1cccc(-n2cnnn2)c1

>  <score_type>  (25) 
oracle

>  <origin>  (25) 
adgpu

>  <m_score__min__energy>  (25) 
-11.74

>  <m_primary>  (25) 
energy

$$$$
25:0
     RDKit          3D

 52 55  0  0  0  0  0  0  0  0999 V2000
   -9.8900   20.7910  -32.3470 C   0  0  0  0  0  0  0  0  0  0  0  0
   -8.9830   19.5990  -32.2430 C   0  0  0  0  0  0  0  0  0  0  0  0
   -9.4970   18.4520  -32.3170 O   0  0  0  0  0  0  0  0  0  0  0  0
   -7.5540   19.7530  -32.0700 N   0  0  0  0  0  0  0  0  0  0  0  0
   -6.6270   18.8040  -32.6460 C   0  0  0  0  0  0  0  0  0  0  0  0
   -6.8120   17.4110  -32.5250 C   0  0  0  0  0  0  0  0  0  0  0  0
   -5.8870   16.5250  -33.0830 C   0  0  0  0  0  0  0  0  0  0  0  0
   -4.7620   17.0110  -33.7520 C   0  0  0  0  0  0  0  0  0  0  0  0
   -4.5490   18.3870  -33.8540 C   0  0  0  0  0  0  0  0  0  0  0  0
   -5.4610   19.2870  -33.2830 C   0  0  0  0  0  0  0  0  0  0  0  0
   -5.2300   20.7730  -33.4010 C   0  0  0  0  0  0  0  0  0  0  0  0
   -5.8480   21.5200  -32.2460 C   0  0  0  0  0  0  0  0  0  0  0  0
   -5.3130   22.7480  -31.8300 C   0  0  0  0  0  0  0  0  0  0  0  0
   -5.8900   23.4440  -30.7600 C   0  0  0  0  0  0  0  0  0  0  0  0
   -5.2290   24.9920  -30.2360 S   0  0  0  0  0  0  0  0  0  0  0  0
   -5.6550   26.0600  -31.2030 O   0  0  0  0  0  0  0  0  0  0  0  0
   -5.7500   25.3450  -28.8710 O   0  0  0  0  0  0  0  0  0  0  0  0
   -3.4920   24.9090  -30.2010 N   0  0  0  0  0  0  0  0  0  0  0  0
   -3.0270   23.8000  -29.3620 C   0  0  0  0  0  0  0  0  0  0  0  0
   -1.5830   23.4400  -29.7140 C   0  0  0  0  0  0  0  0  0  0  0  0
   -1.5090   22.0980  -30.3840 C   0  0  0  0  0  0  0  0  0  0  0  0
   -1.0590   20.9710  -29.6830 C   0  0  0  0  0  0  0  0  0  0  0  0
   -0.9230   19.7550  -30.3570 C   0  0  0  0  0  0  0  0  0  0  0  0
   -1.2300   19.6740  -31.7160 C   0  0  0  0  0  0  0  0  0  0  0  0
   -1.6860   20.8190  -32.3870 C   0  0  0  0  0  0  0  0  0  0  0  0
   -1.9740   20.7820  -33.8520 C   0  0  0  0  0  0  0  0  0  0  0  0
   -1.7940   21.9950  -31.7110 N   0  0  0  0  0  0  0  0  0  0  0  0
   -7.0110   22.9150  -30.1120 C   0  0  0  0  0  0  0  0  0  0  0  0
   -7.5600   21.7010  -30.5320 C   0  0  0  0  0  0  0  0  0  0  0  0
   -7.0020   21.0100  -31.6200 C   0  0  0  0  0  0  0  0  0  0  0  0
  -10.1550   21.1393  -31.3378 H   0  0  0  0  0  0  0  0  0  0  0  0
   -9.3750   21.5974  -32.8897 H   0  0  0  0  0  0  0  0  0  0  0  0
  -10.8045   20.5097  -32.8897 H   0  0  0  0  0  0  0  0  0  0  0  0
   -7.6891   17.0201  -31.9885 H   0  0  0  0  0  0  0  0  0  0  0  0
   -6.0457   15.4401  -32.9949 H   0  0  0  0  0  0  0  0  0  0  0  0
   -4.0428   16.3090  -34.1992 H   0  0  0  0  0  0  0  0  0  0  0  0
   -3.6630   18.7667  -34.3839 H   0  0  0  0  0  0  0  0  0  0  0  0
   -4.1473   20.9668  -33.4141 H   0  0  0  0  0  0  0  0  0  0  0  0
   -5.7010   21.1235  -34.3313 H   0  0  0  0  0  0  0  0  0  0  0  0
   -4.4364   23.1664  -32.3463 H   0  0  0  0  0  0  0  0  0  0  0  0
   -3.0796   24.0978  -28.3044 H   0  0  0  0  0  0  0  0  0  0  0  0
   -3.6682   22.9237  -29.5381 H   0  0  0  0  0  0  0  0  0  0  0  0
   -1.1777   24.2039  -30.3938 H   0  0  0  0  0  0  0  0  0  0  0  0
   -0.9962   23.3996  -28.7845 H   0  0  0  0  0  0  0  0  0  0  0  0
   -0.8153   21.0432  -28.6128 H   0  0  0  0  0  0  0  0  0  0  0  0
   -0.5743   18.8623  -29.8172 H   0  0  0  0  0  0  0  0  0  0  0  0
   -1.1157   18.7223  -32.2557 H   0  0  0  0  0  0  0  0  0  0  0  0
   -3.0537   20.6433  -34.0100 H   0  0  0  0  0  0  0  0  0  0  0  0
   -1.6547   21.7286  -34.3125 H   0  0  0  0  0  0  0  0  0  0  0  0
   -1.4258   19.9469  -34.3125 H   0  0  0  0  0  0  0  0  0  0  0  0
   -7.4623   23.4572  -29.2680 H   0  0  0  0  0  0  0  0  0  0  0  0
   -8.4331   21.2845  -30.0083 H   0  0  0  0  0  0  0  0  0  0  0  0
  1  2  1  0
  2  3  2  0
  2  4  1  0
  4  5  1  0
  5  6  2  0
  6  7  1  0
  7  8  2  0
  8  9  1  0
  9 10  2  0
 10 11  1  0
 11 12  1  0
 12 13  2  0
 13 14  1  0
 14 15  1  0
 15 16  2  0
 15 17  2  0
 15 18  1  0
 18 19  1  0
 19 20  1  0
 20 21  1  0
 21 22  2  0
 22 23  1  0
 23 24  2  0
 24 25  1  0
 25 26  1  0
 25 27  2  0
 14 28  2  0
 28 29  1  0
 29 30  2  0
 30  4  1  0
 10  5  1  0
 30 12  1  0
 27 21  1  0
  1 31  1  0
  1 32  1  0
  1 33  1  0
  6 34  1  0
  7 35  1  0
  8 36  1  0
  9 37  1  0
 11 38  1  0
 11 39  1  0
 13 40  1  0
 19 41  1  0
 19 42  1  0
 20 43  1  0
 20 44  1  0
 22 45  1  0
 23 46  1  0
 24 47  1  0
 26 48  1  0
 26 49  1  0
 26 50  1  0
 28 51  1  0
 29 52  1  0
M  CHG  1  18  -1
M  END
>  <UniqueID>  (26) 
26

>  <SMILES>  (26) 
CC(=O)N1c2ccccc2Cc2cc(S(=O)(=O)[N-]CCc3cccc(C)n3)ccc21

>  <Energy>  (26) 
66.19330167921166

>  <Genealogy>  (26) 
CC(=O)N1c2ccccc2Cc2cc(S(=O)(=O)[N-]CCc3cccc(C)n3)ccc21 (protonated)
CC(=O)N1c2ccccc2Cc2cc(S(=O)(=O)[N-]CCc3cccc(C)n3)ccc21 (3D coordinates assigned)
CC(=O)N1c2ccccc2Cc2cc(S(=O)(=O)[N-]CCc3cccc(C)n3)ccc21 (nonaromatic ring conformer: 66.19330167921166 kcal/mol)

>  <smiles>  (26) 
CC(=O)N1c2ccccc2Cc2cc(S(=O)(=O)NCCc3cccc(C)n3)ccc21

>  <score_type>  (26) 
oracle

>  <origin>  (26) 
adgpu

>  <m_score__min__energy>  (26) 
-12.07

>  <m_primary>  (26) 
energy

$$$$
26:0
     RDKit          3D

 66 69  0  0  0  0  0  0  0  0999 V2000
   -6.3770   23.5150  -29.9460 C   0  0  0  0  0  0  0  0  0  0  0  0
   -5.1120   23.9130  -29.1880 C   0  0  0  0  0  0  0  0  0  0  0  0
   -4.1200   24.6880  -30.0660 C   0  0  0  0  0  0  0  0  0  0  0  0
   -2.7030   24.5680  -29.5520 C   0  0  0  0  0  0  0  0  0  0  0  0
   -2.1590   25.6600  -28.9550 N   0  0  0  0  0  0  0  0  0  0  0  0
   -0.9460   25.6560  -28.4020 N   0  0  0  0  0  0  0  0  0  0  0  0
   -0.4920   26.8810  -27.7340 C   0  0  0  0  0  0  0  0  0  0  0  0
   -0.5270   26.6940  -26.2420 C   0  0  0  0  0  0  0  0  0  0  0  0
   -0.2700   27.7810  -25.3900 C   0  0  0  0  0  0  0  0  0  0  0  0
   -0.3440   27.6220  -24.0030 C   0  0  0  0  0  0  0  0  0  0  0  0
   -0.6800   26.3790  -23.4580 C   0  0  0  0  0  0  0  0  0  0  0  0
   -0.9450   25.2950  -24.3000 C   0  0  0  0  0  0  0  0  0  0  0  0
   -0.8740   25.4500  -25.6870 C   0  0  0  0  0  0  0  0  0  0  0  0
   -0.1890   24.5170  -28.3970 C   0  0  0  0  0  0  0  0  0  0  0  0
    0.9520   24.5120  -27.8560 O   0  0  0  0  0  0  0  0  0  0  0  0
   -0.6810   23.3480  -28.9950 C   0  0  0  0  0  0  0  0  0  0  0  0
    0.0660   22.2830  -29.0020 N   0  0  0  0  0  0  0  0  0  0  0  0
   -1.9660   23.3640  -29.5830 C   0  0  0  0  0  0  0  0  0  0  0  0
   -2.5350   22.1430  -30.1890 C   0  0  0  0  0  0  0  0  0  0  0  0
   -2.3890   21.0360  -29.6050 O   0  0  0  0  0  0  0  0  0  0  0  0
   -3.2170   22.2240  -31.4500 N   0  0  0  0  0  0  0  0  0  0  0  0
   -3.8550   21.1100  -32.0930 C   0  0  0  0  0  0  0  0  0  0  0  0
   -5.2470   21.0740  -32.2860 C   0  0  0  0  0  0  0  0  0  0  0  0
   -5.8410   19.9860  -32.9340 C   0  0  0  0  0  0  0  0  0  0  0  0
   -5.0530   18.9290  -33.4080 C   0  0  0  0  0  0  0  0  0  0  0  0
   -5.8060   17.5620  -34.2340 S   0  0  0  0  0  0  0  0  0  0  0  0
   -7.2550   17.4810  -33.8410 O   0  0  0  0  0  0  0  0  0  0  0  0
   -5.7390   17.7870  -35.7200 O   0  0  0  0  0  0  0  0  0  0  0  0
   -5.0120   16.0570  -33.8430 N   0  0  0  0  0  0  0  0  0  0  0  0
   -5.1390   15.7730  -32.3990 C   0  0  0  0  0  0  0  0  0  0  0  0
   -4.2220   14.6150  -31.9430 C   0  0  0  0  0  0  0  0  0  0  0  0
   -3.7010   13.8030  -33.1320 C   0  0  0  0  0  0  0  0  0  0  0  0
   -2.9630   14.7040  -34.1370 C   0  0  0  0  0  0  0  0  0  0  0  0
   -3.5970   16.1030  -34.2480 C   0  0  0  0  0  0  0  0  0  0  0  0
   -3.6640   18.9720  -33.2340 C   0  0  0  0  0  0  0  0  0  0  0  0
   -3.0680   20.0590  -32.5890 C   0  0  0  0  0  0  0  0  0  0  0  0
   -7.1716   23.2650  -29.2276 H   0  0  0  0  0  0  0  0  0  0  0  0
   -6.7048   24.3534  -30.5781 H   0  0  0  0  0  0  0  0  0  0  0  0
   -6.1656   22.6399  -30.5781 H   0  0  0  0  0  0  0  0  0  0  0  0
   -5.3966   24.5458  -28.3344 H   0  0  0  0  0  0  0  0  0  0  0  0
   -4.6151   22.9886  -28.8583 H   0  0  0  0  0  0  0  0  0  0  0  0
   -4.1625   24.2879  -31.0898 H   0  0  0  0  0  0  0  0  0  0  0  0
   -4.4026   25.7509  -30.0450 H   0  0  0  0  0  0  0  0  0  0  0  0
    0.5372   27.1081  -28.0490 H   0  0  0  0  0  0  0  0  0  0  0  0
   -1.1576   27.7120  -28.0104 H   0  0  0  0  0  0  0  0  0  0  0  0
   -0.0095   28.7612  -25.8159 H   0  0  0  0  0  0  0  0  0  0  0  0
   -0.1378   28.4752  -23.3401 H   0  0  0  0  0  0  0  0  0  0  0  0
   -0.7358   26.2541  -22.3665 H   0  0  0  0  0  0  0  0  0  0  0  0
   -1.2100   24.3179  -23.8698 H   0  0  0  0  0  0  0  0  0  0  0  0
   -1.0902   24.5963  -26.3462 H   0  0  0  0  0  0  0  0  0  0  0  0
   -0.2080   21.3720  -29.4330 H   0  0  0  0  0  0  0  0  0  0  0  0
   -3.1380   23.1180  -31.9860 H   0  0  0  0  0  0  0  0  0  0  0  0
   -5.8716   21.9048  -31.9260 H   0  0  0  0  0  0  0  0  0  0  0  0
   -6.9320   19.9601  -33.0721 H   0  0  0  0  0  0  0  0  0  0  0  0
   -4.8704   16.6790  -31.8359 H   0  0  0  0  0  0  0  0  0  0  0  0
   -6.1795   15.4724  -32.2067 H   0  0  0  0  0  0  0  0  0  0  0  0
   -3.3653   15.0336  -31.3945 H   0  0  0  0  0  0  0  0  0  0  0  0
   -4.8112   13.9435  -31.3012 H   0  0  0  0  0  0  0  0  0  0  0  0
   -3.0079   13.0319  -32.7644 H   0  0  0  0  0  0  0  0  0  0  0  0
   -4.5589   13.3403  -33.6419 H   0  0  0  0  0  0  0  0  0  0  0  0
   -1.9182   14.8146  -33.8111 H   0  0  0  0  0  0  0  0  0  0  0  0
   -3.0288   14.2269  -35.1260 H   0  0  0  0  0  0  0  0  0  0  0  0
   -3.0545   16.8002  -33.5925 H   0  0  0  0  0  0  0  0  0  0  0  0
   -3.5349   16.4419  -35.2927 H   0  0  0  0  0  0  0  0  0  0  0  0
   -3.0396   18.1466  -33.6066 H   0  0  0  0  0  0  0  0  0  0  0  0
   -1.9750   20.0912  -32.4692 H   0  0  0  0  0  0  0  0  0  0  0  0
  1  2  1  0
  2  3  1  0
  3  4  1  0
  4  5  1  0
  5  6  1  0
  6  7  1  0
  7  8  1  0
  8  9  2  0
  9 10  1  0
 10 11  2  0
 11 12  1  0
 12 13  2  0
  6 14  1  0
 14 15  2  0
 14 16  1  0
 16 17  2  3
 16 18  1  0
 18 19  1  0
 19 20  2  0
 19 21  1  0
 21 22  1  0
 22 23  2  0
 23 24  1  0
 24 25  2  0
 25 26  1  0
 26 27  2  0
 26 28  2  0
 26 29  1  0
 29 30  1  0
 30 31  1  0
 31 32  1  0
 32 33  1  0
 33 34  1  0
 25 35  1  0
 35 36  2  0
 18  4  2  0
 36 22  1  0
 13  8  1  0
 34 29  1  0
  1 37  1  0
  1 38  1  0
  1 39  1  0
  2 40  1  0
  2 41  1  0
  3 42  1  0
  3 43  1  0
  7 44  1  0
  7 45  1  0
  9 46  1  0
 10 47  1  0
 11 48  1  0
 12 49  1  0
 13 50  1  0
 17 51  1  0
 21 52  1  0
 23 53  1  0
 24 54  1  0
 30 55  1  0
 30 56  1  0
 31 57  1  0
 31 58  1  0
 32 59  1  0
 32 60  1  0
 33 61  1  0
 33 62  1  0
 34 63  1  0
 34 64  1  0
 35 65  1  0
 36 66  1  0
M  CHG  1   5  -1
M  END
>  <UniqueID>  (27) 
27

>  <SMILES>  (27) 
CCCc1[n-]n(Cc2ccccc2)c(=O)c(=N)c1C(=O)Nc1ccc(S(=O)(=O)N2CCCCC2)cc1

>  <Energy>  (27) 
80.39425385010892

>  <Genealogy>  (27) 
CCCc1[n-]n(Cc2ccccc2)c(=O)c(=N)c1C(=O)Nc1ccc(S(=O)(=O)N2CCCCC2)cc1 (protonated)
CCCc1[n-]n(Cc2ccccc2)c(=O)c(=N)c1C(=O)Nc1ccc(S(=O)(=O)N2CCCCC2)cc1 (3D coordinates assigned)
CCCc1[n-]n(Cc2ccccc2)c(=O)c(=N)c1C(=O)Nc1ccc(S(=O)(=O)N2CCCCC2)cc1 (nonaromatic ring conformer: 80.39425385010892 kcal/mol)

>  <smiles>  (27) 
CCCc1[nH]n(Cc2ccccc2)c(=O)c(=N)c1C(=O)Nc1ccc(S(=O)(=O)N2CCCCC2)cc1

>  <score_type>  (27) 
oracle

>  <origin>  (27) 
adgpu

>  <m_score__min__energy>  (27) 
-10.94

>  <m_primary>  (27) 
energy

$$$$
27:0
     RDKit          3D

 53 57  0  0  0  0  0  0  0  0999 V2000
   -1.8140   25.6630  -28.9770 O   0  0  0  0  0  0  0  0  0  0  0  0
   -2.7540   24.8720  -29.2590 C   0  0  0  0  0  0  0  0  0  0  0  0
   -3.5070   25.0440  -30.4650 N   0  0  0  0  0  0  0  0  0  0  0  0
   -4.9470   25.2620  -30.4960 C   0  0  0  0  0  0  0  0  0  0  0  0
   -5.6530   23.9960  -30.8970 C   0  0  0  0  0  0  0  0  0  0  0  0
   -7.0180   23.8190  -30.6190 C   0  0  0  0  0  0  0  0  0  0  0  0
   -7.6650   22.6370  -30.9860 C   0  0  0  0  0  0  0  0  0  0  0  0
   -6.9560   21.6170  -31.6360 C   0  0  0  0  0  0  0  0  0  0  0  0
   -7.7570   20.1220  -32.1100 S   0  0  0  0  0  0  0  0  0  0  0  0
   -8.8720   20.4500  -33.0640 O   0  0  0  0  0  0  0  0  0  0  0  0
   -8.3400   19.4290  -30.9100 O   0  0  0  0  0  0  0  0  0  0  0  0
   -6.5830   19.0530  -32.8710 C   0  0  0  0  0  0  0  0  0  0  0  0
   -6.0890   17.9280  -32.2000 C   0  0  0  0  0  0  0  0  0  0  0  0
   -5.1770   17.0840  -32.8360 C   0  0  0  0  0  0  0  0  0  0  0  0
   -4.7700   17.3760  -34.1410 C   0  0  0  0  0  0  0  0  0  0  0  0
   -5.2590   18.4720  -34.7770 N   0  0  0  0  0  0  0  0  0  0  0  0
   -6.1480   19.3090  -34.1770 C   0  0  0  0  0  0  0  0  0  0  0  0
   -5.5930   21.7860  -31.9050 C   0  0  0  0  0  0  0  0  0  0  0  0
   -4.9400   22.9640  -31.5290 C   0  0  0  0  0  0  0  0  0  0  0  0
   -3.0150   23.7620  -28.3940 N   0  0  0  0  0  0  0  0  0  0  0  0
   -2.3380   22.5000  -28.4480 C   0  0  0  0  0  0  0  0  0  0  0  0
   -2.1300   21.7830  -27.2450 C   0  0  0  0  0  0  0  0  0  0  0  0
   -1.4620   20.5430  -27.2540 C   0  0  0  0  0  0  0  0  0  0  0  0
   -1.0500   20.0380  -28.4830 C   0  0  0  0  0  0  0  0  0  0  0  0
   -0.3780   18.8980  -28.7170 N   0  0  0  0  0  0  0  0  0  0  0  0
   -0.1880   18.8130  -30.0300 N   0  0  0  0  0  0  0  0  0  0  0  0
   -0.7430   19.8920  -30.6310 C   0  0  0  0  0  0  0  0  0  0  0  0
   -0.7420   20.1080  -32.0920 C   0  0  0  0  0  0  0  0  0  0  0  0
    0.4540   20.3750  -32.7820 C   0  0  0  0  0  0  0  0  0  0  0  0
    0.4360   20.5970  -34.1600 C   0  0  0  0  0  0  0  0  0  0  0  0
   -0.7710   20.5590  -34.8630 C   0  0  0  0  0  0  0  0  0  0  0  0
   -1.9660   20.3130  -34.1830 C   0  0  0  0  0  0  0  0  0  0  0  0
   -1.9540   20.0960  -32.8020 C   0  0  0  0  0  0  0  0  0  0  0  0
   -1.2930   20.6980  -29.6530 C   0  0  0  0  0  0  0  0  0  0  0  0
   -1.9220   21.9430  -29.6800 C   0  0  0  0  0  0  0  0  0  0  0  0
   -5.2900   25.5691  -29.4970 H   0  0  0  0  0  0  0  0  0  0  0  0
   -5.1761   26.0496  -31.2289 H   0  0  0  0  0  0  0  0  0  0  0  0
   -7.5805   24.6153  -30.1096 H   0  0  0  0  0  0  0  0  0  0  0  0
   -8.7344   22.5059  -30.7643 H   0  0  0  0  0  0  0  0  0  0  0  0
   -6.4189   17.7096  -31.1736 H   0  0  0  0  0  0  0  0  0  0  0  0
   -4.7828   16.1986  -32.3158 H   0  0  0  0  0  0  0  0  0  0  0  0
   -4.0531   16.7176  -34.6533 H   0  0  0  0  0  0  0  0  0  0  0  0
   -6.5258   20.1885  -34.7189 H   0  0  0  0  0  0  0  0  0  0  0  0
   -5.0327   20.9883  -32.4147 H   0  0  0  0  0  0  0  0  0  0  0  0
   -3.8648   23.0828  -31.7288 H   0  0  0  0  0  0  0  0  0  0  0  0
   -2.4938   22.1985  -26.2937 H   0  0  0  0  0  0  0  0  0  0  0  0
   -1.2725   19.9925  -26.3207 H   0  0  0  0  0  0  0  0  0  0  0  0
    1.4071   20.4090  -32.2338 H   0  0  0  0  0  0  0  0  0  0  0  0
    1.3753   20.8026  -34.6943 H   0  0  0  0  0  0  0  0  0  0  0  0
   -0.7801   20.7226  -35.9507 H   0  0  0  0  0  0  0  0  0  0  0  0
   -2.9174   20.2900  -34.7346 H   0  0  0  0  0  0  0  0  0  0  0  0
   -2.8988   19.9149  -32.2685 H   0  0  0  0  0  0  0  0  0  0  0  0
   -2.0890   22.4743  -30.6286 H   0  0  0  0  0  0  0  0  0  0  0  0
  1  2  2  0
  2  3  1  0
  3  4  1  0
  4  5  1  0
  5  6  2  0
  6  7  1  0
  7  8  2  0
  8  9  1  0
  9 10  2  0
  9 11  2  0
  9 12  1  0
 12 13  2  0
 13 14  1  0
 14 15  2  0
 15 16  1  0
 16 17  2  0
  8 18  1  0
 18 19  2  0
  2 20  1  0
 20 21  1  0
 21 22  2  0
 22 23  1  0
 23 24  2  0
 24 25  1  0
 25 26  1  0
 26 27  2  0
 27 28  1  0
 28 29  2  0
 29 30  1  0
 30 31  2  0
 31 32  1  0
 32 33  2  0
 27 34  1  0
 34 35  2  0
 19  5  1  0
 35 21  1  0
 17 12  1  0
 34 24  1  0
 33 28  1  0
  4 36  1  0
  4 37  1  0
  6 38  1  0
  7 39  1  0
 13 40  1  0
 14 41  1  0
 15 42  1  0
 17 43  1  0
 18 44  1  0
 19 45  1  0
 22 46  1  0
 23 47  1  0
 29 48  1  0
 30 49  1  0
 31 50  1  0
 32 51  1  0
 33 52  1  0
 35 53  1  0
M  CHG  3   3  -1  20  -1  25  -1
M  END
>  <UniqueID>  (28) 
28

>  <SMILES>  (28) 
O=C([N-]Cc1ccc(S(=O)(=O)c2cccnc2)cc1)[N-]c1ccc2[n-]nc(-c3ccccc3)c2c1

>  <Energy>  (28) 
101.22825706905815

>  <Genealogy>  (28) 
O=C([N-]Cc1ccc(S(=O)(=O)c2cccnc2)cc1)[N-]c1ccc2[n-]nc(-c3ccccc3)c2c1 (protonated)
O=C([N-]Cc1ccc(S(=O)(=O)c2cccnc2)cc1)[N-]c1ccc2[n-]nc(-c3ccccc3)c2c1 (3D coordinates assigned)
O=C([N-]Cc1ccc(S(=O)(=O)c2cccnc2)cc1)[N-]c1ccc2[n-]nc(-c3ccccc3)c2c1 (optimized conformer: 101.22825706905815 kcal/mol)

>  <smiles>  (28) 
O=C(NCc1ccc(S(=O)(=O)c2cccnc2)cc1)Nc1ccc2[nH]nc(-c3ccccc3)c2c1

>  <score_type>  (28) 
oracle

>  <origin>  (28) 
adgpu

>  <m_score__min__energy>  (28) 
-13.33

>  <m_primary>  (28) 
energy

$$$$
28:0
     RDKit          3D

 68 72  0  0  0  0  0  0  0  0999 V2000
   -0.1800   22.2760  -30.1140 O   0  0  0  0  0  0  0  0  0  0  0  0
   -1.5700   22.1490  -29.5580 S   0  0  0  0  0  0  0  0  0  0  0  0
   -1.8800   23.3880  -28.7650 O   0  0  0  0  0  0  0  0  0  0  0  0
   -1.6860   20.7520  -28.4920 C   0  0  0  0  0  0  0  0  0  0  0  0
   -2.8170   20.5620  -27.6820 C   0  0  0  0  0  0  0  0  0  0  0  0
   -2.8820   19.4670  -26.8140 C   0  0  0  0  0  0  0  0  0  0  0  0
   -1.8210   18.5600  -26.7500 C   0  0  0  0  0  0  0  0  0  0  0  0
   -0.6920   18.7470  -27.5540 C   0  0  0  0  0  0  0  0  0  0  0  0
   -0.6230   19.8420  -28.4200 C   0  0  0  0  0  0  0  0  0  0  0  0
   -2.7110   21.9580  -30.8920 C   0  0  0  0  0  0  0  0  0  0  0  0
   -4.0870   22.0980  -30.6620 C   0  0  0  0  0  0  0  0  0  0  0  0
   -5.0000   21.9530  -31.7150 C   0  0  0  0  0  0  0  0  0  0  0  0
   -6.7290   22.1680  -31.4310 S   0  0  0  0  0  0  0  0  0  0  0  0
   -6.9380   22.7350  -30.0540 O   0  0  0  0  0  0  0  0  0  0  0  0
   -7.2800   23.1510  -32.4270 O   0  0  0  0  0  0  0  0  0  0  0  0
   -7.5880   20.6530  -31.5680 N   0  0  0  0  0  0  0  0  0  0  0  0
   -8.8530   20.8580  -32.3060 C   0  0  0  0  0  0  0  0  0  0  0  0
   -9.5120   19.5350  -32.7340 C   0  0  0  0  0  0  0  0  0  0  0  0
   -9.0840   18.1830  -31.5910 S   0  0  0  0  0  0  0  0  0  0  0  0
   -7.2840   18.2270  -31.9500 C   0  0  0  0  0  0  0  0  0  0  0  0
   -6.7410   19.6410  -32.2200 C   0  0  0  0  0  0  0  0  0  0  0  0
   -4.5340   21.6510  -32.9990 C   0  0  0  0  0  0  0  0  0  0  0  0
   -3.1650   21.5090  -33.2350 C   0  0  0  0  0  0  0  0  0  0  0  0
   -2.2410   21.6770  -32.1860 C   0  0  0  0  0  0  0  0  0  0  0  0
   -0.8590   21.5440  -32.3980 O   0  0  0  0  0  0  0  0  0  0  0  0
   -0.2800   20.9160  -33.5050 C   0  0  0  0  0  0  0  0  0  0  0  0
   -0.0540   21.6680  -34.6620 C   0  0  0  0  0  0  0  0  0  0  0  0
    0.5370   21.0790  -35.7830 C   0  0  0  0  0  0  0  0  0  0  0  0
    0.8960   19.7250  -35.7610 C   0  0  0  0  0  0  0  0  0  0  0  0
    1.6610   18.9840  -37.1680 S   0  0  0  0  0  0  0  0  0  0  0  0
    0.6630   18.9100  -38.2900 O   0  0  0  0  0  0  0  0  0  0  0  0
    2.8070   19.8470  -37.6220 O   0  0  0  0  0  0  0  0  0  0  0  0
    2.2490   17.3790  -36.8140 N   0  0  0  0  0  0  0  0  0  0  0  0
    3.1650   17.4070  -35.6610 C   0  0  0  0  0  0  0  0  0  0  0  0
    3.4920   15.9760  -35.1880 C   0  0  0  0  0  0  0  0  0  0  0  0
    3.0760   15.0180  -36.1420 O   0  0  0  0  0  0  0  0  0  0  0  0
    1.6650   15.0450  -36.2680 C   0  0  0  0  0  0  0  0  0  0  0  0
    1.1280   16.4650  -36.5510 C   0  0  0  0  0  0  0  0  0  0  0  0
    0.6400   18.9610  -34.6140 C   0  0  0  0  0  0  0  0  0  0  0  0
    0.0500   19.5460  -33.4880 C   0  0  0  0  0  0  0  0  0  0  0  0
   -0.3580   18.4300  -31.9840 Br  0  0  0  0  0  0  0  0  0  0  0  0
   -3.6531   21.2752  -27.7301 H   0  0  0  0  0  0  0  0  0  0  0  0
   -3.7695   19.3197  -26.1810 H   0  0  0  0  0  0  0  0  0  0  0  0
   -1.8737   17.6990  -26.0674 H   0  0  0  0  0  0  0  0  0  0  0  0
    0.1423   18.0318  -27.5048 H   0  0  0  0  0  0  0  0  0  0  0  0
    0.2687   19.9898  -29.0470 H   0  0  0  0  0  0  0  0  0  0  0  0
   -4.4519   22.3230  -29.6490 H   0  0  0  0  0  0  0  0  0  0  0  0
   -9.5531   21.4066  -31.6588 H   0  0  0  0  0  0  0  0  0  0  0  0
   -8.6166   21.4224  -33.2201 H   0  0  0  0  0  0  0  0  0  0  0  0
  -10.6043   19.6649  -32.7424 H   0  0  0  0  0  0  0  0  0  0  0  0
   -9.1439   19.2719  -33.7366 H   0  0  0  0  0  0  0  0  0  0  0  0
   -6.7473   17.8081  -31.0860 H   0  0  0  0  0  0  0  0  0  0  0  0
   -7.1250   17.6413  -32.8674 H   0  0  0  0  0  0  0  0  0  0  0  0
   -5.7173   19.7170  -31.8248 H   0  0  0  0  0  0  0  0  0  0  0  0
   -6.7436   19.8213  -33.3051 H   0  0  0  0  0  0  0  0  0  0  0  0
   -5.2486   21.5249  -33.8257 H   0  0  0  0  0  0  0  0  0  0  0  0
   -2.8066   21.2646  -34.2458 H   0  0  0  0  0  0  0  0  0  0  0  0
   -0.3430   22.7290  -34.6899 H   0  0  0  0  0  0  0  0  0  0  0  0
    0.7209   21.6804  -36.6855 H   0  0  0  0  0  0  0  0  0  0  0  0
    4.0973   17.9124  -35.9530 H   0  0  0  0  0  0  0  0  0  0  0  0
    2.6784   17.9488  -34.8366 H   0  0  0  0  0  0  0  0  0  0  0  0
    4.5781   15.8862  -35.0384 H   0  0  0  0  0  0  0  0  0  0  0  0
    2.9557   15.7877  -34.2462 H   0  0  0  0  0  0  0  0  0  0  0  0
    1.3713   14.3842  -37.0969 H   0  0  0  0  0  0  0  0  0  0  0  0
    1.2358   14.7074  -35.3131 H   0  0  0  0  0  0  0  0  0  0  0  0
    0.4663   16.4367  -37.4293 H   0  0  0  0  0  0  0  0  0  0  0  0
    0.5667   16.8219  -35.6749 H   0  0  0  0  0  0  0  0  0  0  0  0
    0.9049   17.8935  -34.5989 H   0  0  0  0  0  0  0  0  0  0  0  0
  1  2  2  0
  2  3  2  0
  2  4  1  0
  4  5  2  0
  5  6  1  0
  6  7  2  0
  7  8  1  0
  8  9  2  0
  2 10  1  0
 10 11  2  0
 11 12  1  0
 12 13  1  0
 13 14  2  0
 13 15  2  0
 13 16  1  0
 16 17  1  0
 17 18  1  0
 18 19  1  0
 19 20  1  0
 20 21  1  0
 12 22  2  0
 22 23  1  0
 23 24  2  0
 24 25  1  0
 25 26  1  0
 26 27  2  0
 27 28  1  0
 28 29  2  0
 29 30  1  0
 30 31  2  0
 30 32  2  0
 30 33  1  0
 33 34  1  0
 34 35  1  0
 35 36  1  0
 36 37  1  0
 37 38  1  0
 29 39  1  0
 39 40  2  0
 40 41  1  0
  9  4  1  0
 24 10  1  0
 40 26  1  0
 21 16  1  0
 38 33  1  0
  5 42  1  0
  6 43  1  0
  7 44  1  0
  8 45  1  0
  9 46  1  0
 11 47  1  0
 17 48  1  0
 17 49  1  0
 18 50  1  0
 18 51  1  0
 20 52  1  0
 20 53  1  0
 21 54  1  0
 21 55  1  0
 22 56  1  0
 23 57  1  0
 27 58  1  0
 28 59  1  0
 34 60  1  0
 34 61  1  0
 35 62  1  0
 35 63  1  0
 37 64  1  0
 37 65  1  0
 38 66  1  0
 38 67  1  0
 39 68  1  0
M  END
>  <UniqueID>  (29) 
29

>  <SMILES>  (29) 
O=S(=O)(c1ccccc1)c1cc(S(=O)(=O)N2CCSCC2)ccc1Oc1ccc(S(=O)(=O)N2CCOCC2)cc1Br

>  <Energy>  (29) 
91.03508960936274

>  <Genealogy>  (29) 
O=S(=O)(c1ccccc1)c1cc(S(=O)(=O)N2CCSCC2)ccc1Oc1ccc(S(=O)(=O)N2CCOCC2)cc1Br (3D coordinates assigned)
O=S(=O)(c1ccccc1)c1cc(S(=O)(=O)N2CCSCC2)ccc1Oc1ccc(S(=O)(=O)N2CCOCC2)cc1Br (nonaromatic ring conformer: 91.03508960936274 kcal/mol)

>  <smiles>  (29) 
O=S(=O)(c1ccccc1)c1cc(S(=O)(=O)N2CCSCC2)ccc1Oc1ccc(S(=O)(=O)N2CCOCC2)cc1Br

>  <score_type>  (29) 
oracle

>  <origin>  (29) 
adgpu

>  <m_score__min__energy>  (29) 
-11.550000000000001

>  <m_primary>  (29) 
energy

$$$$
29:0
     RDKit          3D

 65 69  0  0  0  0  0  0  0  0999 V2000
   -3.1500   19.2480  -26.3410 C   0  0  0  0  0  0  0  0  0  0  0  0
   -2.2200   19.6250  -27.4560 C   0  0  0  0  0  0  0  0  0  0  0  0
   -0.8400   19.4070  -27.3310 C   0  0  0  0  0  0  0  0  0  0  0  0
    0.0350   19.7820  -28.3630 C   0  0  0  0  0  0  0  0  0  0  0  0
    1.5120   19.5540  -28.2280 C   0  0  0  0  0  0  0  0  0  0  0  0
   -0.4740   20.4200  -29.5040 C   0  0  0  0  0  0  0  0  0  0  0  0
   -1.8500   20.6540  -29.6290 C   0  0  0  0  0  0  0  0  0  0  0  0
   -2.5080   21.4180  -31.0710 S   0  0  0  0  0  0  0  0  0  0  0  0
   -1.3710   21.9590  -31.8910 O   0  0  0  0  0  0  0  0  0  0  0  0
   -3.2570   20.4260  -31.9170 O   0  0  0  0  0  0  0  0  0  0  0  0
   -3.6110   22.7080  -30.5700 C   0  0  0  0  0  0  0  0  0  0  0  0
   -3.2890   23.8790  -29.8660 C   0  0  0  0  0  0  0  0  0  0  0  0
   -1.9580   24.2950  -29.3750 C   0  0  0  0  0  0  0  0  0  0  0  0
   -1.0150   23.4670  -29.2970 O   0  0  0  0  0  0  0  0  0  0  0  0
   -1.7580   25.6500  -28.9540 N   0  0  0  0  0  0  0  0  0  0  0  0
   -1.2500   26.0670  -27.6780 C   0  0  0  0  0  0  0  0  0  0  0  0
   -1.4300   25.2920  -26.5180 C   0  0  0  0  0  0  0  0  0  0  0  0
   -0.8950   25.7170  -25.2980 C   0  0  0  0  0  0  0  0  0  0  0  0
   -0.1720   26.9160  -25.2220 C   0  0  0  0  0  0  0  0  0  0  0  0
    0.4990   27.4540  -23.6820 S   0  0  0  0  0  0  0  0  0  0  0  0
    0.6740   28.9480  -23.7190 O   0  0  0  0  0  0  0  0  0  0  0  0
   -0.4900   27.1390  -22.5940 O   0  0  0  0  0  0  0  0  0  0  0  0
    2.0350   26.6990  -23.2970 N   0  0  0  0  0  0  0  0  0  0  0  0
    2.2400   25.4310  -24.0390 C   0  0  0  0  0  0  0  0  0  0  0  0
    3.1600   25.5910  -25.2610 C   0  0  0  0  0  0  0  0  0  0  0  0
    3.0610   26.8930  -25.7870 O   0  0  0  0  0  0  0  0  0  0  0  0
    3.6480   27.8150  -24.8890 C   0  0  0  0  0  0  0  0  0  0  0  0
    3.1690   27.6380  -23.4290 C   0  0  0  0  0  0  0  0  0  0  0  0
    0.0320   27.6730  -26.3830 C   0  0  0  0  0  0  0  0  0  0  0  0
   -0.4990   27.2460  -27.6040 C   0  0  0  0  0  0  0  0  0  0  0  0
   -4.3850   24.6610  -29.7300 N   0  0  0  0  0  0  0  0  0  0  0  0
   -5.3880   24.0170  -30.3500 C   0  0  0  0  0  0  0  0  0  0  0  0
   -6.6990   24.4630  -30.5030 C   0  0  0  0  0  0  0  0  0  0  0  0
   -7.5900   23.6550  -31.2270 C   0  0  0  0  0  0  0  0  0  0  0  0
   -7.1530   22.4360  -31.7860 C   0  0  0  0  0  0  0  0  0  0  0  0
   -5.8230   22.0090  -31.6190 C   0  0  0  0  0  0  0  0  0  0  0  0
   -4.9580   22.8260  -30.8830 C   0  0  0  0  0  0  0  0  0  0  0  0
   -2.7180   20.2600  -28.6030 C   0  0  0  0  0  0  0  0  0  0  0  0
   -2.6629   19.4454  -25.3747 H   0  0  0  0  0  0  0  0  0  0  0  0
   -4.0719   19.8434  -26.4153 H   0  0  0  0  0  0  0  0  0  0  0  0
   -3.3971   18.1787  -26.4153 H   0  0  0  0  0  0  0  0  0  0  0  0
   -0.4409   18.9394  -26.4188 H   0  0  0  0  0  0  0  0  0  0  0  0
    1.7807   19.5125  -27.1621 H   0  0  0  0  0  0  0  0  0  0  0  0
    1.7820   18.6035  -28.7115 H   0  0  0  0  0  0  0  0  0  0  0  0
    2.0560   20.3788  -28.7115 H   0  0  0  0  0  0  0  0  0  0  0  0
    0.2103   20.7381  -30.3044 H   0  0  0  0  0  0  0  0  0  0  0  0
   -1.9934   24.3487  -26.5708 H   0  0  0  0  0  0  0  0  0  0  0  0
   -1.0420   25.1080  -24.3938 H   0  0  0  0  0  0  0  0  0  0  0  0
    1.9660   26.4540  -22.2810 H   0  0  0  0  0  0  0  0  0  0  0  0
    2.6889   24.6943  -23.3565 H   0  0  0  0  0  0  0  0  0  0  0  0
    1.2569   25.1036  -24.4083 H   0  0  0  0  0  0  0  0  0  0  0  0
    4.2003   25.4014  -24.9579 H   0  0  0  0  0  0  0  0  0  0  0  0
    2.8524   24.8713  -26.0339 H   0  0  0  0  0  0  0  0  0  0  0  0
    4.7396   27.6823  -24.9166 H   0  0  0  0  0  0  0  0  0  0  0  0
    3.3440   28.8218  -25.2114 H   0  0  0  0  0  0  0  0  0  0  0  0
    4.0091   27.2578  -22.8293 H   0  0  0  0  0  0  0  0  0  0  0  0
    2.8215   28.6209  -23.0780 H   0  0  0  0  0  0  0  0  0  0  0  0
    0.6119   28.6065  -26.3339 H   0  0  0  0  0  0  0  0  0  0  0  0
   -0.3254   27.8408  -28.5129 H   0  0  0  0  0  0  0  0  0  0  0  0
   -4.4420   25.5950  -29.2650 H   0  0  0  0  0  0  0  0  0  0  0  0
   -7.0262   25.4196  -30.0695 H   0  0  0  0  0  0  0  0  0  0  0  0
   -8.6343   23.9742  -31.3590 H   0  0  0  0  0  0  0  0  0  0  0  0
   -7.8579   21.8141  -32.3572 H   0  0  0  0  0  0  0  0  0  0  0  0
   -5.4736   21.0611  -32.0541 H   0  0  0  0  0  0  0  0  0  0  0  0
   -3.7974   20.4498  -28.6974 H   0  0  0  0  0  0  0  0  0  0  0  0
  1  2  1  0
  2  3  2  0
  3  4  1  0
  4  5  1  0
  4  6  2  0
  6  7  1  0
  7  8  1  0
  8  9  2  0
  8 10  2  0
  8 11  1  0
 11 12  2  0
 12 13  1  0
 13 14  2  0
 13 15  1  0
 15 16  1  0
 16 17  2  0
 17 18  1  0
 18 19  2  0
 19 20  1  0
 20 21  2  0
 20 22  2  0
 20 23  1  0
 23 24  1  0
 24 25  1  0
 25 26  1  0
 26 27  1  0
 27 28  1  0
 19 29  1  0
 29 30  2  0
 12 31  1  0
 31 32  1  0
 32 33  2  0
 33 34  1  0
 34 35  2  0
 35 36  1  0
 36 37  2  0
  7 38  2  0
 38  2  1  0
 37 11  1  0
 30 16  1  0
 37 32  1  0
 28 23  1  0
  1 39  1  0
  1 40  1  0
  1 41  1  0
  3 42  1  0
  5 43  1  0
  5 44  1  0
  5 45  1  0
  6 46  1  0
 17 47  1  0
 18 48  1  0
 23 49  1  0
 24 50  1  0
 24 51  1  0
 25 52  1  0
 25 53  1  0
 27 54  1  0
 27 55  1  0
 28 56  1  0
 28 57  1  0
 29 58  1  0
 30 59  1  0
 31 60  1  0
 33 61  1  0
 34 62  1  0
 35 63  1  0
 36 64  1  0
 38 65  1  0
M  CHG  2  15  -1  23   1
M  END
>  <UniqueID>  (30) 
30

>  <SMILES>  (30) 
Cc1cc(C)cc(S(=O)(=O)c2c(C(=O)[N-]c3ccc(S(=O)(=O)[NH+]4CCOCC4)cc3)[nH]c3ccccc23)c1

>  <Energy>  (30) 
118.70331730939783

>  <Genealogy>  (30) 
Cc1cc(C)cc(S(=O)(=O)c2c(C(=O)[N-]c3ccc(S(=O)(=O)[NH+]4CCOCC4)cc3)[nH]c3ccccc23)c1 (protonated)
Cc1cc(C)cc(S(=O)(=O)c2c(C(=O)[N-]c3ccc(S(=O)(=O)[NH+]4CCOCC4)cc3)[nH]c3ccccc23)c1 (3D coordinates assigned)
Cc1cc(C)cc(S(=O)(=O)c2c(C(=O)[N-]c3ccc(S(=O)(=O)[NH+]4CCOCC4)cc3)[nH]c3ccccc23)c1 (nonaromatic ring conformer: 118.70331730939783 kcal/mol)

>  <smiles>  (30) 
Cc1cc(C)cc(S(=O)(=O)c2c(C(=O)Nc3ccc(S(=O)(=O)N4CCOCC4)cc3)[nH]c3ccccc23)c1

>  <score_type>  (30) 
oracle

>  <origin>  (30) 
adgpu

>  <m_score__min__energy>  (30) 
-12.57

>  <m_primary>  (30) 
energy

$$$$
30:0
     RDKit          3D

 56 60  0  0  0  0  0  0  0  0999 V2000
   -3.7830   18.4769  -32.5765 H   0  0  0  0  0  0  0  0  0  0  0  0
   -3.0040   19.2390  -32.7260 C   0  0  0  0  0  0  0  0  0  0  0  0
   -2.3460   19.3320  -33.9550 C   0  0  0  0  0  0  0  0  0  0  0  0
   -2.6143   18.6506  -34.7758 H   0  0  0  0  0  0  0  0  0  0  0  0
   -1.3460   20.2920  -34.1410 C   0  0  0  0  0  0  0  0  0  0  0  0
   -0.6790   20.3730  -35.3590 O   0  0  0  0  0  0  0  0  0  0  0  0
   -1.0140   21.1680  -33.1020 C   0  0  0  0  0  0  0  0  0  0  0  0
   -0.2159   21.9109  -33.2474 H   0  0  0  0  0  0  0  0  0  0  0  0
   -1.6920   21.1050  -31.8770 C   0  0  0  0  0  0  0  0  0  0  0  0
   -1.3020   22.0020  -30.8220 N   0  0  0  0  0  0  0  0  0  0  0  0
   -1.9880   23.0100  -30.3710 C   0  0  0  0  0  0  0  0  0  0  0  0
   -3.1570   23.3870  -30.9540 N   0  0  0  0  0  0  0  0  0  0  0  0
   -3.8500   24.4470  -30.4700 C   0  0  0  0  0  0  0  0  0  0  0  0
   -5.4010   24.9140  -31.2250 S   0  0  0  0  0  0  0  0  0  0  0  0
   -5.7630   23.2280  -31.7110 C   0  0  0  0  0  0  0  0  0  0  0  0
   -6.8120   22.5350  -31.0980 C   0  0  0  0  0  0  0  0  0  0  0  0
   -7.4012   23.0199  -30.3057 H   0  0  0  0  0  0  0  0  0  0  0  0
   -7.1130   21.2280  -31.4900 C   0  0  0  0  0  0  0  0  0  0  0  0
   -7.9489   20.6937  -31.0148 H   0  0  0  0  0  0  0  0  0  0  0  0
   -6.3550   20.5920  -32.4870 C   0  0  0  0  0  0  0  0  0  0  0  0
   -6.7010   19.2570  -32.8950 N   0  0  0  0  0  0  0  0  0  0  0  0
   -7.3240   19.1590  -33.7260 H   0  0  0  0  0  0  0  0  0  0  0  0
   -6.3500   18.0800  -32.1410 C   0  0  0  0  0  0  0  0  0  0  0  0
   -6.0870   18.1830  -30.9130 O   0  0  0  0  0  0  0  0  0  0  0  0
   -6.3080   16.7020  -32.7560 C   0  0  0  0  0  0  0  0  0  0  0  0
   -6.7797   16.2206  -31.8866 H   0  0  0  0  0  0  0  0  0  0  0  0
   -6.4850   16.6400  -34.2650 C   0  0  0  0  0  0  0  0  0  0  0  0
   -7.0617   15.8200  -34.7178 H   0  0  0  0  0  0  0  0  0  0  0  0
   -6.8642   17.3307  -35.0325 H   0  0  0  0  0  0  0  0  0  0  0  0
   -5.1220   16.3610  -33.6470 C   0  0  0  0  0  0  0  0  0  0  0  0
   -4.7139   15.3395  -33.6528 H   0  0  0  0  0  0  0  0  0  0  0  0
   -4.1084   16.7664  -33.7824 H   0  0  0  0  0  0  0  0  0  0  0  0
   -5.3100   21.3010  -33.1080 C   0  0  0  0  0  0  0  0  0  0  0  0
   -4.7243   20.8232  -33.9072 H   0  0  0  0  0  0  0  0  0  0  0  0
   -5.0120   22.6090  -32.7150 C   0  0  0  0  0  0  0  0  0  0  0  0
   -4.1854   23.1522  -33.1963 H   0  0  0  0  0  0  0  0  0  0  0  0
   -3.3740   25.1420  -29.4080 N   0  0  0  0  0  0  0  0  0  0  0  0
   -2.2040   24.7790  -28.8220 C   0  0  0  0  0  0  0  0  0  0  0  0
   -1.7520   25.4770  -27.8220 N   0  0  0  0  0  0  0  0  0  0  0  0
   -0.5670   25.2150  -27.0510 C   0  0  0  0  0  0  0  0  0  0  0  0
   -0.4660   24.1080  -26.1880 C   0  0  0  0  0  0  0  0  0  0  0  0
   -1.3029   23.3989  -26.1063 H   0  0  0  0  0  0  0  0  0  0  0  0
    0.6940   23.9060  -25.4340 C   0  0  0  0  0  0  0  0  0  0  0  0
    0.7737   23.0261  -24.7787 H   0  0  0  0  0  0  0  0  0  0  0  0
    1.7560   24.8180  -25.5080 C   0  0  0  0  0  0  0  0  0  0  0  0
    3.0100   24.5750  -24.7220 C   0  0  0  0  0  0  0  0  0  0  0  0
    2.7830   24.6190  -23.6466 H   0  0  0  0  0  0  0  0  0  0  0  0
    3.4125   23.5822  -24.9715 H   0  0  0  0  0  0  0  0  0  0  0  0
    3.7542   25.3456  -24.9715 H   0  0  0  0  0  0  0  0  0  0  0  0
    1.6480   25.9320  -26.3560 C   0  0  0  0  0  0  0  0  0  0  0  0
    2.4799   26.6481  -26.4280 H   0  0  0  0  0  0  0  0  0  0  0  0
    0.4880   26.1350  -27.1090 C   0  0  0  0  0  0  0  0  0  0  0  0
    0.4028   27.0236  -27.7518 H   0  0  0  0  0  0  0  0  0  0  0  0
   -1.5080   23.7190  -29.3180 N   0  0  0  0  0  0  0  0  0  0  0  0
   -2.6740   20.1130  -31.6860 C   0  0  0  0  0  0  0  0  0  0  0  0
   -3.1830   20.0258  -30.7148 H   0  0  0  0  0  0  0  0  0  0  0  0
  1  2  1  0
  2  3  2  0
  3  4  1  0
  3  5  1  0
  5  6  1  0
  5  7  2  0
  7  8  1  0
  7  9  1  0
  9 10  1  0
 10 11  2  0
 11 12  1  0
 12 13  2  0
 13 14  1  0
 14 15  1  0
 15 16  2  0
 16 17  1  0
 16 18  1  0
 18 19  1  0
 18 20  2  0
 20 21  1  0
 21 22  1  0
 21 23  1  0
 23 24  2  0
 23 25  1  0
 25 26  1  0
 25 27  1  0
 27 28  1  0
 27 29  1  0
 27 30  1  0
 30 31  1  0
 30 32  1  0
 20 33  1  0
 33 34  1  0
 33 35  2  0
 35 36  1  0
 13 37  1  0
 37 38  1  0
 38 39  2  0
 39 40  1  0
 40 41  2  0
 41 42  1  0
 41 43  1  0
 43 44  1  0
 43 45  2  0
 45 46  1  0
 46 47  1  0
 46 48  1  0
 46 49  1  0
 45 50  1  0
 50 51  1  0
 50 52  2  0
 52 53  1  0
 38 54  1  0
  9 55  2  0
 55 56  1  0
 55  2  1  0
 54 11  1  0
 35 15  1  0
 52 40  1  0
 30 25  1  0
M  CHG  3   6  -1  37  -1  54  -1
M  END
>  <UniqueID>  (31) 
31

>  <SMILES>  (31) 
Cc1ccc(/N=c2/[n-]c(Sc3ccc(NC(=O)C4CC4)cc3)n/c(=N\c3cccc([O-])c3)[n-]2)cc1

>  <Energy>  (31) 
338.25334136384265

>  <Genealogy>  (31) 
Cc1ccc(N=c2[n-]c(Sc3ccc(NC(=O)C4CC4)cc3)nc(=Nc3cccc([O-])c3)[n-]2)cc1 (protonated)
Cc1ccc(/N=c2/[n-]c(Sc3ccc(NC(=O)C4CC4)cc3)n/c(=N\c3cccc([O-])c3)[n-]2)cc1 (cis-trans isomerization)
Cc1ccc(/N=c2/[n-]c(Sc3ccc(NC(=O)C4CC4)cc3)n/c(=N\c3cccc([O-])c3)[n-]2)cc1 (3D coordinates assigned)
Cc1ccc(/N=c2/[n-]c(Sc3ccc(NC(=O)C4CC4)cc3)n/c(=N\c3cccc([O-])c3)[n-]2)cc1 (nonaromatic ring conformer: 338.25334136384265 kcal/mol)

>  <smiles>  (31) 
Cc1ccc(N=c2[nH]c(Sc3ccc(NC(=O)C4CC4)cc3)nc(=Nc3cccc(O)c3)[nH]2)cc1

>  <score_type>  (31) 
oracle

>  <origin>  (31) 
adgpu

>  <m_score__min__energy>  (31) 
-12.27

>  <m_primary>  (31) 
energy

$$$$
31:0
     RDKit          3D

 59 61  0  0  0  0  0  0  0  0999 V2000
   -1.0790   13.1040  -33.6070 N   0  0  0  0  0  0  0  0  0  0  0  0
   -1.6850   14.0700  -32.3090 S   0  0  0  0  0  0  0  0  0  0  0  0
   -2.1940   13.1710  -31.2170 O   0  0  0  0  0  0  0  0  0  0  0  0
   -0.5780   14.9210  -31.7560 O   0  0  0  0  0  0  0  0  0  0  0  0
   -2.9930   15.0960  -32.8950 C   0  0  0  0  0  0  0  0  0  0  0  0
   -4.3150   14.8410  -32.5100 C   0  0  0  0  0  0  0  0  0  0  0  0
   -5.3470   15.6830  -32.9340 C   0  0  0  0  0  0  0  0  0  0  0  0
   -5.0670   16.8060  -33.7290 C   0  0  0  0  0  0  0  0  0  0  0  0
   -6.1880   17.7260  -34.1470 C   0  0  0  0  0  0  0  0  0  0  0  0
   -7.4500   17.4110  -33.4720 N   0  0  0  0  0  0  0  0  0  0  0  0
   -7.6540   18.2760  -31.9700 S   0  0  0  0  0  0  0  0  0  0  0  0
   -9.1020   18.2190  -31.5750 O   0  0  0  0  0  0  0  0  0  0  0  0
   -6.8520   17.5830  -30.9050 O   0  0  0  0  0  0  0  0  0  0  0  0
   -7.1430   19.9660  -32.0470 C   0  0  0  0  0  0  0  0  0  0  0  0
   -8.0760   20.9910  -31.8480 C   0  0  0  0  0  0  0  0  0  0  0  0
   -7.6710   22.3270  -31.9040 C   0  0  0  0  0  0  0  0  0  0  0  0
   -6.3300   22.6470  -32.1350 C   0  0  0  0  0  0  0  0  0  0  0  0
   -5.3770   21.6270  -32.3040 C   0  0  0  0  0  0  0  0  0  0  0  0
   -3.9840   21.9160  -32.5160 N   0  0  0  0  0  0  0  0  0  0  0  0
   -3.0850   21.0910  -33.2760 C   0  0  0  0  0  0  0  0  0  0  0  0
   -3.5020   20.0580  -33.8670 O   0  0  0  0  0  0  0  0  0  0  0  0
   -1.6500   21.4960  -33.4410 C   0  0  0  0  0  0  0  0  0  0  0  0
   -0.8930   21.3370  -32.1190 C   0  0  0  0  0  0  0  0  0  0  0  0
   -1.4690   22.1910  -31.0800 N   0  0  0  0  0  0  0  0  0  0  0  0
   -1.9240   21.7140  -29.7950 C   0  0  0  0  0  0  0  0  0  0  0  0
   -1.5640   20.4290  -29.3420 C   0  0  0  0  0  0  0  0  0  0  0  0
   -1.9740   19.9750  -28.0880 C   0  0  0  0  0  0  0  0  0  0  0  0
   -2.7430   20.7930  -27.2640 C   0  0  0  0  0  0  0  0  0  0  0  0
   -3.1120   22.0680  -27.6940 C   0  0  0  0  0  0  0  0  0  0  0  0
   -2.7150   22.5400  -28.9560 C   0  0  0  0  0  0  0  0  0  0  0  0
   -3.2450   24.1490  -29.4710 S   0  0  0  0  0  0  0  0  0  0  0  0
   -1.9990   25.3010  -29.1420 N   0  0  0  0  0  0  0  0  0  0  0  0
   -4.4980   24.5250  -28.7290 O   0  0  0  0  0  0  0  0  0  0  0  0
   -3.5310   24.1590  -30.9470 O   0  0  0  0  0  0  0  0  0  0  0  0
   -5.8020   20.2890  -32.2970 C   0  0  0  0  0  0  0  0  0  0  0  0
   -3.7460   17.0310  -34.1530 C   0  0  0  0  0  0  0  0  0  0  0  0
   -2.7150   16.1900  -33.7250 C   0  0  0  0  0  0  0  0  0  0  0  0
   -0.4190   13.7010  -34.1540 H   0  0  0  0  0  0  0  0  0  0  0  0
   -4.5422   13.9747  -31.8714 H   0  0  0  0  0  0  0  0  0  0  0  0
   -6.3851   15.4645  -32.6430 H   0  0  0  0  0  0  0  0  0  0  0  0
   -5.9055   18.7607  -33.9029 H   0  0  0  0  0  0  0  0  0  0  0  0
   -6.3440   17.5952  -35.2280 H   0  0  0  0  0  0  0  0  0  0  0  0
   -9.1290   20.7441  -31.6474 H   0  0  0  0  0  0  0  0  0  0  0  0
   -8.4101   23.1299  -31.7658 H   0  0  0  0  0  0  0  0  0  0  0  0
   -6.0190   23.7010  -32.1848 H   0  0  0  0  0  0  0  0  0  0  0  0
   -3.6340   22.8540  -32.2100 H   0  0  0  0  0  0  0  0  0  0  0  0
   -1.1801   20.8605  -34.2061 H   0  0  0  0  0  0  0  0  0  0  0  0
   -1.6110   22.5513  -33.7489 H   0  0  0  0  0  0  0  0  0  0  0  0
   -0.9509   20.2874  -31.7951 H   0  0  0  0  0  0  0  0  0  0  0  0
    0.1544   21.6340  -32.2765 H   0  0  0  0  0  0  0  0  0  0  0  0
   -1.5570   23.2040  -31.3100 H   0  0  0  0  0  0  0  0  0  0  0  0
   -0.9533   19.7770  -29.9838 H   0  0  0  0  0  0  0  0  0  0  0  0
   -1.6890   18.9680  -27.7492 H   0  0  0  0  0  0  0  0  0  0  0  0
   -3.0596   20.4337  -26.2737 H   0  0  0  0  0  0  0  0  0  0  0  0
   -3.7194   22.7095  -27.0387 H   0  0  0  0  0  0  0  0  0  0  0  0
   -1.6200   25.6130  -30.0640 H   0  0  0  0  0  0  0  0  0  0  0  0
   -5.0754   19.4859  -32.4896 H   0  0  0  0  0  0  0  0  0  0  0  0
   -3.5225   17.8729  -34.8248 H   0  0  0  0  0  0  0  0  0  0  0  0
   -1.6802   16.3880  -34.0413 H   0  0  0  0  0  0  0  0  0  0  0  0
  1  2  1  0
  2  3  2  0
  2  4  2  0
  2  5  1  0
  5  6  2  0
  6  7  1  0
  7  8  2  0
  8  9  1  0
  9 10  1  0
 10 11  1  0
 11 12  2  0
 11 13  2  0
 11 14  1  0
 14 15  2  0
 15 16  1  0
 16 17  2  0
 17 18  1  0
 18 19  1  0
 19 20  1  0
 20 21  2  0
 20 22  1  0
 22 23  1  0
 23 24  1  0
 24 25  1  0
 25 26  2  0
 26 27  1  0
 27 28  2  0
 28 29  1  0
 29 30  2  0
 30 31  1  0
 31 32  1  0
 31 33  2  0
 31 34  2  0
 18 35  2  0
  8 36  1  0
 36 37  2  0
 37  5  1  0
 35 14  1  0
 30 25  1  0
  1 38  1  0
  6 39  1  0
  7 40  1  0
  9 41  1  0
  9 42  1  0
 15 43  1  0
 16 44  1  0
 17 45  1  0
 19 46  1  0
 22 47  1  0
 22 48  1  0
 23 49  1  0
 23 50  1  0
 24 51  1  0
 26 52  1  0
 27 53  1  0
 28 54  1  0
 29 55  1  0
 32 56  1  0
 35 57  1  0
 36 58  1  0
 37 59  1  0
M  CHG  3   1  -1  10  -1  32  -1
M  END
>  <UniqueID>  (32) 
32

>  <SMILES>  (32) 
[NH-]S(=O)(=O)c1ccc(C[N-]S(=O)(=O)c2cccc(NC(=O)CCNc3ccccc3S([NH-])(=O)=O)c2)cc1

>  <Energy>  (32) 
59.397744185745644

>  <Genealogy>  (32) 
[NH-]S(=O)(=O)c1ccc(C[N-]S(=O)(=O)c2cccc(NC(=O)CCNc3ccccc3S([NH-])(=O)=O)c2)cc1 (protonated)
[NH-]S(=O)(=O)c1ccc(C[N-]S(=O)(=O)c2cccc(NC(=O)CCNc3ccccc3S([NH-])(=O)=O)c2)cc1 (3D coordinates assigned)
[NH-]S(=O)(=O)c1ccc(C[N-]S(=O)(=O)c2cccc(NC(=O)CCNc3ccccc3S([NH-])(=O)=O)c2)cc1 (optimized conformer: 59.397744185745644 kcal/mol)

>  <smiles>  (32) 
NS(=O)(=O)c1ccc(CNS(=O)(=O)c2cccc(NC(=O)CCNc3ccccc3S(N)(=O)=O)c2)cc1

>  <score_type>  (32) 
oracle

>  <origin>  (32) 
adgpu

>  <m_score__min__energy>  (32) 
-14.43

>  <m_primary>  (32) 
energy

$$$$
32:0
     RDKit          3D

 56 58  0  0  0  0  0  0  0  0999 V2000
   -0.4490   28.2270  -26.8340 C   0  0  0  0  0  0  0  0  0  0  0  0
   -1.1030   27.4300  -25.7090 C   0  0  0  0  0  0  0  0  0  0  0  0
   -0.5520   26.0010  -25.6500 C   0  0  0  0  0  0  0  0  0  0  0  0
   -0.8450   25.2800  -26.9070 N   0  0  0  0  0  0  0  0  0  0  0  0
   -2.1370   24.9370  -27.2540 C   0  0  0  0  0  0  0  0  0  0  0  0
   -3.2550   25.3080  -26.4260 N   0  0  0  0  0  0  0  0  0  0  0  0
   -2.3730   24.2110  -28.4390 C   0  0  0  0  0  0  0  0  0  0  0  0
   -3.7070   23.8480  -28.8450 N   0  0  0  0  0  0  0  0  0  0  0  0
   -4.4940   22.9870  -27.9580 C   0  0  0  0  0  0  0  0  0  0  0  0
   -4.3010   24.4840  -29.9980 C   0  0  0  0  0  0  0  0  0  0  0  0
   -3.6250   25.2940  -30.6880 O   0  0  0  0  0  0  0  0  0  0  0  0
   -5.6770   24.2780  -30.3450 N   0  0  0  0  0  0  0  0  0  0  0  0
   -6.2450   23.0300  -30.7560 C   0  0  0  0  0  0  0  0  0  0  0  0
   -5.4000   22.0140  -31.2170 C   0  0  0  0  0  0  0  0  0  0  0  0
   -5.9330   20.7910  -31.6360 C   0  0  0  0  0  0  0  0  0  0  0  0
   -7.3140   20.5660  -31.5760 C   0  0  0  0  0  0  0  0  0  0  0  0
   -7.9740   19.0450  -32.1680 S   0  0  0  0  0  0  0  0  0  0  0  0
   -9.1100   19.3090  -33.1180 O   0  0  0  0  0  0  0  0  0  0  0  0
   -8.5000   18.2580  -30.9990 O   0  0  0  0  0  0  0  0  0  0  0  0
   -6.7140   18.1430  -32.9700 N   0  0  0  0  0  0  0  0  0  0  0  0
   -6.2840   18.8490  -34.1870 C   0  0  0  0  0  0  0  0  0  0  0  0
   -5.2180   18.0230  -34.9360 C   0  0  0  0  0  0  0  0  0  0  0  0
   -4.9610   16.7860  -34.2980 O   0  0  0  0  0  0  0  0  0  0  0  0
   -6.1650   16.0510  -34.1820 C   0  0  0  0  0  0  0  0  0  0  0  0
   -7.1970   16.7950  -33.3080 C   0  0  0  0  0  0  0  0  0  0  0  0
   -8.1590   21.5710  -31.0870 C   0  0  0  0  0  0  0  0  0  0  0  0
   -7.6260   22.7940  -30.6680 C   0  0  0  0  0  0  0  0  0  0  0  0
   -1.2860   23.8970  -29.2590 C   0  0  0  0  0  0  0  0  0  0  0  0
   -1.4570   23.2730  -30.3390 O   0  0  0  0  0  0  0  0  0  0  0  0
   -0.0410   24.2820  -28.9020 N   0  0  0  0  0  0  0  0  0  0  0  0
    0.1910   24.9650  -27.7540 C   0  0  0  0  0  0  0  0  0  0  0  0
    1.3740   25.3040  -27.4830 O   0  0  0  0  0  0  0  0  0  0  0  0
    0.1932   29.0096  -26.4036 H   0  0  0  0  0  0  0  0  0  0  0  0
    0.1600   27.5532  -27.4547 H   0  0  0  0  0  0  0  0  0  0  0  0
   -1.2287   28.6927  -27.4547 H   0  0  0  0  0  0  0  0  0  0  0  0
   -0.9031   27.9316  -24.7506 H   0  0  0  0  0  0  0  0  0  0  0  0
   -2.1848   27.3788  -25.9014 H   0  0  0  0  0  0  0  0  0  0  0  0
    0.5371   26.0390  -25.5001 H   0  0  0  0  0  0  0  0  0  0  0  0
   -1.0318   25.4692  -24.8151 H   0  0  0  0  0  0  0  0  0  0  0  0
   -3.2590   25.1090  -25.4040 H   0  0  0  0  0  0  0  0  0  0  0  0
   -4.1340   25.7150  -26.8110 H   0  0  0  0  0  0  0  0  0  0  0  0
   -4.2674   23.2349  -26.9105 H   0  0  0  0  0  0  0  0  0  0  0  0
   -5.5656   23.1459  -28.1488 H   0  0  0  0  0  0  0  0  0  0  0  0
   -4.2397   21.9339  -28.1488 H   0  0  0  0  0  0  0  0  0  0  0  0
   -4.3128   22.1781  -31.2498 H   0  0  0  0  0  0  0  0  0  0  0  0
   -5.2652   20.0029  -32.0141 H   0  0  0  0  0  0  0  0  0  0  0  0
   -7.1528   19.0016  -34.8442 H   0  0  0  0  0  0  0  0  0  0  0  0
   -5.8510   19.8197  -33.9037 H   0  0  0  0  0  0  0  0  0  0  0  0
   -5.5736   17.8281  -35.9585 H   0  0  0  0  0  0  0  0  0  0  0  0
   -4.2828   18.6022  -34.9436 H   0  0  0  0  0  0  0  0  0  0  0  0
   -6.5893   15.8986  -35.1853 H   0  0  0  0  0  0  0  0  0  0  0  0
   -5.9373   15.0869  -33.7039 H   0  0  0  0  0  0  0  0  0  0  0  0
   -8.1448   16.8785  -33.8600 H   0  0  0  0  0  0  0  0  0  0  0  0
   -7.3472   16.2285  -32.3771 H   0  0  0  0  0  0  0  0  0  0  0  0
   -9.2439   21.3976  -31.0326 H   0  0  0  0  0  0  0  0  0  0  0  0
   -8.2910   23.5737  -30.2681 H   0  0  0  0  0  0  0  0  0  0  0  0
  1  2  1  0
  2  3  1  0
  3  4  1  0
  4  5  1  0
  5  6  1  0
  5  7  2  0
  7  8  1  0
  8  9  1  0
  8 10  1  0
 10 11  2  0
 10 12  1  0
 12 13  1  0
 13 14  2  0
 14 15  1  0
 15 16  2  0
 16 17  1  0
 17 18  2  0
 17 19  2  0
 17 20  1  0
 20 21  1  0
 21 22  1  0
 22 23  1  0
 23 24  1  0
 24 25  1  0
 16 26  1  0
 26 27  2  0
  7 28  1  0
 28 29  2  0
 28 30  1  0
 30 31  1  0
 31 32  2  0
 31  4  1  0
 27 13  1  0
 25 20  1  0
  1 33  1  0
  1 34  1  0
  1 35  1  0
  2 36  1  0
  2 37  1  0
  3 38  1  0
  3 39  1  0
  6 40  1  0
  6 41  1  0
  9 42  1  0
  9 43  1  0
  9 44  1  0
 14 45  1  0
 15 46  1  0
 21 47  1  0
 21 48  1  0
 22 49  1  0
 22 50  1  0
 24 51  1  0
 24 52  1  0
 25 53  1  0
 25 54  1  0
 26 55  1  0
 27 56  1  0
M  CHG  2  12  -1  30  -1
M  END
>  <UniqueID>  (33) 
33

>  <SMILES>  (33) 
CCCn1c(N)c(N(C)C(=O)[N-]c2ccc(S(=O)(=O)N3CCOCC3)cc2)c(=O)[n-]c1=O

>  <Energy>  (33) 
79.39717518087055

>  <Genealogy>  (33) 
CCCn1c(N)c(N(C)C(=O)[N-]c2ccc(S(=O)(=O)N3CCOCC3)cc2)c(=O)[n-]c1=O (protonated)
CCCn1c(N)c(N(C)C(=O)[N-]c2ccc(S(=O)(=O)N3CCOCC3)cc2)c(=O)[n-]c1=O (3D coordinates assigned)
CCCn1c(N)c(N(C)C(=O)[N-]c2ccc(S(=O)(=O)N3CCOCC3)cc2)c(=O)[n-]c1=O (nonaromatic ring conformer: 79.39717518087055 kcal/mol)

>  <smiles>  (33) 
CCCn1c(N)c(N(C)C(=O)Nc2ccc(S(=O)(=O)N3CCOCC3)cc2)c(=O)[nH]c1=O

>  <score_type>  (33) 
oracle

>  <origin>  (33) 
adgpu

>  <m_score__min__energy>  (33) 
-11.41

>  <m_primary>  (33) 
energy

$$$$
33:0
     RDKit          3D

 53 57  0  0  0  0  0  0  0  0999 V2000
   -5.6260   12.1340  -34.6140 C   0  0  0  0  0  0  0  0  0  0  0  0
   -6.2150   13.5000  -34.4910 C   0  0  0  0  0  0  0  0  0  0  0  0
   -5.6250   14.5830  -33.8730 C   0  0  0  0  0  0  0  0  0  0  0  0
   -6.5670   15.5870  -34.0180 C   0  0  0  0  0  0  0  0  0  0  0  0
   -6.4660   16.9890  -33.5550 C   0  0  0  0  0  0  0  0  0  0  0  0
   -5.2480   17.6890  -33.6190 C   0  0  0  0  0  0  0  0  0  0  0  0
   -5.1670   19.0200  -33.1810 C   0  0  0  0  0  0  0  0  0  0  0  0
   -3.9150   19.7220  -33.2520 N   0  0  0  0  0  0  0  0  0  0  0  0
   -2.7140   18.9940  -33.6990 C   0  0  0  0  0  0  0  0  0  0  0  0
   -1.4740   19.8980  -33.7880 C   0  0  0  0  0  0  0  0  0  0  0  0
   -1.3950   20.8020  -32.5890 C   0  0  0  0  0  0  0  0  0  0  0  0
   -0.1700   21.0770  -31.9580 C   0  0  0  0  0  0  0  0  0  0  0  0
   -0.1270   21.9400  -30.8560 C   0  0  0  0  0  0  0  0  0  0  0  0
   -1.3030   22.5460  -30.3900 C   0  0  0  0  0  0  0  0  0  0  0  0
   -1.2800   23.5840  -28.9690 S   0  0  0  0  0  0  0  0  0  0  0  0
   -1.6360   22.8030  -27.7310 O   0  0  0  0  0  0  0  0  0  0  0  0
    0.1000   24.1640  -28.8080 O   0  0  0  0  0  0  0  0  0  0  0  0
   -2.4220   24.8760  -29.1760 N   0  0  0  0  0  0  0  0  0  0  0  0
   -3.7360   24.6710  -29.7090 C   0  0  0  0  0  0  0  0  0  0  0  0
   -4.6610   23.8300  -29.0970 C   0  0  0  0  0  0  0  0  0  0  0  0
   -6.0670   23.8700  -30.0210 S   0  0  0  0  0  0  0  0  0  0  0  0
   -5.4390   24.9470  -31.1530 C   0  0  0  0  0  0  0  0  0  0  0  0
   -4.1680   25.2870  -30.8450 N   0  0  0  0  0  0  0  0  0  0  0  0
   -2.5210   22.2950  -31.0390 C   0  0  0  0  0  0  0  0  0  0  0  0
   -2.5710   21.4160  -32.1310 C   0  0  0  0  0  0  0  0  0  0  0  0
   -3.8600   21.1350  -32.8480 C   0  0  0  0  0  0  0  0  0  0  0  0
   -6.3030   19.6530  -32.6650 C   0  0  0  0  0  0  0  0  0  0  0  0
   -7.5210   18.9590  -32.5640 C   0  0  0  0  0  0  0  0  0  0  0  0
   -8.7510   19.6420  -32.0160 C   0  0  0  0  0  0  0  0  0  0  0  0
   -9.5860   20.0350  -33.0490 F   0  0  0  0  0  0  0  0  0  0  0  0
   -8.3710   20.7560  -31.2930 F   0  0  0  0  0  0  0  0  0  0  0  0
   -9.4630   18.7920  -31.1860 F   0  0  0  0  0  0  0  0  0  0  0  0
   -7.6010   17.6390  -33.0380 C   0  0  0  0  0  0  0  0  0  0  0  0
   -7.6070   15.0940  -34.6540 O   0  0  0  0  0  0  0  0  0  0  0  0
   -7.4350   13.8380  -34.9470 N   0  0  0  0  0  0  0  0  0  0  0  0
   -5.4475   11.7200  -33.6106 H   0  0  0  0  0  0  0  0  0  0  0  0
   -6.3230   11.4821  -35.1610 H   0  0  0  0  0  0  0  0  0  0  0  0
   -4.6735   12.1933  -35.1610 H   0  0  0  0  0  0  0  0  0  0  0  0
   -4.6418   14.6361  -33.3826 H   0  0  0  0  0  0  0  0  0  0  0  0
   -4.3517   17.1895  -34.0154 H   0  0  0  0  0  0  0  0  0  0  0  0
   -2.5080   18.1825  -32.9855 H   0  0  0  0  0  0  0  0  0  0  0  0
   -2.9162   18.6054  -34.7080 H   0  0  0  0  0  0  0  0  0  0  0  0
   -0.5710   19.2711  -33.8290 H   0  0  0  0  0  0  0  0  0  0  0  0
   -1.5480   20.5156  -34.6953 H   0  0  0  0  0  0  0  0  0  0  0  0
    0.7559   20.6140  -32.3299 H   0  0  0  0  0  0  0  0  0  0  0  0
    0.8309   22.1430  -30.3548 H   0  0  0  0  0  0  0  0  0  0  0  0
   -4.5022   23.2464  -28.1782 H   0  0  0  0  0  0  0  0  0  0  0  0
   -5.9903   25.3237  -32.0272 H   0  0  0  0  0  0  0  0  0  0  0  0
   -3.4399   22.7891  -30.6904 H   0  0  0  0  0  0  0  0  0  0  0  0
   -4.7045   21.3552  -32.1784 H   0  0  0  0  0  0  0  0  0  0  0  0
   -3.9190   21.7689  -33.7451 H   0  0  0  0  0  0  0  0  0  0  0  0
   -6.2425   20.7009  -32.3361 H   0  0  0  0  0  0  0  0  0  0  0  0
   -8.5633   17.1072  -33.0044 H   0  0  0  0  0  0  0  0  0  0  0  0
  1  2  1  0
  2  3  1  0
  3  4  2  0
  4  5  1  0
  5  6  2  0
  6  7  1  0
  7  8  1  0
  8  9  1  0
  9 10  1  0
 10 11  1  0
 11 12  2  0
 12 13  1  0
 13 14  2  0
 14 15  1  0
 15 16  2  0
 15 17  2  0
 15 18  1  0
 18 19  1  0
 19 20  2  0
 20 21  1  0
 21 22  1  0
 22 23  2  0
 14 24  1  0
 24 25  2  0
 25 26  1  0
  7 27  2  0
 27 28  1  0
 28 29  1  0
 29 30  1  0
 29 31  1  0
 29 32  1  0
 28 33  2  0
  4 34  1  0
 34 35  1  0
 35  2  2  0
 33  5  1  0
 26  8  1  0
 25 11  1  0
 23 19  1  0
  1 36  1  0
  1 37  1  0
  1 38  1  0
  3 39  1  0
  6 40  1  0
  9 41  1  0
  9 42  1  0
 10 43  1  0
 10 44  1  0
 12 45  1  0
 13 46  1  0
 20 47  1  0
 22 48  1  0
 24 49  1  0
 26 50  1  0
 26 51  1  0
 27 52  1  0
 33 53  1  0
M  CHG  1  18  -1
M  END
>  <UniqueID>  (34) 
34

>  <SMILES>  (34) 
Cc1cc(-c2cc(N3CCc4ccc(S(=O)(=O)[N-]c5cscn5)cc4C3)cc(C(F)(F)F)c2)on1

>  <Energy>  (34) 
126.4643334472732

>  <Genealogy>  (34) 
Cc1cc(-c2cc(N3CCc4ccc(S(=O)(=O)[N-]c5cscn5)cc4C3)cc(C(F)(F)F)c2)on1 (protonated)
Cc1cc(-c2cc(N3CCc4ccc(S(=O)(=O)[N-]c5cscn5)cc4C3)cc(C(F)(F)F)c2)on1 (3D coordinates assigned)
Cc1cc(-c2cc(N3CCc4ccc(S(=O)(=O)[N-]c5cscn5)cc4C3)cc(C(F)(F)F)c2)on1 (nonaromatic ring conformer: 126.4643334472732 kcal/mol)

>  <smiles>  (34) 
Cc1cc(-c2cc(N3CCc4ccc(S(=O)(=O)Nc5cscn5)cc4C3)cc(C(F)(F)F)c2)on1

>  <score_type>  (34) 
oracle

>  <origin>  (34) 
adgpu

>  <m_score__min__energy>  (34) 
-11.69

>  <m_primary>  (34) 
energy

$$$$
34:0
     RDKit          3D

 45 47  0  0  0  0  0  0  0  0999 V2000
   -2.5960   21.0210  -27.5520 C   0  0  0  0  0  0  0  0  0  0  0  0
   -2.2470   22.4110  -27.9960 C   0  0  0  0  0  0  0  0  0  0  0  0
   -1.0470   23.0110  -27.5850 C   0  0  0  0  0  0  0  0  0  0  0  0
   -0.7190   24.2950  -28.0230 C   0  0  0  0  0  0  0  0  0  0  0  0
   -1.5740   24.9840  -28.8880 C   0  0  0  0  0  0  0  0  0  0  0  0
   -1.2300   26.2610  -29.3200 O   0  0  0  0  0  0  0  0  0  0  0  0
   -2.7670   24.3900  -29.3270 C   0  0  0  0  0  0  0  0  0  0  0  0
   -3.6090   25.1160  -30.2360 N   0  0  0  0  0  0  0  0  0  0  0  0
   -5.3390   25.0160  -30.2940 S   0  0  0  0  0  0  0  0  0  0  0  0
   -5.8930   25.3230  -28.9310 O   0  0  0  0  0  0  0  0  0  0  0  0
   -5.8570   26.0310  -31.2740 O   0  0  0  0  0  0  0  0  0  0  0  0
   -5.8360   23.4110  -30.8200 C   0  0  0  0  0  0  0  0  0  0  0  0
   -4.9090   22.5590  -31.4370 C   0  0  0  0  0  0  0  0  0  0  0  0
   -5.2930   21.2770  -31.8400 C   0  0  0  0  0  0  0  0  0  0  0  0
   -6.6090   20.8390  -31.6360 C   0  0  0  0  0  0  0  0  0  0  0  0
   -7.0910   19.2200  -32.1320 S   0  0  0  0  0  0  0  0  0  0  0  0
   -6.7140   18.2280  -31.0650 O   0  0  0  0  0  0  0  0  0  0  0  0
   -8.5820   19.1990  -32.3230 O   0  0  0  0  0  0  0  0  0  0  0  0
   -6.2950   18.7920  -33.6280 N   0  0  0  0  0  0  0  0  0  0  0  0
   -4.8600   19.1610  -33.5980 C   0  0  0  0  0  0  0  0  0  0  0  0
   -3.9380   17.9320  -33.5250 C   0  0  0  0  0  0  0  0  0  0  0  0
   -4.1390   17.0300  -34.6010 O   0  0  0  0  0  0  0  0  0  0  0  0
   -5.5050   16.8680  -34.9680 C   0  0  0  0  0  0  0  0  0  0  0  0
   -6.5160   17.3640  -33.9200 C   0  0  0  0  0  0  0  0  0  0  0  0
   -7.5350   21.6920  -31.0210 C   0  0  0  0  0  0  0  0  0  0  0  0
   -7.1520   22.9750  -30.6210 C   0  0  0  0  0  0  0  0  0  0  0  0
   -3.0990   23.0990  -28.8720 C   0  0  0  0  0  0  0  0  0  0  0  0
   -2.6066   20.9790  -26.4529 H   0  0  0  0  0  0  0  0  0  0  0  0
   -3.5898   20.7512  -27.9388 H   0  0  0  0  0  0  0  0  0  0  0  0
   -1.8476   20.3137  -27.9388 H   0  0  0  0  0  0  0  0  0  0  0  0
   -0.3631   22.4681  -26.9160 H   0  0  0  0  0  0  0  0  0  0  0  0
    0.2160   24.7666  -27.6862 H   0  0  0  0  0  0  0  0  0  0  0  0
   -3.8768   22.9005  -31.6043 H   0  0  0  0  0  0  0  0  0  0  0  0
   -4.5608   20.6100  -32.3185 H   0  0  0  0  0  0  0  0  0  0  0  0
   -4.6220   19.7270  -34.5107 H   0  0  0  0  0  0  0  0  0  0  0  0
   -4.6881   19.7625  -32.6932 H   0  0  0  0  0  0  0  0  0  0  0  0
   -2.8930   18.2749  -33.5442 H   0  0  0  0  0  0  0  0  0  0  0  0
   -4.1741   17.3954  -32.5942 H   0  0  0  0  0  0  0  0  0  0  0  0
   -5.6774   17.4250  -35.9007 H   0  0  0  0  0  0  0  0  0  0  0  0
   -5.6721   15.7858  -35.0726 H   0  0  0  0  0  0  0  0  0  0  0  0
   -7.5363   17.2270  -34.3075 H   0  0  0  0  0  0  0  0  0  0  0  0
   -6.3825   16.7857  -32.9939 H   0  0  0  0  0  0  0  0  0  0  0  0
   -8.5670   21.3505  -30.8525 H   0  0  0  0  0  0  0  0  0  0  0  0
   -7.8861   23.6443  -30.1486 H   0  0  0  0  0  0  0  0  0  0  0  0
   -4.0343   22.6265  -29.2066 H   0  0  0  0  0  0  0  0  0  0  0  0
  1  2  1  0
  2  3  2  0
  3  4  1  0
  4  5  2  0
  5  6  1  0
  5  7  1  0
  7  8  1  0
  8  9  1  0
  9 10  2  0
  9 11  2  0
  9 12  1  0
 12 13  2  0
 13 14  1  0
 14 15  2  0
 15 16  1  0
 16 17  2  0
 16 18  2  0
 16 19  1  0
 19 20  1  0
 20 21  1  0
 21 22  1  0
 22 23  1  0
 23 24  1  0
 15 25  1  0
 25 26  2  0
  7 27  2  0
 27  2  1  0
 26 12  1  0
 24 19  1  0
  1 28  1  0
  1 29  1  0
  1 30  1  0
  3 31  1  0
  4 32  1  0
 13 33  1  0
 14 34  1  0
 20 35  1  0
 20 36  1  0
 21 37  1  0
 21 38  1  0
 23 39  1  0
 23 40  1  0
 24 41  1  0
 24 42  1  0
 25 43  1  0
 26 44  1  0
 27 45  1  0
M  CHG  2   6  -1   8  -1
M  END
>  <UniqueID>  (35) 
35

>  <SMILES>  (35) 
Cc1ccc([O-])c([N-]S(=O)(=O)c2ccc(S(=O)(=O)N3CCOCC3)cc2)c1

>  <Energy>  (35) 
60.90543918374098

>  <Genealogy>  (35) 
Cc1ccc([O-])c([N-]S(=O)(=O)c2ccc(S(=O)(=O)N3CCOCC3)cc2)c1 (protonated)
Cc1ccc([O-])c([N-]S(=O)(=O)c2ccc(S(=O)(=O)N3CCOCC3)cc2)c1 (3D coordinates assigned)
Cc1ccc([O-])c([N-]S(=O)(=O)c2ccc(S(=O)(=O)N3CCOCC3)cc2)c1 (nonaromatic ring conformer: 60.90543918374098 kcal/mol)

>  <smiles>  (35) 
Cc1ccc(O)c(NS(=O)(=O)c2ccc(S(=O)(=O)N3CCOCC3)cc2)c1

>  <score_type>  (35) 
oracle

>  <origin>  (35) 
adgpu

>  <m_score__min__energy>  (35) 
-14.449999999999999

>  <m_primary>  (35) 
energy

$$$$
35:0
     RDKit          3D

 45 49  0  0  0  0  0  0  0  0999 V2000
   -3.3740   18.7160  -26.1070 N   0  0  0  0  0  0  0  0  0  0  0  0
   -3.0120   19.6210  -26.7310 C   0  0  0  0  0  0  0  0  0  0  0  0
   -2.5620   20.7460  -27.5080 C   0  0  0  0  0  0  0  0  0  0  0  0
   -1.2100   21.1120  -27.4930 C   0  0  0  0  0  0  0  0  0  0  0  0
   -0.7690   22.1900  -28.2670 C   0  0  0  0  0  0  0  0  0  0  0  0
   -1.6740   22.8990  -29.0620 C   0  0  0  0  0  0  0  0  0  0  0  0
   -3.0260   22.5330  -29.0880 C   0  0  0  0  0  0  0  0  0  0  0  0
   -4.1410   23.3910  -30.1470 S   0  0  0  0  0  0  0  0  0  0  0  0
   -4.9380   24.4050  -29.3760 O   0  0  0  0  0  0  0  0  0  0  0  0
   -3.3340   24.1130  -31.1900 O   0  0  0  0  0  0  0  0  0  0  0  0
   -5.2530   22.2650  -30.9430 C   0  0  0  0  0  0  0  0  0  0  0  0
   -6.5830   22.4770  -30.7760 N   0  0  0  0  0  0  0  0  0  0  0  0
   -7.5120   21.6780  -31.3540 C   0  0  0  0  0  0  0  0  0  0  0  0
   -8.8740   21.9310  -31.1560 C   0  0  0  0  0  0  0  0  0  0  0  0
   -9.8330   21.1080  -31.7530 C   0  0  0  0  0  0  0  0  0  0  0  0
   -9.4330   20.0300  -32.5490 C   0  0  0  0  0  0  0  0  0  0  0  0
   -8.0740   19.7700  -32.7500 C   0  0  0  0  0  0  0  0  0  0  0  0
   -7.1020   20.5950  -32.1520 C   0  0  0  0  0  0  0  0  0  0  0  0
   -5.7240   20.3800  -32.3210 C   0  0  0  0  0  0  0  0  0  0  0  0
   -5.3220   19.4120  -33.0290 O   0  0  0  0  0  0  0  0  0  0  0  0
   -4.8170   21.2120  -31.7150 N   0  0  0  0  0  0  0  0  0  0  0  0
   -3.4120   20.9740  -31.9190 C   0  0  0  0  0  0  0  0  0  0  0  0
   -2.6550   20.2870  -30.9370 C   0  0  0  0  0  0  0  0  0  0  0  0
   -1.2750   20.0800  -31.1130 C   0  0  0  0  0  0  0  0  0  0  0  0
   -0.6880   20.5600  -32.2820 C   0  0  0  0  0  0  0  0  0  0  0  0
    0.6060   20.4980  -32.6320 N   0  0  0  0  0  0  0  0  0  0  0  0
    0.6940   21.1130  -33.8340 C   0  0  0  0  0  0  0  0  0  0  0  0
   -0.5530   21.5670  -34.2490 C   0  0  0  0  0  0  0  0  0  0  0  0
   -1.4210   21.2030  -33.2440 C   0  0  0  0  0  0  0  0  0  0  0  0
   -2.7890   21.4220  -33.1030 C   0  0  0  0  0  0  0  0  0  0  0  0
   -3.4700   21.4590  -28.3000 C   0  0  0  0  0  0  0  0  0  0  0  0
   -0.4953   20.5515  -26.8725 H   0  0  0  0  0  0  0  0  0  0  0  0
    0.2918   22.4805  -28.2501 H   0  0  0  0  0  0  0  0  0  0  0  0
   -1.3236   23.7468  -29.6690 H   0  0  0  0  0  0  0  0  0  0  0  0
   -9.1901   22.7784  -30.5299 H   0  0  0  0  0  0  0  0  0  0  0  0
  -10.9032   21.3084  -31.5966 H   0  0  0  0  0  0  0  0  0  0  0  0
  -10.1900   19.3846  -33.0185 H   0  0  0  0  0  0  0  0  0  0  0  0
   -7.7638   18.9202  -33.3758 H   0  0  0  0  0  0  0  0  0  0  0  0
   -3.1511   19.9125  -30.0295 H   0  0  0  0  0  0  0  0  0  0  0  0
   -0.6781   19.5559  -30.3520 H   0  0  0  0  0  0  0  0  0  0  0  0
    1.3890   20.0720  -32.0870 H   0  0  0  0  0  0  0  0  0  0  0  0
    1.6257   21.2370  -34.4054 H   0  0  0  0  0  0  0  0  0  0  0  0
   -0.7941   22.1017  -35.1796 H   0  0  0  0  0  0  0  0  0  0  0  0
   -3.3661   21.9287  -33.8905 H   0  0  0  0  0  0  0  0  0  0  0  0
   -4.5333   21.1773  -28.3050 H   0  0  0  0  0  0  0  0  0  0  0  0
  1  2  3  0
  2  3  1  0
  3  4  2  0
  4  5  1  0
  5  6  2  0
  6  7  1  0
  7  8  1  0
  8  9  2  0
  8 10  2  0
  8 11  1  0
 11 12  2  0
 12 13  1  0
 13 14  2  0
 14 15  1  0
 15 16  2  0
 16 17  1  0
 17 18  2  0
 18 19  1  0
 19 20  2  0
 19 21  1  0
 21 22  1  0
 22 23  2  0
 23 24  1  0
 24 25  2  0
 25 26  1  0
 26 27  1  0
 27 28  2  0
 28 29  1  0
 29 30  2  0
  7 31  2  0
 31  3  1  0
 21 11  1  0
 30 22  1  0
 18 13  1  0
 29 25  1  0
  4 32  1  0
  5 33  1  0
  6 34  1  0
 14 35  1  0
 15 36  1  0
 16 37  1  0
 17 38  1  0
 23 39  1  0
 24 40  1  0
 26 41  1  0
 27 42  1  0
 28 43  1  0
 30 44  1  0
 31 45  1  0
M  END
>  <UniqueID>  (36) 
36

>  <SMILES>  (36) 
N#Cc1cccc(S(=O)(=O)c2nc3ccccc3c(=O)n2-c2ccc3[nH]ccc3c2)c1

>  <Energy>  (36) 
95.74095835365671

>  <Genealogy>  (36) 
N#Cc1cccc(S(=O)(=O)c2nc3ccccc3c(=O)n2-c2ccc3[nH]ccc3c2)c1 (3D coordinates assigned)
N#Cc1cccc(S(=O)(=O)c2nc3ccccc3c(=O)n2-c2ccc3[nH]ccc3c2)c1 (optimized conformer: 95.74095835365671 kcal/mol)

>  <smiles>  (36) 
N#Cc1cccc(S(=O)(=O)c2nc3ccccc3c(=O)n2-c2ccc3[nH]ccc3c2)c1

>  <score_type>  (36) 
oracle

>  <origin>  (36) 
adgpu

>  <m_score__min__energy>  (36) 
-9.8200000000000003

>  <m_primary>  (36) 
energy

$$$$
36:0
     RDKit          3D

 50 54  0  0  0  0  0  0  0  0999 V2000
   -6.8860   15.6610  -33.8870 C   0  0  0  0  0  0  0  0  0  0  0  0
   -5.9240   16.7550  -33.6590 N   0  0  0  0  0  0  0  0  0  0  0  0
   -6.2750   17.8610  -32.9180 C   0  0  0  0  0  0  0  0  0  0  0  0
   -7.9330   18.0860  -32.2480 S   0  0  0  0  0  0  0  0  0  0  0  0
   -8.2100   19.7070  -33.0470 C   0  0  0  0  0  0  0  0  0  0  0  0
   -7.7170   20.8350  -32.1830 C   0  0  0  0  0  0  0  0  0  0  0  0
   -8.4670   21.2600  -31.0760 C   0  0  0  0  0  0  0  0  0  0  0  0
   -7.9930   22.2880  -30.2600 C   0  0  0  0  0  0  0  0  0  0  0  0
   -6.7670   22.8980  -30.5380 C   0  0  0  0  0  0  0  0  0  0  0  0
   -5.9970   22.4810  -31.6370 C   0  0  0  0  0  0  0  0  0  0  0  0
   -4.7290   23.1050  -31.9150 N   0  0  0  0  0  0  0  0  0  0  0  0
   -3.9900   22.6700  -32.8230 O   0  0  0  0  0  0  0  0  0  0  0  0
   -4.3060   24.1870  -31.1790 O   0  0  0  0  0  0  0  0  0  0  0  0
   -6.4820   21.4440  -32.4560 C   0  0  0  0  0  0  0  0  0  0  0  0
   -5.3700   18.8470  -32.6920 N   0  0  0  0  0  0  0  0  0  0  0  0
   -4.1220   18.8010  -33.2130 C   0  0  0  0  0  0  0  0  0  0  0  0
   -3.2240   19.8470  -32.9700 C   0  0  0  0  0  0  0  0  0  0  0  0
   -1.9450   19.8180  -33.5370 C   0  0  0  0  0  0  0  0  0  0  0  0
   -0.8090   21.1750  -33.2540 S   0  0  0  0  0  0  0  0  0  0  0  0
   -1.2860   21.3120  -31.5350 C   0  0  0  0  0  0  0  0  0  0  0  0
   -0.8730   20.4350  -30.5830 N   0  0  0  0  0  0  0  0  0  0  0  0
   -1.4320   20.9350  -29.4660 C   0  0  0  0  0  0  0  0  0  0  0  0
   -1.3360   20.4350  -28.1690 C   0  0  0  0  0  0  0  0  0  0  0  0
   -2.0050   21.1380  -27.1480 C   0  0  0  0  0  0  0  0  0  0  0  0
   -2.7410   22.3070  -27.4460 C   0  0  0  0  0  0  0  0  0  0  0  0
   -2.8150   22.7860  -28.7680 C   0  0  0  0  0  0  0  0  0  0  0  0
   -2.1420   22.0630  -29.7510 C   0  0  0  0  0  0  0  0  0  0  0  0
   -2.0620   22.3170  -31.0620 N   0  0  0  0  0  0  0  0  0  0  0  0
   -1.5600   18.7380  -34.3390 C   0  0  0  0  0  0  0  0  0  0  0  0
   -2.4520   17.6900  -34.5820 C   0  0  0  0  0  0  0  0  0  0  0  0
   -3.7430   17.7160  -34.0210 C   0  0  0  0  0  0  0  0  0  0  0  0
   -4.6790   16.6910  -34.2390 C   0  0  0  0  0  0  0  0  0  0  0  0
   -4.3710   15.7110  -34.9750 O   0  0  0  0  0  0  0  0  0  0  0  0
   -7.2311   15.2685  -32.9191 H   0  0  0  0  0  0  0  0  0  0  0  0
   -7.7467   16.0423  -34.4560 H   0  0  0  0  0  0  0  0  0  0  0  0
   -6.3978   14.8561  -34.4560 H   0  0  0  0  0  0  0  0  0  0  0  0
   -7.6727   19.7297  -34.0066 H   0  0  0  0  0  0  0  0  0  0  0  0
   -9.2912   19.8365  -33.2025 H   0  0  0  0  0  0  0  0  0  0  0  0
   -9.4315   20.7815  -30.8507 H   0  0  0  0  0  0  0  0  0  0  0  0
   -8.5865   22.6192  -29.3951 H   0  0  0  0  0  0  0  0  0  0  0  0
   -6.4021   23.7102  -29.8921 H   0  0  0  0  0  0  0  0  0  0  0  0
   -5.8876   21.1076  -33.3182 H   0  0  0  0  0  0  0  0  0  0  0  0
   -3.5239   20.6922  -32.3330 H   0  0  0  0  0  0  0  0  0  0  0  0
   -0.7588   19.5245  -27.9503 H   0  0  0  0  0  0  0  0  0  0  0  0
   -1.9542   20.7744  -26.1111 H   0  0  0  0  0  0  0  0  0  0  0  0
   -3.2596   22.8464  -26.6397 H   0  0  0  0  0  0  0  0  0  0  0  0
   -3.3820   23.6956  -29.0152 H   0  0  0  0  0  0  0  0  0  0  0  0
   -2.4840   23.1100  -31.5940 H   0  0  0  0  0  0  0  0  0  0  0  0
   -0.5523   18.7138  -34.7795 H   0  0  0  0  0  0  0  0  0  0  0  0
   -2.1448   16.8430  -35.2130 H   0  0  0  0  0  0  0  0  0  0  0  0
  1  2  1  0
  2  3  1  0
  3  4  1  0
  4  5  1  0
  5  6  1  0
  6  7  2  0
  7  8  1  0
  8  9  2  0
  9 10  1  0
 10 11  1  0
 11 12  2  0
 11 13  1  0
 10 14  2  0
  3 15  2  0
 15 16  1  0
 16 17  2  0
 17 18  1  0
 18 19  1  0
 19 20  1  0
 20 21  2  0
 21 22  1  0
 22 23  2  0
 23 24  1  0
 24 25  2  0
 25 26  1  0
 26 27  2  0
 27 28  1  0
 18 29  2  0
 29 30  1  0
 30 31  2  0
 31 32  1  0
 32 33  2  0
 32  2  1  0
 14  6  1  0
 31 16  1  0
 28 20  1  0
 27 22  1  0
  1 34  1  0
  1 35  1  0
  1 36  1  0
  5 37  1  0
  5 38  1  0
  7 39  1  0
  8 40  1  0
  9 41  1  0
 14 42  1  0
 17 43  1  0
 23 44  1  0
 24 45  1  0
 25 46  1  0
 26 47  1  0
 28 48  1  0
 29 49  1  0
 30 50  1  0
M  CHG  2  11   1  13  -1
M  END
>  <UniqueID>  (37) 
37

>  <SMILES>  (37) 
Cn1c(SCc2cccc([N+](=O)[O-])c2)nc2cc(Sc3nc4ccccc4[nH]3)ccc2c1=O

>  <Energy>  (37) 
92.25051060469072

>  <Genealogy>  (37) 
Cn1c(SCc2cccc([N+](=O)[O-])c2)nc2cc(Sc3nc4ccccc4[nH]3)ccc2c1=O (3D coordinates assigned)
Cn1c(SCc2cccc([N+](=O)[O-])c2)nc2cc(Sc3nc4ccccc4[nH]3)ccc2c1=O (optimized conformer: 92.25051060469072 kcal/mol)

>  <smiles>  (37) 
Cn1c(SCc2cccc([N+](=O)[O-])c2)nc2cc(Sc3nc4ccccc4[nH]3)ccc2c1=O

>  <score_type>  (37) 
oracle

>  <origin>  (37) 
adgpu

>  <m_score__min__energy>  (37) 
-11.279999999999999

>  <m_primary>  (37) 
energy

$$$$
37:0
     RDKit          3D

 47 49  0  0  0  0  0  0  0  0999 V2000
   -3.9170   25.3870  -30.5380 N   0  0  0  0  0  0  0  0  0  0  0  0
   -5.3140   25.1140  -30.5820 C   0  0  0  0  0  0  0  0  0  0  0  0
   -6.1300   25.9680  -30.1310 O   0  0  0  0  0  0  0  0  0  0  0  0
   -5.8020   23.8230  -31.1190 C   0  0  0  0  0  0  0  0  0  0  0  0
   -7.1820   23.5560  -31.2210 C   0  0  0  0  0  0  0  0  0  0  0  0
   -7.6310   22.3540  -31.7790 C   0  0  0  0  0  0  0  0  0  0  0  0
   -6.7120   21.4050  -32.2380 C   0  0  0  0  0  0  0  0  0  0  0  0
   -5.3350   21.6460  -32.1260 C   0  0  0  0  0  0  0  0  0  0  0  0
   -4.1800   20.4410  -32.6830 S   0  0  0  0  0  0  0  0  0  0  0  0
   -4.2660   19.1990  -31.8410 O   0  0  0  0  0  0  0  0  0  0  0  0
   -4.5110   20.0800  -34.1020 O   0  0  0  0  0  0  0  0  0  0  0  0
   -2.5600   21.0580  -32.6090 N   0  0  0  0  0  0  0  0  0  0  0  0
   -1.7610   21.1570  -31.4210 C   0  0  0  0  0  0  0  0  0  0  0  0
   -0.9430   20.0710  -31.0630 C   0  0  0  0  0  0  0  0  0  0  0  0
   -0.1200   20.1400  -29.9320 C   0  0  0  0  0  0  0  0  0  0  0  0
   -0.0900   21.3080  -29.1640 C   0  0  0  0  0  0  0  0  0  0  0  0
   -0.9070   22.3990  -29.5080 C   0  0  0  0  0  0  0  0  0  0  0  0
   -0.7970   23.8990  -28.5900 S   0  0  0  0  0  0  0  0  0  0  0  0
   -1.4260   24.9980  -29.3970 O   0  0  0  0  0  0  0  0  0  0  0  0
    0.6450   24.2420  -28.3440 O   0  0  0  0  0  0  0  0  0  0  0  0
   -1.6480   23.7220  -27.0740 N   0  0  0  0  0  0  0  0  0  0  0  0
   -2.1710   25.0140  -26.5600 C   0  0  0  0  0  0  0  0  0  0  0  0
   -3.6830   25.0200  -26.3100 C   0  0  0  0  0  0  0  0  0  0  0  0
   -4.4070   24.4240  -27.5130 C   0  0  0  0  0  0  0  0  0  0  0  0
   -3.9580   22.9820  -27.7930 C   0  0  0  0  0  0  0  0  0  0  0  0
   -2.6210   22.6110  -27.1150 C   0  0  0  0  0  0  0  0  0  0  0  0
   -1.7600   22.3100  -30.6180 C   0  0  0  0  0  0  0  0  0  0  0  0
   -4.8850   22.8530  -31.5690 C   0  0  0  0  0  0  0  0  0  0  0  0
   -3.4740   25.6760  -29.6350 H   0  0  0  0  0  0  0  0  0  0  0  0
   -7.9104   24.2969  -30.8598 H   0  0  0  0  0  0  0  0  0  0  0  0
   -8.7100   22.1549  -31.8569 H   0  0  0  0  0  0  0  0  0  0  0  0
   -7.0701   20.4673  -32.6880 H   0  0  0  0  0  0  0  0  0  0  0  0
   -0.9495   19.1584  -31.6771 H   0  0  0  0  0  0  0  0  0  0  0  0
    0.5012   19.2776  -29.6486 H   0  0  0  0  0  0  0  0  0  0  0  0
    0.5739   21.3733  -28.2893 H   0  0  0  0  0  0  0  0  0  0  0  0
   -1.6627   25.2398  -25.6110 H   0  0  0  0  0  0  0  0  0  0  0  0
   -1.9741   25.7681  -27.3362 H   0  0  0  0  0  0  0  0  0  0  0  0
   -3.9077   24.4214  -25.4149 H   0  0  0  0  0  0  0  0  0  0  0  0
   -4.0222   26.0552  -26.1577 H   0  0  0  0  0  0  0  0  0  0  0  0
   -5.4890   24.4278  -27.3150 H   0  0  0  0  0  0  0  0  0  0  0  0
   -4.1640   25.0348  -28.3950 H   0  0  0  0  0  0  0  0  0  0  0  0
   -4.7366   22.2973  -27.4256 H   0  0  0  0  0  0  0  0  0  0  0  0
   -3.8053   22.8955  -28.8789 H   0  0  0  0  0  0  0  0  0  0  0  0
   -2.8311   22.2949  -26.0825 H   0  0  0  0  0  0  0  0  0  0  0  0
   -2.1677   21.8084  -27.7154 H   0  0  0  0  0  0  0  0  0  0  0  0
   -2.4313   23.1468  -30.8610 H   0  0  0  0  0  0  0  0  0  0  0  0
   -3.8051   23.0436  -31.4829 H   0  0  0  0  0  0  0  0  0  0  0  0
  1  2  1  0
  2  3  2  0
  2  4  1  0
  4  5  2  0
  5  6  1  0
  6  7  2  0
  7  8  1  0
  8  9  1  0
  9 10  2  0
  9 11  2  0
  9 12  1  0
 12 13  1  0
 13 14  2  0
 14 15  1  0
 15 16  2  0
 16 17  1  0
 17 18  1  0
 18 19  2  0
 18 20  2  0
 18 21  1  0
 21 22  1  0
 22 23  1  0
 23 24  1  0
 24 25  1  0
 25 26  1  0
 17 27  2  0
  8 28  2  0
 28  4  1  0
 27 13  1  0
 26 21  1  0
  1 29  1  0
  5 30  1  0
  6 31  1  0
  7 32  1  0
 14 33  1  0
 15 34  1  0
 16 35  1  0
 22 36  1  0
 22 37  1  0
 23 38  1  0
 23 39  1  0
 24 40  1  0
 24 41  1  0
 25 42  1  0
 25 43  1  0
 26 44  1  0
 26 45  1  0
 27 46  1  0
 28 47  1  0
M  CHG  2   1  -1  12  -1
M  END
>  <UniqueID>  (38) 
38

>  <SMILES>  (38) 
[NH-]C(=O)c1cccc(S(=O)(=O)[N-]c2cccc(S(=O)(=O)N3CCCCC3)c2)c1

>  <Energy>  (38) 
56.365635113356916

>  <Genealogy>  (38) 
[NH-]C(=O)c1cccc(S(=O)(=O)[N-]c2cccc(S(=O)(=O)N3CCCCC3)c2)c1 (protonated)
[NH-]C(=O)c1cccc(S(=O)(=O)[N-]c2cccc(S(=O)(=O)N3CCCCC3)c2)c1 (3D coordinates assigned)
[NH-]C(=O)c1cccc(S(=O)(=O)[N-]c2cccc(S(=O)(=O)N3CCCCC3)c2)c1 (nonaromatic ring conformer: 56.365635113356916 kcal/mol)

>  <smiles>  (38) 
NC(=O)c1cccc(S(=O)(=O)Nc2cccc(S(=O)(=O)N3CCCCC3)c2)c1

>  <score_type>  (38) 
oracle

>  <origin>  (38) 
adgpu

>  <m_score__min__energy>  (38) 
-12.75

>  <m_primary>  (38) 
energy

$$$$
38:0
     RDKit          3D

 57 61  0  0  1  0  0  0  0  0999 V2000
   -0.8030   26.4190  -23.6070 C   0  0  0  0  0  0  0  0  0  0  0  0
   -1.4930   26.8790  -24.8740 C   0  0  0  0  0  0  0  0  0  0  0  0
   -2.0090   25.6820  -25.6500 C   0  0  0  0  0  0  0  0  0  0  0  0
   -0.8470   24.9460  -26.3270 C   0  0  0  0  0  0  0  0  0  0  0  0
   -1.0640   24.9500  -28.1040 S   0  0  0  0  0  0  0  0  0  0  0  0
    0.1050   24.2800  -28.7690 O   0  0  0  0  0  0  0  0  0  0  0  0
   -0.9810   26.4110  -28.5250 O   0  0  0  0  0  0  0  0  0  0  0  0
   -2.5970   24.2890  -28.5740 C   0  0  0  0  0  0  0  0  0  0  0  0
   -3.3880   23.5220  -27.7390 C   0  0  0  0  0  0  0  0  0  0  0  0
   -4.6060   23.0000  -28.1210 C   0  0  0  0  0  0  0  0  0  0  0  0
   -5.0480   23.2620  -29.4030 C   0  0  0  0  0  0  0  0  0  0  0  0
   -6.2920   22.7700  -29.8980 N   0  0  0  0  0  0  0  0  0  0  0  0
   -6.2580   21.9400  -30.8750 C   0  0  0  0  0  0  0  0  0  0  0  0
   -5.1030   21.5310  -31.4300 N   0  0  0  0  0  0  0  0  0  0  0  0
   -5.1560   20.6580  -32.4510 C   0  0  0  0  0  0  0  0  0  0  0  0
   -4.1610   20.0700  -33.2050 C   0  0  0  0  0  0  0  0  0  0  0  0
   -2.7130   20.2330  -33.1080 C   0  0  0  0  0  0  0  0  0  0  0  0
   -2.0840   19.4650  -32.1220 C   0  0  0  0  0  0  0  0  0  0  0  0
   -0.7000   19.5470  -31.9440 C   0  0  0  0  0  0  0  0  0  0  0  0
    0.0130   20.4010  -32.7650 C   0  0  0  0  0  0  0  0  0  0  0  0
   -0.6120   21.1670  -33.7460 C   0  0  0  0  0  0  0  0  0  0  0  0
    0.1080   22.0300  -34.5740 O   0  0  0  0  0  0  0  0  0  0  0  0
   -1.9960   21.0870  -33.9260 C   0  0  0  0  0  0  0  0  0  0  0  0
   -4.7360   19.2600  -34.1180 N   0  0  0  0  0  0  0  0  0  0  0  0
   -6.0660   19.3310  -33.9480 N   0  0  0  0  0  0  0  0  0  0  0  0
   -6.3190   20.1750  -32.9420 N   0  0  0  0  0  0  0  0  0  0  0  0
   -7.5160   20.5560  -32.4170 C   0  0  0  0  0  0  0  0  0  0  0  0
   -8.6650   20.0500  -32.9360 C   0  0  0  0  0  0  0  0  0  0  0  0
   -9.8630   20.4730  -32.3630 C   0  0  0  0  0  0  0  0  0  0  0  0
   -9.8170   21.3670  -31.3170 C   0  0  0  0  0  0  0  0  0  0  0  0
   -8.6410   21.8730  -30.7990 C   0  0  0  0  0  0  0  0  0  0  0  0
   -7.4540   21.4530  -31.3690 C   0  0  0  0  0  0  0  0  0  0  0  0
   -4.2670   24.0260  -30.2450 C   0  0  0  0  0  0  0  0  0  0  0  0
   -3.0450   24.5480  -29.8570 C   0  0  0  0  0  0  0  0  0  0  0  0
   -1.3579   26.7890  -22.7323 H   0  0  0  0  0  0  0  0  0  0  0  0
   -0.7731   25.3196  -23.5842 H   0  0  0  0  0  0  0  0  0  0  0  0
    0.2233   26.8142  -23.5842 H   0  0  0  0  0  0  0  0  0  0  0  0
   -2.3370   27.5339  -24.6116 H   0  0  0  0  0  0  0  0  0  0  0  0
   -0.7725   27.4290  -25.4972 H   0  0  0  0  0  0  0  0  0  0  0  0
   -2.5207   24.9952  -24.9598 H   0  0  0  0  0  0  0  0  0  0  0  0
   -2.7100   26.0313  -26.4224 H   0  0  0  0  0  0  0  0  0  0  0  0
    0.0980   25.4496  -26.0752 H   0  0  0  0  0  0  0  0  0  0  0  0
   -0.8248   23.9056  -25.9705 H   0  0  0  0  0  0  0  0  0  0  0  0
   -3.0282   23.3180  -26.7197 H   0  0  0  0  0  0  0  0  0  0  0  0
   -5.2065   22.3941  -27.4266 H   0  0  0  0  0  0  0  0  0  0  0  0
   -4.1810   21.8870  -31.0730 H   0  0  0  0  0  0  0  0  0  0  0  0
   -2.6802   18.7949  -31.4852 H   0  0  0  0  0  0  0  0  0  0  0  0
   -0.1925   18.9491  -31.1727 H   0  0  0  0  0  0  0  0  0  0  0  0
    1.1032   20.4775  -32.6400 H   0  0  0  0  0  0  0  0  0  0  0  0
   -0.4210   22.4580  -35.3360 H   0  0  0  0  0  0  0  0  0  0  0  0
   -2.5010   21.6870  -34.6973 H   0  0  0  0  0  0  0  0  0  0  0  0
   -8.6504   19.3366  -33.7731 H   0  0  0  0  0  0  0  0  0  0  0  0
  -10.8269   20.0997  -32.7393 H   0  0  0  0  0  0  0  0  0  0  0  0
  -10.7670   21.6956  -30.8703 H   0  0  0  0  0  0  0  0  0  0  0  0
   -8.6488   22.5860  -29.9614 H   0  0  0  0  0  0  0  0  0  0  0  0
   -4.6291   24.2282  -31.2638 H   0  0  0  0  0  0  0  0  0  0  0  0
   -2.4449   25.1539  -30.5518 H   0  0  0  0  0  0  0  0  0  0  0  0
  1  2  1  0
  2  3  1  0
  3  4  1  0
  4  5  1  0
  5  6  2  0
  5  7  2  0
  5  8  1  0
  8  9  2  0
  9 10  1  0
 10 11  2  0
 11 12  1  0
 12 13  2  0
 13 14  1  0
 14 15  1  0
 15 16  2  0
 16 17  1  0
 17 18  2  0
 18 19  1  0
 19 20  2  0
 20 21  1  0
 21 22  1  0
 21 23  2  0
 16 24  1  0
 24 25  2  0
 25 26  1  0
 26 27  1  0
 27 28  2  0
 28 29  1  0
 29 30  2  0
 30 31  1  0
 31 32  2  0
 11 33  1  0
 33 34  2  0
 34  8  1  0
 32 13  1  0
 26 15  1  0
 32 27  1  0
 23 17  1  0
  1 35  1  0
  1 36  1  0
  1 37  1  0
  2 38  1  0
  2 39  1  0
  3 40  1  0
  3 41  1  0
  4 42  1  0
  4 43  1  0
  9 44  1  0
 10 45  1  0
 14 46  1  0
 18 47  1  0
 19 48  1  0
 20 49  1  0
 22 50  1  0
 23 51  1  0
 28 52  1  0
 29 53  1  0
 30 54  1  0
 31 55  1  0
 33 56  1  0
 34 57  1  0
M  END
>  <smiles>  (39) 
CCCCS(=O)(=O)c1ccc(N=c2[nH]c3c(-c4cccc(O)c4)nnn3c3ccccc23)cc1

>  <score_type>  (39) 
oracle

>  <origin>  (39) 
adgpu

>  <m_score__min__energy>  (39) 
-10.92

>  <m_primary>  (39) 
energy

$$$$
39:0
     RDKit          3D

 64 67  0  0  0  0  0  0  0  0999 V2000
   -9.0820   20.8360  -32.0050 C   0  0  0  0  0  0  0  0  0  0  0  0
   -7.9900   19.8180  -32.1480 C   0  0  0  0  0  0  0  0  0  0  0  0
   -8.3040   18.4610  -32.3130 C   0  0  0  0  0  0  0  0  0  0  0  0
   -7.2850   17.5090  -32.3970 C   0  0  0  0  0  0  0  0  0  0  0  0
   -5.9480   17.9000  -32.3020 C   0  0  0  0  0  0  0  0  0  0  0  0
   -5.6180   19.2530  -32.1260 C   0  0  0  0  0  0  0  0  0  0  0  0
   -4.1770   19.6830  -32.0260 C   0  0  0  0  0  0  0  0  0  0  0  0
   -3.7250   20.4890  -33.2480 C   0  0  0  0  0  0  0  0  0  0  0  0
   -3.9480   21.9190  -33.0460 N   0  0  0  0  0  0  0  0  0  0  0  0
   -3.7430   22.6430  -31.8250 C   0  0  0  0  0  0  0  0  0  0  0  0
   -2.6160   22.5760  -31.2670 O   0  0  0  0  0  0  0  0  0  0  0  0
   -4.8020   23.4670  -31.2010 C   0  0  0  0  0  0  0  0  0  0  0  0
   -6.1440   23.0830  -31.3600 C   0  0  0  0  0  0  0  0  0  0  0  0
   -7.1690   23.8280  -30.7700 C   0  0  0  0  0  0  0  0  0  0  0  0
   -6.8630   24.9480  -29.9940 C   0  0  0  0  0  0  0  0  0  0  0  0
   -5.5310   25.3140  -29.7920 C   0  0  0  0  0  0  0  0  0  0  0  0
   -4.4970   24.5750  -30.3810 C   0  0  0  0  0  0  0  0  0  0  0  0
   -3.1420   24.9190  -30.0890 N   0  0  0  0  0  0  0  0  0  0  0  0
   -2.4820   24.6300  -28.5190 S   0  0  0  0  0  0  0  0  0  0  0  0
   -3.5570   24.7780  -27.4790 O   0  0  0  0  0  0  0  0  0  0  0  0
   -1.4030   25.6380  -28.2400 O   0  0  0  0  0  0  0  0  0  0  0  0
   -1.8030   23.0080  -28.4750 C   0  0  0  0  0  0  0  0  0  0  0  0
   -0.4140   22.8260  -28.4880 C   0  0  0  0  0  0  0  0  0  0  0  0
    0.1270   21.5400  -28.3960 C   0  0  0  0  0  0  0  0  0  0  0  0
   -0.7160   20.4270  -28.2780 C   0  0  0  0  0  0  0  0  0  0  0  0
   -0.0220   18.8130  -28.1660 S   0  0  0  0  0  0  0  0  0  0  0  0
   -0.7600   18.0160  -27.1250 O   0  0  0  0  0  0  0  0  0  0  0  0
    1.4150   18.9410  -27.7400 O   0  0  0  0  0  0  0  0  0  0  0  0
   -0.1240   18.0320  -29.7290 N   0  0  0  0  0  0  0  0  0  0  0  0
    1.1110   17.2850  -30.0550 C   0  0  0  0  0  0  0  0  0  0  0  0
    2.0510   18.0670  -30.9900 C   0  0  0  0  0  0  0  0  0  0  0  0
    1.9420   19.4510  -30.7490 O   0  0  0  0  0  0  0  0  0  0  0  0
    0.6750   19.9230  -31.1710 C   0  0  0  0  0  0  0  0  0  0  0  0
   -0.4950   18.9830  -30.7900 C   0  0  0  0  0  0  0  0  0  0  0  0
   -2.1060   20.6100  -28.2640 C   0  0  0  0  0  0  0  0  0  0  0  0
   -2.6470   21.8960  -28.3590 C   0  0  0  0  0  0  0  0  0  0  0  0
   -6.6460   20.2080  -32.0430 C   0  0  0  0  0  0  0  0  0  0  0  0
   -9.2766   21.0175  -30.9377 H   0  0  0  0  0  0  0  0  0  0  0  0
   -8.7727   21.7756  -32.4862 H   0  0  0  0  0  0  0  0  0  0  0  0
   -9.9976   20.4616  -32.4862 H   0  0  0  0  0  0  0  0  0  0  0  0
   -9.3558   18.1454  -32.3765 H   0  0  0  0  0  0  0  0  0  0  0  0
   -7.5369   16.4476  -32.5385 H   0  0  0  0  0  0  0  0  0  0  0  0
   -5.1504   17.1451  -32.3653 H   0  0  0  0  0  0  0  0  0  0  0  0
   -4.0550   20.3050  -31.1270 H   0  0  0  0  0  0  0  0  0  0  0  0
   -3.5577   18.7754  -31.9734 H   0  0  0  0  0  0  0  0  0  0  0  0
   -2.6526   20.3130  -33.4180 H   0  0  0  0  0  0  0  0  0  0  0  0
   -4.3127   20.1630  -34.1188 H   0  0  0  0  0  0  0  0  0  0  0  0
   -6.3899   22.1897  -31.9530 H   0  0  0  0  0  0  0  0  0  0  0  0
   -8.2181   23.5317  -30.9171 H   0  0  0  0  0  0  0  0  0  0  0  0
   -7.6713   25.5417  -29.5420 H   0  0  0  0  0  0  0  0  0  0  0  0
   -5.2922   26.1872  -29.1671 H   0  0  0  0  0  0  0  0  0  0  0  0
    0.2527   23.6970  -28.5708 H   0  0  0  0  0  0  0  0  0  0  0  0
    1.2181   21.4016  -28.4163 H   0  0  0  0  0  0  0  0  0  0  0  0
    1.6472   17.0668  -29.1196 H   0  0  0  0  0  0  0  0  0  0  0  0
    0.8132   16.3645  -30.5785 H   0  0  0  0  0  0  0  0  0  0  0  0
    3.0884   17.7483  -30.8106 H   0  0  0  0  0  0  0  0  0  0  0  0
    1.7684   17.8626  -32.0332 H   0  0  0  0  0  0  0  0  0  0  0  0
    0.4975   20.9046  -30.7074 H   0  0  0  0  0  0  0  0  0  0  0  0
    0.7005   19.9775  -32.2694 H   0  0  0  0  0  0  0  0  0  0  0  0
   -1.3395   19.5938  -30.4383 H   0  0  0  0  0  0  0  0  0  0  0  0
   -0.7649   18.4017  -31.6840 H   0  0  0  0  0  0  0  0  0  0  0  0
   -2.7729   19.7395  -28.1780 H   0  0  0  0  0  0  0  0  0  0  0  0
   -3.7381   22.0347  -28.3426 H   0  0  0  0  0  0  0  0  0  0  0  0
   -6.3952   21.2687  -31.8947 H   0  0  0  0  0  0  0  0  0  0  0  0
  1  2  1  0
  2  3  2  0
  3  4  1  0
  4  5  2  0
  5  6  1  0
  6  7  1  0
  7  8  1  0
  8  9  1  0
  9 10  1  0
 10 11  2  0
 10 12  1  0
 12 13  2  0
 13 14  1  0
 14 15  2  0
 15 16  1  0
 16 17  2  0
 17 18  1  0
 18 19  1  0
 19 20  2  0
 19 21  2  0
 19 22  1  0
 22 23  2  0
 23 24  1  0
 24 25  2  0
 25 26  1  0
 26 27  2  0
 26 28  2  0
 26 29  1  0
 29 30  1  0
 30 31  1  0
 31 32  1  0
 32 33  1  0
 33 34  1  0
 25 35  1  0
 35 36  2  0
  6 37  2  0
 37  2  1  0
 17 12  1  0
 36 22  1  0
 34 29  1  0
  1 38  1  0
  1 39  1  0
  1 40  1  0
  3 41  1  0
  4 42  1  0
  5 43  1  0
  7 44  1  0
  7 45  1  0
  8 46  1  0
  8 47  1  0
 13 48  1  0
 14 49  1  0
 15 50  1  0
 16 51  1  0
 23 52  1  0
 24 53  1  0
 30 54  1  0
 30 55  1  0
 31 56  1  0
 31 57  1  0
 33 58  1  0
 33 59  1  0
 34 60  1  0
 34 61  1  0
 35 62  1  0
 36 63  1  0
 37 64  1  0
M  CHG  2   9  -1  18  -1
M  END
>  <UniqueID>  (40) 
39

>  <SMILES>  (40) 
Cc1cccc(CC[N-]C(=O)c2ccccc2[N-]S(=O)(=O)c2ccc(S(=O)(=O)N3CCOCC3)cc2)c1

>  <Energy>  (40) 
84.45848389063813

>  <Genealogy>  (40) 
Cc1cccc(CC[N-]C(=O)c2ccccc2[N-]S(=O)(=O)c2ccc(S(=O)(=O)N3CCOCC3)cc2)c1 (protonated)
Cc1cccc(CC[N-]C(=O)c2ccccc2[N-]S(=O)(=O)c2ccc(S(=O)(=O)N3CCOCC3)cc2)c1 (3D coordinates assigned)
Cc1cccc(CC[N-]C(=O)c2ccccc2[N-]S(=O)(=O)c2ccc(S(=O)(=O)N3CCOCC3)cc2)c1 (nonaromatic ring conformer: 84.45848389063813 kcal/mol)

>  <smiles>  (40) 
Cc1cccc(CCNC(=O)c2ccccc2NS(=O)(=O)c2ccc(S(=O)(=O)N3CCOCC3)cc2)c1

>  <score_type>  (40) 
oracle

>  <origin>  (40) 
adgpu

>  <m_score__min__energy>  (40) 
-12.289999999999999

>  <m_primary>  (40) 
energy

$$$$
40:0
     RDKit          3D

 40 41  0  0  0  0  0  0  0  0999 V2000
   -4.1920   20.9220  -27.1700 H   0  0  0  0  0  0  0  0  0  0  0  0
   -3.3840   21.2770  -27.6640 O   0  0  0  0  0  0  0  0  0  0  0  0
   -3.4610   21.9240  -28.9000 C   0  0  0  0  0  0  0  0  0  0  0  0
   -3.6640   21.1340  -30.0370 C   0  0  0  0  0  0  0  0  0  0  0  0
   -3.7492   20.0424  -29.9313 H   0  0  0  0  0  0  0  0  0  0  0  0
   -3.7600   21.7140  -31.3060 C   0  0  0  0  0  0  0  0  0  0  0  0
   -3.9400   20.8450  -32.4880 C   0  0  0  0  0  0  0  0  0  0  0  0
   -3.0359   20.5133  -33.0196 H   0  0  0  0  0  0  0  0  0  0  0  0
   -5.1270   20.4310  -32.9600 C   0  0  0  0  0  0  0  0  0  0  0  0
   -5.1179   19.6878  -33.7709 H   0  0  0  0  0  0  0  0  0  0  0  0
   -6.4470   20.8950  -32.4760 C   0  0  0  0  0  0  0  0  0  0  0  0
   -7.4500   19.9500  -32.2110 C   0  0  0  0  0  0  0  0  0  0  0  0
   -7.2448   18.8790  -32.3556 H   0  0  0  0  0  0  0  0  0  0  0  0
   -8.7090   20.3630  -31.7640 C   0  0  0  0  0  0  0  0  0  0  0  0
   -9.4865   19.6161  -31.5459 H   0  0  0  0  0  0  0  0  0  0  0  0
   -8.9810   21.7230  -31.5940 C   0  0  0  0  0  0  0  0  0  0  0  0
   -9.9684   22.0454  -31.2318 H   0  0  0  0  0  0  0  0  0  0  0  0
   -7.9990   22.6730  -31.8840 C   0  0  0  0  0  0  0  0  0  0  0  0
   -8.2166   23.7437  -31.7565 H   0  0  0  0  0  0  0  0  0  0  0  0
   -6.7400   22.2660  -32.3360 C   0  0  0  0  0  0  0  0  0  0  0  0
   -5.9763   23.0182  -32.5829 H   0  0  0  0  0  0  0  0  0  0  0  0
   -3.7310   23.1100  -31.4250 C   0  0  0  0  0  0  0  0  0  0  0  0
   -3.8758   23.5762  -32.4107 H   0  0  0  0  0  0  0  0  0  0  0  0
   -3.5200   23.9140  -30.3040 C   0  0  0  0  0  0  0  0  0  0  0  0
   -3.4810   25.2950  -30.4720 O   0  0  0  0  0  0  0  0  0  0  0  0
   -3.3430   23.3320  -29.0290 C   0  0  0  0  0  0  0  0  0  0  0  0
   -3.0260   24.2070  -27.8340 C   0  0  0  0  0  0  0  0  0  0  0  0
   -2.9636   23.5733  -26.9370 H   0  0  0  0  0  0  0  0  0  0  0  0
   -3.8273   24.9546  -27.7396 H   0  0  0  0  0  0  0  0  0  0  0  0
   -1.7170   24.9460  -28.0010 C   0  0  0  0  0  0  0  0  0  0  0  0
   -1.1811   24.8222  -28.9536 H   0  0  0  0  0  0  0  0  0  0  0  0
   -1.1560   25.7470  -27.0680 C   0  0  0  0  0  0  0  0  0  0  0  0
    0.1700   26.3930  -27.3810 C   0  0  0  0  0  0  0  0  0  0  0  0
    0.6860   26.6444  -26.4426 H   0  0  0  0  0  0  0  0  0  0  0  0
    0.7890   25.6955  -27.9644 H   0  0  0  0  0  0  0  0  0  0  0  0
    0.0023   27.3104  -27.9644 H   0  0  0  0  0  0  0  0  0  0  0  0
   -1.8080   26.0060  -25.7310 C   0  0  0  0  0  0  0  0  0  0  0  0
   -1.1129   25.7299  -24.9244 H   0  0  0  0  0  0  0  0  0  0  0  0
   -2.0615   27.0731  -25.6473 H   0  0  0  0  0  0  0  0  0  0  0  0
   -2.7246   25.4037  -25.6473 H   0  0  0  0  0  0  0  0  0  0  0  0
  1  2  1  0
  2  3  1  0
  3  4  2  0
  4  5  1  0
  4  6  1  0
  6  7  1  0
  7  8  1  0
  7  9  2  0
  9 10  1  0
  9 11  1  0
 11 12  2  0
 12 13  1  0
 12 14  1  0
 14 15  1  0
 14 16  2  0
 16 17  1  0
 16 18  1  0
 18 19  1  0
 18 20  2  0
 20 21  1  0
  6 22  2  0
 22 23  1  0
 22 24  1  0
 24 25  1  0
 24 26  2  0
 26 27  1  0
 27 28  1  0
 27 29  1  0
 27 30  1  0
 30 31  1  0
 30 32  2  3
 32 33  1  0
 33 34  1  0
 33 35  1  0
 33 36  1  0
 32 37  1  0
 37 38  1  0
 37 39  1  0
 37 40  1  0
 26  3  1  0
 20 11  1  0
M  CHG  1  25  -1
M  END
>  <UniqueID>  (41) 
40

>  <SMILES>  (41) 
CC(C)=CCc1c([O-])cc(/C=C\c2ccccc2)cc1O

>  <Energy>  (41) 
47.08710028173702

>  <Genealogy>  (41) 
CC(C)=CCc1c([O-])cc(C=Cc2ccccc2)cc1O (protonated)
CC(C)=CCc1c([O-])cc(/C=C\c2ccccc2)cc1O (cis-trans isomerization)
CC(C)=CCc1c([O-])cc(/C=C\c2ccccc2)cc1O (3D coordinates assigned)
CC(C)=CCc1c([O-])cc(/C=C\c2ccccc2)cc1O (optimized conformer: 47.08710028173702 kcal/mol)

>  <smiles>  (41) 
CC(C)=CCc1c(O)cc(C=Cc2ccccc2)cc1O

>  <score_type>  (41) 
oracle

>  <origin>  (41) 
adgpu

>  <m_score__min__energy>  (41) 
-10.859999999999999

>  <m_primary>  (41) 
energy

$$$$
41:0
     RDKit          3D

 48 51  0  0  0  0  0  0  0  0999 V2000
   -8.5670   22.4130  -31.6190 C   0  0  0  0  0  0  0  0  0  0  0  0
   -7.3530   23.0420  -32.0160 O   0  0  0  0  0  0  0  0  0  0  0  0
   -6.0910   22.4280  -31.9930 C   0  0  0  0  0  0  0  0  0  0  0  0
   -5.8270   21.2490  -32.7160 C   0  0  0  0  0  0  0  0  0  0  0  0
   -4.5580   20.6680  -32.6890 C   0  0  0  0  0  0  0  0  0  0  0  0
   -3.5240   21.2530  -31.9410 C   0  0  0  0  0  0  0  0  0  0  0  0
   -2.1760   20.6430  -31.9200 C   0  0  0  0  0  0  0  0  0  0  0  0
   -1.5870   20.1570  -30.8070 N   0  0  0  0  0  0  0  0  0  0  0  0
   -0.4380   19.7050  -31.2060 O   0  0  0  0  0  0  0  0  0  0  0  0
   -0.3160   19.8920  -32.4970 C   0  0  0  0  0  0  0  0  0  0  0  0
    0.8860   19.5110  -33.2900 C   0  0  0  0  0  0  0  0  0  0  0  0
   -1.4010   20.4960  -33.0170 N   0  0  0  0  0  0  0  0  0  0  0  0
   -3.7840   22.4290  -31.2190 C   0  0  0  0  0  0  0  0  0  0  0  0
   -5.0590   23.0170  -31.2380 C   0  0  0  0  0  0  0  0  0  0  0  0
   -5.3390   24.5330  -30.3680 S   0  0  0  0  0  0  0  0  0  0  0  0
   -4.8220   25.6710  -31.2060 O   0  0  0  0  0  0  0  0  0  0  0  0
   -6.8120   24.7290  -30.1460 O   0  0  0  0  0  0  0  0  0  0  0  0
   -4.5330   24.5450  -28.8300 N   0  0  0  0  0  0  0  0  0  0  0  0
   -3.3460   23.7750  -28.6060 C   0  0  0  0  0  0  0  0  0  0  0  0
   -3.4370   22.4580  -28.1330 C   0  0  0  0  0  0  0  0  0  0  0  0
   -2.2840   21.6710  -27.9860 C   0  0  0  0  0  0  0  0  0  0  0  0
   -1.0260   22.2080  -28.3330 C   0  0  0  0  0  0  0  0  0  0  0  0
   -0.9350   23.5460  -28.7470 C   0  0  0  0  0  0  0  0  0  0  0  0
   -2.0870   24.3250  -28.8870 C   0  0  0  0  0  0  0  0  0  0  0  0
   -1.9770   25.6400  -29.3280 O   0  0  0  0  0  0  0  0  0  0  0  0
    0.2360   21.3940  -28.1660 C   0  0  0  0  0  0  0  0  0  0  0  0
   -0.0310   19.9470  -28.1250 N   0  0  0  0  0  0  0  0  0  0  0  0
   -1.0700   19.6390  -27.1330 C   0  0  0  0  0  0  0  0  0  0  0  0
   -2.4200   20.2340  -27.5530 C   0  0  0  0  0  0  0  0  0  0  0  0
   -8.6229   22.3840  -30.5208 H   0  0  0  0  0  0  0  0  0  0  0  0
   -9.4212   22.9820  -32.0147 H   0  0  0  0  0  0  0  0  0  0  0  0
   -8.5949   21.3870  -32.0147 H   0  0  0  0  0  0  0  0  0  0  0  0
   -6.6280   20.7815  -33.3075 H   0  0  0  0  0  0  0  0  0  0  0  0
   -4.3670   19.7459  -33.2575 H   0  0  0  0  0  0  0  0  0  0  0  0
    1.7082   19.2504  -32.6073 H   0  0  0  0  0  0  0  0  0  0  0  0
    0.6473   18.6445  -33.9242 H   0  0  0  0  0  0  0  0  0  0  0  0
    1.1901   20.3568  -33.9242 H   0  0  0  0  0  0  0  0  0  0  0  0
   -2.9793   22.8952  -30.6315 H   0  0  0  0  0  0  0  0  0  0  0  0
   -4.7230   25.3610  -28.2050 H   0  0  0  0  0  0  0  0  0  0  0  0
   -4.4204   22.0380  -27.8749 H   0  0  0  0  0  0  0  0  0  0  0  0
    0.0503   23.9848  -28.9629 H   0  0  0  0  0  0  0  0  0  0  0  0
    0.9073   21.6056  -29.0113 H   0  0  0  0  0  0  0  0  0  0  0  0
    0.6938   21.6779  -27.2069 H   0  0  0  0  0  0  0  0  0  0  0  0
   -0.3540   19.6320  -29.0720 H   0  0  0  0  0  0  0  0  0  0  0  0
   -1.1698   18.5473  -27.0429 H   0  0  0  0  0  0  0  0  0  0  0  0
   -0.7767   20.0785  -26.1682 H   0  0  0  0  0  0  0  0  0  0  0  0
   -2.8240   19.6459  -28.3902 H   0  0  0  0  0  0  0  0  0  0  0  0
   -3.0954   20.1992  -26.6855 H   0  0  0  0  0  0  0  0  0  0  0  0
  1  2  1  0
  2  3  1  0
  3  4  2  0
  4  5  1  0
  5  6  2  0
  6  7  1  0
  7  8  2  0
  8  9  1  0
  9 10  1  0
 10 11  1  0
 10 12  2  0
  6 13  1  0
 13 14  2  0
 14 15  1  0
 15 16  2  0
 15 17  2  0
 15 18  1  0
 18 19  1  0
 19 20  2  0
 20 21  1  0
 21 22  2  0
 22 23  1  0
 23 24  2  0
 24 25  1  0
 22 26  1  0
 26 27  1  0
 27 28  1  0
 28 29  1  0
 14  3  1  0
 24 19  1  0
 12  7  1  0
 29 21  1  0
  1 30  1  0
  1 31  1  0
  1 32  1  0
  4 33  1  0
  5 34  1  0
 11 35  1  0
 11 36  1  0
 11 37  1  0
 13 38  1  0
 18 39  1  0
 20 40  1  0
 23 41  1  0
 26 42  1  0
 26 43  1  0
 27 44  1  0
 28 45  1  0
 28 46  1  0
 29 47  1  0
 29 48  1  0
M  CHG  1  25  -1
M  END
>  <UniqueID>  (42) 
41

>  <SMILES>  (42) 
COc1ccc(-c2noc(C)n2)cc1S(=O)(=O)Nc1cc2c(cc1[O-])CNCC2

>  <Energy>  (42) 
89.5246633858226

>  <Genealogy>  (42) 
COc1ccc(-c2noc(C)n2)cc1S(=O)(=O)Nc1cc2c(cc1[O-])CNCC2 (protonated)
COc1ccc(-c2noc(C)n2)cc1S(=O)(=O)Nc1cc2c(cc1[O-])CNCC2 (3D coordinates assigned)
COc1ccc(-c2noc(C)n2)cc1S(=O)(=O)Nc1cc2c(cc1[O-])CNCC2 (nonaromatic ring conformer: 89.5246633858226 kcal/mol)

>  <smiles>  (42) 
COc1ccc(-c2noc(C)n2)cc1S(=O)(=O)Nc1cc2c(cc1O)CNCC2

>  <score_type>  (42) 
oracle

>  <origin>  (42) 
adgpu

>  <m_score__min__energy>  (42) 
-11.92

>  <m_primary>  (42) 
energy

$$$$
42:0
     RDKit          3D

 58 61  0  0  0  0  0  0  0  0999 V2000
    2.2770   19.7530  -33.6020 C   0  0  0  0  0  0  0  0  0  0  0  0
    0.8510   20.1220  -33.3240 C   0  0  0  0  0  0  0  0  0  0  0  0
   -0.0220   20.4160  -34.3830 C   0  0  0  0  0  0  0  0  0  0  0  0
   -1.3390   20.8080  -34.1240 C   0  0  0  0  0  0  0  0  0  0  0  0
   -1.7930   20.9230  -32.8030 C   0  0  0  0  0  0  0  0  0  0  0  0
   -3.4540   21.3950  -32.4650 S   0  0  0  0  0  0  0  0  0  0  0  0
   -4.2010   21.5390  -33.7610 O   0  0  0  0  0  0  0  0  0  0  0  0
   -4.1410   20.3430  -31.6380 O   0  0  0  0  0  0  0  0  0  0  0  0
   -3.4930   22.9020  -31.6140 N   0  0  0  0  0  0  0  0  0  0  0  0
   -4.7230   23.4920  -31.1890 C   0  0  0  0  0  0  0  0  0  0  0  0
   -5.9320   22.8960  -31.5680 C   0  0  0  0  0  0  0  0  0  0  0  0
   -7.1620   23.4380  -31.1510 C   0  0  0  0  0  0  0  0  0  0  0  0
   -8.4390   22.8010  -31.5480 C   0  0  0  0  0  0  0  0  0  0  0  0
   -9.3360   23.4870  -32.1110 O   0  0  0  0  0  0  0  0  0  0  0  0
   -8.6310   21.3930  -31.3480 N   0  0  0  0  0  0  0  0  0  0  0  0
   -7.9440   20.3340  -32.0280 C   0  0  0  0  0  0  0  0  0  0  0  0
   -7.1630   20.6490  -33.1460 C   0  0  0  0  0  0  0  0  0  0  0  0
   -6.4550   19.6500  -33.8210 C   0  0  0  0  0  0  0  0  0  0  0  0
   -6.4980   18.3240  -33.3670 C   0  0  0  0  0  0  0  0  0  0  0  0
   -5.5950   17.0630  -34.2140 S   0  0  0  0  0  0  0  0  0  0  0  0
   -6.4270   15.8110  -34.2550 O   0  0  0  0  0  0  0  0  0  0  0  0
   -5.3510   17.5040  -35.6300 O   0  0  0  0  0  0  0  0  0  0  0  0
   -4.0640   16.6980  -33.4600 N   0  0  0  0  0  0  0  0  0  0  0  0
   -3.2160   15.8630  -34.3110 C   0  0  0  0  0  0  0  0  0  0  0  0
   -1.7820   16.1270  -33.8790 C   0  0  0  0  0  0  0  0  0  0  0  0
   -1.8240   17.4590  -33.1420 C   0  0  0  0  0  0  0  0  0  0  0  0
   -3.2790   17.9010  -33.1970 C   0  0  0  0  0  0  0  0  0  0  0  0
   -7.2710   18.0070  -32.2410 C   0  0  0  0  0  0  0  0  0  0  0  0
   -7.9830   19.0040  -31.5700 C   0  0  0  0  0  0  0  0  0  0  0  0
   -7.1580   24.5960  -30.3540 C   0  0  0  0  0  0  0  0  0  0  0  0
   -5.9540   25.2070  -29.9980 C   0  0  0  0  0  0  0  0  0  0  0  0
   -4.7340   24.6640  -30.4180 C   0  0  0  0  0  0  0  0  0  0  0  0
   -3.5360   25.2980  -30.0880 O   0  0  0  0  0  0  0  0  0  0  0  0
   -0.9180   20.6440  -31.7440 C   0  0  0  0  0  0  0  0  0  0  0  0
    0.3990   20.2540  -32.0020 C   0  0  0  0  0  0  0  0  0  0  0  0
    2.8120   19.6146  -32.6509 H   0  0  0  0  0  0  0  0  0  0  0  0
    2.3077   18.8173  -34.1796 H   0  0  0  0  0  0  0  0  0  0  0  0
    2.7577   20.5563  -34.1796 H   0  0  0  0  0  0  0  0  0  0  0  0
    0.3316   20.3377  -35.4217 H   0  0  0  0  0  0  0  0  0  0  0  0
   -2.0206   21.0267  -34.9593 H   0  0  0  0  0  0  0  0  0  0  0  0
   -5.9203   21.9946  -32.1984 H   0  0  0  0  0  0  0  0  0  0  0  0
   -7.1058   21.6902  -33.4962 H   0  0  0  0  0  0  0  0  0  0  0  0
   -5.8620   19.9052  -34.7116 H   0  0  0  0  0  0  0  0  0  0  0  0
   -3.4658   14.8008  -34.1719 H   0  0  0  0  0  0  0  0  0  0  0  0
   -3.3621   16.1003  -35.3751 H   0  0  0  0  0  0  0  0  0  0  0  0
   -1.4273   15.3280  -33.2113 H   0  0  0  0  0  0  0  0  0  0  0  0
   -1.0934   16.1538  -34.7364 H   0  0  0  0  0  0  0  0  0  0  0  0
   -1.4986   17.3329  -32.0988 H   0  0  0  0  0  0  0  0  0  0  0  0
   -1.1518   18.2014  -33.5969 H   0  0  0  0  0  0  0  0  0  0  0  0
   -3.5776   18.3482  -32.2374 H   0  0  0  0  0  0  0  0  0  0  0  0
   -3.4368   18.6596  -33.9778 H   0  0  0  0  0  0  0  0  0  0  0  0
   -7.3170   16.9675  -31.8841 H   0  0  0  0  0  0  0  0  0  0  0  0
   -8.5766   18.7484  -30.6799 H   0  0  0  0  0  0  0  0  0  0  0  0
   -8.1105   25.0240  -30.0082 H   0  0  0  0  0  0  0  0  0  0  0  0
   -5.9642   26.1198  -29.3843 H   0  0  0  0  0  0  0  0  0  0  0  0
   -2.9200   25.6750  -30.7980 H   0  0  0  0  0  0  0  0  0  0  0  0
   -1.2695   20.7324  -30.7054 H   0  0  0  0  0  0  0  0  0  0  0  0
    1.0838   20.0497  -31.1658 H   0  0  0  0  0  0  0  0  0  0  0  0
  1  2  1  0
  2  3  2  0
  3  4  1  0
  4  5  2  0
  5  6  1  0
  6  7  2  0
  6  8  2  0
  6  9  1  0
  9 10  1  0
 10 11  2  0
 11 12  1  0
 12 13  1  0
 13 14  2  0
 13 15  1  0
 15 16  1  0
 16 17  2  0
 17 18  1  0
 18 19  2  0
 19 20  1  0
 20 21  2  0
 20 22  2  0
 20 23  1  0
 23 24  1  0
 24 25  1  0
 25 26  1  0
 26 27  1  0
 19 28  1  0
 28 29  2  0
 12 30  2  0
 30 31  1  0
 31 32  2  0
 32 33  1  0
  5 34  1  0
 34 35  2  0
 35  2  1  0
 32 10  1  0
 29 16  1  0
 27 23  1  0
  1 36  1  0
  1 37  1  0
  1 38  1  0
  3 39  1  0
  4 40  1  0
 11 41  1  0
 17 42  1  0
 18 43  1  0
 24 44  1  0
 24 45  1  0
 25 46  1  0
 25 47  1  0
 26 48  1  0
 26 49  1  0
 27 50  1  0
 27 51  1  0
 28 52  1  0
 29 53  1  0
 30 54  1  0
 31 55  1  0
 33 56  1  0
 34 57  1  0
 35 58  1  0
M  CHG  2   9  -1  15  -1
M  END
>  <UniqueID>  (43) 
42

>  <SMILES>  (43) 
Cc1ccc(S(=O)(=O)[N-]c2cc(C(=O)[N-]c3ccc(S(=O)(=O)N4CCCC4)cc3)ccc2O)cc1

>  <Energy>  (43) 
75.38305159015748

>  <Genealogy>  (43) 
Cc1ccc(S(=O)(=O)[N-]c2cc(C(=O)[N-]c3ccc(S(=O)(=O)N4CCCC4)cc3)ccc2O)cc1 (protonated)
Cc1ccc(S(=O)(=O)[N-]c2cc(C(=O)[N-]c3ccc(S(=O)(=O)N4CCCC4)cc3)ccc2O)cc1 (3D coordinates assigned)
Cc1ccc(S(=O)(=O)[N-]c2cc(C(=O)[N-]c3ccc(S(=O)(=O)N4CCCC4)cc3)ccc2O)cc1 (nonaromatic ring conformer: 75.38305159015748 kcal/mol)

>  <smiles>  (43) 
Cc1ccc(S(=O)(=O)Nc2cc(C(=O)Nc3ccc(S(=O)(=O)N4CCCC4)cc3)ccc2O)cc1

>  <score_type>  (43) 
oracle

>  <origin>  (43) 
adgpu

>  <m_score__min__energy>  (43) 
-12.52

>  <m_primary>  (43) 
energy

$$$$
43:0
     RDKit          3D

 44 46  0  0  0  0  0  0  0  0999 V2000
   -3.8040   25.2630  -30.8370 N   0  0  0  0  0  0  0  0  0  0  0  0
   -5.2430   24.9230  -29.9390 S   0  0  0  0  0  0  0  0  0  0  0  0
   -4.8820   24.5480  -28.5290 O   0  0  0  0  0  0  0  0  0  0  0  0
   -6.1010   26.1570  -29.9120 O   0  0  0  0  0  0  0  0  0  0  0  0
   -6.1100   23.5910  -30.6970 C   0  0  0  0  0  0  0  0  0  0  0  0
   -7.3310   23.8080  -31.3480 C   0  0  0  0  0  0  0  0  0  0  0  0
   -8.0080   22.7420  -31.9500 C   0  0  0  0  0  0  0  0  0  0  0  0
   -7.4770   21.4410  -31.8910 C   0  0  0  0  0  0  0  0  0  0  0  0
   -8.1270   20.3260  -32.5160 N   0  0  0  0  0  0  0  0  0  0  0  0
   -7.4860   19.1640  -33.0580 C   0  0  0  0  0  0  0  0  0  0  0  0
   -7.8020   18.0090  -32.6640 O   0  0  0  0  0  0  0  0  0  0  0  0
   -6.4150   19.3240  -34.0880 C   0  0  0  0  0  0  0  0  0  0  0  0
   -5.0970   19.2230  -33.4620 N   0  0  0  0  0  0  0  0  0  0  0  0
   -4.3450   18.0390  -33.2650 C   0  0  0  0  0  0  0  0  0  0  0  0
   -4.8280   16.8790  -33.3590 O   0  0  0  0  0  0  0  0  0  0  0  0
   -2.9760   18.2900  -32.9840 N   0  0  0  0  0  0  0  0  0  0  0  0
   -2.7500   19.7370  -33.0310 C   0  0  0  0  0  0  0  0  0  0  0  0
   -1.7510   20.0780  -34.1700 C   0  0  0  0  0  0  0  0  0  0  0  0
   -0.3070   20.1060  -33.6560 C   0  0  0  0  0  0  0  0  0  0  0  0
   -0.1110   21.1830  -32.5680 C   0  0  0  0  0  0  0  0  0  0  0  0
   -1.3860   21.4750  -31.7500 C   0  0  0  0  0  0  0  0  0  0  0  0
   -2.2800   20.2360  -31.6360 C   0  0  0  0  0  0  0  0  0  0  0  0
   -4.1280   20.2610  -33.3610 C   0  0  0  0  0  0  0  0  0  0  0  0
   -4.4040   21.4790  -33.5310 O   0  0  0  0  0  0  0  0  0  0  0  0
   -6.2450   21.2340  -31.2600 C   0  0  0  0  0  0  0  0  0  0  0  0
   -5.5690   22.3000  -30.6590 C   0  0  0  0  0  0  0  0  0  0  0  0
   -3.9000   26.2320  -31.2150 H   0  0  0  0  0  0  0  0  0  0  0  0
   -7.7593   24.8205  -31.3861 H   0  0  0  0  0  0  0  0  0  0  0  0
   -8.9596   22.9221  -32.4716 H   0  0  0  0  0  0  0  0  0  0  0  0
   -6.5189   18.5344  -34.8467 H   0  0  0  0  0  0  0  0  0  0  0  0
   -6.5145   20.3123  -34.5606 H   0  0  0  0  0  0  0  0  0  0  0  0
   -2.2450   17.5580  -32.8310 H   0  0  0  0  0  0  0  0  0  0  0  0
   -1.8353   19.3172  -34.9600 H   0  0  0  0  0  0  0  0  0  0  0  0
   -1.9990   21.0755  -34.5616 H   0  0  0  0  0  0  0  0  0  0  0  0
   -0.0600   19.1215  -33.2321 H   0  0  0  0  0  0  0  0  0  0  0  0
    0.3541   20.3473  -34.5014 H   0  0  0  0  0  0  0  0  0  0  0  0
    0.6741   20.8409  -31.8777 H   0  0  0  0  0  0  0  0  0  0  0  0
    0.1618   22.1157  -33.0834 H   0  0  0  0  0  0  0  0  0  0  0  0
   -1.0954   21.7995  -30.7399 H   0  0  0  0  0  0  0  0  0  0  0  0
   -1.9538   22.2621  -32.2678 H   0  0  0  0  0  0  0  0  0  0  0  0
   -1.7144   19.4324  -31.1417 H   0  0  0  0  0  0  0  0  0  0  0  0
   -3.1707   20.5081  -31.0507 H   0  0  0  0  0  0  0  0  0  0  0  0
   -5.8057   20.2258  -31.2368 H   0  0  0  0  0  0  0  0  0  0  0  0
   -4.6078   22.1238  -30.1540 H   0  0  0  0  0  0  0  0  0  0  0  0
  1  2  1  0
  2  3  2  0
  2  4  2  0
  2  5  1  0
  5  6  2  0
  6  7  1  0
  7  8  2  0
  8  9  1  0
  9 10  1  0
 10 11  2  0
 10 12  1  0
 12 13  1  0
 13 14  1  0
 14 15  2  0
 14 16  1  0
 16 17  1  0
 17 18  1  0
 18 19  1  0
 19 20  1  0
 20 21  1  0
 21 22  1  0
 17 23  1  0
 23 24  2  0
  8 25  1  0
 25 26  2  0
 26  5  1  0
 23 13  1  0
 22 17  1  0
  1 27  1  0
  6 28  1  0
  7 29  1  0
 12 30  1  0
 12 31  1  0
 16 32  1  0
 18 33  1  0
 18 34  1  0
 19 35  1  0
 19 36  1  0
 20 37  1  0
 20 38  1  0
 21 39  1  0
 21 40  1  0
 22 41  1  0
 22 42  1  0
 25 43  1  0
 26 44  1  0
M  CHG  2   1  -1   9  -1
M  END
>  <UniqueID>  (44) 
43

>  <SMILES>  (44) 
[NH-]S(=O)(=O)c1ccc([N-]C(=O)CN2C(=O)NC3(CCCCC3)C2=O)cc1

>  <Energy>  (44) 
67.73722394703252

>  <Genealogy>  (44) 
[NH-]S(=O)(=O)c1ccc([N-]C(=O)CN2C(=O)NC3(CCCCC3)C2=O)cc1 (protonated)
[NH-]S(=O)(=O)c1ccc([N-]C(=O)CN2C(=O)NC3(CCCCC3)C2=O)cc1 (3D coordinates assigned)
[NH-]S(=O)(=O)c1ccc([N-]C(=O)CN2C(=O)NC3(CCCCC3)C2=O)cc1 (nonaromatic ring conformer: 67.73722394703252 kcal/mol)

>  <smiles>  (44) 
NS(=O)(=O)c1ccc(NC(=O)CN2C(=O)NC3(CCCCC3)C2=O)cc1

>  <score_type>  (44) 
oracle

>  <origin>  (44) 
adgpu

>  <m_score__min__energy>  (44) 
-11.529999999999999

>  <m_primary>  (44) 
energy

$$$$
44:0
     RDKit          3D

 59 62  0  0  0  0  0  0  0  0999 V2000
   -9.5130   20.4450  -32.4490 O   0  0  0  0  0  0  0  0  0  0  0  0
   -8.2570   20.4020  -32.3650 C   0  0  0  0  0  0  0  0  0  0  0  0
   -7.5690   19.2430  -32.8600 N   0  0  0  0  0  0  0  0  0  0  0  0
   -6.5070   18.5200  -32.1630 C   0  0  0  0  0  0  0  0  0  0  0  0
   -5.1670   19.1160  -32.4790 C   0  0  0  0  0  0  0  0  0  0  0  0
   -4.4620   18.7180  -33.6240 C   0  0  0  0  0  0  0  0  0  0  0  0
   -3.2370   19.3210  -33.9180 C   0  0  0  0  0  0  0  0  0  0  0  0
   -2.7330   20.3160  -33.0770 C   0  0  0  0  0  0  0  0  0  0  0  0
   -3.4650   20.6930  -31.9490 C   0  0  0  0  0  0  0  0  0  0  0  0
   -4.6540   20.0910  -31.6780 N   0  0  0  0  0  0  0  0  0  0  0  0
   -7.5370   21.5580  -31.8010 C   0  0  0  0  0  0  0  0  0  0  0  0
   -6.5330   22.1890  -32.5520 C   0  0  0  0  0  0  0  0  0  0  0  0
   -5.8220   23.2650  -32.0120 C   0  0  0  0  0  0  0  0  0  0  0  0
   -6.1200   23.7340  -30.7260 C   0  0  0  0  0  0  0  0  0  0  0  0
   -5.1990   25.0640  -30.0350 S   0  0  0  0  0  0  0  0  0  0  0  0
   -5.7180   26.3750  -30.5550 O   0  0  0  0  0  0  0  0  0  0  0  0
   -5.3450   25.0570  -28.5390 O   0  0  0  0  0  0  0  0  0  0  0  0
   -3.5340   24.8870  -30.4820 N   0  0  0  0  0  0  0  0  0  0  0  0
   -2.5860   24.2320  -29.6410 C   0  0  0  0  0  0  0  0  0  0  0  0
   -2.5670   22.8330  -29.5980 C   0  0  0  0  0  0  0  0  0  0  0  0
   -1.6700   22.1600  -28.7560 C   0  0  0  0  0  0  0  0  0  0  0  0
   -1.6700   20.3980  -28.6950 S   0  0  0  0  0  0  0  0  0  0  0  0
   -1.5030   19.8630  -30.0910 O   0  0  0  0  0  0  0  0  0  0  0  0
   -3.0110   19.9390  -28.1920 O   0  0  0  0  0  0  0  0  0  0  0  0
   -0.4250   19.7300  -27.6610 N   0  0  0  0  0  0  0  0  0  0  0  0
    0.9330   20.2390  -27.9420 C   0  0  0  0  0  0  0  0  0  0  0  0
    1.6880   19.4200  -29.0000 C   0  0  0  0  0  0  0  0  0  0  0  0
    1.6590   17.9330  -28.6700 C   0  0  0  0  0  0  0  0  0  0  0  0
    0.2160   17.4600  -28.5310 C   0  0  0  0  0  0  0  0  0  0  0  0
   -0.5170   18.2700  -27.4550 C   0  0  0  0  0  0  0  0  0  0  0  0
   -0.7470   22.8980  -28.0010 C   0  0  0  0  0  0  0  0  0  0  0  0
   -0.7430   24.2940  -28.0650 C   0  0  0  0  0  0  0  0  0  0  0  0
   -1.6560   24.9640  -28.8850 C   0  0  0  0  0  0  0  0  0  0  0  0
   -1.6170   26.3520  -28.9620 O   0  0  0  0  0  0  0  0  0  0  0  0
   -7.1360   23.1180  -29.9830 C   0  0  0  0  0  0  0  0  0  0  0  0
   -7.8470   22.0410  -30.5210 C   0  0  0  0  0  0  0  0  0  0  0  0
   -6.6818   18.5780  -31.0785 H   0  0  0  0  0  0  0  0  0  0  0  0
   -6.5156   17.4711  -32.4943 H   0  0  0  0  0  0  0  0  0  0  0  0
   -4.8698   17.9384  -34.2842 H   0  0  0  0  0  0  0  0  0  0  0  0
   -2.6706   19.0132  -34.8094 H   0  0  0  0  0  0  0  0  0  0  0  0
   -1.7697   20.7975  -33.3009 H   0  0  0  0  0  0  0  0  0  0  0  0
   -3.0800   21.4766  -31.2799 H   0  0  0  0  0  0  0  0  0  0  0  0
   -6.3049   21.8359  -33.5685 H   0  0  0  0  0  0  0  0  0  0  0  0
   -5.0254   23.7452  -32.5993 H   0  0  0  0  0  0  0  0  0  0  0  0
   -3.2604   22.2576  -30.2290 H   0  0  0  0  0  0  0  0  0  0  0  0
    0.8491   21.2760  -28.2992 H   0  0  0  0  0  0  0  0  0  0  0  0
    1.5062   20.1650  -27.0061 H   0  0  0  0  0  0  0  0  0  0  0  0
    1.2161   19.5791  -29.9808 H   0  0  0  0  0  0  0  0  0  0  0  0
    2.7363   19.7529  -29.0152 H   0  0  0  0  0  0  0  0  0  0  0  0
    2.1510   17.3706  -29.4773 H   0  0  0  0  0  0  0  0  0  0  0  0
    2.1889   17.7623  -27.7213 H   0  0  0  0  0  0  0  0  0  0  0  0
   -0.3004   17.5876  -29.4938 H   0  0  0  0  0  0  0  0  0  0  0  0
    0.2174   16.4000  -28.2370 H   0  0  0  0  0  0  0  0  0  0  0  0
   -1.5786   17.9821  -27.4635 H   0  0  0  0  0  0  0  0  0  0  0  0
   -0.0351   18.0451  -26.4921 H   0  0  0  0  0  0  0  0  0  0  0  0
   -0.0240   22.3765  -27.3565 H   0  0  0  0  0  0  0  0  0  0  0  0
   -0.0189   24.8678  -27.4680 H   0  0  0  0  0  0  0  0  0  0  0  0
   -7.3749   23.4830  -28.9732 H   0  0  0  0  0  0  0  0  0  0  0  0
   -8.6527   21.5706  -29.9382 H   0  0  0  0  0  0  0  0  0  0  0  0
  1  2  2  0
  2  3  1  0
  3  4  1  0
  4  5  1  0
  5  6  2  0
  6  7  1  0
  7  8  2  0
  8  9  1  0
  9 10  2  0
  2 11  1  0
 11 12  2  0
 12 13  1  0
 13 14  2  0
 14 15  1  0
 15 16  2  0
 15 17  2  0
 15 18  1  0
 18 19  1  0
 19 20  2  0
 20 21  1  0
 21 22  1  0
 22 23  2  0
 22 24  2  0
 22 25  1  0
 25 26  1  0
 26 27  1  0
 27 28  1  0
 28 29  1  0
 29 30  1  0
 21 31  2  0
 31 32  1  0
 32 33  2  0
 33 34  1  0
 14 35  1  0
 35 36  2  0
 10  5  1  0
 36 11  1  0
 33 19  1  0
 30 25  1  0
  4 37  1  0
  4 38  1  0
  6 39  1  0
  7 40  1  0
  8 41  1  0
  9 42  1  0
 12 43  1  0
 13 44  1  0
 20 45  1  0
 26 46  1  0
 26 47  1  0
 27 48  1  0
 27 49  1  0
 28 50  1  0
 28 51  1  0
 29 52  1  0
 29 53  1  0
 30 54  1  0
 30 55  1  0
 31 56  1  0
 32 57  1  0
 35 58  1  0
 36 59  1  0
M  CHG  3   3  -1  18  -1  34  -1
M  END
>  <UniqueID>  (45) 
44

>  <SMILES>  (45) 
O=C([N-]Cc1ccccn1)c1ccc(S(=O)(=O)[N-]c2cc(S(=O)(=O)N3CCCCC3)ccc2[O-])cc1

>  <Energy>  (45) 
71.16486358558278

>  <Genealogy>  (45) 
O=C([N-]Cc1ccccn1)c1ccc(S(=O)(=O)[N-]c2cc(S(=O)(=O)N3CCCCC3)ccc2[O-])cc1 (protonated)
O=C([N-]Cc1ccccn1)c1ccc(S(=O)(=O)[N-]c2cc(S(=O)(=O)N3CCCCC3)ccc2[O-])cc1 (3D coordinates assigned)
O=C([N-]Cc1ccccn1)c1ccc(S(=O)(=O)[N-]c2cc(S(=O)(=O)N3CCCCC3)ccc2[O-])cc1 (nonaromatic ring conformer: 71.16486358558278 kcal/mol)

>  <smiles>  (45) 
O=C(NCc1ccccn1)c1ccc(S(=O)(=O)Nc2cc(S(=O)(=O)N3CCCCC3)ccc2O)cc1

>  <score_type>  (45) 
oracle

>  <origin>  (45) 
adgpu

>  <m_score__min__energy>  (45) 
-14.83

>  <m_primary>  (45) 
energy

$$$$
45:0
     RDKit          3D

 48 50  0  0  1  0  0  0  0  0999 V2000
   -9.4910   21.8880  -30.8790 C   0  0  0  0  0  0  0  0  0  0  0  0
   -9.4590   21.0900  -31.9350 C   0  0  0  0  0  0  0  0  0  0  0  0
   -8.2350   20.4890  -32.4510 C   0  0  0  0  0  0  0  0  0  0  0  0
   -7.3120   21.1720  -32.9710 O   0  0  0  0  0  0  0  0  0  0  0  0
   -8.0090   19.0760  -32.3970 N   0  0  0  0  0  0  0  0  0  0  0  0
   -6.8110   18.5000  -32.9050 C   0  0  0  0  0  0  0  0  0  0  0  0
   -6.8530   17.1710  -33.2840 C   0  0  0  0  0  0  0  0  0  0  0  0
   -5.7480   16.5150  -33.7870 C   0  0  0  0  0  0  0  0  0  0  0  0
   -5.8770   15.1350  -34.1580 C   0  0  0  0  0  0  0  0  0  0  0  0
   -5.9730   14.0160  -34.4410 N   0  0  0  0  0  0  0  0  0  0  0  0
   -4.5800   17.2300  -33.9060 C   0  0  0  0  0  0  0  0  0  0  0  0
   -4.5280   18.5760  -33.5250 C   0  0  0  0  0  0  0  0  0  0  0  0
   -3.2760   19.2320  -33.6830 N   0  0  0  0  0  0  0  0  0  0  0  0
   -2.7810   20.0950  -32.8800 C   0  0  0  0  0  0  0  0  0  0  0  0
   -3.4690   20.4280  -31.7960 N   0  0  0  0  0  0  0  0  0  0  0  0
   -2.9360   21.3360  -30.9610 C   0  0  0  0  0  0  0  0  0  0  0  0
   -3.5470   21.7020  -29.8970 N   0  0  0  0  0  0  0  0  0  0  0  0
   -2.9700   22.6720  -29.0140 C   0  0  0  0  0  0  0  0  0  0  0  0
   -2.3780   22.2510  -27.8180 C   0  0  0  0  0  0  0  0  0  0  0  0
   -1.8110   23.1500  -26.9390 C   0  0  0  0  0  0  0  0  0  0  0  0
   -1.8160   24.5020  -27.2250 C   0  0  0  0  0  0  0  0  0  0  0  0
   -1.2320   25.4720  -26.3290 C   0  0  0  0  0  0  0  0  0  0  0  0
   -0.7820   26.2500  -25.6060 N   0  0  0  0  0  0  0  0  0  0  0  0
   -2.3970   24.9030  -28.3970 C   0  0  0  0  0  0  0  0  0  0  0  0
   -2.9760   24.0270  -29.3030 C   0  0  0  0  0  0  0  0  0  0  0  0
   -3.5550   24.4660  -30.4800 O   0  0  0  0  0  0  0  0  0  0  0  0
   -4.9650   24.4190  -30.5880 C   0  0  0  0  0  0  0  0  0  0  0  0
   -1.7290   21.8890  -31.2300 N   0  0  0  0  0  0  0  0  0  0  0  0
   -1.0190   21.5530  -32.3360 C   0  0  0  0  0  0  0  0  0  0  0  0
   -1.5430   20.6240  -33.2100 C   0  0  0  0  0  0  0  0  0  0  0  0
   -0.6730   20.1500  -34.6550 Cl  0  0  0  0  0  0  0  0  0  0  0  0
   -5.6400   19.2150  -33.0240 C   0  0  0  0  0  0  0  0  0  0  0  0
  -10.4475   22.3109  -30.5380 H   0  0  0  0  0  0  0  0  0  0  0  0
   -8.5611   22.1281  -30.3426 H   0  0  0  0  0  0  0  0  0  0  0  0
  -10.4055   20.8689  -32.4500 H   0  0  0  0  0  0  0  0  0  0  0  0
   -8.7050   18.4310  -31.9910 H   0  0  0  0  0  0  0  0  0  0  0  0
   -7.7985   16.6183  -33.1812 H   0  0  0  0  0  0  0  0  0  0  0  0
   -3.6789   16.7405  -34.3039 H   0  0  0  0  0  0  0  0  0  0  0  0
   -4.3990   19.9900  -31.6060 H   0  0  0  0  0  0  0  0  0  0  0  0
   -2.3645   21.1786  -27.5733 H   0  0  0  0  0  0  0  0  0  0  0  0
   -1.3528   22.7892  -26.0063 H   0  0  0  0  0  0  0  0  0  0  0  0
   -2.4053   25.9773  -28.6332 H   0  0  0  0  0  0  0  0  0  0  0  0
   -5.4095   24.4042  -29.5819 H   0  0  0  0  0  0  0  0  0  0  0  0
   -5.3208   25.3058  -31.1330 H   0  0  0  0  0  0  0  0  0  0  0  0
   -5.2609   23.5105  -31.1330 H   0  0  0  0  0  0  0  0  0  0  0  0
   -1.2760   22.5980  -30.6090 H   0  0  0  0  0  0  0  0  0  0  0  0
   -0.0401   22.0146  -32.5327 H   0  0  0  0  0  0  0  0  0  0  0  0
   -5.5941   20.2727  -32.7255 H   0  0  0  0  0  0  0  0  0  0  0  0
  1  2  2  0
  2  3  1  0
  3  4  2  0
  3  5  1  0
  5  6  1  0
  6  7  2  0
  7  8  1  0
  8  9  1  0
  9 10  3  0
  8 11  2  0
 11 12  1  0
 12 13  1  0
 13 14  2  0
 14 15  1  0
 15 16  1  0
 16 17  2  0
 17 18  1  0
 18 19  2  0
 19 20  1  0
 20 21  2  0
 21 22  1  0
 22 23  3  0
 21 24  1  0
 24 25  2  0
 25 26  1  0
 26 27  1  0
 16 28  1  0
 28 29  1  0
 29 30  2  0
 30 31  1  0
 12 32  2  0
 32  6  1  0
 30 14  1  0
 25 18  1  0
  1 33  1  0
  1 34  1  0
  2 35  1  0
  5 36  1  0
  7 37  1  0
 11 38  1  0
 15 39  1  0
 19 40  1  0
 20 41  1  0
 24 42  1  0
 27 43  1  0
 27 44  1  0
 27 45  1  0
 28 46  1  0
 29 47  1  0
 32 48  1  0
M  END
>  <smiles>  (46) 
C=CC(=O)Nc1cc(C#N)cc(N=c2[nH]c(=Nc3ccc(C#N)cc3OC)[nH]cc2Cl)c1

>  <score_type>  (46) 
oracle

>  <origin>  (46) 
adgpu

>  <m_score__min__energy>  (46) 
-9.5500000000000007

>  <m_primary>  (46) 
energy

$$$$
46:0
     RDKit          3D

 50 52  0  0  0  0  0  0  0  0999 V2000
   -5.7470   16.7430  -31.2250 C   0  0  0  0  0  0  0  0  0  0  0  0
   -4.9470   16.8080  -32.4910 C   0  0  0  0  0  0  0  0  0  0  0  0
   -3.6860   16.2990  -32.4690 N   0  0  0  0  0  0  0  0  0  0  0  0
   -2.8970   16.3060  -33.5690 C   0  0  0  0  0  0  0  0  0  0  0  0
   -1.2490   15.6080  -33.4990 S   0  0  0  0  0  0  0  0  0  0  0  0
   -0.4030   17.1650  -33.9450 C   0  0  0  0  0  0  0  0  0  0  0  0
   -0.6510   18.2330  -32.9210 C   0  0  0  0  0  0  0  0  0  0  0  0
    0.2880   18.5840  -32.1570 O   0  0  0  0  0  0  0  0  0  0  0  0
   -1.9610   18.8020  -32.7770 N   0  0  0  0  0  0  0  0  0  0  0  0
   -2.2330   20.0470  -32.1090 C   0  0  0  0  0  0  0  0  0  0  0  0
   -2.8980   21.1030  -32.7590 C   0  0  0  0  0  0  0  0  0  0  0  0
   -3.1790   22.2880  -32.0750 C   0  0  0  0  0  0  0  0  0  0  0  0
   -2.8090   22.4350  -30.7330 C   0  0  0  0  0  0  0  0  0  0  0  0
   -3.1840   23.9290  -29.8790 S   0  0  0  0  0  0  0  0  0  0  0  0
   -4.2470   23.5690  -28.4990 C   0  0  0  0  0  0  0  0  0  0  0  0
   -1.9220   24.5730  -29.3780 O   0  0  0  0  0  0  0  0  0  0  0  0
   -3.8750   24.8790  -30.8160 O   0  0  0  0  0  0  0  0  0  0  0  0
   -2.1690   21.3770  -30.0730 C   0  0  0  0  0  0  0  0  0  0  0  0
   -1.8870   20.1900  -30.7560 C   0  0  0  0  0  0  0  0  0  0  0  0
   -3.3600   16.8260  -34.7310 N   0  0  0  0  0  0  0  0  0  0  0  0
   -4.6060   17.3540  -34.8200 C   0  0  0  0  0  0  0  0  0  0  0  0
   -4.9960   17.8070  -35.9280 O   0  0  0  0  0  0  0  0  0  0  0  0
   -5.4460   17.3890  -33.6850 C   0  0  0  0  0  0  0  0  0  0  0  0
   -6.8480   17.9750  -33.7790 C   0  0  0  0  0  0  0  0  0  0  0  0
   -6.9820   19.3070  -33.0700 C   0  0  0  0  0  0  0  0  0  0  0  0
   -6.0650   20.3350  -33.3630 C   0  0  0  0  0  0  0  0  0  0  0  0
   -6.1570   21.5750  -32.7270 C   0  0  0  0  0  0  0  0  0  0  0  0
   -7.1550   21.8030  -31.7770 C   0  0  0  0  0  0  0  0  0  0  0  0
   -7.2660   23.3600  -30.9780 Cl  0  0  0  0  0  0  0  0  0  0  0  0
   -8.0560   20.7860  -31.4560 C   0  0  0  0  0  0  0  0  0  0  0  0
   -7.9740   19.5380  -32.0880 C   0  0  0  0  0  0  0  0  0  0  0  0
   -9.1110   18.2910  -31.5920 Cl  0  0  0  0  0  0  0  0  0  0  0  0
   -5.0697   16.7980  -30.3600 H   0  0  0  0  0  0  0  0  0  0  0  0
   -6.4519   17.5868  -31.1930 H   0  0  0  0  0  0  0  0  0  0  0  0
   -6.3065   15.7964  -31.1930 H   0  0  0  0  0  0  0  0  0  0  0  0
    0.6789   16.9782  -34.0130 H   0  0  0  0  0  0  0  0  0  0  0  0
   -0.7997   17.5113  -34.9108 H   0  0  0  0  0  0  0  0  0  0  0  0
   -2.7700   18.2580  -33.1530 H   0  0  0  0  0  0  0  0  0  0  0  0
   -3.1983   20.9947  -33.8117 H   0  0  0  0  0  0  0  0  0  0  0  0
   -3.6938   23.1101  -32.5937 H   0  0  0  0  0  0  0  0  0  0  0  0
   -3.7040   23.7529  -27.5602 H   0  0  0  0  0  0  0  0  0  0  0  0
   -5.1353   24.2164  -28.5417 H   0  0  0  0  0  0  0  0  0  0  0  0
   -4.5591   22.5151  -28.5417 H   0  0  0  0  0  0  0  0  0  0  0  0
   -1.8878   21.4808  -29.0146 H   0  0  0  0  0  0  0  0  0  0  0  0
   -1.3903   19.3619  -30.2292 H   0  0  0  0  0  0  0  0  0  0  0  0
   -7.0983   18.1164  -34.8408 H   0  0  0  0  0  0  0  0  0  0  0  0
   -7.5330   17.2696  -33.2859 H   0  0  0  0  0  0  0  0  0  0  0  0
   -5.2680   20.1594  -34.1005 H   0  0  0  0  0  0  0  0  0  0  0  0
   -5.4421   22.3735  -32.9748 H   0  0  0  0  0  0  0  0  0  0  0  0
   -8.8360   20.9657  -30.7014 H   0  0  0  0  0  0  0  0  0  0  0  0
  1  2  1  0
  2  3  1  0
  3  4  1  0
  4  5  1  0
  5  6  1  0
  6  7  1  0
  7  8  2  0
  7  9  1  0
  9 10  1  0
 10 11  2  0
 11 12  1  0
 12 13  2  0
 13 14  1  0
 14 15  1  0
 14 16  2  0
 14 17  2  0
 13 18  1  0
 18 19  2  0
  4 20  2  0
 20 21  1  0
 21 22  2  0
 21 23  1  0
 23 24  1  0
 24 25  1  0
 25 26  2  0
 26 27  1  0
 27 28  2  0
 28 29  1  0
 28 30  1  0
 30 31  2  0
 31 32  1  0
 23  2  2  0
 31 25  1  0
 19 10  1  0
  1 33  1  0
  1 34  1  0
  1 35  1  0
  6 36  1  0
  6 37  1  0
  9 38  1  0
 11 39  1  0
 12 40  1  0
 15 41  1  0
 15 42  1  0
 15 43  1  0
 18 44  1  0
 19 45  1  0
 24 46  1  0
 24 47  1  0
 26 48  1  0
 27 49  1  0
 30 50  1  0
M  CHG  1   3  -1
M  END
>  <UniqueID>  (47) 
45

>  <SMILES>  (47) 
Cc1[n-]c(SCC(=O)Nc2ccc(S(C)(=O)=O)cc2)nc(=O)c1Cc1ccc(Cl)cc1Cl

>  <Energy>  (47) 
51.22847715472919

>  <Genealogy>  (47) 
Cc1[n-]c(SCC(=O)Nc2ccc(S(C)(=O)=O)cc2)nc(=O)c1Cc1ccc(Cl)cc1Cl (protonated)
Cc1[n-]c(SCC(=O)Nc2ccc(S(C)(=O)=O)cc2)nc(=O)c1Cc1ccc(Cl)cc1Cl (3D coordinates assigned)
Cc1[n-]c(SCC(=O)Nc2ccc(S(C)(=O)=O)cc2)nc(=O)c1Cc1ccc(Cl)cc1Cl (optimized conformer: 51.22847715472919 kcal/mol)

>  <smiles>  (47) 
Cc1[nH]c(SCC(=O)Nc2ccc(S(C)(=O)=O)cc2)nc(=O)c1Cc1ccc(Cl)cc1Cl

>  <score_type>  (47) 
oracle

>  <origin>  (47) 
adgpu

>  <m_score__min__energy>  (47) 
-9.6600000000000001

>  <m_primary>  (47) 
energy

$$$$
47:0
     RDKit          3D

 52 56  0  0  0  0  0  0  0  0999 V2000
   -4.4240   25.6680  -30.8410 O   0  0  0  0  0  0  0  0  0  0  0  0
   -4.3680   24.4080  -30.8180 C   0  0  0  0  0  0  0  0  0  0  0  0
   -3.1590   23.7580  -30.4070 N   0  0  0  0  0  0  0  0  0  0  0  0
   -2.9360   23.2410  -29.0610 C   0  0  0  0  0  0  0  0  0  0  0  0
   -2.1230   24.2150  -28.2550 C   0  0  0  0  0  0  0  0  0  0  0  0
   -2.6490   24.7780  -27.0850 C   0  0  0  0  0  0  0  0  0  0  0  0
   -1.8800   25.6680  -26.3310 C   0  0  0  0  0  0  0  0  0  0  0  0
   -0.5870   25.9820  -26.7540 C   0  0  0  0  0  0  0  0  0  0  0  0
   -0.0860   25.4210  -27.8860 N   0  0  0  0  0  0  0  0  0  0  0  0
   -0.8150   24.5530  -28.6380 C   0  0  0  0  0  0  0  0  0  0  0  0
   -5.5490   23.6060  -31.2090 C   0  0  0  0  0  0  0  0  0  0  0  0
   -6.8610   24.0460  -30.8830 C   0  0  0  0  0  0  0  0  0  0  0  0
   -7.9860   23.2790  -31.2320 C   0  0  0  0  0  0  0  0  0  0  0  0
   -7.7750   22.0880  -31.9180 C   0  0  0  0  0  0  0  0  0  0  0  0
   -8.6970   21.1920  -32.3040 N   0  0  0  0  0  0  0  0  0  0  0  0
   -8.0530   20.1910  -32.8970 N   0  0  0  0  0  0  0  0  0  0  0  0
   -6.7240   20.4520  -32.8930 C   0  0  0  0  0  0  0  0  0  0  0  0
   -5.7130   19.5470  -33.4770 C   0  0  0  0  0  0  0  0  0  0  0  0
   -6.0920   18.3790  -34.1570 C   0  0  0  0  0  0  0  0  0  0  0  0
   -5.1220   17.5270  -34.6880 C   0  0  0  0  0  0  0  0  0  0  0  0
   -3.7660   17.8240  -34.5370 C   0  0  0  0  0  0  0  0  0  0  0  0
   -3.3630   18.9800  -33.8460 C   0  0  0  0  0  0  0  0  0  0  0  0
   -1.9620   19.2790  -33.6700 N   0  0  0  0  0  0  0  0  0  0  0  0
   -1.5200   20.2030  -32.6170 C   0  0  0  0  0  0  0  0  0  0  0  0
   -0.9400   21.4820  -33.2290 C   0  0  0  0  0  0  0  0  0  0  0  0
    0.1590   21.2120  -34.6780 S   0  0  0  0  0  0  0  0  0  0  0  0
    0.3770   19.4070  -34.5200 C   0  0  0  0  0  0  0  0  0  0  0  0
   -0.9760   18.6950  -34.5940 C   0  0  0  0  0  0  0  0  0  0  0  0
   -4.3470   19.8310  -33.3100 C   0  0  0  0  0  0  0  0  0  0  0  0
   -6.5230   21.6640  -32.2590 C   0  0  0  0  0  0  0  0  0  0  0  0
   -5.3800   22.3820  -31.9030 C   0  0  0  0  0  0  0  0  0  0  0  0
   -3.9064   23.0831  -28.5677 H   0  0  0  0  0  0  0  0  0  0  0  0
   -2.3885   22.2894  -29.1298 H   0  0  0  0  0  0  0  0  0  0  0  0
   -3.6675   24.5193  -26.7599 H   0  0  0  0  0  0  0  0  0  0  0  0
   -2.2890   26.1166  -25.4137 H   0  0  0  0  0  0  0  0  0  0  0  0
    0.0268   26.6841  -26.1705 H   0  0  0  0  0  0  0  0  0  0  0  0
   -0.3790   24.1150  -29.5480 H   0  0  0  0  0  0  0  0  0  0  0  0
   -6.9975   24.9990  -30.3508 H   0  0  0  0  0  0  0  0  0  0  0  0
   -9.0017   23.6106  -30.9706 H   0  0  0  0  0  0  0  0  0  0  0  0
   -7.1582   18.1339  -34.2720 H   0  0  0  0  0  0  0  0  0  0  0  0
   -5.4271   16.6182  -35.2274 H   0  0  0  0  0  0  0  0  0  0  0  0
   -3.0082   17.1490  -34.9615 H   0  0  0  0  0  0  0  0  0  0  0  0
   -2.3790   20.4639  -31.9814 H   0  0  0  0  0  0  0  0  0  0  0  0
   -0.7389   19.7108  -32.0189 H   0  0  0  0  0  0  0  0  0  0  0  0
   -1.7778   22.1191  -33.5487 H   0  0  0  0  0  0  0  0  0  0  0  0
   -0.3171   21.9442  -32.4491 H   0  0  0  0  0  0  0  0  0  0  0  0
    1.0205   19.0473  -35.3364 H   0  0  0  0  0  0  0  0  0  0  0  0
    0.8412   19.1886  -33.5469 H   0  0  0  0  0  0  0  0  0  0  0  0
   -1.3624   18.7740  -35.6209 H   0  0  0  0  0  0  0  0  0  0  0  0
   -0.8218   17.6451  -34.3045 H   0  0  0  0  0  0  0  0  0  0  0  0
   -4.0432   20.7298  -32.7533 H   0  0  0  0  0  0  0  0  0  0  0  0
   -4.3764   22.0082  -32.1541 H   0  0  0  0  0  0  0  0  0  0  0  0
  1  2  2  0
  2  3  1  0
  3  4  1  0
  4  5  1  0
  5  6  2  0
  6  7  1  0
  7  8  2  0
  8  9  1  0
  9 10  2  0
  2 11  1  0
 11 12  1  0
 12 13  2  0
 13 14  1  0
 14 15  2  0
 15 16  1  0
 16 17  1  0
 17 18  1  0
 18 19  2  0
 19 20  1  0
 20 21  2  0
 21 22  1  0
 22 23  1  0
 23 24  1  0
 24 25  1  0
 25 26  1  0
 26 27  1  0
 27 28  1  0
 22 29  2  0
 17 30  2  0
 30 31  1  0
 10  5  1  0
 31 11  2  0
 30 14  1  0
 29 18  1  0
 28 23  1  0
  4 32  1  0
  4 33  1  0
  6 34  1  0
  7 35  1  0
  8 36  1  0
 10 37  1  0
 12 38  1  0
 13 39  1  0
 19 40  1  0
 20 41  1  0
 21 42  1  0
 24 43  1  0
 24 44  1  0
 25 45  1  0
 25 46  1  0
 27 47  1  0
 27 48  1  0
 28 49  1  0
 28 50  1  0
 29 51  1  0
 31 52  1  0
M  CHG  2   3  -1  16  -1
M  END
>  <UniqueID>  (48) 
46

>  <SMILES>  (48) 
O=C([N-]Cc1cccnc1)c1ccc2n[n-]c(-c3cccc(N4CCSCC4)c3)c2c1

>  <Energy>  (48) 
103.68069135322811

>  <Genealogy>  (48) 
O=C([N-]Cc1cccnc1)c1ccc2n[n-]c(-c3cccc(N4CCSCC4)c3)c2c1 (protonated)
O=C([N-]Cc1cccnc1)c1ccc2n[n-]c(-c3cccc(N4CCSCC4)c3)c2c1 (3D coordinates assigned)
O=C([N-]Cc1cccnc1)c1ccc2n[n-]c(-c3cccc(N4CCSCC4)c3)c2c1 (nonaromatic ring conformer: 103.68069135322811 kcal/mol)

>  <smiles>  (48) 
O=C(NCc1cccnc1)c1ccc2n[nH]c(-c3cccc(N4CCSCC4)c3)c2c1

>  <score_type>  (48) 
oracle

>  <origin>  (48) 
adgpu

>  <m_score__min__energy>  (48) 
-11.27

>  <m_primary>  (48) 
energy

$$$$
48:0
     RDKit          3D

 46 48  0  0  0  0  0  0  0  0999 V2000
   -3.9540   23.8150  -28.5920 O   0  0  0  0  0  0  0  0  0  0  0  0
   -3.2210   23.9690  -29.8960 S   0  0  0  0  0  0  0  0  0  0  0  0
   -1.7730   24.2370  -29.5990 O   0  0  0  0  0  0  0  0  0  0  0  0
   -3.8800   25.3060  -30.7850 N   0  0  0  0  0  0  0  0  0  0  0  0
   -5.2420   25.5770  -30.3360 C   0  0  0  0  0  0  0  0  0  0  0  0
   -6.1220   24.4190  -30.7030 C   0  0  0  0  0  0  0  0  0  0  0  0
   -6.3260   24.0770  -32.0470 C   0  0  0  0  0  0  0  0  0  0  0  0
   -7.1750   23.0190  -32.3760 C   0  0  0  0  0  0  0  0  0  0  0  0
   -7.8250   22.3200  -31.3570 C   0  0  0  0  0  0  0  0  0  0  0  0
   -7.6310   22.6730  -30.0590 N   0  0  0  0  0  0  0  0  0  0  0  0
   -6.8070   23.6990  -29.7120 C   0  0  0  0  0  0  0  0  0  0  0  0
   -3.3450   22.4910  -30.8470 C   0  0  0  0  0  0  0  0  0  0  0  0
   -2.4650   22.2470  -31.9100 C   0  0  0  0  0  0  0  0  0  0  0  0
   -2.5610   21.0620  -32.6440 C   0  0  0  0  0  0  0  0  0  0  0  0
   -3.5400   20.1090  -32.3260 C   0  0  0  0  0  0  0  0  0  0  0  0
   -3.6780   18.6240  -33.2680 S   0  0  0  0  0  0  0  0  0  0  0  0
   -2.9050   17.5300  -32.5870 O   0  0  0  0  0  0  0  0  0  0  0  0
   -3.0730   18.8420  -34.6280 O   0  0  0  0  0  0  0  0  0  0  0  0
   -5.3470   18.1330  -33.4520 N   0  0  0  0  0  0  0  0  0  0  0  0
   -5.9370   17.8170  -32.1320 C   0  0  0  0  0  0  0  0  0  0  0  0
   -7.4670   17.7940  -32.1960 C   0  0  0  0  0  0  0  0  0  0  0  0
   -8.0260   19.1730  -32.5890 C   0  0  0  0  0  0  0  0  0  0  0  0
   -7.0270   20.0090  -33.4070 C   0  0  0  0  0  0  0  0  0  0  0  0
   -6.1190   19.1110  -34.2590 C   0  0  0  0  0  0  0  0  0  0  0  0
   -4.4110   20.3500  -31.2530 C   0  0  0  0  0  0  0  0  0  0  0  0
   -4.3140   21.5340  -30.5190 C   0  0  0  0  0  0  0  0  0  0  0  0
   -5.2493   25.7132  -29.2445 H   0  0  0  0  0  0  0  0  0  0  0  0
   -5.6151   26.4922  -30.8189 H   0  0  0  0  0  0  0  0  0  0  0  0
   -5.8173   24.6421  -32.8420 H   0  0  0  0  0  0  0  0  0  0  0  0
   -7.3305   22.7386  -33.4282 H   0  0  0  0  0  0  0  0  0  0  0  0
   -8.4945   21.4831  -31.6049 H   0  0  0  0  0  0  0  0  0  0  0  0
   -6.6776   23.9646  -28.6524 H   0  0  0  0  0  0  0  0  0  0  0  0
   -1.6964   22.9906  -32.1673 H   0  0  0  0  0  0  0  0  0  0  0  0
   -1.8654   20.8754  -33.4754 H   0  0  0  0  0  0  0  0  0  0  0  0
   -5.5774   16.8299  -31.8061 H   0  0  0  0  0  0  0  0  0  0  0  0
   -5.6315   18.5978  -31.4199 H   0  0  0  0  0  0  0  0  0  0  0  0
   -7.7842   17.0516  -32.9431 H   0  0  0  0  0  0  0  0  0  0  0  0
   -7.8544   17.5308  -31.2007 H   0  0  0  0  0  0  0  0  0  0  0  0
   -8.9357   19.0255  -33.1895 H   0  0  0  0  0  0  0  0  0  0  0  0
   -8.2358   19.7229  -31.6597 H   0  0  0  0  0  0  0  0  0  0  0  0
   -7.5846   20.6873  -34.0695 H   0  0  0  0  0  0  0  0  0  0  0  0
   -6.3968   20.5799  -32.7092 H   0  0  0  0  0  0  0  0  0  0  0  0
   -6.7451   18.5580  -34.9747 H   0  0  0  0  0  0  0  0  0  0  0  0
   -5.3935   19.7640  -34.7663 H   0  0  0  0  0  0  0  0  0  0  0  0
   -5.1739   19.6029  -30.9886 H   0  0  0  0  0  0  0  0  0  0  0  0
   -5.0014   21.7160  -29.6797 H   0  0  0  0  0  0  0  0  0  0  0  0
  1  2  2  0
  2  3  2  0
  2  4  1  0
  4  5  1  0
  5  6  1  0
  6  7  2  0
  7  8  1  0
  8  9  2  0
  9 10  1  0
 10 11  2  0
  2 12  1  0
 12 13  2  0
 13 14  1  0
 14 15  2  0
 15 16  1  0
 16 17  2  0
 16 18  2  0
 16 19  1  0
 19 20  1  0
 20 21  1  0
 21 22  1  0
 22 23  1  0
 23 24  1  0
 15 25  1  0
 25 26  2  0
 11  6  1  0
 26 12  1  0
 24 19  1  0
  5 27  1  0
  5 28  1  0
  7 29  1  0
  8 30  1  0
  9 31  1  0
 11 32  1  0
 13 33  1  0
 14 34  1  0
 20 35  1  0
 20 36  1  0
 21 37  1  0
 21 38  1  0
 22 39  1  0
 22 40  1  0
 23 41  1  0
 23 42  1  0
 24 43  1  0
 24 44  1  0
 25 45  1  0
 26 46  1  0
M  CHG  1   4  -1
M  END
>  <UniqueID>  (49) 
47

>  <SMILES>  (49) 
O=S(=O)([N-]Cc1cccnc1)c1ccc(S(=O)(=O)N2CCCCC2)cc1

>  <Energy>  (49) 
50.047654274036546

>  <Genealogy>  (49) 
O=S(=O)([N-]Cc1cccnc1)c1ccc(S(=O)(=O)N2CCCCC2)cc1 (protonated)
O=S(=O)([N-]Cc1cccnc1)c1ccc(S(=O)(=O)N2CCCCC2)cc1 (3D coordinates assigned)
O=S(=O)([N-]Cc1cccnc1)c1ccc(S(=O)(=O)N2CCCCC2)cc1 (nonaromatic ring conformer: 50.047654274036546 kcal/mol)

>  <smiles>  (49) 
O=S(=O)(NCc1cccnc1)c1ccc(S(=O)(=O)N2CCCCC2)cc1

>  <score_type>  (49) 
oracle

>  <origin>  (49) 
adgpu

>  <m_score__min__energy>  (49) 
-11.140000000000001

>  <m_primary>  (49) 
energy

$$$$
49:0
     RDKit          3D

 44 46  0  0  0  0  0  0  0  0999 V2000
   -8.7150   19.2350  -32.1390 C   0  0  0  0  0  0  0  0  0  0  0  0
   -8.1620   20.3590  -32.8130 O   0  0  0  0  0  0  0  0  0  0  0  0
   -7.5350   21.4410  -32.1730 C   0  0  0  0  0  0  0  0  0  0  0  0
   -8.2290   22.6230  -31.8500 C   0  0  0  0  0  0  0  0  0  0  0  0
   -7.5760   23.6700  -31.1960 C   0  0  0  0  0  0  0  0  0  0  0  0
   -6.2200   23.5650  -30.8710 C   0  0  0  0  0  0  0  0  0  0  0  0
   -5.4220   24.8840  -30.0190 S   0  0  0  0  0  0  0  0  0  0  0  0
   -6.4340   25.9530  -29.7200 O   0  0  0  0  0  0  0  0  0  0  0  0
   -4.3330   25.4930  -30.8590 O   0  0  0  0  0  0  0  0  0  0  0  0
   -4.7710   24.3000  -28.5200 N   0  0  0  0  0  0  0  0  0  0  0  0
   -3.6220   23.4510  -28.3840 C   0  0  0  0  0  0  0  0  0  0  0  0
   -3.7150   22.1570  -27.8430 C   0  0  0  0  0  0  0  0  0  0  0  0
   -2.5730   21.3580  -27.6960 C   0  0  0  0  0  0  0  0  0  0  0  0
   -1.3190   21.8470  -28.1180 C   0  0  0  0  0  0  0  0  0  0  0  0
   -1.2280   23.1330  -28.6700 C   0  0  0  0  0  0  0  0  0  0  0  0
   -2.3750   23.9270  -28.8160 C   0  0  0  0  0  0  0  0  0  0  0  0
   -2.2780   25.1950  -29.3840 O   0  0  0  0  0  0  0  0  0  0  0  0
   -0.0600   21.0360  -27.9000 C   0  0  0  0  0  0  0  0  0  0  0  0
   -0.3370   19.6000  -27.7450 N   0  0  0  0  0  0  0  0  0  0  0  0
   -1.3730   19.3690  -26.7300 C   0  0  0  0  0  0  0  0  0  0  0  0
   -2.7180   19.9500  -27.1770 C   0  0  0  0  0  0  0  0  0  0  0  0
   -5.5200   22.3950  -31.1990 C   0  0  0  0  0  0  0  0  0  0  0  0
   -6.1740   21.3260  -31.8430 C   0  0  0  0  0  0  0  0  0  0  0  0
   -5.5100   20.1320  -32.1680 O   0  0  0  0  0  0  0  0  0  0  0  0
   -5.3520   19.6280  -33.4910 C   0  0  0  0  0  0  0  0  0  0  0  0
   -8.6406   19.3862  -31.0520 H   0  0  0  0  0  0  0  0  0  0  0  0
   -9.7719   19.1213  -32.4219 H   0  0  0  0  0  0  0  0  0  0  0  0
   -8.1601   18.3283  -32.4219 H   0  0  0  0  0  0  0  0  0  0  0  0
   -9.2921   22.7222  -32.1145 H   0  0  0  0  0  0  0  0  0  0  0  0
   -8.1317   24.5827  -30.9350 H   0  0  0  0  0  0  0  0  0  0  0  0
   -4.6952   21.7670  -27.5315 H   0  0  0  0  0  0  0  0  0  0  0  0
   -0.2502   23.5217  -28.9907 H   0  0  0  0  0  0  0  0  0  0  0  0
   -3.0960   25.6860  -29.7290 H   0  0  0  0  0  0  0  0  0  0  0  0
    0.6045   21.1760  -28.7654 H   0  0  0  0  0  0  0  0  0  0  0  0
    0.4091   21.3890  -26.9698 H   0  0  0  0  0  0  0  0  0  0  0  0
   -0.6680   19.2150  -28.6640 H   0  0  0  0  0  0  0  0  0  0  0  0
   -1.4842   18.2865  -26.5693 H   0  0  0  0  0  0  0  0  0  0  0  0
   -1.0681   19.8674  -25.7980 H   0  0  0  0  0  0  0  0  0  0  0  0
   -3.1321   19.3167  -27.9755 H   0  0  0  0  0  0  0  0  0  0  0  0
   -3.3879   19.9736  -26.3048 H   0  0  0  0  0  0  0  0  0  0  0  0
   -4.4515   22.3111  -30.9515 H   0  0  0  0  0  0  0  0  0  0  0  0
   -5.0232   18.5792  -33.4470 H   0  0  0  0  0  0  0  0  0  0  0  0
   -6.3124   19.6891  -34.0238 H   0  0  0  0  0  0  0  0  0  0  0  0
   -4.5984   20.2265  -34.0238 H   0  0  0  0  0  0  0  0  0  0  0  0
  1  2  1  0
  2  3  1  0
  3  4  2  0
  4  5  1  0
  5  6  2  0
  6  7  1  0
  7  8  2  0
  7  9  2  0
  7 10  1  0
 10 11  1  0
 11 12  2  0
 12 13  1  0
 13 14  2  0
 14 15  1  0
 15 16  2  0
 16 17  1  0
 14 18  1  0
 18 19  1  0
 19 20  1  0
 20 21  1  0
  6 22  1  0
 22 23  2  0
 23 24  1  0
 24 25  1  0
 23  3  1  0
 16 11  1  0
 21 13  1  0
  1 26  1  0
  1 27  1  0
  1 28  1  0
  4 29  1  0
  5 30  1  0
 12 31  1  0
 15 32  1  0
 17 33  1  0
 18 34  1  0
 18 35  1  0
 19 36  1  0
 20 37  1  0
 20 38  1  0
 21 39  1  0
 21 40  1  0
 22 41  1  0
 25 42  1  0
 25 43  1  0
 25 44  1  0
M  CHG  1  10  -1
M  END
>  <UniqueID>  (50) 
48

>  <SMILES>  (50) 
COc1ccc(S(=O)(=O)[N-]c2cc3c(cc2O)CNCC3)cc1OC

>  <Energy>  (50) 
49.71531518719857

>  <Genealogy>  (50) 
COc1ccc(S(=O)(=O)[N-]c2cc3c(cc2O)CNCC3)cc1OC (protonated)
COc1ccc(S(=O)(=O)[N-]c2cc3c(cc2O)CNCC3)cc1OC (3D coordinates assigned)
COc1ccc(S(=O)(=O)[N-]c2cc3c(cc2O)CNCC3)cc1OC (nonaromatic ring conformer: 49.71531518719857 kcal/mol)

>  <smiles>  (50) 
COc1ccc(S(=O)(=O)Nc2cc3c(cc2O)CNCC3)cc1OC

>  <score_type>  (50) 
oracle

>  <origin>  (50) 
adgpu

>  <m_score__min__energy>  (50) 
-9.6600000000000001

>  <m_primary>  (50) 
energy

$$$$
