0:0
     RDKit          3D

 57 60  0  0  0  0  0  0  0  0999 V2000
   -3.9550   24.1420  -30.8780 O   0  0  0  0  0  0  0  0  0  0  0  0
   -3.4580   23.4770  -29.9290 C   0  0  0  0  0  0  0  0  0  0  0  0
   -3.1370   22.0850  -30.1160 N   0  0  0  0  0  0  0  0  0  0  0  0
   -3.2560   21.3970  -31.3720 C   0  0  0  0  0  0  0  0  0  0  0  0
   -2.2040   21.3840  -32.3050 C   0  0  0  0  0  0  0  0  0  0  0  0
   -2.3350   20.6800  -33.5050 C   0  0  0  0  0  0  0  0  0  0  0  0
   -3.5060   19.9710  -33.7780 C   0  0  0  0  0  0  0  0  0  0  0  0
   -4.5500   19.9480  -32.8440 C   0  0  0  0  0  0  0  0  0  0  0  0
   -6.0140   19.0170  -33.1690 S   0  0  0  0  0  0  0  0  0  0  0  0
   -6.2460   18.0530  -32.0380 O   0  0  0  0  0  0  0  0  0  0  0  0
   -5.8200   18.2160  -34.4270 O   0  0  0  0  0  0  0  0  0  0  0  0
   -7.4200   20.0460  -33.3480 N   0  0  0  0  0  0  0  0  0  0  0  0
   -8.5950   19.4520  -32.7020 C   0  0  0  0  0  0  0  0  0  0  0  0
   -8.7580   20.0860  -31.3280 C   0  0  0  0  0  0  0  0  0  0  0  0
   -7.8770   21.3190  -31.3350 C   0  0  0  0  0  0  0  0  0  0  0  0
   -7.2130   21.3470  -32.7050 C   0  0  0  0  0  0  0  0  0  0  0  0
   -4.4200   20.6630  -31.6440 C   0  0  0  0  0  0  0  0  0  0  0  0
   -3.2260   24.1500  -28.6280 C   0  0  0  0  0  0  0  0  0  0  0  0
   -4.2580   24.1950  -27.6740 C   0  0  0  0  0  0  0  0  0  0  0  0
   -4.0570   24.8200  -26.4410 C   0  0  0  0  0  0  0  0  0  0  0  0
   -2.8230   25.3990  -26.1410 C   0  0  0  0  0  0  0  0  0  0  0  0
   -1.7790   25.3530  -27.0750 C   0  0  0  0  0  0  0  0  0  0  0  0
   -0.2030   26.0440  -26.7000 S   0  0  0  0  0  0  0  0  0  0  0  0
    0.8410   25.2910  -27.4770 O   0  0  0  0  0  0  0  0  0  0  0  0
   -0.1640   27.4880  -27.1160 O   0  0  0  0  0  0  0  0  0  0  0  0
    0.0920   25.8910  -24.9810 N   0  0  0  0  0  0  0  0  0  0  0  0
    1.5130   26.1270  -24.6420 C   0  0  0  0  0  0  0  0  0  0  0  0
    2.3010   24.8210  -24.4380 C   0  0  0  0  0  0  0  0  0  0  0  0
    1.7960   23.8090  -25.2810 O   0  0  0  0  0  0  0  0  0  0  0  0
    0.5020   23.4180  -24.8570 C   0  0  0  0  0  0  0  0  0  0  0  0
   -0.4050   24.6070  -24.4560 C   0  0  0  0  0  0  0  0  0  0  0  0
   -1.9810   24.7230  -28.3110 C   0  0  0  0  0  0  0  0  0  0  0  0
   -2.8430   21.5150  -29.2930 H   0  0  0  0  0  0  0  0  0  0  0  0
   -1.2740   21.9303  -32.0893 H   0  0  0  0  0  0  0  0  0  0  0  0
   -1.5133   20.6846  -34.2363 H   0  0  0  0  0  0  0  0  0  0  0  0
   -3.6094   19.4287  -34.7294 H   0  0  0  0  0  0  0  0  0  0  0  0
   -9.4912   19.6461  -33.3096 H   0  0  0  0  0  0  0  0  0  0  0  0
   -8.4636   18.3643  -32.6038 H   0  0  0  0  0  0  0  0  0  0  0  0
   -9.8079   20.3664  -31.1577 H   0  0  0  0  0  0  0  0  0  0  0  0
   -8.4741   19.3901  -30.5248 H   0  0  0  0  0  0  0  0  0  0  0  0
   -8.4838   22.2241  -31.1849 H   0  0  0  0  0  0  0  0  0  0  0  0
   -7.1331   21.2895  -30.5252 H   0  0  0  0  0  0  0  0  0  0  0  0
   -7.6631   22.1406  -33.3195 H   0  0  0  0  0  0  0  0  0  0  0  0
   -6.1368   21.5482  -32.5986 H   0  0  0  0  0  0  0  0  0  0  0  0
   -5.2386   20.6479  -30.9094 H   0  0  0  0  0  0  0  0  0  0  0  0
   -5.2310   23.7345  -27.9003 H   0  0  0  0  0  0  0  0  0  0  0  0
   -4.8734   24.8559  -25.7046 H   0  0  0  0  0  0  0  0  0  0  0  0
   -2.6695   25.8923  -25.1699 H   0  0  0  0  0  0  0  0  0  0  0  0
    1.9800   26.6954  -25.4599 H   0  0  0  0  0  0  0  0  0  0  0  0
    1.5398   26.6823  -23.6928 H   0  0  0  0  0  0  0  0  0  0  0  0
    3.3609   24.9956  -24.6750 H   0  0  0  0  0  0  0  0  0  0  0  0
    2.1975   24.4999  -23.3910 H   0  0  0  0  0  0  0  0  0  0  0  0
    0.0166   22.8725  -25.6797 H   0  0  0  0  0  0  0  0  0  0  0  0
    0.6314   22.7944  -23.9601 H   0  0  0  0  0  0  0  0  0  0  0  0
   -1.4158   24.4302  -24.8522 H   0  0  0  0  0  0  0  0  0  0  0  0
   -0.4097   24.6715  -23.3579 H   0  0  0  0  0  0  0  0  0  0  0  0
   -1.1583   24.6763  -29.0397 H   0  0  0  0  0  0  0  0  0  0  0  0
  1  2  2  0
  2  3  1  0
  3  4  1  0
  4  5  2  0
  5  6  1  0
  6  7  2  0
  7  8  1  0
  8  9  1  0
  9 10  2  0
  9 11  2  0
  9 12  1  0
 12 13  1  0
 13 14  1  0
 14 15  1  0
 15 16  1  0
  8 17  2  0
  2 18  1  0
 18 19  2  0
 19 20  1  0
 20 21  2  0
 21 22  1  0
 22 23  1  0
 23 24  2  0
 23 25  2  0
 23 26  1  0
 26 27  1  0
 27 28  1  0
 28 29  1  0
 29 30  1  0
 30 31  1  0
 22 32  2  0
 17  4  1  0
 32 18  1  0
 16 12  1  0
 31 26  1  0
  3 33  1  0
  5 34  1  0
  6 35  1  0
  7 36  1  0
 13 37  1  0
 13 38  1  0
 14 39  1  0
 14 40  1  0
 15 41  1  0
 15 42  1  0
 16 43  1  0
 16 44  1  0
 17 45  1  0
 19 46  1  0
 20 47  1  0
 21 48  1  0
 27 49  1  0
 27 50  1  0
 28 51  1  0
 28 52  1  0
 30 53  1  0
 30 54  1  0
 31 55  1  0
 31 56  1  0
 32 57  1  0
M  END
>  <UniqueID>  (1) 
1

>  <SMILES>  (1) 
O=C(Nc1cccc(S(=O)(=O)N2CCCC2)c1)c1cccc(S(=O)(=O)N2CCOCC2)c1

>  <Energy>  (1) 
76.69595684039216

>  <Genealogy>  (1) 
O=C(Nc1cccc(S(=O)(=O)N2CCCC2)c1)c1cccc(S(=O)(=O)N2CCOCC2)c1 (3D coordinates assigned)
O=C(Nc1cccc(S(=O)(=O)N2CCCC2)c1)c1cccc(S(=O)(=O)N2CCOCC2)c1 (nonaromatic ring conformer: 76.69595684039216 kcal/mol)

>  <smiles>  (1) 
O=C(Nc1cccc(S(=O)(=O)N2CCCC2)c1)c1cccc(S(=O)(=O)N2CCOCC2)c1

>  <score_type>  (1) 
oracle

>  <origin>  (1) 
adgpu

>  <m_score__min__energy>  (1) 
-10.49

>  <m_primary>  (1) 
energy

$$$$
1:0
     RDKit          3D

 44 46  0  0  0  0  0  0  0  0999 V2000
   -5.6250   25.2340  -30.5190 O   0  0  0  0  0  0  0  0  0  0  0  0
   -5.3030   24.2460  -31.2290 C   0  0  0  0  0  0  0  0  0  0  0  0
   -6.1980   23.8210  -32.2660 N   0  0  0  0  0  0  0  0  0  0  0  0
   -7.1750   22.7760  -32.1640 C   0  0  0  0  0  0  0  0  0  0  0  0
   -8.5380   23.0580  -31.9620 C   0  0  0  0  0  0  0  0  0  0  0  0
   -9.4630   22.0150  -31.8620 C   0  0  0  0  0  0  0  0  0  0  0  0
   -9.0350   20.6880  -31.9480 C   0  0  0  0  0  0  0  0  0  0  0  0
   -7.6760   20.3960  -32.1190 C   0  0  0  0  0  0  0  0  0  0  0  0
   -7.1570   18.7180  -32.2440 S   0  0  0  0  0  0  0  0  0  0  0  0
   -8.3520   17.8300  -32.0330 O   0  0  0  0  0  0  0  0  0  0  0  0
   -6.1390   18.4160  -31.1790 O   0  0  0  0  0  0  0  0  0  0  0  0
   -6.4730   18.4500  -33.8330 N   0  0  0  0  0  0  0  0  0  0  0  0
   -5.1590   19.1210  -33.9940 C   0  0  0  0  0  0  0  0  0  0  0  0
   -3.9890   18.1570  -34.2580 C   0  0  0  0  0  0  0  0  0  0  0  0
   -4.0700   16.9510  -33.3260 C   0  0  0  0  0  0  0  0  0  0  0  0
   -5.4070   16.2020  -33.4690 C   0  0  0  0  0  0  0  0  0  0  0  0
   -6.4860   17.0210  -34.2020 C   0  0  0  0  0  0  0  0  0  0  0  0
   -6.7490   21.4430  -32.2200 C   0  0  0  0  0  0  0  0  0  0  0  0
   -4.0730   23.4860  -30.9070 C   0  0  0  0  0  0  0  0  0  0  0  0
   -3.8890   22.2160  -31.4810 C   0  0  0  0  0  0  0  0  0  0  0  0
   -2.7620   21.4520  -31.1680 C   0  0  0  0  0  0  0  0  0  0  0  0
   -1.8090   21.9440  -30.2760 C   0  0  0  0  0  0  0  0  0  0  0  0
   -1.9760   23.2060  -29.7010 C   0  0  0  0  0  0  0  0  0  0  0  0
   -3.0920   23.9890  -30.0170 C   0  0  0  0  0  0  0  0  0  0  0  0
   -3.1800   25.2650  -29.4550 O   0  0  0  0  0  0  0  0  0  0  0  0
   -8.8767   24.1015  -31.8826 H   0  0  0  0  0  0  0  0  0  0  0  0
  -10.5298   22.2394  -31.7153 H   0  0  0  0  0  0  0  0  0  0  0  0
   -9.7675   19.8701  -31.8812 H   0  0  0  0  0  0  0  0  0  0  0  0
   -5.2292   19.8191  -34.8412 H   0  0  0  0  0  0  0  0  0  0  0  0
   -4.9433   19.6282  -33.0420 H   0  0  0  0  0  0  0  0  0  0  0  0
   -4.0327   17.8118  -35.3015 H   0  0  0  0  0  0  0  0  0  0  0  0
   -3.0428   18.6867  -34.0734 H   0  0  0  0  0  0  0  0  0  0  0  0
   -3.2483   16.2603  -33.5664 H   0  0  0  0  0  0  0  0  0  0  0  0
   -3.9930   17.3151  -32.2909 H   0  0  0  0  0  0  0  0  0  0  0  0
   -5.2294   15.2742  -34.0326 H   0  0  0  0  0  0  0  0  0  0  0  0
   -5.7808   16.0037  -32.4536 H   0  0  0  0  0  0  0  0  0  0  0  0
   -6.3147   16.9368  -35.2853 H   0  0  0  0  0  0  0  0  0  0  0  0
   -7.4649   16.6137  -33.9090 H   0  0  0  0  0  0  0  0  0  0  0  0
   -5.6799   21.2159  -32.3441 H   0  0  0  0  0  0  0  0  0  0  0  0
   -4.6385   21.8206  -32.1823 H   0  0  0  0  0  0  0  0  0  0  0  0
   -2.6259   20.4610  -31.6256 H   0  0  0  0  0  0  0  0  0  0  0  0
   -0.9258   21.3380  -30.0254 H   0  0  0  0  0  0  0  0  0  0  0  0
   -1.2243   23.5874  -28.9942 H   0  0  0  0  0  0  0  0  0  0  0  0
   -4.0350   25.6430  -29.0690 H   0  0  0  0  0  0  0  0  0  0  0  0
  1  2  2  0
  2  3  1  0
  3  4  1  0
  4  5  2  0
  5  6  1  0
  6  7  2  0
  7  8  1  0
  8  9  1  0
  9 10  2  0
  9 11  2  0
  9 12  1  0
 12 13  1  0
 13 14  1  0
 14 15  1  0
 15 16  1  0
 16 17  1  0
  8 18  2  0
  2 19  1  0
 19 20  2  0
 20 21  1  0
 21 22  2  0
 22 23  1  0
 23 24  2  0
 24 25  1  0
 18  4  1  0
 24 19  1  0
 17 12  1  0
  5 26  1  0
  6 27  1  0
  7 28  1  0
 13 29  1  0
 13 30  1  0
 14 31  1  0
 14 32  1  0
 15 33  1  0
 15 34  1  0
 16 35  1  0
 16 36  1  0
 17 37  1  0
 17 38  1  0
 18 39  1  0
 20 40  1  0
 21 41  1  0
 22 42  1  0
 23 43  1  0
 25 44  1  0
M  CHG  1   3  -1
M  END
>  <UniqueID>  (2) 
2

>  <SMILES>  (2) 
O=C([N-]c1cccc(S(=O)(=O)N2CCCCC2)c1)c1ccccc1O

>  <Energy>  (2) 
61.69951733943323

>  <Genealogy>  (2) 
O=C([N-]c1cccc(S(=O)(=O)N2CCCCC2)c1)c1ccccc1O (protonated)
O=C([N-]c1cccc(S(=O)(=O)N2CCCCC2)c1)c1ccccc1O (3D coordinates assigned)
O=C([N-]c1cccc(S(=O)(=O)N2CCCCC2)c1)c1ccccc1O (nonaromatic ring conformer: 61.69951733943323 kcal/mol)

>  <smiles>  (2) 
O=C(Nc1cccc(S(=O)(=O)N2CCCCC2)c1)c1ccccc1O

>  <score_type>  (2) 
oracle

>  <origin>  (2) 
adgpu

>  <m_score__min__energy>  (2) 
-11.01

>  <m_primary>  (2) 
energy

$$$$
2:0
     RDKit          3D

 42 43  0  0  0  0  0  0  0  0999 V2000
   -2.7610   21.0160  -27.9330 C   0  0  0  0  0  0  0  0  0  0  0  0
   -2.2360   22.2350  -28.6860 C   0  0  0  0  0  0  0  0  0  0  0  0
   -3.1380   23.4520  -28.4660 C   0  0  0  0  0  0  0  0  0  0  0  0
   -2.7630   24.5570  -29.3990 C   0  0  0  0  0  0  0  0  0  0  0  0
   -1.8050   25.3250  -29.1080 O   0  0  0  0  0  0  0  0  0  0  0  0
   -3.5320   24.7760  -30.5880 N   0  0  0  0  0  0  0  0  0  0  0  0
   -4.9000   24.3780  -30.7510 C   0  0  0  0  0  0  0  0  0  0  0  0
   -5.8660   24.9650  -29.9230 C   0  0  0  0  0  0  0  0  0  0  0  0
   -7.2200   24.6660  -30.0940 C   0  0  0  0  0  0  0  0  0  0  0  0
   -7.6190   23.7710  -31.0870 C   0  0  0  0  0  0  0  0  0  0  0  0
   -6.6640   23.1510  -31.8960 C   0  0  0  0  0  0  0  0  0  0  0  0
   -5.2990   23.4210  -31.7170 C   0  0  0  0  0  0  0  0  0  0  0  0
   -4.3400   22.6970  -32.5070 N   0  0  0  0  0  0  0  0  0  0  0  0
   -3.5520   21.6250  -31.9660 C   0  0  0  0  0  0  0  0  0  0  0  0
   -3.9250   21.0530  -30.9050 O   0  0  0  0  0  0  0  0  0  0  0  0
   -2.3060   21.1810  -32.6360 C   0  0  0  0  0  0  0  0  0  0  0  0
   -2.3490   20.5030  -33.8680 C   0  0  0  0  0  0  0  0  0  0  0  0
   -1.1680   20.1130  -34.5080 C   0  0  0  0  0  0  0  0  0  0  0  0
    0.0800   20.3970  -33.9260 C   0  0  0  0  0  0  0  0  0  0  0  0
    1.2930   20.0270  -34.5280 O   0  0  0  0  0  0  0  0  0  0  0  0
    2.2690   20.9490  -34.9990 C   0  0  0  0  0  0  0  0  0  0  0  0
    0.1250   21.0750  -32.7040 C   0  0  0  0  0  0  0  0  0  0  0  0
   -1.0540   21.4690  -32.0650 C   0  0  0  0  0  0  0  0  0  0  0  0
   -2.6847   21.1931  -26.8500 H   0  0  0  0  0  0  0  0  0  0  0  0
   -3.8133   20.8433  -28.2031 H   0  0  0  0  0  0  0  0  0  0  0  0
   -2.1635   20.1328  -28.2031 H   0  0  0  0  0  0  0  0  0  0  0  0
   -1.2230   22.4696  -28.3272 H   0  0  0  0  0  0  0  0  0  0  0  0
   -2.2222   22.0013  -29.7608 H   0  0  0  0  0  0  0  0  0  0  0  0
   -4.1842   23.1646  -28.6473 H   0  0  0  0  0  0  0  0  0  0  0  0
   -3.0150   23.8034  -27.4309 H   0  0  0  0  0  0  0  0  0  0  0  0
   -5.5564   25.6656  -29.1335 H   0  0  0  0  0  0  0  0  0  0  0  0
   -7.9726   25.1370  -29.4446 H   0  0  0  0  0  0  0  0  0  0  0  0
   -8.6873   23.5533  -31.2331 H   0  0  0  0  0  0  0  0  0  0  0  0
   -6.9841   22.4468  -32.6781 H   0  0  0  0  0  0  0  0  0  0  0  0
   -4.3560   22.8310  -33.5420 H   0  0  0  0  0  0  0  0  0  0  0  0
   -3.3204   20.2775  -34.3323 H   0  0  0  0  0  0  0  0  0  0  0  0
   -1.2158   19.5821  -35.4702 H   0  0  0  0  0  0  0  0  0  0  0  0
    2.7701   21.4223  -34.1418 H   0  0  0  0  0  0  0  0  0  0  0  0
    3.0125   20.4158  -35.6097 H   0  0  0  0  0  0  0  0  0  0  0  0
    1.7790   21.7216  -35.6097 H   0  0  0  0  0  0  0  0  0  0  0  0
    1.0972   21.3004  -32.2413 H   0  0  0  0  0  0  0  0  0  0  0  0
   -1.0019   22.0086  -31.1079 H   0  0  0  0  0  0  0  0  0  0  0  0
  1  2  1  0
  2  3  1  0
  3  4  1  0
  4  5  2  0
  4  6  1  0
  6  7  1  0
  7  8  2  0
  8  9  1  0
  9 10  2  0
 10 11  1  0
 11 12  2  0
 12 13  1  0
 13 14  1  0
 14 15  2  0
 14 16  1  0
 16 17  2  0
 17 18  1  0
 18 19  2  0
 19 20  1  0
 20 21  1  0
 19 22  1  0
 22 23  2  0
 12  7  1  0
 23 16  1  0
  1 24  1  0
  1 25  1  0
  1 26  1  0
  2 27  1  0
  2 28  1  0
  3 29  1  0
  3 30  1  0
  8 31  1  0
  9 32  1  0
 10 33  1  0
 11 34  1  0
 13 35  1  0
 17 36  1  0
 18 37  1  0
 21 38  1  0
 21 39  1  0
 21 40  1  0
 22 41  1  0
 23 42  1  0
M  CHG  1   6  -1
M  END
>  <UniqueID>  (3) 
3

>  <SMILES>  (3) 
CCCC(=O)[N-]c1ccccc1NC(=O)c1ccc(OC)cc1

>  <Energy>  (3) 
46.35955271152433

>  <Genealogy>  (3) 
CCCC(=O)[N-]c1ccccc1NC(=O)c1ccc(OC)cc1 (protonated)
CCCC(=O)[N-]c1ccccc1NC(=O)c1ccc(OC)cc1 (3D coordinates assigned)
CCCC(=O)[N-]c1ccccc1NC(=O)c1ccc(OC)cc1 (optimized conformer: 46.35955271152433 kcal/mol)

>  <smiles>  (3) 
CCCC(=O)Nc1ccccc1NC(=O)c1ccc(OC)cc1

>  <score_type>  (3) 
oracle

>  <origin>  (3) 
adgpu

>  <m_score__min__energy>  (3) 
-8.4499999999999993

>  <m_primary>  (3) 
energy

$$$$
3:0
     RDKit          3D

 32 33  0  0  0  0  0  0  0  0999 V2000
   -7.2500   23.0640  -31.5380 C   0  0  0  0  0  0  0  0  0  0  0  0
   -6.1020   23.9070  -31.2210 N   0  0  0  0  0  0  0  0  0  0  0  0
   -4.8170   23.4320  -30.7630 C   0  0  0  0  0  0  0  0  0  0  0  0
   -4.6230   22.0440  -30.6580 C   0  0  0  0  0  0  0  0  0  0  0  0
   -3.4040   21.5200  -30.2230 C   0  0  0  0  0  0  0  0  0  0  0  0
   -2.3460   22.3730  -29.8870 C   0  0  0  0  0  0  0  0  0  0  0  0
   -1.0430   21.8130  -29.3820 C   0  0  0  0  0  0  0  0  0  0  0  0
   -0.7660   22.3030  -27.9840 C   0  0  0  0  0  0  0  0  0  0  0  0
   -1.1120   21.5010  -26.8840 C   0  0  0  0  0  0  0  0  0  0  0  0
   -0.8320   21.9250  -25.5820 C   0  0  0  0  0  0  0  0  0  0  0  0
   -0.1950   23.1530  -25.3610 C   0  0  0  0  0  0  0  0  0  0  0  0
    0.0910   23.5840  -24.0280 N   0  0  0  0  0  0  0  0  0  0  0  0
    0.1610   23.9530  -26.4540 C   0  0  0  0  0  0  0  0  0  0  0  0
   -0.1170   23.5340  -27.7600 C   0  0  0  0  0  0  0  0  0  0  0  0
    0.2540   24.3460  -28.8250 O   0  0  0  0  0  0  0  0  0  0  0  0
   -2.5300   23.7600  -29.9790 C   0  0  0  0  0  0  0  0  0  0  0  0
   -3.7480   24.2940  -30.4140 C   0  0  0  0  0  0  0  0  0  0  0  0
   -3.8680   25.6760  -30.4870 O   0  0  0  0  0  0  0  0  0  0  0  0
   -7.7201   22.7188  -30.6053 H   0  0  0  0  0  0  0  0  0  0  0  0
   -7.9793   23.6428  -32.1238 H   0  0  0  0  0  0  0  0  0  0  0  0
   -6.9161   22.1949  -32.1238 H   0  0  0  0  0  0  0  0  0  0  0  0
   -6.2360   24.9380  -31.3360 H   0  0  0  0  0  0  0  0  0  0  0  0
   -5.4434   21.3605  -30.9223 H   0  0  0  0  0  0  0  0  0  0  0  0
   -3.2743   20.4305  -30.1439 H   0  0  0  0  0  0  0  0  0  0  0  0
   -1.0988   20.7144  -29.3764 H   0  0  0  0  0  0  0  0  0  0  0  0
   -0.2309   22.1474  -30.0443 H   0  0  0  0  0  0  0  0  0  0  0  0
   -1.6068   20.5324  -27.0484 H   0  0  0  0  0  0  0  0  0  0  0  0
   -1.1129   21.2920  -24.7274 H   0  0  0  0  0  0  0  0  0  0  0  0
    0.0690   22.9090  -23.2310 H   0  0  0  0  0  0  0  0  0  0  0  0
    0.3280   24.5810  -23.8270 H   0  0  0  0  0  0  0  0  0  0  0  0
    0.6626   24.9173  -26.2848 H   0  0  0  0  0  0  0  0  0  0  0  0
   -1.7068   24.4366  -29.7059 H   0  0  0  0  0  0  0  0  0  0  0  0
  1  2  1  0
  2  3  1  0
  3  4  2  0
  4  5  1  0
  5  6  2  0
  6  7  1  0
  7  8  1  0
  8  9  2  0
  9 10  1  0
 10 11  2  0
 11 12  1  0
 11 13  1  0
 13 14  2  0
 14 15  1  0
  6 16  1  0
 16 17  2  0
 17 18  1  0
 17  3  1  0
 14  8  1  0
  1 19  1  0
  1 20  1  0
  1 21  1  0
  2 22  1  0
  4 23  1  0
  5 24  1  0
  7 25  1  0
  7 26  1  0
  9 27  1  0
 10 28  1  0
 12 29  1  0
 12 30  1  0
 13 31  1  0
 16 32  1  0
M  CHG  2  15  -1  18  -1
M  END
>  <UniqueID>  (4) 
4

>  <SMILES>  (4) 
CNc1ccc(Cc2ccc(N)cc2[O-])cc1[O-]

>  <Energy>  (4) 
32.35999102530633

>  <Genealogy>  (4) 
CNc1ccc(Cc2ccc(N)cc2[O-])cc1[O-] (protonated)
CNc1ccc(Cc2ccc(N)cc2[O-])cc1[O-] (3D coordinates assigned)
CNc1ccc(Cc2ccc(N)cc2[O-])cc1[O-] (optimized conformer: 32.35999102530633 kcal/mol)

>  <smiles>  (4) 
CNc1ccc(Cc2ccc(N)cc2O)cc1O

>  <score_type>  (4) 
oracle

>  <origin>  (4) 
adgpu

>  <m_score__min__energy>  (4) 
-9.8499999999999996

>  <m_primary>  (4) 
energy

$$$$
4:0
     RDKit          3D

 48 51  0  0  1  0  0  0  0  0999 V2000
   -9.3710   21.6040  -30.4990 C   0  0  0  0  0  0  0  0  0  0  0  0
   -8.3240   21.0670  -31.3540 C   0  0  0  0  0  0  0  0  0  0  0  0
   -8.6470   19.8200  -32.6370 S   0  0  0  0  0  0  0  0  0  0  0  0
   -6.9160   19.7330  -33.0630 C   0  0  0  0  0  0  0  0  0  0  0  0
   -6.4300   18.9310  -34.0180 N   0  0  0  0  0  0  0  0  0  0  0  0
   -5.1160   18.9230  -34.2580 C   0  0  0  0  0  0  0  0  0  0  0  0
   -4.3620   19.7290  -33.5060 N   0  0  0  0  0  0  0  0  0  0  0  0
   -4.8480   20.5430  -32.5330 C   0  0  0  0  0  0  0  0  0  0  0  0
   -4.0880   21.0800  -31.7880 N   0  0  0  0  0  0  0  0  0  0  0  0
   -3.8590   21.8560  -30.7850 C   0  0  0  0  0  0  0  0  0  0  0  0
   -3.7650   23.2660  -30.8900 C   0  0  0  0  0  0  0  0  0  0  0  0
   -3.3830   24.0490  -29.8420 C   0  0  0  0  0  0  0  0  0  0  0  0
   -3.0700   23.4860  -28.6290 C   0  0  0  0  0  0  0  0  0  0  0  0
   -2.6640   24.2820  -27.5060 N   0  0  0  0  0  0  0  0  0  0  0  0
   -1.6500   25.2430  -27.7520 C   0  0  0  0  0  0  0  0  0  0  0  0
   -1.2070   25.2980  -28.9440 O   0  0  0  0  0  0  0  0  0  0  0  0
   -1.1380   26.1220  -26.7050 C   0  0  0  0  0  0  0  0  0  0  0  0
   -1.2120   25.8320  -25.3650 C   0  0  0  0  0  0  0  0  0  0  0  0
   -0.6960   26.7360  -24.4620 C   0  0  0  0  0  0  0  0  0  0  0  0
   -0.7510   26.4780  -23.0840 O   0  0  0  0  0  0  0  0  0  0  0  0
   -0.1030   27.9270  -24.8330 C   0  0  0  0  0  0  0  0  0  0  0  0
    0.4140   28.8290  -23.9130 O   0  0  0  0  0  0  0  0  0  0  0  0
   -0.0290   28.2190  -26.1900 C   0  0  0  0  0  0  0  0  0  0  0  0
    0.5650   29.4160  -26.6080 O   0  0  0  0  0  0  0  0  0  0  0  0
   -0.5470   27.3090  -27.0840 C   0  0  0  0  0  0  0  0  0  0  0  0
   -3.1430   22.1420  -28.4750 C   0  0  0  0  0  0  0  0  0  0  0  0
   -3.5200   21.3410  -29.5000 C   0  0  0  0  0  0  0  0  0  0  0  0
   -6.2350   20.5980  -32.2550 C   0  0  0  0  0  0  0  0  0  0  0  0
   -6.9350   21.3130  -31.3640 C   0  0  0  0  0  0  0  0  0  0  0  0
   -6.5580   22.5020  -30.4920 C   0  0  0  0  0  0  0  0  0  0  0  0
   -9.0925   21.4612  -29.4445 H   0  0  0  0  0  0  0  0  0  0  0  0
   -9.4963   22.6776  -30.7030 H   0  0  0  0  0  0  0  0  0  0  0  0
  -10.3160   21.0793  -30.7030 H   0  0  0  0  0  0  0  0  0  0  0  0
   -4.6762   18.2834  -35.0374 H   0  0  0  0  0  0  0  0  0  0  0  0
   -3.3230   19.6900  -33.7310 H   0  0  0  0  0  0  0  0  0  0  0  0
   -4.0086   23.7448  -31.8499 H   0  0  0  0  0  0  0  0  0  0  0  0
   -3.3249   25.1401  -29.9686 H   0  0  0  0  0  0  0  0  0  0  0  0
   -3.0810   24.1720  -26.5590 H   0  0  0  0  0  0  0  0  0  0  0  0
   -1.6744   24.8958  -25.0189 H   0  0  0  0  0  0  0  0  0  0  0  0
    0.0430   26.0460  -22.6100 H   0  0  0  0  0  0  0  0  0  0  0  0
    0.2730   28.7210  -22.9030 H   0  0  0  0  0  0  0  0  0  0  0  0
    0.9270   30.0140  -25.8730 H   0  0  0  0  0  0  0  0  0  0  0  0
   -0.4862   27.5411  -28.1575 H   0  0  0  0  0  0  0  0  0  0  0  0
   -2.8921   21.6942  -27.5021 H   0  0  0  0  0  0  0  0  0  0  0  0
   -3.5662   20.2544  -29.3349 H   0  0  0  0  0  0  0  0  0  0  0  0
   -6.6468   22.2220  -29.4319 H   0  0  0  0  0  0  0  0  0  0  0  0
   -5.5212   22.8002  -30.7069 H   0  0  0  0  0  0  0  0  0  0  0  0
   -7.2335   23.3431  -30.7069 H   0  0  0  0  0  0  0  0  0  0  0  0
  1  2  1  0
  2  3  1  0
  3  4  1  0
  4  5  1  0
  5  6  2  0
  6  7  1  0
  7  8  1  0
  8  9  2  0
  9 10  1  0
 10 11  2  0
 11 12  1  0
 12 13  2  0
 13 14  1  0
 14 15  1  0
 15 16  2  0
 15 17  1  0
 17 18  2  0
 18 19  1  0
 19 20  1  0
 19 21  2  0
 21 22  1  0
 21 23  1  0
 23 24  1  0
 23 25  2  0
 13 26  1  0
 26 27  2  0
  8 28  1  0
 28 29  1  0
 29 30  1  0
 29  2  2  0
 28  4  2  0
 27 10  1  0
 25 17  1  0
  1 31  1  0
  1 32  1  0
  1 33  1  0
  6 34  1  0
  7 35  1  0
 11 36  1  0
 12 37  1  0
 14 38  1  0
 18 39  1  0
 20 40  1  0
 22 41  1  0
 24 42  1  0
 25 43  1  0
 26 44  1  0
 27 45  1  0
 30 46  1  0
 30 47  1  0
 30 48  1  0
M  END
>  <smiles>  (5) 
Cc1sc2nc[nH]c(=Nc3ccc(NC(=O)c4cc(O)c(O)c(O)c4)cc3)c2c1C

>  <score_type>  (5) 
oracle

>  <origin>  (5) 
adgpu

>  <m_score__min__energy>  (5) 
-8.5800000000000001

>  <m_primary>  (5) 
energy

$$$$
5:0
     RDKit          3D

 57 60  0  0  0  0  0  0  0  0999 V2000
   -0.7780   24.8510  -26.8730 C   0  0  0  0  0  0  0  0  0  0  0  0
   -1.9050   24.7520  -27.8430 C   0  0  0  0  0  0  0  0  0  0  0  0
   -3.1610   24.2450  -27.5800 C   0  0  0  0  0  0  0  0  0  0  0  0
   -3.7980   24.3770  -28.7930 C   0  0  0  0  0  0  0  0  0  0  0  0
   -5.0280   24.0330  -29.0220 N   0  0  0  0  0  0  0  0  0  0  0  0
   -5.7920   24.2350  -30.5650 S   0  0  0  0  0  0  0  0  0  0  0  0
   -5.0760   25.3060  -31.3350 O   0  0  0  0  0  0  0  0  0  0  0  0
   -7.2200   24.6540  -30.3510 O   0  0  0  0  0  0  0  0  0  0  0  0
   -5.7280   22.7280  -31.4750 C   0  0  0  0  0  0  0  0  0  0  0  0
   -6.8370   21.8740  -31.5070 C   0  0  0  0  0  0  0  0  0  0  0  0
   -6.7800   20.6720  -32.2180 C   0  0  0  0  0  0  0  0  0  0  0  0
   -5.6130   20.3160  -32.9200 C   0  0  0  0  0  0  0  0  0  0  0  0
   -5.5200   19.0720  -33.6370 N   0  0  0  0  0  0  0  0  0  0  0  0
   -5.7990   17.7900  -33.0490 C   0  0  0  0  0  0  0  0  0  0  0  0
   -6.5170   17.7190  -32.0140 O   0  0  0  0  0  0  0  0  0  0  0  0
   -5.2970   16.5410  -33.6740 C   0  0  0  0  0  0  0  0  0  0  0  0
   -5.7140   15.2890  -33.1870 C   0  0  0  0  0  0  0  0  0  0  0  0
   -5.2440   14.1090  -33.7680 C   0  0  0  0  0  0  0  0  0  0  0  0
   -4.3400   14.1590  -34.8350 C   0  0  0  0  0  0  0  0  0  0  0  0
   -3.7850   12.6640  -35.5810 S   0  0  0  0  0  0  0  0  0  0  0  0
   -3.6860   11.6040  -34.5180 O   0  0  0  0  0  0  0  0  0  0  0  0
   -2.4260   12.8530  -36.1930 O   0  0  0  0  0  0  0  0  0  0  0  0
   -4.9150   12.1890  -36.8120 N   0  0  0  0  0  0  0  0  0  0  0  0
   -4.4360   12.0870  -38.1900 C   0  0  0  0  0  0  0  0  0  0  0  0
   -6.3240   12.1560  -36.5260 C   0  0  0  0  0  0  0  0  0  0  0  0
   -7.2550   12.5180  -37.5170 C   0  0  0  0  0  0  0  0  0  0  0  0
   -8.6270   12.4900  -37.2400 C   0  0  0  0  0  0  0  0  0  0  0  0
   -9.0780   12.1130  -35.9720 C   0  0  0  0  0  0  0  0  0  0  0  0
   -8.1590   11.7600  -34.9780 C   0  0  0  0  0  0  0  0  0  0  0  0
   -6.7870   11.7830  -35.2520 C   0  0  0  0  0  0  0  0  0  0  0  0
   -3.9170   15.3990  -35.3260 C   0  0  0  0  0  0  0  0  0  0  0  0
   -4.3860   16.5820  -34.7470 C   0  0  0  0  0  0  0  0  0  0  0  0
   -4.5000   21.1680  -32.8710 C   0  0  0  0  0  0  0  0  0  0  0  0
   -4.5600   22.3720  -32.1620 C   0  0  0  0  0  0  0  0  0  0  0  0
   -2.9750   24.9210  -29.7100 N   0  0  0  0  0  0  0  0  0  0  0  0
   -1.8430   25.1310  -29.1000 O   0  0  0  0  0  0  0  0  0  0  0  0
   -1.1732   24.8163  -25.8470 H   0  0  0  0  0  0  0  0  0  0  0  0
   -0.0859   24.0102  -27.0280 H   0  0  0  0  0  0  0  0  0  0  0  0
   -0.2431   25.7996  -27.0280 H   0  0  0  0  0  0  0  0  0  0  0  0
   -3.5546   23.8374  -26.6372 H   0  0  0  0  0  0  0  0  0  0  0  0
   -7.7567   22.1501  -30.9705 H   0  0  0  0  0  0  0  0  0  0  0  0
   -7.6515   20.0009  -32.2290 H   0  0  0  0  0  0  0  0  0  0  0  0
   -5.3600   19.1150  -34.6690 H   0  0  0  0  0  0  0  0  0  0  0  0
   -6.4160   15.2388  -32.3416 H   0  0  0  0  0  0  0  0  0  0  0  0
   -5.5860   13.1361  -33.3852 H   0  0  0  0  0  0  0  0  0  0  0  0
   -3.3601   11.8579  -38.1882 H   0  0  0  0  0  0  0  0  0  0  0  0
   -4.9809   11.2847  -38.7091 H   0  0  0  0  0  0  0  0  0  0  0  0
   -4.6067   13.0416  -38.7091 H   0  0  0  0  0  0  0  0  0  0  0  0
   -6.9034   12.8242  -38.5133 H   0  0  0  0  0  0  0  0  0  0  0  0
   -9.3509   12.7650  -38.0212 H   0  0  0  0  0  0  0  0  0  0  0  0
  -10.1563   12.0938  -35.7554 H   0  0  0  0  0  0  0  0  0  0  0  0
   -8.5153   11.4641  -33.9802 H   0  0  0  0  0  0  0  0  0  0  0  0
   -6.0673   11.5079  -34.4669 H   0  0  0  0  0  0  0  0  0  0  0  0
   -3.2132   15.4433  -36.1702 H   0  0  0  0  0  0  0  0  0  0  0  0
   -4.0406   17.5525  -35.1327 H   0  0  0  0  0  0  0  0  0  0  0  0
   -3.5737   20.8874  -33.3937 H   0  0  0  0  0  0  0  0  0  0  0  0
   -3.6874   23.0416  -32.1437 H   0  0  0  0  0  0  0  0  0  0  0  0
  1  2  1  0
  2  3  2  0
  3  4  1  0
  4  5  2  3
  5  6  1  0
  6  7  2  0
  6  8  2  0
  6  9  1  0
  9 10  2  0
 10 11  1  0
 11 12  2  0
 12 13  1  0
 13 14  1  0
 14 15  2  0
 14 16  1  0
 16 17  2  0
 17 18  1  0
 18 19  2  0
 19 20  1  0
 20 21  2  0
 20 22  2  0
 20 23  1  0
 23 24  1  0
 23 25  1  0
 25 26  2  0
 26 27  1  0
 27 28  2  0
 28 29  1  0
 29 30  2  0
 19 31  1  0
 31 32  2  0
 12 33  1  0
 33 34  2  0
  4 35  1  0
 35 36  1  0
 36  2  1  0
 34  9  1  0
 32 16  1  0
 30 25  1  0
  1 37  1  0
  1 38  1  0
  1 39  1  0
  3 40  1  0
 10 41  1  0
 11 42  1  0
 13 43  1  0
 17 44  1  0
 18 45  1  0
 24 46  1  0
 24 47  1  0
 24 48  1  0
 26 49  1  0
 27 50  1  0
 28 51  1  0
 29 52  1  0
 30 53  1  0
 31 54  1  0
 32 55  1  0
 33 56  1  0
 34 57  1  0
M  CHG  1  35  -1
M  END
>  <UniqueID>  (6) 
5

>  <SMILES>  (6) 
Cc1cc(=NS(=O)(=O)c2ccc(NC(=O)c3ccc(S(=O)(=O)N(C)c4ccccc4)cc3)cc2)[n-]o1

>  <Energy>  (6) 
104.79537486518895

>  <Genealogy>  (6) 
Cc1cc(=NS(=O)(=O)c2ccc(NC(=O)c3ccc(S(=O)(=O)N(C)c4ccccc4)cc3)cc2)[n-]o1 (protonated)
Cc1cc(=NS(=O)(=O)c2ccc(NC(=O)c3ccc(S(=O)(=O)N(C)c4ccccc4)cc3)cc2)[n-]o1 (3D coordinates assigned)
Cc1cc(=NS(=O)(=O)c2ccc(NC(=O)c3ccc(S(=O)(=O)N(C)c4ccccc4)cc3)cc2)[n-]o1 (optimized conformer: 104.79537486518895 kcal/mol)

>  <smiles>  (6) 
Cc1cc(=NS(=O)(=O)c2ccc(NC(=O)c3ccc(S(=O)(=O)N(C)c4ccccc4)cc3)cc2)[nH]o1

>  <score_type>  (6) 
oracle

>  <origin>  (6) 
adgpu

>  <m_score__min__energy>  (6) 
-10.550000000000001

>  <m_primary>  (6) 
energy

$$$$
6:0
     RDKit          3D

 35 36  0  0  0  0  0  0  0  0999 V2000
   -1.3930   26.0630  -26.0950 C   0  0  0  0  0  0  0  0  0  0  0  0
   -0.1220   26.1280  -26.9340 C   0  0  0  0  0  0  0  0  0  0  0  0
    0.1750   24.5570  -27.8220 S   0  0  0  0  0  0  0  0  0  0  0  0
   -1.5360   24.3280  -28.2920 C   0  0  0  0  0  0  0  0  0  0  0  0
   -2.2860   23.3760  -27.6790 N   0  0  0  0  0  0  0  0  0  0  0  0
   -3.5660   23.1370  -28.0650 C   0  0  0  0  0  0  0  0  0  0  0  0
   -4.2280   22.2320  -27.4920 O   0  0  0  0  0  0  0  0  0  0  0  0
   -4.1260   23.8710  -29.1190 C   0  0  0  0  0  0  0  0  0  0  0  0
   -5.4110   23.5260  -29.6490 N   0  0  0  0  0  0  0  0  0  0  0  0
   -5.6070   23.2810  -31.3550 S   0  0  0  0  0  0  0  0  0  0  0  0
   -6.2490   24.4920  -31.9690 O   0  0  0  0  0  0  0  0  0  0  0  0
   -4.2600   23.0670  -31.9870 O   0  0  0  0  0  0  0  0  0  0  0  0
   -6.6510   21.8850  -31.6210 C   0  0  0  0  0  0  0  0  0  0  0  0
   -6.1480   20.7100  -32.1970 C   0  0  0  0  0  0  0  0  0  0  0  0
   -6.9570   19.5730  -32.2980 C   0  0  0  0  0  0  0  0  0  0  0  0
   -8.2730   19.5960  -31.8120 C   0  0  0  0  0  0  0  0  0  0  0  0
   -9.1430   18.3800  -31.9350 C   0  0  0  0  0  0  0  0  0  0  0  0
   -8.7830   20.7810  -31.2630 C   0  0  0  0  0  0  0  0  0  0  0  0
   -7.9750   21.9180  -31.1650 C   0  0  0  0  0  0  0  0  0  0  0  0
   -3.3470   24.8810  -29.7060 C   0  0  0  0  0  0  0  0  0  0  0  0
   -3.8620   25.6750  -30.7220 O   0  0  0  0  0  0  0  0  0  0  0  0
   -2.0730   25.0840  -29.2840 N   0  0  0  0  0  0  0  0  0  0  0  0
   -1.1287   26.0765  -25.0273 H   0  0  0  0  0  0  0  0  0  0  0  0
   -2.0296   26.9298  -26.3261 H   0  0  0  0  0  0  0  0  0  0  0  0
   -1.9379   25.1358  -26.3261 H   0  0  0  0  0  0  0  0  0  0  0  0
   -0.2196   26.9410  -27.6685 H   0  0  0  0  0  0  0  0  0  0  0  0
    0.7280   26.3098  -26.2599 H   0  0  0  0  0  0  0  0  0  0  0  0
   -6.1130   23.0760  -29.0190 H   0  0  0  0  0  0  0  0  0  0  0  0
   -5.1138   20.6819  -32.5708 H   0  0  0  0  0  0  0  0  0  0  0  0
   -6.5597   18.6573  -32.7603 H   0  0  0  0  0  0  0  0  0  0  0  0
   -9.4051   18.0137  -30.9315 H   0  0  0  0  0  0  0  0  0  0  0  0
  -10.0613   18.6400  -32.4819 H   0  0  0  0  0  0  0  0  0  0  0  0
   -8.6005   17.5948  -32.4819 H   0  0  0  0  0  0  0  0  0  0  0  0
   -9.8235   20.8164  -30.9078 H   0  0  0  0  0  0  0  0  0  0  0  0
   -8.3808   22.8423  -30.7280 H   0  0  0  0  0  0  0  0  0  0  0  0
  1  2  1  0
  2  3  1  0
  3  4  1  0
  4  5  2  0
  5  6  1  0
  6  7  2  0
  6  8  1  0
  8  9  1  0
  9 10  1  0
 10 11  2  0
 10 12  2  0
 10 13  1  0
 13 14  2  0
 14 15  1  0
 15 16  2  0
 16 17  1  0
 16 18  1  0
 18 19  2  0
  8 20  2  0
 20 21  1  0
 20 22  1  0
 22  4  1  0
 19 13  1  0
  1 23  1  0
  1 24  1  0
  1 25  1  0
  2 26  1  0
  2 27  1  0
  9 28  1  0
 14 29  1  0
 15 30  1  0
 17 31  1  0
 17 32  1  0
 17 33  1  0
 18 34  1  0
 19 35  1  0
M  CHG  2  21  -1  22  -1
M  END
>  <UniqueID>  (7) 
6

>  <SMILES>  (7) 
CCSc1nc(=O)c(NS(=O)(=O)c2ccc(C)cc2)c([O-])[n-]1

>  <Energy>  (7) 
34.61506972871571

>  <Genealogy>  (7) 
CCSc1nc(=O)c(NS(=O)(=O)c2ccc(C)cc2)c([O-])[n-]1 (protonated)
CCSc1nc(=O)c(NS(=O)(=O)c2ccc(C)cc2)c([O-])[n-]1 (3D coordinates assigned)
CCSc1nc(=O)c(NS(=O)(=O)c2ccc(C)cc2)c([O-])[n-]1 (optimized conformer: 34.61506972871571 kcal/mol)

>  <smiles>  (7) 
CCSc1nc(=O)c(NS(=O)(=O)c2ccc(C)cc2)c(O)[nH]1

>  <score_type>  (7) 
oracle

>  <origin>  (7) 
adgpu

>  <m_score__min__energy>  (7) 
-12.26

>  <m_primary>  (7) 
energy

$$$$
7:0
     RDKit          3D

 71 75  0  0  0  0  0  0  0  0999 V2000
   -9.8660   21.5650  -30.7440 C   0  0  0  0  0  0  0  0  0  0  0  0
   -8.6280   21.0840  -31.4230 C   0  0  0  0  0  0  0  0  0  0  0  0
   -7.6810   21.8840  -32.0360 C   0  0  0  0  0  0  0  0  0  0  0  0
   -6.7610   20.9860  -32.5270 C   0  0  0  0  0  0  0  0  0  0  0  0
   -5.5770   21.3460  -33.1840 O   0  0  0  0  0  0  0  0  0  0  0  0
   -4.3140   21.4380  -32.5770 C   0  0  0  0  0  0  0  0  0  0  0  0
   -3.4620   20.3290  -32.6610 C   0  0  0  0  0  0  0  0  0  0  0  0
   -2.2040   20.3550  -32.0550 C   0  0  0  0  0  0  0  0  0  0  0  0
   -1.7820   21.4930  -31.3660 C   0  0  0  0  0  0  0  0  0  0  0  0
   -2.6040   22.6200  -31.3070 C   0  0  0  0  0  0  0  0  0  0  0  0
   -3.8650   22.6140  -31.9300 C   0  0  0  0  0  0  0  0  0  0  0  0
   -4.7000   23.7800  -31.9010 N   0  0  0  0  0  0  0  0  0  0  0  0
   -4.9520   24.5860  -30.7450 C   0  0  0  0  0  0  0  0  0  0  0  0
   -6.1250   24.7120  -30.2990 O   0  0  0  0  0  0  0  0  0  0  0  0
   -3.8440   25.1760  -30.0550 N   0  0  0  0  0  0  0  0  0  0  0  0
   -3.0490   24.5230  -29.0540 C   0  0  0  0  0  0  0  0  0  0  0  0
   -3.5390   23.3510  -28.4820 C   0  0  0  0  0  0  0  0  0  0  0  0
   -2.8230   22.7010  -27.4810 C   0  0  0  0  0  0  0  0  0  0  0  0
   -1.5980   23.2130  -27.0230 C   0  0  0  0  0  0  0  0  0  0  0  0
   -0.8850   22.4560  -25.9330 C   0  0  0  0  0  0  0  0  0  0  0  0
   -1.0620   24.3840  -27.6270 C   0  0  0  0  0  0  0  0  0  0  0  0
    0.4860   25.1120  -27.1060 S   0  0  0  0  0  0  0  0  0  0  0  0
    1.5630   24.7500  -28.0910 O   0  0  0  0  0  0  0  0  0  0  0  0
    0.9140   24.5770  -25.7690 O   0  0  0  0  0  0  0  0  0  0  0  0
    0.3760   26.9050  -27.0020 C   0  0  0  0  0  0  0  0  0  0  0  0
    1.7280   27.5200  -26.6200 C   0  0  0  0  0  0  0  0  0  0  0  0
    1.6170   29.0480  -26.4910 C   0  0  0  0  0  0  0  0  0  0  0  0
    0.5530   29.4670  -25.5520 N   0  0  0  0  0  0  0  0  0  0  0  0
    0.9250   29.2600  -24.1400 C   0  0  0  0  0  0  0  0  0  0  0  0
   -0.7570   28.8710  -25.8870 C   0  0  0  0  0  0  0  0  0  0  0  0
   -0.7040   27.3370  -26.0020 C   0  0  0  0  0  0  0  0  0  0  0  0
   -1.7860   25.0090  -28.6690 C   0  0  0  0  0  0  0  0  0  0  0  0
   -1.2400   26.0970  -29.3450 O   0  0  0  0  0  0  0  0  0  0  0  0
   -7.1770   19.7250  -32.2570 N   0  0  0  0  0  0  0  0  0  0  0  0
   -6.5720   18.4870  -32.6590 C   0  0  0  0  0  0  0  0  0  0  0  0
   -6.3560   18.2240  -34.0200 C   0  0  0  0  0  0  0  0  0  0  0  0
   -5.7860   17.0120  -34.4230 C   0  0  0  0  0  0  0  0  0  0  0  0
   -5.4150   16.0610  -33.4680 C   0  0  0  0  0  0  0  0  0  0  0  0
   -5.6040   16.3260  -32.1070 C   0  0  0  0  0  0  0  0  0  0  0  0
   -6.1730   17.5360  -31.7020 C   0  0  0  0  0  0  0  0  0  0  0  0
   -8.3130   19.7810  -31.5800 N   0  0  0  0  0  0  0  0  0  0  0  0
   -9.7303   21.5123  -29.6537 H   0  0  0  0  0  0  0  0  0  0  0  0
  -10.0651   22.6059  -31.0388 H   0  0  0  0  0  0  0  0  0  0  0  0
  -10.7156   20.9315  -31.0388 H   0  0  0  0  0  0  0  0  0  0  0  0
   -7.6665   22.9812  -32.1131 H   0  0  0  0  0  0  0  0  0  0  0  0
   -3.7862   19.4315  -33.2081 H   0  0  0  0  0  0  0  0  0  0  0  0
   -1.5446   19.4770  -32.1209 H   0  0  0  0  0  0  0  0  0  0  0  0
   -0.8008   21.5020  -30.8689 H   0  0  0  0  0  0  0  0  0  0  0  0
   -2.2635   23.5177  -30.7702 H   0  0  0  0  0  0  0  0  0  0  0  0
   -4.4987   22.9363  -28.8240 H   0  0  0  0  0  0  0  0  0  0  0  0
   -3.2218   21.7742  -27.0429 H   0  0  0  0  0  0  0  0  0  0  0  0
   -1.2259   22.8180  -24.9518 H   0  0  0  0  0  0  0  0  0  0  0  0
   -1.1080   21.3828  -26.0256 H   0  0  0  0  0  0  0  0  0  0  0  0
    0.1996   22.6144  -26.0256 H   0  0  0  0  0  0  0  0  0  0  0  0
    0.0940   27.2759  -27.9985 H   0  0  0  0  0  0  0  0  0  0  0  0
    2.0561   27.0999  -25.6578 H   0  0  0  0  0  0  0  0  0  0  0  0
    2.4572   27.2853  -27.4094 H   0  0  0  0  0  0  0  0  0  0  0  0
    2.5790   29.4414  -26.1307 H   0  0  0  0  0  0  0  0  0  0  0  0
    1.3598   29.4469  -27.4833 H   0  0  0  0  0  0  0  0  0  0  0  0
    0.1498   29.6913  -23.4896 H   0  0  0  0  0  0  0  0  0  0  0  0
    1.0146   28.1823  -23.9386 H   0  0  0  0  0  0  0  0  0  0  0  0
    1.8880   29.7520  -23.9386 H   0  0  0  0  0  0  0  0  0  0  0  0
   -1.4767   29.1395  -25.0996 H   0  0  0  0  0  0  0  0  0  0  0  0
   -1.0586   29.2659  -26.8684 H   0  0  0  0  0  0  0  0  0  0  0  0
   -0.4744   26.9087  -25.0152 H   0  0  0  0  0  0  0  0  0  0  0  0
   -1.6801   26.9752  -26.3575 H   0  0  0  0  0  0  0  0  0  0  0  0
   -6.6362   18.9745  -34.7738 H   0  0  0  0  0  0  0  0  0  0  0  0
   -5.6295   16.8070  -35.4923 H   0  0  0  0  0  0  0  0  0  0  0  0
   -4.9746   15.1046  -33.7863 H   0  0  0  0  0  0  0  0  0  0  0  0
   -5.3043   15.5809  -31.3553 H   0  0  0  0  0  0  0  0  0  0  0  0
   -6.3096   17.7459  -30.6309 H   0  0  0  0  0  0  0  0  0  0  0  0
  1  2  1  0
  2  3  1  0
  3  4  2  0
  4  5  1  0
  5  6  1  0
  6  7  2  0
  7  8  1  0
  8  9  2  0
  9 10  1  0
 10 11  2  0
 11 12  1  0
 12 13  1  0
 13 14  2  0
 13 15  1  0
 15 16  1  0
 16 17  2  0
 17 18  1  0
 18 19  2  0
 19 20  1  0
 19 21  1  0
 21 22  1  0
 22 23  2  0
 22 24  2  0
 22 25  1  0
 25 26  1  0
 26 27  1  0
 27 28  1  0
 28 29  1  0
 28 30  1  0
 30 31  1  0
 21 32  2  0
 32 33  1  0
  4 34  1  0
 34 35  1  0
 35 36  2  0
 36 37  1  0
 37 38  2  0
 38 39  1  0
 39 40  2  0
 34 41  1  0
 41  2  2  0
 11  6  1  0
 32 16  1  0
 40 35  1  0
 31 25  1  0
  1 42  1  0
  1 43  1  0
  1 44  1  0
  3 45  1  0
  7 46  1  0
  8 47  1  0
  9 48  1  0
 10 49  1  0
 17 50  1  0
 18 51  1  0
 20 52  1  0
 20 53  1  0
 20 54  1  0
 25 55  1  0
 26 56  1  0
 26 57  1  0
 27 58  1  0
 27 59  1  0
 29 60  1  0
 29 61  1  0
 29 62  1  0
 30 63  1  0
 30 64  1  0
 31 65  1  0
 31 66  1  0
 36 67  1  0
 37 68  1  0
 38 69  1  0
 39 70  1  0
 40 71  1  0
M  CHG  3  12  -1  15  -1  33  -1
M  END
>  <UniqueID>  (8) 
7

>  <SMILES>  (8) 
Cc1cc(Oc2ccccc2[N-]C(=O)[N-]c2ccc(C)c(S(=O)(=O)C3CCN(C)CC3)c2[O-])n(-c2ccccc2)n1

>  <Energy>  (8) 
125.87531307751047

>  <Genealogy>  (8) 
Cc1cc(Oc2ccccc2[N-]C(=O)[N-]c2ccc(C)c(S(=O)(=O)C3CCN(C)CC3)c2[O-])n(-c2ccccc2)n1 (protonated)
Cc1cc(Oc2ccccc2[N-]C(=O)[N-]c2ccc(C)c(S(=O)(=O)C3CCN(C)CC3)c2[O-])n(-c2ccccc2)n1 (3D coordinates assigned)
Cc1cc(Oc2ccccc2[N-]C(=O)[N-]c2ccc(C)c(S(=O)(=O)C3CCN(C)CC3)c2[O-])n(-c2ccccc2)n1 (nonaromatic ring conformer: 125.87531307751047 kcal/mol)

>  <smiles>  (8) 
Cc1cc(Oc2ccccc2NC(=O)Nc2ccc(C)c(S(=O)(=O)C3CCN(C)CC3)c2O)n(-c2ccccc2)n1

>  <score_type>  (8) 
oracle

>  <origin>  (8) 
adgpu

>  <m_score__min__energy>  (8) 
-18

>  <m_primary>  (8) 
energy

$$$$
8:0
     RDKit          3D

 48 51  0  0  0  0  0  0  0  0999 V2000
   -9.8650   21.8720  -30.4270 O   0  0  0  0  0  0  0  0  0  0  0  0
   -8.7600   21.6230  -30.9740 C   0  0  0  0  0  0  0  0  0  0  0  0
   -7.9210   22.6690  -31.3570 C   0  0  0  0  0  0  0  0  0  0  0  0
   -6.6870   22.3890  -31.9610 C   0  0  0  0  0  0  0  0  0  0  0  0
   -5.8210   23.5740  -32.3460 C   0  0  0  0  0  0  0  0  0  0  0  0
   -4.9240   23.9470  -31.2320 N   0  0  0  0  0  0  0  0  0  0  0  0
   -3.7430   23.0500  -31.1310 C   0  0  0  0  0  0  0  0  0  0  0  0
   -3.9240   21.9690  -30.0530 C   0  0  0  0  0  0  0  0  0  0  0  0
   -4.1410   22.5520  -28.6990 N   0  0  0  0  0  0  0  0  0  0  0  0
   -2.8740   22.5760  -27.9280 C   0  0  0  0  0  0  0  0  0  0  0  0
   -2.3100   21.1890  -27.7180 C   0  0  0  0  0  0  0  0  0  0  0  0
   -0.9910   20.8890  -28.0980 C   0  0  0  0  0  0  0  0  0  0  0  0
   -0.4680   19.6110  -27.8790 C   0  0  0  0  0  0  0  0  0  0  0  0
   -1.2550   18.6250  -27.2770 C   0  0  0  0  0  0  0  0  0  0  0  0
   -2.5670   18.9160  -26.8920 C   0  0  0  0  0  0  0  0  0  0  0  0
   -3.0940   20.1940  -27.1100 C   0  0  0  0  0  0  0  0  0  0  0  0
   -4.7660   23.9020  -28.7480 C   0  0  0  0  0  0  0  0  0  0  0  0
   -5.6860   24.0530  -29.9660 C   0  0  0  0  0  0  0  0  0  0  0  0
   -6.3340   21.0310  -32.1820 C   0  0  0  0  0  0  0  0  0  0  0  0
   -5.1330   20.6230  -32.8040 C   0  0  0  0  0  0  0  0  0  0  0  0
   -4.8520   19.2650  -32.9850 C   0  0  0  0  0  0  0  0  0  0  0  0
   -3.2250   18.7330  -33.8350 Br  0  0  0  0  0  0  0  0  0  0  0  0
   -5.7580   18.2950  -32.5540 C   0  0  0  0  0  0  0  0  0  0  0  0
   -6.9530   18.6770  -31.9440 C   0  0  0  0  0  0  0  0  0  0  0  0
   -7.2500   20.0310  -31.7580 C   0  0  0  0  0  0  0  0  0  0  0  0
   -8.3990   20.3640  -31.1830 O   0  0  0  0  0  0  0  0  0  0  0  0
   -8.2267   23.7117  -31.1856 H   0  0  0  0  0  0  0  0  0  0  0  0
   -5.2149   23.3084  -33.2247 H   0  0  0  0  0  0  0  0  0  0  0  0
   -6.4730   24.4291  -32.5776 H   0  0  0  0  0  0  0  0  0  0  0  0
   -3.5876   22.5585  -32.1027 H   0  0  0  0  0  0  0  0  0  0  0  0
   -2.8755   23.6650  -30.8496 H   0  0  0  0  0  0  0  0  0  0  0  0
   -4.7946   21.3499  -30.3154 H   0  0  0  0  0  0  0  0  0  0  0  0
   -3.0017   21.3706  -30.0181 H   0  0  0  0  0  0  0  0  0  0  0  0
   -4.8030   21.9110  -28.1970 H   0  0  0  0  0  0  0  0  0  0  0  0
   -2.1362   23.1796  -28.4768 H   0  0  0  0  0  0  0  0  0  0  0  0
   -3.0871   23.0084  -26.9393 H   0  0  0  0  0  0  0  0  0  0  0  0
   -0.3674   21.6627  -28.5697 H   0  0  0  0  0  0  0  0  0  0  0  0
    0.5645   19.3811  -28.1809 H   0  0  0  0  0  0  0  0  0  0  0  0
   -0.8419   17.6199  -27.1062 H   0  0  0  0  0  0  0  0  0  0  0  0
   -3.1855   18.1400  -26.4174 H   0  0  0  0  0  0  0  0  0  0  0  0
   -4.1261   20.4205  -26.8042 H   0  0  0  0  0  0  0  0  0  0  0  0
   -5.3568   24.0556  -27.8329 H   0  0  0  0  0  0  0  0  0  0  0  0
   -3.9638   24.6505  -28.8272 H   0  0  0  0  0  0  0  0  0  0  0  0
   -6.4488   23.2609  -29.9394 H   0  0  0  0  0  0  0  0  0  0  0  0
   -6.1558   25.0468  -29.9254 H   0  0  0  0  0  0  0  0  0  0  0  0
   -4.4129   21.3797  -33.1488 H   0  0  0  0  0  0  0  0  0  0  0  0
   -5.5297   17.2283  -32.6954 H   0  0  0  0  0  0  0  0  0  0  0  0
   -7.6654   17.9093  -31.6075 H   0  0  0  0  0  0  0  0  0  0  0  0
  1  2  2  0
  2  3  1  0
  3  4  2  0
  4  5  1  0
  5  6  1  0
  6  7  1  0
  7  8  1  0
  8  9  1  0
  9 10  1  0
 10 11  1  0
 11 12  2  0
 12 13  1  0
 13 14  2  0
 14 15  1  0
 15 16  2  0
  9 17  1  0
 17 18  1  0
  4 19  1  0
 19 20  2  0
 20 21  1  0
 21 22  1  0
 21 23  2  0
 23 24  1  0
 24 25  2  0
 25 26  1  0
 26  2  1  0
 18  6  1  0
 25 19  1  0
 16 11  1  0
  3 27  1  0
  5 28  1  0
  5 29  1  0
  7 30  1  0
  7 31  1  0
  8 32  1  0
  8 33  1  0
  9 34  1  0
 10 35  1  0
 10 36  1  0
 12 37  1  0
 13 38  1  0
 14 39  1  0
 15 40  1  0
 16 41  1  0
 17 42  1  0
 17 43  1  0
 18 44  1  0
 18 45  1  0
 20 46  1  0
 23 47  1  0
 24 48  1  0
M  CHG  1   9   1
M  END
>  <UniqueID>  (9) 
8

>  <SMILES>  (9) 
O=c1cc(CN2CC[NH+](Cc3ccccc3)CC2)c2cc(Br)ccc2o1

>  <Energy>  (9) 
72.84373042015875

>  <Genealogy>  (9) 
O=c1cc(CN2CC[NH+](Cc3ccccc3)CC2)c2cc(Br)ccc2o1 (protonated)
O=c1cc(CN2CC[NH+](Cc3ccccc3)CC2)c2cc(Br)ccc2o1 (3D coordinates assigned)
O=c1cc(CN2CC[NH+](Cc3ccccc3)CC2)c2cc(Br)ccc2o1 (nonaromatic ring conformer: 72.84373042015875 kcal/mol)

>  <smiles>  (9) 
O=c1cc(CN2CCN(Cc3ccccc3)CC2)c2cc(Br)ccc2o1

>  <score_type>  (9) 
oracle

>  <origin>  (9) 
adgpu

>  <m_score__min__energy>  (9) 
-8.3900000000000006

>  <m_primary>  (9) 
energy

$$$$
9:0
     RDKit          3D

 62 66  0  0  0  0  0  0  0  0999 V2000
   -1.9720   24.9850  -27.9110 C   0  0  0  0  0  0  0  0  0  0  0  0
   -1.3870   24.3460  -29.0400 O   0  0  0  0  0  0  0  0  0  0  0  0
   -1.9740   23.2810  -29.7400 C   0  0  0  0  0  0  0  0  0  0  0  0
   -1.4240   21.9870  -29.7340 C   0  0  0  0  0  0  0  0  0  0  0  0
   -2.0350   20.9530  -30.4480 C   0  0  0  0  0  0  0  0  0  0  0  0
   -3.2000   21.1920  -31.2010 C   0  0  0  0  0  0  0  0  0  0  0  0
   -3.8480   20.1120  -31.9910 C   0  0  0  0  0  0  0  0  0  0  0  0
   -3.1150   19.3180  -32.9130 C   0  0  0  0  0  0  0  0  0  0  0  0
   -3.7570   18.3050  -33.6500 C   0  0  0  0  0  0  0  0  0  0  0  0
   -3.0290   17.4810  -34.5780 N   0  0  0  0  0  0  0  0  0  0  0  0
   -3.6180   16.1990  -35.0050 C   0  0  0  0  0  0  0  0  0  0  0  0
   -2.9370   14.9680  -34.3610 C   0  0  0  0  0  0  0  0  0  0  0  0
   -1.6700   14.4690  -35.0850 C   0  0  0  0  0  0  0  0  0  0  0  0
   -0.7940   15.5610  -35.5510 N   0  0  0  0  0  0  0  0  0  0  0  0
   -0.6350   16.6880  -34.6110 C   0  0  0  0  0  0  0  0  0  0  0  0
   -1.6270   17.8370  -34.8700 C   0  0  0  0  0  0  0  0  0  0  0  0
   -5.1220   18.1430  -33.4350 C   0  0  0  0  0  0  0  0  0  0  0  0
   -5.9510   17.2340  -33.9840 N   0  0  0  0  0  0  0  0  0  0  0  0
   -7.1540   17.4600  -33.4550 N   0  0  0  0  0  0  0  0  0  0  0  0
   -7.0350   18.5040  -32.6000 C   0  0  0  0  0  0  0  0  0  0  0  0
   -8.1360   19.0190  -31.7360 C   0  0  0  0  0  0  0  0  0  0  0  0
   -5.7650   18.9270  -32.5710 N   0  0  0  0  0  0  0  0  0  0  0  0
   -5.1890   19.8850  -31.8500 N   0  0  0  0  0  0  0  0  0  0  0  0
   -3.7570   22.4830  -31.1890 C   0  0  0  0  0  0  0  0  0  0  0  0
   -3.1550   23.5160  -30.4570 C   0  0  0  0  0  0  0  0  0  0  0  0
   -3.7380   24.8200  -30.4510 N   0  0  0  0  0  0  0  0  0  0  0  0
   -5.3310   25.0950  -29.8320 S   0  0  0  0  0  0  0  0  0  0  0  0
   -5.7410   26.5080  -30.1430 O   0  0  0  0  0  0  0  0  0  0  0  0
   -5.3250   24.9120  -28.3390 O   0  0  0  0  0  0  0  0  0  0  0  0
   -6.4830   23.9760  -30.5610 C   0  0  0  0  0  0  0  0  0  0  0  0
   -6.6710   23.9510  -31.9510 C   0  0  0  0  0  0  0  0  0  0  0  0
   -7.5720   23.0440  -32.5200 C   0  0  0  0  0  0  0  0  0  0  0  0
   -8.2800   22.1530  -31.7050 C   0  0  0  0  0  0  0  0  0  0  0  0
   -8.0870   22.1670  -30.3210 C   0  0  0  0  0  0  0  0  0  0  0  0
   -7.1930   23.0770  -29.7490 C   0  0  0  0  0  0  0  0  0  0  0  0
   -1.5671   24.5428  -26.9888 H   0  0  0  0  0  0  0  0  0  0  0  0
   -1.7381   26.0596  -27.9358 H   0  0  0  0  0  0  0  0  0  0  0  0
   -3.0630   24.8466  -27.9358 H   0  0  0  0  0  0  0  0  0  0  0  0
   -0.5055   21.7871  -29.1627 H   0  0  0  0  0  0  0  0  0  0  0  0
   -1.6014   19.9424  -30.4214 H   0  0  0  0  0  0  0  0  0  0  0  0
   -2.0384   19.4959  -33.0520 H   0  0  0  0  0  0  0  0  0  0  0  0
   -4.6824   16.1942  -34.7275 H   0  0  0  0  0  0  0  0  0  0  0  0
   -3.4728   16.1199  -36.0925 H   0  0  0  0  0  0  0  0  0  0  0  0
   -2.6587   15.2327  -33.3302 H   0  0  0  0  0  0  0  0  0  0  0  0
   -3.6673   14.1475  -34.4202 H   0  0  0  0  0  0  0  0  0  0  0  0
   -1.0984   13.8353  -34.3910 H   0  0  0  0  0  0  0  0  0  0  0  0
   -2.0014   13.9154  -35.9759 H   0  0  0  0  0  0  0  0  0  0  0  0
    0.1540   15.1680  -35.7560 H   0  0  0  0  0  0  0  0  0  0  0  0
   -1.1830   15.9290  -36.4510 H   0  0  0  0  0  0  0  0  0  0  0  0
   -0.7911   16.3150  -33.5880 H   0  0  0  0  0  0  0  0  0  0  0  0
    0.3782   17.0921  -34.7527 H   0  0  0  0  0  0  0  0  0  0  0  0
   -1.3450   18.6902  -34.2355 H   0  0  0  0  0  0  0  0  0  0  0  0
   -1.5707   18.0777  -35.9419 H   0  0  0  0  0  0  0  0  0  0  0  0
   -7.8624   18.8910  -30.6783 H   0  0  0  0  0  0  0  0  0  0  0  0
   -8.2983   20.0865  -31.9462 H   0  0  0  0  0  0  0  0  0  0  0  0
   -9.0594   18.4594  -31.9462 H   0  0  0  0  0  0  0  0  0  0  0  0
   -4.6752   22.6846  -31.7602 H   0  0  0  0  0  0  0  0  0  0  0  0
   -6.1098   24.6449  -32.5941 H   0  0  0  0  0  0  0  0  0  0  0  0
   -7.7241   23.0312  -33.6094 H   0  0  0  0  0  0  0  0  0  0  0  0
   -8.9886   21.4415  -32.1541 H   0  0  0  0  0  0  0  0  0  0  0  0
   -8.6385   21.4620  -29.6816 H   0  0  0  0  0  0  0  0  0  0  0  0
   -7.0453   23.0888  -28.6590 H   0  0  0  0  0  0  0  0  0  0  0  0
  1  2  1  0
  2  3  1  0
  3  4  2  0
  4  5  1  0
  5  6  2  0
  6  7  1  0
  7  8  1  0
  8  9  2  0
  9 10  1  0
 10 11  1  0
 11 12  1  0
 12 13  1  0
 13 14  1  0
 14 15  1  0
 15 16  1  0
  9 17  1  0
 17 18  2  0
 18 19  1  0
 19 20  2  0
 20 21  1  0
 20 22  1  0
 22 23  1  0
  6 24  1  0
 24 25  2  0
 25 26  1  0
 26 27  1  0
 27 28  2  0
 27 29  2  0
 27 30  1  0
 30 31  2  0
 31 32  1  0
 32 33  2  0
 33 34  1  0
 34 35  2  0
 25  3  1  0
 35 30  1  0
 23  7  2  0
 16 10  1  0
 22 17  1  0
  1 36  1  0
  1 37  1  0
  1 38  1  0
  4 39  1  0
  5 40  1  0
  8 41  1  0
 11 42  1  0
 11 43  1  0
 12 44  1  0
 12 45  1  0
 13 46  1  0
 13 47  1  0
 14 48  1  0
 14 49  1  0
 15 50  1  0
 15 51  1  0
 16 52  1  0
 16 53  1  0
 21 54  1  0
 21 55  1  0
 21 56  1  0
 24 57  1  0
 31 58  1  0
 32 59  1  0
 33 60  1  0
 34 61  1  0
 35 62  1  0
M  CHG  2  14   1  26  -1
M  END
>  <UniqueID>  (10) 
9

>  <SMILES>  (10) 
COc1ccc(-c2cc(N3CCC[NH2+]CC3)c3nnc(C)n3n2)cc1[N-]S(=O)(=O)c1ccccc1

>  <Energy>  (10) 
132.78726794430975

>  <Genealogy>  (10) 
COc1ccc(-c2cc(N3CCC[NH2+]CC3)c3nnc(C)n3n2)cc1[N-]S(=O)(=O)c1ccccc1 (protonated)
COc1ccc(-c2cc(N3CCC[NH2+]CC3)c3nnc(C)n3n2)cc1[N-]S(=O)(=O)c1ccccc1 (3D coordinates assigned)
COc1ccc(-c2cc(N3CCC[NH2+]CC3)c3nnc(C)n3n2)cc1[N-]S(=O)(=O)c1ccccc1 (nonaromatic ring conformer: 132.78726794430975 kcal/mol)

>  <smiles>  (10) 
COc1ccc(-c2cc(N3CCCNCC3)c3nnc(C)n3n2)cc1NS(=O)(=O)c1ccccc1

>  <score_type>  (10) 
oracle

>  <origin>  (10) 
adgpu

>  <m_score__min__energy>  (10) 
-8.7100000000000009

>  <m_primary>  (10) 
energy

$$$$
10:0
     RDKit          3D

 33 33  0  0  0  0  0  0  0  0999 V2000
   -2.7490   20.8950  -33.2550 C   0  0  0  0  0  0  0  0  0  0  0  0
   -3.7560   21.8710  -33.4890 O   0  0  0  0  0  0  0  0  0  0  0  0
   -4.8340   22.0670  -32.6210 C   0  0  0  0  0  0  0  0  0  0  0  0
   -5.9550   21.3200  -32.7720 N   0  0  0  0  0  0  0  0  0  0  0  0
   -7.0170   21.4930  -31.9390 C   0  0  0  0  0  0  0  0  0  0  0  0
   -8.2070   20.6980  -32.1000 N   0  0  0  0  0  0  0  0  0  0  0  0
   -8.0930   19.2810  -32.4560 C   0  0  0  0  0  0  0  0  0  0  0  0
   -9.5230   21.3130  -31.9010 C   0  0  0  0  0  0  0  0  0  0  0  0
   -6.9420   22.4250  -30.9520 N   0  0  0  0  0  0  0  0  0  0  0  0
   -5.8230   23.1790  -30.7890 C   0  0  0  0  0  0  0  0  0  0  0  0
   -5.7500   24.1630  -29.7380 N   0  0  0  0  0  0  0  0  0  0  0  0
   -6.7350   25.2500  -29.6960 C   0  0  0  0  0  0  0  0  0  0  0  0
   -4.6670   24.1310  -28.7430 C   0  0  0  0  0  0  0  0  0  0  0  0
   -3.3270   24.5000  -29.3840 C   0  0  0  0  0  0  0  0  0  0  0  0
   -3.5200   25.3030  -30.5170 O   0  0  0  0  0  0  0  0  0  0  0  0
   -4.7710   22.9940  -31.6300 N   0  0  0  0  0  0  0  0  0  0  0  0
   -2.6119   20.7621  -32.1717 H   0  0  0  0  0  0  0  0  0  0  0  0
   -3.0531   19.9390  -33.7061 H   0  0  0  0  0  0  0  0  0  0  0  0
   -1.8029   21.2288  -33.7061 H   0  0  0  0  0  0  0  0  0  0  0  0
   -8.0443   18.6753  -31.5390 H   0  0  0  0  0  0  0  0  0  0  0  0
   -8.9698   18.9800  -33.0481 H   0  0  0  0  0  0  0  0  0  0  0  0
   -7.1793   19.1240  -33.0481 H   0  0  0  0  0  0  0  0  0  0  0  0
   -9.7246   21.4072  -30.8237 H   0  0  0  0  0  0  0  0  0  0  0  0
   -9.5356   22.3103  -32.3650 H   0  0  0  0  0  0  0  0  0  0  0  0
  -10.2961   20.6829  -32.3650 H   0  0  0  0  0  0  0  0  0  0  0  0
   -6.9612   25.4996  -28.6488 H   0  0  0  0  0  0  0  0  0  0  0  0
   -6.3255   26.1357  -30.2038 H   0  0  0  0  0  0  0  0  0  0  0  0
   -7.6566   24.9295  -30.2038 H   0  0  0  0  0  0  0  0  0  0  0  0
   -4.8929   24.8494  -27.9412 H   0  0  0  0  0  0  0  0  0  0  0  0
   -4.5935   23.1119  -28.3355 H   0  0  0  0  0  0  0  0  0  0  0  0
   -2.7168   25.0498  -28.6523 H   0  0  0  0  0  0  0  0  0  0  0  0
   -2.8170   23.5749  -29.6909 H   0  0  0  0  0  0  0  0  0  0  0  0
   -3.4590   24.7020  -31.3040 H   0  0  0  0  0  0  0  0  0  0  0  0
  1  2  1  0
  2  3  1  0
  3  4  2  0
  4  5  1  0
  5  6  1  0
  6  7  1  0
  6  8  1  0
  5  9  2  0
  9 10  1  0
 10 11  1  0
 11 12  1  0
 11 13  1  0
 13 14  1  0
 14 15  1  0
 10 16  2  0
 16  3  1  0
  1 17  1  0
  1 18  1  0
  1 19  1  0
  7 20  1  0
  7 21  1  0
  7 22  1  0
  8 23  1  0
  8 24  1  0
  8 25  1  0
 12 26  1  0
 12 27  1  0
 12 28  1  0
 13 29  1  0
 13 30  1  0
 14 31  1  0
 14 32  1  0
 15 33  1  0
M  END
>  <UniqueID>  (11) 
10

>  <SMILES>  (11) 
COc1nc(N(C)C)nc(N(C)CCO)n1

>  <Energy>  (11) 
21.366791711353194

>  <Genealogy>  (11) 
COc1nc(N(C)C)nc(N(C)CCO)n1 (3D coordinates assigned)
COc1nc(N(C)C)nc(N(C)CCO)n1 (optimized conformer: 21.366791711353194 kcal/mol)

>  <smiles>  (11) 
COc1nc(N(C)C)nc(N(C)CCO)n1

>  <score_type>  (11) 
oracle

>  <origin>  (11) 
adgpu

>  <m_score__min__energy>  (11) 
-5.1500000000000004

>  <m_primary>  (11) 
energy

$$$$
11:0
     RDKit          3D

 39 41  0  0  0  0  0  0  0  0999 V2000
   -7.6740   18.3480  -31.2190 O   0  0  0  0  0  0  0  0  0  0  0  0
   -8.7880   18.7840  -31.9480 C   0  0  0  0  0  0  0  0  0  0  0  0
   -8.4860   20.1280  -32.6340 C   0  0  0  0  0  0  0  0  0  0  0  0
   -7.6630   21.0480  -31.8210 N   0  0  0  0  0  0  0  0  0  0  0  0
   -8.4050   21.7080  -30.7280 C   0  0  0  0  0  0  0  0  0  0  0  0
   -7.4790   22.6530  -29.9620 C   0  0  0  0  0  0  0  0  0  0  0  0
   -6.9840   23.8000  -30.8740 C   0  0  0  0  0  0  0  0  0  0  0  0
   -5.6120   24.2540  -30.4500 C   0  0  0  0  0  0  0  0  0  0  0  0
   -4.9010   23.7730  -29.3700 C   0  0  0  0  0  0  0  0  0  0  0  0
   -3.7030   24.4640  -29.4230 C   0  0  0  0  0  0  0  0  0  0  0  0
   -2.5580   24.3400  -28.4890 C   0  0  0  0  0  0  0  0  0  0  0  0
   -1.3070   23.9070  -28.9640 C   0  0  0  0  0  0  0  0  0  0  0  0
   -0.2310   23.7930  -28.0810 C   0  0  0  0  0  0  0  0  0  0  0  0
   -0.3910   24.0980  -26.7670 N   0  0  0  0  0  0  0  0  0  0  0  0
   -1.5870   24.5190  -26.2750 C   0  0  0  0  0  0  0  0  0  0  0  0
   -2.6890   24.6470  -27.1230 C   0  0  0  0  0  0  0  0  0  0  0  0
   -3.7170   25.2980  -30.4830 N   0  0  0  0  0  0  0  0  0  0  0  0
   -4.8750   25.1680  -31.1100 N   0  0  0  0  0  0  0  0  0  0  0  0
   -7.0130   23.4260  -32.3760 C   0  0  0  0  0  0  0  0  0  0  0  0
   -6.7600   21.9260  -32.6110 C   0  0  0  0  0  0  0  0  0  0  0  0
   -7.0590   19.1260  -31.1630 H   0  0  0  0  0  0  0  0  0  0  0  0
   -9.0368   18.0340  -32.7133 H   0  0  0  0  0  0  0  0  0  0  0  0
   -9.6359   18.9166  -31.2598 H   0  0  0  0  0  0  0  0  0  0  0  0
   -7.9510   19.9241  -33.5732 H   0  0  0  0  0  0  0  0  0  0  0  0
   -9.4532   20.6262  -32.7961 H   0  0  0  0  0  0  0  0  0  0  0  0
   -9.2421   22.2825  -31.1513 H   0  0  0  0  0  0  0  0  0  0  0  0
   -8.7886   20.9416  -30.0385 H   0  0  0  0  0  0  0  0  0  0  0  0
   -8.0267   23.0814  -29.1096 H   0  0  0  0  0  0  0  0  0  0  0  0
   -6.6069   22.0821  -29.6105 H   0  0  0  0  0  0  0  0  0  0  0  0
   -7.6869   24.6374  -30.7523 H   0  0  0  0  0  0  0  0  0  0  0  0
   -5.2139   23.0154  -28.6364 H   0  0  0  0  0  0  0  0  0  0  0  0
   -1.1765   23.6589  -30.0277 H   0  0  0  0  0  0  0  0  0  0  0  0
    0.7485   23.4554  -28.4505 H   0  0  0  0  0  0  0  0  0  0  0  0
   -1.6865   24.7593  -25.2062 H   0  0  0  0  0  0  0  0  0  0  0  0
   -3.6561   24.9868  -26.7239 H   0  0  0  0  0  0  0  0  0  0  0  0
   -7.9999   23.6865  -32.7861 H   0  0  0  0  0  0  0  0  0  0  0  0
   -6.2087   23.9848  -32.8769 H   0  0  0  0  0  0  0  0  0  0  0  0
   -6.9089   21.7097  -33.6792 H   0  0  0  0  0  0  0  0  0  0  0  0
   -5.7310   21.7135  -32.2854 H   0  0  0  0  0  0  0  0  0  0  0  0
  1  2  1  0
  2  3  1  0
  3  4  1  0
  4  5  1  0
  5  6  1  0
  6  7  1  0
  7  8  1  0
  8  9  1  0
  9 10  2  0
 10 11  1  0
 11 12  2  0
 12 13  1  0
 13 14  2  0
 14 15  1  0
 15 16  2  0
 10 17  1  0
 17 18  1  0
  7 19  1  0
 19 20  1  0
 20  4  1  0
 18  8  2  0
 16 11  1  0
  1 21  1  0
  2 22  1  0
  2 23  1  0
  3 24  1  0
  3 25  1  0
  5 26  1  0
  5 27  1  0
  6 28  1  0
  6 29  1  0
  7 30  1  0
  9 31  1  0
 12 32  1  0
 13 33  1  0
 15 34  1  0
 16 35  1  0
 19 36  1  0
 19 37  1  0
 20 38  1  0
 20 39  1  0
M  CHG  1  17  -1
M  END
>  <UniqueID>  (12) 
11

>  <SMILES>  (12) 
OCCN1CCC(c2cc(-c3ccncc3)[n-]n2)CC1

>  <Energy>  (12) 
81.44249125038029

>  <Genealogy>  (12) 
OCCN1CCC(c2cc(-c3ccncc3)[n-]n2)CC1 (protonated)
OCCN1CCC(c2cc(-c3ccncc3)[n-]n2)CC1 (3D coordinates assigned)
OCCN1CCC(c2cc(-c3ccncc3)[n-]n2)CC1 (nonaromatic ring conformer: 81.44249125038029 kcal/mol)

>  <smiles>  (12) 
OCCN1CCC(c2cc(-c3ccncc3)[nH]n2)CC1

>  <score_type>  (12) 
oracle

>  <origin>  (12) 
adgpu

>  <m_score__min__energy>  (12) 
-9.2599999999999998

>  <m_primary>  (12) 
energy

$$$$
12:0
     RDKit          3D

 54 57  0  0  0  0  0  0  0  0999 V2000
   -3.8340   24.4930  -26.9950 C   0  0  0  0  0  0  0  0  0  0  0  0
   -3.5360   24.1300  -28.3810 N   0  0  0  0  0  0  0  0  0  0  0  0
   -2.1430   23.9290  -28.7860 C   0  0  0  0  0  0  0  0  0  0  0  0
   -4.6150   23.8830  -29.3030 C   0  0  0  0  0  0  0  0  0  0  0  0
   -5.5320   22.8480  -29.0470 C   0  0  0  0  0  0  0  0  0  0  0  0
   -6.5880   22.6040  -29.9300 C   0  0  0  0  0  0  0  0  0  0  0  0
   -6.7410   23.3880  -31.0770 C   0  0  0  0  0  0  0  0  0  0  0  0
   -8.1030   23.0770  -32.2000 S   0  0  0  0  0  0  0  0  0  0  0  0
   -7.9850   21.3000  -31.9840 C   0  0  0  0  0  0  0  0  0  0  0  0
   -8.7930   20.6060  -31.1620 N   0  0  0  0  0  0  0  0  0  0  0  0
   -8.4090   19.3400  -31.2230 N   0  0  0  0  0  0  0  0  0  0  0  0
   -7.3800   19.2800  -32.0910 C   0  0  0  0  0  0  0  0  0  0  0  0
   -6.6380   18.0390  -32.3720 C   0  0  0  0  0  0  0  0  0  0  0  0
   -6.4910   17.5980  -33.6960 C   0  0  0  0  0  0  0  0  0  0  0  0
   -5.8100   16.4100  -33.9700 C   0  0  0  0  0  0  0  0  0  0  0  0
   -5.2600   15.6550  -32.9260 C   0  0  0  0  0  0  0  0  0  0  0  0
   -4.3970   14.1600  -33.2700 S   0  0  0  0  0  0  0  0  0  0  0  0
   -5.4560   13.0560  -34.0730 N   0  0  0  0  0  0  0  0  0  0  0  0
   -3.9080   13.5440  -31.9890 O   0  0  0  0  0  0  0  0  0  0  0  0
   -3.2130   14.4480  -34.1490 O   0  0  0  0  0  0  0  0  0  0  0  0
   -5.3770   16.1120  -31.6060 C   0  0  0  0  0  0  0  0  0  0  0  0
   -6.0600   17.2990  -31.3310 C   0  0  0  0  0  0  0  0  0  0  0  0
   -7.0820   20.5010  -32.5890 N   0  0  0  0  0  0  0  0  0  0  0  0
   -5.9260   20.9000  -33.3990 C   0  0  0  0  0  0  0  0  0  0  0  0
   -4.6980   21.0160  -32.5350 C   0  0  0  0  0  0  0  0  0  0  0  0
   -3.5940   21.7620  -32.9820 C   0  0  0  0  0  0  0  0  0  0  0  0
   -2.4650   21.9030  -32.1690 C   0  0  0  0  0  0  0  0  0  0  0  0
   -2.4300   21.3040  -30.9070 C   0  0  0  0  0  0  0  0  0  0  0  0
   -3.5240   20.5600  -30.4560 C   0  0  0  0  0  0  0  0  0  0  0  0
   -4.6530   20.4120  -31.2660 C   0  0  0  0  0  0  0  0  0  0  0  0
   -5.8250   24.4100  -31.3480 C   0  0  0  0  0  0  0  0  0  0  0  0
   -4.7630   24.6560  -30.4720 C   0  0  0  0  0  0  0  0  0  0  0  0
   -3.8490   25.6570  -30.7810 O   0  0  0  0  0  0  0  0  0  0  0  0
   -3.2854   23.8248  -26.3149 H   0  0  0  0  0  0  0  0  0  0  0  0
   -3.5261   25.5334  -26.8141 H   0  0  0  0  0  0  0  0  0  0  0  0
   -4.9145   24.3937  -26.8141 H   0  0  0  0  0  0  0  0  0  0  0  0
   -1.5104   23.8377  -27.8907 H   0  0  0  0  0  0  0  0  0  0  0  0
   -2.0644   23.0102  -29.3857 H   0  0  0  0  0  0  0  0  0  0  0  0
   -1.8079   24.7881  -29.3857 H   0  0  0  0  0  0  0  0  0  0  0  0
   -5.4177   22.2267  -28.1465 H   0  0  0  0  0  0  0  0  0  0  0  0
   -7.3007   21.7925  -29.7215 H   0  0  0  0  0  0  0  0  0  0  0  0
   -6.9137   18.1902  -34.5210 H   0  0  0  0  0  0  0  0  0  0  0  0
   -5.7051   16.0658  -35.0095 H   0  0  0  0  0  0  0  0  0  0  0  0
   -6.4250   13.4310  -33.9670 H   0  0  0  0  0  0  0  0  0  0  0  0
   -4.9295   15.5340  -30.7840 H   0  0  0  0  0  0  0  0  0  0  0  0
   -6.1447   17.6546  -30.2935 H   0  0  0  0  0  0  0  0  0  0  0  0
   -5.7510   20.1442  -34.1789 H   0  0  0  0  0  0  0  0  0  0  0  0
   -6.1324   21.8768  -33.8608 H   0  0  0  0  0  0  0  0  0  0  0  0
   -3.6181   22.2363  -33.9742 H   0  0  0  0  0  0  0  0  0  0  0  0
   -1.6027   22.4866  -32.5236 H   0  0  0  0  0  0  0  0  0  0  0  0
   -1.5415   21.4180  -30.2685 H   0  0  0  0  0  0  0  0  0  0  0  0
   -3.4962   20.0902  -29.4618 H   0  0  0  0  0  0  0  0  0  0  0  0
   -5.5095   19.8209  -30.9097 H   0  0  0  0  0  0  0  0  0  0  0  0
   -5.9406   25.0228  -32.2541 H   0  0  0  0  0  0  0  0  0  0  0  0
  1  2  1  0
  2  3  1  0
  2  4  1  0
  4  5  2  0
  5  6  1  0
  6  7  2  0
  7  8  1  0
  8  9  1  0
  9 10  2  0
 10 11  1  0
 11 12  2  0
 12 13  1  0
 13 14  2  0
 14 15  1  0
 15 16  2  0
 16 17  1  0
 17 18  1  0
 17 19  2  0
 17 20  2  0
 16 21  1  0
 21 22  2  0
 12 23  1  0
 23 24  1  0
 24 25  1  0
 25 26  2  0
 26 27  1  0
 27 28  2  0
 28 29  1  0
 29 30  2  0
  7 31  1  0
 31 32  2  0
 32 33  1  0
 32  4  1  0
 23  9  1  0
 30 25  1  0
 22 13  1  0
  1 34  1  0
  1 35  1  0
  1 36  1  0
  3 37  1  0
  3 38  1  0
  3 39  1  0
  5 40  1  0
  6 41  1  0
 14 42  1  0
 15 43  1  0
 18 44  1  0
 21 45  1  0
 22 46  1  0
 24 47  1  0
 24 48  1  0
 26 49  1  0
 27 50  1  0
 28 51  1  0
 29 52  1  0
 30 53  1  0
 31 54  1  0
M  CHG  2  18  -1  33  -1
M  END
>  <UniqueID>  (13) 
12

>  <SMILES>  (13) 
CN(C)c1ccc(Sc2nnc(-c3ccc(S([NH-])(=O)=O)cc3)n2Cc2ccccc2)cc1[O-]

>  <Energy>  (13) 
94.41767218640858

>  <Genealogy>  (13) 
CN(C)c1ccc(Sc2nnc(-c3ccc(S([NH-])(=O)=O)cc3)n2Cc2ccccc2)cc1[O-] (protonated)
CN(C)c1ccc(Sc2nnc(-c3ccc(S([NH-])(=O)=O)cc3)n2Cc2ccccc2)cc1[O-] (3D coordinates assigned)
CN(C)c1ccc(Sc2nnc(-c3ccc(S([NH-])(=O)=O)cc3)n2Cc2ccccc2)cc1[O-] (optimized conformer: 94.41767218640858 kcal/mol)

>  <smiles>  (13) 
CN(C)c1ccc(Sc2nnc(-c3ccc(S(N)(=O)=O)cc3)n2Cc2ccccc2)cc1O

>  <score_type>  (13) 
oracle

>  <origin>  (13) 
adgpu

>  <m_score__min__energy>  (13) 
-12.279999999999999

>  <m_primary>  (13) 
energy

$$$$
13:0
     RDKit          3D

 52 55  0  0  0  0  0  0  0  0999 V2000
    4.7570   29.7370  -27.5670 H   0  0  0  0  0  0  0  0  0  0  0  0
    4.1240   30.1400  -26.8400 N   0  0  0  0  0  0  0  0  0  0  0  0
    3.6570   28.8420  -25.8010 S   0  0  0  0  0  0  0  0  0  0  0  0
    3.4270   29.3670  -24.4110 O   0  0  0  0  0  0  0  0  0  0  0  0
    4.7580   27.8200  -25.7530 O   0  0  0  0  0  0  0  0  0  0  0  0
    2.1810   28.1020  -26.4110 C   0  0  0  0  0  0  0  0  0  0  0  0
    1.0700   28.8990  -26.7210 C   0  0  0  0  0  0  0  0  0  0  0  0
    1.1187   29.9882  -26.5749 H   0  0  0  0  0  0  0  0  0  0  0  0
   -0.0990   28.3140  -27.2150 C   0  0  0  0  0  0  0  0  0  0  0  0
   -0.9722   28.9446  -27.4385 H   0  0  0  0  0  0  0  0  0  0  0  0
   -0.1680   26.9310  -27.4280 C   0  0  0  0  0  0  0  0  0  0  0  0
   -1.4000   26.3690  -27.9090 N   0  0  0  0  0  0  0  0  0  0  0  0
   -1.5420   25.2610  -28.5740 C   0  0  0  0  0  0  0  0  0  0  0  0
   -0.5160   24.4860  -28.9910 N   0  0  0  0  0  0  0  0  0  0  0  0
   -1.1330   23.4820  -29.6440 C   0  0  0  0  0  0  0  0  0  0  0  0
   -0.6322   22.6338  -30.1336 H   0  0  0  0  0  0  0  0  0  0  0  0
   -2.4970   23.6920  -29.5980 C   0  0  0  0  0  0  0  0  0  0  0  0
   -3.5540   22.8560  -30.1870 C   0  0  0  0  0  0  0  0  0  0  0  0
   -3.5740   21.6240  -29.9210 O   0  0  0  0  0  0  0  0  0  0  0  0
   -4.5250   23.4190  -31.0850 N   0  0  0  0  0  0  0  0  0  0  0  0
   -4.2820   24.3050  -31.5830 H   0  0  0  0  0  0  0  0  0  0  0  0
   -5.7590   22.7710  -31.4380 C   0  0  0  0  0  0  0  0  0  0  0  0
   -6.9030   23.5490  -31.6730 C   0  0  0  0  0  0  0  0  0  0  0  0
   -6.8413   24.6451  -31.6046 H   0  0  0  0  0  0  0  0  0  0  0  0
   -8.1190   22.9420  -31.9930 C   0  0  0  0  0  0  0  0  0  0  0  0
   -9.0068   23.5610  -32.1895 H   0  0  0  0  0  0  0  0  0  0  0  0
   -8.2100   21.5500  -32.0640 C   0  0  0  0  0  0  0  0  0  0  0  0
   -9.1674   21.0750  -32.3243 H   0  0  0  0  0  0  0  0  0  0  0  0
   -7.0830   20.7570  -31.8040 C   0  0  0  0  0  0  0  0  0  0  0  0
   -7.2090   18.9970  -31.8490 S   0  0  0  0  0  0  0  0  0  0  0  0
   -6.0880   18.4010  -31.0430 O   0  0  0  0  0  0  0  0  0  0  0  0
   -8.5060   18.5780  -31.2140 O   0  0  0  0  0  0  0  0  0  0  0  0
   -7.1360   18.3730  -33.4840 N   0  0  0  0  0  0  0  0  0  0  0  0
   -6.8240   16.9400  -33.4900 C   0  0  0  0  0  0  0  0  0  0  0  0
   -7.0851   16.4987  -32.5168 H   0  0  0  0  0  0  0  0  0  0  0  0
   -7.4014   16.4304  -34.2755 H   0  0  0  0  0  0  0  0  0  0  0  0
   -5.3330   16.7750  -33.7460 C   0  0  0  0  0  0  0  0  0  0  0  0
   -4.8111   16.5107  -32.8144 H   0  0  0  0  0  0  0  0  0  0  0  0
   -5.1324   15.9703  -34.4686 H   0  0  0  0  0  0  0  0  0  0  0  0
   -4.8520   18.1180  -34.2580 C   0  0  0  0  0  0  0  0  0  0  0  0
   -4.0720   18.5227  -33.5963 H   0  0  0  0  0  0  0  0  0  0  0  0
   -4.4137   18.0336  -35.2634 H   0  0  0  0  0  0  0  0  0  0  0  0
   -6.0730   19.0270  -34.2550 C   0  0  0  0  0  0  0  0  0  0  0  0
   -5.8172   19.9911  -33.7912 H   0  0  0  0  0  0  0  0  0  0  0  0
   -6.4112   19.2086  -35.2858 H   0  0  0  0  0  0  0  0  0  0  0  0
   -5.8620   21.3690  -31.4920 C   0  0  0  0  0  0  0  0  0  0  0  0
   -4.9770   20.7485  -31.2877 H   0  0  0  0  0  0  0  0  0  0  0  0
   -2.7170   24.8010  -28.9360 O   0  0  0  0  0  0  0  0  0  0  0  0
    0.9410   26.1300  -27.0940 C   0  0  0  0  0  0  0  0  0  0  0  0
    0.8869   25.0388  -27.2221 H   0  0  0  0  0  0  0  0  0  0  0  0
    2.1110   26.7160  -26.6000 C   0  0  0  0  0  0  0  0  0  0  0  0
    2.9797   26.0857  -26.3590 H   0  0  0  0  0  0  0  0  0  0  0  0
  1  2  1  0
  2  3  1  0
  3  4  2  0
  3  5  2  0
  3  6  1  0
  6  7  2  0
  7  8  1  0
  7  9  1  0
  9 10  1  0
  9 11  2  0
 11 12  1  0
 12 13  2  0
 13 14  1  0
 14 15  1  0
 15 16  1  0
 15 17  2  0
 17 18  1  0
 18 19  2  0
 18 20  1  0
 20 21  1  0
 20 22  1  0
 22 23  2  0
 23 24  1  0
 23 25  1  0
 25 26  1  0
 25 27  2  0
 27 28  1  0
 27 29  1  0
 29 30  1  0
 30 31  2  0
 30 32  2  0
 30 33  1  0
 33 34  1  0
 34 35  1  0
 34 36  1  0
 34 37  1  0
 37 38  1  0
 37 39  1  0
 37 40  1  0
 40 41  1  0
 40 42  1  0
 40 43  1  0
 43 44  1  0
 43 45  1  0
 29 46  2  0
 46 47  1  0
 17 48  1  0
 11 49  1  0
 49 50  1  0
 49 51  2  0
 51 52  1  0
 51  6  1  0
 48 13  1  0
 46 22  1  0
 43 33  1  0
M  CHG  2   2  -1  14  -1
M  END
>  <UniqueID>  (14) 
13

>  <SMILES>  (14) 
[NH-]S(=O)(=O)c1ccc(/N=c2\[n-]cc(C(=O)Nc3cccc(S(=O)(=O)N4CCCC4)c3)o2)cc1

>  <Energy>  (14) 
93.70494113205716

>  <Genealogy>  (14) 
[NH-]S(=O)(=O)c1ccc(N=c2[n-]cc(C(=O)Nc3cccc(S(=O)(=O)N4CCCC4)c3)o2)cc1 (protonated)
[NH-]S(=O)(=O)c1ccc(/N=c2\[n-]cc(C(=O)Nc3cccc(S(=O)(=O)N4CCCC4)c3)o2)cc1 (cis-trans isomerization)
[NH-]S(=O)(=O)c1ccc(/N=c2\[n-]cc(C(=O)Nc3cccc(S(=O)(=O)N4CCCC4)c3)o2)cc1 (3D coordinates assigned)
[NH-]S(=O)(=O)c1ccc(/N=c2\[n-]cc(C(=O)Nc3cccc(S(=O)(=O)N4CCCC4)c3)o2)cc1 (nonaromatic ring conformer: 93.70494113205716 kcal/mol)

>  <smiles>  (14) 
NS(=O)(=O)c1ccc(N=c2[nH]cc(C(=O)Nc3cccc(S(=O)(=O)N4CCCC4)c3)o2)cc1

>  <score_type>  (14) 
oracle

>  <origin>  (14) 
adgpu

>  <m_score__min__energy>  (14) 
-11.880000000000001

>  <m_primary>  (14) 
energy

$$$$
14:0
     RDKit          3D

 47 50  0  0  0  0  0  0  0  0999 V2000
   -4.1960   25.6680  -30.7860 N   0  0  0  0  0  0  0  0  0  0  0  0
   -3.6720   24.5790  -30.3280 C   0  0  0  0  0  0  0  0  0  0  0  0
   -3.5790   24.3880  -28.9740 N   0  0  0  0  0  0  0  0  0  0  0  0
   -3.0340   23.2520  -28.4480 C   0  0  0  0  0  0  0  0  0  0  0  0
   -2.9700   23.1040  -27.2010 O   0  0  0  0  0  0  0  0  0  0  0  0
   -2.5660   22.2790  -29.3320 C   0  0  0  0  0  0  0  0  0  0  0  0
   -2.6690   22.4960  -30.6730 C   0  0  0  0  0  0  0  0  0  0  0  0
   -3.2140   23.6220  -31.1910 N   0  0  0  0  0  0  0  0  0  0  0  0
   -2.1460   21.4030  -31.3240 C   0  0  0  0  0  0  0  0  0  0  0  0
   -2.1090   21.1500  -32.8000 C   0  0  0  0  0  0  0  0  0  0  0  0
   -3.3440   21.6170  -33.4340 N   0  0  0  0  0  0  0  0  0  0  0  0
   -4.6530   21.1690  -33.0350 C   0  0  0  0  0  0  0  0  0  0  0  0
   -5.5030   22.0530  -32.3510 C   0  0  0  0  0  0  0  0  0  0  0  0
   -6.7780   21.6470  -31.9500 C   0  0  0  0  0  0  0  0  0  0  0  0
   -7.2270   20.3510  -32.2320 C   0  0  0  0  0  0  0  0  0  0  0  0
   -8.8290   19.8360  -31.7160 S   0  0  0  0  0  0  0  0  0  0  0  0
   -9.8120   19.5410  -33.1060 N   0  0  0  0  0  0  0  0  0  0  0  0
   -8.7220   18.5780  -30.8990 O   0  0  0  0  0  0  0  0  0  0  0  0
   -9.4610   20.9080  -30.8720 O   0  0  0  0  0  0  0  0  0  0  0  0
   -6.3830   19.4600  -32.9070 C   0  0  0  0  0  0  0  0  0  0  0  0
   -5.1060   19.8640  -33.3090 C   0  0  0  0  0  0  0  0  0  0  0  0
   -1.7500   20.5300  -30.3140 C   0  0  0  0  0  0  0  0  0  0  0  0
   -2.0050   21.0710  -29.0940 N   0  0  0  0  0  0  0  0  0  0  0  0
   -1.6720   20.4570  -27.8070 C   0  0  0  0  0  0  0  0  0  0  0  0
   -0.4310   19.6130  -27.9280 C   0  0  0  0  0  0  0  0  0  0  0  0
    0.8100   20.2020  -28.2240 C   0  0  0  0  0  0  0  0  0  0  0  0
    1.9590   19.4120  -28.3320 C   0  0  0  0  0  0  0  0  0  0  0  0
    1.8800   18.0300  -28.1380 C   0  0  0  0  0  0  0  0  0  0  0  0
    0.6520   17.4370  -27.8310 C   0  0  0  0  0  0  0  0  0  0  0  0
   -0.4990   18.2240  -27.7230 C   0  0  0  0  0  0  0  0  0  0  0  0
   -4.2820   25.8430  -31.8120 H   0  0  0  0  0  0  0  0  0  0  0  0
   -1.2533   21.6854  -33.2372 H   0  0  0  0  0  0  0  0  0  0  0  0
   -2.0091   20.0681  -32.9721 H   0  0  0  0  0  0  0  0  0  0  0  0
   -3.2780   22.3070  -34.2180 H   0  0  0  0  0  0  0  0  0  0  0  0
   -5.1616   23.0748  -32.1289 H   0  0  0  0  0  0  0  0  0  0  0  0
   -7.4318   22.3481  -31.4106 H   0  0  0  0  0  0  0  0  0  0  0  0
   -9.2050   19.6890  -33.9450 H   0  0  0  0  0  0  0  0  0  0  0  0
   -6.7264   18.4373  -33.1220 H   0  0  0  0  0  0  0  0  0  0  0  0
   -4.4517   19.1586  -33.8422 H   0  0  0  0  0  0  0  0  0  0  0  0
   -1.2952   19.5423  -30.4803 H   0  0  0  0  0  0  0  0  0  0  0  0
   -1.4999   21.2484  -27.0626 H   0  0  0  0  0  0  0  0  0  0  0  0
   -2.5084   19.8151  -27.4933 H   0  0  0  0  0  0  0  0  0  0  0  0
    0.8781   21.2899  -28.3715 H   0  0  0  0  0  0  0  0  0  0  0  0
    2.9262   19.8789  -28.5699 H   0  0  0  0  0  0  0  0  0  0  0  0
    2.7838   17.4093  -28.2269 H   0  0  0  0  0  0  0  0  0  0  0  0
    0.5909   16.3500  -27.6742 H   0  0  0  0  0  0  0  0  0  0  0  0
   -1.4623   17.7537  -27.4764 H   0  0  0  0  0  0  0  0  0  0  0  0
  1  2  2  3
  2  3  1  0
  3  4  1  0
  4  5  2  0
  4  6  1  0
  6  7  2  0
  7  8  1  0
  7  9  1  0
  9 10  1  0
 10 11  1  0
 11 12  1  0
 12 13  2  0
 13 14  1  0
 14 15  2  0
 15 16  1  0
 16 17  1  0
 16 18  2  0
 16 19  2  0
 15 20  1  0
 20 21  2  0
  9 22  2  0
 22 23  1  0
 23 24  1  0
 24 25  1  0
 25 26  2  0
 26 27  1  0
 27 28  2  0
 28 29  1  0
 29 30  2  0
  8  2  1  0
 21 12  1  0
 30 25  1  0
 23  6  1  0
  1 31  1  0
 10 32  1  0
 10 33  1  0
 11 34  1  0
 13 35  1  0
 14 36  1  0
 17 37  1  0
 20 38  1  0
 21 39  1  0
 22 40  1  0
 24 41  1  0
 24 42  1  0
 26 43  1  0
 27 44  1  0
 28 45  1  0
 29 46  1  0
 30 47  1  0
M  CHG  3   3  -1   8  -1  17  -1
M  END
>  <UniqueID>  (15) 
14

>  <SMILES>  (15) 
N=c1[n-]c(=O)c2c([n-]1)c(CNc1ccc(S([NH-])(=O)=O)cc1)cn2Cc1ccccc1

>  <Energy>  (15) 
87.51150587325795

>  <Genealogy>  (15) 
N=c1[n-]c(=O)c2c([n-]1)c(CNc1ccc(S([NH-])(=O)=O)cc1)cn2Cc1ccccc1 (protonated)
N=c1[n-]c(=O)c2c([n-]1)c(CNc1ccc(S([NH-])(=O)=O)cc1)cn2Cc1ccccc1 (3D coordinates assigned)
N=c1[n-]c(=O)c2c([n-]1)c(CNc1ccc(S([NH-])(=O)=O)cc1)cn2Cc1ccccc1 (optimized conformer: 87.51150587325795 kcal/mol)

>  <smiles>  (15) 
N=c1[nH]c(=O)c2c([nH]1)c(CNc1ccc(S(N)(=O)=O)cc1)cn2Cc1ccccc1

>  <score_type>  (15) 
oracle

>  <origin>  (15) 
adgpu

>  <m_score__min__energy>  (15) 
-12.220000000000001

>  <m_primary>  (15) 
energy

$$$$
15:0
     RDKit          3D

 39 42  0  0  0  0  0  0  0  0999 V2000
   -3.6920   14.7050  -34.3110 N   0  0  0  0  0  0  0  0  0  0  0  0
   -4.3550   15.5950  -33.9850 C   0  0  0  0  0  0  0  0  0  0  0  0
   -5.1810   16.7030  -33.5790 C   0  0  0  0  0  0  0  0  0  0  0  0
   -5.7510   16.7150  -32.3000 C   0  0  0  0  0  0  0  0  0  0  0  0
   -6.5530   17.7880  -31.9000 C   0  0  0  0  0  0  0  0  0  0  0  0
   -6.7880   18.8580  -32.7760 C   0  0  0  0  0  0  0  0  0  0  0  0
   -7.6140   19.9640  -32.3630 N   0  0  0  0  0  0  0  0  0  0  0  0
   -8.9780   19.8240  -32.4330 C   0  0  0  0  0  0  0  0  0  0  0  0
   -9.4930   18.7530  -32.8580 O   0  0  0  0  0  0  0  0  0  0  0  0
   -9.8210   20.8610  -32.0280 C   0  0  0  0  0  0  0  0  0  0  0  0
   -9.2780   22.0460  -31.5490 C   0  0  0  0  0  0  0  0  0  0  0  0
   -7.8910   22.1990  -31.4770 C   0  0  0  0  0  0  0  0  0  0  0  0
   -7.3370   23.3950  -30.9960 C   0  0  0  0  0  0  0  0  0  0  0  0
   -5.9480   23.5510  -30.9270 C   0  0  0  0  0  0  0  0  0  0  0  0
   -5.2480   25.0430  -30.3080 S   0  0  0  0  0  0  0  0  0  0  0  0
   -5.6750   26.1840  -31.1870 O   0  0  0  0  0  0  0  0  0  0  0  0
   -5.7160   25.3070  -28.9020 O   0  0  0  0  0  0  0  0  0  0  0  0
   -3.5160   24.9360  -30.3150 N   0  0  0  0  0  0  0  0  0  0  0  0
   -2.8010   24.5770  -29.2930 C   0  0  0  0  0  0  0  0  0  0  0  0
   -1.4560   24.5010  -29.3460 N   0  0  0  0  0  0  0  0  0  0  0  0
   -0.9280   24.1000  -28.1590 C   0  0  0  0  0  0  0  0  0  0  0  0
   -1.8550   23.8540  -27.1520 C   0  0  0  0  0  0  0  0  0  0  0  0
   -3.3920   24.1510  -27.7710 S   0  0  0  0  0  0  0  0  0  0  0  0
   -5.1120   22.5160  -31.3530 C   0  0  0  0  0  0  0  0  0  0  0  0
   -5.6520   21.3210  -31.8330 C   0  0  0  0  0  0  0  0  0  0  0  0
   -7.0520   21.1360  -31.8970 C   0  0  0  0  0  0  0  0  0  0  0  0
   -6.2210   18.8430  -34.0580 C   0  0  0  0  0  0  0  0  0  0  0  0
   -5.4180   17.7700  -34.4600 C   0  0  0  0  0  0  0  0  0  0  0  0
   -4.8740   17.7730  -35.7040 F   0  0  0  0  0  0  0  0  0  0  0  0
   -5.5675   15.8790  -31.6090 H   0  0  0  0  0  0  0  0  0  0  0  0
   -7.0010   17.7932  -30.8954 H   0  0  0  0  0  0  0  0  0  0  0  0
  -10.9126   20.7395  -32.0883 H   0  0  0  0  0  0  0  0  0  0  0  0
   -9.9394   22.8637  -31.2265 H   0  0  0  0  0  0  0  0  0  0  0  0
   -7.9970   24.2131  -30.6719 H   0  0  0  0  0  0  0  0  0  0  0  0
    0.1546   23.9789  -28.0062 H   0  0  0  0  0  0  0  0  0  0  0  0
   -1.6240   23.5229  -26.1288 H   0  0  0  0  0  0  0  0  0  0  0  0
   -4.0202   22.6433  -31.3100 H   0  0  0  0  0  0  0  0  0  0  0  0
   -4.9809   20.5151  -32.1648 H   0  0  0  0  0  0  0  0  0  0  0  0
   -6.4080   19.6774  -34.7500 H   0  0  0  0  0  0  0  0  0  0  0  0
  1  2  3  0
  2  3  1  0
  3  4  2  0
  4  5  1  0
  5  6  2  0
  6  7  1  0
  7  8  1  0
  8  9  2  0
  8 10  1  0
 10 11  2  0
 11 12  1  0
 12 13  2  0
 13 14  1  0
 14 15  1  0
 15 16  2  0
 15 17  2  0
 15 18  1  0
 18 19  2  3
 19 20  1  0
 20 21  1  0
 21 22  2  0
 22 23  1  0
 14 24  2  0
 24 25  1  0
 25 26  2  0
  6 27  1  0
 27 28  2  0
 28 29  1  0
 28  3  1  0
 26  7  1  0
 26 12  1  0
 23 19  1  0
  4 30  1  0
  5 31  1  0
 10 32  1  0
 11 33  1  0
 13 34  1  0
 21 35  1  0
 22 36  1  0
 24 37  1  0
 25 38  1  0
 27 39  1  0
M  CHG  1  20  -1
M  END
>  <UniqueID>  (16) 
15

>  <SMILES>  (16) 
N#Cc1ccc(-n2c(=O)ccc3cc(S(=O)(=O)N=c4[n-]ccs4)ccc32)cc1F

>  <Energy>  (16) 
92.156419367746

>  <Genealogy>  (16) 
N#Cc1ccc(-n2c(=O)ccc3cc(S(=O)(=O)N=c4[n-]ccs4)ccc32)cc1F (protonated)
N#Cc1ccc(-n2c(=O)ccc3cc(S(=O)(=O)N=c4[n-]ccs4)ccc32)cc1F (3D coordinates assigned)
N#Cc1ccc(-n2c(=O)ccc3cc(S(=O)(=O)N=c4[n-]ccs4)ccc32)cc1F (optimized conformer: 92.156419367746 kcal/mol)

>  <smiles>  (16) 
N#Cc1ccc(-n2c(=O)ccc3cc(S(=O)(=O)N=c4[nH]ccs4)ccc32)cc1F

>  <score_type>  (16) 
oracle

>  <origin>  (16) 
adgpu

>  <m_score__min__energy>  (16) 
-12.07

>  <m_primary>  (16) 
energy

$$$$
16:0
     RDKit          3D

 37 39  0  0  0  0  0  0  0  0999 V2000
   -6.8420   15.5750  -34.2220 C   0  0  0  0  0  0  0  0  0  0  0  0
   -6.2410   16.8660  -33.7520 C   0  0  0  0  0  0  0  0  0  0  0  0
   -6.1740   17.1590  -32.3810 C   0  0  0  0  0  0  0  0  0  0  0  0
   -5.5810   18.3460  -31.9420 C   0  0  0  0  0  0  0  0  0  0  0  0
   -5.0440   19.2470  -32.8670 C   0  0  0  0  0  0  0  0  0  0  0  0
   -4.2890   20.7730  -32.3050 S   0  0  0  0  0  0  0  0  0  0  0  0
   -5.8670   21.4990  -31.8350 C   0  0  0  0  0  0  0  0  0  0  0  0
   -7.0030   21.1740  -32.5880 C   0  0  0  0  0  0  0  0  0  0  0  0
   -8.2330   21.7710  -32.3050 C   0  0  0  0  0  0  0  0  0  0  0  0
   -8.3360   22.7050  -31.2720 C   0  0  0  0  0  0  0  0  0  0  0  0
   -7.2110   23.0340  -30.5120 C   0  0  0  0  0  0  0  0  0  0  0  0
   -5.9760   22.4210  -30.7680 C   0  0  0  0  0  0  0  0  0  0  0  0
   -4.8390   22.7960  -29.9770 N   0  0  0  0  0  0  0  0  0  0  0  0
   -4.2560   24.1060  -30.0310 C   0  0  0  0  0  0  0  0  0  0  0  0
   -4.6220   24.9290  -30.9150 O   0  0  0  0  0  0  0  0  0  0  0  0
   -3.2200   24.4890  -29.0630 C   0  0  0  0  0  0  0  0  0  0  0  0
   -3.1510   24.0820  -27.7440 C   0  0  0  0  0  0  0  0  0  0  0  0
   -2.0190   24.6780  -27.2310 C   0  0  0  0  0  0  0  0  0  0  0  0
   -1.4680   25.4080  -28.2650 C   0  0  0  0  0  0  0  0  0  0  0  0
   -2.2060   25.2760  -29.3430 O   0  0  0  0  0  0  0  0  0  0  0  0
   -5.0850   18.9480  -34.2340 C   0  0  0  0  0  0  0  0  0  0  0  0
   -5.6760   17.7610  -34.6760 C   0  0  0  0  0  0  0  0  0  0  0  0
   -7.1261   14.9647  -33.3521 H   0  0  0  0  0  0  0  0  0  0  0  0
   -7.7346   15.7857  -34.8293 H   0  0  0  0  0  0  0  0  0  0  0  0
   -6.1061   15.0276  -34.8293 H   0  0  0  0  0  0  0  0  0  0  0  0
   -6.5900   16.4513  -31.6488 H   0  0  0  0  0  0  0  0  0  0  0  0
   -5.5366   18.5721  -30.8664 H   0  0  0  0  0  0  0  0  0  0  0  0
   -6.9253   20.4440  -33.4072 H   0  0  0  0  0  0  0  0  0  0  0  0
   -9.1217   21.5054  -32.8963 H   0  0  0  0  0  0  0  0  0  0  0  0
   -9.3035   23.1819  -31.0566 H   0  0  0  0  0  0  0  0  0  0  0  0
   -7.2945   23.7791  -29.7071 H   0  0  0  0  0  0  0  0  0  0  0  0
   -4.3300   22.0440  -29.4630 H   0  0  0  0  0  0  0  0  0  0  0  0
   -3.8527   23.4208  -27.2144 H   0  0  0  0  0  0  0  0  0  0  0  0
   -1.6327   24.5898  -26.2049 H   0  0  0  0  0  0  0  0  0  0  0  0
   -0.5495   26.0094  -28.1962 H   0  0  0  0  0  0  0  0  0  0  0  0
   -4.6510   19.6490  -34.9622 H   0  0  0  0  0  0  0  0  0  0  0  0
   -5.6988   17.5268  -35.7505 H   0  0  0  0  0  0  0  0  0  0  0  0
  1  2  1  0
  2  3  2  0
  3  4  1  0
  4  5  2  0
  5  6  1  0
  6  7  1  0
  7  8  2  0
  8  9  1  0
  9 10  2  0
 10 11  1  0
 11 12  2  0
 12 13  1  0
 13 14  1  0
 14 15  2  0
 14 16  1  0
 16 17  2  0
 17 18  1  0
 18 19  2  0
 19 20  1  0
  5 21  1  0
 21 22  2  0
 22  2  1  0
 12  7  1  0
 20 16  1  0
  1 23  1  0
  1 24  1  0
  1 25  1  0
  3 26  1  0
  4 27  1  0
  8 28  1  0
  9 29  1  0
 10 30  1  0
 11 31  1  0
 13 32  1  0
 17 33  1  0
 18 34  1  0
 19 35  1  0
 21 36  1  0
 22 37  1  0
M  END
>  <UniqueID>  (17) 
16

>  <SMILES>  (17) 
Cc1ccc(Sc2ccccc2NC(=O)c2ccco2)cc1

>  <Energy>  (17) 
64.21464632441702

>  <Genealogy>  (17) 
Cc1ccc(Sc2ccccc2NC(=O)c2ccco2)cc1 (3D coordinates assigned)
Cc1ccc(Sc2ccccc2NC(=O)c2ccco2)cc1 (optimized conformer: 64.21464632441702 kcal/mol)

>  <smiles>  (17) 
Cc1ccc(Sc2ccccc2NC(=O)c2ccco2)cc1

>  <score_type>  (17) 
oracle

>  <origin>  (17) 
adgpu

>  <m_score__min__energy>  (17) 
-8.8599999999999994

>  <m_primary>  (17) 
energy

$$$$
17:0
     RDKit          3D

 46 48  0  0  0  0  0  0  0  0999 V2000
   -6.4740   21.6460  -32.4670 C   0  0  0  0  0  0  0  0  0  0  0  0
   -6.2750   22.8500  -31.5960 C   0  0  0  0  0  0  0  0  0  0  0  0
   -7.3730   23.4230  -30.9400 C   0  0  0  0  0  0  0  0  0  0  0  0
   -7.2010   24.5550  -30.1410 C   0  0  0  0  0  0  0  0  0  0  0  0
   -5.9320   25.1190  -29.9860 C   0  0  0  0  0  0  0  0  0  0  0  0
   -4.8190   24.5460  -30.6250 C   0  0  0  0  0  0  0  0  0  0  0  0
   -3.4950   25.0680  -30.4580 N   0  0  0  0  0  0  0  0  0  0  0  0
   -2.3270   24.4510  -29.3320 S   0  0  0  0  0  0  0  0  0  0  0  0
   -1.1730   25.4060  -29.2290 O   0  0  0  0  0  0  0  0  0  0  0  0
   -2.9720   24.3300  -27.9790 O   0  0  0  0  0  0  0  0  0  0  0  0
   -1.7400   22.8770  -29.8970 C   0  0  0  0  0  0  0  0  0  0  0  0
   -2.2380   22.3650  -31.1050 C   0  0  0  0  0  0  0  0  0  0  0  0
   -1.6980   21.2060  -31.6680 C   0  0  0  0  0  0  0  0  0  0  0  0
   -2.1740   20.7620  -32.9450 N   0  0  0  0  0  0  0  0  0  0  0  0
   -1.4800   19.8490  -33.8070 C   0  0  0  0  0  0  0  0  0  0  0  0
   -1.8690   18.6530  -33.8590 O   0  0  0  0  0  0  0  0  0  0  0  0
   -0.3550   20.2900  -34.6670 C   0  0  0  0  0  0  0  0  0  0  0  0
    0.2800   19.3880  -35.5390 C   0  0  0  0  0  0  0  0  0  0  0  0
    1.3350   19.8120  -36.3510 C   0  0  0  0  0  0  0  0  0  0  0  0
    1.7780   21.1360  -36.2930 C   0  0  0  0  0  0  0  0  0  0  0  0
    2.8290   21.5440  -37.1070 O   0  0  0  0  0  0  0  0  0  0  0  0
    1.1640   22.0450  -35.4140 C   0  0  0  0  0  0  0  0  0  0  0  0
    1.5870   23.3700  -35.3350 O   0  0  0  0  0  0  0  0  0  0  0  0
    0.1060   21.6150  -34.6020 C   0  0  0  0  0  0  0  0  0  0  0  0
   -0.6930   20.5080  -30.9850 C   0  0  0  0  0  0  0  0  0  0  0  0
   -0.2110   20.9850  -29.7650 C   0  0  0  0  0  0  0  0  0  0  0  0
   -0.7240   22.1670  -29.2070 C   0  0  0  0  0  0  0  0  0  0  0  0
   -0.1270   22.6790  -27.9210 C   0  0  0  0  0  0  0  0  0  0  0  0
   -5.0010   23.4240  -31.4430 C   0  0  0  0  0  0  0  0  0  0  0  0
   -6.6209   20.7571  -31.8359 H   0  0  0  0  0  0  0  0  0  0  0  0
   -7.3597   21.7952  -33.1021 H   0  0  0  0  0  0  0  0  0  0  0  0
   -5.5874   21.5023  -33.1021 H   0  0  0  0  0  0  0  0  0  0  0  0
   -8.3731   22.9796  -31.0549 H   0  0  0  0  0  0  0  0  0  0  0  0
   -8.0667   25.0040  -29.6322 H   0  0  0  0  0  0  0  0  0  0  0  0
   -5.8036   26.0152  -29.3613 H   0  0  0  0  0  0  0  0  0  0  0  0
   -3.0638   22.8827  -31.6149 H   0  0  0  0  0  0  0  0  0  0  0  0
   -0.0561   18.3415  -35.5822 H   0  0  0  0  0  0  0  0  0  0  0  0
    1.8182   19.1016  -37.0379 H   0  0  0  0  0  0  0  0  0  0  0  0
    2.4000   23.7060  -35.8380 H   0  0  0  0  0  0  0  0  0  0  0  0
   -0.3685   22.3227  -33.9063 H   0  0  0  0  0  0  0  0  0  0  0  0
   -0.2825   19.5810  -31.4118 H   0  0  0  0  0  0  0  0  0  0  0  0
    0.5777   20.4300  -29.2360 H   0  0  0  0  0  0  0  0  0  0  0  0
   -0.6534   22.2276  -27.0671 H   0  0  0  0  0  0  0  0  0  0  0  0
    0.9387   22.4098  -27.8787 H   0  0  0  0  0  0  0  0  0  0  0  0
   -0.2307   23.7733  -27.8787 H   0  0  0  0  0  0  0  0  0  0  0  0
   -4.1396   22.9881  -31.9703 H   0  0  0  0  0  0  0  0  0  0  0  0
  1  2  1  0
  2  3  2  0
  3  4  1  0
  4  5  2  0
  5  6  1  0
  6  7  1  0
  7  8  1  0
  8  9  2  0
  8 10  2  0
  8 11  1  0
 11 12  2  0
 12 13  1  0
 13 14  1  0
 14 15  1  0
 15 16  2  0
 15 17  1  0
 17 18  2  0
 18 19  1  0
 19 20  2  0
 20 21  1  0
 20 22  1  0
 22 23  1  0
 22 24  2  0
 13 25  2  0
 25 26  1  0
 26 27  2  0
 27 28  1  0
  6 29  2  0
 29  2  1  0
 27 11  1  0
 24 17  1  0
  1 30  1  0
  1 31  1  0
  1 32  1  0
  3 33  1  0
  4 34  1  0
  5 35  1  0
 12 36  1  0
 18 37  1  0
 19 38  1  0
 23 39  1  0
 24 40  1  0
 25 41  1  0
 26 42  1  0
 28 43  1  0
 28 44  1  0
 28 45  1  0
 29 46  1  0
M  CHG  3   7  -1  14  -1  21  -1
M  END
>  <UniqueID>  (18) 
17

>  <SMILES>  (18) 
Cc1cccc([N-]S(=O)(=O)c2cc([N-]C(=O)c3ccc([O-])c(O)c3)ccc2C)c1

>  <Energy>  (18) 
58.308860297583124

>  <Genealogy>  (18) 
Cc1cccc([N-]S(=O)(=O)c2cc([N-]C(=O)c3ccc([O-])c(O)c3)ccc2C)c1 (protonated)
Cc1cccc([N-]S(=O)(=O)c2cc([N-]C(=O)c3ccc([O-])c(O)c3)ccc2C)c1 (3D coordinates assigned)
Cc1cccc([N-]S(=O)(=O)c2cc([N-]C(=O)c3ccc([O-])c(O)c3)ccc2C)c1 (optimized conformer: 58.308860297583124 kcal/mol)

>  <smiles>  (18) 
Cc1cccc(NS(=O)(=O)c2cc(NC(=O)c3ccc(O)c(O)c3)ccc2C)c1

>  <score_type>  (18) 
oracle

>  <origin>  (18) 
adgpu

>  <m_score__min__energy>  (18) 
-12.140000000000001

>  <m_primary>  (18) 
energy

$$$$
18:0
     RDKit          3D

 41 44  0  0  0  0  0  0  0  0999 V2000
   -6.1690   16.7270  -33.3510 C   0  0  0  0  0  0  0  0  0  0  0  0
   -6.8620   17.9920  -32.9400 C   0  0  0  0  0  0  0  0  0  0  0  0
   -7.9790   17.9430  -32.0910 C   0  0  0  0  0  0  0  0  0  0  0  0
   -8.6470   19.1190  -31.7350 C   0  0  0  0  0  0  0  0  0  0  0  0
   -8.2210   20.3550  -32.2430 C   0  0  0  0  0  0  0  0  0  0  0  0
   -8.9120   21.6240  -31.8260 C   0  0  0  0  0  0  0  0  0  0  0  0
   -7.9380   22.5610  -31.2790 N   0  0  0  0  0  0  0  0  0  0  0  0
   -7.0100   22.2780  -30.3440 C   0  0  0  0  0  0  0  0  0  0  0  0
   -6.3470   23.4480  -30.0530 C   0  0  0  0  0  0  0  0  0  0  0  0
   -5.2470   23.5850  -29.1430 N   0  0  0  0  0  0  0  0  0  0  0  0
   -3.9680   24.1260  -29.5090 C   0  0  0  0  0  0  0  0  0  0  0  0
   -3.8600   24.8610  -30.5280 O   0  0  0  0  0  0  0  0  0  0  0  0
   -2.7730   23.8750  -28.6820 C   0  0  0  0  0  0  0  0  0  0  0  0
   -1.7130   24.7520  -28.4520 C   0  0  0  0  0  0  0  0  0  0  0  0
   -0.7820   24.1620  -27.6630 N   0  0  0  0  0  0  0  0  0  0  0  0
   -1.2240   22.9450  -27.3980 N   0  0  0  0  0  0  0  0  0  0  0  0
   -0.6040   21.9950  -26.6580 C   0  0  0  0  0  0  0  0  0  0  0  0
   -1.2380   20.7520  -26.5240 C   0  0  0  0  0  0  0  0  0  0  0  0
   -2.4770   20.5500  -27.1650 C   0  0  0  0  0  0  0  0  0  0  0  0
   -3.0480   21.5500  -27.8980 N   0  0  0  0  0  0  0  0  0  0  0  0
   -2.4060   22.7410  -27.9910 C   0  0  0  0  0  0  0  0  0  0  0  0
   -6.9170   24.4180  -30.8590 C   0  0  0  0  0  0  0  0  0  0  0  0
   -7.8970   23.8490  -31.5910 N   0  0  0  0  0  0  0  0  0  0  0  0
   -7.1050   20.4040  -33.0930 C   0  0  0  0  0  0  0  0  0  0  0  0
   -6.4380   19.2290  -33.4480 C   0  0  0  0  0  0  0  0  0  0  0  0
   -5.8630   16.1685  -32.4541 H   0  0  0  0  0  0  0  0  0  0  0  0
   -6.8555   16.1108  -33.9502 H   0  0  0  0  0  0  0  0  0  0  0  0
   -5.2802   16.9739  -33.9502 H   0  0  0  0  0  0  0  0  0  0  0  0
   -8.3304   16.9752  -31.7040 H   0  0  0  0  0  0  0  0  0  0  0  0
   -9.5097   19.0744  -31.0540 H   0  0  0  0  0  0  0  0  0  0  0  0
   -9.4028   22.0766  -32.7002 H   0  0  0  0  0  0  0  0  0  0  0  0
   -9.6637   21.3920  -31.0571 H   0  0  0  0  0  0  0  0  0  0  0  0
   -6.8177   21.2922  -29.8955 H   0  0  0  0  0  0  0  0  0  0  0  0
   -5.4160   23.3310  -28.1450 H   0  0  0  0  0  0  0  0  0  0  0  0
   -1.6428   25.7740  -28.8527 H   0  0  0  0  0  0  0  0  0  0  0  0
    0.3657   22.1925  -26.1777 H   0  0  0  0  0  0  0  0  0  0  0  0
   -0.7772   19.9492  -25.9297 H   0  0  0  0  0  0  0  0  0  0  0  0
   -2.9873   19.5798  -27.0739 H   0  0  0  0  0  0  0  0  0  0  0  0
   -6.6204   25.4766  -30.8965 H   0  0  0  0  0  0  0  0  0  0  0  0
   -6.7542   21.3716  -33.4812 H   0  0  0  0  0  0  0  0  0  0  0  0
   -5.5757   19.2740  -34.1295 H   0  0  0  0  0  0  0  0  0  0  0  0
  1  2  1  0
  2  3  2  0
  3  4  1  0
  4  5  2  0
  5  6  1  0
  6  7  1  0
  7  8  1  0
  8  9  2  0
  9 10  1  0
 10 11  1  0
 11 12  2  0
 11 13  1  0
 13 14  1  0
 14 15  2  0
 15 16  1  0
 16 17  1  0
 17 18  2  0
 18 19  1  0
 19 20  2  0
 20 21  1  0
  9 22  1  0
 22 23  2  0
  5 24  1  0
 24 25  2  0
 25  2  1  0
 23  7  1  0
 21 13  2  0
 21 16  1  0
  1 26  1  0
  1 27  1  0
  1 28  1  0
  3 29  1  0
  4 30  1  0
  6 31  1  0
  6 32  1  0
  8 33  1  0
 10 34  1  0
 14 35  1  0
 17 36  1  0
 18 37  1  0
 19 38  1  0
 22 39  1  0
 24 40  1  0
 25 41  1  0
M  END
>  <UniqueID>  (19) 
18

>  <SMILES>  (19) 
Cc1ccc(Cn2cc(NC(=O)c3cnn4cccnc34)cn2)cc1

>  <Energy>  (19) 
113.84645415737475

>  <Genealogy>  (19) 
Cc1ccc(Cn2cc(NC(=O)c3cnn4cccnc34)cn2)cc1 (3D coordinates assigned)
Cc1ccc(Cn2cc(NC(=O)c3cnn4cccnc34)cn2)cc1 (optimized conformer: 113.84645415737475 kcal/mol)

>  <smiles>  (19) 
Cc1ccc(Cn2cc(NC(=O)c3cnn4cccnc34)cn2)cc1

>  <score_type>  (19) 
oracle

>  <origin>  (19) 
adgpu

>  <m_score__min__energy>  (19) 
-9.0399999999999991

>  <m_primary>  (19) 
energy

$$$$
19:0
     RDKit          3D

 44 46  0  0  0  0  0  0  0  0999 V2000
   -5.1490   24.9110  -28.3680 O   0  0  0  0  0  0  0  0  0  0  0  0
   -5.1900   25.0460  -29.8650 S   0  0  0  0  0  0  0  0  0  0  0  0
   -5.6990   26.4120  -30.2230 O   0  0  0  0  0  0  0  0  0  0  0  0
   -3.5860   24.8470  -30.4970 N   0  0  0  0  0  0  0  0  0  0  0  0
   -2.6850   23.7900  -30.1350 C   0  0  0  0  0  0  0  0  0  0  0  0
   -2.8300   22.5420  -30.7560 C   0  0  0  0  0  0  0  0  0  0  0  0
   -1.9900   21.4790  -30.4130 C   0  0  0  0  0  0  0  0  0  0  0  0
   -0.9930   21.6560  -29.4490 C   0  0  0  0  0  0  0  0  0  0  0  0
   -0.8310   22.9000  -28.8350 C   0  0  0  0  0  0  0  0  0  0  0  0
   -1.6690   23.9670  -29.1770 C   0  0  0  0  0  0  0  0  0  0  0  0
   -6.2520   23.8370  -30.5760 C   0  0  0  0  0  0  0  0  0  0  0  0
   -6.0560   23.4380  -31.9050 C   0  0  0  0  0  0  0  0  0  0  0  0
   -6.8210   22.4030  -32.4490 C   0  0  0  0  0  0  0  0  0  0  0  0
   -7.7920   21.7600  -31.6680 C   0  0  0  0  0  0  0  0  0  0  0  0
   -8.6580   20.3610  -32.2970 S   0  0  0  0  0  0  0  0  0  0  0  0
  -10.1280   20.6690  -32.3410 O   0  0  0  0  0  0  0  0  0  0  0  0
   -8.1940   20.0460  -33.6930 O   0  0  0  0  0  0  0  0  0  0  0  0
   -8.3880   18.9890  -31.2630 N   0  0  0  0  0  0  0  0  0  0  0  0
   -7.7090   17.9310  -32.0140 C   0  0  0  0  0  0  0  0  0  0  0  0
   -6.3800   18.4290  -32.5110 C   0  0  0  0  0  0  0  0  0  0  0  0
   -5.5810   19.2500  -31.6980 C   0  0  0  0  0  0  0  0  0  0  0  0
   -4.3340   19.6890  -32.1510 C   0  0  0  0  0  0  0  0  0  0  0  0
   -3.8710   19.3030  -33.4120 C   0  0  0  0  0  0  0  0  0  0  0  0
   -4.6550   18.4740  -34.2200 C   0  0  0  0  0  0  0  0  0  0  0  0
   -5.9030   18.0330  -33.7710 C   0  0  0  0  0  0  0  0  0  0  0  0
   -8.0050   22.1750  -30.3480 C   0  0  0  0  0  0  0  0  0  0  0  0
   -7.2420   23.2120  -29.8040 C   0  0  0  0  0  0  0  0  0  0  0  0
   -3.6099   22.3982  -31.5182 H   0  0  0  0  0  0  0  0  0  0  0  0
   -2.1135   20.5016  -30.9023 H   0  0  0  0  0  0  0  0  0  0  0  0
   -0.3371   20.8167  -29.1745 H   0  0  0  0  0  0  0  0  0  0  0  0
   -0.0428   23.0412  -28.0808 H   0  0  0  0  0  0  0  0  0  0  0  0
   -1.5335   24.9469  -28.6959 H   0  0  0  0  0  0  0  0  0  0  0  0
   -5.2972   23.9414  -32.5221 H   0  0  0  0  0  0  0  0  0  0  0  0
   -6.6612   22.0920  -33.4920 H   0  0  0  0  0  0  0  0  0  0  0  0
   -7.7480   19.3120  -30.5010 H   0  0  0  0  0  0  0  0  0  0  0  0
   -7.5510   17.0620  -31.3583 H   0  0  0  0  0  0  0  0  0  0  0  0
   -8.3312   17.6400  -32.8731 H   0  0  0  0  0  0  0  0  0  0  0  0
   -5.9382   19.5484  -30.7013 H   0  0  0  0  0  0  0  0  0  0  0  0
   -3.7160   20.3392  -31.5143 H   0  0  0  0  0  0  0  0  0  0  0  0
   -2.8904   19.6512  -33.7685 H   0  0  0  0  0  0  0  0  0  0  0  0
   -4.2889   18.1682  -35.2112 H   0  0  0  0  0  0  0  0  0  0  0  0
   -6.5131   17.3740  -34.4063 H   0  0  0  0  0  0  0  0  0  0  0  0
   -8.7758   21.6830  -29.7366 H   0  0  0  0  0  0  0  0  0  0  0  0
   -7.4183   23.5385  -28.7685 H   0  0  0  0  0  0  0  0  0  0  0  0
  1  2  2  0
  2  3  2  0
  2  4  1  0
  4  5  1  0
  5  6  2  0
  6  7  1  0
  7  8  2  0
  8  9  1  0
  9 10  2  0
  2 11  1  0
 11 12  2  0
 12 13  1  0
 13 14  2  0
 14 15  1  0
 15 16  2  0
 15 17  2  0
 15 18  1  0
 18 19  1  0
 19 20  1  0
 20 21  2  0
 21 22  1  0
 22 23  2  0
 23 24  1  0
 24 25  2  0
 14 26  1  0
 26 27  2  0
 10  5  1  0
 27 11  1  0
 25 20  1  0
  6 28  1  0
  7 29  1  0
  8 30  1  0
  9 31  1  0
 10 32  1  0
 12 33  1  0
 13 34  1  0
 18 35  1  0
 19 36  1  0
 19 37  1  0
 21 38  1  0
 22 39  1  0
 23 40  1  0
 24 41  1  0
 25 42  1  0
 26 43  1  0
 27 44  1  0
M  CHG  1   4  -1
M  END
>  <UniqueID>  (20) 
19

>  <SMILES>  (20) 
O=S(=O)([N-]c1ccccc1)c1ccc(S(=O)(=O)NCc2ccccc2)cc1

>  <Energy>  (20) 
45.86556905297019

>  <Genealogy>  (20) 
O=S(=O)([N-]c1ccccc1)c1ccc(S(=O)(=O)NCc2ccccc2)cc1 (protonated)
O=S(=O)([N-]c1ccccc1)c1ccc(S(=O)(=O)NCc2ccccc2)cc1 (3D coordinates assigned)
O=S(=O)([N-]c1ccccc1)c1ccc(S(=O)(=O)NCc2ccccc2)cc1 (optimized conformer: 45.86556905297019 kcal/mol)

>  <smiles>  (20) 
O=S(=O)(NCc1ccccc1)c1ccc(S(=O)(=O)Nc2ccccc2)cc1

>  <score_type>  (20) 
oracle

>  <origin>  (20) 
adgpu

>  <m_score__min__energy>  (20) 
-10.73

>  <m_primary>  (20) 
energy

$$$$
20:0
     RDKit          3D

 49 51  0  0  0  0  0  0  0  0999 V2000
   -3.1680   24.9250  -26.7770 C   0  0  0  0  0  0  0  0  0  0  0  0
   -2.2830   24.8430  -27.9380 N   0  0  0  0  0  0  0  0  0  0  0  0
   -1.2610   25.8710  -28.1440 C   0  0  0  0  0  0  0  0  0  0  0  0
   -2.3580   23.6990  -28.8060 C   0  0  0  0  0  0  0  0  0  0  0  0
   -1.7400   22.4970  -28.4250 C   0  0  0  0  0  0  0  0  0  0  0  0
   -1.7900   21.3770  -29.2600 C   0  0  0  0  0  0  0  0  0  0  0  0
   -0.9440   19.7490  -28.7300 Br  0  0  0  0  0  0  0  0  0  0  0  0
   -2.4660   21.4460  -30.4800 C   0  0  0  0  0  0  0  0  0  0  0  0
   -3.0780   22.6370  -30.8730 C   0  0  0  0  0  0  0  0  0  0  0  0
   -3.0090   23.7800  -30.0550 C   0  0  0  0  0  0  0  0  0  0  0  0
   -3.5930   25.0240  -30.4750 N   0  0  0  0  0  0  0  0  0  0  0  0
   -4.9970   25.3100  -30.5210 C   0  0  0  0  0  0  0  0  0  0  0  0
   -5.3820   26.4960  -30.3480 O   0  0  0  0  0  0  0  0  0  0  0  0
   -5.9940   24.2530  -30.7990 C   0  0  0  0  0  0  0  0  0  0  0  0
   -6.4080   23.3850  -29.7760 C   0  0  0  0  0  0  0  0  0  0  0  0
   -7.2830   22.3310  -30.0570 C   0  0  0  0  0  0  0  0  0  0  0  0
   -7.7640   22.1410  -31.3600 C   0  0  0  0  0  0  0  0  0  0  0  0
   -8.7760   20.7460  -31.7420 S   0  0  0  0  0  0  0  0  0  0  0  0
   -9.1010   20.0040  -30.4740 O   0  0  0  0  0  0  0  0  0  0  0  0
  -10.0670   21.2200  -32.3480 O   0  0  0  0  0  0  0  0  0  0  0  0
   -7.9730   19.6640  -32.8580 N   0  0  0  0  0  0  0  0  0  0  0  0
   -7.9920   18.2810  -32.3410 C   0  0  0  0  0  0  0  0  0  0  0  0
   -6.8810   17.4420  -32.9930 C   0  0  0  0  0  0  0  0  0  0  0  0
   -5.5680   17.9360  -32.7570 O   0  0  0  0  0  0  0  0  0  0  0  0
   -5.5220   19.3280  -32.4690 C   0  0  0  0  0  0  0  0  0  0  0  0
   -6.6120   20.1370  -33.1960 C   0  0  0  0  0  0  0  0  0  0  0  0
   -7.3980   23.0410  -32.3680 C   0  0  0  0  0  0  0  0  0  0  0  0
   -6.5180   24.0890  -32.0920 C   0  0  0  0  0  0  0  0  0  0  0  0
   -2.5700   24.8696  -25.8554 H   0  0  0  0  0  0  0  0  0  0  0  0
   -3.7171   25.8779  -26.8011 H   0  0  0  0  0  0  0  0  0  0  0  0
   -3.8828   24.0892  -26.8011 H   0  0  0  0  0  0  0  0  0  0  0  0
   -0.9022   26.2319  -27.1688 H   0  0  0  0  0  0  0  0  0  0  0  0
   -0.4196   25.4435  -28.7090 H   0  0  0  0  0  0  0  0  0  0  0  0
   -1.6934   26.7099  -28.7090 H   0  0  0  0  0  0  0  0  0  0  0  0
   -1.2123   22.4363  -27.4617 H   0  0  0  0  0  0  0  0  0  0  0  0
   -2.5161   20.5611  -31.1315 H   0  0  0  0  0  0  0  0  0  0  0  0
   -3.6187   22.6827  -31.8299 H   0  0  0  0  0  0  0  0  0  0  0  0
   -6.0426   23.5347  -28.7493 H   0  0  0  0  0  0  0  0  0  0  0  0
   -7.5950   21.6485  -29.2527 H   0  0  0  0  0  0  0  0  0  0  0  0
   -7.8379   18.3004  -31.2520 H   0  0  0  0  0  0  0  0  0  0  0  0
   -8.9649   17.8271  -32.5807 H   0  0  0  0  0  0  0  0  0  0  0  0
   -6.9420   16.4183  -32.5950 H   0  0  0  0  0  0  0  0  0  0  0  0
   -7.0463   17.4849  -34.0797 H   0  0  0  0  0  0  0  0  0  0  0  0
   -5.6503   19.4647  -31.3851 H   0  0  0  0  0  0  0  0  0  0  0  0
   -4.5494   19.7016  -32.8217 H   0  0  0  0  0  0  0  0  0  0  0  0
   -6.5216   21.1944  -32.9066 H   0  0  0  0  0  0  0  0  0  0  0  0
   -6.4664   20.0064  -34.2785 H   0  0  0  0  0  0  0  0  0  0  0  0
   -7.8059   22.9218  -33.3826 H   0  0  0  0  0  0  0  0  0  0  0  0
   -6.2336   24.7897  -32.8908 H   0  0  0  0  0  0  0  0  0  0  0  0
  1  2  1  0
  2  3  1  0
  2  4  1  0
  4  5  2  0
  5  6  1  0
  6  7  1  0
  6  8  2  0
  8  9  1  0
  9 10  2  0
 10 11  1  0
 11 12  1  0
 12 13  2  0
 12 14  1  0
 14 15  2  0
 15 16  1  0
 16 17  2  0
 17 18  1  0
 18 19  2  0
 18 20  2  0
 18 21  1  0
 21 22  1  0
 22 23  1  0
 23 24  1  0
 24 25  1  0
 25 26  1  0
 17 27  1  0
 27 28  2  0
 10  4  1  0
 28 14  1  0
 26 21  1  0
  1 29  1  0
  1 30  1  0
  1 31  1  0
  3 32  1  0
  3 33  1  0
  3 34  1  0
  5 35  1  0
  8 36  1  0
  9 37  1  0
 15 38  1  0
 16 39  1  0
 22 40  1  0
 22 41  1  0
 23 42  1  0
 23 43  1  0
 25 44  1  0
 25 45  1  0
 26 46  1  0
 26 47  1  0
 27 48  1  0
 28 49  1  0
M  CHG  1  11  -1
M  END
>  <UniqueID>  (21) 
20

>  <SMILES>  (21) 
CN(C)c1cc(Br)ccc1[N-]C(=O)c1ccc(S(=O)(=O)N2CCOCC2)cc1

>  <Energy>  (21) 
70.42596651001283

>  <Genealogy>  (21) 
CN(C)c1cc(Br)ccc1[N-]C(=O)c1ccc(S(=O)(=O)N2CCOCC2)cc1 (protonated)
CN(C)c1cc(Br)ccc1[N-]C(=O)c1ccc(S(=O)(=O)N2CCOCC2)cc1 (3D coordinates assigned)
CN(C)c1cc(Br)ccc1[N-]C(=O)c1ccc(S(=O)(=O)N2CCOCC2)cc1 (nonaromatic ring conformer: 70.42596651001283 kcal/mol)

>  <smiles>  (21) 
CN(C)c1cc(Br)ccc1NC(=O)c1ccc(S(=O)(=O)N2CCOCC2)cc1

>  <score_type>  (21) 
oracle

>  <origin>  (21) 
adgpu

>  <m_score__min__energy>  (21) 
-11.23

>  <m_primary>  (21) 
energy

$$$$
21:0
     RDKit          3D

 52 54  0  0  0  0  0  0  0  0999 V2000
   -6.4870   17.2720  -33.0640 C   0  0  0  0  0  0  0  0  0  0  0  0
   -6.9520   18.4550  -32.2120 C   0  0  0  0  0  0  0  0  0  0  0  0
   -8.3180   18.1680  -31.5870 C   0  0  0  0  0  0  0  0  0  0  0  0
   -7.0170   19.9540  -33.2040 S   0  0  0  0  0  0  0  0  0  0  0  0
   -8.4460   20.4010  -33.3610 O   0  0  0  0  0  0  0  0  0  0  0  0
   -6.4460   19.6630  -34.5650 O   0  0  0  0  0  0  0  0  0  0  0  0
   -6.1030   21.2480  -32.4320 C   0  0  0  0  0  0  0  0  0  0  0  0
   -4.7310   21.0950  -32.1730 C   0  0  0  0  0  0  0  0  0  0  0  0
   -4.0060   22.1320  -31.5790 C   0  0  0  0  0  0  0  0  0  0  0  0
   -4.6470   23.3260  -31.2190 C   0  0  0  0  0  0  0  0  0  0  0  0
   -3.8780   24.3670  -30.5960 N   0  0  0  0  0  0  0  0  0  0  0  0
   -3.5650   24.4750  -29.2000 C   0  0  0  0  0  0  0  0  0  0  0  0
   -4.5140   24.5800  -28.3790 O   0  0  0  0  0  0  0  0  0  0  0  0
   -2.1650   24.4880  -28.6970 C   0  0  0  0  0  0  0  0  0  0  0  0
   -1.6040   25.7060  -28.2840 C   0  0  0  0  0  0  0  0  0  0  0  0
   -0.3090   25.7490  -27.7730 C   0  0  0  0  0  0  0  0  0  0  0  0
    0.4290   24.5720  -27.6820 C   0  0  0  0  0  0  0  0  0  0  0  0
   -0.1090   23.3990  -28.1060 N   0  0  0  0  0  0  0  0  0  0  0  0
   -1.3750   23.3180  -28.6100 C   0  0  0  0  0  0  0  0  0  0  0  0
   -1.8380   22.1830  -29.0560 N   0  0  0  0  0  0  0  0  0  0  0  0
   -1.2260   20.8880  -28.9540 C   0  0  0  0  0  0  0  0  0  0  0  0
   -0.3030   20.4230  -29.9100 C   0  0  0  0  0  0  0  0  0  0  0  0
    0.3490   19.2020  -29.7260 C   0  0  0  0  0  0  0  0  0  0  0  0
    0.1020   18.4370  -28.5800 C   0  0  0  0  0  0  0  0  0  0  0  0
    0.9590   16.9190  -28.3490 S   0  0  0  0  0  0  0  0  0  0  0  0
    0.6320   16.3170  -26.7620 N   0  0  0  0  0  0  0  0  0  0  0  0
    2.4350   17.1500  -28.5080 O   0  0  0  0  0  0  0  0  0  0  0  0
    0.5110   15.9070  -29.3650 O   0  0  0  0  0  0  0  0  0  0  0  0
   -0.7960   18.9090  -27.6120 C   0  0  0  0  0  0  0  0  0  0  0  0
   -1.4470   20.1330  -27.7960 C   0  0  0  0  0  0  0  0  0  0  0  0
   -6.0110   23.4890  -31.5070 C   0  0  0  0  0  0  0  0  0  0  0  0
   -6.7320   22.4540  -32.1080 C   0  0  0  0  0  0  0  0  0  0  0  0
   -6.1643   16.4511  -32.4067 H   0  0  0  0  0  0  0  0  0  0  0  0
   -7.3171   16.9287  -33.6989 H   0  0  0  0  0  0  0  0  0  0  0  0
   -5.6453   17.5858  -33.6989 H   0  0  0  0  0  0  0  0  0  0  0  0
   -6.2255   18.6029  -31.3994 H   0  0  0  0  0  0  0  0  0  0  0  0
   -8.2307   18.1863  -30.4906 H   0  0  0  0  0  0  0  0  0  0  0  0
   -9.0376   18.9346  -31.9104 H   0  0  0  0  0  0  0  0  0  0  0  0
   -8.6682   17.1767  -31.9104 H   0  0  0  0  0  0  0  0  0  0  0  0
   -4.2249   20.1552  -32.4387 H   0  0  0  0  0  0  0  0  0  0  0  0
   -2.9286   22.0109  -31.3933 H   0  0  0  0  0  0  0  0  0  0  0  0
   -2.1908   26.6330  -28.3643 H   0  0  0  0  0  0  0  0  0  0  0  0
    0.1266   26.7041  -27.4444 H   0  0  0  0  0  0  0  0  0  0  0  0
    1.4475   24.5919  -27.2669 H   0  0  0  0  0  0  0  0  0  0  0  0
   -0.0943   21.0248  -30.8068 H   0  0  0  0  0  0  0  0  0  0  0  0
    1.0591   18.8401  -30.4841 H   0  0  0  0  0  0  0  0  0  0  0  0
   -0.0510   16.9720  -26.3210 H   0  0  0  0  0  0  0  0  0  0  0  0
    0.1420   15.4020  -26.8750 H   0  0  0  0  0  0  0  0  0  0  0  0
   -0.9888   18.3154  -26.7062 H   0  0  0  0  0  0  0  0  0  0  0  0
   -2.1378   20.5052  -27.0251 H   0  0  0  0  0  0  0  0  0  0  0  0
   -6.5142   24.4351  -31.2586 H   0  0  0  0  0  0  0  0  0  0  0  0
   -7.8014   22.5888  -32.3277 H   0  0  0  0  0  0  0  0  0  0  0  0
  1  2  1  0
  2  3  1  0
  2  4  1  0
  4  5  2  0
  4  6  2  0
  4  7  1  0
  7  8  2  0
  8  9  1  0
  9 10  2  0
 10 11  1  0
 11 12  1  0
 12 13  2  0
 12 14  1  0
 14 15  2  0
 15 16  1  0
 16 17  2  0
 17 18  1  0
 18 19  1  0
 19 20  2  3
 20 21  1  0
 21 22  2  0
 22 23  1  0
 23 24  2  0
 24 25  1  0
 25 26  1  0
 25 27  2  0
 25 28  2  0
 24 29  1  0
 29 30  2  0
 10 31  1  0
 31 32  2  0
 32  7  1  0
 19 14  1  0
 30 21  1  0
  1 33  1  0
  1 34  1  0
  1 35  1  0
  2 36  1  0
  3 37  1  0
  3 38  1  0
  3 39  1  0
  8 40  1  0
  9 41  1  0
 15 42  1  0
 16 43  1  0
 17 44  1  0
 22 45  1  0
 23 46  1  0
 26 47  1  0
 26 48  1  0
 29 49  1  0
 30 50  1  0
 31 51  1  0
 32 52  1  0
M  CHG  2  11  -1  18  -1
M  END
>  <UniqueID>  (22) 
21

>  <SMILES>  (22) 
CC(C)S(=O)(=O)c1ccc([N-]C(=O)c2ccc[n-]c2=Nc2ccc(S(N)(=O)=O)cc2)cc1

>  <Energy>  (22) 
58.76557334910734

>  <Genealogy>  (22) 
CC(C)S(=O)(=O)c1ccc([N-]C(=O)c2ccc[n-]c2=Nc2ccc(S(N)(=O)=O)cc2)cc1 (protonated)
CC(C)S(=O)(=O)c1ccc([N-]C(=O)c2ccc[n-]c2=Nc2ccc(S(N)(=O)=O)cc2)cc1 (3D coordinates assigned)
CC(C)S(=O)(=O)c1ccc([N-]C(=O)c2ccc[n-]c2=Nc2ccc(S(N)(=O)=O)cc2)cc1 (optimized conformer: 58.76557334910734 kcal/mol)

>  <smiles>  (22) 
CC(C)S(=O)(=O)c1ccc(NC(=O)c2ccc[nH]c2=Nc2ccc(S(N)(=O)=O)cc2)cc1

>  <score_type>  (22) 
oracle

>  <origin>  (22) 
adgpu

>  <m_score__min__energy>  (22) 
-11.869999999999999

>  <m_primary>  (22) 
energy

$$$$
22:0
     RDKit          3D

 48 50  0  0  0  0  0  0  0  0999 V2000
    0.1460   22.9550  -28.0020 C   0  0  0  0  0  0  0  0  0  0  0  0
   -0.7980   22.1070  -28.8620 C   0  0  2  0  0  0  0  0  0  0  0  0
   -1.9590   22.8960  -29.2900 N   0  0  0  0  0  0  0  0  0  0  0  0
   -2.8980   22.3990  -30.2560 C   0  0  0  0  0  0  0  0  0  0  0  0
   -2.6340   21.3490  -30.9050 O   0  0  0  0  0  0  0  0  0  0  0  0
   -4.1590   23.1220  -30.5310 C   0  0  0  0  0  0  0  0  0  0  0  0
   -5.3170   22.3910  -30.8480 C   0  0  0  0  0  0  0  0  0  0  0  0
   -6.5220   23.0470  -31.1360 C   0  0  0  0  0  0  0  0  0  0  0  0
   -7.9530   22.1160  -31.5770 S   0  0  0  0  0  0  0  0  0  0  0  0
   -8.4690   21.4110  -30.3540 O   0  0  0  0  0  0  0  0  0  0  0  0
   -9.0280   23.0560  -32.0490 O   0  0  0  0  0  0  0  0  0  0  0  0
   -7.6290   20.9330  -32.8290 N   0  0  0  0  0  0  0  0  0  0  0  0
   -6.2970   20.3150  -32.6930 C   0  0  0  0  0  0  0  0  0  0  0  0
   -6.2680   19.1550  -31.6700 C   0  0  0  0  0  0  0  0  0  0  0  0
   -7.5530   18.7690  -31.2230 O   0  0  0  0  0  0  0  0  0  0  0  0
   -8.4070   18.5950  -32.3290 C   0  0  0  0  0  0  0  0  0  0  0  0
   -8.7220   19.9490  -32.9850 C   0  0  0  0  0  0  0  0  0  0  0  0
   -6.5780   24.4440  -31.0800 C   0  0  0  0  0  0  0  0  0  0  0  0
   -5.4410   25.1790  -30.7440 C   0  0  0  0  0  0  0  0  0  0  0  0
   -4.2350   24.5300  -30.4620 C   0  0  0  0  0  0  0  0  0  0  0  0
   -3.1330   25.2900  -30.0870 O   0  0  0  0  0  0  0  0  0  0  0  0
   -1.2470   20.8820  -28.0940 C   0  0  0  0  0  0  0  0  0  0  0  0
   -2.5140   20.8540  -27.4860 C   0  0  0  0  0  0  0  0  0  0  0  0
   -2.9370   19.7210  -26.7840 C   0  0  0  0  0  0  0  0  0  0  0  0
   -2.1010   18.6060  -26.6860 C   0  0  0  0  0  0  0  0  0  0  0  0
   -0.8430   18.6190  -27.2940 C   0  0  0  0  0  0  0  0  0  0  0  0
   -0.4170   19.7500  -27.9970 C   0  0  0  0  0  0  0  0  0  0  0  0
   -0.0610   22.7690  -26.9378 H   0  0  0  0  0  0  0  0  0  0  0  0
    1.1884   22.6841  -28.2255 H   0  0  0  0  0  0  0  0  0  0  0  0
   -0.0120   24.0204  -28.2255 H   0  0  0  0  0  0  0  0  0  0  0  0
   -0.2524   21.7813  -29.7599 H   0  0  0  0  0  0  0  0  0  0  0  0
   -2.0820   23.8660  -28.9220 H   0  0  0  0  0  0  0  0  0  0  0  0
   -5.2773   21.2919  -30.8703 H   0  0  0  0  0  0  0  0  0  0  0  0
   -5.9906   19.9240  -33.6744 H   0  0  0  0  0  0  0  0  0  0  0  0
   -5.6104   21.0925  -32.3269 H   0  0  0  0  0  0  0  0  0  0  0  0
   -5.7871   18.2856  -32.1421 H   0  0  0  0  0  0  0  0  0  0  0  0
   -5.7113   19.5110  -30.7906 H   0  0  0  0  0  0  0  0  0  0  0  0
   -7.9167   17.9414  -33.0655 H   0  0  0  0  0  0  0  0  0  0  0  0
   -9.3471   18.1398  -31.9841 H   0  0  0  0  0  0  0  0  0  0  0  0
   -8.8971   19.7864  -34.0587 H   0  0  0  0  0  0  0  0  0  0  0  0
   -9.6101   20.3601  -32.4827 H   0  0  0  0  0  0  0  0  0  0  0  0
   -7.5215   24.9642  -31.3016 H   0  0  0  0  0  0  0  0  0  0  0  0
   -5.4935   26.2769  -30.7006 H   0  0  0  0  0  0  0  0  0  0  0  0
   -3.1767   21.7286  -27.5629 H   0  0  0  0  0  0  0  0  0  0  0  0
   -3.9288   19.7077  -26.3085 H   0  0  0  0  0  0  0  0  0  0  0  0
   -2.4334   17.7171  -26.1297 H   0  0  0  0  0  0  0  0  0  0  0  0
   -0.1874   17.7389  -27.2195 H   0  0  0  0  0  0  0  0  0  0  0  0
    0.5727   19.7549  -28.4770 H   0  0  0  0  0  0  0  0  0  0  0  0
  1  2  1  0
  2  3  1  0
  3  4  1  0
  4  5  2  0
  4  6  1  0
  6  7  2  0
  7  8  1  0
  8  9  1  0
  9 10  2  0
  9 11  2  0
  9 12  1  0
 12 13  1  0
 13 14  1  0
 14 15  1  0
 15 16  1  0
 16 17  1  0
  8 18  2  0
 18 19  1  0
 19 20  2  0
 20 21  1  0
  2 22  1  0
 22 23  2  0
 23 24  1  0
 24 25  2  0
 25 26  1  0
 26 27  2  0
 20  6  1  0
 27 22  1  0
 17 12  1  0
  1 28  1  0
  1 29  1  0
  1 30  1  0
  2 31  1  6
  3 32  1  0
  7 33  1  0
 13 34  1  0
 13 35  1  0
 14 36  1  0
 14 37  1  0
 16 38  1  0
 16 39  1  0
 17 40  1  0
 17 41  1  0
 18 42  1  0
 19 43  1  0
 23 44  1  0
 24 45  1  0
 25 46  1  0
 26 47  1  0
 27 48  1  0
M  CHG  1  21  -1
M  END
>  <UniqueID>  (23) 
22

>  <SMILES>  (23) 
C[C@H](NC(=O)c1cc(S(=O)(=O)N2CCOCC2)ccc1[O-])c1ccccc1

>  <Energy>  (23) 
60.33593555358231

>  <Genealogy>  (23) 
CC(NC(=O)c1cc(S(=O)(=O)N2CCOCC2)ccc1[O-])c1ccccc1 (protonated)
C[C@H](NC(=O)c1cc(S(=O)(=O)N2CCOCC2)ccc1[O-])c1ccccc1 (chirality)
C[C@H](NC(=O)c1cc(S(=O)(=O)N2CCOCC2)ccc1[O-])c1ccccc1 (3D coordinates assigned)
C[C@H](NC(=O)c1cc(S(=O)(=O)N2CCOCC2)ccc1[O-])c1ccccc1 (nonaromatic ring conformer: 60.33593555358231 kcal/mol)

>  <smiles>  (23) 
CC(NC(=O)c1cc(S(=O)(=O)N2CCOCC2)ccc1O)c1ccccc1

>  <score_type>  (23) 
oracle

>  <origin>  (23) 
adgpu

>  <m_score__min__energy>  (23) 
-11.949999999999999

>  <m_primary>  (23) 
energy

$$$$
23:0
     RDKit          3D

 42 44  0  0  0  0  0  0  0  0999 V2000
   -1.1870   26.2100  -28.2370 C   0  0  0  0  0  0  0  0  0  0  0  0
   -1.9990   25.3540  -29.0320 O   0  0  0  0  0  0  0  0  0  0  0  0
   -2.2870   24.0140  -28.7280 C   0  0  0  0  0  0  0  0  0  0  0  0
   -1.4580   23.2540  -27.8760 C   0  0  0  0  0  0  0  0  0  0  0  0
   -1.7710   21.9230  -27.5900 C   0  0  0  0  0  0  0  0  0  0  0  0
   -2.9080   21.3360  -28.1440 C   0  0  0  0  0  0  0  0  0  0  0  0
   -3.7380   22.0780  -28.9860 C   0  0  0  0  0  0  0  0  0  0  0  0
   -3.4350   23.4150  -29.2850 C   0  0  0  0  0  0  0  0  0  0  0  0
   -4.5200   24.3530  -30.3170 S   0  0  0  0  0  0  0  0  0  0  0  0
   -3.8920   25.6730  -30.6670 O   0  0  0  0  0  0  0  0  0  0  0  0
   -5.8070   24.6210  -29.5900 O   0  0  0  0  0  0  0  0  0  0  0  0
   -4.8070   23.4720  -31.7830 N   0  0  0  0  0  0  0  0  0  0  0  0
   -5.9200   22.5880  -31.9470 C   0  0  0  0  0  0  0  0  0  0  0  0
   -7.2210   23.0660  -31.7470 C   0  0  0  0  0  0  0  0  0  0  0  0
   -8.3180   22.2260  -31.9170 C   0  0  0  0  0  0  0  0  0  0  0  0
   -8.1300   20.8810  -32.2540 C   0  0  0  0  0  0  0  0  0  0  0  0
   -6.8310   20.3780  -32.4550 C   0  0  0  0  0  0  0  0  0  0  0  0
   -5.7120   21.2480  -32.3490 C   0  0  0  0  0  0  0  0  0  0  0  0
   -4.3380   20.7810  -32.6420 C   0  0  0  0  0  0  0  0  0  0  0  0
   -3.4170   20.9410  -31.7980 O   0  0  0  0  0  0  0  0  0  0  0  0
   -4.0550   20.1310  -33.8380 O   0  0  0  0  0  0  0  0  0  0  0  0
   -6.7030   18.8970  -32.7450 C   0  0  0  0  0  0  0  0  0  0  0  0
   -7.6390   18.0990  -31.8270 C   0  0  0  0  0  0  0  0  0  0  0  0
   -9.1090   18.5800  -31.8700 C   0  0  0  0  0  0  0  0  0  0  0  0
   -9.3140   19.9780  -32.4840 C   0  0  0  0  0  0  0  0  0  0  0  0
   -1.3766   26.0102  -27.1720 H   0  0  0  0  0  0  0  0  0  0  0  0
   -0.1267   26.0227  -28.4621 H   0  0  0  0  0  0  0  0  0  0  0  0
   -1.4299   27.2590  -28.4621 H   0  0  0  0  0  0  0  0  0  0  0  0
   -0.5605   23.7120  -27.4347 H   0  0  0  0  0  0  0  0  0  0  0  0
   -1.1189   21.3365  -26.9261 H   0  0  0  0  0  0  0  0  0  0  0  0
   -3.1511   20.2874  -27.9173 H   0  0  0  0  0  0  0  0  0  0  0  0
   -4.6356   21.6115  -29.4180 H   0  0  0  0  0  0  0  0  0  0  0  0
   -7.3775   24.1144  -31.4530 H   0  0  0  0  0  0  0  0  0  0  0  0
   -9.3362   22.6210  -31.7859 H   0  0  0  0  0  0  0  0  0  0  0  0
   -6.9727   18.7067  -33.7943 H   0  0  0  0  0  0  0  0  0  0  0  0
   -5.6648   18.5821  -32.5634 H   0  0  0  0  0  0  0  0  0  0  0  0
   -7.6097   17.0431  -32.1340 H   0  0  0  0  0  0  0  0  0  0  0  0
   -7.2821   18.2459  -30.7969 H   0  0  0  0  0  0  0  0  0  0  0  0
   -9.6882   17.8574  -32.4636 H   0  0  0  0  0  0  0  0  0  0  0  0
   -9.4427   18.6494  -30.8241 H   0  0  0  0  0  0  0  0  0  0  0  0
   -9.4712   19.8693  -33.5673 H   0  0  0  0  0  0  0  0  0  0  0  0
  -10.1871   20.4359  -31.9961 H   0  0  0  0  0  0  0  0  0  0  0  0
  1  2  1  0
  2  3  1  0
  3  4  2  0
  4  5  1  0
  5  6  2  0
  6  7  1  0
  7  8  2  0
  8  9  1  0
  9 10  2  0
  9 11  2  0
  9 12  1  0
 12 13  1  0
 13 14  2  0
 14 15  1  0
 15 16  2  0
 16 17  1  0
 17 18  2  0
 18 19  1  0
 19 20  2  0
 19 21  1  0
 17 22  1  0
 22 23  1  0
 23 24  1  0
 24 25  1  0
  8  3  1  0
 18 13  1  0
 25 16  1  0
  1 26  1  0
  1 27  1  0
  1 28  1  0
  4 29  1  0
  5 30  1  0
  6 31  1  0
  7 32  1  0
 14 33  1  0
 15 34  1  0
 22 35  1  0
 22 36  1  0
 23 37  1  0
 23 38  1  0
 24 39  1  0
 24 40  1  0
 25 41  1  0
 25 42  1  0
M  CHG  2  12  -1  21  -1
M  END
>  <UniqueID>  (24) 
23

>  <SMILES>  (24) 
COc1ccccc1S(=O)(=O)[N-]c1ccc2c(c1C(=O)[O-])CCCC2

>  <Energy>  (24) 
61.368192464509214

>  <Genealogy>  (24) 
COc1ccccc1S(=O)(=O)[N-]c1ccc2c(c1C(=O)[O-])CCCC2 (protonated)
COc1ccccc1S(=O)(=O)[N-]c1ccc2c(c1C(=O)[O-])CCCC2 (3D coordinates assigned)
COc1ccccc1S(=O)(=O)[N-]c1ccc2c(c1C(=O)[O-])CCCC2 (nonaromatic ring conformer: 61.368192464509214 kcal/mol)

>  <smiles>  (24) 
COc1ccccc1S(=O)(=O)Nc1ccc2c(c1C(=O)O)CCCC2

>  <score_type>  (24) 
oracle

>  <origin>  (24) 
adgpu

>  <m_score__min__energy>  (24) 
-10.67

>  <m_primary>  (24) 
energy

$$$$
24:0
     RDKit          3D

 44 46  0  0  0  0  0  0  0  0999 V2000
   -4.3170   15.6250  -33.3340 C   0  0  0  0  0  0  0  0  0  0  0  0
   -5.7260   16.2300  -33.2920 C   0  0  2  0  0  0  0  0  0  0  0  0
   -6.0360   17.0250  -34.5860 C   0  0  0  0  0  0  0  0  0  0  0  0
   -5.9000   18.5350  -34.3610 C   0  0  0  0  0  0  0  0  0  0  0  0
   -6.8720   19.0160  -33.3440 N   0  0  2  0  0  0  0  0  0  0  0  0
   -6.5910   20.4140  -32.9310 C   0  0  0  0  0  0  0  0  0  0  0  0
   -7.7990   21.1390  -32.3810 C   0  0  0  0  0  0  0  0  0  0  0  0
   -8.9360   20.4980  -32.0370 N   0  0  0  0  0  0  0  0  0  0  0  0
   -9.7540   21.4740  -31.5980 C   0  0  0  0  0  0  0  0  0  0  0  0
   -9.1130   22.6870  -31.6860 C   0  0  0  0  0  0  0  0  0  0  0  0
   -7.8800   22.4760  -32.1760 N   0  0  0  0  0  0  0  0  0  0  0  0
   -6.9050   23.5190  -32.5100 C   0  0  0  0  0  0  0  0  0  0  0  0
   -5.9580   23.7460  -31.3600 C   0  0  0  0  0  0  0  0  0  0  0  0
   -6.2610   24.7030  -30.3760 C   0  0  0  0  0  0  0  0  0  0  0  0
   -5.3820   24.9210  -29.3100 C   0  0  0  0  0  0  0  0  0  0  0  0
   -4.1990   24.1830  -29.2150 C   0  0  0  0  0  0  0  0  0  0  0  0
   -3.8940   23.2250  -30.1850 C   0  0  0  0  0  0  0  0  0  0  0  0
   -4.7700   23.0040  -31.2530 C   0  0  0  0  0  0  0  0  0  0  0  0
   -7.0570   18.0900  -32.1860 C   0  0  0  0  0  0  0  0  0  0  0  0
   -5.9000   17.0930  -32.0210 C   0  0  0  0  0  0  0  0  0  0  0  0
   -3.9541   15.4692  -32.3073 H   0  0  0  0  0  0  0  0  0  0  0  0
   -4.3476   14.6607  -33.8624 H   0  0  0  0  0  0  0  0  0  0  0  0
   -3.6389   16.3113  -33.8624 H   0  0  0  0  0  0  0  0  0  0  0  0
   -6.4591   15.4114  -33.2434 H   0  0  0  0  0  0  0  0  0  0  0  0
   -5.3327   16.7157  -35.3732 H   0  0  0  0  0  0  0  0  0  0  0  0
   -7.0733   16.8114  -34.8833 H   0  0  0  0  0  0  0  0  0  0  0  0
   -4.8795   18.7559  -34.0149 H   0  0  0  0  0  0  0  0  0  0  0  0
   -6.1066   19.0491  -35.3113 H   0  0  0  0  0  0  0  0  0  0  0  0
   -7.7990   19.0580  -33.8330 H   0  0  0  0  0  0  0  0  0  0  0  0
   -5.8125   20.3970  -32.1541 H   0  0  0  0  0  0  0  0  0  0  0  0
   -6.2720   20.9579  -33.8323 H   0  0  0  0  0  0  0  0  0  0  0  0
  -10.7782   21.3235  -31.2260 H   0  0  0  0  0  0  0  0  0  0  0  0
   -9.5366   23.6622  -31.4039 H   0  0  0  0  0  0  0  0  0  0  0  0
   -6.3310   23.2075  -33.3952 H   0  0  0  0  0  0  0  0  0  0  0  0
   -7.4436   24.4556  -32.7167 H   0  0  0  0  0  0  0  0  0  0  0  0
   -7.1932   25.2829  -30.4446 H   0  0  0  0  0  0  0  0  0  0  0  0
   -5.6222   25.6744  -28.5454 H   0  0  0  0  0  0  0  0  0  0  0  0
   -3.5082   24.3564  -28.3767 H   0  0  0  0  0  0  0  0  0  0  0  0
   -2.9634   22.6435  -30.1088 H   0  0  0  0  0  0  0  0  0  0  0  0
   -4.5275   22.2459  -32.0123 H   0  0  0  0  0  0  0  0  0  0  0  0
   -7.1361   18.6898  -31.2673 H   0  0  0  0  0  0  0  0  0  0  0  0
   -7.9692   17.5054  -32.3759 H   0  0  0  0  0  0  0  0  0  0  0  0
   -4.9697   17.6494  -31.8340 H   0  0  0  0  0  0  0  0  0  0  0  0
   -6.1285   16.4282  -31.1749 H   0  0  0  0  0  0  0  0  0  0  0  0
  1  2  1  0
  2  3  1  0
  3  4  1  0
  4  5  1  0
  5  6  1  0
  6  7  1  0
  7  8  2  0
  8  9  1  0
  9 10  2  0
 10 11  1  0
 11 12  1  0
 12 13  1  0
 13 14  2  0
 14 15  1  0
 15 16  2  0
 16 17  1  0
 17 18  2  0
  5 19  1  0
 19 20  1  0
 20  2  1  0
 11  7  1  0
 18 13  1  0
  1 21  1  0
  1 22  1  0
  1 23  1  0
  2 24  1  1
  3 25  1  0
  3 26  1  0
  4 27  1  0
  4 28  1  0
  5 29  1  6
  6 30  1  0
  6 31  1  0
  9 32  1  0
 10 33  1  0
 12 34  1  0
 12 35  1  0
 14 36  1  0
 15 37  1  0
 16 38  1  0
 17 39  1  0
 18 40  1  0
 19 41  1  0
 19 42  1  0
 20 43  1  0
 20 44  1  0
M  CHG  1   5   1
M  END
>  <UniqueID>  (25) 
24

>  <SMILES>  (25) 
CC1CC[NH+](Cc2nccn2Cc2ccccc2)CC1

>  <Energy>  (25) 
80.43897648305685

>  <Genealogy>  (25) 
CC1CC[NH+](Cc2nccn2Cc2ccccc2)CC1 (protonated)
CC1CC[NH+](Cc2nccn2Cc2ccccc2)CC1 (3D coordinates assigned)
CC1CC[NH+](Cc2nccn2Cc2ccccc2)CC1 (nonaromatic ring conformer: 80.43897648305685 kcal/mol)

>  <smiles>  (25) 
CC1CCN(Cc2nccn2Cc2ccccc2)CC1

>  <score_type>  (25) 
oracle

>  <origin>  (25) 
adgpu

>  <m_score__min__energy>  (25) 
-7

>  <m_primary>  (25) 
energy

$$$$
25:0
     RDKit          3D

 68 71  0  0  0  0  0  0  0  0999 V2000
    1.2070   18.6970  -33.0480 C   0  0  0  0  0  0  0  0  0  0  0  0
    0.9380   19.2250  -31.6620 C   0  0  0  0  0  0  0  0  0  0  0  0
    1.8100   18.8700  -30.6210 C   0  0  0  0  0  0  0  0  0  0  0  0
    1.5910   19.3280  -29.3220 C   0  0  0  0  0  0  0  0  0  0  0  0
    0.4820   20.1370  -29.0330 C   0  0  0  0  0  0  0  0  0  0  0  0
    0.2400   20.6450  -27.7140 N   0  0  0  0  0  0  0  0  0  0  0  0
   -0.9080   21.3970  -27.3030 C   0  0  0  0  0  0  0  0  0  0  0  0
   -0.7600   22.3440  -26.4860 O   0  0  0  0  0  0  0  0  0  0  0  0
   -2.2050   21.1000  -27.8370 N   0  0  0  0  0  0  0  0  0  0  0  0
   -3.1220   22.0840  -28.3280 C   0  0  0  0  0  0  0  0  0  0  0  0
   -3.4060   23.1820  -27.5170 C   0  0  0  0  0  0  0  0  0  0  0  0
   -4.2420   24.1970  -27.9710 C   0  0  0  0  0  0  0  0  0  0  0  0
   -4.8250   24.1340  -29.2460 C   0  0  0  0  0  0  0  0  0  0  0  0
   -5.6970   25.2830  -29.6810 C   0  0  0  0  0  0  0  0  0  0  0  0
   -4.6000   22.9890  -30.0600 C   0  0  0  0  0  0  0  0  0  0  0  0
   -5.3200   22.8010  -31.6810 S   0  0  0  0  0  0  0  0  0  0  0  0
   -4.3340   22.2720  -32.6840 O   0  0  0  0  0  0  0  0  0  0  0  0
   -5.7890   24.1440  -32.1680 O   0  0  0  0  0  0  0  0  0  0  0  0
   -6.7260   21.6890  -31.5760 C   0  0  0  0  0  0  0  0  0  0  0  0
   -6.8090   20.7920  -32.8200 C   0  0  0  0  0  0  0  0  0  0  0  0
   -7.9430   19.7520  -32.6960 C   0  0  0  0  0  0  0  0  0  0  0  0
   -9.1170   20.2220  -31.8150 C   0  0  0  0  0  0  0  0  0  0  0  0
   -9.2920   21.7420  -31.8710 C   0  0  0  0  0  0  0  0  0  0  0  0
   -8.0380   22.4840  -31.3670 C   0  0  0  0  0  0  0  0  0  0  0  0
   -3.7490   21.9630  -29.5860 C   0  0  0  0  0  0  0  0  0  0  0  0
   -3.5640   20.8180  -30.3680 O   0  0  0  0  0  0  0  0  0  0  0  0
   -0.3790   20.5130  -30.0700 C   0  0  0  0  0  0  0  0  0  0  0  0
   -0.1770   20.0500  -31.3810 C   0  0  0  0  0  0  0  0  0  0  0  0
   -1.3190   20.5350  -32.6480 S   0  0  0  0  0  0  0  0  0  0  0  0
   -1.8590   21.9000  -32.3230 O   0  0  0  0  0  0  0  0  0  0  0  0
   -0.6180   20.6110  -33.9770 O   0  0  0  0  0  0  0  0  0  0  0  0
   -2.6230   19.3780  -32.7300 N   0  0  0  0  0  0  0  0  0  0  0  0
   -2.0830   18.0180  -32.9080 C   0  0  0  0  0  0  0  0  0  0  0  0
   -3.1950   17.0310  -33.3150 C   0  0  0  0  0  0  0  0  0  0  0  0
   -4.4730   17.5790  -33.0550 O   0  0  0  0  0  0  0  0  0  0  0  0
   -4.6930   18.7030  -33.8920 C   0  0  0  0  0  0  0  0  0  0  0  0
   -3.5310   19.7190  -33.8340 C   0  0  0  0  0  0  0  0  0  0  0  0
    1.7053   17.7189  -32.9774 H   0  0  0  0  0  0  0  0  0  0  0  0
    0.2557   18.5857  -33.5890 H   0  0  0  0  0  0  0  0  0  0  0  0
    1.8563   19.4011  -33.5890 H   0  0  0  0  0  0  0  0  0  0  0  0
    2.6750   18.2240  -30.8319 H   0  0  0  0  0  0  0  0  0  0  0  0
    2.2917   19.0534  -28.5197 H   0  0  0  0  0  0  0  0  0  0  0  0
   -2.9658   23.2461  -26.5109 H   0  0  0  0  0  0  0  0  0  0  0  0
   -4.4489   25.0606  -27.3219 H   0  0  0  0  0  0  0  0  0  0  0  0
   -6.0902   25.8012  -28.7939 H   0  0  0  0  0  0  0  0  0  0  0  0
   -5.1033   25.9863  -30.2833 H   0  0  0  0  0  0  0  0  0  0  0  0
   -6.5342   24.9004  -30.2833 H   0  0  0  0  0  0  0  0  0  0  0  0
   -6.5849   21.0355  -30.7025 H   0  0  0  0  0  0  0  0  0  0  0  0
   -6.9969   21.4216  -33.7022 H   0  0  0  0  0  0  0  0  0  0  0  0
   -5.8559   20.2517  -32.9188 H   0  0  0  0  0  0  0  0  0  0  0  0
   -8.3287   19.5361  -33.7033 H   0  0  0  0  0  0  0  0  0  0  0  0
   -7.5133   18.8619  -32.2132 H   0  0  0  0  0  0  0  0  0  0  0  0
  -10.0421   19.7431  -32.1683 H   0  0  0  0  0  0  0  0  0  0  0  0
   -8.9002   19.9393  -30.7743 H   0  0  0  0  0  0  0  0  0  0  0  0
   -9.4869   22.0394  -32.9119 H   0  0  0  0  0  0  0  0  0  0  0  0
  -10.1341   22.0125  -31.2170 H   0  0  0  0  0  0  0  0  0  0  0  0
   -7.9570   23.4384  -31.9078 H   0  0  0  0  0  0  0  0  0  0  0  0
   -8.1604   22.6284  -30.2834 H   0  0  0  0  0  0  0  0  0  0  0  0
   -3.3970   20.8510  -31.3650 H   0  0  0  0  0  0  0  0  0  0  0  0
   -1.2264   21.1808  -29.8556 H   0  0  0  0  0  0  0  0  0  0  0  0
   -1.3133   18.0366  -33.6936 H   0  0  0  0  0  0  0  0  0  0  0  0
   -1.6509   17.6847  -31.9529 H   0  0  0  0  0  0  0  0  0  0  0  0
   -3.1080   16.8129  -34.3896 H   0  0  0  0  0  0  0  0  0  0  0  0
   -3.0805   16.1087  -32.7266 H   0  0  0  0  0  0  0  0  0  0  0  0
   -4.8053   18.3541  -34.9291 H   0  0  0  0  0  0  0  0  0  0  0  0
   -5.6009   19.2123  -33.5365 H   0  0  0  0  0  0  0  0  0  0  0  0
   -2.9764   19.6933  -34.7836 H   0  0  0  0  0  0  0  0  0  0  0  0
   -3.9392   20.7270  -33.6689 H   0  0  0  0  0  0  0  0  0  0  0  0
  1  2  1  0
  2  3  2  0
  3  4  1  0
  4  5  2  0
  5  6  1  0
  6  7  1  0
  7  8  2  0
  7  9  1  0
  9 10  1  0
 10 11  2  0
 11 12  1  0
 12 13  2  0
 13 14  1  0
 13 15  1  0
 15 16  1  0
 16 17  2  0
 16 18  2  0
 16 19  1  0
 19 20  1  0
 20 21  1  0
 21 22  1  0
 22 23  1  0
 23 24  1  0
 15 25  2  0
 25 26  1  0
  5 27  1  0
 27 28  2  0
 28 29  1  0
 29 30  2  0
 29 31  2  0
 29 32  1  0
 32 33  1  0
 33 34  1  0
 34 35  1  0
 35 36  1  0
 36 37  1  0
 28  2  1  0
 37 32  1  0
 25 10  1  0
 24 19  1  0
  1 38  1  0
  1 39  1  0
  1 40  1  0
  3 41  1  0
  4 42  1  0
 11 43  1  0
 12 44  1  0
 14 45  1  0
 14 46  1  0
 14 47  1  0
 19 48  1  0
 20 49  1  0
 20 50  1  0
 21 51  1  0
 21 52  1  0
 22 53  1  0
 22 54  1  0
 23 55  1  0
 23 56  1  0
 24 57  1  0
 24 58  1  0
 26 59  1  0
 27 60  1  0
 33 61  1  0
 33 62  1  0
 34 63  1  0
 34 64  1  0
 36 65  1  0
 36 66  1  0
 37 67  1  0
 37 68  1  0
M  CHG  2   6  -1   9  -1
M  END
>  <UniqueID>  (26) 
25

>  <SMILES>  (26) 
Cc1ccc([N-]C(=O)[N-]c2ccc(C)c(S(=O)(=O)C3CCCCC3)c2O)cc1S(=O)(=O)N1CCOCC1

>  <Energy>  (26) 
90.94358535184236

>  <Genealogy>  (26) 
Cc1ccc([N-]C(=O)[N-]c2ccc(C)c(S(=O)(=O)C3CCCCC3)c2O)cc1S(=O)(=O)N1CCOCC1 (protonated)
Cc1ccc([N-]C(=O)[N-]c2ccc(C)c(S(=O)(=O)C3CCCCC3)c2O)cc1S(=O)(=O)N1CCOCC1 (3D coordinates assigned)
Cc1ccc([N-]C(=O)[N-]c2ccc(C)c(S(=O)(=O)C3CCCCC3)c2O)cc1S(=O)(=O)N1CCOCC1 (nonaromatic ring conformer: 90.94358535184236 kcal/mol)

>  <smiles>  (26) 
Cc1ccc(NC(=O)Nc2ccc(C)c(S(=O)(=O)C3CCCCC3)c2O)cc1S(=O)(=O)N1CCOCC1

>  <score_type>  (26) 
oracle

>  <origin>  (26) 
adgpu

>  <m_score__min__energy>  (26) 
-15.23

>  <m_primary>  (26) 
energy

$$$$
26:0
     RDKit          3D

 53 56  0  0  1  0  0  0  0  0999 V2000
    0.1770   16.6990  -34.2130 N   0  0  0  0  0  0  0  0  0  0  0  0
   -0.7910   17.4130  -33.7430 C   0  0  0  0  0  0  0  0  0  0  0  0
   -0.4840   18.5340  -33.0330 N   0  0  0  0  0  0  0  0  0  0  0  0
   -1.4880   19.2820  -32.5400 C   0  0  0  0  0  0  0  0  0  0  0  0
   -1.1650   20.3300  -31.8720 N   0  0  0  0  0  0  0  0  0  0  0  0
   -2.1290   21.2030  -31.2980 C   0  0  0  0  0  0  0  0  0  0  0  0
   -2.2520   21.3410  -29.9340 C   0  0  0  0  0  0  0  0  0  0  0  0
   -3.1780   22.1750  -29.3820 C   0  0  0  0  0  0  0  0  0  0  0  0
   -4.0190   22.9040  -30.1610 C   0  0  0  0  0  0  0  0  0  0  0  0
   -3.9120   22.7800  -31.5330 C   0  0  0  0  0  0  0  0  0  0  0  0
   -2.9640   21.9250  -32.1180 C   0  0  0  0  0  0  0  0  0  0  0  0
   -2.7920   18.9690  -32.7190 N   0  0  0  0  0  0  0  0  0  0  0  0
   -3.1410   17.8660  -33.4160 C   0  0  0  0  0  0  0  0  0  0  0  0
   -4.4580   17.4610  -33.6620 N   0  0  0  0  0  0  0  0  0  0  0  0
   -4.9820   16.4860  -32.7590 C   0  0  0  0  0  0  0  0  0  0  0  0
   -5.7480   17.2580  -31.7020 C   0  0  0  0  0  0  0  0  0  0  0  0
   -7.0330   17.7730  -32.3100 C   0  0  0  0  0  0  0  0  0  0  0  0
   -6.8170   18.9180  -33.1770 N   0  0  0  0  0  0  0  0  0  0  0  0
   -7.4180   20.1090  -32.6230 C   0  0  0  0  0  0  0  0  0  0  0  0
   -6.6760   21.2260  -32.3120 C   0  0  0  0  0  0  0  0  0  0  0  0
   -7.3570   22.3220  -31.7770 C   0  0  0  0  0  0  0  0  0  0  0  0
   -8.7140   22.3070  -31.5630 C   0  0  0  0  0  0  0  0  0  0  0  0
   -9.4420   21.1830  -31.8800 C   0  0  0  0  0  0  0  0  0  0  0  0
   -8.7790   20.0980  -32.4080 C   0  0  0  0  0  0  0  0  0  0  0  0
   -9.4740   18.9830  -32.7260 F   0  0  0  0  0  0  0  0  0  0  0  0
   -6.1510   19.0980  -34.4290 C   0  0  0  0  0  0  0  0  0  0  0  0
   -5.1480   18.0560  -34.7950 C   0  0  0  0  0  0  0  0  0  0  0  0
   -2.1190   17.0770  -33.9360 C   0  0  0  0  0  0  0  0  0  0  0  0
   -2.3890   15.8990  -34.6840 N   0  0  0  0  0  0  0  0  0  0  0  0
    0.0610   15.8300  -34.7630 H   0  0  0  0  0  0  0  0  0  0  0  0
    0.5290   18.7640  -32.9060 H   0  0  0  0  0  0  0  0  0  0  0  0
   -1.5872   20.7646  -29.2738 H   0  0  0  0  0  0  0  0  0  0  0  0
   -3.2455   22.2592  -28.2873 H   0  0  0  0  0  0  0  0  0  0  0  0
   -4.7655   23.5753  -29.7114 H   0  0  0  0  0  0  0  0  0  0  0  0
   -4.5834   23.3632  -32.1805 H   0  0  0  0  0  0  0  0  0  0  0  0
   -2.8907   21.8345  -33.2118 H   0  0  0  0  0  0  0  0  0  0  0  0
   -3.5580   19.5800  -32.3150 H   0  0  0  0  0  0  0  0  0  0  0  0
   -5.6546   15.7966  -33.2903 H   0  0  0  0  0  0  0  0  0  0  0  0
   -4.1794   15.8814  -32.3114 H   0  0  0  0  0  0  0  0  0  0  0  0
   -5.9794   16.5952  -30.8552 H   0  0  0  0  0  0  0  0  0  0  0  0
   -5.1407   18.1015  -31.3418 H   0  0  0  0  0  0  0  0  0  0  0  0
   -7.4930   16.9660  -32.8991 H   0  0  0  0  0  0  0  0  0  0  0  0
   -7.6873   18.0953  -31.4866 H   0  0  0  0  0  0  0  0  0  0  0  0
   -5.5890   21.2544  -32.4783 H   0  0  0  0  0  0  0  0  0  0  0  0
   -6.7879   23.2271  -31.5185 H   0  0  0  0  0  0  0  0  0  0  0  0
   -9.2164   23.1895  -31.1401 H   0  0  0  0  0  0  0  0  0  0  0  0
  -10.5292   21.1521  -31.7152 H   0  0  0  0  0  0  0  0  0  0  0  0
   -6.9176   19.1181  -35.2176 H   0  0  0  0  0  0  0  0  0  0  0  0
   -5.5815   20.0338  -34.3287 H   0  0  0  0  0  0  0  0  0  0  0  0
   -5.6680   17.2547  -35.3404 H   0  0  0  0  0  0  0  0  0  0  0  0
   -4.3800   18.5592  -35.4008 H   0  0  0  0  0  0  0  0  0  0  0  0
   -1.6160   15.3130  -35.1020 H   0  0  0  0  0  0  0  0  0  0  0  0
   -3.3850   15.6120  -34.8180 H   0  0  0  0  0  0  0  0  0  0  0  0
  1  2  2  3
  2  3  1  0
  3  4  1  0
  4  5  2  0
  5  6  1  0
  6  7  2  0
  7  8  1  0
  8  9  2  0
  9 10  1  0
 10 11  2  0
  4 12  1  0
 12 13  1  0
 13 14  1  0
 14 15  1  0
 15 16  1  0
 16 17  1  0
 17 18  1  0
 18 19  1  0
 19 20  2  0
 20 21  1  0
 21 22  2  0
 22 23  1  0
 23 24  2  0
 24 25  1  0
 18 26  1  0
 26 27  1  0
 13 28  2  0
 28 29  1  0
 28  2  1  0
 11  6  1  0
 27 14  1  0
 24 19  1  0
  1 30  1  0
  3 31  1  0
  7 32  1  0
  8 33  1  0
  9 34  1  0
 10 35  1  0
 11 36  1  0
 12 37  1  0
 15 38  1  0
 15 39  1  0
 16 40  1  0
 16 41  1  0
 17 42  1  0
 17 43  1  0
 20 44  1  0
 21 45  1  0
 22 46  1  0
 23 47  1  0
 26 48  1  0
 26 49  1  0
 27 50  1  0
 27 51  1  0
 29 52  1  0
 29 53  1  0
M  END
>  <smiles>  (27) 
N=c1[nH]c(=Nc2ccccc2)[nH]c(N2CCCN(c3ccccc3F)CC2)c1N

>  <score_type>  (27) 
oracle

>  <origin>  (27) 
adgpu

>  <m_score__min__energy>  (27) 
-6.6799999999999997

>  <m_primary>  (27) 
energy

$$$$
27:0
     RDKit          3D

 38 40  0  0  0  0  0  0  0  0999 V2000
   -2.9710   23.7530  -27.3870 C   0  0  0  0  0  0  0  0  0  0  0  0
   -3.4470   24.2130  -28.7280 C   0  0  0  0  0  0  0  0  0  0  0  0
   -2.8200   25.1590  -29.4510 N   0  0  0  0  0  0  0  0  0  0  0  0
   -3.4870   25.2980  -30.5580 O   0  0  0  0  0  0  0  0  0  0  0  0
   -4.5220   24.4920  -30.6010 C   0  0  0  0  0  0  0  0  0  0  0  0
   -5.3220   24.4650  -31.6290 N   0  0  0  0  0  0  0  0  0  0  0  0
   -6.7410   23.5040  -31.8970 S   0  0  0  0  0  0  0  0  0  0  0  0
   -7.5250   24.0710  -33.0460 O   0  0  0  0  0  0  0  0  0  0  0  0
   -7.5880   23.4420  -30.6580 O   0  0  0  0  0  0  0  0  0  0  0  0
   -6.2370   21.8660  -32.3010 C   0  0  0  0  0  0  0  0  0  0  0  0
   -7.1900   20.8560  -32.4890 C   0  0  0  0  0  0  0  0  0  0  0  0
   -6.7840   19.5550  -32.8020 C   0  0  0  0  0  0  0  0  0  0  0  0
   -5.4250   19.2520  -32.9420 C   0  0  0  0  0  0  0  0  0  0  0  0
   -5.0410   17.9040  -33.2440 N   0  0  0  0  0  0  0  0  0  0  0  0
   -5.4630   16.7320  -32.5360 C   0  0  0  0  0  0  0  0  0  0  0  0
   -5.9930   16.8650  -31.4020 O   0  0  0  0  0  0  0  0  0  0  0  0
   -5.3550   15.3840  -33.1280 C   0  0  0  0  0  0  0  0  0  0  0  0
   -4.3510   14.4590  -32.8570 C   0  0  0  0  0  0  0  0  0  0  0  0
   -4.5260   13.2390  -33.5200 C   0  0  0  0  0  0  0  0  0  0  0  0
   -5.6710   13.1890  -34.3050 C   0  0  0  0  0  0  0  0  0  0  0  0
   -6.4660   14.6640  -34.1700 S   0  0  0  0  0  0  0  0  0  0  0  0
   -4.4690   20.2570  -32.7190 C   0  0  0  0  0  0  0  0  0  0  0  0
   -4.8740   21.5580  -32.4060 C   0  0  0  0  0  0  0  0  0  0  0  0
   -4.5600   23.7520  -29.4180 C   0  0  0  0  0  0  0  0  0  0  0  0
   -5.4810   22.6570  -28.9660 C   0  0  0  0  0  0  0  0  0  0  0  0
   -3.5230   24.2865  -26.5992 H   0  0  0  0  0  0  0  0  0  0  0  0
   -3.1441   22.6712  -27.2877 H   0  0  0  0  0  0  0  0  0  0  0  0
   -1.8958   23.9629  -27.2877 H   0  0  0  0  0  0  0  0  0  0  0  0
   -8.2608   21.0873  -32.3900 H   0  0  0  0  0  0  0  0  0  0  0  0
   -7.5373   18.7652  -32.9390 H   0  0  0  0  0  0  0  0  0  0  0  0
   -3.5032   14.6665  -32.1875 H   0  0  0  0  0  0  0  0  0  0  0  0
   -3.8226   12.3983  -33.4281 H   0  0  0  0  0  0  0  0  0  0  0  0
   -6.0006   12.3319  -34.9106 H   0  0  0  0  0  0  0  0  0  0  0  0
   -3.3974   20.0193  -32.7910 H   0  0  0  0  0  0  0  0  0  0  0  0
   -4.1204   22.3423  -32.2416 H   0  0  0  0  0  0  0  0  0  0  0  0
   -5.5050   22.6285  -27.8666 H   0  0  0  0  0  0  0  0  0  0  0  0
   -6.4939   22.8480  -29.3500 H   0  0  0  0  0  0  0  0  0  0  0  0
   -5.1193   21.6918  -29.3500 H   0  0  0  0  0  0  0  0  0  0  0  0
  1  2  1  0
  2  3  1  0
  3  4  1  0
  4  5  1  0
  5  6  2  3
  6  7  1  0
  7  8  2  0
  7  9  2  0
  7 10  1  0
 10 11  2  0
 11 12  1  0
 12 13  2  0
 13 14  1  0
 14 15  1  0
 15 16  2  0
 15 17  1  0
 17 18  2  0
 18 19  1  0
 19 20  2  0
 20 21  1  0
 13 22  1  0
 22 23  2  0
  5 24  1  0
 24 25  1  0
 24  2  2  0
 23 10  1  0
 21 17  1  0
  1 26  1  0
  1 27  1  0
  1 28  1  0
 11 29  1  0
 12 30  1  0
 18 31  1  0
 19 32  1  0
 20 33  1  0
 22 34  1  0
 23 35  1  0
 25 36  1  0
 25 37  1  0
 25 38  1  0
M  CHG  2   3  -1  14  -1
M  END
>  <UniqueID>  (28) 
26

>  <SMILES>  (28) 
Cc1[n-]oc(=NS(=O)(=O)c2ccc([N-]C(=O)c3cccs3)cc2)c1C

>  <Energy>  (28) 
111.65631382897372

>  <Genealogy>  (28) 
Cc1[n-]oc(=NS(=O)(=O)c2ccc([N-]C(=O)c3cccs3)cc2)c1C (protonated)
Cc1[n-]oc(=NS(=O)(=O)c2ccc([N-]C(=O)c3cccs3)cc2)c1C (3D coordinates assigned)
Cc1[n-]oc(=NS(=O)(=O)c2ccc([N-]C(=O)c3cccs3)cc2)c1C (optimized conformer: 111.65631382897372 kcal/mol)

>  <smiles>  (28) 
Cc1[nH]oc(=NS(=O)(=O)c2ccc(NC(=O)c3cccs3)cc2)c1C

>  <score_type>  (28) 
oracle

>  <origin>  (28) 
adgpu

>  <m_score__min__energy>  (28) 
-10.26

>  <m_primary>  (28) 
energy

$$$$
28:0
     RDKit          3D

 44 45  0  0  0  0  0  0  0  0999 V2000
   -6.2370   19.2090  -31.5010 C   0  0  0  0  0  0  0  0  0  0  0  0
   -7.3160   19.8550  -32.3920 C   0  0  0  0  0  0  0  0  0  0  0  0
   -7.7800   21.1910  -31.7810 C   0  0  0  0  0  0  0  0  0  0  0  0
   -8.5330   18.9030  -32.4340 C   0  0  0  0  0  0  0  0  0  0  0  0
   -6.8120   20.0280  -33.8270 C   0  0  0  0  0  0  0  0  0  0  0  0
   -6.0930   19.1800  -34.5100 N   0  0  0  0  0  0  0  0  0  0  0  0
   -5.6590   17.8640  -34.1400 C   0  0  0  0  0  0  0  0  0  0  0  0
   -6.5100   16.7770  -34.3880 C   0  0  0  0  0  0  0  0  0  0  0  0
   -6.0900   15.4730  -34.1280 C   0  0  0  0  0  0  0  0  0  0  0  0
   -4.7960   15.2360  -33.6710 C   0  0  0  0  0  0  0  0  0  0  0  0
   -3.9140   16.3010  -33.4820 C   0  0  0  0  0  0  0  0  0  0  0  0
   -4.3260   17.6300  -33.7050 C   0  0  0  0  0  0  0  0  0  0  0  0
   -3.3420   18.7450  -33.5580 C   0  0  0  0  0  0  0  0  0  0  0  0
   -2.8430   19.2720  -34.5860 O   0  0  0  0  0  0  0  0  0  0  0  0
   -2.8510   19.1790  -32.2800 N   0  0  0  0  0  0  0  0  0  0  0  0
   -3.0040   20.4730  -31.6770 C   0  0  0  0  0  0  0  0  0  0  0  0
   -2.4420   20.7790  -30.4270 C   0  0  0  0  0  0  0  0  0  0  0  0
   -2.6240   22.0450  -29.8620 C   0  0  0  0  0  0  0  0  0  0  0  0
   -3.3840   23.0120  -30.5310 C   0  0  0  0  0  0  0  0  0  0  0  0
   -3.5990   24.6090  -29.8230 S   0  0  0  0  0  0  0  0  0  0  0  0
   -2.0750   25.2050  -29.2690 N   0  0  0  0  0  0  0  0  0  0  0  0
   -4.1590   25.5540  -30.8500 O   0  0  0  0  0  0  0  0  0  0  0  0
   -4.5570   24.5280  -28.6680 O   0  0  0  0  0  0  0  0  0  0  0  0
   -3.9570   22.7040  -31.7730 C   0  0  0  0  0  0  0  0  0  0  0  0
   -3.7750   21.4380  -32.3360 C   0  0  0  0  0  0  0  0  0  0  0  0
   -6.4947   19.3633  -30.4428 H   0  0  0  0  0  0  0  0  0  0  0  0
   -6.1845   18.1307  -31.7121 H   0  0  0  0  0  0  0  0  0  0  0  0
   -5.2617   19.6719  -31.7121 H   0  0  0  0  0  0  0  0  0  0  0  0
   -7.7555   21.1204  -30.6835 H   0  0  0  0  0  0  0  0  0  0  0  0
   -7.1095   21.9979  -32.1116 H   0  0  0  0  0  0  0  0  0  0  0  0
   -8.8063   21.4086  -32.1116 H   0  0  0  0  0  0  0  0  0  0  0  0
   -8.8439   18.6598  -31.4073 H   0  0  0  0  0  0  0  0  0  0  0  0
   -9.3640   19.3933  -32.9623 H   0  0  0  0  0  0  0  0  0  0  0  0
   -8.2572   17.9784  -32.9623 H   0  0  0  0  0  0  0  0  0  0  0  0
   -7.0843   20.9647  -34.3353 H   0  0  0  0  0  0  0  0  0  0  0  0
   -7.5179   16.9548  -34.7913 H   0  0  0  0  0  0  0  0  0  0  0  0
   -6.7809   14.6314  -34.2839 H   0  0  0  0  0  0  0  0  0  0  0  0
   -4.4685   14.2076  -33.4586 H   0  0  0  0  0  0  0  0  0  0  0  0
   -2.8833   16.1002  -33.1545 H   0  0  0  0  0  0  0  0  0  0  0  0
   -1.8557   20.0190  -29.8897 H   0  0  0  0  0  0  0  0  0  0  0  0
   -2.1687   22.2819  -28.8891 H   0  0  0  0  0  0  0  0  0  0  0  0
   -1.6160   25.6740  -30.0820 H   0  0  0  0  0  0  0  0  0  0  0  0
   -4.5514   23.4609  -32.3057 H   0  0  0  0  0  0  0  0  0  0  0  0
   -4.2406   21.1981  -33.3033 H   0  0  0  0  0  0  0  0  0  0  0  0
  1  2  1  0
  2  3  1  0
  2  4  1  0
  2  5  1  0
  5  6  2  3
  6  7  1  0
  7  8  2  0
  8  9  1  0
  9 10  2  0
 10 11  1  0
 11 12  2  0
 12 13  1  0
 13 14  2  0
 13 15  1  0
 15 16  1  0
 16 17  2  0
 17 18  1  0
 18 19  2  0
 19 20  1  0
 20 21  1  0
 20 22  2  0
 20 23  2  0
 19 24  1  0
 24 25  2  0
 12  7  1  0
 25 16  1  0
  1 26  1  0
  1 27  1  0
  1 28  1  0
  3 29  1  0
  3 30  1  0
  3 31  1  0
  4 32  1  0
  4 33  1  0
  4 34  1  0
  5 35  1  0
  8 36  1  0
  9 37  1  0
 10 38  1  0
 11 39  1  0
 17 40  1  0
 18 41  1  0
 21 42  1  0
 24 43  1  0
 25 44  1  0
M  CHG  2  15  -1  21  -1
M  END
>  <UniqueID>  (29) 
27

>  <SMILES>  (29) 
CC(C)(C)C=Nc1ccccc1C(=O)[N-]c1ccc(S([NH-])(=O)=O)cc1

>  <Energy>  (29) 
61.37255404405633

>  <Genealogy>  (29) 
CC(C)(C)C=Nc1ccccc1C(=O)[N-]c1ccc(S([NH-])(=O)=O)cc1 (protonated)
CC(C)(C)C=Nc1ccccc1C(=O)[N-]c1ccc(S([NH-])(=O)=O)cc1 (3D coordinates assigned)
CC(C)(C)C=Nc1ccccc1C(=O)[N-]c1ccc(S([NH-])(=O)=O)cc1 (optimized conformer: 61.37255404405633 kcal/mol)

>  <smiles>  (29) 
CC(C)(C)C=Nc1ccccc1C(=O)Nc1ccc(S(N)(=O)=O)cc1

>  <score_type>  (29) 
oracle

>  <origin>  (29) 
adgpu

>  <m_score__min__energy>  (29) 
-10.960000000000001

>  <m_primary>  (29) 
energy

$$$$
29:0
     RDKit          3D

 35 37  0  0  0  0  0  0  0  0999 V2000
    0.4260   16.9940  -27.4650 C   0  0  0  0  0  0  0  0  0  0  0  0
   -0.4250   18.2180  -27.5010 C   0  0  0  0  0  0  0  0  0  0  0  0
   -0.1080   19.4060  -28.1230 C   0  0  0  0  0  0  0  0  0  0  0  0
   -1.1730   20.2330  -27.8070 C   0  0  0  0  0  0  0  0  0  0  0  0
   -1.3750   21.6410  -28.2150 C   0  0  0  0  0  0  0  0  0  0  0  0
   -0.4630   22.6220  -27.7950 C   0  0  0  0  0  0  0  0  0  0  0  0
   -0.6370   23.9570  -28.1680 C   0  0  0  0  0  0  0  0  0  0  0  0
   -1.7220   24.3300  -28.9650 C   0  0  0  0  0  0  0  0  0  0  0  0
   -1.8760   25.6660  -29.3230 O   0  0  0  0  0  0  0  0  0  0  0  0
   -2.6440   23.3630  -29.3960 C   0  0  0  0  0  0  0  0  0  0  0  0
   -4.0160   23.8310  -30.4030 S   0  0  0  0  0  0  0  0  0  0  0  0
   -5.2850   23.5420  -29.6520 O   0  0  0  0  0  0  0  0  0  0  0  0
   -3.9110   25.3000  -30.7090 O   0  0  0  0  0  0  0  0  0  0  0  0
   -3.9980   22.9310  -31.8860 N   0  0  0  0  0  0  0  0  0  0  0  0
   -4.9270   21.9280  -32.3290 C   0  0  0  0  0  0  0  0  0  0  0  0
   -6.2780   22.1110  -31.9960 C   0  0  0  0  0  0  0  0  0  0  0  0
   -7.2440   21.1820  -32.3880 C   0  0  0  0  0  0  0  0  0  0  0  0
   -6.8730   20.0560  -33.1220 C   0  0  0  0  0  0  0  0  0  0  0  0
   -5.5340   19.8570  -33.4640 C   0  0  0  0  0  0  0  0  0  0  0  0
   -4.5570   20.7820  -33.0750 C   0  0  0  0  0  0  0  0  0  0  0  0
   -3.2400   20.5370  -33.4400 O   0  0  0  0  0  0  0  0  0  0  0  0
   -2.4680   22.0220  -29.0170 C   0  0  0  0  0  0  0  0  0  0  0  0
   -2.0130   19.5570  -27.0540 O   0  0  0  0  0  0  0  0  0  0  0  0
   -1.5930   18.3440  -26.8430 N   0  0  0  0  0  0  0  0  0  0  0  0
    0.6210   16.7136  -26.4194 H   0  0  0  0  0  0  0  0  0  0  0  0
   -0.0950   16.1700  -27.9745 H   0  0  0  0  0  0  0  0  0  0  0  0
    1.3798   17.1955  -27.9745 H   0  0  0  0  0  0  0  0  0  0  0  0
    0.7804   19.6417  -28.7273 H   0  0  0  0  0  0  0  0  0  0  0  0
    0.3947   22.3375  -27.1678 H   0  0  0  0  0  0  0  0  0  0  0  0
    0.0834   24.7177  -27.8327 H   0  0  0  0  0  0  0  0  0  0  0  0
   -6.5798   22.9975  -31.4189 H   0  0  0  0  0  0  0  0  0  0  0  0
   -8.2987   21.3386  -32.1175 H   0  0  0  0  0  0  0  0  0  0  0  0
   -7.6346   19.3251  -33.4314 H   0  0  0  0  0  0  0  0  0  0  0  0
   -5.2445   18.9676  -34.0429 H   0  0  0  0  0  0  0  0  0  0  0  0
   -3.1907   21.2624  -29.3498 H   0  0  0  0  0  0  0  0  0  0  0  0
  1  2  1  0
  2  3  1  0
  3  4  2  0
  4  5  1  0
  5  6  2  0
  6  7  1  0
  7  8  2  0
  8  9  1  0
  8 10  1  0
 10 11  1  0
 11 12  2  0
 11 13  2  0
 11 14  1  0
 14 15  1  0
 15 16  2  0
 16 17  1  0
 17 18  2  0
 18 19  1  0
 19 20  2  0
 20 21  1  0
 10 22  2  0
  4 23  1  0
 23 24  1  0
 24  2  2  0
 22  5  1  0
 20 15  1  0
  1 25  1  0
  1 26  1  0
  1 27  1  0
  3 28  1  0
  6 29  1  0
  7 30  1  0
 16 31  1  0
 17 32  1  0
 18 33  1  0
 19 34  1  0
 22 35  1  0
M  CHG  3   9  -1  14  -1  21  -1
M  END
>  <UniqueID>  (30) 
28

>  <SMILES>  (30) 
Cc1cc(-c2ccc([O-])c(S(=O)(=O)[N-]c3ccccc3[O-])c2)on1

>  <Energy>  (30) 
76.02459322225243

>  <Genealogy>  (30) 
Cc1cc(-c2ccc([O-])c(S(=O)(=O)[N-]c3ccccc3[O-])c2)on1 (protonated)
Cc1cc(-c2ccc([O-])c(S(=O)(=O)[N-]c3ccccc3[O-])c2)on1 (3D coordinates assigned)
Cc1cc(-c2ccc([O-])c(S(=O)(=O)[N-]c3ccccc3[O-])c2)on1 (optimized conformer: 76.02459322225243 kcal/mol)

>  <smiles>  (30) 
Cc1cc(-c2ccc(O)c(S(=O)(=O)Nc3ccccc3O)c2)on1

>  <score_type>  (30) 
oracle

>  <origin>  (30) 
adgpu

>  <m_score__min__energy>  (30) 
-14.91

>  <m_primary>  (30) 
energy

$$$$
30:0
     RDKit          3D

 60 63  0  0  0  0  0  0  0  0999 V2000
    1.1910   18.8210  -37.5460 C   0  0  0  0  0  0  0  0  0  0  0  0
    1.9590   20.2930  -36.8000 S   0  0  0  0  0  0  0  0  0  0  0  0
    0.8780   20.2780  -35.3740 C   0  0  0  0  0  0  0  0  0  0  0  0
   -0.3000   19.6220  -35.3420 N   0  0  0  0  0  0  0  0  0  0  0  0
   -0.9180   19.7400  -34.1330 C   0  0  0  0  0  0  0  0  0  0  0  0
   -2.2060   19.0580  -33.8560 C   0  0  0  0  0  0  0  0  0  0  0  0
   -2.5360   17.8810  -34.5540 C   0  0  0  0  0  0  0  0  0  0  0  0
   -3.7250   17.2000  -34.2760 C   0  0  0  0  0  0  0  0  0  0  0  0
   -4.5990   17.6760  -33.2930 C   0  0  0  0  0  0  0  0  0  0  0  0
   -6.0410   16.7460  -32.8920 S   0  0  0  0  0  0  0  0  0  0  0  0
   -5.9860   16.3570  -31.4420 O   0  0  0  0  0  0  0  0  0  0  0  0
   -6.1310   15.4950  -33.7240 O   0  0  0  0  0  0  0  0  0  0  0  0
   -7.4300   17.7460  -33.1630 N   0  0  0  0  0  0  0  0  0  0  0  0
   -7.5270   19.0960  -32.6930 C   0  0  0  0  0  0  0  0  0  0  0  0
   -8.3060   19.4290  -31.5730 C   0  0  0  0  0  0  0  0  0  0  0  0
   -8.4130   20.7590  -31.1600 C   0  0  0  0  0  0  0  0  0  0  0  0
   -7.7690   21.7780  -31.8760 C   0  0  0  0  0  0  0  0  0  0  0  0
   -7.9900   23.2220  -31.5150 C   0  0  0  0  0  0  0  0  0  0  0  0
   -6.7680   24.0980  -31.8650 C   0  0  0  0  0  0  0  0  0  0  0  0
   -5.5210   23.6360  -31.2200 N   0  0  0  0  0  0  0  0  0  0  0  0
   -5.4160   24.0160  -29.7970 C   0  0  0  0  0  0  0  0  0  0  0  0
   -3.9760   24.4090  -29.4450 C   0  0  2  0  0  0  0  0  0  0  0  0
   -3.4690   25.2800  -30.4230 O   0  0  0  0  0  0  0  0  0  0  0  0
   -3.0990   23.1810  -29.3000 C   0  0  0  0  0  0  0  0  0  0  0  0
   -2.3550   22.7110  -30.3940 C   0  0  0  0  0  0  0  0  0  0  0  0
   -1.5360   21.5890  -30.2560 C   0  0  0  0  0  0  0  0  0  0  0  0
   -1.4450   20.9560  -29.0150 C   0  0  0  0  0  0  0  0  0  0  0  0
   -2.1430   21.4390  -27.9530 N   0  0  0  0  0  0  0  0  0  0  0  0
   -2.9550   22.5260  -28.0630 C   0  0  0  0  0  0  0  0  0  0  0  0
   -6.9770   21.4410  -32.9880 C   0  0  0  0  0  0  0  0  0  0  0  0
   -6.8390   20.1050  -33.3720 C   0  0  0  0  0  0  0  0  0  0  0  0
   -4.2760   18.8430  -32.5880 C   0  0  0  0  0  0  0  0  0  0  0  0
   -3.0900   19.5310  -32.8670 C   0  0  0  0  0  0  0  0  0  0  0  0
   -0.2220   20.5160  -33.1990 C   0  0  0  0  0  0  0  0  0  0  0  0
    1.2100   21.0360  -33.9140 S   0  0  0  0  0  0  0  0  0  0  0  0
    0.8397   18.1476  -36.7503 H   0  0  0  0  0  0  0  0  0  0  0  0
    0.3383   19.1283  -38.1693 H   0  0  0  0  0  0  0  0  0  0  0  0
    1.9309   18.2974  -38.1693 H   0  0  0  0  0  0  0  0  0  0  0  0
   -1.8529   17.4939  -35.3244 H   0  0  0  0  0  0  0  0  0  0  0  0
   -3.9745   16.2850  -34.8333 H   0  0  0  0  0  0  0  0  0  0  0  0
   -8.8341   18.6392  -31.0187 H   0  0  0  0  0  0  0  0  0  0  0  0
   -9.0060   21.0084  -30.2677 H   0  0  0  0  0  0  0  0  0  0  0  0
   -8.8651   23.5962  -32.0665 H   0  0  0  0  0  0  0  0  0  0  0  0
   -8.1504   23.2803  -30.4283 H   0  0  0  0  0  0  0  0  0  0  0  0
   -6.6255   24.0808  -32.9556 H   0  0  0  0  0  0  0  0  0  0  0  0
   -6.9738   25.1126  -31.4931 H   0  0  0  0  0  0  0  0  0  0  0  0
   -5.4140   22.5970  -31.3240 H   0  0  0  0  0  0  0  0  0  0  0  0
   -6.0813   24.8699  -29.6014 H   0  0  0  0  0  0  0  0  0  0  0  0
   -5.7083   23.1545  -29.1787 H   0  0  0  0  0  0  0  0  0  0  0  0
   -3.9767   24.9296  -28.4760 H   0  0  0  0  0  0  0  0  0  0  0  0
   -3.7490   24.9140  -31.3030 H   0  0  0  0  0  0  0  0  0  0  0  0
   -2.4177   23.2284  -31.3627 H   0  0  0  0  0  0  0  0  0  0  0  0
   -0.9677   21.2072  -31.1170 H   0  0  0  0  0  0  0  0  0  0  0  0
   -0.8087   20.0666  -28.8965 H   0  0  0  0  0  0  0  0  0  0  0  0
   -3.5007   22.8937  -27.1815 H   0  0  0  0  0  0  0  0  0  0  0  0
   -6.4650   22.2312  -33.5568 H   0  0  0  0  0  0  0  0  0  0  0  0
   -6.1832   19.8451  -34.2160 H   0  0  0  0  0  0  0  0  0  0  0  0
   -4.9580   19.2200  -31.8116 H   0  0  0  0  0  0  0  0  0  0  0  0
   -2.8464   20.4477  -32.3100 H   0  0  0  0  0  0  0  0  0  0  0  0
   -0.5533   20.7460  -32.1756 H   0  0  0  0  0  0  0  0  0  0  0  0
  1  2  1  0
  2  3  1  0
  3  4  2  0
  4  5  1  0
  5  6  1  0
  6  7  2  0
  7  8  1  0
  8  9  2  0
  9 10  1  0
 10 11  2  0
 10 12  2  0
 10 13  1  0
 13 14  1  0
 14 15  2  0
 15 16  1  0
 16 17  2  0
 17 18  1  0
 18 19  1  0
 19 20  1  0
 20 21  1  0
 21 22  1  0
 22 23  1  0
 22 24  1  0
 24 25  2  0
 25 26  1  0
 26 27  2  0
 27 28  1  0
 28 29  2  0
 17 30  1  0
 30 31  2  0
  9 32  1  0
 32 33  2  0
  5 34  2  0
 34 35  1  0
 35  3  1  0
 33  6  1  0
 31 14  1  0
 29 24  1  0
  1 36  1  0
  1 37  1  0
  1 38  1  0
  7 39  1  0
  8 40  1  0
 15 41  1  0
 16 42  1  0
 18 43  1  0
 18 44  1  0
 19 45  1  0
 19 46  1  0
 20 47  1  0
 21 48  1  0
 21 49  1  0
 22 50  1  1
 23 51  1  0
 25 52  1  0
 26 53  1  0
 27 54  1  0
 29 55  1  0
 30 56  1  0
 31 57  1  0
 32 58  1  0
 33 59  1  0
 34 60  1  0
M  CHG  1  13  -1
M  END
>  <UniqueID>  (31) 
29

>  <SMILES>  (31) 
CSc1nc(-c2ccc(S(=O)(=O)[N-]c3ccc(CCNC[C@H](O)c4cccnc4)cc3)cc2)cs1

>  <Energy>  (31) 
92.32088012706494

>  <Genealogy>  (31) 
CSc1nc(-c2ccc(S(=O)(=O)[N-]c3ccc(CCNCC(O)c4cccnc4)cc3)cc2)cs1 (protonated)
CSc1nc(-c2ccc(S(=O)(=O)[N-]c3ccc(CCNC[C@H](O)c4cccnc4)cc3)cc2)cs1 (chirality)
CSc1nc(-c2ccc(S(=O)(=O)[N-]c3ccc(CCNC[C@H](O)c4cccnc4)cc3)cc2)cs1 (3D coordinates assigned)
CSc1nc(-c2ccc(S(=O)(=O)[N-]c3ccc(CCNC[C@H](O)c4cccnc4)cc3)cc2)cs1 (optimized conformer: 92.32088012706494 kcal/mol)

>  <smiles>  (31) 
CSc1nc(-c2ccc(S(=O)(=O)Nc3ccc(CCNCC(O)c4cccnc4)cc3)cc2)cs1

>  <score_type>  (31) 
oracle

>  <origin>  (31) 
adgpu

>  <m_score__min__energy>  (31) 
-11.130000000000001

>  <m_primary>  (31) 
energy

$$$$
31:0
     RDKit          3D

 61 63  0  0  0  0  0  0  0  0999 V2000
   -0.1030   20.4230  -34.9570 C   0  0  0  0  0  0  0  0  0  0  0  0
   -0.8280   19.7990  -33.9030 O   0  0  0  0  0  0  0  0  0  0  0  0
   -1.9950   20.3210  -33.3190 C   0  0  0  0  0  0  0  0  0  0  0  0
   -1.9620   21.3860  -32.4020 C   0  0  0  0  0  0  0  0  0  0  0  0
   -3.1390   21.8800  -31.8240 C   0  0  0  0  0  0  0  0  0  0  0  0
   -3.0130   22.9540  -30.8180 C   0  0  0  0  0  0  0  0  0  0  0  0
   -3.5570   24.0660  -31.0560 O   0  0  0  0  0  0  0  0  0  0  0  0
   -2.3240   22.7190  -29.5630 N   0  0  2  0  0  0  0  0  0  0  0  0
   -2.8160   21.4870  -28.9150 C   0  0  0  0  0  0  0  0  0  0  0  0
   -2.3620   23.9100  -28.6780 C   0  0  0  0  0  0  0  0  0  0  0  0
   -1.1340   24.7870  -28.7390 C   0  0  0  0  0  0  0  0  0  0  0  0
   -0.0070   24.2600  -28.9490 O   0  0  0  0  0  0  0  0  0  0  0  0
   -1.2340   26.1820  -28.4180 N   0  0  0  0  0  0  0  0  0  0  0  0
   -0.9540   26.8040  -27.1510 C   0  0  0  0  0  0  0  0  0  0  0  0
    0.0680   27.7650  -27.1160 C   0  0  0  0  0  0  0  0  0  0  0  0
    0.4010   28.4150  -25.9280 C   0  0  0  0  0  0  0  0  0  0  0  0
   -0.2720   28.0980  -24.7490 C   0  0  0  0  0  0  0  0  0  0  0  0
   -1.2560   27.1070  -24.7490 C   0  0  0  0  0  0  0  0  0  0  0  0
   -1.5940   26.4320  -25.9360 C   0  0  0  0  0  0  0  0  0  0  0  0
   -2.6350   25.3440  -25.8640 C   0  0  0  0  0  0  0  0  0  0  0  0
   -4.3860   21.3190  -32.1910 C   0  0  0  0  0  0  0  0  0  0  0  0
   -5.9500   21.9410  -31.6200 S   0  0  0  0  0  0  0  0  0  0  0  0
   -5.9190   22.3850  -30.1860 O   0  0  0  0  0  0  0  0  0  0  0  0
   -6.3280   23.1180  -32.4750 O   0  0  0  0  0  0  0  0  0  0  0  0
   -7.1760   20.6680  -31.7460 C   0  0  0  0  0  0  0  0  0  0  0  0
   -6.7820   19.3240  -31.6800 C   0  0  0  0  0  0  0  0  0  0  0  0
   -7.7320   18.3020  -31.7650 C   0  0  0  0  0  0  0  0  0  0  0  0
   -9.0840   18.6140  -31.9120 C   0  0  0  0  0  0  0  0  0  0  0  0
   -9.4910   19.9480  -31.9780 C   0  0  0  0  0  0  0  0  0  0  0  0
   -8.5450   20.9800  -31.8980 C   0  0  0  0  0  0  0  0  0  0  0  0
   -9.0050   22.3470  -31.9560 C   0  0  0  0  0  0  0  0  0  0  0  0
   -9.3710   23.4420  -31.9980 N   0  0  0  0  0  0  0  0  0  0  0  0
   -4.4100   20.2580  -33.1090 C   0  0  0  0  0  0  0  0  0  0  0  0
   -3.2240   19.7490  -33.6670 C   0  0  0  0  0  0  0  0  0  0  0  0
   -3.2270   18.6760  -34.5730 O   0  0  0  0  0  0  0  0  0  0  0  0
   -4.2210   17.6530  -34.6100 C   0  0  0  0  0  0  0  0  0  0  0  0
    0.6658   21.0847  -34.5315 H   0  0  0  0  0  0  0  0  0  0  0  0
    0.3786   19.6525  -35.5770 H   0  0  0  0  0  0  0  0  0  0  0  0
   -0.7932   21.0140  -35.5770 H   0  0  0  0  0  0  0  0  0  0  0  0
   -0.9962   21.8391  -32.1338 H   0  0  0  0  0  0  0  0  0  0  0  0
   -1.3110   22.5510  -29.7740 H   0  0  0  0  0  0  0  0  0  0  0  0
   -2.7694   21.6038  -27.8222 H   0  0  0  0  0  0  0  0  0  0  0  0
   -3.8567   21.3028  -29.2200 H   0  0  0  0  0  0  0  0  0  0  0  0
   -2.1885   20.6366  -29.2200 H   0  0  0  0  0  0  0  0  0  0  0  0
   -3.2319   24.5199  -28.9630 H   0  0  0  0  0  0  0  0  0  0  0  0
   -2.4170   23.5274  -27.6481 H   0  0  0  0  0  0  0  0  0  0  0  0
    0.6143   28.0091  -28.0390 H   0  0  0  0  0  0  0  0  0  0  0  0
    1.1941   29.1772  -25.9212 H   0  0  0  0  0  0  0  0  0  0  0  0
   -0.0276   28.6292  -23.8173 H   0  0  0  0  0  0  0  0  0  0  0  0
   -1.7718   26.8517  -23.8116 H   0  0  0  0  0  0  0  0  0  0  0  0
   -2.8540   25.1152  -24.8106 H   0  0  0  0  0  0  0  0  0  0  0  0
   -3.5543   25.6824  -26.3644 H   0  0  0  0  0  0  0  0  0  0  0  0
   -2.2564   24.4406  -26.3644 H   0  0  0  0  0  0  0  0  0  0  0  0
   -5.7179   19.0720  -31.5605 H   0  0  0  0  0  0  0  0  0  0  0  0
   -7.4132   17.2503  -31.7159 H   0  0  0  0  0  0  0  0  0  0  0  0
   -9.8300   17.8082  -31.9760 H   0  0  0  0  0  0  0  0  0  0  0  0
  -10.5578   20.1903  -32.0932 H   0  0  0  0  0  0  0  0  0  0  0  0
   -5.3751   19.8160  -33.3976 H   0  0  0  0  0  0  0  0  0  0  0  0
   -4.4952   17.3708  -33.5828 H   0  0  0  0  0  0  0  0  0  0  0  0
   -5.1112   18.0256  -35.1379 H   0  0  0  0  0  0  0  0  0  0  0  0
   -3.8229   16.7739  -35.1379 H   0  0  0  0  0  0  0  0  0  0  0  0
  1  2  1  0
  2  3  1  0
  3  4  2  0
  4  5  1  0
  5  6  1  0
  6  7  2  0
  6  8  1  0
  8  9  1  0
  8 10  1  0
 10 11  1  0
 11 12  2  0
 11 13  1  0
 13 14  1  0
 14 15  2  0
 15 16  1  0
 16 17  2  0
 17 18  1  0
 18 19  2  0
 19 20  1  0
  5 21  2  0
 21 22  1  0
 22 23  2  0
 22 24  2  0
 22 25  1  0
 25 26  2  0
 26 27  1  0
 27 28  2  0
 28 29  1  0
 29 30  2  0
 30 31  1  0
 31 32  3  0
 21 33  1  0
 33 34  2  0
 34 35  1  0
 35 36  1  0
 34  3  1  0
 19 14  1  0
 30 25  1  0
  1 37  1  0
  1 38  1  0
  1 39  1  0
  4 40  1  0
  8 41  1  6
  9 42  1  0
  9 43  1  0
  9 44  1  0
 10 45  1  0
 10 46  1  0
 15 47  1  0
 16 48  1  0
 17 49  1  0
 18 50  1  0
 20 51  1  0
 20 52  1  0
 20 53  1  0
 26 54  1  0
 27 55  1  0
 28 56  1  0
 29 57  1  0
 33 58  1  0
 36 59  1  0
 36 60  1  0
 36 61  1  0
M  CHG  2   8   1  13  -1
M  END
>  <UniqueID>  (32) 
30

>  <SMILES>  (32) 
COc1cc(C(=O)[N@H+](C)CC(=O)[N-]c2ccccc2C)c(S(=O)(=O)c2ccccc2C#N)cc1OC

>  <Energy>  (32) 
85.1979567761668

>  <Genealogy>  (32) 
COc1cc(C(=O)[NH+](C)CC(=O)[N-]c2ccccc2C)c(S(=O)(=O)c2ccccc2C#N)cc1OC (protonated)
COc1cc(C(=O)[N@H+](C)CC(=O)[N-]c2ccccc2C)c(S(=O)(=O)c2ccccc2C#N)cc1OC (chirality)
COc1cc(C(=O)[N@H+](C)CC(=O)[N-]c2ccccc2C)c(S(=O)(=O)c2ccccc2C#N)cc1OC (3D coordinates assigned)
COc1cc(C(=O)[N@H+](C)CC(=O)[N-]c2ccccc2C)c(S(=O)(=O)c2ccccc2C#N)cc1OC (optimized conformer: 85.1979567761668 kcal/mol)

>  <smiles>  (32) 
COc1cc(C(=O)N(C)CC(=O)Nc2ccccc2C)c(S(=O)(=O)c2ccccc2C#N)cc1OC

>  <score_type>  (32) 
oracle

>  <origin>  (32) 
adgpu

>  <m_score__min__energy>  (32) 
-10.15

>  <m_primary>  (32) 
energy

$$$$
32:0
     RDKit          3D

 46 49  0  0  0  0  0  0  0  0999 V2000
   -0.3560   24.3840  -27.0430 C   0  0  0  0  0  0  0  0  0  0  0  0
   -1.5600   24.5170  -27.9110 C   0  0  0  0  0  0  0  0  0  0  0  0
   -2.8620   24.2580  -27.5410 C   0  0  0  0  0  0  0  0  0  0  0  0
   -3.5650   24.5340  -28.6910 C   0  0  0  0  0  0  0  0  0  0  0  0
   -4.8520   24.4280  -28.8140 N   0  0  0  0  0  0  0  0  0  0  0  0
   -5.6980   24.7920  -30.2820 S   0  0  0  0  0  0  0  0  0  0  0  0
   -4.8000   25.5900  -31.1830 O   0  0  0  0  0  0  0  0  0  0  0  0
   -6.9170   25.6180  -29.9750 O   0  0  0  0  0  0  0  0  0  0  0  0
   -6.1540   23.2960  -31.0920 C   0  0  0  0  0  0  0  0  0  0  0  0
   -5.3020   22.7340  -32.0500 C   0  0  0  0  0  0  0  0  0  0  0  0
   -5.6520   21.5400  -32.6880 C   0  0  0  0  0  0  0  0  0  0  0  0
   -6.8570   20.8920  -32.3760 C   0  0  0  0  0  0  0  0  0  0  0  0
   -7.1970   19.6740  -33.0560 N   0  0  0  0  0  0  0  0  0  0  0  0
   -6.9960   18.1000  -32.3520 S   0  0  0  0  0  0  0  0  0  0  0  0
   -8.3270   17.4020  -32.3440 O   0  0  0  0  0  0  0  0  0  0  0  0
   -6.5210   18.2430  -30.9330 O   0  0  0  0  0  0  0  0  0  0  0  0
   -5.7960   17.1640  -33.2640 C   0  0  0  0  0  0  0  0  0  0  0  0
   -6.1630   15.8930  -33.7370 C   0  0  0  0  0  0  0  0  0  0  0  0
   -5.2820   15.1320  -34.5020 C   0  0  0  0  0  0  0  0  0  0  0  0
   -4.0140   15.6220  -34.8090 C   0  0  0  0  0  0  0  0  0  0  0  0
   -3.6130   16.8820  -34.3450 C   0  0  0  0  0  0  0  0  0  0  0  0
   -2.3350   17.3670  -34.6600 C   0  0  0  0  0  0  0  0  0  0  0  0
   -1.9230   18.6180  -34.2000 C   0  0  0  0  0  0  0  0  0  0  0  0
   -2.7800   19.3920  -33.4190 C   0  0  0  0  0  0  0  0  0  0  0  0
   -4.0560   18.9240  -33.0950 C   0  0  0  0  0  0  0  0  0  0  0  0
   -4.5000   17.6670  -33.5570 C   0  0  0  0  0  0  0  0  0  0  0  0
   -7.6970   21.4490  -31.3940 C   0  0  0  0  0  0  0  0  0  0  0  0
   -7.3480   22.6460  -30.7620 C   0  0  0  0  0  0  0  0  0  0  0  0
   -2.7340   24.9280  -29.6760 N   0  0  0  0  0  0  0  0  0  0  0  0
   -1.5350   24.9070  -29.1680 O   0  0  0  0  0  0  0  0  0  0  0  0
   -0.6602   24.4176  -25.9864 H   0  0  0  0  0  0  0  0  0  0  0  0
    0.1418   23.4254  -27.2509 H   0  0  0  0  0  0  0  0  0  0  0  0
    0.3391   25.2108  -27.2509 H   0  0  0  0  0  0  0  0  0  0  0  0
   -3.2442   23.9157  -26.5680 H   0  0  0  0  0  0  0  0  0  0  0  0
   -4.3546   23.2330  -32.3016 H   0  0  0  0  0  0  0  0  0  0  0  0
   -4.9775   21.1052  -33.4404 H   0  0  0  0  0  0  0  0  0  0  0  0
   -7.7280   19.7260  -33.9550 H   0  0  0  0  0  0  0  0  0  0  0  0
   -7.1600   15.4932  -33.4999 H   0  0  0  0  0  0  0  0  0  0  0  0
   -5.5885   14.1400  -34.8653 H   0  0  0  0  0  0  0  0  0  0  0  0
   -3.3255   15.0175  -35.4177 H   0  0  0  0  0  0  0  0  0  0  0  0
   -1.6542   16.7579  -35.2728 H   0  0  0  0  0  0  0  0  0  0  0  0
   -0.9209   18.9940  -34.4538 H   0  0  0  0  0  0  0  0  0  0  0  0
   -2.4499   20.3765  -33.0559 H   0  0  0  0  0  0  0  0  0  0  0  0
   -4.7210   19.5417  -32.4736 H   0  0  0  0  0  0  0  0  0  0  0  0
   -8.6334   20.9397  -31.1222 H   0  0  0  0  0  0  0  0  0  0  0  0
   -8.0151   23.0787  -30.0019 H   0  0  0  0  0  0  0  0  0  0  0  0
  1  2  1  0
  2  3  2  0
  3  4  1  0
  4  5  2  3
  5  6  1  0
  6  7  2  0
  6  8  2  0
  6  9  1  0
  9 10  2  0
 10 11  1  0
 11 12  2  0
 12 13  1  0
 13 14  1  0
 14 15  2  0
 14 16  2  0
 14 17  1  0
 17 18  2  0
 18 19  1  0
 19 20  2  0
 20 21  1  0
 21 22  2  0
 22 23  1  0
 23 24  2  0
 24 25  1  0
 25 26  2  0
 12 27  1  0
 27 28  2  0
  4 29  1  0
 29 30  1  0
 30  2  1  0
 28  9  1  0
 26 17  1  0
 26 21  1  0
  1 31  1  0
  1 32  1  0
  1 33  1  0
  3 34  1  0
 10 35  1  0
 11 36  1  0
 13 37  1  0
 18 38  1  0
 19 39  1  0
 20 40  1  0
 22 41  1  0
 23 42  1  0
 24 43  1  0
 25 44  1  0
 27 45  1  0
 28 46  1  0
M  CHG  1  29  -1
M  END
>  <UniqueID>  (33) 
31

>  <SMILES>  (33) 
Cc1cc(=NS(=O)(=O)c2ccc(NS(=O)(=O)c3cccc4ccccc34)cc2)[n-]o1

>  <Energy>  (33) 
91.19790469061195

>  <Genealogy>  (33) 
Cc1cc(=NS(=O)(=O)c2ccc(NS(=O)(=O)c3cccc4ccccc34)cc2)[n-]o1 (protonated)
Cc1cc(=NS(=O)(=O)c2ccc(NS(=O)(=O)c3cccc4ccccc34)cc2)[n-]o1 (3D coordinates assigned)
Cc1cc(=NS(=O)(=O)c2ccc(NS(=O)(=O)c3cccc4ccccc34)cc2)[n-]o1 (optimized conformer: 91.19790469061195 kcal/mol)

>  <smiles>  (33) 
Cc1cc(=NS(=O)(=O)c2ccc(NS(=O)(=O)c3cccc4ccccc34)cc2)[nH]o1

>  <score_type>  (33) 
oracle

>  <origin>  (33) 
adgpu

>  <m_score__min__energy>  (33) 
-11.970000000000001

>  <m_primary>  (33) 
energy

$$$$
33:0
     RDKit          3D

 48 50  0  0  0  0  0  0  0  0999 V2000
    0.6470   27.9480  -22.9890 C   0  0  0  0  0  0  0  0  0  0  0  0
    0.3210   26.6490  -23.5990 N   0  0  0  0  0  0  0  0  0  0  0  0
   -1.0110   26.7030  -24.2510 C   0  0  0  0  0  0  0  0  0  0  0  0
   -1.1680   25.6050  -25.3060 C   0  0  0  0  0  0  0  0  0  0  0  0
   -0.1590   25.8120  -26.4540 C   0  0  0  0  0  0  0  0  0  0  0  0
    0.1520   24.2580  -27.3010 S   0  0  0  0  0  0  0  0  0  0  0  0
    0.5360   23.2090  -26.2950 O   0  0  0  0  0  0  0  0  0  0  0  0
    1.3020   24.4210  -28.2560 O   0  0  0  0  0  0  0  0  0  0  0  0
   -1.3010   23.7700  -28.2020 C   0  0  0  0  0  0  0  0  0  0  0  0
   -1.7290   22.4230  -28.1980 C   0  0  0  0  0  0  0  0  0  0  0  0
   -0.8640   21.1600  -27.3280 Cl  0  0  0  0  0  0  0  0  0  0  0  0
   -2.8730   22.0500  -28.9080 C   0  0  0  0  0  0  0  0  0  0  0  0
   -3.5890   22.9930  -29.6440 C   0  0  0  0  0  0  0  0  0  0  0  0
   -3.1530   24.3250  -29.7000 C   0  0  0  0  0  0  0  0  0  0  0  0
   -3.8760   25.3180  -30.4430 N   0  0  0  0  0  0  0  0  0  0  0  0
   -5.2540   25.2460  -30.8250 C   0  0  0  0  0  0  0  0  0  0  0  0
   -6.0960   25.9370  -30.1940 O   0  0  0  0  0  0  0  0  0  0  0  0
   -5.6500   24.4890  -31.9760 N   0  0  0  0  0  0  0  0  0  0  0  0
   -6.4010   23.2670  -31.9790 C   0  0  0  0  0  0  0  0  0  0  0  0
   -5.7420   22.0750  -32.3050 C   0  0  0  0  0  0  0  0  0  0  0  0
   -6.4310   20.8580  -32.3000 C   0  0  0  0  0  0  0  0  0  0  0  0
   -7.7860   20.8220  -31.9520 C   0  0  0  0  0  0  0  0  0  0  0  0
   -8.4960   19.5690  -31.9440 C   0  0  0  0  0  0  0  0  0  0  0  0
   -9.0660   18.5610  -31.9370 N   0  0  0  0  0  0  0  0  0  0  0  0
   -8.4470   22.0050  -31.6010 C   0  0  0  0  0  0  0  0  0  0  0  0
   -7.7580   23.2220  -31.6070 C   0  0  0  0  0  0  0  0  0  0  0  0
   -2.0210   24.7130  -28.9670 C   0  0  0  0  0  0  0  0  0  0  0  0
   -1.6120   26.0420  -29.0240 O   0  0  0  0  0  0  0  0  0  0  0  0
    1.1580   26.4630  -25.9660 C   0  0  0  0  0  0  0  0  0  0  0  0
    1.4190   26.1730  -24.4800 C   0  0  0  0  0  0  0  0  0  0  0  0
    0.6236   27.8547  -21.8932 H   0  0  0  0  0  0  0  0  0  0  0  0
    1.6517   28.2615  -23.3089 H   0  0  0  0  0  0  0  0  0  0  0  0
   -0.0906   28.6987  -23.3089 H   0  0  0  0  0  0  0  0  0  0  0  0
   -1.7891   26.5748  -23.4841 H   0  0  0  0  0  0  0  0  0  0  0  0
   -1.1092   27.6774  -24.7519 H   0  0  0  0  0  0  0  0  0  0  0  0
   -0.9889   24.6254  -24.8387 H   0  0  0  0  0  0  0  0  0  0  0  0
   -2.1878   25.6483  -25.7160 H   0  0  0  0  0  0  0  0  0  0  0  0
   -0.6088   26.5159  -27.1697 H   0  0  0  0  0  0  0  0  0  0  0  0
   -3.2116   21.0036  -28.8861 H   0  0  0  0  0  0  0  0  0  0  0  0
   -4.4993   22.6913  -30.1828 H   0  0  0  0  0  0  0  0  0  0  0  0
   -4.6739   22.0962  -32.5671 H   0  0  0  0  0  0  0  0  0  0  0  0
   -5.9077   19.9288  -32.5697 H   0  0  0  0  0  0  0  0  0  0  0  0
   -9.5101   21.9773  -31.3200 H   0  0  0  0  0  0  0  0  0  0  0  0
   -8.2784   24.1476  -31.3199 H   0  0  0  0  0  0  0  0  0  0  0  0
    1.9940   26.0640  -26.5592 H   0  0  0  0  0  0  0  0  0  0  0  0
    1.0693   27.5521  -26.0923 H   0  0  0  0  0  0  0  0  0  0  0  0
    1.5296   25.0866  -24.3481 H   0  0  0  0  0  0  0  0  0  0  0  0
    2.3326   26.7140  -24.1924 H   0  0  0  0  0  0  0  0  0  0  0  0
  1  2  1  0
  2  3  1  0
  3  4  1  0
  4  5  1  0
  5  6  1  0
  6  7  2  0
  6  8  2  0
  6  9  1  0
  9 10  2  0
 10 11  1  0
 10 12  1  0
 12 13  2  0
 13 14  1  0
 14 15  1  0
 15 16  1  0
 16 17  2  0
 16 18  1  0
 18 19  1  0
 19 20  2  0
 20 21  1  0
 21 22  2  0
 22 23  1  0
 23 24  3  0
 22 25  1  0
 25 26  2  0
 14 27  2  0
 27 28  1  0
  5 29  1  0
 29 30  1  0
 30  2  1  0
 27  9  1  0
 26 19  1  0
  1 31  1  0
  1 32  1  0
  1 33  1  0
  3 34  1  0
  3 35  1  0
  4 36  1  0
  4 37  1  0
  5 38  1  0
 12 39  1  0
 13 40  1  0
 20 41  1  0
 21 42  1  0
 25 43  1  0
 26 44  1  0
 29 45  1  0
 29 46  1  0
 30 47  1  0
 30 48  1  0
M  CHG  3  15  -1  18  -1  28  -1
M  END
>  <UniqueID>  (34) 
32

>  <SMILES>  (34) 
CN1CCC(S(=O)(=O)c2c(Cl)ccc([N-]C(=O)[N-]c3ccc(C#N)cc3)c2[O-])CC1

>  <Energy>  (34) 
63.602366884532074

>  <Genealogy>  (34) 
CN1CCC(S(=O)(=O)c2c(Cl)ccc([N-]C(=O)[N-]c3ccc(C#N)cc3)c2[O-])CC1 (protonated)
CN1CCC(S(=O)(=O)c2c(Cl)ccc([N-]C(=O)[N-]c3ccc(C#N)cc3)c2[O-])CC1 (3D coordinates assigned)
CN1CCC(S(=O)(=O)c2c(Cl)ccc([N-]C(=O)[N-]c3ccc(C#N)cc3)c2[O-])CC1 (nonaromatic ring conformer: 63.602366884532074 kcal/mol)

>  <smiles>  (34) 
CN1CCC(S(=O)(=O)c2c(Cl)ccc(NC(=O)Nc3ccc(C#N)cc3)c2O)CC1

>  <score_type>  (34) 
oracle

>  <origin>  (34) 
adgpu

>  <m_score__min__energy>  (34) 
-15.789999999999999

>  <m_primary>  (34) 
energy

$$$$
34:0
     RDKit          3D

 57 60  0  0  0  0  0  0  0  0999 V2000
   -3.4760   22.2270  -33.5510 O   0  0  0  0  0  0  0  0  0  0  0  0
   -2.8080   22.0130  -32.5050 C   0  0  0  0  0  0  0  0  0  0  0  0
   -3.2680   22.5280  -31.2470 N   0  0  0  0  0  0  0  0  0  0  0  0
   -4.5440   23.1660  -31.0750 C   0  0  0  0  0  0  0  0  0  0  0  0
   -5.7100   22.4390  -31.3560 C   0  0  0  0  0  0  0  0  0  0  0  0
   -6.9730   23.0160  -31.1660 C   0  0  0  0  0  0  0  0  0  0  0  0
   -8.4330   22.0750  -31.4760 S   0  0  0  0  0  0  0  0  0  0  0  0
   -9.4940   22.9850  -32.0270 O   0  0  0  0  0  0  0  0  0  0  0  0
   -8.9380   21.5090  -30.1800 O   0  0  0  0  0  0  0  0  0  0  0  0
   -8.1430   20.7580  -32.5930 N   0  0  0  0  0  0  0  0  0  0  0  0
   -7.0280   19.9140  -32.1510 C   0  0  0  0  0  0  0  0  0  0  0  0
   -7.5950   18.6380  -31.5430 C   0  0  0  0  0  0  0  0  0  0  0  0
   -9.0930   18.6950  -31.7700 C   0  0  0  0  0  0  0  0  0  0  0  0
   -9.3140   19.8830  -32.6900 C   0  0  0  0  0  0  0  0  0  0  0  0
   -7.0660   24.3400  -30.7160 C   0  0  0  0  0  0  0  0  0  0  0  0
   -5.9100   25.0830  -30.4740 C   0  0  0  0  0  0  0  0  0  0  0  0
   -4.6500   24.5080  -30.6640 C   0  0  0  0  0  0  0  0  0  0  0  0
   -3.5140   25.2850  -30.4680 O   0  0  0  0  0  0  0  0  0  0  0  0
   -1.5110   21.3070  -32.6130 C   0  0  0  0  0  0  0  0  0  0  0  0
   -1.2490   20.4630  -33.6180 C   0  0  0  0  0  0  0  0  0  0  0  0
    0.0800   19.7630  -33.7290 C   0  0  0  0  0  0  0  0  0  0  0  0
    0.8550   19.6150  -32.3800 C   0  0  0  0  0  0  0  0  0  0  0  0
    0.1660   20.2040  -31.2070 N   0  0  0  0  0  0  0  0  0  0  0  0
   -0.7800   19.2420  -30.5860 C   0  0  0  0  0  0  0  0  0  0  0  0
   -1.2030   19.6940  -29.2100 C   0  0  0  0  0  0  0  0  0  0  0  0
   -2.1590   20.7160  -29.0680 C   0  0  0  0  0  0  0  0  0  0  0  0
   -2.5800   21.1110  -27.7940 C   0  0  0  0  0  0  0  0  0  0  0  0
   -2.0550   20.4870  -26.6560 C   0  0  0  0  0  0  0  0  0  0  0  0
   -1.1070   19.4690  -26.7900 C   0  0  0  0  0  0  0  0  0  0  0  0
   -0.6810   19.0710  -28.0620 C   0  0  0  0  0  0  0  0  0  0  0  0
   -0.4580   21.4970  -31.5550 C   0  0  0  0  0  0  0  0  0  0  0  0
   -2.5670   22.6490  -30.4840 H   0  0  0  0  0  0  0  0  0  0  0  0
   -5.6325   21.4070  -31.7288 H   0  0  0  0  0  0  0  0  0  0  0  0
   -6.3899   19.6628  -33.0111 H   0  0  0  0  0  0  0  0  0  0  0  0
   -6.4245   20.4501  -31.4038 H   0  0  0  0  0  0  0  0  0  0  0  0
   -7.1667   17.7550  -32.0399 H   0  0  0  0  0  0  0  0  0  0  0  0
   -7.3529   18.5602  -30.4728 H   0  0  0  0  0  0  0  0  0  0  0  0
   -9.4461   17.7682  -32.2458 H   0  0  0  0  0  0  0  0  0  0  0  0
   -9.6472   18.7990  -30.8255 H   0  0  0  0  0  0  0  0  0  0  0  0
   -9.4343   19.5346  -33.7264 H   0  0  0  0  0  0  0  0  0  0  0  0
  -10.2228   20.4287  -32.3961 H   0  0  0  0  0  0  0  0  0  0  0  0
   -8.0540   24.7952  -30.5530 H   0  0  0  0  0  0  0  0  0  0  0  0
   -5.9904   26.1255  -30.1323 H   0  0  0  0  0  0  0  0  0  0  0  0
   -2.0208   20.2765  -34.3793 H   0  0  0  0  0  0  0  0  0  0  0  0
   -0.0960   18.7560  -34.1352 H   0  0  0  0  0  0  0  0  0  0  0  0
    0.7073   20.3891  -34.3805 H   0  0  0  0  0  0  0  0  0  0  0  0
    1.0065   18.5428  -32.1867 H   0  0  0  0  0  0  0  0  0  0  0  0
    1.7982   20.1683  -32.4989 H   0  0  0  0  0  0  0  0  0  0  0  0
   -1.6720   19.1552  -31.2239 H   0  0  0  0  0  0  0  0  0  0  0  0
   -0.2720   18.2711  -30.4898 H   0  0  0  0  0  0  0  0  0  0  0  0
   -2.5762   21.2054  -29.9604 H   0  0  0  0  0  0  0  0  0  0  0  0
   -3.3248   21.9132  -27.6860 H   0  0  0  0  0  0  0  0  0  0  0  0
   -2.3891   20.7984  -25.6553 H   0  0  0  0  0  0  0  0  0  0  0  0
   -0.6953   18.9802  -25.8947 H   0  0  0  0  0  0  0  0  0  0  0  0
    0.0643   18.2685  -28.1645 H   0  0  0  0  0  0  0  0  0  0  0  0
   -0.9221   21.9284  -30.6559 H   0  0  0  0  0  0  0  0  0  0  0  0
    0.3180   22.1731  -31.9432 H   0  0  0  0  0  0  0  0  0  0  0  0
  1  2  2  0
  2  3  1  0
  3  4  1  0
  4  5  2  0
  5  6  1  0
  6  7  1  0
  7  8  2  0
  7  9  2  0
  7 10  1  0
 10 11  1  0
 11 12  1  0
 12 13  1  0
 13 14  1  0
  6 15  2  0
 15 16  1  0
 16 17  2  0
 17 18  1  0
  2 19  1  0
 19 20  2  0
 20 21  1  0
 21 22  1  0
 22 23  1  0
 23 24  1  0
 24 25  1  0
 25 26  2  0
 26 27  1  0
 27 28  2  0
 28 29  1  0
 29 30  2  0
 23 31  1  0
 17  4  1  0
 31 19  1  0
 14 10  1  0
 30 25  1  0
  3 32  1  0
  5 33  1  0
 11 34  1  0
 11 35  1  0
 12 36  1  0
 12 37  1  0
 13 38  1  0
 13 39  1  0
 14 40  1  0
 14 41  1  0
 15 42  1  0
 16 43  1  0
 20 44  1  0
 21 45  1  0
 21 46  1  0
 22 47  1  0
 22 48  1  0
 24 49  1  0
 24 50  1  0
 26 51  1  0
 27 52  1  0
 28 53  1  0
 29 54  1  0
 30 55  1  0
 31 56  1  0
 31 57  1  0
M  CHG  1  18  -1
M  END
>  <UniqueID>  (35) 
33

>  <SMILES>  (35) 
O=C(Nc1cc(S(=O)(=O)N2CCCC2)ccc1[O-])C1=CCCN(Cc2ccccc2)C1

>  <Energy>  (35) 
73.66430919484827

>  <Genealogy>  (35) 
O=C(Nc1cc(S(=O)(=O)N2CCCC2)ccc1[O-])C1=CCCN(Cc2ccccc2)C1 (protonated)
O=C(Nc1cc(S(=O)(=O)N2CCCC2)ccc1[O-])C1=CCCN(Cc2ccccc2)C1 (3D coordinates assigned)
O=C(Nc1cc(S(=O)(=O)N2CCCC2)ccc1[O-])C1=CCCN(Cc2ccccc2)C1 (nonaromatic ring conformer: 73.66430919484827 kcal/mol)

>  <smiles>  (35) 
O=C(Nc1cc(S(=O)(=O)N2CCCC2)ccc1O)C1=CCCN(Cc2ccccc2)C1

>  <score_type>  (35) 
oracle

>  <origin>  (35) 
adgpu

>  <m_score__min__energy>  (35) 
-13.380000000000001

>  <m_primary>  (35) 
energy

$$$$
35:0
     RDKit          3D

 59 61  0  0  0  0  0  0  0  0999 V2000
   -3.5360   15.1220  -33.0230 C   0  0  0  0  0  0  0  0  0  0  0  0
   -4.4560   16.2230  -33.4680 C   0  0  0  0  0  0  0  0  0  0  0  0
   -4.0900   17.0480  -34.5420 C   0  0  0  0  0  0  0  0  0  0  0  0
   -4.9520   18.0610  -34.9730 C   0  0  0  0  0  0  0  0  0  0  0  0
   -6.1800   18.2550  -34.3360 C   0  0  0  0  0  0  0  0  0  0  0  0
   -6.5610   17.4400  -33.2620 C   0  0  0  0  0  0  0  0  0  0  0  0
   -7.8070   17.7090  -32.6070 N   0  0  0  0  0  0  0  0  0  0  0  0
   -8.3770   19.2860  -32.1530 S   0  0  0  0  0  0  0  0  0  0  0  0
   -9.0600   19.1870  -30.8180 O   0  0  0  0  0  0  0  0  0  0  0  0
   -9.3630   19.7690  -33.1790 O   0  0  0  0  0  0  0  0  0  0  0  0
   -7.0330   20.4200  -32.0730 C   0  0  0  0  0  0  0  0  0  0  0  0
   -7.2290   21.7680  -32.4010 C   0  0  0  0  0  0  0  0  0  0  0  0
   -6.1860   22.6860  -32.2540 C   0  0  0  0  0  0  0  0  0  0  0  0
   -4.9410   22.2730  -31.7620 C   0  0  0  0  0  0  0  0  0  0  0  0
   -3.9140   23.2580  -31.5770 N   0  0  0  0  0  0  0  0  0  0  0  0
   -3.6990   24.0440  -30.3990 C   0  0  0  0  0  0  0  0  0  0  0  0
   -3.8520   25.2960  -30.4250 O   0  0  0  0  0  0  0  0  0  0  0  0
   -3.2850   23.3910  -29.1910 N   0  0  0  0  0  0  0  0  0  0  0  0
   -2.6310   24.0640  -28.1010 C   0  0  0  0  0  0  0  0  0  0  0  0
   -3.3580   24.5660  -27.0090 C   0  0  0  0  0  0  0  0  0  0  0  0
   -2.7050   25.2420  -25.9740 C   0  0  0  0  0  0  0  0  0  0  0  0
   -1.3140   25.4380  -26.0180 C   0  0  0  0  0  0  0  0  0  0  0  0
   -0.6150   26.1610  -24.9250 C   0  0  0  0  0  0  0  0  0  0  0  0
   -0.1670   25.4000  -23.7950 N   0  0  0  0  0  0  0  0  0  0  0  0
   -0.4230   27.4570  -25.0260 N   0  0  0  0  0  0  0  0  0  0  0  0
    0.3070   28.3520  -24.1080 C   0  0  0  0  0  0  0  0  0  0  0  0
    1.6980   27.8150  -23.7560 C   0  0  0  0  0  0  0  0  0  0  0  0
    0.3120   29.8140  -24.5780 C   0  0  0  0  0  0  0  0  0  0  0  0
   -0.5930   24.9620  -27.1240 C   0  0  0  0  0  0  0  0  0  0  0  0
   -1.2470   24.2850  -28.1590 C   0  0  0  0  0  0  0  0  0  0  0  0
   -4.7300   20.9110  -31.4830 C   0  0  0  0  0  0  0  0  0  0  0  0
   -5.7730   19.9910  -31.6370 C   0  0  0  0  0  0  0  0  0  0  0  0
   -5.7040   16.4000  -32.8510 C   0  0  0  0  0  0  0  0  0  0  0  0
   -3.5084   15.0890  -31.9238 H   0  0  0  0  0  0  0  0  0  0  0  0
   -3.9021   14.1595  -33.4097 H   0  0  0  0  0  0  0  0  0  0  0  0
   -2.5237   15.3113  -33.4097 H   0  0  0  0  0  0  0  0  0  0  0  0
   -3.1237   16.8978  -35.0457 H   0  0  0  0  0  0  0  0  0  0  0  0
   -4.6626   18.7065  -35.8154 H   0  0  0  0  0  0  0  0  0  0  0  0
   -6.8531   19.0539  -34.6803 H   0  0  0  0  0  0  0  0  0  0  0  0
   -8.2070   22.1046  -32.7754 H   0  0  0  0  0  0  0  0  0  0  0  0
   -6.3435   23.7400  -32.5264 H   0  0  0  0  0  0  0  0  0  0  0  0
   -3.5020   22.3740  -29.0910 H   0  0  0  0  0  0  0  0  0  0  0  0
   -4.4483   24.4263  -26.9679 H   0  0  0  0  0  0  0  0  0  0  0  0
   -3.2837   25.6230  -25.1196 H   0  0  0  0  0  0  0  0  0  0  0  0
   -0.1440   24.3580  -23.8510 H   0  0  0  0  0  0  0  0  0  0  0  0
    0.1160   25.8160  -22.8890 H   0  0  0  0  0  0  0  0  0  0  0  0
   -0.8130   27.9400  -25.8680 H   0  0  0  0  0  0  0  0  0  0  0  0
   -0.2562   28.3589  -23.1632 H   0  0  0  0  0  0  0  0  0  0  0  0
    1.8086   27.7723  -22.6624 H   0  0  0  0  0  0  0  0  0  0  0  0
    1.8186   26.8057  -24.1764 H   0  0  0  0  0  0  0  0  0  0  0  0
    2.4655   28.4814  -24.1764 H   0  0  0  0  0  0  0  0  0  0  0  0
    0.3143   30.4805  -23.7029 H   0  0  0  0  0  0  0  0  0  0  0  0
    1.2108   30.0013  -25.1839 H   0  0  0  0  0  0  0  0  0  0  0  0
   -0.5855   30.0074  -25.1839 H   0  0  0  0  0  0  0  0  0  0  0  0
    0.4939   25.1223  -27.1775 H   0  0  0  0  0  0  0  0  0  0  0  0
   -0.6719   23.9235  -29.0242 H   0  0  0  0  0  0  0  0  0  0  0  0
   -3.7419   20.5677  -31.1426 H   0  0  0  0  0  0  0  0  0  0  0  0
   -5.6028   18.9272  -31.4149 H   0  0  0  0  0  0  0  0  0  0  0  0
   -6.0149   15.7228  -32.0418 H   0  0  0  0  0  0  0  0  0  0  0  0
  1  2  1  0
  2  3  2  0
  3  4  1  0
  4  5  2  0
  5  6  1  0
  6  7  1  0
  7  8  1  0
  8  9  2  0
  8 10  2  0
  8 11  1  0
 11 12  2  0
 12 13  1  0
 13 14  2  0
 14 15  1  0
 15 16  1  0
 16 17  2  0
 16 18  1  0
 18 19  1  0
 19 20  2  0
 20 21  1  0
 21 22  2  0
 22 23  1  0
 23 24  1  0
 23 25  2  3
 25 26  1  0
 26 27  1  0
 26 28  1  0
 22 29  1  0
 29 30  2  0
 14 31  1  0
 31 32  2  0
  6 33  2  0
 33  2  1  0
 32 11  1  0
 30 19  1  0
  1 34  1  0
  1 35  1  0
  1 36  1  0
  3 37  1  0
  4 38  1  0
  5 39  1  0
 12 40  1  0
 13 41  1  0
 18 42  1  0
 20 43  1  0
 21 44  1  0
 24 45  1  0
 24 46  1  0
 25 47  1  0
 26 48  1  0
 27 49  1  0
 27 50  1  0
 27 51  1  0
 28 52  1  0
 28 53  1  0
 28 54  1  0
 29 55  1  0
 30 56  1  0
 31 57  1  0
 32 58  1  0
 33 59  1  0
M  CHG  3   7  -1  15  -1  25   1
M  END
>  <UniqueID>  (36) 
34

>  <SMILES>  (36) 
Cc1cccc([N-]S(=O)(=O)c2ccc([N-]C(=O)Nc3ccc(C(N)=[NH+]C(C)C)cc3)cc2)c1

>  <Energy>  (36) 
76.77362215794616

>  <Genealogy>  (36) 
Cc1cccc([N-]S(=O)(=O)c2ccc([N-]C(=O)Nc3ccc(C(N)=[NH+]C(C)C)cc3)cc2)c1 (protonated)
Cc1cccc([N-]S(=O)(=O)c2ccc([N-]C(=O)Nc3ccc(C(N)=[NH+]C(C)C)cc3)cc2)c1 (3D coordinates assigned)
Cc1cccc([N-]S(=O)(=O)c2ccc([N-]C(=O)Nc3ccc(C(N)=[NH+]C(C)C)cc3)cc2)c1 (optimized conformer: 76.77362215794616 kcal/mol)

>  <smiles>  (36) 
Cc1cccc(NS(=O)(=O)c2ccc(NC(=O)Nc3ccc(C(N)=NC(C)C)cc3)cc2)c1

>  <score_type>  (36) 
oracle

>  <origin>  (36) 
adgpu

>  <m_score__min__energy>  (36) 
-12.9

>  <m_primary>  (36) 
energy

$$$$
36:0
     RDKit          3D

 67 70  0  0  1  0  0  0  0  0999 V2000
   -4.8860   25.1540  -30.4910 C   0  0  0  0  0  0  0  0  0  0  0  0
   -3.4850   24.9510  -30.3110 O   0  0  0  0  0  0  0  0  0  0  0  0
   -2.9960   24.4900  -29.1000 C   0  0  0  0  0  0  0  0  0  0  0  0
   -2.2130   25.2970  -28.2670 C   0  0  0  0  0  0  0  0  0  0  0  0
   -1.7260   24.8340  -27.0590 C   0  0  0  0  0  0  0  0  0  0  0  0
   -0.9210   25.6710  -26.2320 N   0  0  0  0  0  0  0  0  0  0  0  0
   -0.5550   25.2230  -24.9000 C   0  0  0  0  0  0  0  0  0  0  0  0
   -0.4560   26.3140  -23.8890 C   0  0  0  0  0  0  0  0  0  0  0  0
   -0.0330   27.5860  -24.3690 N   0  0  0  0  0  0  0  0  0  0  0  0
    1.3950   27.7020  -24.4900 C   0  0  0  0  0  0  0  0  0  0  0  0
   -0.7070   27.9900  -25.5670 C   0  0  0  0  0  0  0  0  0  0  0  0
   -0.4240   26.9610  -26.6480 C   0  0  0  0  0  0  0  0  0  0  0  0
   -2.0510   23.5370  -26.7210 C   0  0  0  0  0  0  0  0  0  0  0  0
   -2.8310   22.7250  -27.5460 C   0  0  0  0  0  0  0  0  0  0  0  0
   -3.3110   23.1960  -28.7480 C   0  0  0  0  0  0  0  0  0  0  0  0
   -4.1030   22.3780  -29.5960 N   0  0  0  0  0  0  0  0  0  0  0  0
   -3.5270   21.9040  -30.6760 C   0  0  0  0  0  0  0  0  0  0  0  0
   -2.2320   22.1980  -30.9440 N   0  0  0  0  0  0  0  0  0  0  0  0
   -1.6220   21.7160  -32.0580 C   0  0  0  0  0  0  0  0  0  0  0  0
   -2.3260   20.9150  -32.9320 C   0  0  0  0  0  0  0  0  0  0  0  0
   -1.5370   20.3120  -34.3420 Cl  0  0  0  0  0  0  0  0  0  0  0  0
   -3.6450   20.6140  -32.6600 C   0  0  0  0  0  0  0  0  0  0  0  0
   -4.3580   19.8570  -33.4580 N   0  0  0  0  0  0  0  0  0  0  0  0
   -5.6900   19.6290  -33.0630 C   0  0  0  0  0  0  0  0  0  0  0  0
   -6.5390   20.7390  -33.0600 C   0  0  0  0  0  0  0  0  0  0  0  0
   -7.8540   20.5980  -32.6530 C   0  0  0  0  0  0  0  0  0  0  0  0
   -8.2780   19.3460  -32.2600 C   0  0  0  0  0  0  0  0  0  0  0  0
   -7.4240   18.2600  -32.2700 C   0  0  0  0  0  0  0  0  0  0  0  0
   -6.0900   18.3850  -32.6800 C   0  0  0  0  0  0  0  0  0  0  0  0
   -5.1310   16.9450  -32.6840 S   0  0  0  0  0  0  0  0  0  0  0  0
   -5.4450   16.0600  -31.5080 O   0  0  0  0  0  0  0  0  0  0  0  0
   -3.6700   17.3220  -32.6680 O   0  0  0  0  0  0  0  0  0  0  0  0
   -5.4050   16.0230  -34.1640 C   0  0  0  0  0  0  0  0  0  0  0  0
   -4.5340   14.8330  -34.3470 C   0  0  0  0  0  0  0  0  0  0  0  0
   -6.8670   15.4920  -34.1560 C   0  0  0  0  0  0  0  0  0  0  0  0
   -4.2010   21.1280  -31.5270 N   0  0  0  0  0  0  0  0  0  0  0  0
   -5.3754   25.2249  -29.5084 H   0  0  0  0  0  0  0  0  0  0  0  0
   -5.0525   26.0856  -31.0517 H   0  0  0  0  0  0  0  0  0  0  0  0
   -5.3100   24.3079  -31.0517 H   0  0  0  0  0  0  0  0  0  0  0  0
   -1.9793   26.3250  -28.5812 H   0  0  0  0  0  0  0  0  0  0  0  0
   -1.3146   24.5047  -24.5578 H   0  0  0  0  0  0  0  0  0  0  0  0
    0.4482   24.7794  -24.9825 H   0  0  0  0  0  0  0  0  0  0  0  0
   -1.4501   26.4412  -23.4356 H   0  0  0  0  0  0  0  0  0  0  0  0
    0.3272   25.9915  -23.1872 H   0  0  0  0  0  0  0  0  0  0  0  0
    1.8462   27.7386  -23.4874 H   0  0  0  0  0  0  0  0  0  0  0  0
    1.7884   26.8329  -25.0376 H   0  0  0  0  0  0  0  0  0  0  0  0
    1.6430   28.6232  -25.0376 H   0  0  0  0  0  0  0  0  0  0  0  0
   -1.7900   28.0466  -25.3827 H   0  0  0  0  0  0  0  0  0  0  0  0
   -0.3495   28.9803  -25.8856 H   0  0  0  0  0  0  0  0  0  0  0  0
   -0.9241   27.2626  -27.5802 H   0  0  0  0  0  0  0  0  0  0  0  0
    0.6612   26.8971  -26.8158 H   0  0  0  0  0  0  0  0  0  0  0  0
   -1.6828   23.1283  -25.7684 H   0  0  0  0  0  0  0  0  0  0  0  0
   -3.0651   21.6969  -27.2325 H   0  0  0  0  0  0  0  0  0  0  0  0
   -1.6620   22.7870  -30.3290 H   0  0  0  0  0  0  0  0  0  0  0  0
   -0.5699   21.9639  -32.2621 H   0  0  0  0  0  0  0  0  0  0  0  0
   -6.1630   21.7219  -33.3802 H   0  0  0  0  0  0  0  0  0  0  0  0
   -8.5399   21.4579  -32.6432 H   0  0  0  0  0  0  0  0  0  0  0  0
   -9.3188   19.2090  -31.9314 H   0  0  0  0  0  0  0  0  0  0  0  0
   -7.7991   17.2769  -31.9495 H   0  0  0  0  0  0  0  0  0  0  0  0
   -5.1801   16.7252  -34.9803 H   0  0  0  0  0  0  0  0  0  0  0  0
   -4.2437   14.4363  -33.3630 H   0  0  0  0  0  0  0  0  0  0  0  0
   -5.0816   14.0604  -34.9068 H   0  0  0  0  0  0  0  0  0  0  0  0
   -3.6320   15.1214  -34.9068 H   0  0  0  0  0  0  0  0  0  0  0  0
   -7.2066   15.3687  -33.1170 H   0  0  0  0  0  0  0  0  0  0  0  0
   -7.5208   16.2101  -34.6727 H   0  0  0  0  0  0  0  0  0  0  0  0
   -6.9075   14.5217  -34.6727 H   0  0  0  0  0  0  0  0  0  0  0  0
   -5.1960   20.9190  -31.2940 H   0  0  0  0  0  0  0  0  0  0  0  0
  1  2  1  0
  2  3  1  0
  3  4  2  0
  4  5  1  0
  5  6  1  0
  6  7  1  0
  7  8  1  0
  8  9  1  0
  9 10  1  0
  9 11  1  0
 11 12  1  0
  5 13  2  0
 13 14  1  0
 14 15  2  0
 15 16  1  0
 16 17  2  0
 17 18  1  0
 18 19  1  0
 19 20  2  0
 20 21  1  0
 20 22  1  0
 22 23  2  0
 23 24  1  0
 24 25  2  0
 25 26  1  0
 26 27  2  0
 27 28  1  0
 28 29  2  0
 29 30  1  0
 30 31  2  0
 30 32  2  0
 30 33  1  0
 33 34  1  0
 33 35  1  0
 22 36  1  0
 15  3  1  0
 36 17  1  0
 12  6  1  0
 29 24  1  0
  1 37  1  0
  1 38  1  0
  1 39  1  0
  4 40  1  0
  7 41  1  0
  7 42  1  0
  8 43  1  0
  8 44  1  0
 10 45  1  0
 10 46  1  0
 10 47  1  0
 11 48  1  0
 11 49  1  0
 12 50  1  0
 12 51  1  0
 13 52  1  0
 14 53  1  0
 18 54  1  0
 19 55  1  0
 25 56  1  0
 26 57  1  0
 27 58  1  0
 28 59  1  0
 33 60  1  0
 34 61  1  0
 34 62  1  0
 34 63  1  0
 35 64  1  0
 35 65  1  0
 35 66  1  0
 36 67  1  0
M  END
>  <smiles>  (37) 
COc1cc(N2CCN(C)CC2)ccc1N=c1[nH]cc(Cl)c(=Nc2ccccc2S(=O)(=O)C(C)C)[nH]1

>  <score_type>  (37) 
oracle

>  <origin>  (37) 
adgpu

>  <m_score__min__energy>  (37) 
-10.31

>  <m_primary>  (37) 
energy

$$$$
37:0
     RDKit          3D

 52 55  0  0  0  0  0  0  0  0999 V2000
   -7.2010   15.4260  -34.1950 C   0  0  0  0  0  0  0  0  0  0  0  0
   -6.7640   16.7750  -33.7330 C   0  0  0  0  0  0  0  0  0  0  0  0
   -5.5010   17.2040  -33.9880 N   0  0  0  0  0  0  0  0  0  0  0  0
   -5.0740   18.4400  -33.6130 C   0  0  0  0  0  0  0  0  0  0  0  0
   -3.6590   18.8330  -33.9280 C   0  0  0  0  0  0  0  0  0  0  0  0
   -5.9690   19.3070  -32.9490 C   0  0  0  0  0  0  0  0  0  0  0  0
   -5.6100   20.6040  -32.5250 C   0  0  0  0  0  0  0  0  0  0  0  0
   -6.5470   21.4160  -31.8730 C   0  0  0  0  0  0  0  0  0  0  0  0
   -6.1760   22.7360  -31.4350 C   0  0  0  0  0  0  0  0  0  0  0  0
   -5.8680   23.8420  -31.0660 C   0  0  0  0  0  0  0  0  0  0  0  0
   -5.4890   25.1850  -30.6190 C   0  0  0  0  0  0  0  0  0  0  0  0
   -4.0480   25.2500  -30.4020 N   0  0  0  0  0  0  0  0  0  0  0  0
   -3.2030   24.0950  -30.3320 C   0  0  0  0  0  0  0  0  0  0  0  0
   -2.9870   23.4200  -31.3760 O   0  0  0  0  0  0  0  0  0  0  0  0
   -2.5860   23.7000  -29.0370 C   0  0  0  0  0  0  0  0  0  0  0  0
   -3.1500   22.6630  -28.2830 C   0  0  0  0  0  0  0  0  0  0  0  0
   -2.6050   22.3030  -27.0970 N   0  0  0  0  0  0  0  0  0  0  0  0
   -1.5030   22.9250  -26.6110 C   0  0  0  0  0  0  0  0  0  0  0  0
   -0.9080   23.9330  -27.3150 N   0  0  0  0  0  0  0  0  0  0  0  0
    0.2730   24.6020  -26.7430 C   0  0  0  0  0  0  0  0  0  0  0  0
   -0.0960   25.9680  -26.2270 C   0  0  0  0  0  0  0  0  0  0  0  0
   -0.6380   26.1120  -24.9390 C   0  0  0  0  0  0  0  0  0  0  0  0
   -1.0060   27.3760  -24.4670 C   0  0  0  0  0  0  0  0  0  0  0  0
   -0.8420   28.5030  -25.2800 C   0  0  0  0  0  0  0  0  0  0  0  0
   -1.2000   29.7270  -24.8180 F   0  0  0  0  0  0  0  0  0  0  0  0
   -0.3100   28.3660  -26.5660 C   0  0  0  0  0  0  0  0  0  0  0  0
   -0.1520   29.4570  -27.3550 F   0  0  0  0  0  0  0  0  0  0  0  0
    0.0600   27.1030  -27.0400 C   0  0  0  0  0  0  0  0  0  0  0  0
   -1.4370   24.3360  -28.5160 C   0  0  0  0  0  0  0  0  0  0  0  0
   -0.8910   25.2740  -29.1600 O   0  0  0  0  0  0  0  0  0  0  0  0
   -7.8450   20.9450  -31.6430 C   0  0  0  0  0  0  0  0  0  0  0  0
   -8.2110   19.6630  -32.0600 C   0  0  0  0  0  0  0  0  0  0  0  0
   -7.2820   18.8440  -32.7090 C   0  0  0  0  0  0  0  0  0  0  0  0
   -7.6450   17.5980  -33.1090 N   0  0  0  0  0  0  0  0  0  0  0  0
   -7.4074   14.7887  -33.3225 H   0  0  0  0  0  0  0  0  0  0  0  0
   -8.1134   15.5239  -34.8016 H   0  0  0  0  0  0  0  0  0  0  0  0
   -6.4045   14.9704  -34.8016 H   0  0  0  0  0  0  0  0  0  0  0  0
   -3.1040   18.9871  -32.9909 H   0  0  0  0  0  0  0  0  0  0  0  0
   -3.1780   18.0345  -34.5119 H   0  0  0  0  0  0  0  0  0  0  0  0
   -3.6587   19.7652  -34.5119 H   0  0  0  0  0  0  0  0  0  0  0  0
   -4.5918   20.9785  -32.7069 H   0  0  0  0  0  0  0  0  0  0  0  0
   -5.7753   25.9189  -31.3868 H   0  0  0  0  0  0  0  0  0  0  0  0
   -6.0070   25.4113  -29.6753 H   0  0  0  0  0  0  0  0  0  0  0  0
   -4.0413   22.1378  -28.6568 H   0  0  0  0  0  0  0  0  0  0  0  0
   -1.0846   22.6155  -25.6419 H   0  0  0  0  0  0  0  0  0  0  0  0
    0.6670   23.9957  -25.9141 H   0  0  0  0  0  0  0  0  0  0  0  0
    1.0362   24.7111  -27.5276 H   0  0  0  0  0  0  0  0  0  0  0  0
   -0.7734   25.2274  -24.2994 H   0  0  0  0  0  0  0  0  0  0  0  0
   -1.4248   27.4843  -23.4556 H   0  0  0  0  0  0  0  0  0  0  0  0
    0.4748   26.9981  -28.0534 H   0  0  0  0  0  0  0  0  0  0  0  0
   -8.5787   21.5861  -31.1325 H   0  0  0  0  0  0  0  0  0  0  0  0
   -9.2322   19.2971  -31.8774 H   0  0  0  0  0  0  0  0  0  0  0  0
  1  2  1  0
  2  3  2  0
  3  4  1  0
  4  5  1  0
  4  6  2  0
  6  7  1  0
  7  8  2  0
  8  9  1  0
  9 10  3  0
 10 11  1  0
 11 12  1  0
 12 13  1  0
 13 14  2  0
 13 15  1  0
 15 16  2  0
 16 17  1  0
 17 18  2  0
 18 19  1  0
 19 20  1  0
 20 21  1  0
 21 22  2  0
 22 23  1  0
 23 24  2  0
 24 25  1  0
 24 26  1  0
 26 27  1  0
 26 28  2  0
 19 29  1  0
 29 30  2  0
  8 31  1  0
 31 32  2  0
 32 33  1  0
 33 34  2  0
 34  2  1  0
 33  6  1  0
 29 15  1  0
 28 21  1  0
  1 35  1  0
  1 36  1  0
  1 37  1  0
  5 38  1  0
  5 39  1  0
  5 40  1  0
  7 41  1  0
 11 42  1  0
 11 43  1  0
 16 44  1  0
 18 45  1  0
 20 46  1  0
 20 47  1  0
 22 48  1  0
 23 49  1  0
 28 50  1  0
 31 51  1  0
 32 52  1  0
M  CHG  1  12  -1
M  END
>  <UniqueID>  (38) 
35

>  <SMILES>  (38) 
Cc1nc(C)c2cc(C#CC[N-]C(=O)c3cncn(Cc4ccc(F)c(F)c4)c3=O)ccc2n1

>  <Energy>  (38) 
57.364070600585194

>  <Genealogy>  (38) 
Cc1nc(C)c2cc(C#CC[N-]C(=O)c3cncn(Cc4ccc(F)c(F)c4)c3=O)ccc2n1 (protonated)
Cc1nc(C)c2cc(C#CC[N-]C(=O)c3cncn(Cc4ccc(F)c(F)c4)c3=O)ccc2n1 (3D coordinates assigned)
Cc1nc(C)c2cc(C#CC[N-]C(=O)c3cncn(Cc4ccc(F)c(F)c4)c3=O)ccc2n1 (optimized conformer: 57.364070600585194 kcal/mol)

>  <smiles>  (38) 
Cc1nc(C)c2cc(C#CCNC(=O)c3cncn(Cc4ccc(F)c(F)c4)c3=O)ccc2n1

>  <score_type>  (38) 
oracle

>  <origin>  (38) 
adgpu

>  <m_score__min__energy>  (38) 
-11.24

>  <m_primary>  (38) 
energy

$$$$
38:0
     RDKit          3D

 60 63  0  0  1  0  0  0  0  0999 V2000
   -4.6700   14.6050  -31.6670 C   0  0  0  0  0  0  0  0  0  0  0  0
   -4.8890   15.9650  -32.2570 C   0  0  0  0  0  0  0  0  0  0  0  0
   -6.0500   16.6430  -31.8840 C   0  0  0  0  0  0  0  0  0  0  0  0
   -6.2500   17.8970  -32.4290 C   0  0  0  0  0  0  0  0  0  0  0  0
   -7.3180   18.5240  -32.0870 N   0  0  0  0  0  0  0  0  0  0  0  0
   -7.6090   20.1000  -32.7470 S   0  0  0  0  0  0  0  0  0  0  0  0
   -9.0290   20.5200  -32.6310 O   0  0  0  0  0  0  0  0  0  0  0  0
   -7.1810   20.0930  -34.1990 O   0  0  0  0  0  0  0  0  0  0  0  0
   -6.5960   21.2200  -31.8530 C   0  0  0  0  0  0  0  0  0  0  0  0
   -7.0800   22.4130  -31.3480 C   0  0  0  0  0  0  0  0  0  0  0  0
   -6.2470   23.2800  -30.6420 C   0  0  0  0  0  0  0  0  0  0  0  0
   -4.9280   22.9110  -30.4620 C   0  0  0  0  0  0  0  0  0  0  0  0
   -3.9850   23.7120  -29.7590 N   0  0  0  0  0  0  0  0  0  0  0  0
   -3.8440   23.5850  -28.3460 C   0  0  0  0  0  0  0  0  0  0  0  0
   -4.6030   22.7280  -27.7940 O   0  0  0  0  0  0  0  0  0  0  0  0
   -2.9060   24.3710  -27.5880 C   0  0  0  0  0  0  0  0  0  0  0  0
   -3.1810   24.9360  -26.3590 C   0  0  0  0  0  0  0  0  0  0  0  0
   -2.2460   25.6850  -25.6680 C   0  0  0  0  0  0  0  0  0  0  0  0
   -0.9810   25.8990  -26.1890 C   0  0  0  0  0  0  0  0  0  0  0  0
    0.2130   26.8450  -25.3260 S   0  0  0  0  0  0  0  0  0  0  0  0
    1.5050   26.1060  -25.1870 O   0  0  0  0  0  0  0  0  0  0  0  0
   -0.2990   27.0750  -23.9150 O   0  0  0  0  0  0  0  0  0  0  0  0
    0.4490   28.3960  -26.0220 N   0  0  0  0  0  0  0  0  0  0  0  0
   -0.4510   28.6480  -27.1280 C   0  0  0  0  0  0  0  0  0  0  0  0
   -0.8340   30.1160  -27.0240 C   0  0  0  0  0  0  0  0  0  0  0  0
   -0.8800   30.2850  -25.5200 C   0  0  0  0  0  0  0  0  0  0  0  0
    0.2910   29.4490  -25.0680 C   0  0  0  0  0  0  0  0  0  0  0  0
   -0.6960   25.3320  -27.4280 C   0  0  0  0  0  0  0  0  0  0  0  0
   -1.6440   24.5880  -28.1020 C   0  0  0  0  0  0  0  0  0  0  0  0
   -4.4310   21.7040  -30.9710 C   0  0  0  0  0  0  0  0  0  0  0  0
   -5.2700   20.8570  -31.6680 C   0  0  0  0  0  0  0  0  0  0  0  0
   -5.3430   18.4080  -33.2790 N   0  0  0  0  0  0  0  0  0  0  0  0
   -4.2250   17.7460  -33.6320 C   0  0  0  0  0  0  0  0  0  0  0  0
   -3.2170   18.2910  -34.5640 C   0  0  0  0  0  0  0  0  0  0  0  0
   -4.0090   16.5190  -33.1120 N   0  0  0  0  0  0  0  0  0  0  0  0
   -4.6813   14.6754  -30.5693 H   0  0  0  0  0  0  0  0  0  0  0  0
   -5.4707   13.9279  -31.9993 H   0  0  0  0  0  0  0  0  0  0  0  0
   -3.6972   14.2135  -31.9993 H   0  0  0  0  0  0  0  0  0  0  0  0
   -6.7749   16.1985  -31.1862 H   0  0  0  0  0  0  0  0  0  0  0  0
   -8.1351   22.6812  -31.5052 H   0  0  0  0  0  0  0  0  0  0  0  0
   -6.6289   24.2301  -30.2401 H   0  0  0  0  0  0  0  0  0  0  0  0
   -3.4050   24.3890  -30.3000 H   0  0  0  0  0  0  0  0  0  0  0  0
   -4.1760   24.7857  -25.9148 H   0  0  0  0  0  0  0  0  0  0  0  0
   -2.5108   26.1165  -24.6914 H   0  0  0  0  0  0  0  0  0  0  0  0
    0.0537   28.4507  -28.0852 H   0  0  0  0  0  0  0  0  0  0  0  0
   -1.3352   27.9949  -27.0874 H   0  0  0  0  0  0  0  0  0  0  0  0
   -0.0750   30.7669  -27.4825 H   0  0  0  0  0  0  0  0  0  0  0  0
   -1.7659   30.3839  -27.5435 H   0  0  0  0  0  0  0  0  0  0  0  0
   -0.7514   31.3392  -25.2332 H   0  0  0  0  0  0  0  0  0  0  0  0
   -1.8375   29.9819  -25.0713 H   0  0  0  0  0  0  0  0  0  0  0  0
    1.2020   30.0644  -25.0310 H   0  0  0  0  0  0  0  0  0  0  0  0
    0.1160   29.0420  -24.0611 H   0  0  0  0  0  0  0  0  0  0  0  0
    0.2978   25.4786  -27.8761 H   0  0  0  0  0  0  0  0  0  0  0  0
   -1.3851   24.1547  -29.0793 H   0  0  0  0  0  0  0  0  0  0  0  0
   -3.3765   21.4320  -30.8160 H   0  0  0  0  0  0  0  0  0  0  0  0
   -4.8915   19.9063  -32.0715 H   0  0  0  0  0  0  0  0  0  0  0  0
   -2.3911   18.7375  -33.9908 H   0  0  0  0  0  0  0  0  0  0  0  0
   -2.8274   17.4806  -35.1976 H   0  0  0  0  0  0  0  0  0  0  0  0
   -3.6818   19.0607  -35.1976 H   0  0  0  0  0  0  0  0  0  0  0  0
   -3.1440   15.9830  -33.3740 H   0  0  0  0  0  0  0  0  0  0  0  0
  1  2  1  0
  2  3  2  0
  3  4  1  0
  4  5  2  0
  5  6  1  0
  6  7  2  0
  6  8  2  0
  6  9  1  0
  9 10  2  0
 10 11  1  0
 11 12  2  0
 12 13  1  0
 13 14  1  0
 14 15  2  0
 14 16  1  0
 16 17  2  0
 17 18  1  0
 18 19  2  0
 19 20  1  0
 20 21  2  0
 20 22  2  0
 20 23  1  0
 23 24  1  0
 24 25  1  0
 25 26  1  0
 26 27  1  0
 19 28  1  0
 28 29  2  0
 12 30  1  0
 30 31  2  0
  4 32  1  0
 32 33  2  0
 33 34  1  0
 33 35  1  0
 35  2  1  0
 31  9  1  0
 29 16  1  0
 27 23  1  0
  1 36  1  0
  1 37  1  0
  1 38  1  0
  3 39  1  0
 10 40  1  0
 11 41  1  0
 13 42  1  0
 17 43  1  0
 18 44  1  0
 24 45  1  0
 24 46  1  0
 25 47  1  0
 25 48  1  0
 26 49  1  0
 26 50  1  0
 27 51  1  0
 27 52  1  0
 28 53  1  0
 29 54  1  0
 30 55  1  0
 31 56  1  0
 34 57  1  0
 34 58  1  0
 34 59  1  0
 35 60  1  0
M  END
>  <smiles>  (39) 
Cc1cc(=NS(=O)(=O)c2ccc(NC(=O)c3ccc(S(=O)(=O)N4CCCC4)cc3)cc2)nc(C)[nH]1

>  <score_type>  (39) 
oracle

>  <origin>  (39) 
adgpu

>  <m_score__min__energy>  (39) 
-9.7400000000000002

>  <m_primary>  (39) 
energy

$$$$
39:0
     RDKit          3D

 44 46  0  0  0  0  0  0  0  0999 V2000
   -5.7100   18.5710  -34.3320 H   0  0  0  0  0  0  0  0  0  0  0  0
   -6.5630   18.2840  -33.8020 N   0  0  0  0  0  0  0  0  0  0  0  0
   -7.2410   19.1140  -33.0750 C   0  0  0  0  0  0  0  0  0  0  0  0
   -8.3440   18.6750  -32.4120 N   0  0  0  0  0  0  0  0  0  0  0  0
   -9.0910   19.5030  -31.6350 C   0  0  0  0  0  0  0  0  0  0  0  0
   -9.9740   19.1125  -31.1080 H   0  0  0  0  0  0  0  0  0  0  0  0
   -8.7400   20.8490  -31.5040 C   0  0  0  0  0  0  0  0  0  0  0  0
   -9.3377   21.5195  -30.8691 H   0  0  0  0  0  0  0  0  0  0  0  0
   -7.6180   21.3370  -32.1900 C   0  0  0  0  0  0  0  0  0  0  0  0
   -7.2170   22.6760  -32.0870 O   0  0  0  0  0  0  0  0  0  0  0  0
   -6.0460   23.1260  -31.4570 C   0  0  0  0  0  0  0  0  0  0  0  0
   -4.9340   22.2780  -31.4260 C   0  0  0  0  0  0  0  0  0  0  0  0
   -5.0008   21.2726  -31.8673 H   0  0  0  0  0  0  0  0  0  0  0  0
   -3.7390   22.7000  -30.8380 C   0  0  0  0  0  0  0  0  0  0  0  0
   -2.8795   22.0148  -30.7958 H   0  0  0  0  0  0  0  0  0  0  0  0
   -3.6270   23.9910  -30.3010 C   0  0  0  0  0  0  0  0  0  0  0  0
   -2.3810   24.4010  -29.7180 N   0  0  0  0  0  0  0  0  0  0  0  0
   -1.5730   24.5470  -30.3650 H   0  0  0  0  0  0  0  0  0  0  0  0
   -2.2590   24.8970  -28.3730 C   0  0  0  0  0  0  0  0  0  0  0  0
   -3.0900   24.5640  -27.4890 O   0  0  0  0  0  0  0  0  0  0  0  0
   -1.1690   25.7500  -28.0060 N   0  0  0  0  0  0  0  0  0  0  0  0
   -0.9880   26.3760  -26.7260 C   0  0  0  0  0  0  0  0  0  0  0  0
   -1.0220   25.5840  -25.5730 C   0  0  0  0  0  0  0  0  0  0  0  0
   -1.1771   24.4984  -25.6590 H   0  0  0  0  0  0  0  0  0  0  0  0
   -0.8600   26.1650  -24.3140 C   0  0  0  0  0  0  0  0  0  0  0  0
   -0.8764   25.5341  -23.4131 H   0  0  0  0  0  0  0  0  0  0  0  0
   -0.6770   27.5460  -24.1940 C   0  0  0  0  0  0  0  0  0  0  0  0
   -0.5261   27.9939  -23.2007 H   0  0  0  0  0  0  0  0  0  0  0  0
   -0.6850   28.3650  -25.3370 C   0  0  0  0  0  0  0  0  0  0  0  0
   -0.4260   29.8520  -25.2180 C   0  0  0  0  0  0  0  0  0  0  0  0
    0.7020   30.0850  -24.4440 F   0  0  0  0  0  0  0  0  0  0  0  0
   -1.4990   30.4810  -24.6060 F   0  0  0  0  0  0  0  0  0  0  0  0
   -0.2160   30.4590  -26.6030 C   0  0  0  0  0  0  0  0  0  0  0  0
    0.1420   31.4939  -26.4993 H   0  0  0  0  0  0  0  0  0  0  0  0
    0.5294   29.8666  -27.1538 H   0  0  0  0  0  0  0  0  0  0  0  0
   -1.1682   30.4539  -27.1538 H   0  0  0  0  0  0  0  0  0  0  0  0
   -0.8410   27.7700  -26.6020 C   0  0  0  0  0  0  0  0  0  0  0  0
   -0.8482   28.4006  -27.5033 H   0  0  0  0  0  0  0  0  0  0  0  0
   -4.7480   24.8390  -30.3180 C   0  0  0  0  0  0  0  0  0  0  0  0
   -4.6828   25.8413  -29.8695 H   0  0  0  0  0  0  0  0  0  0  0  0
   -5.9450   24.4150  -30.9020 C   0  0  0  0  0  0  0  0  0  0  0  0
   -6.8117   25.0919  -30.9278 H   0  0  0  0  0  0  0  0  0  0  0  0
   -6.8530   20.4590  -32.9640 C   0  0  0  0  0  0  0  0  0  0  0  0
   -5.9526   20.8197  -33.4828 H   0  0  0  0  0  0  0  0  0  0  0  0
  1  2  1  0
  2  3  2  0
  3  4  1  0
  4  5  1  0
  5  6  1  0
  5  7  2  0
  7  8  1  0
  7  9  1  0
  9 10  1  0
 10 11  1  0
 11 12  2  0
 12 13  1  0
 12 14  1  0
 14 15  1  0
 14 16  2  0
 16 17  1  0
 17 18  1  0
 17 19  1  0
 19 20  2  0
 19 21  1  0
 21 22  1  0
 22 23  2  0
 23 24  1  0
 23 25  1  0
 25 26  1  0
 25 27  2  0
 27 28  1  0
 27 29  1  0
 29 30  1  0
 30 31  1  0
 30 32  1  0
 30 33  1  0
 33 34  1  0
 33 35  1  0
 33 36  1  0
 29 37  2  0
 37 38  1  0
 16 39  1  0
 39 40  1  0
 39 41  2  0
 41 42  1  0
  9 43  2  0
 43 44  1  0
 43  3  1  0
 41 11  1  0
 37 22  1  0
M  CHG  2   4  -1  21  -1
M  END
>  <UniqueID>  (40) 
36

>  <SMILES>  (40) 
[H]/N=c1\cc(Oc2ccc(NC(=O)[N-]c3cccc(C(C)(F)F)c3)cc2)cc[n-]1

>  <Energy>  (40) 
60.786581479828506

>  <Genealogy>  (40) 
CC(F)(F)c1cccc([N-]C(=O)Nc2ccc(Oc3cc[n-]c(=N)c3)cc2)c1 (protonated)
[H]/N=c1\cc(Oc2ccc(NC(=O)[N-]c3cccc(C(C)(F)F)c3)cc2)cc[n-]1 (cis-trans isomerization)
[H]/N=c1\cc(Oc2ccc(NC(=O)[N-]c3cccc(C(C)(F)F)c3)cc2)cc[n-]1 (3D coordinates assigned)
[H]/N=c1\cc(Oc2ccc(NC(=O)[N-]c3cccc(C(C)(F)F)c3)cc2)cc[n-]1 (optimized conformer: 60.786581479828506 kcal/mol)

>  <smiles>  (40) 
CC(F)(F)c1cccc(NC(=O)Nc2ccc(Oc3cc[nH]c(=N)c3)cc2)c1

>  <score_type>  (40) 
oracle

>  <origin>  (40) 
adgpu

>  <m_score__min__energy>  (40) 
-9.5099999999999998

>  <m_primary>  (40) 
energy

$$$$
40:0
     RDKit          3D

 40 41  0  0  0  0  0  0  0  0999 V2000
    0.2800   17.8390  -27.4650 C   0  0  0  0  0  0  0  0  0  0  0  0
   -0.8890   18.7640  -27.5590 C   0  0  0  0  0  0  0  0  0  0  0  0
   -2.0010   18.4090  -27.0820 O   0  0  0  0  0  0  0  0  0  0  0  0
   -0.7200   20.0700  -28.1340 N   0  0  0  0  0  0  0  0  0  0  0  0
   -1.8020   20.9800  -28.3990 C   0  0  0  0  0  0  0  0  0  0  0  0
   -2.6580   20.8010  -29.4990 C   0  0  0  0  0  0  0  0  0  0  0  0
   -3.6780   21.7200  -29.7580 C   0  0  0  0  0  0  0  0  0  0  0  0
   -3.8560   22.8420  -28.9330 C   0  0  0  0  0  0  0  0  0  0  0  0
   -4.8620   23.8120  -29.2770 N   0  0  0  0  0  0  0  0  0  0  0  0
   -4.8630   24.5530  -30.5020 C   0  0  0  0  0  0  0  0  0  0  0  0
   -3.8920   25.3030  -30.7840 O   0  0  0  0  0  0  0  0  0  0  0  0
   -5.9650   24.4630  -31.4070 N   0  0  0  0  0  0  0  0  0  0  0  0
   -7.2180   23.2770  -31.2340 S   0  0  0  0  0  0  0  0  0  0  0  0
   -8.4830   23.7930  -31.8580 O   0  0  0  0  0  0  0  0  0  0  0  0
   -7.4600   23.0200  -29.7730 O   0  0  0  0  0  0  0  0  0  0  0  0
   -6.7410   21.7950  -32.0620 C   0  0  0  0  0  0  0  0  0  0  0  0
   -5.4290   21.6220  -32.5230 C   0  0  0  0  0  0  0  0  0  0  0  0
   -5.0860   20.4840  -33.2600 C   0  0  0  0  0  0  0  0  0  0  0  0
   -6.0500   19.5010  -33.5320 C   0  0  0  0  0  0  0  0  0  0  0  0
   -5.7030   18.3110  -34.3760 C   0  0  0  0  0  0  0  0  0  0  0  0
   -7.3650   19.6780  -33.0740 C   0  0  0  0  0  0  0  0  0  0  0  0
   -7.7060   20.8180  -32.3380 C   0  0  0  0  0  0  0  0  0  0  0  0
   -2.9850   23.0310  -27.8450 C   0  0  0  0  0  0  0  0  0  0  0  0
   -1.9650   22.1100  -27.5860 C   0  0  0  0  0  0  0  0  0  0  0  0
    0.5158   17.6524  -26.4069 H   0  0  0  0  0  0  0  0  0  0  0  0
    0.0352   16.8874  -27.9594 H   0  0  0  0  0  0  0  0  0  0  0  0
    1.1499   18.2960  -27.9594 H   0  0  0  0  0  0  0  0  0  0  0  0
    0.2560   20.4110  -28.2870 H   0  0  0  0  0  0  0  0  0  0  0  0
   -2.5242   19.9321  -30.1601 H   0  0  0  0  0  0  0  0  0  0  0  0
   -4.3478   21.5630  -30.6163 H   0  0  0  0  0  0  0  0  0  0  0  0
   -5.7200   23.8700  -28.6830 H   0  0  0  0  0  0  0  0  0  0  0  0
   -4.6663   22.3839  -32.3044 H   0  0  0  0  0  0  0  0  0  0  0  0
   -4.0569   20.3589  -33.6278 H   0  0  0  0  0  0  0  0  0  0  0  0
   -5.4548   17.4597  -33.7251 H   0  0  0  0  0  0  0  0  0  0  0  0
   -6.5621   18.0488  -35.0110 H   0  0  0  0  0  0  0  0  0  0  0  0
   -4.8376   18.5516  -35.0110 H   0  0  0  0  0  0  0  0  0  0  0  0
   -8.1295   18.9184  -33.2943 H   0  0  0  0  0  0  0  0  0  0  0  0
   -8.7361   20.9475  -31.9746 H   0  0  0  0  0  0  0  0  0  0  0  0
   -3.1069   23.9089  -27.1936 H   0  0  0  0  0  0  0  0  0  0  0  0
   -1.2849   22.2738  -26.7371 H   0  0  0  0  0  0  0  0  0  0  0  0
  1  2  1  0
  2  3  2  0
  2  4  1  0
  4  5  1  0
  5  6  2  0
  6  7  1  0
  7  8  2  0
  8  9  1  0
  9 10  1  0
 10 11  2  0
 10 12  1  0
 12 13  1  0
 13 14  2  0
 13 15  2  0
 13 16  1  0
 16 17  2  0
 17 18  1  0
 18 19  2  0
 19 20  1  0
 19 21  1  0
 21 22  2  0
  8 23  1  0
 23 24  2  0
 24  5  1  0
 22 16  1  0
  1 25  1  0
  1 26  1  0
  1 27  1  0
  4 28  1  0
  6 29  1  0
  7 30  1  0
  9 31  1  0
 17 32  1  0
 18 33  1  0
 20 34  1  0
 20 35  1  0
 20 36  1  0
 21 37  1  0
 22 38  1  0
 23 39  1  0
 24 40  1  0
M  CHG  1  12  -1
M  END
>  <UniqueID>  (41) 
37

>  <SMILES>  (41) 
CC(=O)Nc1ccc(NC(=O)[N-]S(=O)(=O)c2ccc(C)cc2)cc1

>  <Energy>  (41) 
44.1648560457765

>  <Genealogy>  (41) 
CC(=O)Nc1ccc(NC(=O)[N-]S(=O)(=O)c2ccc(C)cc2)cc1 (protonated)
CC(=O)Nc1ccc(NC(=O)[N-]S(=O)(=O)c2ccc(C)cc2)cc1 (3D coordinates assigned)
CC(=O)Nc1ccc(NC(=O)[N-]S(=O)(=O)c2ccc(C)cc2)cc1 (optimized conformer: 44.1648560457765 kcal/mol)

>  <smiles>  (41) 
CC(=O)Nc1ccc(NC(=O)NS(=O)(=O)c2ccc(C)cc2)cc1

>  <score_type>  (41) 
oracle

>  <origin>  (41) 
adgpu

>  <m_score__min__energy>  (41) 
-9.8100000000000005

>  <m_primary>  (41) 
energy

$$$$
41:0
     RDKit          3D

 58 60  0  0  0  0  0  0  0  0999 V2000
   -0.4680   27.6830  -26.4430 C   0  0  0  0  0  0  0  0  0  0  0  0
    0.2820   26.9990  -27.4440 O   0  0  0  0  0  0  0  0  0  0  0  0
    0.5690   25.6250  -27.4300 C   0  0  0  0  0  0  0  0  0  0  0  0
    1.8780   25.1520  -27.2110 C   0  0  0  0  0  0  0  0  0  0  0  0
    2.1270   23.7810  -27.1130 C   0  0  0  0  0  0  0  0  0  0  0  0
    1.0800   22.8670  -27.2330 C   0  0  0  0  0  0  0  0  0  0  0  0
   -0.2170   23.3200  -27.4650 C   0  0  0  0  0  0  0  0  0  0  0  0
   -0.4820   24.6900  -27.5940 C   0  0  0  0  0  0  0  0  0  0  0  0
   -1.8480   25.0880  -27.7640 N   0  0  0  0  0  0  0  0  0  0  0  0
   -2.9110   24.9750  -26.8090 C   0  0  0  0  0  0  0  0  0  0  0  0
   -2.7930   25.4740  -25.6590 O   0  0  0  0  0  0  0  0  0  0  0  0
   -4.2210   24.3630  -27.2120 C   0  0  0  0  0  0  0  0  0  0  0  0
   -4.1500   23.7650  -28.5490 N   0  0  0  0  0  0  0  0  0  0  0  0
   -3.2780   22.6500  -28.7900 C   0  0  0  0  0  0  0  0  0  0  0  0
   -2.5490   22.5680  -29.9790 C   0  0  0  0  0  0  0  0  0  0  0  0
   -1.7060   21.4820  -30.2190 C   0  0  0  0  0  0  0  0  0  0  0  0
   -1.5920   20.4470  -29.2730 C   0  0  0  0  0  0  0  0  0  0  0  0
   -0.7590   19.3360  -29.4810 O   0  0  0  0  0  0  0  0  0  0  0  0
    0.3800   19.0240  -28.6820 C   0  0  0  0  0  0  0  0  0  0  0  0
   -2.3340   20.5130  -28.0860 C   0  0  0  0  0  0  0  0  0  0  0  0
   -2.2130   19.4570  -27.1670 O   0  0  0  0  0  0  0  0  0  0  0  0
   -3.2840   18.9480  -26.3710 C   0  0  0  0  0  0  0  0  0  0  0  0
   -3.1760   21.6180  -27.8510 C   0  0  0  0  0  0  0  0  0  0  0  0
   -5.1000   24.4210  -29.8550 S   0  0  0  0  0  0  0  0  0  0  0  0
   -4.2120   25.0960  -30.8630 O   0  0  0  0  0  0  0  0  0  0  0  0
   -6.0500   25.4470  -29.3040 O   0  0  0  0  0  0  0  0  0  0  0  0
   -6.0010   23.1310  -30.6500 C   0  0  0  0  0  0  0  0  0  0  0  0
   -5.4720   22.4790  -31.7740 C   0  0  0  0  0  0  0  0  0  0  0  0
   -6.2130   21.4890  -32.4310 C   0  0  0  0  0  0  0  0  0  0  0  0
   -7.4830   21.1280  -31.9590 C   0  0  0  0  0  0  0  0  0  0  0  0
   -8.3140   20.1090  -32.6810 C   0  0  0  0  0  0  0  0  0  0  0  0
   -8.0000   21.7690  -30.8280 C   0  0  0  0  0  0  0  0  0  0  0  0
   -7.2580   22.7580  -30.1710 C   0  0  0  0  0  0  0  0  0  0  0  0
   -0.1229   27.3682  -25.4471 H   0  0  0  0  0  0  0  0  0  0  0  0
   -0.3247   28.7679  -26.5548 H   0  0  0  0  0  0  0  0  0  0  0  0
   -1.5351   27.4407  -26.5548 H   0  0  0  0  0  0  0  0  0  0  0  0
    2.7089   25.8667  -27.1166 H   0  0  0  0  0  0  0  0  0  0  0  0
    3.1520   23.4209  -26.9406 H   0  0  0  0  0  0  0  0  0  0  0  0
    1.2784   21.7887  -27.1445 H   0  0  0  0  0  0  0  0  0  0  0  0
   -1.0406   22.5955  -27.5477 H   0  0  0  0  0  0  0  0  0  0  0  0
   -4.4883   23.5816  -26.4854 H   0  0  0  0  0  0  0  0  0  0  0  0
   -4.9804   25.1586  -27.2313 H   0  0  0  0  0  0  0  0  0  0  0  0
   -2.6401   23.3652  -30.7314 H   0  0  0  0  0  0  0  0  0  0  0  0
   -1.1273   21.4350  -31.1533 H   0  0  0  0  0  0  0  0  0  0  0  0
    0.1124   19.0973  -27.6176 H   0  0  0  0  0  0  0  0  0  0  0  0
    0.7159   18.0008  -28.9060 H   0  0  0  0  0  0  0  0  0  0  0  0
    1.1904   19.7332  -28.9060 H   0  0  0  0  0  0  0  0  0  0  0  0
   -3.0369   19.0654  -25.3056 H   0  0  0  0  0  0  0  0  0  0  0  0
   -4.2055   19.5045  -26.5972 H   0  0  0  0  0  0  0  0  0  0  0  0
   -3.4345   17.8821  -26.5972 H   0  0  0  0  0  0  0  0  0  0  0  0
   -3.7591   21.6698  -26.9197 H   0  0  0  0  0  0  0  0  0  0  0  0
   -4.4702   22.7468  -32.1410 H   0  0  0  0  0  0  0  0  0  0  0  0
   -5.7973   20.9928  -33.3204 H   0  0  0  0  0  0  0  0  0  0  0  0
   -8.8326   19.4731  -31.9484 H   0  0  0  0  0  0  0  0  0  0  0  0
   -9.0554   20.6210  -33.3120 H   0  0  0  0  0  0  0  0  0  0  0  0
   -7.6634   19.4857  -33.3120 H   0  0  0  0  0  0  0  0  0  0  0  0
   -8.9966   21.4940  -30.4522 H   0  0  0  0  0  0  0  0  0  0  0  0
   -7.6676   23.2435  -29.2729 H   0  0  0  0  0  0  0  0  0  0  0  0
  1  2  1  0
  2  3  1  0
  3  4  2  0
  4  5  1  0
  5  6  2  0
  6  7  1  0
  7  8  2  0
  8  9  1  0
  9 10  1  0
 10 11  2  0
 10 12  1  0
 12 13  1  0
 13 14  1  0
 14 15  2  0
 15 16  1  0
 16 17  2  0
 17 18  1  0
 18 19  1  0
 17 20  1  0
 20 21  1  0
 21 22  1  0
 20 23  2  0
 13 24  1  0
 24 25  2  0
 24 26  2  0
 24 27  1  0
 27 28  2  0
 28 29  1  0
 29 30  2  0
 30 31  1  0
 30 32  1  0
 32 33  2  0
  8  3  1  0
 23 14  1  0
 33 27  1  0
  1 34  1  0
  1 35  1  0
  1 36  1  0
  4 37  1  0
  5 38  1  0
  6 39  1  0
  7 40  1  0
 12 41  1  0
 12 42  1  0
 15 43  1  0
 16 44  1  0
 19 45  1  0
 19 46  1  0
 19 47  1  0
 22 48  1  0
 22 49  1  0
 22 50  1  0
 23 51  1  0
 28 52  1  0
 29 53  1  0
 31 54  1  0
 31 55  1  0
 31 56  1  0
 32 57  1  0
 33 58  1  0
M  CHG  1   9  -1
M  END
>  <UniqueID>  (42) 
38

>  <SMILES>  (42) 
COc1ccccc1[N-]C(=O)CN(c1ccc(OC)c(OC)c1)S(=O)(=O)c1ccc(C)cc1

>  <Energy>  (42) 
62.56688560413

>  <Genealogy>  (42) 
COc1ccccc1[N-]C(=O)CN(c1ccc(OC)c(OC)c1)S(=O)(=O)c1ccc(C)cc1 (protonated)
COc1ccccc1[N-]C(=O)CN(c1ccc(OC)c(OC)c1)S(=O)(=O)c1ccc(C)cc1 (3D coordinates assigned)
COc1ccccc1[N-]C(=O)CN(c1ccc(OC)c(OC)c1)S(=O)(=O)c1ccc(C)cc1 (optimized conformer: 62.56688560413 kcal/mol)

>  <smiles>  (42) 
COc1ccccc1NC(=O)CN(c1ccc(OC)c(OC)c1)S(=O)(=O)c1ccc(C)cc1

>  <score_type>  (42) 
oracle

>  <origin>  (42) 
adgpu

>  <m_score__min__energy>  (42) 
-11.050000000000001

>  <m_primary>  (42) 
energy

$$$$
42:0
     RDKit          3D

 65 69  0  0  0  0  0  0  0  0999 V2000
    1.4920   25.0290  -38.0120 O   0  0  0  0  0  0  0  0  0  0  0  0
    1.8250   24.9990  -36.7960 C   0  0  0  0  0  0  0  0  0  0  0  0
    1.5470   26.1350  -35.9640 N   0  0  0  0  0  0  0  0  0  0  0  0
    0.3140   26.8680  -35.9970 C   0  0  0  0  0  0  0  0  0  0  0  0
   -0.4470   26.9490  -37.1740 C   0  0  0  0  0  0  0  0  0  0  0  0
   -1.6080   27.7280  -37.2090 C   0  0  0  0  0  0  0  0  0  0  0  0
   -2.0200   28.4330  -36.0720 C   0  0  0  0  0  0  0  0  0  0  0  0
   -1.2650   28.3600  -34.9010 C   0  0  0  0  0  0  0  0  0  0  0  0
   -0.1050   27.5790  -34.8620 C   0  0  0  0  0  0  0  0  0  0  0  0
    2.4640   23.7830  -36.2350 C   0  0  0  0  0  0  0  0  0  0  0  0
    3.8490   23.5860  -36.3890 C   0  0  0  0  0  0  0  0  0  0  0  0
    4.4770   22.4770  -35.8200 C   0  0  0  0  0  0  0  0  0  0  0  0
    3.7410   21.5690  -35.0610 C   0  0  0  0  0  0  0  0  0  0  0  0
    2.3660   21.7550  -34.8700 C   0  0  0  0  0  0  0  0  0  0  0  0
    1.6590   20.7940  -34.0670 N   0  0  0  0  0  0  0  0  0  0  0  0
    0.5500   19.9640  -34.4420 C   0  0  0  0  0  0  0  0  0  0  0  0
    0.7640   19.0010  -35.2280 O   0  0  0  0  0  0  0  0  0  0  0  0
   -0.8230   20.1860  -33.9380 C   0  0  0  0  0  0  0  0  0  0  0  0
   -1.8840   19.3460  -34.3180 C   0  0  0  0  0  0  0  0  0  0  0  0
   -3.1560   19.5240  -33.7650 C   0  0  0  0  0  0  0  0  0  0  0  0
   -3.3860   20.5500  -32.8400 C   0  0  0  0  0  0  0  0  0  0  0  0
   -4.6480   20.6250  -32.1690 N   0  0  0  0  0  0  0  0  0  0  0  0
   -5.8560   20.9250  -32.9350 C   0  0  0  0  0  0  0  0  0  0  0  0
   -6.9870   20.0350  -32.5080 C   0  0  0  0  0  0  0  0  0  0  0  0
   -6.7960   18.6540  -32.3530 C   0  0  0  0  0  0  0  0  0  0  0  0
   -7.8570   17.8480  -31.9350 C   0  0  0  0  0  0  0  0  0  0  0  0
   -9.1030   18.4290  -31.6910 C   0  0  0  0  0  0  0  0  0  0  0  0
   -9.2750   19.7660  -31.8580 N   0  0  0  0  0  0  0  0  0  0  0  0
   -8.2570   20.5720  -32.2550 C   0  0  0  0  0  0  0  0  0  0  0  0
   -2.3430   21.4200  -32.4860 C   0  0  0  0  0  0  0  0  0  0  0  0
   -2.5960   22.4870  -31.5600 N   0  0  0  0  0  0  0  0  0  0  0  0
   -3.4900   22.4440  -30.4420 C   0  0  0  0  0  0  0  0  0  0  0  0
   -3.2670   21.6040  -29.5290 O   0  0  0  0  0  0  0  0  0  0  0  0
   -4.6430   23.3710  -30.3210 C   0  0  0  0  0  0  0  0  0  0  0  0
   -5.9590   22.8730  -30.3570 C   0  0  0  0  0  0  0  0  0  0  0  0
   -7.0510   23.7370  -30.2230 C   0  0  0  0  0  0  0  0  0  0  0  0
   -6.8430   25.1130  -30.0910 C   0  0  0  0  0  0  0  0  0  0  0  0
   -5.5420   25.6240  -30.0700 C   0  0  0  0  0  0  0  0  0  0  0  0
   -4.4430   24.7620  -30.1830 C   0  0  0  0  0  0  0  0  0  0  0  0
   -3.1590   25.2950  -30.1330 O   0  0  0  0  0  0  0  0  0  0  0  0
   -1.0730   21.2500  -33.0600 C   0  0  0  0  0  0  0  0  0  0  0  0
    1.7210   22.8330  -35.5070 C   0  0  0  0  0  0  0  0  0  0  0  0
   -0.1291   26.3981  -38.0715 H   0  0  0  0  0  0  0  0  0  0  0  0
   -2.2001   27.7870  -38.1342 H   0  0  0  0  0  0  0  0  0  0  0  0
   -2.9354   29.0422  -36.1017 H   0  0  0  0  0  0  0  0  0  0  0  0
   -1.5823   28.9173  -34.0073 H   0  0  0  0  0  0  0  0  0  0  0  0
    0.4833   27.5218  -33.9343 H   0  0  0  0  0  0  0  0  0  0  0  0
    4.4422   24.3129  -36.9632 H   0  0  0  0  0  0  0  0  0  0  0  0
    5.5551   22.3193  -35.9709 H   0  0  0  0  0  0  0  0  0  0  0  0
    4.2431   20.7008  -34.6091 H   0  0  0  0  0  0  0  0  0  0  0  0
   -1.7131   18.5457  -35.0531 H   0  0  0  0  0  0  0  0  0  0  0  0
   -3.9791   18.8555  -34.0577 H   0  0  0  0  0  0  0  0  0  0  0  0
   -4.6570   20.7430  -31.1320 H   0  0  0  0  0  0  0  0  0  0  0  0
   -6.1389   21.9747  -32.7675 H   0  0  0  0  0  0  0  0  0  0  0  0
   -5.6516   20.7516  -34.0019 H   0  0  0  0  0  0  0  0  0  0  0  0
   -5.8126   18.2069  -32.5603 H   0  0  0  0  0  0  0  0  0  0  0  0
   -7.7126   16.7660  -31.7993 H   0  0  0  0  0  0  0  0  0  0  0  0
   -9.9462   17.8033  -31.3632 H   0  0  0  0  0  0  0  0  0  0  0  0
   -8.4296   21.6513  -32.3787 H   0  0  0  0  0  0  0  0  0  0  0  0
   -6.1303   21.7948  -30.4917 H   0  0  0  0  0  0  0  0  0  0  0  0
   -8.0742   23.3333  -30.2215 H   0  0  0  0  0  0  0  0  0  0  0  0
   -7.7028   25.7935  -30.0037 H   0  0  0  0  0  0  0  0  0  0  0  0
   -5.3803   26.7069  -29.9644 H   0  0  0  0  0  0  0  0  0  0  0  0
   -0.2667   21.9582  -32.8186 H   0  0  0  0  0  0  0  0  0  0  0  0
    0.6280   22.9339  -35.4354 H   0  0  0  0  0  0  0  0  0  0  0  0
  1  2  2  0
  2  3  1  0
  3  4  1  0
  4  5  2  0
  5  6  1  0
  6  7  2  0
  7  8  1  0
  8  9  2  0
  2 10  1  0
 10 11  2  0
 11 12  1  0
 12 13  2  0
 13 14  1  0
 14 15  1  0
 15 16  1  0
 16 17  2  0
 16 18  1  0
 18 19  2  0
 19 20  1  0
 20 21  2  0
 21 22  1  0
 22 23  1  0
 23 24  1  0
 24 25  2  0
 25 26  1  0
 26 27  2  0
 27 28  1  0
 28 29  2  0
 21 30  1  0
 30 31  1  0
 31 32  1  0
 32 33  2  0
 32 34  1  0
 34 35  2  0
 35 36  1  0
 36 37  2  0
 37 38  1  0
 38 39  2  0
 39 40  1  0
 30 41  2  0
 14 42  2  0
  9  4  1  0
 42 10  1  0
 41 18  1  0
 29 24  1  0
 39 34  1  0
  5 43  1  0
  6 44  1  0
  7 45  1  0
  8 46  1  0
  9 47  1  0
 11 48  1  0
 12 49  1  0
 13 50  1  0
 19 51  1  0
 20 52  1  0
 22 53  1  0
 23 54  1  0
 23 55  1  0
 25 56  1  0
 26 57  1  0
 27 58  1  0
 29 59  1  0
 35 60  1  0
 36 61  1  0
 37 62  1  0
 38 63  1  0
 41 64  1  0
 42 65  1  0
M  CHG  4   3  -1  15  -1  31  -1  40  -1
M  END
>  <UniqueID>  (43) 
39

>  <SMILES>  (43) 
O=C([N-]c1ccccc1)c1cccc([N-]C(=O)c2ccc(NCc3cccnc3)c([N-]C(=O)c3ccccc3[O-])c2)c1

>  <Energy>  (43) 
91.38498603352242

>  <Genealogy>  (43) 
O=C([N-]c1ccccc1)c1cccc([N-]C(=O)c2ccc(NCc3cccnc3)c([N-]C(=O)c3ccccc3[O-])c2)c1 (protonated)
O=C([N-]c1ccccc1)c1cccc([N-]C(=O)c2ccc(NCc3cccnc3)c([N-]C(=O)c3ccccc3[O-])c2)c1 (3D coordinates assigned)
O=C([N-]c1ccccc1)c1cccc([N-]C(=O)c2ccc(NCc3cccnc3)c([N-]C(=O)c3ccccc3[O-])c2)c1 (optimized conformer: 91.38498603352242 kcal/mol)

>  <smiles>  (43) 
O=C(Nc1ccccc1)c1cccc(NC(=O)c2ccc(NCc3cccnc3)c(NC(=O)c3ccccc3O)c2)c1

>  <score_type>  (43) 
oracle

>  <origin>  (43) 
adgpu

>  <m_score__min__energy>  (43) 
-15.859999999999999

>  <m_primary>  (43) 
energy

$$$$
43:0
     RDKit          3D

 61 64  0  0  0  0  0  0  0  0999 V2000
   -8.3630   19.5550  -31.9890 C   0  0  0  0  0  0  0  0  0  0  0  0
   -7.7080   20.9120  -31.9900 C   0  0  0  0  0  0  0  0  0  0  0  0
   -8.4640   22.0150  -31.5540 C   0  0  0  0  0  0  0  0  0  0  0  0
   -7.9020   23.2900  -31.4970 C   0  0  0  0  0  0  0  0  0  0  0  0
   -6.5610   23.4870  -31.8470 C   0  0  0  0  0  0  0  0  0  0  0  0
   -5.9530   24.7860  -31.8200 N   0  0  0  0  0  0  0  0  0  0  0  0
   -5.3140   25.3970  -30.6930 C   0  0  0  0  0  0  0  0  0  0  0  0
   -6.0140   26.0460  -29.8730 O   0  0  0  0  0  0  0  0  0  0  0  0
   -3.8990   25.2810  -30.5050 N   0  0  0  0  0  0  0  0  0  0  0  0
   -3.2490   24.3760  -29.6010 C   0  0  0  0  0  0  0  0  0  0  0  0
   -3.6950   23.0570  -29.5480 C   0  0  0  0  0  0  0  0  0  0  0  0
   -3.0860   22.1380  -28.6990 C   0  0  0  0  0  0  0  0  0  0  0  0
   -2.0010   22.5130  -27.8920 C   0  0  0  0  0  0  0  0  0  0  0  0
   -1.3920   21.4680  -26.9940 C   0  0  0  0  0  0  0  0  0  0  0  0
   -1.5290   23.8540  -27.9370 C   0  0  0  0  0  0  0  0  0  0  0  0
   -0.1540   24.4210  -26.9550 S   0  0  0  0  0  0  0  0  0  0  0  0
    0.8070   25.2420  -27.7680 O   0  0  0  0  0  0  0  0  0  0  0  0
    0.6010   23.2300  -26.4320 O   0  0  0  0  0  0  0  0  0  0  0  0
   -0.7690   25.4230  -25.5970 C   0  0  0  0  0  0  0  0  0  0  0  0
   -0.1280   25.2530  -24.2200 C   0  0  0  0  0  0  0  0  0  0  0  0
   -2.2660   25.6920  -25.6090 C   0  0  0  0  0  0  0  0  0  0  0  0
   -1.2840   26.8090  -25.9530 C   0  0  0  0  0  0  0  0  0  0  0  0
   -2.1400   24.7660  -28.8260 C   0  0  0  0  0  0  0  0  0  0  0  0
   -1.6200   26.0490  -28.9710 O   0  0  0  0  0  0  0  0  0  0  0  0
   -5.8060   22.4020  -32.2990 C   0  0  0  0  0  0  0  0  0  0  0  0
   -6.3550   21.1110  -32.3770 C   0  0  0  0  0  0  0  0  0  0  0  0
   -5.3040   19.8050  -32.9800 S   0  0  0  0  0  0  0  0  0  0  0  0
   -5.2460   18.7210  -31.9400 O   0  0  0  0  0  0  0  0  0  0  0  0
   -5.8630   19.1910  -34.2320 O   0  0  0  0  0  0  0  0  0  0  0  0
   -3.6810   20.3790  -33.3060 N   0  0  0  0  0  0  0  0  0  0  0  0
   -2.8170   19.3230  -33.8810 C   0  0  0  0  0  0  0  0  0  0  0  0
   -1.7240   18.8660  -32.8990 C   0  0  0  0  0  0  0  0  0  0  0  0
   -0.8890   19.9290  -32.4660 O   0  0  0  0  0  0  0  0  0  0  0  0
   -1.5800   21.1580  -32.2660 C   0  0  0  0  0  0  0  0  0  0  0  0
   -3.1020   21.0130  -32.1090 C   0  0  0  0  0  0  0  0  0  0  0  0
   -8.5221   19.2254  -30.9517 H   0  0  0  0  0  0  0  0  0  0  0  0
   -9.3314   19.6149  -32.5073 H   0  0  0  0  0  0  0  0  0  0  0  0
   -7.7137   18.8341  -32.5073 H   0  0  0  0  0  0  0  0  0  0  0  0
   -9.5123   21.8700  -31.2540 H   0  0  0  0  0  0  0  0  0  0  0  0
   -8.5152   24.1448  -31.1756 H   0  0  0  0  0  0  0  0  0  0  0  0
   -4.5355   22.7396  -30.1826 H   0  0  0  0  0  0  0  0  0  0  0  0
   -3.4599   21.1042  -28.6599 H   0  0  0  0  0  0  0  0  0  0  0  0
   -1.5551   21.7478  -25.9427 H   0  0  0  0  0  0  0  0  0  0  0  0
   -1.8641   20.4943  -27.1918 H   0  0  0  0  0  0  0  0  0  0  0  0
   -0.3121   21.3988  -27.1918 H   0  0  0  0  0  0  0  0  0  0  0  0
   -0.8774   25.4517  -23.4397 H   0  0  0  0  0  0  0  0  0  0  0  0
    0.2471   24.2243  -24.1146 H   0  0  0  0  0  0  0  0  0  0  0  0
    0.7076   25.9606  -24.1146 H   0  0  0  0  0  0  0  0  0  0  0  0
   -2.8978   25.2531  -26.3953 H   0  0  0  0  0  0  0  0  0  0  0  0
   -3.0846   25.5708  -24.8843 H   0  0  0  0  0  0  0  0  0  0  0  0
   -1.2077   27.1755  -26.9873 H   0  0  0  0  0  0  0  0  0  0  0  0
   -1.1011   27.8272  -25.5792 H   0  0  0  0  0  0  0  0  0  0  0  0
   -4.7601   22.5617  -32.6001 H   0  0  0  0  0  0  0  0  0  0  0  0
   -3.4428   18.4569  -34.1423 H   0  0  0  0  0  0  0  0  0  0  0  0
   -2.3195   19.7406  -34.7688 H   0  0  0  0  0  0  0  0  0  0  0  0
   -2.2084   18.4194  -32.0181 H   0  0  0  0  0  0  0  0  0  0  0  0
   -1.0874   18.1417  -33.4283 H   0  0  0  0  0  0  0  0  0  0  0  0
   -1.1838   21.6311  -31.3554 H   0  0  0  0  0  0  0  0  0  0  0  0
   -1.4141   21.7619  -33.1703 H   0  0  0  0  0  0  0  0  0  0  0  0
   -3.3183   20.3907  -31.2281 H   0  0  0  0  0  0  0  0  0  0  0  0
   -3.5456   22.0117  -31.9828 H   0  0  0  0  0  0  0  0  0  0  0  0
  1  2  1  0
  2  3  2  0
  3  4  1  0
  4  5  2  0
  5  6  1  0
  6  7  1  0
  7  8  2  0
  7  9  1  0
  9 10  1  0
 10 11  2  0
 11 12  1  0
 12 13  2  0
 13 14  1  0
 13 15  1  0
 15 16  1  0
 16 17  2  0
 16 18  2  0
 16 19  1  0
 19 20  1  0
 19 21  1  0
 21 22  1  0
 15 23  2  0
 23 24  1  0
  5 25  1  0
 25 26  2  0
 26 27  1  0
 27 28  2  0
 27 29  2  0
 27 30  1  0
 30 31  1  0
 31 32  1  0
 32 33  1  0
 33 34  1  0
 34 35  1  0
 26  2  1  0
 35 30  1  0
 23 10  1  0
 22 19  1  0
  1 36  1  0
  1 37  1  0
  1 38  1  0
  3 39  1  0
  4 40  1  0
 11 41  1  0
 12 42  1  0
 14 43  1  0
 14 44  1  0
 14 45  1  0
 20 46  1  0
 20 47  1  0
 20 48  1  0
 21 49  1  0
 21 50  1  0
 22 51  1  0
 22 52  1  0
 25 53  1  0
 31 54  1  0
 31 55  1  0
 32 56  1  0
 32 57  1  0
 34 58  1  0
 34 59  1  0
 35 60  1  0
 35 61  1  0
M  CHG  3   6  -1   9  -1  24  -1
M  END
>  <UniqueID>  (44) 
40

>  <SMILES>  (44) 
Cc1ccc([N-]C(=O)[N-]c2ccc(C)c(S(=O)(=O)C3(C)CC3)c2[O-])cc1S(=O)(=O)N1CCOCC1

>  <Energy>  (44) 
354.4275546921679

>  <Genealogy>  (44) 
Cc1ccc([N-]C(=O)[N-]c2ccc(C)c(S(=O)(=O)C3(C)CC3)c2[O-])cc1S(=O)(=O)N1CCOCC1 (protonated)
Cc1ccc([N-]C(=O)[N-]c2ccc(C)c(S(=O)(=O)C3(C)CC3)c2[O-])cc1S(=O)(=O)N1CCOCC1 (3D coordinates assigned)
Cc1ccc([N-]C(=O)[N-]c2ccc(C)c(S(=O)(=O)C3(C)CC3)c2[O-])cc1S(=O)(=O)N1CCOCC1 (nonaromatic ring conformer: 354.4275546921679 kcal/mol)

>  <smiles>  (44) 
Cc1ccc(NC(=O)Nc2ccc(C)c(S(=O)(=O)C3(C)CC3)c2O)cc1S(=O)(=O)N1CCOCC1

>  <score_type>  (44) 
oracle

>  <origin>  (44) 
adgpu

>  <m_score__min__energy>  (44) 
-17.289999999999999

>  <m_primary>  (44) 
energy

$$$$
44:0
     RDKit          3D

 49 52  0  0  0  0  0  0  0  0999 V2000
    0.1850   24.3360  -26.1400 C   0  0  0  0  0  0  0  0  0  0  0  0
   -0.7200   24.6890  -27.2710 C   0  0  0  0  0  0  0  0  0  0  0  0
   -1.8770   24.0240  -27.6210 C   0  0  0  0  0  0  0  0  0  0  0  0
   -2.2950   24.6860  -28.7560 C   0  0  0  0  0  0  0  0  0  0  0  0
   -3.4990   24.3860  -29.5490 C   0  0  0  0  0  0  0  0  0  0  0  0
   -4.2070   23.1980  -29.3560 C   0  0  0  0  0  0  0  0  0  0  0  0
   -5.3410   22.9480  -30.1230 C   0  0  0  0  0  0  0  0  0  0  0  0
   -5.7450   23.8890  -31.0900 C   0  0  0  0  0  0  0  0  0  0  0  0
   -6.8010   23.7170  -31.8410 N   0  0  0  0  0  0  0  0  0  0  0  0
   -7.6230   22.5420  -31.9180 C   0  0  0  0  0  0  0  0  0  0  0  0
   -9.0140   22.6710  -31.8570 C   0  0  0  0  0  0  0  0  0  0  0  0
   -9.8290   21.5380  -31.9290 C   0  0  0  0  0  0  0  0  0  0  0  0
   -9.2560   20.2710  -32.0730 C   0  0  0  0  0  0  0  0  0  0  0  0
   -7.8640   20.1330  -32.1710 C   0  0  0  0  0  0  0  0  0  0  0  0
   -7.1310   18.5320  -32.3020 S   0  0  0  0  0  0  0  0  0  0  0  0
   -6.2790   18.2740  -31.0900 O   0  0  0  0  0  0  0  0  0  0  0  0
   -8.2170   17.4940  -32.3390 O   0  0  0  0  0  0  0  0  0  0  0  0
   -6.1350   18.4010  -33.7360 N   0  0  0  0  0  0  0  0  0  0  0  0
   -6.2220   17.0480  -34.3370 C   0  0  0  0  0  0  0  0  0  0  0  0
   -5.0060   16.1680  -34.0090 C   0  0  0  0  0  0  0  0  0  0  0  0
   -3.6960   16.8180  -34.4880 C   0  0  0  0  0  0  0  0  0  0  0  0
   -3.7650   18.3550  -34.5030 C   0  0  0  0  0  0  0  0  0  0  0  0
   -4.7590   18.8700  -33.4570 C   0  0  0  0  0  0  0  0  0  0  0  0
   -7.0540   21.2750  -32.1240 C   0  0  0  0  0  0  0  0  0  0  0  0
   -5.0260   25.0400  -31.2190 N   0  0  0  0  0  0  0  0  0  0  0  0
   -3.9400   25.2740  -30.4790 N   0  0  0  0  0  0  0  0  0  0  0  0
   -1.4370   25.6420  -29.0320 O   0  0  0  0  0  0  0  0  0  0  0  0
   -0.4690   25.6690  -28.1610 N   0  0  0  0  0  0  0  0  0  0  0  0
   -0.3254   24.5351  -25.1861 H   0  0  0  0  0  0  0  0  0  0  0  0
    0.4477   23.2695  -26.1997 H   0  0  0  0  0  0  0  0  0  0  0  0
    1.1004   24.9430  -26.1997 H   0  0  0  0  0  0  0  0  0  0  0  0
   -2.3522   23.1703  -27.1157 H   0  0  0  0  0  0  0  0  0  0  0  0
   -3.8718   22.4672  -28.6053 H   0  0  0  0  0  0  0  0  0  0  0  0
   -5.9173   22.0228  -29.9752 H   0  0  0  0  0  0  0  0  0  0  0  0
   -9.4682   23.6673  -31.7520 H   0  0  0  0  0  0  0  0  0  0  0  0
  -10.9225   21.6433  -31.8723 H   0  0  0  0  0  0  0  0  0  0  0  0
   -9.8992   19.3794  -32.1096 H   0  0  0  0  0  0  0  0  0  0  0  0
   -7.1269   16.5523  -33.9557 H   0  0  0  0  0  0  0  0  0  0  0  0
   -6.2531   17.1737  -35.4294 H   0  0  0  0  0  0  0  0  0  0  0  0
   -4.9547   16.0201  -32.9202 H   0  0  0  0  0  0  0  0  0  0  0  0
   -5.1250   15.2059  -34.5289 H   0  0  0  0  0  0  0  0  0  0  0  0
   -2.8832   16.5090  -33.8142 H   0  0  0  0  0  0  0  0  0  0  0  0
   -3.5183   16.4839  -35.5209 H   0  0  0  0  0  0  0  0  0  0  0  0
   -2.7672   18.7621  -34.2822 H   0  0  0  0  0  0  0  0  0  0  0  0
   -4.1026   18.6810  -35.4978 H   0  0  0  0  0  0  0  0  0  0  0  0
   -4.4527   18.5077  -32.4646 H   0  0  0  0  0  0  0  0  0  0  0  0
   -4.7564   19.9694  -33.4917 H   0  0  0  0  0  0  0  0  0  0  0  0
   -5.9654   21.1785  -32.2493 H   0  0  0  0  0  0  0  0  0  0  0  0
   -5.3180   25.7590  -31.9180 H   0  0  0  0  0  0  0  0  0  0  0  0
  1  2  1  0
  2  3  1  0
  3  4  2  0
  4  5  1  0
  5  6  1  0
  6  7  2  0
  7  8  1  0
  8  9  2  3
  9 10  1  0
 10 11  2  0
 11 12  1  0
 12 13  2  0
 13 14  1  0
 14 15  1  0
 15 16  2  0
 15 17  2  0
 15 18  1  0
 18 19  1  0
 19 20  1  0
 20 21  1  0
 21 22  1  0
 22 23  1  0
 14 24  2  0
  8 25  1  0
 25 26  1  0
  4 27  1  0
 27 28  1  0
 28  2  2  0
 26  5  2  0
 24 10  1  0
 23 18  1  0
  1 29  1  0
  1 30  1  0
  1 31  1  0
  3 32  1  0
  6 33  1  0
  7 34  1  0
 11 35  1  0
 12 36  1  0
 13 37  1  0
 19 38  1  0
 19 39  1  0
 20 40  1  0
 20 41  1  0
 21 42  1  0
 21 43  1  0
 22 44  1  0
 22 45  1  0
 23 46  1  0
 23 47  1  0
 24 48  1  0
 25 49  1  0
M  END
>  <UniqueID>  (45) 
41

>  <SMILES>  (45) 
Cc1cc(-c2ccc(=Nc3cccc(S(=O)(=O)N4CCCCC4)c3)[nH]n2)on1

>  <Energy>  (45) 
93.76126701496335

>  <Genealogy>  (45) 
Cc1cc(-c2ccc(=Nc3cccc(S(=O)(=O)N4CCCCC4)c3)[nH]n2)on1 (3D coordinates assigned)
Cc1cc(-c2ccc(=Nc3cccc(S(=O)(=O)N4CCCCC4)c3)[nH]n2)on1 (nonaromatic ring conformer: 93.76126701496335 kcal/mol)

>  <smiles>  (45) 
Cc1cc(-c2ccc(=Nc3cccc(S(=O)(=O)N4CCCCC4)c3)[nH]n2)on1

>  <score_type>  (45) 
oracle

>  <origin>  (45) 
adgpu

>  <m_score__min__energy>  (45) 
-11.41

>  <m_primary>  (45) 
energy

$$$$
45:0
     RDKit          3D

 36 38  0  0  0  0  0  0  0  0999 V2000
   -2.2520   23.0780  -29.6930 O   0  0  0  0  0  0  0  0  0  0  0  0
   -2.5200   24.3060  -29.5990 C   0  0  0  0  0  0  0  0  0  0  0  0
   -3.4820   24.9150  -30.4670 N   0  0  0  0  0  0  0  0  0  0  0  0
   -4.8680   24.5610  -30.5920 C   0  0  0  0  0  0  0  0  0  0  0  0
   -5.8800   25.2530  -29.9050 C   0  0  0  0  0  0  0  0  0  0  0  0
   -7.2200   24.8960  -30.0830 C   0  0  0  0  0  0  0  0  0  0  0  0
   -7.5610   23.8520  -30.9450 C   0  0  0  0  0  0  0  0  0  0  0  0
   -6.5580   23.1510  -31.6370 C   0  0  0  0  0  0  0  0  0  0  0  0
   -6.8650   22.0960  -32.5610 N   0  0  0  0  0  0  0  0  0  0  0  0
   -7.4970   20.8450  -32.2520 C   0  0  0  0  0  0  0  0  0  0  0  0
   -8.5090   20.8120  -31.5010 O   0  0  0  0  0  0  0  0  0  0  0  0
   -6.9530   19.5950  -32.8260 C   0  0  0  0  0  0  0  0  0  0  0  0
   -7.6790   18.4030  -32.6470 C   0  0  0  0  0  0  0  0  0  0  0  0
   -7.1750   17.1850  -33.1080 C   0  0  0  0  0  0  0  0  0  0  0  0
   -5.9400   17.1390  -33.7530 C   0  0  0  0  0  0  0  0  0  0  0  0
   -5.2140   18.3140  -33.9560 C   0  0  0  0  0  0  0  0  0  0  0  0
   -5.7140   19.5460  -33.5190 C   0  0  0  0  0  0  0  0  0  0  0  0
   -4.9740   20.6920  -33.8190 O   0  0  0  0  0  0  0  0  0  0  0  0
   -5.2200   23.5320  -31.4750 C   0  0  0  0  0  0  0  0  0  0  0  0
   -1.8000   25.1370  -28.6280 C   0  0  0  0  0  0  0  0  0  0  0  0
   -1.6100   24.8490  -27.2910 C   0  0  0  0  0  0  0  0  0  0  0  0
   -0.8870   25.9050  -26.7830 C   0  0  0  0  0  0  0  0  0  0  0  0
   -0.6790   26.7710  -27.8380 C   0  0  0  0  0  0  0  0  0  0  0  0
   -1.2350   26.2860  -28.9250 O   0  0  0  0  0  0  0  0  0  0  0  0
   -5.6173   26.0773  -29.2257 H   0  0  0  0  0  0  0  0  0  0  0  0
   -8.0085   25.4396  -29.5419 H   0  0  0  0  0  0  0  0  0  0  0  0
   -8.6172   23.5773  -31.0830 H   0  0  0  0  0  0  0  0  0  0  0  0
   -8.6540   18.4309  -32.1385 H   0  0  0  0  0  0  0  0  0  0  0  0
   -7.7532   16.2607  -32.9620 H   0  0  0  0  0  0  0  0  0  0  0  0
   -5.5375   16.1767  -34.1021 H   0  0  0  0  0  0  0  0  0  0  0  0
   -4.2395   18.2711  -34.4644 H   0  0  0  0  0  0  0  0  0  0  0  0
   -5.3280   21.6320  -33.6990 H   0  0  0  0  0  0  0  0  0  0  0  0
   -4.4355   23.0166  -32.0485 H   0  0  0  0  0  0  0  0  0  0  0  0
   -1.9626   23.9612  -26.7456 H   0  0  0  0  0  0  0  0  0  0  0  0
   -0.5442   26.0329  -25.7456 H   0  0  0  0  0  0  0  0  0  0  0  0
   -0.1308   27.7228  -27.7776 H   0  0  0  0  0  0  0  0  0  0  0  0
  1  2  2  0
  2  3  1  0
  3  4  1  0
  4  5  2  0
  5  6  1  0
  6  7  2  0
  7  8  1  0
  8  9  1  0
  9 10  1  0
 10 11  2  0
 10 12  1  0
 12 13  2  0
 13 14  1  0
 14 15  2  0
 15 16  1  0
 16 17  2  0
 17 18  1  0
  8 19  2  0
  2 20  1  0
 20 21  2  0
 21 22  1  0
 22 23  2  0
 23 24  1  0
 19  4  1  0
 24 20  1  0
 17 12  1  0
  5 25  1  0
  6 26  1  0
  7 27  1  0
 13 28  1  0
 14 29  1  0
 15 30  1  0
 16 31  1  0
 18 32  1  0
 19 33  1  0
 21 34  1  0
 22 35  1  0
 23 36  1  0
M  CHG  2   3  -1   9  -1
M  END
>  <UniqueID>  (46) 
42

>  <SMILES>  (46) 
O=C([N-]c1cccc([N-]C(=O)c2ccccc2O)c1)c1ccco1

>  <Energy>  (46) 
76.31598377836985

>  <Genealogy>  (46) 
O=C([N-]c1cccc([N-]C(=O)c2ccccc2O)c1)c1ccco1 (protonated)
O=C([N-]c1cccc([N-]C(=O)c2ccccc2O)c1)c1ccco1 (3D coordinates assigned)
O=C([N-]c1cccc([N-]C(=O)c2ccccc2O)c1)c1ccco1 (optimized conformer: 76.31598377836985 kcal/mol)

>  <smiles>  (46) 
O=C(Nc1cccc(NC(=O)c2ccccc2O)c1)c1ccco1

>  <score_type>  (46) 
oracle

>  <origin>  (46) 
adgpu

>  <m_score__min__energy>  (46) 
-9.4800000000000004

>  <m_primary>  (46) 
energy

$$$$
46:0
     RDKit          3D

 52 56  0  0  0  0  0  0  0  0999 V2000
   -6.0450   18.5390  -35.3970 N   0  0  0  0  0  0  0  0  0  0  0  0
   -5.4800   18.8080  -33.7840 S   0  0  0  0  0  0  0  0  0  0  0  0
   -4.7950   17.5660  -33.2840 O   0  0  0  0  0  0  0  0  0  0  0  0
   -4.4940   19.9430  -33.7710 O   0  0  0  0  0  0  0  0  0  0  0  0
   -6.8460   19.2050  -32.7470 C   0  0  0  0  0  0  0  0  0  0  0  0
   -7.7640   18.2170  -32.3590 C   0  0  0  0  0  0  0  0  0  0  0  0
   -8.8670   18.5540  -31.5710 C   0  0  0  0  0  0  0  0  0  0  0  0
   -9.0650   19.8770  -31.1680 C   0  0  0  0  0  0  0  0  0  0  0  0
   -8.1480   20.8730  -31.5400 C   0  0  0  0  0  0  0  0  0  0  0  0
   -8.3960   22.3110  -31.1750 C   0  0  0  0  0  0  0  0  0  0  0  0
   -7.1260   23.0260  -31.1110 N   0  0  0  0  0  0  0  0  0  0  0  0
   -6.0750   22.7210  -30.3320 C   0  0  0  0  0  0  0  0  0  0  0  0
   -5.0610   23.5850  -30.6990 C   0  0  0  0  0  0  0  0  0  0  0  0
   -3.6780   23.6370  -30.1690 C   0  0  0  0  0  0  0  0  0  0  0  0
   -2.6910   22.7390  -30.6150 C   0  0  0  0  0  0  0  0  0  0  0  0
   -1.3860   22.8170  -30.1220 C   0  0  0  0  0  0  0  0  0  0  0  0
   -1.0400   23.8050  -29.1850 C   0  0  0  0  0  0  0  0  0  0  0  0
    0.2940   23.9250  -28.6690 N   0  0  0  0  0  0  0  0  0  0  0  0
    0.7850   23.3560  -27.4480 C   0  0  0  0  0  0  0  0  0  0  0  0
    1.9580   23.6310  -27.0810 O   0  0  0  0  0  0  0  0  0  0  0  0
   -0.0320   22.4540  -26.6110 C   0  0  0  0  0  0  0  0  0  0  0  0
   -0.3530   22.6610  -25.2790 C   0  0  0  0  0  0  0  0  0  0  0  0
   -1.1450   21.6570  -24.8330 N   0  0  0  0  0  0  0  0  0  0  0  0
   -1.2740   20.8540  -25.9100 C   0  0  0  0  0  0  0  0  0  0  0  0
   -1.9890   19.6580  -25.9470 C   0  0  0  0  0  0  0  0  0  0  0  0
   -1.9790   18.9260  -27.1450 C   0  0  0  0  0  0  0  0  0  0  0  0
   -1.2480   19.3910  -28.2540 C   0  0  0  0  0  0  0  0  0  0  0  0
   -0.5430   20.6000  -28.1610 C   0  0  0  0  0  0  0  0  0  0  0  0
   -0.6090   21.2970  -26.9930 N   0  0  0  0  0  0  0  0  0  0  0  0
   -2.0260   24.6780  -28.7150 C   0  0  0  0  0  0  0  0  0  0  0  0
   -3.3310   24.6030  -29.2060 C   0  0  0  0  0  0  0  0  0  0  0  0
   -5.5270   24.3750  -31.6910 N   0  0  0  0  0  0  0  0  0  0  0  0
   -6.7790   24.0090  -31.9250 N   0  0  0  0  0  0  0  0  0  0  0  0
   -7.0440   20.5300  -32.3390 C   0  0  0  0  0  0  0  0  0  0  0  0
   -6.7430   19.2880  -35.6060 H   0  0  0  0  0  0  0  0  0  0  0  0
   -6.5680   17.6350  -35.3900 H   0  0  0  0  0  0  0  0  0  0  0  0
   -7.6146   17.1744  -32.6763 H   0  0  0  0  0  0  0  0  0  0  0  0
   -9.5819   17.7753  -31.2668 H   0  0  0  0  0  0  0  0  0  0  0  0
   -9.9418   20.1390  -30.5576 H   0  0  0  0  0  0  0  0  0  0  0  0
   -9.0399   22.7760  -31.9360 H   0  0  0  0  0  0  0  0  0  0  0  0
   -8.8917   22.3585  -30.1941 H   0  0  0  0  0  0  0  0  0  0  0  0
   -6.0305   21.9407  -29.5579 H   0  0  0  0  0  0  0  0  0  0  0  0
   -2.9487   21.9695  -31.3576 H   0  0  0  0  0  0  0  0  0  0  0  0
   -0.6260   22.1015  -30.4691 H   0  0  0  0  0  0  0  0  0  0  0  0
   -0.0146   23.5146  -24.6734 H   0  0  0  0  0  0  0  0  0  0  0  0
   -2.5427   19.2996  -25.0667 H   0  0  0  0  0  0  0  0  0  0  0  0
   -2.5447   17.9854  -27.2171 H   0  0  0  0  0  0  0  0  0  0  0  0
   -1.2296   18.8100  -29.1879 H   0  0  0  0  0  0  0  0  0  0  0  0
    0.0479   20.9754  -29.0095 H   0  0  0  0  0  0  0  0  0  0  0  0
   -1.7717   25.4294  -27.9529 H   0  0  0  0  0  0  0  0  0  0  0  0
   -4.0939   25.3044  -28.8372 H   0  0  0  0  0  0  0  0  0  0  0  0
   -6.3299   21.3082  -32.6463 H   0  0  0  0  0  0  0  0  0  0  0  0
  1  2  1  0
  2  3  2  0
  2  4  2  0
  2  5  1  0
  5  6  2  0
  6  7  1  0
  7  8  2  0
  8  9  1  0
  9 10  1  0
 10 11  1  0
 11 12  1  0
 12 13  2  0
 13 14  1  0
 14 15  2  0
 15 16  1  0
 16 17  2  0
 17 18  1  0
 18 19  1  0
 19 20  2  0
 19 21  1  0
 21 22  2  0
 22 23  1  0
 23 24  2  0
 24 25  1  0
 25 26  2  0
 26 27  1  0
 27 28  2  0
 28 29  1  0
 17 30  1  0
 30 31  2  0
 13 32  1  0
 32 33  2  0
  9 34  2  0
 34  5  1  0
 33 11  1  0
 31 14  1  0
 29 21  1  0
 29 24  1  0
  1 35  1  0
  1 36  1  0
  6 37  1  0
  7 38  1  0
  8 39  1  0
 10 40  1  0
 10 41  1  0
 12 42  1  0
 15 43  1  0
 16 44  1  0
 22 45  1  0
 25 46  1  0
 26 47  1  0
 27 48  1  0
 28 49  1  0
 30 50  1  0
 31 51  1  0
 34 52  1  0
M  CHG  1  18  -1
M  END
>  <UniqueID>  (47) 
43

>  <SMILES>  (47) 
NS(=O)(=O)c1cccc(Cn2cc(-c3ccc([N-]C(=O)c4cnc5ccccn45)cc3)nn2)c1

>  <Energy>  (47) 
133.12422235572444

>  <Genealogy>  (47) 
NS(=O)(=O)c1cccc(Cn2cc(-c3ccc([N-]C(=O)c4cnc5ccccn45)cc3)nn2)c1 (protonated)
NS(=O)(=O)c1cccc(Cn2cc(-c3ccc([N-]C(=O)c4cnc5ccccn45)cc3)nn2)c1 (3D coordinates assigned)
NS(=O)(=O)c1cccc(Cn2cc(-c3ccc([N-]C(=O)c4cnc5ccccn45)cc3)nn2)c1 (optimized conformer: 133.12422235572444 kcal/mol)

>  <smiles>  (47) 
NS(=O)(=O)c1cccc(Cn2cc(-c3ccc(NC(=O)c4cnc5ccccn45)cc3)nn2)c1

>  <score_type>  (47) 
oracle

>  <origin>  (47) 
adgpu

>  <m_score__min__energy>  (47) 
-11.83

>  <m_primary>  (47) 
energy

$$$$
47:0
     RDKit          3D

 55 58  0  0  0  0  0  0  0  0999 V2000
   -5.9680   24.8650  -29.7810 O   0  0  0  0  0  0  0  0  0  0  0  0
   -5.7160   24.0230  -30.6840 C   0  0  0  0  0  0  0  0  0  0  0  0
   -4.3890   23.9170  -31.2180 N   0  0  0  0  0  0  0  0  0  0  0  0
   -3.6030   22.7230  -31.3540 C   0  0  0  0  0  0  0  0  0  0  0  0
   -3.6290   21.9540  -32.5330 C   0  0  0  0  0  0  0  0  0  0  0  0
   -2.8410   20.8050  -32.6460 C   0  0  0  0  0  0  0  0  0  0  0  0
   -2.0230   20.4110  -31.5870 C   0  0  0  0  0  0  0  0  0  0  0  0
   -2.0080   21.1500  -30.4030 C   0  0  0  0  0  0  0  0  0  0  0  0
   -2.8050   22.2950  -30.2720 C   0  0  0  0  0  0  0  0  0  0  0  0
   -2.7790   23.0260  -29.0370 N   0  0  0  0  0  0  0  0  0  0  0  0
   -1.5610   23.7130  -28.6030 C   0  0  0  0  0  0  0  0  0  0  0  0
   -1.9380   24.9630  -27.8030 C   0  0  0  0  0  0  0  0  0  0  0  0
   -2.8430   24.6380  -26.7620 O   0  0  0  0  0  0  0  0  0  0  0  0
   -4.0670   24.1880  -27.3110 C   0  0  0  0  0  0  0  0  0  0  0  0
   -3.8730   22.8740  -28.0770 C   0  0  0  0  0  0  0  0  0  0  0  0
   -6.7790   23.1020  -31.1520 C   0  0  0  0  0  0  0  0  0  0  0  0
   -8.0360   23.5990  -31.5450 C   0  0  0  0  0  0  0  0  0  0  0  0
   -9.0400   22.7250  -31.9720 C   0  0  0  0  0  0  0  0  0  0  0  0
   -8.8050   21.3500  -32.0100 C   0  0  0  0  0  0  0  0  0  0  0  0
   -7.5590   20.8400  -31.6260 C   0  0  0  0  0  0  0  0  0  0  0  0
   -7.2550   19.1030  -31.6290 S   0  0  0  0  0  0  0  0  0  0  0  0
   -8.4060   18.4110  -30.9510 O   0  0  0  0  0  0  0  0  0  0  0  0
   -5.9960   18.8010  -30.8640 O   0  0  0  0  0  0  0  0  0  0  0  0
   -7.1120   18.5310  -33.2760 N   0  0  0  0  0  0  0  0  0  0  0  0
   -6.1030   19.3150  -34.0300 C   0  0  0  0  0  0  0  0  0  0  0  0
   -4.7680   18.5580  -34.1600 C   0  0  0  0  0  0  0  0  0  0  0  0
   -4.8940   17.3070  -34.8230 O   0  0  0  0  0  0  0  0  0  0  0  0
   -6.1420   16.6590  -34.5910 C   0  0  0  0  0  0  0  0  0  0  0  0
   -6.8280   17.0780  -33.2790 C   0  0  0  0  0  0  0  0  0  0  0  0
   -6.5520   21.7140  -31.1990 C   0  0  0  0  0  0  0  0  0  0  0  0
   -4.2735   22.2593  -33.3705 H   0  0  0  0  0  0  0  0  0  0  0  0
   -2.8660   20.2107  -33.5713 H   0  0  0  0  0  0  0  0  0  0  0  0
   -1.3893   19.5172  -31.6851 H   0  0  0  0  0  0  0  0  0  0  0  0
   -1.3668   20.8317  -29.5679 H   0  0  0  0  0  0  0  0  0  0  0  0
   -0.9652   23.0386  -27.9704 H   0  0  0  0  0  0  0  0  0  0  0  0
   -0.9710   24.0055  -29.4841 H   0  0  0  0  0  0  0  0  0  0  0  0
   -1.0279   25.4004  -27.3667 H   0  0  0  0  0  0  0  0  0  0  0  0
   -2.4214   25.6831  -28.4796 H   0  0  0  0  0  0  0  0  0  0  0  0
   -4.7892   24.0271  -26.4971 H   0  0  0  0  0  0  0  0  0  0  0  0
   -4.4399   24.9507  -28.0104 H   0  0  0  0  0  0  0  0  0  0  0  0
   -3.6296   22.0688  -27.3681 H   0  0  0  0  0  0  0  0  0  0  0  0
   -4.7995   22.6222  -28.6138 H   0  0  0  0  0  0  0  0  0  0  0  0
   -8.2294   24.6815  -31.5159 H   0  0  0  0  0  0  0  0  0  0  0  0
  -10.0186   23.1225  -32.2791 H   0  0  0  0  0  0  0  0  0  0  0  0
   -9.5998   20.6659  -32.3421 H   0  0  0  0  0  0  0  0  0  0  0  0
   -8.0460   18.6800  -33.7260 H   0  0  0  0  0  0  0  0  0  0  0  0
   -6.4938   19.5225  -35.0371 H   0  0  0  0  0  0  0  0  0  0  0  0
   -5.9139   20.2477  -33.4783 H   0  0  0  0  0  0  0  0  0  0  0  0
   -4.0648   19.1850  -34.7279 H   0  0  0  0  0  0  0  0  0  0  0  0
   -4.4092   18.3522  -33.1407 H   0  0  0  0  0  0  0  0  0  0  0  0
   -6.8168   16.8979  -35.4262 H   0  0  0  0  0  0  0  0  0  0  0  0
   -5.9326   15.5820  -34.5118 H   0  0  0  0  0  0  0  0  0  0  0  0
   -7.7733   16.5254  -33.1736 H   0  0  0  0  0  0  0  0  0  0  0  0
   -6.1550   16.8481  -32.4398 H   0  0  0  0  0  0  0  0  0  0  0  0
   -5.5737   21.3117  -30.8973 H   0  0  0  0  0  0  0  0  0  0  0  0
  1  2  2  0
  2  3  1  0
  3  4  1  0
  4  5  2  0
  5  6  1  0
  6  7  2  0
  7  8  1  0
  8  9  2  0
  9 10  1  0
 10 11  1  0
 11 12  1  0
 12 13  1  0
 13 14  1  0
 14 15  1  0
  2 16  1  0
 16 17  2  0
 17 18  1  0
 18 19  2  0
 19 20  1  0
 20 21  1  0
 21 22  2  0
 21 23  2  0
 21 24  1  0
 24 25  1  0
 25 26  1  0
 26 27  1  0
 27 28  1  0
 28 29  1  0
 20 30  2  0
  9  4  1  0
 15 10  1  0
 30 16  1  0
 29 24  1  0
  5 31  1  0
  6 32  1  0
  7 33  1  0
  8 34  1  0
 11 35  1  0
 11 36  1  0
 12 37  1  0
 12 38  1  0
 14 39  1  0
 14 40  1  0
 15 41  1  0
 15 42  1  0
 17 43  1  0
 18 44  1  0
 19 45  1  0
 24 46  1  0
 25 47  1  0
 25 48  1  0
 26 49  1  0
 26 50  1  0
 28 51  1  0
 28 52  1  0
 29 53  1  0
 29 54  1  0
 30 55  1  0
M  CHG  2   3  -1  24   1
M  END
>  <UniqueID>  (48) 
44

>  <SMILES>  (48) 
O=C([N-]c1ccccc1N1CCOCC1)c1cccc(S(=O)(=O)[NH+]2CCOCC2)c1

>  <Energy>  (48) 
79.53534276213726

>  <Genealogy>  (48) 
O=C([N-]c1ccccc1N1CCOCC1)c1cccc(S(=O)(=O)[NH+]2CCOCC2)c1 (protonated)
O=C([N-]c1ccccc1N1CCOCC1)c1cccc(S(=O)(=O)[NH+]2CCOCC2)c1 (3D coordinates assigned)
O=C([N-]c1ccccc1N1CCOCC1)c1cccc(S(=O)(=O)[NH+]2CCOCC2)c1 (nonaromatic ring conformer: 79.53534276213726 kcal/mol)

>  <smiles>  (48) 
O=C(Nc1ccccc1N1CCOCC1)c1cccc(S(=O)(=O)N2CCOCC2)c1

>  <score_type>  (48) 
oracle

>  <origin>  (48) 
adgpu

>  <m_score__min__energy>  (48) 
-9.6300000000000008

>  <m_primary>  (48) 
energy

$$$$
48:0
     RDKit          3D

 34 36  0  0  0  0  0  0  0  0999 V2000
    0.3590   23.8180  -28.9760 O   0  0  0  0  0  0  0  0  0  0  0  0
   -0.8400   23.9870  -29.3250 C   0  0  0  0  0  0  0  0  0  0  0  0
   -1.4460   23.0680  -30.1230 N   0  0  0  0  0  0  0  0  0  0  0  0
   -2.7390   23.2220  -30.5170 C   0  0  0  0  0  0  0  0  0  0  0  0
   -3.3520   22.2660  -31.3300 C   0  0  0  0  0  0  0  0  0  0  0  0
   -4.6970   22.4120  -31.7240 C   0  0  0  0  0  0  0  0  0  0  0  0
   -5.3500   21.2920  -32.5230 C   0  0  0  0  0  0  0  0  0  0  0  0
   -6.2390   20.4180  -31.7220 N   0  0  0  0  0  0  0  0  0  0  0  0
   -6.1180   18.9800  -32.0360 C   0  0  0  0  0  0  0  0  0  0  0  0
   -7.2550   18.1960  -31.3650 C   0  0  0  0  0  0  0  0  0  0  0  0
   -8.5590   18.5990  -31.7710 O   0  0  0  0  0  0  0  0  0  0  0  0
   -8.6180   19.9200  -32.2940 C   0  0  0  0  0  0  0  0  0  0  0  0
   -7.6380   20.8870  -31.6080 C   0  0  0  0  0  0  0  0  0  0  0  0
   -5.4040   23.5840  -31.3330 C   0  0  0  0  0  0  0  0  0  0  0  0
   -6.7520   23.8320  -31.7590 N   0  0  0  0  0  0  0  0  0  0  0  0
   -7.6840   23.8020  -30.9290 O   0  0  0  0  0  0  0  0  0  0  0  0
   -7.0580   23.7910  -33.1000 O   0  0  0  0  0  0  0  0  0  0  0  0
   -4.7810   24.5280  -30.5000 C   0  0  0  0  0  0  0  0  0  0  0  0
   -3.4600   24.3510  -30.0920 C   0  0  0  0  0  0  0  0  0  0  0  0
   -2.8510   25.2690  -29.2960 N   0  0  0  0  0  0  0  0  0  0  0  0
   -1.5600   25.1140  -28.9020 C   0  0  0  0  0  0  0  0  0  0  0  0
   -1.0220   25.9800  -28.1620 O   0  0  0  0  0  0  0  0  0  0  0  0
   -2.7786   21.3896  -31.6664 H   0  0  0  0  0  0  0  0  0  0  0  0
   -5.9455   21.7446  -33.3296 H   0  0  0  0  0  0  0  0  0  0  0  0
   -4.5365   20.6560  -32.9020 H   0  0  0  0  0  0  0  0  0  0  0  0
   -6.1729   18.8396  -33.1256 H   0  0  0  0  0  0  0  0  0  0  0  0
   -5.1535   18.6090  -31.6590 H   0  0  0  0  0  0  0  0  0  0  0  0
   -7.1311   17.1307  -31.6096 H   0  0  0  0  0  0  0  0  0  0  0  0
   -7.1835   18.3958  -30.2857 H   0  0  0  0  0  0  0  0  0  0  0  0
   -8.3787   19.8823  -33.3670 H   0  0  0  0  0  0  0  0  0  0  0  0
   -9.6341   20.2993  -32.1107 H   0  0  0  0  0  0  0  0  0  0  0  0
   -7.7224   21.8762  -32.0817 H   0  0  0  0  0  0  0  0  0  0  0  0
   -7.8972   20.9388  -30.5402 H   0  0  0  0  0  0  0  0  0  0  0  0
   -5.3405   25.4146  -30.1668 H   0  0  0  0  0  0  0  0  0  0  0  0
  1  2  2  0
  2  3  1  0
  3  4  1  0
  4  5  2  0
  5  6  1  0
  6  7  1  0
  7  8  1  0
  8  9  1  0
  9 10  1  0
 10 11  1  0
 11 12  1  0
 12 13  1  0
  6 14  2  0
 14 15  1  0
 15 16  2  0
 15 17  1  0
 14 18  1  0
 18 19  2  0
 19 20  1  0
 20 21  1  0
 21 22  2  0
 21  2  1  0
 19  4  1  0
 13  8  1  0
  5 23  1  0
  7 24  1  0
  7 25  1  0
  9 26  1  0
  9 27  1  0
 10 28  1  0
 10 29  1  0
 12 30  1  0
 12 31  1  0
 13 32  1  0
 13 33  1  0
 18 34  1  0
M  CHG  4   3  -1  15   1  17  -1  20  -1
M  END
>  <UniqueID>  (49) 
45

>  <SMILES>  (49) 
O=c1[n-]c2cc(CN3CCOCC3)c([N+](=O)[O-])cc2[n-]c1=O

>  <Energy>  (49) 
64.7282923836429

>  <Genealogy>  (49) 
O=c1[n-]c2cc(CN3CCOCC3)c([N+](=O)[O-])cc2[n-]c1=O (protonated)
O=c1[n-]c2cc(CN3CCOCC3)c([N+](=O)[O-])cc2[n-]c1=O (3D coordinates assigned)
O=c1[n-]c2cc(CN3CCOCC3)c([N+](=O)[O-])cc2[n-]c1=O (nonaromatic ring conformer: 64.7282923836429 kcal/mol)

>  <smiles>  (49) 
O=c1[nH]c2cc(CN3CCOCC3)c([N+](=O)[O-])cc2[nH]c1=O

>  <score_type>  (49) 
oracle

>  <origin>  (49) 
adgpu

>  <m_score__min__energy>  (49) 
-9.3300000000000001

>  <m_primary>  (49) 
energy

$$$$
