0:0
     RDKit          3D

 27 28  0  0  0  0  0  0  0  0999 V2000
   -2.9070   22.5030  -30.5270 C   0  0  0  0  0  0  0  0  0  0  0  0
   -3.2500   23.0640  -29.1850 C   0  0  0  0  0  0  0  0  0  0  0  0
   -2.5530   22.7650  -28.0680 N   0  0  0  0  0  0  0  0  0  0  0  0
   -3.1680   23.4690  -27.0960 C   0  0  0  0  0  0  0  0  0  0  0  0
   -4.2180   24.1800  -27.6320 C   0  0  0  0  0  0  0  0  0  0  0  0
   -4.2660   23.9190  -28.9470 N   0  0  0  0  0  0  0  0  0  0  0  0
   -5.3980   24.5930  -30.0780 S   0  0  0  0  0  0  0  0  0  0  0  0
   -6.2150   25.6570  -29.4030 O   0  0  0  0  0  0  0  0  0  0  0  0
   -4.6380   25.2510  -31.1960 O   0  0  0  0  0  0  0  0  0  0  0  0
   -6.3790   23.2930  -30.7810 C   0  0  0  0  0  0  0  0  0  0  0  0
   -7.5640   22.9630  -30.1010 C   0  0  0  0  0  0  0  0  0  0  0  0
   -8.3670   21.9060  -30.5300 C   0  0  0  0  0  0  0  0  0  0  0  0
   -7.9960   21.1570  -31.6450 C   0  0  0  0  0  0  0  0  0  0  0  0
   -9.0910   19.7030  -32.2270 Br  0  0  0  0  0  0  0  0  0  0  0  0
   -6.8300   21.4750  -32.3420 C   0  0  0  0  0  0  0  0  0  0  0  0
   -6.0200   22.5490  -31.9370 C   0  0  0  0  0  0  0  0  0  0  0  0
   -4.8680   22.8620  -32.7300 N   0  0  0  0  0  0  0  0  0  0  0  0
   -2.3370   21.5708  -30.3999 H   0  0  0  0  0  0  0  0  0  0  0  0
   -3.8320   22.2941  -31.0844 H   0  0  0  0  0  0  0  0  0  0  0  0
   -2.2995   23.2311  -31.0844 H   0  0  0  0  0  0  0  0  0  0  0  0
   -2.8751   23.4743  -26.0357 H   0  0  0  0  0  0  0  0  0  0  0  0
   -4.8979   24.8450  -27.0793 H   0  0  0  0  0  0  0  0  0  0  0  0
   -7.8626   23.5467  -29.2177 H   0  0  0  0  0  0  0  0  0  0  0  0
   -9.2931   21.6638  -29.9881 H   0  0  0  0  0  0  0  0  0  0  0  0
   -6.5414   20.8775  -33.2193 H   0  0  0  0  0  0  0  0  0  0  0  0
   -4.1400   23.5340  -32.4100 H   0  0  0  0  0  0  0  0  0  0  0  0
   -4.8320   22.5830  -33.7350 H   0  0  0  0  0  0  0  0  0  0  0  0
  1  2  1  0
  2  3  2  0
  3  4  1  0
  4  5  2  0
  5  6  1  0
  6  7  1  0
  7  8  2  0
  7  9  2  0
  7 10  1  0
 10 11  2  0
 11 12  1  0
 12 13  2  0
 13 14  1  0
 13 15  1  0
 15 16  2  0
 16 17  1  0
  6  2  1  0
 16 10  1  0
  1 18  1  0
  1 19  1  0
  1 20  1  0
  4 21  1  0
  5 22  1  0
 11 23  1  0
 12 24  1  0
 15 25  1  0
 17 26  1  0
 17 27  1  0
M  END
>  <UniqueID>  (1) 
1

>  <SMILES>  (1) 
Cc1nccn1S(=O)(=O)c1ccc(Br)cc1N

>  <Energy>  (1) 
62.067741764222475

>  <Genealogy>  (1) 
Cc1nccn1S(=O)(=O)c1ccc(Br)cc1N (3D coordinates assigned)
Cc1nccn1S(=O)(=O)c1ccc(Br)cc1N (optimized conformer: 62.067741764222475 kcal/mol)

>  <smiles>  (1) 
Cc1nccn1S(=O)(=O)c1ccc(Br)cc1N

>  <score_type>  (1) 
oracle

>  <origin>  (1) 
adgpu

>  <m_score__min__energy>  (1) 
-7.1600000000000001

>  <m_primary>  (1) 
energy

$$$$
1:0
     RDKit          3D

 51 54  0  0  0  0  0  0  0  0999 V2000
   -7.6030   23.2130  -31.3170 C   0  0  0  0  0  0  0  0  0  0  0  0
   -8.4700   22.0980  -31.4920 O   0  0  0  0  0  0  0  0  0  0  0  0
   -8.0490   20.8290  -31.9160 C   0  0  0  0  0  0  0  0  0  0  0  0
   -6.8890   20.7380  -32.6930 C   0  0  0  0  0  0  0  0  0  0  0  0
   -6.4220   19.4950  -33.1320 C   0  0  0  0  0  0  0  0  0  0  0  0
   -7.1160   18.3200  -32.8030 C   0  0  0  0  0  0  0  0  0  0  0  0
   -6.6140   17.0010  -33.2300 C   0  0  0  0  0  0  0  0  0  0  0  0
   -6.8950   16.4190  -34.4150 N   0  0  0  0  0  0  0  0  0  0  0  0
   -6.2270   15.2750  -34.4360 N   0  0  0  0  0  0  0  0  0  0  0  0
   -5.5710   15.2050  -33.2640 C   0  0  0  0  0  0  0  0  0  0  0  0
   -4.4550   13.8870  -32.8040 S   0  0  0  0  0  0  0  0  0  0  0  0
   -3.0590   15.0120  -32.7690 C   0  0  0  0  0  0  0  0  0  0  0  0
   -1.7900   14.5480  -32.4250 C   0  0  0  0  0  0  0  0  0  0  0  0
   -0.6940   15.4130  -32.4700 C   0  0  0  0  0  0  0  0  0  0  0  0
   -0.8480   16.7450  -32.8870 C   0  0  0  0  0  0  0  0  0  0  0  0
    0.3240   17.5600  -33.0280 N   0  0  0  0  0  0  0  0  0  0  0  0
   -2.1410   17.2250  -33.2200 C   0  0  0  0  0  0  0  0  0  0  0  0
   -2.3960   18.6120  -33.6680 C   0  0  0  0  0  0  0  0  0  0  0  0
   -3.2670   18.8460  -34.5480 O   0  0  0  0  0  0  0  0  0  0  0  0
   -1.6450   19.6820  -33.0780 N   0  0  0  0  0  0  0  0  0  0  0  0
   -2.1370   20.8060  -32.3350 C   0  0  0  0  0  0  0  0  0  0  0  0
   -1.3290   21.3380  -31.3220 C   0  0  0  0  0  0  0  0  0  0  0  0
   -1.7500   22.4510  -30.5880 C   0  0  0  0  0  0  0  0  0  0  0  0
   -2.9810   23.0570  -30.8720 C   0  0  0  0  0  0  0  0  0  0  0  0
   -3.5270   24.4560  -29.9530 S   0  0  0  0  0  0  0  0  0  0  0  0
   -2.1620   25.2820  -29.2890 N   0  0  0  0  0  0  0  0  0  0  0  0
   -4.4260   24.0220  -28.8290 O   0  0  0  0  0  0  0  0  0  0  0  0
   -4.2830   25.3840  -30.8620 O   0  0  0  0  0  0  0  0  0  0  0  0
   -3.7850   22.5410  -31.8970 C   0  0  0  0  0  0  0  0  0  0  0  0
   -3.3650   21.4280  -32.6310 C   0  0  0  0  0  0  0  0  0  0  0  0
   -3.2360   16.3480  -33.1430 C   0  0  0  0  0  0  0  0  0  0  0  0
   -5.8080   16.2540  -32.5170 O   0  0  0  0  0  0  0  0  0  0  0  0
   -8.2840   18.4100  -32.0270 C   0  0  0  0  0  0  0  0  0  0  0  0
   -8.7490   19.6520  -31.5880 C   0  0  0  0  0  0  0  0  0  0  0  0
   -7.4579   23.3996  -30.2427 H   0  0  0  0  0  0  0  0  0  0  0  0
   -6.6315   22.9993  -31.7865 H   0  0  0  0  0  0  0  0  0  0  0  0
   -8.0495   24.1019  -31.7865 H   0  0  0  0  0  0  0  0  0  0  0  0
   -6.3394   21.6524  -32.9610 H   0  0  0  0  0  0  0  0  0  0  0  0
   -5.5060   19.4378  -33.7383 H   0  0  0  0  0  0  0  0  0  0  0  0
   -1.6518   13.5007  -32.1181 H   0  0  0  0  0  0  0  0  0  0  0  0
    0.3005   15.0467  -32.1756 H   0  0  0  0  0  0  0  0  0  0  0  0
    0.2720   18.5990  -33.0860 H   0  0  0  0  0  0  0  0  0  0  0  0
    1.2550   17.1190  -33.1950 H   0  0  0  0  0  0  0  0  0  0  0  0
   -0.3551   20.8763  -31.1021 H   0  0  0  0  0  0  0  0  0  0  0  0
   -1.1133   22.8519  -29.7856 H   0  0  0  0  0  0  0  0  0  0  0  0
   -1.6090   25.6540  -30.0930 H   0  0  0  0  0  0  0  0  0  0  0  0
   -4.7515   23.0141  -32.1252 H   0  0  0  0  0  0  0  0  0  0  0  0
   -3.9960   21.0367  -33.4426 H   0  0  0  0  0  0  0  0  0  0  0  0
   -4.2450   16.7167  -33.3798 H   0  0  0  0  0  0  0  0  0  0  0  0
   -8.8362   17.4959  -31.7633 H   0  0  0  0  0  0  0  0  0  0  0  0
   -9.6661   19.7108  -30.9834 H   0  0  0  0  0  0  0  0  0  0  0  0
  1  2  1  0
  2  3  1  0
  3  4  2  0
  4  5  1  0
  5  6  2  0
  6  7  1  0
  7  8  2  0
  8  9  1  0
  9 10  2  0
 10 11  1  0
 11 12  1  0
 12 13  2  0
 13 14  1  0
 14 15  2  0
 15 16  1  0
 15 17  1  0
 17 18  1  0
 18 19  2  0
 18 20  1  0
 20 21  1  0
 21 22  2  0
 22 23  1  0
 23 24  2  0
 24 25  1  0
 25 26  1  0
 25 27  2  0
 25 28  2  0
 24 29  1  0
 29 30  2  0
 17 31  2  0
 10 32  1  0
  6 33  1  0
 33 34  2  0
 34  3  1  0
 32  7  1  0
 31 12  1  0
 30 21  1  0
  1 35  1  0
  1 36  1  0
  1 37  1  0
  4 38  1  0
  5 39  1  0
 13 40  1  0
 14 41  1  0
 16 42  1  0
 16 43  1  0
 22 44  1  0
 23 45  1  0
 26 46  1  0
 29 47  1  0
 30 48  1  0
 31 49  1  0
 33 50  1  0
 34 51  1  0
M  CHG  2  20  -1  26  -1
M  END
>  <UniqueID>  (2) 
2

>  <SMILES>  (2) 
COc1ccc(-c2nnc(Sc3ccc(N)c(C(=O)[N-]c4ccc(S([NH-])(=O)=O)cc4)c3)o2)cc1

>  <Energy>  (2) 
93.88411179963711

>  <Genealogy>  (2) 
COc1ccc(-c2nnc(Sc3ccc(N)c(C(=O)[N-]c4ccc(S([NH-])(=O)=O)cc4)c3)o2)cc1 (protonated)
COc1ccc(-c2nnc(Sc3ccc(N)c(C(=O)[N-]c4ccc(S([NH-])(=O)=O)cc4)c3)o2)cc1 (3D coordinates assigned)
COc1ccc(-c2nnc(Sc3ccc(N)c(C(=O)[N-]c4ccc(S([NH-])(=O)=O)cc4)c3)o2)cc1 (optimized conformer: 93.88411179963711 kcal/mol)

>  <smiles>  (2) 
COc1ccc(-c2nnc(Sc3ccc(N)c(C(=O)Nc4ccc(S(N)(=O)=O)cc4)c3)o2)cc1

>  <score_type>  (2) 
oracle

>  <origin>  (2) 
adgpu

>  <m_score__min__energy>  (2) 
-11.34

>  <m_primary>  (2) 
energy

$$$$
2:0
     RDKit          3D

 43 46  0  0  0  0  0  0  0  0999 V2000
   -8.6020   22.7010  -31.5960 C   0  0  0  0  0  0  0  0  0  0  0  0
   -7.2460   23.2620  -31.2550 C   0  0  0  0  0  0  0  0  0  0  0  0
   -7.1790   24.4510  -30.5090 C   0  0  0  0  0  0  0  0  0  0  0  0
   -5.9500   25.0400  -30.2100 C   0  0  0  0  0  0  0  0  0  0  0  0
   -4.7610   24.4530  -30.6450 C   0  0  0  0  0  0  0  0  0  0  0  0
   -3.5140   25.0930  -30.3340 N   0  0  0  0  0  0  0  0  0  0  0  0
   -2.4810   24.5810  -29.4790 C   0  0  0  0  0  0  0  0  0  0  0  0
   -1.6240   25.3830  -29.0210 O   0  0  0  0  0  0  0  0  0  0  0  0
   -2.3740   23.1410  -29.1480 C   0  0  0  0  0  0  0  0  0  0  0  0
   -2.8780   22.6410  -27.9330 C   0  0  0  0  0  0  0  0  0  0  0  0
   -2.7320   21.2870  -27.6130 C   0  0  0  0  0  0  0  0  0  0  0  0
   -2.0940   20.4200  -28.5030 C   0  0  0  0  0  0  0  0  0  0  0  0
   -1.6090   20.9040  -29.7210 C   0  0  0  0  0  0  0  0  0  0  0  0
   -0.9910   20.0600  -30.5840 F   0  0  0  0  0  0  0  0  0  0  0  0
   -1.7530   22.2560  -30.0480 C   0  0  0  0  0  0  0  0  0  0  0  0
   -4.8110   23.2340  -31.3380 C   0  0  0  0  0  0  0  0  0  0  0  0
   -6.0410   22.6360  -31.6710 C   0  0  0  0  0  0  0  0  0  0  0  0
   -6.0050   21.3860  -32.4740 C   0  0  0  0  0  0  0  0  0  0  0  0
   -7.0740   20.8210  -33.0700 N   0  0  0  0  0  0  0  0  0  0  0  0
   -6.6150   19.7530  -33.6460 O   0  0  0  0  0  0  0  0  0  0  0  0
   -5.3280   19.6480  -33.4220 C   0  0  0  0  0  0  0  0  0  0  0  0
   -4.4760   18.5540  -33.9280 C   0  0  0  0  0  0  0  0  0  0  0  0
   -3.0760   18.6560  -33.8570 C   0  0  0  0  0  0  0  0  0  0  0  0
   -2.2690   17.6180  -34.3350 C   0  0  0  0  0  0  0  0  0  0  0  0
   -2.8510   16.4740  -34.8850 C   0  0  0  0  0  0  0  0  0  0  0  0
   -4.2420   16.3640  -34.9590 C   0  0  0  0  0  0  0  0  0  0  0  0
   -5.0530   17.3980  -34.4840 C   0  0  0  0  0  0  0  0  0  0  0  0
   -4.8780   20.6690  -32.6690 N   0  0  0  0  0  0  0  0  0  0  0  0
   -9.1489   22.4747  -30.6688 H   0  0  0  0  0  0  0  0  0  0  0  0
   -9.1669   23.4393  -32.1841 H   0  0  0  0  0  0  0  0  0  0  0  0
   -8.4802   21.7794  -32.1841 H   0  0  0  0  0  0  0  0  0  0  0  0
   -8.1076   24.9235  -30.1562 H   0  0  0  0  0  0  0  0  0  0  0  0
   -5.9181   25.9728  -29.6278 H   0  0  0  0  0  0  0  0  0  0  0  0
   -3.3888   23.3175  -27.2320 H   0  0  0  0  0  0  0  0  0  0  0  0
   -3.1207   20.9041  -26.6579 H   0  0  0  0  0  0  0  0  0  0  0  0
   -1.9734   19.3574  -28.2455 H   0  0  0  0  0  0  0  0  0  0  0  0
   -1.3791   22.6290  -31.0129 H   0  0  0  0  0  0  0  0  0  0  0  0
   -3.8728   22.7371  -31.6260 H   0  0  0  0  0  0  0  0  0  0  0  0
   -2.6132   19.5551  -33.4241 H   0  0  0  0  0  0  0  0  0  0  0  0
   -1.1738   17.7032  -34.2775 H   0  0  0  0  0  0  0  0  0  0  0  0
   -2.2143   15.6592  -35.2601 H   0  0  0  0  0  0  0  0  0  0  0  0
   -4.6993   15.4620  -35.3918 H   0  0  0  0  0  0  0  0  0  0  0  0
   -6.1476   17.3075  -34.5452 H   0  0  0  0  0  0  0  0  0  0  0  0
  1  2  1  0
  2  3  2  0
  3  4  1  0
  4  5  2  0
  5  6  1  0
  6  7  1  0
  7  8  2  0
  7  9  1  0
  9 10  2  0
 10 11  1  0
 11 12  2  0
 12 13  1  0
 13 14  1  0
 13 15  2  0
  5 16  1  0
 16 17  2  0
 17 18  1  0
 18 19  2  0
 19 20  1  0
 20 21  1  0
 21 22  1  0
 22 23  2  0
 23 24  1  0
 24 25  2  0
 25 26  1  0
 26 27  2  0
 21 28  2  0
 17  2  1  0
 28 18  1  0
 15  9  1  0
 27 22  1  0
  1 29  1  0
  1 30  1  0
  1 31  1  0
  3 32  1  0
  4 33  1  0
 10 34  1  0
 11 35  1  0
 12 36  1  0
 15 37  1  0
 16 38  1  0
 23 39  1  0
 24 40  1  0
 25 41  1  0
 26 42  1  0
 27 43  1  0
M  CHG  1   6  -1
M  END
>  <UniqueID>  (3) 
3

>  <SMILES>  (3) 
Cc1ccc([N-]C(=O)c2cccc(F)c2)cc1-c1noc(-c2ccccc2)n1

>  <Energy>  (3) 
90.93963682673878

>  <Genealogy>  (3) 
Cc1ccc([N-]C(=O)c2cccc(F)c2)cc1-c1noc(-c2ccccc2)n1 (protonated)
Cc1ccc([N-]C(=O)c2cccc(F)c2)cc1-c1noc(-c2ccccc2)n1 (3D coordinates assigned)
Cc1ccc([N-]C(=O)c2cccc(F)c2)cc1-c1noc(-c2ccccc2)n1 (optimized conformer: 90.93963682673878 kcal/mol)

>  <smiles>  (3) 
Cc1ccc(NC(=O)c2cccc(F)c2)cc1-c1noc(-c2ccccc2)n1

>  <score_type>  (3) 
oracle

>  <origin>  (3) 
adgpu

>  <m_score__min__energy>  (3) 
-10.83

>  <m_primary>  (3) 
energy

$$$$
3:0
     RDKit          3D

 41 43  0  0  0  0  0  0  0  0999 V2000
   -5.6650   26.4010  -30.2020 C   0  0  0  0  0  0  0  0  0  0  0  0
   -5.3580   24.9540  -30.4660 C   0  0  0  0  0  0  0  0  0  0  0  0
   -6.3610   24.0940  -30.9390 C   0  0  0  0  0  0  0  0  0  0  0  0
   -6.0810   22.7470  -31.2010 C   0  0  0  0  0  0  0  0  0  0  0  0
   -7.1700   21.8550  -31.6480 C   0  0  0  0  0  0  0  0  0  0  0  0
   -7.0100   20.5590  -32.0100 C   0  0  0  0  0  0  0  0  0  0  0  0
   -5.7670   19.9920  -32.1140 N   0  0  0  0  0  0  0  0  0  0  0  0
   -5.5950   18.6900  -32.4750 C   0  0  0  0  0  0  0  0  0  0  0  0
   -4.4280   18.2130  -32.4910 O   0  0  0  0  0  0  0  0  0  0  0  0
   -6.7250   17.8970  -32.7920 C   0  0  0  0  0  0  0  0  0  0  0  0
   -6.6730   16.6030  -33.1750 C   0  0  0  0  0  0  0  0  0  0  0  0
   -5.4520   15.8350  -33.4850 C   0  0  0  0  0  0  0  0  0  0  0  0
   -4.7290   16.1260  -34.6510 C   0  0  0  0  0  0  0  0  0  0  0  0
   -3.5420   15.4420  -34.9310 C   0  0  0  0  0  0  0  0  0  0  0  0
   -3.0600   14.4790  -34.0400 C   0  0  0  0  0  0  0  0  0  0  0  0
   -3.7600   14.2040  -32.8600 C   0  0  0  0  0  0  0  0  0  0  0  0
   -3.1450   13.0100  -31.7310 Cl  0  0  0  0  0  0  0  0  0  0  0  0
   -4.9470   14.8890  -32.5760 C   0  0  0  0  0  0  0  0  0  0  0  0
   -7.9530   18.4680  -32.6860 N   0  0  0  0  0  0  0  0  0  0  0  0
   -8.1320   19.7600  -32.3140 C   0  0  0  0  0  0  0  0  0  0  0  0
   -9.3050   20.2180  -32.2430 O   0  0  0  0  0  0  0  0  0  0  0  0
   -4.7970   22.2460  -30.9380 C   0  0  0  0  0  0  0  0  0  0  0  0
   -3.7790   23.0950  -30.4780 C   0  0  0  0  0  0  0  0  0  0  0  0
   -2.4090   22.5460  -30.1980 C   0  0  0  0  0  0  0  0  0  0  0  0
   -4.0650   24.4520  -30.2380 C   0  0  0  0  0  0  0  0  0  0  0  0
   -3.0640   25.2990  -29.7640 O   0  0  0  0  0  0  0  0  0  0  0  0
   -5.7021   26.5759  -29.1166 H   0  0  0  0  0  0  0  0  0  0  0  0
   -4.8802   27.0296  -30.6481 H   0  0  0  0  0  0  0  0  0  0  0  0
   -6.6374   26.6568  -30.6481 H   0  0  0  0  0  0  0  0  0  0  0  0
   -7.3769   24.4816  -31.1056 H   0  0  0  0  0  0  0  0  0  0  0  0
   -8.1863   22.2737  -31.6902 H   0  0  0  0  0  0  0  0  0  0  0  0
   -4.9040   20.5530  -31.9410 H   0  0  0  0  0  0  0  0  0  0  0  0
   -7.6318   16.0713  -33.2643 H   0  0  0  0  0  0  0  0  0  0  0  0
   -5.0967   16.8943  -35.3471 H   0  0  0  0  0  0  0  0  0  0  0  0
   -2.9864   15.6623  -35.8545 H   0  0  0  0  0  0  0  0  0  0  0  0
   -2.1300   13.9370  -34.2665 H   0  0  0  0  0  0  0  0  0  0  0  0
   -5.4863   14.6866  -31.6389 H   0  0  0  0  0  0  0  0  0  0  0  0
   -4.5865   21.1776  -31.0939 H   0  0  0  0  0  0  0  0  0  0  0  0
   -2.2540   22.4839  -29.1107 H   0  0  0  0  0  0  0  0  0  0  0  0
   -2.3190   21.5423  -30.6391 H   0  0  0  0  0  0  0  0  0  0  0  0
   -1.6508   23.2097  -30.6391 H   0  0  0  0  0  0  0  0  0  0  0  0
  1  2  1  0
  2  3  2  0
  3  4  1  0
  4  5  1  0
  5  6  2  3
  6  7  1  0
  7  8  1  0
  8  9  2  0
  8 10  1  0
 10 11  2  3
 11 12  1  0
 12 13  2  0
 13 14  1  0
 14 15  2  0
 15 16  1  0
 16 17  1  0
 16 18  2  0
 10 19  1  0
 19 20  1  0
 20 21  2  0
  4 22  2  0
 22 23  1  0
 23 24  1  0
 23 25  2  0
 25 26  1  0
 25  2  1  0
 20  6  1  0
 18 12  1  0
  1 27  1  0
  1 28  1  0
  1 29  1  0
  3 30  1  0
  5 31  1  0
  7 32  1  0
 11 33  1  0
 13 34  1  0
 14 35  1  0
 15 36  1  0
 18 37  1  0
 22 38  1  0
 24 39  1  0
 24 40  1  0
 24 41  1  0
M  CHG  2  19  -1  26  -1
M  END
>  <UniqueID>  (4) 
4

>  <SMILES>  (4) 
Cc1cc(C=c2[nH]c(=O)c(=Cc3cccc(Cl)c3)[n-]c2=O)cc(C)c1[O-]

>  <Energy>  (4) 
67.81920468536416

>  <Genealogy>  (4) 
Cc1cc(C=c2[nH]c(=O)c(=Cc3cccc(Cl)c3)[n-]c2=O)cc(C)c1[O-] (protonated)
Cc1cc(C=c2[nH]c(=O)c(=Cc3cccc(Cl)c3)[n-]c2=O)cc(C)c1[O-] (3D coordinates assigned)
Cc1cc(C=c2[nH]c(=O)c(=Cc3cccc(Cl)c3)[n-]c2=O)cc(C)c1[O-] (optimized conformer: 67.81920468536416 kcal/mol)

>  <smiles>  (4) 
Cc1cc(C=c2[nH]c(=O)c(=Cc3cccc(Cl)c3)[nH]c2=O)cc(C)c1O

>  <score_type>  (4) 
oracle

>  <origin>  (4) 
adgpu

>  <m_score__min__energy>  (4) 
-11.57

>  <m_primary>  (4) 
energy

$$$$
4:0
     RDKit          3D

 46 50  0  0  0  0  0  0  0  0999 V2000
   -1.6470   26.3310  -25.1500 C   0  0  0  0  0  0  0  0  0  0  0  0
   -2.1340   25.5780  -26.3530 C   0  0  0  0  0  0  0  0  0  0  0  0
   -3.3820   24.9420  -26.3300 C   0  0  0  0  0  0  0  0  0  0  0  0
   -3.8220   24.2080  -27.4360 C   0  0  0  0  0  0  0  0  0  0  0  0
   -3.0170   24.0930  -28.5840 C   0  0  0  0  0  0  0  0  0  0  0  0
   -3.4980   23.3020  -29.7470 C   0  0  0  0  0  0  0  0  0  0  0  0
   -4.8660   23.1220  -30.0050 C   0  0  0  0  0  0  0  0  0  0  0  0
   -5.2540   22.3580  -31.1150 C   0  0  0  0  0  0  0  0  0  0  0  0
   -6.6460   22.1610  -31.4280 N   0  0  0  0  0  0  0  0  0  0  0  0
   -7.6040   23.1200  -31.5300 C   0  0  0  0  0  0  0  0  0  0  0  0
   -8.8200   22.6330  -31.8850 N   0  0  0  0  0  0  0  0  0  0  0  0
   -8.5970   21.3130  -32.0060 C   0  0  0  0  0  0  0  0  0  0  0  0
   -9.5220   20.3280  -32.3440 C   0  0  0  0  0  0  0  0  0  0  0  0
   -9.0730   18.9960  -32.3950 C   0  0  0  0  0  0  0  0  0  0  0  0
   -7.7270   18.6850  -32.1010 C   0  0  0  0  0  0  0  0  0  0  0  0
   -6.8160   19.7020  -31.7610 C   0  0  0  0  0  0  0  0  0  0  0  0
   -7.2910   21.0180  -31.7350 C   0  0  0  0  0  0  0  0  0  0  0  0
   -4.2970   21.8090  -31.9070 N   0  0  0  0  0  0  0  0  0  0  0  0
   -2.9740   21.9760  -31.6450 C   0  0  0  0  0  0  0  0  0  0  0  0
   -1.9650   21.3580  -32.5150 C   0  0  0  0  0  0  0  0  0  0  0  0
   -2.1990   20.7940  -33.7660 C   0  0  0  0  0  0  0  0  0  0  0  0
   -1.0450   20.2680  -34.3600 C   0  0  0  0  0  0  0  0  0  0  0  0
    0.0950   20.4330  -33.5830 C   0  0  0  0  0  0  0  0  0  0  0  0
    1.4530   19.9110  -33.9100 C   0  0  0  0  0  0  0  0  0  0  0  0
   -0.3290   21.1990  -32.1470 S   0  0  0  0  0  0  0  0  0  0  0  0
   -2.5900   22.7160  -30.5730 N   0  0  0  0  0  0  0  0  0  0  0  0
   -1.7510   24.7090  -28.5890 C   0  0  0  0  0  0  0  0  0  0  0  0
   -1.3140   25.4420  -27.4810 C   0  0  0  0  0  0  0  0  0  0  0  0
   -1.9795   25.8168  -24.2362 H   0  0  0  0  0  0  0  0  0  0  0  0
   -0.5481   26.3764  -25.1659 H   0  0  0  0  0  0  0  0  0  0  0  0
   -2.0564   27.3519  -25.1659 H   0  0  0  0  0  0  0  0  0  0  0  0
   -4.0194   25.0204  -25.4369 H   0  0  0  0  0  0  0  0  0  0  0  0
   -4.8057   23.7165  -27.4081 H   0  0  0  0  0  0  0  0  0  0  0  0
   -5.6224   23.5735  -29.3462 H   0  0  0  0  0  0  0  0  0  0  0  0
   -7.4123   24.1869  -31.3430 H   0  0  0  0  0  0  0  0  0  0  0  0
  -10.5691   20.5834  -32.5638 H   0  0  0  0  0  0  0  0  0  0  0  0
   -9.7738   18.1923  -32.6653 H   0  0  0  0  0  0  0  0  0  0  0  0
   -7.3881   17.6392  -32.1381 H   0  0  0  0  0  0  0  0  0  0  0  0
   -5.7671   19.4707  -31.5239 H   0  0  0  0  0  0  0  0  0  0  0  0
   -3.1910   20.7644  -34.2404 H   0  0  0  0  0  0  0  0  0  0  0  0
   -1.0414   19.7739  -35.3428 H   0  0  0  0  0  0  0  0  0  0  0  0
    1.9992   19.7010  -32.9786 H   0  0  0  0  0  0  0  0  0  0  0  0
    1.3585   18.9851  -34.4963 H   0  0  0  0  0  0  0  0  0  0  0  0
    2.0030   20.6618  -34.4963 H   0  0  0  0  0  0  0  0  0  0  0  0
   -1.1007   24.6130  -29.4710 H   0  0  0  0  0  0  0  0  0  0  0  0
   -0.3208   25.9145  -27.4951 H   0  0  0  0  0  0  0  0  0  0  0  0
  1  2  1  0
  2  3  2  0
  3  4  1  0
  4  5  2  0
  5  6  1  0
  6  7  2  0
  7  8  1  0
  8  9  1  0
  9 10  1  0
 10 11  2  0
 11 12  1  0
 12 13  2  0
 13 14  1  0
 14 15  2  0
 15 16  1  0
 16 17  2  0
  8 18  2  0
 18 19  1  0
 19 20  1  0
 20 21  2  0
 21 22  1  0
 22 23  2  0
 23 24  1  0
 23 25  1  0
 19 26  2  0
  5 27  1  0
 27 28  2  0
 28  2  1  0
 26  6  1  0
 17  9  1  0
 25 20  1  0
 17 12  1  0
  1 29  1  0
  1 30  1  0
  1 31  1  0
  3 32  1  0
  4 33  1  0
  7 34  1  0
 10 35  1  0
 13 36  1  0
 14 37  1  0
 15 38  1  0
 16 39  1  0
 21 40  1  0
 22 41  1  0
 24 42  1  0
 24 43  1  0
 24 44  1  0
 27 45  1  0
 28 46  1  0
M  END
>  <UniqueID>  (5) 
5

>  <SMILES>  (5) 
Cc1ccc(-c2cc(-n3cnc4ccccc43)nc(-c3ccc(C)s3)n2)cc1

>  <Energy>  (5) 
121.30918109863642

>  <Genealogy>  (5) 
Cc1ccc(-c2cc(-n3cnc4ccccc43)nc(-c3ccc(C)s3)n2)cc1 (3D coordinates assigned)
Cc1ccc(-c2cc(-n3cnc4ccccc43)nc(-c3ccc(C)s3)n2)cc1 (optimized conformer: 121.30918109863642 kcal/mol)

>  <smiles>  (5) 
Cc1ccc(-c2cc(-n3cnc4ccccc43)nc(-c3ccc(C)s3)n2)cc1

>  <score_type>  (5) 
oracle

>  <origin>  (5) 
adgpu

>  <m_score__min__energy>  (5) 
-9.3100000000000005

>  <m_primary>  (5) 
energy

$$$$
5:0
     RDKit          3D

 49 51  0  0  0  0  0  0  0  0999 V2000
   -1.6040   20.5130  -26.6000 C   0  0  0  0  0  0  0  0  0  0  0  0
   -1.5750   21.9360  -26.5490 O   0  0  0  0  0  0  0  0  0  0  0  0
   -2.1870   22.7750  -27.4930 C   0  0  0  0  0  0  0  0  0  0  0  0
   -1.5440   22.9770  -28.7190 C   0  0  0  0  0  0  0  0  0  0  0  0
   -2.1140   23.8030  -29.6920 C   0  0  0  0  0  0  0  0  0  0  0  0
   -3.3370   24.4400  -29.4560 C   0  0  0  0  0  0  0  0  0  0  0  0
   -3.8670   25.2560  -30.4700 O   0  0  0  0  0  0  0  0  0  0  0  0
   -5.2390   25.3060  -30.8570 C   0  0  0  0  0  0  0  0  0  0  0  0
   -5.6630   24.0070  -31.4750 C   0  0  0  0  0  0  0  0  0  0  0  0
   -6.7430   23.9540  -32.1230 O   0  0  0  0  0  0  0  0  0  0  0  0
   -4.8530   22.8340  -31.3000 N   0  0  0  0  0  0  0  0  0  0  0  0
   -5.1010   21.5790  -31.9570 C   0  0  0  0  0  0  0  0  0  0  0  0
   -4.0840   20.9910  -32.7230 C   0  0  0  0  0  0  0  0  0  0  0  0
   -4.3050   19.7830  -33.3890 C   0  0  0  0  0  0  0  0  0  0  0  0
   -5.5560   19.1560  -33.3170 C   0  0  0  0  0  0  0  0  0  0  0  0
   -5.8350   17.6240  -34.1530 S   0  0  0  0  0  0  0  0  0  0  0  0
   -5.6980   17.8430  -35.6350 O   0  0  0  0  0  0  0  0  0  0  0  0
   -7.2410   17.1670  -33.8800 O   0  0  0  0  0  0  0  0  0  0  0  0
   -4.7250   16.3680  -33.6600 N   0  0  0  0  0  0  0  0  0  0  0  0
   -4.8070   15.1900  -34.5220 C   0  0  0  0  0  0  0  0  0  0  0  0
   -4.3270   14.0140  -33.6870 C   0  0  0  0  0  0  0  0  0  0  0  0
   -4.4570   14.4670  -32.2400 C   0  0  0  0  0  0  0  0  0  0  0  0
   -5.0040   15.8850  -32.3100 C   0  0  0  0  0  0  0  0  0  0  0  0
   -6.5800   19.7470  -32.5640 C   0  0  0  0  0  0  0  0  0  0  0  0
   -6.3590   20.9550  -31.8970 C   0  0  0  0  0  0  0  0  0  0  0  0
   -3.9860   24.2440  -28.2220 C   0  0  0  0  0  0  0  0  0  0  0  0
   -3.4150   23.4170  -27.2490 C   0  0  0  0  0  0  0  0  0  0  0  0
   -1.6122   20.1095  -25.5767 H   0  0  0  0  0  0  0  0  0  0  0  0
   -2.5090   20.1835  -27.1313 H   0  0  0  0  0  0  0  0  0  0  0  0
   -0.7131   20.1469  -27.1313 H   0  0  0  0  0  0  0  0  0  0  0  0
   -0.5823   22.4819  -28.9188 H   0  0  0  0  0  0  0  0  0  0  0  0
   -1.5967   23.9534  -30.6511 H   0  0  0  0  0  0  0  0  0  0  0  0
   -5.8578   25.5024  -29.9690 H   0  0  0  0  0  0  0  0  0  0  0  0
   -5.3686   26.1090  -31.5976 H   0  0  0  0  0  0  0  0  0  0  0  0
   -4.1010   22.8660  -30.5750 H   0  0  0  0  0  0  0  0  0  0  0  0
   -3.1042   21.4850  -32.8000 H   0  0  0  0  0  0  0  0  0  0  0  0
   -3.4939   19.3224  -33.9721 H   0  0  0  0  0  0  0  0  0  0  0  0
   -5.8453   15.0276  -34.8467 H   0  0  0  0  0  0  0  0  0  0  0  0
   -4.1936   15.3139  -35.4266 H   0  0  0  0  0  0  0  0  0  0  0  0
   -4.9543   13.1294  -33.8713 H   0  0  0  0  0  0  0  0  0  0  0  0
   -3.2939   13.7299  -33.9358 H   0  0  0  0  0  0  0  0  0  0  0  0
   -5.1515   13.8128  -31.6925 H   0  0  0  0  0  0  0  0  0  0  0  0
   -3.4944   14.4249  -31.7094 H   0  0  0  0  0  0  0  0  0  0  0  0
   -6.0879   15.8844  -32.1225 H   0  0  0  0  0  0  0  0  0  0  0  0
   -4.5377   16.5304  -31.5510 H   0  0  0  0  0  0  0  0  0  0  0  0
   -7.5628   19.2573  -32.4977 H   0  0  0  0  0  0  0  0  0  0  0  0
   -7.1736   21.4198  -31.3222 H   0  0  0  0  0  0  0  0  0  0  0  0
   -4.9457   24.7431  -28.0223 H   0  0  0  0  0  0  0  0  0  0  0  0
   -3.9288   23.2678  -26.2879 H   0  0  0  0  0  0  0  0  0  0  0  0
  1  2  1  0
  2  3  1  0
  3  4  2  0
  4  5  1  0
  5  6  2  0
  6  7  1  0
  7  8  1  0
  8  9  1  0
  9 10  2  0
  9 11  1  0
 11 12  1  0
 12 13  2  0
 13 14  1  0
 14 15  2  0
 15 16  1  0
 16 17  2  0
 16 18  2  0
 16 19  1  0
 19 20  1  0
 20 21  1  0
 21 22  1  0
 22 23  1  0
 15 24  1  0
 24 25  2  0
  6 26  1  0
 26 27  2  0
 27  3  1  0
 25 12  1  0
 23 19  1  0
  1 28  1  0
  1 29  1  0
  1 30  1  0
  4 31  1  0
  5 32  1  0
  8 33  1  0
  8 34  1  0
 11 35  1  0
 13 36  1  0
 14 37  1  0
 20 38  1  0
 20 39  1  0
 21 40  1  0
 21 41  1  0
 22 42  1  0
 22 43  1  0
 23 44  1  0
 23 45  1  0
 24 46  1  0
 25 47  1  0
 26 48  1  0
 27 49  1  0
M  END
>  <UniqueID>  (6) 
6

>  <SMILES>  (6) 
COc1ccc(OCC(=O)Nc2ccc(S(=O)(=O)N3CCCC3)cc2)cc1

>  <Energy>  (6) 
52.89862672336676

>  <Genealogy>  (6) 
COc1ccc(OCC(=O)Nc2ccc(S(=O)(=O)N3CCCC3)cc2)cc1 (3D coordinates assigned)
COc1ccc(OCC(=O)Nc2ccc(S(=O)(=O)N3CCCC3)cc2)cc1 (nonaromatic ring conformer: 52.89862672336676 kcal/mol)

>  <smiles>  (6) 
COc1ccc(OCC(=O)Nc2ccc(S(=O)(=O)N3CCCC3)cc2)cc1

>  <score_type>  (6) 
oracle

>  <origin>  (6) 
adgpu

>  <m_score__min__energy>  (6) 
-8.9499999999999993

>  <m_primary>  (6) 
energy

$$$$
6:0
     RDKit          3D

 40 42  0  0  0  0  0  0  0  0999 V2000
   -3.5890   21.9990  -30.4810 O   0  0  0  0  0  0  0  0  0  0  0  0
   -2.6730   22.8990  -29.9480 C   0  0  0  0  0  0  0  0  0  0  0  0
   -1.3930   22.5770  -29.5440 C   0  0  0  0  0  0  0  0  0  0  0  0
   -0.8220   23.7590  -29.1050 C   0  0  0  0  0  0  0  0  0  0  0  0
   -1.7860   24.7330  -29.2660 C   0  0  0  0  0  0  0  0  0  0  0  0
   -1.6160   26.0800  -28.9660 O   0  0  0  0  0  0  0  0  0  0  0  0
   -2.9210   24.2100  -29.7680 N   0  0  0  0  0  0  0  0  0  0  0  0
   -4.1350   24.9360  -30.1410 C   0  0  0  0  0  0  0  0  0  0  0  0
   -5.3460   24.3590  -29.3850 C   0  0  0  0  0  0  0  0  0  0  0  0
   -6.4920   24.0360  -30.2610 N   0  0  0  0  0  0  0  0  0  0  0  0
   -6.2120   24.1150  -31.7150 C   0  0  0  0  0  0  0  0  0  0  0  0
   -5.9990   22.7370  -32.3680 C   0  0  0  0  0  0  0  0  0  0  0  0
   -7.0220   21.7730  -31.9450 N   0  0  0  0  0  0  0  0  0  0  0  0
   -6.9640   20.4180  -32.4270 C   0  0  0  0  0  0  0  0  0  0  0  0
   -7.8570   19.4510  -31.9370 C   0  0  0  0  0  0  0  0  0  0  0  0
   -7.8080   18.1380  -32.4150 C   0  0  0  0  0  0  0  0  0  0  0  0
   -6.8710   17.7820  -33.3900 C   0  0  0  0  0  0  0  0  0  0  0  0
   -6.8250   16.5080  -33.8530 F   0  0  0  0  0  0  0  0  0  0  0  0
   -5.9820   18.7390  -33.8860 C   0  0  0  0  0  0  0  0  0  0  0  0
   -6.0290   20.0520  -33.4100 C   0  0  0  0  0  0  0  0  0  0  0  0
   -8.0110   22.1710  -30.9410 C   0  0  0  0  0  0  0  0  0  0  0  0
   -7.2870   22.8740  -29.7940 C   0  0  0  0  0  0  0  0  0  0  0  0
   -0.9224   21.5830  -29.5664 H   0  0  0  0  0  0  0  0  0  0  0  0
    0.1949   23.8945  -28.7080 H   0  0  0  0  0  0  0  0  0  0  0  0
   -4.0175   25.9990  -29.8837 H   0  0  0  0  0  0  0  0  0  0  0  0
   -4.3009   24.8307  -31.2233 H   0  0  0  0  0  0  0  0  0  0  0  0
   -5.0296   23.4384  -28.8728 H   0  0  0  0  0  0  0  0  0  0  0  0
   -5.6860   25.1336  -28.6819 H   0  0  0  0  0  0  0  0  0  0  0  0
   -7.0626   24.6079  -32.2085 H   0  0  0  0  0  0  0  0  0  0  0  0
   -5.2776   24.6824  -31.8373 H   0  0  0  0  0  0  0  0  0  0  0  0
   -6.0452   22.8494  -33.4613 H   0  0  0  0  0  0  0  0  0  0  0  0
   -5.0166   22.3557  -32.0526 H   0  0  0  0  0  0  0  0  0  0  0  0
   -8.5987   19.7280  -31.1733 H   0  0  0  0  0  0  0  0  0  0  0  0
   -8.5072   17.3843  -32.0237 H   0  0  0  0  0  0  0  0  0  0  0  0
   -5.2442   18.4585  -34.6521 H   0  0  0  0  0  0  0  0  0  0  0  0
   -5.3303   20.8031  -33.8070 H   0  0  0  0  0  0  0  0  0  0  0  0
   -8.7424   22.8570  -31.3932 H   0  0  0  0  0  0  0  0  0  0  0  0
   -8.5402   21.2838  -30.5631 H   0  0  0  0  0  0  0  0  0  0  0  0
   -8.0335   23.2251  -29.0663 H   0  0  0  0  0  0  0  0  0  0  0  0
   -6.5934   22.1513  -29.3394 H   0  0  0  0  0  0  0  0  0  0  0  0
  1  2  1  0
  2  3  2  0
  3  4  1  0
  4  5  2  0
  5  6  1  0
  5  7  1  0
  7  8  1  0
  8  9  1  0
  9 10  1  0
 10 11  1  0
 11 12  1  0
 12 13  1  0
 13 14  1  0
 14 15  2  0
 15 16  1  0
 16 17  2  0
 17 18  1  0
 17 19  1  0
 19 20  2  0
 13 21  1  0
 21 22  1  0
  7  2  1  0
 22 10  1  0
 20 14  1  0
  3 23  1  0
  4 24  1  0
  8 25  1  0
  8 26  1  0
  9 27  1  0
  9 28  1  0
 11 29  1  0
 11 30  1  0
 12 31  1  0
 12 32  1  0
 15 33  1  0
 16 34  1  0
 19 35  1  0
 20 36  1  0
 21 37  1  0
 21 38  1  0
 22 39  1  0
 22 40  1  0
M  CHG  2   1  -1   6  -1
M  END
>  <UniqueID>  (7) 
7

>  <SMILES>  (7) 
[O-]c1ccc([O-])n1CCN1CCN(c2ccc(F)cc2)CC1

>  <Energy>  (7) 
81.87162774936286

>  <Genealogy>  (7) 
[O-]c1ccc([O-])n1CCN1CCN(c2ccc(F)cc2)CC1 (protonated)
[O-]c1ccc([O-])n1CCN1CCN(c2ccc(F)cc2)CC1 (3D coordinates assigned)
[O-]c1ccc([O-])n1CCN1CCN(c2ccc(F)cc2)CC1 (nonaromatic ring conformer: 81.87162774936286 kcal/mol)

>  <smiles>  (7) 
Oc1ccc(O)n1CCN1CCN(c2ccc(F)cc2)CC1

>  <score_type>  (7) 
oracle

>  <origin>  (7) 
adgpu

>  <m_score__min__energy>  (7) 
-10.33

>  <m_primary>  (7) 
energy

$$$$
7:0
     RDKit          3D

 23 23  0  0  0  0  0  0  0  0999 V2000
   -2.8310   19.1700  -26.3380 C   0  0  0  0  0  0  0  0  0  0  0  0
   -2.1100   20.2680  -27.1220 C   0  0  1  0  0  0  0  0  0  0  0  0
   -1.0150   19.6720  -27.8920 N   0  0  0  0  0  0  0  0  0  0  0  0
   -3.1030   21.0260  -28.0300 C   0  0  0  0  0  0  0  0  0  0  0  0
   -2.6240   22.4210  -28.3440 C   0  0  0  0  0  0  0  0  0  0  0  0
   -1.4490   22.9130  -27.7530 C   0  0  0  0  0  0  0  0  0  0  0  0
   -0.9900   24.1980  -28.0610 C   0  0  0  0  0  0  0  0  0  0  0  0
   -1.6970   24.9970  -28.9650 C   0  0  0  0  0  0  0  0  0  0  0  0
   -1.2340   26.2730  -29.2670 O   0  0  0  0  0  0  0  0  0  0  0  0
   -2.8640   24.5110  -29.5650 C   0  0  0  0  0  0  0  0  0  0  0  0
   -3.5690   25.3000  -30.4660 O   0  0  0  0  0  0  0  0  0  0  0  0
   -3.3260   23.2260  -29.2570 C   0  0  0  0  0  0  0  0  0  0  0  0
   -2.7121   19.3511  -25.2595 H   0  0  0  0  0  0  0  0  0  0  0  0
   -3.9004   19.1777  -26.5953 H   0  0  0  0  0  0  0  0  0  0  0  0
   -2.3989   18.1917  -26.5953 H   0  0  0  0  0  0  0  0  0  0  0  0
   -1.6838   21.0038  -26.4242 H   0  0  0  0  0  0  0  0  0  0  0  0
   -0.7230   18.7700  -27.4480 H   0  0  0  0  0  0  0  0  0  0  0  0
   -1.3520   19.4580  -28.8580 H   0  0  0  0  0  0  0  0  0  0  0  0
   -3.2200   20.4696  -28.9717 H   0  0  0  0  0  0  0  0  0  0  0  0
   -4.0612   21.1063  -27.4957 H   0  0  0  0  0  0  0  0  0  0  0  0
   -0.8874   22.2856  -27.0452 H   0  0  0  0  0  0  0  0  0  0  0  0
   -0.0717   24.5805  -27.5915 H   0  0  0  0  0  0  0  0  0  0  0  0
   -4.2423   22.8449  -29.7316 H   0  0  0  0  0  0  0  0  0  0  0  0
  1  2  1  0
  2  3  1  0
  2  4  1  0
  4  5  1  0
  5  6  2  0
  6  7  1  0
  7  8  2  0
  8  9  1  0
  8 10  1  0
 10 11  1  0
 10 12  2  0
 12  5  1  0
  1 13  1  0
  1 14  1  0
  1 15  1  0
  2 16  1  1
  3 17  1  0
  3 18  1  0
  4 19  1  0
  4 20  1  0
  6 21  1  0
  7 22  1  0
 12 23  1  0
M  CHG  2   9  -1  11  -1
M  END
>  <UniqueID>  (8) 
8

>  <SMILES>  (8) 
C[C@@H](N)Cc1ccc([O-])c([O-])c1

>  <Energy>  (8) 
16.805678551176946

>  <Genealogy>  (8) 
CC(N)Cc1ccc([O-])c([O-])c1 (protonated)
C[C@@H](N)Cc1ccc([O-])c([O-])c1 (chirality)
C[C@@H](N)Cc1ccc([O-])c([O-])c1 (3D coordinates assigned)
C[C@@H](N)Cc1ccc([O-])c([O-])c1 (optimized conformer: 16.805678551176946 kcal/mol)

>  <smiles>  (8) 
CC(N)Cc1ccc(O)c(O)c1

>  <score_type>  (8) 
oracle

>  <origin>  (8) 
adgpu

>  <m_score__min__energy>  (8) 
-10.59

>  <m_primary>  (8) 
energy

$$$$
8:0
     RDKit          3D

 55 58  0  0  0  0  0  0  0  0999 V2000
    1.3890   16.2170  -31.1110 C   0  0  0  0  0  0  0  0  0  0  0  0
    0.1270   16.6740  -31.7150 N   0  0  0  0  0  0  0  0  0  0  0  0
    0.0700   18.1540  -31.7040 C   0  0  0  0  0  0  0  0  0  0  0  0
   -1.2830   18.6430  -32.2420 C   0  0  0  0  0  0  0  0  0  0  0  0
   -1.6540   17.9220  -33.4700 N   0  0  0  0  0  0  0  0  0  0  0  0
   -3.0180   17.9280  -33.9540 C   0  0  0  0  0  0  0  0  0  0  0  0
   -3.4180   17.0080  -34.7200 O   0  0  0  0  0  0  0  0  0  0  0  0
   -3.9800   18.9740  -33.5500 C   0  0  0  0  0  0  0  0  0  0  0  0
   -5.2780   18.6470  -33.1340 C   0  0  0  0  0  0  0  0  0  0  0  0
   -6.1670   19.6560  -32.7630 C   0  0  0  0  0  0  0  0  0  0  0  0
   -5.7480   20.9890  -32.7880 C   0  0  0  0  0  0  0  0  0  0  0  0
   -6.6620   21.9960  -32.4480 O   0  0  0  0  0  0  0  0  0  0  0  0
   -6.3890   23.0930  -31.6170 C   0  0  0  0  0  0  0  0  0  0  0  0
   -7.4540   23.6940  -30.9360 C   0  0  0  0  0  0  0  0  0  0  0  0
   -7.2300   24.7830  -30.0910 C   0  0  0  0  0  0  0  0  0  0  0  0
   -5.9330   25.2710  -29.9060 C   0  0  0  0  0  0  0  0  0  0  0  0
   -4.8450   24.6520  -30.5490 C   0  0  0  0  0  0  0  0  0  0  0  0
   -3.4960   25.1220  -30.3810 N   0  0  0  0  0  0  0  0  0  0  0  0
   -2.5250   24.5930  -29.4700 C   0  0  0  0  0  0  0  0  0  0  0  0
   -1.6540   25.3740  -29.0050 O   0  0  0  0  0  0  0  0  0  0  0  0
   -2.4850   23.1560  -29.1040 C   0  0  0  0  0  0  0  0  0  0  0  0
   -1.8120   22.2370  -29.9280 C   0  0  0  0  0  0  0  0  0  0  0  0
   -1.7760   20.8790  -29.5920 C   0  0  0  0  0  0  0  0  0  0  0  0
   -2.4120   20.4260  -28.4340 C   0  0  0  0  0  0  0  0  0  0  0  0
   -3.0950   21.3260  -27.6140 C   0  0  0  0  0  0  0  0  0  0  0  0
   -3.1410   22.6840  -27.9500 C   0  0  0  0  0  0  0  0  0  0  0  0
   -5.0820   23.5710  -31.4090 C   0  0  0  0  0  0  0  0  0  0  0  0
   -4.4780   21.2870  -33.1770 N   0  0  0  0  0  0  0  0  0  0  0  0
   -3.5920   20.3220  -33.5430 C   0  0  0  0  0  0  0  0  0  0  0  0
   -0.6410   17.0680  -34.1030 C   0  0  0  0  0  0  0  0  0  0  0  0
   -0.0540   16.0840  -33.0730 C   0  0  0  0  0  0  0  0  0  0  0  0
    1.3032   16.2481  -30.0148 H   0  0  0  0  0  0  0  0  0  0  0  0
    1.5977   15.1862  -31.4334 H   0  0  0  0  0  0  0  0  0  0  0  0
    2.2093   16.8752  -31.4334 H   0  0  0  0  0  0  0  0  0  0  0  0
   -0.6470   16.3250  -31.0980 H   0  0  0  0  0  0  0  0  0  0  0  0
    0.2012   18.5139  -30.6729 H   0  0  0  0  0  0  0  0  0  0  0  0
    0.8718   18.5462  -32.3468 H   0  0  0  0  0  0  0  0  0  0  0  0
   -2.0562   18.4739  -31.4781 H   0  0  0  0  0  0  0  0  0  0  0  0
   -1.2004   19.7146  -32.4762 H   0  0  0  0  0  0  0  0  0  0  0  0
   -5.5957   17.5944  -33.1001 H   0  0  0  0  0  0  0  0  0  0  0  0
   -7.1917   19.4039  -32.4526 H   0  0  0  0  0  0  0  0  0  0  0  0
   -8.4748   23.3057  -31.0674 H   0  0  0  0  0  0  0  0  0  0  0  0
   -8.0750   25.2574  -29.5704 H   0  0  0  0  0  0  0  0  0  0  0  0
   -5.7624   26.1416  -29.2557 H   0  0  0  0  0  0  0  0  0  0  0  0
   -1.3107   22.5875  -30.8423 H   0  0  0  0  0  0  0  0  0  0  0  0
   -1.2457   20.1668  -30.2413 H   0  0  0  0  0  0  0  0  0  0  0  0
   -2.3747   19.3593  -28.1679 H   0  0  0  0  0  0  0  0  0  0  0  0
   -3.5973   20.9677  -26.7033 H   0  0  0  0  0  0  0  0  0  0  0  0
   -3.6929   23.3872  -27.3089 H   0  0  0  0  0  0  0  0  0  0  0  0
   -4.2380   23.0915  -31.9265 H   0  0  0  0  0  0  0  0  0  0  0  0
   -2.5682   20.5995  -33.8344 H   0  0  0  0  0  0  0  0  0  0  0  0
   -1.1052   16.5010  -34.9233 H   0  0  0  0  0  0  0  0  0  0  0  0
    0.1682   17.7019  -34.4947 H   0  0  0  0  0  0  0  0  0  0  0  0
   -0.7330   15.2226  -32.9896 H   0  0  0  0  0  0  0  0  0  0  0  0
    0.9447   15.7980  -33.4348 H   0  0  0  0  0  0  0  0  0  0  0  0
  1  2  1  0
  2  3  1  0
  3  4  1  0
  4  5  1  0
  5  6  1  0
  6  7  2  0
  6  8  1  0
  8  9  2  0
  9 10  1  0
 10 11  2  0
 11 12  1  0
 12 13  1  0
 13 14  2  0
 14 15  1  0
 15 16  2  0
 16 17  1  0
 17 18  1  0
 18 19  1  0
 19 20  2  0
 19 21  1  0
 21 22  2  0
 22 23  1  0
 23 24  2  0
 24 25  1  0
 25 26  2  0
 17 27  2  0
 11 28  1  0
 28 29  2  0
  5 30  1  0
 30 31  1  0
 31  2  1  0
 29  8  1  0
 27 13  1  0
 26 21  1  0
  1 32  1  0
  1 33  1  0
  1 34  1  0
  2 35  1  0
  3 36  1  0
  3 37  1  0
  4 38  1  0
  4 39  1  0
  9 40  1  0
 10 41  1  0
 14 42  1  0
 15 43  1  0
 16 44  1  0
 22 45  1  0
 23 46  1  0
 24 47  1  0
 25 48  1  0
 26 49  1  0
 27 50  1  0
 29 51  1  0
 30 52  1  0
 30 53  1  0
 31 54  1  0
 31 55  1  0
M  CHG  2   2   1  18  -1
M  END
>  <UniqueID>  (9) 
9

>  <SMILES>  (9) 
C[NH+]1CCN(C(=O)c2ccc(Oc3cccc([N-]C(=O)c4ccccc4)c3)nc2)CC1

>  <Energy>  (9) 
83.25895203607152

>  <Genealogy>  (9) 
C[NH+]1CCN(C(=O)c2ccc(Oc3cccc([N-]C(=O)c4ccccc4)c3)nc2)CC1 (protonated)
C[NH+]1CCN(C(=O)c2ccc(Oc3cccc([N-]C(=O)c4ccccc4)c3)nc2)CC1 (3D coordinates assigned)
C[NH+]1CCN(C(=O)c2ccc(Oc3cccc([N-]C(=O)c4ccccc4)c3)nc2)CC1 (nonaromatic ring conformer: 83.25895203607152 kcal/mol)

>  <smiles>  (9) 
CN1CCN(C(=O)c2ccc(Oc3cccc(NC(=O)c4ccccc4)c3)nc2)CC1

>  <score_type>  (9) 
oracle

>  <origin>  (9) 
adgpu

>  <m_score__min__energy>  (9) 
-10.220000000000001

>  <m_primary>  (9) 
energy

$$$$
9:0
     RDKit          3D

 26 27  0  0  0  0  0  0  0  0999 V2000
   -6.6186   19.4647  -33.3411 H   0  0  0  0  0  0  0  0  0  0  0  0
   -6.4520   20.4020  -32.7900 C   0  0  0  0  0  0  0  0  0  0  0  0
   -5.1620   20.9340  -32.6890 C   0  0  0  0  0  0  0  0  0  0  0  0
   -3.8130   20.1160  -33.4550 Cl  0  0  0  0  0  0  0  0  0  0  0  0
   -4.9500   22.1210  -31.9800 C   0  0  0  0  0  0  0  0  0  0  0  0
   -3.9365   22.5435  -31.9133 H   0  0  0  0  0  0  0  0  0  0  0  0
   -6.0190   22.7760  -31.3540 C   0  0  0  0  0  0  0  0  0  0  0  0
   -5.7600   24.0020  -30.6540 N   0  0  0  0  0  0  0  0  0  0  0  0
   -4.4800   24.4880  -30.2370 C   0  0  0  0  0  0  0  0  0  0  0  0
   -3.8980   25.3910  -30.8950 O   0  0  0  0  0  0  0  0  0  0  0  0
   -3.9460   24.0340  -28.9840 N   0  0  0  0  0  0  0  0  0  0  0  0
   -2.8700   24.4380  -28.3660 C   0  0  0  0  0  0  0  0  0  0  0  0
   -2.6070   23.9220  -27.0890 C   0  0  0  0  0  0  0  0  0  0  0  0
   -3.2979   23.1972  -26.6336 H   0  0  0  0  0  0  0  0  0  0  0  0
   -1.4660   24.3310  -26.3980 C   0  0  0  0  0  0  0  0  0  0  0  0
   -1.2598   23.9374  -25.3917 H   0  0  0  0  0  0  0  0  0  0  0  0
   -0.5890   25.2390  -26.9860 C   0  0  0  0  0  0  0  0  0  0  0  0
    0.3089   25.5738  -26.4458 H   0  0  0  0  0  0  0  0  0  0  0  0
   -0.8610   25.7200  -28.2680 C   0  0  0  0  0  0  0  0  0  0  0  0
   -0.1698   26.4313  -28.7436 H   0  0  0  0  0  0  0  0  0  0  0  0
   -1.9780   25.3130  -28.9330 N   0  0  0  0  0  0  0  0  0  0  0  0
   -2.0980   25.6670  -29.9060 H   0  0  0  0  0  0  0  0  0  0  0  0
   -7.3170   22.2490  -31.4800 C   0  0  0  0  0  0  0  0  0  0  0  0
   -8.1681   22.7714  -31.0188 H   0  0  0  0  0  0  0  0  0  0  0  0
   -7.5290   21.0610  -32.1910 C   0  0  0  0  0  0  0  0  0  0  0  0
   -9.1500   20.4070  -32.3420 Cl  0  0  0  0  0  0  0  0  0  0  0  0
  1  2  1  0
  2  3  2  0
  3  4  1  0
  3  5  1  0
  5  6  1  0
  5  7  2  0
  7  8  1  0
  8  9  1  0
  9 10  2  0
  9 11  1  0
 11 12  2  0
 12 13  1  0
 13 14  1  0
 13 15  2  0
 15 16  1  0
 15 17  1  0
 17 18  1  0
 17 19  2  0
 19 20  1  0
 19 21  1  0
 21 22  1  0
  7 23  1  0
 23 24  1  0
 23 25  2  0
 25 26  1  0
 25  2  1  0
 21 12  1  0
M  CHG  1   8  -1
M  END
>  <UniqueID>  (10) 
10

>  <SMILES>  (10) 
O=C(/N=c1/cccc[nH]1)[N-]c1cc(Cl)cc(Cl)c1

>  <Energy>  (10) 
37.225720777136985

>  <Genealogy>  (10) 
O=C(N=c1cccc[nH]1)[N-]c1cc(Cl)cc(Cl)c1 (protonated)
O=C(/N=c1/cccc[nH]1)[N-]c1cc(Cl)cc(Cl)c1 (cis-trans isomerization)
O=C(/N=c1/cccc[nH]1)[N-]c1cc(Cl)cc(Cl)c1 (3D coordinates assigned)
O=C(/N=c1/cccc[nH]1)[N-]c1cc(Cl)cc(Cl)c1 (optimized conformer: 37.225720777136985 kcal/mol)

>  <smiles>  (10) 
O=C(N=c1cccc[nH]1)Nc1cc(Cl)cc(Cl)c1

>  <score_type>  (10) 
oracle

>  <origin>  (10) 
adgpu

>  <m_score__min__energy>  (10) 
-9.0199999999999996

>  <m_primary>  (10) 
energy

$$$$
10:0
     RDKit          3D

 44 46  0  0  0  0  0  0  0  0999 V2000
   -1.1790   23.8960  -29.1570 C   0  0  0  0  0  0  0  0  0  0  0  0
   -2.1700   24.9500  -28.6810 C   0  0  0  0  0  0  0  0  0  0  0  0
   -3.1070   25.2670  -29.7100 O   0  0  0  0  0  0  0  0  0  0  0  0
   -4.2340   24.5010  -30.0550 C   0  0  0  0  0  0  0  0  0  0  0  0
   -5.4910   25.1130  -29.9930 C   0  0  0  0  0  0  0  0  0  0  0  0
   -6.6460   24.4020  -30.3260 C   0  0  0  0  0  0  0  0  0  0  0  0
   -6.5610   23.0610  -30.7270 C   0  0  0  0  0  0  0  0  0  0  0  0
   -7.8070   22.3070  -31.1050 C   0  0  0  0  0  0  0  0  0  0  0  0
   -7.4960   20.8980  -31.3340 N   0  0  0  0  0  0  0  0  0  0  0  0
   -6.8380   20.4420  -32.5290 C   0  0  0  0  0  0  0  0  0  0  0  0
   -6.5840   21.2630  -33.4530 O   0  0  0  0  0  0  0  0  0  0  0  0
   -6.4650   19.0170  -32.7040 C   0  0  0  0  0  0  0  0  0  0  0  0
   -5.1170   18.6300  -32.6240 C   0  0  0  0  0  0  0  0  0  0  0  0
   -4.7500   17.2910  -32.7850 C   0  0  0  0  0  0  0  0  0  0  0  0
   -5.7230   16.3060  -33.0220 C   0  0  0  0  0  0  0  0  0  0  0  0
   -5.3460   14.9240  -33.1890 N   0  0  0  0  0  0  0  0  0  0  0  0
   -4.5620   14.1990  -32.3630 C   0  0  0  0  0  0  0  0  0  0  0  0
   -4.4240   12.9150  -32.8490 C   0  0  0  0  0  0  0  0  0  0  0  0
   -5.1540   12.8570  -34.0190 C   0  0  0  0  0  0  0  0  0  0  0  0
   -5.7090   14.1060  -34.2000 C   0  0  0  0  0  0  0  0  0  0  0  0
   -7.0740   16.6930  -33.0890 C   0  0  0  0  0  0  0  0  0  0  0  0
   -7.4410   18.0320  -32.9290 C   0  0  0  0  0  0  0  0  0  0  0  0
   -5.3030   22.4440  -30.7980 C   0  0  0  0  0  0  0  0  0  0  0  0
   -4.1460   23.1570  -30.4650 C   0  0  0  0  0  0  0  0  0  0  0  0
   -0.7184   23.4061  -28.2865 H   0  0  0  0  0  0  0  0  0  0  0  0
   -1.7058   23.1451  -29.7642 H   0  0  0  0  0  0  0  0  0  0  0  0
   -0.3971   24.3755  -29.7642 H   0  0  0  0  0  0  0  0  0  0  0  0
   -2.7129   24.5650  -27.8052 H   0  0  0  0  0  0  0  0  0  0  0  0
   -1.6146   25.8621  -28.4171 H   0  0  0  0  0  0  0  0  0  0  0  0
   -5.5701   26.1642  -29.6789 H   0  0  0  0  0  0  0  0  0  0  0  0
   -7.6272   24.8964  -30.2735 H   0  0  0  0  0  0  0  0  0  0  0  0
   -8.5420   22.3889  -30.2907 H   0  0  0  0  0  0  0  0  0  0  0  0
   -8.2198   22.7376  -32.0292 H   0  0  0  0  0  0  0  0  0  0  0  0
   -7.8310   20.2070  -30.6270 H   0  0  0  0  0  0  0  0  0  0  0  0
   -4.3430   19.3879  -32.4329 H   0  0  0  0  0  0  0  0  0  0  0  0
   -3.6893   17.0059  -32.7256 H   0  0  0  0  0  0  0  0  0  0  0  0
   -4.1009   14.5764  -31.4384 H   0  0  0  0  0  0  0  0  0  0  0  0
   -3.8456   12.0978  -32.3933 H   0  0  0  0  0  0  0  0  0  0  0  0
   -5.2703   11.9843  -34.6785 H   0  0  0  0  0  0  0  0  0  0  0  0
   -6.3530   14.3938  -35.0441 H   0  0  0  0  0  0  0  0  0  0  0  0
   -7.8494   15.9339  -33.2692 H   0  0  0  0  0  0  0  0  0  0  0  0
   -8.5023   18.3168  -32.9796 H   0  0  0  0  0  0  0  0  0  0  0  0
   -5.2258   21.3941  -31.1171 H   0  0  0  0  0  0  0  0  0  0  0  0
   -3.1637   22.6654  -30.5238 H   0  0  0  0  0  0  0  0  0  0  0  0
  1  2  1  0
  2  3  1  0
  3  4  1  0
  4  5  2  0
  5  6  1  0
  6  7  2  0
  7  8  1  0
  8  9  1  0
  9 10  1  0
 10 11  2  0
 10 12  1  0
 12 13  2  0
 13 14  1  0
 14 15  2  0
 15 16  1  0
 16 17  1  0
 17 18  2  0
 18 19  1  0
 19 20  2  0
 15 21  1  0
 21 22  2  0
  7 23  1  0
 23 24  2  0
 24  4  1  0
 22 12  1  0
 20 16  1  0
  1 25  1  0
  1 26  1  0
  1 27  1  0
  2 28  1  0
  2 29  1  0
  5 30  1  0
  6 31  1  0
  8 32  1  0
  8 33  1  0
  9 34  1  0
 13 35  1  0
 14 36  1  0
 17 37  1  0
 18 38  1  0
 19 39  1  0
 20 40  1  0
 21 41  1  0
 22 42  1  0
 23 43  1  0
 24 44  1  0
M  END
>  <UniqueID>  (11) 
11

>  <SMILES>  (11) 
CCOc1ccc(CNC(=O)c2ccc(-n3cccc3)cc2)cc1

>  <Energy>  (11) 
73.4400655535745

>  <Genealogy>  (11) 
CCOc1ccc(CNC(=O)c2ccc(-n3cccc3)cc2)cc1 (3D coordinates assigned)
CCOc1ccc(CNC(=O)c2ccc(-n3cccc3)cc2)cc1 (optimized conformer: 73.4400655535745 kcal/mol)

>  <smiles>  (11) 
CCOc1ccc(CNC(=O)c2ccc(-n3cccc3)cc2)cc1

>  <score_type>  (11) 
oracle

>  <origin>  (11) 
adgpu

>  <m_score__min__energy>  (11) 
-7.8799999999999999

>  <m_primary>  (11) 
energy

$$$$
11:0
     RDKit          3D

 37 39  0  0  0  0  0  0  0  0999 V2000
   -1.6200   24.8660  -26.2940 C   0  0  0  0  0  0  0  0  0  0  0  0
   -1.6730   24.0800  -27.5710 C   0  0  0  0  0  0  0  0  0  0  0  0
   -0.5400   23.3870  -28.0210 C   0  0  0  0  0  0  0  0  0  0  0  0
   -0.5790   22.6840  -29.2290 C   0  0  0  0  0  0  0  0  0  0  0  0
   -1.7430   22.6800  -30.0010 C   0  0  0  0  0  0  0  0  0  0  0  0
   -2.8790   23.3840  -29.5710 C   0  0  0  0  0  0  0  0  0  0  0  0
   -4.0780   23.3900  -30.3730 N   0  0  0  0  0  0  0  0  0  0  0  0
   -4.5860   24.5740  -30.8410 C   0  0  0  0  0  0  0  0  0  0  0  0
   -4.0100   25.6670  -30.5900 O   0  0  0  0  0  0  0  0  0  0  0  0
   -5.7130   24.5840  -31.5980 N   0  0  0  0  0  0  0  0  0  0  0  0
   -6.3640   23.4380  -31.9090 C   0  0  0  0  0  0  0  0  0  0  0  0
   -5.8840   22.2140  -31.4440 C   0  0  0  0  0  0  0  0  0  0  0  0
   -6.5830   20.9580  -31.7930 C   0  0  0  0  0  0  0  0  0  0  0  0
   -7.8890   20.7720  -31.3110 C   0  0  0  0  0  0  0  0  0  0  0  0
   -8.5830   19.5930  -31.5800 C   0  0  0  0  0  0  0  0  0  0  0  0
   -7.9810   18.5840  -32.3280 C   0  0  0  0  0  0  0  0  0  0  0  0
   -6.6870   18.7550  -32.8230 C   0  0  0  0  0  0  0  0  0  0  0  0
   -5.9740   19.9480  -32.5860 C   0  0  0  0  0  0  0  0  0  0  0  0
   -4.5730   20.1080  -33.1440 C   0  0  0  0  0  0  0  0  0  0  0  0
   -3.6480   19.7650  -32.1750 F   0  0  0  0  0  0  0  0  0  0  0  0
   -4.3560   21.4170  -33.5370 F   0  0  0  0  0  0  0  0  0  0  0  0
   -4.3720   19.2980  -34.2480 F   0  0  0  0  0  0  0  0  0  0  0  0
   -4.7140   22.2100  -30.6680 C   0  0  0  0  0  0  0  0  0  0  0  0
   -4.2640   21.1140  -30.2280 O   0  0  0  0  0  0  0  0  0  0  0  0
   -2.8360   24.0880  -28.3570 C   0  0  0  0  0  0  0  0  0  0  0  0
   -1.6664   24.1774  -25.4374 H   0  0  0  0  0  0  0  0  0  0  0  0
   -0.6812   25.4380  -26.2542 H   0  0  0  0  0  0  0  0  0  0  0  0
   -2.4735   25.5588  -26.2542 H   0  0  0  0  0  0  0  0  0  0  0  0
    0.3824   23.3965  -27.4217 H   0  0  0  0  0  0  0  0  0  0  0  0
    0.3090   22.1329  -29.5721 H   0  0  0  0  0  0  0  0  0  0  0  0
   -1.7697   22.1232  -30.9493 H   0  0  0  0  0  0  0  0  0  0  0  0
   -7.2721   23.4726  -32.5289 H   0  0  0  0  0  0  0  0  0  0  0  0
   -8.3685   21.5633  -30.7161 H   0  0  0  0  0  0  0  0  0  0  0  0
   -9.6070   19.4596  -31.2011 H   0  0  0  0  0  0  0  0  0  0  0  0
   -8.5265   17.6502  -32.5292 H   0  0  0  0  0  0  0  0  0  0  0  0
   -6.2176   17.9486  -33.4055 H   0  0  0  0  0  0  0  0  0  0  0  0
   -3.7196   24.6496  -28.0195 H   0  0  0  0  0  0  0  0  0  0  0  0
  1  2  1  0
  2  3  2  0
  3  4  1  0
  4  5  2  0
  5  6  1  0
  6  7  1  0
  7  8  1  0
  8  9  2  0
  8 10  1  0
 10 11  1  0
 11 12  2  0
 12 13  1  0
 13 14  2  0
 14 15  1  0
 15 16  2  0
 16 17  1  0
 17 18  2  0
 18 19  1  0
 19 20  1  0
 19 21  1  0
 19 22  1  0
 12 23  1  0
 23 24  2  0
  6 25  2  0
 25  2  1  0
 23  7  1  0
 18 13  1  0
  1 26  1  0
  1 27  1  0
  1 28  1  0
  3 29  1  0
  4 30  1  0
  5 31  1  0
 11 32  1  0
 14 33  1  0
 15 34  1  0
 16 35  1  0
 17 36  1  0
 25 37  1  0
M  CHG  1  10  -1
M  END
>  <UniqueID>  (12) 
12

>  <SMILES>  (12) 
Cc1cccc(-n2c(=O)[n-]cc(-c3ccccc3C(F)(F)F)c2=O)c1

>  <Energy>  (12) 
60.547272931406155

>  <Genealogy>  (12) 
Cc1cccc(-n2c(=O)[n-]cc(-c3ccccc3C(F)(F)F)c2=O)c1 (protonated)
Cc1cccc(-n2c(=O)[n-]cc(-c3ccccc3C(F)(F)F)c2=O)c1 (3D coordinates assigned)
Cc1cccc(-n2c(=O)[n-]cc(-c3ccccc3C(F)(F)F)c2=O)c1 (optimized conformer: 60.547272931406155 kcal/mol)

>  <smiles>  (12) 
Cc1cccc(-n2c(=O)[nH]cc(-c3ccccc3C(F)(F)F)c2=O)c1

>  <score_type>  (12) 
oracle

>  <origin>  (12) 
adgpu

>  <m_score__min__energy>  (12) 
-8.8900000000000006

>  <m_primary>  (12) 
energy

$$$$
12:0
     RDKit          3D

 55 57  0  0  1  0  0  0  0  0999 V2000
   -0.1680   26.1760  -26.4080 C   0  0  0  0  0  0  0  0  0  0  0  0
   -0.8410   25.9990  -27.6560 N   0  0  0  0  0  0  0  0  0  0  0  0
   -1.3180   24.8680  -27.9790 C   0  0  0  0  0  0  0  0  0  0  0  0
   -1.9400   24.8280  -29.1940 N   0  0  0  0  0  0  0  0  0  0  0  0
   -2.5140   23.7160  -29.6770 C   0  0  0  0  0  0  0  0  0  0  0  0
   -3.0960   23.6850  -30.8170 N   0  0  0  0  0  0  0  0  0  0  0  0
   -3.7120   22.4940  -31.3350 C   0  0  0  0  0  0  0  0  0  0  0  0
   -5.0430   22.4890  -31.7030 C   0  0  0  0  0  0  0  0  0  0  0  0
   -5.6680   21.3480  -32.2090 C   0  0  0  0  0  0  0  0  0  0  0  0
   -7.1040   21.3990  -32.5890 C   0  0  0  0  0  0  0  0  0  0  0  0
   -4.9400   20.1820  -32.3500 C   0  0  0  0  0  0  0  0  0  0  0  0
   -5.5260   18.9520  -32.8710 C   0  0  0  0  0  0  0  0  0  0  0  0
   -5.9230   19.0450  -34.3270 C   0  0  0  0  0  0  0  0  0  0  0  0
   -6.0710   17.6440  -34.8440 C   0  0  0  0  0  0  0  0  0  0  0  0
   -6.4440   16.7220  -33.8370 N   0  0  0  0  0  0  0  0  0  0  0  0
   -5.5650   15.6340  -33.5840 C   0  0  0  0  0  0  0  0  0  0  0  0
   -7.2270   17.1900  -32.7550 C   0  0  0  0  0  0  0  0  0  0  0  0
   -6.7570   18.4960  -32.1350 C   0  0  0  0  0  0  0  0  0  0  0  0
   -3.5930   20.1770  -31.9800 C   0  0  0  0  0  0  0  0  0  0  0  0
   -2.9850   21.3290  -31.4760 C   0  0  0  0  0  0  0  0  0  0  0  0
   -1.6530   21.3460  -31.1040 O   0  0  0  0  0  0  0  0  0  0  0  0
   -1.0760   20.1920  -30.5210 C   0  0  0  0  0  0  0  0  0  0  0  0
   -2.4700   22.6210  -28.9370 N   0  0  0  0  0  0  0  0  0  0  0  0
   -1.8720   22.6050  -27.7390 C   0  0  0  0  0  0  0  0  0  0  0  0
   -1.2500   23.7300  -27.1720 C   0  0  0  0  0  0  0  0  0  0  0  0
   -0.5500   23.7370  -25.9040 C   0  0  0  0  0  0  0  0  0  0  0  0
   -0.7150   22.3480  -25.5490 F   0  0  0  0  0  0  0  0  0  0  0  0
    0.8450   23.5330  -25.9790 F   0  0  0  0  0  0  0  0  0  0  0  0
   -1.0570   24.1780  -24.7600 F   0  0  0  0  0  0  0  0  0  0  0  0
   -0.8713   25.9910  -25.5827 H   0  0  0  0  0  0  0  0  0  0  0  0
    0.6711   25.4680  -26.3403 H   0  0  0  0  0  0  0  0  0  0  0  0
    0.2143   27.2052  -26.3403 H   0  0  0  0  0  0  0  0  0  0  0  0
   -1.9950   25.6800  -29.8090 H   0  0  0  0  0  0  0  0  0  0  0  0
   -5.6292   23.4134  -31.5939 H   0  0  0  0  0  0  0  0  0  0  0  0
   -7.7232   21.4210  -31.6801 H   0  0  0  0  0  0  0  0  0  0  0  0
   -7.2939   22.3045  -33.1841 H   0  0  0  0  0  0  0  0  0  0  0  0
   -7.3576   20.5093  -33.1841 H   0  0  0  0  0  0  0  0  0  0  0  0
   -4.7096   18.2283  -32.7306 H   0  0  0  0  0  0  0  0  0  0  0  0
   -6.8774   19.5834  -34.4225 H   0  0  0  0  0  0  0  0  0  0  0  0
   -5.1615   19.5921  -34.9022 H   0  0  0  0  0  0  0  0  0  0  0  0
   -6.8426   17.6388  -35.6279 H   0  0  0  0  0  0  0  0  0  0  0  0
   -5.0909   17.3301  -35.2324 H   0  0  0  0  0  0  0  0  0  0  0  0
   -5.4543   15.4969  -32.4982 H   0  0  0  0  0  0  0  0  0  0  0  0
   -5.9789   14.7171  -34.0290 H   0  0  0  0  0  0  0  0  0  0  0  0
   -4.5816   15.8460  -34.0290 H   0  0  0  0  0  0  0  0  0  0  0  0
   -8.2556   17.3355  -33.1168 H   0  0  0  0  0  0  0  0  0  0  0  0
   -7.1434   16.4289  -31.9652 H   0  0  0  0  0  0  0  0  0  0  0  0
   -7.5471   19.2560  -32.2249 H   0  0  0  0  0  0  0  0  0  0  0  0
   -6.5288   18.3491  -31.0690 H   0  0  0  0  0  0  0  0  0  0  0  0
   -3.0038   19.2543  -32.0869 H   0  0  0  0  0  0  0  0  0  0  0  0
   -1.1176   20.2751  -29.4249 H   0  0  0  0  0  0  0  0  0  0  0  0
   -1.6344   19.3005  -30.8426 H   0  0  0  0  0  0  0  0  0  0  0  0
   -0.0278   20.1038  -30.8426 H   0  0  0  0  0  0  0  0  0  0  0  0
   -2.9150   21.7530  -29.3050 H   0  0  0  0  0  0  0  0  0  0  0  0
   -1.8675   21.6636  -27.1701 H   0  0  0  0  0  0  0  0  0  0  0  0
  1  2  1  0
  2  3  2  0
  3  4  1  0
  4  5  1  0
  5  6  2  0
  6  7  1  0
  7  8  2  0
  8  9  1  0
  9 10  1  0
  9 11  2  0
 11 12  1  0
 12 13  1  0
 13 14  1  0
 14 15  1  0
 15 16  1  0
 15 17  1  0
 17 18  1  0
 11 19  1  0
 19 20  2  0
 20 21  1  0
 21 22  1  0
  5 23  1  0
 23 24  1  0
 24 25  2  0
 25 26  1  0
 26 27  1  0
 26 28  1  0
 26 29  1  0
 25  3  1  0
 20  7  1  0
 18 12  1  0
  1 30  1  0
  1 31  1  0
  1 32  1  0
  4 33  1  0
  8 34  1  0
 10 35  1  0
 10 36  1  0
 10 37  1  0
 12 38  1  0
 13 39  1  0
 13 40  1  0
 14 41  1  0
 14 42  1  0
 16 43  1  0
 16 44  1  0
 16 45  1  0
 17 46  1  0
 17 47  1  0
 18 48  1  0
 18 49  1  0
 19 50  1  0
 22 51  1  0
 22 52  1  0
 22 53  1  0
 23 54  1  0
 24 55  1  0
M  END
>  <smiles>  (13) 
CN=c1[nH]c(=Nc2cc(C)c(C3CCN(C)CC3)cc2OC)[nH]cc1C(F)(F)F

>  <score_type>  (13) 
oracle

>  <origin>  (13) 
adgpu

>  <m_score__min__energy>  (13) 
-8.5800000000000001

>  <m_primary>  (13) 
energy

$$$$
13:0
     RDKit          3D

 49 52  0  0  0  0  0  0  0  0999 V2000
    0.2424   23.3993  -24.8390 H   0  0  0  0  0  0  0  0  0  0  0  0
   -0.2470   23.7540  -25.7580 C   0  0  0  0  0  0  0  0  0  0  0  0
    0.0260   23.1330  -26.9790 C   0  0  0  0  0  0  0  0  0  0  0  0
    0.7354   22.2935  -27.0228 H   0  0  0  0  0  0  0  0  0  0  0  0
   -0.6030   23.5790  -28.1460 C   0  0  0  0  0  0  0  0  0  0  0  0
   -0.3654   23.1063  -29.1104 H   0  0  0  0  0  0  0  0  0  0  0  0
   -1.5370   24.6280  -28.0930 C   0  0  0  0  0  0  0  0  0  0  0  0
   -2.1920   25.1210  -29.2730 N   0  0  0  0  0  0  0  0  0  0  0  0
   -3.3750   24.7920  -29.7020 C   0  0  0  0  0  0  0  0  0  0  0  0
   -3.8940   25.3020  -30.8390 N   0  0  0  0  0  0  0  0  0  0  0  0
   -5.1350   24.8850  -31.0840 N   0  0  0  0  0  0  0  0  0  0  0  0
   -5.6100   24.0450  -30.1390 C   0  0  0  0  0  0  0  0  0  0  0  0
   -7.2440   23.3120  -30.1850 S   0  0  0  0  0  0  0  0  0  0  0  0
   -7.2200   22.9690  -31.9780 C   0  0  0  0  0  0  0  0  0  0  0  0
   -7.1437   23.9208  -32.5241 H   0  0  0  0  0  0  0  0  0  0  0  0
   -8.1482   22.4419  -32.2436 H   0  0  0  0  0  0  0  0  0  0  0  0
   -6.0590   22.0990  -32.3490 C   0  0  0  0  0  0  0  0  0  0  0  0
   -6.2670   20.9050  -32.6950 O   0  0  0  0  0  0  0  0  0  0  0  0
   -4.7260   22.6350  -32.3290 N   0  0  0  0  0  0  0  0  0  0  0  0
   -4.6210   23.6750  -32.3160 H   0  0  0  0  0  0  0  0  0  0  0  0
   -3.5290   21.8450  -32.4240 C   0  0  0  0  0  0  0  0  0  0  0  0
   -3.3790   20.9560  -33.4990 C   0  0  0  0  0  0  0  0  0  0  0  0
   -4.1913   20.8454  -34.2325 H   0  0  0  0  0  0  0  0  0  0  0  0
   -2.2070   20.2100  -33.6460 C   0  0  0  0  0  0  0  0  0  0  0  0
   -2.1101   19.4996  -34.4802 H   0  0  0  0  0  0  0  0  0  0  0  0
   -1.1560   20.3640  -32.7350 C   0  0  0  0  0  0  0  0  0  0  0  0
    0.3450   19.4680  -32.9560 S   0  0  0  0  0  0  0  0  0  0  0  0
    0.1130   18.0300  -32.5910 O   0  0  0  0  0  0  0  0  0  0  0  0
    1.4230   20.0330  -32.0720 O   0  0  0  0  0  0  0  0  0  0  0  0
    0.8720   19.5560  -34.6080 N   0  0  0  0  0  0  0  0  0  0  0  0
    1.1650   20.6620  -35.2220 C   0  0  0  0  0  0  0  0  0  0  0  0
    1.5600   20.7110  -36.4720 O   0  0  0  0  0  0  0  0  0  0  0  0
    1.7750   21.9410  -36.8380 N   0  0  0  0  0  0  0  0  0  0  0  0
    1.5150   22.7200  -35.7680 C   0  0  0  0  0  0  0  0  0  0  0  0
    1.5700   24.2100  -35.7820 C   0  0  0  0  0  0  0  0  0  0  0  0
    1.5839   24.5861  -34.7484 H   0  0  0  0  0  0  0  0  0  0  0  0
    2.4809   24.5384  -36.3040 H   0  0  0  0  0  0  0  0  0  0  0  0
    0.6858   24.6047  -36.3040 H   0  0  0  0  0  0  0  0  0  0  0  0
    1.1110   21.9400  -34.7050 C   0  0  0  0  0  0  0  0  0  0  0  0
    0.8178   22.2584  -33.6937 H   0  0  0  0  0  0  0  0  0  0  0  0
   -1.2950   21.2540  -31.6630 C   0  0  0  0  0  0  0  0  0  0  0  0
   -0.4749   21.3718  -30.9394 H   0  0  0  0  0  0  0  0  0  0  0  0
   -2.4720   21.9940  -31.5080 C   0  0  0  0  0  0  0  0  0  0  0  0
   -2.5713   22.6953  -30.6663 H   0  0  0  0  0  0  0  0  0  0  0  0
   -4.4850   23.7870  -28.9130 S   0  0  0  0  0  0  0  0  0  0  0  0
   -1.7780   25.2660  -26.8700 C   0  0  0  0  0  0  0  0  0  0  0  0
   -2.4717   26.1185  -26.8257 H   0  0  0  0  0  0  0  0  0  0  0  0
   -1.1420   24.8260  -25.7040 C   0  0  0  0  0  0  0  0  0  0  0  0
   -1.3465   25.3239  -24.7447 H   0  0  0  0  0  0  0  0  0  0  0  0
  1  2  1  0
  2  3  2  0
  3  4  1  0
  3  5  1  0
  5  6  1  0
  5  7  2  0
  7  8  1  0
  8  9  2  0
  9 10  1  0
 10 11  1  0
 11 12  2  0
 12 13  1  0
 13 14  1  0
 14 15  1  0
 14 16  1  0
 14 17  1  0
 17 18  2  0
 17 19  1  0
 19 20  1  0
 19 21  1  0
 21 22  2  0
 22 23  1  0
 22 24  1  0
 24 25  1  0
 24 26  2  0
 26 27  1  0
 27 28  2  0
 27 29  2  0
 27 30  1  0
 30 31  2  3
 31 32  1  0
 32 33  1  0
 33 34  1  0
 34 35  1  0
 35 36  1  0
 35 37  1  0
 35 38  1  0
 34 39  2  0
 39 40  1  0
 26 41  1  0
 41 42  1  0
 41 43  2  0
 43 44  1  0
 12 45  1  0
  7 46  1  0
 46 47  1  0
 46 48  2  0
 48 49  1  0
 48  2  1  0
 45  9  1  0
 43 21  1  0
 39 31  1  0
M  CHG  2  10  -1  33  -1
M  END
>  <UniqueID>  (14) 
13

>  <SMILES>  (14) 
Cc1cc(=NS(=O)(=O)c2ccc(NC(=O)CSc3n[n-]/c(=N/c4ccccc4)s3)cc2)o[n-]1

>  <Energy>  (14) 
120.41539612987403

>  <Genealogy>  (14) 
Cc1cc(=NS(=O)(=O)c2ccc(NC(=O)CSc3n[n-]c(=Nc4ccccc4)s3)cc2)o[n-]1 (protonated)
Cc1cc(=NS(=O)(=O)c2ccc(NC(=O)CSc3n[n-]/c(=N/c4ccccc4)s3)cc2)o[n-]1 (cis-trans isomerization)
Cc1cc(=NS(=O)(=O)c2ccc(NC(=O)CSc3n[n-]/c(=N/c4ccccc4)s3)cc2)o[n-]1 (3D coordinates assigned)
Cc1cc(=NS(=O)(=O)c2ccc(NC(=O)CSc3n[n-]/c(=N/c4ccccc4)s3)cc2)o[n-]1 (optimized conformer: 120.41539612987403 kcal/mol)

>  <smiles>  (14) 
Cc1cc(=NS(=O)(=O)c2ccc(NC(=O)CSc3n[nH]c(=Nc4ccccc4)s3)cc2)o[nH]1

>  <score_type>  (14) 
oracle

>  <origin>  (14) 
adgpu

>  <m_score__min__energy>  (14) 
-12.19

>  <m_primary>  (14) 
energy

$$$$
14:0
     RDKit          3D

 45 47  0  0  0  0  0  0  0  0999 V2000
   -6.1910   14.3230  -34.2340 C   0  0  0  0  0  0  0  0  0  0  0  0
   -7.0130   15.4310  -33.8840 O   0  0  0  0  0  0  0  0  0  0  0  0
   -6.5370   16.7310  -33.6640 C   0  0  0  0  0  0  0  0  0  0  0  0
   -7.0130   17.5440  -32.6180 C   0  0  0  0  0  0  0  0  0  0  0  0
   -6.5060   18.8350  -32.4410 C   0  0  0  0  0  0  0  0  0  0  0  0
   -5.5210   19.3380  -33.3050 C   0  0  0  0  0  0  0  0  0  0  0  0
   -4.9880   20.6630  -33.1140 N   0  0  0  0  0  0  0  0  0  0  0  0
   -3.6480   21.0120  -33.6080 C   0  0  0  0  0  0  0  0  0  0  0  0
   -2.8020   21.5700  -32.4560 C   0  0  0  0  0  0  0  0  0  0  0  0
   -3.5810   22.4990  -31.6180 N   0  0  0  0  0  0  0  0  0  0  0  0
   -3.1570   22.7650  -30.2680 C   0  0  0  0  0  0  0  0  0  0  0  0
   -2.6270   21.7510  -29.5270 N   0  0  0  0  0  0  0  0  0  0  0  0
   -2.1940   21.9330  -28.2530 C   0  0  0  0  0  0  0  0  0  0  0  0
   -2.2730   23.1940  -27.6640 C   0  0  0  0  0  0  0  0  0  0  0  0
   -2.8180   24.2530  -28.3880 C   0  0  0  0  0  0  0  0  0  0  0  0
   -3.2930   24.0450  -29.6930 C   0  0  0  0  0  0  0  0  0  0  0  0
   -3.8770   25.1170  -30.4470 N   0  0  0  0  0  0  0  0  0  0  0  0
   -5.2030   25.6450  -30.3030 C   0  0  0  0  0  0  0  0  0  0  0  0
   -6.3810   24.7670  -30.0090 C   0  0  0  0  0  0  0  0  0  0  0  0
   -5.3880   26.8800  -30.4650 O   0  0  0  0  0  0  0  0  0  0  0  0
   -4.9260   22.9020  -32.0450 C   0  0  0  0  0  0  0  0  0  0  0  0
   -5.7660   21.6570  -32.3550 C   0  0  0  0  0  0  0  0  0  0  0  0
   -5.0430   18.5230  -34.3440 C   0  0  0  0  0  0  0  0  0  0  0  0
   -5.5490   17.2320  -34.5200 C   0  0  0  0  0  0  0  0  0  0  0  0
   -5.8273   13.8328  -33.3189 H   0  0  0  0  0  0  0  0  0  0  0  0
   -6.7765   13.6048  -34.8268 H   0  0  0  0  0  0  0  0  0  0  0  0
   -5.3339   14.6751  -34.8268 H   0  0  0  0  0  0  0  0  0  0  0  0
   -7.7875   17.1619  -31.9367 H   0  0  0  0  0  0  0  0  0  0  0  0
   -6.8820   19.4611  -31.6184 H   0  0  0  0  0  0  0  0  0  0  0  0
   -3.1629   20.1129  -34.0159 H   0  0  0  0  0  0  0  0  0  0  0  0
   -3.7371   21.7734  -34.3969 H   0  0  0  0  0  0  0  0  0  0  0  0
   -2.4506   20.7346  -31.8327 H   0  0  0  0  0  0  0  0  0  0  0  0
   -1.9522   22.1207  -32.8856 H   0  0  0  0  0  0  0  0  0  0  0  0
   -1.7810   21.0857  -27.6859 H   0  0  0  0  0  0  0  0  0  0  0  0
   -1.9089   23.3517  -26.6381 H   0  0  0  0  0  0  0  0  0  0  0  0
   -2.8762   25.2542  -27.9360 H   0  0  0  0  0  0  0  0  0  0  0  0
   -6.5061   24.6738  -28.9201 H   0  0  0  0  0  0  0  0  0  0  0  0
   -7.2876   25.2115  -30.4455 H   0  0  0  0  0  0  0  0  0  0  0  0
   -6.2141   23.7712  -30.4455 H   0  0  0  0  0  0  0  0  0  0  0  0
   -5.4079   23.4769  -31.2405 H   0  0  0  0  0  0  0  0  0  0  0  0
   -4.8495   23.5236  -32.9493 H   0  0  0  0  0  0  0  0  0  0  0  0
   -6.0996   21.2050  -31.4093 H   0  0  0  0  0  0  0  0  0  0  0  0
   -6.6286   21.9628  -32.9652 H   0  0  0  0  0  0  0  0  0  0  0  0
   -4.2657   18.9029  -35.0234 H   0  0  0  0  0  0  0  0  0  0  0  0
   -5.1674   16.6040  -35.3385 H   0  0  0  0  0  0  0  0  0  0  0  0
  1  2  1  0
  2  3  1  0
  3  4  2  0
  4  5  1  0
  5  6  2  0
  6  7  1  0
  7  8  1  0
  8  9  1  0
  9 10  1  0
 10 11  1  0
 11 12  2  0
 12 13  1  0
 13 14  2  0
 14 15  1  0
 15 16  2  0
 16 17  1  0
 17 18  1  0
 18 19  1  0
 18 20  2  0
 10 21  1  0
 21 22  1  0
  6 23  1  0
 23 24  2  0
 24  3  1  0
 22  7  1  0
 16 11  1  0
  1 25  1  0
  1 26  1  0
  1 27  1  0
  4 28  1  0
  5 29  1  0
  8 30  1  0
  8 31  1  0
  9 32  1  0
  9 33  1  0
 13 34  1  0
 14 35  1  0
 15 36  1  0
 19 37  1  0
 19 38  1  0
 19 39  1  0
 21 40  1  0
 21 41  1  0
 22 42  1  0
 22 43  1  0
 23 44  1  0
 24 45  1  0
M  CHG  1  17  -1
M  END
>  <UniqueID>  (15) 
14

>  <SMILES>  (15) 
COc1ccc(N2CCN(c3ncccc3[N-]C(C)=O)CC2)cc1

>  <Energy>  (15) 
59.749356138903615

>  <Genealogy>  (15) 
COc1ccc(N2CCN(c3ncccc3[N-]C(C)=O)CC2)cc1 (protonated)
COc1ccc(N2CCN(c3ncccc3[N-]C(C)=O)CC2)cc1 (3D coordinates assigned)
COc1ccc(N2CCN(c3ncccc3[N-]C(C)=O)CC2)cc1 (nonaromatic ring conformer: 59.749356138903615 kcal/mol)

>  <smiles>  (15) 
COc1ccc(N2CCN(c3ncccc3NC(C)=O)CC2)cc1

>  <score_type>  (15) 
oracle

>  <origin>  (15) 
adgpu

>  <m_score__min__energy>  (15) 
-8.7799999999999994

>  <m_primary>  (15) 
energy

$$$$
15:0
     RDKit          3D

 47 49  0  0  0  0  0  0  0  0999 V2000
   -6.7850   25.2900  -29.4110 C   0  0  0  0  0  0  0  0  0  0  0  0
   -5.7140   26.0750  -30.1520 C   0  0  0  0  0  0  0  0  0  0  0  0
   -5.1010   25.2410  -31.1050 O   0  0  0  0  0  0  0  0  0  0  0  0
   -3.7710   25.2560  -30.8280 N   0  0  0  0  0  0  0  0  0  0  0  0
   -3.1830   24.3040  -29.9380 C   0  0  0  0  0  0  0  0  0  0  0  0
   -2.9300   24.6450  -28.7520 O   0  0  0  0  0  0  0  0  0  0  0  0
   -2.9060   22.9220  -30.4040 C   0  0  0  0  0  0  0  0  0  0  0  0
   -1.8170   22.2210  -29.8500 C   0  0  0  0  0  0  0  0  0  0  0  0
   -1.4900   20.9390  -30.2960 C   0  0  0  0  0  0  0  0  0  0  0  0
   -2.2470   20.3330  -31.2970 C   0  0  0  0  0  0  0  0  0  0  0  0
   -3.3360   21.0050  -31.8520 C   0  0  0  0  0  0  0  0  0  0  0  0
   -3.6750   22.2980  -31.4200 C   0  0  0  0  0  0  0  0  0  0  0  0
   -4.8500   22.9310  -31.9560 N   0  0  0  0  0  0  0  0  0  0  0  0
   -6.1460   22.3090  -31.9920 C   0  0  0  0  0  0  0  0  0  0  0  0
   -7.2650   23.0210  -31.5360 C   0  0  0  0  0  0  0  0  0  0  0  0
   -8.5340   22.4390  -31.5700 C   0  0  0  0  0  0  0  0  0  0  0  0
   -8.7030   21.1500  -32.0780 C   0  0  0  0  0  0  0  0  0  0  0  0
   -7.6040   20.4360  -32.5780 C   0  0  0  0  0  0  0  0  0  0  0  0
   -7.7990   19.1050  -33.0870 N   0  0  0  0  0  0  0  0  0  0  0  0
   -6.7940   18.0760  -33.0740 C   0  0  0  0  0  0  0  0  0  0  0  0
   -6.5100   17.4040  -31.8760 C   0  0  0  0  0  0  0  0  0  0  0  0
   -5.5500   16.3870  -31.8460 C   0  0  0  0  0  0  0  0  0  0  0  0
   -4.8740   16.0230  -33.0180 C   0  0  0  0  0  0  0  0  0  0  0  0
   -3.8860   14.9780  -32.9860 C   0  0  0  0  0  0  0  0  0  0  0  0
   -3.0920   14.1370  -32.9600 N   0  0  0  0  0  0  0  0  0  0  0  0
   -5.1700   16.6730  -34.2220 C   0  0  0  0  0  0  0  0  0  0  0  0
   -6.1300   17.6890  -34.2530 C   0  0  0  0  0  0  0  0  0  0  0  0
   -6.3240   21.0150  -32.5170 C   0  0  0  0  0  0  0  0  0  0  0  0
   -6.6356   25.3995  -28.3267 H   0  0  0  0  0  0  0  0  0  0  0  0
   -7.7780   25.6757  -29.6851 H   0  0  0  0  0  0  0  0  0  0  0  0
   -6.7161   24.2269  -29.6851 H   0  0  0  0  0  0  0  0  0  0  0  0
   -6.1743   26.9358  -30.6591 H   0  0  0  0  0  0  0  0  0  0  0  0
   -4.9592   26.4336  -29.4367 H   0  0  0  0  0  0  0  0  0  0  0  0
   -1.2168   22.6895  -29.0561 H   0  0  0  0  0  0  0  0  0  0  0  0
   -0.6336   20.4065  -29.8567 H   0  0  0  0  0  0  0  0  0  0  0  0
   -1.9856   19.3243  -31.6495 H   0  0  0  0  0  0  0  0  0  0  0  0
   -3.9351   20.5178  -32.6354 H   0  0  0  0  0  0  0  0  0  0  0  0
   -4.7550   23.9110  -32.3090 H   0  0  0  0  0  0  0  0  0  0  0  0
   -7.1424   24.0435  -31.1494 H   0  0  0  0  0  0  0  0  0  0  0  0
   -9.4037   22.9985  -31.1950 H   0  0  0  0  0  0  0  0  0  0  0  0
   -9.7030   20.6918  -32.0863 H   0  0  0  0  0  0  0  0  0  0  0  0
   -8.7360   18.8660  -33.4840 H   0  0  0  0  0  0  0  0  0  0  0  0
   -7.0452   17.6783  -30.9549 H   0  0  0  0  0  0  0  0  0  0  0  0
   -5.3254   15.8720  -30.9003 H   0  0  0  0  0  0  0  0  0  0  0  0
   -4.6464   16.3839  -35.1452 H   0  0  0  0  0  0  0  0  0  0  0  0
   -6.3675   18.1885  -35.2038 H   0  0  0  0  0  0  0  0  0  0  0  0
   -5.4533   20.4513  -32.8831 H   0  0  0  0  0  0  0  0  0  0  0  0
  1  2  1  0
  2  3  1  0
  3  4  1  0
  4  5  1  0
  5  6  2  0
  5  7  1  0
  7  8  2  0
  8  9  1  0
  9 10  2  0
 10 11  1  0
 11 12  2  0
 12 13  1  0
 13 14  1  0
 14 15  2  0
 15 16  1  0
 16 17  2  0
 17 18  1  0
 18 19  1  0
 19 20  1  0
 20 21  2  0
 21 22  1  0
 22 23  2  0
 23 24  1  0
 24 25  3  0
 23 26  1  0
 26 27  2  0
 18 28  2  0
 12  7  1  0
 28 14  1  0
 27 20  1  0
  1 29  1  0
  1 30  1  0
  1 31  1  0
  2 32  1  0
  2 33  1  0
  8 34  1  0
  9 35  1  0
 10 36  1  0
 11 37  1  0
 13 38  1  0
 15 39  1  0
 16 40  1  0
 17 41  1  0
 19 42  1  0
 21 43  1  0
 22 44  1  0
 26 45  1  0
 27 46  1  0
 28 47  1  0
M  CHG  1   4  -1
M  END
>  <UniqueID>  (16) 
15

>  <SMILES>  (16) 
CCO[N-]C(=O)c1ccccc1Nc1cccc(Nc2ccc(C#N)cc2)c1

>  <Energy>  (16) 
58.19901493248287

>  <Genealogy>  (16) 
CCO[N-]C(=O)c1ccccc1Nc1cccc(Nc2ccc(C#N)cc2)c1 (protonated)
CCO[N-]C(=O)c1ccccc1Nc1cccc(Nc2ccc(C#N)cc2)c1 (3D coordinates assigned)
CCO[N-]C(=O)c1ccccc1Nc1cccc(Nc2ccc(C#N)cc2)c1 (optimized conformer: 58.19901493248287 kcal/mol)

>  <smiles>  (16) 
CCONC(=O)c1ccccc1Nc1cccc(Nc2ccc(C#N)cc2)c1

>  <score_type>  (16) 
oracle

>  <origin>  (16) 
adgpu

>  <m_score__min__energy>  (16) 
-11.65

>  <m_primary>  (16) 
energy

$$$$
16:0
     RDKit          3D

 51 53  0  0  0  0  0  0  0  0999 V2000
   -4.2550   14.9330  -34.6890 C   0  0  0  0  0  0  0  0  0  0  0  0
   -4.8630   16.2100  -34.2140 C   0  0  0  0  0  0  0  0  0  0  0  0
   -4.7890   17.3990  -34.9350 C   0  0  0  0  0  0  0  0  0  0  0  0
   -5.6320   18.5740  -34.0780 S   0  0  0  0  0  0  0  0  0  0  0  0
   -6.0750   17.5170  -32.8480 C   0  0  0  0  0  0  0  0  0  0  0  0
   -6.8380   17.9050  -31.6190 C   0  0  0  0  0  0  0  0  0  0  0  0
   -8.2930   18.2310  -31.9540 C   0  0  0  0  0  0  0  0  0  0  0  0
   -8.7030   19.4500  -31.2580 N   0  0  0  0  0  0  0  0  0  0  0  0
   -8.3640   20.8390  -32.2450 S   0  0  0  0  0  0  0  0  0  0  0  0
   -9.6450   21.5820  -32.4980 O   0  0  0  0  0  0  0  0  0  0  0  0
   -7.8010   20.4020  -33.5690 O   0  0  0  0  0  0  0  0  0  0  0  0
   -7.2250   21.9100  -31.4310 C   0  0  0  0  0  0  0  0  0  0  0  0
   -7.6470   22.6890  -30.3450 C   0  0  0  0  0  0  0  0  0  0  0  0
   -6.7480   23.5420  -29.7010 C   0  0  0  0  0  0  0  0  0  0  0  0
   -5.4060   23.6130  -30.1210 C   0  0  0  0  0  0  0  0  0  0  0  0
   -4.4690   24.5070  -29.4950 N   0  0  0  0  0  0  0  0  0  0  0  0
   -3.1660   24.1080  -29.0360 C   0  0  0  0  0  0  0  0  0  0  0  0
   -2.6030   23.1050  -29.5520 O   0  0  0  0  0  0  0  0  0  0  0  0
   -2.4540   24.8920  -27.9980 C   0  0  0  0  0  0  0  0  0  0  0  0
   -1.2780   25.6030  -28.3080 C   0  0  0  0  0  0  0  0  0  0  0  0
   -0.6190   26.3460  -27.3240 C   0  0  0  0  0  0  0  0  0  0  0  0
   -1.1220   26.3940  -26.0180 C   0  0  0  0  0  0  0  0  0  0  0  0
   -0.2940   27.3470  -24.7910 S   0  0  0  0  0  0  0  0  0  0  0  0
   -0.5160   26.5830  -23.2010 C   0  0  0  0  0  0  0  0  0  0  0  0
   -0.8580   28.7390  -24.7650 O   0  0  0  0  0  0  0  0  0  0  0  0
    1.1730   27.4270  -25.1080 O   0  0  0  0  0  0  0  0  0  0  0  0
   -2.2990   25.7050  -25.7060 C   0  0  0  0  0  0  0  0  0  0  0  0
   -2.9610   24.9600  -26.6880 C   0  0  0  0  0  0  0  0  0  0  0  0
   -4.9930   22.8360  -31.2140 C   0  0  0  0  0  0  0  0  0  0  0  0
   -5.8940   21.9850  -31.8600 C   0  0  0  0  0  0  0  0  0  0  0  0
   -5.5810   16.2780  -33.0600 N   0  0  0  0  0  0  0  0  0  0  0  0
   -3.9636   14.3211  -33.8226 H   0  0  0  0  0  0  0  0  0  0  0  0
   -4.9875   14.3821  -35.2973 H   0  0  0  0  0  0  0  0  0  0  0  0
   -3.3656   15.1543  -35.2973 H   0  0  0  0  0  0  0  0  0  0  0  0
   -4.2711   17.5436  -35.8946 H   0  0  0  0  0  0  0  0  0  0  0  0
   -6.8127   17.0709  -30.9023 H   0  0  0  0  0  0  0  0  0  0  0  0
   -6.3701   18.8015  -31.1861 H   0  0  0  0  0  0  0  0  0  0  0  0
   -8.3929   18.3796  -33.0393 H   0  0  0  0  0  0  0  0  0  0  0  0
   -8.9342   17.3972  -31.6322 H   0  0  0  0  0  0  0  0  0  0  0  0
   -8.6894   22.6284  -29.9989 H   0  0  0  0  0  0  0  0  0  0  0  0
   -7.0907   24.1626  -28.8599 H   0  0  0  0  0  0  0  0  0  0  0  0
   -4.7120   25.5230  -29.4600 H   0  0  0  0  0  0  0  0  0  0  0  0
   -0.8755   25.5734  -29.3313 H   0  0  0  0  0  0  0  0  0  0  0  0
    0.2995   26.8958  -27.5770 H   0  0  0  0  0  0  0  0  0  0  0  0
   -0.3030   27.3161  -22.4090 H   0  0  0  0  0  0  0  0  0  0  0  0
   -1.5537   26.2307  -23.1051 H   0  0  0  0  0  0  0  0  0  0  0  0
    0.1713   25.7295  -23.1051 H   0  0  0  0  0  0  0  0  0  0  0  0
   -2.7055   25.7492  -24.6848 H   0  0  0  0  0  0  0  0  0  0  0  0
   -3.8863   24.4226  -26.4331 H   0  0  0  0  0  0  0  0  0  0  0  0
   -3.9523   22.8971  -31.5650 H   0  0  0  0  0  0  0  0  0  0  0  0
   -5.5564   21.3718  -32.7086 H   0  0  0  0  0  0  0  0  0  0  0  0
  1  2  1  0
  2  3  2  0
  3  4  1  0
  4  5  1  0
  5  6  1  0
  6  7  1  0
  7  8  1  0
  8  9  1  0
  9 10  2  0
  9 11  2  0
  9 12  1  0
 12 13  2  0
 13 14  1  0
 14 15  2  0
 15 16  1  0
 16 17  1  0
 17 18  2  0
 17 19  1  0
 19 20  2  0
 20 21  1  0
 21 22  2  0
 22 23  1  0
 23 24  1  0
 23 25  2  0
 23 26  2  0
 22 27  1  0
 27 28  2  0
 15 29  1  0
 29 30  2  0
  5 31  2  0
 31  2  1  0
 30 12  1  0
 28 19  1  0
  1 32  1  0
  1 33  1  0
  1 34  1  0
  3 35  1  0
  6 36  1  0
  6 37  1  0
  7 38  1  0
  7 39  1  0
 13 40  1  0
 14 41  1  0
 16 42  1  0
 20 43  1  0
 21 44  1  0
 24 45  1  0
 24 46  1  0
 24 47  1  0
 27 48  1  0
 28 49  1  0
 29 50  1  0
 30 51  1  0
M  CHG  1   8  -1
M  END
>  <UniqueID>  (17) 
16

>  <SMILES>  (17) 
Cc1csc(CC[N-]S(=O)(=O)c2ccc(NC(=O)c3ccc(S(C)(=O)=O)cc3)cc2)n1

>  <Energy>  (17) 
78.72837737802489

>  <Genealogy>  (17) 
Cc1csc(CC[N-]S(=O)(=O)c2ccc(NC(=O)c3ccc(S(C)(=O)=O)cc3)cc2)n1 (protonated)
Cc1csc(CC[N-]S(=O)(=O)c2ccc(NC(=O)c3ccc(S(C)(=O)=O)cc3)cc2)n1 (3D coordinates assigned)
Cc1csc(CC[N-]S(=O)(=O)c2ccc(NC(=O)c3ccc(S(C)(=O)=O)cc3)cc2)n1 (optimized conformer: 78.72837737802489 kcal/mol)

>  <smiles>  (17) 
Cc1csc(CCNS(=O)(=O)c2ccc(NC(=O)c3ccc(S(C)(=O)=O)cc3)cc2)n1

>  <score_type>  (17) 
oracle

>  <origin>  (17) 
adgpu

>  <m_score__min__energy>  (17) 
-9.8300000000000001

>  <m_primary>  (17) 
energy

$$$$
17:0
     RDKit          3D

 36 39  0  0  0  0  0  0  0  0999 V2000
   -5.8500   26.4350  -31.6330 H   0  0  0  0  0  0  0  0  0  0  0  0
   -6.0850   25.4620  -31.3350 N   0  0  0  0  0  0  0  0  0  0  0  0
   -5.2350   24.7240  -30.6940 C   0  0  0  0  0  0  0  0  0  0  0  0
   -4.0050   25.2240  -30.3920 N   0  0  0  0  0  0  0  0  0  0  0  0
   -3.0650   24.4900  -29.7400 C   0  0  0  0  0  0  0  0  0  0  0  0
   -3.3490   23.1670  -29.3740 C   0  0  0  0  0  0  0  0  0  0  0  0
   -4.6120   22.6380  -29.6420 C   0  0  0  0  0  0  0  0  0  0  0  0
   -4.8518   21.6087  -29.3369 H   0  0  0  0  0  0  0  0  0  0  0  0
   -5.5760   23.4150  -30.2990 C   0  0  0  0  0  0  0  0  0  0  0  0
   -7.1700   22.7330  -30.6590 S   0  0  0  0  0  0  0  0  0  0  0  0
   -7.9940   23.7600  -31.3840 O   0  0  0  0  0  0  0  0  0  0  0  0
   -7.8670   22.3680  -29.3780 O   0  0  0  0  0  0  0  0  0  0  0  0
   -7.0300   21.2780  -31.6450 C   0  0  0  0  0  0  0  0  0  0  0  0
   -5.9160   21.1040  -32.4790 C   0  0  0  0  0  0  0  0  0  0  0  0
   -5.1237   21.8667  -32.5025 H   0  0  0  0  0  0  0  0  0  0  0  0
   -5.8100   19.9630  -33.2810 C   0  0  0  0  0  0  0  0  0  0  0  0
   -4.9335   19.8282  -33.9319 H   0  0  0  0  0  0  0  0  0  0  0  0
   -6.8170   18.9940  -33.2560 C   0  0  0  0  0  0  0  0  0  0  0  0
   -6.7322   18.0966  -33.8864 H   0  0  0  0  0  0  0  0  0  0  0  0
   -7.9320   19.1650  -32.4300 C   0  0  0  0  0  0  0  0  0  0  0  0
   -8.7240   18.4019  -32.4107 H   0  0  0  0  0  0  0  0  0  0  0  0
   -8.0410   20.3060  -31.6280 C   0  0  0  0  0  0  0  0  0  0  0  0
   -8.9215   20.4412  -30.9827 H   0  0  0  0  0  0  0  0  0  0  0  0
   -2.0510   22.1190  -28.7130 S   0  0  0  0  0  0  0  0  0  0  0  0
   -1.3890   23.3800  -27.6200 C   0  0  0  0  0  0  0  0  0  0  0  0
   -0.9390   23.0280  -26.3420 C   0  0  0  0  0  0  0  0  0  0  0  0
   -1.1005   22.0074  -25.9647 H   0  0  0  0  0  0  0  0  0  0  0  0
   -0.2850   23.9710  -25.5450 C   0  0  0  0  0  0  0  0  0  0  0  0
    0.0657   23.6930  -24.5402 H   0  0  0  0  0  0  0  0  0  0  0  0
   -0.0760   25.2680  -26.0240 C   0  0  0  0  0  0  0  0  0  0  0  0
    0.4570   26.0032  -25.4032 H   0  0  0  0  0  0  0  0  0  0  0  0
   -0.5430   25.6320  -27.2900 C   0  0  0  0  0  0  0  0  0  0  0  0
   -0.3817   26.6549  -27.6610 H   0  0  0  0  0  0  0  0  0  0  0  0
   -1.2170   24.6960  -28.0890 C   0  0  0  0  0  0  0  0  0  0  0  0
   -1.8470   25.1140  -29.3120 N   0  0  0  0  0  0  0  0  0  0  0  0
   -1.6040   26.0490  -29.7130 H   0  0  0  0  0  0  0  0  0  0  0  0
  1  2  1  0
  2  3  2  0
  3  4  1  0
  4  5  1  0
  5  6  2  0
  6  7  1  0
  7  8  1  0
  7  9  2  0
  9 10  1  0
 10 11  2  0
 10 12  2  0
 10 13  1  0
 13 14  2  0
 14 15  1  0
 14 16  1  0
 16 17  1  0
 16 18  2  0
 18 19  1  0
 18 20  1  0
 20 21  1  0
 20 22  2  0
 22 23  1  0
  6 24  1  0
 24 25  1  0
 25 26  2  0
 26 27  1  0
 26 28  1  0
 28 29  1  0
 28 30  2  0
 30 31  1  0
 30 32  1  0
 32 33  1  0
 32 34  2  0
 34 35  1  0
 35 36  1  0
  9  3  1  0
 22 13  1  0
 34 25  1  0
 35  5  1  0
M  CHG  1   4  -1
M  END
>  <UniqueID>  (18) 
17

>  <SMILES>  (18) 
[H]/N=c1\[n-]c2c(cc1S(=O)(=O)c1ccccc1)Sc1ccccc1N2

>  <Energy>  (18) 
58.94696056497525

>  <Genealogy>  (18) 
N=c1[n-]c2c(cc1S(=O)(=O)c1ccccc1)Sc1ccccc1N2 (protonated)
[H]/N=c1\[n-]c2c(cc1S(=O)(=O)c1ccccc1)Sc1ccccc1N2 (cis-trans isomerization)
[H]/N=c1\[n-]c2c(cc1S(=O)(=O)c1ccccc1)Sc1ccccc1N2 (3D coordinates assigned)
[H]/N=c1\[n-]c2c(cc1S(=O)(=O)c1ccccc1)Sc1ccccc1N2 (nonaromatic ring conformer: 58.94696056497525 kcal/mol)

>  <smiles>  (18) 
N=c1[nH]c2c(cc1S(=O)(=O)c1ccccc1)Sc1ccccc1N2

>  <score_type>  (18) 
oracle

>  <origin>  (18) 
adgpu

>  <m_score__min__energy>  (18) 
-11.07

>  <m_primary>  (18) 
energy

$$$$
18:0
     RDKit          3D

 41 44  0  0  0  0  0  0  0  0999 V2000
   -0.0290   17.7730  -27.4620 C   0  0  0  0  0  0  0  0  0  0  0  0
   -0.8930   18.9670  -27.7390 C   0  0  0  0  0  0  0  0  0  0  0  0
   -2.0870   19.1560  -27.0260 C   0  0  0  0  0  0  0  0  0  0  0  0
   -2.8980   20.2620  -27.2950 C   0  0  0  0  0  0  0  0  0  0  0  0
   -2.5340   21.1750  -28.2870 C   0  0  0  0  0  0  0  0  0  0  0  0
   -1.3610   20.9790  -29.0330 C   0  0  0  0  0  0  0  0  0  0  0  0
   -0.9770   21.9480  -30.1210 C   0  0  0  0  0  0  0  0  0  0  0  0
   -1.7550   21.5080  -31.7160 S   0  0  0  0  0  0  0  0  0  0  0  0
   -3.2800   22.3930  -31.3900 C   0  0  0  0  0  0  0  0  0  0  0  0
   -3.2340   23.7150  -31.0260 N   0  0  0  0  0  0  0  0  0  0  0  0
   -4.3730   24.4170  -30.7590 C   0  0  0  0  0  0  0  0  0  0  0  0
   -4.3170   25.6250  -30.4090 O   0  0  0  0  0  0  0  0  0  0  0  0
   -5.5860   23.7540  -30.8770 C   0  0  0  0  0  0  0  0  0  0  0  0
   -6.8970   24.1040  -30.6370 C   0  0  0  0  0  0  0  0  0  0  0  0
   -7.6730   23.0160  -30.8710 N   0  0  0  0  0  0  0  0  0  0  0  0
   -6.8900   22.0110  -31.2560 N   0  0  0  0  0  0  0  0  0  0  0  0
   -7.3850   20.7080  -31.6030 C   0  0  0  0  0  0  0  0  0  0  0  0
   -8.7270   20.5440  -31.9790 C   0  0  0  0  0  0  0  0  0  0  0  0
   -9.2100   19.2820  -32.3380 C   0  0  0  0  0  0  0  0  0  0  0  0
   -8.3520   18.1770  -32.3380 C   0  0  0  0  0  0  0  0  0  0  0  0
   -7.0090   18.3360  -31.9880 C   0  0  0  0  0  0  0  0  0  0  0  0
   -6.5250   19.5980  -31.6290 C   0  0  0  0  0  0  0  0  0  0  0  0
   -5.6160   22.4510  -31.2570 C   0  0  0  0  0  0  0  0  0  0  0  0
   -4.4810   21.7430  -31.4910 N   0  0  0  0  0  0  0  0  0  0  0  0
   -0.5450   19.8690  -28.7560 C   0  0  0  0  0  0  0  0  0  0  0  0
    0.0699   17.6363  -26.3750 H   0  0  0  0  0  0  0  0  0  0  0  0
   -0.4892   16.8769  -27.9039 H   0  0  0  0  0  0  0  0  0  0  0  0
    0.9660   17.9300  -27.9039 H   0  0  0  0  0  0  0  0  0  0  0  0
   -2.3853   18.4319  -26.2535 H   0  0  0  0  0  0  0  0  0  0  0  0
   -3.8257   20.4137  -26.7237 H   0  0  0  0  0  0  0  0  0  0  0  0
   -3.1689   22.0512  -28.4847 H   0  0  0  0  0  0  0  0  0  0  0  0
   -1.3024   22.9580  -29.8312 H   0  0  0  0  0  0  0  0  0  0  0  0
    0.1150   21.9095  -30.2476 H   0  0  0  0  0  0  0  0  0  0  0  0
   -7.2524   25.0931  -30.3123 H   0  0  0  0  0  0  0  0  0  0  0  0
   -9.4021   21.4124  -31.9913 H   0  0  0  0  0  0  0  0  0  0  0  0
  -10.2658   19.1578  -32.6208 H   0  0  0  0  0  0  0  0  0  0  0  0
   -8.7348   17.1832  -32.6135 H   0  0  0  0  0  0  0  0  0  0  0  0
   -6.3323   17.4688  -31.9948 H   0  0  0  0  0  0  0  0  0  0  0  0
   -5.4643   19.7220  -31.3654 H   0  0  0  0  0  0  0  0  0  0  0  0
   -4.5080   20.7260  -31.7210 H   0  0  0  0  0  0  0  0  0  0  0  0
    0.3726   19.7061  -29.3403 H   0  0  0  0  0  0  0  0  0  0  0  0
  1  2  1  0
  2  3  2  0
  3  4  1  0
  4  5  2  0
  5  6  1  0
  6  7  1  0
  7  8  1  0
  8  9  1  0
  9 10  2  0
 10 11  1  0
 11 12  2  0
 11 13  1  0
 13 14  1  0
 14 15  2  0
 15 16  1  0
 16 17  1  0
 17 18  2  0
 18 19  1  0
 19 20  2  0
 20 21  1  0
 21 22  2  0
 16 23  1  0
 23 24  1  0
  6 25  2  0
 25  2  1  0
 24  9  1  0
 23 13  2  0
 22 17  1  0
  1 26  1  0
  1 27  1  0
  1 28  1  0
  3 29  1  0
  4 30  1  0
  5 31  1  0
  7 32  1  0
  7 33  1  0
 14 34  1  0
 18 35  1  0
 19 36  1  0
 20 37  1  0
 21 38  1  0
 22 39  1  0
 24 40  1  0
 25 41  1  0
M  END
>  <UniqueID>  (19) 
18

>  <SMILES>  (19) 
Cc1cccc(CSc2nc(=O)c3cnn(-c4ccccc4)c3[nH]2)c1

>  <Energy>  (19) 
84.51914025681441

>  <Genealogy>  (19) 
Cc1cccc(CSc2nc(=O)c3cnn(-c4ccccc4)c3[nH]2)c1 (3D coordinates assigned)
Cc1cccc(CSc2nc(=O)c3cnn(-c4ccccc4)c3[nH]2)c1 (optimized conformer: 84.51914025681441 kcal/mol)

>  <smiles>  (19) 
Cc1cccc(CSc2nc(=O)c3cnn(-c4ccccc4)c3[nH]2)c1

>  <score_type>  (19) 
oracle

>  <origin>  (19) 
adgpu

>  <m_score__min__energy>  (19) 
-9.3100000000000005

>  <m_primary>  (19) 
energy

$$$$
19:0
     RDKit          3D

 34 36  0  0  1  0  0  0  0  0999 V2000
   -9.2320   21.2130  -31.8020 N   0  0  0  0  0  0  0  0  0  0  0  0
   -8.2470   21.8140  -31.5920 C   0  0  0  0  0  0  0  0  0  0  0  0
   -7.0400   22.5490  -31.3330 C   0  0  0  0  0  0  0  0  0  0  0  0
   -5.8480   22.2690  -32.0080 C   0  0  0  0  0  0  0  0  0  0  0  0
   -4.7050   22.9950  -31.7370 C   0  0  0  0  0  0  0  0  0  0  0  0
   -4.7640   23.9980  -30.7900 C   0  0  0  0  0  0  0  0  0  0  0  0
   -3.6430   24.8020  -30.4370 N   0  0  0  0  0  0  0  0  0  0  0  0
   -2.7490   24.2500  -29.6860 C   0  0  0  0  0  0  0  0  0  0  0  0
   -2.8420   22.9500  -29.2310 C   0  0  0  0  0  0  0  0  0  0  0  0
   -1.8320   22.4530  -28.4340 C   0  0  0  0  0  0  0  0  0  0  0  0
   -1.8410   21.0950  -27.9050 C   0  0  0  0  0  0  0  0  0  0  0  0
   -2.9830   20.6660  -27.2630 C   0  0  0  0  0  0  0  0  0  0  0  0
   -3.1060   19.3980  -26.7210 C   0  0  0  0  0  0  0  0  0  0  0  0
   -2.0180   18.5520  -26.8470 C   0  0  0  0  0  0  0  0  0  0  0  0
   -0.8560   18.9460  -27.4840 C   0  0  0  0  0  0  0  0  0  0  0  0
    0.2750   18.0620  -27.6120 C   0  0  0  0  0  0  0  0  0  0  0  0
    1.1940   17.3670  -27.7160 N   0  0  0  0  0  0  0  0  0  0  0  0
   -0.7980   20.2290  -28.0030 C   0  0  0  0  0  0  0  0  0  0  0  0
   -0.7950   23.2540  -28.1300 N   0  0  0  0  0  0  0  0  0  0  0  0
   -0.7090   24.5250  -28.5770 C   0  0  0  0  0  0  0  0  0  0  0  0
   -1.6830   25.0320  -29.3580 N   0  0  0  0  0  0  0  0  0  0  0  0
   -5.9600   24.2740  -30.1170 C   0  0  0  0  0  0  0  0  0  0  0  0
   -7.1140   23.5480  -30.3830 C   0  0  0  0  0  0  0  0  0  0  0  0
   -5.8205   21.4659  -32.7592 H   0  0  0  0  0  0  0  0  0  0  0  0
   -3.7651   22.7783  -32.2657 H   0  0  0  0  0  0  0  0  0  0  0  0
   -3.7049   22.3226  -29.4989 H   0  0  0  0  0  0  0  0  0  0  0  0
   -3.8320   21.3602  -27.1778 H   0  0  0  0  0  0  0  0  0  0  0  0
   -4.0274   19.0773  -26.2129 H   0  0  0  0  0  0  0  0  0  0  0  0
   -2.0796   17.5367  -26.4282 H   0  0  0  0  0  0  0  0  0  0  0  0
    0.1211   20.5573  -28.5104 H   0  0  0  0  0  0  0  0  0  0  0  0
    0.1563   25.1468  -28.3036 H   0  0  0  0  0  0  0  0  0  0  0  0
   -1.6180   26.0320  -29.7120 H   0  0  0  0  0  0  0  0  0  0  0  0
   -5.9864   25.0777  -29.3664 H   0  0  0  0  0  0  0  0  0  0  0  0
   -8.0548   23.7618  -29.8547 H   0  0  0  0  0  0  0  0  0  0  0  0
  1  2  3  0
  2  3  1  0
  3  4  2  0
  4  5  1  0
  5  6  2  0
  6  7  1  0
  7  8  2  0
  8  9  1  0
  9 10  2  0
 10 11  1  0
 11 12  2  0
 12 13  1  0
 13 14  2  0
 14 15  1  0
 15 16  1  0
 16 17  3  0
 15 18  2  0
 10 19  1  0
 19 20  2  0
 20 21  1  0
  6 22  1  0
 22 23  2  0
 23  3  1  0
 21  8  1  0
 18 11  1  0
  4 24  1  0
  5 25  1  0
  9 26  1  0
 12 27  1  0
 13 28  1  0
 14 29  1  0
 18 30  1  0
 20 31  1  0
 21 32  1  0
 22 33  1  0
 23 34  1  0
M  END
>  <smiles>  (20) 
N#Cc1ccc(N=c2cc(-c3cccc(C#N)c3)nc[nH]2)cc1

>  <score_type>  (20) 
oracle

>  <origin>  (20) 
adgpu

>  <m_score__min__energy>  (20) 
-9.1699999999999999

>  <m_primary>  (20) 
energy

$$$$
20:0
     RDKit          3D

 44 46  0  0  0  0  0  0  0  0999 V2000
   -4.4290   17.0540  -33.1450 C   0  0  0  0  0  0  0  0  0  0  0  0
   -5.6190   17.9480  -32.9600 C   0  0  0  0  0  0  0  0  0  0  0  0
   -6.7100   17.5210  -32.1880 C   0  0  0  0  0  0  0  0  0  0  0  0
   -7.8350   18.3380  -32.0440 C   0  0  0  0  0  0  0  0  0  0  0  0
   -7.8980   19.5840  -32.6920 C   0  0  0  0  0  0  0  0  0  0  0  0
   -9.0870   20.4570  -32.5450 C   0  0  0  0  0  0  0  0  0  0  0  0
  -10.2380   19.9580  -32.6630 O   0  0  0  0  0  0  0  0  0  0  0  0
   -8.9720   21.8690  -32.3220 N   0  0  0  0  0  0  0  0  0  0  0  0
   -7.8780   22.5380  -31.6790 C   0  0  0  0  0  0  0  0  0  0  0  0
   -7.5080   22.1450  -30.3880 C   0  0  0  0  0  0  0  0  0  0  0  0
   -6.4390   22.7670  -29.7360 C   0  0  0  0  0  0  0  0  0  0  0  0
   -5.7140   23.7910  -30.3720 C   0  0  0  0  0  0  0  0  0  0  0  0
   -4.5750   24.4550  -29.6920 C   0  0  0  0  0  0  0  0  0  0  0  0
   -3.8710   25.2850  -30.3300 O   0  0  0  0  0  0  0  0  0  0  0  0
   -4.2780   24.1830  -28.3120 N   0  0  0  0  0  0  0  0  0  0  0  0
   -3.0860   24.6680  -27.6770 C   0  0  0  0  0  0  0  0  0  0  0  0
   -3.1640   25.1300  -26.3540 C   0  0  0  0  0  0  0  0  0  0  0  0
   -2.0350   25.6430  -25.7140 C   0  0  0  0  0  0  0  0  0  0  0  0
   -0.8120   25.6910  -26.3860 C   0  0  0  0  0  0  0  0  0  0  0  0
   -0.7140   25.2100  -27.6940 C   0  0  0  0  0  0  0  0  0  0  0  0
   -1.8390   24.6820  -28.3460 C   0  0  0  0  0  0  0  0  0  0  0  0
   -1.6870   24.1190  -29.6550 N   0  0  0  0  0  0  0  0  0  0  0  0
   -6.0660   24.1580  -31.6830 C   0  0  0  0  0  0  0  0  0  0  0  0
   -7.1360   23.5350  -32.3320 C   0  0  0  0  0  0  0  0  0  0  0  0
   -6.8040   20.0070  -33.4650 C   0  0  0  0  0  0  0  0  0  0  0  0
   -5.6780   19.1900  -33.6070 C   0  0  0  0  0  0  0  0  0  0  0  0
   -4.0358   16.7586  -32.1611 H   0  0  0  0  0  0  0  0  0  0  0  0
   -4.7287   16.1558  -33.7048 H   0  0  0  0  0  0  0  0  0  0  0  0
   -3.6498   17.5919  -33.7048 H   0  0  0  0  0  0  0  0  0  0  0  0
   -6.6799   16.5387  -31.6938 H   0  0  0  0  0  0  0  0  0  0  0  0
   -8.6766   18.0038  -31.4195 H   0  0  0  0  0  0  0  0  0  0  0  0
   -8.0624   21.3407  -29.8823 H   0  0  0  0  0  0  0  0  0  0  0  0
   -6.1629   22.4534  -28.7184 H   0  0  0  0  0  0  0  0  0  0  0  0
   -5.0500   23.8440  -27.6970 H   0  0  0  0  0  0  0  0  0  0  0  0
   -4.1231   25.0874  -25.8171 H   0  0  0  0  0  0  0  0  0  0  0  0
   -2.1086   26.0098  -24.6796 H   0  0  0  0  0  0  0  0  0  0  0  0
    0.0745   26.1076  -25.8854 H   0  0  0  0  0  0  0  0  0  0  0  0
    0.2530   25.2454  -28.2172 H   0  0  0  0  0  0  0  0  0  0  0  0
   -0.8150   24.2500  -30.2120 H   0  0  0  0  0  0  0  0  0  0  0  0
   -2.4850   23.6280  -30.1180 H   0  0  0  0  0  0  0  0  0  0  0  0
   -5.4947   24.9417  -32.2021 H   0  0  0  0  0  0  0  0  0  0  0  0
   -7.3979   23.8274  -33.3596 H   0  0  0  0  0  0  0  0  0  0  0  0
   -6.8333   20.9878  -33.9621 H   0  0  0  0  0  0  0  0  0  0  0  0
   -4.8346   19.5236  -34.2294 H   0  0  0  0  0  0  0  0  0  0  0  0
  1  2  1  0
  2  3  2  0
  3  4  1  0
  4  5  2  0
  5  6  1  0
  6  7  2  0
  6  8  1  0
  8  9  1  0
  9 10  2  0
 10 11  1  0
 11 12  2  0
 12 13  1  0
 13 14  2  0
 13 15  1  0
 15 16  1  0
 16 17  2  0
 17 18  1  0
 18 19  2  0
 19 20  1  0
 20 21  2  0
 21 22  1  0
 12 23  1  0
 23 24  2  0
  5 25  1  0
 25 26  2  0
 26  2  1  0
 24  9  1  0
 21 16  1  0
  1 27  1  0
  1 28  1  0
  1 29  1  0
  3 30  1  0
  4 31  1  0
 10 32  1  0
 11 33  1  0
 15 34  1  0
 17 35  1  0
 18 36  1  0
 19 37  1  0
 20 38  1  0
 22 39  1  0
 22 40  1  0
 23 41  1  0
 24 42  1  0
 25 43  1  0
 26 44  1  0
M  CHG  1   8  -1
M  END
>  <UniqueID>  (21) 
19

>  <SMILES>  (21) 
Cc1ccc(C(=O)[N-]c2ccc(C(=O)Nc3ccccc3N)cc2)cc1

>  <Energy>  (21) 
60.44293271510837

>  <Genealogy>  (21) 
Cc1ccc(C(=O)[N-]c2ccc(C(=O)Nc3ccccc3N)cc2)cc1 (protonated)
Cc1ccc(C(=O)[N-]c2ccc(C(=O)Nc3ccccc3N)cc2)cc1 (3D coordinates assigned)
Cc1ccc(C(=O)[N-]c2ccc(C(=O)Nc3ccccc3N)cc2)cc1 (optimized conformer: 60.44293271510837 kcal/mol)

>  <smiles>  (21) 
Cc1ccc(C(=O)Nc2ccc(C(=O)Nc3ccccc3N)cc2)cc1

>  <score_type>  (21) 
oracle

>  <origin>  (21) 
adgpu

>  <m_score__min__energy>  (21) 
-9.5500000000000007

>  <m_primary>  (21) 
energy

$$$$
21:0
     RDKit          3D

 59 62  0  0  0  0  0  0  0  0999 V2000
   -5.3290   25.3010  -30.2210 C   0  0  0  0  0  0  0  0  0  0  0  0
   -3.9050   25.3100  -30.2220 O   0  0  0  0  0  0  0  0  0  0  0  0
   -3.1050   24.1610  -30.1280 C   0  0  0  0  0  0  0  0  0  0  0  0
   -3.5070   23.0200  -30.8240 C   0  0  0  0  0  0  0  0  0  0  0  0
   -2.7760   21.8350  -30.7280 C   0  0  0  0  0  0  0  0  0  0  0  0
   -1.6090   21.7810  -29.9520 C   0  0  0  0  0  0  0  0  0  0  0  0
   -0.8530   20.5530  -29.8850 N   0  0  0  0  0  0  0  0  0  0  0  0
   -0.1700   20.0870  -30.9860 C   0  0  0  0  0  0  0  0  0  0  0  0
   -0.1570   20.9750  -32.5550 S   0  0  0  0  0  0  0  0  0  0  0  0
   -1.2100   19.7790  -33.4510 C   0  0  0  0  0  0  0  0  0  0  0  0
   -2.6630   20.1380  -33.3630 C   0  0  0  0  0  0  0  0  0  0  0  0
   -3.0360   21.2570  -33.8050 O   0  0  0  0  0  0  0  0  0  0  0  0
   -3.6200   19.1650  -32.9050 N   0  0  0  0  0  0  0  0  0  0  0  0
   -5.0460   19.3600  -32.8120 C   0  0  0  0  0  0  0  0  0  0  0  0
   -5.8900   18.2570  -32.9930 C   0  0  0  0  0  0  0  0  0  0  0  0
   -7.2730   18.3880  -32.8700 C   0  0  0  0  0  0  0  0  0  0  0  0
   -7.8480   19.6270  -32.5500 C   0  0  0  0  0  0  0  0  0  0  0  0
   -9.3440   19.7320  -32.4060 C   0  0  0  0  0  0  0  0  0  0  0  0
   -7.0080   20.7450  -32.3390 C   0  0  0  0  0  0  0  0  0  0  0  0
   -7.5780   22.0850  -31.9530 C   0  0  0  0  0  0  0  0  0  0  0  0
   -5.6160   20.6010  -32.4730 C   0  0  0  0  0  0  0  0  0  0  0  0
    0.5030   18.9110  -30.9230 N   0  0  0  0  0  0  0  0  0  0  0  0
    0.5490   18.1760  -29.7870 C   0  0  0  0  0  0  0  0  0  0  0  0
    1.2620   16.9720  -29.7590 C   0  0  0  0  0  0  0  0  0  0  0  0
    1.3130   16.2140  -28.5860 C   0  0  0  0  0  0  0  0  0  0  0  0
    0.6490   16.6570  -27.4390 C   0  0  0  0  0  0  0  0  0  0  0  0
   -0.0680   17.8570  -27.4590 C   0  0  0  0  0  0  0  0  0  0  0  0
   -0.1220   18.6270  -28.6360 C   0  0  0  0  0  0  0  0  0  0  0  0
   -0.8330   19.8360  -28.7140 C   0  0  0  0  0  0  0  0  0  0  0  0
   -1.4670   20.2550  -27.7040 O   0  0  0  0  0  0  0  0  0  0  0  0
   -1.1570   22.9390  -29.2910 C   0  0  0  0  0  0  0  0  0  0  0  0
    0.0540   22.8820  -28.5820 O   0  0  0  0  0  0  0  0  0  0  0  0
    0.2060   23.2310  -27.2110 C   0  0  0  0  0  0  0  0  0  0  0  0
   -1.9230   24.1220  -29.3650 C   0  0  0  0  0  0  0  0  0  0  0  0
   -5.6949   25.2987  -29.1837 H   0  0  0  0  0  0  0  0  0  0  0  0
   -5.7017   26.1968  -30.7393 H   0  0  0  0  0  0  0  0  0  0  0  0
   -5.6903   24.4006  -30.7393 H   0  0  0  0  0  0  0  0  0  0  0  0
   -4.4081   23.0550  -31.4539 H   0  0  0  0  0  0  0  0  0  0  0  0
   -3.1174   20.9374  -31.2645 H   0  0  0  0  0  0  0  0  0  0  0  0
   -0.9107   19.7647  -34.5094 H   0  0  0  0  0  0  0  0  0  0  0  0
   -1.0742   18.7908  -32.9872 H   0  0  0  0  0  0  0  0  0  0  0  0
   -3.2600   18.2000  -32.7270 H   0  0  0  0  0  0  0  0  0  0  0  0
   -5.4567   17.2754  -33.2351 H   0  0  0  0  0  0  0  0  0  0  0  0
   -7.9192   17.5115  -33.0254 H   0  0  0  0  0  0  0  0  0  0  0  0
   -9.6092   19.7506  -31.3386 H   0  0  0  0  0  0  0  0  0  0  0  0
   -9.6947   20.6570  -32.8871 H   0  0  0  0  0  0  0  0  0  0  0  0
   -9.8204   18.8651  -32.8871 H   0  0  0  0  0  0  0  0  0  0  0  0
   -7.6127   22.1666  -30.8566 H   0  0  0  0  0  0  0  0  0  0  0  0
   -6.9423   22.8850  -32.3603 H   0  0  0  0  0  0  0  0  0  0  0  0
   -8.5952   22.1818  -32.3603 H   0  0  0  0  0  0  0  0  0  0  0  0
   -4.9629   21.4711  -32.3105 H   0  0  0  0  0  0  0  0  0  0  0  0
    1.7833   16.6216  -30.6621 H   0  0  0  0  0  0  0  0  0  0  0  0
    1.8756   15.2690  -28.5656 H   0  0  0  0  0  0  0  0  0  0  0  0
    0.6906   16.0591  -26.5166 H   0  0  0  0  0  0  0  0  0  0  0  0
   -0.5906   18.1998  -26.5538 H   0  0  0  0  0  0  0  0  0  0  0  0
   -0.1538   22.4048  -26.5802 H   0  0  0  0  0  0  0  0  0  0  0  0
    1.2681   23.4204  -26.9964 H   0  0  0  0  0  0  0  0  0  0  0  0
   -0.3788   24.1377  -26.9964 H   0  0  0  0  0  0  0  0  0  0  0  0
   -1.5937   25.0203  -28.8223 H   0  0  0  0  0  0  0  0  0  0  0  0
  1  2  1  0
  2  3  1  0
  3  4  2  0
  4  5  1  0
  5  6  2  0
  6  7  1  0
  7  8  1  0
  8  9  1  0
  9 10  1  0
 10 11  1  0
 11 12  2  0
 11 13  1  0
 13 14  1  0
 14 15  2  0
 15 16  1  0
 16 17  2  0
 17 18  1  0
 17 19  1  0
 19 20  1  0
 19 21  2  0
  8 22  2  0
 22 23  1  0
 23 24  2  0
 24 25  1  0
 25 26  2  0
 26 27  1  0
 27 28  2  0
 28 29  1  0
 29 30  2  0
  6 31  1  0
 31 32  1  0
 32 33  1  0
 31 34  2  0
 34  3  1  0
 29  7  1  0
 21 14  1  0
 28 23  1  0
  1 35  1  0
  1 36  1  0
  1 37  1  0
  4 38  1  0
  5 39  1  0
 10 40  1  0
 10 41  1  0
 13 42  1  0
 15 43  1  0
 16 44  1  0
 18 45  1  0
 18 46  1  0
 18 47  1  0
 20 48  1  0
 20 49  1  0
 20 50  1  0
 21 51  1  0
 24 52  1  0
 25 53  1  0
 26 54  1  0
 27 55  1  0
 33 56  1  0
 33 57  1  0
 33 58  1  0
 34 59  1  0
M  END
>  <UniqueID>  (22) 
20

>  <SMILES>  (22) 
COc1ccc(-n2c(SCC(=O)Nc3ccc(C)c(C)c3)nc3ccccc3c2=O)c(OC)c1

>  <Energy>  (22) 
72.45843532832744

>  <Genealogy>  (22) 
COc1ccc(-n2c(SCC(=O)Nc3ccc(C)c(C)c3)nc3ccccc3c2=O)c(OC)c1 (3D coordinates assigned)
COc1ccc(-n2c(SCC(=O)Nc3ccc(C)c(C)c3)nc3ccccc3c2=O)c(OC)c1 (optimized conformer: 72.45843532832744 kcal/mol)

>  <smiles>  (22) 
COc1ccc(-n2c(SCC(=O)Nc3ccc(C)c(C)c3)nc3ccccc3c2=O)c(OC)c1

>  <score_type>  (22) 
oracle

>  <origin>  (22) 
adgpu

>  <m_score__min__energy>  (22) 
-9.1500000000000004

>  <m_primary>  (22) 
energy

$$$$
22:0
     RDKit          3D

 49 52  0  0  0  0  0  0  0  0999 V2000
   -4.6379   22.4808  -30.1071 H   0  0  0  0  0  0  0  0  0  0  0  0
   -4.1970   23.1530  -30.8580 C   0  0  0  0  0  0  0  0  0  0  0  0
   -3.9020   24.5530  -30.4840 C   0  0  0  0  0  0  0  0  0  0  0  0
   -4.6830   25.4760  -30.8400 O   0  0  0  0  0  0  0  0  0  0  0  0
   -2.7420   24.8990  -29.7170 N   0  0  0  0  0  0  0  0  0  0  0  0
   -2.2530   24.1810  -28.5430 C   0  0  0  0  0  0  0  0  0  0  0  0
   -1.3925   24.7232  -28.1239 H   0  0  0  0  0  0  0  0  0  0  0  0
   -3.0693   24.1197  -27.8082 H   0  0  0  0  0  0  0  0  0  0  0  0
   -1.8260   22.7820  -28.8970 C   0  0  0  0  0  0  0  0  0  0  0  0
   -2.3430   21.6800  -28.1920 C   0  0  0  0  0  0  0  0  0  0  0  0
   -3.0235   21.8434  -27.3433 H   0  0  0  0  0  0  0  0  0  0  0  0
   -1.9960   20.3780  -28.5650 C   0  0  0  0  0  0  0  0  0  0  0  0
   -2.3909   19.5210  -27.9996 H   0  0  0  0  0  0  0  0  0  0  0  0
   -1.1490   20.1640  -29.6540 C   0  0  0  0  0  0  0  0  0  0  0  0
   -0.8828   19.1387  -29.9505 H   0  0  0  0  0  0  0  0  0  0  0  0
   -0.6390   21.2530  -30.3680 C   0  0  0  0  0  0  0  0  0  0  0  0
    0.0283   21.0835  -31.2259 H   0  0  0  0  0  0  0  0  0  0  0  0
   -0.9760   22.5560  -29.9930 C   0  0  0  0  0  0  0  0  0  0  0  0
   -0.5739   23.4094  -30.5586 H   0  0  0  0  0  0  0  0  0  0  0  0
   -3.9430   22.6810  -32.0830 C   0  0  0  0  0  0  0  0  0  0  0  0
   -3.4840   23.3485  -32.8272 H   0  0  0  0  0  0  0  0  0  0  0  0
   -4.2590   21.2950  -32.4660 C   0  0  0  0  0  0  0  0  0  0  0  0
   -5.4900   20.6800  -32.6730 C   0  0  0  0  0  0  0  0  0  0  0  0
   -6.8410   21.2060  -32.3760 C   0  0  0  0  0  0  0  0  0  0  0  0
   -7.8890   20.3110  -32.0960 C   0  0  0  0  0  0  0  0  0  0  0  0
   -7.7131   19.2269  -32.1567 H   0  0  0  0  0  0  0  0  0  0  0  0
   -9.1530   20.7910  -31.7410 C   0  0  0  0  0  0  0  0  0  0  0  0
   -9.9689   20.0843  -31.5290 H   0  0  0  0  0  0  0  0  0  0  0  0
   -9.3820   22.1660  -31.6550 C   0  0  0  0  0  0  0  0  0  0  0  0
  -10.3763   22.5413  -31.3714 H   0  0  0  0  0  0  0  0  0  0  0  0
   -8.3490   23.0640  -31.9290 C   0  0  0  0  0  0  0  0  0  0  0  0
   -8.5331   24.1469  -31.8712 H   0  0  0  0  0  0  0  0  0  0  0  0
   -7.0800   22.5890  -32.2770 C   0  0  0  0  0  0  0  0  0  0  0  0
   -6.2647   23.3006  -32.4743 H   0  0  0  0  0  0  0  0  0  0  0  0
   -5.2810   19.4240  -33.1140 N   0  0  0  0  0  0  0  0  0  0  0  0
   -3.9730   19.2180  -33.1800 N   0  0  0  0  0  0  0  0  0  0  0  0
   -3.3870   17.9780  -33.6280 C   0  0  0  0  0  0  0  0  0  0  0  0
   -4.0520   17.1900  -34.5850 C   0  0  0  0  0  0  0  0  0  0  0  0
   -5.0183   17.5248  -34.9902 H   0  0  0  0  0  0  0  0  0  0  0  0
   -3.4960   15.9850  -35.0260 C   0  0  0  0  0  0  0  0  0  0  0  0
   -4.0239   15.3791  -35.7771 H   0  0  0  0  0  0  0  0  0  0  0  0
   -2.2730   15.5500  -34.5150 C   0  0  0  0  0  0  0  0  0  0  0  0
   -1.8359   14.6032  -34.8650 H   0  0  0  0  0  0  0  0  0  0  0  0
   -1.6040   16.3170  -33.5590 C   0  0  0  0  0  0  0  0  0  0  0  0
   -0.6412   15.9713  -33.1547 H   0  0  0  0  0  0  0  0  0  0  0  0
   -2.1540   17.5230  -33.1140 C   0  0  0  0  0  0  0  0  0  0  0  0
   -1.6225   18.1206  -32.3588 H   0  0  0  0  0  0  0  0  0  0  0  0
   -3.3230   20.3340  -32.7850 C   0  0  0  0  0  0  0  0  0  0  0  0
   -2.2313   20.4558  -32.7275 H   0  0  0  0  0  0  0  0  0  0  0  0
  1  2  1  0
  2  3  1  0
  3  4  2  0
  3  5  1  0
  5  6  1  0
  6  7  1  0
  6  8  1  0
  6  9  1  0
  9 10  2  0
 10 11  1  0
 10 12  1  0
 12 13  1  0
 12 14  2  0
 14 15  1  0
 14 16  1  0
 16 17  1  0
 16 18  2  0
 18 19  1  0
  2 20  2  0
 20 21  1  0
 20 22  1  0
 22 23  1  0
 23 24  1  0
 24 25  2  0
 25 26  1  0
 25 27  1  0
 27 28  1  0
 27 29  2  0
 29 30  1  0
 29 31  1  0
 31 32  1  0
 31 33  2  0
 33 34  1  0
 23 35  2  0
 35 36  1  0
 36 37  1  0
 37 38  2  0
 38 39  1  0
 38 40  1  0
 40 41  1  0
 40 42  2  0
 42 43  1  0
 42 44  1  0
 44 45  1  0
 44 46  2  0
 46 47  1  0
 36 48  1  0
 48 49  1  0
 18  9  1  0
 48 22  2  0
 33 24  1  0
 46 37  1  0
M  CHG  1   5  -1
M  END
>  <UniqueID>  (23) 
21

>  <SMILES>  (23) 
O=C(/C=C/c1cn(-c2ccccc2)nc1-c1ccccc1)[N-]Cc1ccccc1

>  <Energy>  (23) 
87.67983321851085

>  <Genealogy>  (23) 
O=C(C=Cc1cn(-c2ccccc2)nc1-c1ccccc1)[N-]Cc1ccccc1 (protonated)
O=C(/C=C/c1cn(-c2ccccc2)nc1-c1ccccc1)[N-]Cc1ccccc1 (cis-trans isomerization)
O=C(/C=C/c1cn(-c2ccccc2)nc1-c1ccccc1)[N-]Cc1ccccc1 (3D coordinates assigned)
O=C(/C=C/c1cn(-c2ccccc2)nc1-c1ccccc1)[N-]Cc1ccccc1 (optimized conformer: 87.67983321851085 kcal/mol)

>  <smiles>  (23) 
O=C(C=Cc1cn(-c2ccccc2)nc1-c1ccccc1)NCc1ccccc1

>  <score_type>  (23) 
oracle

>  <origin>  (23) 
adgpu

>  <m_score__min__energy>  (23) 
-10.85

>  <m_primary>  (23) 
energy

$$$$
23:0
     RDKit          3D

 45 47  0  0  0  0  0  0  0  0999 V2000
   -3.1670   24.5060  -27.2240 C   0  0  0  0  0  0  0  0  0  0  0  0
   -2.2970   24.4050  -28.3450 O   0  0  0  0  0  0  0  0  0  0  0  0
   -2.4560   23.4800  -29.3890 C   0  0  0  0  0  0  0  0  0  0  0  0
   -1.8210   22.2230  -29.3830 C   0  0  0  0  0  0  0  0  0  0  0  0
   -2.0080   21.3280  -30.4400 C   0  0  0  0  0  0  0  0  0  0  0  0
   -2.8140   21.6820  -31.5260 C   0  0  0  0  0  0  0  0  0  0  0  0
   -3.0750   20.5450  -32.8470 S   0  0  0  0  0  0  0  0  0  0  0  0
   -2.1320   20.8610  -33.9730 O   0  0  0  0  0  0  0  0  0  0  0  0
   -2.7950   19.1520  -32.3590 O   0  0  0  0  0  0  0  0  0  0  0  0
   -4.6990   20.6750  -33.4490 N   0  0  0  0  0  0  0  0  0  0  0  0
   -5.7400   19.7530  -33.0910 C   0  0  0  0  0  0  0  0  0  0  0  0
   -6.5800   20.0130  -31.9960 C   0  0  0  0  0  0  0  0  0  0  0  0
   -7.5790   19.1050  -31.6410 C   0  0  0  0  0  0  0  0  0  0  0  0
   -7.7410   17.9240  -32.3660 C   0  0  0  0  0  0  0  0  0  0  0  0
   -6.9060   17.6480  -33.4510 C   0  0  0  0  0  0  0  0  0  0  0  0
   -5.8990   18.5590  -33.8230 C   0  0  0  0  0  0  0  0  0  0  0  0
   -5.0560   18.3270  -34.9250 O   0  0  0  0  0  0  0  0  0  0  0  0
   -4.0090   17.3580  -34.9560 C   0  0  0  0  0  0  0  0  0  0  0  0
   -3.4340   22.9400  -31.5460 C   0  0  0  0  0  0  0  0  0  0  0  0
   -3.2820   23.8310  -30.4690 C   0  0  0  0  0  0  0  0  0  0  0  0
   -3.8970   25.1290  -30.4900 N   0  0  0  0  0  0  0  0  0  0  0  0
   -5.3040   25.4030  -30.5260 C   0  0  0  0  0  0  0  0  0  0  0  0
   -5.7150   26.5270  -30.1320 O   0  0  0  0  0  0  0  0  0  0  0  0
   -6.2830   24.3830  -30.9460 C   0  0  0  0  0  0  0  0  0  0  0  0
   -6.9740   23.5300  -30.1050 C   0  0  0  0  0  0  0  0  0  0  0  0
   -7.7680   22.7600  -30.9300 C   0  0  0  0  0  0  0  0  0  0  0  0
   -7.5120   23.1860  -32.2180 C   0  0  0  0  0  0  0  0  0  0  0  0
   -6.6210   24.1490  -32.1950 O   0  0  0  0  0  0  0  0  0  0  0  0
   -2.5795   24.4378  -26.2966 H   0  0  0  0  0  0  0  0  0  0  0  0
   -3.6936   25.4713  -27.2543 H   0  0  0  0  0  0  0  0  0  0  0  0
   -3.9007   23.6870  -27.2543 H   0  0  0  0  0  0  0  0  0  0  0  0
   -1.1726   21.9434  -28.5396 H   0  0  0  0  0  0  0  0  0  0  0  0
   -1.5198   20.3426  -30.4174 H   0  0  0  0  0  0  0  0  0  0  0  0
   -4.9680   21.5960  -33.8600 H   0  0  0  0  0  0  0  0  0  0  0  0
   -6.4499   20.9377  -31.4146 H   0  0  0  0  0  0  0  0  0  0  0  0
   -8.2396   19.3209  -30.7883 H   0  0  0  0  0  0  0  0  0  0  0  0
   -8.5276   17.2092  -32.0826 H   0  0  0  0  0  0  0  0  0  0  0  0
   -7.0357   16.7142  -34.0177 H   0  0  0  0  0  0  0  0  0  0  0  0
   -3.7234   17.0937  -33.9271 H   0  0  0  0  0  0  0  0  0  0  0  0
   -4.3583   16.4575  -35.4824 H   0  0  0  0  0  0  0  0  0  0  0  0
   -3.1382   17.7758  -35.4824 H   0  0  0  0  0  0  0  0  0  0  0  0
   -4.0451   23.2323  -32.4127 H   0  0  0  0  0  0  0  0  0  0  0  0
   -6.9051   23.4765  -29.0085 H   0  0  0  0  0  0  0  0  0  0  0  0
   -8.4649   21.9662  -30.6231 H   0  0  0  0  0  0  0  0  0  0  0  0
   -7.9832   22.7800  -33.1253 H   0  0  0  0  0  0  0  0  0  0  0  0
  1  2  1  0
  2  3  1  0
  3  4  2  0
  4  5  1  0
  5  6  2  0
  6  7  1  0
  7  8  2  0
  7  9  2  0
  7 10  1  0
 10 11  1  0
 11 12  2  0
 12 13  1  0
 13 14  2  0
 14 15  1  0
 15 16  2  0
 16 17  1  0
 17 18  1  0
  6 19  1  0
 19 20  2  0
 20 21  1  0
 21 22  1  0
 22 23  2  0
 22 24  1  0
 24 25  2  0
 25 26  1  0
 26 27  2  0
 27 28  1  0
 20  3  1  0
 28 24  1  0
 16 11  1  0
  1 29  1  0
  1 30  1  0
  1 31  1  0
  4 32  1  0
  5 33  1  0
 10 34  1  0
 12 35  1  0
 13 36  1  0
 14 37  1  0
 15 38  1  0
 18 39  1  0
 18 40  1  0
 18 41  1  0
 19 42  1  0
 25 43  1  0
 26 44  1  0
 27 45  1  0
M  CHG  1  21  -1
M  END
>  <UniqueID>  (24) 
22

>  <SMILES>  (24) 
COc1ccc(S(=O)(=O)Nc2ccccc2OC)cc1[N-]C(=O)c1ccco1

>  <Energy>  (24) 
78.88557583778667

>  <Genealogy>  (24) 
COc1ccc(S(=O)(=O)Nc2ccccc2OC)cc1[N-]C(=O)c1ccco1 (protonated)
COc1ccc(S(=O)(=O)Nc2ccccc2OC)cc1[N-]C(=O)c1ccco1 (3D coordinates assigned)
COc1ccc(S(=O)(=O)Nc2ccccc2OC)cc1[N-]C(=O)c1ccco1 (optimized conformer: 78.88557583778667 kcal/mol)

>  <smiles>  (24) 
COc1ccc(S(=O)(=O)Nc2ccccc2OC)cc1NC(=O)c1ccco1

>  <score_type>  (24) 
oracle

>  <origin>  (24) 
adgpu

>  <m_score__min__energy>  (24) 
-9.8100000000000005

>  <m_primary>  (24) 
energy

$$$$
24:0
     RDKit          3D

 50 54  0  0  0  0  0  0  0  0999 V2000
   -1.6240   25.6330  -28.9950 O   0  0  0  0  0  0  0  0  0  0  0  0
   -2.4560   24.7360  -29.2880 C   0  0  0  0  0  0  0  0  0  0  0  0
   -3.4650   25.0200  -30.2640 N   0  0  0  0  0  0  0  0  0  0  0  0
   -4.6520   24.2480  -30.4940 C   0  0  0  0  0  0  0  0  0  0  0  0
   -5.8060   24.9020  -30.9410 C   0  0  0  0  0  0  0  0  0  0  0  0
   -6.9850   24.1830  -31.1620 C   0  0  0  0  0  0  0  0  0  0  0  0
   -7.0180   22.8000  -30.9450 C   0  0  0  0  0  0  0  0  0  0  0  0
   -8.5120   21.9130  -31.2200 S   0  0  0  0  0  0  0  0  0  0  0  0
   -9.3670   21.9070  -29.9840 O   0  0  0  0  0  0  0  0  0  0  0  0
   -9.2740   22.5720  -32.3350 O   0  0  0  0  0  0  0  0  0  0  0  0
   -8.1360   20.2790  -31.6540 N   0  0  0  0  0  0  0  0  0  0  0  0
   -8.9620   19.1210  -31.3210 C   0  0  0  0  0  0  0  0  0  0  0  0
   -8.2800   17.9080  -32.0000 C   0  0  0  0  0  0  0  0  0  0  0  0
   -7.1120   18.5160  -32.7020 C   0  0  0  0  0  0  0  0  0  0  0  0
   -6.1550   17.8800  -33.4950 C   0  0  0  0  0  0  0  0  0  0  0  0
   -5.1370   18.6590  -34.0690 C   0  0  0  0  0  0  0  0  0  0  0  0
   -5.0930   20.0480  -33.8420 C   0  0  0  0  0  0  0  0  0  0  0  0
   -6.0680   20.6660  -33.0410 C   0  0  0  0  0  0  0  0  0  0  0  0
   -7.0680   19.8650  -32.4830 C   0  0  0  0  0  0  0  0  0  0  0  0
   -5.8580   22.1380  -30.5200 C   0  0  0  0  0  0  0  0  0  0  0  0
   -4.6780   22.8540  -30.3060 C   0  0  0  0  0  0  0  0  0  0  0  0
   -2.3750   23.4360  -28.5920 C   0  0  0  0  0  0  0  0  0  0  0  0
   -3.0030   23.1850  -27.4230 N   0  0  0  0  0  0  0  0  0  0  0  0
   -2.7640   21.9420  -27.1090 O   0  0  0  0  0  0  0  0  0  0  0  0
   -2.0160   21.3690  -28.0220 C   0  0  0  0  0  0  0  0  0  0  0  0
   -1.7430   22.2780  -29.0110 C   0  0  0  0  0  0  0  0  0  0  0  0
   -0.9340   21.9650  -30.2370 C   0  0  0  0  0  0  0  0  0  0  0  0
   -0.8520   20.4390  -30.4460 C   0  0  0  0  0  0  0  0  0  0  0  0
   -0.5110   19.7060  -29.1290 C   0  0  0  0  0  0  0  0  0  0  0  0
   -1.5910   19.9330  -28.0520 C   0  0  0  0  0  0  0  0  0  0  0  0
   -5.7854   25.9872  -31.1194 H   0  0  0  0  0  0  0  0  0  0  0  0
   -7.8893   24.7055  -31.5074 H   0  0  0  0  0  0  0  0  0  0  0  0
   -9.0003   18.9784  -30.2310 H   0  0  0  0  0  0  0  0  0  0  0  0
   -9.9982   19.2494  -31.6672 H   0  0  0  0  0  0  0  0  0  0  0  0
   -7.9501   17.1722  -31.2518 H   0  0  0  0  0  0  0  0  0  0  0  0
   -8.9520   17.3618  -32.6784 H   0  0  0  0  0  0  0  0  0  0  0  0
   -6.1973   16.7942  -33.6662 H   0  0  0  0  0  0  0  0  0  0  0  0
   -4.3711   18.1822  -34.6983 H   0  0  0  0  0  0  0  0  0  0  0  0
   -4.2920   20.6517  -34.2936 H   0  0  0  0  0  0  0  0  0  0  0  0
   -6.0448   21.7505  -32.8582 H   0  0  0  0  0  0  0  0  0  0  0  0
   -5.8770   21.0507  -30.3544 H   0  0  0  0  0  0  0  0  0  0  0  0
   -3.7662   22.3263  -29.9895 H   0  0  0  0  0  0  0  0  0  0  0  0
   -1.4104   22.4268  -31.1144 H   0  0  0  0  0  0  0  0  0  0  0  0
    0.0826   22.3647  -30.1078 H   0  0  0  0  0  0  0  0  0  0  0  0
   -1.8220   20.0761  -30.8166 H   0  0  0  0  0  0  0  0  0  0  0  0
   -0.0534   20.2321  -31.1736 H   0  0  0  0  0  0  0  0  0  0  0  0
   -0.4313   18.6278  -29.3318 H   0  0  0  0  0  0  0  0  0  0  0  0
    0.4402   20.1080  -28.7499 H   0  0  0  0  0  0  0  0  0  0  0  0
   -2.4639   19.3028  -28.2777 H   0  0  0  0  0  0  0  0  0  0  0  0
   -1.1721   19.6678  -27.0701 H   0  0  0  0  0  0  0  0  0  0  0  0
  1  2  2  0
  2  3  1  0
  3  4  1  0
  4  5  2  0
  5  6  1  0
  6  7  2  0
  7  8  1  0
  8  9  2  0
  8 10  2  0
  8 11  1  0
 11 12  1  0
 12 13  1  0
 13 14  1  0
 14 15  2  0
 15 16  1  0
 16 17  2  0
 17 18  1  0
 18 19  2  0
  7 20  1  0
 20 21  2  0
  2 22  1  0
 22 23  2  0
 23 24  1  0
 24 25  1  0
 25 26  2  0
 26 27  1  0
 27 28  1  0
 28 29  1  0
 29 30  1  0
 21  4  1  0
 26 22  1  0
 19 11  1  0
 30 25  1  0
 19 14  1  0
  5 31  1  0
  6 32  1  0
 12 33  1  0
 12 34  1  0
 13 35  1  0
 13 36  1  0
 15 37  1  0
 16 38  1  0
 17 39  1  0
 18 40  1  0
 20 41  1  0
 21 42  1  0
 27 43  1  0
 27 44  1  0
 28 45  1  0
 28 46  1  0
 29 47  1  0
 29 48  1  0
 30 49  1  0
 30 50  1  0
M  CHG  1   3  -1
M  END
>  <UniqueID>  (25) 
23

>  <SMILES>  (25) 
O=C([N-]c1ccc(S(=O)(=O)N2CCc3ccccc32)cc1)c1noc2c1CCCC2

>  <Energy>  (25) 
107.18839909400882

>  <Genealogy>  (25) 
O=C([N-]c1ccc(S(=O)(=O)N2CCc3ccccc32)cc1)c1noc2c1CCCC2 (protonated)
O=C([N-]c1ccc(S(=O)(=O)N2CCc3ccccc32)cc1)c1noc2c1CCCC2 (3D coordinates assigned)
O=C([N-]c1ccc(S(=O)(=O)N2CCc3ccccc32)cc1)c1noc2c1CCCC2 (nonaromatic ring conformer: 107.18839909400882 kcal/mol)

>  <smiles>  (25) 
O=C(Nc1ccc(S(=O)(=O)N2CCc3ccccc32)cc1)c1noc2c1CCCC2

>  <score_type>  (25) 
oracle

>  <origin>  (25) 
adgpu

>  <m_score__min__energy>  (25) 
-12.130000000000001

>  <m_primary>  (25) 
energy

$$$$
25:0
     RDKit          3D

 39 41  0  0  0  0  0  0  0  0999 V2000
   -1.2380   23.5890  -28.4390 C   0  0  0  0  0  0  0  0  0  0  0  0
   -2.3910   24.0140  -29.2900 C   0  0  0  0  0  0  0  0  0  0  0  0
   -2.8500   25.2840  -29.3370 N   0  0  0  0  0  0  0  0  0  0  0  0
   -3.8600   25.3190  -30.1910 N   0  0  0  0  0  0  0  0  0  0  0  0
   -4.0500   24.0900  -30.6950 C   0  0  0  0  0  0  0  0  0  0  0  0
   -4.9250   23.8150  -31.5560 O   0  0  0  0  0  0  0  0  0  0  0  0
   -3.1360   23.2090  -30.1460 C   0  0  0  0  0  0  0  0  0  0  0  0
   -2.9630   21.7680  -30.4340 C   0  0  0  0  0  0  0  0  0  0  0  0
   -3.4710   20.9110  -29.6630 O   0  0  0  0  0  0  0  0  0  0  0  0
   -2.2200   21.3110  -31.6240 C   0  0  0  0  0  0  0  0  0  0  0  0
   -0.8860   20.8960  -31.4770 C   0  0  0  0  0  0  0  0  0  0  0  0
   -0.1590   20.4440  -32.5800 C   0  0  0  0  0  0  0  0  0  0  0  0
   -0.7540   20.4040  -33.8410 C   0  0  0  0  0  0  0  0  0  0  0  0
   -2.0810   20.8100  -34.0010 C   0  0  0  0  0  0  0  0  0  0  0  0
   -2.8280   21.2580  -32.8990 C   0  0  0  0  0  0  0  0  0  0  0  0
   -4.1980   21.6600  -33.0780 N   0  0  0  0  0  0  0  0  0  0  0  0
   -5.3160   20.7670  -32.9280 C   0  0  0  0  0  0  0  0  0  0  0  0
   -5.1800   19.4230  -33.3000 C   0  0  0  0  0  0  0  0  0  0  0  0
   -6.2620   18.5460  -33.1940 C   0  0  0  0  0  0  0  0  0  0  0  0
   -7.4920   19.0030  -32.7160 C   0  0  0  0  0  0  0  0  0  0  0  0
   -7.6490   20.3450  -32.3290 C   0  0  0  0  0  0  0  0  0  0  0  0
   -8.9930   20.8570  -31.8730 C   0  0  0  0  0  0  0  0  0  0  0  0
   -9.1080   22.2150  -32.1150 F   0  0  0  0  0  0  0  0  0  0  0  0
  -10.0140   20.2090  -32.5460 F   0  0  0  0  0  0  0  0  0  0  0  0
   -9.1310   20.6270  -30.5160 F   0  0  0  0  0  0  0  0  0  0  0  0
   -6.5630   21.2280  -32.4650 C   0  0  0  0  0  0  0  0  0  0  0  0
   -1.5092   23.6890  -27.3776 H   0  0  0  0  0  0  0  0  0  0  0  0
   -0.9888   22.5399  -28.6565 H   0  0  0  0  0  0  0  0  0  0  0  0
   -0.3675   24.2254  -28.6565 H   0  0  0  0  0  0  0  0  0  0  0  0
   -4.4030   26.1790  -30.4290 H   0  0  0  0  0  0  0  0  0  0  0  0
   -0.4106   20.9274  -30.4855 H   0  0  0  0  0  0  0  0  0  0  0  0
    0.8844   20.1190  -32.4544 H   0  0  0  0  0  0  0  0  0  0  0  0
   -0.1780   20.0526  -34.7098 H   0  0  0  0  0  0  0  0  0  0  0  0
   -2.5447   20.7786  -34.9980 H   0  0  0  0  0  0  0  0  0  0  0  0
   -4.3920   22.6460  -33.3620 H   0  0  0  0  0  0  0  0  0  0  0  0
   -4.2144   19.0560  -33.6781 H   0  0  0  0  0  0  0  0  0  0  0  0
   -6.1449   17.4925  -33.4879 H   0  0  0  0  0  0  0  0  0  0  0  0
   -8.3423   18.3091  -32.6420 H   0  0  0  0  0  0  0  0  0  0  0  0
   -6.6892   22.2898  -32.2070 H   0  0  0  0  0  0  0  0  0  0  0  0
  1  2  1  0
  2  3  1  0
  3  4  1  0
  4  5  1  0
  5  6  2  0
  5  7  1  0
  7  8  1  0
  8  9  2  0
  8 10  1  0
 10 11  2  0
 11 12  1  0
 12 13  2  0
 13 14  1  0
 14 15  2  0
 15 16  1  0
 16 17  1  0
 17 18  2  0
 18 19  1  0
 19 20  2  0
 20 21  1  0
 21 22  1  0
 22 23  1  0
 22 24  1  0
 22 25  1  0
 21 26  2  0
  7  2  2  0
 15 10  1  0
 26 17  1  0
  1 27  1  0
  1 28  1  0
  1 29  1  0
  4 30  1  0
 11 31  1  0
 12 32  1  0
 13 33  1  0
 14 34  1  0
 16 35  1  0
 18 36  1  0
 19 37  1  0
 20 38  1  0
 26 39  1  0
M  CHG  1   3  -1
M  END
>  <UniqueID>  (26) 
24

>  <SMILES>  (26) 
Cc1[n-][nH]c(=O)c1C(=O)c1ccccc1Nc1cccc(C(F)(F)F)c1

>  <Energy>  (26) 
86.41112936996873

>  <Genealogy>  (26) 
Cc1[n-][nH]c(=O)c1C(=O)c1ccccc1Nc1cccc(C(F)(F)F)c1 (protonated)
Cc1[n-][nH]c(=O)c1C(=O)c1ccccc1Nc1cccc(C(F)(F)F)c1 (3D coordinates assigned)
Cc1[n-][nH]c(=O)c1C(=O)c1ccccc1Nc1cccc(C(F)(F)F)c1 (optimized conformer: 86.41112936996873 kcal/mol)

>  <smiles>  (26) 
Cc1[nH][nH]c(=O)c1C(=O)c1ccccc1Nc1cccc(C(F)(F)F)c1

>  <score_type>  (26) 
oracle

>  <origin>  (26) 
adgpu

>  <m_score__min__energy>  (26) 
-9.9000000000000004

>  <m_primary>  (26) 
energy

$$$$
26:0
     RDKit          3D

 48 51  0  0  0  0  0  0  0  0999 V2000
    0.6260   19.6130  -36.2480 C   0  0  0  0  0  0  0  0  0  0  0  0
    0.2980   19.9380  -34.8220 C   0  0  0  0  0  0  0  0  0  0  0  0
    0.5710   19.0210  -33.8010 C   0  0  0  0  0  0  0  0  0  0  0  0
    0.3020   19.3510  -32.4710 C   0  0  0  0  0  0  0  0  0  0  0  0
   -0.2250   20.6200  -32.1580 C   0  0  0  0  0  0  0  0  0  0  0  0
   -0.4860   21.0190  -30.7890 N   0  0  0  0  0  0  0  0  0  0  0  0
   -0.5550   20.0250  -29.7100 C   0  0  0  0  0  0  0  0  0  0  0  0
   -1.8870   20.1770  -28.9770 C   0  0  0  0  0  0  0  0  0  0  0  0
   -2.1570   21.5700  -28.5510 N   0  0  0  0  0  0  0  0  0  0  0  0
   -3.5840   21.9680  -28.6050 C   0  0  0  0  0  0  0  0  0  0  0  0
   -3.8580   23.1700  -29.4800 C   0  0  0  0  0  0  0  0  0  0  0  0
   -3.6410   24.4850  -29.1220 C   0  0  0  0  0  0  0  0  0  0  0  0
   -3.8670   25.2830  -30.1810 N   0  0  0  0  0  0  0  0  0  0  0  0
   -4.2250   24.5290  -31.2090 N   0  0  0  0  0  0  0  0  0  0  0  0
   -4.2380   23.2410  -30.8140 C   0  0  0  0  0  0  0  0  0  0  0  0
   -4.5870   22.1370  -31.7220 C   0  0  0  0  0  0  0  0  0  0  0  0
   -5.9270   21.7970  -31.9650 C   0  0  0  0  0  0  0  0  0  0  0  0
   -6.2400   20.7430  -32.8290 C   0  0  0  0  0  0  0  0  0  0  0  0
   -5.2190   20.0340  -33.4680 C   0  0  0  0  0  0  0  0  0  0  0  0
   -3.8800   20.3850  -33.2540 C   0  0  0  0  0  0  0  0  0  0  0  0
   -2.8540   19.6950  -33.8970 O   0  0  0  0  0  0  0  0  0  0  0  0
   -3.5670   21.4380  -32.3890 C   0  0  0  0  0  0  0  0  0  0  0  0
   -1.1760   22.5940  -28.9760 C   0  0  0  0  0  0  0  0  0  0  0  0
   -0.7500   22.4270  -30.4470 C   0  0  0  0  0  0  0  0  0  0  0  0
   -0.4660   21.4940  -33.1770 N   0  0  0  0  0  0  0  0  0  0  0  0
   -0.2200   21.1920  -34.4780 C   0  0  0  0  0  0  0  0  0  0  0  0
    1.4071   18.8390  -36.2773 H   0  0  0  0  0  0  0  0  0  0  0  0
   -0.2764   19.2427  -36.7566 H   0  0  0  0  0  0  0  0  0  0  0  0
    0.9880   20.5187  -36.7566 H   0  0  0  0  0  0  0  0  0  0  0  0
    0.9986   18.0377  -34.0466 H   0  0  0  0  0  0  0  0  0  0  0  0
    0.5007   18.6231  -31.6706 H   0  0  0  0  0  0  0  0  0  0  0  0
   -0.4817   19.0133  -30.1355 H   0  0  0  0  0  0  0  0  0  0  0  0
    0.2760   20.1822  -29.0066 H   0  0  0  0  0  0  0  0  0  0  0  0
   -2.6957   19.8527  -29.6484 H   0  0  0  0  0  0  0  0  0  0  0  0
   -1.8353   19.5590  -28.0685 H   0  0  0  0  0  0  0  0  0  0  0  0
   -4.1649   21.1185  -28.9936 H   0  0  0  0  0  0  0  0  0  0  0  0
   -3.8734   22.2487  -27.5816 H   0  0  0  0  0  0  0  0  0  0  0  0
   -3.3308   24.8279  -28.1239 H   0  0  0  0  0  0  0  0  0  0  0  0
   -6.7335   22.3615  -31.4742 H   0  0  0  0  0  0  0  0  0  0  0  0
   -7.2912   20.4715  -33.0060 H   0  0  0  0  0  0  0  0  0  0  0  0
   -5.4673   19.1992  -34.1399 H   0  0  0  0  0  0  0  0  0  0  0  0
   -1.8800   19.9160  -33.7270 H   0  0  0  0  0  0  0  0  0  0  0  0
   -2.5160   21.7208  -32.2298 H   0  0  0  0  0  0  0  0  0  0  0  0
   -1.6276   23.5891  -28.8502 H   0  0  0  0  0  0  0  0  0  0  0  0
   -0.2778   22.4762  -28.3521 H   0  0  0  0  0  0  0  0  0  0  0  0
   -1.5548   22.8048  -31.0948 H   0  0  0  0  0  0  0  0  0  0  0  0
    0.1810   22.9932  -30.5973 H   0  0  0  0  0  0  0  0  0  0  0  0
   -0.4282   21.9341  -35.2628 H   0  0  0  0  0  0  0  0  0  0  0  0
  1  2  1  0
  2  3  2  0
  3  4  1  0
  4  5  2  0
  5  6  1  0
  6  7  1  0
  7  8  1  0
  8  9  1  0
  9 10  1  0
 10 11  1  0
 11 12  1  0
 12 13  2  0
 13 14  1  0
 14 15  1  0
 15 16  1  0
 16 17  2  0
 17 18  1  0
 18 19  2  0
 19 20  1  0
 20 21  1  0
 20 22  2  0
  9 23  1  0
 23 24  1  0
  5 25  1  0
 25 26  2  0
 26  2  1  0
 24  6  1  0
 15 11  2  0
 22 16  1  0
  1 27  1  0
  1 28  1  0
  1 29  1  0
  3 30  1  0
  4 31  1  0
  7 32  1  0
  7 33  1  0
  8 34  1  0
  8 35  1  0
 10 36  1  0
 10 37  1  0
 12 38  1  0
 17 39  1  0
 18 40  1  0
 19 41  1  0
 21 42  1  0
 22 43  1  0
 23 44  1  0
 23 45  1  0
 24 46  1  0
 24 47  1  0
 26 48  1  0
M  CHG  1  14  -1
M  END
>  <UniqueID>  (27) 
25

>  <SMILES>  (27) 
Cc1ccc(N2CCN(Cc3cn[n-]c3-c3cccc(O)c3)CC2)nc1

>  <Energy>  (27) 
95.54653204164372

>  <Genealogy>  (27) 
Cc1ccc(N2CCN(Cc3cn[n-]c3-c3cccc(O)c3)CC2)nc1 (protonated)
Cc1ccc(N2CCN(Cc3cn[n-]c3-c3cccc(O)c3)CC2)nc1 (3D coordinates assigned)
Cc1ccc(N2CCN(Cc3cn[n-]c3-c3cccc(O)c3)CC2)nc1 (nonaromatic ring conformer: 95.54653204164372 kcal/mol)

>  <smiles>  (27) 
Cc1ccc(N2CCN(Cc3cn[nH]c3-c3cccc(O)c3)CC2)nc1

>  <score_type>  (27) 
oracle

>  <origin>  (27) 
adgpu

>  <m_score__min__energy>  (27) 
-10.210000000000001

>  <m_primary>  (27) 
energy

$$$$
27:0
     RDKit          3D

 59 62  0  0  0  0  0  0  0  0999 V2000
   -6.1120   25.9550  -29.3710 C   0  0  0  0  0  0  0  0  0  0  0  0
   -5.9120   24.7000  -30.1720 C   0  0  0  0  0  0  0  0  0  0  0  0
   -7.0160   23.9330  -30.5610 C   0  0  0  0  0  0  0  0  0  0  0  0
   -6.8430   22.8150  -31.3100 N   0  0  0  0  0  0  0  0  0  0  0  0
   -5.6030   22.4080  -31.6960 C   0  0  0  0  0  0  0  0  0  0  0  0
   -5.4460   21.2240  -32.5020 N   0  0  0  0  0  0  0  0  0  0  0  0
   -6.5800   20.3130  -32.7140 C   0  0  0  0  0  0  0  0  0  0  0  0
   -6.4620   19.6240  -34.0770 C   0  0  0  0  0  0  0  0  0  0  0  0
   -5.1280   18.8320  -34.2540 C   0  0  0  0  0  0  0  0  0  0  0  0
   -5.3300   17.3760  -34.0080 N   0  0  0  0  0  0  0  0  0  0  0  0
   -5.4930   17.0590  -32.5810 C   0  0  0  0  0  0  0  0  0  0  0  0
   -5.0540   15.6240  -32.4020 C   0  0  0  0  0  0  0  0  0  0  0  0
   -3.9710   15.4380  -33.4380 C   0  0  0  0  0  0  0  0  0  0  0  0
   -4.1910   16.5510  -34.4580 C   0  0  0  0  0  0  0  0  0  0  0  0
   -4.0100   19.3970  -33.3330 C   0  0  0  0  0  0  0  0  0  0  0  0
   -4.1400   20.9050  -33.0970 C   0  0  0  0  0  0  0  0  0  0  0  0
   -4.5140   23.1270  -31.3100 N   0  0  0  0  0  0  0  0  0  0  0  0
   -4.6320   24.2440  -30.5460 C   0  0  0  0  0  0  0  0  0  0  0  0
   -3.4680   24.9290  -30.1740 O   0  0  0  0  0  0  0  0  0  0  0  0
   -2.6170   24.5350  -29.1320 C   0  0  0  0  0  0  0  0  0  0  0  0
   -3.1060   24.5510  -27.8250 C   0  0  0  0  0  0  0  0  0  0  0  0
   -2.2920   24.1700  -26.7550 C   0  0  0  0  0  0  0  0  0  0  0  0
   -0.9540   23.7690  -26.9660 C   0  0  0  0  0  0  0  0  0  0  0  0
   -0.1030   23.3740  -25.8530 N   0  0  0  0  0  0  0  0  0  0  0  0
    1.1610   24.0750  -25.5880 C   0  0  0  0  0  0  0  0  0  0  0  0
   -0.4910   22.2640  -24.9700 C   0  0  0  0  0  0  0  0  0  0  0  0
   -0.4680   23.7680  -28.2930 C   0  0  0  0  0  0  0  0  0  0  0  0
   -1.2870   24.1490  -29.3600 C   0  0  0  0  0  0  0  0  0  0  0  0
   -6.0738   25.7152  -28.2981 H   0  0  0  0  0  0  0  0  0  0  0  0
   -5.3174   26.6757  -29.6142 H   0  0  0  0  0  0  0  0  0  0  0  0
   -7.0913   26.3930  -29.6142 H   0  0  0  0  0  0  0  0  0  0  0  0
   -8.0286   24.2379  -30.2582 H   0  0  0  0  0  0  0  0  0  0  0  0
   -6.5857   19.5503  -31.9213 H   0  0  0  0  0  0  0  0  0  0  0  0
   -7.5143   20.8929  -32.6863 H   0  0  0  0  0  0  0  0  0  0  0  0
   -7.3021   18.9226  -34.1878 H   0  0  0  0  0  0  0  0  0  0  0  0
   -6.4774   20.4126  -34.8437 H   0  0  0  0  0  0  0  0  0  0  0  0
   -4.8035   18.9594  -35.2973 H   0  0  0  0  0  0  0  0  0  0  0  0
   -4.8666   17.7260  -31.9705 H   0  0  0  0  0  0  0  0  0  0  0  0
   -6.5367   17.1962  -32.2619 H   0  0  0  0  0  0  0  0  0  0  0  0
   -4.6576   15.4604  -31.3890 H   0  0  0  0  0  0  0  0  0  0  0  0
   -5.8824   14.9107  -32.5246 H   0  0  0  0  0  0  0  0  0  0  0  0
   -2.9768   15.5300  -32.9763 H   0  0  0  0  0  0  0  0  0  0  0  0
   -4.0162   14.4421  -33.9029 H   0  0  0  0  0  0  0  0  0  0  0  0
   -3.2868   17.1733  -34.5299 H   0  0  0  0  0  0  0  0  0  0  0  0
   -4.4034   16.1205  -35.4477 H   0  0  0  0  0  0  0  0  0  0  0  0
   -4.0622   18.8836  -32.3616 H   0  0  0  0  0  0  0  0  0  0  0  0
   -3.0474   19.2226  -33.8359 H   0  0  0  0  0  0  0  0  0  0  0  0
   -3.3419   21.2346  -32.4155 H   0  0  0  0  0  0  0  0  0  0  0  0
   -4.0535   21.4243  -34.0629 H   0  0  0  0  0  0  0  0  0  0  0  0
   -4.1425   24.8667  -27.6352 H   0  0  0  0  0  0  0  0  0  0  0  0
   -2.6992   24.1825  -25.7332 H   0  0  0  0  0  0  0  0  0  0  0  0
    1.3128   24.1592  -24.5018 H   0  0  0  0  0  0  0  0  0  0  0  0
    1.9938   23.5098  -26.0319 H   0  0  0  0  0  0  0  0  0  0  0  0
    1.1226   25.0807  -26.0319 H   0  0  0  0  0  0  0  0  0  0  0  0
   -0.3823   22.5751  -23.9205 H   0  0  0  0  0  0  0  0  0  0  0  0
   -1.5383   21.9896  -25.1645 H   0  0  0  0  0  0  0  0  0  0  0  0
    0.1573   21.3969  -25.1645 H   0  0  0  0  0  0  0  0  0  0  0  0
    0.5704   23.4628  -28.4893 H   0  0  0  0  0  0  0  0  0  0  0  0
   -0.8866   24.1462  -30.3845 H   0  0  0  0  0  0  0  0  0  0  0  0
  1  2  1  0
  2  3  2  0
  3  4  1  0
  4  5  2  0
  5  6  1  0
  6  7  1  0
  7  8  1  0
  8  9  1  0
  9 10  1  0
 10 11  1  0
 11 12  1  0
 12 13  1  0
 13 14  1  0
  9 15  1  0
 15 16  1  0
  5 17  1  0
 17 18  2  0
 18 19  1  0
 19 20  1  0
 20 21  2  0
 21 22  1  0
 22 23  2  0
 23 24  1  0
 24 25  1  0
 24 26  1  0
 23 27  1  0
 27 28  2  0
 18  2  1  0
 28 20  1  0
 16  6  1  0
 14 10  1  0
  1 29  1  0
  1 30  1  0
  1 31  1  0
  3 32  1  0
  7 33  1  0
  7 34  1  0
  8 35  1  0
  8 36  1  0
  9 37  1  0
 11 38  1  0
 11 39  1  0
 12 40  1  0
 12 41  1  0
 13 42  1  0
 13 43  1  0
 14 44  1  0
 14 45  1  0
 15 46  1  0
 15 47  1  0
 16 48  1  0
 16 49  1  0
 21 50  1  0
 22 51  1  0
 25 52  1  0
 25 53  1  0
 25 54  1  0
 26 55  1  0
 26 56  1  0
 26 57  1  0
 27 58  1  0
 28 59  1  0
M  END
>  <UniqueID>  (28) 
26

>  <SMILES>  (28) 
Cc1cnc(N2CCC(N3CCCC3)CC2)nc1Oc1ccc(N(C)C)cc1

>  <Energy>  (28) 
79.45397134214954

>  <Genealogy>  (28) 
Cc1cnc(N2CCC(N3CCCC3)CC2)nc1Oc1ccc(N(C)C)cc1 (3D coordinates assigned)
Cc1cnc(N2CCC(N3CCCC3)CC2)nc1Oc1ccc(N(C)C)cc1 (nonaromatic ring conformer: 79.45397134214954 kcal/mol)

>  <smiles>  (28) 
Cc1cnc(N2CCC(N3CCCC3)CC2)nc1Oc1ccc(N(C)C)cc1

>  <score_type>  (28) 
oracle

>  <origin>  (28) 
adgpu

>  <m_score__min__energy>  (28) 
-9

>  <m_primary>  (28) 
energy

$$$$
28:0
     RDKit          3D

 47 49  0  0  0  0  0  0  0  0999 V2000
   -7.4830   22.8490  -32.3270 C   0  0  0  0  0  0  0  0  0  0  0  0
   -6.3240   23.3810  -31.5290 C   0  0  0  0  0  0  0  0  0  0  0  0
   -6.4970   24.5650  -30.7910 C   0  0  0  0  0  0  0  0  0  0  0  0
   -5.4510   25.0980  -30.0400 C   0  0  0  0  0  0  0  0  0  0  0  0
   -4.2060   24.4520  -29.9990 C   0  0  0  0  0  0  0  0  0  0  0  0
   -3.1010   25.0010  -29.2600 N   0  0  0  0  0  0  0  0  0  0  0  0
   -2.7270   24.5700  -27.9420 C   0  0  0  0  0  0  0  0  0  0  0  0
   -3.0790   23.4290  -27.5330 O   0  0  0  0  0  0  0  0  0  0  0  0
   -1.8720   25.4190  -27.0790 C   0  0  0  0  0  0  0  0  0  0  0  0
   -1.9770   25.3180  -25.6790 C   0  0  0  0  0  0  0  0  0  0  0  0
   -1.1770   26.1100  -24.8500 C   0  0  0  0  0  0  0  0  0  0  0  0
   -0.2720   27.0160  -25.4050 C   0  0  0  0  0  0  0  0  0  0  0  0
   -0.1690   27.1360  -26.7930 C   0  0  0  0  0  0  0  0  0  0  0  0
   -0.9640   26.3480  -27.6310 C   0  0  0  0  0  0  0  0  0  0  0  0
   -0.8740   26.5290  -28.9730 F   0  0  0  0  0  0  0  0  0  0  0  0
   -4.0230   23.2760  -30.7380 C   0  0  0  0  0  0  0  0  0  0  0  0
   -5.0750   22.7130  -31.4800 C   0  0  0  0  0  0  0  0  0  0  0  0
   -4.7800   21.2040  -32.3630 S   0  0  0  0  0  0  0  0  0  0  0  0
   -4.0280   21.4930  -33.6310 O   0  0  0  0  0  0  0  0  0  0  0  0
   -3.9560   20.2990  -31.4910 O   0  0  0  0  0  0  0  0  0  0  0  0
   -6.3030   20.4290  -32.7580 N   0  0  0  0  0  0  0  0  0  0  0  0
   -6.2100   19.6180  -34.0000 C   0  0  0  0  0  0  0  0  0  0  0  0
   -6.4420   18.1110  -33.7870 C   0  0  0  0  0  0  0  0  0  0  0  0
   -5.7070   17.6210  -32.5410 C   0  0  0  0  0  0  0  0  0  0  0  0
   -6.1200   18.4050  -31.2820 C   0  0  0  0  0  0  0  0  0  0  0  0
   -6.8710   19.7110  -31.6010 C   0  0  0  0  0  0  0  0  0  0  0  0
   -8.2655   22.4898  -31.6423 H   0  0  0  0  0  0  0  0  0  0  0  0
   -7.8902   23.6503  -32.9611 H   0  0  0  0  0  0  0  0  0  0  0  0
   -7.1408   22.0178  -32.9611 H   0  0  0  0  0  0  0  0  0  0  0  0
   -7.4703   25.0772  -30.8065 H   0  0  0  0  0  0  0  0  0  0  0  0
   -5.6022   26.0303  -29.4762 H   0  0  0  0  0  0  0  0  0  0  0  0
   -2.4660   25.6710  -29.7520 H   0  0  0  0  0  0  0  0  0  0  0  0
   -2.6931   24.6113  -25.2343 H   0  0  0  0  0  0  0  0  0  0  0  0
   -1.2611   26.0188  -23.7570 H   0  0  0  0  0  0  0  0  0  0  0  0
    0.3593   27.6348  -24.7504 H   0  0  0  0  0  0  0  0  0  0  0  0
    0.5412   27.8541  -27.2289 H   0  0  0  0  0  0  0  0  0  0  0  0
   -3.0387   22.7849  -30.7374 H   0  0  0  0  0  0  0  0  0  0  0  0
   -6.9648   19.9865  -34.7102 H   0  0  0  0  0  0  0  0  0  0  0  0
   -5.1821   19.7302  -34.3752 H   0  0  0  0  0  0  0  0  0  0  0  0
   -7.5195   17.9252  -33.6667 H   0  0  0  0  0  0  0  0  0  0  0  0
   -6.0555   17.5672  -34.6616 H   0  0  0  0  0  0  0  0  0  0  0  0
   -5.9379   16.5564  -32.3881 H   0  0  0  0  0  0  0  0  0  0  0  0
   -4.6295   17.7757  -32.6993 H   0  0  0  0  0  0  0  0  0  0  0  0
   -6.7740   17.7658  -30.6707 H   0  0  0  0  0  0  0  0  0  0  0  0
   -5.1972   18.6796  -30.7501 H   0  0  0  0  0  0  0  0  0  0  0  0
   -7.9214   19.4681  -31.8192 H   0  0  0  0  0  0  0  0  0  0  0  0
   -6.7780   20.3691  -30.7245 H   0  0  0  0  0  0  0  0  0  0  0  0
  1  2  1  0
  2  3  2  0
  3  4  1  0
  4  5  2  0
  5  6  1  0
  6  7  1  0
  7  8  2  0
  7  9  1  0
  9 10  2  0
 10 11  1  0
 11 12  2  0
 12 13  1  0
 13 14  2  0
 14 15  1  0
  5 16  1  0
 16 17  2  0
 17 18  1  0
 18 19  2  0
 18 20  2  0
 18 21  1  0
 21 22  1  0
 22 23  1  0
 23 24  1  0
 24 25  1  0
 25 26  1  0
 17  2  1  0
 26 21  1  0
 14  9  1  0
  1 27  1  0
  1 28  1  0
  1 29  1  0
  3 30  1  0
  4 31  1  0
  6 32  1  0
 10 33  1  0
 11 34  1  0
 12 35  1  0
 13 36  1  0
 16 37  1  0
 22 38  1  0
 22 39  1  0
 23 40  1  0
 23 41  1  0
 24 42  1  0
 24 43  1  0
 25 44  1  0
 25 45  1  0
 26 46  1  0
 26 47  1  0
M  END
>  <UniqueID>  (29) 
27

>  <SMILES>  (29) 
Cc1ccc(NC(=O)c2ccccc2F)cc1S(=O)(=O)N1CCCCC1

>  <Energy>  (29) 
63.915166496284606

>  <Genealogy>  (29) 
Cc1ccc(NC(=O)c2ccccc2F)cc1S(=O)(=O)N1CCCCC1 (3D coordinates assigned)
Cc1ccc(NC(=O)c2ccccc2F)cc1S(=O)(=O)N1CCCCC1 (nonaromatic ring conformer: 63.915166496284606 kcal/mol)

>  <smiles>  (29) 
Cc1ccc(NC(=O)c2ccccc2F)cc1S(=O)(=O)N1CCCCC1

>  <score_type>  (29) 
oracle

>  <origin>  (29) 
adgpu

>  <m_score__min__energy>  (29) 
-9.5099999999999998

>  <m_primary>  (29) 
energy

$$$$
29:0
     RDKit          3D

 35 37  0  0  1  0  0  0  0  0999 V2000
   -3.4780   18.4060  -25.3140 N   0  0  0  0  0  0  0  0  0  0  0  0
   -2.7160   18.8030  -26.2840 C   0  0  0  0  0  0  0  0  0  0  0  0
   -3.0270   19.9510  -26.9330 N   0  0  0  0  0  0  0  0  0  0  0  0
   -2.2950   20.4380  -27.9500 C   0  0  0  0  0  0  0  0  0  0  0  0
   -2.6120   21.6680  -28.6580 C   0  0  0  0  0  0  0  0  0  0  0  0
   -2.9120   21.7110  -30.0080 C   0  0  0  0  0  0  0  0  0  0  0  0
   -3.2140   22.8980  -30.6650 C   0  0  0  0  0  0  0  0  0  0  0  0
   -3.2280   24.1000  -29.9940 C   0  0  0  0  0  0  0  0  0  0  0  0
   -3.5200   25.2990  -30.6020 O   0  0  0  0  0  0  0  0  0  0  0  0
   -2.9320   24.0760  -28.6500 C   0  0  0  0  0  0  0  0  0  0  0  0
   -2.6300   22.8800  -27.9930 C   0  0  0  0  0  0  0  0  0  0  0  0
   -1.1800   19.6880  -28.3070 C   0  0  0  0  0  0  0  0  0  0  0  0
   -0.8740   18.5070  -27.6270 C   0  0  0  0  0  0  0  0  0  0  0  0
    0.1530   17.7910  -27.9340 N   0  0  0  0  0  0  0  0  0  0  0  0
    0.9860   18.2310  -29.0000 C   0  0  0  0  0  0  0  0  0  0  0  0
    0.6460   18.1100  -30.3270 C   0  0  0  0  0  0  0  0  0  0  0  0
    1.5160   18.5650  -31.3070 C   0  0  0  0  0  0  0  0  0  0  0  0
    2.7430   19.1510  -30.9750 C   0  0  0  0  0  0  0  0  0  0  0  0
    3.5950   19.5990  -31.9440 F   0  0  0  0  0  0  0  0  0  0  0  0
    3.0780   19.2700  -29.6370 C   0  0  0  0  0  0  0  0  0  0  0  0
    2.2120   18.8170  -28.6640 C   0  0  0  0  0  0  0  0  0  0  0  0
   -1.6410   18.0660  -26.6160 N   0  0  0  0  0  0  0  0  0  0  0  0
   -3.2530   17.5250  -24.8030 H   0  0  0  0  0  0  0  0  0  0  0  0
   -3.8700   20.4460  -26.6060 H   0  0  0  0  0  0  0  0  0  0  0  0
   -2.9115   20.7724  -30.5817 H   0  0  0  0  0  0  0  0  0  0  0  0
   -3.4459   22.8766  -31.7401 H   0  0  0  0  0  0  0  0  0  0  0  0
   -3.3420   25.4410  -31.5910 H   0  0  0  0  0  0  0  0  0  0  0  0
   -2.9332   25.0176  -28.0813 H   0  0  0  0  0  0  0  0  0  0  0  0
   -2.4004   22.9036  -26.9175 H   0  0  0  0  0  0  0  0  0  0  0  0
   -0.5345   20.0271  -29.1306 H   0  0  0  0  0  0  0  0  0  0  0  0
   -0.3137   17.6534  -30.6107 H   0  0  0  0  0  0  0  0  0  0  0  0
    1.2361   18.4633  -32.3659 H   0  0  0  0  0  0  0  0  0  0  0  0
    4.0365   19.7267  -29.3495 H   0  0  0  0  0  0  0  0  0  0  0  0
    2.4898   18.9180  -27.6045 H   0  0  0  0  0  0  0  0  0  0  0  0
   -1.4240   17.1840  -26.0990 H   0  0  0  0  0  0  0  0  0  0  0  0
  1  2  2  3
  2  3  1  0
  3  4  1  0
  4  5  1  0
  5  6  2  0
  6  7  1  0
  7  8  2  0
  8  9  1  0
  8 10  1  0
 10 11  2  0
  4 12  2  0
 12 13  1  0
 13 14  2  0
 14 15  1  0
 15 16  2  0
 16 17  1  0
 17 18  2  0
 18 19  1  0
 18 20  1  0
 20 21  2  0
 13 22  1  0
 22  2  1  0
 11  5  1  0
 21 15  1  0
  1 23  1  0
  3 24  1  0
  6 25  1  0
  7 26  1  0
  9 27  1  0
 10 28  1  0
 11 29  1  0
 12 30  1  0
 16 31  1  0
 17 32  1  0
 20 33  1  0
 21 34  1  0
 22 35  1  0
M  END
>  <smiles>  (30) 
N=c1[nH]c(-c2ccc(O)cc2)cc(=Nc2ccc(F)cc2)[nH]1

>  <score_type>  (30) 
oracle

>  <origin>  (30) 
adgpu

>  <m_score__min__energy>  (30) 
-7.75

>  <m_primary>  (30) 
energy

$$$$
30:0
     RDKit          3D

 40 41  0  0  0  0  0  0  0  0999 V2000
   -4.0980   21.7570  -33.1090 C   0  0  0  0  0  0  0  0  0  0  0  0
   -3.4910   20.4170  -32.0360 S   0  0  0  0  0  0  0  0  0  0  0  0
   -3.9770   19.1120  -33.1790 C   0  0  0  0  0  0  0  0  0  0  0  0
   -2.9970   18.5960  -34.0380 C   0  0  0  0  0  0  0  0  0  0  0  0
   -3.3200   17.6110  -34.9720 C   0  0  0  0  0  0  0  0  0  0  0  0
   -4.6280   17.1360  -35.0620 C   0  0  0  0  0  0  0  0  0  0  0  0
   -5.6180   17.6470  -34.2210 C   0  0  0  0  0  0  0  0  0  0  0  0
   -5.3120   18.6410  -33.2720 C   0  0  0  0  0  0  0  0  0  0  0  0
   -6.3990   19.1620  -32.4070 C   0  0  0  0  0  0  0  0  0  0  0  0
   -6.1630   19.4530  -31.2040 O   0  0  0  0  0  0  0  0  0  0  0  0
   -7.7270   19.3220  -32.9300 N   0  0  0  0  0  0  0  0  0  0  0  0
   -8.8610   19.6990  -32.0880 C   0  0  0  0  0  0  0  0  0  0  0  0
   -9.2460   21.1600  -32.3330 C   0  0  0  0  0  0  0  0  0  0  0  0
   -8.2330   22.0860  -31.7160 C   0  0  0  0  0  0  0  0  0  0  0  0
   -8.1240   22.1870  -30.3190 C   0  0  0  0  0  0  0  0  0  0  0  0
   -7.2060   23.0720  -29.7460 C   0  0  0  0  0  0  0  0  0  0  0  0
   -6.3900   23.8680  -30.5610 C   0  0  0  0  0  0  0  0  0  0  0  0
   -5.2460   24.9940  -29.8370 S   0  0  0  0  0  0  0  0  0  0  0  0
   -3.8320   25.0940  -30.8250 N   0  0  0  0  0  0  0  0  0  0  0  0
   -5.8760   26.3530  -29.7200 O   0  0  0  0  0  0  0  0  0  0  0  0
   -4.8630   24.5190  -28.4640 O   0  0  0  0  0  0  0  0  0  0  0  0
   -6.5130   23.7850  -31.9550 C   0  0  0  0  0  0  0  0  0  0  0  0
   -7.4310   22.9010  -32.5300 C   0  0  0  0  0  0  0  0  0  0  0  0
   -4.4724   22.5835  -32.4872 H   0  0  0  0  0  0  0  0  0  0  0  0
   -3.2760   22.1191  -33.7440 H   0  0  0  0  0  0  0  0  0  0  0  0
   -4.9123   21.3779  -33.7440 H   0  0  0  0  0  0  0  0  0  0  0  0
   -1.9647   18.9707  -33.9753 H   0  0  0  0  0  0  0  0  0  0  0  0
   -2.5422   17.2088  -35.6379 H   0  0  0  0  0  0  0  0  0  0  0  0
   -4.8800   16.3573  -35.7969 H   0  0  0  0  0  0  0  0  0  0  0  0
   -6.6480   17.2691  -34.3005 H   0  0  0  0  0  0  0  0  0  0  0  0
   -7.8860   19.2430  -33.9600 H   0  0  0  0  0  0  0  0  0  0  0  0
   -9.7193   19.0534  -32.3258 H   0  0  0  0  0  0  0  0  0  0  0  0
   -8.5771   19.5774  -31.0323 H   0  0  0  0  0  0  0  0  0  0  0  0
   -9.2919   21.3448  -33.4164 H   0  0  0  0  0  0  0  0  0  0  0  0
  -10.2266   21.3500  -31.8723 H   0  0  0  0  0  0  0  0  0  0  0  0
   -8.7636   21.5672  -29.6734 H   0  0  0  0  0  0  0  0  0  0  0  0
   -7.1239   23.1438  -28.6514 H   0  0  0  0  0  0  0  0  0  0  0  0
   -3.7870   26.0700  -31.1950 H   0  0  0  0  0  0  0  0  0  0  0  0
   -5.8848   24.4179  -32.5990 H   0  0  0  0  0  0  0  0  0  0  0  0
   -7.5251   22.8440  -33.6245 H   0  0  0  0  0  0  0  0  0  0  0  0
  1  2  1  0
  2  3  1  0
  3  4  2  0
  4  5  1  0
  5  6  2  0
  6  7  1  0
  7  8  2  0
  8  9  1  0
  9 10  2  0
  9 11  1  0
 11 12  1  0
 12 13  1  0
 13 14  1  0
 14 15  2  0
 15 16  1  0
 16 17  2  0
 17 18  1  0
 18 19  1  0
 18 20  2  0
 18 21  2  0
 17 22  1  0
 22 23  2  0
  8  3  1  0
 23 14  1  0
  1 24  1  0
  1 25  1  0
  1 26  1  0
  4 27  1  0
  5 28  1  0
  6 29  1  0
  7 30  1  0
 11 31  1  0
 12 32  1  0
 12 33  1  0
 13 34  1  0
 13 35  1  0
 15 36  1  0
 16 37  1  0
 19 38  1  0
 22 39  1  0
 23 40  1  0
M  CHG  1  19  -1
M  END
>  <UniqueID>  (31) 
28

>  <SMILES>  (31) 
CSc1ccccc1C(=O)NCCc1ccc(S([NH-])(=O)=O)cc1

>  <Energy>  (31) 
36.434930265649655

>  <Genealogy>  (31) 
CSc1ccccc1C(=O)NCCc1ccc(S([NH-])(=O)=O)cc1 (protonated)
CSc1ccccc1C(=O)NCCc1ccc(S([NH-])(=O)=O)cc1 (3D coordinates assigned)
CSc1ccccc1C(=O)NCCc1ccc(S([NH-])(=O)=O)cc1 (optimized conformer: 36.434930265649655 kcal/mol)

>  <smiles>  (31) 
CSc1ccccc1C(=O)NCCc1ccc(S(N)(=O)=O)cc1

>  <score_type>  (31) 
oracle

>  <origin>  (31) 
adgpu

>  <m_score__min__energy>  (31) 
-10.9

>  <m_primary>  (31) 
energy

$$$$
31:0
     RDKit          3D

 52 55  0  0  0  0  0  0  0  0999 V2000
   -3.1240   14.9750  -34.8900 O   0  0  0  0  0  0  0  0  0  0  0  0
   -4.0130   15.0910  -34.0170 N   0  0  0  0  0  0  0  0  0  0  0  0
   -4.2350   14.0320  -33.1630 O   0  0  0  0  0  0  0  0  0  0  0  0
   -4.7260   16.3400  -33.8750 C   0  0  0  0  0  0  0  0  0  0  0  0
   -6.1180   16.3210  -33.6530 C   0  0  0  0  0  0  0  0  0  0  0  0
   -6.8450   17.5070  -33.5360 C   0  0  0  0  0  0  0  0  0  0  0  0
   -6.2020   18.7440  -33.6230 C   0  0  0  0  0  0  0  0  0  0  0  0
   -6.9650   19.9570  -33.4940 N   0  0  0  0  0  0  0  0  0  0  0  0
   -6.5400   21.0830  -32.7100 C   0  0  0  0  0  0  0  0  0  0  0  0
   -7.4870   21.8280  -31.9910 C   0  0  0  0  0  0  0  0  0  0  0  0
   -7.0980   22.9670  -31.2800 C   0  0  0  0  0  0  0  0  0  0  0  0
   -5.7530   23.3620  -31.2690 C   0  0  0  0  0  0  0  0  0  0  0  0
   -5.2550   24.8430  -30.4560 S   0  0  0  0  0  0  0  0  0  0  0  0
   -5.7400   26.0510  -31.2020 O   0  0  0  0  0  0  0  0  0  0  0  0
   -5.8440   24.8580  -29.0770 O   0  0  0  0  0  0  0  0  0  0  0  0
   -3.5230   24.8930  -30.3400 N   0  0  0  0  0  0  0  0  0  0  0  0
   -2.8080   24.0450  -29.6550 C   0  0  0  0  0  0  0  0  0  0  0  0
   -1.4580   24.0970  -29.6130 N   0  0  0  0  0  0  0  0  0  0  0  0
   -0.9220   23.0940  -28.8640 C   0  0  0  0  0  0  0  0  0  0  0  0
   -1.8560   22.2370  -28.2830 C   0  0  0  0  0  0  0  0  0  0  0  0
   -3.3960   22.7500  -28.7460 S   0  0  0  0  0  0  0  0  0  0  0  0
   -4.7970   22.5880  -31.9410 C   0  0  0  0  0  0  0  0  0  0  0  0
   -5.1850   21.4490  -32.6480 C   0  0  0  0  0  0  0  0  0  0  0  0
   -4.8230   18.7780  -33.8720 C   0  0  0  0  0  0  0  0  0  0  0  0
   -4.0760   17.5960  -33.9870 C   0  0  0  0  0  0  0  0  0  0  0  0
   -2.6510   17.6980  -34.1410 N   0  0  0  0  0  0  0  0  0  0  0  0
   -1.9000   18.8480  -33.7110 C   0  0  0  0  0  0  0  0  0  0  0  0
   -1.9740   19.3010  -32.3830 C   0  0  0  0  0  0  0  0  0  0  0  0
   -1.2270   20.4070  -31.9770 C   0  0  0  0  0  0  0  0  0  0  0  0
   -0.4120   21.0800  -32.8930 C   0  0  0  0  0  0  0  0  0  0  0  0
   -0.3330   20.6500  -34.2280 C   0  0  0  0  0  0  0  0  0  0  0  0
    0.5420   21.3650  -35.2380 C   0  0  0  0  0  0  0  0  0  0  0  0
    1.8650   21.3970  -34.8350 F   0  0  0  0  0  0  0  0  0  0  0  0
    0.0940   22.6690  -35.3910 F   0  0  0  0  0  0  0  0  0  0  0  0
    0.4760   20.7170  -36.4600 F   0  0  0  0  0  0  0  0  0  0  0  0
   -1.0850   19.5370  -34.6290 C   0  0  0  0  0  0  0  0  0  0  0  0
   -6.6397   15.3561  -33.5706 H   0  0  0  0  0  0  0  0  0  0  0  0
   -7.9323   17.4671  -33.3741 H   0  0  0  0  0  0  0  0  0  0  0  0
   -7.8410   20.0500  -34.0510 H   0  0  0  0  0  0  0  0  0  0  0  0
   -8.5412   21.5141  -31.9868 H   0  0  0  0  0  0  0  0  0  0  0  0
   -7.8477   23.5536  -30.7288 H   0  0  0  0  0  0  0  0  0  0  0  0
   -0.8850   24.8250  -30.0920 H   0  0  0  0  0  0  0  0  0  0  0  0
    0.1625   22.9696  -28.7280 H   0  0  0  0  0  0  0  0  0  0  0  0
   -1.6289   21.3769  -27.6360 H   0  0  0  0  0  0  0  0  0  0  0  0
   -3.7367   22.8795  -31.9110 H   0  0  0  0  0  0  0  0  0  0  0  0
   -4.4276   20.8359  -33.1583 H   0  0  0  0  0  0  0  0  0  0  0  0
   -4.3174   19.7490  -33.9792 H   0  0  0  0  0  0  0  0  0  0  0  0
   -2.1310   16.8350  -34.4200 H   0  0  0  0  0  0  0  0  0  0  0  0
   -2.6226   18.7823  -31.6617 H   0  0  0  0  0  0  0  0  0  0  0  0
   -1.2791   20.7508  -30.9334 H   0  0  0  0  0  0  0  0  0  0  0  0
    0.1717   21.9529  -32.5655 H   0  0  0  0  0  0  0  0  0  0  0  0
   -1.0376   19.1977  -35.6743 H   0  0  0  0  0  0  0  0  0  0  0  0
  1  2  2  0
  2  3  1  0
  2  4  1  0
  4  5  2  0
  5  6  1  0
  6  7  2  0
  7  8  1  0
  8  9  1  0
  9 10  2  0
 10 11  1  0
 11 12  2  0
 12 13  1  0
 13 14  2  0
 13 15  2  0
 13 16  1  0
 16 17  2  3
 17 18  1  0
 18 19  1  0
 19 20  2  0
 20 21  1  0
 12 22  1  0
 22 23  2  0
  7 24  1  0
 24 25  2  0
 25 26  1  0
 26 27  1  0
 27 28  2  0
 28 29  1  0
 29 30  2  0
 30 31  1  0
 31 32  1  0
 32 33  1  0
 32 34  1  0
 32 35  1  0
 31 36  2  0
 25  4  1  0
 36 27  1  0
 23  9  1  0
 21 17  1  0
  5 37  1  0
  6 38  1  0
  8 39  1  0
 10 40  1  0
 11 41  1  0
 18 42  1  0
 19 43  1  0
 20 44  1  0
 22 45  1  0
 23 46  1  0
 24 47  1  0
 26 48  1  0
 28 49  1  0
 29 50  1  0
 30 51  1  0
 36 52  1  0
M  CHG  2   2   1   3  -1
M  END
>  <UniqueID>  (32) 
29

>  <SMILES>  (32) 
O=[N+]([O-])c1ccc(Nc2ccc(S(=O)(=O)N=c3[nH]ccs3)cc2)cc1Nc1cccc(C(F)(F)F)c1

>  <Energy>  (32) 
103.64101867971736

>  <Genealogy>  (32) 
O=[N+]([O-])c1ccc(Nc2ccc(S(=O)(=O)N=c3[nH]ccs3)cc2)cc1Nc1cccc(C(F)(F)F)c1 (3D coordinates assigned)
O=[N+]([O-])c1ccc(Nc2ccc(S(=O)(=O)N=c3[nH]ccs3)cc2)cc1Nc1cccc(C(F)(F)F)c1 (optimized conformer: 103.64101867971736 kcal/mol)

>  <smiles>  (32) 
O=[N+]([O-])c1ccc(Nc2ccc(S(=O)(=O)N=c3[nH]ccs3)cc2)cc1Nc1cccc(C(F)(F)F)c1

>  <score_type>  (32) 
oracle

>  <origin>  (32) 
adgpu

>  <m_score__min__energy>  (32) 
-9.9000000000000004

>  <m_primary>  (32) 
energy

$$$$
32:0
     RDKit          3D

 41 43  0  0  0  0  0  0  0  0999 V2000
   -0.1330   22.7160  -24.1050 N   0  0  0  0  0  0  0  0  0  0  0  0
    0.4700   23.7080  -24.9460 C   0  0  0  0  0  0  0  0  0  0  0  0
    0.5380   25.0360  -24.4990 C   0  0  0  0  0  0  0  0  0  0  0  0
    1.0910   26.0270  -25.3110 C   0  0  0  0  0  0  0  0  0  0  0  0
    1.5740   25.7010  -26.5770 C   0  0  0  0  0  0  0  0  0  0  0  0
    1.5100   24.3840  -27.0390 C   0  0  0  0  0  0  0  0  0  0  0  0
    0.9630   23.3730  -26.2290 C   0  0  0  0  0  0  0  0  0  0  0  0
    0.8810   22.0120  -26.6780 N   0  0  0  0  0  0  0  0  0  0  0  0
   -0.5390   21.2460  -27.3170 S   0  0  0  0  0  0  0  0  0  0  0  0
   -1.3400   20.6600  -26.1870 O   0  0  0  0  0  0  0  0  0  0  0  0
   -0.1240   20.1320  -28.2330 O   0  0  0  0  0  0  0  0  0  0  0  0
   -1.5000   22.4070  -28.2310 C   0  0  0  0  0  0  0  0  0  0  0  0
   -1.8560   23.6290  -27.6470 C   0  0  0  0  0  0  0  0  0  0  0  0
   -2.5900   24.5680  -28.3770 C   0  0  0  0  0  0  0  0  0  0  0  0
   -2.9720   24.3010  -29.6970 C   0  0  0  0  0  0  0  0  0  0  0  0
   -3.7340   25.2850  -30.4140 N   0  0  0  0  0  0  0  0  0  0  0  0
   -5.1630   25.3120  -30.5550 C   0  0  0  0  0  0  0  0  0  0  0  0
   -5.7580   26.4210  -30.4920 O   0  0  0  0  0  0  0  0  0  0  0  0
   -5.9490   24.0870  -30.8200 C   0  0  0  0  0  0  0  0  0  0  0  0
   -5.8020   23.4040  -32.0400 C   0  0  0  0  0  0  0  0  0  0  0  0
   -6.5600   22.2610  -32.3030 C   0  0  0  0  0  0  0  0  0  0  0  0
   -7.4610   21.7810  -31.3480 C   0  0  0  0  0  0  0  0  0  0  0  0
   -7.6000   22.4460  -30.1250 C   0  0  0  0  0  0  0  0  0  0  0  0
   -6.8470   23.5910  -29.8580 C   0  0  0  0  0  0  0  0  0  0  0  0
   -2.6460   23.0570  -30.2670 C   0  0  0  0  0  0  0  0  0  0  0  0
   -1.9000   22.1220  -29.5440 C   0  0  0  0  0  0  0  0  0  0  0  0
   -0.1230   22.8050  -23.0650 H   0  0  0  0  0  0  0  0  0  0  0  0
   -0.5300   21.8410  -24.5150 H   0  0  0  0  0  0  0  0  0  0  0  0
    0.1531   25.2977  -23.5023 H   0  0  0  0  0  0  0  0  0  0  0  0
    1.1457   27.0653  -24.9519 H   0  0  0  0  0  0  0  0  0  0  0  0
    2.0078   26.4845  -27.2157 H   0  0  0  0  0  0  0  0  0  0  0  0
    1.8894   24.1367  -28.0414 H   0  0  0  0  0  0  0  0  0  0  0  0
   -1.5574   23.8503  -26.6117 H   0  0  0  0  0  0  0  0  0  0  0  0
   -2.8697   25.5242  -27.9107 H   0  0  0  0  0  0  0  0  0  0  0  0
   -5.0868   23.7715  -32.7906 H   0  0  0  0  0  0  0  0  0  0  0  0
   -6.4478   21.7372  -33.2638 H   0  0  0  0  0  0  0  0  0  0  0  0
   -8.0595   20.8822  -31.5577 H   0  0  0  0  0  0  0  0  0  0  0  0
   -8.3050   22.0655  -29.3712 H   0  0  0  0  0  0  0  0  0  0  0  0
   -6.9564   24.1066  -28.8925 H   0  0  0  0  0  0  0  0  0  0  0  0
   -2.9801   22.8187  -31.2876 H   0  0  0  0  0  0  0  0  0  0  0  0
   -1.6265   21.1617  -30.0056 H   0  0  0  0  0  0  0  0  0  0  0  0
  1  2  1  0
  2  3  2  0
  3  4  1  0
  4  5  2  0
  5  6  1  0
  6  7  2  0
  7  8  1  0
  8  9  1  0
  9 10  2  0
  9 11  2  0
  9 12  1  0
 12 13  2  0
 13 14  1  0
 14 15  2  0
 15 16  1  0
 16 17  1  0
 17 18  2  0
 17 19  1  0
 19 20  2  0
 20 21  1  0
 21 22  2  0
 22 23  1  0
 23 24  2  0
 15 25  1  0
 25 26  2  0
  7  2  1  0
 26 12  1  0
 24 19  1  0
  1 27  1  0
  1 28  1  0
  3 29  1  0
  4 30  1  0
  5 31  1  0
  6 32  1  0
 13 33  1  0
 14 34  1  0
 20 35  1  0
 21 36  1  0
 22 37  1  0
 23 38  1  0
 24 39  1  0
 25 40  1  0
 26 41  1  0
M  CHG  2   8  -1  16  -1
M  END
>  <UniqueID>  (33) 
30

>  <SMILES>  (33) 
Nc1ccccc1[N-]S(=O)(=O)c1ccc([N-]C(=O)c2ccccc2)cc1

>  <Energy>  (33) 
54.39780362970562

>  <Genealogy>  (33) 
Nc1ccccc1[N-]S(=O)(=O)c1ccc([N-]C(=O)c2ccccc2)cc1 (protonated)
Nc1ccccc1[N-]S(=O)(=O)c1ccc([N-]C(=O)c2ccccc2)cc1 (3D coordinates assigned)
Nc1ccccc1[N-]S(=O)(=O)c1ccc([N-]C(=O)c2ccccc2)cc1 (optimized conformer: 54.39780362970562 kcal/mol)

>  <smiles>  (33) 
Nc1ccccc1NS(=O)(=O)c1ccc(NC(=O)c2ccccc2)cc1

>  <score_type>  (33) 
oracle

>  <origin>  (33) 
adgpu

>  <m_score__min__energy>  (33) 
-10.73

>  <m_primary>  (33) 
energy

$$$$
33:0
     RDKit          3D

 71 75  0  0  0  0  0  0  0  0999 V2000
    2.0340   20.6970  -34.9090 O   0  0  0  0  0  0  0  0  0  0  0  0
    1.7940   19.4820  -34.0560 S   0  0  0  0  0  0  0  0  0  0  0  0
    2.3900   18.2780  -34.7300 O   0  0  0  0  0  0  0  0  0  0  0  0
    2.5460   19.7110  -32.5080 N   0  0  0  0  0  0  0  0  0  0  0  0
    2.6560   18.6770  -31.5230 C   0  0  0  0  0  0  0  0  0  0  0  0
    3.4660   18.8270  -30.3840 C   0  0  0  0  0  0  0  0  0  0  0  0
    3.4490   17.8610  -29.3760 C   0  0  0  0  0  0  0  0  0  0  0  0
    2.6440   16.7200  -29.5040 C   0  0  0  0  0  0  0  0  0  0  0  0
    2.5100   15.7480  -28.3630 C   0  0  0  0  0  0  0  0  0  0  0  0
    1.0390   15.5590  -27.9860 C   0  0  0  0  0  0  0  0  0  0  0  0
    0.5990   16.6440  -27.0940 N   0  0  0  0  0  0  0  0  0  0  0  0
    0.4410   17.9370  -27.7820 C   0  0  0  0  0  0  0  0  0  0  0  0
   -0.6880   18.8100  -27.1870 C   0  0  2  0  0  0  0  0  0  0  0  0
   -1.6840   17.9890  -26.6370 O   0  0  0  0  0  0  0  0  0  0  0  0
   -1.2950   19.6860  -28.2630 C   0  0  0  0  0  0  0  0  0  0  0  0
   -2.4810   20.3950  -28.0150 C   0  0  0  0  0  0  0  0  0  0  0  0
   -3.0560   21.1820  -29.0160 C   0  0  0  0  0  0  0  0  0  0  0  0
   -2.4440   21.2780  -30.2700 C   0  0  0  0  0  0  0  0  0  0  0  0
   -1.2600   20.5830  -30.5240 C   0  0  0  0  0  0  0  0  0  0  0  0
   -0.6840   19.7910  -29.5260 C   0  0  0  0  0  0  0  0  0  0  0  0
    1.8780   16.5460  -30.6680 C   0  0  0  0  0  0  0  0  0  0  0  0
    1.8930   17.5160  -31.6740 C   0  0  0  0  0  0  0  0  0  0  0  0
    0.0660   19.2070  -33.8290 C   0  0  0  0  0  0  0  0  0  0  0  0
   -0.4400   17.9080  -33.7010 C   0  0  0  0  0  0  0  0  0  0  0  0
   -1.8200   17.6900  -33.6710 C   0  0  0  0  0  0  0  0  0  0  0  0
   -2.7160   18.7730  -33.7610 C   0  0  0  0  0  0  0  0  0  0  0  0
   -4.1390   18.5610  -33.7730 N   0  0  0  0  0  0  0  0  0  0  0  0
   -4.9900   18.6410  -32.7300 C   0  0  0  0  0  0  0  0  0  0  0  0
   -6.2400   18.3620  -33.1360 N   0  0  0  0  0  0  0  0  0  0  0  0
   -7.4490   18.2880  -32.3250 C   0  0  0  0  0  0  0  0  0  0  0  0
   -7.9840   19.6700  -32.0680 C   0  0  0  0  0  0  0  0  0  0  0  0
   -7.1190   20.7110  -31.6900 C   0  0  0  0  0  0  0  0  0  0  0  0
   -7.6260   21.9920  -31.4500 C   0  0  0  0  0  0  0  0  0  0  0  0
   -8.9910   22.2470  -31.5980 C   0  0  0  0  0  0  0  0  0  0  0  0
   -9.8560   21.2190  -31.9880 C   0  0  0  0  0  0  0  0  0  0  0  0
   -9.3560   19.9350  -32.2230 C   0  0  0  0  0  0  0  0  0  0  0  0
   -6.1140   18.0960  -34.4490 C   0  0  0  0  0  0  0  0  0  0  0  0
   -4.8310   18.2090  -34.8470 N   0  0  0  0  0  0  0  0  0  0  0  0
   -2.1980   20.0750  -33.8500 C   0  0  0  0  0  0  0  0  0  0  0  0
   -0.8180   20.2900  -33.8860 C   0  0  0  0  0  0  0  0  0  0  0  0
    4.1159   19.7091  -30.2864 H   0  0  0  0  0  0  0  0  0  0  0  0
    4.0696   17.9956  -28.4778 H   0  0  0  0  0  0  0  0  0  0  0  0
    2.9338   14.7782  -28.6627 H   0  0  0  0  0  0  0  0  0  0  0  0
    3.0507   16.1469  -27.4921 H   0  0  0  0  0  0  0  0  0  0  0  0
    0.4258   15.5683  -28.8992 H   0  0  0  0  0  0  0  0  0  0  0  0
    0.9229   14.5971  -27.4652 H   0  0  0  0  0  0  0  0  0  0  0  0
   -0.3090   16.3750  -26.6480 H   0  0  0  0  0  0  0  0  0  0  0  0
    1.3882   18.4912  -27.7063 H   0  0  0  0  0  0  0  0  0  0  0  0
    0.1709   17.7207  -28.8262 H   0  0  0  0  0  0  0  0  0  0  0  0
   -0.2621   19.4495  -26.3998 H   0  0  0  0  0  0  0  0  0  0  0  0
   -1.2250   17.2900  -26.1010 H   0  0  0  0  0  0  0  0  0  0  0  0
   -2.9603   20.3306  -27.0270 H   0  0  0  0  0  0  0  0  0  0  0  0
   -3.9909   21.7266  -28.8177 H   0  0  0  0  0  0  0  0  0  0  0  0
   -2.8955   21.9011  -31.0561 H   0  0  0  0  0  0  0  0  0  0  0  0
   -0.7796   20.6586  -31.5107 H   0  0  0  0  0  0  0  0  0  0  0  0
    0.2507   19.2478  -29.7292 H   0  0  0  0  0  0  0  0  0  0  0  0
    1.2632   15.6419  -30.7886 H   0  0  0  0  0  0  0  0  0  0  0  0
    1.3014   17.3649  -32.5890 H   0  0  0  0  0  0  0  0  0  0  0  0
    0.2512   17.0558  -33.6238 H   0  0  0  0  0  0  0  0  0  0  0  0
   -2.2092   16.6655  -33.5764 H   0  0  0  0  0  0  0  0  0  0  0  0
   -4.7032   18.8968  -31.6993 H   0  0  0  0  0  0  0  0  0  0  0  0
   -8.2087   17.6969  -32.8574 H   0  0  0  0  0  0  0  0  0  0  0  0
   -7.2092   17.8101  -31.3637 H   0  0  0  0  0  0  0  0  0  0  0  0
   -6.0414   20.5179  -31.5827 H   0  0  0  0  0  0  0  0  0  0  0  0
   -6.9472   22.8016  -31.1436 H   0  0  0  0  0  0  0  0  0  0  0  0
   -9.3860   23.2559  -31.4080 H   0  0  0  0  0  0  0  0  0  0  0  0
  -10.9304   21.4213  -32.1098 H   0  0  0  0  0  0  0  0  0  0  0  0
  -10.0385   19.1289  -32.5303 H   0  0  0  0  0  0  0  0  0  0  0  0
   -6.9487   17.8222  -35.1110 H   0  0  0  0  0  0  0  0  0  0  0  0
   -2.8847   20.9333  -33.8917 H   0  0  0  0  0  0  0  0  0  0  0  0
   -0.4249   21.3147  -33.9595 H   0  0  0  0  0  0  0  0  0  0  0  0
  1  2  2  0
  2  3  2  0
  2  4  1  0
  4  5  1  0
  5  6  2  0
  6  7  1  0
  7  8  2  0
  8  9  1  0
  9 10  1  0
 10 11  1  0
 11 12  1  0
 12 13  1  0
 13 14  1  0
 13 15  1  0
 15 16  2  0
 16 17  1  0
 17 18  2  0
 18 19  1  0
 19 20  2  0
  8 21  1  0
 21 22  2  0
  2 23  1  0
 23 24  2  0
 24 25  1  0
 25 26  2  0
 26 27  1  0
 27 28  1  0
 28 29  2  0
 29 30  1  0
 30 31  1  0
 31 32  2  0
 32 33  1  0
 33 34  2  0
 34 35  1  0
 35 36  2  0
 29 37  1  0
 37 38  2  0
 26 39  1  0
 39 40  2  0
 22  5  1  0
 40 23  1  0
 20 15  1  0
 38 27  1  0
 36 31  1  0
  6 41  1  0
  7 42  1  0
  9 43  1  0
  9 44  1  0
 10 45  1  0
 10 46  1  0
 11 47  1  0
 12 48  1  0
 12 49  1  0
 13 50  1  1
 14 51  1  0
 16 52  1  0
 17 53  1  0
 18 54  1  0
 19 55  1  0
 20 56  1  0
 21 57  1  0
 22 58  1  0
 24 59  1  0
 25 60  1  0
 28 61  1  0
 30 62  1  0
 30 63  1  0
 32 64  1  0
 33 65  1  0
 34 66  1  0
 35 67  1  0
 36 68  1  0
 37 69  1  0
 39 70  1  0
 40 71  1  0
M  CHG  2   4  -1  29   1
M  END
>  <UniqueID>  (34) 
31

>  <SMILES>  (34) 
O=S(=O)([N-]c1ccc(CCNC[C@H](O)c2ccccc2)cc1)c1ccc(-n2c[n+](Cc3ccccc3)cn2)cc1

>  <Energy>  (34) 
107.5456979573415

>  <Genealogy>  (34) 
O=S(=O)([N-]c1ccc(CCNCC(O)c2ccccc2)cc1)c1ccc(-n2c[n+](Cc3ccccc3)cn2)cc1 (protonated)
O=S(=O)([N-]c1ccc(CCNC[C@H](O)c2ccccc2)cc1)c1ccc(-n2c[n+](Cc3ccccc3)cn2)cc1 (chirality)
O=S(=O)([N-]c1ccc(CCNC[C@H](O)c2ccccc2)cc1)c1ccc(-n2c[n+](Cc3ccccc3)cn2)cc1 (3D coordinates assigned)
O=S(=O)([N-]c1ccc(CCNC[C@H](O)c2ccccc2)cc1)c1ccc(-n2c[n+](Cc3ccccc3)cn2)cc1 (optimized conformer: 107.5456979573415 kcal/mol)

>  <smiles>  (34) 
O=S(=O)(Nc1ccc(CCNCC(O)c2ccccc2)cc1)c1ccc(-n2c[n+](Cc3ccccc3)cn2)cc1

>  <score_type>  (34) 
oracle

>  <origin>  (34) 
adgpu

>  <m_score__min__energy>  (34) 
-10.890000000000001

>  <m_primary>  (34) 
energy

$$$$
34:0
     RDKit          3D

 49 51  0  0  0  0  0  0  0  0999 V2000
   -0.7949   26.7841  -24.7722 H   0  0  0  0  0  0  0  0  0  0  0  0
   -1.0940   26.0770  -25.5600 C   0  0  0  0  0  0  0  0  0  0  0  0
   -0.1420   25.5930  -26.4580 C   0  0  0  0  0  0  0  0  0  0  0  0
    0.9039   25.9239  -26.3772 H   0  0  0  0  0  0  0  0  0  0  0  0
   -0.5110   24.6870  -27.4630 C   0  0  0  0  0  0  0  0  0  0  0  0
    0.5280   24.1510  -28.4090 C   0  0  0  0  0  0  0  0  0  0  0  0
    1.3611   23.7212  -27.8334 H   0  0  0  0  0  0  0  0  0  0  0  0
    0.0797   23.3717  -29.0428 H   0  0  0  0  0  0  0  0  0  0  0  0
    0.9032   24.9681  -29.0428 H   0  0  0  0  0  0  0  0  0  0  0  0
   -1.8500   24.2510  -27.5520 C   0  0  0  0  0  0  0  0  0  0  0  0
   -2.2230   23.3080  -28.5680 N   0  0  0  0  0  0  0  0  0  0  0  0
   -3.1520   23.4890  -29.4620 C   0  0  0  0  0  0  0  0  0  0  0  0
   -3.3700   22.5130  -30.3810 N   0  0  0  0  0  0  0  0  0  0  0  0
   -4.3180   22.6340  -31.3460 C   0  0  0  0  0  0  0  0  0  0  0  0
   -4.5160   21.5630  -32.2890 N   0  0  0  0  0  0  0  0  0  0  0  0
   -5.6730   20.7070  -32.1560 C   0  0  0  0  0  0  0  0  0  0  0  0
   -6.9670   21.2460  -32.2760 C   0  0  0  0  0  0  0  0  0  0  0  0
   -7.0938   22.3206  -32.4739 H   0  0  0  0  0  0  0  0  0  0  0  0
   -8.0930   20.4280  -32.1460 C   0  0  0  0  0  0  0  0  0  0  0  0
   -9.0994   20.8642  -32.2292 H   0  0  0  0  0  0  0  0  0  0  0  0
   -7.9450   19.0540  -31.9100 C   0  0  0  0  0  0  0  0  0  0  0  0
   -9.1540   18.1830  -31.7310 C   0  0  0  0  0  0  0  0  0  0  0  0
   -9.3490   18.0425  -30.6576 H   0  0  0  0  0  0  0  0  0  0  0  0
  -10.0246   18.6628  -32.2021 H   0  0  0  0  0  0  0  0  0  0  0  0
   -8.9746   17.2053  -32.2021 H   0  0  0  0  0  0  0  0  0  0  0  0
   -6.6590   18.5130  -31.7740 C   0  0  0  0  0  0  0  0  0  0  0  0
   -6.5360   17.4401  -31.5647 H   0  0  0  0  0  0  0  0  0  0  0  0
   -5.5320   19.3300  -31.9030 C   0  0  0  0  0  0  0  0  0  0  0  0
   -4.5272   18.8930  -31.8060 H   0  0  0  0  0  0  0  0  0  0  0  0
   -3.4310   21.1970  -33.2080 C   0  0  0  0  0  0  0  0  0  0  0  0
   -2.5450   20.8981  -32.6287 H   0  0  0  0  0  0  0  0  0  0  0  0
   -3.7547   20.3583  -33.8419 H   0  0  0  0  0  0  0  0  0  0  0  0
   -3.1805   22.0604  -33.8419 H   0  0  0  0  0  0  0  0  0  0  0  0
   -5.1100   23.7870  -31.3830 C   0  0  0  0  0  0  0  0  0  0  0  0
   -5.8855   23.9091  -32.1536 H   0  0  0  0  0  0  0  0  0  0  0  0
   -4.8980   24.7810  -30.4230 C   0  0  0  0  0  0  0  0  0  0  0  0
   -5.7100   26.0430  -30.4560 C   0  0  0  0  0  0  0  0  0  0  0  0
   -5.9207   26.3704  -29.4272 H   0  0  0  0  0  0  0  0  0  0  0  0
   -5.1469   26.8277  -30.9825 H   0  0  0  0  0  0  0  0  0  0  0  0
   -6.6575   25.8557  -30.9825 H   0  0  0  0  0  0  0  0  0  0  0  0
   -3.9170   24.6240  -29.4900 N   0  0  0  0  0  0  0  0  0  0  0  0
   -3.7710   25.3840  -28.7880 H   0  0  0  0  0  0  0  0  0  0  0  0
   -2.8200   24.7690  -26.6620 C   0  0  0  0  0  0  0  0  0  0  0  0
   -4.2580   24.3370  -26.7420 C   0  0  0  0  0  0  0  0  0  0  0  0
   -4.6615   24.2158  -25.7259 H   0  0  0  0  0  0  0  0  0  0  0  0
   -4.8407   25.0998  -27.2793 H   0  0  0  0  0  0  0  0  0  0  0  0
   -4.3238   23.3794  -27.2793 H   0  0  0  0  0  0  0  0  0  0  0  0
   -2.4240   25.6670  -25.6580 C   0  0  0  0  0  0  0  0  0  0  0  0
   -3.1676   26.0500  -24.9436 H   0  0  0  0  0  0  0  0  0  0  0  0
  1  2  1  0
  2  3  2  0
  3  4  1  0
  3  5  1  0
  5  6  1  0
  6  7  1  0
  6  8  1  0
  6  9  1  0
  5 10  2  0
 10 11  1  0
 11 12  2  0
 12 13  1  0
 13 14  2  0
 14 15  1  0
 15 16  1  0
 16 17  2  0
 17 18  1  0
 17 19  1  0
 19 20  1  0
 19 21  2  0
 21 22  1  0
 22 23  1  0
 22 24  1  0
 22 25  1  0
 21 26  1  0
 26 27  1  0
 26 28  2  0
 28 29  1  0
 15 30  1  0
 30 31  1  0
 30 32  1  0
 30 33  1  0
 14 34  1  0
 34 35  1  0
 34 36  2  0
 36 37  1  0
 37 38  1  0
 37 39  1  0
 37 40  1  0
 36 41  1  0
 41 42  1  0
 10 43  1  0
 43 44  1  0
 44 45  1  0
 44 46  1  0
 44 47  1  0
 43 48  2  0
 48 49  1  0
 48  2  1  0
 41 12  1  0
 28 16  1  0
M  END
>  <UniqueID>  (35) 
32

>  <SMILES>  (35) 
Cc1ccc(N(C)c2cc(C)[nH]/c(=N\c3c(C)cccc3C)n2)cc1

>  <Energy>  (35) 
66.83942958357423

>  <Genealogy>  (35) 
Cc1ccc(N(C)c2cc(C)[nH]/c(=N\c3c(C)cccc3C)n2)cc1 (cis-trans isomerization)
Cc1ccc(N(C)c2cc(C)[nH]/c(=N\c3c(C)cccc3C)n2)cc1 (3D coordinates assigned)
Cc1ccc(N(C)c2cc(C)[nH]/c(=N\c3c(C)cccc3C)n2)cc1 (optimized conformer: 66.83942958357423 kcal/mol)

>  <smiles>  (35) 
Cc1ccc(N(C)c2cc(C)[nH]c(=Nc3c(C)cccc3C)n2)cc1

>  <score_type>  (35) 
oracle

>  <origin>  (35) 
adgpu

>  <m_score__min__energy>  (35) 
-8.4600000000000009

>  <m_primary>  (35) 
energy

$$$$
35:0
     RDKit          3D

 34 35  0  0  0  0  0  0  0  0999 V2000
   -9.0900   20.5260  -32.3100 C   0  0  0  0  0  0  0  0  0  0  0  0
   -8.6020   19.1200  -32.1980 C   0  0  0  0  0  0  0  0  0  0  0  0
   -9.0100   18.3940  -31.2530 O   0  0  0  0  0  0  0  0  0  0  0  0
   -7.5950   18.6530  -33.1030 N   0  0  0  0  0  0  0  0  0  0  0  0
   -6.2360   19.1080  -33.1790 C   0  0  0  0  0  0  0  0  0  0  0  0
   -5.2480   18.3920  -33.8790 C   0  0  0  0  0  0  0  0  0  0  0  0
   -3.9470   18.8950  -33.9660 C   0  0  0  0  0  0  0  0  0  0  0  0
   -3.6210   20.1100  -33.3620 C   0  0  0  0  0  0  0  0  0  0  0  0
   -4.5920   20.8340  -32.6590 C   0  0  0  0  0  0  0  0  0  0  0  0
   -4.2200   22.0930  -32.0830 N   0  0  0  0  0  0  0  0  0  0  0  0
   -5.0960   23.1210  -31.5980 C   0  0  0  0  0  0  0  0  0  0  0  0
   -5.3280   24.1420  -32.2970 O   0  0  0  0  0  0  0  0  0  0  0  0
   -5.7180   23.0110  -30.3090 N   0  0  0  0  0  0  0  0  0  0  0  0
   -5.1740   23.2090  -29.1410 C   0  0  0  0  0  0  0  0  0  0  0  0
   -3.7340   23.4710  -28.9340 C   0  0  0  0  0  0  0  0  0  0  0  0
   -2.9360   22.5060  -28.2930 C   0  0  0  0  0  0  0  0  0  0  0  0
   -3.4940   21.3150  -27.8420 O   0  0  0  0  0  0  0  0  0  0  0  0
   -1.5720   22.7440  -28.0940 C   0  0  0  0  0  0  0  0  0  0  0  0
   -0.9920   23.9350  -28.5420 C   0  0  0  0  0  0  0  0  0  0  0  0
    0.3620   24.1640  -28.3320 O   0  0  0  0  0  0  0  0  0  0  0  0
   -1.7740   24.8900  -29.2020 C   0  0  0  0  0  0  0  0  0  0  0  0
   -1.1930   26.0690  -29.6550 O   0  0  0  0  0  0  0  0  0  0  0  0
   -3.1400   24.6570  -29.4100 C   0  0  0  0  0  0  0  0  0  0  0  0
   -3.9000   25.6010  -30.0920 O   0  0  0  0  0  0  0  0  0  0  0  0
   -5.9070   20.3380  -32.5940 C   0  0  0  0  0  0  0  0  0  0  0  0
   -9.2354   20.9449  -31.3033 H   0  0  0  0  0  0  0  0  0  0  0  0
   -8.3486   21.1292  -32.8546 H   0  0  0  0  0  0  0  0  0  0  0  0
  -10.0456   20.5402  -32.8546 H   0  0  0  0  0  0  0  0  0  0  0  0
   -5.4998   17.4347  -34.3587 H   0  0  0  0  0  0  0  0  0  0  0  0
   -3.1770   18.3310  -34.5127 H   0  0  0  0  0  0  0  0  0  0  0  0
   -2.5958   20.5012  -33.4385 H   0  0  0  0  0  0  0  0  0  0  0  0
   -5.8262   23.1793  -28.2557 H   0  0  0  0  0  0  0  0  0  0  0  0
   -0.9533   21.9915  -27.5832 H   0  0  0  0  0  0  0  0  0  0  0  0
   -6.6844   20.9215  -32.0789 H   0  0  0  0  0  0  0  0  0  0  0  0
  1  2  1  0
  2  3  2  0
  2  4  1  0
  4  5  1  0
  5  6  2  0
  6  7  1  0
  7  8  2  0
  8  9  1  0
  9 10  1  0
 10 11  1  0
 11 12  2  0
 11 13  1  0
 13 14  2  3
 14 15  1  0
 15 16  2  0
 16 17  1  0
 16 18  1  0
 18 19  2  0
 19 20  1  0
 19 21  1  0
 21 22  1  0
 21 23  2  0
 23 24  1  0
  9 25  2  0
 25  5  1  0
 23 15  1  0
  1 26  1  0
  1 27  1  0
  1 28  1  0
  6 29  1  0
  7 30  1  0
  8 31  1  0
 14 32  1  0
 18 33  1  0
 25 34  1  0
M  CHG  6   4  -1  10  -1  17  -1  20  -1  22  -1  24  -1
M  END
>  <UniqueID>  (36) 
33

>  <SMILES>  (36) 
CC(=O)[N-]c1cccc([N-]C(=O)N=Cc2c([O-])cc([O-])c([O-])c2[O-])c1

>  <Energy>  (36) 
50.75897134508597

>  <Genealogy>  (36) 
CC(=O)[N-]c1cccc([N-]C(=O)N=Cc2c([O-])cc([O-])c([O-])c2[O-])c1 (protonated)
CC(=O)[N-]c1cccc([N-]C(=O)N=Cc2c([O-])cc([O-])c([O-])c2[O-])c1 (3D coordinates assigned)
CC(=O)[N-]c1cccc([N-]C(=O)N=Cc2c([O-])cc([O-])c([O-])c2[O-])c1 (optimized conformer: 50.75897134508597 kcal/mol)

>  <smiles>  (36) 
CC(=O)Nc1cccc(NC(=O)N=Cc2c(O)cc(O)c(O)c2O)c1

>  <score_type>  (36) 
oracle

>  <origin>  (36) 
adgpu

>  <m_score__min__energy>  (36) 
-14.130000000000001

>  <m_primary>  (36) 
energy

$$$$
36:0
     RDKit          3D

 23 24  0  0  0  0  0  0  0  0999 V2000
   -3.4910   25.2990  -30.3770 O   0  0  0  0  0  0  0  0  0  0  0  0
   -4.0600   24.1180  -30.8380 C   0  0  0  0  0  0  0  0  0  0  0  0
   -3.3890   22.9060  -30.6630 C   0  0  0  0  0  0  0  0  0  0  0  0
   -3.9580   21.7180  -31.1280 C   0  0  0  0  0  0  0  0  0  0  0  0
   -5.2060   21.7280  -31.7780 C   0  0  0  0  0  0  0  0  0  0  0  0
   -5.7860   20.4560  -32.2730 C   0  0  0  0  0  0  0  0  0  0  0  0
   -5.1240   19.7180  -33.2710 C   0  0  0  0  0  0  0  0  0  0  0  0
   -5.6730   18.5220  -33.7470 C   0  0  0  0  0  0  0  0  0  0  0  0
   -4.8360   17.6050  -34.9850 Cl  0  0  0  0  0  0  0  0  0  0  0  0
   -6.8890   18.0570  -33.2340 C   0  0  0  0  0  0  0  0  0  0  0  0
   -7.5580   18.7880  -32.2480 C   0  0  0  0  0  0  0  0  0  0  0  0
   -9.0870   18.2090  -31.6130 Cl  0  0  0  0  0  0  0  0  0  0  0  0
   -7.0100   19.9840  -31.7700 C   0  0  0  0  0  0  0  0  0  0  0  0
   -5.8860   22.9540  -31.9410 C   0  0  0  0  0  0  0  0  0  0  0  0
   -7.1420   22.9900  -32.5450 O   0  0  0  0  0  0  0  0  0  0  0  0
   -5.3040   24.1430  -31.4750 C   0  0  0  0  0  0  0  0  0  0  0  0
   -2.4116   22.8867  -30.1586 H   0  0  0  0  0  0  0  0  0  0  0  0
   -3.4257   20.7661  -30.9848 H   0  0  0  0  0  0  0  0  0  0  0  0
   -4.1700   20.0829  -33.6793 H   0  0  0  0  0  0  0  0  0  0  0  0
   -7.3188   17.1156  -33.6069 H   0  0  0  0  0  0  0  0  0  0  0  0
   -7.5408   20.5577  -30.9960 H   0  0  0  0  0  0  0  0  0  0  0  0
   -7.2550   23.2270  -33.5240 H   0  0  0  0  0  0  0  0  0  0  0  0
   -5.8295   25.0996  -31.6117 H   0  0  0  0  0  0  0  0  0  0  0  0
  1  2  1  0
  2  3  2  0
  3  4  1  0
  4  5  2  0
  5  6  1  0
  6  7  2  0
  7  8  1  0
  8  9  1  0
  8 10  2  0
 10 11  1  0
 11 12  1  0
 11 13  2  0
  5 14  1  0
 14 15  1  0
 14 16  2  0
 16  2  1  0
 13  6  1  0
  3 17  1  0
  4 18  1  0
  7 19  1  0
 10 20  1  0
 13 21  1  0
 15 22  1  0
 16 23  1  0
M  CHG  1   1  -1
M  END
>  <UniqueID>  (37) 
34

>  <SMILES>  (37) 
[O-]c1ccc(-c2cc(Cl)cc(Cl)c2)c(O)c1

>  <Energy>  (37) 
29.92796721789848

>  <Genealogy>  (37) 
[O-]c1ccc(-c2cc(Cl)cc(Cl)c2)c(O)c1 (protonated)
[O-]c1ccc(-c2cc(Cl)cc(Cl)c2)c(O)c1 (3D coordinates assigned)
[O-]c1ccc(-c2cc(Cl)cc(Cl)c2)c(O)c1 (optimized conformer: 29.92796721789848 kcal/mol)

>  <smiles>  (37) 
Oc1ccc(-c2cc(Cl)cc(Cl)c2)c(O)c1

>  <score_type>  (37) 
oracle

>  <origin>  (37) 
adgpu

>  <m_score__min__energy>  (37) 
-9.8200000000000003

>  <m_primary>  (37) 
energy

$$$$
37:0
     RDKit          3D

 60 63  0  0  0  0  0  0  0  0999 V2000
   -4.8926   24.9985  -27.7583 H   0  0  0  0  0  0  0  0  0  0  0  0
   -4.9850   24.5490  -28.7580 C   0  0  0  0  0  0  0  0  0  0  0  0
   -4.2680   23.3950  -29.0820 C   0  0  0  0  0  0  0  0  0  0  0  0
   -3.4720   22.7850  -28.1070 O   0  0  0  0  0  0  0  0  0  0  0  0
   -2.3530   21.9860  -28.3840 C   0  0  0  0  0  0  0  0  0  0  0  0
   -1.2400   21.9500  -27.5300 C   0  0  0  0  0  0  0  0  0  0  0  0
   -1.2389   22.5448  -26.6047 H   0  0  0  0  0  0  0  0  0  0  0  0
   -0.1340   21.1610  -27.8520 C   0  0  0  0  0  0  0  0  0  0  0  0
    0.7394   21.1442  -27.1835 H   0  0  0  0  0  0  0  0  0  0  0  0
   -0.1310   20.3940  -29.0170 C   0  0  0  0  0  0  0  0  0  0  0  0
    0.7512   19.7885  -29.2722 H   0  0  0  0  0  0  0  0  0  0  0  0
   -1.2510   20.3920  -29.8660 C   0  0  0  0  0  0  0  0  0  0  0  0
   -1.2390   19.5860  -31.1060 C   0  0  0  0  0  0  0  0  0  0  0  0
   -0.4370   18.6180  -31.2070 O   0  0  0  0  0  0  0  0  0  0  0  0
   -2.1330   19.8800  -32.1880 N   0  0  0  0  0  0  0  0  0  0  0  0
   -2.9450   20.5170  -32.0310 H   0  0  0  0  0  0  0  0  0  0  0  0
   -1.9640   19.2960  -33.5170 C   0  0  0  0  0  0  0  0  0  0  0  0
   -0.9619   18.8488  -33.5929 H   0  0  0  0  0  0  0  0  0  0  0  0
   -2.0804   20.0854  -34.2742 H   0  0  0  0  0  0  0  0  0  0  0  0
   -3.0010   18.2340  -33.7510 C   0  0  0  0  0  0  0  0  0  0  0  0
   -4.0940   18.4800  -34.5940 C   0  0  0  0  0  0  0  0  0  0  0  0
   -4.2085   19.4636  -35.0729 H   0  0  0  0  0  0  0  0  0  0  0  0
   -5.0380   17.4760  -34.8260 C   0  0  0  0  0  0  0  0  0  0  0  0
   -5.8951   17.6713  -35.4872 H   0  0  0  0  0  0  0  0  0  0  0  0
   -4.8960   16.2240  -34.2200 C   0  0  0  0  0  0  0  0  0  0  0  0
   -5.6367   15.4341  -34.4134 H   0  0  0  0  0  0  0  0  0  0  0  0
   -3.8080   15.9710  -33.3630 C   0  0  0  0  0  0  0  0  0  0  0  0
   -3.6200   14.7310  -32.7330 O   0  0  0  0  0  0  0  0  0  0  0  0
   -4.5890   14.0960  -31.9050 C   0  0  0  0  0  0  0  0  0  0  0  0
   -4.3341   14.2630  -30.8481 H   0  0  0  0  0  0  0  0  0  0  0  0
   -5.5830   14.5184  -32.1137 H   0  0  0  0  0  0  0  0  0  0  0  0
   -4.5984   13.0160  -32.1137 H   0  0  0  0  0  0  0  0  0  0  0  0
   -2.8710   16.9830  -33.1300 C   0  0  0  0  0  0  0  0  0  0  0  0
   -2.0241   16.7961  -32.4534 H   0  0  0  0  0  0  0  0  0  0  0  0
   -2.3620   21.1900  -29.5340 C   0  0  0  0  0  0  0  0  0  0  0  0
   -3.2475   21.1875  -30.1866 H   0  0  0  0  0  0  0  0  0  0  0  0
   -4.3880   22.8540  -30.3270 N   0  0  0  0  0  0  0  0  0  0  0  0
   -5.2030   23.3870  -31.2750 C   0  0  0  0  0  0  0  0  0  0  0  0
   -5.2880   22.8570  -32.4590 N   0  0  0  0  0  0  0  0  0  0  0  0
   -4.6250   21.6600  -32.9010 C   0  0  0  0  0  0  0  0  0  0  0  0
   -3.6400   21.7630  -33.6750 O   0  0  0  0  0  0  0  0  0  0  0  0
   -5.0430   20.3550  -32.4850 N   0  0  0  0  0  0  0  0  0  0  0  0
   -6.3990   19.9150  -32.3120 C   0  0  0  0  0  0  0  0  0  0  0  0
   -6.7280   18.5510  -32.2200 C   0  0  0  0  0  0  0  0  0  0  0  0
   -5.9341   17.7908  -32.2630 H   0  0  0  0  0  0  0  0  0  0  0  0
   -8.0620   18.1590  -32.0740 C   0  0  0  0  0  0  0  0  0  0  0  0
   -8.3168   17.0905  -32.0165 H   0  0  0  0  0  0  0  0  0  0  0  0
   -9.0710   19.1200  -32.0010 C   0  0  0  0  0  0  0  0  0  0  0  0
  -10.1215   18.8068  -31.9095 H   0  0  0  0  0  0  0  0  0  0  0  0
   -8.7490   20.4840  -32.0440 C   0  0  0  0  0  0  0  0  0  0  0  0
   -9.8370   21.5100  -31.9630 C   0  0  0  0  0  0  0  0  0  0  0  0
  -10.0626   21.7227  -30.9076 H   0  0  0  0  0  0  0  0  0  0  0  0
   -9.5076   22.4339  -32.4610 H   0  0  0  0  0  0  0  0  0  0  0  0
  -10.7400   21.1270  -32.4610 H   0  0  0  0  0  0  0  0  0  0  0  0
   -7.4110   20.8750  -32.2120 C   0  0  0  0  0  0  0  0  0  0  0  0
   -7.1570   21.9439  -32.2653 H   0  0  0  0  0  0  0  0  0  0  0  0
   -5.9350   24.5420  -30.9800 C   0  0  0  0  0  0  0  0  0  0  0  0
   -6.5965   24.9878  -31.7374 H   0  0  0  0  0  0  0  0  0  0  0  0
   -5.8190   25.1250  -29.7150 C   0  0  0  0  0  0  0  0  0  0  0  0
   -6.3851   26.0371  -29.4749 H   0  0  0  0  0  0  0  0  0  0  0  0
  1  2  1  0
  2  3  2  0
  3  4  1  0
  4  5  1  0
  5  6  2  0
  6  7  1  0
  6  8  1  0
  8  9  1  0
  8 10  2  0
 10 11  1  0
 10 12  1  0
 12 13  1  0
 13 14  2  0
 13 15  1  0
 15 16  1  0
 15 17  1  0
 17 18  1  0
 17 19  1  0
 17 20  1  0
 20 21  2  0
 21 22  1  0
 21 23  1  0
 23 24  1  0
 23 25  2  0
 25 26  1  0
 25 27  1  0
 27 28  1  0
 28 29  1  0
 29 30  1  0
 29 31  1  0
 29 32  1  0
 27 33  2  0
 33 34  1  0
 12 35  2  0
 35 36  1  0
  3 37  1  0
 37 38  1  0
 38 39  2  0
 39 40  1  0
 40 41  2  0
 40 42  1  0
 42 43  1  0
 43 44  2  0
 44 45  1  0
 44 46  1  0
 46 47  1  0
 46 48  2  0
 48 49  1  0
 48 50  1  0
 50 51  1  0
 51 52  1  0
 51 53  1  0
 51 54  1  0
 50 55  2  0
 55 56  1  0
 38 57  1  0
 57 58  1  0
 57 59  2  0
 59 60  1  0
 59  2  1  0
 35  5  1  0
 55 43  1  0
 33 20  1  0
M  CHG  2  37  -1  42  -1
M  END
>  <UniqueID>  (38) 
35

>  <SMILES>  (38) 
COc1cccc(CNC(=O)c2cccc(Oc3ccc/c(=N/C(=O)[N-]c4cccc(C)c4)[n-]3)c2)c1

>  <Energy>  (38) 
68.9778620222078

>  <Genealogy>  (38) 
COc1cccc(CNC(=O)c2cccc(Oc3cccc(=NC(=O)[N-]c4cccc(C)c4)[n-]3)c2)c1 (protonated)
COc1cccc(CNC(=O)c2cccc(Oc3ccc/c(=N/C(=O)[N-]c4cccc(C)c4)[n-]3)c2)c1 (cis-trans isomerization)
COc1cccc(CNC(=O)c2cccc(Oc3ccc/c(=N/C(=O)[N-]c4cccc(C)c4)[n-]3)c2)c1 (3D coordinates assigned)
COc1cccc(CNC(=O)c2cccc(Oc3ccc/c(=N/C(=O)[N-]c4cccc(C)c4)[n-]3)c2)c1 (optimized conformer: 68.9778620222078 kcal/mol)

>  <smiles>  (38) 
COc1cccc(CNC(=O)c2cccc(Oc3cccc(=NC(=O)Nc4cccc(C)c4)[nH]3)c2)c1

>  <score_type>  (38) 
oracle

>  <origin>  (38) 
adgpu

>  <m_score__min__energy>  (38) 
-11.26

>  <m_primary>  (38) 
energy

$$$$
38:0
     RDKit          3D

 47 50  0  0  0  0  0  0  0  0999 V2000
   -8.2890   18.2090  -31.9830 C   0  0  0  0  0  0  0  0  0  0  0  0
   -9.0910   19.4590  -32.3330 C   0  0  0  0  0  0  0  0  0  0  0  0
   -8.2280   20.6890  -32.2420 C   0  0  0  0  0  0  0  0  0  0  0  0
   -8.7750   21.9090  -31.8150 C   0  0  0  0  0  0  0  0  0  0  0  0
   -7.9690   23.0460  -31.7060 C   0  0  0  0  0  0  0  0  0  0  0  0
   -6.5980   22.9750  -32.0140 C   0  0  0  0  0  0  0  0  0  0  0  0
   -5.7340   24.1150  -31.9160 N   0  0  0  0  0  0  0  0  0  0  0  0
   -4.9100   24.6280  -30.4800 S   0  0  0  0  0  0  0  0  0  0  0  0
   -5.9040   25.2360  -29.5300 O   0  0  0  0  0  0  0  0  0  0  0  0
   -3.8910   25.6710  -30.8430 O   0  0  0  0  0  0  0  0  0  0  0  0
   -4.0830   23.2610  -29.7390 C   0  0  0  0  0  0  0  0  0  0  0  0
   -4.1490   23.0490  -28.3550 C   0  0  0  0  0  0  0  0  0  0  0  0
   -3.4890   21.9600  -27.7780 C   0  0  0  0  0  0  0  0  0  0  0  0
   -2.7480   21.0730  -28.5780 C   0  0  0  0  0  0  0  0  0  0  0  0
   -2.0390   19.9300  -27.9730 C   0  0  0  0  0  0  0  0  0  0  0  0
   -2.5300   19.1690  -26.9760 N   0  0  0  0  0  0  0  0  0  0  0  0
   -1.6060   18.2590  -26.7090 N   0  0  0  0  0  0  0  0  0  0  0  0
   -0.5830   18.5000  -27.5520 C   0  0  0  0  0  0  0  0  0  0  0  0
    0.6690   17.7190  -27.5910 C   0  0  0  0  0  0  0  0  0  0  0  0
    0.6660   16.3450  -27.2890 C   0  0  0  0  0  0  0  0  0  0  0  0
    1.8560   15.6140  -27.3220 C   0  0  0  0  0  0  0  0  0  0  0  0
    3.0590   16.2460  -27.6530 C   0  0  0  0  0  0  0  0  0  0  0  0
    3.0710   17.6100  -27.9540 C   0  0  0  0  0  0  0  0  0  0  0  0
    1.8820   18.3460  -27.9250 C   0  0  0  0  0  0  0  0  0  0  0  0
   -0.8430   19.5240  -28.3300 O   0  0  0  0  0  0  0  0  0  0  0  0
   -2.6850   21.2900  -29.9650 C   0  0  0  0  0  0  0  0  0  0  0  0
   -3.3500   22.3770  -30.5400 C   0  0  0  0  0  0  0  0  0  0  0  0
   -6.0520   21.7540  -32.4270 C   0  0  0  0  0  0  0  0  0  0  0  0
   -6.8570   20.6170  -32.5360 C   0  0  0  0  0  0  0  0  0  0  0  0
   -8.2247   18.1088  -30.8895 H   0  0  0  0  0  0  0  0  0  0  0  0
   -8.7880   17.3235  -32.4036 H   0  0  0  0  0  0  0  0  0  0  0  0
   -7.2761   18.2935  -32.4036 H   0  0  0  0  0  0  0  0  0  0  0  0
   -9.4775   19.3644  -33.3585 H   0  0  0  0  0  0  0  0  0  0  0  0
   -9.9219   19.5569  -31.6189 H   0  0  0  0  0  0  0  0  0  0  0  0
   -9.8443   21.9709  -31.5646 H   0  0  0  0  0  0  0  0  0  0  0  0
   -8.4083   23.9997  -31.3782 H   0  0  0  0  0  0  0  0  0  0  0  0
   -4.7219   23.7416  -27.7209 H   0  0  0  0  0  0  0  0  0  0  0  0
   -3.5499   21.7964  -26.6919 H   0  0  0  0  0  0  0  0  0  0  0  0
   -0.2773   15.8441  -27.0258 H   0  0  0  0  0  0  0  0  0  0  0  0
    1.8469   14.5394  -27.0872 H   0  0  0  0  0  0  0  0  0  0  0  0
    3.9953   15.6692  -27.6763 H   0  0  0  0  0  0  0  0  0  0  0  0
    4.0175   18.1063  -28.2144 H   0  0  0  0  0  0  0  0  0  0  0  0
    1.8961   19.4195  -28.1645 H   0  0  0  0  0  0  0  0  0  0  0  0
   -2.1097   20.6013  -30.6012 H   0  0  0  0  0  0  0  0  0  0  0  0
   -3.2971   22.5385  -31.6268 H   0  0  0  0  0  0  0  0  0  0  0  0
   -4.9806   21.6890  -32.6677 H   0  0  0  0  0  0  0  0  0  0  0  0
   -6.4146   19.6613  -32.8536 H   0  0  0  0  0  0  0  0  0  0  0  0
  1  2  1  0
  2  3  1  0
  3  4  2  0
  4  5  1  0
  5  6  2  0
  6  7  1  0
  7  8  1  0
  8  9  2  0
  8 10  2  0
  8 11  1  0
 11 12  2  0
 12 13  1  0
 13 14  2  0
 14 15  1  0
 15 16  2  0
 16 17  1  0
 17 18  2  0
 18 19  1  0
 19 20  2  0
 20 21  1  0
 21 22  2  0
 22 23  1  0
 23 24  2  0
 18 25  1  0
 14 26  1  0
 26 27  2  0
  6 28  1  0
 28 29  2  0
 29  3  1  0
 27 11  1  0
 25 15  1  0
 24 19  1  0
  1 30  1  0
  1 31  1  0
  1 32  1  0
  2 33  1  0
  2 34  1  0
  4 35  1  0
  5 36  1  0
 12 37  1  0
 13 38  1  0
 20 39  1  0
 21 40  1  0
 22 41  1  0
 23 42  1  0
 24 43  1  0
 26 44  1  0
 27 45  1  0
 28 46  1  0
 29 47  1  0
M  CHG  1   7  -1
M  END
>  <UniqueID>  (39) 
36

>  <SMILES>  (39) 
CCc1ccc([N-]S(=O)(=O)c2ccc(-c3nnc(-c4ccccc4)o3)cc2)cc1

>  <Energy>  (39) 
86.19768243100161

>  <Genealogy>  (39) 
CCc1ccc([N-]S(=O)(=O)c2ccc(-c3nnc(-c4ccccc4)o3)cc2)cc1 (protonated)
CCc1ccc([N-]S(=O)(=O)c2ccc(-c3nnc(-c4ccccc4)o3)cc2)cc1 (3D coordinates assigned)
CCc1ccc([N-]S(=O)(=O)c2ccc(-c3nnc(-c4ccccc4)o3)cc2)cc1 (optimized conformer: 86.19768243100161 kcal/mol)

>  <smiles>  (39) 
CCc1ccc(NS(=O)(=O)c2ccc(-c3nnc(-c4ccccc4)o3)cc2)cc1

>  <score_type>  (39) 
oracle

>  <origin>  (39) 
adgpu

>  <m_score__min__energy>  (39) 
-10.58

>  <m_primary>  (39) 
energy

$$$$
39:0
     RDKit          3D

 40 42  0  0  0  0  0  0  0  0999 V2000
   -1.9780   25.5690  -28.9280 O   0  0  0  0  0  0  0  0  0  0  0  0
   -2.7880   24.7360  -29.4130 C   0  0  0  0  0  0  0  0  0  0  0  0
   -3.6340   25.1620  -30.4910 N   0  0  0  0  0  0  0  0  0  0  0  0
   -5.0720   25.3880  -30.4280 C   0  0  0  0  0  0  0  0  0  0  0  0
   -5.7870   24.1250  -30.8110 C   0  0  0  0  0  0  0  0  0  0  0  0
   -6.8760   23.6680  -30.0510 C   0  0  0  0  0  0  0  0  0  0  0  0
   -7.5630   22.5100  -30.4290 C   0  0  0  0  0  0  0  0  0  0  0  0
   -7.1770   21.8090  -31.5760 C   0  0  0  0  0  0  0  0  0  0  0  0
   -7.8460   20.6890  -31.9420 F   0  0  0  0  0  0  0  0  0  0  0  0
   -6.1060   22.2680  -32.3460 C   0  0  0  0  0  0  0  0  0  0  0  0
   -5.4150   23.4250  -31.9710 C   0  0  0  0  0  0  0  0  0  0  0  0
   -2.7780   23.3620  -28.8720 C   0  0  0  0  0  0  0  0  0  0  0  0
   -3.7650   22.7320  -28.1290 C   0  0  0  0  0  0  0  0  0  0  0  0
   -3.2770   21.4760  -27.8360 C   0  0  0  0  0  0  0  0  0  0  0  0
   -2.0250   21.4240  -28.4090 C   0  0  0  0  0  0  0  0  0  0  0  0
   -0.9320   20.0540  -28.3500 S   0  0  0  0  0  0  0  0  0  0  0  0
   -1.5240   18.9940  -27.4660 O   0  0  0  0  0  0  0  0  0  0  0  0
    0.3930   20.5050  -27.8020 O   0  0  0  0  0  0  0  0  0  0  0  0
   -0.7090   19.4340  -29.9560 N   0  0  0  0  0  0  0  0  0  0  0  0
   -1.2040   20.0780  -31.1450 C   0  0  0  0  0  0  0  0  0  0  0  0
   -0.3390   20.5990  -32.1280 C   0  0  0  0  0  0  0  0  0  0  0  0
   -0.8580   21.2190  -33.2680 C   0  0  0  0  0  0  0  0  0  0  0  0
   -2.2400   21.3260  -33.4430 C   0  0  0  0  0  0  0  0  0  0  0  0
   -3.1060   20.8130  -32.4750 C   0  0  0  0  0  0  0  0  0  0  0  0
   -2.5920   20.1930  -31.3330 C   0  0  0  0  0  0  0  0  0  0  0  0
   -1.7510   22.5550  -29.0130 O   0  0  0  0  0  0  0  0  0  0  0  0
   -5.3549   25.6751  -29.4045 H   0  0  0  0  0  0  0  0  0  0  0  0
   -5.3501   26.1952  -31.1216 H   0  0  0  0  0  0  0  0  0  0  0  0
   -7.1899   24.2232  -29.1547 H   0  0  0  0  0  0  0  0  0  0  0  0
   -8.4079   22.1501  -29.8235 H   0  0  0  0  0  0  0  0  0  0  0  0
   -5.8050   21.7181  -33.2499 H   0  0  0  0  0  0  0  0  0  0  0  0
   -4.5782   23.7877  -32.5859 H   0  0  0  0  0  0  0  0  0  0  0  0
   -4.7389   23.1493  -27.8335 H   0  0  0  0  0  0  0  0  0  0  0  0
   -3.7812   20.6825  -27.2649 H   0  0  0  0  0  0  0  0  0  0  0  0
   -0.1840   18.5360  -30.0490 H   0  0  0  0  0  0  0  0  0  0  0  0
    0.7502   20.5173  -31.9974 H   0  0  0  0  0  0  0  0  0  0  0  0
   -0.1760   21.6241  -34.0301 H   0  0  0  0  0  0  0  0  0  0  0  0
   -2.6453   21.8136  -34.3419 H   0  0  0  0  0  0  0  0  0  0  0  0
   -4.1942   20.8971  -32.6116 H   0  0  0  0  0  0  0  0  0  0  0  0
   -3.2799   19.7914  -30.5744 H   0  0  0  0  0  0  0  0  0  0  0  0
  1  2  2  0
  2  3  1  0
  3  4  1  0
  4  5  1  0
  5  6  2  0
  6  7  1  0
  7  8  2  0
  8  9  1  0
  8 10  1  0
 10 11  2  0
  2 12  1  0
 12 13  2  0
 13 14  1  0
 14 15  2  0
 15 16  1  0
 16 17  2  0
 16 18  2  0
 16 19  1  0
 19 20  1  0
 20 21  2  0
 21 22  1  0
 22 23  2  0
 23 24  1  0
 24 25  2  0
 15 26  1  0
 11  5  1  0
 26 12  1  0
 25 20  1  0
  4 27  1  0
  4 28  1  0
  6 29  1  0
  7 30  1  0
 10 31  1  0
 11 32  1  0
 13 33  1  0
 14 34  1  0
 19 35  1  0
 21 36  1  0
 22 37  1  0
 23 38  1  0
 24 39  1  0
 25 40  1  0
M  CHG  1   3  -1
M  END
>  <UniqueID>  (40) 
37

>  <SMILES>  (40) 
O=C([N-]Cc1ccc(F)cc1)c1ccc(S(=O)(=O)Nc2ccccc2)o1

>  <Energy>  (40) 
73.75295603820919

>  <Genealogy>  (40) 
O=C([N-]Cc1ccc(F)cc1)c1ccc(S(=O)(=O)Nc2ccccc2)o1 (protonated)
O=C([N-]Cc1ccc(F)cc1)c1ccc(S(=O)(=O)Nc2ccccc2)o1 (3D coordinates assigned)
O=C([N-]Cc1ccc(F)cc1)c1ccc(S(=O)(=O)Nc2ccccc2)o1 (optimized conformer: 73.75295603820919 kcal/mol)

>  <smiles>  (40) 
O=C(NCc1ccc(F)cc1)c1ccc(S(=O)(=O)Nc2ccccc2)o1

>  <score_type>  (40) 
oracle

>  <origin>  (40) 
adgpu

>  <m_score__min__energy>  (40) 
-10.49

>  <m_primary>  (40) 
energy

$$$$
40:0
     RDKit          3D

 38 39  0  0  0  0  0  0  0  0999 V2000
   -9.0950   20.0230  -32.3330 C   0  0  0  0  0  0  0  0  0  0  0  0
   -7.7670   19.3980  -32.3630 N   0  0  0  0  0  0  0  0  0  0  0  0
   -7.6720   17.9330  -32.3100 C   0  0  0  0  0  0  0  0  0  0  0  0
   -6.5680   20.2140  -32.4440 C   0  0  0  0  0  0  0  0  0  0  0  0
   -5.3070   19.6250  -32.6690 C   0  0  0  0  0  0  0  0  0  0  0  0
   -4.1560   20.4120  -32.7470 C   0  0  0  0  0  0  0  0  0  0  0  0
   -4.2380   21.7960  -32.6010 C   0  0  0  0  0  0  0  0  0  0  0  0
   -5.4820   22.4090  -32.3710 C   0  0  0  0  0  0  0  0  0  0  0  0
   -5.6230   23.7980  -32.2140 O   0  0  0  0  0  0  0  0  0  0  0  0
   -6.1920   24.4430  -31.0730 C   0  0  0  0  0  0  0  0  0  0  0  0
   -5.2570   25.4950  -30.5430 C   0  0  0  0  0  0  0  0  0  0  0  0
   -5.7370   26.5630  -30.0810 O   0  0  0  0  0  0  0  0  0  0  0  0
   -3.8380   25.2970  -30.4960 N   0  0  0  0  0  0  0  0  0  0  0  0
   -3.1100   24.5960  -29.4780 C   0  0  0  0  0  0  0  0  0  0  0  0
   -3.6920   23.5450  -28.7480 C   0  0  0  0  0  0  0  0  0  0  0  0
   -2.9460   22.8620  -27.7840 C   0  0  0  0  0  0  0  0  0  0  0  0
   -1.6130   23.2110  -27.5520 C   0  0  0  0  0  0  0  0  0  0  0  0
   -1.0170   24.2370  -28.2920 C   0  0  0  0  0  0  0  0  0  0  0  0
    0.3160   24.5670  -28.0600 O   0  0  0  0  0  0  0  0  0  0  0  0
   -1.7650   24.9220  -29.2600 C   0  0  0  0  0  0  0  0  0  0  0  0
   -6.6340   21.6160  -32.2970 C   0  0  0  0  0  0  0  0  0  0  0  0
   -9.4075   20.1701  -31.2886 H   0  0  0  0  0  0  0  0  0  0  0  0
   -9.0538   20.9963  -32.8439 H   0  0  0  0  0  0  0  0  0  0  0  0
   -9.8187   19.3710  -32.8439 H   0  0  0  0  0  0  0  0  0  0  0  0
   -7.6507   17.6047  -31.2604 H   0  0  0  0  0  0  0  0  0  0  0  0
   -8.5433   17.4906  -32.8150 H   0  0  0  0  0  0  0  0  0  0  0  0
   -6.7508   17.6068  -32.8150 H   0  0  0  0  0  0  0  0  0  0  0  0
   -5.2289   18.5339  -32.7843 H   0  0  0  0  0  0  0  0  0  0  0  0
   -3.1797   19.9374  -32.9246 H   0  0  0  0  0  0  0  0  0  0  0  0
   -3.3274   22.4097  -32.6659 H   0  0  0  0  0  0  0  0  0  0  0  0
   -7.1429   24.9153  -31.3606 H   0  0  0  0  0  0  0  0  0  0  0  0
   -6.3644   23.6917  -30.2883 H   0  0  0  0  0  0  0  0  0  0  0  0
   -4.7375   23.2595  -28.9362 H   0  0  0  0  0  0  0  0  0  0  0  0
   -3.4089   22.0481  -27.2067 H   0  0  0  0  0  0  0  0  0  0  0  0
   -1.0313   22.6776  -26.7858 H   0  0  0  0  0  0  0  0  0  0  0  0
    0.6240   24.9260  -27.1640 H   0  0  0  0  0  0  0  0  0  0  0  0
   -1.2930   25.7201  -29.8518 H   0  0  0  0  0  0  0  0  0  0  0  0
   -7.6085   22.0949  -32.1210 H   0  0  0  0  0  0  0  0  0  0  0  0
  1  2  1  0
  2  3  1  0
  2  4  1  0
  4  5  2  0
  5  6  1  0
  6  7  2  0
  7  8  1  0
  8  9  1  0
  9 10  1  0
 10 11  1  0
 11 12  2  0
 11 13  1  0
 13 14  1  0
 14 15  2  0
 15 16  1  0
 16 17  2  0
 17 18  1  0
 18 19  1  0
 18 20  2  0
  8 21  2  0
 21  4  1  0
 20 14  1  0
  1 22  1  0
  1 23  1  0
  1 24  1  0
  3 25  1  0
  3 26  1  0
  3 27  1  0
  5 28  1  0
  6 29  1  0
  7 30  1  0
 10 31  1  0
 10 32  1  0
 15 33  1  0
 16 34  1  0
 17 35  1  0
 19 36  1  0
 20 37  1  0
 21 38  1  0
M  CHG  1  13  -1
M  END
>  <UniqueID>  (41) 
38

>  <SMILES>  (41) 
CN(C)c1cccc(OCC(=O)[N-]c2cccc(O)c2)c1

>  <Energy>  (41) 
43.27976442574655

>  <Genealogy>  (41) 
CN(C)c1cccc(OCC(=O)[N-]c2cccc(O)c2)c1 (protonated)
CN(C)c1cccc(OCC(=O)[N-]c2cccc(O)c2)c1 (3D coordinates assigned)
CN(C)c1cccc(OCC(=O)[N-]c2cccc(O)c2)c1 (optimized conformer: 43.27976442574655 kcal/mol)

>  <smiles>  (41) 
CN(C)c1cccc(OCC(=O)Nc2cccc(O)c2)c1

>  <score_type>  (41) 
oracle

>  <origin>  (41) 
adgpu

>  <m_score__min__energy>  (41) 
-8.8699999999999992

>  <m_primary>  (41) 
energy

$$$$
41:0
     RDKit          3D

 37 39  0  0  0  0  0  0  0  0999 V2000
   -2.3020   24.7040  -28.8430 C   0  0  0  0  0  0  0  0  0  0  0  0
   -3.2810   25.2160  -29.7400 O   0  0  0  0  0  0  0  0  0  0  0  0
   -4.4510   24.5340  -30.1090 C   0  0  0  0  0  0  0  0  0  0  0  0
   -5.7160   25.1530  -30.1150 C   0  0  0  0  0  0  0  0  0  0  0  0
   -6.8520   24.4310  -30.4910 C   0  0  0  0  0  0  0  0  0  0  0  0
   -6.7400   23.0880  -30.8740 C   0  0  0  0  0  0  0  0  0  0  0  0
   -8.1740   22.1740  -31.3230 S   0  0  0  0  0  0  0  0  0  0  0  0
   -8.9740   22.9420  -32.3370 O   0  0  0  0  0  0  0  0  0  0  0  0
   -9.0410   21.9530  -30.1150 O   0  0  0  0  0  0  0  0  0  0  0  0
   -7.6790   20.6270  -31.9980 C   0  0  0  0  0  0  0  0  0  0  0  0
   -8.2330   19.4370  -31.5120 C   0  0  0  0  0  0  0  0  0  0  0  0
   -7.8250   18.2050  -32.0330 C   0  0  0  0  0  0  0  0  0  0  0  0
   -6.8520   18.1490  -33.0440 C   0  0  0  0  0  0  0  0  0  0  0  0
   -6.4240   16.8460  -33.5900 C   0  0  0  0  0  0  0  0  0  0  0  0
   -5.1400   16.4390  -33.6670 N   0  0  0  0  0  0  0  0  0  0  0  0
   -5.2830   15.2150  -34.2150 C   0  0  0  0  0  0  0  0  0  0  0  0
   -4.1360   14.3340  -34.5760 C   0  0  0  0  0  0  0  0  0  0  0  0
   -6.5690   14.9070  -34.4730 N   0  0  0  0  0  0  0  0  0  0  0  0
   -7.2430   15.9400  -34.0660 O   0  0  0  0  0  0  0  0  0  0  0  0
   -6.2920   19.3460  -33.5230 C   0  0  0  0  0  0  0  0  0  0  0  0
   -6.7020   20.5760  -33.0010 C   0  0  0  0  0  0  0  0  0  0  0  0
   -5.4840   22.4680  -30.8620 C   0  0  0  0  0  0  0  0  0  0  0  0
   -4.3480   23.1900  -30.4840 C   0  0  0  0  0  0  0  0  0  0  0  0
   -2.6290   24.8750  -27.8068 H   0  0  0  0  0  0  0  0  0  0  0  0
   -2.1764   23.6247  -29.0144 H   0  0  0  0  0  0  0  0  0  0  0  0
   -1.3439   25.2165  -29.0144 H   0  0  0  0  0  0  0  0  0  0  0  0
   -5.8103   26.2092  -29.8225 H   0  0  0  0  0  0  0  0  0  0  0  0
   -7.8378   24.9190  -30.4862 H   0  0  0  0  0  0  0  0  0  0  0  0
   -8.9924   19.4710  -30.7170 H   0  0  0  0  0  0  0  0  0  0  0  0
   -8.2687   17.2747  -31.6488 H   0  0  0  0  0  0  0  0  0  0  0  0
   -3.6547   13.9643  -33.6586 H   0  0  0  0  0  0  0  0  0  0  0  0
   -4.5006   13.4815  -35.1679 H   0  0  0  0  0  0  0  0  0  0  0  0
   -3.4064   14.9061  -35.1679 H   0  0  0  0  0  0  0  0  0  0  0  0
   -5.5270   19.3145  -34.3128 H   0  0  0  0  0  0  0  0  0  0  0  0
   -6.2559   21.5077  -33.3791 H   0  0  0  0  0  0  0  0  0  0  0  0
   -5.3912   21.4106  -31.1506 H   0  0  0  0  0  0  0  0  0  0  0  0
   -3.3646   22.6971  -30.4814 H   0  0  0  0  0  0  0  0  0  0  0  0
  1  2  1  0
  2  3  1  0
  3  4  2  0
  4  5  1  0
  5  6  2  0
  6  7  1  0
  7  8  2  0
  7  9  2  0
  7 10  1  0
 10 11  2  0
 11 12  1  0
 12 13  2  0
 13 14  1  0
 14 15  2  0
 15 16  1  0
 16 17  1  0
 16 18  2  0
 18 19  1  0
 13 20  1  0
 20 21  2  0
  6 22  1  0
 22 23  2  0
 23  3  1  0
 21 10  1  0
 19 14  1  0
  1 24  1  0
  1 25  1  0
  1 26  1  0
  4 27  1  0
  5 28  1  0
 11 29  1  0
 12 30  1  0
 17 31  1  0
 17 32  1  0
 17 33  1  0
 20 34  1  0
 21 35  1  0
 22 36  1  0
 23 37  1  0
M  END
>  <UniqueID>  (42) 
39

>  <SMILES>  (42) 
COc1ccc(S(=O)(=O)c2ccc(-c3nc(C)no3)cc2)cc1

>  <Energy>  (42) 
72.19575461186184

>  <Genealogy>  (42) 
COc1ccc(S(=O)(=O)c2ccc(-c3nc(C)no3)cc2)cc1 (3D coordinates assigned)
COc1ccc(S(=O)(=O)c2ccc(-c3nc(C)no3)cc2)cc1 (optimized conformer: 72.19575461186184 kcal/mol)

>  <smiles>  (42) 
COc1ccc(S(=O)(=O)c2ccc(-c3nc(C)no3)cc2)cc1

>  <score_type>  (42) 
oracle

>  <origin>  (42) 
adgpu

>  <m_score__min__energy>  (42) 
-9.0099999999999998

>  <m_primary>  (42) 
energy

$$$$
42:0
     RDKit          3D

 38 40  0  0  0  0  0  0  0  0999 V2000
   -0.3580   20.2470  -29.1680 O   0  0  0  0  0  0  0  0  0  0  0  0
   -0.9090   21.2990  -29.5890 C   0  0  0  0  0  0  0  0  0  0  0  0
   -1.6200   21.2540  -30.8340 N   0  0  0  0  0  0  0  0  0  0  0  0
   -2.9500   21.7370  -31.0710 C   0  0  0  0  0  0  0  0  0  0  0  0
   -3.4300   21.9800  -32.3700 C   0  0  0  0  0  0  0  0  0  0  0  0
   -4.7290   22.4600  -32.5630 C   0  0  0  0  0  0  0  0  0  0  0  0
   -5.5570   22.7130  -31.4620 C   0  0  0  0  0  0  0  0  0  0  0  0
   -7.1900   23.3250  -31.7010 S   0  0  0  0  0  0  0  0  0  0  0  0
   -7.3480   23.8040  -33.1180 O   0  0  0  0  0  0  0  0  0  0  0  0
   -7.4330   24.4620  -30.7480 O   0  0  0  0  0  0  0  0  0  0  0  0
   -8.3300   22.0500  -31.4030 N   0  0  0  0  0  0  0  0  0  0  0  0
   -8.1810   20.8350  -31.8320 C   0  0  0  0  0  0  0  0  0  0  0  0
   -9.1320   19.9060  -31.5460 N   0  0  0  0  0  0  0  0  0  0  0  0
   -9.0120   18.6240  -31.9790 C   0  0  0  0  0  0  0  0  0  0  0  0
   -7.9000   18.2450  -32.7300 C   0  0  0  0  0  0  0  0  0  0  0  0
   -6.9330   19.2070  -33.0170 C   0  0  0  0  0  0  0  0  0  0  0  0
   -7.0890   20.4790  -32.5650 N   0  0  0  0  0  0  0  0  0  0  0  0
   -5.0680   22.5060  -30.1660 C   0  0  0  0  0  0  0  0  0  0  0  0
   -3.7690   22.0260  -29.9730 C   0  0  0  0  0  0  0  0  0  0  0  0
   -0.7910   22.5410  -28.7920 C   0  0  0  0  0  0  0  0  0  0  0  0
   -1.1030   23.7660  -29.4060 C   0  0  0  0  0  0  0  0  0  0  0  0
   -0.9400   24.9690  -28.7140 C   0  0  0  0  0  0  0  0  0  0  0  0
   -1.2380   26.1750  -29.3370 O   0  0  0  0  0  0  0  0  0  0  0  0
   -0.4730   24.9600  -27.3980 C   0  0  0  0  0  0  0  0  0  0  0  0
   -0.1850   23.7480  -26.7680 C   0  0  0  0  0  0  0  0  0  0  0  0
   -0.3570   22.5340  -27.4440 C   0  0  0  0  0  0  0  0  0  0  0  0
   -0.1200   21.3510  -26.7430 O   0  0  0  0  0  0  0  0  0  0  0  0
   -2.7810   21.7917  -33.2379 H   0  0  0  0  0  0  0  0  0  0  0  0
   -5.1017   22.6394  -33.5823 H   0  0  0  0  0  0  0  0  0  0  0  0
   -9.7910   17.8859  -31.7375 H   0  0  0  0  0  0  0  0  0  0  0  0
   -7.7884   17.2108  -33.0877 H   0  0  0  0  0  0  0  0  0  0  0  0
   -6.0455   18.9371  -33.6081 H   0  0  0  0  0  0  0  0  0  0  0  0
   -5.7077   22.7217  -29.2975 H   0  0  0  0  0  0  0  0  0  0  0  0
   -3.3883   21.8745  -28.9522 H   0  0  0  0  0  0  0  0  0  0  0  0
   -1.4786   23.7780  -30.4398 H   0  0  0  0  0  0  0  0  0  0  0  0
   -0.3321   25.9078  -26.8578 H   0  0  0  0  0  0  0  0  0  0  0  0
    0.1806   23.7467  -25.7305 H   0  0  0  0  0  0  0  0  0  0  0  0
   -0.2140   20.4350  -27.1610 H   0  0  0  0  0  0  0  0  0  0  0  0
  1  2  2  0
  2  3  1  0
  3  4  1  0
  4  5  2  0
  5  6  1  0
  6  7  2  0
  7  8  1  0
  8  9  2  0
  8 10  2  0
  8 11  1  0
 11 12  2  3
 12 13  1  0
 13 14  2  0
 14 15  1  0
 15 16  2  0
 16 17  1  0
  7 18  1  0
 18 19  2  0
  2 20  1  0
 20 21  2  0
 21 22  1  0
 22 23  1  0
 22 24  2  0
 24 25  1  0
 25 26  2  0
 26 27  1  0
 19  4  1  0
 26 20  1  0
 17 12  1  0
  5 28  1  0
  6 29  1  0
 14 30  1  0
 15 31  1  0
 16 32  1  0
 18 33  1  0
 19 34  1  0
 21 35  1  0
 24 36  1  0
 25 37  1  0
 27 38  1  0
M  CHG  3   3  -1  17  -1  23  -1
M  END
>  <UniqueID>  (43) 
40

>  <SMILES>  (43) 
O=C([N-]c1ccc(S(=O)(=O)N=c2nccc[n-]2)cc1)c1cc([O-])ccc1O

>  <Energy>  (43) 
55.542261503336654

>  <Genealogy>  (43) 
O=C([N-]c1ccc(S(=O)(=O)N=c2nccc[n-]2)cc1)c1cc([O-])ccc1O (protonated)
O=C([N-]c1ccc(S(=O)(=O)N=c2nccc[n-]2)cc1)c1cc([O-])ccc1O (3D coordinates assigned)
O=C([N-]c1ccc(S(=O)(=O)N=c2nccc[n-]2)cc1)c1cc([O-])ccc1O (optimized conformer: 55.542261503336654 kcal/mol)

>  <smiles>  (43) 
O=C(Nc1ccc(S(=O)(=O)N=c2nccc[nH]2)cc1)c1cc(O)ccc1O

>  <score_type>  (43) 
oracle

>  <origin>  (43) 
adgpu

>  <m_score__min__energy>  (43) 
-10.93

>  <m_primary>  (43) 
energy

$$$$
43:0
     RDKit          3D

 42 44  0  0  0  0  0  0  0  0999 V2000
   -9.2319   22.7713  -30.1130 H   0  0  0  0  0  0  0  0  0  0  0  0
   -8.3270   22.3200  -30.5460 C   0  0  0  0  0  0  0  0  0  0  0  0
   -8.4390   21.0850  -31.0610 C   0  0  0  0  0  0  0  0  0  0  0  0
   -9.3860   20.5514  -30.8925 H   0  0  0  0  0  0  0  0  0  0  0  0
   -7.3920   20.3830  -31.8370 C   0  0  0  0  0  0  0  0  0  0  0  0
   -6.4410   21.0870  -32.5930 C   0  0  0  0  0  0  0  0  0  0  0  0
   -6.4541   22.1869  -32.6012 H   0  0  0  0  0  0  0  0  0  0  0  0
   -5.4780   20.3980  -33.3350 C   0  0  0  0  0  0  0  0  0  0  0  0
   -4.7246   20.9607  -33.9057 H   0  0  0  0  0  0  0  0  0  0  0  0
   -5.4630   18.9920  -33.3590 C   0  0  0  0  0  0  0  0  0  0  0  0
   -4.4320   18.2730  -34.1430 C   0  0  0  0  0  0  0  0  0  0  0  0
   -4.7150   17.8450  -35.2950 O   0  0  0  0  0  0  0  0  0  0  0  0
   -3.1260   18.0220  -33.5950 N   0  0  0  0  0  0  0  0  0  0  0  0
   -3.0000   18.0660  -32.5600 H   0  0  0  0  0  0  0  0  0  0  0  0
   -2.0000   17.6460  -34.4070 C   0  0  0  0  0  0  0  0  0  0  0  0
   -0.8960   18.5120  -34.5140 C   0  0  0  0  0  0  0  0  0  0  0  0
   -0.9198   19.4913  -34.0137 H   0  0  0  0  0  0  0  0  0  0  0  0
    0.2300   18.1370  -35.2510 C   0  0  0  0  0  0  0  0  0  0  0  0
    1.0850   18.8240  -35.3350 H   0  0  0  0  0  0  0  0  0  0  0  0
    0.2720   16.8940  -35.8800 C   0  0  0  0  0  0  0  0  0  0  0  0
    1.1613   16.6003  -36.4569 H   0  0  0  0  0  0  0  0  0  0  0  0
   -0.8130   16.0210  -35.7790 C   0  0  0  0  0  0  0  0  0  0  0  0
   -0.7721   15.0402  -36.2753 H   0  0  0  0  0  0  0  0  0  0  0  0
   -1.9560   16.3850  -35.0490 C   0  0  0  0  0  0  0  0  0  0  0  0
   -3.0690   15.4830  -35.0020 N   0  0  0  0  0  0  0  0  0  0  0  0
   -2.9120   14.4510  -34.9800 H   0  0  0  0  0  0  0  0  0  0  0  0
   -4.0560   15.8170  -35.0590 H   0  0  0  0  0  0  0  0  0  0  0  0
   -6.4320   18.2910  -32.6170 C   0  0  0  0  0  0  0  0  0  0  0  0
   -6.4325   17.1910  -32.6217 H   0  0  0  0  0  0  0  0  0  0  0  0
   -7.3940   18.9820  -31.8740 C   0  0  0  0  0  0  0  0  0  0  0  0
   -8.1578   18.4220  -31.3145 H   0  0  0  0  0  0  0  0  0  0  0  0
   -7.0840   23.1230  -30.5140 C   0  0  0  0  0  0  0  0  0  0  0  0
   -6.8560   24.1630  -31.4330 C   0  0  0  0  0  0  0  0  0  0  0  0
   -7.6214   24.4072  -32.1844 H   0  0  0  0  0  0  0  0  0  0  0  0
   -5.6610   24.8880  -31.3960 C   0  0  0  0  0  0  0  0  0  0  0  0
   -5.4957   25.7112  -32.1066 H   0  0  0  0  0  0  0  0  0  0  0  0
   -4.6760   24.5680  -30.4570 C   0  0  0  0  0  0  0  0  0  0  0  0
   -3.4900   25.2890  -30.4200 O   0  0  0  0  0  0  0  0  0  0  0  0
   -4.8830   23.5160  -29.5590 C   0  0  0  0  0  0  0  0  0  0  0  0
   -4.1054   23.2593  -28.8246 H   0  0  0  0  0  0  0  0  0  0  0  0
   -6.0780   22.7900  -29.5940 C   0  0  0  0  0  0  0  0  0  0  0  0
   -6.2301   21.9532  -28.8964 H   0  0  0  0  0  0  0  0  0  0  0  0
  1  2  1  0
  2  3  2  0
  3  4  1  0
  3  5  1  0
  5  6  2  0
  6  7  1  0
  6  8  1  0
  8  9  1  0
  8 10  2  0
 10 11  1  0
 11 12  2  0
 11 13  1  0
 13 14  1  0
 13 15  1  0
 15 16  2  0
 16 17  1  0
 16 18  1  0
 18 19  1  0
 18 20  2  0
 20 21  1  0
 20 22  1  0
 22 23  1  0
 22 24  2  0
 24 25  1  0
 25 26  1  0
 25 27  1  0
 10 28  1  0
 28 29  1  0
 28 30  2  0
 30 31  1  0
  2 32  1  0
 32 33  2  0
 33 34  1  0
 33 35  1  0
 35 36  1  0
 35 37  2  0
 37 38  1  0
 37 39  1  0
 39 40  1  0
 39 41  2  0
 41 42  1  0
 30  5  1  0
 41 32  1  0
 24 15  1  0
M  CHG  1  38  -1
M  END
>  <UniqueID>  (44) 
41

>  <SMILES>  (44) 
Nc1ccccc1NC(=O)c1ccc(/C=C\c2ccc([O-])cc2)cc1

>  <Energy>  (44) 
61.26149111570565

>  <Genealogy>  (44) 
Nc1ccccc1NC(=O)c1ccc(C=Cc2ccc([O-])cc2)cc1 (protonated)
Nc1ccccc1NC(=O)c1ccc(/C=C\c2ccc([O-])cc2)cc1 (cis-trans isomerization)
Nc1ccccc1NC(=O)c1ccc(/C=C\c2ccc([O-])cc2)cc1 (3D coordinates assigned)
Nc1ccccc1NC(=O)c1ccc(/C=C\c2ccc([O-])cc2)cc1 (optimized conformer: 61.26149111570565 kcal/mol)

>  <smiles>  (44) 
Nc1ccccc1NC(=O)c1ccc(C=Cc2ccc(O)cc2)cc1

>  <score_type>  (44) 
oracle

>  <origin>  (44) 
adgpu

>  <m_score__min__energy>  (44) 
-10.699999999999999

>  <m_primary>  (44) 
energy

$$$$
44:0
     RDKit          3D

 63 66  0  0  0  0  0  0  0  0999 V2000
   -6.9000   17.7050  -33.0900 C   0  0  0  0  0  0  0  0  0  0  0  0
   -6.2800   17.0090  -34.2300 N   0  0  0  0  0  0  0  0  0  0  0  0
   -5.7840   15.6630  -33.8450 C   0  0  0  0  0  0  0  0  0  0  0  0
   -4.2660   15.6440  -33.6150 C   0  0  0  0  0  0  0  0  0  0  0  0
   -3.5390   16.0520  -34.8380 N   0  0  0  0  0  0  0  0  0  0  0  0
   -2.1080   16.3600  -34.6080 C   0  0  0  0  0  0  0  0  0  0  0  0
   -1.8370   17.8240  -34.3060 C   0  0  0  0  0  0  0  0  0  0  0  0
   -2.6560   18.5350  -33.4120 C   0  0  0  0  0  0  0  0  0  0  0  0
   -2.4100   19.8850  -33.1320 C   0  0  0  0  0  0  0  0  0  0  0  0
   -3.2410   20.5670  -32.1760 N   0  0  0  0  0  0  0  0  0  0  0  0
   -4.4890   21.1990  -32.5130 C   0  0  0  0  0  0  0  0  0  0  0  0
   -5.2020   20.7020  -33.4280 O   0  0  0  0  0  0  0  0  0  0  0  0
   -4.9540   22.4290  -31.8060 C   0  0  0  0  0  0  0  0  0  0  0  0
   -6.3270   22.7290  -31.6830 C   0  0  0  0  0  0  0  0  0  0  0  0
   -6.7450   23.8580  -30.9670 C   0  0  0  0  0  0  0  0  0  0  0  0
   -5.8070   24.6950  -30.3650 C   0  0  0  0  0  0  0  0  0  0  0  0
   -4.4340   24.4160  -30.4690 C   0  0  0  0  0  0  0  0  0  0  0  0
   -3.5070   25.2980  -29.8200 N   0  0  0  0  0  0  0  0  0  0  0  0
   -2.2370   24.8280  -28.7330 S   0  0  0  0  0  0  0  0  0  0  0  0
   -2.6640   25.0390  -27.3070 O   0  0  0  0  0  0  0  0  0  0  0  0
   -1.0350   25.6890  -28.9950 O   0  0  0  0  0  0  0  0  0  0  0  0
   -1.7940   23.1520  -29.0180 C   0  0  0  0  0  0  0  0  0  0  0  0
   -2.3230   22.1140  -28.2300 C   0  0  0  0  0  0  0  0  0  0  0  0
   -1.9540   20.7810  -28.4770 C   0  0  0  0  0  0  0  0  0  0  0  0
   -1.0630   20.4770  -29.5130 C   0  0  0  0  0  0  0  0  0  0  0  0
   -0.7050   19.1910  -29.7570 F   0  0  0  0  0  0  0  0  0  0  0  0
   -0.5340   21.5060  -30.2990 C   0  0  0  0  0  0  0  0  0  0  0  0
   -0.8990   22.8420  -30.0550 C   0  0  0  0  0  0  0  0  0  0  0  0
   -4.0160   23.2880  -31.1940 C   0  0  0  0  0  0  0  0  0  0  0  0
   -1.3160   20.5250  -33.7420 C   0  0  0  0  0  0  0  0  0  0  0  0
   -0.4860   19.8320  -34.6390 C   0  0  0  0  0  0  0  0  0  0  0  0
    0.6630   20.5330  -35.3190 C   0  0  0  0  0  0  0  0  0  0  0  0
    1.8740   20.0460  -34.8580 F   0  0  0  0  0  0  0  0  0  0  0  0
    0.5920   21.8900  -35.0560 F   0  0  0  0  0  0  0  0  0  0  0  0
    0.6100   20.3370  -36.6890 F   0  0  0  0  0  0  0  0  0  0  0  0
   -0.7810   18.4940  -34.9460 C   0  0  0  0  0  0  0  0  0  0  0  0
   -4.2530   17.0400  -35.6800 C   0  0  0  0  0  0  0  0  0  0  0  0
   -5.2490   17.8690  -34.8610 C   0  0  0  0  0  0  0  0  0  0  0  0
   -6.5203   17.2788  -32.1497 H   0  0  0  0  0  0  0  0  0  0  0  0
   -6.6508   18.7755  -33.1344 H   0  0  0  0  0  0  0  0  0  0  0  0
   -7.9920   17.5806  -33.1344 H   0  0  0  0  0  0  0  0  0  0  0  0
   -6.2862   15.3534  -32.9166 H   0  0  0  0  0  0  0  0  0  0  0  0
   -6.0072   14.9733  -34.6723 H   0  0  0  0  0  0  0  0  0  0  0  0
   -4.0170   16.3392  -32.7997 H   0  0  0  0  0  0  0  0  0  0  0  0
   -3.9640   14.6191  -33.3533 H   0  0  0  0  0  0  0  0  0  0  0  0
   -1.7565   15.7593  -33.7562 H   0  0  0  0  0  0  0  0  0  0  0  0
   -1.5749   16.1210  -35.5401 H   0  0  0  0  0  0  0  0  0  0  0  0
   -3.5007   18.0247  -32.9262 H   0  0  0  0  0  0  0  0  0  0  0  0
   -2.9440   20.5550  -31.1740 H   0  0  0  0  0  0  0  0  0  0  0  0
   -7.0741   22.0721  -32.1524 H   0  0  0  0  0  0  0  0  0  0  0  0
   -7.8178   24.0850  -30.8795 H   0  0  0  0  0  0  0  0  0  0  0  0
   -6.1439   25.5797  -29.8049 H   0  0  0  0  0  0  0  0  0  0  0  0
   -3.0277   22.3465  -27.4180 H   0  0  0  0  0  0  0  0  0  0  0  0
   -2.3666   19.9736  -27.8542 H   0  0  0  0  0  0  0  0  0  0  0  0
    0.1698   21.2694  -31.1106 H   0  0  0  0  0  0  0  0  0  0  0  0
   -0.4822   23.6468  -30.6783 H   0  0  0  0  0  0  0  0  0  0  0  0
   -2.9416   23.0708  -31.2862 H   0  0  0  0  0  0  0  0  0  0  0  0
   -1.1078   21.5808  -33.5140 H   0  0  0  0  0  0  0  0  0  0  0  0
   -0.1775   17.9636  -35.6973 H   0  0  0  0  0  0  0  0  0  0  0  0
   -3.5165   17.7173  -36.1370 H   0  0  0  0  0  0  0  0  0  0  0  0
   -4.8153   16.4914  -36.4500 H   0  0  0  0  0  0  0  0  0  0  0  0
   -4.7027   18.4090  -34.0736 H   0  0  0  0  0  0  0  0  0  0  0  0
   -5.7535   18.5727  -35.5394 H   0  0  0  0  0  0  0  0  0  0  0  0
  1  2  1  0
  2  3  1  0
  3  4  1  0
  4  5  1  0
  5  6  1  0
  6  7  1  0
  7  8  2  0
  8  9  1  0
  9 10  1  0
 10 11  1  0
 11 12  2  0
 11 13  1  0
 13 14  2  0
 14 15  1  0
 15 16  2  0
 16 17  1  0
 17 18  1  0
 18 19  1  0
 19 20  2  0
 19 21  2  0
 19 22  1  0
 22 23  2  0
 23 24  1  0
 24 25  2  0
 25 26  1  0
 25 27  1  0
 27 28  2  0
 17 29  2  0
  9 30  2  0
 30 31  1  0
 31 32  1  0
 32 33  1  0
 32 34  1  0
 32 35  1  0
 31 36  2  0
  5 37  1  0
 37 38  1  0
 38  2  1  0
 36  7  1  0
 29 13  1  0
 28 22  1  0
  1 39  1  0
  1 40  1  0
  1 41  1  0
  3 42  1  0
  3 43  1  0
  4 44  1  0
  4 45  1  0
  6 46  1  0
  6 47  1  0
  8 48  1  0
 10 49  1  0
 14 50  1  0
 15 51  1  0
 16 52  1  0
 23 53  1  0
 24 54  1  0
 27 55  1  0
 28 56  1  0
 29 57  1  0
 30 58  1  0
 36 59  1  0
 37 60  1  0
 37 61  1  0
 38 62  1  0
 38 63  1  0
M  CHG  1  18  -1
M  END
>  <UniqueID>  (45) 
42

>  <SMILES>  (45) 
CN1CCN(Cc2cc(NC(=O)c3cccc([N-]S(=O)(=O)c4ccc(F)cc4)c3)cc(C(F)(F)F)c2)CC1

>  <Energy>  (45) 
91.11166287050116

>  <Genealogy>  (45) 
CN1CCN(Cc2cc(NC(=O)c3cccc([N-]S(=O)(=O)c4ccc(F)cc4)c3)cc(C(F)(F)F)c2)CC1 (protonated)
CN1CCN(Cc2cc(NC(=O)c3cccc([N-]S(=O)(=O)c4ccc(F)cc4)c3)cc(C(F)(F)F)c2)CC1 (3D coordinates assigned)
CN1CCN(Cc2cc(NC(=O)c3cccc([N-]S(=O)(=O)c4ccc(F)cc4)c3)cc(C(F)(F)F)c2)CC1 (nonaromatic ring conformer: 91.11166287050116 kcal/mol)

>  <smiles>  (45) 
CN1CCN(Cc2cc(NC(=O)c3cccc(NS(=O)(=O)c4ccc(F)cc4)c3)cc(C(F)(F)F)c2)CC1

>  <score_type>  (45) 
oracle

>  <origin>  (45) 
adgpu

>  <m_score__min__energy>  (45) 
-10.82

>  <m_primary>  (45) 
energy

$$$$
45:0
     RDKit          3D

 38 39  0  0  0  0  0  0  0  0999 V2000
   -4.4800   18.9150  -34.0570 C   0  0  0  0  0  0  0  0  0  0  0  0
   -5.9250   18.8230  -34.5370 C   0  0  0  0  0  0  0  0  0  0  0  0
   -6.8470   18.7120  -33.3950 N   0  0  0  0  0  0  0  0  0  0  0  0
   -7.2440   17.3820  -32.9060 C   0  0  0  0  0  0  0  0  0  0  0  0
   -6.6690   16.2850  -33.7980 C   0  0  0  0  0  0  0  0  0  0  0  0
   -7.3020   19.9000  -32.7100 C   0  0  0  0  0  0  0  0  0  0  0  0
   -8.6320   20.1700  -32.6060 N   0  0  0  0  0  0  0  0  0  0  0  0
   -9.0740   21.2880  -31.9770 C   0  0  0  0  0  0  0  0  0  0  0  0
   -8.1630   22.1840  -31.4220 C   0  0  0  0  0  0  0  0  0  0  0  0
   -6.7920   21.9020  -31.5260 C   0  0  0  0  0  0  0  0  0  0  0  0
   -5.7570   22.8100  -30.9660 C   0  0  0  0  0  0  0  0  0  0  0  0
   -6.0780   24.1090  -30.5260 C   0  0  0  0  0  0  0  0  0  0  0  0
   -5.0900   24.9430  -29.9940 C   0  0  0  0  0  0  0  0  0  0  0  0
   -3.7620   24.4930  -29.8830 C   0  0  0  0  0  0  0  0  0  0  0  0
   -2.7370   25.2940  -29.3570 O   0  0  0  0  0  0  0  0  0  0  0  0
   -1.9680   24.9630  -28.2060 C   0  0  0  0  0  0  0  0  0  0  0  0
   -3.4440   23.2000  -30.3090 C   0  0  0  0  0  0  0  0  0  0  0  0
   -4.4300   22.3630  -30.8400 C   0  0  0  0  0  0  0  0  0  0  0  0
   -6.4030   20.7710  -32.1750 N   0  0  0  0  0  0  0  0  0  0  0  0
   -4.4583   18.9164  -32.9572 H   0  0  0  0  0  0  0  0  0  0  0  0
   -3.9128   18.0512  -34.4338 H   0  0  0  0  0  0  0  0  0  0  0  0
   -4.0269   19.8438  -34.4338 H   0  0  0  0  0  0  0  0  0  0  0  0
   -6.1720   19.7264  -35.1139 H   0  0  0  0  0  0  0  0  0  0  0  0
   -6.0321   17.9270  -35.1661 H   0  0  0  0  0  0  0  0  0  0  0  0
   -6.8687   17.2474  -31.8808 H   0  0  0  0  0  0  0  0  0  0  0  0
   -8.3417   17.3123  -32.9230 H   0  0  0  0  0  0  0  0  0  0  0  0
   -6.2495   15.4847  -33.1707 H   0  0  0  0  0  0  0  0  0  0  0  0
   -7.4670   15.8729  -34.4331 H   0  0  0  0  0  0  0  0  0  0  0  0
   -5.8761   16.7068  -34.4331 H   0  0  0  0  0  0  0  0  0  0  0  0
  -10.1534   21.4872  -31.9052 H   0  0  0  0  0  0  0  0  0  0  0  0
   -8.5113   23.0945  -30.9124 H   0  0  0  0  0  0  0  0  0  0  0  0
   -7.1143   24.4701  -30.6016 H   0  0  0  0  0  0  0  0  0  0  0  0
   -5.3529   25.9576  -29.6601 H   0  0  0  0  0  0  0  0  0  0  0  0
   -2.5403   25.2093  -27.2994 H   0  0  0  0  0  0  0  0  0  0  0  0
   -1.7398   23.8870  -28.2145 H   0  0  0  0  0  0  0  0  0  0  0  0
   -1.0296   25.5369  -28.2145 H   0  0  0  0  0  0  0  0  0  0  0  0
   -2.4087   22.8379  -30.2257 H   0  0  0  0  0  0  0  0  0  0  0  0
   -4.1650   21.3452  -31.1622 H   0  0  0  0  0  0  0  0  0  0  0  0
  1  2  1  0
  2  3  1  0
  3  4  1  0
  4  5  1  0
  3  6  1  0
  6  7  2  0
  7  8  1  0
  8  9  2  0
  9 10  1  0
 10 11  1  0
 11 12  2  0
 12 13  1  0
 13 14  2  0
 14 15  1  0
 15 16  1  0
 14 17  1  0
 17 18  2  0
 10 19  2  0
 19  6  1  0
 18 11  1  0
  1 20  1  0
  1 21  1  0
  1 22  1  0
  2 23  1  0
  2 24  1  0
  4 25  1  0
  4 26  1  0
  5 27  1  0
  5 28  1  0
  5 29  1  0
  8 30  1  0
  9 31  1  0
 12 32  1  0
 13 33  1  0
 16 34  1  0
 16 35  1  0
 16 36  1  0
 17 37  1  0
 18 38  1  0
M  END
>  <UniqueID>  (46) 
43

>  <SMILES>  (46) 
CCN(CC)c1nccc(-c2ccc(OC)cc2)n1

>  <Energy>  (46) 
35.05751459132757

>  <Genealogy>  (46) 
CCN(CC)c1nccc(-c2ccc(OC)cc2)n1 (3D coordinates assigned)
CCN(CC)c1nccc(-c2ccc(OC)cc2)n1 (optimized conformer: 35.05751459132757 kcal/mol)

>  <smiles>  (46) 
CCN(CC)c1nccc(-c2ccc(OC)cc2)n1

>  <score_type>  (46) 
oracle

>  <origin>  (46) 
adgpu

>  <m_score__min__energy>  (46) 
-7.2599999999999998

>  <m_primary>  (46) 
energy

$$$$
46:0
     RDKit          3D

 46 48  0  0  0  0  0  0  0  0999 V2000
   -3.6860   21.4810  -30.4260 C   0  0  0  0  0  0  0  0  0  0  0  0
   -2.6290   21.4420  -31.4830 C   0  0  0  0  0  0  0  0  0  0  0  0
   -1.5040   22.1830  -31.4350 N   0  0  0  0  0  0  0  0  0  0  0  0
   -0.8150   21.9030  -32.5040 O   0  0  0  0  0  0  0  0  0  0  0  0
   -1.4270   21.0090  -33.2470 C   0  0  0  0  0  0  0  0  0  0  0  0
   -0.8830   20.4840  -34.5350 C   0  0  0  0  0  0  0  0  0  0  0  0
   -2.6210   20.6690  -32.6330 C   0  0  0  0  0  0  0  0  0  0  0  0
   -3.6430   19.7050  -33.0960 C   0  0  0  0  0  0  0  0  0  0  0  0
   -3.3360   18.7690  -34.0970 C   0  0  0  0  0  0  0  0  0  0  0  0
   -4.3080   17.8710  -34.5450 C   0  0  0  0  0  0  0  0  0  0  0  0
   -5.5920   17.8960  -33.9980 C   0  0  0  0  0  0  0  0  0  0  0  0
   -5.9100   18.8130  -32.9850 C   0  0  0  0  0  0  0  0  0  0  0  0
   -7.3060   18.8680  -32.4210 C   0  0  0  0  0  0  0  0  0  0  0  0
   -8.0890   19.9200  -33.0900 N   0  0  0  0  0  0  0  0  0  0  0  0
   -8.7640   20.8040  -32.1250 C   0  0  0  0  0  0  0  0  0  0  0  0
   -7.8760   21.9480  -31.6930 C   0  0  0  0  0  0  0  0  0  0  0  0
   -7.9350   22.4280  -30.3770 C   0  0  0  0  0  0  0  0  0  0  0  0
   -7.1000   23.4710  -29.9660 C   0  0  0  0  0  0  0  0  0  0  0  0
   -6.1860   24.0510  -30.8650 C   0  0  0  0  0  0  0  0  0  0  0  0
   -5.2990   25.1550  -30.4290 C   0  0  0  0  0  0  0  0  0  0  0  0
   -3.9220   25.1700  -30.8000 N   0  0  0  0  0  0  0  0  0  0  0  0
   -5.7550   26.0940  -29.7230 O   0  0  0  0  0  0  0  0  0  0  0  0
   -6.1270   23.5630  -32.1840 C   0  0  0  0  0  0  0  0  0  0  0  0
   -6.9640   22.5200  -32.5920 C   0  0  0  0  0  0  0  0  0  0  0  0
   -4.9360   19.7230  -32.5470 C   0  0  0  0  0  0  0  0  0  0  0  0
   -3.2126   21.4635  -29.4332 H   0  0  0  0  0  0  0  0  0  0  0  0
   -4.2784   22.4016  -30.5336 H   0  0  0  0  0  0  0  0  0  0  0  0
   -4.3446   20.6065  -30.5336 H   0  0  0  0  0  0  0  0  0  0  0  0
   -0.1059   19.7340  -34.3262 H   0  0  0  0  0  0  0  0  0  0  0  0
   -1.6949   20.0194  -35.1137 H   0  0  0  0  0  0  0  0  0  0  0  0
   -0.4475   21.3119  -35.1137 H   0  0  0  0  0  0  0  0  0  0  0  0
   -2.3253   18.7428  -34.5304 H   0  0  0  0  0  0  0  0  0  0  0  0
   -4.0608   17.1422  -35.3310 H   0  0  0  0  0  0  0  0  0  0  0  0
   -6.3569   17.1945  -34.3624 H   0  0  0  0  0  0  0  0  0  0  0  0
   -7.7979   17.8964  -32.5757 H   0  0  0  0  0  0  0  0  0  0  0  0
   -7.2478   19.0955  -31.3464 H   0  0  0  0  0  0  0  0  0  0  0  0
   -7.4410   20.5080  -33.6670 H   0  0  0  0  0  0  0  0  0  0  0  0
   -8.7950   19.4860  -33.7300 H   0  0  0  0  0  0  0  0  0  0  0  0
   -9.6710   21.2147  -32.5927 H   0  0  0  0  0  0  0  0  0  0  0  0
   -9.0125   20.2095  -31.2335 H   0  0  0  0  0  0  0  0  0  0  0  0
   -8.6428   21.9810  -29.6634 H   0  0  0  0  0  0  0  0  0  0  0  0
   -7.1579   23.8412  -28.9318 H   0  0  0  0  0  0  0  0  0  0  0  0
   -3.4920   26.0160  -31.2340 H   0  0  0  0  0  0  0  0  0  0  0  0
   -5.4174   24.0053  -32.8988 H   0  0  0  0  0  0  0  0  0  0  0  0
   -6.9069   22.1456  -33.6248 H   0  0  0  0  0  0  0  0  0  0  0  0
   -5.1870   20.4569  -31.7670 H   0  0  0  0  0  0  0  0  0  0  0  0
  1  2  1  0
  2  3  2  0
  3  4  1  0
  4  5  1  0
  5  6  1  0
  5  7  2  0
  7  8  1  0
  8  9  2  0
  9 10  1  0
 10 11  2  0
 11 12  1  0
 12 13  1  0
 13 14  1  0
 14 15  1  0
 15 16  1  0
 16 17  2  0
 17 18  1  0
 18 19  2  0
 19 20  1  0
 20 21  1  0
 20 22  2  0
 19 23  1  0
 23 24  2  0
 12 25  2  0
  7  2  1  0
 25  8  1  0
 24 16  1  0
  1 26  1  0
  1 27  1  0
  1 28  1  0
  6 29  1  0
  6 30  1  0
  6 31  1  0
  9 32  1  0
 10 33  1  0
 11 34  1  0
 13 35  1  0
 13 36  1  0
 14 37  1  0
 14 38  1  0
 15 39  1  0
 15 40  1  0
 17 41  1  0
 18 42  1  0
 21 43  1  0
 23 44  1  0
 24 45  1  0
 25 46  1  0
M  CHG  2  14   1  21  -1
M  END
>  <UniqueID>  (47) 
44

>  <SMILES>  (47) 
Cc1noc(C)c1-c1cccc(C[NH2+]Cc2ccc(C([NH-])=O)cc2)c1

>  <Energy>  (47) 
80.54908422305624

>  <Genealogy>  (47) 
Cc1noc(C)c1-c1cccc(C[NH2+]Cc2ccc(C([NH-])=O)cc2)c1 (protonated)
Cc1noc(C)c1-c1cccc(C[NH2+]Cc2ccc(C([NH-])=O)cc2)c1 (3D coordinates assigned)
Cc1noc(C)c1-c1cccc(C[NH2+]Cc2ccc(C([NH-])=O)cc2)c1 (optimized conformer: 80.54908422305624 kcal/mol)

>  <smiles>  (47) 
Cc1noc(C)c1-c1cccc(CNCc2ccc(C(N)=O)cc2)c1

>  <score_type>  (47) 
oracle

>  <origin>  (47) 
adgpu

>  <m_score__min__energy>  (47) 
-11.1

>  <m_primary>  (47) 
energy

$$$$
47:0
     RDKit          3D

 41 43  0  0  0  0  0  0  0  0999 V2000
   -2.2580   24.5340  -28.1860 C   0  0  0  0  0  0  0  0  0  0  0  0
   -2.7670   25.1670  -29.3550 O   0  0  0  0  0  0  0  0  0  0  0  0
   -3.8700   24.7080  -30.0890 C   0  0  0  0  0  0  0  0  0  0  0  0
   -5.0850   25.4160  -30.1510 C   0  0  0  0  0  0  0  0  0  0  0  0
   -6.1560   24.9160  -30.8960 C   0  0  0  0  0  0  0  0  0  0  0  0
   -6.0380   23.6960  -31.5870 C   0  0  0  0  0  0  0  0  0  0  0  0
   -7.1240   23.1470  -32.3560 N   0  0  0  0  0  0  0  0  0  0  0  0
   -8.2320   21.9540  -31.7560 S   0  0  0  0  0  0  0  0  0  0  0  0
   -9.5990   22.2190  -32.3190 O   0  0  0  0  0  0  0  0  0  0  0  0
   -8.2930   22.0500  -30.2570 O   0  0  0  0  0  0  0  0  0  0  0  0
   -7.7160   20.3470  -32.2570 C   0  0  0  0  0  0  0  0  0  0  0  0
   -6.6760   20.2030  -33.1830 C   0  0  0  0  0  0  0  0  0  0  0  0
   -6.2510   18.9310  -33.5760 C   0  0  0  0  0  0  0  0  0  0  0  0
   -6.8660   17.7800  -33.0490 C   0  0  0  0  0  0  0  0  0  0  0  0
   -6.4360   16.4190  -33.4480 C   0  0  0  0  0  0  0  0  0  0  0  0
   -5.1740   15.8610  -33.2930 C   0  0  0  0  0  0  0  0  0  0  0  0
   -5.2560   14.5870  -33.8120 C   0  0  0  0  0  0  0  0  0  0  0  0
   -6.5570   14.4440  -34.2460 C   0  0  0  0  0  0  0  0  0  0  0  0
   -7.1240   13.2350  -34.9110 C   0  0  0  0  0  0  0  0  0  0  0  0
   -7.2340   15.5460  -34.0220 O   0  0  0  0  0  0  0  0  0  0  0  0
   -7.9130   17.9330  -32.1250 C   0  0  0  0  0  0  0  0  0  0  0  0
   -8.3360   19.2060  -31.7340 C   0  0  0  0  0  0  0  0  0  0  0  0
   -4.8230   22.9980  -31.5250 C   0  0  0  0  0  0  0  0  0  0  0  0
   -3.7520   23.4990  -30.7820 C   0  0  0  0  0  0  0  0  0  0  0  0
   -2.6606   25.0347  -27.2931 H   0  0  0  0  0  0  0  0  0  0  0  0
   -2.5600   23.4763  -28.1808 H   0  0  0  0  0  0  0  0  0  0  0  0
   -1.1601   24.6019  -28.1808 H   0  0  0  0  0  0  0  0  0  0  0  0
   -5.1918   26.3679  -29.6101 H   0  0  0  0  0  0  0  0  0  0  0  0
   -7.0989   25.4806  -30.9427 H   0  0  0  0  0  0  0  0  0  0  0  0
   -7.2230   23.4210  -33.3590 H   0  0  0  0  0  0  0  0  0  0  0  0
   -6.1906   21.0960  -33.6036 H   0  0  0  0  0  0  0  0  0  0  0  0
   -5.4307   18.8288  -34.3017 H   0  0  0  0  0  0  0  0  0  0  0  0
   -4.2892   16.3385  -32.8469 H   0  0  0  0  0  0  0  0  0  0  0  0
   -4.4509   13.8395  -33.8683 H   0  0  0  0  0  0  0  0  0  0  0  0
   -7.4597   12.5193  -34.1461 H   0  0  0  0  0  0  0  0  0  0  0  0
   -7.9784   13.5285  -35.5386 H   0  0  0  0  0  0  0  0  0  0  0  0
   -6.3521   12.7658  -35.5386 H   0  0  0  0  0  0  0  0  0  0  0  0
   -8.4042   17.0427  -31.7055 H   0  0  0  0  0  0  0  0  0  0  0  0
   -9.1594   19.3120  -31.0124 H   0  0  0  0  0  0  0  0  0  0  0  0
   -4.7127   22.0470  -32.0667 H   0  0  0  0  0  0  0  0  0  0  0  0
   -2.8069   22.9376  -30.7414 H   0  0  0  0  0  0  0  0  0  0  0  0
  1  2  1  0
  2  3  1  0
  3  4  2  0
  4  5  1  0
  5  6  2  0
  6  7  1  0
  7  8  1  0
  8  9  2  0
  8 10  2  0
  8 11  1  0
 11 12  2  0
 12 13  1  0
 13 14  2  0
 14 15  1  0
 15 16  2  0
 16 17  1  0
 17 18  2  0
 18 19  1  0
 18 20  1  0
 14 21  1  0
 21 22  2  0
  6 23  1  0
 23 24  2  0
 24  3  1  0
 22 11  1  0
 20 15  1  0
  1 25  1  0
  1 26  1  0
  1 27  1  0
  4 28  1  0
  5 29  1  0
  7 30  1  0
 12 31  1  0
 13 32  1  0
 16 33  1  0
 17 34  1  0
 19 35  1  0
 19 36  1  0
 19 37  1  0
 21 38  1  0
 22 39  1  0
 23 40  1  0
 24 41  1  0
M  END
>  <UniqueID>  (48) 
45

>  <SMILES>  (48) 
COc1ccc(NS(=O)(=O)c2ccc(-c3ccc(C)o3)cc2)cc1

>  <Energy>  (48) 
70.89945569348968

>  <Genealogy>  (48) 
COc1ccc(NS(=O)(=O)c2ccc(-c3ccc(C)o3)cc2)cc1 (3D coordinates assigned)
COc1ccc(NS(=O)(=O)c2ccc(-c3ccc(C)o3)cc2)cc1 (optimized conformer: 70.89945569348968 kcal/mol)

>  <smiles>  (48) 
COc1ccc(NS(=O)(=O)c2ccc(-c3ccc(C)o3)cc2)cc1

>  <score_type>  (48) 
oracle

>  <origin>  (48) 
adgpu

>  <m_score__min__energy>  (48) 
-9.3200000000000003

>  <m_primary>  (48) 
energy

$$$$
