0:0
     RDKit          3D

 50 53  0  0  0  0  0  0  0  0999 V2000
   -6.8580   19.4450  -33.4550 C   0  0  0  0  0  0  0  0  0  0  0  0
   -6.4920   17.9960  -33.5020 C   0  0  0  0  0  0  0  0  0  0  0  0
   -7.3410   17.0010  -33.1740 N   0  0  0  0  0  0  0  0  0  0  0  0
   -6.6870   15.8830  -33.3120 O   0  0  0  0  0  0  0  0  0  0  0  0
   -5.4510   16.0950  -33.7050 C   0  0  0  0  0  0  0  0  0  0  0  0
   -4.4510   14.9990  -33.9130 C   0  0  0  0  0  0  0  0  0  0  0  0
   -5.2670   17.4600  -33.8610 C   0  0  0  0  0  0  0  0  0  0  0  0
   -4.0560   18.1960  -34.2790 C   0  0  0  0  0  0  0  0  0  0  0  0
   -3.4390   17.8170  -35.3090 O   0  0  0  0  0  0  0  0  0  0  0  0
   -3.5100   19.3050  -33.4740 C   0  0  0  0  0  0  0  0  0  0  0  0
   -4.2720   20.7980  -33.2870 S   0  0  0  0  0  0  0  0  0  0  0  0
   -3.1710   21.4230  -32.1850 C   0  0  0  0  0  0  0  0  0  0  0  0
   -3.3040   22.6990  -31.5500 N   0  0  0  0  0  0  0  0  0  0  0  0
   -4.5700   23.2370  -31.1280 C   0  0  0  0  0  0  0  0  0  0  0  0
   -5.7590   22.4990  -31.2840 C   0  0  0  0  0  0  0  0  0  0  0  0
   -6.9900   23.0540  -30.9190 C   0  0  0  0  0  0  0  0  0  0  0  0
   -7.0500   24.3480  -30.3990 C   0  0  0  0  0  0  0  0  0  0  0  0
   -5.8780   25.0920  -30.2430 C   0  0  0  0  0  0  0  0  0  0  0  0
   -4.6410   24.5440  -30.6080 C   0  0  0  0  0  0  0  0  0  0  0  0
   -3.4860   25.3020  -30.4460 O   0  0  0  0  0  0  0  0  0  0  0  0
   -2.1910   20.4690  -31.9110 C   0  0  0  0  0  0  0  0  0  0  0  0
   -0.8350   20.7330  -30.8050 S   0  0  0  0  0  0  0  0  0  0  0  0
   -0.5310   22.1970  -30.6580 O   0  0  0  0  0  0  0  0  0  0  0  0
    0.3840   20.0550  -31.3650 O   0  0  0  0  0  0  0  0  0  0  0  0
   -1.2420   20.0710  -29.2250 C   0  0  0  0  0  0  0  0  0  0  0  0
   -2.3540   20.5510  -28.5140 C   0  0  0  0  0  0  0  0  0  0  0  0
   -2.6490   20.0350  -27.2490 C   0  0  0  0  0  0  0  0  0  0  0  0
   -1.8450   19.0400  -26.6890 C   0  0  0  0  0  0  0  0  0  0  0  0
   -0.7420   18.5540  -27.3970 C   0  0  0  0  0  0  0  0  0  0  0  0
   -0.4410   19.0640  -28.6630 C   0  0  0  0  0  0  0  0  0  0  0  0
   -2.3820   19.2750  -32.6420 C   0  0  0  0  0  0  0  0  0  0  0  0
   -1.4870   18.1570  -32.5700 N   0  0  0  0  0  0  0  0  0  0  0  0
   -6.9398   19.7687  -32.4069 H   0  0  0  0  0  0  0  0  0  0  0  0
   -6.0809   20.0361  -33.9618 H   0  0  0  0  0  0  0  0  0  0  0  0
   -7.8225   19.5962  -33.9618 H   0  0  0  0  0  0  0  0  0  0  0  0
   -4.1092   14.6244  -32.9369 H   0  0  0  0  0  0  0  0  0  0  0  0
   -4.9183   14.1786  -34.4774 H   0  0  0  0  0  0  0  0  0  0  0  0
   -3.5913   15.3893  -34.4774 H   0  0  0  0  0  0  0  0  0  0  0  0
   -2.4330   23.2460  -31.3730 H   0  0  0  0  0  0  0  0  0  0  0  0
   -5.7196   21.4796  -31.6955 H   0  0  0  0  0  0  0  0  0  0  0  0
   -7.9134   22.4691  -31.0421 H   0  0  0  0  0  0  0  0  0  0  0  0
   -8.0194   24.7816  -30.1123 H   0  0  0  0  0  0  0  0  0  0  0  0
   -5.9263   26.1113  -29.8323 H   0  0  0  0  0  0  0  0  0  0  0  0
   -2.9922   21.3324  -28.9523 H   0  0  0  0  0  0  0  0  0  0  0  0
   -3.5184   20.4144  -26.6920 H   0  0  0  0  0  0  0  0  0  0  0  0
   -2.0794   18.6391  -25.6918 H   0  0  0  0  0  0  0  0  0  0  0  0
   -0.1098   17.7687  -26.9569 H   0  0  0  0  0  0  0  0  0  0  0  0
    0.4246   18.6759  -29.2199 H   0  0  0  0  0  0  0  0  0  0  0  0
   -0.5830   18.2230  -32.0580 H   0  0  0  0  0  0  0  0  0  0  0  0
   -1.7520   17.2240  -32.9490 H   0  0  0  0  0  0  0  0  0  0  0  0
  1  2  1  0
  2  3  2  0
  3  4  1  0
  4  5  1  0
  5  6  1  0
  5  7  2  0
  7  8  1  0
  8  9  2  0
  8 10  1  0
 10 11  1  0
 11 12  1  0
 12 13  1  0
 13 14  1  0
 14 15  2  0
 15 16  1  0
 16 17  2  0
 17 18  1  0
 18 19  2  0
 19 20  1  0
 12 21  2  0
 21 22  1  0
 22 23  2  0
 22 24  2  0
 22 25  1  0
 25 26  2  0
 26 27  1  0
 27 28  2  0
 28 29  1  0
 29 30  2  0
 21 31  1  0
 31 32  1  0
  7  2  1  0
 31 10  2  0
 19 14  1  0
 30 25  1  0
  1 33  1  0
  1 34  1  0
  1 35  1  0
  6 36  1  0
  6 37  1  0
  6 38  1  0
 13 39  1  0
 15 40  1  0
 16 41  1  0
 17 42  1  0
 18 43  1  0
 26 44  1  0
 27 45  1  0
 28 46  1  0
 29 47  1  0
 30 48  1  0
 32 49  1  0
 32 50  1  0
M  CHG  1  20  -1
M  END
>  <UniqueID>  (1) 
1

>  <SMILES>  (1) 
Cc1noc(C)c1C(=O)c1sc(Nc2ccccc2[O-])c(S(=O)(=O)c2ccccc2)c1N

>  <Energy>  (1) 
124.54430146631152

>  <Genealogy>  (1) 
Cc1noc(C)c1C(=O)c1sc(Nc2ccccc2[O-])c(S(=O)(=O)c2ccccc2)c1N (protonated)
Cc1noc(C)c1C(=O)c1sc(Nc2ccccc2[O-])c(S(=O)(=O)c2ccccc2)c1N (3D coordinates assigned)
Cc1noc(C)c1C(=O)c1sc(Nc2ccccc2[O-])c(S(=O)(=O)c2ccccc2)c1N (optimized conformer: 124.54430146631152 kcal/mol)

>  <smiles>  (1) 
Cc1noc(C)c1C(=O)c1sc(Nc2ccccc2O)c(S(=O)(=O)c2ccccc2)c1N

>  <score_type>  (1) 
oracle

>  <origin>  (1) 
adgpu

>  <m_score__min__energy>  (1) 
-12.31

>  <m_primary>  (1) 
energy

$$$$
1:0
     RDKit          3D

 52 55  0  0  0  0  0  0  0  0999 V2000
   -0.1000   23.5080  -24.9360 C   0  0  0  0  0  0  0  0  0  0  0  0
   -0.8180   23.6370  -26.2540 C   0  0  0  0  0  0  0  0  0  0  0  0
   -1.5730   22.5380  -26.6960 C   0  0  0  0  0  0  0  0  0  0  0  0
   -2.2810   22.5900  -27.8920 C   0  0  0  0  0  0  0  0  0  0  0  0
   -2.2550   23.7410  -28.6780 C   0  0  0  0  0  0  0  0  0  0  0  0
   -2.9870   23.7580  -29.9130 N   0  0  0  0  0  0  0  0  0  0  0  0
   -4.3240   24.2640  -30.0230 C   0  0  0  0  0  0  0  0  0  0  0  0
   -4.8530   24.8760  -29.0550 O   0  0  0  0  0  0  0  0  0  0  0  0
   -5.0190   24.1390  -31.2700 N   0  0  0  0  0  0  0  0  0  0  0  0
   -5.6300   22.9480  -31.7860 C   0  0  0  0  0  0  0  0  0  0  0  0
   -4.8540   22.0780  -32.5670 C   0  0  0  0  0  0  0  0  0  0  0  0
   -5.4020   20.8940  -33.0700 C   0  0  0  0  0  0  0  0  0  0  0  0
   -6.7260   20.5620  -32.7780 C   0  0  0  0  0  0  0  0  0  0  0  0
   -7.5120   21.4250  -32.0030 C   0  0  0  0  0  0  0  0  0  0  0  0
   -6.9640   22.6040  -31.4890 C   0  0  0  0  0  0  0  0  0  0  0  0
   -8.8460   21.0870  -31.7510 O   0  0  0  0  0  0  0  0  0  0  0  0
   -9.4960   20.0470  -32.4860 C   0  0  0  0  0  0  0  0  0  0  0  0
   -8.5270   18.8820  -32.7260 C   0  0  0  0  0  0  0  0  0  0  0  0
   -7.2860   19.3680  -33.2450 O   0  0  0  0  0  0  0  0  0  0  0  0
   -1.5500   24.8730  -28.2290 C   0  0  0  0  0  0  0  0  0  0  0  0
   -1.6120   26.0460  -28.9770 O   0  0  0  0  0  0  0  0  0  0  0  0
   -0.8020   24.8320  -27.0290 C   0  0  0  0  0  0  0  0  0  0  0  0
    0.1110   26.2950  -26.5380 S   0  0  0  0  0  0  0  0  0  0  0  0
    1.3350   26.4710  -27.3930 O   0  0  0  0  0  0  0  0  0  0  0  0
    0.5990   26.1040  -25.1290 O   0  0  0  0  0  0  0  0  0  0  0  0
   -0.8540   27.7620  -26.5780 N   0  0  0  0  0  0  0  0  0  0  0  0
   -0.2360   28.7980  -27.4280 C   0  0  0  0  0  0  0  0  0  0  0  0
   -0.7880   30.1890  -27.0780 C   0  0  0  0  0  0  0  0  0  0  0  0
   -0.5320   30.5800  -25.7330 O   0  0  0  0  0  0  0  0  0  0  0  0
   -0.3890   29.4860  -24.8350 C   0  0  0  0  0  0  0  0  0  0  0  0
   -1.2220   28.2570  -25.2340 C   0  0  0  0  0  0  0  0  0  0  0  0
   -0.8183   23.6371  -24.1130 H   0  0  0  0  0  0  0  0  0  0  0  0
    0.3625   22.5124  -24.8663 H   0  0  0  0  0  0  0  0  0  0  0  0
    0.6801   24.2804  -24.8663 H   0  0  0  0  0  0  0  0  0  0  0  0
   -1.6047   21.6225  -26.0870 H   0  0  0  0  0  0  0  0  0  0  0  0
   -2.8651   21.7174  -28.2197 H   0  0  0  0  0  0  0  0  0  0  0  0
   -2.4780   23.5320  -30.7970 H   0  0  0  0  0  0  0  0  0  0  0  0
   -3.8057   22.3296  -32.7854 H   0  0  0  0  0  0  0  0  0  0  0  0
   -4.7910   20.2256  -33.6945 H   0  0  0  0  0  0  0  0  0  0  0  0
   -7.5737   23.2628  -30.8531 H   0  0  0  0  0  0  0  0  0  0  0  0
  -10.3637   19.6859  -31.9144 H   0  0  0  0  0  0  0  0  0  0  0  0
   -9.8251   20.4457  -33.4569 H   0  0  0  0  0  0  0  0  0  0  0  0
   -8.3434   18.3608  -31.7749 H   0  0  0  0  0  0  0  0  0  0  0  0
   -8.9733   18.1895  -33.4549 H   0  0  0  0  0  0  0  0  0  0  0  0
    0.8527   28.7917  -27.2709 H   0  0  0  0  0  0  0  0  0  0  0  0
   -0.4714   28.5788  -28.4799 H   0  0  0  0  0  0  0  0  0  0  0  0
   -0.3241   30.9267  -27.7493 H   0  0  0  0  0  0  0  0  0  0  0  0
   -1.8803   30.1434  -27.1992 H   0  0  0  0  0  0  0  0  0  0  0  0
    0.6713   29.1945  -24.8063 H   0  0  0  0  0  0  0  0  0  0  0  0
   -0.7541   29.8214  -23.8531 H   0  0  0  0  0  0  0  0  0  0  0  0
   -1.0508   27.4562  -24.4996 H   0  0  0  0  0  0  0  0  0  0  0  0
   -2.2815   28.5519  -25.2545 H   0  0  0  0  0  0  0  0  0  0  0  0
  1  2  1  0
  2  3  2  0
  3  4  1  0
  4  5  2  0
  5  6  1  0
  6  7  1  0
  7  8  2  0
  7  9  1  0
  9 10  1  0
 10 11  2  0
 11 12  1  0
 12 13  2  0
 13 14  1  0
 14 15  2  0
 14 16  1  0
 16 17  1  0
 17 18  1  0
 18 19  1  0
  5 20  1  0
 20 21  1  0
 20 22  2  0
 22 23  1  0
 23 24  2  0
 23 25  2  0
 23 26  1  0
 26 27  1  0
 27 28  1  0
 28 29  1  0
 29 30  1  0
 30 31  1  0
 22  2  1  0
 31 26  1  0
 15 10  1  0
 19 13  1  0
  1 32  1  0
  1 33  1  0
  1 34  1  0
  3 35  1  0
  4 36  1  0
  6 37  1  0
 11 38  1  0
 12 39  1  0
 15 40  1  0
 17 41  1  0
 17 42  1  0
 18 43  1  0
 18 44  1  0
 27 45  1  0
 27 46  1  0
 28 47  1  0
 28 48  1  0
 30 49  1  0
 30 50  1  0
 31 51  1  0
 31 52  1  0
M  CHG  2   9  -1  21  -1
M  END
>  <UniqueID>  (2) 
2

>  <SMILES>  (2) 
Cc1ccc(NC(=O)[N-]c2ccc3c(c2)OCCO3)c([O-])c1S(=O)(=O)N1CCOCC1

>  <Energy>  (2) 
82.69721600789649

>  <Genealogy>  (2) 
Cc1ccc(NC(=O)[N-]c2ccc3c(c2)OCCO3)c([O-])c1S(=O)(=O)N1CCOCC1 (protonated)
Cc1ccc(NC(=O)[N-]c2ccc3c(c2)OCCO3)c([O-])c1S(=O)(=O)N1CCOCC1 (3D coordinates assigned)
Cc1ccc(NC(=O)[N-]c2ccc3c(c2)OCCO3)c([O-])c1S(=O)(=O)N1CCOCC1 (nonaromatic ring conformer: 82.69721600789649 kcal/mol)

>  <smiles>  (2) 
Cc1ccc(NC(=O)Nc2ccc3c(c2)OCCO3)c(O)c1S(=O)(=O)N1CCOCC1

>  <score_type>  (2) 
oracle

>  <origin>  (2) 
adgpu

>  <m_score__min__energy>  (2) 
-12.859999999999999

>  <m_primary>  (2) 
energy

$$$$
2:0
     RDKit          3D

 62 66  0  0  0  0  0  0  0  0999 V2000
   -2.3588   22.5620  -30.0236 H   0  0  0  0  0  0  0  0  0  0  0  0
   -2.3060   23.2400  -29.1590 C   0  0  0  0  0  0  0  0  0  0  0  0
   -2.5390   24.6850  -29.3710 C   0  0  0  0  0  0  0  0  0  0  0  0
   -1.6710   25.5260  -29.0130 O   0  0  0  0  0  0  0  0  0  0  0  0
   -3.7160   25.1530  -30.0420 N   0  0  0  0  0  0  0  0  0  0  0  0
   -4.8840   24.3730  -30.3300 C   0  0  0  0  0  0  0  0  0  0  0  0
   -5.4080   23.4660  -29.3930 C   0  0  0  0  0  0  0  0  0  0  0  0
   -4.9230   23.3498  -28.4126 H   0  0  0  0  0  0  0  0  0  0  0  0
   -6.5430   22.7110  -29.7020 C   0  0  0  0  0  0  0  0  0  0  0  0
   -6.9381   21.9902  -28.9710 H   0  0  0  0  0  0  0  0  0  0  0  0
   -7.1790   22.8700  -30.9410 C   0  0  0  0  0  0  0  0  0  0  0  0
   -8.5630   21.8660  -31.3510 S   0  0  0  0  0  0  0  0  0  0  0  0
   -9.3790   21.5970  -30.1170 O   0  0  0  0  0  0  0  0  0  0  0  0
   -9.4400   22.5700  -32.3480 O   0  0  0  0  0  0  0  0  0  0  0  0
   -7.9770   20.3550  -32.0340 C   0  0  0  0  0  0  0  0  0  0  0  0
   -8.3200   19.1320  -31.4430 C   0  0  0  0  0  0  0  0  0  0  0  0
   -8.9696   19.1147  -30.5555 H   0  0  0  0  0  0  0  0  0  0  0  0
   -7.8390   17.9340  -31.9780 C   0  0  0  0  0  0  0  0  0  0  0  0
   -8.1098   16.9770  -31.5081 H   0  0  0  0  0  0  0  0  0  0  0  0
   -7.0120   17.9460  -33.1120 C   0  0  0  0  0  0  0  0  0  0  0  0
   -6.5420   16.6520  -33.7230 C   0  0  0  0  0  0  0  0  0  0  0  0
   -7.0048   15.8124  -33.1837 H   0  0  0  0  0  0  0  0  0  0  0  0
   -6.8346   16.6427  -34.7833 H   0  0  0  0  0  0  0  0  0  0  0  0
   -5.0870   16.5240  -33.6450 N   0  0  0  0  0  0  0  0  0  0  0  0
   -4.1350   17.4620  -34.1660 C   0  0  0  0  0  0  0  0  0  0  0  0
   -4.3130   17.9390  -35.3170 O   0  0  0  0  0  0  0  0  0  0  0  0
   -2.9950   17.9400  -33.3600 C   0  0  0  0  0  0  0  0  0  0  0  0
   -1.9780   17.0230  -33.0500 C   0  0  0  0  0  0  0  0  0  0  0  0
   -2.0839   15.9700  -33.3498 H   0  0  0  0  0  0  0  0  0  0  0  0
   -0.8340   17.4350  -32.3650 C   0  0  0  0  0  0  0  0  0  0  0  0
   -0.0411   16.7078  -32.1359 H   0  0  0  0  0  0  0  0  0  0  0  0
   -0.6920   18.7640  -31.9700 C   0  0  0  0  0  0  0  0  0  0  0  0
    0.2175   19.0851  -31.4411 H   0  0  0  0  0  0  0  0  0  0  0  0
   -1.7050   19.6920  -32.2450 C   0  0  0  0  0  0  0  0  0  0  0  0
   -1.5760   21.0280  -31.8420 C   0  0  0  0  0  0  0  0  0  0  0  0
   -0.6689   21.3559  -31.3133 H   0  0  0  0  0  0  0  0  0  0  0  0
   -2.5670   21.9190  -32.1020 N   0  0  0  0  0  0  0  0  0  0  0  0
   -3.7040   21.5550  -32.7500 C   0  0  0  0  0  0  0  0  0  0  0  0
   -4.4879   22.3024  -32.9420 H   0  0  0  0  0  0  0  0  0  0  0  0
   -3.8820   20.2380  -33.1730 C   0  0  0  0  0  0  0  0  0  0  0  0
   -4.8079   19.9445  -33.6893 H   0  0  0  0  0  0  0  0  0  0  0  0
   -2.8730   19.2860  -32.9370 C   0  0  0  0  0  0  0  0  0  0  0  0
   -6.6470   19.1760  -33.6830 C   0  0  0  0  0  0  0  0  0  0  0  0
   -5.9781   19.1970  -34.5560 H   0  0  0  0  0  0  0  0  0  0  0  0
   -7.1290   20.3730  -33.1480 C   0  0  0  0  0  0  0  0  0  0  0  0
   -6.8416   21.3323  -33.6031 H   0  0  0  0  0  0  0  0  0  0  0  0
   -6.6740   23.7940  -31.8650 C   0  0  0  0  0  0  0  0  0  0  0  0
   -7.1706   23.9239  -32.8379 H   0  0  0  0  0  0  0  0  0  0  0  0
   -5.5400   24.5520  -31.5540 C   0  0  0  0  0  0  0  0  0  0  0  0
   -5.1619   25.2922  -32.2745 H   0  0  0  0  0  0  0  0  0  0  0  0
   -2.0330   22.7270  -27.9520 C   0  0  0  0  0  0  0  0  0  0  0  0
   -1.9818   23.4140  -27.0944 H   0  0  0  0  0  0  0  0  0  0  0  0
   -1.7960   21.2830  -27.7090 C   0  0  0  0  0  0  0  0  0  0  0  0
   -0.5250   20.7490  -27.9740 C   0  0  0  0  0  0  0  0  0  0  0  0
    0.2713   21.4006  -28.3628 H   0  0  0  0  0  0  0  0  0  0  0  0
   -0.2720   19.4310  -27.7530 N   0  0  0  0  0  0  0  0  0  0  0  0
   -1.2220   18.5910  -27.2670 C   0  0  0  0  0  0  0  0  0  0  0  0
   -0.9861   17.5288  -27.1055 H   0  0  0  0  0  0  0  0  0  0  0  0
   -2.4950   19.0740  -26.9730 C   0  0  0  0  0  0  0  0  0  0  0  0
   -3.2657   18.3985  -26.5733 H   0  0  0  0  0  0  0  0  0  0  0  0
   -2.7850   20.4240  -27.1900 C   0  0  0  0  0  0  0  0  0  0  0  0
   -3.7857   20.8160  -26.9555 H   0  0  0  0  0  0  0  0  0  0  0  0
  1  2  1  0
  2  3  1  0
  3  4  2  0
  3  5  1  0
  5  6  1  0
  6  7  2  0
  7  8  1  0
  7  9  1  0
  9 10  1  0
  9 11  2  0
 11 12  1  0
 12 13  2  0
 12 14  2  0
 12 15  1  0
 15 16  2  0
 16 17  1  0
 16 18  1  0
 18 19  1  0
 18 20  2  0
 20 21  1  0
 21 22  1  0
 21 23  1  0
 21 24  1  0
 24 25  1  0
 25 26  2  0
 25 27  1  0
 27 28  2  0
 28 29  1  0
 28 30  1  0
 30 31  1  0
 30 32  2  0
 32 33  1  0
 32 34  1  0
 34 35  2  0
 35 36  1  0
 35 37  1  0
 37 38  2  0
 38 39  1  0
 38 40  1  0
 40 41  1  0
 40 42  2  0
 20 43  1  0
 43 44  1  0
 43 45  2  0
 45 46  1  0
 11 47  1  0
 47 48  1  0
 47 49  2  0
 49 50  1  0
  2 51  2  0
 51 52  1  0
 51 53  1  0
 53 54  2  0
 54 55  1  0
 54 56  1  0
 56 57  2  0
 57 58  1  0
 57 59  1  0
 59 60  1  0
 59 61  2  0
 61 62  1  0
 49  6  1  0
 61 53  1  0
 45 15  1  0
 42 27  1  0
 42 34  1  0
M  CHG  2   5  -1  24  -1
M  END
>  <UniqueID>  (3) 
3

>  <SMILES>  (3) 
O=C(/C=C/c1cccnc1)[N-]c1ccc(S(=O)(=O)c2ccc(C[N-]C(=O)c3cccc4cnccc34)cc2)cc1

>  <Energy>  (3) 
85.22429668926722

>  <Genealogy>  (3) 
O=C(C=Cc1cccnc1)[N-]c1ccc(S(=O)(=O)c2ccc(C[N-]C(=O)c3cccc4cnccc34)cc2)cc1 (protonated)
O=C(/C=C/c1cccnc1)[N-]c1ccc(S(=O)(=O)c2ccc(C[N-]C(=O)c3cccc4cnccc34)cc2)cc1 (cis-trans isomerization)
O=C(/C=C/c1cccnc1)[N-]c1ccc(S(=O)(=O)c2ccc(C[N-]C(=O)c3cccc4cnccc34)cc2)cc1 (3D coordinates assigned)
O=C(/C=C/c1cccnc1)[N-]c1ccc(S(=O)(=O)c2ccc(C[N-]C(=O)c3cccc4cnccc34)cc2)cc1 (optimized conformer: 85.22429668926722 kcal/mol)

>  <smiles>  (3) 
O=C(C=Cc1cccnc1)Nc1ccc(S(=O)(=O)c2ccc(CNC(=O)c3cccc4cnccc34)cc2)cc1

>  <score_type>  (3) 
oracle

>  <origin>  (3) 
adgpu

>  <m_score__min__energy>  (3) 
-14.02

>  <m_primary>  (3) 
energy

$$$$
3:0
     RDKit          3D

 45 47  0  0  0  0  0  0  0  0999 V2000
   -5.7760   26.1890  -30.5680 O   0  0  0  0  0  0  0  0  0  0  0  0
   -5.1600   24.9370  -30.0110 S   0  0  0  0  0  0  0  0  0  0  0  0
   -5.2630   24.9850  -28.5110 O   0  0  0  0  0  0  0  0  0  0  0  0
   -3.4830   24.8750  -30.4760 N   0  0  0  0  0  0  0  0  0  0  0  0
   -2.7250   23.9440  -29.6380 C   0  0  0  0  0  0  0  0  0  0  0  0
   -2.2220   24.6140  -28.3960 C   0  0  0  0  0  0  0  0  0  0  0  0
   -2.5100   24.2350  -27.0920 C   0  0  0  0  0  0  0  0  0  0  0  0
   -1.8980   25.0520  -26.1350 C   0  0  0  0  0  0  0  0  0  0  0  0
   -1.1330   26.0750  -26.6820 C   0  0  0  0  0  0  0  0  0  0  0  0
   -1.2180   25.9620  -28.3580 S   0  0  0  0  0  0  0  0  0  0  0  0
   -6.0450   23.5470  -30.6370 C   0  0  0  0  0  0  0  0  0  0  0  0
   -7.4270   23.6190  -30.8620 C   0  0  0  0  0  0  0  0  0  0  0  0
   -8.1220   22.4980  -31.3240 C   0  0  0  0  0  0  0  0  0  0  0  0
   -7.4430   21.2970  -31.5680 C   0  0  0  0  0  0  0  0  0  0  0  0
   -8.3420   19.8830  -32.1110 S   0  0  0  0  0  0  0  0  0  0  0  0
   -8.9150   19.1840  -30.9090 O   0  0  0  0  0  0  0  0  0  0  0  0
   -9.4750   20.3050  -33.0050 O   0  0  0  0  0  0  0  0  0  0  0  0
   -7.2740   18.8020  -32.9720 N   0  0  0  0  0  0  0  0  0  0  0  0
   -6.3470   19.5840  -33.8250 C   0  0  0  0  0  0  0  0  0  0  0  0
   -5.1060   18.7790  -34.2730 C   0  0  0  0  0  0  0  0  0  0  0  0
   -5.3430   17.2710  -34.1790 C   0  0  0  0  0  0  0  0  0  0  0  0
   -5.7310   16.8580  -32.7500 C   0  0  0  0  0  0  0  0  0  0  0  0
   -6.5440   17.9470  -32.0180 C   0  0  0  0  0  0  0  0  0  0  0  0
   -6.0620   21.2240  -31.3400 C   0  0  0  0  0  0  0  0  0  0  0  0
   -5.3670   22.3450  -30.8770 C   0  0  0  0  0  0  0  0  0  0  0  0
   -3.3777   23.1056  -29.3534 H   0  0  0  0  0  0  0  0  0  0  0  0
   -1.8589   23.5856  -30.2137 H   0  0  0  0  0  0  0  0  0  0  0  0
   -3.1534   23.3800  -26.8371 H   0  0  0  0  0  0  0  0  0  0  0  0
   -2.0117   24.8989  -25.0517 H   0  0  0  0  0  0  0  0  0  0  0  0
   -0.5681   26.8300  -26.1155 H   0  0  0  0  0  0  0  0  0  0  0  0
   -7.9653   24.5598  -30.6745 H   0  0  0  0  0  0  0  0  0  0  0  0
   -9.2066   22.5588  -31.4968 H   0  0  0  0  0  0  0  0  0  0  0  0
   -7.8770   18.1990  -33.5800 H   0  0  0  0  0  0  0  0  0  0  0  0
   -6.8917   19.9144  -34.7217 H   0  0  0  0  0  0  0  0  0  0  0  0
   -5.9869   20.4322  -33.2242 H   0  0  0  0  0  0  0  0  0  0  0  0
   -4.8709   19.0382  -35.3159 H   0  0  0  0  0  0  0  0  0  0  0  0
   -4.2717   19.0364  -33.6040 H   0  0  0  0  0  0  0  0  0  0  0  0
   -6.1551   16.9918  -34.8663 H   0  0  0  0  0  0  0  0  0  0  0  0
   -4.4108   16.7540  -34.4503 H   0  0  0  0  0  0  0  0  0  0  0  0
   -6.3360   15.9407  -32.8003 H   0  0  0  0  0  0  0  0  0  0  0  0
   -4.8008   16.6998  -32.1845 H   0  0  0  0  0  0  0  0  0  0  0  0
   -7.2668   17.4629  -31.3448 H   0  0  0  0  0  0  0  0  0  0  0  0
   -5.8456   18.5786  -31.4494 H   0  0  0  0  0  0  0  0  0  0  0  0
   -5.5240   20.2827  -31.5258 H   0  0  0  0  0  0  0  0  0  0  0  0
   -4.2830   22.2829  -30.7004 H   0  0  0  0  0  0  0  0  0  0  0  0
  1  2  2  0
  2  3  2  0
  2  4  1  0
  4  5  1  0
  5  6  1  0
  6  7  2  0
  7  8  1  0
  8  9  2  0
  9 10  1  0
  2 11  1  0
 11 12  2  0
 12 13  1  0
 13 14  2  0
 14 15  1  0
 15 16  2  0
 15 17  2  0
 15 18  1  0
 18 19  1  0
 19 20  1  0
 20 21  1  0
 21 22  1  0
 22 23  1  0
 14 24  1  0
 24 25  2  0
 10  6  1  0
 25 11  1  0
 23 18  1  0
  5 26  1  0
  5 27  1  0
  7 28  1  0
  8 29  1  0
  9 30  1  0
 12 31  1  0
 13 32  1  0
 18 33  1  0
 19 34  1  0
 19 35  1  0
 20 36  1  0
 20 37  1  0
 21 38  1  0
 21 39  1  0
 22 40  1  0
 22 41  1  0
 23 42  1  0
 23 43  1  0
 24 44  1  0
 25 45  1  0
M  CHG  2   4  -1  18   1
M  END
>  <UniqueID>  (4) 
4

>  <SMILES>  (4) 
O=S(=O)([N-]Cc1cccs1)c1ccc(S(=O)(=O)[NH+]2CCCCC2)cc1

>  <Energy>  (4) 
72.3483933513338

>  <Genealogy>  (4) 
O=S(=O)([N-]Cc1cccs1)c1ccc(S(=O)(=O)[NH+]2CCCCC2)cc1 (protonated)
O=S(=O)([N-]Cc1cccs1)c1ccc(S(=O)(=O)[NH+]2CCCCC2)cc1 (3D coordinates assigned)
O=S(=O)([N-]Cc1cccs1)c1ccc(S(=O)(=O)[NH+]2CCCCC2)cc1 (nonaromatic ring conformer: 72.3483933513338 kcal/mol)

>  <smiles>  (4) 
O=S(=O)(NCc1cccs1)c1ccc(S(=O)(=O)N2CCCCC2)cc1

>  <score_type>  (4) 
oracle

>  <origin>  (4) 
adgpu

>  <m_score__min__energy>  (4) 
-11.029999999999999

>  <m_primary>  (4) 
energy

$$$$
4:0
     RDKit          3D

 66 69  0  0  0  0  0  0  0  0999 V2000
   -0.4890   24.7540  -27.7290 C   0  0  0  0  0  0  0  0  0  0  0  0
   -1.6200   23.8430  -28.2200 C   0  0  1  0  0  0  0  0  0  0  0  0
   -2.1990   23.0080  -27.0630 C   0  0  0  0  0  0  0  0  0  0  0  0
   -3.3170   22.0530  -27.5540 C   0  0  2  0  0  0  0  0  0  0  0  0
   -2.7670   20.6540  -27.8590 C   0  0  0  0  0  0  0  0  0  0  0  0
   -4.0640   22.6260  -28.7810 C   0  0  0  0  0  0  0  0  0  0  0  0
   -4.0820   24.0950  -28.7030 N   0  0  0  0  0  0  0  0  0  0  0  0
   -5.2230   24.7590  -29.8460 S   0  0  0  0  0  0  0  0  0  0  0  0
   -4.4910   25.6170  -30.8410 O   0  0  0  0  0  0  0  0  0  0  0  0
   -6.2090   25.6310  -29.1180 O   0  0  0  0  0  0  0  0  0  0  0  0
   -6.0990   23.4880  -30.7020 C   0  0  0  0  0  0  0  0  0  0  0  0
   -5.7770   23.1790  -32.0310 C   0  0  0  0  0  0  0  0  0  0  0  0
   -6.4470   22.1490  -32.6960 C   0  0  0  0  0  0  0  0  0  0  0  0
   -7.4420   21.4090  -32.0330 C   0  0  0  0  0  0  0  0  0  0  0  0
   -8.1010   20.3010  -32.6590 N   0  0  0  0  0  0  0  0  0  0  0  0
   -7.6860   18.9370  -32.5360 C   0  0  0  0  0  0  0  0  0  0  0  0
   -8.4170   18.1220  -31.9150 O   0  0  0  0  0  0  0  0  0  0  0  0
   -6.4020   18.4990  -33.1230 C   0  0  0  0  0  0  0  0  0  0  0  0
   -5.3100   19.3830  -33.0980 C   0  0  0  0  0  0  0  0  0  0  0  0
   -4.0650   19.0070  -33.6120 C   0  0  0  0  0  0  0  0  0  0  0  0
   -2.7030   20.1290  -33.5260 S   0  0  0  0  0  0  0  0  0  0  0  0
   -3.1920   21.5220  -33.8170 O   0  0  0  0  0  0  0  0  0  0  0  0
   -1.6880   19.7630  -34.5720 O   0  0  0  0  0  0  0  0  0  0  0  0
   -1.9350   20.0920  -31.9540 N   0  0  0  0  0  0  0  0  0  0  0  0
   -0.4670   20.0810  -32.0910 C   0  0  0  0  0  0  0  0  0  0  0  0
    0.2010   20.5280  -30.7820 C   0  0  0  0  0  0  0  0  0  0  0  0
   -0.1550   21.8440  -30.3700 O   0  0  0  0  0  0  0  0  0  0  0  0
   -1.3890   22.2990  -30.9070 C   0  0  0  0  0  0  0  0  0  0  0  0
   -2.4290   21.1770  -31.0780 C   0  0  0  0  0  0  0  0  0  0  0  0
   -3.9110   17.7400  -34.1850 C   0  0  0  0  0  0  0  0  0  0  0  0
   -4.9890   16.8550  -34.2300 C   0  0  0  0  0  0  0  0  0  0  0  0
   -6.2300   17.2130  -33.6900 C   0  0  0  0  0  0  0  0  0  0  0  0
   -7.2520   16.2600  -33.7080 O   0  0  0  0  0  0  0  0  0  0  0  0
   -7.7800   21.7390  -30.7150 C   0  0  0  0  0  0  0  0  0  0  0  0
   -7.1120   22.7710  -30.0520 C   0  0  0  0  0  0  0  0  0  0  0  0
   -2.7340   24.6600  -28.9320 C   0  0  0  0  0  0  0  0  0  0  0  0
   -0.4772   24.7635  -26.6291 H   0  0  0  0  0  0  0  0  0  0  0  0
    0.4743   24.3766  -28.1028 H   0  0  0  0  0  0  0  0  0  0  0  0
   -0.6525   25.7755  -28.1028 H   0  0  0  0  0  0  0  0  0  0  0  0
   -1.1929   23.1481  -28.9580 H   0  0  0  0  0  0  0  0  0  0  0  0
   -1.3913   22.4114  -26.6139 H   0  0  0  0  0  0  0  0  0  0  0  0
   -2.6344   23.6974  -26.3247 H   0  0  0  0  0  0  0  0  0  0  0  0
   -4.0428   21.9624  -26.7324 H   0  0  0  0  0  0  0  0  0  0  0  0
   -2.5601   20.1277  -26.9155 H   0  0  0  0  0  0  0  0  0  0  0  0
   -3.5091   20.0869  -28.4401 H   0  0  0  0  0  0  0  0  0  0  0  0
   -1.8374   20.7441  -28.4401 H   0  0  0  0  0  0  0  0  0  0  0  0
   -3.5495   22.3141  -29.7019 H   0  0  0  0  0  0  0  0  0  0  0  0
   -5.0966   22.2470  -28.7912 H   0  0  0  0  0  0  0  0  0  0  0  0
   -4.9941   23.7495  -32.5521 H   0  0  0  0  0  0  0  0  0  0  0  0
   -6.1954   21.9163  -33.7412 H   0  0  0  0  0  0  0  0  0  0  0  0
   -5.4365   20.3871  -32.6671 H   0  0  0  0  0  0  0  0  0  0  0  0
   -0.1344   19.0617  -32.3370 H   0  0  0  0  0  0  0  0  0  0  0  0
   -0.1801   20.7783  -32.8919 H   0  0  0  0  0  0  0  0  0  0  0  0
   -0.0911   19.8258  -29.9872 H   0  0  0  0  0  0  0  0  0  0  0  0
    1.2858   20.5341  -30.9642 H   0  0  0  0  0  0  0  0  0  0  0  0
   -1.8047   23.0603  -30.2305 H   0  0  0  0  0  0  0  0  0  0  0  0
   -1.1792   22.7042  -31.9079 H   0  0  0  0  0  0  0  0  0  0  0  0
   -2.6632   20.7561  -30.0890 H   0  0  0  0  0  0  0  0  0  0  0  0
   -3.3237   21.6118  -31.5475 H   0  0  0  0  0  0  0  0  0  0  0  0
   -2.9377   17.4407  -34.6011 H   0  0  0  0  0  0  0  0  0  0  0  0
   -4.8623   15.8660  -34.6945 H   0  0  0  0  0  0  0  0  0  0  0  0
   -8.0380   16.2760  -33.0700 H   0  0  0  0  0  0  0  0  0  0  0  0
   -8.5761   21.1824  -30.1988 H   0  0  0  0  0  0  0  0  0  0  0  0
   -7.3823   23.0217  -29.0156 H   0  0  0  0  0  0  0  0  0  0  0  0
   -2.5321   24.6649  -30.0133 H   0  0  0  0  0  0  0  0  0  0  0  0
   -2.7218   25.6778  -28.5149 H   0  0  0  0  0  0  0  0  0  0  0  0
  1  2  1  0
  2  3  1  0
  3  4  1  0
  4  5  1  0
  4  6  1  0
  6  7  1  0
  7  8  1  0
  8  9  2  0
  8 10  2  0
  8 11  1  0
 11 12  2  0
 12 13  1  0
 13 14  2  0
 14 15  1  0
 15 16  1  0
 16 17  2  0
 16 18  1  0
 18 19  2  0
 19 20  1  0
 20 21  1  0
 21 22  2  0
 21 23  2  0
 21 24  1  0
 24 25  1  0
 25 26  1  0
 26 27  1  0
 27 28  1  0
 28 29  1  0
 20 30  2  0
 30 31  1  0
 31 32  2  0
 32 33  1  0
 14 34  1  0
 34 35  2  0
  7 36  1  0
 36  2  1  0
 35 11  1  0
 32 18  1  0
 29 24  1  0
  1 37  1  0
  1 38  1  0
  1 39  1  0
  2 40  1  6
  3 41  1  0
  3 42  1  0
  4 43  1  1
  5 44  1  0
  5 45  1  0
  5 46  1  0
  6 47  1  0
  6 48  1  0
 12 49  1  0
 13 50  1  0
 19 51  1  0
 25 52  1  0
 25 53  1  0
 26 54  1  0
 26 55  1  0
 28 56  1  0
 28 57  1  0
 29 58  1  0
 29 59  1  0
 30 60  1  0
 31 61  1  0
 33 62  1  0
 34 63  1  0
 35 64  1  0
 36 65  1  0
 36 66  1  0
M  CHG  1  15  -1
M  END
>  <UniqueID>  (5) 
5

>  <SMILES>  (5) 
C[C@H]1C[C@H](C)CN(S(=O)(=O)c2ccc([N-]C(=O)c3cc(S(=O)(=O)N4CCOCC4)ccc3O)cc2)C1

>  <Energy>  (5) 
90.93722413250401

>  <Genealogy>  (5) 
CC1CC(C)CN(S(=O)(=O)c2ccc([N-]C(=O)c3cc(S(=O)(=O)N4CCOCC4)ccc3O)cc2)C1 (protonated)
C[C@H]1C[C@H](C)CN(S(=O)(=O)c2ccc([N-]C(=O)c3cc(S(=O)(=O)N4CCOCC4)ccc3O)cc2)C1 (chirality)
C[C@H]1C[C@H](C)CN(S(=O)(=O)c2ccc([N-]C(=O)c3cc(S(=O)(=O)N4CCOCC4)ccc3O)cc2)C1 (3D coordinates assigned)
C[C@H]1C[C@H](C)CN(S(=O)(=O)c2ccc([N-]C(=O)c3cc(S(=O)(=O)N4CCOCC4)ccc3O)cc2)C1 (nonaromatic ring conformer: 90.93722413250401 kcal/mol)

>  <smiles>  (5) 
CC1CC(C)CN(S(=O)(=O)c2ccc(NC(=O)c3cc(S(=O)(=O)N4CCOCC4)ccc3O)cc2)C1

>  <score_type>  (5) 
oracle

>  <origin>  (5) 
adgpu

>  <m_score__min__energy>  (5) 
-11.4

>  <m_primary>  (5) 
energy

$$$$
5:0
     RDKit          3D

 45 47  0  0  0  0  0  0  0  0999 V2000
   -9.4860   19.3460  -32.6630 C   0  0  0  0  0  0  0  0  0  0  0  0
   -8.8470   20.5920  -32.1480 C   0  0  0  0  0  0  0  0  0  0  0  0
   -7.5120   20.7480  -31.8460 C   0  0  0  0  0  0  0  0  0  0  0  0
   -7.4170   22.0770  -31.4720 C   0  0  0  0  0  0  0  0  0  0  0  0
   -6.2070   22.8070  -31.0310 C   0  0  0  0  0  0  0  0  0  0  0  0
   -6.2870   24.1060  -30.5060 C   0  0  0  0  0  0  0  0  0  0  0  0
   -5.1300   24.7810  -30.1130 C   0  0  0  0  0  0  0  0  0  0  0  0
   -3.8750   24.1750  -30.2280 C   0  0  0  0  0  0  0  0  0  0  0  0
   -2.7550   24.9150  -29.8440 O   0  0  0  0  0  0  0  0  0  0  0  0
   -3.7790   22.8580  -30.7300 C   0  0  0  0  0  0  0  0  0  0  0  0
   -2.2190   22.0330  -30.8690 S   0  0  0  0  0  0  0  0  0  0  0  0
   -1.1120   22.9730  -30.4790 O   0  0  0  0  0  0  0  0  0  0  0  0
   -2.0230   21.6000  -32.2960 O   0  0  0  0  0  0  0  0  0  0  0  0
   -2.1670   20.6180  -29.8540 N   0  0  0  0  0  0  0  0  0  0  0  0
   -1.3510   20.8470  -28.6590 C   0  0  0  0  0  0  0  0  0  0  0  0
   -2.0550   21.8090  -27.6930 C   0  0  0  0  0  0  0  0  0  0  0  0
   -1.6230   23.2090  -27.9020 N   0  0  0  0  0  0  0  0  0  0  0  0
   -2.2580   24.0940  -26.9080 C   0  0  0  0  0  0  0  0  0  0  0  0
   -1.8420   25.5600  -27.1550 C   0  0  0  0  0  0  0  0  0  0  0  0
   -0.7950   25.6720  -28.1030 O   0  0  0  0  0  0  0  0  0  0  0  0
    0.2720   24.8210  -27.7380 C   0  0  0  0  0  0  0  0  0  0  0  0
   -0.1510   23.3420  -27.8290 C   0  0  0  0  0  0  0  0  0  0  0  0
   -4.9480   22.1930  -31.1390 C   0  0  0  0  0  0  0  0  0  0  0  0
   -8.6110   22.6220  -31.5700 O   0  0  0  0  0  0  0  0  0  0  0  0
   -9.4940   21.7600  -31.9800 N   0  0  0  0  0  0  0  0  0  0  0  0
   -9.8064   18.7213  -31.8162 H   0  0  0  0  0  0  0  0  0  0  0  0
  -10.3605   19.6089  -33.2762 H   0  0  0  0  0  0  0  0  0  0  0  0
   -8.7622   18.7892  -33.2762 H   0  0  0  0  0  0  0  0  0  0  0  0
   -6.7115   19.9949  -31.8914 H   0  0  0  0  0  0  0  0  0  0  0  0
   -7.2670   24.5951  -30.4036 H   0  0  0  0  0  0  0  0  0  0  0  0
   -5.2064   25.8010  -29.7083 H   0  0  0  0  0  0  0  0  0  0  0  0
   -1.8710   24.4970  -29.5870 H   0  0  0  0  0  0  0  0  0  0  0  0
   -1.1795   19.8869  -28.1503 H   0  0  0  0  0  0  0  0  0  0  0  0
   -0.3943   21.2944  -28.9665 H   0  0  0  0  0  0  0  0  0  0  0  0
   -3.1413   21.7435  -27.8534 H   0  0  0  0  0  0  0  0  0  0  0  0
   -1.7897   21.5182  -26.6658 H   0  0  0  0  0  0  0  0  0  0  0  0
   -3.3515   24.0079  -26.9911 H   0  0  0  0  0  0  0  0  0  0  0  0
   -1.9326   23.7938  -25.9010 H   0  0  0  0  0  0  0  0  0  0  0  0
   -2.7150   26.1173  -27.5254 H   0  0  0  0  0  0  0  0  0  0  0  0
   -1.4767   25.9701  -26.2019 H   0  0  0  0  0  0  0  0  0  0  0  0
    1.1205   24.9956  -28.4159 H   0  0  0  0  0  0  0  0  0  0  0  0
    0.5594   25.0420  -26.6995 H   0  0  0  0  0  0  0  0  0  0  0  0
    0.2945   22.8964  -28.7306 H   0  0  0  0  0  0  0  0  0  0  0  0
    0.2008   22.8233  -26.9250 H   0  0  0  0  0  0  0  0  0  0  0  0
   -4.8758   21.1753  -31.5503 H   0  0  0  0  0  0  0  0  0  0  0  0
  1  2  1  0
  2  3  1  0
  3  4  2  0
  4  5  1  0
  5  6  2  0
  6  7  1  0
  7  8  2  0
  8  9  1  0
  8 10  1  0
 10 11  1  0
 11 12  2  0
 11 13  2  0
 11 14  1  0
 14 15  1  0
 15 16  1  0
 16 17  1  0
 17 18  1  0
 18 19  1  0
 19 20  1  0
 20 21  1  0
 21 22  1  0
 10 23  2  0
  4 24  1  0
 24 25  1  0
 25  2  2  0
 23  5  1  0
 22 17  1  0
  1 26  1  0
  1 27  1  0
  1 28  1  0
  3 29  1  0
  6 30  1  0
  7 31  1  0
  9 32  1  0
 15 33  1  0
 15 34  1  0
 16 35  1  0
 16 36  1  0
 18 37  1  0
 18 38  1  0
 19 39  1  0
 19 40  1  0
 21 41  1  0
 21 42  1  0
 22 43  1  0
 22 44  1  0
 23 45  1  0
M  CHG  1  14  -1
M  END
>  <UniqueID>  (6) 
6

>  <SMILES>  (6) 
Cc1cc(-c2ccc(O)c(S(=O)(=O)[N-]CCN3CCOCC3)c2)on1

>  <Energy>  (6) 
86.11079371669969

>  <Genealogy>  (6) 
Cc1cc(-c2ccc(O)c(S(=O)(=O)[N-]CCN3CCOCC3)c2)on1 (protonated)
Cc1cc(-c2ccc(O)c(S(=O)(=O)[N-]CCN3CCOCC3)c2)on1 (3D coordinates assigned)
Cc1cc(-c2ccc(O)c(S(=O)(=O)[N-]CCN3CCOCC3)c2)on1 (nonaromatic ring conformer: 86.11079371669969 kcal/mol)

>  <smiles>  (6) 
Cc1cc(-c2ccc(O)c(S(=O)(=O)NCCN3CCOCC3)c2)on1

>  <score_type>  (6) 
oracle

>  <origin>  (6) 
adgpu

>  <m_score__min__energy>  (6) 
-9.6600000000000001

>  <m_primary>  (6) 
energy

$$$$
6:0
     RDKit          3D

 68 72  0  0  0  0  0  0  0  0999 V2000
    1.0260   23.7600  -36.0150 C   0  0  0  0  0  0  0  0  0  0  0  0
    1.1420   22.7430  -35.0250 O   0  0  0  0  0  0  0  0  0  0  0  0
    1.1220   21.3670  -35.3040 C   0  0  0  0  0  0  0  0  0  0  0  0
    1.8270   20.4270  -34.5270 C   0  0  0  0  0  0  0  0  0  0  0  0
    1.7640   19.0630  -34.8370 C   0  0  0  0  0  0  0  0  0  0  0  0
    0.9870   18.6170  -35.9130 C   0  0  0  0  0  0  0  0  0  0  0  0
    0.8330   17.1430  -36.1790 C   0  0  0  0  0  0  0  0  0  0  0  0
    0.7710   16.3360  -34.8740 C   0  0  0  0  0  0  0  0  0  0  0  0
   -0.2970   16.8270  -33.9910 N   0  0  0  0  0  0  0  0  0  0  0  0
   -0.1370   17.3890  -32.7660 C   0  0  0  0  0  0  0  0  0  0  0  0
    1.1610   17.4890  -32.0270 C   0  0  0  0  0  0  0  0  0  0  0  0
   -1.3530   17.8060  -32.2620 C   0  0  0  0  0  0  0  0  0  0  0  0
   -2.2980   17.4810  -33.2170 C   0  0  0  0  0  0  0  0  0  0  0  0
   -3.7540   17.7190  -33.1240 C   0  0  0  0  0  0  0  0  0  0  0  0
   -4.2590   19.0020  -32.8200 C   0  0  0  0  0  0  0  0  0  0  0  0
   -3.3570   20.1130  -32.6640 N   0  0  0  0  0  0  0  0  0  0  0  0
   -2.6030   20.5670  -33.8440 C   0  0  0  0  0  0  0  0  0  0  0  0
   -1.4720   21.5480  -33.4910 C   0  0  0  0  0  0  0  0  0  0  0  0
   -1.0340   21.3760  -32.1590 O   0  0  0  0  0  0  0  0  0  0  0  0
   -2.0830   21.7450  -31.2870 C   0  0  0  0  0  0  0  0  0  0  0  0
   -3.2000   20.7010  -31.3250 C   0  0  0  0  0  0  0  0  0  0  0  0
   -5.6490   19.1790  -32.6590 C   0  0  0  0  0  0  0  0  0  0  0  0
   -6.2020   20.4240  -32.3010 C   0  0  0  0  0  0  0  0  0  0  0  0
   -7.5880   20.5760  -32.1560 C   0  0  0  0  0  0  0  0  0  0  0  0
   -8.1610   21.8980  -31.7420 C   0  0  0  0  0  0  0  0  0  0  0  0
   -8.4280   19.4670  -32.3350 C   0  0  0  0  0  0  0  0  0  0  0  0
   -7.8920   18.2260  -32.6820 C   0  0  0  0  0  0  0  0  0  0  0  0
   -6.5080   18.0690  -32.8440 C   0  0  0  0  0  0  0  0  0  0  0  0
   -5.9900   16.8490  -33.1630 N   0  0  0  0  0  0  0  0  0  0  0  0
   -4.6510   16.6500  -33.2930 C   0  0  0  0  0  0  0  0  0  0  0  0
   -4.2190   15.4950  -33.5720 O   0  0  0  0  0  0  0  0  0  0  0  0
   -1.6240   16.8750  -34.2660 C   0  0  0  0  0  0  0  0  0  0  0  0
   -2.2760   16.3660  -35.5240 C   0  0  0  0  0  0  0  0  0  0  0  0
    0.2890   19.5560  -36.6890 C   0  0  0  0  0  0  0  0  0  0  0  0
    0.3670   20.9190  -36.3920 C   0  0  0  0  0  0  0  0  0  0  0  0
    0.9144   24.7382  -35.5244 H   0  0  0  0  0  0  0  0  0  0  0  0
    1.9293   23.7655  -36.6426 H   0  0  0  0  0  0  0  0  0  0  0  0
    0.1446   23.5619  -36.6426 H   0  0  0  0  0  0  0  0  0  0  0  0
    2.4303   20.7664  -33.6721 H   0  0  0  0  0  0  0  0  0  0  0  0
    2.3280   18.3379  -34.2319 H   0  0  0  0  0  0  0  0  0  0  0  0
   -0.0954   16.9776  -36.7453 H   0  0  0  0  0  0  0  0  0  0  0  0
    1.7086   16.8037  -36.7518 H   0  0  0  0  0  0  0  0  0  0  0  0
    0.5793   15.2799  -35.1148 H   0  0  0  0  0  0  0  0  0  0  0  0
    1.7322   16.4483  -34.3510 H   0  0  0  0  0  0  0  0  0  0  0  0
    0.9685   17.4742  -30.9441 H   0  0  0  0  0  0  0  0  0  0  0  0
    1.8032   16.6377  -32.2969 H   0  0  0  0  0  0  0  0  0  0  0  0
    1.6652   18.4286  -32.2969 H   0  0  0  0  0  0  0  0  0  0  0  0
   -1.5334   18.2980  -31.2948 H   0  0  0  0  0  0  0  0  0  0  0  0
   -2.1637   19.6884  -34.3391 H   0  0  0  0  0  0  0  0  0  0  0  0
   -3.3072   21.0980  -34.5013 H   0  0  0  0  0  0  0  0  0  0  0  0
   -0.6246   21.3760  -34.1709 H   0  0  0  0  0  0  0  0  0  0  0  0
   -1.8581   22.5725  -33.5976 H   0  0  0  0  0  0  0  0  0  0  0  0
   -1.6922   21.8206  -30.2615 H   0  0  0  0  0  0  0  0  0  0  0  0
   -2.4900   22.7149  -31.6088 H   0  0  0  0  0  0  0  0  0  0  0  0
   -2.9617   19.8993  -30.6105 H   0  0  0  0  0  0  0  0  0  0  0  0
   -4.1431   21.2015  -31.0602 H   0  0  0  0  0  0  0  0  0  0  0  0
   -5.5394   21.2859  -32.1335 H   0  0  0  0  0  0  0  0  0  0  0  0
   -8.1872   21.9586  -30.6440 H   0  0  0  0  0  0  0  0  0  0  0  0
   -7.5340   22.7099  -32.1391 H   0  0  0  0  0  0  0  0  0  0  0  0
   -9.1822   21.9956  -32.1391 H   0  0  0  0  0  0  0  0  0  0  0  0
   -9.5144   19.5760  -32.2012 H   0  0  0  0  0  0  0  0  0  0  0  0
   -8.5601   17.3647  -32.8295 H   0  0  0  0  0  0  0  0  0  0  0  0
   -6.6340   16.0330  -33.2960 H   0  0  0  0  0  0  0  0  0  0  0  0
   -3.1178   15.7088  -35.2606 H   0  0  0  0  0  0  0  0  0  0  0  0
   -2.6459   17.2166  -36.1153 H   0  0  0  0  0  0  0  0  0  0  0  0
   -1.5406   15.8007  -36.1153 H   0  0  0  0  0  0  0  0  0  0  0  0
   -0.3237   19.2161  -37.5370 H   0  0  0  0  0  0  0  0  0  0  0  0
   -0.1701   21.6456  -37.0194 H   0  0  0  0  0  0  0  0  0  0  0  0
  1  2  1  0
  2  3  1  0
  3  4  2  0
  4  5  1  0
  5  6  2  0
  6  7  1  0
  7  8  1  0
  8  9  1  0
  9 10  1  0
 10 11  1  0
 10 12  2  0
 12 13  1  0
 13 14  1  0
 14 15  2  0
 15 16  1  0
 16 17  1  0
 17 18  1  0
 18 19  1  0
 19 20  1  0
 20 21  1  0
 15 22  1  0
 22 23  2  0
 23 24  1  0
 24 25  1  0
 24 26  2  0
 26 27  1  0
 27 28  2  0
 28 29  1  0
 29 30  1  0
 30 31  2  0
 13 32  2  0
 32 33  1  0
  6 34  1  0
 34 35  2  0
 35  3  1  0
 32  9  1  0
 30 14  1  0
 21 16  1  0
 28 22  1  0
  1 36  1  0
  1 37  1  0
  1 38  1  0
  4 39  1  0
  5 40  1  0
  7 41  1  0
  7 42  1  0
  8 43  1  0
  8 44  1  0
 11 45  1  0
 11 46  1  0
 11 47  1  0
 12 48  1  0
 17 49  1  0
 17 50  1  0
 18 51  1  0
 18 52  1  0
 20 53  1  0
 20 54  1  0
 21 55  1  0
 21 56  1  0
 23 57  1  0
 25 58  1  0
 25 59  1  0
 25 60  1  0
 26 61  1  0
 27 62  1  0
 29 63  1  0
 33 64  1  0
 33 65  1  0
 33 66  1  0
 34 67  1  0
 35 68  1  0
M  END
>  <UniqueID>  (7) 
7

>  <SMILES>  (7) 
COc1ccc(CCn2c(C)cc(-c3c(N4CCOCC4)c4cc(C)ccc4[nH]c3=O)c2C)cc1

>  <Energy>  (7) 
111.73901962793006

>  <Genealogy>  (7) 
COc1ccc(CCn2c(C)cc(-c3c(N4CCOCC4)c4cc(C)ccc4[nH]c3=O)c2C)cc1 (3D coordinates assigned)
COc1ccc(CCn2c(C)cc(-c3c(N4CCOCC4)c4cc(C)ccc4[nH]c3=O)c2C)cc1 (nonaromatic ring conformer: 111.73901962793006 kcal/mol)

>  <smiles>  (7) 
COc1ccc(CCn2c(C)cc(-c3c(N4CCOCC4)c4cc(C)ccc4[nH]c3=O)c2C)cc1

>  <score_type>  (7) 
oracle

>  <origin>  (7) 
adgpu

>  <m_score__min__energy>  (7) 
-9.7400000000000002

>  <m_primary>  (7) 
energy

$$$$
7:0
     RDKit          3D

 43 45  0  0  0  0  0  0  0  0999 V2000
   -3.8670   26.0430  -30.1060 H   0  0  0  0  0  0  0  0  0  0  0  0
   -4.1890   25.3140  -30.7820 N   0  0  0  0  0  0  0  0  0  0  0  0
   -3.9560   23.7800  -30.0200 S   0  0  0  0  0  0  0  0  0  0  0  0
   -5.2770   23.0670  -29.9540 O   0  0  0  0  0  0  0  0  0  0  0  0
   -3.4310   23.9880  -28.6280 O   0  0  0  0  0  0  0  0  0  0  0  0
   -2.8030   22.8240  -30.9450 C   0  0  0  0  0  0  0  0  0  0  0  0
   -1.4970   22.6370  -30.4720 C   0  0  0  0  0  0  0  0  0  0  0  0
   -1.1910   23.0848  -29.5150 H   0  0  0  0  0  0  0  0  0  0  0  0
   -0.5820   21.8830  -31.2130 C   0  0  0  0  0  0  0  0  0  0  0  0
    0.4453   21.7530  -30.8418 H   0  0  0  0  0  0  0  0  0  0  0  0
   -0.9630   21.2920  -32.4240 C   0  0  0  0  0  0  0  0  0  0  0  0
    0.0140   20.5460  -33.1680 N   0  0  0  0  0  0  0  0  0  0  0  0
    0.7410   20.9860  -34.1540 C   0  0  0  0  0  0  0  0  0  0  0  0
    1.6600   20.1620  -34.7200 N   0  0  0  0  0  0  0  0  0  0  0  0
    2.4250   20.5710  -35.7650 C   0  0  0  0  0  0  0  0  0  0  0  0
    3.4510   19.6490  -36.3420 C   0  0  0  0  0  0  0  0  0  0  0  0
    4.0003   19.1554  -35.5267 H   0  0  0  0  0  0  0  0  0  0  0  0
    2.9534   18.8886  -36.9619 H   0  0  0  0  0  0  0  0  0  0  0  0
    4.1541   20.2247  -36.9619 H   0  0  0  0  0  0  0  0  0  0  0  0
    2.2710   21.8650  -36.2740 C   0  0  0  0  0  0  0  0  0  0  0  0
    2.8965   22.2176  -37.1073 H   0  0  0  0  0  0  0  0  0  0  0  0
    1.3030   22.7050  -35.7010 C   0  0  0  0  0  0  0  0  0  0  0  0
    1.0740   24.0890  -36.1910 C   0  0  0  0  0  0  0  0  0  0  0  0
    2.1660   24.9590  -36.3670 C   0  0  0  0  0  0  0  0  0  0  0  0
    3.1844   24.6064  -36.1468 H   0  0  0  0  0  0  0  0  0  0  0  0
    1.9690   26.2670  -36.8190 C   0  0  0  0  0  0  0  0  0  0  0  0
    2.8325   26.9332  -36.9622 H   0  0  0  0  0  0  0  0  0  0  0  0
    0.6770   26.7320  -37.0900 C   0  0  0  0  0  0  0  0  0  0  0  0
    0.4300   28.3760  -37.6740 S   0  0  0  0  0  0  0  0  0  0  0  0
    1.4320   28.6900  -38.7500 O   0  0  0  0  0  0  0  0  0  0  0  0
    0.6170   29.3490  -36.5440 O   0  0  0  0  0  0  0  0  0  0  0  0
   -1.1680   28.5300  -38.3120 N   0  0  0  0  0  0  0  0  0  0  0  0
   -1.6430   29.2860  -37.7690 H   0  0  0  0  0  0  0  0  0  0  0  0
   -1.0740   28.8770  -39.2920 H   0  0  0  0  0  0  0  0  0  0  0  0
   -0.4160   25.8770  -36.9130 C   0  0  0  0  0  0  0  0  0  0  0  0
   -1.4327   26.2366  -37.1298 H   0  0  0  0  0  0  0  0  0  0  0  0
   -0.2230   24.5680  -36.4620 C   0  0  0  0  0  0  0  0  0  0  0  0
   -1.0903   23.9069  -36.3176 H   0  0  0  0  0  0  0  0  0  0  0  0
    0.5680   22.2410  -34.6540 N   0  0  0  0  0  0  0  0  0  0  0  0
   -2.2630   21.5160  -32.9170 C   0  0  0  0  0  0  0  0  0  0  0  0
   -2.5603   21.0962  -33.8893 H   0  0  0  0  0  0  0  0  0  0  0  0
   -3.1770   22.2700  -32.1750 C   0  0  0  0  0  0  0  0  0  0  0  0
   -4.1953   22.4288  -32.5597 H   0  0  0  0  0  0  0  0  0  0  0  0
  1  2  1  0
  2  3  1  0
  3  4  2  0
  3  5  2  0
  3  6  1  0
  6  7  2  0
  7  8  1  0
  7  9  1  0
  9 10  1  0
  9 11  2  0
 11 12  1  0
 12 13  2  0
 13 14  1  0
 14 15  2  0
 15 16  1  0
 16 17  1  0
 16 18  1  0
 16 19  1  0
 15 20  1  0
 20 21  1  0
 20 22  2  0
 22 23  1  0
 23 24  2  0
 24 25  1  0
 24 26  1  0
 26 27  1  0
 26 28  2  0
 28 29  1  0
 29 30  2  0
 29 31  2  0
 29 32  1  0
 32 33  1  0
 32 34  1  0
 28 35  1  0
 35 36  1  0
 35 37  2  0
 37 38  1  0
 22 39  1  0
 11 40  1  0
 40 41  1  0
 40 42  2  0
 42 43  1  0
 42  6  1  0
 39 13  1  0
 37 23  1  0
M  CHG  2   2  -1  39  -1
M  END
>  <UniqueID>  (8) 
8

>  <SMILES>  (8) 
Cc1cc(-c2ccc(S(N)(=O)=O)cc2)[n-]/c(=N\c2ccc(S([NH-])(=O)=O)cc2)n1

>  <Energy>  (8) 
52.91739515891811

>  <Genealogy>  (8) 
Cc1cc(-c2ccc(S(N)(=O)=O)cc2)[n-]c(=Nc2ccc(S([NH-])(=O)=O)cc2)n1 (protonated)
Cc1cc(-c2ccc(S(N)(=O)=O)cc2)[n-]/c(=N\c2ccc(S([NH-])(=O)=O)cc2)n1 (cis-trans isomerization)
Cc1cc(-c2ccc(S(N)(=O)=O)cc2)[n-]/c(=N\c2ccc(S([NH-])(=O)=O)cc2)n1 (3D coordinates assigned)
Cc1cc(-c2ccc(S(N)(=O)=O)cc2)[n-]/c(=N\c2ccc(S([NH-])(=O)=O)cc2)n1 (optimized conformer: 52.91739515891811 kcal/mol)

>  <smiles>  (8) 
Cc1cc(-c2ccc(S(N)(=O)=O)cc2)[nH]c(=Nc2ccc(S(N)(=O)=O)cc2)n1

>  <score_type>  (8) 
oracle

>  <origin>  (8) 
adgpu

>  <m_score__min__energy>  (8) 
-10.84

>  <m_primary>  (8) 
energy

$$$$
8:0
     RDKit          3D

 56 59  0  0  0  0  0  0  0  0999 V2000
   -0.9920   21.1690  -34.1280 C   0  0  0  0  0  0  0  0  0  0  0  0
   -1.0560   20.8950  -32.6940 N   0  0  0  0  0  0  0  0  0  0  0  0
   -0.0790   21.1680  -31.8070 C   0  0  0  0  0  0  0  0  0  0  0  0
   -0.4590   20.7600  -30.5450 C   0  0  0  0  0  0  0  0  0  0  0  0
   -1.7210   20.2140  -30.6680 C   0  0  0  0  0  0  0  0  0  0  0  0
   -2.0670   20.3150  -32.0040 C   0  0  0  0  0  0  0  0  0  0  0  0
   -3.3420   19.8350  -32.5740 C   0  0  0  0  0  0  0  0  0  0  0  0
   -3.5960   18.6020  -32.6250 O   0  0  0  0  0  0  0  0  0  0  0  0
   -4.2810   20.7810  -33.0970 N   0  0  0  0  0  0  0  0  0  0  0  0
   -5.2270   21.5080  -32.3020 C   0  0  0  0  0  0  0  0  0  0  0  0
   -4.7560   22.5560  -31.5020 C   0  0  0  0  0  0  0  0  0  0  0  0
   -5.6390   23.3180  -30.7290 C   0  0  0  0  0  0  0  0  0  0  0  0
   -5.0240   24.6610  -29.7680 S   0  0  0  0  0  0  0  0  0  0  0  0
   -6.1110   25.6930  -29.6400 O   0  0  0  0  0  0  0  0  0  0  0  0
   -3.8510   25.2890  -30.4730 O   0  0  0  0  0  0  0  0  0  0  0  0
   -4.5560   24.0730  -28.1850 N   0  0  0  0  0  0  0  0  0  0  0  0
   -3.2440   24.6120  -27.7730 C   0  0  0  0  0  0  0  0  0  0  0  0
   -2.0740   23.9590  -28.5470 C   0  0  0  0  0  0  0  0  0  0  0  0
   -2.4180   22.7350  -29.1730 O   0  0  0  0  0  0  0  0  0  0  0  0
   -3.2080   21.9500  -28.3080 C   0  0  0  0  0  0  0  0  0  0  0  0
   -4.5940   22.5910  -28.1150 C   0  0  0  0  0  0  0  0  0  0  0  0
   -7.0070   23.0230  -30.7500 C   0  0  0  0  0  0  0  0  0  0  0  0
   -7.4840   21.9590  -31.5190 C   0  0  0  0  0  0  0  0  0  0  0  0
   -6.6040   21.1840  -32.2900 C   0  0  0  0  0  0  0  0  0  0  0  0
   -7.1060   20.0250  -32.9820 N   0  0  0  0  0  0  0  0  0  0  0  0
   -6.4780   19.5570  -34.2180 C   0  0  0  0  0  0  0  0  0  0  0  0
   -6.0710   18.0910  -34.0420 C   0  0  0  0  0  0  0  0  0  0  0  0
   -7.1750   17.3090  -33.6180 O   0  0  0  0  0  0  0  0  0  0  0  0
   -7.6060   17.7290  -32.3350 C   0  0  0  0  0  0  0  0  0  0  0  0
   -8.1320   19.1670  -32.3840 C   0  0  0  0  0  0  0  0  0  0  0  0
   -0.7445   22.2288  -34.2881 H   0  0  0  0  0  0  0  0  0  0  0  0
   -0.2171   20.5380  -34.5876 H   0  0  0  0  0  0  0  0  0  0  0  0
   -1.9663   20.9465  -34.5876 H   0  0  0  0  0  0  0  0  0  0  0  0
    0.8807   21.6460  -32.0530 H   0  0  0  0  0  0  0  0  0  0  0  0
    0.1294   20.8519  -29.6202 H   0  0  0  0  0  0  0  0  0  0  0  0
   -2.3322   19.7828  -29.8614 H   0  0  0  0  0  0  0  0  0  0  0  0
   -3.6799   22.7829  -31.4809 H   0  0  0  0  0  0  0  0  0  0  0  0
   -5.2700   24.4460  -27.5160 H   0  0  0  0  0  0  0  0  0  0  0  0
   -3.2316   25.6958  -27.9607 H   0  0  0  0  0  0  0  0  0  0  0  0
   -3.1080   24.3889  -26.7045 H   0  0  0  0  0  0  0  0  0  0  0  0
   -1.7349   24.6622  -29.3220 H   0  0  0  0  0  0  0  0  0  0  0  0
   -1.2877   23.7341  -27.8114 H   0  0  0  0  0  0  0  0  0  0  0  0
   -3.3303   20.9460  -28.7404 H   0  0  0  0  0  0  0  0  0  0  0  0
   -2.7073   21.8830  -27.3308 H   0  0  0  0  0  0  0  0  0  0  0  0
   -5.2662   22.2189  -28.9022 H   0  0  0  0  0  0  0  0  0  0  0  0
   -4.9499   22.3154  -27.1113 H   0  0  0  0  0  0  0  0  0  0  0  0
   -7.7083   23.6307  -30.1594 H   0  0  0  0  0  0  0  0  0  0  0  0
   -8.5591   21.7264  -31.5203 H   0  0  0  0  0  0  0  0  0  0  0  0
   -7.1910   19.6450  -35.0510 H   0  0  0  0  0  0  0  0  0  0  0  0
   -5.5898   20.1669  -34.4394 H   0  0  0  0  0  0  0  0  0  0  0  0
   -5.7010   17.7018  -35.0020 H   0  0  0  0  0  0  0  0  0  0  0  0
   -5.2835   18.0334  -33.2761 H   0  0  0  0  0  0  0  0  0  0  0  0
   -8.4092   17.0624  -31.9878 H   0  0  0  0  0  0  0  0  0  0  0  0
   -6.7510   17.6887  -31.6441 H   0  0  0  0  0  0  0  0  0  0  0  0
   -9.0471   19.2054  -32.9932 H   0  0  0  0  0  0  0  0  0  0  0  0
   -8.3637   19.5150  -31.3666 H   0  0  0  0  0  0  0  0  0  0  0  0
  1  2  1  0
  2  3  1  0
  3  4  2  0
  4  5  1  0
  5  6  2  0
  6  7  1  0
  7  8  2  0
  7  9  1  0
  9 10  1  0
 10 11  2  0
 11 12  1  0
 12 13  1  0
 13 14  2  0
 13 15  2  0
 13 16  1  0
 16 17  1  0
 17 18  1  0
 18 19  1  0
 19 20  1  0
 20 21  1  0
 12 22  2  0
 22 23  1  0
 23 24  2  0
 24 25  1  0
 25 26  1  0
 26 27  1  0
 27 28  1  0
 28 29  1  0
 29 30  1  0
  6  2  1  0
 24 10  1  0
 30 25  1  0
 21 16  1  0
  1 31  1  0
  1 32  1  0
  1 33  1  0
  3 34  1  0
  4 35  1  0
  5 36  1  0
 11 37  1  0
 16 38  1  0
 17 39  1  0
 17 40  1  0
 18 41  1  0
 18 42  1  0
 20 43  1  0
 20 44  1  0
 21 45  1  0
 21 46  1  0
 22 47  1  0
 23 48  1  0
 26 49  1  0
 26 50  1  0
 27 51  1  0
 27 52  1  0
 29 53  1  0
 29 54  1  0
 30 55  1  0
 30 56  1  0
M  CHG  2   9  -1  16   1
M  END
>  <UniqueID>  (9) 
9

>  <SMILES>  (9) 
Cn1cccc1C(=O)[N-]c1cc(S(=O)(=O)[NH+]2CCOCC2)ccc1N1CCOCC1

>  <Energy>  (9) 
105.29154475485227

>  <Genealogy>  (9) 
Cn1cccc1C(=O)[N-]c1cc(S(=O)(=O)[NH+]2CCOCC2)ccc1N1CCOCC1 (protonated)
Cn1cccc1C(=O)[N-]c1cc(S(=O)(=O)[NH+]2CCOCC2)ccc1N1CCOCC1 (3D coordinates assigned)
Cn1cccc1C(=O)[N-]c1cc(S(=O)(=O)[NH+]2CCOCC2)ccc1N1CCOCC1 (nonaromatic ring conformer: 105.29154475485227 kcal/mol)

>  <smiles>  (9) 
Cn1cccc1C(=O)Nc1cc(S(=O)(=O)N2CCOCC2)ccc1N1CCOCC1

>  <score_type>  (9) 
oracle

>  <origin>  (9) 
adgpu

>  <m_score__min__energy>  (9) 
-8.9399999999999995

>  <m_primary>  (9) 
energy

$$$$
9:0
     RDKit          3D

 63 67  0  0  0  0  0  0  0  0999 V2000
   -9.8450   21.5430  -31.7330 C   0  0  0  0  0  0  0  0  0  0  0  0
   -8.5610   21.8400  -30.9660 C   0  0  0  0  0  0  0  0  0  0  0  0
   -7.3390   21.3420  -31.7040 C   0  0  0  0  0  0  0  0  0  0  0  0
   -7.3400   20.0320  -32.0630 N   0  0  0  0  0  0  0  0  0  0  0  0
   -6.3140   19.4690  -32.7380 C   0  0  0  0  0  0  0  0  0  0  0  0
   -6.3640   18.1130  -33.0860 C   0  0  0  0  0  0  0  0  0  0  0  0
   -5.3050   17.5330  -33.7900 C   0  0  0  0  0  0  0  0  0  0  0  0
   -4.1960   18.3040  -34.1490 C   0  0  0  0  0  0  0  0  0  0  0  0
   -4.1410   19.6580  -33.8030 C   0  0  0  0  0  0  0  0  0  0  0  0
   -5.2040   20.2490  -33.0930 C   0  0  0  0  0  0  0  0  0  0  0  0
   -5.1970   21.6020  -32.7160 C   0  0  0  0  0  0  0  0  0  0  0  0
   -4.2060   22.3250  -33.0250 O   0  0  0  0  0  0  0  0  0  0  0  0
   -6.2500   22.1390  -32.0110 N   0  0  0  0  0  0  0  0  0  0  0  0
   -6.1600   23.5590  -31.5930 C   0  0  0  0  0  0  0  0  0  0  0  0
   -5.1980   23.7580  -30.4410 C   0  0  0  0  0  0  0  0  0  0  0  0
   -5.2540   22.8830  -29.3450 C   0  0  0  0  0  0  0  0  0  0  0  0
   -4.3450   23.0050  -28.2910 C   0  0  0  0  0  0  0  0  0  0  0  0
   -3.3590   23.9970  -28.3220 C   0  0  0  0  0  0  0  0  0  0  0  0
   -2.3820   24.1070  -27.2230 C   0  0  0  0  0  0  0  0  0  0  0  0
   -2.4850   25.1920  -26.3410 C   0  0  0  0  0  0  0  0  0  0  0  0
   -1.5780   25.3370  -25.2900 C   0  0  0  0  0  0  0  0  0  0  0  0
   -0.5590   24.4000  -25.1130 C   0  0  0  0  0  0  0  0  0  0  0  0
   -0.4460   23.3140  -25.9820 C   0  0  0  0  0  0  0  0  0  0  0  0
   -1.3550   23.1500  -27.0410 C   0  0  0  0  0  0  0  0  0  0  0  0
   -1.1990   21.7440  -28.1070 S   0  0  0  0  0  0  0  0  0  0  0  0
   -2.5240   21.0360  -28.1790 O   0  0  0  0  0  0  0  0  0  0  0  0
   -0.1640   20.7920  -27.5760 O   0  0  0  0  0  0  0  0  0  0  0  0
   -0.7210   22.2790  -29.6830 N   0  0  0  0  0  0  0  0  0  0  0  0
   -1.4910   22.0220  -30.8610 C   0  0  0  0  0  0  0  0  0  0  0  0
   -2.5150   22.7190  -31.0990 O   0  0  0  0  0  0  0  0  0  0  0  0
   -1.0780   20.9440  -31.7960 C   0  0  0  0  0  0  0  0  0  0  0  0
   -1.0680   21.1960  -33.1830 C   0  0  0  0  0  0  0  0  0  0  0  0
   -0.7030   20.1960  -34.0870 C   0  0  0  0  0  0  0  0  0  0  0  0
   -0.3390   18.9310  -33.6230 C   0  0  0  0  0  0  0  0  0  0  0  0
   -0.3360   18.6640  -32.2530 C   0  0  0  0  0  0  0  0  0  0  0  0
   -0.7020   19.6590  -31.3340 C   0  0  0  0  0  0  0  0  0  0  0  0
   -0.6880   19.3660  -29.9700 O   0  0  0  0  0  0  0  0  0  0  0  0
   -3.3010   24.8780  -29.4070 C   0  0  0  0  0  0  0  0  0  0  0  0
   -4.2000   24.7490  -30.4690 C   0  0  0  0  0  0  0  0  0  0  0  0
  -10.6620   21.3540  -31.0211 H   0  0  0  0  0  0  0  0  0  0  0  0
  -10.1020   22.4054  -32.3656 H   0  0  0  0  0  0  0  0  0  0  0  0
   -9.6972   20.6553  -32.3656 H   0  0  0  0  0  0  0  0  0  0  0  0
   -8.4736   22.9275  -30.8253 H   0  0  0  0  0  0  0  0  0  0  0  0
   -8.6122   21.3194  -29.9984 H   0  0  0  0  0  0  0  0  0  0  0  0
   -7.2365   17.5048  -32.8053 H   0  0  0  0  0  0  0  0  0  0  0  0
   -5.3445   16.4679  -34.0620 H   0  0  0  0  0  0  0  0  0  0  0  0
   -3.3649   17.8451  -34.7047 H   0  0  0  0  0  0  0  0  0  0  0  0
   -3.2663   20.2621  -34.0858 H   0  0  0  0  0  0  0  0  0  0  0  0
   -5.8163   24.1587  -32.4487 H   0  0  0  0  0  0  0  0  0  0  0  0
   -7.1585   23.8751  -31.2566 H   0  0  0  0  0  0  0  0  0  0  0  0
   -6.0202   22.0943  -29.3156 H   0  0  0  0  0  0  0  0  0  0  0  0
   -4.4048   22.3185  -27.4336 H   0  0  0  0  0  0  0  0  0  0  0  0
   -3.2857   25.9337  -26.4782 H   0  0  0  0  0  0  0  0  0  0  0  0
   -1.6664   26.1900  -24.6011 H   0  0  0  0  0  0  0  0  0  0  0  0
    0.1570   24.5178  -24.2863 H   0  0  0  0  0  0  0  0  0  0  0  0
    0.3609   22.5806  -25.8369 H   0  0  0  0  0  0  0  0  0  0  0  0
   -1.3507   22.1910  -33.5573 H   0  0  0  0  0  0  0  0  0  0  0  0
   -0.7024   20.4058  -35.1668 H   0  0  0  0  0  0  0  0  0  0  0  0
   -0.0544   18.1442  -34.3372 H   0  0  0  0  0  0  0  0  0  0  0  0
   -0.0447   17.6668  -31.8914 H   0  0  0  0  0  0  0  0  0  0  0  0
   -0.9090   20.0670  -29.2750 H   0  0  0  0  0  0  0  0  0  0  0  0
   -2.5442   25.6761  -29.4243 H   0  0  0  0  0  0  0  0  0  0  0  0
   -4.1268   25.4267  -31.3324 H   0  0  0  0  0  0  0  0  0  0  0  0
  1  2  1  0
  2  3  1  0
  3  4  2  0
  4  5  1  0
  5  6  2  0
  6  7  1  0
  7  8  2  0
  8  9  1  0
  9 10  2  0
 10 11  1  0
 11 12  2  0
 11 13  1  0
 13 14  1  0
 14 15  1  0
 15 16  2  0
 16 17  1  0
 17 18  2  0
 18 19  1  0
 19 20  2  0
 20 21  1  0
 21 22  2  0
 22 23  1  0
 23 24  2  0
 24 25  1  0
 25 26  2  0
 25 27  2  0
 25 28  1  0
 28 29  1  0
 29 30  2  0
 29 31  1  0
 31 32  2  0
 32 33  1  0
 33 34  2  0
 34 35  1  0
 35 36  2  0
 36 37  1  0
 18 38  1  0
 38 39  2  0
 13  3  1  0
 39 15  1  0
 10  5  1  0
 24 19  1  0
 36 31  1  0
  1 40  1  0
  1 41  1  0
  1 42  1  0
  2 43  1  0
  2 44  1  0
  6 45  1  0
  7 46  1  0
  8 47  1  0
  9 48  1  0
 14 49  1  0
 14 50  1  0
 16 51  1  0
 17 52  1  0
 20 53  1  0
 21 54  1  0
 22 55  1  0
 23 56  1  0
 32 57  1  0
 33 58  1  0
 34 59  1  0
 35 60  1  0
 37 61  1  0
 38 62  1  0
 39 63  1  0
M  CHG  1  28  -1
M  END
>  <UniqueID>  (10) 
10

>  <SMILES>  (10) 
CCc1nc2ccccc2c(=O)n1Cc1ccc(-c2ccccc2S(=O)(=O)[N-]C(=O)c2ccccc2O)cc1

>  <Energy>  (10) 
86.41118322943143

>  <Genealogy>  (10) 
CCc1nc2ccccc2c(=O)n1Cc1ccc(-c2ccccc2S(=O)(=O)[N-]C(=O)c2ccccc2O)cc1 (protonated)
CCc1nc2ccccc2c(=O)n1Cc1ccc(-c2ccccc2S(=O)(=O)[N-]C(=O)c2ccccc2O)cc1 (3D coordinates assigned)
CCc1nc2ccccc2c(=O)n1Cc1ccc(-c2ccccc2S(=O)(=O)[N-]C(=O)c2ccccc2O)cc1 (optimized conformer: 86.41118322943143 kcal/mol)

>  <smiles>  (10) 
CCc1nc2ccccc2c(=O)n1Cc1ccc(-c2ccccc2S(=O)(=O)NC(=O)c2ccccc2O)cc1

>  <score_type>  (10) 
oracle

>  <origin>  (10) 
adgpu

>  <m_score__min__energy>  (10) 
-12.949999999999999

>  <m_primary>  (10) 
energy

$$$$
10:0
     RDKit          3D

 29 30  0  0  0  0  0  0  0  0999 V2000
   -7.4900   22.9200  -30.4530 C   0  0  0  0  0  0  0  0  0  0  0  0
   -7.4930   22.7330  -32.2630 S   0  0  0  0  0  0  0  0  0  0  0  0
   -7.6040   20.9370  -32.1980 C   0  0  0  0  0  0  0  0  0  0  0  0
   -8.7550   20.3570  -31.6500 C   0  0  0  0  0  0  0  0  0  0  0  0
   -8.9120   18.9690  -31.6430 C   0  0  0  0  0  0  0  0  0  0  0  0
   -7.9220   18.1520  -32.1940 C   0  0  0  0  0  0  0  0  0  0  0  0
   -6.7680   18.7200  -32.7390 C   0  0  0  0  0  0  0  0  0  0  0  0
   -6.5850   20.1090  -32.7220 C   0  0  0  0  0  0  0  0  0  0  0  0
   -5.3900   20.6500  -33.2990 N   0  0  0  0  0  0  0  0  0  0  0  0
   -4.5850   21.6790  -32.7140 C   0  0  0  0  0  0  0  0  0  0  0  0
   -3.7780   22.3070  -33.4490 O   0  0  0  0  0  0  0  0  0  0  0  0
   -4.6890   21.9900  -31.3120 N   0  0  0  0  0  0  0  0  0  0  0  0
   -3.8920   22.9900  -30.6540 C   0  0  0  0  0  0  0  0  0  0  0  0
   -2.7910   22.6450  -29.8540 C   0  0  0  0  0  0  0  0  0  0  0  0
   -2.0790   23.6130  -29.2230 N   0  0  0  0  0  0  0  0  0  0  0  0
   -2.4180   24.9230  -29.3430 C   0  0  0  0  0  0  0  0  0  0  0  0
   -1.7400   25.8030  -28.7530 O   0  0  0  0  0  0  0  0  0  0  0  0
   -3.4890   25.2810  -30.0960 N   0  0  0  0  0  0  0  0  0  0  0  0
   -4.2330   24.3480  -30.7450 C   0  0  0  0  0  0  0  0  0  0  0  0
   -5.2220   24.7150  -31.4330 O   0  0  0  0  0  0  0  0  0  0  0  0
   -7.5059   21.9262  -29.9817 H   0  0  0  0  0  0  0  0  0  0  0  0
   -6.5831   23.4590  -30.1416 H   0  0  0  0  0  0  0  0  0  0  0  0
   -8.3792   23.4878  -30.1416 H   0  0  0  0  0  0  0  0  0  0  0  0
   -9.5400   20.9982  -31.2226 H   0  0  0  0  0  0  0  0  0  0  0  0
   -9.8148   18.5196  -31.2038 H   0  0  0  0  0  0  0  0  0  0  0  0
   -8.0513   17.0596  -32.1988 H   0  0  0  0  0  0  0  0  0  0  0  0
   -5.9981   18.0727  -33.1843 H   0  0  0  0  0  0  0  0  0  0  0  0
   -5.4370   21.5250  -30.7520 H   0  0  0  0  0  0  0  0  0  0  0  0
   -2.5051   21.5891  -29.7385 H   0  0  0  0  0  0  0  0  0  0  0  0
  1  2  1  0
  2  3  1  0
  3  4  2  0
  4  5  1  0
  5  6  2  0
  6  7  1  0
  7  8  2  0
  8  9  1  0
  9 10  1  0
 10 11  2  0
 10 12  1  0
 12 13  1  0
 13 14  2  0
 14 15  1  0
 15 16  1  0
 16 17  2  0
 16 18  1  0
 18 19  1  0
 19 20  2  0
  8  3  1  0
 19 13  1  0
  1 21  1  0
  1 22  1  0
  1 23  1  0
  4 24  1  0
  5 25  1  0
  6 26  1  0
  7 27  1  0
 12 28  1  0
 14 29  1  0
M  CHG  3   9  -1  15  -1  18  -1
M  END
>  <UniqueID>  (11) 
11

>  <SMILES>  (11) 
CSc1ccccc1[N-]C(=O)Nc1c[n-]c(=O)[n-]c1=O

>  <Energy>  (11) 
37.838088255739805

>  <Genealogy>  (11) 
CSc1ccccc1[N-]C(=O)Nc1c[n-]c(=O)[n-]c1=O (protonated)
CSc1ccccc1[N-]C(=O)Nc1c[n-]c(=O)[n-]c1=O (3D coordinates assigned)
CSc1ccccc1[N-]C(=O)Nc1c[n-]c(=O)[n-]c1=O (optimized conformer: 37.838088255739805 kcal/mol)

>  <smiles>  (11) 
CSc1ccccc1NC(=O)Nc1c[nH]c(=O)[nH]c1=O

>  <score_type>  (11) 
oracle

>  <origin>  (11) 
adgpu

>  <m_score__min__energy>  (11) 
-10.289999999999999

>  <m_primary>  (11) 
energy

$$$$
11:0
     RDKit          3D

 48 50  0  0  0  0  0  0  0  0999 V2000
   -3.3110   22.6160  -31.4660 C   0  0  0  0  0  0  0  0  0  0  0  0
   -4.6260   23.2720  -31.1520 C   0  0  0  0  0  0  0  0  0  0  0  0
   -5.8300   22.5920  -31.4060 C   0  0  0  0  0  0  0  0  0  0  0  0
   -7.0620   23.2090  -31.1450 C   0  0  0  0  0  0  0  0  0  0  0  0
   -8.5710   22.3650  -31.4720 S   0  0  0  0  0  0  0  0  0  0  0  0
   -9.5860   23.3580  -31.9600 O   0  0  0  0  0  0  0  0  0  0  0  0
   -9.0930   21.6980  -30.2290 O   0  0  0  0  0  0  0  0  0  0  0  0
   -8.3180   21.1640  -32.6980 N   0  0  0  0  0  0  0  0  0  0  0  0
   -7.6020   19.9340  -32.5090 C   0  0  0  0  0  0  0  0  0  0  0  0
   -8.1630   18.8540  -31.8190 C   0  0  0  0  0  0  0  0  0  0  0  0
   -7.4380   17.6790  -31.6560 C   0  0  0  0  0  0  0  0  0  0  0  0
   -6.1390   17.5810  -32.1730 C   0  0  0  0  0  0  0  0  0  0  0  0
   -5.3680   16.3010  -31.9640 C   0  0  0  0  0  0  0  0  0  0  0  0
   -5.5940   18.6430  -32.8560 N   0  0  0  0  0  0  0  0  0  0  0  0
   -4.2550   18.5620  -33.3790 C   0  0  0  0  0  0  0  0  0  0  0  0
   -3.9440   17.6410  -34.3910 C   0  0  0  0  0  0  0  0  0  0  0  0
   -2.6410   17.5640  -34.8940 C   0  0  0  0  0  0  0  0  0  0  0  0
   -1.6410   18.4150  -34.3970 C   0  0  0  0  0  0  0  0  0  0  0  0
    0.0090   18.3090  -35.0030 S   0  0  0  0  0  0  0  0  0  0  0  0
    0.2950   16.6700  -35.6320 C   0  0  0  0  0  0  0  0  0  0  0  0
    0.9730   18.5990  -33.8870 O   0  0  0  0  0  0  0  0  0  0  0  0
    0.2240   19.3110  -36.1020 O   0  0  0  0  0  0  0  0  0  0  0  0
   -1.9550   19.3370  -33.3900 C   0  0  0  0  0  0  0  0  0  0  0  0
   -3.2560   19.4120  -32.8840 C   0  0  0  0  0  0  0  0  0  0  0  0
   -6.3070   19.8050  -33.0290 C   0  0  0  0  0  0  0  0  0  0  0  0
   -5.7990   20.7740  -33.6600 O   0  0  0  0  0  0  0  0  0  0  0  0
   -7.0900   24.5090  -30.6250 C   0  0  0  0  0  0  0  0  0  0  0  0
   -5.8980   25.1960  -30.3880 C   0  0  0  0  0  0  0  0  0  0  0  0
   -4.6680   24.5880  -30.6560 C   0  0  0  0  0  0  0  0  0  0  0  0
   -3.4940   25.2970  -30.4290 O   0  0  0  0  0  0  0  0  0  0  0  0
   -2.7962   22.3592  -30.5284 H   0  0  0  0  0  0  0  0  0  0  0  0
   -3.4880   21.7006  -32.0497 H   0  0  0  0  0  0  0  0  0  0  0  0
   -2.6862   23.3080  -32.0497 H   0  0  0  0  0  0  0  0  0  0  0  0
   -5.8055   21.5699  -31.8119 H   0  0  0  0  0  0  0  0  0  0  0  0
   -9.1789   18.9346  -31.4050 H   0  0  0  0  0  0  0  0  0  0  0  0
   -7.8835   16.8269  -31.1217 H   0  0  0  0  0  0  0  0  0  0  0  0
   -5.2548   16.1130  -30.8861 H   0  0  0  0  0  0  0  0  0  0  0  0
   -5.9129   15.4650  -32.4268 H   0  0  0  0  0  0  0  0  0  0  0  0
   -4.3742   16.3918  -32.4268 H   0  0  0  0  0  0  0  0  0  0  0  0
   -4.7263   16.9783  -34.7895 H   0  0  0  0  0  0  0  0  0  0  0  0
   -2.3992   16.8347  -35.6811 H   0  0  0  0  0  0  0  0  0  0  0  0
    0.4170   15.9708  -34.7916 H   0  0  0  0  0  0  0  0  0  0  0  0
   -0.5623   16.3584  -36.2467 H   0  0  0  0  0  0  0  0  0  0  0  0
    1.2072   16.6672  -36.2467 H   0  0  0  0  0  0  0  0  0  0  0  0
   -1.1747   20.0046  -32.9959 H   0  0  0  0  0  0  0  0  0  0  0  0
   -3.4966   20.1400  -32.0952 H   0  0  0  0  0  0  0  0  0  0  0  0
   -8.0539   24.9902  -30.4027 H   0  0  0  0  0  0  0  0  0  0  0  0
   -5.9267   26.2205  -29.9885 H   0  0  0  0  0  0  0  0  0  0  0  0
  1  2  1  0
  2  3  2  0
  3  4  1  0
  4  5  1  0
  5  6  2  0
  5  7  2  0
  5  8  1  0
  8  9  1  0
  9 10  2  0
 10 11  1  0
 11 12  2  0
 12 13  1  0
 12 14  1  0
 14 15  1  0
 15 16  2  0
 16 17  1  0
 17 18  2  0
 18 19  1  0
 19 20  1  0
 19 21  2  0
 19 22  2  0
 18 23  1  0
 23 24  2  0
 14 25  1  0
 25 26  2  0
  4 27  2  0
 27 28  1  0
 28 29  2  0
 29 30  1  0
 29  2  1  0
 25  9  1  0
 24 15  1  0
  1 31  1  0
  1 32  1  0
  1 33  1  0
  3 34  1  0
 10 35  1  0
 11 36  1  0
 13 37  1  0
 13 38  1  0
 13 39  1  0
 16 40  1  0
 17 41  1  0
 20 42  1  0
 20 43  1  0
 20 44  1  0
 23 45  1  0
 24 46  1  0
 27 47  1  0
 28 48  1  0
M  CHG  2   8  -1  30  -1
M  END
>  <UniqueID>  (12) 
12

>  <SMILES>  (12) 
Cc1cc(S(=O)(=O)[N-]c2ccc(C)n(-c3ccc(S(C)(=O)=O)cc3)c2=O)ccc1[O-]

>  <Energy>  (12) 
61.731185258668255

>  <Genealogy>  (12) 
Cc1cc(S(=O)(=O)[N-]c2ccc(C)n(-c3ccc(S(C)(=O)=O)cc3)c2=O)ccc1[O-] (protonated)
Cc1cc(S(=O)(=O)[N-]c2ccc(C)n(-c3ccc(S(C)(=O)=O)cc3)c2=O)ccc1[O-] (3D coordinates assigned)
Cc1cc(S(=O)(=O)[N-]c2ccc(C)n(-c3ccc(S(C)(=O)=O)cc3)c2=O)ccc1[O-] (optimized conformer: 61.731185258668255 kcal/mol)

>  <smiles>  (12) 
Cc1cc(S(=O)(=O)Nc2ccc(C)n(-c3ccc(S(C)(=O)=O)cc3)c2=O)ccc1O

>  <score_type>  (12) 
oracle

>  <origin>  (12) 
adgpu

>  <m_score__min__energy>  (12) 
-12.17

>  <m_primary>  (12) 
energy

$$$$
12:0
     RDKit          3D

 40 43  0  0  0  0  0  0  0  0999 V2000
   -5.9450   24.4880  -29.3410 O   0  0  0  0  0  0  0  0  0  0  0  0
   -5.1490   24.4870  -30.6170 S   0  0  0  0  0  0  0  0  0  0  0  0
   -5.7440   25.5050  -31.5480 O   0  0  0  0  0  0  0  0  0  0  0  0
   -3.5090   24.9210  -30.2610 N   0  0  0  0  0  0  0  0  0  0  0  0
   -2.6980   24.3310  -29.2350 C   0  0  0  0  0  0  0  0  0  0  0  0
   -3.0100   23.0830  -28.6680 C   0  0  0  0  0  0  0  0  0  0  0  0
   -2.1900   22.5270  -27.6760 C   0  0  0  0  0  0  0  0  0  0  0  0
   -1.0680   23.2400  -27.2130 C   0  0  0  0  0  0  0  0  0  0  0  0
   -0.7520   24.4800  -27.7860 C   0  0  0  0  0  0  0  0  0  0  0  0
   -1.5640   25.0230  -28.7860 C   0  0  0  0  0  0  0  0  0  0  0  0
   -1.2360   26.2560  -29.3380 O   0  0  0  0  0  0  0  0  0  0  0  0
   -0.1590   22.6380  -26.1690 C   0  0  0  0  0  0  0  0  0  0  0  0
   -0.8990   21.6160  -25.2960 C   0  0  0  0  0  0  0  0  0  0  0  0
   -1.6120   20.5830  -26.1700 C   0  0  0  0  0  0  0  0  0  0  0  0
   -2.5130   21.2480  -27.1090 N   0  0  0  0  0  0  0  0  0  0  0  0
   -5.1930   22.8990  -31.3960 C   0  0  0  0  0  0  0  0  0  0  0  0
   -6.4260   22.2400  -31.5350 C   0  0  0  0  0  0  0  0  0  0  0  0
   -6.4990   20.9680  -32.1260 C   0  0  0  0  0  0  0  0  0  0  0  0
   -7.7980   20.2730  -32.2460 C   0  0  0  0  0  0  0  0  0  0  0  0
   -8.9730   20.8840  -32.4850 N   0  0  0  0  0  0  0  0  0  0  0  0
   -9.8650   19.9080  -32.5000 N   0  0  0  0  0  0  0  0  0  0  0  0
   -9.2650   18.7500  -32.2820 N   0  0  0  0  0  0  0  0  0  0  0  0
   -7.9670   18.9430  -32.1170 N   0  0  0  0  0  0  0  0  0  0  0  0
   -5.3250   20.3620  -32.5920 C   0  0  0  0  0  0  0  0  0  0  0  0
   -4.0960   21.0110  -32.4590 C   0  0  0  0  0  0  0  0  0  0  0  0
   -4.0170   22.2730  -31.8630 C   0  0  0  0  0  0  0  0  0  0  0  0
   -2.7580   22.8680  -31.7510 O   0  0  0  0  0  0  0  0  0  0  0  0
   -3.9043   22.5386  -29.0052 H   0  0  0  0  0  0  0  0  0  0  0  0
    0.1393   25.0283  -27.4470 H   0  0  0  0  0  0  0  0  0  0  0  0
    0.6798   22.1357  -26.6731 H   0  0  0  0  0  0  0  0  0  0  0  0
    0.2014   23.4486  -25.5186 H   0  0  0  0  0  0  0  0  0  0  0  0
   -0.1747   21.1027  -24.6464 H   0  0  0  0  0  0  0  0  0  0  0  0
   -1.6471   22.1438  -24.6862 H   0  0  0  0  0  0  0  0  0  0  0  0
   -0.8638   20.0052  -26.7324 H   0  0  0  0  0  0  0  0  0  0  0  0
   -2.1989   19.9127  -25.5249 H   0  0  0  0  0  0  0  0  0  0  0  0
   -3.3680   20.7380  -27.4270 H   0  0  0  0  0  0  0  0  0  0  0  0
   -7.3453   22.7262  -31.1766 H   0  0  0  0  0  0  0  0  0  0  0  0
   -5.3717   19.3700  -33.0650 H   0  0  0  0  0  0  0  0  0  0  0  0
   -3.1807   20.5244  -32.8269 H   0  0  0  0  0  0  0  0  0  0  0  0
   -2.5990   23.7480  -31.2800 H   0  0  0  0  0  0  0  0  0  0  0  0
  1  2  2  0
  2  3  2  0
  2  4  1  0
  4  5  1  0
  5  6  2  0
  6  7  1  0
  7  8  2  0
  8  9  1  0
  9 10  2  0
 10 11  1  0
  8 12  1  0
 12 13  1  0
 13 14  1  0
 14 15  1  0
  2 16  1  0
 16 17  2  0
 17 18  1  0
 18 19  1  0
 19 20  1  0
 20 21  2  0
 21 22  1  0
 22 23  1  0
 18 24  2  0
 24 25  1  0
 25 26  2  0
 26 27  1  0
 10  5  1  0
 26 16  1  0
 15  7  1  0
 23 19  2  0
  6 28  1  0
  9 29  1  0
 12 30  1  0
 12 31  1  0
 13 32  1  0
 13 33  1  0
 14 34  1  0
 14 35  1  0
 15 36  1  0
 17 37  1  0
 24 38  1  0
 25 39  1  0
 27 40  1  0
M  CHG  3   4  -1  11  -1  22  -1
M  END
>  <UniqueID>  (13) 
13

>  <SMILES>  (13) 
O=S(=O)([N-]c1cc2c(cc1[O-])CCCN2)c1cc(-c2nn[n-]n2)ccc1O

>  <Energy>  (13) 
85.76871291525416

>  <Genealogy>  (13) 
O=S(=O)([N-]c1cc2c(cc1[O-])CCCN2)c1cc(-c2nn[n-]n2)ccc1O (protonated)
O=S(=O)([N-]c1cc2c(cc1[O-])CCCN2)c1cc(-c2nn[n-]n2)ccc1O (3D coordinates assigned)
O=S(=O)([N-]c1cc2c(cc1[O-])CCCN2)c1cc(-c2nn[n-]n2)ccc1O (nonaromatic ring conformer: 85.76871291525416 kcal/mol)

>  <smiles>  (13) 
O=S(=O)(Nc1cc2c(cc1O)CCCN2)c1cc(-c2nn[nH]n2)ccc1O

>  <score_type>  (13) 
oracle

>  <origin>  (13) 
adgpu

>  <m_score__min__energy>  (13) 
-12.630000000000001

>  <m_primary>  (13) 
energy

$$$$
13:0
     RDKit          3D

 34 35  0  0  0  0  0  0  0  0999 V2000
   -1.3249   19.4171  -27.4253 H   0  0  0  0  0  0  0  0  0  0  0  0
   -1.4110   20.3480  -28.0050 C   0  0  0  0  0  0  0  0  0  0  0  0
   -0.3210   20.6620  -28.9560 C   0  0  0  0  0  0  0  0  0  0  0  0
    0.7000   21.2530  -28.5130 O   0  0  0  0  0  0  0  0  0  0  0  0
   -0.3950   20.3390  -30.4020 C   0  0  0  0  0  0  0  0  0  0  0  0
   -1.4280   20.8920  -31.1770 C   0  0  0  0  0  0  0  0  0  0  0  0
   -2.1832   21.5322  -30.6976 H   0  0  0  0  0  0  0  0  0  0  0  0
   -1.5090   20.6380  -32.5560 C   0  0  0  0  0  0  0  0  0  0  0  0
   -2.6010   21.2840  -33.3720 C   0  0  0  0  0  0  0  0  0  0  0  0
   -2.5696   20.8851  -34.3967 H   0  0  0  0  0  0  0  0  0  0  0  0
   -2.4389   22.3720  -33.3798 H   0  0  0  0  0  0  0  0  0  0  0  0
   -3.9700   20.9980  -32.7660 C   0  0  0  0  0  0  0  0  0  0  0  0
   -3.8957   21.0135  -31.6686 H   0  0  0  0  0  0  0  0  0  0  0  0
   -4.6848   21.7662  -33.0960 H   0  0  0  0  0  0  0  0  0  0  0  0
   -4.3175   20.0079  -33.0960 H   0  0  0  0  0  0  0  0  0  0  0  0
   -0.5310   19.8310  -33.1650 C   0  0  0  0  0  0  0  0  0  0  0  0
   -0.5610   19.5930  -34.5360 O   0  0  0  0  0  0  0  0  0  0  0  0
    0.4810   19.2550  -32.3950 C   0  0  0  0  0  0  0  0  0  0  0  0
    1.2319   18.6098  -32.8745 H   0  0  0  0  0  0  0  0  0  0  0  0
    0.5470   19.4920  -31.0200 C   0  0  0  0  0  0  0  0  0  0  0  0
    1.5450   18.8690  -30.2760 O   0  0  0  0  0  0  0  0  0  0  0  0
   -2.4970   21.1100  -27.7940 C   0  0  0  0  0  0  0  0  0  0  0  0
   -3.1714   20.8216  -26.9742 H   0  0  0  0  0  0  0  0  0  0  0  0
   -2.8510   22.3080  -28.5840 C   0  0  0  0  0  0  0  0  0  0  0  0
   -3.9950   22.2860  -29.3950 C   0  0  0  0  0  0  0  0  0  0  0  0
   -4.6165   21.3796  -29.4418 H   0  0  0  0  0  0  0  0  0  0  0  0
   -4.3480   23.4120  -30.1440 C   0  0  0  0  0  0  0  0  0  0  0  0
   -5.2586   23.3972  -30.7609 H   0  0  0  0  0  0  0  0  0  0  0  0
   -3.5460   24.5580  -30.1110 C   0  0  0  0  0  0  0  0  0  0  0  0
   -3.9030   25.6740  -30.8580 O   0  0  0  0  0  0  0  0  0  0  0  0
   -2.3820   24.5740  -29.3330 C   0  0  0  0  0  0  0  0  0  0  0  0
   -1.5670   25.6990  -29.3170 O   0  0  0  0  0  0  0  0  0  0  0  0
   -2.0340   23.4520  -28.5730 C   0  0  0  0  0  0  0  0  0  0  0  0
   -1.1177   23.4651  -27.9646 H   0  0  0  0  0  0  0  0  0  0  0  0
  1  2  1  0
  2  3  1  0
  3  4  2  0
  3  5  1  0
  5  6  2  0
  6  7  1  0
  6  8  1  0
  8  9  1  0
  9 10  1  0
  9 11  1  0
  9 12  1  0
 12 13  1  0
 12 14  1  0
 12 15  1  0
  8 16  2  0
 16 17  1  0
 16 18  1  0
 18 19  1  0
 18 20  2  0
 20 21  1  0
  2 22  2  0
 22 23  1  0
 22 24  1  0
 24 25  2  0
 25 26  1  0
 25 27  1  0
 27 28  1  0
 27 29  2  0
 29 30  1  0
 29 31  1  0
 31 32  1  0
 31 33  2  0
 33 34  1  0
 20  5  1  0
 33 24  1  0
M  CHG  4  17  -1  21  -1  30  -1  32  -1
M  END
>  <UniqueID>  (14) 
14

>  <SMILES>  (14) 
CCc1cc(C(=O)/C=C\c2ccc([O-])c([O-])c2)c([O-])cc1[O-]

>  <Energy>  (14) 
43.08614385258579

>  <Genealogy>  (14) 
CCc1cc(C(=O)C=Cc2ccc([O-])c([O-])c2)c([O-])cc1[O-] (protonated)
CCc1cc(C(=O)/C=C\c2ccc([O-])c([O-])c2)c([O-])cc1[O-] (cis-trans isomerization)
CCc1cc(C(=O)/C=C\c2ccc([O-])c([O-])c2)c([O-])cc1[O-] (3D coordinates assigned)
CCc1cc(C(=O)/C=C\c2ccc([O-])c([O-])c2)c([O-])cc1[O-] (optimized conformer: 43.08614385258579 kcal/mol)

>  <smiles>  (14) 
CCc1cc(C(=O)C=Cc2ccc(O)c(O)c2)c(O)cc1O

>  <score_type>  (14) 
oracle

>  <origin>  (14) 
adgpu

>  <m_score__min__energy>  (14) 
-13.56

>  <m_primary>  (14) 
energy

$$$$
14:0
     RDKit          3D

 60 63  0  0  0  0  0  0  0  0999 V2000
   -6.0130   24.1850  -32.0140 O   0  0  0  0  0  0  0  0  0  0  0  0
   -5.1840   24.4780  -31.1100 C   0  0  0  0  0  0  0  0  0  0  0  0
   -5.5510   25.4810  -30.0440 C   0  0  0  0  0  0  0  0  0  0  0  0
   -5.3600   24.9330  -28.6990 N   0  0  0  0  0  0  0  0  0  0  0  0
   -4.3000   24.0330  -28.3240 C   0  0  0  0  0  0  0  0  0  0  0  0
   -3.0050   24.4930  -28.0120 C   0  0  0  0  0  0  0  0  0  0  0  0
   -2.0010   23.5890  -27.6470 C   0  0  0  0  0  0  0  0  0  0  0  0
   -2.2710   22.2160  -27.5890 C   0  0  0  0  0  0  0  0  0  0  0  0
   -1.0060   21.0750  -27.1190 S   0  0  0  0  0  0  0  0  0  0  0  0
    0.3050   21.8070  -27.0390 O   0  0  0  0  0  0  0  0  0  0  0  0
   -1.3200   20.5320  -25.7520 O   0  0  0  0  0  0  0  0  0  0  0  0
   -0.8460   19.7400  -28.2340 N   0  0  0  0  0  0  0  0  0  0  0  0
   -0.3990   18.5200  -27.5670 C   0  0  0  0  0  0  0  0  0  0  0  0
    0.2710   17.6720  -28.6350 C   0  0  0  0  0  0  0  0  0  0  0  0
    0.6520   18.6500  -29.7420 C   0  0  0  0  0  0  0  0  0  0  0  0
    0.1500   20.0060  -29.2710 C   0  0  0  0  0  0  0  0  0  0  0  0
   -3.5600   21.7560  -27.8890 C   0  0  0  0  0  0  0  0  0  0  0  0
   -4.5640   22.6560  -28.2570 C   0  0  0  0  0  0  0  0  0  0  0  0
   -3.8660   23.9180  -31.1790 N   0  0  0  0  0  0  0  0  0  0  0  0
   -3.5460   22.5660  -31.5350 C   0  0  0  0  0  0  0  0  0  0  0  0
   -2.2190   22.1100  -31.5510 C   0  0  0  0  0  0  0  0  0  0  0  0
   -1.9350   20.7850  -31.8930 C   0  0  0  0  0  0  0  0  0  0  0  0
   -2.9730   19.8980  -32.1840 C   0  0  0  0  0  0  0  0  0  0  0  0
   -4.3060   20.3260  -32.1100 C   0  0  0  0  0  0  0  0  0  0  0  0
   -5.6210   19.1840  -32.4150 S   0  0  0  0  0  0  0  0  0  0  0  0
   -5.8660   18.3700  -31.1750 O   0  0  0  0  0  0  0  0  0  0  0  0
   -5.2140   18.2440  -33.5140 O   0  0  0  0  0  0  0  0  0  0  0  0
   -7.1030   19.9980  -32.8720 N   0  0  0  0  0  0  0  0  0  0  0  0
   -7.4280   21.0910  -31.9380 C   0  0  0  0  0  0  0  0  0  0  0  0
   -8.7120   20.7350  -31.1990 C   0  0  0  0  0  0  0  0  0  0  0  0
   -9.0040   19.2980  -31.5640 C   0  0  0  0  0  0  0  0  0  0  0  0
   -8.2420   19.0740  -32.8540 C   0  0  0  0  0  0  0  0  0  0  0  0
   -4.5860   21.6610  -31.7840 C   0  0  0  0  0  0  0  0  0  0  0  0
   -4.9172   26.3726  -30.1595 H   0  0  0  0  0  0  0  0  0  0  0  0
   -6.6142   25.7365  -30.1635 H   0  0  0  0  0  0  0  0  0  0  0  0
   -6.0600   25.2050  -27.9730 H   0  0  0  0  0  0  0  0  0  0  0  0
   -2.7820   25.5693  -28.0556 H   0  0  0  0  0  0  0  0  0  0  0  0
   -0.9939   23.9590  -27.4042 H   0  0  0  0  0  0  0  0  0  0  0  0
    0.3174   18.7630  -26.7684 H   0  0  0  0  0  0  0  0  0  0  0  0
   -1.2413   17.9864  -27.1024 H   0  0  0  0  0  0  0  0  0  0  0  0
    1.1674   17.1794  -28.2302 H   0  0  0  0  0  0  0  0  0  0  0  0
   -0.3914   16.8740  -29.0016 H   0  0  0  0  0  0  0  0  0  0  0  0
    1.7432   18.6698  -29.8797 H   0  0  0  0  0  0  0  0  0  0  0  0
    0.2139   18.3644  -30.7097 H   0  0  0  0  0  0  0  0  0  0  0  0
    0.9809   20.5968  -28.8579 H   0  0  0  0  0  0  0  0  0  0  0  0
   -0.2836   20.5814  -30.1022 H   0  0  0  0  0  0  0  0  0  0  0  0
   -3.7831   20.6802  -27.8346 H   0  0  0  0  0  0  0  0  0  0  0  0
   -5.5703   22.2818  -28.4963 H   0  0  0  0  0  0  0  0  0  0  0  0
   -1.3998   22.7975  -31.2936 H   0  0  0  0  0  0  0  0  0  0  0  0
   -0.8912   20.4403  -31.9330 H   0  0  0  0  0  0  0  0  0  0  0  0
   -2.7446   18.8612  -32.4719 H   0  0  0  0  0  0  0  0  0  0  0  0
   -6.6079   21.2172  -31.2159 H   0  0  0  0  0  0  0  0  0  0  0  0
   -7.5628   22.0312  -32.4929 H   0  0  0  0  0  0  0  0  0  0  0  0
   -8.5703   20.8343  -30.1127 H   0  0  0  0  0  0  0  0  0  0  0  0
   -9.5408   21.4027  -31.4769 H   0  0  0  0  0  0  0  0  0  0  0  0
   -8.6470   18.6165  -30.7778 H   0  0  0  0  0  0  0  0  0  0  0  0
  -10.0812   19.1043  -31.6745 H   0  0  0  0  0  0  0  0  0  0  0  0
   -7.8815   18.0357  -32.8995 H   0  0  0  0  0  0  0  0  0  0  0  0
   -8.8950   19.2544  -33.7206 H   0  0  0  0  0  0  0  0  0  0  0  0
   -5.6306   22.0002  -31.7233 H   0  0  0  0  0  0  0  0  0  0  0  0
  1  2  2  0
  2  3  1  0
  3  4  1  0
  4  5  1  0
  5  6  2  0
  6  7  1  0
  7  8  2  0
  8  9  1  0
  9 10  2  0
  9 11  2  0
  9 12  1  0
 12 13  1  0
 13 14  1  0
 14 15  1  0
 15 16  1  0
  8 17  1  0
 17 18  2  0
  2 19  1  0
 19 20  1  0
 20 21  2  0
 21 22  1  0
 22 23  2  0
 23 24  1  0
 24 25  1  0
 25 26  2  0
 25 27  2  0
 25 28  1  0
 28 29  1  0
 29 30  1  0
 30 31  1  0
 31 32  1  0
 24 33  2  0
 18  5  1  0
 33 20  1  0
 16 12  1  0
 32 28  1  0
  3 34  1  0
  3 35  1  0
  4 36  1  0
  6 37  1  0
  7 38  1  0
 13 39  1  0
 13 40  1  0
 14 41  1  0
 14 42  1  0
 15 43  1  0
 15 44  1  0
 16 45  1  0
 16 46  1  0
 17 47  1  0
 18 48  1  0
 21 49  1  0
 22 50  1  0
 23 51  1  0
 29 52  1  0
 29 53  1  0
 30 54  1  0
 30 55  1  0
 31 56  1  0
 31 57  1  0
 32 58  1  0
 32 59  1  0
 33 60  1  0
M  CHG  1  19  -1
M  END
>  <UniqueID>  (15) 
15

>  <SMILES>  (15) 
O=C(CNc1ccc(S(=O)(=O)N2CCCC2)cc1)[N-]c1cccc(S(=O)(=O)N2CCCC2)c1

>  <Energy>  (15) 
69.51208058506462

>  <Genealogy>  (15) 
O=C(CNc1ccc(S(=O)(=O)N2CCCC2)cc1)[N-]c1cccc(S(=O)(=O)N2CCCC2)c1 (protonated)
O=C(CNc1ccc(S(=O)(=O)N2CCCC2)cc1)[N-]c1cccc(S(=O)(=O)N2CCCC2)c1 (3D coordinates assigned)
O=C(CNc1ccc(S(=O)(=O)N2CCCC2)cc1)[N-]c1cccc(S(=O)(=O)N2CCCC2)c1 (nonaromatic ring conformer: 69.51208058506462 kcal/mol)

>  <smiles>  (15) 
O=C(CNc1ccc(S(=O)(=O)N2CCCC2)cc1)Nc1cccc(S(=O)(=O)N2CCCC2)c1

>  <score_type>  (15) 
oracle

>  <origin>  (15) 
adgpu

>  <m_score__min__energy>  (15) 
-12.380000000000001

>  <m_primary>  (15) 
energy

$$$$
15:0
     RDKit          3D

 55 58  0  0  0  0  0  0  0  0999 V2000
   -1.7010   20.0760  -26.4170 C   0  0  0  0  0  0  0  0  0  0  0  0
   -0.9150   21.2630  -26.3550 O   0  0  0  0  0  0  0  0  0  0  0  0
   -1.1150   22.4070  -27.1460 C   0  0  0  0  0  0  0  0  0  0  0  0
   -2.2270   22.5030  -28.0060 C   0  0  0  0  0  0  0  0  0  0  0  0
   -2.4310   23.6410  -28.7980 C   0  0  0  0  0  0  0  0  0  0  0  0
   -3.6080   23.7280  -29.6920 C   0  0  0  0  0  0  0  0  0  0  0  0
   -3.8640   24.7760  -30.4990 N   0  0  0  0  0  0  0  0  0  0  0  0
   -4.9880   24.5010  -31.1360 N   0  0  0  0  0  0  0  0  0  0  0  0
   -5.3930   23.2920  -30.7030 C   0  0  0  0  0  0  0  0  0  0  0  0
   -6.6150   22.6110  -31.1810 C   0  0  0  0  0  0  0  0  0  0  0  0
   -7.7620   23.3520  -31.5120 C   0  0  0  0  0  0  0  0  0  0  0  0
   -8.9120   22.7060  -31.9710 C   0  0  0  0  0  0  0  0  0  0  0  0
   -8.9300   21.3170  -32.1080 C   0  0  0  0  0  0  0  0  0  0  0  0
   -7.7930   20.5640  -31.7890 C   0  0  0  0  0  0  0  0  0  0  0  0
   -7.8050   18.8110  -31.9900 S   0  0  0  0  0  0  0  0  0  0  0  0
   -9.2270   18.3260  -31.9210 O   0  0  0  0  0  0  0  0  0  0  0  0
   -7.0500   18.1780  -30.8540 O   0  0  0  0  0  0  0  0  0  0  0  0
   -7.0990   18.3030  -33.5100 N   0  0  0  0  0  0  0  0  0  0  0  0
   -6.1440   19.2920  -34.0570 C   0  0  0  0  0  0  0  0  0  0  0  0
   -4.6760   18.8940  -33.8340 C   0  0  0  0  0  0  0  0  0  0  0  0
   -4.5470   18.1320  -32.6560 O   0  0  0  0  0  0  0  0  0  0  0  0
   -5.1390   16.8610  -32.8440 C   0  0  0  0  0  0  0  0  0  0  0  0
   -6.5590   16.9310  -33.4540 C   0  0  0  0  0  0  0  0  0  0  0  0
   -6.6420   21.2120  -31.3170 C   0  0  0  0  0  0  0  0  0  0  0  0
   -4.5500   22.7680  -29.7910 N   0  0  0  0  0  0  0  0  0  0  0  0
   -1.5110   24.6940  -28.7330 C   0  0  0  0  0  0  0  0  0  0  0  0
   -0.3920   24.6170  -27.8850 C   0  0  0  0  0  0  0  0  0  0  0  0
    0.5480   25.6590  -27.8060 O   0  0  0  0  0  0  0  0  0  0  0  0
    0.4950   26.7290  -26.8680 C   0  0  0  0  0  0  0  0  0  0  0  0
   -0.1890   23.4800  -27.0870 C   0  0  0  0  0  0  0  0  0  0  0  0
    0.9510   23.4850  -26.2600 O   0  0  0  0  0  0  0  0  0  0  0  0
    0.9950   23.8180  -24.8770 C   0  0  0  0  0  0  0  0  0  0  0  0
   -1.9282   19.7330  -25.3968 H   0  0  0  0  0  0  0  0  0  0  0  0
   -2.6396   20.2853  -26.9510 H   0  0  0  0  0  0  0  0  0  0  0  0
   -1.1419   19.2935  -26.9510 H   0  0  0  0  0  0  0  0  0  0  0  0
   -2.9460   21.6720  -28.0565 H   0  0  0  0  0  0  0  0  0  0  0  0
   -7.7541   24.4471  -31.4090 H   0  0  0  0  0  0  0  0  0  0  0  0
   -9.8064   23.2936  -32.2254 H   0  0  0  0  0  0  0  0  0  0  0  0
   -9.8392   20.8127  -32.4673 H   0  0  0  0  0  0  0  0  0  0  0  0
   -6.3207   19.3894  -35.1383 H   0  0  0  0  0  0  0  0  0  0  0  0
   -6.3125   20.2411  -33.5271 H   0  0  0  0  0  0  0  0  0  0  0  0
   -4.3278   18.2985  -34.6908 H   0  0  0  0  0  0  0  0  0  0  0  0
   -4.0698   19.8067  -33.7366 H   0  0  0  0  0  0  0  0  0  0  0  0
   -4.4981   16.2737  -33.5180 H   0  0  0  0  0  0  0  0  0  0  0  0
   -5.2335   16.3958  -31.8517 H   0  0  0  0  0  0  0  0  0  0  0  0
   -6.5207   16.5281  -34.4768 H   0  0  0  0  0  0  0  0  0  0  0  0
   -7.2241   16.3435  -32.8039 H   0  0  0  0  0  0  0  0  0  0  0  0
   -5.7533   20.6208  -31.0511 H   0  0  0  0  0  0  0  0  0  0  0  0
   -1.6649   25.5906  -29.3514 H   0  0  0  0  0  0  0  0  0  0  0  0
    0.5152   26.3222  -25.8462 H   0  0  0  0  0  0  0  0  0  0  0  0
    1.3615   27.3901  -27.0166 H   0  0  0  0  0  0  0  0  0  0  0  0
   -0.4326   27.3013  -27.0166 H   0  0  0  0  0  0  0  0  0  0  0  0
    0.8743   22.9047  -24.2759 H   0  0  0  0  0  0  0  0  0  0  0  0
    1.9627   24.2857  -24.6431 H   0  0  0  0  0  0  0  0  0  0  0  0
    0.1819   24.5210  -24.6431 H   0  0  0  0  0  0  0  0  0  0  0  0
  1  2  1  0
  2  3  1  0
  3  4  2  0
  4  5  1  0
  5  6  1  0
  6  7  2  0
  7  8  1  0
  8  9  1  0
  9 10  1  0
 10 11  2  0
 11 12  1  0
 12 13  2  0
 13 14  1  0
 14 15  1  0
 15 16  2  0
 15 17  2  0
 15 18  1  0
 18 19  1  0
 19 20  1  0
 20 21  1  0
 21 22  1  0
 22 23  1  0
 14 24  2  0
  9 25  2  0
  5 26  2  0
 26 27  1  0
 27 28  1  0
 28 29  1  0
 27 30  2  0
 30 31  1  0
 31 32  1  0
 30  3  1  0
 25  6  1  0
 24 10  1  0
 23 18  1  0
  1 33  1  0
  1 34  1  0
  1 35  1  0
  4 36  1  0
 11 37  1  0
 12 38  1  0
 13 39  1  0
 19 40  1  0
 19 41  1  0
 20 42  1  0
 20 43  1  0
 22 44  1  0
 22 45  1  0
 23 46  1  0
 23 47  1  0
 24 48  1  0
 26 49  1  0
 29 50  1  0
 29 51  1  0
 29 52  1  0
 32 53  1  0
 32 54  1  0
 32 55  1  0
M  CHG  1   8  -1
M  END
>  <UniqueID>  (16) 
16

>  <SMILES>  (16) 
COc1cc(-c2n[n-]c(-c3cccc(S(=O)(=O)N4CCOCC4)c3)n2)cc(OC)c1OC

>  <Energy>  (16) 
102.92053766245311

>  <Genealogy>  (16) 
COc1cc(-c2n[n-]c(-c3cccc(S(=O)(=O)N4CCOCC4)c3)n2)cc(OC)c1OC (protonated)
COc1cc(-c2n[n-]c(-c3cccc(S(=O)(=O)N4CCOCC4)c3)n2)cc(OC)c1OC (3D coordinates assigned)
COc1cc(-c2n[n-]c(-c3cccc(S(=O)(=O)N4CCOCC4)c3)n2)cc(OC)c1OC (nonaromatic ring conformer: 102.92053766245311 kcal/mol)

>  <smiles>  (16) 
COc1cc(-c2n[nH]c(-c3cccc(S(=O)(=O)N4CCOCC4)c3)n2)cc(OC)c1OC

>  <score_type>  (16) 
oracle

>  <origin>  (16) 
adgpu

>  <m_score__min__energy>  (16) 
-10.619999999999999

>  <m_primary>  (16) 
energy

$$$$
16:0
     RDKit          3D

 54 57  0  0  0  0  0  0  0  0999 V2000
   -6.6980   24.4550  -29.7760 O   0  0  0  0  0  0  0  0  0  0  0  0
   -5.3090   24.5230  -30.3370 S   0  0  0  0  0  0  0  0  0  0  0  0
   -5.1690   25.7640  -31.1700 O   0  0  0  0  0  0  0  0  0  0  0  0
   -4.1680   24.5840  -29.0240 N   0  0  0  0  0  0  0  0  0  0  0  0
   -3.0060   23.7530  -28.9170 C   0  0  0  0  0  0  0  0  0  0  0  0
   -3.1080   22.3770  -28.6570 C   0  0  0  0  0  0  0  0  0  0  0  0
   -1.9620   21.5980  -28.4350 C   0  0  0  0  0  0  0  0  0  0  0  0
   -0.6890   22.2090  -28.4760 C   0  0  0  0  0  0  0  0  0  0  0  0
   -0.5890   23.5680  -28.8140 C   0  0  0  0  0  0  0  0  0  0  0  0
   -1.7390   24.3350  -29.0290 C   0  0  0  0  0  0  0  0  0  0  0  0
   -1.6180   25.6830  -29.3330 O   0  0  0  0  0  0  0  0  0  0  0  0
    0.5750   21.4120  -28.2530 C   0  0  0  0  0  0  0  0  0  0  0  0
    0.3180   20.1200  -27.4780 C   0  0  0  0  0  0  0  0  0  0  0  0
   -0.8330   19.3460  -28.1130 C   0  0  0  0  0  0  0  0  0  0  0  0
   -2.1340   20.1490  -28.0280 C   0  0  0  0  0  0  0  0  0  0  0  0
   -5.0360   23.0800  -31.3120 C   0  0  0  0  0  0  0  0  0  0  0  0
   -3.8050   22.8710  -31.9470 C   0  0  0  0  0  0  0  0  0  0  0  0
   -3.5660   21.6810  -32.6420 C   0  0  0  0  0  0  0  0  0  0  0  0
   -4.5550   20.6890  -32.7030 C   0  0  0  0  0  0  0  0  0  0  0  0
   -4.2370   19.1580  -33.5170 S   0  0  0  0  0  0  0  0  0  0  0  0
   -3.7520   18.1500  -32.5170 O   0  0  0  0  0  0  0  0  0  0  0  0
   -3.1500   19.3770  -34.5300 O   0  0  0  0  0  0  0  0  0  0  0  0
   -5.6780   18.5840  -34.3320 N   0  0  0  0  0  0  0  0  0  0  0  0
   -6.8890   18.7300  -33.5000 C   0  0  0  0  0  0  0  0  0  0  0  0
   -6.9720   17.6910  -32.3650 C   0  0  0  0  0  0  0  0  0  0  0  0
   -6.4380   16.3060  -32.7710 C   0  0  0  0  0  0  0  0  0  0  0  0
   -6.3850   16.1460  -34.2880 C   0  0  0  0  0  0  0  0  0  0  0  0
   -5.4910   17.2300  -34.9170 C   0  0  0  0  0  0  0  0  0  0  0  0
   -5.7930   20.9090  -32.0860 C   0  0  0  0  0  0  0  0  0  0  0  0
   -6.0360   22.1040  -31.4050 C   0  0  0  0  0  0  0  0  0  0  0  0
   -4.1001   21.9029  -28.6269 H   0  0  0  0  0  0  0  0  0  0  0  0
    0.4027   24.0340  -28.9107 H   0  0  0  0  0  0  0  0  0  0  0  0
    1.0095   21.1572  -29.2309 H   0  0  0  0  0  0  0  0  0  0  0  0
    1.2617   22.0307  -27.6567 H   0  0  0  0  0  0  0  0  0  0  0  0
    1.2261   19.4995  -27.4944 H   0  0  0  0  0  0  0  0  0  0  0  0
    0.0534   20.3702  -26.4400 H   0  0  0  0  0  0  0  0  0  0  0  0
   -0.5975   19.1500  -29.1695 H   0  0  0  0  0  0  0  0  0  0  0  0
   -0.9651   18.3983  -27.5705 H   0  0  0  0  0  0  0  0  0  0  0  0
   -2.8772   19.6840  -28.6924 H   0  0  0  0  0  0  0  0  0  0  0  0
   -2.4595   20.1384  -26.9773 H   0  0  0  0  0  0  0  0  0  0  0  0
   -3.0245   23.6446  -31.8989 H   0  0  0  0  0  0  0  0  0  0  0  0
   -2.5992   21.5229  -33.1423 H   0  0  0  0  0  0  0  0  0  0  0  0
   -6.8884   19.7357  -33.0545 H   0  0  0  0  0  0  0  0  0  0  0  0
   -7.7581   18.5700  -34.1551 H   0  0  0  0  0  0  0  0  0  0  0  0
   -6.3817   18.0571  -31.5120 H   0  0  0  0  0  0  0  0  0  0  0  0
   -8.0351   17.5696  -32.1099 H   0  0  0  0  0  0  0  0  0  0  0  0
   -5.4240   16.1810  -32.3634 H   0  0  0  0  0  0  0  0  0  0  0  0
   -7.1205   15.5430  -32.3685 H   0  0  0  0  0  0  0  0  0  0  0  0
   -5.9769   15.1542  -34.5327 H   0  0  0  0  0  0  0  0  0  0  0  0
   -7.4034   16.2489  -34.6909 H   0  0  0  0  0  0  0  0  0  0  0  0
   -4.4404   16.9353  -34.7777 H   0  0  0  0  0  0  0  0  0  0  0  0
   -5.7748   17.3000  -35.9774 H   0  0  0  0  0  0  0  0  0  0  0  0
   -6.5762   20.1384  -32.1379 H   0  0  0  0  0  0  0  0  0  0  0  0
   -7.0172   22.2793  -30.9397 H   0  0  0  0  0  0  0  0  0  0  0  0
  1  2  2  0
  2  3  2  0
  2  4  1  0
  4  5  1  0
  5  6  2  0
  6  7  1  0
  7  8  2  0
  8  9  1  0
  9 10  2  0
 10 11  1  0
  8 12  1  0
 12 13  1  0
 13 14  1  0
 14 15  1  0
  2 16  1  0
 16 17  2  0
 17 18  1  0
 18 19  2  0
 19 20  1  0
 20 21  2  0
 20 22  2  0
 20 23  1  0
 23 24  1  0
 24 25  1  0
 25 26  1  0
 26 27  1  0
 27 28  1  0
 19 29  1  0
 29 30  2  0
 10  5  1  0
 30 16  1  0
 15  7  1  0
 28 23  1  0
  6 31  1  0
  9 32  1  0
 12 33  1  0
 12 34  1  0
 13 35  1  0
 13 36  1  0
 14 37  1  0
 14 38  1  0
 15 39  1  0
 15 40  1  0
 17 41  1  0
 18 42  1  0
 24 43  1  0
 24 44  1  0
 25 45  1  0
 25 46  1  0
 26 47  1  0
 26 48  1  0
 27 49  1  0
 27 50  1  0
 28 51  1  0
 28 52  1  0
 29 53  1  0
 30 54  1  0
M  CHG  2   4  -1  11  -1
M  END
>  <UniqueID>  (17) 
17

>  <SMILES>  (17) 
O=S(=O)([N-]c1cc2c(cc1[O-])CCCC2)c1ccc(S(=O)(=O)N2CCCCC2)cc1

>  <Energy>  (17) 
65.53158085537434

>  <Genealogy>  (17) 
O=S(=O)([N-]c1cc2c(cc1[O-])CCCC2)c1ccc(S(=O)(=O)N2CCCCC2)cc1 (protonated)
O=S(=O)([N-]c1cc2c(cc1[O-])CCCC2)c1ccc(S(=O)(=O)N2CCCCC2)cc1 (3D coordinates assigned)
O=S(=O)([N-]c1cc2c(cc1[O-])CCCC2)c1ccc(S(=O)(=O)N2CCCCC2)cc1 (nonaromatic ring conformer: 65.53158085537434 kcal/mol)

>  <smiles>  (17) 
O=S(=O)(Nc1cc2c(cc1O)CCCC2)c1ccc(S(=O)(=O)N2CCCCC2)cc1

>  <score_type>  (17) 
oracle

>  <origin>  (17) 
adgpu

>  <m_score__min__energy>  (17) 
-15.949999999999999

>  <m_primary>  (17) 
energy

$$$$
17:0
     RDKit          3D

 49 51  0  0  0  0  0  0  0  0999 V2000
   -4.1570   23.2480  -31.2230 O   0  0  0  0  0  0  0  0  0  0  0  0
   -4.6050   24.2580  -30.6160 C   0  0  0  0  0  0  0  0  0  0  0  0
   -5.7560   25.0160  -31.2010 C   0  0  0  0  0  0  0  0  0  0  0  0
   -6.5970   24.1070  -31.9880 N   0  0  0  0  0  0  0  0  0  0  0  0
   -7.5170   23.3770  -31.1090 C   0  0  0  0  0  0  0  0  0  0  0  0
   -7.7380   21.9990  -31.6440 C   0  0  0  0  0  0  0  0  0  0  0  0
   -8.9070   21.2580  -31.5270 C   0  0  0  0  0  0  0  0  0  0  0  0
   -8.8490   20.0310  -32.1970 C   0  0  0  0  0  0  0  0  0  0  0  0
   -7.6460   19.8090  -32.8540 C   0  0  0  0  0  0  0  0  0  0  0  0
   -6.6530   21.1440  -32.6030 S   0  0  0  0  0  0  0  0  0  0  0  0
   -4.0780   24.6300  -29.3340 N   0  0  0  0  0  0  0  0  0  0  0  0
   -2.9220   24.0140  -28.7470 C   0  0  0  0  0  0  0  0  0  0  0  0
   -3.0150   22.6960  -28.2770 C   0  0  0  0  0  0  0  0  0  0  0  0
   -1.9110   22.0690  -27.6810 C   0  0  0  0  0  0  0  0  0  0  0  0
   -2.0440   20.4140  -27.0840 S   0  0  0  0  0  0  0  0  0  0  0  0
   -1.5410   20.3540  -25.6680 O   0  0  0  0  0  0  0  0  0  0  0  0
   -3.4900   20.0020  -27.0810 O   0  0  0  0  0  0  0  0  0  0  0  0
   -1.1300   19.2990  -28.0750 N   0  0  0  0  0  0  0  0  0  0  0  0
   -0.1050   20.0020  -28.8870 C   0  0  0  0  0  0  0  0  0  0  0  0
    1.3160   19.8470  -28.3230 C   0  0  0  0  0  0  0  0  0  0  0  0
    1.7170   18.3650  -28.2290 C   0  0  0  0  0  0  0  0  0  0  0  0
    0.5170   17.4370  -27.9700 C   0  0  0  0  0  0  0  0  0  0  0  0
   -0.6100   18.1850  -27.2510 C   0  0  0  0  0  0  0  0  0  0  0  0
   -0.7050   22.7710  -27.5570 C   0  0  0  0  0  0  0  0  0  0  0  0
   -0.6120   24.0920  -28.0000 C   0  0  0  0  0  0  0  0  0  0  0  0
   -1.7160   24.7220  -28.5800 C   0  0  0  0  0  0  0  0  0  0  0  0
   -1.6150   26.0550  -28.9610 O   0  0  0  0  0  0  0  0  0  0  0  0
   -6.3537   25.4570  -30.3897 H   0  0  0  0  0  0  0  0  0  0  0  0
   -5.3728   25.8147  -31.8532 H   0  0  0  0  0  0  0  0  0  0  0  0
   -5.9690   23.4060  -32.4460 H   0  0  0  0  0  0  0  0  0  0  0  0
   -7.0844   23.3124  -30.0997 H   0  0  0  0  0  0  0  0  0  0  0  0
   -8.4786   23.9094  -31.0654 H   0  0  0  0  0  0  0  0  0  0  0  0
   -9.7883   21.6008  -30.9650 H   0  0  0  0  0  0  0  0  0  0  0  0
   -9.6792   19.3094  -32.2027 H   0  0  0  0  0  0  0  0  0  0  0  0
   -7.3866   18.9139  -33.4384 H   0  0  0  0  0  0  0  0  0  0  0  0
   -4.6480   25.2730  -28.7380 H   0  0  0  0  0  0  0  0  0  0  0  0
   -3.9637   22.1482  -28.3768 H   0  0  0  0  0  0  0  0  0  0  0  0
   -0.1240   19.5918  -29.9075 H   0  0  0  0  0  0  0  0  0  0  0  0
   -0.3506   21.0741  -28.8714 H   0  0  0  0  0  0  0  0  0  0  0  0
    2.0235   20.3692  -28.9838 H   0  0  0  0  0  0  0  0  0  0  0  0
    1.3392   20.2796  -27.3119 H   0  0  0  0  0  0  0  0  0  0  0  0
    2.1922   18.0689  -29.1759 H   0  0  0  0  0  0  0  0  0  0  0  0
    2.4050   18.2618  -27.3769 H   0  0  0  0  0  0  0  0  0  0  0  0
    0.1410   17.0582  -28.9318 H   0  0  0  0  0  0  0  0  0  0  0  0
    0.8487   16.6050  -27.3314 H   0  0  0  0  0  0  0  0  0  0  0  0
   -1.4296   17.4818  -27.0415 H   0  0  0  0  0  0  0  0  0  0  0  0
   -0.2069   18.6038  -26.3171 H   0  0  0  0  0  0  0  0  0  0  0  0
    0.1716   22.2800  -27.1092 H   0  0  0  0  0  0  0  0  0  0  0  0
    0.3358   24.6397  -27.8917 H   0  0  0  0  0  0  0  0  0  0  0  0
  1  2  2  0
  2  3  1  0
  3  4  1  0
  4  5  1  0
  5  6  1  0
  6  7  2  0
  7  8  1  0
  8  9  2  0
  9 10  1  0
  2 11  1  0
 11 12  1  0
 12 13  2  0
 13 14  1  0
 14 15  1  0
 15 16  2  0
 15 17  2  0
 15 18  1  0
 18 19  1  0
 19 20  1  0
 20 21  1  0
 21 22  1  0
 22 23  1  0
 14 24  2  0
 24 25  1  0
 25 26  2  0
 26 27  1  0
 10  6  1  0
 26 12  1  0
 23 18  1  0
  3 28  1  0
  3 29  1  0
  4 30  1  0
  5 31  1  0
  5 32  1  0
  7 33  1  0
  8 34  1  0
  9 35  1  0
 11 36  1  0
 13 37  1  0
 19 38  1  0
 19 39  1  0
 20 40  1  0
 20 41  1  0
 21 42  1  0
 21 43  1  0
 22 44  1  0
 22 45  1  0
 23 46  1  0
 23 47  1  0
 24 48  1  0
 25 49  1  0
M  CHG  1  27  -1
M  END
>  <UniqueID>  (18) 
18

>  <SMILES>  (18) 
O=C(CNCc1cccs1)Nc1cc(S(=O)(=O)N2CCCCC2)ccc1[O-]

>  <Energy>  (18) 
81.0554857824676

>  <Genealogy>  (18) 
O=C(CNCc1cccs1)Nc1cc(S(=O)(=O)N2CCCCC2)ccc1[O-] (protonated)
O=C(CNCc1cccs1)Nc1cc(S(=O)(=O)N2CCCCC2)ccc1[O-] (3D coordinates assigned)
O=C(CNCc1cccs1)Nc1cc(S(=O)(=O)N2CCCCC2)ccc1[O-] (nonaromatic ring conformer: 81.0554857824676 kcal/mol)

>  <smiles>  (18) 
O=C(CNCc1cccs1)Nc1cc(S(=O)(=O)N2CCCCC2)ccc1O

>  <score_type>  (18) 
oracle

>  <origin>  (18) 
adgpu

>  <m_score__min__energy>  (18) 
-12.06

>  <m_primary>  (18) 
energy

$$$$
18:0
     RDKit          3D

 61 64  0  0  0  0  0  0  0  0999 V2000
   -0.3590   21.0940  -30.1700 C   0  0  0  0  0  0  0  0  0  0  0  0
   -0.0630   21.5610  -31.4820 O   0  0  0  0  0  0  0  0  0  0  0  0
   -0.0080   20.7450  -32.6230 C   0  0  0  0  0  0  0  0  0  0  0  0
   -0.5580   21.1470  -33.8560 C   0  0  0  0  0  0  0  0  0  0  0  0
   -0.4870   20.3070  -34.9690 C   0  0  0  0  0  0  0  0  0  0  0  0
    0.1360   19.0550  -34.8750 C   0  0  0  0  0  0  0  0  0  0  0  0
    0.1630   18.1350  -36.0680 C   0  0  0  0  0  0  0  0  0  0  0  0
    0.2060   16.7330  -35.6600 N   0  0  0  0  0  0  0  0  0  0  0  0
   -0.8090   15.7510  -35.8990 C   0  0  0  0  0  0  0  0  0  0  0  0
   -0.9500   15.3010  -37.0650 O   0  0  0  0  0  0  0  0  0  0  0  0
   -1.6880   15.2180  -34.8030 C   0  0  0  0  0  0  0  0  0  0  0  0
   -3.4570   15.4370  -35.2010 S   0  0  0  0  0  0  0  0  0  0  0  0
   -3.6390   16.9500  -34.2620 C   0  0  0  0  0  0  0  0  0  0  0  0
   -2.5480   17.6540  -33.8790 N   0  0  0  0  0  0  0  0  0  0  0  0
   -2.6750   18.7840  -33.1870 N   0  0  0  0  0  0  0  0  0  0  0  0
   -3.8940   19.2730  -32.8330 C   0  0  0  0  0  0  0  0  0  0  0  0
   -3.9560   20.5790  -32.1400 C   0  0  0  0  0  0  0  0  0  0  0  0
   -4.5650   21.6920  -32.7470 C   0  0  0  0  0  0  0  0  0  0  0  0
   -4.6220   22.9190  -32.0770 C   0  0  0  0  0  0  0  0  0  0  0  0
   -4.0530   23.0550  -30.8050 C   0  0  0  0  0  0  0  0  0  0  0  0
   -4.1400   24.5880  -29.9460 S   0  0  0  0  0  0  0  0  0  0  0  0
   -2.5700   25.0070  -29.3570 N   0  0  0  0  0  0  0  0  0  0  0  0
   -4.6360   25.6590  -30.8750 O   0  0  0  0  0  0  0  0  0  0  0  0
   -5.0880   24.4770  -28.7850 O   0  0  0  0  0  0  0  0  0  0  0  0
   -3.4250   21.9550  -30.2060 C   0  0  0  0  0  0  0  0  0  0  0  0
   -3.3690   20.7260  -30.8720 C   0  0  0  0  0  0  0  0  0  0  0  0
   -5.0400   18.5250  -33.1900 C   0  0  0  0  0  0  0  0  0  0  0  0
   -6.4140   18.8990  -32.7830 C   0  0  0  0  0  0  0  0  0  0  0  0
   -7.0420   18.2090  -31.7320 C   0  0  0  0  0  0  0  0  0  0  0  0
   -8.3350   18.5620  -31.3310 C   0  0  0  0  0  0  0  0  0  0  0  0
   -9.0040   19.6110  -31.9650 C   0  0  0  0  0  0  0  0  0  0  0  0
   -8.3770   20.3200  -32.9930 C   0  0  0  0  0  0  0  0  0  0  0  0
   -7.0840   19.9730  -33.3960 C   0  0  0  0  0  0  0  0  0  0  0  0
   -4.8730   17.3850  -33.9100 N   0  0  0  0  0  0  0  0  0  0  0  0
    0.6730   18.6450  -33.6450 C   0  0  0  0  0  0  0  0  0  0  0  0
    0.6150   19.4900  -32.5180 C   0  0  0  0  0  0  0  0  0  0  0  0
    1.1620   19.1210  -31.2790 O   0  0  0  0  0  0  0  0  0  0  0  0
    0.9070   17.8840  -30.6190 C   0  0  0  0  0  0  0  0  0  0  0  0
    0.0764   21.7809  -29.4294 H   0  0  0  0  0  0  0  0  0  0  0  0
   -1.4496   21.0510  -30.0335 H   0  0  0  0  0  0  0  0  0  0  0  0
    0.0676   20.0893  -30.0335 H   0  0  0  0  0  0  0  0  0  0  0  0
   -1.0465   22.1288  -33.9425 H   0  0  0  0  0  0  0  0  0  0  0  0
   -0.9229   20.6299  -35.9259 H   0  0  0  0  0  0  0  0  0  0  0  0
   -0.7412   18.3045  -36.6710 H   0  0  0  0  0  0  0  0  0  0  0  0
    1.0690   18.3531  -36.6525 H   0  0  0  0  0  0  0  0  0  0  0  0
   -1.4816   14.1460  -34.6682 H   0  0  0  0  0  0  0  0  0  0  0  0
   -1.4690   15.7768  -33.8812 H   0  0  0  0  0  0  0  0  0  0  0  0
   -4.9986   21.5974  -33.7535 H   0  0  0  0  0  0  0  0  0  0  0  0
   -5.1157   23.7800  -32.5514 H   0  0  0  0  0  0  0  0  0  0  0  0
   -2.6390   25.9730  -28.9640 H   0  0  0  0  0  0  0  0  0  0  0  0
   -2.9741   22.0582  -29.2080 H   0  0  0  0  0  0  0  0  0  0  0  0
   -2.8629   19.8706  -30.4006 H   0  0  0  0  0  0  0  0  0  0  0  0
   -6.5151   17.3885  -31.2229 H   0  0  0  0  0  0  0  0  0  0  0  0
   -8.8257   18.0120  -30.5145 H   0  0  0  0  0  0  0  0  0  0  0  0
  -10.0248   19.8793  -31.6551 H   0  0  0  0  0  0  0  0  0  0  0  0
   -8.9013   21.1521  -33.4857 H   0  0  0  0  0  0  0  0  0  0  0  0
   -6.5885   20.5425  -34.1961 H   0  0  0  0  0  0  0  0  0  0  0  0
    1.1438   17.6545  -33.5594 H   0  0  0  0  0  0  0  0  0  0  0  0
    0.9384   18.0362  -29.5300 H   0  0  0  0  0  0  0  0  0  0  0  0
   -0.0867   17.5118  -30.9088 H   0  0  0  0  0  0  0  0  0  0  0  0
    1.6725   17.1492  -30.9088 H   0  0  0  0  0  0  0  0  0  0  0  0
  1  2  1  0
  2  3  1  0
  3  4  2  0
  4  5  1  0
  5  6  2  0
  6  7  1  0
  7  8  1  0
  8  9  1  0
  9 10  2  0
  9 11  1  0
 11 12  1  0
 12 13  1  0
 13 14  2  0
 14 15  1  0
 15 16  2  0
 16 17  1  0
 17 18  2  0
 18 19  1  0
 19 20  2  0
 20 21  1  0
 21 22  1  0
 21 23  2  0
 21 24  2  0
 20 25  1  0
 25 26  2  0
 16 27  1  0
 27 28  1  0
 28 29  2  0
 29 30  1  0
 30 31  2  0
 31 32  1  0
 32 33  2  0
 27 34  2  0
  6 35  1  0
 35 36  2  0
 36 37  1  0
 37 38  1  0
 36  3  1  0
 34 13  1  0
 26 17  1  0
 33 28  1  0
  1 39  1  0
  1 40  1  0
  1 41  1  0
  4 42  1  0
  5 43  1  0
  7 44  1  0
  7 45  1  0
 11 46  1  0
 11 47  1  0
 18 48  1  0
 19 49  1  0
 22 50  1  0
 25 51  1  0
 26 52  1  0
 29 53  1  0
 30 54  1  0
 31 55  1  0
 32 56  1  0
 33 57  1  0
 35 58  1  0
 38 59  1  0
 38 60  1  0
 38 61  1  0
M  CHG  2   8  -1  22  -1
M  END
>  <UniqueID>  (19) 
19

>  <SMILES>  (19) 
COc1ccc(C[N-]C(=O)CSc2nnc(-c3ccc(S([NH-])(=O)=O)cc3)c(-c3ccccc3)n2)cc1OC

>  <Energy>  (19) 
70.71223702630952

>  <Genealogy>  (19) 
COc1ccc(C[N-]C(=O)CSc2nnc(-c3ccc(S([NH-])(=O)=O)cc3)c(-c3ccccc3)n2)cc1OC (protonated)
COc1ccc(C[N-]C(=O)CSc2nnc(-c3ccc(S([NH-])(=O)=O)cc3)c(-c3ccccc3)n2)cc1OC (3D coordinates assigned)
COc1ccc(C[N-]C(=O)CSc2nnc(-c3ccc(S([NH-])(=O)=O)cc3)c(-c3ccccc3)n2)cc1OC (optimized conformer: 70.71223702630952 kcal/mol)

>  <smiles>  (19) 
COc1ccc(CNC(=O)CSc2nnc(-c3ccc(S(N)(=O)=O)cc3)c(-c3ccccc3)n2)cc1OC

>  <score_type>  (19) 
oracle

>  <origin>  (19) 
adgpu

>  <m_score__min__energy>  (19) 
-11.51

>  <m_primary>  (19) 
energy

$$$$
19:0
     RDKit          3D

 73 78  0  0  0  0  0  0  0  0999 V2000
   -8.9560   23.1670  -31.9810 C   0  0  0  0  0  0  0  0  0  0  0  0
   -8.6610   21.7090  -32.1030 C   0  0  0  0  0  0  0  0  0  0  0  0
   -9.7000   20.7720  -32.2380 C   0  0  0  0  0  0  0  0  0  0  0  0
   -9.3830   19.4210  -32.3900 C   0  0  0  0  0  0  0  0  0  0  0  0
   -8.0430   19.0160  -32.4150 C   0  0  0  0  0  0  0  0  0  0  0  0
   -7.0240   19.9780  -32.2940 C   0  0  0  0  0  0  0  0  0  0  0  0
   -5.6000   19.5930  -32.2940 C   0  0  0  0  0  0  0  0  0  0  0  0
   -5.1570   18.8180  -31.4040 O   0  0  0  0  0  0  0  0  0  0  0  0
   -4.7100   20.1060  -33.2960 N   0  0  0  0  0  0  0  0  0  0  0  0
   -3.3060   20.3140  -33.0540 C   0  0  0  0  0  0  0  0  0  0  0  0
   -2.3690   19.6270  -33.8400 C   0  0  0  0  0  0  0  0  0  0  0  0
   -0.9870   19.8560  -33.6760 C   0  0  0  0  0  0  0  0  0  0  0  0
   -0.0060   19.2340  -34.4720 C   0  0  0  0  0  0  0  0  0  0  0  0
   -0.4230   18.0140  -35.7270 S   0  0  0  0  0  0  0  0  0  0  0  0
   -0.9550   16.8110  -34.5140 C   0  0  0  0  0  0  0  0  0  0  0  0
   -2.3100   16.4750  -34.3850 C   0  0  0  0  0  0  0  0  0  0  0  0
   -2.6970   15.5250  -33.4260 C   0  0  0  0  0  0  0  0  0  0  0  0
   -4.0860   15.1690  -33.2650 N   0  0  0  0  0  0  0  0  0  0  0  0
   -4.7990   15.4730  -32.0240 C   0  0  0  0  0  0  0  0  0  0  0  0
   -6.0210   16.3590  -32.3160 C   0  0  0  0  0  0  0  0  0  0  0  0
   -6.6860   16.0590  -33.6150 N   0  0  0  0  0  0  0  0  0  0  0  0
   -6.4780   17.1340  -34.6000 C   0  0  0  0  0  0  0  0  0  0  0  0
   -6.3410   14.7320  -34.1720 C   0  0  0  0  0  0  0  0  0  0  0  0
   -4.8250   14.5640  -34.3770 C   0  0  0  0  0  0  0  0  0  0  0  0
   -1.7180   14.9410  -32.6080 C   0  0  0  0  0  0  0  0  0  0  0  0
   -0.3800   15.3100  -32.7660 C   0  0  0  0  0  0  0  0  0  0  0  0
   -0.0310   16.2280  -33.7060 N   0  0  0  0  0  0  0  0  0  0  0  0
    1.3080   19.5520  -34.2940 N   0  0  0  0  0  0  0  0  0  0  0  0
    1.7000   20.4440  -33.3510 C   0  0  0  0  0  0  0  0  0  0  0  0
    0.7730   21.0500  -32.5630 N   0  0  0  0  0  0  0  0  0  0  0  0
   -0.5520   20.7800  -32.7020 C   0  0  0  0  0  0  0  0  0  0  0  0
   -1.4840   21.4550  -31.9110 C   0  0  0  0  0  0  0  0  0  0  0  0
   -2.8590   21.2500  -32.0910 C   0  0  0  0  0  0  0  0  0  0  0  0
   -3.7800   22.1100  -31.4010 N   0  0  0  0  0  0  0  0  0  0  0  0
   -4.7860   22.8520  -32.1750 C   0  0  0  0  0  0  0  0  0  0  0  0
   -5.2960   24.0550  -31.3750 C   0  0  0  0  0  0  0  0  0  0  0  0
   -4.1710   24.7580  -30.7360 N   0  0  0  0  0  0  0  0  0  0  0  0
   -3.4780   23.9250  -29.7310 C   0  0  0  0  0  0  0  0  0  0  0  0
   -3.6010   22.4010  -29.9760 C   0  0  0  0  0  0  0  0  0  0  0  0
   -7.3650   21.2890  -32.1440 N   0  0  0  0  0  0  0  0  0  0  0  0
   -9.0117   23.4421  -30.9174 H   0  0  0  0  0  0  0  0  0  0  0  0
   -8.1566   23.7448  -32.4678 H   0  0  0  0  0  0  0  0  0  0  0  0
   -9.9172   23.3886  -32.4678 H   0  0  0  0  0  0  0  0  0  0  0  0
  -10.7501   21.0993  -32.2240 H   0  0  0  0  0  0  0  0  0  0  0  0
  -10.1854   18.6752  -32.4901 H   0  0  0  0  0  0  0  0  0  0  0  0
   -7.7886   17.9519  -32.5286 H   0  0  0  0  0  0  0  0  0  0  0  0
   -5.0680   20.2290  -34.2720 H   0  0  0  0  0  0  0  0  0  0  0  0
   -2.7155   18.9025  -34.5917 H   0  0  0  0  0  0  0  0  0  0  0  0
   -3.0635   16.9514  -35.0294 H   0  0  0  0  0  0  0  0  0  0  0  0
   -5.1339   14.5344  -31.5583 H   0  0  0  0  0  0  0  0  0  0  0  0
   -4.1215   16.0096  -31.3435 H   0  0  0  0  0  0  0  0  0  0  0  0
   -6.7548   16.2142  -31.5094 H   0  0  0  0  0  0  0  0  0  0  0  0
   -5.6578   17.3957  -32.3745 H   0  0  0  0  0  0  0  0  0  0  0  0
   -6.2945   18.0826  -34.0742 H   0  0  0  0  0  0  0  0  0  0  0  0
   -5.6103   16.8905  -35.2307 H   0  0  0  0  0  0  0  0  0  0  0  0
   -7.3739   17.2318  -35.2307 H   0  0  0  0  0  0  0  0  0  0  0  0
   -6.6930   13.9542  -33.4784 H   0  0  0  0  0  0  0  0  0  0  0  0
   -6.8268   14.6415  -35.1548 H   0  0  0  0  0  0  0  0  0  0  0  0
   -4.5837   13.4922  -34.4313 H   0  0  0  0  0  0  0  0  0  0  0  0
   -4.5348   15.0661  -35.3117 H   0  0  0  0  0  0  0  0  0  0  0  0
   -2.0019   14.1982  -31.8480 H   0  0  0  0  0  0  0  0  0  0  0  0
    0.3931   14.8567  -32.1282 H   0  0  0  0  0  0  0  0  0  0  0  0
    2.7675   20.6770  -33.2238 H   0  0  0  0  0  0  0  0  0  0  0  0
   -1.1353   22.1555  -31.1379 H   0  0  0  0  0  0  0  0  0  0  0  0
   -4.3328   23.2062  -33.1126 H   0  0  0  0  0  0  0  0  0  0  0  0
   -5.6324   22.1839  -32.3926 H   0  0  0  0  0  0  0  0  0  0  0  0
   -5.8181   24.7465  -32.0527 H   0  0  0  0  0  0  0  0  0  0  0  0
   -5.9853   23.6996  -30.5949 H   0  0  0  0  0  0  0  0  0  0  0  0
   -3.4790   25.0310  -31.4830 H   0  0  0  0  0  0  0  0  0  0  0  0
   -2.4106   24.1907  -29.7395 H   0  0  0  0  0  0  0  0  0  0  0  0
   -3.9605   24.1296  -28.7639 H   0  0  0  0  0  0  0  0  0  0  0  0
   -2.6863   21.9046  -29.6198 H   0  0  0  0  0  0  0  0  0  0  0  0
   -4.4800   22.0284  -29.4296 H   0  0  0  0  0  0  0  0  0  0  0  0
  1  2  1  0
  2  3  2  0
  3  4  1  0
  4  5  2  0
  5  6  1  0
  6  7  1  0
  7  8  2  0
  7  9  1  0
  9 10  1  0
 10 11  2  0
 11 12  1  0
 12 13  2  0
 13 14  1  0
 14 15  1  0
 15 16  2  0
 16 17  1  0
 17 18  1  0
 18 19  1  0
 19 20  1  0
 20 21  1  0
 21 22  1  0
 21 23  1  0
 23 24  1  0
 17 25  2  0
 25 26  1  0
 26 27  2  0
 13 28  1  0
 28 29  2  0
 29 30  1  0
 30 31  2  0
 31 32  1  0
 32 33  2  0
 33 34  1  0
 34 35  1  0
 35 36  1  0
 36 37  1  0
 37 38  1  0
 38 39  1  0
  6 40  2  0
 40  2  1  0
 33 10  1  0
 39 34  1  0
 31 12  1  0
 27 15  1  0
 24 18  1  0
  1 41  1  0
  1 42  1  0
  1 43  1  0
  3 44  1  0
  4 45  1  0
  5 46  1  0
  9 47  1  0
 11 48  1  0
 16 49  1  0
 19 50  1  0
 19 51  1  0
 20 52  1  0
 20 53  1  0
 22 54  1  0
 22 55  1  0
 22 56  1  0
 23 57  1  0
 23 58  1  0
 24 59  1  0
 24 60  1  0
 25 61  1  0
 26 62  1  0
 29 63  1  0
 32 64  1  0
 35 65  1  0
 35 66  1  0
 36 67  1  0
 36 68  1  0
 37 69  1  0
 38 70  1  0
 38 71  1  0
 39 72  1  0
 39 73  1  0
M  END
>  <UniqueID>  (20) 
20

>  <SMILES>  (20) 
Cc1cccc(C(=O)Nc2cc3c(Sc4cc(N5CCN(C)CC5)ccn4)ncnc3cc2N2CCNCC2)n1

>  <Energy>  (20) 
106.70883203748039

>  <Genealogy>  (20) 
Cc1cccc(C(=O)Nc2cc3c(Sc4cc(N5CCN(C)CC5)ccn4)ncnc3cc2N2CCNCC2)n1 (3D coordinates assigned)
Cc1cccc(C(=O)Nc2cc3c(Sc4cc(N5CCN(C)CC5)ccn4)ncnc3cc2N2CCNCC2)n1 (nonaromatic ring conformer: 106.70883203748039 kcal/mol)

>  <smiles>  (20) 
Cc1cccc(C(=O)Nc2cc3c(Sc4cc(N5CCN(C)CC5)ccn4)ncnc3cc2N2CCNCC2)n1

>  <score_type>  (20) 
oracle

>  <origin>  (20) 
adgpu

>  <m_score__min__energy>  (20) 
-10.35

>  <m_primary>  (20) 
energy

$$$$
20:0
     RDKit          3D

 50 53  0  0  0  0  0  0  0  0999 V2000
   -0.4910   18.3810  -31.5980 C   0  0  0  0  0  0  0  0  0  0  0  0
   -0.4870   18.9640  -30.2990 O   0  0  0  0  0  0  0  0  0  0  0  0
   -0.9150   20.2740  -30.0230 C   0  0  0  0  0  0  0  0  0  0  0  0
   -1.3310   21.0810  -31.0900 C   0  0  0  0  0  0  0  0  0  0  0  0
   -1.7630   22.3930  -30.8620 C   0  0  0  0  0  0  0  0  0  0  0  0
   -1.7880   22.9110  -29.5570 C   0  0  0  0  0  0  0  0  0  0  0  0
   -2.3670   24.5430  -29.2320 S   0  0  0  0  0  0  0  0  0  0  0  0
   -3.0450   24.5560  -27.8910 O   0  0  0  0  0  0  0  0  0  0  0  0
   -1.2330   25.5320  -29.2040 O   0  0  0  0  0  0  0  0  0  0  0  0
   -3.5180   24.9890  -30.4540 N   0  0  0  0  0  0  0  0  0  0  0  0
   -4.8380   24.4390  -30.5740 C   0  0  0  0  0  0  0  0  0  0  0  0
   -5.9380   25.2760  -30.3550 C   0  0  0  0  0  0  0  0  0  0  0  0
   -7.2370   24.7750  -30.4600 C   0  0  0  0  0  0  0  0  0  0  0  0
   -7.4480   23.4340  -30.8000 C   0  0  0  0  0  0  0  0  0  0  0  0
   -6.3570   22.5790  -31.0350 C   0  0  0  0  0  0  0  0  0  0  0  0
   -6.5690   21.1660  -31.4440 C   0  0  0  0  0  0  0  0  0  0  0  0
   -7.8680   20.6540  -31.6100 C   0  0  0  0  0  0  0  0  0  0  0  0
   -8.0630   19.3510  -32.0800 C   0  0  0  0  0  0  0  0  0  0  0  0
   -6.9670   18.5480  -32.4120 C   0  0  0  0  0  0  0  0  0  0  0  0
   -7.2410   16.9160  -33.1150 S   0  0  0  0  0  0  0  0  0  0  0  0
   -5.8310   17.0460  -34.2200 C   0  0  0  0  0  0  0  0  0  0  0  0
   -5.6410   18.0670  -35.0750 N   0  0  0  0  0  0  0  0  0  0  0  0
   -4.5070   17.7840  -35.7030 N   0  0  0  0  0  0  0  0  0  0  0  0
   -4.0190   16.6330  -35.2620 N   0  0  0  0  0  0  0  0  0  0  0  0
   -4.8250   16.1630  -34.3270 N   0  0  0  0  0  0  0  0  0  0  0  0
   -4.6840   14.8600  -33.6880 C   0  0  0  0  0  0  0  0  0  0  0  0
   -5.6650   19.0280  -32.2070 C   0  0  0  0  0  0  0  0  0  0  0  0
   -4.5700   18.2110  -32.4700 O   0  0  0  0  0  0  0  0  0  0  0  0
   -5.4710   20.3290  -31.7240 C   0  0  0  0  0  0  0  0  0  0  0  0
   -5.0530   23.0940  -30.9190 C   0  0  0  0  0  0  0  0  0  0  0  0
   -1.3790   22.1070  -28.4860 C   0  0  0  0  0  0  0  0  0  0  0  0
   -0.9430   20.7980  -28.7140 C   0  0  0  0  0  0  0  0  0  0  0  0
   -0.4985   17.2847  -31.5079 H   0  0  0  0  0  0  0  0  0  0  0  0
   -1.3869   18.7101  -32.1448 H   0  0  0  0  0  0  0  0  0  0  0  0
    0.4093   18.6978  -32.1448 H   0  0  0  0  0  0  0  0  0  0  0  0
   -1.3181   20.6808  -32.1145 H   0  0  0  0  0  0  0  0  0  0  0  0
   -2.0837   23.0197  -31.7072 H   0  0  0  0  0  0  0  0  0  0  0  0
   -5.7784   26.3338  -30.0989 H   0  0  0  0  0  0  0  0  0  0  0  0
   -8.0966   25.4359  -30.2750 H   0  0  0  0  0  0  0  0  0  0  0  0
   -8.4740   23.0464  -30.8839 H   0  0  0  0  0  0  0  0  0  0  0  0
   -8.7375   21.2829  -31.3684 H   0  0  0  0  0  0  0  0  0  0  0  0
   -9.0837   18.9558  -32.1891 H   0  0  0  0  0  0  0  0  0  0  0  0
   -4.6974   14.9842  -32.5951 H   0  0  0  0  0  0  0  0  0  0  0  0
   -5.5170   14.2098  -33.9934 H   0  0  0  0  0  0  0  0  0  0  0  0
   -3.7312   14.4030  -33.9934 H   0  0  0  0  0  0  0  0  0  0  0  0
   -4.2480   18.0400  -33.4160 H   0  0  0  0  0  0  0  0  0  0  0  0
   -4.4488   20.7013  -31.5615 H   0  0  0  0  0  0  0  0  0  0  0  0
   -4.1909   22.4354  -31.1007 H   0  0  0  0  0  0  0  0  0  0  0  0
   -1.4007   22.5066  -27.4614 H   0  0  0  0  0  0  0  0  0  0  0  0
   -0.6202   20.1737  -27.8678 H   0  0  0  0  0  0  0  0  0  0  0  0
  1  2  1  0
  2  3  1  0
  3  4  2  0
  4  5  1  0
  5  6  2  0
  6  7  1  0
  7  8  2  0
  7  9  2  0
  7 10  1  0
 10 11  1  0
 11 12  2  0
 12 13  1  0
 13 14  2  0
 14 15  1  0
 15 16  1  0
 16 17  2  0
 17 18  1  0
 18 19  2  0
 19 20  1  0
 20 21  1  0
 21 22  2  0
 22 23  1  0
 23 24  2  0
 24 25  1  0
 25 26  1  0
 19 27  1  0
 27 28  1  0
 27 29  2  0
 15 30  2  0
  6 31  1  0
 31 32  2  0
 32  3  1  0
 30 11  1  0
 29 16  1  0
 25 21  1  0
  1 33  1  0
  1 34  1  0
  1 35  1  0
  4 36  1  0
  5 37  1  0
 12 38  1  0
 13 39  1  0
 14 40  1  0
 17 41  1  0
 18 42  1  0
 26 43  1  0
 26 44  1  0
 26 45  1  0
 28 46  1  0
 29 47  1  0
 30 48  1  0
 31 49  1  0
 32 50  1  0
M  CHG  1  10  -1
M  END
>  <UniqueID>  (21) 
21

>  <SMILES>  (21) 
COc1ccc(S(=O)(=O)[N-]c2cccc(-c3ccc(Sc4nnnn4C)c(O)c3)c2)cc1

>  <Energy>  (21) 
98.03746571891348

>  <Genealogy>  (21) 
COc1ccc(S(=O)(=O)[N-]c2cccc(-c3ccc(Sc4nnnn4C)c(O)c3)c2)cc1 (protonated)
COc1ccc(S(=O)(=O)[N-]c2cccc(-c3ccc(Sc4nnnn4C)c(O)c3)c2)cc1 (3D coordinates assigned)
COc1ccc(S(=O)(=O)[N-]c2cccc(-c3ccc(Sc4nnnn4C)c(O)c3)c2)cc1 (optimized conformer: 98.03746571891348 kcal/mol)

>  <smiles>  (21) 
COc1ccc(S(=O)(=O)Nc2cccc(-c3ccc(Sc4nnnn4C)c(O)c3)c2)cc1

>  <score_type>  (21) 
oracle

>  <origin>  (21) 
adgpu

>  <m_score__min__energy>  (21) 
-11.6

>  <m_primary>  (21) 
energy

$$$$
21:0
     RDKit          3D

 52 55  0  0  0  0  0  0  0  0999 V2000
   -1.3080   19.5420  -27.4370 C   0  0  0  0  0  0  0  0  0  0  0  0
   -2.5090   20.3160  -26.9020 C   0  0  0  0  0  0  0  0  0  0  0  0
   -2.5730   21.6550  -27.5120 N   0  0  0  0  0  0  0  0  0  0  0  0
   -3.4360   21.8590  -28.5520 C   0  0  0  0  0  0  0  0  0  0  0  0
   -3.5330   23.1050  -29.1930 C   0  0  0  0  0  0  0  0  0  0  0  0
   -4.4970   23.2770  -30.3120 C   0  0  0  0  0  0  0  0  0  0  0  0
   -4.4520   24.2860  -31.2070 N   0  0  0  0  0  0  0  0  0  0  0  0
   -5.4560   24.0780  -32.0030 O   0  0  0  0  0  0  0  0  0  0  0  0
   -6.0920   22.9970  -31.6310 C   0  0  0  0  0  0  0  0  0  0  0  0
   -7.3210   22.4730  -32.3000 C   0  0  0  0  0  0  0  0  0  0  0  0
   -7.1960   20.9890  -32.5090 C   0  0  0  0  0  0  0  0  0  0  0  0
   -8.0910   20.1110  -31.8850 C   0  0  0  0  0  0  0  0  0  0  0  0
   -8.0000   18.7360  -32.1070 C   0  0  0  0  0  0  0  0  0  0  0  0
   -7.0150   18.2160  -32.9680 C   0  0  0  0  0  0  0  0  0  0  0  0
   -6.8920   16.8390  -33.2150 O   0  0  0  0  0  0  0  0  0  0  0  0
   -5.7200   16.0750  -32.9540 C   0  0  0  0  0  0  0  0  0  0  0  0
   -6.1230   19.0900  -33.6090 C   0  0  0  0  0  0  0  0  0  0  0  0
   -5.1560   18.5450  -34.4670 O   0  0  0  0  0  0  0  0  0  0  0  0
   -3.7550   18.5440  -34.2110 C   0  0  0  0  0  0  0  0  0  0  0  0
   -6.2210   20.4770  -33.3790 C   0  0  0  0  0  0  0  0  0  0  0  0
   -5.5280   22.4360  -30.5460 N   0  0  0  0  0  0  0  0  0  0  0  0
   -2.7050   24.1570  -28.7510 C   0  0  0  0  0  0  0  0  0  0  0  0
   -2.7650   25.2900  -29.3020 O   0  0  0  0  0  0  0  0  0  0  0  0
   -1.8060   23.9380  -27.6940 C   0  0  0  0  0  0  0  0  0  0  0  0
   -0.9510   24.9530  -27.2270 C   0  0  0  0  0  0  0  0  0  0  0  0
   -0.0630   24.6950  -26.1830 C   0  0  0  0  0  0  0  0  0  0  0  0
   -0.0310   23.4220  -25.6060 C   0  0  0  0  0  0  0  0  0  0  0  0
    0.9100   23.1240  -24.4830 C   0  0  0  0  0  0  0  0  0  0  0  0
   -0.8670   22.4520  -26.0650 N   0  0  0  0  0  0  0  0  0  0  0  0
   -1.7490   22.6660  -27.0830 C   0  0  0  0  0  0  0  0  0  0  0  0
   -0.7137   19.1590  -26.5943 H   0  0  0  0  0  0  0  0  0  0  0  0
   -1.6587   18.6995  -28.0512 H   0  0  0  0  0  0  0  0  0  0  0  0
   -0.6857   20.2094  -28.0512 H   0  0  0  0  0  0  0  0  0  0  0  0
   -3.4305   19.7649  -27.1410 H   0  0  0  0  0  0  0  0  0  0  0  0
   -2.4047   20.4260  -25.8125 H   0  0  0  0  0  0  0  0  0  0  0  0
   -4.0695   21.0278  -28.8951 H   0  0  0  0  0  0  0  0  0  0  0  0
   -8.1970   22.6799  -31.6677 H   0  0  0  0  0  0  0  0  0  0  0  0
   -7.4416   22.9675  -33.2752 H   0  0  0  0  0  0  0  0  0  0  0  0
   -8.8697   20.5070  -31.2165 H   0  0  0  0  0  0  0  0  0  0  0  0
   -8.7027   18.0541  -31.6058 H   0  0  0  0  0  0  0  0  0  0  0  0
   -5.5774   15.9820  -31.8673 H   0  0  0  0  0  0  0  0  0  0  0  0
   -5.8288   15.0738  -33.3965 H   0  0  0  0  0  0  0  0  0  0  0  0
   -4.8479   16.5786  -33.3965 H   0  0  0  0  0  0  0  0  0  0  0  0
   -3.5807   18.5439  -33.1249 H   0  0  0  0  0  0  0  0  0  0  0  0
   -3.3017   17.6455  -34.6552 H   0  0  0  0  0  0  0  0  0  0  0  0
   -3.3005   19.4418  -34.6552 H   0  0  0  0  0  0  0  0  0  0  0  0
   -5.5274   21.1641  -33.8857 H   0  0  0  0  0  0  0  0  0  0  0  0
   -0.9830   25.9521  -27.6862 H   0  0  0  0  0  0  0  0  0  0  0  0
    0.6069   25.4868  -25.8165 H   0  0  0  0  0  0  0  0  0  0  0  0
    0.3982   23.2861  -23.5229 H   0  0  0  0  0  0  0  0  0  0  0  0
    1.2409   22.0771  -24.5499 H   0  0  0  0  0  0  0  0  0  0  0  0
    1.7832   23.7896  -24.5499 H   0  0  0  0  0  0  0  0  0  0  0  0
  1  2  1  0
  2  3  1  0
  3  4  1  0
  4  5  2  0
  5  6  1  0
  6  7  2  0
  7  8  1  0
  8  9  1  0
  9 10  1  0
 10 11  1  0
 11 12  2  0
 12 13  1  0
 13 14  2  0
 14 15  1  0
 15 16  1  0
 14 17  1  0
 17 18  1  0
 18 19  1  0
 17 20  2  0
  9 21  2  0
  5 22  1  0
 22 23  2  0
 22 24  1  0
 24 25  2  0
 25 26  1  0
 26 27  2  0
 27 28  1  0
 27 29  1  0
 29 30  2  0
 30  3  1  0
 21  6  1  0
 30 24  1  0
 20 11  1  0
  1 31  1  0
  1 32  1  0
  1 33  1  0
  2 34  1  0
  2 35  1  0
  4 36  1  0
 10 37  1  0
 10 38  1  0
 12 39  1  0
 13 40  1  0
 16 41  1  0
 16 42  1  0
 16 43  1  0
 19 44  1  0
 19 45  1  0
 19 46  1  0
 20 47  1  0
 25 48  1  0
 26 49  1  0
 28 50  1  0
 28 51  1  0
 28 52  1  0
M  END
>  <UniqueID>  (22) 
22

>  <SMILES>  (22) 
CCn1cc(-c2noc(Cc3ccc(OC)c(OC)c3)n2)c(=O)c2ccc(C)nc21

>  <Energy>  (22) 
90.81191645269877

>  <Genealogy>  (22) 
CCn1cc(-c2noc(Cc3ccc(OC)c(OC)c3)n2)c(=O)c2ccc(C)nc21 (3D coordinates assigned)
CCn1cc(-c2noc(Cc3ccc(OC)c(OC)c3)n2)c(=O)c2ccc(C)nc21 (optimized conformer: 90.81191645269877 kcal/mol)

>  <smiles>  (22) 
CCn1cc(-c2noc(Cc3ccc(OC)c(OC)c3)n2)c(=O)c2ccc(C)nc21

>  <score_type>  (22) 
oracle

>  <origin>  (22) 
adgpu

>  <m_score__min__energy>  (22) 
-9.0199999999999996

>  <m_primary>  (22) 
energy

$$$$
22:0
     RDKit          3D

 64 67  0  0  0  0  0  0  0  0999 V2000
   -4.5360   25.4560  -30.8560 O   0  0  0  0  0  0  0  0  0  0  0  0
   -3.7580   24.5490  -30.4600 C   0  0  0  0  0  0  0  0  0  0  0  0
   -4.0560   23.1230  -30.8550 C   0  0  0  0  0  0  0  0  0  0  0  0
   -5.2340   22.6090  -30.1540 N   0  0  0  0  0  0  0  0  0  0  0  0
   -6.4780   22.3270  -30.8200 C   0  0  0  0  0  0  0  0  0  0  0  0
   -6.8260   21.0100  -31.1770 C   0  0  0  0  0  0  0  0  0  0  0  0
   -8.0410   20.7470  -31.8280 C   0  0  0  0  0  0  0  0  0  0  0  0
   -8.5050   19.1000  -32.2490 S   0  0  0  0  0  0  0  0  0  0  0  0
   -8.7560   18.2900  -31.0060 O   0  0  0  0  0  0  0  0  0  0  0  0
   -9.7690   19.1530  -33.0600 O   0  0  0  0  0  0  0  0  0  0  0  0
   -7.2230   18.3620  -33.1800 N   0  0  0  0  0  0  0  0  0  0  0  0
   -6.4570   19.3860  -33.9380 C   0  0  0  0  0  0  0  0  0  0  0  0
   -5.0720   19.6700  -33.3420 C   0  0  0  0  0  0  0  0  0  0  0  0
   -4.2280   18.3890  -33.2580 C   0  0  0  0  0  0  0  0  0  0  0  0
   -5.0740   17.1340  -32.9790 C   0  0  0  0  0  0  0  0  0  0  0  0
   -6.4020   17.4980  -32.3060 C   0  0  0  0  0  0  0  0  0  0  0  0
   -8.9060   21.8030  -32.1320 C   0  0  0  0  0  0  0  0  0  0  0  0
   -8.5720   23.1100  -31.7770 C   0  0  0  0  0  0  0  0  0  0  0  0
   -7.3660   23.3770  -31.1150 C   0  0  0  0  0  0  0  0  0  0  0  0
   -7.0400   24.6870  -30.7620 O   0  0  0  0  0  0  0  0  0  0  0  0
   -2.6130   24.9230  -29.6750 N   0  0  0  0  0  0  0  0  0  0  0  0
   -2.0890   24.2530  -28.5190 C   0  0  0  0  0  0  0  0  0  0  0  0
   -1.3420   24.9890  -27.5910 C   0  0  0  0  0  0  0  0  0  0  0  0
   -0.7890   24.3600  -26.4730 C   0  0  0  0  0  0  0  0  0  0  0  0
   -0.9820   22.9900  -26.2720 C   0  0  0  0  0  0  0  0  0  0  0  0
   -1.7490   22.2490  -27.1790 C   0  0  0  0  0  0  0  0  0  0  0  0
   -1.9760   20.5220  -26.9370 S   0  0  0  0  0  0  0  0  0  0  0  0
   -1.6410   20.1710  -25.5140 O   0  0  0  0  0  0  0  0  0  0  0  0
   -3.4170   20.1730  -27.1870 O   0  0  0  0  0  0  0  0  0  0  0  0
   -0.9570   19.6360  -28.0410 N   0  0  0  0  0  0  0  0  0  0  0  0
    0.3030   20.3390  -28.2780 C   0  0  0  0  0  0  0  0  0  0  0  0
    1.3310   19.2770  -28.6350 C   0  0  0  0  0  0  0  0  0  0  0  0
    0.7600   17.9710  -28.1090 C   0  0  0  0  0  0  0  0  0  0  0  0
   -0.5780   18.3360  -27.4850 C   0  0  0  0  0  0  0  0  0  0  0  0
   -2.3330   22.8910  -28.2800 C   0  0  0  0  0  0  0  0  0  0  0  0
   -4.2388   23.0827  -31.9390 H   0  0  0  0  0  0  0  0  0  0  0  0
   -3.1915   22.5003  -30.5813 H   0  0  0  0  0  0  0  0  0  0  0  0
   -5.1750   22.4650  -29.1200 H   0  0  0  0  0  0  0  0  0  0  0  0
   -6.1407   20.1817  -30.9440 H   0  0  0  0  0  0  0  0  0  0  0  0
   -6.3268   19.0312  -34.9710 H   0  0  0  0  0  0  0  0  0  0  0  0
   -7.0308   20.3234  -33.8917 H   0  0  0  0  0  0  0  0  0  0  0  0
   -4.5513   20.4013  -33.9777 H   0  0  0  0  0  0  0  0  0  0  0  0
   -5.2060   20.0653  -32.3243 H   0  0  0  0  0  0  0  0  0  0  0  0
   -3.7010   18.2521  -34.2138 H   0  0  0  0  0  0  0  0  0  0  0  0
   -3.5271   18.5089  -32.4188 H   0  0  0  0  0  0  0  0  0  0  0  0
   -5.2824   16.6231  -33.9306 H   0  0  0  0  0  0  0  0  0  0  0  0
   -4.5090   16.4772  -32.3012 H   0  0  0  0  0  0  0  0  0  0  0  0
   -6.9590   16.5749  -32.0880 H   0  0  0  0  0  0  0  0  0  0  0  0
   -6.1841   18.0468  -31.3779 H   0  0  0  0  0  0  0  0  0  0  0  0
   -9.8536   21.6021  -32.6532 H   0  0  0  0  0  0  0  0  0  0  0  0
   -9.2585   23.9350  -32.0178 H   0  0  0  0  0  0  0  0  0  0  0  0
   -6.0830   24.9650  -30.5810 H   0  0  0  0  0  0  0  0  0  0  0  0
   -1.1899   26.0678  -27.7431 H   0  0  0  0  0  0  0  0  0  0  0  0
   -0.2007   24.9436  -25.7496 H   0  0  0  0  0  0  0  0  0  0  0  0
   -0.5307   22.4937  -25.4002 H   0  0  0  0  0  0  0  0  0  0  0  0
    0.1898   21.0521  -29.1079 H   0  0  0  0  0  0  0  0  0  0  0  0
    0.6129   20.9092  -27.3898 H   0  0  0  0  0  0  0  0  0  0  0  0
    1.4688   19.2256  -29.7251 H   0  0  0  0  0  0  0  0  0  0  0  0
    2.3164   19.4981  -28.1990 H   0  0  0  0  0  0  0  0  0  0  0  0
    0.6182   17.2543  -28.9314 H   0  0  0  0  0  0  0  0  0  0  0  0
    1.4335   17.4942  -27.3817 H   0  0  0  0  0  0  0  0  0  0  0  0
   -1.3346   17.5791  -27.7393 H   0  0  0  0  0  0  0  0  0  0  0  0
   -0.5061   18.3790  -26.3882 H   0  0  0  0  0  0  0  0  0  0  0  0
   -2.9859   22.3247  -28.9604 H   0  0  0  0  0  0  0  0  0  0  0  0
  1  2  2  0
  2  3  1  0
  3  4  1  0
  4  5  1  0
  5  6  2  0
  6  7  1  0
  7  8  1  0
  8  9  2  0
  8 10  2  0
  8 11  1  0
 11 12  1  0
 12 13  1  0
 13 14  1  0
 14 15  1  0
 15 16  1  0
  7 17  2  0
 17 18  1  0
 18 19  2  0
 19 20  1  0
  2 21  1  0
 21 22  1  0
 22 23  2  0
 23 24  1  0
 24 25  2  0
 25 26  1  0
 26 27  1  0
 27 28  2  0
 27 29  2  0
 27 30  1  0
 30 31  1  0
 31 32  1  0
 32 33  1  0
 33 34  1  0
 26 35  2  0
 19  5  1  0
 35 22  1  0
 16 11  1  0
 34 30  1  0
  3 36  1  0
  3 37  1  0
  4 38  1  0
  6 39  1  0
 12 40  1  0
 12 41  1  0
 13 42  1  0
 13 43  1  0
 14 44  1  0
 14 45  1  0
 15 46  1  0
 15 47  1  0
 16 48  1  0
 16 49  1  0
 17 50  1  0
 18 51  1  0
 20 52  1  0
 23 53  1  0
 24 54  1  0
 25 55  1  0
 31 56  1  0
 31 57  1  0
 32 58  1  0
 32 59  1  0
 33 60  1  0
 33 61  1  0
 34 62  1  0
 34 63  1  0
 35 64  1  0
M  CHG  1  21  -1
M  END
>  <UniqueID>  (23) 
23

>  <SMILES>  (23) 
O=C(CNc1cc(S(=O)(=O)N2CCCCC2)ccc1O)[N-]c1cccc(S(=O)(=O)N2CCCC2)c1

>  <Energy>  (23) 
71.58981764842542

>  <Genealogy>  (23) 
O=C(CNc1cc(S(=O)(=O)N2CCCCC2)ccc1O)[N-]c1cccc(S(=O)(=O)N2CCCC2)c1 (protonated)
O=C(CNc1cc(S(=O)(=O)N2CCCCC2)ccc1O)[N-]c1cccc(S(=O)(=O)N2CCCC2)c1 (3D coordinates assigned)
O=C(CNc1cc(S(=O)(=O)N2CCCCC2)ccc1O)[N-]c1cccc(S(=O)(=O)N2CCCC2)c1 (nonaromatic ring conformer: 71.58981764842542 kcal/mol)

>  <smiles>  (23) 
O=C(CNc1cc(S(=O)(=O)N2CCCCC2)ccc1O)Nc1cccc(S(=O)(=O)N2CCCC2)c1

>  <score_type>  (23) 
oracle

>  <origin>  (23) 
adgpu

>  <m_score__min__energy>  (23) 
-12.35

>  <m_primary>  (23) 
energy

$$$$
23:0
     RDKit          3D

 61 64  0  0  0  0  0  0  0  0999 V2000
   -1.5050   19.8840  -28.0400 C   0  0  0  0  0  0  0  0  0  0  0  0
   -1.2210   21.3590  -27.9670 C   0  0  0  0  0  0  0  0  0  0  0  0
   -0.3490   21.8570  -26.9860 C   0  0  0  0  0  0  0  0  0  0  0  0
   -0.0920   23.2250  -26.8960 C   0  0  0  0  0  0  0  0  0  0  0  0
   -0.7070   24.1170  -27.7800 C   0  0  0  0  0  0  0  0  0  0  0  0
   -0.4100   25.8490  -27.6360 S   0  0  0  0  0  0  0  0  0  0  0  0
   -0.9250   26.5530  -28.8600 O   0  0  0  0  0  0  0  0  0  0  0  0
    1.0730   26.0800  -27.5400 O   0  0  0  0  0  0  0  0  0  0  0  0
   -1.1950   26.4760  -26.2050 N   0  0  0  0  0  0  0  0  0  0  0  0
   -0.3430   27.5110  -25.5750 C   0  0  0  0  0  0  0  0  0  0  0  0
   -0.7310   27.7470  -24.1120 C   0  0  0  0  0  0  0  0  0  0  0  0
   -0.5250   26.4720  -23.2760 C   0  0  0  0  0  0  0  0  0  0  0  0
   -0.6370   25.1870  -24.1130 C   0  0  0  0  0  0  0  0  0  0  0  0
   -1.6010   25.3750  -25.2940 C   0  0  0  0  0  0  0  0  0  0  0  0
   -1.5850   23.6300  -28.7560 C   0  0  0  0  0  0  0  0  0  0  0  0
   -1.8360   22.2510  -28.8690 C   0  0  0  0  0  0  0  0  0  0  0  0
   -2.7660   21.7390  -29.8390 N   0  0  0  0  0  0  0  0  0  0  0  0
   -3.2860   22.4340  -30.9790 C   0  0  0  0  0  0  0  0  0  0  0  0
   -2.6570   22.4020  -32.0720 O   0  0  0  0  0  0  0  0  0  0  0  0
   -4.5780   23.1660  -30.8960 C   0  0  0  0  0  0  0  0  0  0  0  0
   -5.7820   22.4640  -31.1000 C   0  0  0  0  0  0  0  0  0  0  0  0
   -7.0180   23.1240  -31.0600 C   0  0  0  0  0  0  0  0  0  0  0  0
   -8.5170   22.2290  -31.3340 S   0  0  0  0  0  0  0  0  0  0  0  0
   -9.1620   21.9380  -30.0080 O   0  0  0  0  0  0  0  0  0  0  0  0
   -9.4600   23.0870  -32.1310 O   0  0  0  0  0  0  0  0  0  0  0  0
   -8.2630   20.7240  -32.1850 N   0  0  0  0  0  0  0  0  0  0  0  0
   -9.4310   19.8510  -32.1160 C   0  0  0  0  0  0  0  0  0  0  0  0
   -8.9150   18.4320  -32.3020 C   0  0  0  0  0  0  0  0  0  0  0  0
   -7.4320   18.4960  -31.9670 C   0  0  0  0  0  0  0  0  0  0  0  0
   -7.1600   19.9500  -31.6190 C   0  0  0  0  0  0  0  0  0  0  0  0
   -7.0580   24.4960  -30.7910 C   0  0  0  0  0  0  0  0  0  0  0  0
   -5.8760   25.2040  -30.5790 C   0  0  0  0  0  0  0  0  0  0  0  0
   -4.6400   24.5530  -30.6290 C   0  0  0  0  0  0  0  0  0  0  0  0
   -3.4880   25.3010  -30.4040 O   0  0  0  0  0  0  0  0  0  0  0  0
   -1.5838   19.4749  -27.0219 H   0  0  0  0  0  0  0  0  0  0  0  0
   -2.4514   19.7189  -28.5757 H   0  0  0  0  0  0  0  0  0  0  0  0
   -0.6875   19.3793  -28.5757 H   0  0  0  0  0  0  0  0  0  0  0  0
    0.1352   21.1632  -26.2830 H   0  0  0  0  0  0  0  0  0  0  0  0
    0.5971   23.6036  -26.1267 H   0  0  0  0  0  0  0  0  0  0  0  0
    0.7064   27.1840  -25.6177 H   0  0  0  0  0  0  0  0  0  0  0  0
   -0.4835   28.4535  -26.1245 H   0  0  0  0  0  0  0  0  0  0  0  0
   -0.1063   28.5529  -23.6994 H   0  0  0  0  0  0  0  0  0  0  0  0
   -1.7944   28.0255  -24.0713 H   0  0  0  0  0  0  0  0  0  0  0  0
    0.4753   26.5084  -22.8199 H   0  0  0  0  0  0  0  0  0  0  0  0
   -1.3191   26.4424  -22.5153 H   0  0  0  0  0  0  0  0  0  0  0  0
    0.3581   24.9235  -24.5007 H   0  0  0  0  0  0  0  0  0  0  0  0
   -1.0275   24.3851  -23.4692 H   0  0  0  0  0  0  0  0  0  0  0  0
   -1.6365   24.4385  -25.8700 H   0  0  0  0  0  0  0  0  0  0  0  0
   -2.5844   25.6384  -24.8774 H   0  0  0  0  0  0  0  0  0  0  0  0
   -2.0829   24.3325  -29.4405 H   0  0  0  0  0  0  0  0  0  0  0  0
   -5.7519   21.3816  -31.2936 H   0  0  0  0  0  0  0  0  0  0  0  0
   -9.9245   19.9517  -31.1381 H   0  0  0  0  0  0  0  0  0  0  0  0
  -10.1710   20.1116  -32.8870 H   0  0  0  0  0  0  0  0  0  0  0  0
   -9.4341   17.7411  -31.6214 H   0  0  0  0  0  0  0  0  0  0  0  0
   -9.0888   18.0634  -33.3237 H   0  0  0  0  0  0  0  0  0  0  0  0
   -7.2025   17.8456  -31.1101 H   0  0  0  0  0  0  0  0  0  0  0  0
   -6.8078   18.1520  -32.8049 H   0  0  0  0  0  0  0  0  0  0  0  0
   -7.1254   20.0796  -30.5272 H   0  0  0  0  0  0  0  0  0  0  0  0
   -6.1921   20.2819  -32.0227 H   0  0  0  0  0  0  0  0  0  0  0  0
   -8.0252   25.0180  -30.7466 H   0  0  0  0  0  0  0  0  0  0  0  0
   -5.9163   26.2834  -30.3707 H   0  0  0  0  0  0  0  0  0  0  0  0
  1  2  1  0
  2  3  2  0
  3  4  1  0
  4  5  2  0
  5  6  1  0
  6  7  2  0
  6  8  2  0
  6  9  1  0
  9 10  1  0
 10 11  1  0
 11 12  1  0
 12 13  1  0
 13 14  1  0
  5 15  1  0
 15 16  2  0
 16 17  1  0
 17 18  1  0
 18 19  2  0
 18 20  1  0
 20 21  2  0
 21 22  1  0
 22 23  1  0
 23 24  2  0
 23 25  2  0
 23 26  1  0
 26 27  1  0
 27 28  1  0
 28 29  1  0
 29 30  1  0
 22 31  2  0
 31 32  1  0
 32 33  2  0
 33 34  1  0
 16  2  1  0
 33 20  1  0
 14  9  1  0
 30 26  1  0
  1 35  1  0
  1 36  1  0
  1 37  1  0
  3 38  1  0
  4 39  1  0
 10 40  1  0
 10 41  1  0
 11 42  1  0
 11 43  1  0
 12 44  1  0
 12 45  1  0
 13 46  1  0
 13 47  1  0
 14 48  1  0
 14 49  1  0
 15 50  1  0
 21 51  1  0
 27 52  1  0
 27 53  1  0
 28 54  1  0
 28 55  1  0
 29 56  1  0
 29 57  1  0
 30 58  1  0
 30 59  1  0
 31 60  1  0
 32 61  1  0
M  CHG  2  17  -1  34  -1
M  END
>  <UniqueID>  (24) 
24

>  <SMILES>  (24) 
Cc1ccc(S(=O)(=O)N2CCCCC2)cc1[N-]C(=O)c1cc(S(=O)(=O)N2CCCC2)ccc1[O-]

>  <Energy>  (24) 
75.10195195274763

>  <Genealogy>  (24) 
Cc1ccc(S(=O)(=O)N2CCCCC2)cc1[N-]C(=O)c1cc(S(=O)(=O)N2CCCC2)ccc1[O-] (protonated)
Cc1ccc(S(=O)(=O)N2CCCCC2)cc1[N-]C(=O)c1cc(S(=O)(=O)N2CCCC2)ccc1[O-] (3D coordinates assigned)
Cc1ccc(S(=O)(=O)N2CCCCC2)cc1[N-]C(=O)c1cc(S(=O)(=O)N2CCCC2)ccc1[O-] (nonaromatic ring conformer: 75.10195195274763 kcal/mol)

>  <smiles>  (24) 
Cc1ccc(S(=O)(=O)N2CCCCC2)cc1NC(=O)c1cc(S(=O)(=O)N2CCCC2)ccc1O

>  <score_type>  (24) 
oracle

>  <origin>  (24) 
adgpu

>  <m_score__min__energy>  (24) 
-15.23

>  <m_primary>  (24) 
energy

$$$$
24:0
     RDKit          3D

 39 41  0  0  0  0  0  0  0  0999 V2000
   -3.8250   16.8440  -33.5100 C   0  0  0  0  0  0  0  0  0  0  0  0
   -4.4130   18.2130  -33.3330 C   0  0  0  0  0  0  0  0  0  0  0  0
   -3.7780   19.4220  -33.5820 C   0  0  0  0  0  0  0  0  0  0  0  0
   -2.4860   19.6160  -34.1780 N   0  0  0  0  0  0  0  0  0  0  0  0
   -1.6200   20.7100  -33.8390 C   0  0  0  0  0  0  0  0  0  0  0  0
   -1.8070   21.3590  -32.7740 O   0  0  0  0  0  0  0  0  0  0  0  0
   -0.4780   21.0680  -34.6960 C   0  0  0  0  0  0  0  0  0  0  0  0
    0.2730   20.2040  -35.4770 C   0  0  0  0  0  0  0  0  0  0  0  0
    1.2220   20.9860  -36.1030 C   0  0  0  0  0  0  0  0  0  0  0  0
    0.9840   22.2730  -35.6610 C   0  0  0  0  0  0  0  0  0  0  0  0
    1.7220   23.4350  -36.0430 N   0  0  0  0  0  0  0  0  0  0  0  0
    2.6760   23.8390  -35.3460 O   0  0  0  0  0  0  0  0  0  0  0  0
    1.3820   24.1170  -37.1880 O   0  0  0  0  0  0  0  0  0  0  0  0
   -0.0290   22.2970  -34.8280 O   0  0  0  0  0  0  0  0  0  0  0  0
   -4.7010   20.3860  -33.2250 C   0  0  0  0  0  0  0  0  0  0  0  0
   -4.5670   21.6310  -33.3690 O   0  0  0  0  0  0  0  0  0  0  0  0
   -5.8130   19.7900  -32.7510 N   0  0  0  0  0  0  0  0  0  0  0  0
   -7.0060   20.4660  -32.3130 C   0  0  0  0  0  0  0  0  0  0  0  0
   -8.2690   20.0400  -32.7580 C   0  0  0  0  0  0  0  0  0  0  0  0
   -9.4240   20.7080  -32.3410 C   0  0  0  0  0  0  0  0  0  0  0  0
   -9.3260   21.8080  -31.4830 C   0  0  0  0  0  0  0  0  0  0  0  0
   -8.0730   22.2440  -31.0460 C   0  0  0  0  0  0  0  0  0  0  0  0
   -6.9150   21.5790  -31.4620 C   0  0  0  0  0  0  0  0  0  0  0  0
   -5.6320   18.4710  -32.7940 N   0  0  0  0  0  0  0  0  0  0  0  0
   -6.5930   17.4680  -32.3280 C   0  0  0  0  0  0  0  0  0  0  0  0
   -3.6330   16.3970  -32.5234 H   0  0  0  0  0  0  0  0  0  0  0  0
   -4.5307   16.2112  -34.0682 H   0  0  0  0  0  0  0  0  0  0  0  0
   -2.8802   16.9201  -34.0682 H   0  0  0  0  0  0  0  0  0  0  0  0
   -2.1330   18.8880  -34.8360 H   0  0  0  0  0  0  0  0  0  0  0  0
    0.1398   19.1167  -35.5774 H   0  0  0  0  0  0  0  0  0  0  0  0
    2.0019   20.6551  -36.8046 H   0  0  0  0  0  0  0  0  0  0  0  0
   -8.3491   19.1781  -33.4367 H   0  0  0  0  0  0  0  0  0  0  0  0
  -10.4109   20.3681  -32.6881 H   0  0  0  0  0  0  0  0  0  0  0  0
  -10.2360   22.3300  -31.1522 H   0  0  0  0  0  0  0  0  0  0  0  0
   -7.9969   23.1114  -30.3739 H   0  0  0  0  0  0  0  0  0  0  0  0
   -5.9295   21.9292  -31.1212 H   0  0  0  0  0  0  0  0  0  0  0  0
   -6.6053   17.4552  -31.2281 H   0  0  0  0  0  0  0  0  0  0  0  0
   -7.5961   17.7193  -32.7030 H   0  0  0  0  0  0  0  0  0  0  0  0
   -6.2991   16.4765  -32.7030 H   0  0  0  0  0  0  0  0  0  0  0  0
  1  2  1  0
  2  3  2  0
  3  4  1  0
  4  5  1  0
  5  6  2  0
  5  7  1  0
  7  8  2  0
  8  9  1  0
  9 10  2  0
 10 11  1  0
 11 12  2  0
 11 13  1  0
 10 14  1  0
  3 15  1  0
 15 16  2  0
 15 17  1  0
 17 18  1  0
 18 19  2  0
 19 20  1  0
 20 21  2  0
 21 22  1  0
 22 23  2  0
 17 24  1  0
 24 25  1  0
 24  2  1  0
 14  7  1  0
 23 18  1  0
  1 26  1  0
  1 27  1  0
  1 28  1  0
  4 29  1  0
  8 30  1  0
  9 31  1  0
 19 32  1  0
 20 33  1  0
 21 34  1  0
 22 35  1  0
 23 36  1  0
 25 37  1  0
 25 38  1  0
 25 39  1  0
M  CHG  2  11   1  13  -1
M  END
>  <UniqueID>  (25) 
25

>  <SMILES>  (25) 
Cc1c(NC(=O)c2ccc([N+](=O)[O-])o2)c(=O)n(-c2ccccc2)n1C

>  <Energy>  (25) 
110.84714710908162

>  <Genealogy>  (25) 
Cc1c(NC(=O)c2ccc([N+](=O)[O-])o2)c(=O)n(-c2ccccc2)n1C (3D coordinates assigned)
Cc1c(NC(=O)c2ccc([N+](=O)[O-])o2)c(=O)n(-c2ccccc2)n1C (optimized conformer: 110.84714710908162 kcal/mol)

>  <smiles>  (25) 
Cc1c(NC(=O)c2ccc([N+](=O)[O-])o2)c(=O)n(-c2ccccc2)n1C

>  <score_type>  (25) 
oracle

>  <origin>  (25) 
adgpu

>  <m_score__min__energy>  (25) 
-7.96

>  <m_primary>  (25) 
energy

$$$$
25:0
     RDKit          3D

 36 36  0  0  0  0  0  0  0  0999 V2000
   -9.6036   23.4865  -33.2702 H   0  0  0  0  0  0  0  0  0  0  0  0
   -9.0180   23.4260  -32.3410 C   0  0  0  0  0  0  0  0  0  0  0  0
   -8.5938   24.3390  -31.8978 H   0  0  0  0  0  0  0  0  0  0  0  0
   -8.8220   22.2440  -31.7510 C   0  0  0  0  0  0  0  0  0  0  0  0
   -9.2518   21.3389  -32.2050 H   0  0  0  0  0  0  0  0  0  0  0  0
   -8.0270   22.1220  -30.4800 C   0  0  0  0  0  0  0  0  0  0  0  0
   -8.2744   22.9649  -29.8179 H   0  0  0  0  0  0  0  0  0  0  0  0
   -8.2806   21.1670  -29.9966 H   0  0  0  0  0  0  0  0  0  0  0  0
   -6.5910   22.1380  -30.7600 N   0  0  0  0  0  0  0  0  0  0  0  0
   -5.7720   23.1490  -30.6510 C   0  0  0  0  0  0  0  0  0  0  0  0
   -6.2080   24.4240  -30.2340 C   0  0  0  0  0  0  0  0  0  0  0  0
   -7.2673   24.5930  -29.9903 H   0  0  0  0  0  0  0  0  0  0  0  0
   -5.2910   25.4690  -30.1320 C   0  0  0  0  0  0  0  0  0  0  0  0
   -5.6290   26.4648  -29.8093 H   0  0  0  0  0  0  0  0  0  0  0  0
   -3.9840   25.2630  -30.4290 N   0  0  0  0  0  0  0  0  0  0  0  0
   -3.5270   24.0500  -30.8350 C   0  0  0  0  0  0  0  0  0  0  0  0
   -2.4598   23.9168  -31.0661 H   0  0  0  0  0  0  0  0  0  0  0  0
   -4.4080   22.9670  -30.9610 C   0  0  0  0  0  0  0  0  0  0  0  0
   -3.7950   21.4040  -31.5260 S   0  0  0  0  0  0  0  0  0  0  0  0
   -4.0770   20.3680  -30.4750 O   0  0  0  0  0  0  0  0  0  0  0  0
   -2.3120   21.4680  -31.7650 O   0  0  0  0  0  0  0  0  0  0  0  0
   -4.5820   20.9490  -33.0010 N   0  0  0  0  0  0  0  0  0  0  0  0
   -5.6990   20.0550  -33.0740 C   0  0  0  0  0  0  0  0  0  0  0  0
   -6.1170   19.6980  -34.2070 O   0  0  0  0  0  0  0  0  0  0  0  0
   -6.3350   19.5600  -31.8880 N   0  0  0  0  0  0  0  0  0  0  0  0
   -6.1430   20.0240  -30.9720 H   0  0  0  0  0  0  0  0  0  0  0  0
   -7.2350   18.4100  -31.9340 C   0  0  0  0  0  0  0  0  0  0  0  0
   -7.2475   18.0024  -32.9556 H   0  0  0  0  0  0  0  0  0  0  0  0
   -6.8745   17.6514  -31.2237 H   0  0  0  0  0  0  0  0  0  0  0  0
   -8.6580   18.8170  -31.5380 C   0  0  0  0  0  0  0  0  0  0  0  0
   -9.1723   17.9469  -31.1039 H   0  0  0  0  0  0  0  0  0  0  0  0
   -8.5950   19.6356  -30.8059 H   0  0  0  0  0  0  0  0  0  0  0  0
   -9.4480   19.3100  -32.7470 C   0  0  0  0  0  0  0  0  0  0  0  0
  -10.3348   19.8634  -32.4046 H   0  0  0  0  0  0  0  0  0  0  0  0
   -8.8138   19.9729  -33.3539 H   0  0  0  0  0  0  0  0  0  0  0  0
   -9.7648   18.4490  -33.3539 H   0  0  0  0  0  0  0  0  0  0  0  0
  1  2  1  0
  2  3  1  0
  2  4  2  0
  4  5  1  0
  4  6  1  0
  6  7  1  0
  6  8  1  0
  6  9  1  0
  9 10  2  0
 10 11  1  0
 11 12  1  0
 11 13  2  0
 13 14  1  0
 13 15  1  0
 15 16  1  0
 16 17  1  0
 16 18  2  0
 18 19  1  0
 19 20  2  0
 19 21  2  0
 19 22  1  0
 22 23  1  0
 23 24  2  0
 23 25  1  0
 25 26  1  0
 25 27  1  0
 27 28  1  0
 27 29  1  0
 27 30  1  0
 30 31  1  0
 30 32  1  0
 30 33  1  0
 33 34  1  0
 33 35  1  0
 33 36  1  0
 18 10  1  0
M  CHG  2  15  -1  22  -1
M  END
>  <UniqueID>  (26) 
26

>  <SMILES>  (26) 
C=CC/N=c1\cc[n-]cc1S(=O)(=O)[N-]C(=O)NCCC

>  <Energy>  (26) 
29.191329349833566

>  <Genealogy>  (26) 
C=CCN=c1cc[n-]cc1S(=O)(=O)[N-]C(=O)NCCC (protonated)
C=CC/N=c1\cc[n-]cc1S(=O)(=O)[N-]C(=O)NCCC (cis-trans isomerization)
C=CC/N=c1\cc[n-]cc1S(=O)(=O)[N-]C(=O)NCCC (3D coordinates assigned)
C=CC/N=c1\cc[n-]cc1S(=O)(=O)[N-]C(=O)NCCC (optimized conformer: 29.191329349833566 kcal/mol)

>  <smiles>  (26) 
C=CCN=c1cc[nH]cc1S(=O)(=O)NC(=O)NCCC

>  <score_type>  (26) 
oracle

>  <origin>  (26) 
adgpu

>  <m_score__min__energy>  (26) 
-8.0299999999999994

>  <m_primary>  (26) 
energy

$$$$
26:0
     RDKit          3D

 49 51  0  0  0  0  0  0  0  0999 V2000
   -3.2859   20.0719  -30.6036 H   0  0  0  0  0  0  0  0  0  0  0  0
   -3.1960   20.3990  -31.6500 C   0  0  0  0  0  0  0  0  0  0  0  0
   -3.2390   19.3870  -32.7200 C   0  0  0  0  0  0  0  0  0  0  0  0
   -2.2140   18.6980  -32.9950 O   0  0  0  0  0  0  0  0  0  0  0  0
   -4.4460   19.2280  -33.4740 N   0  0  0  0  0  0  0  0  0  0  0  0
   -5.7660   19.4680  -32.9630 C   0  0  0  0  0  0  0  0  0  0  0  0
   -6.7020   18.4280  -32.8260 C   0  0  0  0  0  0  0  0  0  0  0  0
   -6.4254   17.4000  -33.1028 H   0  0  0  0  0  0  0  0  0  0  0  0
   -7.9850   18.6990  -32.3380 C   0  0  0  0  0  0  0  0  0  0  0  0
   -8.7150   17.8833  -32.2301 H   0  0  0  0  0  0  0  0  0  0  0  0
   -8.3410   20.0060  -31.9870 C   0  0  0  0  0  0  0  0  0  0  0  0
   -9.3562   20.2186  -31.6207 H   0  0  0  0  0  0  0  0  0  0  0  0
   -7.4070   21.0450  -32.1010 C   0  0  0  0  0  0  0  0  0  0  0  0
   -7.8900   22.7030  -31.7450 S   0  0  0  0  0  0  0  0  0  0  0  0
   -7.6060   23.0280  -30.3040 O   0  0  0  0  0  0  0  0  0  0  0  0
   -9.3650   22.8620  -31.9970 O   0  0  0  0  0  0  0  0  0  0  0  0
   -7.0010   23.7880  -32.7610 N   0  0  0  0  0  0  0  0  0  0  0  0
   -6.6890   24.5860  -32.1590 H   0  0  0  0  0  0  0  0  0  0  0  0
   -6.1380   23.2840  -33.0680 H   0  0  0  0  0  0  0  0  0  0  0  0
   -6.1160   20.7680  -32.5720 C   0  0  0  0  0  0  0  0  0  0  0  0
   -5.3725   21.5762  -32.6352 H   0  0  0  0  0  0  0  0  0  0  0  0
   -3.0510   21.7040  -31.9110 C   0  0  0  0  0  0  0  0  0  0  0  0
   -3.0429   22.0341  -32.9603 H   0  0  0  0  0  0  0  0  0  0  0  0
   -2.9010   22.7220  -30.8450 C   0  0  0  0  0  0  0  0  0  0  0  0
   -1.8280   22.6380  -29.9240 C   0  0  0  0  0  0  0  0  0  0  0  0
   -0.9350   21.5550  -29.9090 O   0  0  0  0  0  0  0  0  0  0  0  0
   -0.9640   20.5160  -28.9700 C   0  0  0  0  0  0  0  0  0  0  0  0
   -2.0860   20.2950  -28.1510 C   0  0  0  0  0  0  0  0  0  0  0  0
   -2.9617   20.9556  -28.2328 H   0  0  0  0  0  0  0  0  0  0  0  0
   -2.0940   19.2360  -27.2300 C   0  0  0  0  0  0  0  0  0  0  0  0
   -3.3070   18.9850  -26.3800 C   0  0  0  0  0  0  0  0  0  0  0  0
   -3.0284   19.0426  -25.3174 H   0  0  0  0  0  0  0  0  0  0  0  0
   -4.0724   19.7438  -26.6001 H   0  0  0  0  0  0  0  0  0  0  0  0
   -3.7084   17.9848  -26.6001 H   0  0  0  0  0  0  0  0  0  0  0  0
   -0.9840   18.3780  -27.1490 C   0  0  0  0  0  0  0  0  0  0  0  0
   -0.9951   17.5343  -26.4433 H   0  0  0  0  0  0  0  0  0  0  0  0
    0.1390   18.5920  -27.9640 C   0  0  0  0  0  0  0  0  0  0  0  0
    1.3460   17.7060  -27.8440 C   0  0  0  0  0  0  0  0  0  0  0  0
    1.5738   17.5388  -26.7809 H   0  0  0  0  0  0  0  0  0  0  0  0
    1.1426   16.7412  -28.3316 H   0  0  0  0  0  0  0  0  0  0  0  0
    2.2055   18.1892  -28.3316 H   0  0  0  0  0  0  0  0  0  0  0  0
    0.1560   19.6840  -28.8440 C   0  0  0  0  0  0  0  0  0  0  0  0
    1.0571   19.8890  -29.4407 H   0  0  0  0  0  0  0  0  0  0  0  0
   -1.6290   23.6510  -29.0400 N   0  0  0  0  0  0  0  0  0  0  0  0
   -2.4520   24.7280  -28.9960 C   0  0  0  0  0  0  0  0  0  0  0  0
   -2.2734   25.5255  -28.2597 H   0  0  0  0  0  0  0  0  0  0  0  0
   -3.4950   24.8240  -29.8580 N   0  0  0  0  0  0  0  0  0  0  0  0
   -3.7370   23.8550  -30.7790 C   0  0  0  0  0  0  0  0  0  0  0  0
   -4.6950   24.0040  -31.5870 O   0  0  0  0  0  0  0  0  0  0  0  0
  1  2  1  0
  2  3  1  0
  3  4  2  0
  3  5  1  0
  5  6  1  0
  6  7  2  0
  7  8  1  0
  7  9  1  0
  9 10  1  0
  9 11  2  0
 11 12  1  0
 11 13  1  0
 13 14  1  0
 14 15  2  0
 14 16  2  0
 14 17  1  0
 17 18  1  0
 17 19  1  0
 13 20  2  0
 20 21  1  0
  2 22  2  0
 22 23  1  0
 22 24  1  0
 24 25  2  0
 25 26  1  0
 26 27  1  0
 27 28  2  0
 28 29  1  0
 28 30  1  0
 30 31  1  0
 31 32  1  0
 31 33  1  0
 31 34  1  0
 30 35  2  0
 35 36  1  0
 35 37  1  0
 37 38  1  0
 38 39  1  0
 38 40  1  0
 38 41  1  0
 37 42  2  0
 42 43  1  0
 25 44  1  0
 44 45  1  0
 45 46  1  0
 45 47  2  0
 47 48  1  0
 48 49  2  0
 20  6  1  0
 48 24  1  0
 42 27  1  0
M  CHG  2   5  -1  44  -1
M  END
>  <UniqueID>  (27) 
27

>  <SMILES>  (27) 
Cc1cc(C)cc(Oc2[n-]cnc(=O)c2/C=C/C(=O)[N-]c2cccc(S(N)(=O)=O)c2)c1

>  <Energy>  (27) 
65.31497614045931

>  <Genealogy>  (27) 
Cc1cc(C)cc(Oc2[n-]cnc(=O)c2C=CC(=O)[N-]c2cccc(S(N)(=O)=O)c2)c1 (protonated)
Cc1cc(C)cc(Oc2[n-]cnc(=O)c2/C=C/C(=O)[N-]c2cccc(S(N)(=O)=O)c2)c1 (cis-trans isomerization)
Cc1cc(C)cc(Oc2[n-]cnc(=O)c2/C=C/C(=O)[N-]c2cccc(S(N)(=O)=O)c2)c1 (3D coordinates assigned)
Cc1cc(C)cc(Oc2[n-]cnc(=O)c2/C=C/C(=O)[N-]c2cccc(S(N)(=O)=O)c2)c1 (optimized conformer: 65.31497614045931 kcal/mol)

>  <smiles>  (27) 
Cc1cc(C)cc(Oc2[nH]cnc(=O)c2C=CC(=O)Nc2cccc(S(N)(=O)=O)c2)c1

>  <score_type>  (27) 
oracle

>  <origin>  (27) 
adgpu

>  <m_score__min__energy>  (27) 
-10.630000000000001

>  <m_primary>  (27) 
energy

$$$$
27:0
     RDKit          3D

 44 46  0  0  0  0  0  0  0  0999 V2000
   -0.6970   26.8580  -27.5310 C   0  0  0  0  0  0  0  0  0  0  0  0
   -0.9070   25.5800  -28.2710 C   0  0  0  0  0  0  0  0  0  0  0  0
   -2.0430   25.3000  -28.9440 N   0  0  0  0  0  0  0  0  0  0  0  0
   -1.8310   24.0530  -29.3960 C   0  0  0  0  0  0  0  0  0  0  0  0
   -2.9950   23.1370  -30.3360 S   0  0  0  0  0  0  0  0  0  0  0  0
   -4.0100   24.0840  -30.9070 O   0  0  0  0  0  0  0  0  0  0  0  0
   -3.6930   22.1330  -29.4620 O   0  0  0  0  0  0  0  0  0  0  0  0
   -2.1870   22.3100  -31.6300 N   0  0  0  0  0  0  0  0  0  0  0  0
   -2.7450   21.1820  -32.3270 C   0  0  0  0  0  0  0  0  0  0  0  0
   -1.9850   20.4180  -33.2320 C   0  0  0  0  0  0  0  0  0  0  0  0
   -2.5630   19.3360  -33.9010 C   0  0  0  0  0  0  0  0  0  0  0  0
   -3.8990   19.0020  -33.6740 C   0  0  0  0  0  0  0  0  0  0  0  0
   -4.6670   19.7480  -32.7710 C   0  0  0  0  0  0  0  0  0  0  0  0
   -6.3630   19.3390  -32.5030 S   0  0  0  0  0  0  0  0  0  0  0  0
   -6.4830   18.5070  -31.2550 O   0  0  0  0  0  0  0  0  0  0  0  0
   -6.8610   18.5170  -33.6590 O   0  0  0  0  0  0  0  0  0  0  0  0
   -7.3510   20.7710  -32.3450 N   0  0  0  0  0  0  0  0  0  0  0  0
   -8.7740   20.3970  -32.2010 C   0  0  0  0  0  0  0  0  0  0  0  0
   -9.6560   21.5920  -31.7740 C   0  0  0  0  0  0  0  0  0  0  0  0
   -8.9350   22.9280  -31.9690 C   0  0  0  0  0  0  0  0  0  0  0  0
   -7.5990   22.9530  -31.2090 C   0  0  0  0  0  0  0  0  0  0  0  0
   -6.9010   21.5790  -31.2020 C   0  0  0  0  0  0  0  0  0  0  0  0
   -4.0850   20.8290  -32.0950 C   0  0  0  0  0  0  0  0  0  0  0  0
   -0.6020   23.6040  -28.9830 C   0  0  0  0  0  0  0  0  0  0  0  0
   -0.0100   24.5690  -28.2590 N   0  0  0  0  0  0  0  0  0  0  0  0
   -0.7288   26.6645  -26.4486 H   0  0  0  0  0  0  0  0  0  0  0  0
    0.2826   27.2804  -27.7993 H   0  0  0  0  0  0  0  0  0  0  0  0
   -1.4899   27.5716  -27.7993 H   0  0  0  0  0  0  0  0  0  0  0  0
   -1.1980   22.5860  -31.8220 H   0  0  0  0  0  0  0  0  0  0  0  0
   -0.9307   20.6739  -33.4136 H   0  0  0  0  0  0  0  0  0  0  0  0
   -1.9630   18.7454  -34.6090 H   0  0  0  0  0  0  0  0  0  0  0  0
   -4.3498   18.1509  -34.2055 H   0  0  0  0  0  0  0  0  0  0  0  0
   -9.1386   20.0157  -33.1662 H   0  0  0  0  0  0  0  0  0  0  0  0
   -8.8420   19.6314  -31.4141 H   0  0  0  0  0  0  0  0  0  0  0  0
  -10.5744   21.5912  -32.3795 H   0  0  0  0  0  0  0  0  0  0  0  0
   -9.8879   21.4812  -30.7045 H   0  0  0  0  0  0  0  0  0  0  0  0
   -8.7410   23.0782  -33.0413 H   0  0  0  0  0  0  0  0  0  0  0  0
   -9.5755   23.7310  -31.5753 H   0  0  0  0  0  0  0  0  0  0  0  0
   -6.9331   23.6850  -31.6893 H   0  0  0  0  0  0  0  0  0  0  0  0
   -7.8122   23.2261  -30.1650 H   0  0  0  0  0  0  0  0  0  0  0  0
   -5.8126   21.7248  -31.2670 H   0  0  0  0  0  0  0  0  0  0  0  0
   -7.1563   21.0532  -30.2701 H   0  0  0  0  0  0  0  0  0  0  0  0
   -4.6835   21.4070  -31.3754 H   0  0  0  0  0  0  0  0  0  0  0  0
   -0.1721   22.6167  -29.2076 H   0  0  0  0  0  0  0  0  0  0  0  0
  1  2  1  0
  2  3  2  0
  3  4  1  0
  4  5  1  0
  5  6  2  0
  5  7  2  0
  5  8  1  0
  8  9  1  0
  9 10  2  0
 10 11  1  0
 11 12  2  0
 12 13  1  0
 13 14  1  0
 14 15  2  0
 14 16  2  0
 14 17  1  0
 17 18  1  0
 18 19  1  0
 19 20  1  0
 20 21  1  0
 21 22  1  0
 13 23  2  0
  4 24  2  0
 24 25  1  0
 25  2  1  0
 23  9  1  0
 22 17  1  0
  1 26  1  0
  1 27  1  0
  1 28  1  0
  8 29  1  0
 10 30  1  0
 11 31  1  0
 12 32  1  0
 18 33  1  0
 18 34  1  0
 19 35  1  0
 19 36  1  0
 20 37  1  0
 20 38  1  0
 21 39  1  0
 21 40  1  0
 22 41  1  0
 22 42  1  0
 23 43  1  0
 24 44  1  0
M  CHG  1  25  -1
M  END
>  <UniqueID>  (28) 
28

>  <SMILES>  (28) 
Cc1nc(S(=O)(=O)Nc2cccc(S(=O)(=O)N3CCCCC3)c2)c[n-]1

>  <Energy>  (28) 
75.65030941893772

>  <Genealogy>  (28) 
Cc1nc(S(=O)(=O)Nc2cccc(S(=O)(=O)N3CCCCC3)c2)c[n-]1 (protonated)
Cc1nc(S(=O)(=O)Nc2cccc(S(=O)(=O)N3CCCCC3)c2)c[n-]1 (3D coordinates assigned)
Cc1nc(S(=O)(=O)Nc2cccc(S(=O)(=O)N3CCCCC3)c2)c[n-]1 (nonaromatic ring conformer: 75.65030941893772 kcal/mol)

>  <smiles>  (28) 
Cc1nc(S(=O)(=O)Nc2cccc(S(=O)(=O)N3CCCCC3)c2)c[nH]1

>  <score_type>  (28) 
oracle

>  <origin>  (28) 
adgpu

>  <m_score__min__energy>  (28) 
-10.76

>  <m_primary>  (28) 
energy

$$$$
28:0
     RDKit          3D

 53 55  0  0  0  0  0  0  0  0999 V2000
   -2.8520   20.2570  -27.1070 C   0  0  0  0  0  0  0  0  0  0  0  0
   -2.2380   20.4790  -28.4970 C   0  0  0  0  0  0  0  0  0  0  0  0
   -0.9590   19.6550  -28.6760 C   0  0  0  0  0  0  0  0  0  0  0  0
   -1.9610   21.9450  -28.7710 C   0  0  0  0  0  0  0  0  0  0  0  0
   -0.8280   22.5580  -28.2050 C   0  0  0  0  0  0  0  0  0  0  0  0
   -0.5920   23.9210  -28.3940 C   0  0  0  0  0  0  0  0  0  0  0  0
   -1.4850   24.6920  -29.1430 C   0  0  0  0  0  0  0  0  0  0  0  0
   -1.2380   26.0500  -29.3190 O   0  0  0  0  0  0  0  0  0  0  0  0
   -2.6110   24.0960  -29.7290 C   0  0  0  0  0  0  0  0  0  0  0  0
   -3.5020   24.8960  -30.5110 N   0  0  0  0  0  0  0  0  0  0  0  0
   -5.2070   24.9840  -30.2090 S   0  0  0  0  0  0  0  0  0  0  0  0
   -5.7450   26.2300  -30.8540 O   0  0  0  0  0  0  0  0  0  0  0  0
   -5.4330   25.0800  -28.7280 O   0  0  0  0  0  0  0  0  0  0  0  0
   -6.0530   23.5630  -30.8160 C   0  0  0  0  0  0  0  0  0  0  0  0
   -5.6030   22.9260  -31.9810 C   0  0  0  0  0  0  0  0  0  0  0  0
   -6.2300   21.7580  -32.4310 C   0  0  0  0  0  0  0  0  0  0  0  0
   -7.3110   21.2170  -31.7170 C   0  0  0  0  0  0  0  0  0  0  0  0
   -8.0610   19.7060  -32.2420 S   0  0  0  0  0  0  0  0  0  0  0  0
   -8.7960   19.0900  -31.0840 O   0  0  0  0  0  0  0  0  0  0  0  0
   -9.0620   20.0010  -33.3230 O   0  0  0  0  0  0  0  0  0  0  0  0
   -6.8760   18.5670  -32.8390 N   0  0  0  0  0  0  0  0  0  0  0  0
   -5.7770   18.3590  -31.8610 C   0  0  0  0  0  0  0  0  0  0  0  0
   -4.4810   19.0870  -32.2510 C   0  0  0  0  0  0  0  0  0  0  0  0
   -3.9850   18.6390  -33.6380 C   0  0  0  0  0  0  0  0  0  0  0  0
   -5.1330   18.2350  -34.5810 C   0  0  0  0  0  0  0  0  0  0  0  0
   -6.4330   18.9520  -34.1990 C   0  0  0  0  0  0  0  0  0  0  0  0
   -7.7690   21.8660  -30.5610 C   0  0  0  0  0  0  0  0  0  0  0  0
   -7.1470   23.0350  -30.1130 C   0  0  0  0  0  0  0  0  0  0  0  0
   -2.8540   22.7290  -29.5270 C   0  0  0  0  0  0  0  0  0  0  0  0
   -2.1158   20.5232  -26.3342 H   0  0  0  0  0  0  0  0  0  0  0  0
   -3.7454   20.8890  -26.9956 H   0  0  0  0  0  0  0  0  0  0  0  0
   -3.1346   19.1998  -26.9956 H   0  0  0  0  0  0  0  0  0  0  0  0
   -2.9832   20.1364  -29.2300 H   0  0  0  0  0  0  0  0  0  0  0  0
   -0.5510   19.3922  -27.6889 H   0  0  0  0  0  0  0  0  0  0  0  0
   -1.1902   18.7356  -29.2338 H   0  0  0  0  0  0  0  0  0  0  0  0
   -0.2174   20.2456  -29.2338 H   0  0  0  0  0  0  0  0  0  0  0  0
   -0.1233   21.9591  -27.6094 H   0  0  0  0  0  0  0  0  0  0  0  0
    0.2997   24.3895  -27.9519 H   0  0  0  0  0  0  0  0  0  0  0  0
   -4.7552   23.3450  -32.5429 H   0  0  0  0  0  0  0  0  0  0  0  0
   -5.8747   21.2627  -33.3466 H   0  0  0  0  0  0  0  0  0  0  0  0
   -6.1062   18.7307  -30.8794 H   0  0  0  0  0  0  0  0  0  0  0  0
   -5.5556   17.2817  -31.8387 H   0  0  0  0  0  0  0  0  0  0  0  0
   -4.6703   20.1704  -32.2706 H   0  0  0  0  0  0  0  0  0  0  0  0
   -3.7072   18.8412  -31.5088 H   0  0  0  0  0  0  0  0  0  0  0  0
   -3.4288   19.4694  -34.0973 H   0  0  0  0  0  0  0  0  0  0  0  0
   -3.3494   17.7531  -33.4919 H   0  0  0  0  0  0  0  0  0  0  0  0
   -4.8631   18.5042  -35.6128 H   0  0  0  0  0  0  0  0  0  0  0  0
   -5.2922   17.1499  -34.4960 H   0  0  0  0  0  0  0  0  0  0  0  0
   -6.2654   20.0388  -34.2278 H   0  0  0  0  0  0  0  0  0  0  0  0
   -7.2151   18.6616  -34.9159 H   0  0  0  0  0  0  0  0  0  0  0  0
   -8.6226   21.4527  -30.0037 H   0  0  0  0  0  0  0  0  0  0  0  0
   -7.5153   23.5415  -29.2087 H   0  0  0  0  0  0  0  0  0  0  0  0
   -3.7508   22.2650  -29.9634 H   0  0  0  0  0  0  0  0  0  0  0  0
  1  2  1  0
  2  3  1  0
  2  4  1  0
  4  5  2  0
  5  6  1  0
  6  7  2  0
  7  8  1  0
  7  9  1  0
  9 10  1  0
 10 11  1  0
 11 12  2  0
 11 13  2  0
 11 14  1  0
 14 15  2  0
 15 16  1  0
 16 17  2  0
 17 18  1  0
 18 19  2  0
 18 20  2  0
 18 21  1  0
 21 22  1  0
 22 23  1  0
 23 24  1  0
 24 25  1  0
 25 26  1  0
 17 27  1  0
 27 28  2  0
  9 29  2  0
 29  4  1  0
 28 14  1  0
 26 21  1  0
  1 30  1  0
  1 31  1  0
  1 32  1  0
  2 33  1  0
  3 34  1  0
  3 35  1  0
  3 36  1  0
  5 37  1  0
  6 38  1  0
 15 39  1  0
 16 40  1  0
 22 41  1  0
 22 42  1  0
 23 43  1  0
 23 44  1  0
 24 45  1  0
 24 46  1  0
 25 47  1  0
 25 48  1  0
 26 49  1  0
 26 50  1  0
 27 51  1  0
 28 52  1  0
 29 53  1  0
M  CHG  2   8  -1  10  -1
M  END
>  <UniqueID>  (29) 
29

>  <SMILES>  (29) 
CC(C)c1ccc([O-])c([N-]S(=O)(=O)c2ccc(S(=O)(=O)N3CCCCC3)cc2)c1

>  <Energy>  (29) 
58.69833144420613

>  <Genealogy>  (29) 
CC(C)c1ccc([O-])c([N-]S(=O)(=O)c2ccc(S(=O)(=O)N3CCCCC3)cc2)c1 (protonated)
CC(C)c1ccc([O-])c([N-]S(=O)(=O)c2ccc(S(=O)(=O)N3CCCCC3)cc2)c1 (3D coordinates assigned)
CC(C)c1ccc([O-])c([N-]S(=O)(=O)c2ccc(S(=O)(=O)N3CCCCC3)cc2)c1 (nonaromatic ring conformer: 58.69833144420613 kcal/mol)

>  <smiles>  (29) 
CC(C)c1ccc(O)c(NS(=O)(=O)c2ccc(S(=O)(=O)N3CCCCC3)cc2)c1

>  <score_type>  (29) 
oracle

>  <origin>  (29) 
adgpu

>  <m_score__min__energy>  (29) 
-15.44

>  <m_primary>  (29) 
energy

$$$$
29:0
     RDKit          3D

 44 46  0  0  0  0  0  0  0  0999 V2000
   -3.3080   24.4590  -27.9880 O   0  0  0  0  0  0  0  0  0  0  0  0
   -2.7040   24.5430  -29.3620 S   0  0  0  0  0  0  0  0  0  0  0  0
   -1.4620   25.3860  -29.3020 O   0  0  0  0  0  0  0  0  0  0  0  0
   -3.8420   25.2830  -30.4470 N   0  0  0  0  0  0  0  0  0  0  0  0
   -5.2010   25.1040  -29.9430 C   0  0  0  0  0  0  0  0  0  0  0  0
   -5.8760   24.0320  -30.7300 C   0  0  0  0  0  0  0  0  0  0  0  0
   -6.9990   23.3290  -30.3420 C   0  0  0  0  0  0  0  0  0  0  0  0
   -7.2810   22.4750  -31.3870 C   0  0  0  0  0  0  0  0  0  0  0  0
   -6.3160   22.7130  -32.3470 C   0  0  0  0  0  0  0  0  0  0  0  0
   -5.4960   23.6480  -31.9270 O   0  0  0  0  0  0  0  0  0  0  0  0
   -2.2730   22.9330  -29.9320 C   0  0  0  0  0  0  0  0  0  0  0  0
   -1.4290   22.1120  -29.1710 C   0  0  0  0  0  0  0  0  0  0  0  0
   -1.0960   20.8350  -29.6290 C   0  0  0  0  0  0  0  0  0  0  0  0
   -1.6060   20.3690  -30.8440 C   0  0  0  0  0  0  0  0  0  0  0  0
   -2.4520   21.1820  -31.6090 C   0  0  0  0  0  0  0  0  0  0  0  0
   -3.1180   20.5970  -33.1300 S   0  0  0  0  0  0  0  0  0  0  0  0
   -2.0060   20.1050  -34.0170 O   0  0  0  0  0  0  0  0  0  0  0  0
   -3.8320   21.7300  -33.8120 O   0  0  0  0  0  0  0  0  0  0  0  0
   -4.2360   19.2900  -32.8180 N   0  0  0  0  0  0  0  0  0  0  0  0
   -4.9810   18.9160  -34.0490 C   0  0  0  0  0  0  0  0  0  0  0  0
   -6.4260   19.4330  -34.0580 C   0  0  0  0  0  0  0  0  0  0  0  0
   -7.2110   18.9110  -32.8430 C   0  0  0  0  0  0  0  0  0  0  0  0
   -6.3250   18.7210  -31.5980 C   0  0  0  0  0  0  0  0  0  0  0  0
   -5.0880   19.6250  -31.6580 C   0  0  0  0  0  0  0  0  0  0  0  0
   -2.7710   22.4700  -31.1570 C   0  0  0  0  0  0  0  0  0  0  0  0
   -5.1654   24.8153  -28.8822 H   0  0  0  0  0  0  0  0  0  0  0  0
   -5.7606   26.0457  -30.0434 H   0  0  0  0  0  0  0  0  0  0  0  0
   -7.5529   23.4292  -29.3969 H   0  0  0  0  0  0  0  0  0  0  0  0
   -8.1070   21.7508  -31.4448 H   0  0  0  0  0  0  0  0  0  0  0  0
   -6.2457   22.1972  -33.3160 H   0  0  0  0  0  0  0  0  0  0  0  0
   -1.0287   22.4737  -28.2124 H   0  0  0  0  0  0  0  0  0  0  0  0
   -0.4305   20.1944  -29.0317 H   0  0  0  0  0  0  0  0  0  0  0  0
   -1.3426   19.3621  -31.2000 H   0  0  0  0  0  0  0  0  0  0  0  0
   -4.4536   19.3353  -34.9185 H   0  0  0  0  0  0  0  0  0  0  0  0
   -5.0252   17.8175  -34.0849 H   0  0  0  0  0  0  0  0  0  0  0  0
   -6.4138   20.5326  -34.0318 H   0  0  0  0  0  0  0  0  0  0  0  0
   -6.9193   19.0722  -34.9726 H   0  0  0  0  0  0  0  0  0  0  0  0
   -8.0062   19.6319  -32.6020 H   0  0  0  0  0  0  0  0  0  0  0  0
   -7.6212   17.9263  -33.1114 H   0  0  0  0  0  0  0  0  0  0  0  0
   -6.9091   18.9704  -30.6999 H   0  0  0  0  0  0  0  0  0  0  0  0
   -5.9910   17.6735  -31.5633 H   0  0  0  0  0  0  0  0  0  0  0  0
   -5.4131   20.6725  -31.7424 H   0  0  0  0  0  0  0  0  0  0  0  0
   -4.5013   19.4732  -30.7400 H   0  0  0  0  0  0  0  0  0  0  0  0
   -3.4153   23.1202  -31.7669 H   0  0  0  0  0  0  0  0  0  0  0  0
  1  2  2  0
  2  3  2  0
  2  4  1  0
  4  5  1  0
  5  6  1  0
  6  7  2  0
  7  8  1  0
  8  9  2  0
  9 10  1  0
  2 11  1  0
 11 12  2  0
 12 13  1  0
 13 14  2  0
 14 15  1  0
 15 16  1  0
 16 17  2  0
 16 18  2  0
 16 19  1  0
 19 20  1  0
 20 21  1  0
 21 22  1  0
 22 23  1  0
 23 24  1  0
 15 25  2  0
 10  6  1  0
 25 11  1  0
 24 19  1  0
  5 26  1  0
  5 27  1  0
  7 28  1  0
  8 29  1  0
  9 30  1  0
 12 31  1  0
 13 32  1  0
 14 33  1  0
 20 34  1  0
 20 35  1  0
 21 36  1  0
 21 37  1  0
 22 38  1  0
 22 39  1  0
 23 40  1  0
 23 41  1  0
 24 42  1  0
 24 43  1  0
 25 44  1  0
M  CHG  1   4  -1
M  END
>  <UniqueID>  (30) 
30

>  <SMILES>  (30) 
O=S(=O)([N-]Cc1ccco1)c1cccc(S(=O)(=O)N2CCCCC2)c1

>  <Energy>  (30) 
71.33073469785027

>  <Genealogy>  (30) 
O=S(=O)([N-]Cc1ccco1)c1cccc(S(=O)(=O)N2CCCCC2)c1 (protonated)
O=S(=O)([N-]Cc1ccco1)c1cccc(S(=O)(=O)N2CCCCC2)c1 (3D coordinates assigned)
O=S(=O)([N-]Cc1ccco1)c1cccc(S(=O)(=O)N2CCCCC2)c1 (nonaromatic ring conformer: 71.33073469785027 kcal/mol)

>  <smiles>  (30) 
O=S(=O)(NCc1ccco1)c1cccc(S(=O)(=O)N2CCCCC2)c1

>  <score_type>  (30) 
oracle

>  <origin>  (30) 
adgpu

>  <m_score__min__energy>  (30) 
-11.31

>  <m_primary>  (30) 
energy

$$$$
30:0
     RDKit          3D

 52 55  0  0  0  0  0  0  0  0999 V2000
   -9.8400   19.5050  -32.8780 C   0  0  0  0  0  0  0  0  0  0  0  0
   -8.7100   20.3290  -32.3360 C   0  0  0  0  0  0  0  0  0  0  0  0
   -7.3890   20.0520  -32.7190 C   0  0  0  0  0  0  0  0  0  0  0  0
   -6.3290   20.7950  -32.1880 C   0  0  0  0  0  0  0  0  0  0  0  0
   -6.5780   21.8280  -31.2660 C   0  0  0  0  0  0  0  0  0  0  0  0
   -5.5070   22.5930  -30.6870 N   0  0  0  0  0  0  0  0  0  0  0  0
   -5.0630   23.8640  -31.1790 C   0  0  0  0  0  0  0  0  0  0  0  0
   -5.7650   24.5150  -32.0010 O   0  0  0  0  0  0  0  0  0  0  0  0
   -3.8540   24.4300  -30.6610 N   0  0  0  0  0  0  0  0  0  0  0  0
   -2.8460   23.7170  -29.9290 C   0  0  0  0  0  0  0  0  0  0  0  0
   -2.7350   22.3360  -30.1240 C   0  0  0  0  0  0  0  0  0  0  0  0
   -1.7620   21.6010  -29.4480 C   0  0  0  0  0  0  0  0  0  0  0  0
   -0.8790   22.2440  -28.5800 C   0  0  0  0  0  0  0  0  0  0  0  0
   -0.9500   23.6310  -28.3910 C   0  0  0  0  0  0  0  0  0  0  0  0
    0.2330   24.3860  -27.3170 S   0  0  0  0  0  0  0  0  0  0  0  0
    0.7950   23.4100  -26.3210 O   0  0  0  0  0  0  0  0  0  0  0  0
    1.3640   24.9180  -28.1530 O   0  0  0  0  0  0  0  0  0  0  0  0
   -0.5320   25.6890  -26.4610 N   0  0  0  0  0  0  0  0  0  0  0  0
    0.0500   26.9680  -26.2740 C   0  0  0  0  0  0  0  0  0  0  0  0
    1.0960   27.5340  -27.0080 C   0  0  0  0  0  0  0  0  0  0  0  0
    1.5430   28.8170  -26.6520 C   0  0  0  0  0  0  0  0  0  0  0  0
    0.9470   29.5020  -25.5750 C   0  0  0  0  0  0  0  0  0  0  0  0
   -0.1030   28.9080  -24.8540 C   0  0  0  0  0  0  0  0  0  0  0  0
   -0.5340   27.6350  -25.2330 C   0  0  0  0  0  0  0  0  0  0  0  0
   -1.6040   26.8080  -24.6110 C   0  0  0  0  0  0  0  0  0  0  0  0
   -1.5890   25.5040  -25.4620 C   0  0  1  0  0  0  0  0  0  0  0  0
   -2.9330   25.2620  -26.1520 C   0  0  0  0  0  0  0  0  0  0  0  0
   -1.9270   24.3770  -29.0840 C   0  0  0  0  0  0  0  0  0  0  0  0
   -1.9620   25.7610  -28.9670 O   0  0  0  0  0  0  0  0  0  0  0  0
   -7.8960   22.0730  -30.8550 C   0  0  0  0  0  0  0  0  0  0  0  0
   -8.9560   21.3310  -31.3860 C   0  0  0  0  0  0  0  0  0  0  0  0
  -10.4190   19.0828  -32.0435 H   0  0  0  0  0  0  0  0  0  0  0  0
  -10.4940   20.1397  -33.4940 H   0  0  0  0  0  0  0  0  0  0  0  0
   -9.4357   18.6883  -33.4940 H   0  0  0  0  0  0  0  0  0  0  0  0
   -7.1857   19.2468  -33.4403 H   0  0  0  0  0  0  0  0  0  0  0  0
   -5.2962   20.5704  -32.4928 H   0  0  0  0  0  0  0  0  0  0  0  0
   -5.0690   22.2420  -29.8050 H   0  0  0  0  0  0  0  0  0  0  0  0
   -3.4210   21.8260  -30.8163 H   0  0  0  0  0  0  0  0  0  0  0  0
   -1.6905   20.5138  -29.5991 H   0  0  0  0  0  0  0  0  0  0  0  0
   -0.1211   21.6578  -28.0397 H   0  0  0  0  0  0  0  0  0  0  0  0
    1.5578   26.9881  -27.8439 H   0  0  0  0  0  0  0  0  0  0  0  0
    2.3612   29.2885  -27.2161 H   0  0  0  0  0  0  0  0  0  0  0  0
    1.3044   30.5046  -25.2975 H   0  0  0  0  0  0  0  0  0  0  0  0
   -0.5744   29.4337  -24.0106 H   0  0  0  0  0  0  0  0  0  0  0  0
   -1.3737   26.5934  -23.5570 H   0  0  0  0  0  0  0  0  0  0  0  0
   -2.5845   27.3066  -24.6045 H   0  0  0  0  0  0  0  0  0  0  0  0
   -1.4070   24.6267  -24.8239 H   0  0  0  0  0  0  0  0  0  0  0  0
   -3.7154   25.1211  -25.3917 H   0  0  0  0  0  0  0  0  0  0  0  0
   -3.1841   26.1294  -26.7802 H   0  0  0  0  0  0  0  0  0  0  0  0
   -2.8658   24.3615  -26.7802 H   0  0  0  0  0  0  0  0  0  0  0  0
   -8.0980   22.8554  -30.1086 H   0  0  0  0  0  0  0  0  0  0  0  0
   -9.9860   21.5340  -31.0575 H   0  0  0  0  0  0  0  0  0  0  0  0
  1  2  1  0
  2  3  2  0
  3  4  1  0
  4  5  2  0
  5  6  1  0
  6  7  1  0
  7  8  2  0
  7  9  1  0
  9 10  1  0
 10 11  2  0
 11 12  1  0
 12 13  2  0
 13 14  1  0
 14 15  1  0
 15 16  2  0
 15 17  2  0
 15 18  1  0
 18 19  1  0
 19 20  2  0
 20 21  1  0
 21 22  2  0
 22 23  1  0
 23 24  2  0
 24 25  1  0
 25 26  1  0
 26 27  1  0
 14 28  2  0
 28 29  1  0
  5 30  1  0
 30 31  2  0
 31  2  1  0
 28 10  1  0
 26 18  1  0
 24 19  1  0
  1 32  1  0
  1 33  1  0
  1 34  1  0
  3 35  1  0
  4 36  1  0
  6 37  1  0
 11 38  1  0
 12 39  1  0
 13 40  1  0
 20 41  1  0
 21 42  1  0
 22 43  1  0
 23 44  1  0
 25 45  1  0
 25 46  1  0
 26 47  1  1
 27 48  1  0
 27 49  1  0
 27 50  1  0
 30 51  1  0
 31 52  1  0
M  CHG  2   9  -1  29  -1
M  END
>  <UniqueID>  (31) 
31

>  <SMILES>  (31) 
Cc1ccc(NC(=O)[N-]c2cccc(S(=O)(=O)N3c4ccccc4C[C@H]3C)c2[O-])cc1

>  <Energy>  (31) 
78.81922030638042

>  <Genealogy>  (31) 
Cc1ccc(NC(=O)[N-]c2cccc(S(=O)(=O)N3c4ccccc4CC3C)c2[O-])cc1 (protonated)
Cc1ccc(NC(=O)[N-]c2cccc(S(=O)(=O)N3c4ccccc4C[C@H]3C)c2[O-])cc1 (chirality)
Cc1ccc(NC(=O)[N-]c2cccc(S(=O)(=O)N3c4ccccc4C[C@H]3C)c2[O-])cc1 (3D coordinates assigned)
Cc1ccc(NC(=O)[N-]c2cccc(S(=O)(=O)N3c4ccccc4C[C@H]3C)c2[O-])cc1 (nonaromatic ring conformer: 78.81922030638042 kcal/mol)

>  <smiles>  (31) 
Cc1ccc(NC(=O)Nc2cccc(S(=O)(=O)N3c4ccccc4CC3C)c2O)cc1

>  <score_type>  (31) 
oracle

>  <origin>  (31) 
adgpu

>  <m_score__min__energy>  (31) 
-15.49

>  <m_primary>  (31) 
energy

$$$$
31:0
     RDKit          3D

 61 65  0  0  0  0  0  0  0  0999 V2000
   -1.6140   26.1620  -29.7250 H   0  0  0  0  0  0  0  0  0  0  0  0
   -1.2920   25.3230  -29.1890 N   0  0  0  0  0  0  0  0  0  0  0  0
   -1.9810   24.2310  -29.1650 C   0  0  0  0  0  0  0  0  0  0  0  0
   -3.1520   24.1440  -29.8490 N   0  0  0  0  0  0  0  0  0  0  0  0
   -3.8980   23.0060  -29.8450 C   0  0  0  0  0  0  0  0  0  0  0  0
   -5.1690   22.9690  -30.6180 C   0  0  0  0  0  0  0  0  0  0  0  0
   -5.7080   24.1640  -31.1320 C   0  0  0  0  0  0  0  0  0  0  0  0
   -5.1956   25.1188  -30.9426 H   0  0  0  0  0  0  0  0  0  0  0  0
   -6.8870   24.1480  -31.8800 C   0  0  0  0  0  0  0  0  0  0  0  0
   -7.3005   25.0890  -32.2718 H   0  0  0  0  0  0  0  0  0  0  0  0
   -7.5420   22.9430  -32.1320 C   0  0  0  0  0  0  0  0  0  0  0  0
   -8.4726   22.9370  -32.7185 H   0  0  0  0  0  0  0  0  0  0  0  0
   -7.0190   21.7410  -31.6410 C   0  0  0  0  0  0  0  0  0  0  0  0
   -7.8360   20.2120  -31.9860 S   0  0  0  0  0  0  0  0  0  0  0  0
   -8.6980   20.3750  -33.2060 O   0  0  0  0  0  0  0  0  0  0  0  0
   -8.7300   19.8580  -30.8290 O   0  0  0  0  0  0  0  0  0  0  0  0
   -6.6950   18.9150  -32.2590 N   0  0  0  0  0  0  0  0  0  0  0  0
   -7.3990   17.6900  -32.6880 C   0  0  0  0  0  0  0  0  0  0  0  0
   -7.8252   17.1897  -31.8059 H   0  0  0  0  0  0  0  0  0  0  0  0
   -8.1989   17.9670  -33.3904 H   0  0  0  0  0  0  0  0  0  0  0  0
   -6.4280   16.7300  -33.3940 C   0  0  0  0  0  0  0  0  0  0  0  0
   -5.6289   16.4639  -32.6865 H   0  0  0  0  0  0  0  0  0  0  0  0
   -7.0178   15.8582  -33.7136 H   0  0  0  0  0  0  0  0  0  0  0  0
   -5.8270   17.2730  -34.5650 O   0  0  0  0  0  0  0  0  0  0  0  0
   -5.7810   18.6930  -34.5820 C   0  0  0  0  0  0  0  0  0  0  0  0
   -4.9335   19.0070  -35.2091 H   0  0  0  0  0  0  0  0  0  0  0  0
   -6.7447   19.0445  -34.9792 H   0  0  0  0  0  0  0  0  0  0  0  0
   -5.6110   19.3160  -33.1840 C   0  0  0  0  0  0  0  0  0  0  0  0
   -4.6481   18.9888  -32.7648 H   0  0  0  0  0  0  0  0  0  0  0  0
   -5.6478   20.4098  -33.2943 H   0  0  0  0  0  0  0  0  0  0  0  0
   -5.8380   21.7560  -30.8840 C   0  0  0  0  0  0  0  0  0  0  0  0
   -5.4295   20.8121  -30.4939 H   0  0  0  0  0  0  0  0  0  0  0  0
   -3.4450   21.9020  -29.1000 C   0  0  0  0  0  0  0  0  0  0  0  0
   -4.0380   20.9764  -29.0598 H   0  0  0  0  0  0  0  0  0  0  0  0
   -2.2260   21.9960  -28.4080 C   0  0  0  0  0  0  0  0  0  0  0  0
   -1.6960   20.8770  -27.6580 N   0  0  0  0  0  0  0  0  0  0  0  0
   -2.5340   19.7050  -27.3590 C   0  0  0  0  0  0  0  0  0  0  0  0
   -3.2296   19.9590  -26.5456 H   0  0  0  0  0  0  0  0  0  0  0  0
   -3.0870   19.4299  -28.2692 H   0  0  0  0  0  0  0  0  0  0  0  0
   -1.6780   18.5090  -26.9300 C   0  0  0  0  0  0  0  0  0  0  0  0
   -1.3855   18.6230  -25.8758 H   0  0  0  0  0  0  0  0  0  0  0  0
   -2.2527   17.5780  -27.0441 H   0  0  0  0  0  0  0  0  0  0  0  0
   -0.4710   18.4600  -27.7770 N   0  0  0  0  0  0  0  0  0  0  0  0
    0.2440   17.1790  -27.6260 C   0  0  0  0  0  0  0  0  0  0  0  0
    1.1165   17.3261  -26.9725 H   0  0  0  0  0  0  0  0  0  0  0  0
   -0.4399   16.4394  -27.1841 H   0  0  0  0  0  0  0  0  0  0  0  0
    0.7070   16.6750  -28.9630 C   0  0  0  0  0  0  0  0  0  0  0  0
    1.3460   15.4520  -29.1290 C   0  0  0  0  0  0  0  0  0  0  0  0
    1.5638   14.7224  -28.3351 H   0  0  0  0  0  0  0  0  0  0  0  0
    1.7270   15.2850  -30.7570 S   0  0  0  0  0  0  0  0  0  0  0  0
    1.0870   16.7540  -31.2640 C   0  0  0  0  0  0  0  0  0  0  0  0
    1.0835   17.1351  -32.2959 H   0  0  0  0  0  0  0  0  0  0  0  0
    0.5640   17.4020  -30.1550 C   0  0  0  0  0  0  0  0  0  0  0  0
    0.0835   18.3903  -30.2048 H   0  0  0  0  0  0  0  0  0  0  0  0
    0.4330   19.5990  -27.4860 C   0  0  0  0  0  0  0  0  0  0  0  0
    1.0732   19.3277  -26.6336 H   0  0  0  0  0  0  0  0  0  0  0  0
    1.0171   19.7927  -28.3978 H   0  0  0  0  0  0  0  0  0  0  0  0
   -0.3190   20.9020  -27.1390 C   0  0  0  0  0  0  0  0  0  0  0  0
   -0.3499   21.0180  -26.0456 H   0  0  0  0  0  0  0  0  0  0  0  0
    0.2129   21.7451  -27.6040 H   0  0  0  0  0  0  0  0  0  0  0  0
   -1.5290   23.1640  -28.4610 N   0  0  0  0  0  0  0  0  0  0  0  0
  1  2  1  0
  2  3  2  0
  3  4  1  0
  4  5  2  0
  5  6  1  0
  6  7  2  0
  7  8  1  0
  7  9  1  0
  9 10  1  0
  9 11  2  0
 11 12  1  0
 11 13  1  0
 13 14  1  0
 14 15  2  0
 14 16  2  0
 14 17  1  0
 17 18  1  0
 18 19  1  0
 18 20  1  0
 18 21  1  0
 21 22  1  0
 21 23  1  0
 21 24  1  0
 24 25  1  0
 25 26  1  0
 25 27  1  0
 25 28  1  0
 28 29  1  0
 28 30  1  0
 13 31  2  0
 31 32  1  0
  5 33  1  0
 33 34  1  0
 33 35  2  0
 35 36  1  0
 36 37  1  0
 37 38  1  0
 37 39  1  0
 37 40  1  0
 40 41  1  0
 40 42  1  0
 40 43  1  0
 43 44  1  0
 44 45  1  0
 44 46  1  0
 44 47  1  0
 47 48  2  0
 48 49  1  0
 48 50  1  0
 50 51  1  0
 51 52  1  0
 51 53  2  0
 53 54  1  0
 43 55  1  0
 55 56  1  0
 55 57  1  0
 55 58  1  0
 58 59  1  0
 58 60  1  0
 35 61  1  0
 61  3  1  0
 31  6  1  0
 58 36  1  0
 28 17  1  0
 53 47  1  0
M  CHG  1  61  -1
M  END
>  <UniqueID>  (32) 
32

>  <SMILES>  (32) 
[H]/N=c1\nc(-c2cccc(S(=O)(=O)N3CCOCC3)c2)cc(N2CCN(Cc3ccsc3)CC2)[n-]1

>  <Energy>  (32) 
114.12769597547361

>  <Genealogy>  (32) 
N=c1nc(-c2cccc(S(=O)(=O)N3CCOCC3)c2)cc(N2CCN(Cc3ccsc3)CC2)[n-]1 (protonated)
[H]/N=c1\nc(-c2cccc(S(=O)(=O)N3CCOCC3)c2)cc(N2CCN(Cc3ccsc3)CC2)[n-]1 (cis-trans isomerization)
[H]/N=c1\nc(-c2cccc(S(=O)(=O)N3CCOCC3)c2)cc(N2CCN(Cc3ccsc3)CC2)[n-]1 (3D coordinates assigned)
[H]/N=c1\nc(-c2cccc(S(=O)(=O)N3CCOCC3)c2)cc(N2CCN(Cc3ccsc3)CC2)[n-]1 (nonaromatic ring conformer: 114.12769597547361 kcal/mol)

>  <smiles>  (32) 
N=c1nc(-c2cccc(S(=O)(=O)N3CCOCC3)c2)cc(N2CCN(Cc3ccsc3)CC2)[nH]1

>  <score_type>  (32) 
oracle

>  <origin>  (32) 
adgpu

>  <m_score__min__energy>  (32) 
-11.119999999999999

>  <m_primary>  (32) 
energy

$$$$
32:0
     RDKit          3D

 44 46  0  0  0  0  0  0  0  0999 V2000
   -0.9770   26.0660  -28.9640 O   0  0  0  0  0  0  0  0  0  0  0  0
   -0.9460   24.8180  -28.9550 N   0  0  0  0  0  0  0  0  0  0  0  0
    0.2730   24.1870  -28.8760 O   0  0  0  0  0  0  0  0  0  0  0  0
   -2.1680   24.0660  -28.8530 C   0  0  0  0  0  0  0  0  0  0  0  0
   -3.2180   24.3310  -29.7510 C   0  0  0  0  0  0  0  0  0  0  0  0
   -4.4280   23.6310  -29.6690 C   0  0  0  0  0  0  0  0  0  0  0  0
   -5.7230   23.9590  -30.8240 S   0  0  0  0  0  0  0  0  0  0  0  0
   -7.0080   24.1900  -30.0790 O   0  0  0  0  0  0  0  0  0  0  0  0
   -5.3940   25.2130  -31.5850 O   0  0  0  0  0  0  0  0  0  0  0  0
   -5.9290   22.6360  -31.9460 N   0  0  0  0  0  0  0  0  0  0  0  0
   -4.7930   21.6990  -31.8490 C   0  0  0  0  0  0  0  0  0  0  0  0
   -4.8450   20.6420  -32.9710 C   0  0  0  0  0  0  0  0  0  0  0  0
   -6.2760   20.3780  -33.4700 C   0  0  0  0  0  0  0  0  0  0  0  0
   -7.2950   20.5460  -32.3410 C   0  0  0  0  0  0  0  0  0  0  0  0
   -7.2220   21.9530  -31.7050 C   0  0  0  0  0  0  0  0  0  0  0  0
   -4.6000   22.6650  -28.6720 C   0  0  0  0  0  0  0  0  0  0  0  0
   -3.5630   22.3800  -27.7840 C   0  0  0  0  0  0  0  0  0  0  0  0
   -2.3410   23.0580  -27.8750 C   0  0  0  0  0  0  0  0  0  0  0  0
   -1.0090   22.5500  -26.7770 S   0  0  0  0  0  0  0  0  0  0  0  0
   -0.9130   24.1600  -25.9880 C   0  0  0  0  0  0  0  0  0  0  0  0
   -2.0510   24.9770  -25.9320 C   0  0  0  0  0  0  0  0  0  0  0  0
   -1.9800   26.2380  -25.3320 C   0  0  0  0  0  0  0  0  0  0  0  0
   -0.7760   26.6840  -24.7800 C   0  0  0  0  0  0  0  0  0  0  0  0
    0.3580   25.8680  -24.8240 C   0  0  0  0  0  0  0  0  0  0  0  0
    0.2920   24.6060  -25.4250 C   0  0  0  0  0  0  0  0  0  0  0  0
    1.3980   23.8210  -25.4560 F   0  0  0  0  0  0  0  0  0  0  0  0
   -3.0867   25.0984  -30.5280 H   0  0  0  0  0  0  0  0  0  0  0  0
   -5.9380   23.0570  -32.9050 H   0  0  0  0  0  0  0  0  0  0  0  0
   -3.8532   22.2646  -31.9320 H   0  0  0  0  0  0  0  0  0  0  0  0
   -4.8498   21.1816  -30.8799 H   0  0  0  0  0  0  0  0  0  0  0  0
   -4.2368   20.9957  -33.8166 H   0  0  0  0  0  0  0  0  0  0  0  0
   -4.4571   19.6990  -32.5583 H   0  0  0  0  0  0  0  0  0  0  0  0
   -6.5122   21.0891  -34.2754 H   0  0  0  0  0  0  0  0  0  0  0  0
   -6.3313   19.3429  -33.8382 H   0  0  0  0  0  0  0  0  0  0  0  0
   -8.3053   20.3912  -32.7476 H   0  0  0  0  0  0  0  0  0  0  0  0
   -7.0648   19.8060  -31.5603 H   0  0  0  0  0  0  0  0  0  0  0  0
   -8.0279   22.5704  -32.1286 H   0  0  0  0  0  0  0  0  0  0  0  0
   -7.3270   21.8261  -30.6174 H   0  0  0  0  0  0  0  0  0  0  0  0
   -5.5565   22.1283  -28.5881 H   0  0  0  0  0  0  0  0  0  0  0  0
   -3.7062   21.6162  -27.0055 H   0  0  0  0  0  0  0  0  0  0  0  0
   -3.0011   24.6255  -26.3607 H   0  0  0  0  0  0  0  0  0  0  0  0
   -2.8727   26.8796  -25.2944 H   0  0  0  0  0  0  0  0  0  0  0  0
   -0.7208   27.6774  -24.3108 H   0  0  0  0  0  0  0  0  0  0  0  0
    1.3040   26.2185  -24.3854 H   0  0  0  0  0  0  0  0  0  0  0  0
  1  2  2  0
  2  3  1  0
  2  4  1  0
  4  5  2  0
  5  6  1  0
  6  7  1  0
  7  8  2  0
  7  9  2  0
  7 10  1  0
 10 11  1  0
 11 12  1  0
 12 13  1  0
 13 14  1  0
 14 15  1  0
  6 16  2  0
 16 17  1  0
 17 18  2  0
 18 19  1  0
 19 20  1  0
 20 21  2  0
 21 22  1  0
 22 23  2  0
 23 24  1  0
 24 25  2  0
 25 26  1  0
 18  4  1  0
 25 20  1  0
 15 10  1  0
  5 27  1  0
 10 28  1  0
 11 29  1  0
 11 30  1  0
 12 31  1  0
 12 32  1  0
 13 33  1  0
 13 34  1  0
 14 35  1  0
 14 36  1  0
 15 37  1  0
 15 38  1  0
 16 39  1  0
 17 40  1  0
 21 41  1  0
 22 42  1  0
 23 43  1  0
 24 44  1  0
M  CHG  3   2   1   3  -1  10   1
M  END
>  <UniqueID>  (33) 
33

>  <SMILES>  (33) 
O=[N+]([O-])c1cc(S(=O)(=O)[NH+]2CCCCC2)ccc1Sc1ccccc1F

>  <Energy>  (33) 
48.45568338012075

>  <Genealogy>  (33) 
O=[N+]([O-])c1cc(S(=O)(=O)[NH+]2CCCCC2)ccc1Sc1ccccc1F (protonated)
O=[N+]([O-])c1cc(S(=O)(=O)[NH+]2CCCCC2)ccc1Sc1ccccc1F (3D coordinates assigned)
O=[N+]([O-])c1cc(S(=O)(=O)[NH+]2CCCCC2)ccc1Sc1ccccc1F (nonaromatic ring conformer: 48.45568338012075 kcal/mol)

>  <smiles>  (33) 
O=[N+]([O-])c1cc(S(=O)(=O)N2CCCCC2)ccc1Sc1ccccc1F

>  <score_type>  (33) 
oracle

>  <origin>  (33) 
adgpu

>  <m_score__min__energy>  (33) 
-9.0899999999999999

>  <m_primary>  (33) 
energy

$$$$
33:0
     RDKit          3D

 60 63  0  0  0  0  0  0  0  0999 V2000
   -1.9710   20.0710  -26.1630 C   0  0  0  0  0  0  0  0  0  0  0  0
   -1.3640   19.7430  -27.5040 C   0  0  0  0  0  0  0  0  0  0  0  0
   -0.6740   18.5300  -27.6610 C   0  0  0  0  0  0  0  0  0  0  0  0
   -0.0990   18.1930  -28.9020 C   0  0  0  0  0  0  0  0  0  0  0  0
    0.6200   16.9510  -29.0990 N   0  0  0  0  0  0  0  0  0  0  0  0
    1.0530   16.1860  -27.9230 C   0  0  0  0  0  0  0  0  0  0  0  0
    0.9300   16.4530  -30.4450 C   0  0  0  0  0  0  0  0  0  0  0  0
   -0.2250   19.0630  -29.9410 N   0  0  0  0  0  0  0  0  0  0  0  0
   -0.8860   20.2440  -29.8350 C   0  0  0  0  0  0  0  0  0  0  0  0
   -0.9710   21.0870  -30.9470 C   0  0  0  0  0  0  0  0  0  0  0  0
   -1.6470   22.3030  -30.8570 C   0  0  0  0  0  0  0  0  0  0  0  0
   -2.2590   22.6850  -29.6520 C   0  0  0  0  0  0  0  0  0  0  0  0
   -2.9540   23.9350  -29.5310 N   0  0  0  0  0  0  0  0  0  0  0  0
   -3.9650   24.4150  -30.4290 C   0  0  0  0  0  0  0  0  0  0  0  0
   -3.9020   25.6010  -30.8450 O   0  0  0  0  0  0  0  0  0  0  0  0
   -5.0840   23.5540  -30.8660 C   0  0  0  0  0  0  0  0  0  0  0  0
   -4.8140   22.4910  -31.7430 C   0  0  0  0  0  0  0  0  0  0  0  0
   -5.8230   21.5860  -32.0960 C   0  0  0  0  0  0  0  0  0  0  0  0
   -5.4290   20.1960  -33.1040 S   0  0  0  0  0  0  0  0  0  0  0  0
   -6.4570   20.0470  -34.1920 O   0  0  0  0  0  0  0  0  0  0  0  0
   -4.0920   20.4390  -33.7470 O   0  0  0  0  0  0  0  0  0  0  0  0
   -5.3480   18.7360  -32.1390 N   0  0  0  0  0  0  0  0  0  0  0  0
   -6.6690   18.3400  -31.6100 C   0  0  0  0  0  0  0  0  0  0  0  0
   -7.5950   17.7620  -32.6950 C   0  0  0  0  0  0  0  0  0  0  0  0
   -6.8590   16.8450  -33.6890 C   0  0  0  0  0  0  0  0  0  0  0  0
   -5.4870   16.4190  -33.1680 C   0  0  0  0  0  0  0  0  0  0  0  0
   -4.6190   17.6490  -32.8410 C   0  0  0  0  0  0  0  0  0  0  0  0
   -7.1150   21.7540  -31.5850 C   0  0  0  0  0  0  0  0  0  0  0  0
   -7.4010   22.8240  -30.7380 C   0  0  0  0  0  0  0  0  0  0  0  0
   -6.3990   23.7330  -30.3780 C   0  0  0  0  0  0  0  0  0  0  0  0
   -6.7470   24.8080  -29.5570 O   0  0  0  0  0  0  0  0  0  0  0  0
   -2.1540   21.8560  -28.5290 C   0  0  0  0  0  0  0  0  0  0  0  0
   -1.4750   20.6220  -28.6070 C   0  0  0  0  0  0  0  0  0  0  0  0
   -1.3073   19.7123  -25.3625 H   0  0  0  0  0  0  0  0  0  0  0  0
   -2.0973   21.1601  -26.0742 H   0  0  0  0  0  0  0  0  0  0  0  0
   -2.9512   19.5798  -26.0742 H   0  0  0  0  0  0  0  0  0  0  0  0
   -0.5820   17.8391  -26.8100 H   0  0  0  0  0  0  0  0  0  0  0  0
    0.7520   16.7179  -27.0084 H   0  0  0  0  0  0  0  0  0  0  0  0
    0.5841   15.1911  -27.9398 H   0  0  0  0  0  0  0  0  0  0  0  0
    2.1473   16.0759  -27.9398 H   0  0  0  0  0  0  0  0  0  0  0  0
    1.5098   15.5215  -30.3668 H   0  0  0  0  0  0  0  0  0  0  0  0
   -0.0063   16.2576  -30.9883 H   0  0  0  0  0  0  0  0  0  0  0  0
    1.5187   17.2068  -30.9883 H   0  0  0  0  0  0  0  0  0  0  0  0
   -0.5026   20.7897  -31.8968 H   0  0  0  0  0  0  0  0  0  0  0  0
   -1.7012   22.9658  -31.7332 H   0  0  0  0  0  0  0  0  0  0  0  0
   -3.8019   22.3681  -32.1561 H   0  0  0  0  0  0  0  0  0  0  0  0
   -6.5218   17.5779  -30.8306 H   0  0  0  0  0  0  0  0  0  0  0  0
   -7.1508   19.2441  -31.2095 H   0  0  0  0  0  0  0  0  0  0  0  0
   -8.3895   17.1807  -32.2043 H   0  0  0  0  0  0  0  0  0  0  0  0
   -7.9997   18.6096  -33.2675 H   0  0  0  0  0  0  0  0  0  0  0  0
   -7.4686   15.9455  -33.8605 H   0  0  0  0  0  0  0  0  0  0  0  0
   -6.7081   17.4076  -34.6221 H   0  0  0  0  0  0  0  0  0  0  0  0
   -5.6184   15.8178  -32.2562 H   0  0  0  0  0  0  0  0  0  0  0  0
   -4.9822   15.8287  -33.9469 H   0  0  0  0  0  0  0  0  0  0  0  0
   -3.7852   17.3233  -32.2017 H   0  0  0  0  0  0  0  0  0  0  0  0
   -4.2806   18.0632  -33.8022 H   0  0  0  0  0  0  0  0  0  0  0  0
   -7.9075   21.0395  -31.8525 H   0  0  0  0  0  0  0  0  0  0  0  0
   -8.4218   22.9549  -30.3497 H   0  0  0  0  0  0  0  0  0  0  0  0
   -6.4610   24.8740  -28.5880 H   0  0  0  0  0  0  0  0  0  0  0  0
   -2.6054   22.1699  -27.5763 H   0  0  0  0  0  0  0  0  0  0  0  0
  1  2  1  0
  2  3  2  0
  3  4  1  0
  4  5  1  0
  5  6  1  0
  5  7  1  0
  4  8  2  0
  8  9  1  0
  9 10  2  0
 10 11  1  0
 11 12  2  0
 12 13  1  0
 13 14  1  0
 14 15  2  0
 14 16  1  0
 16 17  2  0
 17 18  1  0
 18 19  1  0
 19 20  2  0
 19 21  2  0
 19 22  1  0
 22 23  1  0
 23 24  1  0
 24 25  1  0
 25 26  1  0
 26 27  1  0
 18 28  2  0
 28 29  1  0
 29 30  2  0
 30 31  1  0
 12 32  1  0
 32 33  2  0
 33  2  1  0
 33  9  1  0
 30 16  1  0
 27 22  1  0
  1 34  1  0
  1 35  1  0
  1 36  1  0
  3 37  1  0
  6 38  1  0
  6 39  1  0
  6 40  1  0
  7 41  1  0
  7 42  1  0
  7 43  1  0
 10 44  1  0
 11 45  1  0
 17 46  1  0
 23 47  1  0
 23 48  1  0
 24 49  1  0
 24 50  1  0
 25 51  1  0
 25 52  1  0
 26 53  1  0
 26 54  1  0
 27 55  1  0
 27 56  1  0
 28 57  1  0
 29 58  1  0
 31 59  1  0
 32 60  1  0
M  CHG  1  13  -1
M  END
>  <UniqueID>  (34) 
34

>  <SMILES>  (34) 
Cc1cc(N(C)C)nc2ccc([N-]C(=O)c3cc(S(=O)(=O)N4CCCCC4)ccc3O)cc12

>  <Energy>  (34) 
82.24453947302398

>  <Genealogy>  (34) 
Cc1cc(N(C)C)nc2ccc([N-]C(=O)c3cc(S(=O)(=O)N4CCCCC4)ccc3O)cc12 (protonated)
Cc1cc(N(C)C)nc2ccc([N-]C(=O)c3cc(S(=O)(=O)N4CCCCC4)ccc3O)cc12 (3D coordinates assigned)
Cc1cc(N(C)C)nc2ccc([N-]C(=O)c3cc(S(=O)(=O)N4CCCCC4)ccc3O)cc12 (nonaromatic ring conformer: 82.24453947302398 kcal/mol)

>  <smiles>  (34) 
Cc1cc(N(C)C)nc2ccc(NC(=O)c3cc(S(=O)(=O)N4CCCCC4)ccc3O)cc12

>  <score_type>  (34) 
oracle

>  <origin>  (34) 
adgpu

>  <m_score__min__energy>  (34) 
-11.279999999999999

>  <m_primary>  (34) 
energy

$$$$
34:0
     RDKit          3D

 40 42  0  0  0  0  0  0  0  0999 V2000
   -2.7330   19.3510  -26.7440 C   0  0  0  0  0  0  0  0  0  0  0  0
   -2.3590   20.0480  -27.9270 O   0  0  0  0  0  0  0  0  0  0  0  0
   -3.0490   21.1540  -28.4450 C   0  0  0  0  0  0  0  0  0  0  0  0
   -3.7320   22.0720  -27.6250 C   0  0  0  0  0  0  0  0  0  0  0  0
   -4.4020   23.1600  -28.1910 C   0  0  0  0  0  0  0  0  0  0  0  0
   -4.3960   23.3500  -29.5790 C   0  0  0  0  0  0  0  0  0  0  0  0
   -5.2250   24.7350  -30.2810 S   0  0  0  0  0  0  0  0  0  0  0  0
   -6.0150   25.4700  -29.2340 O   0  0  0  0  0  0  0  0  0  0  0  0
   -4.2000   25.6660  -30.8640 O   0  0  0  0  0  0  0  0  0  0  0  0
   -6.3010   24.2090  -31.5370 N   0  0  0  0  0  0  0  0  0  0  0  0
   -6.7800   22.8590  -31.6690 C   0  0  0  0  0  0  0  0  0  0  0  0
   -7.9790   22.4860  -31.0090 C   0  0  0  0  0  0  0  0  0  0  0  0
   -8.4890   21.1800  -31.1160 C   0  0  0  0  0  0  0  0  0  0  0  0
   -7.7750   20.2690  -31.8940 C   0  0  0  0  0  0  0  0  0  0  0  0
   -6.6150   20.6110  -32.5220 C   0  0  0  0  0  0  0  0  0  0  0  0
   -6.0800   21.8930  -32.4350 C   0  0  0  0  0  0  0  0  0  0  0  0
   -6.0990   19.5530  -33.1730 N   0  0  0  0  0  0  0  0  0  0  0  0
   -6.9960   18.5650  -32.9120 C   0  0  0  0  0  0  0  0  0  0  0  0
   -6.8300   17.1710  -33.4270 C   0  0  0  0  0  0  0  0  0  0  0  0
   -8.0420   18.9770  -32.1450 N   0  0  0  0  0  0  0  0  0  0  0  0
   -9.1350   18.1700  -31.6040 C   0  0  0  0  0  0  0  0  0  0  0  0
   -3.7210   22.4350  -30.3990 C   0  0  0  0  0  0  0  0  0  0  0  0
   -3.0520   21.3460  -29.8330 C   0  0  0  0  0  0  0  0  0  0  0  0
   -2.4217   19.9311  -25.8627 H   0  0  0  0  0  0  0  0  0  0  0  0
   -3.8246   19.2162  -26.7274 H   0  0  0  0  0  0  0  0  0  0  0  0
   -2.2418   18.3669  -26.7274 H   0  0  0  0  0  0  0  0  0  0  0  0
   -3.7384   21.9323  -26.5339 H   0  0  0  0  0  0  0  0  0  0  0  0
   -4.9367   23.8706  -27.5436 H   0  0  0  0  0  0  0  0  0  0  0  0
   -6.5480   24.9090  -32.2720 H   0  0  0  0  0  0  0  0  0  0  0  0
   -8.5181   23.2300  -30.4041 H   0  0  0  0  0  0  0  0  0  0  0  0
   -9.4178   20.8874  -30.6044 H   0  0  0  0  0  0  0  0  0  0  0  0
   -5.1404   22.1495  -32.9463 H   0  0  0  0  0  0  0  0  0  0  0  0
   -6.7471   16.4745  -32.5796 H   0  0  0  0  0  0  0  0  0  0  0  0
   -7.7023   16.9003  -34.0401 H   0  0  0  0  0  0  0  0  0  0  0  0
   -5.9186   17.1127  -34.0401 H   0  0  0  0  0  0  0  0  0  0  0  0
   -9.1004   18.1956  -30.5048 H   0  0  0  0  0  0  0  0  0  0  0  0
  -10.0969   18.5763  -31.9501 H   0  0  0  0  0  0  0  0  0  0  0  0
   -9.0299   17.1312  -31.9501 H   0  0  0  0  0  0  0  0  0  0  0  0
   -3.7178   22.5743  -31.4901 H   0  0  0  0  0  0  0  0  0  0  0  0
   -2.5232   20.6334  -30.4830 H   0  0  0  0  0  0  0  0  0  0  0  0
  1  2  1  0
  2  3  1  0
  3  4  2  0
  4  5  1  0
  5  6  2  0
  6  7  1  0
  7  8  2  0
  7  9  2  0
  7 10  1  0
 10 11  1  0
 11 12  2  0
 12 13  1  0
 13 14  2  0
 14 15  1  0
 15 16  2  0
 15 17  1  0
 17 18  2  0
 18 19  1  0
 18 20  1  0
 20 21  1  0
  6 22  1  0
 22 23  2  0
 23  3  1  0
 16 11  1  0
 20 14  1  0
  1 24  1  0
  1 25  1  0
  1 26  1  0
  4 27  1  0
  5 28  1  0
 10 29  1  0
 12 30  1  0
 13 31  1  0
 16 32  1  0
 19 33  1  0
 19 34  1  0
 19 35  1  0
 21 36  1  0
 21 37  1  0
 21 38  1  0
 22 39  1  0
 23 40  1  0
M  END
>  <UniqueID>  (35) 
35

>  <SMILES>  (35) 
COc1ccc(S(=O)(=O)Nc2ccc3c(c2)nc(C)n3C)cc1

>  <Energy>  (35) 
79.72936897624673

>  <Genealogy>  (35) 
COc1ccc(S(=O)(=O)Nc2ccc3c(c2)nc(C)n3C)cc1 (3D coordinates assigned)
COc1ccc(S(=O)(=O)Nc2ccc3c(c2)nc(C)n3C)cc1 (optimized conformer: 79.72936897624673 kcal/mol)

>  <smiles>  (35) 
COc1ccc(S(=O)(=O)Nc2ccc3c(c2)nc(C)n3C)cc1

>  <score_type>  (35) 
oracle

>  <origin>  (35) 
adgpu

>  <m_score__min__energy>  (35) 
-8.5600000000000005

>  <m_primary>  (35) 
energy

$$$$
35:0
     RDKit          3D

 53 55  0  0  0  0  0  0  0  0999 V2000
    3.1130   25.2260  -27.7340 C   0  0  0  0  0  0  0  0  0  0  0  0
    1.9310   24.5340  -28.2360 N   0  0  0  0  0  0  0  0  0  0  0  0
    0.5380   25.0080  -27.3130 S   0  0  0  0  0  0  0  0  0  0  0  0
    0.5010   26.5060  -27.2100 O   0  0  0  0  0  0  0  0  0  0  0  0
    0.6310   24.4380  -25.9240 O   0  0  0  0  0  0  0  0  0  0  0  0
   -0.9360   24.4500  -28.1010 C   0  0  0  0  0  0  0  0  0  0  0  0
   -0.8660   23.8460  -29.3630 C   0  0  0  0  0  0  0  0  0  0  0  0
   -2.0280   23.3860  -29.9890 C   0  0  0  0  0  0  0  0  0  0  0  0
   -3.2750   23.5300  -29.3610 C   0  0  0  0  0  0  0  0  0  0  0  0
   -4.5040   23.0260  -30.0190 C   0  0  0  0  0  0  0  0  0  0  0  0
   -4.5590   21.6690  -30.3790 C   0  0  0  0  0  0  0  0  0  0  0  0
   -5.7200   21.1240  -30.9270 C   0  0  0  0  0  0  0  0  0  0  0  0
   -6.8470   21.9250  -31.1290 C   0  0  0  0  0  0  0  0  0  0  0  0
   -8.3290   21.2240  -31.7880 S   0  0  0  0  0  0  0  0  0  0  0  0
   -9.1790   22.3180  -32.3720 O   0  0  0  0  0  0  0  0  0  0  0  0
   -9.1060   20.5750  -30.6770 O   0  0  0  0  0  0  0  0  0  0  0  0
   -7.9800   20.0360  -33.0230 N   0  0  0  0  0  0  0  0  0  0  0  0
   -6.6080   20.2130  -33.5390 C   0  0  0  0  0  0  0  0  0  0  0  0
   -6.1180   18.9410  -34.2340 C   0  0  0  0  0  0  0  0  0  0  0  0
   -6.0220   17.8110  -33.2810 N   0  0  0  0  0  0  0  0  0  0  0  0
   -6.1040   16.5260  -33.9940 C   0  0  0  0  0  0  0  0  0  0  0  0
   -7.0070   17.8790  -32.1720 C   0  0  0  0  0  0  0  0  0  0  0  0
   -8.2760   18.6590  -32.5600 C   0  0  0  0  0  0  0  0  0  0  0  0
   -6.7980   23.2840  -30.8000 C   0  0  0  0  0  0  0  0  0  0  0  0
   -5.6370   23.8510  -30.2440 C   0  0  0  0  0  0  0  0  0  0  0  0
   -5.6220   25.3070  -29.9600 C   0  0  0  0  0  0  0  0  0  0  0  0
   -6.5780   25.8900  -29.0740 N   0  0  0  0  0  0  0  0  0  0  0  0
   -4.7650   26.0470  -30.5140 O   0  0  0  0  0  0  0  0  0  0  0  0
   -3.3400   24.1200  -28.0880 C   0  0  0  0  0  0  0  0  0  0  0  0
   -2.1780   24.5790  -27.4630 C   0  0  0  0  0  0  0  0  0  0  0  0
    3.1021   25.2196  -26.6341 H   0  0  0  0  0  0  0  0  0  0  0  0
    4.0179   24.7150  -28.0947 H   0  0  0  0  0  0  0  0  0  0  0  0
    3.1103   26.2652  -28.0947 H   0  0  0  0  0  0  0  0  0  0  0  0
    0.1072   23.7333  -29.8632 H   0  0  0  0  0  0  0  0  0  0  0  0
   -1.9649   22.9090  -30.9782 H   0  0  0  0  0  0  0  0  0  0  0  0
   -3.6769   21.0296  -30.2270 H   0  0  0  0  0  0  0  0  0  0  0  0
   -5.7486   20.0591  -31.2013 H   0  0  0  0  0  0  0  0  0  0  0  0
   -6.5987   21.0438  -34.2599 H   0  0  0  0  0  0  0  0  0  0  0  0
   -5.9396   20.4311  -32.6930 H   0  0  0  0  0  0  0  0  0  0  0  0
   -6.8237   18.6755  -35.0349 H   0  0  0  0  0  0  0  0  0  0  0  0
   -5.1167   19.1339  -34.6464 H   0  0  0  0  0  0  0  0  0  0  0  0
   -6.1564   15.7045  -33.2643 H   0  0  0  0  0  0  0  0  0  0  0  0
   -7.0048   16.5138  -34.6253 H   0  0  0  0  0  0  0  0  0  0  0  0
   -5.2121   16.3994  -34.6253 H   0  0  0  0  0  0  0  0  0  0  0  0
   -7.2940   16.8548  -31.8914 H   0  0  0  0  0  0  0  0  0  0  0  0
   -6.5314   18.4089  -31.3335 H   0  0  0  0  0  0  0  0  0  0  0  0
   -8.7885   18.1179  -33.3690 H   0  0  0  0  0  0  0  0  0  0  0  0
   -8.9061   18.7379  -31.6618 H   0  0  0  0  0  0  0  0  0  0  0  0
   -7.6793   23.9176  -30.9785 H   0  0  0  0  0  0  0  0  0  0  0  0
   -6.5840   26.9220  -28.9140 H   0  0  0  0  0  0  0  0  0  0  0  0
   -7.2460   25.2960  -28.5330 H   0  0  0  0  0  0  0  0  0  0  0  0
   -4.3107   24.2211  -27.5806 H   0  0  0  0  0  0  0  0  0  0  0  0
   -2.2375   25.0430  -26.4674 H   0  0  0  0  0  0  0  0  0  0  0  0
  1  2  1  0
  2  3  1  0
  3  4  2  0
  3  5  2  0
  3  6  1  0
  6  7  2  0
  7  8  1  0
  8  9  2  0
  9 10  1  0
 10 11  2  0
 11 12  1  0
 12 13  2  0
 13 14  1  0
 14 15  2  0
 14 16  2  0
 14 17  1  0
 17 18  1  0
 18 19  1  0
 19 20  1  0
 20 21  1  0
 20 22  1  0
 22 23  1  0
 13 24  1  0
 24 25  2  0
 25 26  1  0
 26 27  1  0
 26 28  2  0
  9 29  1  0
 29 30  2  0
 30  6  1  0
 25 10  1  0
 23 17  1  0
  1 31  1  0
  1 32  1  0
  1 33  1  0
  7 34  1  0
  8 35  1  0
 11 36  1  0
 12 37  1  0
 18 38  1  0
 18 39  1  0
 19 40  1  0
 19 41  1  0
 21 42  1  0
 21 43  1  0
 21 44  1  0
 22 45  1  0
 22 46  1  0
 23 47  1  0
 23 48  1  0
 24 49  1  0
 27 50  1  0
 27 51  1  0
 29 52  1  0
 30 53  1  0
M  CHG  1   2  -1
M  END
>  <UniqueID>  (36) 
36

>  <SMILES>  (36) 
C[N-]S(=O)(=O)c1ccc(-c2ccc(S(=O)(=O)N3CCN(C)CC3)cc2C(N)=O)cc1

>  <Energy>  (36) 
71.45818612791322

>  <Genealogy>  (36) 
C[N-]S(=O)(=O)c1ccc(-c2ccc(S(=O)(=O)N3CCN(C)CC3)cc2C(N)=O)cc1 (protonated)
C[N-]S(=O)(=O)c1ccc(-c2ccc(S(=O)(=O)N3CCN(C)CC3)cc2C(N)=O)cc1 (3D coordinates assigned)
C[N-]S(=O)(=O)c1ccc(-c2ccc(S(=O)(=O)N3CCN(C)CC3)cc2C(N)=O)cc1 (nonaromatic ring conformer: 71.45818612791322 kcal/mol)

>  <smiles>  (36) 
CNS(=O)(=O)c1ccc(-c2ccc(S(=O)(=O)N3CCN(C)CC3)cc2C(N)=O)cc1

>  <score_type>  (36) 
oracle

>  <origin>  (36) 
adgpu

>  <m_score__min__energy>  (36) 
-10.49

>  <m_primary>  (36) 
energy

$$$$
36:0
     RDKit          3D

 46 48  0  0  0  0  0  0  0  0999 V2000
   -8.0710   20.0390  -33.6730 H   0  0  0  0  0  0  0  0  0  0  0  0
   -7.0600   20.1690  -33.4480 N   0  0  0  0  0  0  0  0  0  0  0  0
   -6.6420   21.1960  -32.7790 C   0  0  0  0  0  0  0  0  0  0  0  0
   -7.5260   22.1390  -32.3510 N   0  0  0  0  0  0  0  0  0  0  0  0
   -7.1230   23.2310  -31.6470 C   0  0  0  0  0  0  0  0  0  0  0  0
   -7.8632   23.9743  -31.3159 H   0  0  0  0  0  0  0  0  0  0  0  0
   -5.7690   23.4110  -31.3430 C   0  0  0  0  0  0  0  0  0  0  0  0
   -5.2480   24.8310  -30.4450 S   0  0  0  0  0  0  0  0  0  0  0  0
   -5.9190   24.8920  -29.1000 O   0  0  0  0  0  0  0  0  0  0  0  0
   -5.6120   26.0620  -31.2260 O   0  0  0  0  0  0  0  0  0  0  0  0
   -3.5290   24.7880  -30.2210 N   0  0  0  0  0  0  0  0  0  0  0  0
   -2.8410   24.0940  -29.1690 C   0  0  0  0  0  0  0  0  0  0  0  0
   -3.3550   22.9140  -28.6190 C   0  0  0  0  0  0  0  0  0  0  0  0
   -4.3114   22.5126  -28.9853 H   0  0  0  0  0  0  0  0  0  0  0  0
   -2.6660   22.2450  -27.6130 C   0  0  0  0  0  0  0  0  0  0  0  0
   -3.0751   21.3081  -27.2071 H   0  0  0  0  0  0  0  0  0  0  0  0
   -1.4570   22.7470  -27.1080 C   0  0  0  0  0  0  0  0  0  0  0  0
   -0.7500   21.9320  -26.0570 C   0  0  0  0  0  0  0  0  0  0  0  0
   -1.0521   22.2802  -25.0583 H   0  0  0  0  0  0  0  0  0  0  0  0
   -1.0192   20.8717  -26.1726 H   0  0  0  0  0  0  0  0  0  0  0  0
    0.3377   22.0488  -26.1726 H   0  0  0  0  0  0  0  0  0  0  0  0
   -0.9280   23.9580  -27.6360 C   0  0  0  0  0  0  0  0  0  0  0  0
    0.5900   24.6920  -27.0300 S   0  0  0  0  0  0  0  0  0  0  0  0
    1.3000   23.7530  -26.0970 O   0  0  0  0  0  0  0  0  0  0  0  0
    1.5130   24.9110  -28.1960 O   0  0  0  0  0  0  0  0  0  0  0  0
    0.3540   26.2250  -26.2050 N   0  0  0  0  0  0  0  0  0  0  0  0
    0.7470   26.1900  -24.7870 C   0  0  0  0  0  0  0  0  0  0  0  0
    1.6593   25.5832  -24.6900 H   0  0  0  0  0  0  0  0  0  0  0  0
    0.9112   27.2283  -24.4631 H   0  0  0  0  0  0  0  0  0  0  0  0
   -0.3470   25.5860  -23.8770 C   0  0  0  0  0  0  0  0  0  0  0  0
    0.0199   24.6302  -23.4747 H   0  0  0  0  0  0  0  0  0  0  0  0
   -0.5516   26.3155  -23.0795 H   0  0  0  0  0  0  0  0  0  0  0  0
   -1.5640   25.3510  -24.5580 O   0  0  0  0  0  0  0  0  0  0  0  0
   -1.9540   26.5120  -25.2550 C   0  0  0  0  0  0  0  0  0  0  0  0
   -2.9654   26.3648  -25.6618 H   0  0  0  0  0  0  0  0  0  0  0  0
   -1.9397   27.3617  -24.5566 H   0  0  0  0  0  0  0  0  0  0  0  0
   -0.9840   26.8120  -26.4130 C   0  0  0  0  0  0  0  0  0  0  0  0
   -1.4075   26.4014  -27.3415 H   0  0  0  0  0  0  0  0  0  0  0  0
   -0.8617   27.9038  -26.4681 H   0  0  0  0  0  0  0  0  0  0  0  0
   -1.6250   24.6110  -28.6840 C   0  0  0  0  0  0  0  0  0  0  0  0
   -1.0950   25.7760  -29.2430 O   0  0  0  0  0  0  0  0  0  0  0  0
   -0.1170   26.0290  -29.1660 H   0  0  0  0  0  0  0  0  0  0  0  0
   -4.8450   22.4510  -31.7720 C   0  0  0  0  0  0  0  0  0  0  0  0
   -3.7767   22.5734  -31.5404 H   0  0  0  0  0  0  0  0  0  0  0  0
   -5.2800   21.3380  -32.4940 C   0  0  0  0  0  0  0  0  0  0  0  0
   -4.5590   20.5805  -32.8352 H   0  0  0  0  0  0  0  0  0  0  0  0
  1  2  1  0
  2  3  2  0
  3  4  1  0
  4  5  1  0
  5  6  1  0
  5  7  2  0
  7  8  1  0
  8  9  2  0
  8 10  2  0
  8 11  1  0
 11 12  1  0
 12 13  2  0
 13 14  1  0
 13 15  1  0
 15 16  1  0
 15 17  2  0
 17 18  1  0
 18 19  1  0
 18 20  1  0
 18 21  1  0
 17 22  1  0
 22 23  1  0
 23 24  2  0
 23 25  2  0
 23 26  1  0
 26 27  1  0
 27 28  1  0
 27 29  1  0
 27 30  1  0
 30 31  1  0
 30 32  1  0
 30 33  1  0
 33 34  1  0
 34 35  1  0
 34 36  1  0
 34 37  1  0
 37 38  1  0
 37 39  1  0
 22 40  2  0
 40 41  1  0
 41 42  1  0
  7 43  1  0
 43 44  1  0
 43 45  2  0
 45 46  1  0
 45  3  1  0
 40 12  1  0
 37 26  1  0
M  CHG  2   4  -1  11  -1
M  END
>  <UniqueID>  (37) 
37

>  <SMILES>  (37) 
[H]/N=c1/ccc(S(=O)(=O)[N-]c2ccc(C)c(S(=O)(=O)N3CCOCC3)c2O)c[n-]1

>  <Energy>  (37) 
67.74304775850652

>  <Genealogy>  (37) 
Cc1ccc([N-]S(=O)(=O)c2ccc(=N)[n-]c2)c(O)c1S(=O)(=O)N1CCOCC1 (protonated)
[H]/N=c1/ccc(S(=O)(=O)[N-]c2ccc(C)c(S(=O)(=O)N3CCOCC3)c2O)c[n-]1 (cis-trans isomerization)
[H]/N=c1/ccc(S(=O)(=O)[N-]c2ccc(C)c(S(=O)(=O)N3CCOCC3)c2O)c[n-]1 (3D coordinates assigned)
[H]/N=c1/ccc(S(=O)(=O)[N-]c2ccc(C)c(S(=O)(=O)N3CCOCC3)c2O)c[n-]1 (nonaromatic ring conformer: 67.74304775850652 kcal/mol)

>  <smiles>  (37) 
Cc1ccc(NS(=O)(=O)c2ccc(=N)[nH]c2)c(O)c1S(=O)(=O)N1CCOCC1

>  <score_type>  (37) 
oracle

>  <origin>  (37) 
adgpu

>  <m_score__min__energy>  (37) 
-10.75

>  <m_primary>  (37) 
energy

$$$$
37:0
     RDKit          3D

 41 44  0  0  0  0  0  0  0  0999 V2000
   -2.8880   22.0160  -30.2730 C   0  0  0  0  0  0  0  0  0  0  0  0
   -3.8430   23.1600  -30.5140 C   0  0  0  0  0  0  0  0  0  0  0  0
   -4.9470   22.9930  -31.3800 C   0  0  0  0  0  0  0  0  0  0  0  0
   -5.2340   21.7220  -31.9800 N   0  0  0  0  0  0  0  0  0  0  0  0
   -6.4320   20.9380  -31.6670 C   0  0  0  0  0  0  0  0  0  0  0  0
   -6.1600   19.6430  -32.3380 C   0  0  0  0  0  0  0  0  0  0  0  0
   -6.9610   18.5060  -32.3970 C   0  0  0  0  0  0  0  0  0  0  0  0
   -6.4770   17.3910  -33.0960 C   0  0  0  0  0  0  0  0  0  0  0  0
   -5.2060   17.4470  -33.7140 C   0  0  0  0  0  0  0  0  0  0  0  0
   -4.6780   16.2590  -34.4640 C   0  0  0  0  0  0  0  0  0  0  0  0
   -3.6070   15.7160  -33.7790 F   0  0  0  0  0  0  0  0  0  0  0  0
   -4.2580   16.6300  -35.7290 F   0  0  0  0  0  0  0  0  0  0  0  0
   -5.6730   15.3070  -34.5840 F   0  0  0  0  0  0  0  0  0  0  0  0
   -4.4570   18.5870  -33.6270 N   0  0  0  0  0  0  0  0  0  0  0  0
   -4.9330   19.6630  -32.9490 C   0  0  0  0  0  0  0  0  0  0  0  0
   -4.2540   20.9640  -32.7600 C   0  0  0  0  0  0  0  0  0  0  0  0
   -5.7730   24.0840  -31.6680 C   0  0  0  0  0  0  0  0  0  0  0  0
   -5.5110   25.3210  -31.0870 C   0  0  0  0  0  0  0  0  0  0  0  0
   -4.4700   25.4620  -30.2290 N   0  0  0  0  0  0  0  0  0  0  0  0
   -3.6480   24.4260  -29.9070 C   0  0  0  0  0  0  0  0  0  0  0  0
   -2.5560   24.6900  -28.9550 C   0  0  0  0  0  0  0  0  0  0  0  0
   -1.2940   24.9700  -29.3420 N   0  0  0  0  0  0  0  0  0  0  0  0
   -0.5850   25.1840  -28.2410 N   0  0  0  0  0  0  0  0  0  0  0  0
   -1.4340   25.0410  -27.2090 C   0  0  0  0  0  0  0  0  0  0  0  0
   -1.0960   25.1840  -26.0040 O   0  0  0  0  0  0  0  0  0  0  0  0
   -2.6810   24.7430  -27.6120 N   0  0  0  0  0  0  0  0  0  0  0  0
   -3.8700   24.5760  -26.7790 C   0  0  0  0  0  0  0  0  0  0  0  0
   -2.7621   21.8652  -29.1907 H   0  0  0  0  0  0  0  0  0  0  0  0
   -3.2925   21.0990  -30.7264 H   0  0  0  0  0  0  0  0  0  0  0  0
   -1.9135   22.2502  -30.7264 H   0  0  0  0  0  0  0  0  0  0  0  0
   -6.5466   20.8055  -30.5810 H   0  0  0  0  0  0  0  0  0  0  0  0
   -7.3651   21.4150  -32.0015 H   0  0  0  0  0  0  0  0  0  0  0  0
   -7.9464   18.4829  -31.9087 H   0  0  0  0  0  0  0  0  0  0  0  0
   -7.0837   16.4759  -33.1635 H   0  0  0  0  0  0  0  0  0  0  0  0
   -3.3116   20.8438  -32.2055 H   0  0  0  0  0  0  0  0  0  0  0  0
   -3.9720   21.4529  -33.7042 H   0  0  0  0  0  0  0  0  0  0  0  0
   -6.6267   23.9648  -32.3513 H   0  0  0  0  0  0  0  0  0  0  0  0
   -6.1488   26.1854  -31.3238 H   0  0  0  0  0  0  0  0  0  0  0  0
   -3.5829   24.6163  -25.7179 H   0  0  0  0  0  0  0  0  0  0  0  0
   -4.5860   25.3824  -26.9960 H   0  0  0  0  0  0  0  0  0  0  0  0
   -4.3361   23.6036  -26.9960 H   0  0  0  0  0  0  0  0  0  0  0  0
  1  2  1  0
  2  3  2  0
  3  4  1  0
  4  5  1  0
  5  6  1  0
  6  7  2  0
  7  8  1  0
  8  9  2  0
  9 10  1  0
 10 11  1  0
 10 12  1  0
 10 13  1  0
  9 14  1  0
 14 15  2  0
 15 16  1  0
  3 17  1  0
 17 18  2  0
 18 19  1  0
 19 20  2  0
 20 21  1  0
 21 22  2  0
 22 23  1  0
 23 24  1  0
 24 25  2  0
 24 26  1  0
 26 27  1  0
 20  2  1  0
 26 21  1  0
 16  4  1  0
 15  6  1  0
  1 28  1  0
  1 29  1  0
  1 30  1  0
  5 31  1  0
  5 32  1  0
  7 33  1  0
  8 34  1  0
 16 35  1  0
 16 36  1  0
 17 37  1  0
 18 38  1  0
 27 39  1  0
 27 40  1  0
 27 41  1  0
M  CHG  1  23  -1
M  END
>  <UniqueID>  (38) 
38

>  <SMILES>  (38) 
Cc1c(N2Cc3ccc(C(F)(F)F)nc3C2)ccnc1-c1n[n-]c(=O)n1C

>  <Energy>  (38) 
106.13874651572013

>  <Genealogy>  (38) 
Cc1c(N2Cc3ccc(C(F)(F)F)nc3C2)ccnc1-c1n[n-]c(=O)n1C (protonated)
Cc1c(N2Cc3ccc(C(F)(F)F)nc3C2)ccnc1-c1n[n-]c(=O)n1C (3D coordinates assigned)
Cc1c(N2Cc3ccc(C(F)(F)F)nc3C2)ccnc1-c1n[n-]c(=O)n1C (nonaromatic ring conformer: 106.13874651572013 kcal/mol)

>  <smiles>  (38) 
Cc1c(N2Cc3ccc(C(F)(F)F)nc3C2)ccnc1-c1n[nH]c(=O)n1C

>  <score_type>  (38) 
oracle

>  <origin>  (38) 
adgpu

>  <m_score__min__energy>  (38) 
-9.3800000000000008

>  <m_primary>  (38) 
energy

$$$$
38:0
     RDKit          3D

 59 63  0  0  0  0  0  0  0  0999 V2000
   -1.8500   16.2820  -33.0620 C   0  0  0  0  0  0  0  0  0  0  0  0
   -2.6600   15.1340  -33.4780 N   0  0  0  0  0  0  0  0  0  0  0  0
   -3.5390   14.6660  -32.3760 C   0  0  0  0  0  0  0  0  0  0  0  0
   -4.9670   15.2140  -32.5050 C   0  0  0  0  0  0  0  0  0  0  0  0
   -5.5910   14.7860  -33.7770 N   0  0  0  0  0  0  0  0  0  0  0  0
   -6.8050   15.5580  -34.1320 C   0  0  0  0  0  0  0  0  0  0  0  0
   -6.7640   17.0080  -33.6870 C   0  0  0  0  0  0  0  0  0  0  0  0
   -7.4590   17.4180  -32.5370 C   0  0  0  0  0  0  0  0  0  0  0  0
   -7.3810   18.7410  -32.0930 C   0  0  0  0  0  0  0  0  0  0  0  0
   -6.6230   19.6870  -32.8040 C   0  0  0  0  0  0  0  0  0  0  0  0
   -6.5020   21.0830  -32.3130 C   0  0  0  0  0  0  0  0  0  0  0  0
   -7.6170   21.9400  -32.3050 C   0  0  0  0  0  0  0  0  0  0  0  0
   -7.5030   23.2520  -31.8420 C   0  0  0  0  0  0  0  0  0  0  0  0
   -6.2740   23.7310  -31.3790 C   0  0  0  0  0  0  0  0  0  0  0  0
   -6.1690   25.0080  -30.9290 N   0  0  0  0  0  0  0  0  0  0  0  0
   -4.9870   25.4930  -30.4710 C   0  0  0  0  0  0  0  0  0  0  0  0
   -3.8830   24.7030  -30.4570 N   0  0  0  0  0  0  0  0  0  0  0  0
   -3.9270   23.4160  -30.8950 C   0  0  0  0  0  0  0  0  0  0  0  0
   -2.7290   22.6310  -30.8520 N   0  0  0  0  0  0  0  0  0  0  0  0
   -2.3180   21.8980  -32.0530 C   0  0  0  0  0  0  0  0  0  0  0  0
   -0.8460   21.5050  -31.9630 C   0  0  0  0  0  0  0  0  0  0  0  0
   -0.5730   20.8870  -30.7260 O   0  0  0  0  0  0  0  0  0  0  0  0
   -0.6880   21.8370  -29.6920 C   0  0  0  0  0  0  0  0  0  0  0  0
   -2.1330   22.3270  -29.5440 C   0  0  0  0  0  0  0  0  0  0  0  0
   -5.1430   22.8870  -31.3770 C   0  0  0  0  0  0  0  0  0  0  0  0
   -5.2680   21.5640  -31.8400 C   0  0  0  0  0  0  0  0  0  0  0  0
   -5.9690   19.2860  -33.9830 C   0  0  0  0  0  0  0  0  0  0  0  0
   -6.0460   17.9630  -34.4240 C   0  0  0  0  0  0  0  0  0  0  0  0
   -4.6380   14.5810  -34.8920 C   0  0  0  0  0  0  0  0  0  0  0  0
   -3.3790   15.4430  -34.7340 C   0  0  0  0  0  0  0  0  0  0  0  0
   -1.8171   16.3287  -31.9635 H   0  0  0  0  0  0  0  0  0  0  0  0
   -0.8286   16.1718  -33.4551 H   0  0  0  0  0  0  0  0  0  0  0  0
   -2.2963   17.2074  -33.4551 H   0  0  0  0  0  0  0  0  0  0  0  0
   -3.5777   13.5669  -32.3954 H   0  0  0  0  0  0  0  0  0  0  0  0
   -3.1191   15.0336  -31.4281 H   0  0  0  0  0  0  0  0  0  0  0  0
   -5.5718   14.8411  -31.6652 H   0  0  0  0  0  0  0  0  0  0  0  0
   -4.9212   16.3130  -32.4917 H   0  0  0  0  0  0  0  0  0  0  0  0
   -6.9228   15.5346  -35.2254 H   0  0  0  0  0  0  0  0  0  0  0  0
   -7.6482   15.0865  -33.6060 H   0  0  0  0  0  0  0  0  0  0  0  0
   -8.0699   16.6915  -31.9811 H   0  0  0  0  0  0  0  0  0  0  0  0
   -7.9164   19.0437  -31.1811 H   0  0  0  0  0  0  0  0  0  0  0  0
   -8.5886   21.5728  -32.6672 H   0  0  0  0  0  0  0  0  0  0  0  0
   -8.3835   23.9114  -31.8415 H   0  0  0  0  0  0  0  0  0  0  0  0
   -4.9233   26.5301  -30.1098 H   0  0  0  0  0  0  0  0  0  0  0  0
   -2.9299   20.9890  -32.1492 H   0  0  0  0  0  0  0  0  0  0  0  0
   -2.4598   22.5458  -32.9306 H   0  0  0  0  0  0  0  0  0  0  0  0
   -0.6082   20.8048  -32.7774 H   0  0  0  0  0  0  0  0  0  0  0  0
   -0.2304   22.4124  -32.0499 H   0  0  0  0  0  0  0  0  0  0  0  0
   -0.3668   21.3773  -28.7457 H   0  0  0  0  0  0  0  0  0  0  0  0
   -0.0526   22.6997  -29.9409 H   0  0  0  0  0  0  0  0  0  0  0  0
   -2.7285   21.5439  -29.0519 H   0  0  0  0  0  0  0  0  0  0  0  0
   -2.1280   23.2475  -28.9418 H   0  0  0  0  0  0  0  0  0  0  0  0
   -4.3916   20.8993  -31.8319 H   0  0  0  0  0  0  0  0  0  0  0  0
   -5.3917   20.0211  -34.5630 H   0  0  0  0  0  0  0  0  0  0  0  0
   -5.5406   17.6673  -35.3552 H   0  0  0  0  0  0  0  0  0  0  0  0
   -4.3428   13.5216  -34.9174 H   0  0  0  0  0  0  0  0  0  0  0  0
   -5.1380   14.8758  -35.8264 H   0  0  0  0  0  0  0  0  0  0  0  0
   -2.7081   15.2539  -35.5849 H   0  0  0  0  0  0  0  0  0  0  0  0
   -3.6870   16.4985  -34.7028 H   0  0  0  0  0  0  0  0  0  0  0  0
  1  2  1  0
  2  3  1  0
  3  4  1  0
  4  5  1  0
  5  6  1  0
  6  7  1  0
  7  8  2  0
  8  9  1  0
  9 10  2  0
 10 11  1  0
 11 12  2  0
 12 13  1  0
 13 14  2  0
 14 15  1  0
 15 16  2  0
 16 17  1  0
 17 18  2  0
 18 19  1  0
 19 20  1  0
 20 21  1  0
 21 22  1  0
 22 23  1  0
 23 24  1  0
 18 25  1  0
 25 26  2  0
 10 27  1  0
 27 28  2  0
  5 29  1  0
 29 30  1  0
 30  2  1  0
 28  7  1  0
 26 11  1  0
 25 14  1  0
 24 19  1  0
  1 31  1  0
  1 32  1  0
  1 33  1  0
  3 34  1  0
  3 35  1  0
  4 36  1  0
  4 37  1  0
  6 38  1  0
  6 39  1  0
  8 40  1  0
  9 41  1  0
 12 42  1  0
 13 43  1  0
 16 44  1  0
 20 45  1  0
 20 46  1  0
 21 47  1  0
 21 48  1  0
 23 49  1  0
 23 50  1  0
 24 51  1  0
 24 52  1  0
 26 53  1  0
 27 54  1  0
 28 55  1  0
 29 56  1  0
 29 57  1  0
 30 58  1  0
 30 59  1  0
M  END
>  <UniqueID>  (39) 
39

>  <SMILES>  (39) 
CN1CCN(Cc2ccc(-c3ccc4ncnc(N5CCOCC5)c4c3)cc2)CC1

>  <Energy>  (39) 
94.66169034200205

>  <Genealogy>  (39) 
CN1CCN(Cc2ccc(-c3ccc4ncnc(N5CCOCC5)c4c3)cc2)CC1 (3D coordinates assigned)
CN1CCN(Cc2ccc(-c3ccc4ncnc(N5CCOCC5)c4c3)cc2)CC1 (nonaromatic ring conformer: 94.66169034200205 kcal/mol)

>  <smiles>  (39) 
CN1CCN(Cc2ccc(-c3ccc4ncnc(N5CCOCC5)c4c3)cc2)CC1

>  <score_type>  (39) 
oracle

>  <origin>  (39) 
adgpu

>  <m_score__min__energy>  (39) 
-9.6600000000000001

>  <m_primary>  (39) 
energy

$$$$
39:0
     RDKit          3D

 50 52  0  0  0  0  0  0  0  0999 V2000
   -5.3730   16.5560  -32.5970 C   0  0  0  0  0  0  0  0  0  0  0  0
   -4.7970   17.4500  -33.7030 C   0  0  0  0  0  0  0  0  0  0  0  0
   -5.7040   17.4510  -34.9390 C   0  0  0  0  0  0  0  0  0  0  0  0
   -4.5600   18.8600  -33.1950 C   0  0  0  0  0  0  0  0  0  0  0  0
   -3.6330   19.7130  -33.8230 C   0  0  0  0  0  0  0  0  0  0  0  0
   -3.4300   21.0110  -33.3490 C   0  0  0  0  0  0  0  0  0  0  0  0
   -4.1530   21.4870  -32.2520 C   0  0  0  0  0  0  0  0  0  0  0  0
   -3.9250   22.7990  -31.8090 O   0  0  0  0  0  0  0  0  0  0  0  0
   -4.8820   23.6190  -31.1950 C   0  0  0  0  0  0  0  0  0  0  0  0
   -6.2350   23.3260  -31.3980 C   0  0  0  0  0  0  0  0  0  0  0  0
   -7.2270   24.1160  -30.8110 C   0  0  0  0  0  0  0  0  0  0  0  0
   -6.8700   25.1970  -30.0040 C   0  0  0  0  0  0  0  0  0  0  0  0
   -5.5230   25.4850  -29.7720 C   0  0  0  0  0  0  0  0  0  0  0  0
   -4.5150   24.6930  -30.3550 C   0  0  0  0  0  0  0  0  0  0  0  0
   -3.1260   24.9220  -30.0730 N   0  0  0  0  0  0  0  0  0  0  0  0
   -2.1170   23.9190  -29.0820 S   0  0  0  0  0  0  0  0  0  0  0  0
   -0.9560   23.4300  -29.9000 O   0  0  0  0  0  0  0  0  0  0  0  0
   -2.9160   22.7370  -28.6100 O   0  0  0  0  0  0  0  0  0  0  0  0
   -1.5540   24.8230  -27.6800 C   0  0  0  0  0  0  0  0  0  0  0  0
   -1.5490   24.2310  -26.4120 C   0  0  0  0  0  0  0  0  0  0  0  0
   -1.0960   24.9470  -25.3000 C   0  0  0  0  0  0  0  0  0  0  0  0
   -0.6460   26.2730  -25.4410 C   0  0  0  0  0  0  0  0  0  0  0  0
   -0.1540   27.0480  -24.2750 C   0  0  0  0  0  0  0  0  0  0  0  0
    0.6950   26.4550  -23.2870 N   0  0  0  0  0  0  0  0  0  0  0  0
   -0.4990   28.2520  -24.1350 O   0  0  0  0  0  0  0  0  0  0  0  0
   -0.6460   26.8570  -26.7210 C   0  0  0  0  0  0  0  0  0  0  0  0
   -1.1020   26.1390  -27.8300 C   0  0  0  0  0  0  0  0  0  0  0  0
   -5.0640   20.6320  -31.6060 C   0  0  0  0  0  0  0  0  0  0  0  0
   -5.2680   19.3330  -32.0770 C   0  0  0  0  0  0  0  0  0  0  0  0
   -5.1058   16.9708  -31.6139 H   0  0  0  0  0  0  0  0  0  0  0  0
   -6.4681   16.5146  -32.6921 H   0  0  0  0  0  0  0  0  0  0  0  0
   -4.9581   15.5417  -32.6921 H   0  0  0  0  0  0  0  0  0  0  0  0
   -3.8240   17.0333  -34.0023 H   0  0  0  0  0  0  0  0  0  0  0  0
   -6.7570   17.4522  -34.6210 H   0  0  0  0  0  0  0  0  0  0  0  0
   -5.5019   18.3489  -35.5414 H   0  0  0  0  0  0  0  0  0  0  0  0
   -5.5039   16.5526  -35.5414 H   0  0  0  0  0  0  0  0  0  0  0  0
   -3.0642   19.3546  -34.6936 H   0  0  0  0  0  0  0  0  0  0  0  0
   -2.6952   21.6637  -33.8431 H   0  0  0  0  0  0  0  0  0  0  0  0
   -6.5199   22.4676  -32.0242 H   0  0  0  0  0  0  0  0  0  0  0  0
   -8.2885   23.8859  -30.9849 H   0  0  0  0  0  0  0  0  0  0  0  0
   -7.6513   25.8239  -29.5494 H   0  0  0  0  0  0  0  0  0  0  0  0
   -5.2481   26.3351  -29.1304 H   0  0  0  0  0  0  0  0  0  0  0  0
   -1.9034   23.1969  -26.2896 H   0  0  0  0  0  0  0  0  0  0  0  0
   -1.0913   24.4709  -24.3084 H   0  0  0  0  0  0  0  0  0  0  0  0
    1.0670   27.0380  -22.5060 H   0  0  0  0  0  0  0  0  0  0  0  0
    0.8850   25.4290  -23.2670 H   0  0  0  0  0  0  0  0  0  0  0  0
   -0.2840   27.8877  -26.8500 H   0  0  0  0  0  0  0  0  0  0  0  0
   -1.1056   26.6099  -28.8241 H   0  0  0  0  0  0  0  0  0  0  0  0
   -5.6186   20.9882  -30.7254 H   0  0  0  0  0  0  0  0  0  0  0  0
   -5.9884   18.6751  -31.5689 H   0  0  0  0  0  0  0  0  0  0  0  0
  1  2  1  0
  2  3  1  0
  2  4  1  0
  4  5  2  0
  5  6  1  0
  6  7  2  0
  7  8  1  0
  8  9  1  0
  9 10  2  0
 10 11  1  0
 11 12  2  0
 12 13  1  0
 13 14  2  0
 14 15  1  0
 15 16  1  0
 16 17  2  0
 16 18  2  0
 16 19  1  0
 19 20  2  0
 20 21  1  0
 21 22  2  0
 22 23  1  0
 23 24  1  0
 23 25  2  0
 22 26  1  0
 26 27  2  0
  7 28  1  0
 28 29  2  0
 29  4  1  0
 14  9  1  0
 27 19  1  0
  1 30  1  0
  1 31  1  0
  1 32  1  0
  2 33  1  0
  3 34  1  0
  3 35  1  0
  3 36  1  0
  5 37  1  0
  6 38  1  0
 10 39  1  0
 11 40  1  0
 12 41  1  0
 13 42  1  0
 20 43  1  0
 21 44  1  0
 24 45  1  0
 24 46  1  0
 26 47  1  0
 27 48  1  0
 28 49  1  0
 29 50  1  0
M  CHG  1  15  -1
M  END
>  <UniqueID>  (40) 
40

>  <SMILES>  (40) 
CC(C)c1ccc(Oc2ccccc2[N-]S(=O)(=O)c2ccc(C(N)=O)cc2)cc1

>  <Energy>  (40) 
60.47836297035039

>  <Genealogy>  (40) 
CC(C)c1ccc(Oc2ccccc2[N-]S(=O)(=O)c2ccc(C(N)=O)cc2)cc1 (protonated)
CC(C)c1ccc(Oc2ccccc2[N-]S(=O)(=O)c2ccc(C(N)=O)cc2)cc1 (3D coordinates assigned)
CC(C)c1ccc(Oc2ccccc2[N-]S(=O)(=O)c2ccc(C(N)=O)cc2)cc1 (optimized conformer: 60.47836297035039 kcal/mol)

>  <smiles>  (40) 
CC(C)c1ccc(Oc2ccccc2NS(=O)(=O)c2ccc(C(N)=O)cc2)cc1

>  <score_type>  (40) 
oracle

>  <origin>  (40) 
adgpu

>  <m_score__min__energy>  (40) 
-11.130000000000001

>  <m_primary>  (40) 
energy

$$$$
40:0
     RDKit          3D

 63 66  0  0  0  0  0  0  0  0999 V2000
    0.2540   28.6990  -23.9130 N   0  0  0  0  0  0  0  0  0  0  0  0
    0.1610   27.2730  -24.0090 C   0  0  0  0  0  0  0  0  0  0  0  0
    0.4320   26.5410  -22.9680 N   0  0  0  0  0  0  0  0  0  0  0  0
   -0.2340   26.6440  -25.2940 C   0  0  0  0  0  0  0  0  0  0  0  0
   -0.2870   27.4000  -26.4800 C   0  0  0  0  0  0  0  0  0  0  0  0
   -0.6600   26.8000  -27.6870 C   0  0  0  0  0  0  0  0  0  0  0  0
   -0.9890   25.4360  -27.7300 C   0  0  0  0  0  0  0  0  0  0  0  0
   -1.4190   24.7950  -29.0280 C   0  0  0  0  0  0  0  0  0  0  0  0
   -2.9250   24.4700  -29.0820 C   0  0  1  0  0  0  0  0  0  0  0  0
   -3.4780   24.9060  -30.3700 N   0  0  0  0  0  0  0  0  0  0  0  0
   -5.2220   24.8830  -30.3800 S   0  0  0  0  0  0  0  0  0  0  0  0
   -5.7170   24.9580  -28.9620 O   0  0  0  0  0  0  0  0  0  0  0  0
   -5.7330   26.0850  -31.1240 O   0  0  0  0  0  0  0  0  0  0  0  0
   -5.8460   23.4070  -31.1170 C   0  0  0  0  0  0  0  0  0  0  0  0
   -7.1970   23.0720  -30.9600 C   0  0  0  0  0  0  0  0  0  0  0  0
   -7.6980   21.8830  -31.4960 C   0  0  0  0  0  0  0  0  0  0  0  0
   -6.8480   21.0100  -32.1910 C   0  0  0  0  0  0  0  0  0  0  0  0
   -7.3360   19.8040  -32.7220 C   0  0  0  0  0  0  0  0  0  0  0  0
   -6.4750   18.9370  -33.4000 C   0  0  0  0  0  0  0  0  0  0  0  0
   -5.1260   19.2670  -33.5610 C   0  0  0  0  0  0  0  0  0  0  0  0
   -4.6290   20.4670  -33.0460 C   0  0  0  0  0  0  0  0  0  0  0  0
   -5.4810   21.3450  -32.3550 C   0  0  0  0  0  0  0  0  0  0  0  0
   -4.9900   22.5450  -31.8180 C   0  0  0  0  0  0  0  0  0  0  0  0
   -3.1770   22.9930  -28.8490 C   0  0  0  0  0  0  0  0  0  0  0  0
   -4.0350   22.6610  -27.9830 O   0  0  0  0  0  0  0  0  0  0  0  0
   -2.4690   21.9670  -29.5810 N   0  0  0  0  0  0  0  0  0  0  0  0
   -2.5600   20.5660  -29.1410 C   0  0  0  0  0  0  0  0  0  0  0  0
   -1.2210   19.8550  -29.3590 C   0  0  0  0  0  0  0  0  0  0  0  0
   -0.7070   19.9530  -30.8200 C   0  0  0  0  0  0  0  0  0  0  0  0
   -0.8280   18.6540  -31.4840 N   0  0  0  0  0  0  0  0  0  0  0  0
   -1.4510   21.0260  -31.6450 C   0  0  0  0  0  0  0  0  0  0  0  0
   -1.7370   22.2860  -30.8210 C   0  0  0  0  0  0  0  0  0  0  0  0
   -0.9330   24.6790  -26.5500 C   0  0  0  0  0  0  0  0  0  0  0  0
   -0.5560   25.2780  -25.3440 C   0  0  0  0  0  0  0  0  0  0  0  0
   -0.0630   29.3120  -24.6950 H   0  0  0  0  0  0  0  0  0  0  0  0
    0.5660   29.1570  -23.0270 H   0  0  0  0  0  0  0  0  0  0  0  0
    0.7080   26.9820  -22.0630 H   0  0  0  0  0  0  0  0  0  0  0  0
    0.4080   25.4970  -23.0100 H   0  0  0  0  0  0  0  0  0  0  0  0
   -0.0333   28.4701  -26.4574 H   0  0  0  0  0  0  0  0  0  0  0  0
   -0.6958   27.4004  -28.6080 H   0  0  0  0  0  0  0  0  0  0  0  0
   -1.1813   25.4836  -29.8522 H   0  0  0  0  0  0  0  0  0  0  0  0
   -0.8781   23.8410  -29.1134 H   0  0  0  0  0  0  0  0  0  0  0  0
   -3.4339   25.0167  -28.2744 H   0  0  0  0  0  0  0  0  0  0  0  0
   -7.8678   23.7494  -30.4112 H   0  0  0  0  0  0  0  0  0  0  0  0
   -8.7616   21.6309  -31.3727 H   0  0  0  0  0  0  0  0  0  0  0  0
   -8.3978   19.5419  -32.6037 H   0  0  0  0  0  0  0  0  0  0  0  0
   -6.8601   17.9911  -33.8087 H   0  0  0  0  0  0  0  0  0  0  0  0
   -4.4535   18.5795  -34.0950 H   0  0  0  0  0  0  0  0  0  0  0  0
   -3.5683   20.7250  -33.1818 H   0  0  0  0  0  0  0  0  0  0  0  0
   -3.9304   22.8104  -31.9473 H   0  0  0  0  0  0  0  0  0  0  0  0
   -2.8170   20.5369  -28.0718 H   0  0  0  0  0  0  0  0  0  0  0  0
   -3.3374   20.0552  -29.7282 H   0  0  0  0  0  0  0  0  0  0  0  0
   -0.4718   20.3090  -28.6937 H   0  0  0  0  0  0  0  0  0  0  0  0
   -1.3776   18.7887  -29.1386 H   0  0  0  0  0  0  0  0  0  0  0  0
    0.3494   20.2547  -30.7654 H   0  0  0  0  0  0  0  0  0  0  0  0
   -0.3010   17.9460  -30.9210 H   0  0  0  0  0  0  0  0  0  0  0  0
   -0.3410   18.7050  -32.4080 H   0  0  0  0  0  0  0  0  0  0  0  0
   -0.8314   21.3010  -32.5113 H   0  0  0  0  0  0  0  0  0  0  0  0
   -2.4146   20.6022  -31.9642 H   0  0  0  0  0  0  0  0  0  0  0  0
   -0.7825   22.7659  -30.5591 H   0  0  0  0  0  0  0  0  0  0  0  0
   -2.3612   22.9597  -31.4264 H   0  0  0  0  0  0  0  0  0  0  0  0
   -1.1869   23.6090  -26.5737 H   0  0  0  0  0  0  0  0  0  0  0  0
   -0.5112   24.6736  -24.4260 H   0  0  0  0  0  0  0  0  0  0  0  0
  1  2  1  0
  2  3  2  0
  2  4  1  0
  4  5  2  0
  5  6  1  0
  6  7  2  0
  7  8  1  0
  8  9  1  0
  9 10  1  0
 10 11  1  0
 11 12  2  0
 11 13  2  0
 11 14  1  0
 14 15  2  0
 15 16  1  0
 16 17  2  0
 17 18  1  0
 18 19  2  0
 19 20  1  0
 20 21  2  0
 21 22  1  0
 22 23  2  0
  9 24  1  0
 24 25  2  0
 24 26  1  0
 26 27  1  0
 27 28  1  0
 28 29  1  0
 29 30  1  0
 29 31  1  0
 31 32  1  0
  7 33  1  0
 33 34  2  0
 34  4  1  0
 23 14  1  0
 32 26  1  0
 22 17  1  0
  1 35  1  0
  1 36  1  0
  3 37  1  0
  3 38  1  0
  5 39  1  0
  6 40  1  0
  8 41  1  0
  8 42  1  0
  9 43  1  1
 15 44  1  0
 16 45  1  0
 18 46  1  0
 19 47  1  0
 20 48  1  0
 21 49  1  0
 23 50  1  0
 27 51  1  0
 27 52  1  0
 28 53  1  0
 28 54  1  0
 29 55  1  0
 30 56  1  0
 30 57  1  0
 31 58  1  0
 31 59  1  0
 32 60  1  0
 32 61  1  0
 33 62  1  0
 34 63  1  0
M  CHG  2   3   1  10  -1
M  END
>  <UniqueID>  (41) 
41

>  <SMILES>  (41) 
NC(=[NH2+])c1ccc(C[C@@H]([N-]S(=O)(=O)c2ccc3ccccc3c2)C(=O)N2CCC(N)CC2)cc1

>  <Energy>  (41) 
67.29808865706724

>  <Genealogy>  (41) 
NC(=[NH2+])c1ccc(CC([N-]S(=O)(=O)c2ccc3ccccc3c2)C(=O)N2CCC(N)CC2)cc1 (protonated)
NC(=[NH2+])c1ccc(C[C@@H]([N-]S(=O)(=O)c2ccc3ccccc3c2)C(=O)N2CCC(N)CC2)cc1 (chirality)
NC(=[NH2+])c1ccc(C[C@@H]([N-]S(=O)(=O)c2ccc3ccccc3c2)C(=O)N2CCC(N)CC2)cc1 (3D coordinates assigned)
NC(=[NH2+])c1ccc(C[C@@H]([N-]S(=O)(=O)c2ccc3ccccc3c2)C(=O)N2CCC(N)CC2)cc1 (nonaromatic ring conformer: 67.29808865706724 kcal/mol)

>  <smiles>  (41) 
N=C(N)c1ccc(CC(NS(=O)(=O)c2ccc3ccccc3c2)C(=O)N2CCC(N)CC2)cc1

>  <score_type>  (41) 
oracle

>  <origin>  (41) 
adgpu

>  <m_score__min__energy>  (41) 
-13.83

>  <m_primary>  (41) 
energy

$$$$
41:0
     RDKit          3D

 56 59  0  0  0  0  0  0  0  0999 V2000
   -6.0730   25.3970  -30.3380 O   0  0  0  0  0  0  0  0  0  0  0  0
   -4.9740   24.8620  -30.6420 C   0  0  0  0  0  0  0  0  0  0  0  0
   -3.8680   25.6750  -30.8590 O   0  0  0  0  0  0  0  0  0  0  0  0
   -4.8570   23.3830  -30.7300 C   0  0  0  0  0  0  0  0  0  0  0  0
   -3.6200   22.7700  -30.4230 C   0  0  0  0  0  0  0  0  0  0  0  0
   -2.5090   23.5730  -29.9990 N   0  0  0  0  0  0  0  0  0  0  0  0
   -1.1250   22.9490  -29.1620 S   0  0  0  0  0  0  0  0  0  0  0  0
   -0.1120   24.0490  -29.0090 O   0  0  0  0  0  0  0  0  0  0  0  0
   -1.5000   22.4640  -27.7890 O   0  0  0  0  0  0  0  0  0  0  0  0
   -0.4220   21.6420  -30.1100 C   0  0  0  0  0  0  0  0  0  0  0  0
    0.2790   20.6120  -29.4650 C   0  0  0  0  0  0  0  0  0  0  0  0
    0.8370   19.5690  -30.2070 C   0  0  0  0  0  0  0  0  0  0  0  0
    0.7050   19.5510  -31.5970 C   0  0  0  0  0  0  0  0  0  0  0  0
    0.0250   20.5870  -32.2570 C   0  0  0  0  0  0  0  0  0  0  0  0
   -0.1290   20.5620  -34.0170 S   0  0  0  0  0  0  0  0  0  0  0  0
    1.0250   19.7990  -34.6060 O   0  0  0  0  0  0  0  0  0  0  0  0
   -0.0650   21.9720  -34.5360 O   0  0  0  0  0  0  0  0  0  0  0  0
   -1.6320   19.8250  -34.5220 N   0  0  0  0  0  0  0  0  0  0  0  0
   -2.7670   20.3830  -33.7520 C   0  0  0  0  0  0  0  0  0  0  0  0
   -4.0090   19.4890  -33.8560 C   0  0  0  0  0  0  0  0  0  0  0  0
   -3.7390   18.0970  -33.2580 C   0  0  0  0  0  0  0  0  0  0  0  0
   -2.2530   17.7040  -33.3140 C   0  0  0  0  0  0  0  0  0  0  0  0
   -1.5430   18.3420  -34.5160 C   0  0  0  0  0  0  0  0  0  0  0  0
   -0.5360   21.6340  -31.5080 C   0  0  0  0  0  0  0  0  0  0  0  0
   -3.4820   21.3820  -30.5260 C   0  0  0  0  0  0  0  0  0  0  0  0
   -4.5450   20.5950  -30.9500 C   0  0  0  0  0  0  0  0  0  0  0  0
   -5.7730   21.1740  -31.2860 C   0  0  0  0  0  0  0  0  0  0  0  0
   -5.9520   22.5770  -31.1560 C   0  0  0  0  0  0  0  0  0  0  0  0
   -7.2690   23.2210  -31.5660 C   0  0  0  0  0  0  0  0  0  0  0  0
   -8.4310   22.2280  -31.6630 C   0  0  0  0  0  0  0  0  0  0  0  0
   -8.0100   20.9940  -32.4560 C   0  0  0  0  0  0  0  0  0  0  0  0
   -6.8950   20.2550  -31.7160 C   0  0  0  0  0  0  0  0  0  0  0  0
    0.3895   20.6261  -28.3707 H   0  0  0  0  0  0  0  0  0  0  0  0
    1.3810   18.7609  -29.6961 H   0  0  0  0  0  0  0  0  0  0  0  0
    1.1356   18.7217  -32.1773 H   0  0  0  0  0  0  0  0  0  0  0  0
   -2.4748   20.4677  -32.6949 H   0  0  0  0  0  0  0  0  0  0  0  0
   -3.0157   21.3700  -34.1692 H   0  0  0  0  0  0  0  0  0  0  0  0
   -4.8385   19.9607  -33.3088 H   0  0  0  0  0  0  0  0  0  0  0  0
   -4.2665   19.3696  -34.9187 H   0  0  0  0  0  0  0  0  0  0  0  0
   -4.0636   18.0967  -32.2070 H   0  0  0  0  0  0  0  0  0  0  0  0
   -4.2989   17.3640  -33.8573 H   0  0  0  0  0  0  0  0  0  0  0  0
   -1.7603   18.0394  -32.3895 H   0  0  0  0  0  0  0  0  0  0  0  0
   -2.1907   16.6108  -33.4190 H   0  0  0  0  0  0  0  0  0  0  0  0
   -0.4816   18.0545  -34.4893 H   0  0  0  0  0  0  0  0  0  0  0  0
   -2.0439   17.9784  -35.4253 H   0  0  0  0  0  0  0  0  0  0  0  0
   -1.0667   22.4507  -32.0194 H   0  0  0  0  0  0  0  0  0  0  0  0
   -2.5226   20.9092  -30.2688 H   0  0  0  0  0  0  0  0  0  0  0  0
   -4.4197   19.5046  -31.0223 H   0  0  0  0  0  0  0  0  0  0  0  0
   -7.5280   23.9882  -30.8215 H   0  0  0  0  0  0  0  0  0  0  0  0
   -7.1223   23.6462  -32.5698 H   0  0  0  0  0  0  0  0  0  0  0  0
   -8.7326   21.9227  -30.6502 H   0  0  0  0  0  0  0  0  0  0  0  0
   -9.2735   22.7131  -32.1776 H   0  0  0  0  0  0  0  0  0  0  0  0
   -8.8747   20.3245  -32.5751 H   0  0  0  0  0  0  0  0  0  0  0  0
   -7.6429   21.3069  -33.4446 H   0  0  0  0  0  0  0  0  0  0  0  0
   -7.3220   19.7780  -30.8215 H   0  0  0  0  0  0  0  0  0  0  0  0
   -6.4708   19.5130  -32.4084 H   0  0  0  0  0  0  0  0  0  0  0  0
  1  2  2  0
  2  3  1  0
  2  4  1  0
  4  5  2  0
  5  6  1  0
  6  7  1  0
  7  8  2  0
  7  9  2  0
  7 10  1  0
 10 11  2  0
 11 12  1  0
 12 13  2  0
 13 14  1  0
 14 15  1  0
 15 16  2  0
 15 17  2  0
 15 18  1  0
 18 19  1  0
 19 20  1  0
 20 21  1  0
 21 22  1  0
 22 23  1  0
 14 24  2  0
  5 25  1  0
 25 26  2  0
 26 27  1  0
 27 28  2  0
 28 29  1  0
 29 30  1  0
 30 31  1  0
 31 32  1  0
 28  4  1  0
 24 10  1  0
 32 27  1  0
 23 18  1  0
 11 33  1  0
 12 34  1  0
 13 35  1  0
 19 36  1  0
 19 37  1  0
 20 38  1  0
 20 39  1  0
 21 40  1  0
 21 41  1  0
 22 42  1  0
 22 43  1  0
 23 44  1  0
 23 45  1  0
 24 46  1  0
 25 47  1  0
 26 48  1  0
 29 49  1  0
 29 50  1  0
 30 51  1  0
 30 52  1  0
 31 53  1  0
 31 54  1  0
 32 55  1  0
 32 56  1  0
M  CHG  2   3  -1   6  -1
M  END
>  <UniqueID>  (42) 
42

>  <SMILES>  (42) 
O=C([O-])c1c([N-]S(=O)(=O)c2cccc(S(=O)(=O)N3CCCCC3)c2)ccc2c1CCCC2

>  <Energy>  (42) 
72.42465174468106

>  <Genealogy>  (42) 
O=C([O-])c1c([N-]S(=O)(=O)c2cccc(S(=O)(=O)N3CCCCC3)c2)ccc2c1CCCC2 (protonated)
O=C([O-])c1c([N-]S(=O)(=O)c2cccc(S(=O)(=O)N3CCCCC3)c2)ccc2c1CCCC2 (3D coordinates assigned)
O=C([O-])c1c([N-]S(=O)(=O)c2cccc(S(=O)(=O)N3CCCCC3)c2)ccc2c1CCCC2 (nonaromatic ring conformer: 72.42465174468106 kcal/mol)

>  <smiles>  (42) 
O=C(O)c1c(NS(=O)(=O)c2cccc(S(=O)(=O)N3CCCCC3)c2)ccc2c1CCCC2

>  <score_type>  (42) 
oracle

>  <origin>  (42) 
adgpu

>  <m_score__min__energy>  (42) 
-13.59

>  <m_primary>  (42) 
energy

$$$$
42:0
     RDKit          3D

 56 59  0  0  0  0  0  0  0  0999 V2000
   -6.9270   23.7870  -31.1140 C   0  0  0  0  0  0  0  0  0  0  0  0
   -6.6290   22.8110  -32.1070 O   0  0  0  0  0  0  0  0  0  0  0  0
   -7.2360   21.5490  -32.1880 C   0  0  0  0  0  0  0  0  0  0  0  0
   -8.4740   21.2730  -31.5730 C   0  0  0  0  0  0  0  0  0  0  0  0
   -9.0420   20.0000  -31.6720 C   0  0  0  0  0  0  0  0  0  0  0  0
   -8.3850   18.9920  -32.3830 C   0  0  0  0  0  0  0  0  0  0  0  0
   -7.1610   19.2560  -32.9990 C   0  0  0  0  0  0  0  0  0  0  0  0
   -6.5880   20.5310  -32.9100 C   0  0  0  0  0  0  0  0  0  0  0  0
   -5.3500   20.7910  -33.5720 N   0  0  0  0  0  0  0  0  0  0  0  0
   -3.8630   20.1700  -32.9420 S   0  0  0  0  0  0  0  0  0  0  0  0
   -2.8390   20.1010  -34.0390 O   0  0  0  0  0  0  0  0  0  0  0  0
   -4.0930   18.7830  -32.4110 O   0  0  0  0  0  0  0  0  0  0  0  0
   -3.2890   21.2100  -31.6430 C   0  0  0  0  0  0  0  0  0  0  0  0
   -1.9430   21.5950  -31.5850 C   0  0  0  0  0  0  0  0  0  0  0  0
   -1.4730   22.3500  -30.5070 C   0  0  0  0  0  0  0  0  0  0  0  0
   -2.3430   22.7230  -29.4680 C   0  0  0  0  0  0  0  0  0  0  0  0
   -1.8520   23.4680  -28.3390 N   0  0  0  0  0  0  0  0  0  0  0  0
   -1.5480   22.9820  -27.1160 C   0  0  0  0  0  0  0  0  0  0  0  0
   -1.6430   21.6380  -26.7660 O   0  0  0  0  0  0  0  0  0  0  0  0
   -1.1190   23.9900  -26.2700 C   0  0  0  0  0  0  0  0  0  0  0  0
   -1.1640   25.1530  -27.0230 C   0  0  0  0  0  0  0  0  0  0  0  0
   -0.8550   26.4840  -26.5590 N   0  0  0  0  0  0  0  0  0  0  0  0
    0.2380   27.2630  -27.1500 C   0  0  0  0  0  0  0  0  0  0  0  0
    1.2230   27.7170  -26.0570 C   0  0  0  0  0  0  0  0  0  0  0  0
    0.5820   28.0050  -24.7470 N   0  0  0  0  0  0  0  0  0  0  0  0
    0.8740   26.9570  -23.7530 C   0  0  0  0  0  0  0  0  0  0  0  0
   -0.8680   28.2760  -24.8490 C   0  0  0  0  0  0  0  0  0  0  0  0
   -1.6280   27.0910  -25.4700 C   0  0  0  0  0  0  0  0  0  0  0  0
   -1.6220   24.7960  -28.2810 C   0  0  0  0  0  0  0  0  0  0  0  0
   -1.8390   25.6680  -29.3430 O   0  0  0  0  0  0  0  0  0  0  0  0
   -3.6930   22.3410  -29.5350 C   0  0  0  0  0  0  0  0  0  0  0  0
   -4.1620   21.5900  -30.6160 C   0  0  0  0  0  0  0  0  0  0  0  0
   -6.7925   23.3466  -30.1150 H   0  0  0  0  0  0  0  0  0  0  0  0
   -6.2503   24.6465  -31.2299 H   0  0  0  0  0  0  0  0  0  0  0  0
   -7.9683   24.1219  -31.2299 H   0  0  0  0  0  0  0  0  0  0  0  0
   -8.9953   22.0631  -31.0127 H   0  0  0  0  0  0  0  0  0  0  0  0
  -10.0081   19.7909  -31.1894 H   0  0  0  0  0  0  0  0  0  0  0  0
   -8.8329   17.9901  -32.4571 H   0  0  0  0  0  0  0  0  0  0  0  0
   -6.6446   18.4604  -33.5561 H   0  0  0  0  0  0  0  0  0  0  0  0
   -1.2539   21.3020  -32.3908 H   0  0  0  0  0  0  0  0  0  0  0  0
   -0.4164   22.6540  -30.4714 H   0  0  0  0  0  0  0  0  0  0  0  0
   -2.4720   21.1000  -26.9880 H   0  0  0  0  0  0  0  0  0  0  0  0
   -0.8075   23.8893  -25.2198 H   0  0  0  0  0  0  0  0  0  0  0  0
    0.7716   26.6408  -27.8836 H   0  0  0  0  0  0  0  0  0  0  0  0
   -0.1824   28.1514  -27.6440 H   0  0  0  0  0  0  0  0  0  0  0  0
    1.9676   26.9208  -25.9101 H   0  0  0  0  0  0  0  0  0  0  0  0
    1.6727   28.6586  -26.4051 H   0  0  0  0  0  0  0  0  0  0  0  0
    0.7589   27.3701  -22.7400 H   0  0  0  0  0  0  0  0  0  0  0  0
    0.1753   26.1182  -23.8885 H   0  0  0  0  0  0  0  0  0  0  0  0
    1.9057   26.6004  -23.8885 H   0  0  0  0  0  0  0  0  0  0  0  0
   -1.2665   28.4660  -23.8415 H   0  0  0  0  0  0  0  0  0  0  0  0
   -1.0075   29.1512  -25.5007 H   0  0  0  0  0  0  0  0  0  0  0  0
   -1.8109   26.3340  -24.6932 H   0  0  0  0  0  0  0  0  0  0  0  0
   -2.5798   27.4606  -25.8792 H   0  0  0  0  0  0  0  0  0  0  0  0
   -4.3850   22.6347  -28.7319 H   0  0  0  0  0  0  0  0  0  0  0  0
   -5.2211   21.2961  -30.6605 H   0  0  0  0  0  0  0  0  0  0  0  0
  1  2  1  0
  2  3  1  0
  3  4  2  0
  4  5  1  0
  5  6  2  0
  6  7  1  0
  7  8  2  0
  8  9  1  0
  9 10  1  0
 10 11  2  0
 10 12  2  0
 10 13  1  0
 13 14  2  0
 14 15  1  0
 15 16  2  0
 16 17  1  0
 17 18  1  0
 18 19  1  0
 18 20  2  0
 20 21  1  0
 21 22  1  0
 22 23  1  0
 23 24  1  0
 24 25  1  0
 25 26  1  0
 25 27  1  0
 27 28  1  0
 21 29  2  0
 29 30  1  0
 16 31  1  0
 31 32  2  0
  8  3  1  0
 32 13  1  0
 29 17  1  0
 28 22  1  0
  1 33  1  0
  1 34  1  0
  1 35  1  0
  4 36  1  0
  5 37  1  0
  6 38  1  0
  7 39  1  0
 14 40  1  0
 15 41  1  0
 19 42  1  0
 20 43  1  0
 23 44  1  0
 23 45  1  0
 24 46  1  0
 24 47  1  0
 26 48  1  0
 26 49  1  0
 26 50  1  0
 27 51  1  0
 27 52  1  0
 28 53  1  0
 28 54  1  0
 31 55  1  0
 32 56  1  0
M  CHG  2   9  -1  30  -1
M  END
>  <UniqueID>  (43) 
43

>  <SMILES>  (43) 
COc1ccccc1[N-]S(=O)(=O)c1ccc(-n2c(O)cc(N3CCN(C)CC3)c2[O-])cc1

>  <Energy>  (43) 
109.74899783167278

>  <Genealogy>  (43) 
COc1ccccc1[N-]S(=O)(=O)c1ccc(-n2c(O)cc(N3CCN(C)CC3)c2[O-])cc1 (protonated)
COc1ccccc1[N-]S(=O)(=O)c1ccc(-n2c(O)cc(N3CCN(C)CC3)c2[O-])cc1 (3D coordinates assigned)
COc1ccccc1[N-]S(=O)(=O)c1ccc(-n2c(O)cc(N3CCN(C)CC3)c2[O-])cc1 (nonaromatic ring conformer: 109.74899783167278 kcal/mol)

>  <smiles>  (43) 
COc1ccccc1NS(=O)(=O)c1ccc(-n2c(O)cc(N3CCN(C)CC3)c2O)cc1

>  <score_type>  (43) 
oracle

>  <origin>  (43) 
adgpu

>  <m_score__min__energy>  (43) 
-10.550000000000001

>  <m_primary>  (43) 
energy

$$$$
43:0
     RDKit          3D

 62 65  0  0  0  0  0  0  0  0999 V2000
   -3.7460   25.2520  -30.2580 O   0  0  0  0  0  0  0  0  0  0  0  0
   -3.2970   24.0720  -30.2960 C   0  0  0  0  0  0  0  0  0  0  0  0
   -3.8040   23.1480  -31.2680 N   0  0  0  0  0  0  0  0  0  0  0  0
   -5.1800   22.8080  -31.4990 C   0  0  0  0  0  0  0  0  0  0  0  0
   -6.2070   23.7680  -31.4420 C   0  0  0  0  0  0  0  0  0  0  0  0
   -7.5340   23.3890  -31.6570 C   0  0  0  0  0  0  0  0  0  0  0  0
   -7.8510   22.0540  -31.9150 C   0  0  0  0  0  0  0  0  0  0  0  0
   -6.8380   21.0850  -31.9490 C   0  0  0  0  0  0  0  0  0  0  0  0
   -7.2310   19.3980  -32.2830 S   0  0  0  0  0  0  0  0  0  0  0  0
   -8.7230   19.2440  -32.3860 O   0  0  0  0  0  0  0  0  0  0  0  0
   -6.7580   18.5460  -31.1370 O   0  0  0  0  0  0  0  0  0  0  0  0
   -6.4860   18.8630  -33.7730 N   0  0  0  0  0  0  0  0  0  0  0  0
   -5.0820   19.3440  -33.8630 C   0  0  0  0  0  0  0  0  0  0  0  0
   -4.0860   18.3700  -34.5320 C   0  0  0  0  0  0  0  0  0  0  0  0
   -3.5370   17.2390  -33.6280 C   0  0  0  0  0  0  0  0  0  0  0  0
   -4.5210   16.1050  -33.2990 C   0  0  0  0  0  0  0  0  0  0  0  0
   -5.9260   16.5800  -32.8860 C   0  0  0  0  0  0  0  0  0  0  0  0
   -6.6850   17.4080  -33.9350 C   0  0  0  0  0  0  0  0  0  0  0  0
   -5.5080   21.4660  -31.7290 C   0  0  0  0  0  0  0  0  0  0  0  0
   -2.2210   23.6670  -29.3550 C   0  0  0  0  0  0  0  0  0  0  0  0
   -2.0240   22.3000  -29.0780 C   0  0  0  0  0  0  0  0  0  0  0  0
   -1.0100   21.8820  -28.2050 C   0  0  0  0  0  0  0  0  0  0  0  0
   -0.7530   20.1700  -27.8730 S   0  0  0  0  0  0  0  0  0  0  0  0
   -0.6700   19.9820  -26.3840 O   0  0  0  0  0  0  0  0  0  0  0  0
   -1.9070   19.3670  -28.4070 O   0  0  0  0  0  0  0  0  0  0  0  0
    0.7400   19.6600  -28.6330 N   0  0  0  0  0  0  0  0  0  0  0  0
    0.5150   19.1430  -30.0010 C   0  0  0  0  0  0  0  0  0  0  0  0
    0.4940   17.6060  -30.0610 C   0  0  0  0  0  0  0  0  0  0  0  0
   -0.0440   17.0790  -28.8690 O   0  0  0  0  0  0  0  0  0  0  0  0
    0.8480   17.3000  -27.7900 C   0  0  0  0  0  0  0  0  0  0  0  0
    1.4850   18.7100  -27.7890 C   0  0  0  0  0  0  0  0  0  0  0  0
   -0.1890   22.8310  -27.5930 C   0  0  0  0  0  0  0  0  0  0  0  0
   -0.3750   24.1890  -27.8510 C   0  0  0  0  0  0  0  0  0  0  0  0
   -1.3810   24.6140  -28.7230 C   0  0  0  0  0  0  0  0  0  0  0  0
   -1.5380   25.9790  -28.9380 O   0  0  0  0  0  0  0  0  0  0  0  0
   -5.9643   24.8193  -31.2277 H   0  0  0  0  0  0  0  0  0  0  0  0
   -8.3322   24.1451  -31.6229 H   0  0  0  0  0  0  0  0  0  0  0  0
   -8.8967   21.7620  -32.0918 H   0  0  0  0  0  0  0  0  0  0  0  0
   -5.0809   20.2798  -34.4412 H   0  0  0  0  0  0  0  0  0  0  0  0
   -4.7368   19.4631  -32.8254 H   0  0  0  0  0  0  0  0  0  0  0  0
   -4.5954   17.9012  -35.3868 H   0  0  0  0  0  0  0  0  0  0  0  0
   -3.2136   18.9798  -34.8096 H   0  0  0  0  0  0  0  0  0  0  0  0
   -2.6678   16.7945  -34.1348 H   0  0  0  0  0  0  0  0  0  0  0  0
   -3.3000   17.7159  -32.6655 H   0  0  0  0  0  0  0  0  0  0  0  0
   -4.6216   15.4679  -34.1900 H   0  0  0  0  0  0  0  0  0  0  0  0
   -4.1041   15.5698  -32.4331 H   0  0  0  0  0  0  0  0  0  0  0  0
   -6.5299   15.6896  -32.6568 H   0  0  0  0  0  0  0  0  0  0  0  0
   -5.7753   17.2503  -32.0269 H   0  0  0  0  0  0  0  0  0  0  0  0
   -6.3332   17.1149  -34.9351 H   0  0  0  0  0  0  0  0  0  0  0  0
   -7.7579   17.2049  -33.8026 H   0  0  0  0  0  0  0  0  0  0  0  0
   -4.7143   20.7044  -31.7370 H   0  0  0  0  0  0  0  0  0  0  0  0
   -2.6744   21.5507  -29.5530 H   0  0  0  0  0  0  0  0  0  0  0  0
   -0.4510   19.5223  -30.3657 H   0  0  0  0  0  0  0  0  0  0  0  0
    1.3511   19.4877  -30.6272 H   0  0  0  0  0  0  0  0  0  0  0  0
   -0.1242   17.2841  -30.9120 H   0  0  0  0  0  0  0  0  0  0  0  0
    1.5232   17.2377  -30.1836 H   0  0  0  0  0  0  0  0  0  0  0  0
    0.2940   17.1684  -26.8488 H   0  0  0  0  0  0  0  0  0  0  0  0
    1.6692   16.5761  -27.8981 H   0  0  0  0  0  0  0  0  0  0  0  0
    1.5007   19.0905  -26.7570 H   0  0  0  0  0  0  0  0  0  0  0  0
    2.5017   18.6205  -28.1994 H   0  0  0  0  0  0  0  0  0  0  0  0
    0.6064   22.5069  -26.9057 H   0  0  0  0  0  0  0  0  0  0  0  0
    0.2750   24.9311  -27.3644 H   0  0  0  0  0  0  0  0  0  0  0  0
  1  2  2  0
  2  3  1  0
  3  4  1  0
  4  5  2  0
  5  6  1  0
  6  7  2  0
  7  8  1  0
  8  9  1  0
  9 10  2  0
  9 11  2  0
  9 12  1  0
 12 13  1  0
 13 14  1  0
 14 15  1  0
 15 16  1  0
 16 17  1  0
 17 18  1  0
  8 19  2  0
  2 20  1  0
 20 21  2  0
 21 22  1  0
 22 23  1  0
 23 24  2  0
 23 25  2  0
 23 26  1  0
 26 27  1  0
 27 28  1  0
 28 29  1  0
 29 30  1  0
 30 31  1  0
 22 32  2  0
 32 33  1  0
 33 34  2  0
 34 35  1  0
 19  4  1  0
 34 20  1  0
 18 12  1  0
 31 26  1  0
  5 36  1  0
  6 37  1  0
  7 38  1  0
 13 39  1  0
 13 40  1  0
 14 41  1  0
 14 42  1  0
 15 43  1  0
 15 44  1  0
 16 45  1  0
 16 46  1  0
 17 47  1  0
 17 48  1  0
 18 49  1  0
 18 50  1  0
 19 51  1  0
 21 52  1  0
 27 53  1  0
 27 54  1  0
 28 55  1  0
 28 56  1  0
 30 57  1  0
 30 58  1  0
 31 59  1  0
 31 60  1  0
 32 61  1  0
 33 62  1  0
M  CHG  2   3  -1  35  -1
M  END
>  <UniqueID>  (44) 
44

>  <SMILES>  (44) 
O=C([N-]c1cccc(S(=O)(=O)N2CCCCCC2)c1)c1cc(S(=O)(=O)N2CCOCC2)ccc1[O-]

>  <Energy>  (44) 
93.23381874624556

>  <Genealogy>  (44) 
O=C([N-]c1cccc(S(=O)(=O)N2CCCCCC2)c1)c1cc(S(=O)(=O)N2CCOCC2)ccc1[O-] (protonated)
O=C([N-]c1cccc(S(=O)(=O)N2CCCCCC2)c1)c1cc(S(=O)(=O)N2CCOCC2)ccc1[O-] (3D coordinates assigned)
O=C([N-]c1cccc(S(=O)(=O)N2CCCCCC2)c1)c1cc(S(=O)(=O)N2CCOCC2)ccc1[O-] (nonaromatic ring conformer: 93.23381874624556 kcal/mol)

>  <smiles>  (44) 
O=C(Nc1cccc(S(=O)(=O)N2CCCCCC2)c1)c1cc(S(=O)(=O)N2CCOCC2)ccc1O

>  <score_type>  (44) 
oracle

>  <origin>  (44) 
adgpu

>  <m_score__min__energy>  (44) 
-11.32

>  <m_primary>  (44) 
energy

$$$$
44:0
     RDKit          3D

 34 35  0  0  0  0  0  0  0  0999 V2000
   -7.8580   21.5220  -31.9990 C   0  0  0  0  0  0  0  0  0  0  0  0
   -6.4930   22.0710  -31.7220 C   0  0  0  0  0  0  0  0  0  0  0  0
   -5.3580   21.4870  -32.1470 N   0  0  0  0  0  0  0  0  0  0  0  0
   -4.3380   22.2660  -31.7450 C   0  0  0  0  0  0  0  0  0  0  0  0
   -2.9020   21.9500  -32.0300 C   0  0  0  0  0  0  0  0  0  0  0  0
   -4.8160   23.3750  -31.0540 C   0  0  0  0  0  0  0  0  0  0  0  0
   -3.9860   24.4540  -30.4620 C   0  0  0  0  0  0  0  0  0  0  0  0
   -4.1290   25.6360  -30.8770 O   0  0  0  0  0  0  0  0  0  0  0  0
   -2.9590   24.1870  -29.4010 C   0  0  0  0  0  0  0  0  0  0  0  0
   -2.0180   25.2980  -29.3330 N   0  0  0  0  0  0  0  0  0  0  0  0
   -0.9120   25.3230  -28.4300 C   0  0  0  0  0  0  0  0  0  0  0  0
    0.0830   24.5710  -28.6200 O   0  0  0  0  0  0  0  0  0  0  0  0
   -0.9380   26.2340  -27.2810 C   0  0  0  0  0  0  0  0  0  0  0  0
   -1.4340   25.9460  -26.0240 C   0  0  0  0  0  0  0  0  0  0  0  0
   -1.2460   27.0920  -25.2810 C   0  0  0  0  0  0  0  0  0  0  0  0
   -0.6490   28.0040  -26.1280 C   0  0  0  0  0  0  0  0  0  0  0  0
   -0.4790   27.4640  -27.3120 O   0  0  0  0  0  0  0  0  0  0  0  0
   -6.2050   23.2510  -31.0490 C   0  0  0  0  0  0  0  0  0  0  0  0
   -7.2080   24.2190  -30.4940 C   0  0  0  0  0  0  0  0  0  0  0  0
   -8.3703   21.3159  -31.0477 H   0  0  0  0  0  0  0  0  0  0  0  0
   -8.4384   22.2566  -32.5764 H   0  0  0  0  0  0  0  0  0  0  0  0
   -7.7682   20.5901  -32.5764 H   0  0  0  0  0  0  0  0  0  0  0  0
   -5.2840   20.5980  -32.6910 H   0  0  0  0  0  0  0  0  0  0  0  0
   -2.3577   21.8302  -31.0816 H   0  0  0  0  0  0  0  0  0  0  0  0
   -2.8398   21.0167  -32.6088 H   0  0  0  0  0  0  0  0  0  0  0  0
   -2.4538   22.7710  -32.6088 H   0  0  0  0  0  0  0  0  0  0  0  0
   -3.4601   24.0730  -28.4284 H   0  0  0  0  0  0  0  0  0  0  0  0
   -2.4137   23.2641  -29.6479 H   0  0  0  0  0  0  0  0  0  0  0  0
   -1.8844   25.0007  -25.6868 H   0  0  0  0  0  0  0  0  0  0  0  0
   -1.5170   27.2481  -24.2264 H   0  0  0  0  0  0  0  0  0  0  0  0
   -0.3595   29.0287  -25.8522 H   0  0  0  0  0  0  0  0  0  0  0  0
   -7.1771   24.1892  -29.3948 H   0  0  0  0  0  0  0  0  0  0  0  0
   -6.9674   25.2350  -30.8401 H   0  0  0  0  0  0  0  0  0  0  0  0
   -8.2149   23.9425  -30.8401 H   0  0  0  0  0  0  0  0  0  0  0  0
  1  2  1  0
  2  3  1  0
  3  4  1  0
  4  5  1  0
  4  6  2  0
  6  7  1  0
  7  8  2  0
  7  9  1  0
  9 10  1  0
 10 11  1  0
 11 12  2  0
 11 13  1  0
 13 14  2  0
 14 15  1  0
 15 16  2  0
 16 17  1  0
  6 18  1  0
 18 19  1  0
 18  2  2  0
 17 13  1  0
  1 20  1  0
  1 21  1  0
  1 22  1  0
  3 23  1  0
  5 24  1  0
  5 25  1  0
  5 26  1  0
  9 27  1  0
  9 28  1  0
 14 29  1  0
 15 30  1  0
 16 31  1  0
 19 32  1  0
 19 33  1  0
 19 34  1  0
M  CHG  1  10  -1
M  END
>  <UniqueID>  (45) 
45

>  <SMILES>  (45) 
Cc1[nH]c(C)c(C(=O)C[N-]C(=O)c2ccco2)c1C

>  <Energy>  (45) 
81.70852206109524

>  <Genealogy>  (45) 
Cc1[nH]c(C)c(C(=O)C[N-]C(=O)c2ccco2)c1C (protonated)
Cc1[nH]c(C)c(C(=O)C[N-]C(=O)c2ccco2)c1C (3D coordinates assigned)
Cc1[nH]c(C)c(C(=O)C[N-]C(=O)c2ccco2)c1C (optimized conformer: 81.70852206109524 kcal/mol)

>  <smiles>  (45) 
Cc1[nH]c(C)c(C(=O)CNC(=O)c2ccco2)c1C

>  <score_type>  (45) 
oracle

>  <origin>  (45) 
adgpu

>  <m_score__min__energy>  (45) 
-8.8499999999999996

>  <m_primary>  (45) 
energy

$$$$
45:0
     RDKit          3D

 63 66  0  0  0  0  0  0  0  0999 V2000
    2.0090   18.6940  -29.4780 C   0  0  0  0  0  0  0  0  0  0  0  0
    1.1130   17.8920  -30.3820 C   0  0  0  0  0  0  0  0  0  0  0  0
    1.4270   16.5520  -30.6560 C   0  0  0  0  0  0  0  0  0  0  0  0
    0.6160   15.7920  -31.5000 C   0  0  0  0  0  0  0  0  0  0  0  0
   -0.5160   16.3600  -32.0910 C   0  0  0  0  0  0  0  0  0  0  0  0
   -1.5230   15.4060  -33.1830 S   0  0  0  0  0  0  0  0  0  0  0  0
   -1.6530   14.0080  -32.6430 O   0  0  0  0  0  0  0  0  0  0  0  0
   -0.8530   15.3260  -34.5260 O   0  0  0  0  0  0  0  0  0  0  0  0
   -3.1120   16.1080  -33.3760 N   0  0  0  0  0  0  0  0  0  0  0  0
   -4.1210   15.0500  -33.5590 C   0  0  0  0  0  0  0  0  0  0  0  0
   -5.5410   15.6410  -33.4900 C   0  0  0  0  0  0  0  0  0  0  0  0
   -5.5650   17.1500  -33.7940 C   0  0  0  0  0  0  0  0  0  0  0  0
   -4.5520   17.5080  -34.8850 C   0  0  0  0  0  0  0  0  0  0  0  0
   -3.1220   17.0450  -34.5170 C   0  0  0  0  0  0  0  0  0  0  0  0
   -0.8350   17.6980  -31.8260 C   0  0  0  0  0  0  0  0  0  0  0  0
   -0.0290   18.4740  -30.9730 C   0  0  0  0  0  0  0  0  0  0  0  0
   -0.3190   19.8700  -30.7720 N   0  0  0  0  0  0  0  0  0  0  0  0
   -1.1110   20.3760  -29.6800 C   0  0  0  0  0  0  0  0  0  0  0  0
   -1.6160   19.5800  -28.8420 O   0  0  0  0  0  0  0  0  0  0  0  0
   -1.3290   21.8310  -29.5110 C   0  0  0  0  0  0  0  0  0  0  0  0
   -0.3020   22.6640  -29.0400 C   0  0  0  0  0  0  0  0  0  0  0  0
   -0.5300   24.0280  -28.8600 C   0  0  0  0  0  0  0  0  0  0  0  0
   -1.7870   24.5790  -29.1300 C   0  0  0  0  0  0  0  0  0  0  0  0
   -1.9630   25.9490  -28.9640 O   0  0  0  0  0  0  0  0  0  0  0  0
   -2.8440   23.7540  -29.5710 C   0  0  0  0  0  0  0  0  0  0  0  0
   -4.4460   24.4460  -29.9420 S   0  0  0  0  0  0  0  0  0  0  0  0
   -5.0810   24.9230  -28.6650 O   0  0  0  0  0  0  0  0  0  0  0  0
   -4.2440   25.6360  -30.8390 O   0  0  0  0  0  0  0  0  0  0  0  0
   -5.5850   23.3320  -30.6780 N   0  0  0  0  0  0  0  0  0  0  0  0
   -5.0380   22.6980  -31.8860 C   0  0  0  0  0  0  0  0  0  0  0  0
   -6.0760   21.7290  -32.5060 C   0  0  0  0  0  0  0  0  0  0  0  0
   -7.2940   21.7220  -31.7870 O   0  0  0  0  0  0  0  0  0  0  0  0
   -7.8160   23.0330  -31.7300 C   0  0  0  0  0  0  0  0  0  0  0  0
   -6.9000   23.9570  -30.9070 C   0  0  0  0  0  0  0  0  0  0  0  0
   -2.5900   22.3870  -29.7880 C   0  0  0  0  0  0  0  0  0  0  0  0
    1.7630   18.4738  -28.4287 H   0  0  0  0  0  0  0  0  0  0  0  0
    3.0586   18.4281  -29.6722 H   0  0  0  0  0  0  0  0  0  0  0  0
    1.8605   19.7665  -29.6722 H   0  0  0  0  0  0  0  0  0  0  0  0
    2.3196   16.0970  -30.2019 H   0  0  0  0  0  0  0  0  0  0  0  0
    0.8690   14.7406  -31.7011 H   0  0  0  0  0  0  0  0  0  0  0  0
   -3.9738   14.5753  -34.5403 H   0  0  0  0  0  0  0  0  0  0  0  0
   -4.0060   14.3062  -32.7568 H   0  0  0  0  0  0  0  0  0  0  0  0
   -6.1752   15.1228  -34.2243 H   0  0  0  0  0  0  0  0  0  0  0  0
   -5.9131   15.4999  -32.4645 H   0  0  0  0  0  0  0  0  0  0  0  0
   -6.5728   17.4324  -34.1326 H   0  0  0  0  0  0  0  0  0  0  0  0
   -5.2986   17.6958  -32.8768 H   0  0  0  0  0  0  0  0  0  0  0  0
   -4.8532   17.0207  -35.8241 H   0  0  0  0  0  0  0  0  0  0  0  0
   -4.5393   18.6026  -34.9934 H   0  0  0  0  0  0  0  0  0  0  0  0
   -2.6768   16.5445  -35.3895 H   0  0  0  0  0  0  0  0  0  0  0  0
   -2.5448   17.9351  -34.2262 H   0  0  0  0  0  0  0  0  0  0  0  0
   -1.7256   18.1470  -32.2900 H   0  0  0  0  0  0  0  0  0  0  0  0
    0.0540   20.5470  -31.4750 H   0  0  0  0  0  0  0  0  0  0  0  0
    0.6867   22.2391  -28.8120 H   0  0  0  0  0  0  0  0  0  0  0  0
    0.2846   24.6753  -28.5031 H   0  0  0  0  0  0  0  0  0  0  0  0
   -4.7851   23.4765  -32.6208 H   0  0  0  0  0  0  0  0  0  0  0  0
   -4.1375   22.1284  -31.6129 H   0  0  0  0  0  0  0  0  0  0  0  0
   -6.2774   22.0404  -33.5416 H   0  0  0  0  0  0  0  0  0  0  0  0
   -5.6552   20.7133  -32.4689 H   0  0  0  0  0  0  0  0  0  0  0  0
   -7.9028   23.4303  -32.7521 H   0  0  0  0  0  0  0  0  0  0  0  0
   -8.8028   22.9962  -31.2454 H   0  0  0  0  0  0  0  0  0  0  0  0
   -6.7588   24.9018  -31.4525 H   0  0  0  0  0  0  0  0  0  0  0  0
   -7.3743   24.1413  -29.9318 H   0  0  0  0  0  0  0  0  0  0  0  0
   -3.3909   21.7433  -30.1806 H   0  0  0  0  0  0  0  0  0  0  0  0
  1  2  1  0
  2  3  2  0
  3  4  1  0
  4  5  2  0
  5  6  1  0
  6  7  2  0
  6  8  2  0
  6  9  1  0
  9 10  1  0
 10 11  1  0
 11 12  1  0
 12 13  1  0
 13 14  1  0
  5 15  1  0
 15 16  2  0
 16 17  1  0
 17 18  1  0
 18 19  2  0
 18 20  1  0
 20 21  2  0
 21 22  1  0
 22 23  2  0
 23 24  1  0
 23 25  1  0
 25 26  1  0
 26 27  2  0
 26 28  2  0
 26 29  1  0
 29 30  1  0
 30 31  1  0
 31 32  1  0
 32 33  1  0
 33 34  1  0
 25 35  2  0
 16  2  1  0
 35 20  1  0
 14  9  1  0
 34 29  1  0
  1 36  1  0
  1 37  1  0
  1 38  1  0
  3 39  1  0
  4 40  1  0
 10 41  1  0
 10 42  1  0
 11 43  1  0
 11 44  1  0
 12 45  1  0
 12 46  1  0
 13 47  1  0
 13 48  1  0
 14 49  1  0
 14 50  1  0
 15 51  1  0
 17 52  1  0
 21 53  1  0
 22 54  1  0
 30 55  1  0
 30 56  1  0
 31 57  1  0
 31 58  1  0
 33 59  1  0
 33 60  1  0
 34 61  1  0
 34 62  1  0
 35 63  1  0
M  CHG  1  24  -1
M  END
>  <UniqueID>  (46) 
46

>  <SMILES>  (46) 
Cc1ccc(S(=O)(=O)N2CCCCC2)cc1NC(=O)c1ccc([O-])c(S(=O)(=O)N2CCOCC2)c1

>  <Energy>  (46) 
87.95737864294071

>  <Genealogy>  (46) 
Cc1ccc(S(=O)(=O)N2CCCCC2)cc1NC(=O)c1ccc([O-])c(S(=O)(=O)N2CCOCC2)c1 (protonated)
Cc1ccc(S(=O)(=O)N2CCCCC2)cc1NC(=O)c1ccc([O-])c(S(=O)(=O)N2CCOCC2)c1 (3D coordinates assigned)
Cc1ccc(S(=O)(=O)N2CCCCC2)cc1NC(=O)c1ccc([O-])c(S(=O)(=O)N2CCOCC2)c1 (nonaromatic ring conformer: 87.95737864294071 kcal/mol)

>  <smiles>  (46) 
Cc1ccc(S(=O)(=O)N2CCCCC2)cc1NC(=O)c1ccc(O)c(S(=O)(=O)N2CCOCC2)c1

>  <score_type>  (46) 
oracle

>  <origin>  (46) 
adgpu

>  <m_score__min__energy>  (46) 
-11.880000000000001

>  <m_primary>  (46) 
energy

$$$$
46:0
     RDKit          3D

 64 67  0  0  0  0  0  0  0  0999 V2000
   -3.9590   21.9380  -27.4600 O   0  0  0  0  0  0  0  0  0  0  0  0
   -3.0030   22.2110  -28.2350 C   0  0  0  0  0  0  0  0  0  0  0  0
   -1.6330   22.4110  -27.6730 C   0  0  0  0  0  0  0  0  0  0  0  0
   -1.1100   21.1660  -27.2210 O   0  0  0  0  0  0  0  0  0  0  0  0
   -1.1990   19.9870  -27.9690 C   0  0  0  0  0  0  0  0  0  0  0  0
   -1.8230   18.9930  -27.5070 O   0  0  0  0  0  0  0  0  0  0  0  0
   -0.5600   19.9140  -29.3010 C   0  0  0  0  0  0  0  0  0  0  0  0
    0.7360   19.3910  -29.4350 C   0  0  0  0  0  0  0  0  0  0  0  0
    1.3400   19.3120  -30.6920 C   0  0  0  0  0  0  0  0  0  0  0  0
    0.6650   19.7610  -31.8330 C   0  0  0  0  0  0  0  0  0  0  0  0
    1.2810   19.6770  -33.0810 O   0  0  0  0  0  0  0  0  0  0  0  0
   -0.6310   20.2980  -31.7120 C   0  0  0  0  0  0  0  0  0  0  0  0
   -1.5040   20.9110  -33.1270 S   0  0  0  0  0  0  0  0  0  0  0  0
   -2.5160   21.9340  -32.6910 O   0  0  0  0  0  0  0  0  0  0  0  0
   -0.5310   21.5930  -34.0480 O   0  0  0  0  0  0  0  0  0  0  0  0
   -2.3140   19.6310  -33.9960 N   0  0  0  0  0  0  0  0  0  0  0  0
   -3.7100   19.5060  -33.5560 C   0  0  0  0  0  0  0  0  0  0  0  0
   -4.4190   18.4020  -34.3700 C   0  0  0  0  0  0  0  0  0  0  0  0
   -3.5140   17.6380  -35.1510 O   0  0  0  0  0  0  0  0  0  0  0  0
   -2.4510   17.1760  -34.3390 C   0  0  0  0  0  0  0  0  0  0  0  0
   -1.6050   18.3530  -33.8140 C   0  0  0  0  0  0  0  0  0  0  0  0
   -1.2370   20.3640  -30.4470 C   0  0  0  0  0  0  0  0  0  0  0  0
   -3.2420   22.4300  -29.6310 N   0  0  0  0  0  0  0  0  0  0  0  0
   -4.3230   23.1910  -30.1870 C   0  0  0  0  0  0  0  0  0  0  0  0
   -5.5240   22.5320  -30.4720 C   0  0  0  0  0  0  0  0  0  0  0  0
   -6.6190   23.2350  -30.9950 C   0  0  0  0  0  0  0  0  0  0  0  0
   -8.1360   22.3960  -31.3410 S   0  0  0  0  0  0  0  0  0  0  0  0
   -9.1000   23.3580  -31.9770 O   0  0  0  0  0  0  0  0  0  0  0  0
   -8.7420   21.9170  -30.0520 O   0  0  0  0  0  0  0  0  0  0  0  0
   -7.8890   21.0320  -32.4090 N   0  0  0  0  0  0  0  0  0  0  0  0
   -8.8380   19.9490  -32.0890 C   0  0  0  0  0  0  0  0  0  0  0  0
   -8.3250   18.6020  -32.6180 C   0  0  0  0  0  0  0  0  0  0  0  0
   -7.0710   18.2070  -32.0750 O   0  0  0  0  0  0  0  0  0  0  0  0
   -6.2820   19.2890  -31.6030 C   0  0  0  0  0  0  0  0  0  0  0  0
   -6.4790   20.5860  -32.4100 C   0  0  0  0  0  0  0  0  0  0  0  0
   -6.5050   24.6120  -31.2320 C   0  0  0  0  0  0  0  0  0  0  0  0
   -5.3230   25.2830  -30.9190 C   0  0  0  0  0  0  0  0  0  0  0  0
   -4.2380   24.5860  -30.3800 C   0  0  0  0  0  0  0  0  0  0  0  0
   -3.1010   25.2940  -30.0080 O   0  0  0  0  0  0  0  0  0  0  0  0
   -0.9749   22.8219  -28.4528 H   0  0  0  0  0  0  0  0  0  0  0  0
   -1.6867   23.1110  -26.8262 H   0  0  0  0  0  0  0  0  0  0  0  0
    1.2791   19.0413  -28.5446 H   0  0  0  0  0  0  0  0  0  0  0  0
    2.3532   18.8940  -30.7858 H   0  0  0  0  0  0  0  0  0  0  0  0
    0.9000   20.1450  -33.8950 H   0  0  0  0  0  0  0  0  0  0  0  0
   -3.7340   19.2444  -32.4878 H   0  0  0  0  0  0  0  0  0  0  0  0
   -4.2277   20.4634  -33.7153 H   0  0  0  0  0  0  0  0  0  0  0  0
   -4.9392   17.7286  -33.6730 H   0  0  0  0  0  0  0  0  0  0  0  0
   -5.1227   18.8933  -35.0581 H   0  0  0  0  0  0  0  0  0  0  0  0
   -2.8659   16.6218  -33.4842 H   0  0  0  0  0  0  0  0  0  0  0  0
   -1.8054   16.5231  -34.9448 H   0  0  0  0  0  0  0  0  0  0  0  0
   -1.4031   18.2022  -32.7432 H   0  0  0  0  0  0  0  0  0  0  0  0
   -0.6629   18.3895  -34.3807 H   0  0  0  0  0  0  0  0  0  0  0  0
   -2.2538   20.7728  -30.3521 H   0  0  0  0  0  0  0  0  0  0  0  0
   -5.6101   21.4516  -30.2839 H   0  0  0  0  0  0  0  0  0  0  0  0
   -8.9586   19.8857  -30.9975 H   0  0  0  0  0  0  0  0  0  0  0  0
   -9.8028   20.1721  -32.5680 H   0  0  0  0  0  0  0  0  0  0  0  0
   -9.0675   17.8284  -32.3723 H   0  0  0  0  0  0  0  0  0  0  0  0
   -8.1795   18.7203  -33.7019 H   0  0  0  0  0  0  0  0  0  0  0  0
   -6.5513   19.4860  -30.5548 H   0  0  0  0  0  0  0  0  0  0  0  0
   -5.2278   18.9948  -31.7126 H   0  0  0  0  0  0  0  0  0  0  0  0
   -5.8562   21.3774  -31.9675 H   0  0  0  0  0  0  0  0  0  0  0  0
   -6.1876   20.3850  -33.4515 H   0  0  0  0  0  0  0  0  0  0  0  0
   -7.3507   25.1652  -31.6664 H   0  0  0  0  0  0  0  0  0  0  0  0
   -5.2443   26.3656  -31.0971 H   0  0  0  0  0  0  0  0  0  0  0  0
  1  2  2  0
  2  3  1  0
  3  4  1  0
  4  5  1  0
  5  6  2  0
  5  7  1  0
  7  8  2  0
  8  9  1  0
  9 10  2  0
 10 11  1  0
 10 12  1  0
 12 13  1  0
 13 14  2  0
 13 15  2  0
 13 16  1  0
 16 17  1  0
 17 18  1  0
 18 19  1  0
 19 20  1  0
 20 21  1  0
 12 22  2  0
  2 23  1  0
 23 24  1  0
 24 25  2  0
 25 26  1  0
 26 27  1  0
 27 28  2  0
 27 29  2  0
 27 30  1  0
 30 31  1  0
 31 32  1  0
 32 33  1  0
 33 34  1  0
 34 35  1  0
 26 36  2  0
 36 37  1  0
 37 38  2  0
 38 39  1  0
 22  7  1  0
 38 24  1  0
 21 16  1  0
 35 30  1  0
  3 40  1  0
  3 41  1  0
  8 42  1  0
  9 43  1  0
 11 44  1  0
 17 45  1  0
 17 46  1  0
 18 47  1  0
 18 48  1  0
 20 49  1  0
 20 50  1  0
 21 51  1  0
 21 52  1  0
 22 53  1  0
 25 54  1  0
 31 55  1  0
 31 56  1  0
 32 57  1  0
 32 58  1  0
 34 59  1  0
 34 60  1  0
 35 61  1  0
 35 62  1  0
 36 63  1  0
 37 64  1  0
M  CHG  2  23  -1  39  -1
M  END
>  <UniqueID>  (47) 
47

>  <SMILES>  (47) 
O=C(COC(=O)c1ccc(O)c(S(=O)(=O)N2CCOCC2)c1)[N-]c1cc(S(=O)(=O)N2CCOCC2)ccc1[O-]

>  <Energy>  (47) 
88.67198794547815

>  <Genealogy>  (47) 
O=C(COC(=O)c1ccc(O)c(S(=O)(=O)N2CCOCC2)c1)[N-]c1cc(S(=O)(=O)N2CCOCC2)ccc1[O-] (protonated)
O=C(COC(=O)c1ccc(O)c(S(=O)(=O)N2CCOCC2)c1)[N-]c1cc(S(=O)(=O)N2CCOCC2)ccc1[O-] (3D coordinates assigned)
O=C(COC(=O)c1ccc(O)c(S(=O)(=O)N2CCOCC2)c1)[N-]c1cc(S(=O)(=O)N2CCOCC2)ccc1[O-] (nonaromatic ring conformer: 88.67198794547815 kcal/mol)

>  <smiles>  (47) 
O=C(COC(=O)c1ccc(O)c(S(=O)(=O)N2CCOCC2)c1)Nc1cc(S(=O)(=O)N2CCOCC2)ccc1O

>  <score_type>  (47) 
oracle

>  <origin>  (47) 
adgpu

>  <m_score__min__energy>  (47) 
-14.859999999999999

>  <m_primary>  (47) 
energy

$$$$
47:0
     RDKit          3D

 47 49  0  0  0  0  0  0  0  0999 V2000
   -1.8890   23.9740  -29.6270 O   0  0  0  0  0  0  0  0  0  0  0  0
   -3.3500   23.8560  -29.9680 S   0  0  0  0  0  0  0  0  0  0  0  0
   -4.1250   23.7070  -28.6910 O   0  0  0  0  0  0  0  0  0  0  0  0
   -3.8660   25.3040  -30.7810 N   0  0  0  0  0  0  0  0  0  0  0  0
   -5.2550   25.6300  -30.4580 C   0  0  0  0  0  0  0  0  0  0  0  0
   -6.1590   24.4700  -30.7840 C   0  0  0  0  0  0  0  0  0  0  0  0
   -6.7730   23.7330  -29.7520 C   0  0  0  0  0  0  0  0  0  0  0  0
   -7.5700   22.6250  -30.0620 C   0  0  0  0  0  0  0  0  0  0  0  0
   -7.7620   22.2440  -31.3940 C   0  0  0  0  0  0  0  0  0  0  0  0
   -7.1440   22.9630  -32.4190 C   0  0  0  0  0  0  0  0  0  0  0  0
   -6.3420   24.0690  -32.1190 C   0  0  0  0  0  0  0  0  0  0  0  0
   -3.6310   22.4320  -30.9660 C   0  0  0  0  0  0  0  0  0  0  0  0
   -3.9980   21.2210  -30.3640 C   0  0  0  0  0  0  0  0  0  0  0  0
   -4.1840   20.0750  -31.1430 C   0  0  0  0  0  0  0  0  0  0  0  0
   -4.0020   20.1320  -32.5330 C   0  0  0  0  0  0  0  0  0  0  0  0
   -4.1630   18.6840  -33.5230 S   0  0  0  0  0  0  0  0  0  0  0  0
   -3.1610   18.7610  -34.6440 O   0  0  0  0  0  0  0  0  0  0  0  0
   -3.8710   17.4610  -32.6940 O   0  0  0  0  0  0  0  0  0  0  0  0
   -5.7900   18.6070  -34.1610 N   0  0  0  0  0  0  0  0  0  0  0  0
   -6.5990   19.7880  -33.7730 C   0  0  0  0  0  0  0  0  0  0  0  0
   -7.7910   19.4650  -32.8510 C   0  0  0  0  0  0  0  0  0  0  0  0
   -7.3900   18.4460  -31.7870 C   0  0  0  0  0  0  0  0  0  0  0  0
   -6.8460   17.1500  -32.4100 C   0  0  0  0  0  0  0  0  0  0  0  0
   -6.4360   17.3120  -33.8860 C   0  0  0  0  0  0  0  0  0  0  0  0
   -3.6630   21.3490  -33.1360 C   0  0  0  0  0  0  0  0  0  0  0  0
   -3.4790   22.4940  -32.3580 C   0  0  0  0  0  0  0  0  0  0  0  0
   -5.3329   25.8591  -29.3849 H   0  0  0  0  0  0  0  0  0  0  0  0
   -5.5641   26.5005  -31.0552 H   0  0  0  0  0  0  0  0  0  0  0  0
   -6.6260   24.0284  -28.7027 H   0  0  0  0  0  0  0  0  0  0  0  0
   -8.0476   22.0511  -29.2542 H   0  0  0  0  0  0  0  0  0  0  0  0
   -8.3987   21.3796  -31.6336 H   0  0  0  0  0  0  0  0  0  0  0  0
   -7.2883   22.6586  -33.4661 H   0  0  0  0  0  0  0  0  0  0  0  0
   -5.8526   24.6272  -32.9307 H   0  0  0  0  0  0  0  0  0  0  0  0
   -4.1403   21.1718  -29.2744 H   0  0  0  0  0  0  0  0  0  0  0  0
   -4.4734   19.1273  -30.6654 H   0  0  0  0  0  0  0  0  0  0  0  0
   -5.9421   20.4990  -33.2505 H   0  0  0  0  0  0  0  0  0  0  0  0
   -7.0214   20.1993  -34.7016 H   0  0  0  0  0  0  0  0  0  0  0  0
   -8.1266   20.3891  -32.3576 H   0  0  0  0  0  0  0  0  0  0  0  0
   -8.6033   19.0402  -33.4590 H   0  0  0  0  0  0  0  0  0  0  0  0
   -6.6113   18.8873  -31.1476 H   0  0  0  0  0  0  0  0  0  0  0  0
   -8.2868   18.1928  -31.2025 H   0  0  0  0  0  0  0  0  0  0  0  0
   -5.9646   16.8290  -31.8355 H   0  0  0  0  0  0  0  0  0  0  0  0
   -7.6552   16.4057  -32.3752 H   0  0  0  0  0  0  0  0  0  0  0  0
   -5.7332   16.5066  -34.1458 H   0  0  0  0  0  0  0  0  0  0  0  0
   -7.3533   17.2647  -34.4913 H   0  0  0  0  0  0  0  0  0  0  0  0
   -3.5410   21.4037  -34.2278 H   0  0  0  0  0  0  0  0  0  0  0  0
   -3.2141   23.4472  -32.8389 H   0  0  0  0  0  0  0  0  0  0  0  0
  1  2  2  0
  2  3  2  0
  2  4  1  0
  4  5  1  0
  5  6  1  0
  6  7  2  0
  7  8  1  0
  8  9  2  0
  9 10  1  0
 10 11  2  0
  2 12  1  0
 12 13  2  0
 13 14  1  0
 14 15  2  0
 15 16  1  0
 16 17  2  0
 16 18  2  0
 16 19  1  0
 19 20  1  0
 20 21  1  0
 21 22  1  0
 22 23  1  0
 23 24  1  0
 15 25  1  0
 25 26  2  0
 11  6  1  0
 26 12  1  0
 24 19  1  0
  5 27  1  0
  5 28  1  0
  7 29  1  0
  8 30  1  0
  9 31  1  0
 10 32  1  0
 11 33  1  0
 13 34  1  0
 14 35  1  0
 20 36  1  0
 20 37  1  0
 21 38  1  0
 21 39  1  0
 22 40  1  0
 22 41  1  0
 23 42  1  0
 23 43  1  0
 24 44  1  0
 24 45  1  0
 25 46  1  0
 26 47  1  0
M  CHG  1   4  -1
M  END
>  <UniqueID>  (48) 
48

>  <SMILES>  (48) 
O=S(=O)([N-]Cc1ccccc1)c1ccc(S(=O)(=O)N2CCCCC2)cc1

>  <Energy>  (48) 
50.87307026773371

>  <Genealogy>  (48) 
O=S(=O)([N-]Cc1ccccc1)c1ccc(S(=O)(=O)N2CCCCC2)cc1 (protonated)
O=S(=O)([N-]Cc1ccccc1)c1ccc(S(=O)(=O)N2CCCCC2)cc1 (3D coordinates assigned)
O=S(=O)([N-]Cc1ccccc1)c1ccc(S(=O)(=O)N2CCCCC2)cc1 (nonaromatic ring conformer: 50.87307026773371 kcal/mol)

>  <smiles>  (48) 
O=S(=O)(NCc1ccccc1)c1ccc(S(=O)(=O)N2CCCCC2)cc1

>  <score_type>  (48) 
oracle

>  <origin>  (48) 
adgpu

>  <m_score__min__energy>  (48) 
-10.630000000000001

>  <m_primary>  (48) 
energy

$$$$
48:0
     RDKit          3D

 48 50  0  0  0  0  0  0  0  0999 V2000
   -4.4540   24.9830  -30.8340 O   0  0  0  0  0  0  0  0  0  0  0  0
   -5.4660   24.3680  -29.9060 S   0  0  0  0  0  0  0  0  0  0  0  0
   -6.3800   25.4530  -29.4090 O   0  0  0  0  0  0  0  0  0  0  0  0
   -6.3910   23.1630  -30.7980 C   0  0  0  0  0  0  0  0  0  0  0  0
   -7.5820   22.6460  -30.2730 C   0  0  0  0  0  0  0  0  0  0  0  0
   -8.2980   21.6740  -30.9790 C   0  0  0  0  0  0  0  0  0  0  0  0
   -7.8350   21.2020  -32.2180 C   0  0  0  0  0  0  0  0  0  0  0  0
   -8.5980   20.2000  -32.9180 N   0  0  0  0  0  0  0  0  0  0  0  0
   -9.1580   19.0020  -32.2930 C   0  0  0  0  0  0  0  0  0  0  0  0
   -8.0500   18.1650  -31.6480 C   0  0  0  0  0  0  0  0  0  0  0  0
   -7.0810   17.2680  -32.9110 S   0  0  0  0  0  0  0  0  0  0  0  0
   -5.6470   18.3470  -32.8000 C   0  0  0  0  0  0  0  0  0  0  0  0
   -5.3660   19.0250  -31.6080 C   0  0  0  0  0  0  0  0  0  0  0  0
   -4.2640   19.8840  -31.5330 C   0  0  0  0  0  0  0  0  0  0  0  0
   -3.4360   20.0570  -32.6450 C   0  0  0  0  0  0  0  0  0  0  0  0
   -3.7050   19.3690  -33.8330 C   0  0  0  0  0  0  0  0  0  0  0  0
   -4.8060   18.5100  -33.9090 C   0  0  0  0  0  0  0  0  0  0  0  0
   -6.6290   21.7180  -32.7330 C   0  0  0  0  0  0  0  0  0  0  0  0
   -5.9160   22.6910  -32.0270 C   0  0  0  0  0  0  0  0  0  0  0  0
   -4.6480   23.6120  -28.5590 N   0  0  0  0  0  0  0  0  0  0  0  0
   -3.6190   24.5250  -28.0180 C   0  0  0  0  0  0  0  0  0  0  0  0
   -2.5430   23.7400  -27.2490 C   0  0  0  0  0  0  0  0  0  0  0  0
   -1.8500   22.7790  -28.0380 O   0  0  0  0  0  0  0  0  0  0  0  0
   -2.5770   22.3450  -29.1800 C   0  0  0  0  0  0  0  0  0  0  0  0
   -4.0970   22.2880  -28.9460 C   0  0  0  0  0  0  0  0  0  0  0  0
   -7.9553   23.0054  -29.3027 H   0  0  0  0  0  0  0  0  0  0  0  0
   -9.2334   21.2751  -30.5595 H   0  0  0  0  0  0  0  0  0  0  0  0
   -8.7950   20.3420  -33.9350 H   0  0  0  0  0  0  0  0  0  0  0  0
   -9.8816   19.3014  -31.5205 H   0  0  0  0  0  0  0  0  0  0  0  0
   -9.6559   18.3977  -33.0656 H   0  0  0  0  0  0  0  0  0  0  0  0
   -7.3783   18.8306  -31.0860 H   0  0  0  0  0  0  0  0  0  0  0  0
   -8.5154   17.4280  -30.9771 H   0  0  0  0  0  0  0  0  0  0  0  0
   -6.0122   18.8823  -30.7293 H   0  0  0  0  0  0  0  0  0  0  0  0
   -4.0496   20.4231  -30.5985 H   0  0  0  0  0  0  0  0  0  0  0  0
   -2.5717   20.7349  -32.5863 H   0  0  0  0  0  0  0  0  0  0  0  0
   -3.0508   19.5036  -34.7070 H   0  0  0  0  0  0  0  0  0  0  0  0
   -5.0120   17.9618  -34.8402 H   0  0  0  0  0  0  0  0  0  0  0  0
   -6.2461   21.3525  -33.6973 H   0  0  0  0  0  0  0  0  0  0  0  0
   -4.9766   23.0879  -32.4394 H   0  0  0  0  0  0  0  0  0  0  0  0
   -5.3720   23.4590  -27.8170 H   0  0  0  0  0  0  0  0  0  0  0  0
   -3.1448   25.0673  -28.8493 H   0  0  0  0  0  0  0  0  0  0  0  0
   -4.1022   25.2311  -27.3267 H   0  0  0  0  0  0  0  0  0  0  0  0
   -1.8084   24.4571  -26.8538 H   0  0  0  0  0  0  0  0  0  0  0  0
   -3.0627   23.1835  -26.4551 H   0  0  0  0  0  0  0  0  0  0  0  0
   -2.3766   23.0416  -30.0074 H   0  0  0  0  0  0  0  0  0  0  0  0
   -2.2434   21.3225  -29.4104 H   0  0  0  0  0  0  0  0  0  0  0  0
   -4.5873   21.9560  -29.8730 H   0  0  0  0  0  0  0  0  0  0  0  0
   -4.2889   21.5849  -28.1221 H   0  0  0  0  0  0  0  0  0  0  0  0
  1  2  2  0
  2  3  2  0
  2  4  1  0
  4  5  2  0
  5  6  1  0
  6  7  2  0
  7  8  1  0
  8  9  1  0
  9 10  1  0
 10 11  1  0
 11 12  1  0
 12 13  2  0
 13 14  1  0
 14 15  2  0
 15 16  1  0
 16 17  2  0
  7 18  1  0
 18 19  2  0
  2 20  1  0
 20 21  1  0
 21 22  1  0
 22 23  1  0
 23 24  1  0
 24 25  1  0
 19  4  1  0
 25 20  1  0
 17 12  1  0
  5 26  1  0
  6 27  1  0
  8 28  1  0
  9 29  1  0
  9 30  1  0
 10 31  1  0
 10 32  1  0
 13 33  1  0
 14 34  1  0
 15 35  1  0
 16 36  1  0
 17 37  1  0
 18 38  1  0
 19 39  1  0
 20 40  1  0
 21 41  1  0
 21 42  1  0
 22 43  1  0
 22 44  1  0
 24 45  1  0
 24 46  1  0
 25 47  1  0
 25 48  1  0
M  CHG  1  20   1
M  END
>  <UniqueID>  (49) 
49

>  <SMILES>  (49) 
O=S(=O)(c1ccc(NCCSc2ccccc2)cc1)[NH+]1CCOCC1

>  <Energy>  (49) 
54.03752552539162

>  <Genealogy>  (49) 
O=S(=O)(c1ccc(NCCSc2ccccc2)cc1)[NH+]1CCOCC1 (protonated)
O=S(=O)(c1ccc(NCCSc2ccccc2)cc1)[NH+]1CCOCC1 (3D coordinates assigned)
O=S(=O)(c1ccc(NCCSc2ccccc2)cc1)[NH+]1CCOCC1 (nonaromatic ring conformer: 54.03752552539162 kcal/mol)

>  <smiles>  (49) 
O=S(=O)(c1ccc(NCCSc2ccccc2)cc1)N1CCOCC1

>  <score_type>  (49) 
oracle

>  <origin>  (49) 
adgpu

>  <m_score__min__energy>  (49) 
-8.8800000000000008

>  <m_primary>  (49) 
energy

$$$$
49:0
     RDKit          3D

 46 48  0  0  0  0  0  0  0  0999 V2000
   -5.3550   17.8010  -33.2870 C   0  0  0  0  0  0  0  0  0  0  0  0
   -6.2090   18.9320  -33.7690 C   0  0  0  0  0  0  0  0  0  0  0  0
   -6.1530   19.2720  -34.9830 O   0  0  0  0  0  0  0  0  0  0  0  0
   -7.0310   19.6830  -32.8590 N   0  0  0  0  0  0  0  0  0  0  0  0
   -8.4310   19.2530  -32.7300 C   0  0  0  0  0  0  0  0  0  0  0  0
   -9.1050   19.8730  -31.5050 C   0  0  0  0  0  0  0  0  0  0  0  0
   -8.9590   21.3920  -31.5370 C   0  0  0  0  0  0  0  0  0  0  0  0
   -7.5090   21.7810  -31.6260 C   0  0  0  0  0  0  0  0  0  0  0  0
   -7.0850   23.0040  -31.0870 C   0  0  0  0  0  0  0  0  0  0  0  0
   -5.7400   23.3790  -31.1480 C   0  0  0  0  0  0  0  0  0  0  0  0
   -5.2240   24.8960  -30.4150 S   0  0  0  0  0  0  0  0  0  0  0  0
   -5.7670   24.9670  -29.0160 O   0  0  0  0  0  0  0  0  0  0  0  0
   -5.7350   26.0720  -31.1970 O   0  0  0  0  0  0  0  0  0  0  0  0
   -3.4930   24.9560  -30.3610 N   0  0  0  0  0  0  0  0  0  0  0  0
   -2.6750   24.2480  -29.4190 C   0  0  0  0  0  0  0  0  0  0  0  0
   -2.9870   22.9460  -28.9930 C   0  0  0  0  0  0  0  0  0  0  0  0
   -2.1920   22.3030  -28.0310 C   0  0  0  0  0  0  0  0  0  0  0  0
   -2.5200   20.9120  -27.5790 C   0  0  0  0  0  0  0  0  0  0  0  0
   -1.0560   22.9520  -27.5250 C   0  0  0  0  0  0  0  0  0  0  0  0
   -0.7180   24.2390  -27.9680 C   0  0  0  0  0  0  0  0  0  0  0  0
    0.4680   24.9540  -27.3960 C   0  0  0  0  0  0  0  0  0  0  0  0
   -1.5390   24.8850  -28.9040 C   0  0  0  0  0  0  0  0  0  0  0  0
   -4.8110   22.5280  -31.7540 C   0  0  0  0  0  0  0  0  0  0  0  0
   -5.2250   21.3150  -32.3080 C   0  0  0  0  0  0  0  0  0  0  0  0
   -6.5840   20.9390  -32.2840 C   0  0  0  0  0  0  0  0  0  0  0  0
   -5.3470   17.7905  -32.1871 H   0  0  0  0  0  0  0  0  0  0  0  0
   -5.7620   16.8495  -33.6599 H   0  0  0  0  0  0  0  0  0  0  0  0
   -4.3284   17.9319  -33.6599 H   0  0  0  0  0  0  0  0  0  0  0  0
   -8.9817   19.5581  -33.6320 H   0  0  0  0  0  0  0  0  0  0  0  0
   -8.4432   18.1596  -32.6102 H   0  0  0  0  0  0  0  0  0  0  0  0
  -10.1732   19.6103  -31.5058 H   0  0  0  0  0  0  0  0  0  0  0  0
   -8.6241   19.4847  -30.5951 H   0  0  0  0  0  0  0  0  0  0  0  0
   -9.4944   21.7886  -32.4123 H   0  0  0  0  0  0  0  0  0  0  0  0
   -9.3827   21.8093  -30.6116 H   0  0  0  0  0  0  0  0  0  0  0  0
   -7.8170   23.6739  -30.6122 H   0  0  0  0  0  0  0  0  0  0  0  0
   -3.8598   22.4271  -29.4160 H   0  0  0  0  0  0  0  0  0  0  0  0
   -2.5285   20.8761  -26.4796 H   0  0  0  0  0  0  0  0  0  0  0  0
   -3.5103   20.6257  -27.9628 H   0  0  0  0  0  0  0  0  0  0  0  0
   -1.7620   20.2134  -27.9628 H   0  0  0  0  0  0  0  0  0  0  0  0
   -0.4266   22.4485  -26.7764 H   0  0  0  0  0  0  0  0  0  0  0  0
    0.4192   24.9246  -26.2975 H   0  0  0  0  0  0  0  0  0  0  0  0
    1.3915   24.4620  -27.7353 H   0  0  0  0  0  0  0  0  0  0  0  0
    0.4641   26.0004  -27.7353 H   0  0  0  0  0  0  0  0  0  0  0  0
   -1.2879   25.9028  -29.2371 H   0  0  0  0  0  0  0  0  0  0  0  0
   -3.7499   22.8151  -31.7945 H   0  0  0  0  0  0  0  0  0  0  0  0
   -4.4832   20.6456  -32.7680 H   0  0  0  0  0  0  0  0  0  0  0  0
  1  2  1  0
  2  3  2  0
  2  4  1  0
  4  5  1  0
  5  6  1  0
  6  7  1  0
  7  8  1  0
  8  9  2  0
  9 10  1  0
 10 11  1  0
 11 12  2  0
 11 13  2  0
 11 14  1  0
 14 15  1  0
 15 16  2  0
 16 17  1  0
 17 18  1  0
 17 19  2  0
 19 20  1  0
 20 21  1  0
 20 22  2  0
 10 23  2  0
 23 24  1  0
 24 25  2  0
 25  4  1  0
 25  8  1  0
 22 15  1  0
  1 26  1  0
  1 27  1  0
  1 28  1  0
  5 29  1  0
  5 30  1  0
  6 31  1  0
  6 32  1  0
  7 33  1  0
  7 34  1  0
  9 35  1  0
 16 36  1  0
 18 37  1  0
 18 38  1  0
 18 39  1  0
 19 40  1  0
 21 41  1  0
 21 42  1  0
 21 43  1  0
 22 44  1  0
 23 45  1  0
 24 46  1  0
M  CHG  1  14  -1
M  END
>  <UniqueID>  (50) 
50

>  <SMILES>  (50) 
CC(=O)N1CCCc2cc(S(=O)(=O)[N-]c3cc(C)cc(C)c3)ccc21

>  <Energy>  (50) 
53.9753116311397

>  <Genealogy>  (50) 
CC(=O)N1CCCc2cc(S(=O)(=O)[N-]c3cc(C)cc(C)c3)ccc21 (protonated)
CC(=O)N1CCCc2cc(S(=O)(=O)[N-]c3cc(C)cc(C)c3)ccc21 (3D coordinates assigned)
CC(=O)N1CCCc2cc(S(=O)(=O)[N-]c3cc(C)cc(C)c3)ccc21 (nonaromatic ring conformer: 53.9753116311397 kcal/mol)

>  <smiles>  (50) 
CC(=O)N1CCCc2cc(S(=O)(=O)Nc3cc(C)cc(C)c3)ccc21

>  <score_type>  (50) 
oracle

>  <origin>  (50) 
adgpu

>  <m_score__min__energy>  (50) 
-11.07

>  <m_primary>  (50) 
energy

$$$$
