0:0
     RDKit          3D

 45 48  0  0  0  0  0  0  0  0999 V2000
   -1.6030   25.6730  -29.3130 N   0  0  0  0  0  0  0  0  0  0  0  0
   -1.0990   24.9410  -27.8290 S   0  0  0  0  0  0  0  0  0  0  0  0
   -1.5840   25.7950  -26.6920 O   0  0  0  0  0  0  0  0  0  0  0  0
    0.4020   24.8730  -27.8040 O   0  0  0  0  0  0  0  0  0  0  0  0
   -1.7690   23.3110  -27.6690 C   0  0  0  0  0  0  0  0  0  0  0  0
   -0.9290   22.2610  -27.2620 C   0  0  0  0  0  0  0  0  0  0  0  0
   -1.4180   20.9570  -27.1670 C   0  0  0  0  0  0  0  0  0  0  0  0
   -2.7500   20.6850  -27.4740 C   0  0  0  0  0  0  0  0  0  0  0  0
   -3.5990   21.7180  -27.8760 C   0  0  0  0  0  0  0  0  0  0  0  0
   -3.1240   23.0370  -27.9810 C   0  0  0  0  0  0  0  0  0  0  0  0
   -4.0150   24.0880  -28.3920 N   0  0  0  0  0  0  0  0  0  0  0  0
   -4.3440   24.4110  -30.0630 S   0  0  0  0  0  0  0  0  0  0  0  0
   -3.1150   24.1290  -30.8800 O   0  0  0  0  0  0  0  0  0  0  0  0
   -4.7160   25.8580  -30.2300 O   0  0  0  0  0  0  0  0  0  0  0  0
   -5.6440   23.3590  -30.6170 C   0  0  0  0  0  0  0  0  0  0  0  0
   -6.9730   23.7780  -30.4860 C   0  0  0  0  0  0  0  0  0  0  0  0
   -8.0120   22.9760  -30.9630 C   0  0  0  0  0  0  0  0  0  0  0  0
   -7.7290   21.7530  -31.5770 C   0  0  0  0  0  0  0  0  0  0  0  0
   -6.4000   21.3210  -31.7190 C   0  0  0  0  0  0  0  0  0  0  0  0
   -6.1070   20.0680  -32.3620 N   0  0  0  0  0  0  0  0  0  0  0  0
   -6.8830   18.8640  -32.3280 C   0  0  0  0  0  0  0  0  0  0  0  0
   -7.9800   18.7390  -31.7230 O   0  0  0  0  0  0  0  0  0  0  0  0
   -6.2440   17.8360  -33.1420 C   0  0  0  0  0  0  0  0  0  0  0  0
   -6.6250   16.5220  -33.4100 C   0  0  0  0  0  0  0  0  0  0  0  0
   -5.7980   15.7540  -34.2480 C   0  0  0  0  0  0  0  0  0  0  0  0
   -4.6210   16.3100  -34.7970 C   0  0  0  0  0  0  0  0  0  0  0  0
   -4.2610   17.6390  -34.5130 C   0  0  0  0  0  0  0  0  0  0  0  0
   -5.0970   18.3790  -33.6800 C   0  0  0  0  0  0  0  0  0  0  0  0
   -4.9950   19.7560  -33.2100 C   0  0  0  0  0  0  0  0  0  0  0  0
   -4.0470   20.5460  -33.4650 O   0  0  0  0  0  0  0  0  0  0  0  0
   -5.3600   22.1320  -31.2340 C   0  0  0  0  0  0  0  0  0  0  0  0
   -2.6480   25.6550  -29.3270 H   0  0  0  0  0  0  0  0  0  0  0  0
    0.1230   22.4682  -27.0161 H   0  0  0  0  0  0  0  0  0  0  0  0
   -0.7506   20.1424  -26.8492 H   0  0  0  0  0  0  0  0  0  0  0  0
   -3.1325   19.6563  -27.3996 H   0  0  0  0  0  0  0  0  0  0  0  0
   -4.6503   21.4975  -28.1130 H   0  0  0  0  0  0  0  0  0  0  0  0
   -4.3770   24.7730  -27.6950 H   0  0  0  0  0  0  0  0  0  0  0  0
   -7.1997   24.7415  -30.0061 H   0  0  0  0  0  0  0  0  0  0  0  0
   -9.0553   23.3076  -30.8552 H   0  0  0  0  0  0  0  0  0  0  0  0
   -8.5513   21.1253  -31.9511 H   0  0  0  0  0  0  0  0  0  0  0  0
   -7.5445   16.0992  -32.9790 H   0  0  0  0  0  0  0  0  0  0  0  0
   -6.0691   14.7130  -34.4779 H   0  0  0  0  0  0  0  0  0  0  0  0
   -3.9818   15.6989  -35.4512 H   0  0  0  0  0  0  0  0  0  0  0  0
   -3.3468   18.0811  -34.9358 H   0  0  0  0  0  0  0  0  0  0  0  0
   -4.3159   21.8022  -31.3390 H   0  0  0  0  0  0  0  0  0  0  0  0
  1  2  1  0
  2  3  2  0
  2  4  2  0
  2  5  1  0
  5  6  2  0
  6  7  1  0
  7  8  2  0
  8  9  1  0
  9 10  2  0
 10 11  1  0
 11 12  1  0
 12 13  2  0
 12 14  2  0
 12 15  1  0
 15 16  2  0
 16 17  1  0
 17 18  2  0
 18 19  1  0
 19 20  1  0
 20 21  1  0
 21 22  2  0
 21 23  1  0
 23 24  2  0
 24 25  1  0
 25 26  2  0
 26 27  1  0
 27 28  2  0
 28 29  1  0
 29 30  2  0
 19 31  2  0
 10  5  1  0
 31 15  1  0
 29 20  1  0
 28 23  1  0
  1 32  1  0
  6 33  1  0
  7 34  1  0
  8 35  1  0
  9 36  1  0
 11 37  1  0
 16 38  1  0
 17 39  1  0
 18 40  1  0
 24 41  1  0
 25 42  1  0
 26 43  1  0
 27 44  1  0
 31 45  1  0
M  CHG  1   1  -1
M  END
>  <UniqueID>  (1) 
1

>  <SMILES>  (1) 
[NH-]S(=O)(=O)c1ccccc1NS(=O)(=O)c1cccc(N2C(=O)c3ccccc3C2=O)c1

>  <Energy>  (1) 
91.40912836996729

>  <Genealogy>  (1) 
[NH-]S(=O)(=O)c1ccccc1NS(=O)(=O)c1cccc(N2C(=O)c3ccccc3C2=O)c1 (protonated)
[NH-]S(=O)(=O)c1ccccc1NS(=O)(=O)c1cccc(N2C(=O)c3ccccc3C2=O)c1 (3D coordinates assigned)
[NH-]S(=O)(=O)c1ccccc1NS(=O)(=O)c1cccc(N2C(=O)c3ccccc3C2=O)c1 (nonaromatic ring conformer: 91.40912836996729 kcal/mol)

>  <smiles>  (1) 
NS(=O)(=O)c1ccccc1NS(=O)(=O)c1cccc(N2C(=O)c3ccccc3C2=O)c1

>  <score_type>  (1) 
oracle

>  <origin>  (1) 
adgpu

>  <m_score__min__energy>  (1) 
-13.460000000000001

>  <m_primary>  (1) 
energy

$$$$
1:0
     RDKit          3D

 55 58  0  0  0  0  0  0  0  0999 V2000
   -6.5530   23.4690  -32.0680 C   0  0  0  0  0  0  0  0  0  0  0  0
   -5.3640   23.9400  -31.3020 C   0  0  0  0  0  0  0  0  0  0  0  0
   -4.5400   23.1580  -30.5220 C   0  0  0  0  0  0  0  0  0  0  0  0
   -3.6270   24.0730  -30.0320 C   0  0  0  0  0  0  0  0  0  0  0  0
   -2.6300   23.8360  -29.2310 N   0  0  0  0  0  0  0  0  0  0  0  0
   -2.1870   22.2810  -28.5910 S   0  0  0  0  0  0  0  0  0  0  0  0
   -3.4550   21.5400  -28.2750 O   0  0  0  0  0  0  0  0  0  0  0  0
   -1.4020   22.4420  -27.3180 O   0  0  0  0  0  0  0  0  0  0  0  0
   -1.2540   21.3540  -29.7660 C   0  0  0  0  0  0  0  0  0  0  0  0
   -0.8950   20.0310  -29.4790 C   0  0  0  0  0  0  0  0  0  0  0  0
   -0.1620   19.2830  -30.4050 C   0  0  0  0  0  0  0  0  0  0  0  0
    0.2280   19.8480  -31.6290 C   0  0  0  0  0  0  0  0  0  0  0  0
    0.9670   19.0470  -32.5660 N   0  0  0  0  0  0  0  0  0  0  0  0
    0.2380   18.2000  -33.8960 S   0  0  0  0  0  0  0  0  0  0  0  0
    0.6240   16.7490  -33.8350 O   0  0  0  0  0  0  0  0  0  0  0  0
    0.7420   18.7890  -35.1840 O   0  0  0  0  0  0  0  0  0  0  0  0
   -1.5160   18.3230  -33.7970 C   0  0  0  0  0  0  0  0  0  0  0  0
   -2.3090   17.1700  -33.7320 C   0  0  0  0  0  0  0  0  0  0  0  0
   -3.7020   17.2740  -33.6970 C   0  0  0  0  0  0  0  0  0  0  0  0
   -4.3150   18.5350  -33.7180 C   0  0  0  0  0  0  0  0  0  0  0  0
   -6.0750   18.6690  -33.6810 S   0  0  0  0  0  0  0  0  0  0  0  0
   -6.5140   19.6660  -34.7160 O   0  0  0  0  0  0  0  0  0  0  0  0
   -6.6770   17.3390  -34.0370 O   0  0  0  0  0  0  0  0  0  0  0  0
   -6.6670   19.1710  -32.1110 N   0  0  0  0  0  0  0  0  0  0  0  0
   -7.5780   18.1720  -31.5450 C   0  0  0  0  0  0  0  0  0  0  0  0
   -9.0060   18.6090  -31.8360 C   0  0  0  0  0  0  0  0  0  0  0  0
   -8.9160   20.0690  -32.2300 C   0  0  0  0  0  0  0  0  0  0  0  0
   -7.4340   20.4170  -32.2070 C   0  0  0  0  0  0  0  0  0  0  0  0
   -3.5210   19.6900  -33.7810 C   0  0  0  0  0  0  0  0  0  0  0  0
   -2.1280   19.5840  -33.8150 C   0  0  0  0  0  0  0  0  0  0  0  0
   -0.1100   21.1860  -31.9000 C   0  0  0  0  0  0  0  0  0  0  0  0
   -0.8480   21.9300  -30.9770 C   0  0  0  0  0  0  0  0  0  0  0  0
   -3.9070   25.3060  -30.4920 N   0  0  0  0  0  0  0  0  0  0  0  0
   -4.9580   25.1880  -31.2500 O   0  0  0  0  0  0  0  0  0  0  0  0
   -7.3409   23.1569  -31.3667 H   0  0  0  0  0  0  0  0  0  0  0  0
   -6.9285   24.2863  -32.7013 H   0  0  0  0  0  0  0  0  0  0  0  0
   -6.2670   22.6163  -32.7013 H   0  0  0  0  0  0  0  0  0  0  0  0
   -4.5950   22.0753  -30.3357 H   0  0  0  0  0  0  0  0  0  0  0  0
   -1.1910   19.5786  -28.5210 H   0  0  0  0  0  0  0  0  0  0  0  0
    0.1113   18.2432  -30.1724 H   0  0  0  0  0  0  0  0  0  0  0  0
    1.9830   18.8760  -32.3970 H   0  0  0  0  0  0  0  0  0  0  0  0
   -1.8331   16.1786  -33.7084 H   0  0  0  0  0  0  0  0  0  0  0  0
   -4.3192   16.3645  -33.6529 H   0  0  0  0  0  0  0  0  0  0  0  0
   -7.3877   17.1915  -32.0060 H   0  0  0  0  0  0  0  0  0  0  0  0
   -7.4211   18.0876  -30.4595 H   0  0  0  0  0  0  0  0  0  0  0  0
   -9.4285   18.0149  -32.6597 H   0  0  0  0  0  0  0  0  0  0  0  0
   -9.6606   18.4635  -30.9641 H   0  0  0  0  0  0  0  0  0  0  0  0
   -9.3287   20.2192  -33.2385 H   0  0  0  0  0  0  0  0  0  0  0  0
   -9.4916   20.7084  -31.5446 H   0  0  0  0  0  0  0  0  0  0  0  0
   -7.1632   20.9496  -33.1305 H   0  0  0  0  0  0  0  0  0  0  0  0
   -7.2114   21.0649  -31.3464 H   0  0  0  0  0  0  0  0  0  0  0  0
   -3.9963   20.6818  -33.8037 H   0  0  0  0  0  0  0  0  0  0  0  0
   -1.5098   20.4929  -33.8560 H   0  0  0  0  0  0  0  0  0  0  0  0
    0.2090   21.6495  -32.8452 H   0  0  0  0  0  0  0  0  0  0  0  0
   -1.1120   22.9739  -31.2019 H   0  0  0  0  0  0  0  0  0  0  0  0
  1  2  1  0
  2  3  2  0
  3  4  1  0
  4  5  2  3
  5  6  1  0
  6  7  2  0
  6  8  2  0
  6  9  1  0
  9 10  2  0
 10 11  1  0
 11 12  2  0
 12 13  1  0
 13 14  1  0
 14 15  2  0
 14 16  2  0
 14 17  1  0
 17 18  2  0
 18 19  1  0
 19 20  2  0
 20 21  1  0
 21 22  2  0
 21 23  2  0
 21 24  1  0
 24 25  1  0
 25 26  1  0
 26 27  1  0
 27 28  1  0
 20 29  1  0
 29 30  2  0
 12 31  1  0
 31 32  2  0
  4 33  1  0
 33 34  1  0
 34  2  1  0
 32  9  1  0
 30 17  1  0
 28 24  1  0
  1 35  1  0
  1 36  1  0
  1 37  1  0
  3 38  1  0
 10 39  1  0
 11 40  1  0
 13 41  1  0
 18 42  1  0
 19 43  1  0
 25 44  1  0
 25 45  1  0
 26 46  1  0
 26 47  1  0
 27 48  1  0
 27 49  1  0
 28 50  1  0
 28 51  1  0
 29 52  1  0
 30 53  1  0
 31 54  1  0
 32 55  1  0
M  CHG  1  33  -1
M  END
>  <UniqueID>  (2) 
2

>  <SMILES>  (2) 
Cc1cc(=NS(=O)(=O)c2ccc(NS(=O)(=O)c3ccc(S(=O)(=O)N4CCCC4)cc3)cc2)[n-]o1

>  <Energy>  (2) 
95.0470129944115

>  <Genealogy>  (2) 
Cc1cc(=NS(=O)(=O)c2ccc(NS(=O)(=O)c3ccc(S(=O)(=O)N4CCCC4)cc3)cc2)[n-]o1 (protonated)
Cc1cc(=NS(=O)(=O)c2ccc(NS(=O)(=O)c3ccc(S(=O)(=O)N4CCCC4)cc3)cc2)[n-]o1 (3D coordinates assigned)
Cc1cc(=NS(=O)(=O)c2ccc(NS(=O)(=O)c3ccc(S(=O)(=O)N4CCCC4)cc3)cc2)[n-]o1 (nonaromatic ring conformer: 95.0470129944115 kcal/mol)

>  <smiles>  (2) 
Cc1cc(=NS(=O)(=O)c2ccc(NS(=O)(=O)c3ccc(S(=O)(=O)N4CCCC4)cc3)cc2)[nH]o1

>  <score_type>  (2) 
oracle

>  <origin>  (2) 
adgpu

>  <m_score__min__energy>  (2) 
-11.82

>  <m_primary>  (2) 
energy

$$$$
2:0
     RDKit          3D

 48 51  0  0  0  0  0  0  0  0999 V2000
   -5.2980   24.8500  -31.4220 O   0  0  0  0  0  0  0  0  0  0  0  0
   -4.4460   24.2090  -30.7520 C   0  0  0  0  0  0  0  0  0  0  0  0
   -4.3220   22.7230  -30.9640 C   0  0  0  0  0  0  0  0  0  0  0  0
   -4.1390   22.2800  -32.7290 S   0  0  0  0  0  0  0  0  0  0  0  0
   -5.4990   21.1140  -32.7530 C   0  0  0  0  0  0  0  0  0  0  0  0
   -5.4310   19.7720  -33.1040 C   0  0  0  0  0  0  0  0  0  0  0  0
   -6.6490   19.1960  -32.9870 N   0  0  0  0  0  0  0  0  0  0  0  0
   -7.4790   20.1650  -32.5610 C   0  0  0  0  0  0  0  0  0  0  0  0
   -8.8420   20.0540  -32.2910 C   0  0  0  0  0  0  0  0  0  0  0  0
   -9.5210   21.2060  -31.8500 C   0  0  0  0  0  0  0  0  0  0  0  0
   -8.8300   22.4270  -31.6910 C   0  0  0  0  0  0  0  0  0  0  0  0
   -7.4530   22.5080  -31.9690 C   0  0  0  0  0  0  0  0  0  0  0  0
   -6.8100   21.3510  -32.4040 C   0  0  0  0  0  0  0  0  0  0  0  0
   -3.6070   24.9280  -29.8380 N   0  0  0  0  0  0  0  0  0  0  0  0
   -2.5010   24.3670  -29.1270 C   0  0  0  0  0  0  0  0  0  0  0  0
   -2.5660   23.0310  -28.7140 C   0  0  0  0  0  0  0  0  0  0  0  0
   -1.5180   22.4640  -27.9790 C   0  0  0  0  0  0  0  0  0  0  0  0
   -1.6580   20.8150  -27.3770 S   0  0  0  0  0  0  0  0  0  0  0  0
   -2.9680   20.2280  -27.8250 O   0  0  0  0  0  0  0  0  0  0  0  0
   -1.6260   20.8260  -25.8730 O   0  0  0  0  0  0  0  0  0  0  0  0
   -0.3430   19.8580  -28.0130 N   0  0  0  0  0  0  0  0  0  0  0  0
   -0.4090   18.4780  -27.5360 C   0  0  0  0  0  0  0  0  0  0  0  0
    0.2780   17.6230  -28.5880 C   0  0  0  0  0  0  0  0  0  0  0  0
    0.2770   18.4650  -29.8550 C   0  0  0  0  0  0  0  0  0  0  0  0
   -0.4010   19.7710  -29.4710 C   0  0  0  0  0  0  0  0  0  0  0  0
   -0.3880   23.2340  -27.6760 C   0  0  0  0  0  0  0  0  0  0  0  0
   -0.3010   24.5570  -28.1200 C   0  0  0  0  0  0  0  0  0  0  0  0
   -1.3510   25.1240  -28.8510 C   0  0  0  0  0  0  0  0  0  0  0  0
   -1.2360   26.4300  -29.3150 O   0  0  0  0  0  0  0  0  0  0  0  0
   -3.4395   22.3610  -30.4161 H   0  0  0  0  0  0  0  0  0  0  0  0
   -5.2468   22.2546  -30.5961 H   0  0  0  0  0  0  0  0  0  0  0  0
   -4.5180   19.2524  -33.4302 H   0  0  0  0  0  0  0  0  0  0  0  0
   -6.8910   18.1990  -33.1850 H   0  0  0  0  0  0  0  0  0  0  0  0
   -9.3700   19.0975  -32.4183 H   0  0  0  0  0  0  0  0  0  0  0  0
  -10.5971   21.1544  -31.6278 H   0  0  0  0  0  0  0  0  0  0  0  0
   -9.3716   23.3207  -31.3476 H   0  0  0  0  0  0  0  0  0  0  0  0
   -6.9028   23.4527  -31.8470 H   0  0  0  0  0  0  0  0  0  0  0  0
   -3.4464   22.4226  -28.9687 H   0  0  0  0  0  0  0  0  0  0  0  0
    0.1114   18.3843  -26.5714 H   0  0  0  0  0  0  0  0  0  0  0  0
   -1.4509   18.1597  -27.3839 H   0  0  0  0  0  0  0  0  0  0  0  0
    1.3084   17.3895  -28.2816 H   0  0  0  0  0  0  0  0  0  0  0  0
   -0.2366   16.6619  -28.7346 H   0  0  0  0  0  0  0  0  0  0  0  0
    1.3067   18.6511  -30.1943 H   0  0  0  0  0  0  0  0  0  0  0  0
   -0.2451   17.9604  -30.6813 H   0  0  0  0  0  0  0  0  0  0  0  0
    0.1297   20.6216  -29.9235 H   0  0  0  0  0  0  0  0  0  0  0  0
   -1.4406   19.7989  -29.8293 H   0  0  0  0  0  0  0  0  0  0  0  0
    0.4324   22.7972  -27.0877 H   0  0  0  0  0  0  0  0  0  0  0  0
    0.5951   25.1537  -27.8941 H   0  0  0  0  0  0  0  0  0  0  0  0
  1  2  2  0
  2  3  1  0
  3  4  1  0
  4  5  1  0
  5  6  2  0
  6  7  1  0
  7  8  1  0
  8  9  2  0
  9 10  1  0
 10 11  2  0
 11 12  1  0
 12 13  2  0
  2 14  1  0
 14 15  1  0
 15 16  2  0
 16 17  1  0
 17 18  1  0
 18 19  2  0
 18 20  2  0
 18 21  1  0
 21 22  1  0
 22 23  1  0
 23 24  1  0
 24 25  1  0
 17 26  2  0
 26 27  1  0
 27 28  2  0
 28 29  1  0
 13  5  1  0
 28 15  1  0
 13  8  1  0
 25 21  1  0
  3 30  1  0
  3 31  1  0
  6 32  1  0
  7 33  1  0
  9 34  1  0
 10 35  1  0
 11 36  1  0
 12 37  1  0
 16 38  1  0
 22 39  1  0
 22 40  1  0
 23 41  1  0
 23 42  1  0
 24 43  1  0
 24 44  1  0
 25 45  1  0
 25 46  1  0
 26 47  1  0
 27 48  1  0
M  CHG  2  14  -1  29  -1
M  END
>  <UniqueID>  (3) 
3

>  <SMILES>  (3) 
O=C(CSc1c[nH]c2ccccc12)[N-]c1cc(S(=O)(=O)N2CCCC2)ccc1[O-]

>  <Energy>  (3) 
85.5808566260518

>  <Genealogy>  (3) 
O=C(CSc1c[nH]c2ccccc12)[N-]c1cc(S(=O)(=O)N2CCCC2)ccc1[O-] (protonated)
O=C(CSc1c[nH]c2ccccc12)[N-]c1cc(S(=O)(=O)N2CCCC2)ccc1[O-] (3D coordinates assigned)
O=C(CSc1c[nH]c2ccccc12)[N-]c1cc(S(=O)(=O)N2CCCC2)ccc1[O-] (nonaromatic ring conformer: 85.5808566260518 kcal/mol)

>  <smiles>  (3) 
O=C(CSc1c[nH]c2ccccc12)Nc1cc(S(=O)(=O)N2CCCC2)ccc1O

>  <score_type>  (3) 
oracle

>  <origin>  (3) 
adgpu

>  <m_score__min__energy>  (3) 
-14.35

>  <m_primary>  (3) 
energy

$$$$
3:0
     RDKit          3D

 29 31  0  0  0  0  0  0  0  0999 V2000
   -0.6540   22.3890  -25.6670 O   0  0  0  0  0  0  0  0  0  0  0  0
   -0.9440   21.9220  -26.8030 C   0  0  0  0  0  0  0  0  0  0  0  0
   -1.6420   22.7890  -27.7850 C   0  0  0  0  0  0  0  0  0  0  0  0
   -2.8510   22.3820  -28.3800 C   0  0  0  0  0  0  0  0  0  0  0  0
   -3.5050   23.2130  -29.2940 C   0  0  0  0  0  0  0  0  0  0  0  0
   -2.9670   24.4620  -29.6170 C   0  0  0  0  0  0  0  0  0  0  0  0
   -3.6240   25.2830  -30.5270 O   0  0  0  0  0  0  0  0  0  0  0  0
   -1.7730   24.8830  -29.0220 C   0  0  0  0  0  0  0  0  0  0  0  0
   -1.2360   26.1260  -29.3380 O   0  0  0  0  0  0  0  0  0  0  0  0
   -1.1160   24.0530  -28.1070 C   0  0  0  0  0  0  0  0  0  0  0  0
   -0.5960   20.5120  -27.1000 C   0  0  0  0  0  0  0  0  0  0  0  0
   -1.5330   19.5040  -26.8220 C   0  0  0  0  0  0  0  0  0  0  0  0
   -1.2410   18.1660  -27.0920 C   0  0  0  0  0  0  0  0  0  0  0  0
   -0.0030   17.8140  -27.6330 C   0  0  0  0  0  0  0  0  0  0  0  0
    0.2760   16.5090  -27.8980 N   0  0  0  0  0  0  0  0  0  0  0  0
    1.4700   16.1240  -28.4190 C   0  0  0  0  0  0  0  0  0  0  0  0
    2.4530   17.0750  -28.6970 C   0  0  0  0  0  0  0  0  0  0  0  0
    2.2000   18.4220  -28.4370 C   0  0  0  0  0  0  0  0  0  0  0  0
    0.9620   18.8130  -27.9010 C   0  0  0  0  0  0  0  0  0  0  0  0
    0.6660   20.1620  -27.6220 C   0  0  0  0  0  0  0  0  0  0  0  0
    1.6290   21.1440  -27.8410 O   0  0  0  0  0  0  0  0  0  0  0  0
   -3.2839   21.4037  -28.1240 H   0  0  0  0  0  0  0  0  0  0  0  0
   -4.4452   22.8833  -29.7602 H   0  0  0  0  0  0  0  0  0  0  0  0
   -0.1813   24.3915  -27.6361 H   0  0  0  0  0  0  0  0  0  0  0  0
   -2.5073   19.7714  -26.3869 H   0  0  0  0  0  0  0  0  0  0  0  0
   -1.9879   17.3873  -26.8781 H   0  0  0  0  0  0  0  0  0  0  0  0
    1.6626   15.0602  -28.6223 H   0  0  0  0  0  0  0  0  0  0  0  0
    3.4206   16.7645  -29.1182 H   0  0  0  0  0  0  0  0  0  0  0  0
    2.9699   19.1778  -28.6517 H   0  0  0  0  0  0  0  0  0  0  0  0
  1  2  2  0
  2  3  1  0
  3  4  2  0
  4  5  1  0
  5  6  2  0
  6  7  1  0
  6  8  1  0
  8  9  1  0
  8 10  2  0
  2 11  1  0
 11 12  2  0
 12 13  1  0
 13 14  2  0
 14 15  1  0
 15 16  2  0
 16 17  1  0
 17 18  2  0
 18 19  1  0
 19 20  2  0
 20 21  1  0
 10  3  1  0
 20 11  1  0
 19 14  1  0
  4 22  1  0
  5 23  1  0
 10 24  1  0
 12 25  1  0
 13 26  1  0
 16 27  1  0
 17 28  1  0
 18 29  1  0
M  CHG  3   7  -1   9  -1  21  -1
M  END
>  <UniqueID>  (4) 
4

>  <SMILES>  (4) 
O=C(c1ccc([O-])c([O-])c1)c1ccc2ncccc2c1[O-]

>  <Energy>  (4) 
44.46253445002548

>  <Genealogy>  (4) 
O=C(c1ccc([O-])c([O-])c1)c1ccc2ncccc2c1[O-] (protonated)
O=C(c1ccc([O-])c([O-])c1)c1ccc2ncccc2c1[O-] (3D coordinates assigned)
O=C(c1ccc([O-])c([O-])c1)c1ccc2ncccc2c1[O-] (optimized conformer: 44.46253445002548 kcal/mol)

>  <smiles>  (4) 
O=C(c1ccc(O)c(O)c1)c1ccc2ncccc2c1O

>  <score_type>  (4) 
oracle

>  <origin>  (4) 
adgpu

>  <m_score__min__energy>  (4) 
-12.58

>  <m_primary>  (4) 
energy

$$$$
4:0
     RDKit          3D

 63 66  0  0  0  0  0  0  0  0999 V2000
   -9.8210   20.7470  -32.3240 C   0  0  0  0  0  0  0  0  0  0  0  0
   -8.4490   21.3140  -32.0670 C   0  0  0  0  0  0  0  0  0  0  0  0
   -8.3340   22.7090  -31.9470 C   0  0  0  0  0  0  0  0  0  0  0  0
   -7.1110   23.3050  -31.6630 C   0  0  0  0  0  0  0  0  0  0  0  0
   -5.9690   22.5210  -31.4760 C   0  0  0  0  0  0  0  0  0  0  0  0
   -4.7090   23.1290  -31.1440 N   0  0  0  0  0  0  0  0  0  0  0  0
   -4.5820   24.2900  -30.3040 C   0  0  0  0  0  0  0  0  0  0  0  0
   -5.5870   24.7650  -29.7130 O   0  0  0  0  0  0  0  0  0  0  0  0
   -3.3060   24.9070  -30.0930 N   0  0  0  0  0  0  0  0  0  0  0  0
   -2.4340   24.6710  -28.9800 C   0  0  0  0  0  0  0  0  0  0  0  0
   -1.0360   24.6470  -29.1310 C   0  0  0  0  0  0  0  0  0  0  0  0
   -0.2110   24.4490  -28.0200 C   0  0  0  0  0  0  0  0  0  0  0  0
   -0.7710   24.2980  -26.7430 C   0  0  0  0  0  0  0  0  0  0  0  0
    0.2800   24.0340  -25.3540 S   0  0  0  0  0  0  0  0  0  0  0  0
   -0.3970   23.0670  -24.4220 O   0  0  0  0  0  0  0  0  0  0  0  0
    1.5840   23.4340  -25.8020 O   0  0  0  0  0  0  0  0  0  0  0  0
    0.5620   25.5500  -24.5260 N   0  0  0  0  0  0  0  0  0  0  0  0
   -0.6060   25.9230  -23.7200 C   0  0  0  0  0  0  0  0  0  0  0  0
   -1.4980   26.8190  -24.5650 C   0  0  0  0  0  0  0  0  0  0  0  0
   -0.6240   27.2960  -25.7100 C   0  0  0  0  0  0  0  0  0  0  0  0
    0.7310   26.6380  -25.4950 C   0  0  0  0  0  0  0  0  0  0  0  0
   -2.1630   24.3440  -26.5890 C   0  0  0  0  0  0  0  0  0  0  0  0
   -2.9880   24.5380  -27.7020 C   0  0  0  0  0  0  0  0  0  0  0  0
   -6.0690   21.1240  -31.5520 C   0  0  0  0  0  0  0  0  0  0  0  0
   -4.9360   20.3630  -31.2910 O   0  0  0  0  0  0  0  0  0  0  0  0
   -7.2930   20.4990  -31.8910 C   0  0  0  0  0  0  0  0  0  0  0  0
   -7.3380   18.7150  -32.0450 S   0  0  0  0  0  0  0  0  0  0  0  0
   -6.4300   18.1220  -31.0040 O   0  0  0  0  0  0  0  0  0  0  0  0
   -8.7170   18.1910  -31.7560 O   0  0  0  0  0  0  0  0  0  0  0  0
   -6.8440   18.1260  -33.6240 N   0  0  0  0  0  0  0  0  0  0  0  0
   -5.9520   19.0440  -34.3560 C   0  0  0  0  0  0  0  0  0  0  0  0
   -4.4720   18.9150  -33.9470 C   0  0  0  0  0  0  0  0  0  0  0  0
   -4.0610   17.4810  -33.5780 C   0  0  0  0  0  0  0  0  0  0  0  0
   -5.0250   16.4500  -34.1610 C   0  0  0  0  0  0  0  0  0  0  0  0
   -6.4540   16.6970  -33.6500 C   0  0  0  0  0  0  0  0  0  0  0  0
  -10.3184   20.5414  -31.3647 H   0  0  0  0  0  0  0  0  0  0  0  0
  -10.4162   21.4728  -32.8975 H   0  0  0  0  0  0  0  0  0  0  0  0
   -9.7301   19.8127  -32.8975 H   0  0  0  0  0  0  0  0  0  0  0  0
   -9.2257   23.3393  -32.0799 H   0  0  0  0  0  0  0  0  0  0  0  0
   -7.0413   24.4000  -31.5849 H   0  0  0  0  0  0  0  0  0  0  0  0
   -3.8510   22.7540  -31.6080 H   0  0  0  0  0  0  0  0  0  0  0  0
   -0.5900   24.7845  -30.1271 H   0  0  0  0  0  0  0  0  0  0  0  0
    0.8809   24.4115  -28.1477 H   0  0  0  0  0  0  0  0  0  0  0  0
   -1.1588   25.0191  -23.4243 H   0  0  0  0  0  0  0  0  0  0  0  0
   -0.2871   26.4526  -22.8101 H   0  0  0  0  0  0  0  0  0  0  0  0
   -2.3592   26.2524  -24.9488 H   0  0  0  0  0  0  0  0  0  0  0  0
   -1.9021   27.6597  -23.9820 H   0  0  0  0  0  0  0  0  0  0  0  0
   -1.0523   26.9858  -26.6745 H   0  0  0  0  0  0  0  0  0  0  0  0
   -0.5442   28.3929  -25.7303 H   0  0  0  0  0  0  0  0  0  0  0  0
    1.1044   26.2340  -26.4476 H   0  0  0  0  0  0  0  0  0  0  0  0
    1.4560   27.3743  -25.1179 H   0  0  0  0  0  0  0  0  0  0  0  0
   -2.6084   24.2272  -25.5900 H   0  0  0  0  0  0  0  0  0  0  0  0
   -4.0792   24.5863  -27.5716 H   0  0  0  0  0  0  0  0  0  0  0  0
   -6.0366   18.8287  -35.4314 H   0  0  0  0  0  0  0  0  0  0  0  0
   -6.2685   20.0686  -34.1109 H   0  0  0  0  0  0  0  0  0  0  0  0
   -3.8477   19.2506  -34.7882 H   0  0  0  0  0  0  0  0  0  0  0  0
   -4.3293   19.5338  -33.0488 H   0  0  0  0  0  0  0  0  0  0  0  0
   -3.0517   17.2872  -33.9702 H   0  0  0  0  0  0  0  0  0  0  0  0
   -4.0821   17.3893  -32.4820 H   0  0  0  0  0  0  0  0  0  0  0  0
   -5.0152   16.5256  -35.2584 H   0  0  0  0  0  0  0  0  0  0  0  0
   -4.7040   15.4460  -33.8463 H   0  0  0  0  0  0  0  0  0  0  0  0
   -7.1541   16.1589  -34.3059 H   0  0  0  0  0  0  0  0  0  0  0  0
   -6.4878   16.3380  -32.6108 H   0  0  0  0  0  0  0  0  0  0  0  0
  1  2  1  0
  2  3  2  0
  3  4  1  0
  4  5  2  0
  5  6  1  0
  6  7  1  0
  7  8  2  0
  7  9  1  0
  9 10  1  0
 10 11  2  0
 11 12  1  0
 12 13  2  0
 13 14  1  0
 14 15  2  0
 14 16  2  0
 14 17  1  0
 17 18  1  0
 18 19  1  0
 19 20  1  0
 20 21  1  0
 13 22  1  0
 22 23  2  0
  5 24  1  0
 24 25  1  0
 24 26  2  0
 26 27  1  0
 27 28  2  0
 27 29  2  0
 27 30  1  0
 30 31  1  0
 31 32  1  0
 32 33  1  0
 33 34  1  0
 34 35  1  0
 26  2  1  0
 35 30  1  0
 23 10  1  0
 21 17  1  0
  1 36  1  0
  1 37  1  0
  1 38  1  0
  3 39  1  0
  4 40  1  0
  6 41  1  0
 11 42  1  0
 12 43  1  0
 18 44  1  0
 18 45  1  0
 19 46  1  0
 19 47  1  0
 20 48  1  0
 20 49  1  0
 21 50  1  0
 21 51  1  0
 22 52  1  0
 23 53  1  0
 31 54  1  0
 31 55  1  0
 32 56  1  0
 32 57  1  0
 33 58  1  0
 33 59  1  0
 34 60  1  0
 34 61  1  0
 35 62  1  0
 35 63  1  0
M  CHG  2   9  -1  25  -1
M  END
>  <UniqueID>  (5) 
5

>  <SMILES>  (5) 
Cc1ccc(NC(=O)[N-]c2ccc(S(=O)(=O)N3CCCC3)cc2)c([O-])c1S(=O)(=O)N1CCCCC1

>  <Energy>  (5) 
87.5923442903239

>  <Genealogy>  (5) 
Cc1ccc(NC(=O)[N-]c2ccc(S(=O)(=O)N3CCCC3)cc2)c([O-])c1S(=O)(=O)N1CCCCC1 (protonated)
Cc1ccc(NC(=O)[N-]c2ccc(S(=O)(=O)N3CCCC3)cc2)c([O-])c1S(=O)(=O)N1CCCCC1 (3D coordinates assigned)
Cc1ccc(NC(=O)[N-]c2ccc(S(=O)(=O)N3CCCC3)cc2)c([O-])c1S(=O)(=O)N1CCCCC1 (nonaromatic ring conformer: 87.5923442903239 kcal/mol)

>  <smiles>  (5) 
Cc1ccc(NC(=O)Nc2ccc(S(=O)(=O)N3CCCC3)cc2)c(O)c1S(=O)(=O)N1CCCCC1

>  <score_type>  (5) 
oracle

>  <origin>  (5) 
adgpu

>  <m_score__min__energy>  (5) 
-13.66

>  <m_primary>  (5) 
energy

$$$$
5:0
     RDKit          3D

 46 49  0  0  0  0  0  0  0  0999 V2000
   -0.2070   22.4310  -29.0090 O   0  0  0  0  0  0  0  0  0  0  0  0
   -1.0200   22.1870  -29.9370 C   0  0  0  0  0  0  0  0  0  0  0  0
   -2.2640   22.7210  -29.9060 N   0  0  0  0  0  0  0  0  0  0  0  0
   -3.1660   22.4810  -30.8940 C   0  0  0  0  0  0  0  0  0  0  0  0
   -4.5010   23.1010  -30.7880 C   0  0  0  0  0  0  0  0  0  0  0  0
   -5.6570   22.3130  -30.9220 C   0  0  0  0  0  0  0  0  0  0  0  0
   -6.9230   22.8980  -30.8330 C   0  0  0  0  0  0  0  0  0  0  0  0
   -7.0460   24.2720  -30.6170 C   0  0  0  0  0  0  0  0  0  0  0  0
   -5.9030   25.0660  -30.4940 C   0  0  0  0  0  0  0  0  0  0  0  0
   -4.6290   24.4880  -30.5800 C   0  0  0  0  0  0  0  0  0  0  0  0
   -3.4890   25.2830  -30.4480 O   0  0  0  0  0  0  0  0  0  0  0  0
   -2.8110   21.6340  -31.9690 C   0  0  0  0  0  0  0  0  0  0  0  0
   -1.5050   21.1040  -31.9850 C   0  0  0  0  0  0  0  0  0  0  0  0
   -0.6510   21.3860  -30.9670 N   0  0  0  0  0  0  0  0  0  0  0  0
   -1.0500   20.1400  -33.0470 C   0  0  0  0  0  0  0  0  0  0  0  0
   -2.0120   20.0560  -34.2370 C   0  0  0  0  0  0  0  0  0  0  0  0
   -3.4270   20.1010  -33.8260 N   0  0  0  0  0  0  0  0  0  0  0  0
   -3.9980   18.8340  -33.3080 C   0  0  0  0  0  0  0  0  0  0  0  0
   -5.2700   18.3460  -34.0330 C   0  0  0  0  0  0  0  0  0  0  0  0
   -6.4970   18.7570  -33.2650 C   0  0  0  0  0  0  0  0  0  0  0  0
   -7.0210   20.0540  -33.4070 C   0  0  0  0  0  0  0  0  0  0  0  0
   -8.1430   20.4440  -32.6690 C   0  0  0  0  0  0  0  0  0  0  0  0
   -8.7430   19.5490  -31.7790 C   0  0  0  0  0  0  0  0  0  0  0  0
   -8.2190   18.2630  -31.6220 C   0  0  0  0  0  0  0  0  0  0  0  0
   -7.0970   17.8670  -32.3580 C   0  0  0  0  0  0  0  0  0  0  0  0
   -3.7810   21.3280  -33.0940 C   0  0  0  0  0  0  0  0  0  0  0  0
   -5.5649   21.2310  -31.0977 H   0  0  0  0  0  0  0  0  0  0  0  0
   -7.8241   22.2751  -30.9333 H   0  0  0  0  0  0  0  0  0  0  0  0
   -8.0436   24.7297  -30.5436 H   0  0  0  0  0  0  0  0  0  0  0  0
   -6.0033   26.1489  -30.3290 H   0  0  0  0  0  0  0  0  0  0  0  0
   -2.5730   24.8760  -30.3000 H   0  0  0  0  0  0  0  0  0  0  0  0
   -0.0656   20.4644  -33.4153 H   0  0  0  0  0  0  0  0  0  0  0  0
   -1.0101   19.1415  -32.5873 H   0  0  0  0  0  0  0  0  0  0  0  0
   -1.8137   20.9025  -34.9108 H   0  0  0  0  0  0  0  0  0  0  0  0
   -1.8406   19.0911  -34.7367 H   0  0  0  0  0  0  0  0  0  0  0  0
   -3.2309   18.0511  -33.4010 H   0  0  0  0  0  0  0  0  0  0  0  0
   -4.2951   19.0339  -32.2679 H   0  0  0  0  0  0  0  0  0  0  0  0
   -5.3065   18.7881  -35.0396 H   0  0  0  0  0  0  0  0  0  0  0  0
   -5.2430   17.2487  -34.1051 H   0  0  0  0  0  0  0  0  0  0  0  0
   -6.5470   20.7640  -34.1007 H   0  0  0  0  0  0  0  0  0  0  0  0
   -8.5541   21.4572  -32.7892 H   0  0  0  0  0  0  0  0  0  0  0  0
   -9.6276   19.8567  -31.2021 H   0  0  0  0  0  0  0  0  0  0  0  0
   -8.6897   17.5607  -30.9183 H   0  0  0  0  0  0  0  0  0  0  0  0
   -6.6834   16.8563  -32.2263 H   0  0  0  0  0  0  0  0  0  0  0  0
   -3.7806   22.1720  -33.7994 H   0  0  0  0  0  0  0  0  0  0  0  0
   -4.7741   21.1752  -32.6464 H   0  0  0  0  0  0  0  0  0  0  0  0
  1  2  2  0
  2  3  1  0
  3  4  2  0
  4  5  1  0
  5  6  2  0
  6  7  1  0
  7  8  2  0
  8  9  1  0
  9 10  2  0
 10 11  1  0
  4 12  1  0
 12 13  2  0
 13 14  1  0
 13 15  1  0
 15 16  1  0
 16 17  1  0
 17 18  1  0
 18 19  1  0
 19 20  1  0
 20 21  2  0
 21 22  1  0
 22 23  2  0
 23 24  1  0
 24 25  2  0
 17 26  1  0
 14  2  1  0
 25 20  1  0
 10  5  1  0
 26 12  1  0
  6 27  1  0
  7 28  1  0
  8 29  1  0
  9 30  1  0
 11 31  1  0
 15 32  1  0
 15 33  1  0
 16 34  1  0
 16 35  1  0
 18 36  1  0
 18 37  1  0
 19 38  1  0
 19 39  1  0
 21 40  1  0
 22 41  1  0
 23 42  1  0
 24 43  1  0
 25 44  1  0
 26 45  1  0
 26 46  1  0
M  CHG  1  14  -1
M  END
>  <UniqueID>  (6) 
6

>  <SMILES>  (6) 
O=c1nc(-c2ccccc2O)c2c([n-]1)CCN(CCc1ccccc1)C2

>  <Energy>  (6) 
67.02161941903051

>  <Genealogy>  (6) 
O=c1nc(-c2ccccc2O)c2c([n-]1)CCN(CCc1ccccc1)C2 (protonated)
O=c1nc(-c2ccccc2O)c2c([n-]1)CCN(CCc1ccccc1)C2 (3D coordinates assigned)
O=c1nc(-c2ccccc2O)c2c([n-]1)CCN(CCc1ccccc1)C2 (nonaromatic ring conformer: 67.02161941903051 kcal/mol)

>  <smiles>  (6) 
O=c1nc(-c2ccccc2O)c2c([nH]1)CCN(CCc1ccccc1)C2

>  <score_type>  (6) 
oracle

>  <origin>  (6) 
adgpu

>  <m_score__min__energy>  (6) 
-11.08

>  <m_primary>  (6) 
energy

$$$$
6:0
     RDKit          3D

 49 51  0  0  0  0  0  0  0  0999 V2000
   -1.1130   20.0170  -27.2250 C   0  0  0  0  0  0  0  0  0  0  0  0
   -1.9730   20.9510  -28.0270 C   0  0  0  0  0  0  0  0  0  0  0  0
   -2.1430   20.7470  -29.3950 C   0  0  0  0  0  0  0  0  0  0  0  0
   -2.9180   21.6260  -30.1700 C   0  0  0  0  0  0  0  0  0  0  0  0
   -3.0610   21.3140  -31.6380 C   0  0  0  0  0  0  0  0  0  0  0  0
   -3.5100   22.7720  -29.5610 C   0  0  0  0  0  0  0  0  0  0  0  0
   -4.5170   23.9150  -30.5090 S   0  0  0  0  0  0  0  0  0  0  0  0
   -4.6730   23.4660  -31.9340 O   0  0  0  0  0  0  0  0  0  0  0  0
   -3.8640   25.2690  -30.5450 O   0  0  0  0  0  0  0  0  0  0  0  0
   -6.1410   24.0790  -29.7770 C   0  0  0  0  0  0  0  0  0  0  0  0
   -7.1710   23.3780  -30.6010 C   0  0  0  0  0  0  0  0  0  0  0  0
   -7.7800   22.1790  -30.3070 C   0  0  0  0  0  0  0  0  0  0  0  0
   -8.5840   21.9090  -31.3490 N   0  0  0  0  0  0  0  0  0  0  0  0
   -9.4760   20.7610  -31.4880 C   0  0  0  0  0  0  0  0  0  0  0  0
   -9.1350   19.9530  -32.7450 C   0  0  0  0  0  0  0  0  0  0  0  0
   -7.7230   19.4300  -32.7000 C   0  0  0  0  0  0  0  0  0  0  0  0
   -7.4030   18.3100  -31.9130 C   0  0  0  0  0  0  0  0  0  0  0  0
   -6.0820   17.8620  -31.8300 C   0  0  0  0  0  0  0  0  0  0  0  0
   -5.0710   18.5280  -32.5280 C   0  0  0  0  0  0  0  0  0  0  0  0
   -5.3790   19.6450  -33.3090 C   0  0  0  0  0  0  0  0  0  0  0  0
   -6.7000   20.0970  -33.3940 C   0  0  0  0  0  0  0  0  0  0  0  0
   -8.4820   22.8940  -32.2270 N   0  0  0  0  0  0  0  0  0  0  0  0
   -7.6170   23.8030  -31.8010 N   0  0  0  0  0  0  0  0  0  0  0  0
   -3.3360   22.9650  -28.1590 C   0  0  0  0  0  0  0  0  0  0  0  0
   -3.9330   24.1360  -27.4200 C   0  0  0  0  0  0  0  0  0  0  0  0
   -2.5530   22.0640  -27.4210 C   0  0  0  0  0  0  0  0  0  0  0  0
   -1.2782   20.1964  -26.1524 H   0  0  0  0  0  0  0  0  0  0  0  0
   -1.3762   18.9769  -27.4676 H   0  0  0  0  0  0  0  0  0  0  0  0
   -0.0547   20.1936  -27.4676 H   0  0  0  0  0  0  0  0  0  0  0  0
   -1.6621   19.8828  -29.8764 H   0  0  0  0  0  0  0  0  0  0  0  0
   -3.5165   20.3201  -31.7589 H   0  0  0  0  0  0  0  0  0  0  0  0
   -3.7019   22.0713  -32.1131 H   0  0  0  0  0  0  0  0  0  0  0  0
   -2.0689   21.3229  -32.1131 H   0  0  0  0  0  0  0  0  0  0  0  0
   -6.1272   23.6403  -28.7683 H   0  0  0  0  0  0  0  0  0  0  0  0
   -6.3979   25.1475  -29.7282 H   0  0  0  0  0  0  0  0  0  0  0  0
   -7.6376   21.5673  -29.4039 H   0  0  0  0  0  0  0  0  0  0  0  0
   -9.3710   20.1142  -30.6045 H   0  0  0  0  0  0  0  0  0  0  0  0
  -10.5096   21.1273  -31.5751 H   0  0  0  0  0  0  0  0  0  0  0  0
   -9.8286   19.1028  -32.8223 H   0  0  0  0  0  0  0  0  0  0  0  0
   -9.2293   20.6164  -33.6174 H   0  0  0  0  0  0  0  0  0  0  0  0
   -8.1956   17.7842  -31.3604 H   0  0  0  0  0  0  0  0  0  0  0  0
   -5.8376   16.9838  -31.2143 H   0  0  0  0  0  0  0  0  0  0  0  0
   -4.0320   18.1727  -32.4626 H   0  0  0  0  0  0  0  0  0  0  0  0
   -4.5823   20.1691  -33.8572 H   0  0  0  0  0  0  0  0  0  0  0  0
   -6.9388   20.9786  -34.0070 H   0  0  0  0  0  0  0  0  0  0  0  0
   -3.8473   23.9679  -26.3363 H   0  0  0  0  0  0  0  0  0  0  0  0
   -3.3934   25.0551  -27.6923 H   0  0  0  0  0  0  0  0  0  0  0  0
   -4.9938   24.2392  -27.6923 H   0  0  0  0  0  0  0  0  0  0  0  0
   -2.3945   22.2391  -26.3467 H   0  0  0  0  0  0  0  0  0  0  0  0
  1  2  1  0
  2  3  2  0
  3  4  1  0
  4  5  1  0
  4  6  2  0
  6  7  1  0
  7  8  2  0
  7  9  2  0
  7 10  1  0
 10 11  1  0
 11 12  2  0
 12 13  1  0
 13 14  1  0
 14 15  1  0
 15 16  1  0
 16 17  2  0
 17 18  1  0
 18 19  2  0
 19 20  1  0
 20 21  2  0
 13 22  1  0
 22 23  2  0
  6 24  1  0
 24 25  1  0
 24 26  2  0
 26  2  1  0
 23 11  1  0
 21 16  1  0
  1 27  1  0
  1 28  1  0
  1 29  1  0
  3 30  1  0
  5 31  1  0
  5 32  1  0
  5 33  1  0
 10 34  1  0
 10 35  1  0
 12 36  1  0
 14 37  1  0
 14 38  1  0
 15 39  1  0
 15 40  1  0
 17 41  1  0
 18 42  1  0
 19 43  1  0
 20 44  1  0
 21 45  1  0
 25 46  1  0
 25 47  1  0
 25 48  1  0
 26 49  1  0
M  END
>  <UniqueID>  (7) 
7

>  <SMILES>  (7) 
Cc1cc(C)c(S(=O)(=O)Cc2cn(CCc3ccccc3)nn2)c(C)c1

>  <Energy>  (7) 
80.53627986415952

>  <Genealogy>  (7) 
Cc1cc(C)c(S(=O)(=O)Cc2cn(CCc3ccccc3)nn2)c(C)c1 (3D coordinates assigned)
Cc1cc(C)c(S(=O)(=O)Cc2cn(CCc3ccccc3)nn2)c(C)c1 (optimized conformer: 80.53627986415952 kcal/mol)

>  <smiles>  (7) 
Cc1cc(C)c(S(=O)(=O)Cc2cn(CCc3ccccc3)nn2)c(C)c1

>  <score_type>  (7) 
oracle

>  <origin>  (7) 
adgpu

>  <m_score__min__energy>  (7) 
-10.35

>  <m_primary>  (7) 
energy

$$$$
7:0
     RDKit          3D

 44 46  0  0  0  0  0  0  0  0999 V2000
   -2.4390   20.8100  -27.6710 C   0  0  0  0  0  0  0  0  0  0  0  0
   -2.1460   22.2290  -28.0690 C   0  0  0  0  0  0  0  0  0  0  0  0
   -0.9580   22.8460  -27.6520 C   0  0  0  0  0  0  0  0  0  0  0  0
   -0.6640   24.1520  -28.0690 C   0  0  0  0  0  0  0  0  0  0  0  0
   -1.5400   24.8410  -28.9270 C   0  0  0  0  0  0  0  0  0  0  0  0
   -1.2310   26.1350  -29.3370 O   0  0  0  0  0  0  0  0  0  0  0  0
   -2.7170   24.2230  -29.3790 C   0  0  0  0  0  0  0  0  0  0  0  0
   -3.5550   24.9390  -30.3070 N   0  0  0  0  0  0  0  0  0  0  0  0
   -5.2870   25.0030  -30.2470 S   0  0  0  0  0  0  0  0  0  0  0  0
   -5.7700   26.0380  -31.2270 O   0  0  0  0  0  0  0  0  0  0  0  0
   -5.7270   25.3860  -28.8510 O   0  0  0  0  0  0  0  0  0  0  0  0
   -5.9550   23.4400  -30.7080 C   0  0  0  0  0  0  0  0  0  0  0  0
   -7.2940   23.1510  -30.4210 C   0  0  0  0  0  0  0  0  0  0  0  0
   -7.8660   21.9600  -30.8710 C   0  0  0  0  0  0  0  0  0  0  0  0
   -7.1000   21.0410  -31.6010 C   0  0  0  0  0  0  0  0  0  0  0  0
   -7.8670   19.6210  -32.3010 S   0  0  0  0  0  0  0  0  0  0  0  0
   -8.7760   20.0470  -33.4210 O   0  0  0  0  0  0  0  0  0  0  0  0
   -8.6860   18.9070  -31.2610 O   0  0  0  0  0  0  0  0  0  0  0  0
   -6.6090   18.5890  -32.9270 N   0  0  0  0  0  0  0  0  0  0  0  0
   -7.0840   17.2250  -33.1370 C   0  0  0  0  0  0  0  0  0  0  0  0
   -6.1370   16.6090  -34.1370 C   0  0  0  0  0  0  0  0  0  0  0  0
   -5.6590   17.7850  -34.9760 C   0  0  0  0  0  0  0  0  0  0  0  0
   -6.1300   19.0350  -34.2320 C   0  0  0  0  0  0  0  0  0  0  0  0
   -5.7530   21.3200  -31.8690 C   0  0  0  0  0  0  0  0  0  0  0  0
   -5.1810   22.5130  -31.4210 C   0  0  0  0  0  0  0  0  0  0  0  0
   -3.0280   22.9200  -28.9280 C   0  0  0  0  0  0  0  0  0  0  0  0
   -2.4549   20.7328  -26.5738 H   0  0  0  0  0  0  0  0  0  0  0  0
   -3.4179   20.5108  -28.0739 H   0  0  0  0  0  0  0  0  0  0  0  0
   -1.6587   20.1476  -28.0739 H   0  0  0  0  0  0  0  0  0  0  0  0
   -0.2573   22.3060  -26.9983 H   0  0  0  0  0  0  0  0  0  0  0  0
    0.2583   24.6412  -27.7226 H   0  0  0  0  0  0  0  0  0  0  0  0
   -7.8969   23.8640  -29.8395 H   0  0  0  0  0  0  0  0  0  0  0  0
   -8.9217   21.7419  -30.6519 H   0  0  0  0  0  0  0  0  0  0  0  0
   -7.0625   16.6622  -32.1921 H   0  0  0  0  0  0  0  0  0  0  0  0
   -8.1223   17.2094  -33.5000 H   0  0  0  0  0  0  0  0  0  0  0  0
   -5.2913   16.1255  -33.6262 H   0  0  0  0  0  0  0  0  0  0  0  0
   -6.6170   15.8272  -34.7440 H   0  0  0  0  0  0  0  0  0  0  0  0
   -4.5622   17.7774  -35.0592 H   0  0  0  0  0  0  0  0  0  0  0  0
   -6.0581   17.7448  -36.0003 H   0  0  0  0  0  0  0  0  0  0  0  0
   -5.2950   19.7404  -34.1089 H   0  0  0  0  0  0  0  0  0  0  0  0
   -6.9242   19.5527  -34.7900 H   0  0  0  0  0  0  0  0  0  0  0  0
   -5.1448   20.5979  -32.4334 H   0  0  0  0  0  0  0  0  0  0  0  0
   -4.1218   22.7257  -31.6278 H   0  0  0  0  0  0  0  0  0  0  0  0
   -3.9646   22.4406  -29.2488 H   0  0  0  0  0  0  0  0  0  0  0  0
  1  2  1  0
  2  3  2  0
  3  4  1  0
  4  5  2  0
  5  6  1  0
  5  7  1  0
  7  8  1  0
  8  9  1  0
  9 10  2  0
  9 11  2  0
  9 12  1  0
 12 13  2  0
 13 14  1  0
 14 15  2  0
 15 16  1  0
 16 17  2  0
 16 18  2  0
 16 19  1  0
 19 20  1  0
 20 21  1  0
 21 22  1  0
 22 23  1  0
 15 24  1  0
 24 25  2  0
  7 26  2  0
 26  2  1  0
 25 12  1  0
 23 19  1  0
  1 27  1  0
  1 28  1  0
  1 29  1  0
  3 30  1  0
  4 31  1  0
 13 32  1  0
 14 33  1  0
 20 34  1  0
 20 35  1  0
 21 36  1  0
 21 37  1  0
 22 38  1  0
 22 39  1  0
 23 40  1  0
 23 41  1  0
 24 42  1  0
 25 43  1  0
 26 44  1  0
M  CHG  2   6  -1   8  -1
M  END
>  <UniqueID>  (8) 
8

>  <SMILES>  (8) 
Cc1ccc([O-])c([N-]S(=O)(=O)c2ccc(S(=O)(=O)N3CCCC3)cc2)c1

>  <Energy>  (8) 
48.79856057605338

>  <Genealogy>  (8) 
Cc1ccc([O-])c([N-]S(=O)(=O)c2ccc(S(=O)(=O)N3CCCC3)cc2)c1 (protonated)
Cc1ccc([O-])c([N-]S(=O)(=O)c2ccc(S(=O)(=O)N3CCCC3)cc2)c1 (3D coordinates assigned)
Cc1ccc([O-])c([N-]S(=O)(=O)c2ccc(S(=O)(=O)N3CCCC3)cc2)c1 (nonaromatic ring conformer: 48.79856057605338 kcal/mol)

>  <smiles>  (8) 
Cc1ccc(O)c(NS(=O)(=O)c2ccc(S(=O)(=O)N3CCCC3)cc2)c1

>  <score_type>  (8) 
oracle

>  <origin>  (8) 
adgpu

>  <m_score__min__energy>  (8) 
-14.880000000000001

>  <m_primary>  (8) 
energy

$$$$
8:0
     RDKit          3D

 55 58  0  0  0  0  0  0  0  0999 V2000
    1.7280   16.1090  -26.7270 C   0  0  0  0  0  0  0  0  0  0  0  0
    1.1310   16.6010  -27.9740 N   0  0  0  0  0  0  0  0  0  0  0  0
    1.0270   15.7060  -29.1320 C   0  0  0  0  0  0  0  0  0  0  0  0
    0.6320   17.9560  -28.0850 C   0  0  0  0  0  0  0  0  0  0  0  0
   -0.6010   18.3450  -27.5390 C   0  0  0  0  0  0  0  0  0  0  0  0
   -1.0280   19.6640  -27.6710 C   0  0  0  0  0  0  0  0  0  0  0  0
   -0.2220   20.5880  -28.3520 C   0  0  0  0  0  0  0  0  0  0  0  0
   -0.6190   22.0120  -28.5230 C   0  0  0  0  0  0  0  0  0  0  0  0
    0.1890   23.0650  -28.0530 C   0  0  0  0  0  0  0  0  0  0  0  0
   -0.2140   24.3920  -28.2120 C   0  0  0  0  0  0  0  0  0  0  0  0
   -1.4320   24.6940  -28.8280 C   0  0  0  0  0  0  0  0  0  0  0  0
   -1.8020   26.0250  -28.9660 O   0  0  0  0  0  0  0  0  0  0  0  0
   -2.2590   23.6550  -29.2930 C   0  0  0  0  0  0  0  0  0  0  0  0
   -3.8170   23.9640  -30.0670 S   0  0  0  0  0  0  0  0  0  0  0  0
   -3.8880   25.3490  -30.6460 O   0  0  0  0  0  0  0  0  0  0  0  0
   -4.9050   23.8280  -29.0390 O   0  0  0  0  0  0  0  0  0  0  0  0
   -4.0810   22.8050  -31.3290 N   0  0  0  0  0  0  0  0  0  0  0  0
   -5.3510   22.1640  -31.5290 C   0  0  0  0  0  0  0  0  0  0  0  0
   -6.5170   22.7730  -31.0410 C   0  0  0  0  0  0  0  0  0  0  0  0
   -7.7690   22.2230  -31.2980 C   0  0  0  0  0  0  0  0  0  0  0  0
   -7.8810   21.0240  -32.0050 C   0  0  0  0  0  0  0  0  0  0  0  0
   -6.7250   20.3700  -32.4750 C   0  0  0  0  0  0  0  0  0  0  0  0
   -5.4490   20.9600  -32.2710 C   0  0  0  0  0  0  0  0  0  0  0  0
   -4.2250   20.3230  -32.8100 C   0  0  0  0  0  0  0  0  0  0  0  0
   -4.0270   19.0890  -32.6550 O   0  0  0  0  0  0  0  0  0  0  0  0
   -3.2750   21.0860  -33.4810 O   0  0  0  0  0  0  0  0  0  0  0  0
   -6.9160   19.0290  -33.1590 C   0  0  0  0  0  0  0  0  0  0  0  0
   -7.9660   18.2040  -32.4010 C   0  0  0  0  0  0  0  0  0  0  0  0
   -9.3180   18.9330  -32.2570 C   0  0  0  0  0  0  0  0  0  0  0  0
   -9.2420   20.4730  -32.3580 C   0  0  0  0  0  0  0  0  0  0  0  0
   -1.8460   22.3240  -29.1390 C   0  0  0  0  0  0  0  0  0  0  0  0
    0.9670   20.1610  -28.8540 N   0  0  0  0  0  0  0  0  0  0  0  0
    1.3770   18.8970  -28.7270 N   0  0  0  0  0  0  0  0  0  0  0  0
    1.1971   16.5465  -25.8687 H   0  0  0  0  0  0  0  0  0  0  0  0
    1.6460   15.0127  -26.6888 H   0  0  0  0  0  0  0  0  0  0  0  0
    2.7884   16.3989  -26.6888 H   0  0  0  0  0  0  0  0  0  0  0  0
    0.9065   14.6693  -28.7845 H   0  0  0  0  0  0  0  0  0  0  0  0
    0.1561   15.9925  -29.7398 H   0  0  0  0  0  0  0  0  0  0  0  0
    1.9404   15.7852  -29.7398 H   0  0  0  0  0  0  0  0  0  0  0  0
   -1.2270   17.6117  -27.0094 H   0  0  0  0  0  0  0  0  0  0  0  0
   -1.9914   19.9792  -27.2438 H   0  0  0  0  0  0  0  0  0  0  0  0
    1.1447   22.8403  -27.5569 H   0  0  0  0  0  0  0  0  0  0  0  0
    0.4315   25.2058  -27.8500 H   0  0  0  0  0  0  0  0  0  0  0  0
   -3.2510   22.5050  -31.8850 H   0  0  0  0  0  0  0  0  0  0  0  0
   -6.4404   23.6964  -30.4481 H   0  0  0  0  0  0  0  0  0  0  0  0
   -8.6752   22.7353  -30.9424 H   0  0  0  0  0  0  0  0  0  0  0  0
   -7.2555   19.1912  -34.1926 H   0  0  0  0  0  0  0  0  0  0  0  0
   -5.9603   18.4843  -33.1642 H   0  0  0  0  0  0  0  0  0  0  0  0
   -8.1318   17.2627  -32.9455 H   0  0  0  0  0  0  0  0  0  0  0  0
   -7.5772   18.0294  -31.3869 H   0  0  0  0  0  0  0  0  0  0  0  0
   -9.9873   18.5713  -33.0515 H   0  0  0  0  0  0  0  0  0  0  0  0
   -9.6827   18.7084  -31.2438 H   0  0  0  0  0  0  0  0  0  0  0  0
   -9.4822   20.7683  -33.3900 H   0  0  0  0  0  0  0  0  0  0  0  0
   -9.9602   20.8848  -31.6337 H   0  0  0  0  0  0  0  0  0  0  0  0
   -2.4904   21.5111  -29.5050 H   0  0  0  0  0  0  0  0  0  0  0  0
  1  2  1  0
  2  3  1  0
  2  4  1  0
  4  5  2  0
  5  6  1  0
  6  7  2  0
  7  8  1  0
  8  9  2  0
  9 10  1  0
 10 11  2  0
 11 12  1  0
 11 13  1  0
 13 14  1  0
 14 15  2  0
 14 16  2  0
 14 17  1  0
 17 18  1  0
 18 19  2  0
 19 20  1  0
 20 21  2  0
 21 22  1  0
 22 23  2  0
 23 24  1  0
 24 25  2  0
 24 26  1  0
 22 27  1  0
 27 28  1  0
 28 29  1  0
 29 30  1  0
 13 31  2  0
  7 32  1  0
 32 33  2  0
 33  4  1  0
 31  8  1  0
 23 18  1  0
 30 21  1  0
  1 34  1  0
  1 35  1  0
  1 36  1  0
  3 37  1  0
  3 38  1  0
  3 39  1  0
  5 40  1  0
  6 41  1  0
  9 42  1  0
 10 43  1  0
 17 44  1  0
 19 45  1  0
 20 46  1  0
 27 47  1  0
 27 48  1  0
 28 49  1  0
 28 50  1  0
 29 51  1  0
 29 52  1  0
 30 53  1  0
 30 54  1  0
 31 55  1  0
M  CHG  2  12  -1  26  -1
M  END
>  <UniqueID>  (9) 
9

>  <SMILES>  (9) 
CN(C)c1ccc(-c2ccc([O-])c(S(=O)(=O)Nc3ccc4c(c3C(=O)[O-])CCCC4)c2)nn1

>  <Energy>  (9) 
81.84242928051141

>  <Genealogy>  (9) 
CN(C)c1ccc(-c2ccc([O-])c(S(=O)(=O)Nc3ccc4c(c3C(=O)[O-])CCCC4)c2)nn1 (protonated)
CN(C)c1ccc(-c2ccc([O-])c(S(=O)(=O)Nc3ccc4c(c3C(=O)[O-])CCCC4)c2)nn1 (3D coordinates assigned)
CN(C)c1ccc(-c2ccc([O-])c(S(=O)(=O)Nc3ccc4c(c3C(=O)[O-])CCCC4)c2)nn1 (nonaromatic ring conformer: 81.84242928051141 kcal/mol)

>  <smiles>  (9) 
CN(C)c1ccc(-c2ccc(O)c(S(=O)(=O)Nc3ccc4c(c3C(=O)O)CCCC4)c2)nn1

>  <score_type>  (9) 
oracle

>  <origin>  (9) 
adgpu

>  <m_score__min__energy>  (9) 
-13.75

>  <m_primary>  (9) 
energy

$$$$
9:0
     RDKit          3D

 63 66  0  0  0  0  0  0  0  0999 V2000
    0.2330   20.5350  -31.6880 C   0  0  0  0  0  0  0  0  0  0  0  0
   -1.1640   21.0750  -31.7920 C   0  0  0  0  0  0  0  0  0  0  0  0
   -1.9280   20.8170  -32.9420 C   0  0  0  0  0  0  0  0  0  0  0  0
   -3.2080   21.3600  -33.0700 C   0  0  0  0  0  0  0  0  0  0  0  0
   -3.7320   22.1720  -32.0590 C   0  0  0  0  0  0  0  0  0  0  0  0
   -2.9800   22.4490  -30.9110 C   0  0  0  0  0  0  0  0  0  0  0  0
   -3.5100   23.3620  -29.9450 N   0  0  0  0  0  0  0  0  0  0  0  0
   -3.3040   24.7810  -29.9520 C   0  0  0  0  0  0  0  0  0  0  0  0
   -2.3310   25.2910  -29.3340 O   0  0  0  0  0  0  0  0  0  0  0  0
   -4.2420   25.6310  -30.6090 N   0  0  0  0  0  0  0  0  0  0  0  0
   -5.6760   25.4990  -30.3840 C   0  0  0  0  0  0  0  0  0  0  0  0
   -6.1210   24.1510  -30.8820 C   0  0  0  0  0  0  0  0  0  0  0  0
   -6.4630   23.1430  -29.9670 C   0  0  0  0  0  0  0  0  0  0  0  0
   -7.0010   21.9350  -30.4170 C   0  0  0  0  0  0  0  0  0  0  0  0
   -7.2060   21.7160  -31.7910 C   0  0  0  0  0  0  0  0  0  0  0  0
   -7.7910   20.5340  -32.2670 O   0  0  0  0  0  0  0  0  0  0  0  0
   -7.0820   19.3860  -32.6450 C   0  0  0  0  0  0  0  0  0  0  0  0
   -6.4080   19.3720  -33.8710 C   0  0  0  0  0  0  0  0  0  0  0  0
   -5.6930   18.2350  -34.2730 C   0  0  0  0  0  0  0  0  0  0  0  0
   -5.6270   17.1110  -33.4370 C   0  0  0  0  0  0  0  0  0  0  0  0
   -4.7080   15.6820  -33.9210 S   0  0  0  0  0  0  0  0  0  0  0  0
   -3.5750   15.4890  -32.9500 O   0  0  0  0  0  0  0  0  0  0  0  0
   -4.1190   15.9010  -35.2880 O   0  0  0  0  0  0  0  0  0  0  0  0
   -5.6970   14.2430  -33.9390 N   0  0  0  0  0  0  0  0  0  0  0  0
   -4.9890   13.1360  -34.6130 C   0  0  0  0  0  0  0  0  0  0  0  0
   -5.9510   12.0000  -35.0400 C   0  0  0  0  0  0  0  0  0  0  0  0
   -7.2220   12.0150  -34.2850 N   0  0  0  0  0  0  0  0  0  0  0  0
   -7.0320   11.5760  -32.8910 C   0  0  0  0  0  0  0  0  0  0  0  0
   -7.9300   13.3170  -34.3810 C   0  0  0  0  0  0  0  0  0  0  0  0
   -6.9830   14.5110  -34.5900 C   0  0  0  0  0  0  0  0  0  0  0  0
   -6.2790   17.1370  -32.1960 C   0  0  0  0  0  0  0  0  0  0  0  0
   -7.0030   18.2650  -31.8010 C   0  0  0  0  0  0  0  0  0  0  0  0
   -6.8670   22.7230  -32.7030 C   0  0  0  0  0  0  0  0  0  0  0  0
   -6.3300   23.9340  -32.2520 C   0  0  0  0  0  0  0  0  0  0  0  0
   -1.6870   21.9060  -30.7820 C   0  0  0  0  0  0  0  0  0  0  0  0
    0.5072   20.4290  -30.6280 H   0  0  0  0  0  0  0  0  0  0  0  0
    0.2839   19.5524  -32.1799 H   0  0  0  0  0  0  0  0  0  0  0  0
    0.9315   21.2279  -32.1799 H   0  0  0  0  0  0  0  0  0  0  0  0
   -1.5170   20.1857  -33.7436 H   0  0  0  0  0  0  0  0  0  0  0  0
   -3.8060   21.1485  -33.9687 H   0  0  0  0  0  0  0  0  0  0  0  0
   -4.7414   22.5957  -32.1665 H   0  0  0  0  0  0  0  0  0  0  0  0
   -5.8914   25.5858  -29.3088 H   0  0  0  0  0  0  0  0  0  0  0  0
   -6.2142   26.2933  -30.9220 H   0  0  0  0  0  0  0  0  0  0  0  0
   -6.3066   23.3051  -28.8903 H   0  0  0  0  0  0  0  0  0  0  0  0
   -7.2658   21.1507  -29.6927 H   0  0  0  0  0  0  0  0  0  0  0  0
   -6.4392   20.2576  -34.5228 H   0  0  0  0  0  0  0  0  0  0  0  0
   -5.1822   18.2245  -35.2472 H   0  0  0  0  0  0  0  0  0  0  0  0
   -4.4866   13.5301  -35.5087 H   0  0  0  0  0  0  0  0  0  0  0  0
   -4.2647   12.7149  -33.9002 H   0  0  0  0  0  0  0  0  0  0  0  0
   -6.1763   12.1135  -36.1107 H   0  0  0  0  0  0  0  0  0  0  0  0
   -5.4503   11.0436  -34.8289 H   0  0  0  0  0  0  0  0  0  0  0  0
   -7.3744   12.3670  -32.2076 H   0  0  0  0  0  0  0  0  0  0  0  0
   -7.6142   10.6599  -32.7125 H   0  0  0  0  0  0  0  0  0  0  0  0
   -5.9657   11.3734  -32.7125 H   0  0  0  0  0  0  0  0  0  0  0  0
   -8.6285   13.2728  -35.2296 H   0  0  0  0  0  0  0  0  0  0  0  0
   -8.4491   13.4767  -33.4245 H   0  0  0  0  0  0  0  0  0  0  0  0
   -6.8221   14.6656  -35.6671 H   0  0  0  0  0  0  0  0  0  0  0  0
   -7.4326   15.4133  -34.1498 H   0  0  0  0  0  0  0  0  0  0  0  0
   -6.2202   16.2641  -31.5292 H   0  0  0  0  0  0  0  0  0  0  0  0
   -7.5128   18.2756  -30.8263 H   0  0  0  0  0  0  0  0  0  0  0  0
   -7.0236   22.5613  -33.7797 H   0  0  0  0  0  0  0  0  0  0  0  0
   -6.0703   24.7203  -32.9760 H   0  0  0  0  0  0  0  0  0  0  0  0
   -1.0839   22.1314  -29.8901 H   0  0  0  0  0  0  0  0  0  0  0  0
  1  2  1  0
  2  3  2  0
  3  4  1  0
  4  5  2  0
  5  6  1  0
  6  7  1  0
  7  8  1  0
  8  9  2  0
  8 10  1  0
 10 11  1  0
 11 12  1  0
 12 13  2  0
 13 14  1  0
 14 15  2  0
 15 16  1  0
 16 17  1  0
 17 18  2  0
 18 19  1  0
 19 20  2  0
 20 21  1  0
 21 22  2  0
 21 23  2  0
 21 24  1  0
 24 25  1  0
 25 26  1  0
 26 27  1  0
 27 28  1  0
 27 29  1  0
 29 30  1  0
 20 31  1  0
 31 32  2  0
 15 33  1  0
 33 34  2  0
  6 35  2  0
 35  2  1  0
 34 12  1  0
 32 17  1  0
 30 24  1  0
  1 36  1  0
  1 37  1  0
  1 38  1  0
  3 39  1  0
  4 40  1  0
  5 41  1  0
 11 42  1  0
 11 43  1  0
 13 44  1  0
 14 45  1  0
 18 46  1  0
 19 47  1  0
 25 48  1  0
 25 49  1  0
 26 50  1  0
 26 51  1  0
 28 52  1  0
 28 53  1  0
 28 54  1  0
 29 55  1  0
 29 56  1  0
 30 57  1  0
 30 58  1  0
 31 59  1  0
 32 60  1  0
 33 61  1  0
 34 62  1  0
 35 63  1  0
M  CHG  2   7  -1  10  -1
M  END
>  <UniqueID>  (10) 
10

>  <SMILES>  (10) 
Cc1cccc([N-]C(=O)[N-]Cc2ccc(Oc3ccc(S(=O)(=O)N4CCN(C)CC4)cc3)cc2)c1

>  <Energy>  (10) 
89.24438512915488

>  <Genealogy>  (10) 
Cc1cccc([N-]C(=O)[N-]Cc2ccc(Oc3ccc(S(=O)(=O)N4CCN(C)CC4)cc3)cc2)c1 (protonated)
Cc1cccc([N-]C(=O)[N-]Cc2ccc(Oc3ccc(S(=O)(=O)N4CCN(C)CC4)cc3)cc2)c1 (3D coordinates assigned)
Cc1cccc([N-]C(=O)[N-]Cc2ccc(Oc3ccc(S(=O)(=O)N4CCN(C)CC4)cc3)cc2)c1 (nonaromatic ring conformer: 89.24438512915488 kcal/mol)

>  <smiles>  (10) 
Cc1cccc(NC(=O)NCc2ccc(Oc3ccc(S(=O)(=O)N4CCN(C)CC4)cc3)cc2)c1

>  <score_type>  (10) 
oracle

>  <origin>  (10) 
adgpu

>  <m_score__min__energy>  (10) 
-13.210000000000001

>  <m_primary>  (10) 
energy

$$$$
10:0
     RDKit          3D

 31 32  0  0  0  0  0  0  0  0999 V2000
   -9.4840   19.2730  -32.3870 C   0  0  0  0  0  0  0  0  0  0  0  0
   -8.7070   20.4110  -32.9070 N   0  0  0  0  0  0  0  0  0  0  0  0
   -8.8850   21.6370  -32.1100 C   0  0  0  0  0  0  0  0  0  0  0  0
   -8.1690   21.5640  -30.7530 C   0  0  0  0  0  0  0  0  0  0  0  0
   -6.7520   21.1860  -30.8760 N   0  0  0  0  0  0  0  0  0  0  0  0
   -5.6550   22.5280  -31.1450 S   0  0  0  0  0  0  0  0  0  0  0  0
   -5.6860   22.9330  -32.5910 O   0  0  0  0  0  0  0  0  0  0  0  0
   -6.1620   23.7020  -30.3550 O   0  0  0  0  0  0  0  0  0  0  0  0
   -3.9910   22.2180  -30.6220 C   0  0  0  0  0  0  0  0  0  0  0  0
   -3.5240   20.8970  -30.5150 C   0  0  0  0  0  0  0  0  0  0  0  0
   -2.2360   20.7830  -30.0150 C   0  0  0  0  0  0  0  0  0  0  0  0
   -1.6780   22.3260  -29.6800 S   0  0  0  0  0  0  0  0  0  0  0  0
   -3.0520   23.1660  -30.1710 C   0  0  0  0  0  0  0  0  0  0  0  0
   -3.1500   24.6360  -30.0890 C   0  0  0  0  0  0  0  0  0  0  0  0
   -2.3620   25.2690  -29.3380 O   0  0  0  0  0  0  0  0  0  0  0  0
   -4.0600   25.3510  -30.8510 O   0  0  0  0  0  0  0  0  0  0  0  0
   -6.5070   20.0260  -31.7540 C   0  0  0  0  0  0  0  0  0  0  0  0
   -7.2800   20.0900  -33.0840 C   0  0  0  0  0  0  0  0  0  0  0  0
   -9.4710   19.2921  -31.2872 H   0  0  0  0  0  0  0  0  0  0  0  0
  -10.5224   19.3449  -32.7427 H   0  0  0  0  0  0  0  0  0  0  0  0
   -9.0389   18.3320  -32.7427 H   0  0  0  0  0  0  0  0  0  0  0  0
   -8.4808   22.4885  -32.6771 H   0  0  0  0  0  0  0  0  0  0  0  0
   -9.9610   21.7562  -31.9148 H   0  0  0  0  0  0  0  0  0  0  0  0
   -8.2290   22.5506  -30.2703 H   0  0  0  0  0  0  0  0  0  0  0  0
   -8.6687   20.7869  -30.1560 H   0  0  0  0  0  0  0  0  0  0  0  0
   -4.1301   20.0257  -30.8040 H   0  0  0  0  0  0  0  0  0  0  0  0
   -1.6797   19.8460  -29.8650 H   0  0  0  0  0  0  0  0  0  0  0  0
   -5.4311   19.9798  -31.9782 H   0  0  0  0  0  0  0  0  0  0  0  0
   -6.8593   19.1329  -31.2170 H   0  0  0  0  0  0  0  0  0  0  0  0
   -6.8229   20.8640  -33.7180 H   0  0  0  0  0  0  0  0  0  0  0  0
   -7.2223   19.0933  -33.5457 H   0  0  0  0  0  0  0  0  0  0  0  0
  1  2  1  0
  2  3  1  0
  3  4  1  0
  4  5  1  0
  5  6  1  0
  6  7  2  0
  6  8  2  0
  6  9  1  0
  9 10  1  0
 10 11  2  0
 11 12  1  0
 12 13  1  0
 13 14  1  0
 14 15  2  0
 14 16  1  0
  5 17  1  0
 17 18  1  0
 18  2  1  0
 13  9  2  0
  1 19  1  0
  1 20  1  0
  1 21  1  0
  3 22  1  0
  3 23  1  0
  4 24  1  0
  4 25  1  0
 10 26  1  0
 11 27  1  0
 17 28  1  0
 17 29  1  0
 18 30  1  0
 18 31  1  0
M  CHG  1  16  -1
M  END
>  <UniqueID>  (11) 
11

>  <SMILES>  (11) 
CN1CCN(S(=O)(=O)c2ccsc2C(=O)[O-])CC1

>  <Energy>  (11) 
67.79370233799708

>  <Genealogy>  (11) 
CN1CCN(S(=O)(=O)c2ccsc2C(=O)[O-])CC1 (protonated)
CN1CCN(S(=O)(=O)c2ccsc2C(=O)[O-])CC1 (3D coordinates assigned)
CN1CCN(S(=O)(=O)c2ccsc2C(=O)[O-])CC1 (nonaromatic ring conformer: 67.79370233799708 kcal/mol)

>  <smiles>  (11) 
CN1CCN(S(=O)(=O)c2ccsc2C(=O)O)CC1

>  <score_type>  (11) 
oracle

>  <origin>  (11) 
adgpu

>  <m_score__min__energy>  (11) 
-9.3599999999999994

>  <m_primary>  (11) 
energy

$$$$
11:0
     RDKit          3D

 54 57  0  0  0  0  0  0  0  0999 V2000
   -0.8680   26.5010  -27.9420 C   0  0  0  0  0  0  0  0  0  0  0  0
   -1.1860   25.0460  -27.8540 C   0  0  0  0  0  0  0  0  0  0  0  0
   -0.7790   24.2400  -26.8510 N   0  0  0  0  0  0  0  0  0  0  0  0
   -1.3110   23.0400  -27.0580 N   0  0  0  0  0  0  0  0  0  0  0  0
   -1.1060   21.9030  -26.1680 C   0  0  0  0  0  0  0  0  0  0  0  0
   -2.0600   23.0560  -28.1820 C   0  0  0  0  0  0  0  0  0  0  0  0
   -2.8730   21.9080  -28.7020 C   0  0  0  0  0  0  0  0  0  0  0  0
   -2.0020   24.3320  -28.7040 C   0  0  0  0  0  0  0  0  0  0  0  0
   -2.7540   24.8540  -29.8000 N   0  0  0  0  0  0  0  0  0  0  0  0
   -4.4830   24.8810  -29.7500 S   0  0  0  0  0  0  0  0  0  0  0  0
   -4.9310   24.9270  -28.3160 O   0  0  0  0  0  0  0  0  0  0  0  0
   -5.0040   26.1050  -30.4490 O   0  0  0  0  0  0  0  0  0  0  0  0
   -5.1070   23.4200  -30.5160 C   0  0  0  0  0  0  0  0  0  0  0  0
   -6.4150   22.9980  -30.2510 C   0  0  0  0  0  0  0  0  0  0  0  0
   -6.8960   21.8020  -30.7910 C   0  0  0  0  0  0  0  0  0  0  0  0
   -6.0710   21.0030  -31.6030 C   0  0  0  0  0  0  0  0  0  0  0  0
   -6.5750   19.7190  -32.1540 C   0  0  0  0  0  0  0  0  0  0  0  0
   -7.9160   19.3430  -31.9790 C   0  0  0  0  0  0  0  0  0  0  0  0
   -8.3700   18.1370  -32.5120 C   0  0  0  0  0  0  0  0  0  0  0  0
   -7.5200   17.3320  -33.1990 N   0  0  0  0  0  0  0  0  0  0  0  0
   -6.2130   17.6550  -33.3970 C   0  0  0  0  0  0  0  0  0  0  0  0
   -5.3620   16.7570  -34.1410 N   0  0  0  0  0  0  0  0  0  0  0  0
   -4.4270   17.3060  -35.1310 C   0  0  0  0  0  0  0  0  0  0  0  0
   -3.2380   16.3580  -35.3250 C   0  0  0  0  0  0  0  0  0  0  0  0
   -3.6800   15.0390  -35.5820 O   0  0  0  0  0  0  0  0  0  0  0  0
   -4.3400   14.5340  -34.4370 C   0  0  0  0  0  0  0  0  0  0  0  0
   -5.6310   15.3110  -34.1670 C   0  0  0  0  0  0  0  0  0  0  0  0
   -5.7200   18.8610  -32.8660 C   0  0  0  0  0  0  0  0  0  0  0  0
   -4.7590   21.4330  -31.8700 C   0  0  0  0  0  0  0  0  0  0  0  0
   -4.2780   22.6310  -31.3310 C   0  0  0  0  0  0  0  0  0  0  0  0
   -3.0010   23.0080  -31.5920 F   0  0  0  0  0  0  0  0  0  0  0  0
   -0.7768   26.9183  -26.9283 H   0  0  0  0  0  0  0  0  0  0  0  0
    0.0811   26.6369  -28.4813 H   0  0  0  0  0  0  0  0  0  0  0  0
   -1.6738   27.0205  -28.4813 H   0  0  0  0  0  0  0  0  0  0  0  0
   -1.1668   22.2400  -25.1227 H   0  0  0  0  0  0  0  0  0  0  0  0
   -1.8822   21.1463  -26.3550 H   0  0  0  0  0  0  0  0  0  0  0  0
   -0.1144   21.4651  -26.3550 H   0  0  0  0  0  0  0  0  0  0  0  0
   -3.2796   21.3339  -27.8564 H   0  0  0  0  0  0  0  0  0  0  0  0
   -3.7008   22.2931  -29.3155 H   0  0  0  0  0  0  0  0  0  0  0  0
   -2.2349   21.2550  -29.3155 H   0  0  0  0  0  0  0  0  0  0  0  0
   -7.0686   23.6116  -29.6136 H   0  0  0  0  0  0  0  0  0  0  0  0
   -7.9273   21.4832  -30.5794 H   0  0  0  0  0  0  0  0  0  0  0  0
   -8.6054   19.9964  -31.4242 H   0  0  0  0  0  0  0  0  0  0  0  0
   -9.4195   17.8373  -32.3754 H   0  0  0  0  0  0  0  0  0  0  0  0
   -4.9490   17.4341  -36.0907 H   0  0  0  0  0  0  0  0  0  0  0  0
   -4.0549   18.2766  -34.7711 H   0  0  0  0  0  0  0  0  0  0  0  0
   -2.6340   16.7074  -36.1753 H   0  0  0  0  0  0  0  0  0  0  0  0
   -2.6380   16.3539  -34.4030 H   0  0  0  0  0  0  0  0  0  0  0  0
   -4.5844   13.4739  -34.5998 H   0  0  0  0  0  0  0  0  0  0  0  0
   -3.6738   14.6443  -33.5686 H   0  0  0  0  0  0  0  0  0  0  0  0
   -6.3592   15.0918  -34.9618 H   0  0  0  0  0  0  0  0  0  0  0  0
   -6.0346   15.0050  -33.1905 H   0  0  0  0  0  0  0  0  0  0  0  0
   -4.6636   19.1326  -33.0085 H   0  0  0  0  0  0  0  0  0  0  0  0
   -4.1047   20.8215  -32.5088 H   0  0  0  0  0  0  0  0  0  0  0  0
  1  2  1  0
  2  3  2  0
  3  4  1  0
  4  5  1  0
  4  6  1  0
  6  7  1  0
  6  8  2  0
  8  9  1  0
  9 10  1  0
 10 11  2  0
 10 12  2  0
 10 13  1  0
 13 14  2  0
 14 15  1  0
 15 16  2  0
 16 17  1  0
 17 18  2  0
 18 19  1  0
 19 20  2  0
 20 21  1  0
 21 22  1  0
 22 23  1  0
 23 24  1  0
 24 25  1  0
 25 26  1  0
 26 27  1  0
 21 28  2  0
 16 29  1  0
 29 30  2  0
 30 31  1  0
  8  2  1  0
 30 13  1  0
 28 17  1  0
 27 22  1  0
  1 32  1  0
  1 33  1  0
  1 34  1  0
  5 35  1  0
  5 36  1  0
  5 37  1  0
  7 38  1  0
  7 39  1  0
  7 40  1  0
 14 41  1  0
 15 42  1  0
 18 43  1  0
 19 44  1  0
 23 45  1  0
 23 46  1  0
 24 47  1  0
 24 48  1  0
 26 49  1  0
 26 50  1  0
 27 51  1  0
 27 52  1  0
 28 53  1  0
 29 54  1  0
M  CHG  1   9  -1
M  END
>  <UniqueID>  (12) 
12

>  <SMILES>  (12) 
Cc1nn(C)c(C)c1[N-]S(=O)(=O)c1ccc(-c2ccnc(N3CCOCC3)c2)cc1F

>  <Energy>  (12) 
104.43679146174095

>  <Genealogy>  (12) 
Cc1nn(C)c(C)c1[N-]S(=O)(=O)c1ccc(-c2ccnc(N3CCOCC3)c2)cc1F (protonated)
Cc1nn(C)c(C)c1[N-]S(=O)(=O)c1ccc(-c2ccnc(N3CCOCC3)c2)cc1F (3D coordinates assigned)
Cc1nn(C)c(C)c1[N-]S(=O)(=O)c1ccc(-c2ccnc(N3CCOCC3)c2)cc1F (nonaromatic ring conformer: 104.43679146174095 kcal/mol)

>  <smiles>  (12) 
Cc1nn(C)c(C)c1NS(=O)(=O)c1ccc(-c2ccnc(N3CCOCC3)c2)cc1F

>  <score_type>  (12) 
oracle

>  <origin>  (12) 
adgpu

>  <m_score__min__energy>  (12) 
-9.9499999999999993

>  <m_primary>  (12) 
energy

$$$$
12:0
     RDKit          3D

 63 66  0  0  0  0  0  0  0  0999 V2000
   -3.3340   23.9510  -28.0810 O   0  0  0  0  0  0  0  0  0  0  0  0
   -2.8340   24.2710  -29.4620 S   0  0  0  0  0  0  0  0  0  0  0  0
   -1.7470   25.3020  -29.3560 O   0  0  0  0  0  0  0  0  0  0  0  0
   -4.1230   24.8950  -30.4380 N   0  0  0  0  0  0  0  0  0  0  0  0
   -5.3120   24.1470  -30.7190 C   0  0  0  0  0  0  0  0  0  0  0  0
   -5.9190   23.3400  -29.7420 C   0  0  0  0  0  0  0  0  0  0  0  0
   -7.0170   22.5440  -30.0700 C   0  0  0  0  0  0  0  0  0  0  0  0
   -7.5100   22.5300  -31.3810 C   0  0  0  0  0  0  0  0  0  0  0  0
   -8.7950   21.4020  -31.8100 S   0  0  0  0  0  0  0  0  0  0  0  0
   -9.8630   22.1150  -32.5940 O   0  0  0  0  0  0  0  0  0  0  0  0
   -9.4000   20.8590  -30.5450 O   0  0  0  0  0  0  0  0  0  0  0  0
   -8.1420   20.0910  -32.7680 N   0  0  0  0  0  0  0  0  0  0  0  0
   -8.3210   18.8040  -32.0500 C   0  0  0  0  0  0  0  0  0  0  0  0
   -7.3680   17.7240  -32.5750 C   0  0  0  0  0  0  0  0  0  0  0  0
   -5.9000   18.1260  -32.3510 C   0  0  0  0  0  0  0  0  0  0  0  0
   -5.7050   19.6520  -32.2870 C   0  0  0  0  0  0  0  0  0  0  0  0
   -6.7350   20.3800  -33.1670 C   0  0  0  0  0  0  0  0  0  0  0  0
   -6.9320   23.3660  -32.3480 C   0  0  0  0  0  0  0  0  0  0  0  0
   -5.8490   24.1830  -32.0120 C   0  0  0  0  0  0  0  0  0  0  0  0
   -2.1860   22.8300  -30.2450 C   0  0  0  0  0  0  0  0  0  0  0  0
   -2.9250   22.1940  -31.2510 C   0  0  0  0  0  0  0  0  0  0  0  0
   -2.4530   21.0150  -31.8340 C   0  0  0  0  0  0  0  0  0  0  0  0
   -1.2400   20.4520  -31.4090 C   0  0  0  0  0  0  0  0  0  0  0  0
   -0.6310   18.9790  -32.1690 S   0  0  0  0  0  0  0  0  0  0  0  0
    0.2860   18.2680  -31.2100 O   0  0  0  0  0  0  0  0  0  0  0  0
   -1.7870   18.0650  -32.4750 O   0  0  0  0  0  0  0  0  0  0  0  0
    0.2220   19.3340  -33.6550 N   0  0  0  0  0  0  0  0  0  0  0  0
    1.5060   20.0110  -33.3670 C   0  0  0  0  0  0  0  0  0  0  0  0
    2.0420   20.7510  -34.5980 C   0  0  0  0  0  0  0  0  0  0  0  0
    1.0730   21.8660  -35.0310 C   0  0  0  0  0  0  0  0  0  0  0  0
   -0.3930   21.5520  -34.6760 C   0  0  0  0  0  0  0  0  0  0  0  0
   -0.6480   20.0370  -34.6290 C   0  0  0  0  0  0  0  0  0  0  0  0
   -0.5120   21.0750  -30.3860 C   0  0  0  0  0  0  0  0  0  0  0  0
   -0.9760   22.2640  -29.8160 C   0  0  0  0  0  0  0  0  0  0  0  0
   -5.5269   23.3357  -28.7143 H   0  0  0  0  0  0  0  0  0  0  0  0
   -7.4968   21.9258  -29.2969 H   0  0  0  0  0  0  0  0  0  0  0  0
   -8.7150   20.0520  -33.6450 H   0  0  0  0  0  0  0  0  0  0  0  0
   -8.1245   18.9628  -30.9794 H   0  0  0  0  0  0  0  0  0  0  0  0
   -9.3528   18.4602  -32.2149 H   0  0  0  0  0  0  0  0  0  0  0  0
   -7.5672   16.7806  -32.0455 H   0  0  0  0  0  0  0  0  0  0  0  0
   -7.5368   17.6035  -33.6553 H   0  0  0  0  0  0  0  0  0  0  0  0
   -5.5557   17.6871  -31.4029 H   0  0  0  0  0  0  0  0  0  0  0  0
   -5.3188   17.7524  -33.2070 H   0  0  0  0  0  0  0  0  0  0  0  0
   -5.8228   19.9857  -31.2455 H   0  0  0  0  0  0  0  0  0  0  0  0
   -4.6976   19.8910  -32.6584 H   0  0  0  0  0  0  0  0  0  0  0  0
   -6.5624   21.4634  -33.0871 H   0  0  0  0  0  0  0  0  0  0  0  0
   -6.6026   20.0209  -34.1983 H   0  0  0  0  0  0  0  0  0  0  0  0
   -7.3319   23.3785  -33.3726 H   0  0  0  0  0  0  0  0  0  0  0  0
   -5.4166   24.8570  -32.7661 H   0  0  0  0  0  0  0  0  0  0  0  0
   -3.8811   22.6246  -31.5834 H   0  0  0  0  0  0  0  0  0  0  0  0
   -3.0348   20.5262  -32.6294 H   0  0  0  0  0  0  0  0  0  0  0  0
    1.3531   20.7354  -32.5535 H   0  0  0  0  0  0  0  0  0  0  0  0
    2.2414   19.2457  -33.0782 H   0  0  0  0  0  0  0  0  0  0  0  0
    3.0180   21.1960  -34.3545 H   0  0  0  0  0  0  0  0  0  0  0  0
    2.1441   20.0323  -35.4244 H   0  0  0  0  0  0  0  0  0  0  0  0
    1.3643   22.8000  -34.5283 H   0  0  0  0  0  0  0  0  0  0  0  0
    1.1376   21.9553  -36.1255 H   0  0  0  0  0  0  0  0  0  0  0  0
   -0.6228   21.9841  -33.6909 H   0  0  0  0  0  0  0  0  0  0  0  0
   -1.0377   21.9870  -35.4539 H   0  0  0  0  0  0  0  0  0  0  0  0
   -1.6979   19.8666  -34.3484 H   0  0  0  0  0  0  0  0  0  0  0  0
   -0.4195   19.6333  -35.6264 H   0  0  0  0  0  0  0  0  0  0  0  0
    0.4276   20.6268  -30.0305 H   0  0  0  0  0  0  0  0  0  0  0  0
   -0.3897   22.7583  -29.0274 H   0  0  0  0  0  0  0  0  0  0  0  0
  1  2  2  0
  2  3  2  0
  2  4  1  0
  4  5  1  0
  5  6  2  0
  6  7  1  0
  7  8  2  0
  8  9  1  0
  9 10  2  0
  9 11  2  0
  9 12  1  0
 12 13  1  0
 13 14  1  0
 14 15  1  0
 15 16  1  0
 16 17  1  0
  8 18  1  0
 18 19  2  0
  2 20  1  0
 20 21  2  0
 21 22  1  0
 22 23  2  0
 23 24  1  0
 24 25  2  0
 24 26  2  0
 24 27  1  0
 27 28  1  0
 28 29  1  0
 29 30  1  0
 30 31  1  0
 31 32  1  0
 23 33  1  0
 33 34  2  0
 19  5  1  0
 34 20  1  0
 17 12  1  0
 32 27  1  0
  6 35  1  0
  7 36  1  0
 12 37  1  0
 13 38  1  0
 13 39  1  0
 14 40  1  0
 14 41  1  0
 15 42  1  0
 15 43  1  0
 16 44  1  0
 16 45  1  0
 17 46  1  0
 17 47  1  0
 18 48  1  0
 19 49  1  0
 21 50  1  0
 22 51  1  0
 28 52  1  0
 28 53  1  0
 29 54  1  0
 29 55  1  0
 30 56  1  0
 30 57  1  0
 31 58  1  0
 31 59  1  0
 32 60  1  0
 32 61  1  0
 33 62  1  0
 34 63  1  0
M  CHG  2   4  -1  12   1
M  END
>  <UniqueID>  (13) 
13

>  <SMILES>  (13) 
O=S(=O)([N-]c1ccc(S(=O)(=O)[NH+]2CCCCC2)cc1)c1ccc(S(=O)(=O)N2CCCCC2)cc1

>  <Energy>  (13) 
78.35561302761855

>  <Genealogy>  (13) 
O=S(=O)([N-]c1ccc(S(=O)(=O)[NH+]2CCCCC2)cc1)c1ccc(S(=O)(=O)N2CCCCC2)cc1 (protonated)
O=S(=O)([N-]c1ccc(S(=O)(=O)[NH+]2CCCCC2)cc1)c1ccc(S(=O)(=O)N2CCCCC2)cc1 (3D coordinates assigned)
O=S(=O)([N-]c1ccc(S(=O)(=O)[NH+]2CCCCC2)cc1)c1ccc(S(=O)(=O)N2CCCCC2)cc1 (nonaromatic ring conformer: 78.35561302761855 kcal/mol)

>  <smiles>  (13) 
O=S(=O)(Nc1ccc(S(=O)(=O)N2CCCCC2)cc1)c1ccc(S(=O)(=O)N2CCCCC2)cc1

>  <score_type>  (13) 
oracle

>  <origin>  (13) 
adgpu

>  <m_score__min__energy>  (13) 
-13.039999999999999

>  <m_primary>  (13) 
energy

$$$$
13:0
     RDKit          3D

 50 53  0  0  0  0  0  0  0  0999 V2000
    1.0160   22.8640  -23.9650 O   0  0  0  0  0  0  0  0  0  0  0  0
    0.1100   23.2570  -24.7450 C   0  0  0  0  0  0  0  0  0  0  0  0
   -0.5090   24.6120  -24.5670 C   0  0  0  0  0  0  0  0  0  0  0  0
   -0.9350   25.2030  -25.9200 C   0  0  0  0  0  0  0  0  0  0  0  0
   -1.6910   24.2050  -26.7640 C   0  0  0  0  0  0  0  0  0  0  0  0
   -2.6420   24.6420  -27.6980 C   0  0  0  0  0  0  0  0  0  0  0  0
   -3.2820   23.7230  -28.5420 C   0  0  0  0  0  0  0  0  0  0  0  0
   -4.4970   24.2710  -29.7000 S   0  0  0  0  0  0  0  0  0  0  0  0
   -5.6230   24.9420  -28.9610 O   0  0  0  0  0  0  0  0  0  0  0  0
   -3.8780   25.2830  -30.6230 O   0  0  0  0  0  0  0  0  0  0  0  0
   -5.1310   22.9400  -30.6400 N   0  0  0  0  0  0  0  0  0  0  0  0
   -6.3290   23.3660  -31.3870 C   0  0  0  0  0  0  0  0  0  0  0  0
   -7.0220   22.1430  -32.0060 C   0  0  0  0  0  0  0  0  0  0  0  0
   -6.0310   21.1520  -32.4470 N   0  0  0  0  0  0  0  0  0  0  0  0
   -6.4230   19.7830  -32.6670 C   0  0  0  0  0  0  0  0  0  0  0  0
   -7.6580   19.3160  -32.1890 C   0  0  0  0  0  0  0  0  0  0  0  0
   -8.0530   17.9970  -32.4250 C   0  0  0  0  0  0  0  0  0  0  0  0
   -7.2200   17.1310  -33.1360 C   0  0  0  0  0  0  0  0  0  0  0  0
   -5.9710   17.5720  -33.6070 C   0  0  0  0  0  0  0  0  0  0  0  0
   -5.0930   16.6540  -34.4180 C   0  0  0  0  0  0  0  0  0  0  0  0
   -5.7350   15.4400  -34.5840 F   0  0  0  0  0  0  0  0  0  0  0  0
   -3.8840   16.4400  -33.7810 F   0  0  0  0  0  0  0  0  0  0  0  0
   -4.8350   17.2010  -35.6630 F   0  0  0  0  0  0  0  0  0  0  0  0
   -5.5930   18.9080  -33.3890 C   0  0  0  0  0  0  0  0  0  0  0  0
   -4.6610   21.5990  -32.7280 C   0  0  0  0  0  0  0  0  0  0  0  0
   -4.0840   22.3950  -31.5380 C   0  0  0  0  0  0  0  0  0  0  0  0
   -2.9480   22.3640  -28.4670 C   0  0  0  0  0  0  0  0  0  0  0  0
   -1.9880   21.9240  -27.5520 C   0  0  0  0  0  0  0  0  0  0  0  0
   -1.3600   22.8370  -26.7000 C   0  0  0  0  0  0  0  0  0  0  0  0
   -0.3890   22.3800  -25.7560 N   0  0  0  0  0  0  0  0  0  0  0  0
   -1.3934   24.5215  -23.9192 H   0  0  0  0  0  0  0  0  0  0  0  0
    0.2354   25.2809  -24.1104 H   0  0  0  0  0  0  0  0  0  0  0  0
   -1.5806   26.0749  -25.7385 H   0  0  0  0  0  0  0  0  0  0  0  0
   -0.0239   25.4873  -26.4669 H   0  0  0  0  0  0  0  0  0  0  0  0
   -2.8872   25.7120  -27.7688 H   0  0  0  0  0  0  0  0  0  0  0  0
   -5.4090   22.1950  -29.9570 H   0  0  0  0  0  0  0  0  0  0  0  0
   -7.0253   23.8717  -30.7018 H   0  0  0  0  0  0  0  0  0  0  0  0
   -6.0289   24.0565  -32.1890 H   0  0  0  0  0  0  0  0  0  0  0  0
   -7.6823   21.6839  -31.2555 H   0  0  0  0  0  0  0  0  0  0  0  0
   -7.6059   22.4715  -32.8785 H   0  0  0  0  0  0  0  0  0  0  0  0
   -8.3179   19.9923  -31.6258 H   0  0  0  0  0  0  0  0  0  0  0  0
   -9.0232   17.6396  -32.0495 H   0  0  0  0  0  0  0  0  0  0  0  0
   -7.5430   16.0973  -33.3288 H   0  0  0  0  0  0  0  0  0  0  0  0
   -4.6355   19.2735  -33.7885 H   0  0  0  0  0  0  0  0  0  0  0  0
   -4.0267   20.7197  -32.9140 H   0  0  0  0  0  0  0  0  0  0  0  0
   -4.6803   22.2540  -33.6115 H   0  0  0  0  0  0  0  0  0  0  0  0
   -3.4337   21.7280  -30.9531 H   0  0  0  0  0  0  0  0  0  0  0  0
   -3.5304   23.2501  -31.9531 H   0  0  0  0  0  0  0  0  0  0  0  0
   -3.4436   21.6407  -29.1312 H   0  0  0  0  0  0  0  0  0  0  0  0
   -1.7259   20.8569  -27.5021 H   0  0  0  0  0  0  0  0  0  0  0  0
  1  2  2  0
  2  3  1  0
  3  4  1  0
  4  5  1  0
  5  6  2  0
  6  7  1  0
  7  8  1  0
  8  9  2  0
  8 10  2  0
  8 11  1  0
 11 12  1  0
 12 13  1  0
 13 14  1  0
 14 15  1  0
 15 16  2  0
 16 17  1  0
 17 18  2  0
 18 19  1  0
 19 20  1  0
 20 21  1  0
 20 22  1  0
 20 23  1  0
 19 24  2  0
 14 25  1  0
 25 26  1  0
  7 27  2  0
 27 28  1  0
 28 29  2  0
 29 30  1  0
 30  2  1  0
 29  5  1  0
 26 11  1  0
 24 15  1  0
  3 31  1  0
  3 32  1  0
  4 33  1  0
  4 34  1  0
  6 35  1  0
 11 36  1  0
 12 37  1  0
 12 38  1  0
 13 39  1  0
 13 40  1  0
 16 41  1  0
 17 42  1  0
 18 43  1  0
 24 44  1  0
 25 45  1  0
 25 46  1  0
 26 47  1  0
 26 48  1  0
 27 49  1  0
 28 50  1  0
M  CHG  2  11   1  30  -1
M  END
>  <UniqueID>  (14) 
14

>  <SMILES>  (14) 
O=C1CCc2cc(S(=O)(=O)[NH+]3CCN(c4cccc(C(F)(F)F)c4)CC3)ccc2[N-]1

>  <Energy>  (14) 
61.40532869594683

>  <Genealogy>  (14) 
O=C1CCc2cc(S(=O)(=O)[NH+]3CCN(c4cccc(C(F)(F)F)c4)CC3)ccc2[N-]1 (protonated)
O=C1CCc2cc(S(=O)(=O)[NH+]3CCN(c4cccc(C(F)(F)F)c4)CC3)ccc2[N-]1 (3D coordinates assigned)
O=C1CCc2cc(S(=O)(=O)[NH+]3CCN(c4cccc(C(F)(F)F)c4)CC3)ccc2[N-]1 (nonaromatic ring conformer: 61.40532869594683 kcal/mol)

>  <smiles>  (14) 
O=C1CCc2cc(S(=O)(=O)N3CCN(c4cccc(C(F)(F)F)c4)CC3)ccc2N1

>  <score_type>  (14) 
oracle

>  <origin>  (14) 
adgpu

>  <m_score__min__energy>  (14) 
-10.859999999999999

>  <m_primary>  (14) 
energy

$$$$
14:0
     RDKit          3D

 52 55  0  0  0  0  0  0  0  0999 V2000
    0.6570   11.6190  -31.0770 C   0  0  0  0  0  0  0  0  0  0  0  0
   -0.4370   12.4900  -30.6730 N   0  0  0  0  0  0  0  0  0  0  0  0
   -1.4930   12.8720  -31.5600 C   0  0  0  0  0  0  0  0  0  0  0  0
   -2.5630   12.2060  -31.5800 O   0  0  0  0  0  0  0  0  0  0  0  0
   -1.3310   14.0440  -32.4530 C   0  0  0  0  0  0  0  0  0  0  0  0
   -0.2390   14.1220  -33.3370 C   0  0  0  0  0  0  0  0  0  0  0  0
   -0.0950   15.2200  -34.1910 C   0  0  0  0  0  0  0  0  0  0  0  0
   -1.0290   16.2560  -34.1640 C   0  0  0  0  0  0  0  0  0  0  0  0
   -2.1010   16.2150  -33.2590 C   0  0  0  0  0  0  0  0  0  0  0  0
   -3.1040   17.2410  -33.2580 N   0  0  0  0  0  0  0  0  0  0  0  0
   -4.3860   17.1620  -33.5230 C   0  0  0  0  0  0  0  0  0  0  0  0
   -4.9980   16.0250  -34.1330 C   0  0  0  0  0  0  0  0  0  0  0  0
   -4.2550   14.9880  -34.8800 C   0  0  0  0  0  0  0  0  0  0  0  0
   -3.4550   15.3470  -36.0050 N   0  0  0  0  0  0  0  0  0  0  0  0
   -4.3770   13.7750  -34.5650 O   0  0  0  0  0  0  0  0  0  0  0  0
   -6.3990   15.9590  -34.1890 C   0  0  0  0  0  0  0  0  0  0  0  0
   -7.1600   16.9960  -33.7640 N   0  0  0  0  0  0  0  0  0  0  0  0
   -6.6130   18.1320  -33.2690 C   0  0  0  0  0  0  0  0  0  0  0  0
   -7.4480   19.1810  -32.8720 C   0  0  0  0  0  0  0  0  0  0  0  0
   -6.9050   20.3570  -32.3550 C   0  0  0  0  0  0  0  0  0  0  0  0
   -5.5150   20.5030  -32.2220 C   0  0  0  0  0  0  0  0  0  0  0  0
   -4.9410   21.7550  -31.6660 C   0  0  0  0  0  0  0  0  0  0  0  0
   -3.5770   21.8270  -31.3340 C   0  0  0  0  0  0  0  0  0  0  0  0
   -3.0340   23.0070  -30.8100 C   0  0  0  0  0  0  0  0  0  0  0  0
   -1.6830   23.0740  -30.4770 O   0  0  0  0  0  0  0  0  0  0  0  0
   -3.8520   24.1260  -30.6140 C   0  0  0  0  0  0  0  0  0  0  0  0
   -3.3080   25.2960  -30.0930 O   0  0  0  0  0  0  0  0  0  0  0  0
   -5.2140   24.0760  -30.9390 C   0  0  0  0  0  0  0  0  0  0  0  0
   -5.9940   25.2220  -30.7280 O   0  0  0  0  0  0  0  0  0  0  0  0
   -6.4460   25.6680  -29.4530 C   0  0  0  0  0  0  0  0  0  0  0  0
   -5.7540   22.8850  -31.4660 C   0  0  0  0  0  0  0  0  0  0  0  0
   -4.6740   19.4460  -32.6160 C   0  0  0  0  0  0  0  0  0  0  0  0
   -5.2100   18.2530  -33.1490 C   0  0  0  0  0  0  0  0  0  0  0  0
   -2.2670   15.0950  -32.4350 C   0  0  0  0  0  0  0  0  0  0  0  0
    1.1578   11.2203  -30.1824 H   0  0  0  0  0  0  0  0  0  0  0  0
    0.2606   10.7866  -31.6769 H   0  0  0  0  0  0  0  0  0  0  0  0
    1.3794   12.1919  -31.6769 H   0  0  0  0  0  0  0  0  0  0  0  0
    0.5067   13.3136  -33.3565 H   0  0  0  0  0  0  0  0  0  0  0  0
    0.7566   15.2669  -34.8856 H   0  0  0  0  0  0  0  0  0  0  0  0
   -0.9250   17.1068  -34.8535 H   0  0  0  0  0  0  0  0  0  0  0  0
   -2.9540   16.2620  -36.0370 H   0  0  0  0  0  0  0  0  0  0  0  0
   -6.8849   15.0541  -34.5828 H   0  0  0  0  0  0  0  0  0  0  0  0
   -8.5390   19.0781  -32.9680 H   0  0  0  0  0  0  0  0  0  0  0  0
   -7.5713   21.1769  -32.0489 H   0  0  0  0  0  0  0  0  0  0  0  0
   -2.9311   20.9499  -31.4869 H   0  0  0  0  0  0  0  0  0  0  0  0
   -1.2340   23.9550  -30.2560 H   0  0  0  0  0  0  0  0  0  0  0  0
   -5.9016   25.1308  -28.6624 H   0  0  0  0  0  0  0  0  0  0  0  0
   -6.2619   26.7481  -29.3560 H   0  0  0  0  0  0  0  0  0  0  0  0
   -7.5236   25.4695  -29.3560 H   0  0  0  0  0  0  0  0  0  0  0  0
   -6.8225   22.8391  -31.7234 H   0  0  0  0  0  0  0  0  0  0  0  0
   -3.5843   19.5502  -32.5074 H   0  0  0  0  0  0  0  0  0  0  0  0
   -3.1384   15.0360  -31.7663 H   0  0  0  0  0  0  0  0  0  0  0  0
  1  2  1  0
  2  3  1  0
  3  4  2  0
  3  5  1  0
  5  6  2  0
  6  7  1  0
  7  8  2  0
  8  9  1  0
  9 10  1  0
 10 11  2  3
 11 12  1  0
 12 13  1  0
 13 14  1  0
 13 15  2  0
 12 16  2  0
 16 17  1  0
 17 18  1  0
 18 19  2  0
 19 20  1  0
 20 21  2  0
 21 22  1  0
 22 23  2  0
 23 24  1  0
 24 25  1  0
 24 26  2  0
 26 27  1  0
 26 28  1  0
 28 29  1  0
 29 30  1  0
 28 31  2  0
 21 32  1  0
 32 33  2  0
  9 34  2  0
 34  5  1  0
 33 11  1  0
 33 18  1  0
 31 22  1  0
  1 35  1  0
  1 36  1  0
  1 37  1  0
  6 38  1  0
  7 39  1  0
  8 40  1  0
 14 41  1  0
 16 42  1  0
 19 43  1  0
 20 44  1  0
 23 45  1  0
 25 46  1  0
 30 47  1  0
 30 48  1  0
 30 49  1  0
 31 50  1  0
 32 51  1  0
 34 52  1  0
M  CHG  4   2  -1  14  -1  17  -1  27  -1
M  END
>  <UniqueID>  (15) 
15

>  <SMILES>  (15) 
C[N-]C(=O)c1cccc(N=c2c(C([NH-])=O)c[n-]c3ccc(-c4cc(O)c([O-])c(OC)c4)cc23)c1

>  <Energy>  (15) 
85.63416372785187

>  <Genealogy>  (15) 
C[N-]C(=O)c1cccc(N=c2c(C([NH-])=O)c[n-]c3ccc(-c4cc(O)c([O-])c(OC)c4)cc23)c1 (protonated)
C[N-]C(=O)c1cccc(N=c2c(C([NH-])=O)c[n-]c3ccc(-c4cc(O)c([O-])c(OC)c4)cc23)c1 (3D coordinates assigned)
C[N-]C(=O)c1cccc(N=c2c(C([NH-])=O)c[n-]c3ccc(-c4cc(O)c([O-])c(OC)c4)cc23)c1 (optimized conformer: 85.63416372785187 kcal/mol)

>  <smiles>  (15) 
CNC(=O)c1cccc(N=c2c(C(N)=O)c[nH]c3ccc(-c4cc(O)c(O)c(OC)c4)cc23)c1

>  <score_type>  (15) 
oracle

>  <origin>  (15) 
adgpu

>  <m_score__min__energy>  (15) 
-9.6400000000000006

>  <m_primary>  (15) 
energy

$$$$
15:0
     RDKit          3D

 55 58  0  0  0  0  0  0  0  0999 V2000
   -7.1800   23.9350  -30.5570 O   0  0  0  0  0  0  0  0  0  0  0  0
   -6.7310   23.3150  -31.8520 S   0  0  0  0  0  0  0  0  0  0  0  0
   -7.4060   24.0480  -32.9770 O   0  0  0  0  0  0  0  0  0  0  0  0
   -5.0100   23.4690  -32.0150 N   0  0  0  0  0  0  0  0  0  0  0  0
   -4.0620   23.2690  -30.9570 C   0  0  0  0  0  0  0  0  0  0  0  0
   -3.6990   21.9800  -30.5180 C   0  0  0  0  0  0  0  0  0  0  0  0
   -2.7830   21.8210  -29.4690 C   0  0  0  0  0  0  0  0  0  0  0  0
   -2.2040   22.9510  -28.8680 C   0  0  0  0  0  0  0  0  0  0  0  0
   -2.5590   24.2320  -29.3060 C   0  0  0  0  0  0  0  0  0  0  0  0
   -3.4930   24.3920  -30.3360 C   0  0  0  0  0  0  0  0  0  0  0  0
   -3.8600   25.6720  -30.7340 O   0  0  0  0  0  0  0  0  0  0  0  0
   -1.1780   22.7470  -27.7840 C   0  0  0  0  0  0  0  0  0  0  0  0
   -1.5970   21.6390  -26.7910 C   0  0  0  0  0  0  0  0  0  0  0  0
   -2.4230   20.4820  -27.4110 C   0  0  0  0  0  0  0  0  0  0  0  0
   -2.4090   20.4620  -28.9460 C   0  0  0  0  0  0  0  0  0  0  0  0
   -7.1620   21.6000  -31.9230 C   0  0  0  0  0  0  0  0  0  0  0  0
   -6.3950   20.7370  -32.7220 C   0  0  0  0  0  0  0  0  0  0  0  0
   -6.7310   19.3830  -32.8370 C   0  0  0  0  0  0  0  0  0  0  0  0
   -5.8520   18.3290  -33.9420 S   0  0  0  0  0  0  0  0  0  0  0  0
   -6.4940   16.9730  -33.9840 O   0  0  0  0  0  0  0  0  0  0  0  0
   -5.8970   18.9240  -35.3210 O   0  0  0  0  0  0  0  0  0  0  0  0
   -4.1950   18.1790  -33.4100 N   0  0  0  0  0  0  0  0  0  0  0  0
   -3.3230   17.8840  -34.5730 C   0  0  0  0  0  0  0  0  0  0  0  0
   -1.8580   18.2190  -34.2800 C   0  0  0  0  0  0  0  0  0  0  0  0
   -1.6850   19.7240  -34.0090 C   0  0  0  0  0  0  0  0  0  0  0  0
   -2.9560   20.3760  -33.4370 C   0  0  0  0  0  0  0  0  0  0  0  0
   -3.7820   19.3690  -32.6220 C   0  0  0  0  0  0  0  0  0  0  0  0
   -7.8270   18.8800  -32.1300 C   0  0  0  0  0  0  0  0  0  0  0  0
   -8.5970   19.7270  -31.3330 C   0  0  0  0  0  0  0  0  0  0  0  0
   -8.2900   21.0880  -31.2370 C   0  0  0  0  0  0  0  0  0  0  0  0
   -9.1310   21.8970  -30.4680 O   0  0  0  0  0  0  0  0  0  0  0  0
   -4.1368   21.0940  -31.0011 H   0  0  0  0  0  0  0  0  0  0  0  0
   -2.1020   25.1168  -28.8388 H   0  0  0  0  0  0  0  0  0  0  0  0
   -0.2219   22.4644  -28.2487 H   0  0  0  0  0  0  0  0  0  0  0  0
   -1.0849   23.6885  -27.2229 H   0  0  0  0  0  0  0  0  0  0  0  0
   -0.6837   21.2099  -26.3531 H   0  0  0  0  0  0  0  0  0  0  0  0
   -2.2513   22.1214  -26.0500 H   0  0  0  0  0  0  0  0  0  0  0  0
   -2.0108   19.5288  -27.0483 H   0  0  0  0  0  0  0  0  0  0  0  0
   -3.4679   20.6342  -27.1028 H   0  0  0  0  0  0  0  0  0  0  0  0
   -1.4016   20.1975  -29.3000 H   0  0  0  0  0  0  0  0  0  0  0  0
   -3.1328   19.7177  -29.3093 H   0  0  0  0  0  0  0  0  0  0  0  0
   -5.5212   21.1289  -33.2631 H   0  0  0  0  0  0  0  0  0  0  0  0
   -3.4026   16.8142  -34.8163 H   0  0  0  0  0  0  0  0  0  0  0  0
   -3.6551   18.5054  -35.4177 H   0  0  0  0  0  0  0  0  0  0  0  0
   -1.5285   17.6532  -33.3961 H   0  0  0  0  0  0  0  0  0  0  0  0
   -1.2520   17.9467  -35.1567 H   0  0  0  0  0  0  0  0  0  0  0  0
   -0.8654   19.8595  -33.2880 H   0  0  0  0  0  0  0  0  0  0  0  0
   -1.4666   20.2111  -34.9708 H   0  0  0  0  0  0  0  0  0  0  0  0
   -2.6667   21.2132  -32.7848 H   0  0  0  0  0  0  0  0  0  0  0  0
   -3.5718   20.7312  -34.2765 H   0  0  0  0  0  0  0  0  0  0  0  0
   -3.1772   19.0303  -31.7679 H   0  0  0  0  0  0  0  0  0  0  0  0
   -4.6996   19.8829  -32.2997 H   0  0  0  0  0  0  0  0  0  0  0  0
   -8.0831   17.8127  -32.2024 H   0  0  0  0  0  0  0  0  0  0  0  0
   -9.4535   19.3208  -30.7749 H   0  0  0  0  0  0  0  0  0  0  0  0
   -8.8020   22.6800  -29.9210 H   0  0  0  0  0  0  0  0  0  0  0  0
  1  2  2  0
  2  3  2  0
  2  4  1  0
  4  5  1  0
  5  6  2  0
  6  7  1  0
  7  8  2  0
  8  9  1  0
  9 10  2  0
 10 11  1  0
  8 12  1  0
 12 13  1  0
 13 14  1  0
 14 15  1  0
  2 16  1  0
 16 17  2  0
 17 18  1  0
 18 19  1  0
 19 20  2  0
 19 21  2  0
 19 22  1  0
 22 23  1  0
 23 24  1  0
 24 25  1  0
 25 26  1  0
 26 27  1  0
 18 28  2  0
 28 29  1  0
 29 30  2  0
 30 31  1  0
 10  5  1  0
 30 16  1  0
 15  7  1  0
 27 22  1  0
  6 32  1  0
  9 33  1  0
 12 34  1  0
 12 35  1  0
 13 36  1  0
 13 37  1  0
 14 38  1  0
 14 39  1  0
 15 40  1  0
 15 41  1  0
 17 42  1  0
 23 43  1  0
 23 44  1  0
 24 45  1  0
 24 46  1  0
 25 47  1  0
 25 48  1  0
 26 49  1  0
 26 50  1  0
 27 51  1  0
 27 52  1  0
 28 53  1  0
 29 54  1  0
 31 55  1  0
M  CHG  2   4  -1  11  -1
M  END
>  <UniqueID>  (16) 
16

>  <SMILES>  (16) 
O=S(=O)([N-]c1cc2c(cc1[O-])CCCC2)c1cc(S(=O)(=O)N2CCCCC2)ccc1O

>  <Energy>  (16) 
69.61392339818013

>  <Genealogy>  (16) 
O=S(=O)([N-]c1cc2c(cc1[O-])CCCC2)c1cc(S(=O)(=O)N2CCCCC2)ccc1O (protonated)
O=S(=O)([N-]c1cc2c(cc1[O-])CCCC2)c1cc(S(=O)(=O)N2CCCCC2)ccc1O (3D coordinates assigned)
O=S(=O)([N-]c1cc2c(cc1[O-])CCCC2)c1cc(S(=O)(=O)N2CCCCC2)ccc1O (nonaromatic ring conformer: 69.61392339818013 kcal/mol)

>  <smiles>  (16) 
O=S(=O)(Nc1cc2c(cc1O)CCCC2)c1cc(S(=O)(=O)N2CCCCC2)ccc1O

>  <score_type>  (16) 
oracle

>  <origin>  (16) 
adgpu

>  <m_score__min__energy>  (16) 
-14.48

>  <m_primary>  (16) 
energy

$$$$
16:0
     RDKit          3D

 34 36  0  0  0  0  0  0  0  0999 V2000
   -6.8830   16.6420  -33.3470 C   0  0  0  0  0  0  0  0  0  0  0  0
   -7.1020   18.0830  -32.9730 C   0  0  0  0  0  0  0  0  0  0  0  0
   -8.1130   18.3950  -32.0480 C   0  0  0  0  0  0  0  0  0  0  0  0
   -8.3720   19.7190  -31.6940 C   0  0  0  0  0  0  0  0  0  0  0  0
   -7.6290   20.7570  -32.2600 C   0  0  0  0  0  0  0  0  0  0  0  0
   -7.9340   22.4210  -31.7670 S   0  0  0  0  0  0  0  0  0  0  0  0
   -7.8910   22.5020  -30.2670 O   0  0  0  0  0  0  0  0  0  0  0  0
   -9.2910   22.8690  -32.2350 O   0  0  0  0  0  0  0  0  0  0  0  0
   -6.7230   23.4620  -32.4360 N   0  0  0  0  0  0  0  0  0  0  0  0
   -5.5800   23.8490  -31.6730 C   0  0  0  0  0  0  0  0  0  0  0  0
   -5.3600   25.1030  -31.2370 N   0  0  0  0  0  0  0  0  0  0  0  0
   -4.2200   25.0570  -30.5640 N   0  0  0  0  0  0  0  0  0  0  0  0
   -3.7970   23.7790  -30.6200 C   0  0  0  0  0  0  0  0  0  0  0  0
   -2.5710   23.2800  -29.9900 C   0  0  0  0  0  0  0  0  0  0  0  0
   -2.0340   22.0080  -30.1330 C   0  0  0  0  0  0  0  0  0  0  0  0
   -0.8460   21.8310  -29.4130 C   0  0  0  0  0  0  0  0  0  0  0  0
   -0.4470   22.9580  -28.7080 C   0  0  0  0  0  0  0  0  0  0  0  0
   -1.5730   24.1790  -28.9790 S   0  0  0  0  0  0  0  0  0  0  0  0
   -4.6270   23.0310  -31.3020 O   0  0  0  0  0  0  0  0  0  0  0  0
   -6.6080   20.4600  -33.1710 C   0  0  0  0  0  0  0  0  0  0  0  0
   -6.3170   19.1290  -33.5230 C   0  0  0  0  0  0  0  0  0  0  0  0
   -5.2280   18.8630  -34.4280 N   0  0  0  0  0  0  0  0  0  0  0  0
   -4.0630   19.1870  -34.1190 O   0  0  0  0  0  0  0  0  0  0  0  0
   -5.4220   18.0960  -35.5530 O   0  0  0  0  0  0  0  0  0  0  0  0
   -6.7909   16.0360  -32.4336 H   0  0  0  0  0  0  0  0  0  0  0  0
   -7.7369   16.2833  -33.9404 H   0  0  0  0  0  0  0  0  0  0  0  0
   -5.9611   16.5532  -33.9404 H   0  0  0  0  0  0  0  0  0  0  0  0
   -8.7068   17.5858  -31.5980 H   0  0  0  0  0  0  0  0  0  0  0  0
   -9.1647   19.9464  -30.9661 H   0  0  0  0  0  0  0  0  0  0  0  0
   -6.8370   23.8140  -33.4110 H   0  0  0  0  0  0  0  0  0  0  0  0
   -2.4940   21.2206  -30.7482 H   0  0  0  0  0  0  0  0  0  0  0  0
   -0.2817   20.8868  -29.4068 H   0  0  0  0  0  0  0  0  0  0  0  0
    0.4520   23.0393  -28.0793 H   0  0  0  0  0  0  0  0  0  0  0  0
   -6.0251   21.2788  -33.6179 H   0  0  0  0  0  0  0  0  0  0  0  0
  1  2  1  0
  2  3  2  0
  3  4  1  0
  4  5  2  0
  5  6  1  0
  6  7  2  0
  6  8  2  0
  6  9  1  0
  9 10  1  0
 10 11  2  0
 11 12  1  0
 12 13  2  0
 13 14  1  0
 14 15  2  0
 15 16  1  0
 16 17  2  0
 17 18  1  0
 13 19  1  0
  5 20  1  0
 20 21  2  0
 21 22  1  0
 22 23  2  0
 22 24  1  0
 21  2  1  0
 19 10  1  0
 18 14  1  0
  1 25  1  0
  1 26  1  0
  1 27  1  0
  3 28  1  0
  4 29  1  0
  9 30  1  0
 15 31  1  0
 16 32  1  0
 17 33  1  0
 20 34  1  0
M  CHG  2  22   1  24  -1
M  END
>  <UniqueID>  (17) 
17

>  <SMILES>  (17) 
Cc1ccc(S(=O)(=O)Nc2nnc(-c3cccs3)o2)cc1[N+](=O)[O-]

>  <Energy>  (17) 
100.03655369110922

>  <Genealogy>  (17) 
Cc1ccc(S(=O)(=O)Nc2nnc(-c3cccs3)o2)cc1[N+](=O)[O-] (3D coordinates assigned)
Cc1ccc(S(=O)(=O)Nc2nnc(-c3cccs3)o2)cc1[N+](=O)[O-] (optimized conformer: 100.03655369110922 kcal/mol)

>  <smiles>  (17) 
Cc1ccc(S(=O)(=O)Nc2nnc(-c3cccs3)o2)cc1[N+](=O)[O-]

>  <score_type>  (17) 
oracle

>  <origin>  (17) 
adgpu

>  <m_score__min__energy>  (17) 
-9.4100000000000001

>  <m_primary>  (17) 
energy

$$$$
17:0
     RDKit          3D

 54 56  0  0  0  0  0  0  0  0999 V2000
   -8.0480   20.0560  -33.0780 C   0  0  0  0  0  0  0  0  0  0  0  0
   -7.8210   21.2420  -32.1860 C   0  0  0  0  0  0  0  0  0  0  0  0
   -7.1540   22.3790  -32.6650 C   0  0  0  0  0  0  0  0  0  0  0  0
   -6.9230   23.4690  -31.8200 C   0  0  0  0  0  0  0  0  0  0  0  0
   -7.3470   23.4390  -30.4870 C   0  0  0  0  0  0  0  0  0  0  0  0
   -7.1090   24.5730  -29.6920 O   0  0  0  0  0  0  0  0  0  0  0  0
   -5.8290   25.1350  -29.4090 C   0  0  0  0  0  0  0  0  0  0  0  0
   -5.2780   25.8620  -30.6330 C   0  0  0  0  0  0  0  0  0  0  0  0
   -3.8840   25.4850  -30.8390 N   0  0  0  0  0  0  0  0  0  0  0  0
   -3.1200   24.6980  -29.9170 C   0  0  0  0  0  0  0  0  0  0  0  0
   -2.4180   25.2840  -29.0520 O   0  0  0  0  0  0  0  0  0  0  0  0
   -3.1460   23.2240  -29.9430 C   0  0  0  0  0  0  0  0  0  0  0  0
   -3.3410   22.5580  -31.1630 C   0  0  0  0  0  0  0  0  0  0  0  0
   -3.3840   21.1600  -31.2100 C   0  0  0  0  0  0  0  0  0  0  0  0
   -3.6480   20.3470  -32.7520 S   0  0  0  0  0  0  0  0  0  0  0  0
   -2.4530   20.5420  -33.6420 O   0  0  0  0  0  0  0  0  0  0  0  0
   -4.8430   20.9730  -33.4160 O   0  0  0  0  0  0  0  0  0  0  0  0
   -3.9520   18.6380  -32.5100 N   0  0  0  0  0  0  0  0  0  0  0  0
   -3.4680   17.8220  -33.6410 C   0  0  0  0  0  0  0  0  0  0  0  0
   -4.3450   17.9670  -34.8970 C   0  0  0  0  0  0  0  0  0  0  0  0
   -5.8530   18.0010  -34.5790 C   0  0  0  0  0  0  0  0  0  0  0  0
   -6.1490   17.5360  -33.1530 C   0  0  0  0  0  0  0  0  0  0  0  0
   -5.3630   18.3770  -32.1270 C   0  0  0  0  0  0  0  0  0  0  0  0
   -3.2480   20.4220  -30.0260 C   0  0  0  0  0  0  0  0  0  0  0  0
   -3.0730   21.0780  -28.8060 C   0  0  0  0  0  0  0  0  0  0  0  0
   -3.0360   22.4780  -28.7540 C   0  0  0  0  0  0  0  0  0  0  0  0
   -2.9140   23.1260  -27.5250 O   0  0  0  0  0  0  0  0  0  0  0  0
   -7.9970   22.2880  -29.9990 C   0  0  0  0  0  0  0  0  0  0  0  0
   -8.2260   21.1970  -30.8450 C   0  0  0  0  0  0  0  0  0  0  0  0
   -8.2193   19.1611  -32.4617 H   0  0  0  0  0  0  0  0  0  0  0  0
   -8.9277   20.2378  -33.7129 H   0  0  0  0  0  0  0  0  0  0  0  0
   -7.1634   19.9001  -33.7129 H   0  0  0  0  0  0  0  0  0  0  0  0
   -6.8112   22.4135  -33.7096 H   0  0  0  0  0  0  0  0  0  0  0  0
   -6.4033   24.3580  -32.2068 H   0  0  0  0  0  0  0  0  0  0  0  0
   -5.9235   25.8485  -28.5771 H   0  0  0  0  0  0  0  0  0  0  0  0
   -5.1378   24.3234  -29.1381 H   0  0  0  0  0  0  0  0  0  0  0  0
   -5.8672   25.5848  -31.5196 H   0  0  0  0  0  0  0  0  0  0  0  0
   -5.3431   26.9483  -30.4729 H   0  0  0  0  0  0  0  0  0  0  0  0
   -3.4609   23.1393  -32.0891 H   0  0  0  0  0  0  0  0  0  0  0  0
   -2.4436   18.1369  -33.8890 H   0  0  0  0  0  0  0  0  0  0  0  0
   -3.5058   16.7676  -33.3297 H   0  0  0  0  0  0  0  0  0  0  0  0
   -4.0735   18.9026  -35.4078 H   0  0  0  0  0  0  0  0  0  0  0  0
   -4.1622   17.0855  -35.5291 H   0  0  0  0  0  0  0  0  0  0  0  0
   -6.2180   19.0317  -34.6993 H   0  0  0  0  0  0  0  0  0  0  0  0
   -6.3616   17.3149  -35.2722 H   0  0  0  0  0  0  0  0  0  0  0  0
   -7.2260   17.6414  -32.9559 H   0  0  0  0  0  0  0  0  0  0  0  0
   -5.8422   16.4842  -33.0549 H   0  0  0  0  0  0  0  0  0  0  0  0
   -5.8736   19.3442  -32.0096 H   0  0  0  0  0  0  0  0  0  0  0  0
   -5.3358   17.7948  -31.1941 H   0  0  0  0  0  0  0  0  0  0  0  0
   -3.2792   19.3229  -30.0582 H   0  0  0  0  0  0  0  0  0  0  0  0
   -2.9636   20.4930  -27.8809 H   0  0  0  0  0  0  0  0  0  0  0  0
   -2.8650   24.1360  -27.4600 H   0  0  0  0  0  0  0  0  0  0  0  0
   -8.3254   22.2469  -28.9500 H   0  0  0  0  0  0  0  0  0  0  0  0
   -8.7269   20.2986  -30.4551 H   0  0  0  0  0  0  0  0  0  0  0  0
  1  2  1  0
  2  3  2  0
  3  4  1  0
  4  5  2  0
  5  6  1  0
  6  7  1  0
  7  8  1  0
  8  9  1  0
  9 10  1  0
 10 11  2  0
 10 12  1  0
 12 13  2  0
 13 14  1  0
 14 15  1  0
 15 16  2  0
 15 17  2  0
 15 18  1  0
 18 19  1  0
 19 20  1  0
 20 21  1  0
 21 22  1  0
 22 23  1  0
 14 24  2  0
 24 25  1  0
 25 26  2  0
 26 27  1  0
  5 28  1  0
 28 29  2  0
 29  2  1  0
 26 12  1  0
 23 18  1  0
  1 30  1  0
  1 31  1  0
  1 32  1  0
  3 33  1  0
  4 34  1  0
  7 35  1  0
  7 36  1  0
  8 37  1  0
  8 38  1  0
 13 39  1  0
 19 40  1  0
 19 41  1  0
 20 42  1  0
 20 43  1  0
 21 44  1  0
 21 45  1  0
 22 46  1  0
 22 47  1  0
 23 48  1  0
 23 49  1  0
 24 50  1  0
 25 51  1  0
 27 52  1  0
 28 53  1  0
 29 54  1  0
M  CHG  1   9  -1
M  END
>  <UniqueID>  (18) 
18

>  <SMILES>  (18) 
Cc1ccc(OCC[N-]C(=O)c2cc(S(=O)(=O)N3CCCCC3)ccc2O)cc1

>  <Energy>  (18) 
64.26791826175848

>  <Genealogy>  (18) 
Cc1ccc(OCC[N-]C(=O)c2cc(S(=O)(=O)N3CCCCC3)ccc2O)cc1 (protonated)
Cc1ccc(OCC[N-]C(=O)c2cc(S(=O)(=O)N3CCCCC3)ccc2O)cc1 (3D coordinates assigned)
Cc1ccc(OCC[N-]C(=O)c2cc(S(=O)(=O)N3CCCCC3)ccc2O)cc1 (nonaromatic ring conformer: 64.26791826175848 kcal/mol)

>  <smiles>  (18) 
Cc1ccc(OCCNC(=O)c2cc(S(=O)(=O)N3CCCCC3)ccc2O)cc1

>  <score_type>  (18) 
oracle

>  <origin>  (18) 
adgpu

>  <m_score__min__energy>  (18) 
-11.17

>  <m_primary>  (18) 
energy

$$$$
18:0
     RDKit          3D

 52 54  0  0  0  0  0  0  0  0999 V2000
   -3.7330   18.0010  -34.3780 C   0  0  0  0  0  0  0  0  0  0  0  0
   -4.4230   19.0880  -33.5430 C   0  0  0  0  0  0  0  0  0  0  0  0
   -3.4320   19.7410  -32.5710 C   0  0  0  0  0  0  0  0  0  0  0  0
   -5.6560   18.5330  -32.8080 C   0  0  0  0  0  0  0  0  0  0  0  0
   -6.8890   18.9090  -33.5020 N   0  0  0  0  0  0  0  0  0  0  0  0
   -7.9680   19.7060  -32.3980 S   0  0  0  0  0  0  0  0  0  0  0  0
   -9.2720   19.9810  -33.0950 O   0  0  0  0  0  0  0  0  0  0  0  0
   -8.2420   18.8220  -31.2130 O   0  0  0  0  0  0  0  0  0  0  0  0
   -7.2640   21.2290  -31.8650 C   0  0  0  0  0  0  0  0  0  0  0  0
   -6.1370   21.7460  -32.5180 C   0  0  0  0  0  0  0  0  0  0  0  0
   -5.5510   22.9350  -32.0760 C   0  0  0  0  0  0  0  0  0  0  0  0
   -6.0790   23.6100  -30.9670 C   0  0  0  0  0  0  0  0  0  0  0  0
   -5.3100   25.0790  -30.3710 S   0  0  0  0  0  0  0  0  0  0  0  0
   -5.7040   25.3340  -28.9440 O   0  0  0  0  0  0  0  0  0  0  0  0
   -5.7530   26.2360  -31.2200 O   0  0  0  0  0  0  0  0  0  0  0  0
   -3.5830   24.9430  -30.4620 N   0  0  0  0  0  0  0  0  0  0  0  0
   -2.7630   24.1500  -29.5900 C   0  0  0  0  0  0  0  0  0  0  0  0
   -3.0840   22.8160  -29.2770 C   0  0  0  0  0  0  0  0  0  0  0  0
   -2.2400   22.0630  -28.4500 C   0  0  0  0  0  0  0  0  0  0  0  0
   -1.0880   22.6460  -27.9060 C   0  0  0  0  0  0  0  0  0  0  0  0
   -0.7790   23.9820  -28.1960 C   0  0  0  0  0  0  0  0  0  0  0  0
   -1.6070   24.7260  -29.0420 C   0  0  0  0  0  0  0  0  0  0  0  0
   -1.2750   26.0430  -29.3360 O   0  0  0  0  0  0  0  0  0  0  0  0
   -0.2400   21.8290  -26.9700 C   0  0  0  0  0  0  0  0  0  0  0  0
   -0.0340   20.4000  -27.5090 C   0  0  0  0  0  0  0  0  0  0  0  0
   -1.2820   19.7740  -28.1910 C   0  0  0  0  0  0  0  0  0  0  0  0
   -2.5530   20.6340  -28.0990 C   0  0  0  0  0  0  0  0  0  0  0  0
   -7.2100   23.0980  -30.3180 C   0  0  0  0  0  0  0  0  0  0  0  0
   -7.8000   21.9140  -30.7660 C   0  0  0  0  0  0  0  0  0  0  0  0
   -3.2657   17.2648  -33.7074 H   0  0  0  0  0  0  0  0  0  0  0  0
   -4.4776   17.4982  -35.0126 H   0  0  0  0  0  0  0  0  0  0  0  0
   -2.9611   18.4608  -35.0126 H   0  0  0  0  0  0  0  0  0  0  0  0
   -4.7803   19.8684  -34.2310 H   0  0  0  0  0  0  0  0  0  0  0  0
   -3.7438   19.5355  -31.5363 H   0  0  0  0  0  0  0  0  0  0  0  0
   -2.4266   19.3279  -32.7398 H   0  0  0  0  0  0  0  0  0  0  0  0
   -3.4150   20.8278  -32.7398 H   0  0  0  0  0  0  0  0  0  0  0  0
   -5.5866   17.4360  -32.7652 H   0  0  0  0  0  0  0  0  0  0  0  0
   -5.6805   18.9555  -31.7927 H   0  0  0  0  0  0  0  0  0  0  0  0
   -5.7121   21.2138  -33.3818 H   0  0  0  0  0  0  0  0  0  0  0  0
   -4.6734   23.3421  -32.5996 H   0  0  0  0  0  0  0  0  0  0  0  0
   -4.0005   22.3630  -29.6829 H   0  0  0  0  0  0  0  0  0  0  0  0
    0.1166   24.4460  -27.7572 H   0  0  0  0  0  0  0  0  0  0  0  0
    0.7404   22.3149  -26.8574 H   0  0  0  0  0  0  0  0  0  0  0  0
   -0.7545   21.7647  -25.9999 H   0  0  0  0  0  0  0  0  0  0  0  0
    0.7816   20.4269  -28.2467 H   0  0  0  0  0  0  0  0  0  0  0  0
    0.1905   19.7694  -26.6361 H   0  0  0  0  0  0  0  0  0  0  0  0
   -1.0499   19.6154  -29.2545 H   0  0  0  0  0  0  0  0  0  0  0  0
   -1.4965   18.8376  -27.6552 H   0  0  0  0  0  0  0  0  0  0  0  0
   -3.3067   20.2446  -28.7992 H   0  0  0  0  0  0  0  0  0  0  0  0
   -2.9399   20.5936  -27.0701 H   0  0  0  0  0  0  0  0  0  0  0  0
   -7.6344   23.6297  -29.4536 H   0  0  0  0  0  0  0  0  0  0  0  0
   -8.6892   21.5174  -30.2541 H   0  0  0  0  0  0  0  0  0  0  0  0
  1  2  1  0
  2  3  1  0
  2  4  1  0
  4  5  1  0
  5  6  1  0
  6  7  2  0
  6  8  2  0
  6  9  1  0
  9 10  2  0
 10 11  1  0
 11 12  2  0
 12 13  1  0
 13 14  2  0
 13 15  2  0
 13 16  1  0
 16 17  1  0
 17 18  2  0
 18 19  1  0
 19 20  2  0
 20 21  1  0
 21 22  2  0
 22 23  1  0
 20 24  1  0
 24 25  1  0
 25 26  1  0
 26 27  1  0
 12 28  1  0
 28 29  2  0
 29  9  1  0
 22 17  1  0
 27 19  1  0
  1 30  1  0
  1 31  1  0
  1 32  1  0
  2 33  1  0
  3 34  1  0
  3 35  1  0
  3 36  1  0
  4 37  1  0
  4 38  1  0
 10 39  1  0
 11 40  1  0
 18 41  1  0
 21 42  1  0
 24 43  1  0
 24 44  1  0
 25 45  1  0
 25 46  1  0
 26 47  1  0
 26 48  1  0
 27 49  1  0
 27 50  1  0
 28 51  1  0
 29 52  1  0
M  CHG  3   5  -1  16  -1  23  -1
M  END
>  <UniqueID>  (19) 
19

>  <SMILES>  (19) 
CC(C)C[N-]S(=O)(=O)c1ccc(S(=O)(=O)[N-]c2cc3c(cc2[O-])CCCC3)cc1

>  <Energy>  (19) 
51.385478425833

>  <Genealogy>  (19) 
CC(C)C[N-]S(=O)(=O)c1ccc(S(=O)(=O)[N-]c2cc3c(cc2[O-])CCCC3)cc1 (protonated)
CC(C)C[N-]S(=O)(=O)c1ccc(S(=O)(=O)[N-]c2cc3c(cc2[O-])CCCC3)cc1 (3D coordinates assigned)
CC(C)C[N-]S(=O)(=O)c1ccc(S(=O)(=O)[N-]c2cc3c(cc2[O-])CCCC3)cc1 (nonaromatic ring conformer: 51.385478425833 kcal/mol)

>  <smiles>  (19) 
CC(C)CNS(=O)(=O)c1ccc(S(=O)(=O)Nc2cc3c(cc2O)CCCC3)cc1

>  <score_type>  (19) 
oracle

>  <origin>  (19) 
adgpu

>  <m_score__min__energy>  (19) 
-14.800000000000001

>  <m_primary>  (19) 
energy

$$$$
19:0
     RDKit          3D

 56 59  0  0  0  0  0  0  0  0999 V2000
   -4.8520   24.6860  -28.4110 N   0  0  0  0  0  0  0  0  0  0  0  0
   -5.1380   24.8760  -30.1040 S   0  0  0  0  0  0  0  0  0  0  0  0
   -5.5580   26.2910  -30.3890 O   0  0  0  0  0  0  0  0  0  0  0  0
   -3.8670   24.5910  -30.8560 O   0  0  0  0  0  0  0  0  0  0  0  0
   -6.4100   23.7720  -30.6220 C   0  0  0  0  0  0  0  0  0  0  0  0
   -6.8450   23.7540  -31.9530 C   0  0  0  0  0  0  0  0  0  0  0  0
   -7.8550   22.8730  -32.3510 C   0  0  0  0  0  0  0  0  0  0  0  0
   -8.4420   21.9920  -31.4300 C   0  0  0  0  0  0  0  0  0  0  0  0
   -9.4760   21.0930  -31.8780 N   0  0  0  0  0  0  0  0  0  0  0  0
   -9.3020   20.0810  -32.9200 C   0  0  0  0  0  0  0  0  0  0  0  0
   -8.0420   19.2890  -32.7060 C   0  0  0  0  0  0  0  0  0  0  0  0
   -8.0420   18.1720  -31.8580 C   0  0  0  0  0  0  0  0  0  0  0  0
   -6.8630   17.4510  -31.6770 C   0  0  0  0  0  0  0  0  0  0  0  0
   -5.7020   17.8340  -32.3480 C   0  0  0  0  0  0  0  0  0  0  0  0
   -5.7410   18.9330  -33.2140 C   0  0  0  0  0  0  0  0  0  0  0  0
   -4.4940   19.3930  -33.9130 C   0  0  0  0  0  0  0  0  0  0  0  0
   -4.1380   20.7390  -33.4620 N   0  0  0  0  0  0  0  0  0  0  0  0
   -2.9450   21.0430  -32.7160 C   0  0  0  0  0  0  0  0  0  0  0  0
   -1.7000   20.6650  -33.2340 C   0  0  0  0  0  0  0  0  0  0  0  0
   -0.5270   20.9520  -32.5350 C   0  0  0  0  0  0  0  0  0  0  0  0
   -0.5840   21.6290  -31.3170 C   0  0  0  0  0  0  0  0  0  0  0  0
   -1.8200   22.0380  -30.7820 C   0  0  0  0  0  0  0  0  0  0  0  0
   -1.8820   22.7760  -29.4890 C   0  0  0  0  0  0  0  0  0  0  0  0
   -1.1850   23.9890  -29.3200 C   0  0  0  0  0  0  0  0  0  0  0  0
   -1.2570   24.6870  -28.1110 C   0  0  0  0  0  0  0  0  0  0  0  0
   -2.0160   24.1820  -27.0540 C   0  0  0  0  0  0  0  0  0  0  0  0
   -2.7040   22.9770  -27.2030 C   0  0  0  0  0  0  0  0  0  0  0  0
   -2.6400   22.2760  -28.4110 C   0  0  0  0  0  0  0  0  0  0  0  0
   -2.9970   21.7380  -31.4930 C   0  0  0  0  0  0  0  0  0  0  0  0
   -6.9000   19.6330  -33.3650 N   0  0  0  0  0  0  0  0  0  0  0  0
   -8.0040   22.0200  -30.0920 C   0  0  0  0  0  0  0  0  0  0  0  0
   -6.9940   22.9010  -29.6960 C   0  0  0  0  0  0  0  0  0  0  0  0
   -4.7340   25.6440  -28.0110 H   0  0  0  0  0  0  0  0  0  0  0  0
   -5.7240   24.2860  -27.9970 H   0  0  0  0  0  0  0  0  0  0  0  0
   -6.3906   24.4351  -32.6876 H   0  0  0  0  0  0  0  0  0  0  0  0
   -8.1932   22.8704  -33.3977 H   0  0  0  0  0  0  0  0  0  0  0  0
  -10.3930   21.1060  -31.3790 H   0  0  0  0  0  0  0  0  0  0  0  0
  -10.1630   19.3966  -32.9024 H   0  0  0  0  0  0  0  0  0  0  0  0
   -9.2310   20.5914  -33.8918 H   0  0  0  0  0  0  0  0  0  0  0  0
   -8.9638   17.8678  -31.3406 H   0  0  0  0  0  0  0  0  0  0  0  0
   -6.8483   16.5802  -31.0051 H   0  0  0  0  0  0  0  0  0  0  0  0
   -4.7648   17.2779  -32.1982 H   0  0  0  0  0  0  0  0  0  0  0  0
   -3.6703   18.7013  -33.6824 H   0  0  0  0  0  0  0  0  0  0  0  0
   -4.6724   19.4100  -34.9983 H   0  0  0  0  0  0  0  0  0  0  0  0
   -4.6920   21.5320  -33.8550 H   0  0  0  0  0  0  0  0  0  0  0  0
   -1.6465   20.1384  -34.1983 H   0  0  0  0  0  0  0  0  0  0  0  0
    0.4456   20.6434  -32.9458 H   0  0  0  0  0  0  0  0  0  0  0  0
    0.3453   21.8453  -30.7696 H   0  0  0  0  0  0  0  0  0  0  0  0
   -0.5794   24.3899  -30.1461 H   0  0  0  0  0  0  0  0  0  0  0  0
   -0.7143   25.6364  -27.9923 H   0  0  0  0  0  0  0  0  0  0  0  0
   -2.0718   24.7336  -26.1039 H   0  0  0  0  0  0  0  0  0  0  0  0
   -3.2982   22.5777  -26.3679 H   0  0  0  0  0  0  0  0  0  0  0  0
   -3.1854   21.3271  -28.5209 H   0  0  0  0  0  0  0  0  0  0  0  0
   -3.9705   22.0508  -31.0876 H   0  0  0  0  0  0  0  0  0  0  0  0
   -8.4598   21.3440  -29.3536 H   0  0  0  0  0  0  0  0  0  0  0  0
   -6.6560   22.9096  -28.6493 H   0  0  0  0  0  0  0  0  0  0  0  0
  1  2  1  0
  2  3  2  0
  2  4  2  0
  2  5  1  0
  5  6  2  0
  6  7  1  0
  7  8  2  0
  8  9  1  0
  9 10  1  0
 10 11  1  0
 11 12  2  0
 12 13  1  0
 13 14  2  0
 14 15  1  0
 15 16  1  0
 16 17  1  0
 17 18  1  0
 18 19  2  0
 19 20  1  0
 20 21  2  0
 21 22  1  0
 22 23  1  0
 23 24  2  0
 24 25  1  0
 25 26  2  0
 26 27  1  0
 27 28  2  0
 22 29  2  0
 15 30  2  0
  8 31  1  0
 31 32  2  0
 32  5  1  0
 30 11  1  0
 29 18  1  0
 28 23  1  0
  1 33  1  0
  1 34  1  0
  6 35  1  0
  7 36  1  0
  9 37  1  0
 10 38  1  0
 10 39  1  0
 12 40  1  0
 13 41  1  0
 14 42  1  0
 16 43  1  0
 16 44  1  0
 17 45  1  0
 19 46  1  0
 20 47  1  0
 21 48  1  0
 24 49  1  0
 25 50  1  0
 26 51  1  0
 27 52  1  0
 28 53  1  0
 29 54  1  0
 31 55  1  0
 32 56  1  0
M  END
>  <UniqueID>  (20) 
20

>  <SMILES>  (20) 
NS(=O)(=O)c1ccc(NCc2cccc(CNc3cccc(-c4ccccc4)c3)n2)cc1

>  <Energy>  (20) 
57.044118592910124

>  <Genealogy>  (20) 
NS(=O)(=O)c1ccc(NCc2cccc(CNc3cccc(-c4ccccc4)c3)n2)cc1 (3D coordinates assigned)
NS(=O)(=O)c1ccc(NCc2cccc(CNc3cccc(-c4ccccc4)c3)n2)cc1 (optimized conformer: 57.044118592910124 kcal/mol)

>  <smiles>  (20) 
NS(=O)(=O)c1ccc(NCc2cccc(CNc3cccc(-c4ccccc4)c3)n2)cc1

>  <score_type>  (20) 
oracle

>  <origin>  (20) 
adgpu

>  <m_score__min__energy>  (20) 
-11.17

>  <m_primary>  (20) 
energy

$$$$
20:0
     RDKit          3D

 55 58  0  0  0  0  0  0  0  0999 V2000
   -4.5410   16.8580  -34.3690 C   0  0  0  0  0  0  0  0  0  0  0  0
   -5.4970   17.7360  -33.6180 C   0  0  0  0  0  0  0  0  0  0  0  0
   -5.8030   17.4640  -32.2740 C   0  0  0  0  0  0  0  0  0  0  0  0
   -6.7230   18.2600  -31.5870 C   0  0  0  0  0  0  0  0  0  0  0  0
   -7.3710   19.3120  -32.2440 C   0  0  0  0  0  0  0  0  0  0  0  0
   -8.5730   20.3180  -31.3730 S   0  0  0  0  0  0  0  0  0  0  0  0
   -7.5130   21.7590  -31.3940 C   0  0  0  0  0  0  0  0  0  0  0  0
   -7.0120   22.3840  -32.5270 C   0  0  0  0  0  0  0  0  0  0  0  0
   -6.2410   23.5130  -32.2290 C   0  0  0  0  0  0  0  0  0  0  0  0
   -6.1400   23.7570  -30.8640 C   0  0  0  0  0  0  0  0  0  0  0  0
   -5.3260   25.1270  -30.1300 S   0  0  0  0  0  0  0  0  0  0  0  0
   -5.7140   26.3810  -30.8630 O   0  0  0  0  0  0  0  0  0  0  0  0
   -5.7300   25.2650  -28.6890 O   0  0  0  0  0  0  0  0  0  0  0  0
   -3.6150   24.9070  -30.2750 N   0  0  0  0  0  0  0  0  0  0  0  0
   -2.9190   23.8470  -29.6140 C   0  0  0  0  0  0  0  0  0  0  0  0
   -2.9050   23.7470  -28.2130 C   0  0  0  0  0  0  0  0  0  0  0  0
   -2.2520   22.6790  -27.5940 C   0  0  0  0  0  0  0  0  0  0  0  0
   -1.6230   21.6980  -28.3660 C   0  0  0  0  0  0  0  0  0  0  0  0
   -1.6300   21.7920  -29.7640 C   0  0  0  0  0  0  0  0  0  0  0  0
   -0.9280   20.4950  -30.7250 S   0  0  0  0  0  0  0  0  0  0  0  0
    0.0610   21.0640  -31.7050 O   0  0  0  0  0  0  0  0  0  0  0  0
   -0.2140   19.5450  -29.8060 O   0  0  0  0  0  0  0  0  0  0  0  0
   -2.2090   19.6610  -31.5770 N   0  0  0  0  0  0  0  0  0  0  0  0
   -3.5410   20.2610  -31.3070 C   0  0  0  0  0  0  0  0  0  0  0  0
   -4.2670   20.7590  -32.5640 C   0  0  0  0  0  0  0  0  0  0  0  0
   -3.3080   21.5730  -33.4310 C   0  0  0  0  0  0  0  0  0  0  0  0
   -2.0760   20.7490  -33.8460 C   0  0  0  0  0  0  0  0  0  0  0  0
   -1.8850   19.4710  -33.0060 C   0  0  0  0  0  0  0  0  0  0  0  0
   -2.2650   22.8790  -30.3830 C   0  0  0  0  0  0  0  0  0  0  0  0
   -7.0100   22.5920  -30.0230 S   0  0  0  0  0  0  0  0  0  0  0  0
   -7.0780   19.5780  -33.5870 C   0  0  0  0  0  0  0  0  0  0  0  0
   -6.1440   18.7940  -34.2720 C   0  0  0  0  0  0  0  0  0  0  0  0
   -3.9247   16.2920  -33.6550 H   0  0  0  0  0  0  0  0  0  0  0  0
   -5.1060   16.1575  -35.0015 H   0  0  0  0  0  0  0  0  0  0  0  0
   -3.8910   17.4805  -35.0015 H   0  0  0  0  0  0  0  0  0  0  0  0
   -5.3165   16.6214  -31.7608 H   0  0  0  0  0  0  0  0  0  0  0  0
   -6.9385   18.0593  -30.5271 H   0  0  0  0  0  0  0  0  0  0  0  0
   -7.2009   22.0295  -33.5510 H   0  0  0  0  0  0  0  0  0  0  0  0
   -5.7643   24.1421  -32.9951 H   0  0  0  0  0  0  0  0  0  0  0  0
   -3.4090   24.5109  -27.6027 H   0  0  0  0  0  0  0  0  0  0  0  0
   -2.2326   22.6096  -26.4964 H   0  0  0  0  0  0  0  0  0  0  0  0
   -1.1217   20.8508  -27.8752 H   0  0  0  0  0  0  0  0  0  0  0  0
   -4.1710   19.5009  -30.8219 H   0  0  0  0  0  0  0  0  0  0  0  0
   -3.3707   21.1402  -30.6682 H   0  0  0  0  0  0  0  0  0  0  0  0
   -4.6349   19.8961  -33.1385 H   0  0  0  0  0  0  0  0  0  0  0  0
   -5.1132   21.3951  -32.2651 H   0  0  0  0  0  0  0  0  0  0  0  0
   -3.8384   21.9019  -34.3368 H   0  0  0  0  0  0  0  0  0  0  0  0
   -2.9612   22.4349  -32.8420 H   0  0  0  0  0  0  0  0  0  0  0  0
   -2.1892   20.4594  -34.9011 H   0  0  0  0  0  0  0  0  0  0  0  0
   -1.1911   21.3815  -33.6819 H   0  0  0  0  0  0  0  0  0  0  0  0
   -2.5390   18.6849  -33.4114 H   0  0  0  0  0  0  0  0  0  0  0  0
   -0.8218   19.1953  -33.0667 H   0  0  0  0  0  0  0  0  0  0  0  0
   -2.2485   22.9705  -31.4791 H   0  0  0  0  0  0  0  0  0  0  0  0
   -7.5839   20.4061  -34.1050 H   0  0  0  0  0  0  0  0  0  0  0  0
   -5.9164   19.0081  -35.3267 H   0  0  0  0  0  0  0  0  0  0  0  0
  1  2  1  0
  2  3  2  0
  3  4  1  0
  4  5  2  0
  5  6  1  0
  6  7  1  0
  7  8  2  0
  8  9  1  0
  9 10  2  0
 10 11  1  0
 11 12  2  0
 11 13  2  0
 11 14  1  0
 14 15  1  0
 15 16  2  0
 16 17  1  0
 17 18  2  0
 18 19  1  0
 19 20  1  0
 20 21  2  0
 20 22  2  0
 20 23  1  0
 23 24  1  0
 24 25  1  0
 25 26  1  0
 26 27  1  0
 27 28  1  0
 19 29  2  0
 10 30  1  0
  5 31  1  0
 31 32  2  0
 32  2  1  0
 30  7  1  0
 29 15  1  0
 28 23  1  0
  1 33  1  0
  1 34  1  0
  1 35  1  0
  3 36  1  0
  4 37  1  0
  8 38  1  0
  9 39  1  0
 16 40  1  0
 17 41  1  0
 18 42  1  0
 24 43  1  0
 24 44  1  0
 25 45  1  0
 25 46  1  0
 26 47  1  0
 26 48  1  0
 27 49  1  0
 27 50  1  0
 28 51  1  0
 28 52  1  0
 29 53  1  0
 31 54  1  0
 32 55  1  0
M  CHG  1  14  -1
M  END
>  <UniqueID>  (21) 
21

>  <SMILES>  (21) 
Cc1ccc(Sc2ccc(S(=O)(=O)[N-]c3cccc(S(=O)(=O)N4CCCCC4)c3)s2)cc1

>  <Energy>  (21) 
89.89318522503369

>  <Genealogy>  (21) 
Cc1ccc(Sc2ccc(S(=O)(=O)[N-]c3cccc(S(=O)(=O)N4CCCCC4)c3)s2)cc1 (protonated)
Cc1ccc(Sc2ccc(S(=O)(=O)[N-]c3cccc(S(=O)(=O)N4CCCCC4)c3)s2)cc1 (3D coordinates assigned)
Cc1ccc(Sc2ccc(S(=O)(=O)[N-]c3cccc(S(=O)(=O)N4CCCCC4)c3)s2)cc1 (nonaromatic ring conformer: 89.89318522503369 kcal/mol)

>  <smiles>  (21) 
Cc1ccc(Sc2ccc(S(=O)(=O)Nc3cccc(S(=O)(=O)N4CCCCC4)c3)s2)cc1

>  <score_type>  (21) 
oracle

>  <origin>  (21) 
adgpu

>  <m_score__min__energy>  (21) 
-12.74

>  <m_primary>  (21) 
energy

$$$$
21:0
     RDKit          3D

 45 47  0  0  0  0  0  0  0  0999 V2000
   -6.8220   16.6390  -33.9810 C   0  0  0  0  0  0  0  0  0  0  0  0
   -6.6700   17.9790  -33.3230 C   0  0  0  0  0  0  0  0  0  0  0  0
   -7.4780   18.3260  -32.2310 C   0  0  0  0  0  0  0  0  0  0  0  0
   -7.3630   19.5870  -31.6390 C   0  0  0  0  0  0  0  0  0  0  0  0
   -6.4540   20.5300  -32.1480 C   0  0  0  0  0  0  0  0  0  0  0  0
   -6.3090   21.8230  -31.5400 N   0  0  0  0  0  0  0  0  0  0  0  0
   -5.1690   22.2450  -31.0130 N   0  0  0  0  0  0  0  0  0  0  0  0
   -5.3700   23.4910  -30.5410 C   0  0  0  0  0  0  0  0  0  0  0  0
   -4.3330   24.3000  -29.8810 C   0  0  0  0  0  0  0  0  0  0  0  0
   -3.8460   25.2960  -30.4830 O   0  0  0  0  0  0  0  0  0  0  0  0
   -3.8780   23.9650  -28.5620 N   0  0  0  0  0  0  0  0  0  0  0  0
   -2.8490   24.7560  -27.8890 C   0  0  0  0  0  0  0  0  0  0  0  0
   -1.5300   23.9840  -27.8090 C   0  0  0  0  0  0  0  0  0  0  0  0
   -1.5690   22.7710  -28.7000 C   0  0  0  0  0  0  0  0  0  0  0  0
   -1.9940   21.5320  -28.1920 C   0  0  0  0  0  0  0  0  0  0  0  0
   -2.0620   20.4140  -29.0290 C   0  0  0  0  0  0  0  0  0  0  0  0
   -1.7150   20.5260  -30.3780 C   0  0  0  0  0  0  0  0  0  0  0  0
   -1.3050   21.7580  -30.8940 C   0  0  0  0  0  0  0  0  0  0  0  0
   -1.2360   22.8800  -30.0610 C   0  0  0  0  0  0  0  0  0  0  0  0
   -6.6750   23.8820  -30.7800 C   0  0  0  0  0  0  0  0  0  0  0  0
   -7.2390   22.8010  -31.4290 C   0  0  0  0  0  0  0  0  0  0  0  0
   -8.6430   22.7510  -31.9490 C   0  0  0  0  0  0  0  0  0  0  0  0
   -5.6440   20.1790  -33.2390 C   0  0  0  0  0  0  0  0  0  0  0  0
   -5.7590   18.9170  -33.8310 C   0  0  0  0  0  0  0  0  0  0  0  0
   -6.9104   15.8597  -33.2097 H   0  0  0  0  0  0  0  0  0  0  0  0
   -7.7259   16.6387  -34.6078 H   0  0  0  0  0  0  0  0  0  0  0  0
   -5.9411   16.4363  -34.6078 H   0  0  0  0  0  0  0  0  0  0  0  0
   -8.2066   17.6017  -31.8379 H   0  0  0  0  0  0  0  0  0  0  0  0
   -7.9873   19.8425  -30.7701 H   0  0  0  0  0  0  0  0  0  0  0  0
   -4.2930   23.1360  -28.0790 H   0  0  0  0  0  0  0  0  0  0  0  0
   -2.6870   25.6880  -28.4503 H   0  0  0  0  0  0  0  0  0  0  0  0
   -3.1890   24.9767  -26.8664 H   0  0  0  0  0  0  0  0  0  0  0  0
   -0.7073   24.6405  -28.1285 H   0  0  0  0  0  0  0  0  0  0  0  0
   -1.3746   23.6556  -26.7707 H   0  0  0  0  0  0  0  0  0  0  0  0
   -2.2742   21.4411  -27.1322 H   0  0  0  0  0  0  0  0  0  0  0  0
   -2.3892   19.4447  -28.6249 H   0  0  0  0  0  0  0  0  0  0  0  0
   -1.7646   19.6442  -31.0337 H   0  0  0  0  0  0  0  0  0  0  0  0
   -1.0360   21.8460  -31.9570 H   0  0  0  0  0  0  0  0  0  0  0  0
   -0.9203   23.8501  -30.4725 H   0  0  0  0  0  0  0  0  0  0  0  0
   -7.1542   24.8358  -30.5140 H   0  0  0  0  0  0  0  0  0  0  0  0
   -9.3464   22.7259  -31.1037 H   0  0  0  0  0  0  0  0  0  0  0  0
   -8.8387   23.6427  -32.5626 H   0  0  0  0  0  0  0  0  0  0  0  0
   -8.7748   21.8476  -32.5626 H   0  0  0  0  0  0  0  0  0  0  0  0
   -4.9134   20.9016  -33.6314 H   0  0  0  0  0  0  0  0  0  0  0  0
   -5.1329   18.6591  -34.6979 H   0  0  0  0  0  0  0  0  0  0  0  0
  1  2  1  0
  2  3  2  0
  3  4  1  0
  4  5  2  0
  5  6  1  0
  6  7  1  0
  7  8  2  0
  8  9  1  0
  9 10  2  0
  9 11  1  0
 11 12  1  0
 12 13  1  0
 13 14  1  0
 14 15  2  0
 15 16  1  0
 16 17  2  0
 17 18  1  0
 18 19  2  0
  8 20  1  0
 20 21  2  0
 21 22  1  0
  5 23  1  0
 23 24  2  0
 24  2  1  0
 21  6  1  0
 19 14  1  0
  1 25  1  0
  1 26  1  0
  1 27  1  0
  3 28  1  0
  4 29  1  0
 11 30  1  0
 12 31  1  0
 12 32  1  0
 13 33  1  0
 13 34  1  0
 15 35  1  0
 16 36  1  0
 17 37  1  0
 18 38  1  0
 19 39  1  0
 20 40  1  0
 22 41  1  0
 22 42  1  0
 22 43  1  0
 23 44  1  0
 24 45  1  0
M  END
>  <UniqueID>  (22) 
22

>  <SMILES>  (22) 
Cc1ccc(-n2nc(C(=O)NCCc3ccccc3)cc2C)cc1

>  <Energy>  (22) 
74.83764840825296

>  <Genealogy>  (22) 
Cc1ccc(-n2nc(C(=O)NCCc3ccccc3)cc2C)cc1 (3D coordinates assigned)
Cc1ccc(-n2nc(C(=O)NCCc3ccccc3)cc2C)cc1 (optimized conformer: 74.83764840825296 kcal/mol)

>  <smiles>  (22) 
Cc1ccc(-n2nc(C(=O)NCCc3ccccc3)cc2C)cc1

>  <score_type>  (22) 
oracle

>  <origin>  (22) 
adgpu

>  <m_score__min__energy>  (22) 
-8.8599999999999994

>  <m_primary>  (22) 
energy

$$$$
22:0
     RDKit          3D

 63 66  0  0  0  0  0  0  0  0999 V2000
   -6.1490   25.5440  -29.2550 O   0  0  0  0  0  0  0  0  0  0  0  0
   -5.3330   24.4490  -29.8830 S   0  0  0  0  0  0  0  0  0  0  0  0
   -4.3860   25.0850  -30.8640 O   0  0  0  0  0  0  0  0  0  0  0  0
   -6.4060   23.3550  -30.7560 C   0  0  0  0  0  0  0  0  0  0  0  0
   -7.6330   23.8170  -31.2500 C   0  0  0  0  0  0  0  0  0  0  0  0
   -8.4840   22.9470  -31.9370 C   0  0  0  0  0  0  0  0  0  0  0  0
   -8.1240   21.6110  -32.1200 C   0  0  0  0  0  0  0  0  0  0  0  0
   -6.9120   21.1270  -31.6000 C   0  0  0  0  0  0  0  0  0  0  0  0
   -6.5220   19.7570  -31.7870 N   0  0  0  0  0  0  0  0  0  0  0  0
   -7.3500   18.7610  -32.4090 C   0  0  0  0  0  0  0  0  0  0  0  0
   -8.9880   18.8900  -32.3470 S   0  0  0  0  0  0  0  0  0  0  0  0
   -6.7820   17.5070  -32.8080 N   0  0  0  0  0  0  0  0  0  0  0  0
   -5.4330   17.3540  -33.2820 C   0  0  0  0  0  0  0  0  0  0  0  0
   -4.5630   16.4100  -32.7110 C   0  0  0  0  0  0  0  0  0  0  0  0
   -3.2190   16.3620  -33.1010 C   0  0  0  0  0  0  0  0  0  0  0  0
   -2.7300   17.2390  -34.0780 C   0  0  0  0  0  0  0  0  0  0  0  0
   -1.0110   17.2480  -34.4910 S   0  0  0  0  0  0  0  0  0  0  0  0
   -0.8640   16.8590  -35.9340 O   0  0  0  0  0  0  0  0  0  0  0  0
   -0.3030   16.2210  -33.6560 O   0  0  0  0  0  0  0  0  0  0  0  0
   -0.3030   18.8260  -34.2030 N   0  0  0  0  0  0  0  0  0  0  0  0
   -0.1000   19.5260  -35.4840 C   0  0  0  0  0  0  0  0  0  0  0  0
    0.4850   20.9450  -35.2600 C   0  0  0  0  0  0  0  0  0  0  0  0
    0.2720   21.4530  -33.9530 O   0  0  0  0  0  0  0  0  0  0  0  0
   -1.0270   21.1290  -33.5100 C   0  0  0  0  0  0  0  0  0  0  0  0
   -1.1420   19.6140  -33.2650 C   0  0  0  0  0  0  0  0  0  0  0  0
   -3.6020   18.1740  -34.6540 C   0  0  0  0  0  0  0  0  0  0  0  0
   -4.9410   18.2360  -34.2520 C   0  0  0  0  0  0  0  0  0  0  0  0
   -6.0500   22.0100  -30.9340 C   0  0  0  0  0  0  0  0  0  0  0  0
   -4.4130   23.6320  -28.6370 N   0  0  0  0  0  0  0  0  0  0  0  0
   -4.2050   24.4640  -27.4270 C   0  0  0  0  0  0  0  0  0  0  0  0
   -2.7350   24.5890  -27.0070 C   0  0  0  0  0  0  0  0  0  0  0  0
   -1.8760   24.9130  -28.2200 C   0  0  0  0  0  0  0  0  0  0  0  0
   -1.9680   23.8140  -29.2860 C   0  0  0  0  0  0  0  0  0  0  0  0
   -3.2250   22.9260  -29.1620 C   0  0  0  0  0  0  0  0  0  0  0  0
   -7.9269   24.8659  -31.0969 H   0  0  0  0  0  0  0  0  0  0  0  0
   -9.4407   23.3164  -32.3348 H   0  0  0  0  0  0  0  0  0  0  0  0
   -8.7918   20.9345  -32.6735 H   0  0  0  0  0  0  0  0  0  0  0  0
   -5.6220   19.4390  -31.3630 H   0  0  0  0  0  0  0  0  0  0  0  0
   -7.3940   16.6590  -32.7990 H   0  0  0  0  0  0  0  0  0  0  0  0
   -4.9392   15.7057  -31.9544 H   0  0  0  0  0  0  0  0  0  0  0  0
   -2.5419   15.6300  -32.6366 H   0  0  0  0  0  0  0  0  0  0  0  0
    0.6370   18.6670  -33.7680 H   0  0  0  0  0  0  0  0  0  0  0  0
    0.5973   18.9441  -36.1045 H   0  0  0  0  0  0  0  0  0  0  0  0
   -1.0741   19.6255  -35.9853 H   0  0  0  0  0  0  0  0  0  0  0  0
    1.5687   20.9063  -35.4445 H   0  0  0  0  0  0  0  0  0  0  0  0
   -0.0369   21.6196  -35.9546 H   0  0  0  0  0  0  0  0  0  0  0  0
   -1.2358   21.6656  -32.5727 H   0  0  0  0  0  0  0  0  0  0  0  0
   -1.7536   21.4242  -34.2813 H   0  0  0  0  0  0  0  0  0  0  0  0
   -0.8210   19.3968  -32.2355 H   0  0  0  0  0  0  0  0  0  0  0  0
   -2.1909   19.3255  -33.4282 H   0  0  0  0  0  0  0  0  0  0  0  0
   -3.2311   18.8632  -35.4269 H   0  0  0  0  0  0  0  0  0  0  0  0
   -5.6119   18.9830  -34.7013 H   0  0  0  0  0  0  0  0  0  0  0  0
   -5.0868   21.6449  -30.5480 H   0  0  0  0  0  0  0  0  0  0  0  0
   -4.5952   25.4726  -27.6283 H   0  0  0  0  0  0  0  0  0  0  0  0
   -4.7331   23.9656  -26.6007 H   0  0  0  0  0  0  0  0  0  0  0  0
   -2.6351   25.3938  -26.2638 H   0  0  0  0  0  0  0  0  0  0  0  0
   -2.4007   23.6363  -26.5704 H   0  0  0  0  0  0  0  0  0  0  0  0
   -2.2180   25.8631  -28.6562 H   0  0  0  0  0  0  0  0  0  0  0  0
   -0.8290   24.9866  -27.8908 H   0  0  0  0  0  0  0  0  0  0  0  0
   -1.9781   24.2922  -30.2765 H   0  0  0  0  0  0  0  0  0  0  0  0
   -1.0975   23.1569  -29.1432 H   0  0  0  0  0  0  0  0  0  0  0  0
   -3.4698   22.5325  -30.1596 H   0  0  0  0  0  0  0  0  0  0  0  0
   -2.9828   22.1322  -28.4400 H   0  0  0  0  0  0  0  0  0  0  0  0
  1  2  2  0
  2  3  2  0
  2  4  1  0
  4  5  2  0
  5  6  1  0
  6  7  2  0
  7  8  1  0
  8  9  1  0
  9 10  1  0
 10 11  2  0
 10 12  1  0
 12 13  1  0
 13 14  2  0
 14 15  1  0
 15 16  2  0
 16 17  1  0
 17 18  2  0
 17 19  2  0
 17 20  1  0
 20 21  1  0
 21 22  1  0
 22 23  1  0
 23 24  1  0
 24 25  1  0
 16 26  1  0
 26 27  2  0
  8 28  2  0
  2 29  1  0
 29 30  1  0
 30 31  1  0
 31 32  1  0
 32 33  1  0
 33 34  1  0
 28  4  1  0
 34 29  1  0
 27 13  1  0
 25 20  1  0
  5 35  1  0
  6 36  1  0
  7 37  1  0
  9 38  1  0
 12 39  1  0
 14 40  1  0
 15 41  1  0
 20 42  1  0
 21 43  1  0
 21 44  1  0
 22 45  1  0
 22 46  1  0
 24 47  1  0
 24 48  1  0
 25 49  1  0
 25 50  1  0
 26 51  1  0
 27 52  1  0
 28 53  1  0
 30 54  1  0
 30 55  1  0
 31 56  1  0
 31 57  1  0
 32 58  1  0
 32 59  1  0
 33 60  1  0
 33 61  1  0
 34 62  1  0
 34 63  1  0
M  CHG  1  20   1
M  END
>  <UniqueID>  (23) 
23

>  <SMILES>  (23) 
O=S(=O)(c1cccc(NC(=S)Nc2ccc(S(=O)(=O)[NH+]3CCOCC3)cc2)c1)N1CCCCC1

>  <Energy>  (23) 
90.46090677954349

>  <Genealogy>  (23) 
O=S(=O)(c1cccc(NC(=S)Nc2ccc(S(=O)(=O)[NH+]3CCOCC3)cc2)c1)N1CCCCC1 (protonated)
O=S(=O)(c1cccc(NC(=S)Nc2ccc(S(=O)(=O)[NH+]3CCOCC3)cc2)c1)N1CCCCC1 (3D coordinates assigned)
O=S(=O)(c1cccc(NC(=S)Nc2ccc(S(=O)(=O)[NH+]3CCOCC3)cc2)c1)N1CCCCC1 (nonaromatic ring conformer: 90.46090677954349 kcal/mol)

>  <smiles>  (23) 
O=S(=O)(c1cccc(NC(=S)Nc2ccc(S(=O)(=O)N3CCOCC3)cc2)c1)N1CCCCC1

>  <score_type>  (23) 
oracle

>  <origin>  (23) 
adgpu

>  <m_score__min__energy>  (23) 
-11.119999999999999

>  <m_primary>  (23) 
energy

$$$$
23:0
     RDKit          3D

 53 55  0  0  0  0  0  0  0  0999 V2000
   -6.3710   14.8610  -34.1290 C   0  0  0  0  0  0  0  0  0  0  0  0
   -5.5350   15.8230  -33.7050 C   0  0  0  0  0  0  0  0  0  0  0  0
   -4.0570   15.6970  -33.8470 C   0  0  0  0  0  0  0  0  0  0  0  0
   -6.0920   17.0190  -33.0940 C   0  0  0  0  0  0  0  0  0  0  0  0
   -5.9820   17.1040  -31.8270 O   0  0  0  0  0  0  0  0  0  0  0  0
   -6.7320   18.0570  -33.8120 N   0  0  0  0  0  0  0  0  0  0  0  0
   -7.2270   19.1600  -33.0670 C   0  0  0  0  0  0  0  0  0  0  0  0
   -8.2820   18.9100  -32.1830 C   0  0  0  0  0  0  0  0  0  0  0  0
   -8.8360   19.9170  -31.4190 C   0  0  0  0  0  0  0  0  0  0  0  0
   -8.3350   21.2110  -31.5320 C   0  0  0  0  0  0  0  0  0  0  0  0
   -7.2990   21.4380  -32.4050 C   0  0  0  0  0  0  0  0  0  0  0  0
   -6.7640   22.7680  -32.5670 N   0  0  0  0  0  0  0  0  0  0  0  0
   -6.2300   23.4910  -31.4590 C   0  0  0  0  0  0  0  0  0  0  0  0
   -5.0520   23.3330  -30.7790 C   0  0  0  0  0  0  0  0  0  0  0  0
   -5.0280   24.2950  -29.7780 C   0  0  0  0  0  0  0  0  0  0  0  0
   -3.9900   24.5590  -28.7860 C   0  0  0  0  0  0  0  0  0  0  0  0
   -2.7180   24.8040  -29.1610 N   0  0  0  0  0  0  0  0  0  0  0  0
   -1.7480   25.0590  -28.2330 C   0  0  0  0  0  0  0  0  0  0  0  0
   -0.5260   25.3000  -28.5770 N   0  0  0  0  0  0  0  0  0  0  0  0
   -2.0660   25.0680  -26.8900 C   0  0  0  0  0  0  0  0  0  0  0  0
   -1.0980   25.3310  -25.8330 C   0  0  0  0  0  0  0  0  0  0  0  0
    0.0310   24.7560  -25.7980 O   0  0  0  0  0  0  0  0  0  0  0  0
   -1.4580   26.2600  -24.8280 N   0  0  0  0  0  0  0  0  0  0  0  0
   -0.5010   26.5210  -23.7810 C   0  0  0  0  0  0  0  0  0  0  0  0
    0.1960   27.8240  -24.1000 C   0  0  0  0  0  0  0  0  0  0  0  0
   -3.3770   24.8120  -26.5210 C   0  0  0  0  0  0  0  0  0  0  0  0
   -4.3180   24.5640  -27.4580 N   0  0  0  0  0  0  0  0  0  0  0  0
   -6.2120   25.0170  -29.8860 C   0  0  0  0  0  0  0  0  0  0  0  0
   -6.9290   24.5210  -30.9040 N   0  0  0  0  0  0  0  0  0  0  0  0
   -6.7560   20.4370  -33.1560 C   0  0  0  0  0  0  0  0  0  0  0  0
   -7.4575   14.9846  -34.0095 H   0  0  0  0  0  0  0  0  0  0  0  0
   -5.9692   13.9496  -34.5957 H   0  0  0  0  0  0  0  0  0  0  0  0
   -3.5949   15.6576  -32.8496 H   0  0  0  0  0  0  0  0  0  0  0  0
   -3.8188   14.7753  -34.3981 H   0  0  0  0  0  0  0  0  0  0  0  0
   -3.6663   16.5651  -34.3981 H   0  0  0  0  0  0  0  0  0  0  0  0
   -6.8200   17.9940  -34.8320 H   0  0  0  0  0  0  0  0  0  0  0  0
   -8.6789   17.8879  -32.0949 H   0  0  0  0  0  0  0  0  0  0  0  0
   -9.6642   19.6996  -30.7285 H   0  0  0  0  0  0  0  0  0  0  0  0
   -8.7589   22.0326  -30.9360 H   0  0  0  0  0  0  0  0  0  0  0  0
   -6.7530   23.2330  -33.4880 H   0  0  0  0  0  0  0  0  0  0  0  0
   -4.2722   22.5854  -30.9865 H   0  0  0  0  0  0  0  0  0  0  0  0
   -0.2500   25.3060  -29.5750 H   0  0  0  0  0  0  0  0  0  0  0  0
   -2.3770   26.7260  -24.8580 H   0  0  0  0  0  0  0  0  0  0  0  0
   -1.0185   26.6015  -22.8137 H   0  0  0  0  0  0  0  0  0  0  0  0
    0.2302   25.7016  -23.7184 H   0  0  0  0  0  0  0  0  0  0  0  0
    0.4683   28.3330  -23.1636 H   0  0  0  0  0  0  0  0  0  0  0  0
    1.1054   27.6199  -24.6842 H   0  0  0  0  0  0  0  0  0  0  0  0
   -0.4785   28.4672  -24.6842 H   0  0  0  0  0  0  0  0  0  0  0  0
   -3.6537   24.8107  -25.4564 H   0  0  0  0  0  0  0  0  0  0  0  0
   -5.3070   24.3730  -27.1470 H   0  0  0  0  0  0  0  0  0  0  0  0
   -6.5108   25.8570  -29.2418 H   0  0  0  0  0  0  0  0  0  0  0  0
   -7.8670   24.8780  -31.2090 H   0  0  0  0  0  0  0  0  0  0  0  0
   -5.9269   20.6628  -33.8428 H   0  0  0  0  0  0  0  0  0  0  0  0
  1  2  2  0
  2  3  1  0
  2  4  1  0
  4  5  2  0
  4  6  1  0
  6  7  1  0
  7  8  2  0
  8  9  1  0
  9 10  2  0
 10 11  1  0
 11 12  1  0
 12 13  1  0
 13 14  2  0
 14 15  1  0
 15 16  1  0
 16 17  2  0
 17 18  1  0
 18 19  2  3
 18 20  1  0
 20 21  1  0
 21 22  2  0
 21 23  1  0
 23 24  1  0
 24 25  1  0
 20 26  2  0
 26 27  1  0
 15 28  2  0
 28 29  1  0
 11 30  2  0
 30  7  1  0
 29 13  1  0
 27 16  1  0
  1 31  1  0
  1 32  1  0
  3 33  1  0
  3 34  1  0
  3 35  1  0
  6 36  1  0
  8 37  1  0
  9 38  1  0
 10 39  1  0
 12 40  1  0
 14 41  1  0
 19 42  1  0
 23 43  1  0
 24 44  1  0
 24 45  1  0
 25 46  1  0
 25 47  1  0
 25 48  1  0
 26 49  1  0
 27 50  1  0
 28 51  1  0
 29 52  1  0
 30 53  1  0
M  END
>  <smiles>  (24) 
C=C(C)C(=O)Nc1cccc(Nc2cc(-c3nc(=N)c(C(=O)NCC)c[nH]3)c[nH]2)c1

>  <score_type>  (24) 
oracle

>  <origin>  (24) 
adgpu

>  <m_score__min__energy>  (24) 
-10

>  <m_primary>  (24) 
energy

$$$$
24:0
     RDKit          3D

 39 42  0  0  0  0  0  0  0  0999 V2000
   -0.2061   24.9107  -27.8488 H   0  0  0  0  0  0  0  0  0  0  0  0
   -1.2570   24.7230  -28.1140 C   0  0  0  0  0  0  0  0  0  0  0  0
   -1.7710   25.0500  -29.3290 N   0  0  0  0  0  0  0  0  0  0  0  0
   -3.0770   24.7250  -29.4210 C   0  0  0  0  0  0  0  0  0  0  0  0
   -3.7720   24.9440  -30.4960 N   0  0  0  0  0  0  0  0  0  0  0  0
   -5.4500   24.5400  -30.6740 S   0  0  0  0  0  0  0  0  0  0  0  0
   -6.1150   24.5980  -29.3280 O   0  0  0  0  0  0  0  0  0  0  0  0
   -6.1030   25.5410  -31.5860 O   0  0  0  0  0  0  0  0  0  0  0  0
   -5.6150   22.9350  -31.3800 C   0  0  0  0  0  0  0  0  0  0  0  0
   -6.6460   22.0800  -30.9690 C   0  0  0  0  0  0  0  0  0  0  0  0
   -7.3652   22.4146  -30.2069 H   0  0  0  0  0  0  0  0  0  0  0  0
   -6.7630   20.8030  -31.5250 C   0  0  0  0  0  0  0  0  0  0  0  0
   -7.5602   20.1277  -31.1808 H   0  0  0  0  0  0  0  0  0  0  0  0
   -5.8710   20.3780  -32.5180 C   0  0  0  0  0  0  0  0  0  0  0  0
   -5.9780   19.0410  -33.0300 N   0  0  0  0  0  0  0  0  0  0  0  0
   -5.0140   18.1870  -33.2510 C   0  0  0  0  0  0  0  0  0  0  0  0
   -3.6570   18.5490  -33.1320 C   0  0  0  0  0  0  0  0  0  0  0  0
   -3.3857   19.5738  -32.8383 H   0  0  0  0  0  0  0  0  0  0  0  0
   -2.6580   17.6100  -33.3860 C   0  0  0  0  0  0  0  0  0  0  0  0
   -1.6011   17.8960  -33.2802 H   0  0  0  0  0  0  0  0  0  0  0  0
   -2.9790   16.3450  -33.7630 N   0  0  0  0  0  0  0  0  0  0  0  0
   -2.2020   15.6710  -33.9460 H   0  0  0  0  0  0  0  0  0  0  0  0
   -4.2770   15.9540  -33.9130 C   0  0  0  0  0  0  0  0  0  0  0  0
   -4.5740   14.6420  -34.3160 C   0  0  0  0  0  0  0  0  0  0  0  0
   -3.7574   13.9305  -34.5082 H   0  0  0  0  0  0  0  0  0  0  0  0
   -5.9000   14.2360  -34.4740 C   0  0  0  0  0  0  0  0  0  0  0  0
   -6.1248   13.2066  -34.7900 H   0  0  0  0  0  0  0  0  0  0  0  0
   -6.9410   15.1330  -34.2320 C   0  0  0  0  0  0  0  0  0  0  0  0
   -7.9843   14.8081  -34.3583 H   0  0  0  0  0  0  0  0  0  0  0  0
   -6.6640   16.4420  -33.8300 C   0  0  0  0  0  0  0  0  0  0  0  0
   -7.4911   17.1421  -33.6409 H   0  0  0  0  0  0  0  0  0  0  0  0
   -5.3300   16.8720  -33.6650 C   0  0  0  0  0  0  0  0  0  0  0  0
   -4.8190   21.2250  -32.9060 C   0  0  0  0  0  0  0  0  0  0  0  0
   -4.0848   20.8814  -33.6495 H   0  0  0  0  0  0  0  0  0  0  0  0
   -4.7020   22.5020  -32.3510 C   0  0  0  0  0  0  0  0  0  0  0  0
   -3.8908   23.1695  -32.6773 H   0  0  0  0  0  0  0  0  0  0  0  0
   -3.6470   24.0190  -27.9990 S   0  0  0  0  0  0  0  0  0  0  0  0
   -2.1550   24.1340  -27.2300 C   0  0  0  0  0  0  0  0  0  0  0  0
   -1.9290   23.8013  -26.2062 H   0  0  0  0  0  0  0  0  0  0  0  0
  1  2  1  0
  2  3  1  0
  3  4  1  0
  4  5  2  3
  5  6  1  0
  6  7  2  0
  6  8  2  0
  6  9  1  0
  9 10  2  0
 10 11  1  0
 10 12  1  0
 12 13  1  0
 12 14  2  0
 14 15  1  0
 15 16  2  0
 16 17  1  0
 17 18  1  0
 17 19  2  0
 19 20  1  0
 19 21  1  0
 21 22  1  0
 21 23  1  0
 23 24  2  0
 24 25  1  0
 24 26  1  0
 26 27  1  0
 26 28  2  0
 28 29  1  0
 28 30  1  0
 30 31  1  0
 30 32  2  0
 14 33  1  0
 33 34  1  0
 33 35  2  0
 35 36  1  0
  4 37  1  0
 37 38  1  0
 38 39  1  0
 38  2  2  0
 35  9  1  0
 32 16  1  0
 32 23  1  0
M  CHG  1   3  -1
M  END
>  <UniqueID>  (25) 
24

>  <SMILES>  (25) 
O=S(=O)(N=c1[n-]ccs1)c1ccc(/N=c2\cc[nH]c3ccccc23)cc1

>  <Energy>  (25) 
91.73405646670186

>  <Genealogy>  (25) 
O=S(=O)(N=c1[n-]ccs1)c1ccc(N=c2cc[nH]c3ccccc23)cc1 (protonated)
O=S(=O)(N=c1[n-]ccs1)c1ccc(/N=c2\cc[nH]c3ccccc23)cc1 (cis-trans isomerization)
O=S(=O)(N=c1[n-]ccs1)c1ccc(/N=c2\cc[nH]c3ccccc23)cc1 (3D coordinates assigned)
O=S(=O)(N=c1[n-]ccs1)c1ccc(/N=c2\cc[nH]c3ccccc23)cc1 (optimized conformer: 91.73405646670186 kcal/mol)

>  <smiles>  (25) 
O=S(=O)(N=c1[nH]ccs1)c1ccc(N=c2cc[nH]c3ccccc23)cc1

>  <score_type>  (25) 
oracle

>  <origin>  (25) 
adgpu

>  <m_score__min__energy>  (25) 
-9.8599999999999994

>  <m_primary>  (25) 
energy

$$$$
25:0
     RDKit          3D

 50 53  0  0  0  0  0  0  0  0999 V2000
   -1.0270   21.3950  -27.2790 C   0  0  0  0  0  0  0  0  0  0  0  0
   -1.7200   22.4380  -28.1150 C   0  0  0  0  0  0  0  0  0  0  0  0
   -2.8330   22.0490  -28.8780 C   0  0  0  0  0  0  0  0  0  0  0  0
   -3.5220   22.9730  -29.6590 C   0  0  0  0  0  0  0  0  0  0  0  0
   -3.1040   24.3100  -29.7080 C   0  0  0  0  0  0  0  0  0  0  0  0
   -3.8200   25.2940  -30.4700 N   0  0  0  0  0  0  0  0  0  0  0  0
   -5.2170   25.2820  -30.7920 C   0  0  0  0  0  0  0  0  0  0  0  0
   -6.0580   25.7840  -30.0010 O   0  0  0  0  0  0  0  0  0  0  0  0
   -5.6840   24.6030  -31.9610 N   0  0  0  0  0  0  0  0  0  0  0  0
   -6.4030   23.3600  -31.9850 C   0  0  0  0  0  0  0  0  0  0  0  0
   -7.6600   23.2410  -31.3750 C   0  0  0  0  0  0  0  0  0  0  0  0
   -8.3310   22.0220  -31.3730 C   0  0  0  0  0  0  0  0  0  0  0  0
   -7.7630   20.8970  -31.9740 C   0  0  0  0  0  0  0  0  0  0  0  0
   -8.6560   19.3830  -31.8690 Cl  0  0  0  0  0  0  0  0  0  0  0  0
   -6.4940   20.9890  -32.5910 C   0  0  0  0  0  0  0  0  0  0  0  0
   -5.7560   19.5580  -33.3540 S   0  0  0  0  0  0  0  0  0  0  0  0
   -6.4670   19.2660  -34.6460 O   0  0  0  0  0  0  0  0  0  0  0  0
   -4.3160   19.8300  -33.6890 O   0  0  0  0  0  0  0  0  0  0  0  0
   -5.8240   18.0920  -32.3210 C   0  0  0  0  0  0  0  0  0  0  0  0
   -5.0420   16.8730  -32.7870 C   0  0  0  0  0  0  0  0  0  0  0  0
   -6.5490   16.9240  -32.9710 C   0  0  0  0  0  0  0  0  0  0  0  0
   -5.8060   22.2230  -32.5690 C   0  0  0  0  0  0  0  0  0  0  0  0
   -4.5290   22.3150  -33.1280 O   0  0  0  0  0  0  0  0  0  0  0  0
   -2.0010   24.7170  -28.9460 C   0  0  0  0  0  0  0  0  0  0  0  0
   -1.6330   26.0590  -28.9690 O   0  0  0  0  0  0  0  0  0  0  0  0
   -1.2780   23.7860  -28.1640 C   0  0  0  0  0  0  0  0  0  0  0  0
    0.1390   24.3290  -27.2250 S   0  0  0  0  0  0  0  0  0  0  0  0
    0.6610   23.1860  -26.4040 O   0  0  0  0  0  0  0  0  0  0  0  0
    1.2450   24.7540  -28.1510 O   0  0  0  0  0  0  0  0  0  0  0  0
   -0.2330   25.6980  -26.1250 C   0  0  0  0  0  0  0  0  0  0  0  0
   -0.6540   25.3540  -24.7040 C   0  0  0  0  0  0  0  0  0  0  0  0
   -1.6980   25.7760  -25.7230 C   0  0  0  0  0  0  0  0  0  0  0  0
   -1.1769   21.6206  -26.2129 H   0  0  0  0  0  0  0  0  0  0  0  0
   -1.4470   20.4041  -27.5067 H   0  0  0  0  0  0  0  0  0  0  0  0
    0.0492   21.3982  -27.5067 H   0  0  0  0  0  0  0  0  0  0  0  0
   -3.1648   21.0004  -28.8583 H   0  0  0  0  0  0  0  0  0  0  0  0
   -4.3988   22.6521  -30.2405 H   0  0  0  0  0  0  0  0  0  0  0  0
   -8.1189   24.1177  -30.8946 H   0  0  0  0  0  0  0  0  0  0  0  0
   -9.3179   21.9440  -30.8936 H   0  0  0  0  0  0  0  0  0  0  0  0
   -5.8786   18.6394  -31.3685 H   0  0  0  0  0  0  0  0  0  0  0  0
   -4.3784   16.9465  -33.6612 H   0  0  0  0  0  0  0  0  0  0  0  0
   -4.3397   16.1716  -32.3128 H   0  0  0  0  0  0  0  0  0  0  0  0
   -6.9765   17.0342  -33.9785 H   0  0  0  0  0  0  0  0  0  0  0  0
   -7.3895   16.2745  -32.6852 H   0  0  0  0  0  0  0  0  0  0  0  0
   -4.3110   21.9820  -34.0590 H   0  0  0  0  0  0  0  0  0  0  0  0
    0.5179   26.3798  -26.5508 H   0  0  0  0  0  0  0  0  0  0  0  0
   -0.6151   24.3112  -24.3562 H   0  0  0  0  0  0  0  0  0  0  0  0
   -0.3619   25.6995  -23.7013 H   0  0  0  0  0  0  0  0  0  0  0  0
   -2.4152   25.0387  -26.1130 H   0  0  0  0  0  0  0  0  0  0  0  0
   -2.4750   26.5536  -25.7636 H   0  0  0  0  0  0  0  0  0  0  0  0
  1  2  1  0
  2  3  2  0
  3  4  1  0
  4  5  2  0
  5  6  1  0
  6  7  1  0
  7  8  2  0
  7  9  1  0
  9 10  1  0
 10 11  2  0
 11 12  1  0
 12 13  2  0
 13 14  1  0
 13 15  1  0
 15 16  1  0
 16 17  2  0
 16 18  2  0
 16 19  1  0
 19 20  1  0
 20 21  1  0
 15 22  2  0
 22 23  1  0
  5 24  1  0
 24 25  1  0
 24 26  2  0
 26 27  1  0
 27 28  2  0
 27 29  2  0
 27 30  1  0
 30 31  1  0
 31 32  1  0
 26  2  1  0
 32 30  1  0
 22 10  1  0
 21 19  1  0
  1 33  1  0
  1 34  1  0
  1 35  1  0
  3 36  1  0
  4 37  1  0
 11 38  1  0
 12 39  1  0
 19 40  1  0
 20 41  1  0
 20 42  1  0
 21 43  1  0
 21 44  1  0
 23 45  1  0
 30 46  1  0
 31 47  1  0
 31 48  1  0
 32 49  1  0
 32 50  1  0
M  CHG  3   6  -1   9  -1  25  -1
M  END
>  <UniqueID>  (26) 
25

>  <SMILES>  (26) 
Cc1ccc([N-]C(=O)[N-]c2ccc(Cl)c(S(=O)(=O)C3CC3)c2O)c([O-])c1S(=O)(=O)C1CC1

>  <Energy>  (26) 
592.997296867107

>  <Genealogy>  (26) 
Cc1ccc([N-]C(=O)[N-]c2ccc(Cl)c(S(=O)(=O)C3CC3)c2O)c([O-])c1S(=O)(=O)C1CC1 (protonated)
Cc1ccc([N-]C(=O)[N-]c2ccc(Cl)c(S(=O)(=O)C3CC3)c2O)c([O-])c1S(=O)(=O)C1CC1 (3D coordinates assigned)
Cc1ccc([N-]C(=O)[N-]c2ccc(Cl)c(S(=O)(=O)C3CC3)c2O)c([O-])c1S(=O)(=O)C1CC1 (nonaromatic ring conformer: 592.997296867107 kcal/mol)

>  <smiles>  (26) 
Cc1ccc(NC(=O)Nc2ccc(Cl)c(S(=O)(=O)C3CC3)c2O)c(O)c1S(=O)(=O)C1CC1

>  <score_type>  (26) 
oracle

>  <origin>  (26) 
adgpu

>  <m_score__min__energy>  (26) 
-16.82

>  <m_primary>  (26) 
energy

$$$$
26:0
     RDKit          3D

 44 46  0  0  0  0  0  0  0  0999 V2000
   -5.9370   25.7290  -30.7150 O   0  0  0  0  0  0  0  0  0  0  0  0
   -4.9790   24.9370  -30.9120 C   0  0  0  0  0  0  0  0  0  0  0  0
   -5.2020   23.7660  -31.7060 N   0  0  0  0  0  0  0  0  0  0  0  0
   -6.4250   23.0200  -31.7880 C   0  0  0  0  0  0  0  0  0  0  0  0
   -7.6820   23.6500  -31.7930 C   0  0  0  0  0  0  0  0  0  0  0  0
   -8.8490   22.8890  -31.9010 C   0  0  0  0  0  0  0  0  0  0  0  0
   -8.7720   21.4990  -32.0200 C   0  0  0  0  0  0  0  0  0  0  0  0
   -7.5250   20.8620  -32.0460 C   0  0  0  0  0  0  0  0  0  0  0  0
   -7.4300   19.1090  -32.2260 S   0  0  0  0  0  0  0  0  0  0  0  0
   -8.7520   18.5930  -32.7220 O   0  0  0  0  0  0  0  0  0  0  0  0
   -7.1620   18.4850  -30.8840 O   0  0  0  0  0  0  0  0  0  0  0  0
   -6.1730   18.6430  -33.3460 N   0  0  0  0  0  0  0  0  0  0  0  0
   -4.8460   18.8640  -32.7470 C   0  0  0  0  0  0  0  0  0  0  0  0
   -3.7450   18.6930  -33.8100 C   0  0  0  0  0  0  0  0  0  0  0  0
   -4.1920   17.8060  -34.9840 C   0  0  0  0  0  0  0  0  0  0  0  0
   -5.1130   16.6800  -34.5020 C   0  0  0  0  0  0  0  0  0  0  0  0
   -6.3440   17.2310  -33.7460 C   0  0  0  0  0  0  0  0  0  0  0  0
   -6.3550   21.6280  -31.9370 C   0  0  0  0  0  0  0  0  0  0  0  0
   -3.6840   25.2040  -30.3570 N   0  0  0  0  0  0  0  0  0  0  0  0
   -3.0240   24.4690  -29.3160 C   0  0  0  0  0  0  0  0  0  0  0  0
   -3.5940   23.3160  -28.7420 C   0  0  0  0  0  0  0  0  0  0  0  0
   -2.9300   22.6410  -27.7120 C   0  0  0  0  0  0  0  0  0  0  0  0
   -1.7050   23.1150  -27.2380 C   0  0  0  0  0  0  0  0  0  0  0  0
   -1.1450   24.2710  -27.7860 C   0  0  0  0  0  0  0  0  0  0  0  0
   -1.8030   24.9520  -28.8170 C   0  0  0  0  0  0  0  0  0  0  0  0
   -1.2380   26.1050  -29.3470 O   0  0  0  0  0  0  0  0  0  0  0  0
   -7.7469   24.7451  -31.7117 H   0  0  0  0  0  0  0  0  0  0  0  0
   -9.8306   23.3854  -31.8923 H   0  0  0  0  0  0  0  0  0  0  0  0
   -9.6937   20.9031  -32.0935 H   0  0  0  0  0  0  0  0  0  0  0  0
   -4.7985   19.8832  -32.3360 H   0  0  0  0  0  0  0  0  0  0  0  0
   -4.6877   18.1270  -31.9459 H   0  0  0  0  0  0  0  0  0  0  0  0
   -3.4747   19.6852  -34.2006 H   0  0  0  0  0  0  0  0  0  0  0  0
   -2.8879   18.2010  -33.3270 H   0  0  0  0  0  0  0  0  0  0  0  0
   -4.7322   18.4239  -35.7164 H   0  0  0  0  0  0  0  0  0  0  0  0
   -3.2993   17.3562  -35.4431 H   0  0  0  0  0  0  0  0  0  0  0  0
   -5.4583   16.1044  -35.3735 H   0  0  0  0  0  0  0  0  0  0  0  0
   -4.5425   16.0436  -33.8096 H   0  0  0  0  0  0  0  0  0  0  0  0
   -7.2246   17.1533  -34.4006 H   0  0  0  0  0  0  0  0  0  0  0  0
   -6.4695   16.6354  -32.8297 H   0  0  0  0  0  0  0  0  0  0  0  0
   -5.3738   21.1319  -31.9687 H   0  0  0  0  0  0  0  0  0  0  0  0
   -4.5640   22.9451  -29.1046 H   0  0  0  0  0  0  0  0  0  0  0  0
   -3.3740   21.7347  -27.2745 H   0  0  0  0  0  0  0  0  0  0  0  0
   -1.1814   22.5781  -26.4333 H   0  0  0  0  0  0  0  0  0  0  0  0
   -0.1838   24.6477  -27.4063 H   0  0  0  0  0  0  0  0  0  0  0  0
  1  2  2  0
  2  3  1  0
  3  4  1  0
  4  5  2  0
  5  6  1  0
  6  7  2  0
  7  8  1  0
  8  9  1  0
  9 10  2  0
  9 11  2  0
  9 12  1  0
 12 13  1  0
 13 14  1  0
 14 15  1  0
 15 16  1  0
 16 17  1  0
  8 18  2  0
  2 19  1  0
 19 20  1  0
 20 21  2  0
 21 22  1  0
 22 23  2  0
 23 24  1  0
 24 25  2  0
 25 26  1  0
 18  4  1  0
 25 20  1  0
 17 12  1  0
  5 27  1  0
  6 28  1  0
  7 29  1  0
 13 30  1  0
 13 31  1  0
 14 32  1  0
 14 33  1  0
 15 34  1  0
 15 35  1  0
 16 36  1  0
 16 37  1  0
 17 38  1  0
 17 39  1  0
 18 40  1  0
 21 41  1  0
 22 42  1  0
 23 43  1  0
 24 44  1  0
M  CHG  3   3  -1  19  -1  26  -1
M  END
>  <UniqueID>  (27) 
26

>  <SMILES>  (27) 
O=C([N-]c1cccc(S(=O)(=O)N2CCCCC2)c1)[N-]c1ccccc1[O-]

>  <Energy>  (27) 
54.9900705457256

>  <Genealogy>  (27) 
O=C([N-]c1cccc(S(=O)(=O)N2CCCCC2)c1)[N-]c1ccccc1[O-] (protonated)
O=C([N-]c1cccc(S(=O)(=O)N2CCCCC2)c1)[N-]c1ccccc1[O-] (3D coordinates assigned)
O=C([N-]c1cccc(S(=O)(=O)N2CCCCC2)c1)[N-]c1ccccc1[O-] (nonaromatic ring conformer: 54.9900705457256 kcal/mol)

>  <smiles>  (27) 
O=C(Nc1cccc(S(=O)(=O)N2CCCCC2)c1)Nc1ccccc1O

>  <score_type>  (27) 
oracle

>  <origin>  (27) 
adgpu

>  <m_score__min__energy>  (27) 
-15.16

>  <m_primary>  (27) 
energy

$$$$
27:0
     RDKit          3D

 55 58  0  0  1  0  0  0  0  0999 V2000
   -4.6270   13.2220  -31.1810 C   0  0  0  0  0  0  0  0  0  0  0  0
   -3.6590   13.7460  -32.0560 O   0  0  0  0  0  0  0  0  0  0  0  0
   -3.8690   14.9530  -32.6770 C   0  0  0  0  0  0  0  0  0  0  0  0
   -5.0200   15.6710  -32.3340 C   0  0  0  0  0  0  0  0  0  0  0  0
   -5.3050   16.8960  -32.9160 C   0  0  0  0  0  0  0  0  0  0  0  0
   -6.3740   17.4810  -32.5430 N   0  0  0  0  0  0  0  0  0  0  0  0
   -6.7870   19.0050  -33.2240 S   0  0  0  0  0  0  0  0  0  0  0  0
   -8.2480   19.3310  -33.0640 O   0  0  0  0  0  0  0  0  0  0  0  0
   -6.4620   18.9220  -34.7070 O   0  0  0  0  0  0  0  0  0  0  0  0
   -5.7800   20.2270  -32.5130 C   0  0  0  0  0  0  0  0  0  0  0  0
   -4.3900   20.1250  -32.4630 C   0  0  0  0  0  0  0  0  0  0  0  0
   -3.5890   21.0790  -31.8970 C   0  0  0  0  0  0  0  0  0  0  0  0
   -4.1680   22.2000  -31.3450 C   0  0  0  0  0  0  0  0  0  0  0  0
   -3.4270   23.2480  -30.7320 N   0  0  0  0  0  0  0  0  0  0  0  0
   -3.1430   23.2170  -29.3580 C   0  0  0  0  0  0  0  0  0  0  0  0
   -3.5220   22.2740  -28.6000 O   0  0  0  0  0  0  0  0  0  0  0  0
   -2.3860   24.3000  -28.7650 C   0  0  0  0  0  0  0  0  0  0  0  0
   -2.2550   24.5540  -27.3930 C   0  0  0  0  0  0  0  0  0  0  0  0
   -1.4660   25.6630  -27.1920 C   0  0  0  0  0  0  0  0  0  0  0  0
   -1.0420   26.3180  -25.9640 C   0  0  0  0  0  0  0  0  0  0  0  0
   -1.1600   25.6010  -24.7880 C   0  0  0  0  0  0  0  0  0  0  0  0
   -0.7760   26.1590  -23.5630 C   0  0  0  0  0  0  0  0  0  0  0  0
   -0.2660   27.4580  -23.5230 C   0  0  0  0  0  0  0  0  0  0  0  0
   -0.1410   28.1900  -24.7050 C   0  0  0  0  0  0  0  0  0  0  0  0
   -0.5370   27.5960  -25.9090 C   0  0  0  0  0  0  0  0  0  0  0  0
   -0.4040   28.3430  -27.0610 O   0  0  0  0  0  0  0  0  0  0  0  0
   -1.1230   26.0790  -28.4220 N   0  0  0  0  0  0  0  0  0  0  0  0
   -1.6650   25.2760  -29.3450 N   0  0  0  0  0  0  0  0  0  0  0  0
   -5.5490   22.3540  -31.3680 C   0  0  0  0  0  0  0  0  0  0  0  0
   -6.3160   21.3660  -31.9500 C   0  0  0  0  0  0  0  0  0  0  0  0
   -4.4330   17.3650  -33.8190 N   0  0  0  0  0  0  0  0  0  0  0  0
   -3.3160   16.7000  -34.1710 C   0  0  0  0  0  0  0  0  0  0  0  0
   -2.3970   17.1450  -35.0930 O   0  0  0  0  0  0  0  0  0  0  0  0
   -1.4540   16.2760  -35.6660 C   0  0  0  0  0  0  0  0  0  0  0  0
   -3.0710   15.5090  -33.5850 N   0  0  0  0  0  0  0  0  0  0  0  0
   -4.3119   13.3926  -30.1410 H   0  0  0  0  0  0  0  0  0  0  0  0
   -5.5907   13.7216  -31.3588 H   0  0  0  0  0  0  0  0  0  0  0  0
   -4.7356   12.1419  -31.3588 H   0  0  0  0  0  0  0  0  0  0  0  0
   -5.7124   15.2548  -31.5875 H   0  0  0  0  0  0  0  0  0  0  0  0
   -3.9146   19.2344  -32.8998 H   0  0  0  0  0  0  0  0  0  0  0  0
   -2.4964   20.9522  -31.8830 H   0  0  0  0  0  0  0  0  0  0  0  0
   -3.0800   24.0580  -31.2960 H   0  0  0  0  0  0  0  0  0  0  0  0
   -2.7155   23.9545  -26.5939 H   0  0  0  0  0  0  0  0  0  0  0  0
   -1.5614   24.5772  -24.8153 H   0  0  0  0  0  0  0  0  0  0  0  0
   -0.8757   25.5762  -22.6354 H   0  0  0  0  0  0  0  0  0  0  0  0
    0.0362   27.9031  -22.5635 H   0  0  0  0  0  0  0  0  0  0  0  0
    0.2609   29.2138  -24.6905 H   0  0  0  0  0  0  0  0  0  0  0  0
   -1.2030   28.8760  -27.3920 H   0  0  0  0  0  0  0  0  0  0  0  0
   -0.5270   26.8930  -28.7190 H   0  0  0  0  0  0  0  0  0  0  0  0
   -6.0212   23.2461  -30.9308 H   0  0  0  0  0  0  0  0  0  0  0  0
   -7.4085   21.4930  -31.9657 H   0  0  0  0  0  0  0  0  0  0  0  0
   -0.8967   15.7624  -34.8687 H   0  0  0  0  0  0  0  0  0  0  0  0
   -1.9720   15.5320  -36.2890 H   0  0  0  0  0  0  0  0  0  0  0  0
   -0.7547   16.8530  -36.2890 H   0  0  0  0  0  0  0  0  0  0  0  0
   -2.2060   14.9750  -33.8470 H   0  0  0  0  0  0  0  0  0  0  0  0
  1  2  1  0
  2  3  1  0
  3  4  2  0
  4  5  1  0
  5  6  2  0
  6  7  1  0
  7  8  2  0
  7  9  2  0
  7 10  1  0
 10 11  2  0
 11 12  1  0
 12 13  2  0
 13 14  1  0
 14 15  1  0
 15 16  2  0
 15 17  1  0
 17 18  1  0
 18 19  2  0
 19 20  1  0
 20 21  2  0
 21 22  1  0
 22 23  2  0
 23 24  1  0
 24 25  2  0
 25 26  1  0
 19 27  1  0
 27 28  1  0
 13 29  1  0
 29 30  2  0
  5 31  1  0
 31 32  2  0
 32 33  1  0
 33 34  1  0
 32 35  1  0
 35  3  1  0
 30 10  1  0
 28 17  2  0
 25 20  1  0
  1 36  1  0
  1 37  1  0
  1 38  1  0
  4 39  1  0
 11 40  1  0
 12 41  1  0
 14 42  1  0
 18 43  1  0
 21 44  1  0
 22 45  1  0
 23 46  1  0
 24 47  1  0
 26 48  1  0
 27 49  1  0
 29 50  1  0
 30 51  1  0
 34 52  1  0
 34 53  1  0
 34 54  1  0
 35 55  1  0
M  END
>  <smiles>  (28) 
COc1cc(=NS(=O)(=O)c2ccc(NC(=O)c3cc(-c4ccccc4O)[nH]n3)cc2)nc(OC)[nH]1

>  <score_type>  (28) 
oracle

>  <origin>  (28) 
adgpu

>  <m_score__min__energy>  (28) 
-8.5999999999999996

>  <m_primary>  (28) 
energy

$$$$
28:0
     RDKit          3D

 62 65  0  0  0  0  0  0  0  0999 V2000
   -0.2340   15.4030  -32.3150 C   0  0  0  0  0  0  0  0  0  0  0  0
   -0.6840   16.7490  -32.2100 O   0  0  0  0  0  0  0  0  0  0  0  0
   -1.9060   17.2230  -32.7160 C   0  0  0  0  0  0  0  0  0  0  0  0
   -2.8910   16.3480  -33.2120 C   0  0  0  0  0  0  0  0  0  0  0  0
   -4.0800   16.8470  -33.7480 C   0  0  0  0  0  0  0  0  0  0  0  0
   -4.3090   18.2300  -33.8100 C   0  0  0  0  0  0  0  0  0  0  0  0
   -5.5420   18.7570  -34.4330 C   0  0  0  0  0  0  0  0  0  0  0  0
   -5.7760   18.5430  -35.6550 O   0  0  0  0  0  0  0  0  0  0  0  0
   -6.4510   19.5460  -33.6580 N   0  0  0  0  0  0  0  0  0  0  0  0
   -6.1000   20.6410  -32.7990 C   0  0  0  0  0  0  0  0  0  0  0  0
   -5.0060   21.4850  -33.0750 C   0  0  0  0  0  0  0  0  0  0  0  0
   -4.7110   22.5570  -32.2220 C   0  0  0  0  0  0  0  0  0  0  0  0
   -5.5110   22.8070  -31.1000 C   0  0  0  0  0  0  0  0  0  0  0  0
   -5.1400   24.1560  -30.0390 S   0  0  0  0  0  0  0  0  0  0  0  0
   -4.5760   25.2950  -30.8450 O   0  0  0  0  0  0  0  0  0  0  0  0
   -6.3900   24.6340  -29.3530 O   0  0  0  0  0  0  0  0  0  0  0  0
   -3.9740   23.6590  -28.8640 N   0  0  0  0  0  0  0  0  0  0  0  0
   -2.8380   24.2640  -28.7090 C   0  0  0  0  0  0  0  0  0  0  0  0
   -2.4370   25.2990  -29.4130 O   0  0  0  0  0  0  0  0  0  0  0  0
   -1.2540   25.6870  -29.0280 N   0  0  0  0  0  0  0  0  0  0  0  0
   -0.8790   24.8700  -28.0200 C   0  0  0  0  0  0  0  0  0  0  0  0
    0.4410   24.9610  -27.3260 C   0  0  0  0  0  0  0  0  0  0  0  0
   -1.8640   23.9270  -27.7990 C   0  0  0  0  0  0  0  0  0  0  0  0
   -1.9070   22.8700  -26.7430 C   0  0  0  0  0  0  0  0  0  0  0  0
   -6.6080   21.9690  -30.8290 C   0  0  0  0  0  0  0  0  0  0  0  0
   -6.9040   20.9020  -31.6830 C   0  0  0  0  0  0  0  0  0  0  0  0
   -3.3350   19.1050  -33.2980 C   0  0  0  0  0  0  0  0  0  0  0  0
   -2.1440   18.6090  -32.7410 C   0  0  0  0  0  0  0  0  0  0  0  0
   -0.9200   19.7410  -32.1450 S   0  0  0  0  0  0  0  0  0  0  0  0
    0.1790   19.8940  -33.1630 O   0  0  0  0  0  0  0  0  0  0  0  0
   -1.5610   21.0870  -31.9340 O   0  0  0  0  0  0  0  0  0  0  0  0
   -0.2550   19.1560  -30.6390 N   0  0  0  0  0  0  0  0  0  0  0  0
   -0.9240   19.7920  -29.4770 C   0  0  0  0  0  0  0  0  0  0  0  0
   -0.0200   20.8220  -28.7770 C   0  0  0  0  0  0  0  0  0  0  0  0
    1.2000   20.2630  -28.3110 O   0  0  0  0  0  0  0  0  0  0  0  0
    1.7530   19.2890  -29.1940 C   0  0  0  0  0  0  0  0  0  0  0  0
    1.2110   19.3450  -30.6320 C   0  0  0  0  0  0  0  0  0  0  0  0
   -0.0938   14.9836  -31.3078 H   0  0  0  0  0  0  0  0  0  0  0  0
   -0.9820   14.8077  -32.8592 H   0  0  0  0  0  0  0  0  0  0  0  0
    0.7216   15.3773  -32.8592 H   0  0  0  0  0  0  0  0  0  0  0  0
   -2.7225   15.2615  -33.1770 H   0  0  0  0  0  0  0  0  0  0  0  0
   -4.8433   16.1502  -34.1247 H   0  0  0  0  0  0  0  0  0  0  0  0
   -4.3820   21.3020  -33.9622 H   0  0  0  0  0  0  0  0  0  0  0  0
   -3.8477   23.2047  -32.4345 H   0  0  0  0  0  0  0  0  0  0  0  0
    0.2844   24.9502  -26.2373 H   0  0  0  0  0  0  0  0  0  0  0  0
    1.0670   24.1039  -27.6149 H   0  0  0  0  0  0  0  0  0  0  0  0
    0.9435   25.8959  -27.6149 H   0  0  0  0  0  0  0  0  0  0  0  0
   -1.8878   23.3428  -25.7500 H   0  0  0  0  0  0  0  0  0  0  0  0
   -2.8298   22.2812  -26.8509 H   0  0  0  0  0  0  0  0  0  0  0  0
   -1.0350   22.2082  -26.8509 H   0  0  0  0  0  0  0  0  0  0  0  0
   -7.2341   22.1535  -29.9436 H   0  0  0  0  0  0  0  0  0  0  0  0
   -7.7751   20.2629  -31.4764 H   0  0  0  0  0  0  0  0  0  0  0  0
   -3.5072   20.1908  -33.3338 H   0  0  0  0  0  0  0  0  0  0  0  0
   -0.4490   18.1260  -30.6040 H   0  0  0  0  0  0  0  0  0  0  0  0
   -1.8346   20.3001  -29.8271 H   0  0  0  0  0  0  0  0  0  0  0  0
   -1.1607   19.0014  -28.7497 H   0  0  0  0  0  0  0  0  0  0  0  0
    0.2127   21.6264  -29.4903 H   0  0  0  0  0  0  0  0  0  0  0  0
   -0.5667   21.1973  -27.8994 H   0  0  0  0  0  0  0  0  0  0  0  0
    2.8419   19.4398  -29.2320 H   0  0  0  0  0  0  0  0  0  0  0  0
    1.4664   18.3062  -28.7917 H   0  0  0  0  0  0  0  0  0  0  0  0
    1.4522   20.3238  -31.0721 H   0  0  0  0  0  0  0  0  0  0  0  0
    1.6768   18.5404  -31.2200 H   0  0  0  0  0  0  0  0  0  0  0  0
  1  2  1  0
  2  3  1  0
  3  4  2  0
  4  5  1  0
  5  6  2  0
  6  7  1  0
  7  8  2  0
  7  9  1  0
  9 10  1  0
 10 11  2  0
 11 12  1  0
 12 13  2  0
 13 14  1  0
 14 15  2  0
 14 16  2  0
 14 17  1  0
 17 18  2  3
 18 19  1  0
 19 20  1  0
 20 21  1  0
 21 22  1  0
 21 23  2  0
 23 24  1  0
 13 25  1  0
 25 26  2  0
  6 27  1  0
 27 28  2  0
 28 29  1  0
 29 30  2  0
 29 31  2  0
 29 32  1  0
 32 33  1  0
 33 34  1  0
 34 35  1  0
 35 36  1  0
 36 37  1  0
 28  3  1  0
 37 32  1  0
 26 10  1  0
 23 18  1  0
  1 38  1  0
  1 39  1  0
  1 40  1  0
  4 41  1  0
  5 42  1  0
 11 43  1  0
 12 44  1  0
 22 45  1  0
 22 46  1  0
 22 47  1  0
 24 48  1  0
 24 49  1  0
 24 50  1  0
 25 51  1  0
 26 52  1  0
 27 53  1  0
 32 54  1  0
 33 55  1  0
 33 56  1  0
 34 57  1  0
 34 58  1  0
 36 59  1  0
 36 60  1  0
 37 61  1  0
 37 62  1  0
M  CHG  3   9  -1  20  -1  32   1
M  END
>  <UniqueID>  (29) 
27

>  <SMILES>  (29) 
COc1ccc(C(=O)[N-]c2ccc(S(=O)(=O)N=c3o[n-]c(C)c3C)cc2)cc1S(=O)(=O)[NH+]1CCOCC1

>  <Energy>  (29) 
114.18538778782246

>  <Genealogy>  (29) 
COc1ccc(C(=O)[N-]c2ccc(S(=O)(=O)N=c3o[n-]c(C)c3C)cc2)cc1S(=O)(=O)[NH+]1CCOCC1 (protonated)
COc1ccc(C(=O)[N-]c2ccc(S(=O)(=O)N=c3o[n-]c(C)c3C)cc2)cc1S(=O)(=O)[NH+]1CCOCC1 (3D coordinates assigned)
COc1ccc(C(=O)[N-]c2ccc(S(=O)(=O)N=c3o[n-]c(C)c3C)cc2)cc1S(=O)(=O)[NH+]1CCOCC1 (nonaromatic ring conformer: 114.18538778782246 kcal/mol)

>  <smiles>  (29) 
COc1ccc(C(=O)Nc2ccc(S(=O)(=O)N=c3o[nH]c(C)c3C)cc2)cc1S(=O)(=O)N1CCOCC1

>  <score_type>  (29) 
oracle

>  <origin>  (29) 
adgpu

>  <m_score__min__energy>  (29) 
-13.15

>  <m_primary>  (29) 
energy

$$$$
29:0
     RDKit          3D

 56 59  0  0  0  0  0  0  0  0999 V2000
   -0.1010   24.9490  -25.8670 C   0  0  0  0  0  0  0  0  0  0  0  0
   -1.0240   24.8730  -27.0410 C   0  0  0  0  0  0  0  0  0  0  0  0
   -2.3750   24.5700  -26.8670 C   0  0  0  0  0  0  0  0  0  0  0  0
   -3.2030   24.4760  -27.9840 C   0  0  0  0  0  0  0  0  0  0  0  0
   -2.6600   24.6920  -29.2640 C   0  0  0  0  0  0  0  0  0  0  0  0
   -3.3680   24.6120  -30.3570 N   0  0  0  0  0  0  0  0  0  0  0  0
   -4.7900   24.4370  -30.4680 C   0  0  0  0  0  0  0  0  0  0  0  0
   -5.6380   25.4290  -29.9720 C   0  0  0  0  0  0  0  0  0  0  0  0
   -7.0190   25.2480  -30.0390 C   0  0  0  0  0  0  0  0  0  0  0  0
   -7.5320   24.1010  -30.5550 N   0  0  0  0  0  0  0  0  0  0  0  0
   -6.7390   23.0900  -31.0110 C   0  0  0  0  0  0  0  0  0  0  0  0
   -7.3710   21.8590  -31.5530 C   0  0  0  0  0  0  0  0  0  0  0  0
   -8.7670   21.7610  -31.7170 C   0  0  0  0  0  0  0  0  0  0  0  0
   -9.3370   20.5980  -32.2410 C   0  0  0  0  0  0  0  0  0  0  0  0
   -8.5280   19.5230  -32.6130 C   0  0  0  0  0  0  0  0  0  0  0  0
   -7.1390   19.6050  -32.4630 C   0  0  0  0  0  0  0  0  0  0  0  0
   -6.1270   18.2510  -32.9610 S   0  0  0  0  0  0  0  0  0  0  0  0
   -5.0600   17.9920  -31.9330 O   0  0  0  0  0  0  0  0  0  0  0  0
   -6.9820   17.0210  -33.0800 O   0  0  0  0  0  0  0  0  0  0  0  0
   -5.4030   18.5930  -34.5050 N   0  0  0  0  0  0  0  0  0  0  0  0
   -4.1250   17.8950  -34.6630 C   0  0  0  0  0  0  0  0  0  0  0  0
   -2.9420   18.7860  -34.2420 C   0  0  0  0  0  0  0  0  0  0  0  0
   -3.2950   19.7260  -33.1530 N   0  0  0  0  0  0  0  0  0  0  0  0
   -3.1190   21.1400  -33.5180 C   0  0  0  0  0  0  0  0  0  0  0  0
   -2.7750   21.8990  -32.2410 C   0  0  0  0  0  0  0  0  0  0  0  0
   -2.4290   20.8360  -31.2120 C   0  0  0  0  0  0  0  0  0  0  0  0
   -2.4400   19.5240  -31.9770 C   0  0  0  0  0  0  0  0  0  0  0  0
   -6.5640   20.7730  -31.9410 C   0  0  0  0  0  0  0  0  0  0  0  0
   -5.3410   23.2460  -30.9660 C   0  0  0  0  0  0  0  0  0  0  0  0
   -1.3300   24.9560  -29.3710 N   0  0  0  0  0  0  0  0  0  0  0  0
   -0.5400   25.0440  -28.3000 N   0  0  0  0  0  0  0  0  0  0  0  0
   -0.6862   24.9008  -24.9368 H   0  0  0  0  0  0  0  0  0  0  0  0
    0.6048   24.1059  -25.9003 H   0  0  0  0  0  0  0  0  0  0  0  0
    0.4574   25.8962  -25.9003 H   0  0  0  0  0  0  0  0  0  0  0  0
   -2.7823   24.4070  -25.8583 H   0  0  0  0  0  0  0  0  0  0  0  0
   -4.2699   24.2355  -27.8663 H   0  0  0  0  0  0  0  0  0  0  0  0
   -5.2199   26.3463  -29.5318 H   0  0  0  0  0  0  0  0  0  0  0  0
   -7.6943   26.0356  -29.6733 H   0  0  0  0  0  0  0  0  0  0  0  0
   -9.4118   22.6050  -31.4308 H   0  0  0  0  0  0  0  0  0  0  0  0
  -10.4283   20.5292  -32.3610 H   0  0  0  0  0  0  0  0  0  0  0  0
   -8.9829   18.6100  -33.0247 H   0  0  0  0  0  0  0  0  0  0  0  0
   -4.1318   16.9901  -34.0375 H   0  0  0  0  0  0  0  0  0  0  0  0
   -4.0017   17.6350  -35.7247 H   0  0  0  0  0  0  0  0  0  0  0  0
   -2.1203   18.1408  -33.8977 H   0  0  0  0  0  0  0  0  0  0  0  0
   -2.6488   19.3851  -35.1167 H   0  0  0  0  0  0  0  0  0  0  0  0
   -4.2910   19.5700  -32.8600 H   0  0  0  0  0  0  0  0  0  0  0  0
   -2.3022   21.2415  -34.2477 H   0  0  0  0  0  0  0  0  0  0  0  0
   -4.0360   21.5413  -33.9743 H   0  0  0  0  0  0  0  0  0  0  0  0
   -1.9151   22.5639  -32.4098 H   0  0  0  0  0  0  0  0  0  0  0  0
   -3.6108   22.5312  -31.9066 H   0  0  0  0  0  0  0  0  0  0  0  0
   -1.4339   21.0240  -30.7826 H   0  0  0  0  0  0  0  0  0  0  0  0
   -3.1400   20.8289  -30.3727 H   0  0  0  0  0  0  0  0  0  0  0  0
   -1.4194   19.2605  -32.2916 H   0  0  0  0  0  0  0  0  0  0  0  0
   -2.8194   18.7042  -31.3493 H   0  0  0  0  0  0  0  0  0  0  0  0
   -5.4714   20.8410  -31.8338 H   0  0  0  0  0  0  0  0  0  0  0  0
   -4.6832   22.4383  -31.3195 H   0  0  0  0  0  0  0  0  0  0  0  0
  1  2  1  0
  2  3  1  0
  3  4  2  0
  4  5  1  0
  5  6  2  3
  6  7  1  0
  7  8  2  0
  8  9  1  0
  9 10  2  0
 10 11  1  0
 11 12  1  0
 12 13  2  0
 13 14  1  0
 14 15  2  0
 15 16  1  0
 16 17  1  0
 17 18  2  0
 17 19  2  0
 17 20  1  0
 20 21  1  0
 21 22  1  0
 22 23  1  0
 23 24  1  0
 24 25  1  0
 25 26  1  0
 26 27  1  0
 16 28  2  0
 11 29  2  0
  5 30  1  0
 30 31  1  0
 31  2  2  0
 29  7  1  0
 28 12  1  0
 27 23  1  0
  1 32  1  0
  1 33  1  0
  1 34  1  0
  3 35  1  0
  4 36  1  0
  8 37  1  0
  9 38  1  0
 13 39  1  0
 14 40  1  0
 15 41  1  0
 21 42  1  0
 21 43  1  0
 22 44  1  0
 22 45  1  0
 23 46  1  0
 24 47  1  0
 24 48  1  0
 25 49  1  0
 25 50  1  0
 26 51  1  0
 26 52  1  0
 27 53  1  0
 27 54  1  0
 28 55  1  0
 29 56  1  0
M  CHG  3  20  -1  23   1  30  -1
M  END
>  <UniqueID>  (30) 
28

>  <SMILES>  (30) 
Cc1ccc(=Nc2ccnc(-c3cccc(S(=O)(=O)[N-]CC[NH+]4CCCC4)c3)c2)[n-]n1

>  <Energy>  (30) 
75.25489597266923

>  <Genealogy>  (30) 
Cc1ccc(=Nc2ccnc(-c3cccc(S(=O)(=O)[N-]CC[NH+]4CCCC4)c3)c2)[n-]n1 (protonated)
Cc1ccc(=Nc2ccnc(-c3cccc(S(=O)(=O)[N-]CC[NH+]4CCCC4)c3)c2)[n-]n1 (3D coordinates assigned)
Cc1ccc(=Nc2ccnc(-c3cccc(S(=O)(=O)[N-]CC[NH+]4CCCC4)c3)c2)[n-]n1 (nonaromatic ring conformer: 75.25489597266923 kcal/mol)

>  <smiles>  (30) 
Cc1ccc(=Nc2ccnc(-c3cccc(S(=O)(=O)NCCN4CCCC4)c3)c2)[nH]n1

>  <score_type>  (30) 
oracle

>  <origin>  (30) 
adgpu

>  <m_score__min__energy>  (30) 
-11.09

>  <m_primary>  (30) 
energy

$$$$
30:0
     RDKit          3D

 39 40  0  0  0  0  0  0  0  0999 V2000
   -0.3512   17.8400  -27.6995 H   0  0  0  0  0  0  0  0  0  0  0  0
   -1.0720   18.6700  -27.6600 C   0  0  0  0  0  0  0  0  0  0  0  0
   -2.0860   18.6700  -26.6980 C   0  0  0  0  0  0  0  0  0  0  0  0
   -2.1578   17.8440  -25.9751 H   0  0  0  0  0  0  0  0  0  0  0  0
   -3.0090   19.7190  -26.6540 C   0  0  0  0  0  0  0  0  0  0  0  0
   -3.7945   19.7253  -25.8839 H   0  0  0  0  0  0  0  0  0  0  0  0
   -2.9380   20.7630  -27.5870 C   0  0  0  0  0  0  0  0  0  0  0  0
   -3.8720   21.8480  -27.5080 N   0  0  0  0  0  0  0  0  0  0  0  0
   -4.8690   21.5980  -27.3220 H   0  0  0  0  0  0  0  0  0  0  0  0
   -3.5690   23.0930  -27.7660 C   0  0  0  0  0  0  0  0  0  0  0  0
   -4.5920   24.0940  -27.6970 N   0  0  0  0  0  0  0  0  0  0  0  0
   -5.5820   23.8370  -27.4880 H   0  0  0  0  0  0  0  0  0  0  0  0
   -4.3560   25.1030  -27.8200 H   0  0  0  0  0  0  0  0  0  0  0  0
   -2.2260   23.4760  -28.1220 N   0  0  0  0  0  0  0  0  0  0  0  0
   -1.4500   23.1620  -27.4990 H   0  0  0  0  0  0  0  0  0  0  0  0
   -1.9320   24.2480  -29.1350 C   0  0  0  0  0  0  0  0  0  0  0  0
   -0.5910   24.7120  -29.3050 N   0  0  0  0  0  0  0  0  0  0  0  0
    0.1630   24.4460  -28.6350 H   0  0  0  0  0  0  0  0  0  0  0  0
   -0.3490   25.3270  -30.1140 H   0  0  0  0  0  0  0  0  0  0  0  0
   -2.9280   24.6570  -30.0850 N   0  0  0  0  0  0  0  0  0  0  0  0
   -2.9640   25.6700  -30.3410 H   0  0  0  0  0  0  0  0  0  0  0  0
   -3.7680   23.7390  -30.8080 C   0  0  0  0  0  0  0  0  0  0  0  0
   -3.2360   22.5980  -31.4340 C   0  0  0  0  0  0  0  0  0  0  0  0
   -2.1586   22.3872  -31.3644 H   0  0  0  0  0  0  0  0  0  0  0  0
   -4.0700   21.7310  -32.1440 C   0  0  0  0  0  0  0  0  0  0  0  0
   -3.6472   20.8394  -32.6300 H   0  0  0  0  0  0  0  0  0  0  0  0
   -5.4380   21.9920  -32.2390 C   0  0  0  0  0  0  0  0  0  0  0  0
   -6.0888   21.3086  -32.8042 H   0  0  0  0  0  0  0  0  0  0  0  0
   -5.9850   23.1230  -31.6160 C   0  0  0  0  0  0  0  0  0  0  0  0
   -7.4470   23.4290  -31.7540 C   0  0  0  0  0  0  0  0  0  0  0  0
   -7.8978   23.5233  -30.7550 H   0  0  0  0  0  0  0  0  0  0  0  0
   -7.5737   24.3731  -32.3041 H   0  0  0  0  0  0  0  0  0  0  0  0
   -7.9417   22.6149  -32.3041 H   0  0  0  0  0  0  0  0  0  0  0  0
   -5.1420   24.0040  -30.9210 C   0  0  0  0  0  0  0  0  0  0  0  0
   -5.5618   24.9105  -30.4606 H   0  0  0  0  0  0  0  0  0  0  0  0
   -1.8970   20.7750  -28.5310 C   0  0  0  0  0  0  0  0  0  0  0  0
   -1.8079   21.6120  -29.2392 H   0  0  0  0  0  0  0  0  0  0  0  0
   -0.9740   19.7250  -28.5720 C   0  0  0  0  0  0  0  0  0  0  0  0
   -0.1700   19.7293  -29.3227 H   0  0  0  0  0  0  0  0  0  0  0  0
  1  2  1  0
  2  3  2  0
  3  4  1  0
  3  5  1  0
  5  6  1  0
  5  7  2  0
  7  8  1  0
  8  9  1  0
  8 10  2  0
 10 11  1  0
 11 12  1  0
 11 13  1  0
 10 14  1  0
 14 15  1  0
 14 16  2  0
 16 17  1  0
 17 18  1  0
 17 19  1  0
 16 20  1  0
 20 21  1  0
 20 22  1  0
 22 23  2  0
 23 24  1  0
 23 25  1  0
 25 26  1  0
 25 27  2  0
 27 28  1  0
 27 29  1  0
 29 30  1  0
 30 31  1  0
 30 32  1  0
 30 33  1  0
 29 34  2  0
 34 35  1  0
  7 36  1  0
 36 37  1  0
 36 38  2  0
 38 39  1  0
 38  2  1  0
 34 22  1  0
M  CHG  2   8   1  14   1
M  END
>  <UniqueID>  (31) 
29

>  <SMILES>  (31) 
Cc1cccc(N/C(N)=[NH+]\C(N)=[NH+]/c2ccccc2)c1

>  <Energy>  (31) 
52.99244357228875

>  <Genealogy>  (31) 
Cc1cccc(NC(N)=[NH+]C(N)=[NH+]c2ccccc2)c1 (protonated)
Cc1cccc(N/C(N)=[NH+]\C(N)=[NH+]/c2ccccc2)c1 (cis-trans isomerization)
Cc1cccc(N/C(N)=[NH+]\C(N)=[NH+]/c2ccccc2)c1 (3D coordinates assigned)
Cc1cccc(N/C(N)=[NH+]\C(N)=[NH+]/c2ccccc2)c1 (optimized conformer: 52.99244357228875 kcal/mol)

>  <smiles>  (31) 
Cc1cccc(NC(N)=NC(N)=Nc2ccccc2)c1

>  <score_type>  (31) 
oracle

>  <origin>  (31) 
adgpu

>  <m_score__min__energy>  (31) 
-6.3499999999999996

>  <m_primary>  (31) 
energy

$$$$
31:0
     RDKit          3D

 49 52  0  0  1  0  0  0  0  0999 V2000
   -2.5650   19.5970  -33.8470 C   0  0  0  0  0  0  0  0  0  0  0  0
   -3.7940   19.8770  -33.1130 N   0  0  0  0  0  0  0  0  0  0  0  0
   -5.0350   19.3870  -33.6310 C   0  0  0  0  0  0  0  0  0  0  0  0
   -5.0960   18.7170  -34.7060 O   0  0  0  0  0  0  0  0  0  0  0  0
   -6.2550   19.6880  -32.8660 C   0  0  0  0  0  0  0  0  0  0  0  0
   -6.5140   20.9860  -32.4740 C   0  0  0  0  0  0  0  0  0  0  0  0
   -7.6300   21.3560  -31.7570 C   0  0  0  0  0  0  0  0  0  0  0  0
   -7.7880   22.7260  -31.4090 N   0  0  0  0  0  0  0  0  0  0  0  0
   -6.9520   23.4010  -30.7180 C   0  0  0  0  0  0  0  0  0  0  0  0
   -7.2510   24.7230  -30.4660 C   0  0  0  0  0  0  0  0  0  0  0  0
   -6.3690   25.4780  -29.7250 C   0  0  0  0  0  0  0  0  0  0  0  0
   -5.2580   24.8730  -29.2880 N   0  0  0  0  0  0  0  0  0  0  0  0
   -4.9820   23.5600  -29.5510 C   0  0  0  0  0  0  0  0  0  0  0  0
   -3.7590   23.0840  -29.0150 N   0  0  0  0  0  0  0  0  0  0  0  0
   -2.6620   22.5850  -29.8420 C   0  0  0  0  0  0  0  0  0  0  0  0
   -1.4090   23.4060  -29.6100 C   0  0  0  0  0  0  0  0  0  0  0  0
   -1.4600   24.2300  -28.3970 C   0  0  0  0  0  0  0  0  0  0  0  0
   -0.5110   25.1720  -28.2390 N   0  0  0  0  0  0  0  0  0  0  0  0
   -0.4870   25.9740  -27.1480 C   0  0  0  0  0  0  0  0  0  0  0  0
    0.5910   26.9860  -27.0580 C   0  0  0  0  0  0  0  0  0  0  0  0
   -1.4270   25.8540  -26.1650 N   0  0  0  0  0  0  0  0  0  0  0  0
   -2.4020   24.9280  -26.2710 C   0  0  0  0  0  0  0  0  0  0  0  0
   -2.4020   24.1220  -27.3970 C   0  0  0  0  0  0  0  0  0  0  0  0
   -3.4800   23.0730  -27.5680 C   0  0  0  0  0  0  0  0  0  0  0  0
   -5.8290   22.8020  -30.2720 N   0  0  0  0  0  0  0  0  0  0  0  0
   -8.5300   20.3710  -31.4190 C   0  0  0  0  0  0  0  0  0  0  0  0
   -8.2840   19.0710  -31.8030 C   0  0  0  0  0  0  0  0  0  0  0  0
   -7.1590   18.6990  -32.5260 C   0  0  0  0  0  0  0  0  0  0  0  0
   -6.8760   17.0320  -33.0060 Cl  0  0  0  0  0  0  0  0  0  0  0  0
   -1.7472   19.4107  -33.1353 H   0  0  0  0  0  0  0  0  0  0  0  0
   -2.7100   18.7089  -34.4796 H   0  0  0  0  0  0  0  0  0  0  0  0
   -2.3110   20.4603  -34.4796 H   0  0  0  0  0  0  0  0  0  0  0  0
   -3.7960   20.4250  -32.2210 H   0  0  0  0  0  0  0  0  0  0  0  0
   -5.7899   21.7669  -32.7492 H   0  0  0  0  0  0  0  0  0  0  0  0
   -8.1802   25.1683  -30.8510 H   0  0  0  0  0  0  0  0  0  0  0  0
   -6.5697   26.5361  -29.5013 H   0  0  0  0  0  0  0  0  0  0  0  0
   -4.5860   25.4600  -28.7200 H   0  0  0  0  0  0  0  0  0  0  0  0
   -2.4607   21.5353  -29.5820 H   0  0  0  0  0  0  0  0  0  0  0  0
   -2.9492   22.6640  -30.9009 H   0  0  0  0  0  0  0  0  0  0  0  0
   -0.5540   22.7189  -29.5274 H   0  0  0  0  0  0  0  0  0  0  0  0
   -1.3133   24.0945  -30.4626 H   0  0  0  0  0  0  0  0  0  0  0  0
    0.8119   27.1934  -26.0005 H   0  0  0  0  0  0  0  0  0  0  0  0
    1.4955   26.6032  -27.5533 H   0  0  0  0  0  0  0  0  0  0  0  0
    0.2661   27.9129  -27.5533 H   0  0  0  0  0  0  0  0  0  0  0  0
   -3.1696   24.8171  -25.4910 H   0  0  0  0  0  0  0  0  0  0  0  0
   -3.1190   22.0849  -27.2465 H   0  0  0  0  0  0  0  0  0  0  0  0
   -4.3742   23.2809  -26.9620 H   0  0  0  0  0  0  0  0  0  0  0  0
   -9.4367   20.6193  -30.8479 H   0  0  0  0  0  0  0  0  0  0  0  0
   -9.0109   18.2938  -31.5245 H   0  0  0  0  0  0  0  0  0  0  0  0
  1  2  1  0
  2  3  1  0
  3  4  2  0
  3  5  1  0
  5  6  2  0
  6  7  1  0
  7  8  1  0
  8  9  2  0
  9 10  1  0
 10 11  2  0
 11 12  1  0
 12 13  1  0
 13 14  1  0
 14 15  1  0
 15 16  1  0
 16 17  1  0
 17 18  2  0
 18 19  1  0
 19 20  1  0
 19 21  2  0
 21 22  1  0
 22 23  2  0
 23 24  1  0
 13 25  2  0
  7 26  2  0
 26 27  1  0
 27 28  2  0
 28 29  1  0
 28  5  1  0
 25  9  1  0
 24 14  1  0
 23 17  1  0
  1 30  1  0
  1 31  1  0
  1 32  1  0
  2 33  1  0
  6 34  1  0
 10 35  1  0
 11 36  1  0
 12 37  1  0
 15 38  1  0
 15 39  1  0
 16 40  1  0
 16 41  1  0
 20 42  1  0
 20 43  1  0
 20 44  1  0
 22 45  1  0
 24 46  1  0
 24 47  1  0
 26 48  1  0
 27 49  1  0
M  END
>  <smiles>  (32) 
CNC(=O)c1cc(N=c2cc[nH]c(N3CCc4nc(C)ncc4C3)n2)ccc1Cl

>  <score_type>  (32) 
oracle

>  <origin>  (32) 
adgpu

>  <m_score__min__energy>  (32) 
-9.7300000000000004

>  <m_primary>  (32) 
energy

$$$$
32:0
     RDKit          3D

 61 64  0  0  0  0  0  0  0  0999 V2000
   -6.0060   25.5450  -29.7380 N   0  0  0  0  0  0  0  0  0  0  0  0
   -6.3240   24.2570  -30.2810 C   0  0  0  0  0  0  0  0  0  0  0  0
   -7.5960   24.0740  -30.8470 C   0  0  0  0  0  0  0  0  0  0  0  0
   -7.9460   22.8620  -31.4420 C   0  0  0  0  0  0  0  0  0  0  0  0
   -7.0270   21.8110  -31.4850 C   0  0  0  0  0  0  0  0  0  0  0  0
   -7.4180   20.3040  -32.3050 S   0  0  0  0  0  0  0  0  0  0  0  0
   -7.3020   19.1750  -31.3200 O   0  0  0  0  0  0  0  0  0  0  0  0
   -8.8170   20.3300  -32.8520 O   0  0  0  0  0  0  0  0  0  0  0  0
   -6.2950   20.0540  -33.6040 N   0  0  0  0  0  0  0  0  0  0  0  0
   -4.8660   20.1200  -33.4400 C   0  0  0  0  0  0  0  0  0  0  0  0
   -4.1360   18.9300  -33.2890 C   0  0  0  0  0  0  0  0  0  0  0  0
   -2.7460   18.9620  -33.1340 C   0  0  0  0  0  0  0  0  0  0  0  0
   -2.0620   20.1860  -33.1430 C   0  0  0  0  0  0  0  0  0  0  0  0
   -0.3010   20.2310  -33.0100 S   0  0  0  0  0  0  0  0  0  0  0  0
    0.1510   19.1490  -32.0650 O   0  0  0  0  0  0  0  0  0  0  0  0
    0.1090   21.5550  -32.4220 O   0  0  0  0  0  0  0  0  0  0  0  0
    0.4900   20.0220  -34.5620 N   0  0  0  0  0  0  0  0  0  0  0  0
    1.9510   20.2450  -34.4970 C   0  0  0  0  0  0  0  0  0  0  0  0
    2.3730   21.6280  -35.0260 C   0  0  0  0  0  0  0  0  0  0  0  0
    1.3350   22.5640  -34.8410 O   0  0  0  0  0  0  0  0  0  0  0  0
    0.2630   22.2600  -35.7100 C   0  0  0  0  0  0  0  0  0  0  0  0
   -0.1740   20.7750  -35.6430 C   0  0  0  0  0  0  0  0  0  0  0  0
   -2.7850   21.3780  -33.2860 C   0  0  0  0  0  0  0  0  0  0  0  0
   -4.1740   21.3470  -33.4390 C   0  0  0  0  0  0  0  0  0  0  0  0
   -5.7600   21.9740  -30.9130 C   0  0  0  0  0  0  0  0  0  0  0  0
   -5.3970   23.1810  -30.2960 C   0  0  0  0  0  0  0  0  0  0  0  0
   -3.7780   23.2600  -29.5690 S   0  0  0  0  0  0  0  0  0  0  0  0
   -3.8860   24.0210  -28.2760 O   0  0  0  0  0  0  0  0  0  0  0  0
   -2.8160   24.0050  -30.4530 O   0  0  0  0  0  0  0  0  0  0  0  0
   -3.1940   21.6460  -29.2310 N   0  0  0  0  0  0  0  0  0  0  0  0
   -1.8470   21.4630  -29.7980 C   0  0  0  0  0  0  0  0  0  0  0  0
   -1.3090   20.0770  -29.4170 C   0  0  0  0  0  0  0  0  0  0  0  0
   -1.2620   19.9330  -28.0070 O   0  0  0  0  0  0  0  0  0  0  0  0
   -2.5670   20.0450  -27.4690 C   0  0  0  0  0  0  0  0  0  0  0  0
   -3.1620   21.4280  -27.7740 C   0  0  0  0  0  0  0  0  0  0  0  0
   -6.6470   26.3580  -29.8130 H   0  0  0  0  0  0  0  0  0  0  0  0
   -5.1720   25.6650  -29.1170 H   0  0  0  0  0  0  0  0  0  0  0  0
   -8.3256   24.8968  -30.8208 H   0  0  0  0  0  0  0  0  0  0  0  0
   -8.9476   22.7336  -31.8782 H   0  0  0  0  0  0  0  0  0  0  0  0
   -6.6910   19.7340  -34.5180 H   0  0  0  0  0  0  0  0  0  0  0  0
   -4.6619   17.9638  -33.2926 H   0  0  0  0  0  0  0  0  0  0  0  0
   -2.1875   18.0232  -33.0045 H   0  0  0  0  0  0  0  0  0  0  0  0
    2.2725   20.1577  -33.4487 H   0  0  0  0  0  0  0  0  0  0  0  0
    2.4280   19.4884  -35.1374 H   0  0  0  0  0  0  0  0  0  0  0  0
    3.2671   21.9665  -34.4820 H   0  0  0  0  0  0  0  0  0  0  0  0
    2.5920   21.5467  -36.1009 H   0  0  0  0  0  0  0  0  0  0  0  0
   -0.5968   22.8901  -35.4385 H   0  0  0  0  0  0  0  0  0  0  0  0
    0.6088   22.4533  -36.7362 H   0  0  0  0  0  0  0  0  0  0  0  0
   -1.2610   20.7375  -35.4785 H   0  0  0  0  0  0  0  0  0  0  0  0
    0.1164   20.3056  -36.5945 H   0  0  0  0  0  0  0  0  0  0  0  0
   -2.2567   22.3428  -33.2778 H   0  0  0  0  0  0  0  0  0  0  0  0
   -4.7310   22.2879  -33.5595 H   0  0  0  0  0  0  0  0  0  0  0  0
   -5.0386   21.1443  -30.9476 H   0  0  0  0  0  0  0  0  0  0  0  0
   -1.8970   21.5473  -30.8936 H   0  0  0  0  0  0  0  0  0  0  0  0
   -1.1753   22.2369  -29.3981 H   0  0  0  0  0  0  0  0  0  0  0  0
   -1.9690   19.3042  -29.8380 H   0  0  0  0  0  0  0  0  0  0  0  0
   -0.2914   19.9672  -29.8200 H   0  0  0  0  0  0  0  0  0  0  0  0
   -3.2086   19.2697  -27.9131 H   0  0  0  0  0  0  0  0  0  0  0  0
   -2.5125   19.9157  -26.3780 H   0  0  0  0  0  0  0  0  0  0  0  0
   -4.1852   21.4819  -27.3739 H   0  0  0  0  0  0  0  0  0  0  0  0
   -2.5395   22.2035  -27.3038 H   0  0  0  0  0  0  0  0  0  0  0  0
  1  2  1  0
  2  3  2  0
  3  4  1  0
  4  5  2  0
  5  6  1  0
  6  7  2  0
  6  8  2  0
  6  9  1  0
  9 10  1  0
 10 11  2  0
 11 12  1  0
 12 13  2  0
 13 14  1  0
 14 15  2  0
 14 16  2  0
 14 17  1  0
 17 18  1  0
 18 19  1  0
 19 20  1  0
 20 21  1  0
 21 22  1  0
 13 23  1  0
 23 24  2  0
  5 25  1  0
 25 26  2  0
 26 27  1  0
 27 28  2  0
 27 29  2  0
 27 30  1  0
 30 31  1  0
 31 32  1  0
 32 33  1  0
 33 34  1  0
 34 35  1  0
 26  2  1  0
 35 30  1  0
 24 10  1  0
 22 17  1  0
  1 36  1  0
  1 37  1  0
  3 38  1  0
  4 39  1  0
  9 40  1  0
 11 41  1  0
 12 42  1  0
 18 43  1  0
 18 44  1  0
 19 45  1  0
 19 46  1  0
 21 47  1  0
 21 48  1  0
 22 49  1  0
 22 50  1  0
 23 51  1  0
 24 52  1  0
 25 53  1  0
 31 54  1  0
 31 55  1  0
 32 56  1  0
 32 57  1  0
 34 58  1  0
 34 59  1  0
 35 60  1  0
 35 61  1  0
M  END
>  <UniqueID>  (33) 
30

>  <SMILES>  (33) 
Nc1ccc(S(=O)(=O)Nc2ccc(S(=O)(=O)N3CCOCC3)cc2)cc1S(=O)(=O)N1CCOCC1

>  <Energy>  (33) 
79.4273116429958

>  <Genealogy>  (33) 
Nc1ccc(S(=O)(=O)Nc2ccc(S(=O)(=O)N3CCOCC3)cc2)cc1S(=O)(=O)N1CCOCC1 (3D coordinates assigned)
Nc1ccc(S(=O)(=O)Nc2ccc(S(=O)(=O)N3CCOCC3)cc2)cc1S(=O)(=O)N1CCOCC1 (nonaromatic ring conformer: 79.4273116429958 kcal/mol)

>  <smiles>  (33) 
Nc1ccc(S(=O)(=O)Nc2ccc(S(=O)(=O)N3CCOCC3)cc2)cc1S(=O)(=O)N1CCOCC1

>  <score_type>  (33) 
oracle

>  <origin>  (33) 
adgpu

>  <m_score__min__energy>  (33) 
-10.59

>  <m_primary>  (33) 
energy

$$$$
33:0
     RDKit          3D

 57 60  0  0  0  0  0  0  0  0999 V2000
   -0.8320   20.4950  -33.9750 C   0  0  0  0  0  0  0  0  0  0  0  0
   -2.2550   20.0770  -33.7250 C   0  0  0  0  0  0  0  0  0  0  0  0
   -2.7140   18.8370  -34.1980 C   0  0  0  0  0  0  0  0  0  0  0  0
   -4.0190   18.4200  -33.9340 C   0  0  0  0  0  0  0  0  0  0  0  0
   -4.8840   19.2310  -33.1920 C   0  0  0  0  0  0  0  0  0  0  0  0
   -6.5090   18.6660  -32.7900 S   0  0  0  0  0  0  0  0  0  0  0  0
   -6.5430   18.2380  -31.3500 O   0  0  0  0  0  0  0  0  0  0  0  0
   -6.8410   17.4710  -33.6380 O   0  0  0  0  0  0  0  0  0  0  0  0
   -7.7040   19.9170  -33.0480 N   0  0  0  0  0  0  0  0  0  0  0  0
   -8.9840   19.5440  -32.4090 C   0  0  0  0  0  0  0  0  0  0  0  0
   -9.9130   20.7550  -32.2720 C   0  0  0  0  0  0  0  0  0  0  0  0
   -9.2890   21.8350  -31.3680 C   0  0  0  0  0  0  0  0  0  0  0  0
   -7.7520   21.7680  -31.3380 C   0  0  0  0  0  0  0  0  0  0  0  0
   -7.1900   21.2590  -32.6730 C   0  0  0  0  0  0  0  0  0  0  0  0
   -4.4400   20.4770  -32.7350 C   0  0  0  0  0  0  0  0  0  0  0  0
   -3.1270   20.9100  -32.9960 C   0  0  0  0  0  0  0  0  0  0  0  0
   -2.6290   22.1340  -32.4350 N   0  0  0  0  0  0  0  0  0  0  0  0
   -1.9790   22.2720  -31.1670 C   0  0  0  0  0  0  0  0  0  0  0  0
   -0.9230   21.6310  -30.9200 O   0  0  0  0  0  0  0  0  0  0  0  0
   -2.5630   23.0830  -30.1440 N   0  0  0  0  0  0  0  0  0  0  0  0
   -1.9740   23.3190  -28.8570 C   0  0  0  0  0  0  0  0  0  0  0  0
   -1.7480   22.2260  -28.0170 C   0  0  0  0  0  0  0  0  0  0  0  0
   -1.1690   22.4100  -26.7630 C   0  0  0  0  0  0  0  0  0  0  0  0
   -0.8080   23.6880  -26.3250 C   0  0  0  0  0  0  0  0  0  0  0  0
   -0.0430   23.8200  -24.7450 Cl  0  0  0  0  0  0  0  0  0  0  0  0
   -1.0170   24.8070  -27.1630 C   0  0  0  0  0  0  0  0  0  0  0  0
   -0.5830   26.4500  -26.6290 S   0  0  0  0  0  0  0  0  0  0  0  0
   -1.5780   26.9190  -25.6040 O   0  0  0  0  0  0  0  0  0  0  0  0
   -0.6620   27.4000  -27.7910 O   0  0  0  0  0  0  0  0  0  0  0  0
    1.0620   26.5710  -25.9210 C   0  0  0  0  0  0  0  0  0  0  0  0
    1.6080   27.9690  -25.6760 C   0  0  0  0  0  0  0  0  0  0  0  0
    1.0910   27.1390  -24.5120 C   0  0  0  0  0  0  0  0  0  0  0  0
   -1.5640   24.6040  -28.4500 C   0  0  0  0  0  0  0  0  0  0  0  0
   -1.6600   25.6700  -29.3390 O   0  0  0  0  0  0  0  0  0  0  0  0
   -0.3197   20.6455  -33.0133 H   0  0  0  0  0  0  0  0  0  0  0  0
   -0.3147   19.7109  -34.5473 H   0  0  0  0  0  0  0  0  0  0  0  0
   -0.8209   21.4343  -34.5473 H   0  0  0  0  0  0  0  0  0  0  0  0
   -2.0407   18.1906  -34.7801 H   0  0  0  0  0  0  0  0  0  0  0  0
   -4.3696   17.4481  -34.3115 H   0  0  0  0  0  0  0  0  0  0  0  0
   -9.4813   18.7789  -33.0232 H   0  0  0  0  0  0  0  0  0  0  0  0
   -8.7689   19.1564  -31.4023 H   0  0  0  0  0  0  0  0  0  0  0  0
  -10.0948   21.1826  -33.2690 H   0  0  0  0  0  0  0  0  0  0  0  0
  -10.8566   20.4209  -31.8159 H   0  0  0  0  0  0  0  0  0  0  0  0
   -9.5910   22.8245  -31.7418 H   0  0  0  0  0  0  0  0  0  0  0  0
   -9.6495   21.6601  -30.3436 H   0  0  0  0  0  0  0  0  0  0  0  0
   -7.3532   22.7742  -31.1416 H   0  0  0  0  0  0  0  0  0  0  0  0
   -7.4503   21.0682  -30.5447 H   0  0  0  0  0  0  0  0  0  0  0  0
   -7.4652   21.9727  -33.4635 H   0  0  0  0  0  0  0  0  0  0  0  0
   -6.0995   21.1720  -32.5579 H   0  0  0  0  0  0  0  0  0  0  0  0
   -5.1241   21.1240  -32.1663 H   0  0  0  0  0  0  0  0  0  0  0  0
   -2.0285   21.2149  -28.3472 H   0  0  0  0  0  0  0  0  0  0  0  0
   -0.9942   21.5414  -26.1112 H   0  0  0  0  0  0  0  0  0  0  0  0
    1.4547   25.6769  -26.4272 H   0  0  0  0  0  0  0  0  0  0  0  0
    2.6859   28.1641  -25.7766 H   0  0  0  0  0  0  0  0  0  0  0  0
    1.3897   28.9706  -26.0750 H   0  0  0  0  0  0  0  0  0  0  0  0
    1.7949   26.7338  -23.7701 H   0  0  0  0  0  0  0  0  0  0  0  0
    0.3435   27.2917  -23.7196 H   0  0  0  0  0  0  0  0  0  0  0  0
  1  2  1  0
  2  3  2  0
  3  4  1  0
  4  5  2  0
  5  6  1  0
  6  7  2  0
  6  8  2  0
  6  9  1  0
  9 10  1  0
 10 11  1  0
 11 12  1  0
 12 13  1  0
 13 14  1  0
  5 15  1  0
 15 16  2  0
 16 17  1  0
 17 18  1  0
 18 19  2  0
 18 20  1  0
 20 21  1  0
 21 22  2  0
 22 23  1  0
 23 24  2  0
 24 25  1  0
 24 26  1  0
 26 27  1  0
 27 28  2  0
 27 29  2  0
 27 30  1  0
 30 31  1  0
 31 32  1  0
 26 33  2  0
 33 34  1  0
 16  2  1  0
 33 21  1  0
 14  9  1  0
 32 30  1  0
  1 35  1  0
  1 36  1  0
  1 37  1  0
  3 38  1  0
  4 39  1  0
 10 40  1  0
 10 41  1  0
 11 42  1  0
 11 43  1  0
 12 44  1  0
 12 45  1  0
 13 46  1  0
 13 47  1  0
 14 48  1  0
 14 49  1  0
 15 50  1  0
 22 51  1  0
 23 52  1  0
 30 53  1  0
 31 54  1  0
 31 55  1  0
 32 56  1  0
 32 57  1  0
M  CHG  3  17  -1  20  -1  34  -1
M  END
>  <UniqueID>  (34) 
31

>  <SMILES>  (34) 
Cc1ccc(S(=O)(=O)N2CCCCC2)cc1[N-]C(=O)[N-]c1ccc(Cl)c(S(=O)(=O)C2CC2)c1[O-]

>  <Energy>  (34) 
336.451495957515

>  <Genealogy>  (34) 
Cc1ccc(S(=O)(=O)N2CCCCC2)cc1[N-]C(=O)[N-]c1ccc(Cl)c(S(=O)(=O)C2CC2)c1[O-] (protonated)
Cc1ccc(S(=O)(=O)N2CCCCC2)cc1[N-]C(=O)[N-]c1ccc(Cl)c(S(=O)(=O)C2CC2)c1[O-] (3D coordinates assigned)
Cc1ccc(S(=O)(=O)N2CCCCC2)cc1[N-]C(=O)[N-]c1ccc(Cl)c(S(=O)(=O)C2CC2)c1[O-] (nonaromatic ring conformer: 336.451495957515 kcal/mol)

>  <smiles>  (34) 
Cc1ccc(S(=O)(=O)N2CCCCC2)cc1NC(=O)Nc1ccc(Cl)c(S(=O)(=O)C2CC2)c1O

>  <score_type>  (34) 
oracle

>  <origin>  (34) 
adgpu

>  <m_score__min__energy>  (34) 
-16.59

>  <m_primary>  (34) 
energy

$$$$
34:0
     RDKit          3D

 41 43  0  0  0  0  0  0  0  0999 V2000
   -5.9110   18.9550  -34.5730 C   0  0  0  0  0  0  0  0  0  0  0  0
   -5.8660   18.7530  -33.0450 C   0  0  0  0  0  0  0  0  0  0  0  0
   -4.7700   17.7250  -32.7200 C   0  0  0  0  0  0  0  0  0  0  0  0
   -5.5140   19.9940  -32.4270 O   0  0  0  0  0  0  0  0  0  0  0  0
   -6.4510   20.9870  -32.1070 C   0  0  0  0  0  0  0  0  0  0  0  0
   -7.8320   20.7180  -32.2210 C   0  0  0  0  0  0  0  0  0  0  0  0
   -8.7590   21.7410  -31.9760 C   0  0  0  0  0  0  0  0  0  0  0  0
   -8.3220   23.0130  -31.6030 C   0  0  0  0  0  0  0  0  0  0  0  0
   -6.9570   23.2710  -31.4610 C   0  0  0  0  0  0  0  0  0  0  0  0
   -6.0160   22.2580  -31.6810 C   0  0  0  0  0  0  0  0  0  0  0  0
   -4.6250   22.5710  -31.5300 N   0  0  0  0  0  0  0  0  0  0  0  0
   -4.0920   23.5690  -30.6510 C   0  0  0  0  0  0  0  0  0  0  0  0
   -4.2240   24.7910  -30.9330 O   0  0  0  0  0  0  0  0  0  0  0  0
   -3.2990   23.1590  -29.4720 C   0  0  0  0  0  0  0  0  0  0  0  0
   -3.5240   21.8840  -28.9180 C   0  0  0  0  0  0  0  0  0  0  0  0
   -2.7560   21.4270  -27.8450 C   0  0  0  0  0  0  0  0  0  0  0  0
   -1.7550   22.2350  -27.3080 C   0  0  0  0  0  0  0  0  0  0  0  0
   -1.5300   23.5090  -27.8320 C   0  0  0  0  0  0  0  0  0  0  0  0
   -2.3030   23.9900  -28.8950 C   0  0  0  0  0  0  0  0  0  0  0  0
   -2.0740   25.2990  -29.3250 O   0  0  0  0  0  0  0  0  0  0  0  0
   -8.3160   19.3650  -32.6750 C   0  0  0  0  0  0  0  0  0  0  0  0
   -7.2450   18.2730  -32.5010 C   0  0  2  0  0  0  0  0  0  0  0  0
   -7.1480   17.9660  -31.1310 O   0  0  0  0  0  0  0  0  0  0  0  0
   -6.1452   20.0062  -34.7972 H   0  0  0  0  0  0  0  0  0  0  0  0
   -4.9333   18.6968  -35.0059 H   0  0  0  0  0  0  0  0  0  0  0  0
   -6.6866   18.3062  -35.0059 H   0  0  0  0  0  0  0  0  0  0  0  0
   -4.6685   17.6298  -31.6288 H   0  0  0  0  0  0  0  0  0  0  0  0
   -5.0431   16.7498  -33.1493 H   0  0  0  0  0  0  0  0  0  0  0  0
   -3.8142   18.0599  -33.1493 H   0  0  0  0  0  0  0  0  0  0  0  0
   -9.8357   21.5402  -32.0782 H   0  0  0  0  0  0  0  0  0  0  0  0
   -9.0540   23.8135  -31.4206 H   0  0  0  0  0  0  0  0  0  0  0  0
   -6.6186   24.2776  -31.1742 H   0  0  0  0  0  0  0  0  0  0  0  0
   -4.3132   21.2412  -29.3350 H   0  0  0  0  0  0  0  0  0  0  0  0
   -2.9411   20.4282  -27.4230 H   0  0  0  0  0  0  0  0  0  0  0  0
   -1.1423   21.8685  -26.4712 H   0  0  0  0  0  0  0  0  0  0  0  0
   -0.7374   24.1412  -27.4053 H   0  0  0  0  0  0  0  0  0  0  0  0
   -2.4090   25.6640  -30.2050 H   0  0  0  0  0  0  0  0  0  0  0  0
   -9.2016   19.0893  -32.0837 H   0  0  0  0  0  0  0  0  0  0  0  0
   -8.5544   19.4349  -33.7466 H   0  0  0  0  0  0  0  0  0  0  0  0
   -7.5338   17.3789  -33.0730 H   0  0  0  0  0  0  0  0  0  0  0  0
   -6.4420   18.5490  -30.7470 H   0  0  0  0  0  0  0  0  0  0  0  0
  1  2  1  0
  2  3  1  0
  2  4  1  0
  4  5  1  0
  5  6  2  0
  6  7  1  0
  7  8  2  0
  8  9  1  0
  9 10  2  0
 10 11  1  0
 11 12  1  0
 12 13  2  0
 12 14  1  0
 14 15  2  0
 15 16  1  0
 16 17  2  0
 17 18  1  0
 18 19  2  0
 19 20  1  0
  6 21  1  0
 21 22  1  0
 22 23  1  0
 22  2  1  0
 10  5  1  0
 19 14  1  0
  1 24  1  0
  1 25  1  0
  1 26  1  0
  3 27  1  0
  3 28  1  0
  3 29  1  0
  7 30  1  0
  8 31  1  0
  9 32  1  0
 15 33  1  0
 16 34  1  0
 17 35  1  0
 18 36  1  0
 20 37  1  0
 21 38  1  0
 21 39  1  0
 22 40  1  6
 23 41  1  0
M  CHG  1  11  -1
M  END
>  <UniqueID>  (35) 
32

>  <SMILES>  (35) 
CC1(C)Oc2c(cccc2[N-]C(=O)c2ccccc2O)C[C@@H]1O

>  <Energy>  (35) 
51.55190232178259

>  <Genealogy>  (35) 
CC1(C)Oc2c(cccc2[N-]C(=O)c2ccccc2O)CC1O (protonated)
CC1(C)Oc2c(cccc2[N-]C(=O)c2ccccc2O)C[C@@H]1O (chirality)
CC1(C)Oc2c(cccc2[N-]C(=O)c2ccccc2O)C[C@@H]1O (3D coordinates assigned)
CC1(C)Oc2c(cccc2[N-]C(=O)c2ccccc2O)C[C@@H]1O (nonaromatic ring conformer: 51.55190232178259 kcal/mol)

>  <smiles>  (35) 
CC1(C)Oc2c(cccc2NC(=O)c2ccccc2O)CC1O

>  <score_type>  (35) 
oracle

>  <origin>  (35) 
adgpu

>  <m_score__min__energy>  (35) 
-9.7699999999999996

>  <m_primary>  (35) 
energy

$$$$
35:0
     RDKit          3D

 62 66  0  0  0  0  0  0  0  0999 V2000
   -0.0450   17.3110  -32.2590 C   0  0  0  0  0  0  0  0  0  0  0  0
   -0.9710   17.1540  -33.4720 C   0  0  1  0  0  0  0  0  0  0  0  0
   -0.2740   17.6250  -34.7820 C   0  0  0  0  0  0  0  0  0  0  0  0
   -0.0120   16.4790  -35.7690 C   0  0  0  0  0  0  0  0  0  0  0  0
   -1.3160   15.7390  -36.0930 C   0  0  0  0  0  0  0  0  0  0  0  0
   -2.0970   15.4610  -34.8760 N   0  0  0  0  0  0  0  0  0  0  0  0
   -3.5020   15.1630  -34.9810 C   0  0  0  0  0  0  0  0  0  0  0  0
   -3.8710   14.1120  -35.5730 O   0  0  0  0  0  0  0  0  0  0  0  0
   -4.5240   16.0580  -34.3950 C   0  0  0  0  0  0  0  0  0  0  0  0
   -5.8340   15.5730  -34.1510 C   0  0  0  0  0  0  0  0  0  0  0  0
   -6.8210   16.4130  -33.6050 C   0  0  0  0  0  0  0  0  0  0  0  0
   -6.4760   17.7310  -33.3220 C   0  0  0  0  0  0  0  0  0  0  0  0
   -5.2120   18.2150  -33.5740 C   0  0  0  0  0  0  0  0  0  0  0  0
   -4.2140   17.4070  -34.1140 C   0  0  0  0  0  0  0  0  0  0  0  0
   -5.1890   19.6210  -33.1860 C   0  0  0  0  0  0  0  0  0  0  0  0
   -4.1810   20.3740  -33.2350 O   0  0  0  0  0  0  0  0  0  0  0  0
   -6.4720   20.0120  -32.6850 N   0  0  0  0  0  0  0  0  0  0  0  0
   -6.8660   21.3030  -32.1880 C   0  0  0  0  0  0  0  0  0  0  0  0
   -8.1890   21.7490  -32.3350 C   0  0  0  0  0  0  0  0  0  0  0  0
   -8.5740   22.9950  -31.8340 C   0  0  0  0  0  0  0  0  0  0  0  0
   -7.6410   23.8090  -31.1850 C   0  0  0  0  0  0  0  0  0  0  0  0
   -6.3150   23.3810  -31.0420 C   0  0  0  0  0  0  0  0  0  0  0  0
   -5.1450   24.3980  -30.2030 S   0  0  0  0  0  0  0  0  0  0  0  0
   -5.8790   25.3120  -29.2610 O   0  0  0  0  0  0  0  0  0  0  0  0
   -4.4020   25.2410  -31.2030 O   0  0  0  0  0  0  0  0  0  0  0  0
   -4.0310   23.4010  -29.3020 N   0  0  0  0  0  0  0  0  0  0  0  0
   -2.9250   22.9640  -30.1740 C   0  0  0  0  0  0  0  0  0  0  0  0
   -1.7750   22.3560  -29.3450 C   0  0  0  0  0  0  0  0  0  0  0  0
   -2.1980   22.0700  -28.0280 O   0  0  0  0  0  0  0  0  0  0  0  0
   -2.5180   23.2750  -27.3530 C   0  0  0  0  0  0  0  0  0  0  0  0
   -3.5070   24.1510  -28.1520 C   0  0  0  0  0  0  0  0  0  0  0  0
   -5.9320   22.1280  -31.5400 C   0  0  0  0  0  0  0  0  0  0  0  0
   -7.2690   18.8250  -32.7730 C   0  0  0  0  0  0  0  0  0  0  0  0
   -8.4890   18.7600  -32.4650 O   0  0  0  0  0  0  0  0  0  0  0  0
   -1.4920   15.7050  -33.5610 C   0  0  0  0  0  0  0  0  0  0  0  0
   -0.6322   17.2114  -31.3342 H   0  0  0  0  0  0  0  0  0  0  0  0
    0.7307   16.5316  -32.2865 H   0  0  0  0  0  0  0  0  0  0  0  0
    0.4304   18.3026  -32.2865 H   0  0  0  0  0  0  0  0  0  0  0  0
   -1.8449   17.8087  -33.3392 H   0  0  0  0  0  0  0  0  0  0  0  0
   -0.9176   18.3698  -35.2729 H   0  0  0  0  0  0  0  0  0  0  0  0
    0.7025   18.0464  -34.5013 H   0  0  0  0  0  0  0  0  0  0  0  0
    0.4107   16.8906  -36.6974 H   0  0  0  0  0  0  0  0  0  0  0  0
    0.6943   15.7706  -35.3116 H   0  0  0  0  0  0  0  0  0  0  0  0
   -1.9200   16.3599  -36.7710 H   0  0  0  0  0  0  0  0  0  0  0  0
   -1.0593   14.7789  -36.5645 H   0  0  0  0  0  0  0  0  0  0  0  0
   -6.0809   14.5284  -34.3914 H   0  0  0  0  0  0  0  0  0  0  0  0
   -7.8364   16.0389  -33.4074 H   0  0  0  0  0  0  0  0  0  0  0  0
   -3.2104   17.8092  -34.3163 H   0  0  0  0  0  0  0  0  0  0  0  0
   -8.9266   21.1139  -32.8475 H   0  0  0  0  0  0  0  0  0  0  0  0
   -9.6132   23.3362  -31.9504 H   0  0  0  0  0  0  0  0  0  0  0  0
   -7.9486   24.7869  -30.7861 H   0  0  0  0  0  0  0  0  0  0  0  0
   -3.2999   22.2070  -30.8786 H   0  0  0  0  0  0  0  0  0  0  0  0
   -2.5404   23.8394  -30.7178 H   0  0  0  0  0  0  0  0  0  0  0  0
   -1.4383   21.4253  -29.8250 H   0  0  0  0  0  0  0  0  0  0  0  0
   -0.9523   23.0847  -29.2989 H   0  0  0  0  0  0  0  0  0  0  0  0
   -2.9708   23.0266  -26.3818 H   0  0  0  0  0  0  0  0  0  0  0  0
   -1.5871   23.8476  -27.2284 H   0  0  0  0  0  0  0  0  0  0  0  0
   -4.3417   24.4455  -27.4989 H   0  0  0  0  0  0  0  0  0  0  0  0
   -2.9819   25.0467  -28.5154 H   0  0  0  0  0  0  0  0  0  0  0  0
   -4.8924   21.7883  -31.4225 H   0  0  0  0  0  0  0  0  0  0  0  0
   -2.2475   15.5423  -32.7782 H   0  0  0  0  0  0  0  0  0  0  0  0
   -0.6490   15.0124  -33.4209 H   0  0  0  0  0  0  0  0  0  0  0  0
  1  2  1  0
  2  3  1  0
  3  4  1  0
  4  5  1  0
  5  6  1  0
  6  7  1  0
  7  8  2  0
  7  9  1  0
  9 10  2  0
 10 11  1  0
 11 12  2  0
 12 13  1  0
 13 14  2  0
 13 15  1  0
 15 16  2  0
 15 17  1  0
 17 18  1  0
 18 19  2  0
 19 20  1  0
 20 21  2  0
 21 22  1  0
 22 23  1  0
 23 24  2  0
 23 25  2  0
 23 26  1  0
 26 27  1  0
 27 28  1  0
 28 29  1  0
 29 30  1  0
 30 31  1  0
 22 32  2  0
 17 33  1  0
 33 34  2  0
  6 35  1  0
 35  2  1  0
 14  9  1  0
 32 18  1  0
 33 12  1  0
 31 26  1  0
  1 36  1  0
  1 37  1  0
  1 38  1  0
  2 39  1  1
  3 40  1  0
  3 41  1  0
  4 42  1  0
  4 43  1  0
  5 44  1  0
  5 45  1  0
 10 46  1  0
 11 47  1  0
 14 48  1  0
 19 49  1  0
 20 50  1  0
 21 51  1  0
 27 52  1  0
 27 53  1  0
 28 54  1  0
 28 55  1  0
 30 56  1  0
 30 57  1  0
 31 58  1  0
 31 59  1  0
 32 60  1  0
 35 61  1  0
 35 62  1  0
M  END
>  <UniqueID>  (36) 
33

>  <SMILES>  (36) 
C[C@H]1CCCN(C(=O)c2ccc3c(c2)C(=O)N(c2cccc(S(=O)(=O)N4CCOCC4)c2)C3=O)C1

>  <Energy>  (36) 
115.21574680710386

>  <Genealogy>  (36) 
C[C@H]1CCCN(C(=O)c2ccc3c(c2)C(=O)N(c2cccc(S(=O)(=O)N4CCOCC4)c2)C3=O)C1 (chirality)
C[C@H]1CCCN(C(=O)c2ccc3c(c2)C(=O)N(c2cccc(S(=O)(=O)N4CCOCC4)c2)C3=O)C1 (3D coordinates assigned)
C[C@H]1CCCN(C(=O)c2ccc3c(c2)C(=O)N(c2cccc(S(=O)(=O)N4CCOCC4)c2)C3=O)C1 (nonaromatic ring conformer: 115.21574680710386 kcal/mol)

>  <smiles>  (36) 
CC1CCCN(C(=O)c2ccc3c(c2)C(=O)N(c2cccc(S(=O)(=O)N4CCOCC4)c2)C3=O)C1

>  <score_type>  (36) 
oracle

>  <origin>  (36) 
adgpu

>  <m_score__min__energy>  (36) 
-11.210000000000001

>  <m_primary>  (36) 
energy

$$$$
36:0
     RDKit          3D

 52 54  0  0  0  0  0  0  0  0999 V2000
   -4.5290   16.5480  -34.6630 C   0  0  0  0  0  0  0  0  0  0  0  0
   -5.2930   16.1420  -33.4060 C   0  0  0  0  0  0  0  0  0  0  0  0
   -6.6310   16.6390  -33.4440 O   0  0  0  0  0  0  0  0  0  0  0  0
   -7.0270   17.9470  -33.1200 C   0  0  0  0  0  0  0  0  0  0  0  0
   -6.4660   19.0860  -33.7290 C   0  0  0  0  0  0  0  0  0  0  0  0
   -6.8910   20.3650  -33.3580 C   0  0  0  0  0  0  0  0  0  0  0  0
   -7.8790   20.5240  -32.3770 C   0  0  0  0  0  0  0  0  0  0  0  0
   -8.3480   22.1370  -31.8440 S   0  0  0  0  0  0  0  0  0  0  0  0
   -7.6990   23.1700  -32.7230 O   0  0  0  0  0  0  0  0  0  0  0  0
   -9.8390   22.2890  -31.9500 O   0  0  0  0  0  0  0  0  0  0  0  0
   -7.8410   22.3890  -30.1490 C   0  0  0  0  0  0  0  0  0  0  0  0
   -6.4980   23.0630  -30.1020 C   0  0  0  0  0  0  0  0  0  0  0  0
   -6.4040   24.4270  -29.8060 C   0  0  0  0  0  0  0  0  0  0  0  0
   -5.1560   25.0350  -29.7020 C   0  0  0  0  0  0  0  0  0  0  0  0
   -3.9830   24.2910  -29.8630 C   0  0  0  0  0  0  0  0  0  0  0  0
   -2.7710   24.9830  -29.8150 O   0  0  0  0  0  0  0  0  0  0  0  0
   -4.0570   22.8910  -30.0850 C   0  0  0  0  0  0  0  0  0  0  0  0
   -2.5670   21.9070  -30.1510 S   0  0  0  0  0  0  0  0  0  0  0  0
   -1.3920   22.8410  -30.0700 O   0  0  0  0  0  0  0  0  0  0  0  0
   -2.5510   21.0150  -28.9400 O   0  0  0  0  0  0  0  0  0  0  0  0
   -2.3580   20.8520  -31.5330 N   0  0  0  0  0  0  0  0  0  0  0  0
   -3.6150   20.2150  -31.9550 C   0  0  0  0  0  0  0  0  0  0  0  0
   -3.3480   19.2930  -33.1480 C   0  0  0  0  0  0  0  0  0  0  0  0
   -2.7470   20.0120  -34.2080 O   0  0  0  0  0  0  0  0  0  0  0  0
   -1.4830   20.4980  -33.8000 C   0  0  0  0  0  0  0  0  0  0  0  0
   -1.6300   21.4900  -32.6400 C   0  0  0  0  0  0  0  0  0  0  0  0
   -5.3260   22.3070  -30.2500 C   0  0  0  0  0  0  0  0  0  0  0  0
   -8.4340   19.3930  -31.7660 C   0  0  0  0  0  0  0  0  0  0  0  0
   -8.0120   18.1140  -32.1390 C   0  0  0  0  0  0  0  0  0  0  0  0
   -3.5910   17.0464  -34.3770 H   0  0  0  0  0  0  0  0  0  0  0  0
   -4.3011   15.6520  -35.2590 H   0  0  0  0  0  0  0  0  0  0  0  0
   -5.1441   17.2382  -35.2590 H   0  0  0  0  0  0  0  0  0  0  0  0
   -5.3177   15.0444  -33.3375 H   0  0  0  0  0  0  0  0  0  0  0  0
   -4.7829   16.5686  -32.5298 H   0  0  0  0  0  0  0  0  0  0  0  0
   -5.6901   18.9688  -34.4999 H   0  0  0  0  0  0  0  0  0  0  0  0
   -6.4481   21.2501  -33.8380 H   0  0  0  0  0  0  0  0  0  0  0  0
   -8.5825   23.0210  -29.6384 H   0  0  0  0  0  0  0  0  0  0  0  0
   -7.7696   21.4126  -29.6474 H   0  0  0  0  0  0  0  0  0  0  0  0
   -7.3179   25.0203  -29.6551 H   0  0  0  0  0  0  0  0  0  0  0  0
   -5.0919   26.1126  -29.4908 H   0  0  0  0  0  0  0  0  0  0  0  0
   -1.8700   24.5440  -29.9420 H   0  0  0  0  0  0  0  0  0  0  0  0
   -4.0247   19.6258  -31.1214 H   0  0  0  0  0  0  0  0  0  0  0  0
   -4.3377   20.9910  -32.2474 H   0  0  0  0  0  0  0  0  0  0  0  0
   -2.6749   18.4815  -32.8342 H   0  0  0  0  0  0  0  0  0  0  0  0
   -4.3053   18.8793  -33.4979 H   0  0  0  0  0  0  0  0  0  0  0  0
   -0.8593   19.6524  -33.4746 H   0  0  0  0  0  0  0  0  0  0  0  0
   -1.0131   21.0155  -34.6493 H   0  0  0  0  0  0  0  0  0  0  0  0
   -0.6325   21.7974  -32.2929 H   0  0  0  0  0  0  0  0  0  0  0  0
   -2.1892   22.3728  -32.9836 H   0  0  0  0  0  0  0  0  0  0  0  0
   -5.4005   21.2383  -30.4996 H   0  0  0  0  0  0  0  0  0  0  0  0
   -9.2046   19.5116  -30.9900 H   0  0  0  0  0  0  0  0  0  0  0  0
   -8.4575   17.2309  -31.6578 H   0  0  0  0  0  0  0  0  0  0  0  0
  1  2  1  0
  2  3  1  0
  3  4  1  0
  4  5  2  0
  5  6  1  0
  6  7  2  0
  7  8  1  0
  8  9  2  0
  8 10  2  0
  8 11  1  0
 11 12  1  0
 12 13  2  0
 13 14  1  0
 14 15  2  0
 15 16  1  0
 15 17  1  0
 17 18  1  0
 18 19  2  0
 18 20  2  0
 18 21  1  0
 21 22  1  0
 22 23  1  0
 23 24  1  0
 24 25  1  0
 25 26  1  0
 17 27  2  0
  7 28  1  0
 28 29  2  0
 29  4  1  0
 27 12  1  0
 26 21  1  0
  1 30  1  0
  1 31  1  0
  1 32  1  0
  2 33  1  0
  2 34  1  0
  5 35  1  0
  6 36  1  0
 11 37  1  0
 11 38  1  0
 13 39  1  0
 14 40  1  0
 16 41  1  0
 22 42  1  0
 22 43  1  0
 23 44  1  0
 23 45  1  0
 25 46  1  0
 25 47  1  0
 26 48  1  0
 26 49  1  0
 27 50  1  0
 28 51  1  0
 29 52  1  0
M  END
>  <UniqueID>  (37) 
34

>  <SMILES>  (37) 
CCOc1ccc(S(=O)(=O)Cc2ccc(O)c(S(=O)(=O)N3CCOCC3)c2)cc1

>  <Energy>  (37) 
54.68035535719357

>  <Genealogy>  (37) 
CCOc1ccc(S(=O)(=O)Cc2ccc(O)c(S(=O)(=O)N3CCOCC3)c2)cc1 (3D coordinates assigned)
CCOc1ccc(S(=O)(=O)Cc2ccc(O)c(S(=O)(=O)N3CCOCC3)c2)cc1 (nonaromatic ring conformer: 54.68035535719357 kcal/mol)

>  <smiles>  (37) 
CCOc1ccc(S(=O)(=O)Cc2ccc(O)c(S(=O)(=O)N3CCOCC3)c2)cc1

>  <score_type>  (37) 
oracle

>  <origin>  (37) 
adgpu

>  <m_score__min__energy>  (37) 
-9.4399999999999995

>  <m_primary>  (37) 
energy

$$$$
37:0
     RDKit          3D

 49 52  0  0  0  0  0  0  0  0999 V2000
   -0.0164   24.9984  -28.1337 H   0  0  0  0  0  0  0  0  0  0  0  0
   -1.0880   24.8720  -27.9200 C   0  0  0  0  0  0  0  0  0  0  0  0
   -1.9960   24.7290  -28.9740 C   0  0  0  0  0  0  0  0  0  0  0  0
   -1.6379   24.7539  -30.0138 H   0  0  0  0  0  0  0  0  0  0  0  0
   -3.3610   24.5540  -28.7090 C   0  0  0  0  0  0  0  0  0  0  0  0
   -4.5220   24.4170  -30.0260 S   0  0  0  0  0  0  0  0  0  0  0  0
   -4.3700   25.6020  -30.9370 O   0  0  0  0  0  0  0  0  0  0  0  0
   -5.9290   24.3890  -29.4990 O   0  0  0  0  0  0  0  0  0  0  0  0
   -4.2190   22.9630  -30.9220 N   0  0  0  0  0  0  0  0  0  0  0  0
   -5.1550   22.1950  -31.3910 C   0  0  0  0  0  0  0  0  0  0  0  0
   -6.4680   22.5000  -31.1920 N   0  0  0  0  0  0  0  0  0  0  0  0
   -7.4620   21.7080  -31.6660 C   0  0  0  0  0  0  0  0  0  0  0  0
   -8.8030   22.0370  -31.4440 C   0  0  0  0  0  0  0  0  0  0  0  0
   -9.0624   22.9456  -30.8808 H   0  0  0  0  0  0  0  0  0  0  0  0
   -9.8140   21.2060  -31.9410 C   0  0  0  0  0  0  0  0  0  0  0  0
  -10.8694   21.4625  -31.7671 H   0  0  0  0  0  0  0  0  0  0  0  0
   -9.4860   20.0490  -32.6590 C   0  0  0  0  0  0  0  0  0  0  0  0
  -10.2841   19.3999  -33.0485 H   0  0  0  0  0  0  0  0  0  0  0  0
   -8.1440   19.7170  -32.8820 C   0  0  0  0  0  0  0  0  0  0  0  0
   -7.8872   18.8081  -33.4458 H   0  0  0  0  0  0  0  0  0  0  0  0
   -7.1310   20.5440  -32.3860 C   0  0  0  0  0  0  0  0  0  0  0  0
   -5.8230   20.2380  -32.5900 N   0  0  0  0  0  0  0  0  0  0  0  0
   -4.8260   21.0300  -32.1120 C   0  0  0  0  0  0  0  0  0  0  0  0
   -3.1520   20.5770  -32.4170 S   0  0  0  0  0  0  0  0  0  0  0  0
   -2.6070   21.3820  -33.5630 O   0  0  0  0  0  0  0  0  0  0  0  0
   -3.0920   19.1210  -32.7820 O   0  0  0  0  0  0  0  0  0  0  0  0
   -2.1850   20.9010  -30.9810 C   0  0  0  0  0  0  0  0  0  0  0  0
   -2.6660   20.5210  -29.7210 C   0  0  0  0  0  0  0  0  0  0  0  0
   -3.6521   20.0416  -29.6325 H   0  0  0  0  0  0  0  0  0  0  0  0
   -1.8970   20.7490  -28.5760 C   0  0  0  0  0  0  0  0  0  0  0  0
   -2.2855   20.4590  -27.5886 H   0  0  0  0  0  0  0  0  0  0  0  0
   -0.6320   21.3460  -28.6810 C   0  0  0  0  0  0  0  0  0  0  0  0
    0.1760   21.6230  -27.4480 C   0  0  0  0  0  0  0  0  0  0  0  0
   -0.4329   21.4142  -26.5560 H   0  0  0  0  0  0  0  0  0  0  0  0
    1.0680   20.9793  -27.4419 H   0  0  0  0  0  0  0  0  0  0  0  0
    0.4855   22.6786  -27.4419 H   0  0  0  0  0  0  0  0  0  0  0  0
   -0.1580   21.7400  -29.9420 C   0  0  0  0  0  0  0  0  0  0  0  0
    0.8229   22.2300  -30.0300 H   0  0  0  0  0  0  0  0  0  0  0  0
   -0.9280   21.5120  -31.0870 C   0  0  0  0  0  0  0  0  0  0  0  0
   -0.5460   21.8131  -32.0736 H   0  0  0  0  0  0  0  0  0  0  0  0
   -3.8110   24.5220  -27.3830 C   0  0  0  0  0  0  0  0  0  0  0  0
   -4.8815   24.3847  -27.1704 H   0  0  0  0  0  0  0  0  0  0  0  0
   -2.9040   24.6640  -26.3290 C   0  0  0  0  0  0  0  0  0  0  0  0
   -3.2621   24.6259  -25.2896 H   0  0  0  0  0  0  0  0  0  0  0  0
   -1.5380   24.8550  -26.5910 C   0  0  0  0  0  0  0  0  0  0  0  0
   -0.5620   24.9720  -25.4590 C   0  0  0  0  0  0  0  0  0  0  0  0
   -1.1008   24.9074  -24.5022 H   0  0  0  0  0  0  0  0  0  0  0  0
    0.1724   24.1555  -25.5221 H   0  0  0  0  0  0  0  0  0  0  0  0
   -0.0415   25.9390  -25.5221 H   0  0  0  0  0  0  0  0  0  0  0  0
  1  2  1  0
  2  3  2  0
  3  4  1  0
  3  5  1  0
  5  6  1  0
  6  7  2  0
  6  8  2  0
  6  9  1  0
  9 10  2  0
 10 11  1  0
 11 12  1  0
 12 13  2  0
 13 14  1  0
 13 15  1  0
 15 16  1  0
 15 17  2  0
 17 18  1  0
 17 19  1  0
 19 20  1  0
 19 21  2  0
 21 22  1  0
 22 23  2  0
 23 24  1  0
 24 25  2  0
 24 26  2  0
 24 27  1  0
 27 28  2  0
 28 29  1  0
 28 30  1  0
 30 31  1  0
 30 32  2  0
 32 33  1  0
 33 34  1  0
 33 35  1  0
 33 36  1  0
 32 37  1  0
 37 38  1  0
 37 39  2  0
 39 40  1  0
  5 41  2  0
 41 42  1  0
 41 43  1  0
 43 44  1  0
 43 45  2  0
 45 46  1  0
 46 47  1  0
 46 48  1  0
 46 49  1  0
 45  2  1  0
 23 10  1  0
 39 27  1  0
 21 12  1  0
M  CHG  1  11  -1
M  END
>  <UniqueID>  (38) 
35

>  <SMILES>  (38) 
Cc1ccc(S(=O)(=O)/N=c2\[n-]c3ccccc3nc2S(=O)(=O)c2ccc(C)cc2)cc1

>  <Energy>  (38) 
59.724856138509665

>  <Genealogy>  (38) 
Cc1ccc(S(=O)(=O)N=c2[n-]c3ccccc3nc2S(=O)(=O)c2ccc(C)cc2)cc1 (protonated)
Cc1ccc(S(=O)(=O)/N=c2\[n-]c3ccccc3nc2S(=O)(=O)c2ccc(C)cc2)cc1 (cis-trans isomerization)
Cc1ccc(S(=O)(=O)/N=c2\[n-]c3ccccc3nc2S(=O)(=O)c2ccc(C)cc2)cc1 (3D coordinates assigned)
Cc1ccc(S(=O)(=O)/N=c2\[n-]c3ccccc3nc2S(=O)(=O)c2ccc(C)cc2)cc1 (optimized conformer: 59.724856138509665 kcal/mol)

>  <smiles>  (38) 
Cc1ccc(S(=O)(=O)N=c2[nH]c3ccccc3nc2S(=O)(=O)c2ccc(C)cc2)cc1

>  <score_type>  (38) 
oracle

>  <origin>  (38) 
adgpu

>  <m_score__min__energy>  (38) 
-10.710000000000001

>  <m_primary>  (38) 
energy

$$$$
38:0
     RDKit          3D

 49 52  0  0  0  0  0  0  0  0999 V2000
   -0.7887   28.6528  -25.4305 H   0  0  0  0  0  0  0  0  0  0  0  0
   -0.7450   27.5550  -25.3770 C   0  0  0  0  0  0  0  0  0  0  0  0
   -0.8780   26.8140  -26.5090 N   0  0  0  0  0  0  0  0  0  0  0  0
   -0.8220   25.4530  -26.4950 C   0  0  0  0  0  0  0  0  0  0  0  0
   -0.9990   24.7140  -27.7640 C   0  0  0  0  0  0  0  0  0  0  0  0
    0.0170   24.4900  -28.4760 O   0  0  0  0  0  0  0  0  0  0  0  0
   -2.3190   24.2220  -28.2250 C   0  0  0  0  0  0  0  0  0  0  0  0
   -2.9800   23.2120  -27.5130 C   0  0  0  0  0  0  0  0  0  0  0  0
   -2.5155   22.7728  -26.6178 H   0  0  0  0  0  0  0  0  0  0  0  0
   -4.2290   22.7660  -27.9440 C   0  0  0  0  0  0  0  0  0  0  0  0
   -4.7429   21.9647  -27.3929 H   0  0  0  0  0  0  0  0  0  0  0  0
   -4.8160   23.3150  -29.0410 N   0  0  0  0  0  0  0  0  0  0  0  0
   -5.7470   22.9380  -29.3210 H   0  0  0  0  0  0  0  0  0  0  0  0
   -4.2110   24.3210  -29.7460 C   0  0  0  0  0  0  0  0  0  0  0  0
   -4.7720   24.8690  -30.7890 N   0  0  0  0  0  0  0  0  0  0  0  0
   -6.0830   24.5480  -31.3550 C   0  0  0  0  0  0  0  0  0  0  0  0
   -6.8539   24.6945  -30.5841 H   0  0  0  0  0  0  0  0  0  0  0  0
   -6.2675   25.2109  -32.2132 H   0  0  0  0  0  0  0  0  0  0  0  0
   -6.1270   23.1180  -31.8320 C   0  0  0  0  0  0  0  0  0  0  0  0
   -7.3380   22.4120  -31.8350 C   0  0  0  0  0  0  0  0  0  0  0  0
   -8.2569   22.9024  -31.4813 H   0  0  0  0  0  0  0  0  0  0  0  0
   -7.3860   21.0900  -32.2840 C   0  0  0  0  0  0  0  0  0  0  0  0
   -8.3421   20.5461  -32.2736 H   0  0  0  0  0  0  0  0  0  0  0  0
   -6.2230   20.4460  -32.7500 C   0  0  0  0  0  0  0  0  0  0  0  0
   -6.2710   19.0770  -33.2150 N   0  0  0  0  0  0  0  0  0  0  0  0
   -7.2050   18.0790  -32.7120 C   0  0  0  0  0  0  0  0  0  0  0  0
   -7.1409   18.0131  -31.6158 H   0  0  0  0  0  0  0  0  0  0  0  0
   -8.2448   18.3367  -32.9619 H   0  0  0  0  0  0  0  0  0  0  0  0
   -6.7880   16.7600  -33.3470 C   0  0  0  0  0  0  0  0  0  0  0  0
   -6.2235   16.1495  -32.6268 H   0  0  0  0  0  0  0  0  0  0  0  0
   -7.6601   16.1672  -33.6600 H   0  0  0  0  0  0  0  0  0  0  0  0
   -5.9070   17.1320  -34.5330 C   0  0  0  0  0  0  0  0  0  0  0  0
   -5.0677   16.4267  -34.6230 H   0  0  0  0  0  0  0  0  0  0  0  0
   -6.4650   17.0935  -35.4802 H   0  0  0  0  0  0  0  0  0  0  0  0
   -5.3920   18.5350  -34.2420 C   0  0  0  0  0  0  0  0  0  0  0  0
   -4.3555   18.4940  -33.8760 H   0  0  0  0  0  0  0  0  0  0  0  0
   -5.3925   19.1614  -35.1462 H   0  0  0  0  0  0  0  0  0  0  0  0
   -5.0130   21.1680  -32.7590 C   0  0  0  0  0  0  0  0  0  0  0  0
   -4.0942   20.6858  -33.1241 H   0  0  0  0  0  0  0  0  0  0  0  0
   -4.9680   22.4900  -32.3090 C   0  0  0  0  0  0  0  0  0  0  0  0
   -4.0166   23.0418  -32.3291 H   0  0  0  0  0  0  0  0  0  0  0  0
   -2.9530   24.7860  -29.3440 C   0  0  0  0  0  0  0  0  0  0  0  0
   -2.4608   25.5939  -29.9052 H   0  0  0  0  0  0  0  0  0  0  0  0
   -0.6500   24.7860  -25.2700 C   0  0  0  0  0  0  0  0  0  0  0  0
   -0.6258   23.6868  -25.2359 H   0  0  0  0  0  0  0  0  0  0  0  0
   -0.5100   25.5300  -24.0960 C   0  0  0  0  0  0  0  0  0  0  0  0
   -0.3661   25.0180  -23.1331 H   0  0  0  0  0  0  0  0  0  0  0  0
   -0.5530   26.9240  -24.1470 C   0  0  0  0  0  0  0  0  0  0  0  0
   -0.4369   27.5184  -23.2287 H   0  0  0  0  0  0  0  0  0  0  0  0
  1  2  1  0
  2  3  2  0
  3  4  1  0
  4  5  1  0
  5  6  2  0
  5  7  1  0
  7  8  1  0
  8  9  1  0
  8 10  2  0
 10 11  1  0
 10 12  1  0
 12 13  1  0
 12 14  1  0
 14 15  2  0
 15 16  1  0
 16 17  1  0
 16 18  1  0
 16 19  1  0
 19 20  2  0
 20 21  1  0
 20 22  1  0
 22 23  1  0
 22 24  2  0
 24 25  1  0
 25 26  1  0
 26 27  1  0
 26 28  1  0
 26 29  1  0
 29 30  1  0
 29 31  1  0
 29 32  1  0
 32 33  1  0
 32 34  1  0
 32 35  1  0
 35 36  1  0
 35 37  1  0
 24 38  1  0
 38 39  1  0
 38 40  2  0
 40 41  1  0
 14 42  1  0
 42 43  1  0
  4 44  2  0
 44 45  1  0
 44 46  1  0
 46 47  1  0
 46 48  2  0
 48 49  1  0
 48  2  1  0
 42  7  2  0
 40 19  1  0
 35 25  1  0
M  END
>  <UniqueID>  (39) 
36

>  <SMILES>  (39) 
O=C(c1cc[nH]/c(=N\Cc2ccc(N3CCCC3)cc2)c1)c1ccccn1

>  <Energy>  (39) 
61.31913513728605

>  <Genealogy>  (39) 
O=C(c1cc[nH]/c(=N\Cc2ccc(N3CCCC3)cc2)c1)c1ccccn1 (cis-trans isomerization)
O=C(c1cc[nH]/c(=N\Cc2ccc(N3CCCC3)cc2)c1)c1ccccn1 (3D coordinates assigned)
O=C(c1cc[nH]/c(=N\Cc2ccc(N3CCCC3)cc2)c1)c1ccccn1 (nonaromatic ring conformer: 61.31913513728605 kcal/mol)

>  <smiles>  (39) 
O=C(c1cc[nH]c(=NCc2ccc(N3CCCC3)cc2)c1)c1ccccn1

>  <score_type>  (39) 
oracle

>  <origin>  (39) 
adgpu

>  <m_score__min__energy>  (39) 
-9.2699999999999996

>  <m_primary>  (39) 
energy

$$$$
39:0
     RDKit          3D

 43 44  0  0  0  0  0  0  0  0999 V2000
   -2.7090   16.7400  -35.3310 N   0  0  0  0  0  0  0  0  0  0  0  0
   -2.9570   17.6680  -33.8950 S   0  0  0  0  0  0  0  0  0  0  0  0
   -2.4790   19.0730  -34.1340 O   0  0  0  0  0  0  0  0  0  0  0  0
   -2.1600   17.0770  -32.7640 O   0  0  0  0  0  0  0  0  0  0  0  0
   -4.6750   17.6710  -33.4770 C   0  0  0  0  0  0  0  0  0  0  0  0
   -5.4910   16.6090  -33.8960 C   0  0  0  0  0  0  0  0  0  0  0  0
   -6.8500   16.5910  -33.5740 C   0  0  0  0  0  0  0  0  0  0  0  0
   -7.4060   17.6350  -32.8340 C   0  0  0  0  0  0  0  0  0  0  0  0
   -6.6040   18.6940  -32.4040 C   0  0  0  0  0  0  0  0  0  0  0  0
   -5.2290   18.7130  -32.7040 C   0  0  0  0  0  0  0  0  0  0  0  0
   -4.3950   19.8060  -32.2870 N   0  0  0  0  0  0  0  0  0  0  0  0
   -4.4640   21.1560  -32.7600 C   0  0  0  0  0  0  0  0  0  0  0  0
   -3.4510   21.7190  -33.2580 O   0  0  0  0  0  0  0  0  0  0  0  0
   -5.7660   21.8900  -32.7060 C   0  0  0  0  0  0  0  0  0  0  0  0
   -5.5660   23.3090  -32.1640 C   0  0  0  0  0  0  0  0  0  0  0  0
   -5.6710   23.3450  -30.7020 N   0  0  0  0  0  0  0  0  0  0  0  0
   -4.5340   24.4590  -29.9860 S   0  0  0  0  0  0  0  0  0  0  0  0
   -4.4100   25.6610  -30.8780 O   0  0  0  0  0  0  0  0  0  0  0  0
   -5.0230   24.9000  -28.6330 O   0  0  0  0  0  0  0  0  0  0  0  0
   -2.9470   23.6980  -29.8400 C   0  0  0  0  0  0  0  0  0  0  0  0
   -2.7790   22.3630  -30.2400 C   0  0  0  0  0  0  0  0  0  0  0  0
   -1.5300   21.7270  -30.1270 C   0  0  0  0  0  0  0  0  0  0  0  0
   -1.3840   20.3070  -30.5330 C   0  0  0  0  0  0  0  0  0  0  0  0
   -1.7930   19.8530  -31.8260 N   0  0  0  0  0  0  0  0  0  0  0  0
   -0.8990   19.4730  -29.7210 O   0  0  0  0  0  0  0  0  0  0  0  0
   -0.4440   22.4520  -29.6060 C   0  0  0  0  0  0  0  0  0  0  0  0
   -0.6010   23.7870  -29.2270 C   0  0  0  0  0  0  0  0  0  0  0  0
   -1.8440   24.4140  -29.3450 C   0  0  0  0  0  0  0  0  0  0  0  0
   -1.9700   25.7470  -28.9690 O   0  0  0  0  0  0  0  0  0  0  0  0
   -1.8880   17.1510  -35.8290 H   0  0  0  0  0  0  0  0  0  0  0  0
   -5.0574   15.7852  -34.4820 H   0  0  0  0  0  0  0  0  0  0  0  0
   -7.4822   15.7534  -33.9039 H   0  0  0  0  0  0  0  0  0  0  0  0
   -8.4783   17.6238  -32.5889 H   0  0  0  0  0  0  0  0  0  0  0  0
   -7.0494   19.5182  -31.8275 H   0  0  0  0  0  0  0  0  0  0  0  0
   -6.1906   21.9470  -33.7191 H   0  0  0  0  0  0  0  0  0  0  0  0
   -6.4495   21.3485  -32.0355 H   0  0  0  0  0  0  0  0  0  0  0  0
   -4.5690   23.6675  -32.4598 H   0  0  0  0  0  0  0  0  0  0  0  0
   -6.3535   23.9528  -32.5828 H   0  0  0  0  0  0  0  0  0  0  0  0
   -3.6361   21.8068  -30.6474 H   0  0  0  0  0  0  0  0  0  0  0  0
   -2.3320   20.4630  -32.4800 H   0  0  0  0  0  0  0  0  0  0  0  0
   -1.6180   18.8630  -32.1070 H   0  0  0  0  0  0  0  0  0  0  0  0
    0.5359   21.9645  -29.4961 H   0  0  0  0  0  0  0  0  0  0  0  0
    0.2592   24.3482  -28.8332 H   0  0  0  0  0  0  0  0  0  0  0  0
  1  2  1  0
  2  3  2  0
  2  4  2  0
  2  5  1  0
  5  6  2  0
  6  7  1  0
  7  8  2  0
  8  9  1  0
  9 10  2  0
 10 11  1  0
 11 12  1  0
 12 13  2  0
 12 14  1  0
 14 15  1  0
 15 16  1  0
 16 17  1  0
 17 18  2  0
 17 19  2  0
 17 20  1  0
 20 21  2  0
 21 22  1  0
 22 23  1  0
 23 24  1  0
 23 25  2  0
 22 26  2  0
 26 27  1  0
 27 28  2  0
 28 29  1  0
 10  5  1  0
 28 20  1  0
  1 30  1  0
  6 31  1  0
  7 32  1  0
  8 33  1  0
  9 34  1  0
 14 35  1  0
 14 36  1  0
 15 37  1  0
 15 38  1  0
 21 39  1  0
 24 40  1  0
 24 41  1  0
 26 42  1  0
 27 43  1  0
M  CHG  4   1  -1  11  -1  16  -1  29  -1
M  END
>  <UniqueID>  (40) 
37

>  <SMILES>  (40) 
[NH-]S(=O)(=O)c1ccccc1[N-]C(=O)CC[N-]S(=O)(=O)c1cc(C(N)=O)ccc1[O-]

>  <Energy>  (40) 
46.53422651942036

>  <Genealogy>  (40) 
[NH-]S(=O)(=O)c1ccccc1[N-]C(=O)CC[N-]S(=O)(=O)c1cc(C(N)=O)ccc1[O-] (protonated)
[NH-]S(=O)(=O)c1ccccc1[N-]C(=O)CC[N-]S(=O)(=O)c1cc(C(N)=O)ccc1[O-] (3D coordinates assigned)
[NH-]S(=O)(=O)c1ccccc1[N-]C(=O)CC[N-]S(=O)(=O)c1cc(C(N)=O)ccc1[O-] (optimized conformer: 46.53422651942036 kcal/mol)

>  <smiles>  (40) 
NC(=O)c1ccc(O)c(S(=O)(=O)NCCC(=O)Nc2ccccc2S(N)(=O)=O)c1

>  <score_type>  (40) 
oracle

>  <origin>  (40) 
adgpu

>  <m_score__min__energy>  (40) 
-13.24

>  <m_primary>  (40) 
energy

$$$$
40:0
     RDKit          3D

 43 45  0  0  0  0  0  0  0  0999 V2000
   -8.8900   22.2600  -31.9660 C   0  0  0  0  0  0  0  0  0  0  0  0
   -7.8580   23.0720  -31.7220 C   0  0  0  0  0  0  0  0  0  0  0  0
   -6.8860   22.8220  -30.6030 C   0  0  0  0  0  0  0  0  0  0  0  0
   -5.6660   23.6260  -30.7650 N   0  0  0  0  0  0  0  0  0  0  0  0
   -4.4940   23.2740  -31.3410 C   0  0  0  0  0  0  0  0  0  0  0  0
   -4.2090   21.9800  -31.9880 C   0  0  0  0  0  0  0  0  0  0  0  0
   -2.9120   21.4470  -31.9900 C   0  0  0  0  0  0  0  0  0  0  0  0
   -2.6600   20.2140  -32.5950 C   0  0  0  0  0  0  0  0  0  0  0  0
   -3.7010   19.4960  -33.1860 C   0  0  0  0  0  0  0  0  0  0  0  0
   -5.0080   20.0040  -33.1650 C   0  0  0  0  0  0  0  0  0  0  0  0
   -6.3340   19.0790  -33.8750 S   0  0  0  0  0  0  0  0  0  0  0  0
   -7.6210   19.8310  -33.6820 O   0  0  0  0  0  0  0  0  0  0  0  0
   -6.0990   18.9300  -35.3520 O   0  0  0  0  0  0  0  0  0  0  0  0
   -6.4680   17.4930  -33.1500 N   0  0  0  0  0  0  0  0  0  0  0  0
   -5.5970   17.3960  -31.9570 C   0  0  0  0  0  0  0  0  0  0  0  0
   -5.3640   15.9380  -31.5510 C   0  0  0  0  0  0  0  0  0  0  0  0
   -4.6410   15.1630  -32.6670 C   0  0  0  0  0  0  0  0  0  0  0  0
   -4.8850   15.7610  -34.0630 C   0  0  0  0  0  0  0  0  0  0  0  0
   -6.2710   16.4160  -34.1520 C   0  0  0  0  0  0  0  0  0  0  0  0
   -5.2570   21.2470  -32.5640 C   0  0  0  0  0  0  0  0  0  0  0  0
   -3.5560   24.2270  -31.1720 N   0  0  0  0  0  0  0  0  0  0  0  0
   -4.1200   25.2130  -30.4910 N   0  0  0  0  0  0  0  0  0  0  0  0
   -5.3890   24.8430  -30.2480 C   0  0  0  0  0  0  0  0  0  0  0  0
   -6.4200   25.7430  -29.3450 S   0  0  0  0  0  0  0  0  0  0  0  0
   -9.5783   22.4794  -32.7955 H   0  0  0  0  0  0  0  0  0  0  0  0
   -9.0516   21.3719  -31.3374 H   0  0  0  0  0  0  0  0  0  0  0  0
   -7.7143   23.9547  -32.3624 H   0  0  0  0  0  0  0  0  0  0  0  0
   -7.3640   23.0849  -29.6478 H   0  0  0  0  0  0  0  0  0  0  0  0
   -6.6053   21.7585  -30.6183 H   0  0  0  0  0  0  0  0  0  0  0  0
   -2.0905   22.0020  -31.5135 H   0  0  0  0  0  0  0  0  0  0  0  0
   -1.6380   19.8073  -32.6059 H   0  0  0  0  0  0  0  0  0  0  0  0
   -3.4957   18.5294  -33.6693 H   0  0  0  0  0  0  0  0  0  0  0  0
   -4.6274   17.8637  -32.1831 H   0  0  0  0  0  0  0  0  0  0  0  0
   -6.0948   17.9119  -31.1227 H   0  0  0  0  0  0  0  0  0  0  0  0
   -4.7494   15.9124  -30.6391 H   0  0  0  0  0  0  0  0  0  0  0  0
   -6.3403   15.4641  -31.3714 H   0  0  0  0  0  0  0  0  0  0  0  0
   -3.5604   15.1784  -32.4621 H   0  0  0  0  0  0  0  0  0  0  0  0
   -5.0412   14.1384  -32.6712 H   0  0  0  0  0  0  0  0  0  0  0  0
   -4.1156   16.5201  -34.2677 H   0  0  0  0  0  0  0  0  0  0  0  0
   -4.8353   14.9489  -34.8033 H   0  0  0  0  0  0  0  0  0  0  0  0
   -6.3918   16.8459  -35.1573 H   0  0  0  0  0  0  0  0  0  0  0  0
   -7.0181   15.6350  -33.9473 H   0  0  0  0  0  0  0  0  0  0  0  0
   -6.2806   21.6493  -32.5444 H   0  0  0  0  0  0  0  0  0  0  0  0
  1  2  2  0
  2  3  1  0
  3  4  1  0
  4  5  1  0
  5  6  1  0
  6  7  2  0
  7  8  1  0
  8  9  2  0
  9 10  1  0
 10 11  1  0
 11 12  2  0
 11 13  2  0
 11 14  1  0
 14 15  1  0
 15 16  1  0
 16 17  1  0
 17 18  1  0
 18 19  1  0
 10 20  2  0
  5 21  2  0
 21 22  1  0
 22 23  1  0
 23 24  2  0
 23  4  1  0
 20  6  1  0
 19 14  1  0
  1 25  1  0
  1 26  1  0
  2 27  1  0
  3 28  1  0
  3 29  1  0
  7 30  1  0
  8 31  1  0
  9 32  1  0
 15 33  1  0
 15 34  1  0
 16 35  1  0
 16 36  1  0
 17 37  1  0
 17 38  1  0
 18 39  1  0
 18 40  1  0
 19 41  1  0
 19 42  1  0
 20 43  1  0
M  CHG  1  22  -1
M  END
>  <UniqueID>  (41) 
38

>  <SMILES>  (41) 
C=CCn1c(-c2cccc(S(=O)(=O)N3CCCCC3)c2)n[n-]c1=S

>  <Energy>  (41) 
86.97896825553076

>  <Genealogy>  (41) 
C=CCn1c(-c2cccc(S(=O)(=O)N3CCCCC3)c2)n[n-]c1=S (protonated)
C=CCn1c(-c2cccc(S(=O)(=O)N3CCCCC3)c2)n[n-]c1=S (3D coordinates assigned)
C=CCn1c(-c2cccc(S(=O)(=O)N3CCCCC3)c2)n[n-]c1=S (nonaromatic ring conformer: 86.97896825553076 kcal/mol)

>  <smiles>  (41) 
C=CCn1c(-c2cccc(S(=O)(=O)N3CCCCC3)c2)n[nH]c1=S

>  <score_type>  (41) 
oracle

>  <origin>  (41) 
adgpu

>  <m_score__min__energy>  (41) 
-10.470000000000001

>  <m_primary>  (41) 
energy

$$$$
41:0
     RDKit          3D

 44 47  0  0  0  0  0  0  0  0999 V2000
   -4.8710   24.1280  -31.2320 O   0  0  0  0  0  0  0  0  0  0  0  0
   -5.5350   23.3450  -30.5000 C   0  0  0  0  0  0  0  0  0  0  0  0
   -5.1080   23.0860  -29.1490 N   0  0  0  0  0  0  0  0  0  0  0  0
   -3.9970   23.7460  -28.5200 C   0  0  0  0  0  0  0  0  0  0  0  0
   -4.1120   24.3080  -27.2170 C   0  0  0  0  0  0  0  0  0  0  0  0
   -3.0070   24.9280  -26.6020 C   0  0  0  0  0  0  0  0  0  0  0  0
   -1.8100   24.9540  -27.3080 C   0  0  0  0  0  0  0  0  0  0  0  0
   -0.5700   25.4580  -27.0060 C   0  0  0  0  0  0  0  0  0  0  0  0
    0.2520   25.2000  -28.0510 N   0  0  0  0  0  0  0  0  0  0  0  0
   -0.4270   24.5520  -28.9950 N   0  0  0  0  0  0  0  0  0  0  0  0
   -1.6830   24.4010  -28.5460 C   0  0  0  0  0  0  0  0  0  0  0  0
   -2.7510   23.7790  -29.1860 C   0  0  0  0  0  0  0  0  0  0  0  0
   -6.7460   22.6980  -31.0590 C   0  0  0  0  0  0  0  0  0  0  0  0
   -7.8730   23.4770  -31.3670 C   0  0  0  0  0  0  0  0  0  0  0  0
   -9.0250   22.8840  -31.8870 C   0  0  0  0  0  0  0  0  0  0  0  0
   -9.0650   21.5060  -32.1150 C   0  0  0  0  0  0  0  0  0  0  0  0
  -10.2010   20.9540  -32.6100 F   0  0  0  0  0  0  0  0  0  0  0  0
   -7.9430   20.7130  -31.8300 C   0  0  0  0  0  0  0  0  0  0  0  0
   -7.9680   18.9680  -32.1180 S   0  0  0  0  0  0  0  0  0  0  0  0
   -7.5900   18.2450  -30.8550 O   0  0  0  0  0  0  0  0  0  0  0  0
   -9.3640   18.5490  -32.4870 O   0  0  0  0  0  0  0  0  0  0  0  0
   -6.8730   18.5030  -33.3970 N   0  0  0  0  0  0  0  0  0  0  0  0
   -6.6800   17.0460  -33.4070 C   0  0  0  0  0  0  0  0  0  0  0  0
   -5.7220   16.6510  -34.5510 C   0  0  0  0  0  0  0  0  0  0  0  0
   -5.1580   17.7810  -35.1930 O   0  0  0  0  0  0  0  0  0  0  0  0
   -4.5410   18.6190  -34.2340 C   0  0  0  0  0  0  0  0  0  0  0  0
   -5.5790   19.1860  -33.2430 C   0  0  0  0  0  0  0  0  0  0  0  0
   -6.7860   21.3140  -31.3100 C   0  0  0  0  0  0  0  0  0  0  0  0
   -5.5910   22.3460  -28.5950 H   0  0  0  0  0  0  0  0  0  0  0  0
   -5.0736   24.2575  -26.6852 H   0  0  0  0  0  0  0  0  0  0  0  0
   -3.0883   25.3750  -25.6002 H   0  0  0  0  0  0  0  0  0  0  0  0
   -0.2924   25.9798  -26.0783 H   0  0  0  0  0  0  0  0  0  0  0  0
   -2.6288   23.3263  -30.1811 H   0  0  0  0  0  0  0  0  0  0  0  0
   -7.8480   24.5635  -31.1972 H   0  0  0  0  0  0  0  0  0  0  0  0
   -9.9041   23.5036  -32.1180 H   0  0  0  0  0  0  0  0  0  0  0  0
   -6.2505   16.7283  -32.4454 H   0  0  0  0  0  0  0  0  0  0  0  0
   -7.6512   16.5530  -33.5613 H   0  0  0  0  0  0  0  0  0  0  0  0
   -4.9090   16.0373  -34.1358 H   0  0  0  0  0  0  0  0  0  0  0  0
   -6.3034   16.0932  -35.2999 H   0  0  0  0  0  0  0  0  0  0  0  0
   -3.7925   18.0368  -33.6765 H   0  0  0  0  0  0  0  0  0  0  0  0
   -4.0637   19.4593  -34.7594 H   0  0  0  0  0  0  0  0  0  0  0  0
   -5.2141   19.0406  -32.2155 H   0  0  0  0  0  0  0  0  0  0  0  0
   -5.7178   20.2572  -33.4510 H   0  0  0  0  0  0  0  0  0  0  0  0
   -5.9011   20.6965  -31.0964 H   0  0  0  0  0  0  0  0  0  0  0  0
  1  2  2  0
  2  3  1  0
  3  4  1  0
  4  5  1  0
  5  6  2  0
  6  7  1  0
  7  8  2  0
  8  9  1  0
  9 10  1  0
 10 11  2  0
 11 12  1  0
  2 13  1  0
 13 14  2  0
 14 15  1  0
 15 16  2  0
 16 17  1  0
 16 18  1  0
 18 19  1  0
 19 20  2  0
 19 21  2  0
 19 22  1  0
 22 23  1  0
 23 24  1  0
 24 25  1  0
 25 26  1  0
 26 27  1  0
 18 28  2  0
 12  4  2  0
 28 13  1  0
 11  7  1  0
 27 22  1  0
  3 29  1  0
  5 30  1  0
  6 31  1  0
  8 32  1  0
 12 33  1  0
 14 34  1  0
 15 35  1  0
 23 36  1  0
 23 37  1  0
 24 38  1  0
 24 39  1  0
 26 40  1  0
 26 41  1  0
 27 42  1  0
 27 43  1  0
 28 44  1  0
M  CHG  1   9  -1
M  END
>  <UniqueID>  (42) 
39

>  <SMILES>  (42) 
O=C(Nc1ccc2c[n-]nc2c1)c1ccc(F)c(S(=O)(=O)N2CCOCC2)c1

>  <Energy>  (42) 
99.9913966003179

>  <Genealogy>  (42) 
O=C(Nc1ccc2c[n-]nc2c1)c1ccc(F)c(S(=O)(=O)N2CCOCC2)c1 (protonated)
O=C(Nc1ccc2c[n-]nc2c1)c1ccc(F)c(S(=O)(=O)N2CCOCC2)c1 (3D coordinates assigned)
O=C(Nc1ccc2c[n-]nc2c1)c1ccc(F)c(S(=O)(=O)N2CCOCC2)c1 (nonaromatic ring conformer: 99.9913966003179 kcal/mol)

>  <smiles>  (42) 
O=C(Nc1ccc2c[nH]nc2c1)c1ccc(F)c(S(=O)(=O)N2CCOCC2)c1

>  <score_type>  (42) 
oracle

>  <origin>  (42) 
adgpu

>  <m_score__min__energy>  (42) 
-10.81

>  <m_primary>  (42) 
energy

$$$$
42:0
     RDKit          3D

 48 51  0  0  0  0  0  0  0  0999 V2000
    0.7700   26.0010  -25.1160 C   0  0  0  0  0  0  0  0  0  0  0  0
    0.1730   25.4630  -26.3720 C   0  0  0  0  0  0  0  0  0  0  0  0
   -1.1300   25.0510  -26.5410 C   0  0  0  0  0  0  0  0  0  0  0  0
   -1.1730   24.6610  -27.8670 C   0  0  0  0  0  0  0  0  0  0  0  0
   -2.3420   24.1440  -28.5980 C   0  0  0  0  0  0  0  0  0  0  0  0
   -2.6980   22.9500  -28.4120 O   0  0  0  0  0  0  0  0  0  0  0  0
   -3.0980   24.9960  -29.4750 N   0  0  0  0  0  0  0  0  0  0  0  0
   -4.0420   24.5120  -30.4460 C   0  0  0  0  0  0  0  0  0  0  0  0
   -5.2460   25.1870  -30.7060 C   0  0  0  0  0  0  0  0  0  0  0  0
   -6.1220   24.6920  -31.6170 N   0  0  0  0  0  0  0  0  0  0  0  0
   -5.8810   23.5390  -32.2940 C   0  0  0  0  0  0  0  0  0  0  0  0
   -4.7130   22.8030  -32.0460 C   0  0  0  0  0  0  0  0  0  0  0  0
   -4.4540   21.5440  -32.7830 C   0  0  0  0  0  0  0  0  0  0  0  0
   -3.3500   21.3980  -33.3740 O   0  0  0  0  0  0  0  0  0  0  0  0
   -5.4630   20.4650  -32.8670 C   0  0  0  0  0  0  0  0  0  0  0  0
   -6.8000   20.5470  -32.4900 C   0  0  0  0  0  0  0  0  0  0  0  0
   -7.4470   19.3830  -32.7540 N   0  0  0  0  0  0  0  0  0  0  0  0
   -8.8780   19.1210  -32.5390 C   0  0  0  0  0  0  0  0  0  0  0  0
   -9.0900   18.1950  -31.3350 C   0  0  0  0  0  0  0  0  0  0  0  0
   -9.6330   20.4400  -32.3590 C   0  0  0  0  0  0  0  0  0  0  0  0
   -6.5300   18.5720  -33.3300 C   0  0  0  0  0  0  0  0  0  0  0  0
   -6.7020   17.2740  -33.8210 C   0  0  0  0  0  0  0  0  0  0  0  0
   -5.5800   16.6400  -34.3830 C   0  0  0  0  0  0  0  0  0  0  0  0
   -4.3740   17.2860  -34.4400 N   0  0  0  0  0  0  0  0  0  0  0  0
   -4.2090   18.5550  -33.9660 C   0  0  0  0  0  0  0  0  0  0  0  0
   -5.3120   19.2010  -33.4100 C   0  0  0  0  0  0  0  0  0  0  0  0
   -3.7890   23.3100  -31.1170 C   0  0  0  0  0  0  0  0  0  0  0  0
    0.0380   24.8450  -28.4300 N   0  0  0  0  0  0  0  0  0  0  0  0
    0.8180   25.3250  -27.5060 O   0  0  0  0  0  0  0  0  0  0  0  0
    0.2679   25.5485  -24.2482 H   0  0  0  0  0  0  0  0  0  0  0  0
    1.8425   25.7585  -25.0866 H   0  0  0  0  0  0  0  0  0  0  0  0
    0.6400   27.0929  -25.0866 H   0  0  0  0  0  0  0  0  0  0  0  0
   -1.9420   25.0358  -25.7991 H   0  0  0  0  0  0  0  0  0  0  0  0
   -3.0300   26.0300  -29.3380 H   0  0  0  0  0  0  0  0  0  0  0  0
   -5.4795   26.1188  -30.1701 H   0  0  0  0  0  0  0  0  0  0  0  0
   -6.6054   23.1809  -33.0403 H   0  0  0  0  0  0  0  0  0  0  0  0
   -7.2689   21.4342  -32.0394 H   0  0  0  0  0  0  0  0  0  0  0  0
   -9.2787   18.6092  -33.4265 H   0  0  0  0  0  0  0  0  0  0  0  0
   -8.9590   18.7673  -30.4048 H   0  0  0  0  0  0  0  0  0  0  0  0
  -10.1070   17.7772  -31.3683 H   0  0  0  0  0  0  0  0  0  0  0  0
   -8.3560   17.3763  -31.3683 H   0  0  0  0  0  0  0  0  0  0  0  0
   -9.7533   20.6501  -31.2860 H   0  0  0  0  0  0  0  0  0  0  0  0
   -9.0647   21.2551  -32.8308 H   0  0  0  0  0  0  0  0  0  0  0  0
  -10.6237   20.3628  -32.8308 H   0  0  0  0  0  0  0  0  0  0  0  0
   -7.6776   16.7685  -33.7695 H   0  0  0  0  0  0  0  0  0  0  0  0
   -5.6716   15.6181  -34.7796 H   0  0  0  0  0  0  0  0  0  0  0  0
   -3.2309   19.0552  -34.0213 H   0  0  0  0  0  0  0  0  0  0  0  0
   -2.8592   22.7579  -30.9154 H   0  0  0  0  0  0  0  0  0  0  0  0
  1  2  1  0
  2  3  2  0
  3  4  1  0
  4  5  1  0
  5  6  2  0
  5  7  1  0
  7  8  1  0
  8  9  2  0
  9 10  1  0
 10 11  2  0
 11 12  1  0
 12 13  1  0
 13 14  2  0
 13 15  1  0
 15 16  2  0
 16 17  1  0
 17 18  1  0
 18 19  1  0
 18 20  1  0
 17 21  1  0
 21 22  2  0
 22 23  1  0
 23 24  2  0
 24 25  1  0
 25 26  2  0
 12 27  2  0
  4 28  2  0
 28 29  1  0
 29  2  1  0
 27  8  1  0
 26 15  1  0
 26 21  1  0
  1 30  1  0
  1 31  1  0
  1 32  1  0
  3 33  1  0
  7 34  1  0
  9 35  1  0
 11 36  1  0
 16 37  1  0
 18 38  1  0
 19 39  1  0
 19 40  1  0
 19 41  1  0
 20 42  1  0
 20 43  1  0
 20 44  1  0
 22 45  1  0
 23 46  1  0
 25 47  1  0
 27 48  1  0
M  END
>  <UniqueID>  (43) 
40

>  <SMILES>  (43) 
Cc1cc(C(=O)Nc2cncc(C(=O)c3cn(C(C)C)c4ccncc34)c2)no1

>  <Energy>  (43) 
121.35313406433463

>  <Genealogy>  (43) 
Cc1cc(C(=O)Nc2cncc(C(=O)c3cn(C(C)C)c4ccncc34)c2)no1 (3D coordinates assigned)
Cc1cc(C(=O)Nc2cncc(C(=O)c3cn(C(C)C)c4ccncc34)c2)no1 (optimized conformer: 121.35313406433463 kcal/mol)

>  <smiles>  (43) 
Cc1cc(C(=O)Nc2cncc(C(=O)c3cn(C(C)C)c4ccncc34)c2)no1

>  <score_type>  (43) 
oracle

>  <origin>  (43) 
adgpu

>  <m_score__min__energy>  (43) 
-10.17

>  <m_primary>  (43) 
energy

$$$$
43:0
     RDKit          3D

 42 44  0  0  0  0  0  0  0  0999 V2000
   -9.0620   21.9780  -31.3510 C   0  0  0  0  0  0  0  0  0  0  0  0
   -7.6070   22.0980  -31.5890 N   0  0  0  0  0  0  0  0  0  0  0  0
   -6.9390   23.2080  -31.1280 C   0  0  0  0  0  0  0  0  0  0  0  0
   -7.5560   24.0890  -30.4670 O   0  0  0  0  0  0  0  0  0  0  0  0
   -5.5620   23.3760  -31.3640 C   0  0  0  0  0  0  0  0  0  0  0  0
   -4.8530   24.5840  -30.8630 C   0  0  0  0  0  0  0  0  0  0  0  0
   -5.4950   25.6470  -30.6470 O   0  0  0  0  0  0  0  0  0  0  0  0
   -3.4540   24.5130  -30.5550 N   0  0  0  0  0  0  0  0  0  0  0  0
   -2.8690   24.1460  -29.2990 C   0  0  0  0  0  0  0  0  0  0  0  0
   -3.4550   24.5470  -28.0820 C   0  0  0  0  0  0  0  0  0  0  0  0
   -2.9120   24.1330  -26.8630 C   0  0  0  0  0  0  0  0  0  0  0  0
   -1.7810   23.3180  -26.8430 C   0  0  0  0  0  0  0  0  0  0  0  0
   -1.1730   22.9370  -28.0420 C   0  0  0  0  0  0  0  0  0  0  0  0
   -1.6850   23.3720  -29.2710 C   0  0  0  0  0  0  0  0  0  0  0  0
   -1.0090   22.9550  -30.4660 N   0  0  0  0  0  0  0  0  0  0  0  0
   -1.1940   21.4070  -31.2270 S   0  0  0  0  0  0  0  0  0  0  0  0
    0.1250   20.3160  -30.7340 C   0  0  0  0  0  0  0  0  0  0  0  0
   -2.4930   20.8030  -30.7790 O   0  0  0  0  0  0  0  0  0  0  0  0
   -1.2150   21.5610  -32.7220 O   0  0  0  0  0  0  0  0  0  0  0  0
   -4.8600   22.3970  -32.0840 C   0  0  0  0  0  0  0  0  0  0  0  0
   -3.5160   22.6430  -32.3900 O   0  0  0  0  0  0  0  0  0  0  0  0
   -5.5270   21.2220  -32.4980 C   0  0  0  0  0  0  0  0  0  0  0  0
   -4.8430   20.1680  -33.1460 C   0  0  0  0  0  0  0  0  0  0  0  0
   -5.5200   19.0220  -33.5570 C   0  0  0  0  0  0  0  0  0  0  0  0
   -6.8820   18.8960  -33.3260 C   0  0  0  0  0  0  0  0  0  0  0  0
   -7.5810   19.9110  -32.6760 C   0  0  0  0  0  0  0  0  0  0  0  0
   -6.9230   21.0920  -32.2450 C   0  0  0  0  0  0  0  0  0  0  0  0
   -9.2564   21.9620  -30.2684 H   0  0  0  0  0  0  0  0  0  0  0  0
   -9.5796   22.8365  -31.8038 H   0  0  0  0  0  0  0  0  0  0  0  0
   -9.4320   21.0463  -31.8038 H   0  0  0  0  0  0  0  0  0  0  0  0
   -4.3468   25.1909  -28.0917 H   0  0  0  0  0  0  0  0  0  0  0  0
   -3.3773   24.4504  -25.9181 H   0  0  0  0  0  0  0  0  0  0  0  0
   -1.3673   22.9749  -25.8833 H   0  0  0  0  0  0  0  0  0  0  0  0
   -0.2841   22.2895  -28.0205 H   0  0  0  0  0  0  0  0  0  0  0  0
    0.1753   20.2744  -29.6359 H   0  0  0  0  0  0  0  0  0  0  0  0
   -0.0654   19.3079  -31.1308 H   0  0  0  0  0  0  0  0  0  0  0  0
    1.0795   20.6920  -31.1308 H   0  0  0  0  0  0  0  0  0  0  0  0
   -2.7770   22.7680  -31.7130 H   0  0  0  0  0  0  0  0  0  0  0  0
   -3.7616   20.2540  -33.3281 H   0  0  0  0  0  0  0  0  0  0  0  0
   -4.9730   18.2148  -34.0661 H   0  0  0  0  0  0  0  0  0  0  0  0
   -7.4124   17.9911  -33.6573 H   0  0  0  0  0  0  0  0  0  0  0  0
   -8.6596   19.7950  -32.4941 H   0  0  0  0  0  0  0  0  0  0  0  0
  1  2  1  0
  2  3  1  0
  3  4  2  0
  3  5  1  0
  5  6  1  0
  6  7  2  0
  6  8  1  0
  8  9  1  0
  9 10  2  0
 10 11  1  0
 11 12  2  0
 12 13  1  0
 13 14  2  0
 14 15  1  0
 15 16  1  0
 16 17  1  0
 16 18  2  0
 16 19  2  0
  5 20  2  0
 20 21  1  0
 20 22  1  0
 22 23  2  0
 23 24  1  0
 24 25  2  0
 25 26  1  0
 26 27  2  0
 27  2  1  0
 14  9  1  0
 27 22  1  0
  1 28  1  0
  1 29  1  0
  1 30  1  0
 10 31  1  0
 11 32  1  0
 12 33  1  0
 13 34  1  0
 17 35  1  0
 17 36  1  0
 17 37  1  0
 21 38  1  0
 23 39  1  0
 24 40  1  0
 25 41  1  0
 26 42  1  0
M  CHG  2   8  -1  15  -1
M  END
>  <UniqueID>  (44) 
41

>  <SMILES>  (44) 
Cn1c(=O)c(C(=O)[N-]c2ccccc2[N-]S(C)(=O)=O)c(O)c2ccccc21

>  <Energy>  (44) 
70.31444049738457

>  <Genealogy>  (44) 
Cn1c(=O)c(C(=O)[N-]c2ccccc2[N-]S(C)(=O)=O)c(O)c2ccccc21 (protonated)
Cn1c(=O)c(C(=O)[N-]c2ccccc2[N-]S(C)(=O)=O)c(O)c2ccccc21 (3D coordinates assigned)
Cn1c(=O)c(C(=O)[N-]c2ccccc2[N-]S(C)(=O)=O)c(O)c2ccccc21 (optimized conformer: 70.31444049738457 kcal/mol)

>  <smiles>  (44) 
Cn1c(=O)c(C(=O)Nc2ccccc2NS(C)(=O)=O)c(O)c2ccccc21

>  <score_type>  (44) 
oracle

>  <origin>  (44) 
adgpu

>  <m_score__min__energy>  (44) 
-11.76

>  <m_primary>  (44) 
energy

$$$$
44:0
     RDKit          3D

 36 37  0  0  0  0  0  0  0  0999 V2000
   -1.9180   23.3240  -27.8630 C   0  0  0  0  0  0  0  0  0  0  0  0
   -1.6690   24.5470  -28.6940 C   0  0  0  0  0  0  0  0  0  0  0  0
   -0.4860   24.9440  -28.8550 O   0  0  0  0  0  0  0  0  0  0  0  0
   -2.7340   25.2530  -29.3460 N   0  0  0  0  0  0  0  0  0  0  0  0
   -3.7810   24.6790  -30.1400 C   0  0  0  0  0  0  0  0  0  0  0  0
   -3.6200   23.4470  -30.7920 C   0  0  0  0  0  0  0  0  0  0  0  0
   -4.6670   22.9020  -31.5410 C   0  0  0  0  0  0  0  0  0  0  0  0
   -5.8970   23.5770  -31.6410 C   0  0  0  0  0  0  0  0  0  0  0  0
   -6.9900   23.0540  -32.4180 N   0  0  0  0  0  0  0  0  0  0  0  0
   -8.1080   21.8650  -31.8300 S   0  0  0  0  0  0  0  0  0  0  0  0
   -9.4780   22.1610  -32.3710 O   0  0  0  0  0  0  0  0  0  0  0  0
   -8.1500   21.9310  -30.3280 O   0  0  0  0  0  0  0  0  0  0  0  0
   -7.6210   20.2610  -32.3710 C   0  0  0  0  0  0  0  0  0  0  0  0
   -8.2900   19.1290  -31.8860 C   0  0  0  0  0  0  0  0  0  0  0  0
   -7.9250   17.8530  -32.3260 C   0  0  0  0  0  0  0  0  0  0  0  0
   -6.8750   17.6960  -33.2420 C   0  0  0  0  0  0  0  0  0  0  0  0
   -6.5100   16.3310  -33.7470 C   0  0  0  0  0  0  0  0  0  0  0  0
   -6.2120   18.8320  -33.7340 C   0  0  0  0  0  0  0  0  0  0  0  0
   -6.5800   20.1070  -33.2950 C   0  0  0  0  0  0  0  0  0  0  0  0
   -6.0660   24.7870  -30.9510 C   0  0  0  0  0  0  0  0  0  0  0  0
   -5.0180   25.3300  -30.2010 C   0  0  0  0  0  0  0  0  0  0  0  0
   -1.8642   23.5881  -26.7965 H   0  0  0  0  0  0  0  0  0  0  0  0
   -2.9163   22.9225  -28.0914 H   0  0  0  0  0  0  0  0  0  0  0  0
   -1.1561   22.5641  -28.0914 H   0  0  0  0  0  0  0  0  0  0  0  0
   -2.6648   22.9071  -30.7133 H   0  0  0  0  0  0  0  0  0  0  0  0
   -4.5281   21.9396  -32.0552 H   0  0  0  0  0  0  0  0  0  0  0  0
   -7.0670   23.3170  -33.4260 H   0  0  0  0  0  0  0  0  0  0  0  0
   -9.1052   19.2448  -31.1566 H   0  0  0  0  0  0  0  0  0  0  0  0
   -8.4633   16.9695  -31.9524 H   0  0  0  0  0  0  0  0  0  0  0  0
   -6.3306   15.6603  -32.8938 H   0  0  0  0  0  0  0  0  0  0  0  0
   -7.3336   15.9340  -34.3587 H   0  0  0  0  0  0  0  0  0  0  0  0
   -5.5982   16.3980  -34.3587 H   0  0  0  0  0  0  0  0  0  0  0  0
   -5.4002   18.7180  -34.4675 H   0  0  0  0  0  0  0  0  0  0  0  0
   -6.0502   20.9923  -33.6765 H   0  0  0  0  0  0  0  0  0  0  0  0
   -7.0309   25.3129  -31.0004 H   0  0  0  0  0  0  0  0  0  0  0  0
   -5.1669   26.2739  -29.6561 H   0  0  0  0  0  0  0  0  0  0  0  0
  1  2  1  0
  2  3  2  0
  2  4  1  0
  4  5  1  0
  5  6  2  0
  6  7  1  0
  7  8  2  0
  8  9  1  0
  9 10  1  0
 10 11  2  0
 10 12  2  0
 10 13  1  0
 13 14  2  0
 14 15  1  0
 15 16  2  0
 16 17  1  0
 16 18  1  0
 18 19  2  0
  8 20  1  0
 20 21  2  0
 21  5  1  0
 19 13  1  0
  1 22  1  0
  1 23  1  0
  1 24  1  0
  6 25  1  0
  7 26  1  0
  9 27  1  0
 14 28  1  0
 15 29  1  0
 17 30  1  0
 17 31  1  0
 17 32  1  0
 18 33  1  0
 19 34  1  0
 20 35  1  0
 21 36  1  0
M  CHG  1   4  -1
M  END
>  <UniqueID>  (45) 
42

>  <SMILES>  (45) 
CC(=O)[N-]c1ccc(NS(=O)(=O)c2ccc(C)cc2)cc1

>  <Energy>  (45) 
41.16742082856717

>  <Genealogy>  (45) 
CC(=O)[N-]c1ccc(NS(=O)(=O)c2ccc(C)cc2)cc1 (protonated)
CC(=O)[N-]c1ccc(NS(=O)(=O)c2ccc(C)cc2)cc1 (3D coordinates assigned)
CC(=O)[N-]c1ccc(NS(=O)(=O)c2ccc(C)cc2)cc1 (optimized conformer: 41.16742082856717 kcal/mol)

>  <smiles>  (45) 
CC(=O)Nc1ccc(NS(=O)(=O)c2ccc(C)cc2)cc1

>  <score_type>  (45) 
oracle

>  <origin>  (45) 
adgpu

>  <m_score__min__energy>  (45) 
-10.66

>  <m_primary>  (45) 
energy

$$$$
45:0
     RDKit          3D

 50 53  0  0  0  0  0  0  0  0999 V2000
   -1.6160   21.4070  -31.8860 O   0  0  0  0  0  0  0  0  0  0  0  0
   -2.7210   21.7360  -31.3800 C   0  0  0  0  0  0  0  0  0  0  0  0
   -3.2350   20.9770  -30.1870 C   0  0  0  0  0  0  0  0  0  0  0  0
   -2.4090   21.3160  -28.9830 C   0  0  0  0  0  0  0  0  0  0  0  0
   -2.1180   20.4710  -27.9160 C   0  0  0  0  0  0  0  0  0  0  0  0
   -1.4200   21.1340  -26.9650 N   0  0  0  0  0  0  0  0  0  0  0  0
   -1.2790   22.3920  -27.4180 C   0  0  0  0  0  0  0  0  0  0  0  0
   -0.6390   23.4540  -26.7820 C   0  0  0  0  0  0  0  0  0  0  0  0
   -0.6240   24.6990  -27.4370 C   0  0  0  0  0  0  0  0  0  0  0  0
   -1.2470   24.8570  -28.6940 C   0  0  0  0  0  0  0  0  0  0  0  0
   -1.2300   26.0950  -29.3270 O   0  0  0  0  0  0  0  0  0  0  0  0
   -1.8880   23.7690  -29.3100 C   0  0  0  0  0  0  0  0  0  0  0  0
   -1.8770   22.5440  -28.6420 C   0  0  0  0  0  0  0  0  0  0  0  0
   -3.3900   22.9010  -31.8740 N   0  0  0  0  0  0  0  0  0  0  0  0
   -4.6960   23.3420  -31.4800 C   0  0  0  0  0  0  0  0  0  0  0  0
   -5.7820   22.4720  -31.6430 C   0  0  0  0  0  0  0  0  0  0  0  0
   -7.0700   22.8610  -31.2470 C   0  0  0  0  0  0  0  0  0  0  0  0
   -8.4370   21.7630  -31.4300 S   0  0  0  0  0  0  0  0  0  0  0  0
   -9.4570   22.3590  -32.3630 O   0  0  0  0  0  0  0  0  0  0  0  0
   -9.0770   21.5650  -30.0830 O   0  0  0  0  0  0  0  0  0  0  0  0
   -7.8870   20.2260  -32.0510 N   0  0  0  0  0  0  0  0  0  0  0  0
   -6.8110   19.6890  -31.1870 C   0  0  0  0  0  0  0  0  0  0  0  0
   -6.0010   18.6060  -31.9060 C   0  0  0  0  0  0  0  0  0  0  0  0
   -5.3000   19.1740  -33.1530 C   0  0  0  0  0  0  0  0  0  0  0  0
   -6.0180   20.4050  -33.7320 C   0  0  0  0  0  0  0  0  0  0  0  0
   -7.5320   20.3280  -33.4890 C   0  0  0  0  0  0  0  0  0  0  0  0
   -7.2640   24.1190  -30.6610 C   0  0  0  0  0  0  0  0  0  0  0  0
   -6.1810   24.9770  -30.4650 C   0  0  0  0  0  0  0  0  0  0  0  0
   -4.8950   24.5900  -30.8570 C   0  0  0  0  0  0  0  0  0  0  0  0
   -3.8220   25.4370  -30.6000 O   0  0  0  0  0  0  0  0  0  0  0  0
   -4.2836   21.2528  -30.0013 H   0  0  0  0  0  0  0  0  0  0  0  0
   -3.1684   19.8969  -30.3841 H   0  0  0  0  0  0  0  0  0  0  0  0
   -2.4137   19.4133  -27.8544 H   0  0  0  0  0  0  0  0  0  0  0  0
   -1.0730   20.7450  -26.0580 H   0  0  0  0  0  0  0  0  0  0  0  0
   -0.1611   23.3231  -25.7999 H   0  0  0  0  0  0  0  0  0  0  0  0
   -0.1224   25.5570  -26.9655 H   0  0  0  0  0  0  0  0  0  0  0  0
   -2.3822   23.8793  -30.2866 H   0  0  0  0  0  0  0  0  0  0  0  0
   -5.6234   21.4771  -32.0846 H   0  0  0  0  0  0  0  0  0  0  0  0
   -6.1367   20.5106  -30.9037 H   0  0  0  0  0  0  0  0  0  0  0  0
   -7.2754   19.2388  -30.2973 H   0  0  0  0  0  0  0  0  0  0  0  0
   -5.2415   18.2085  -31.2167 H   0  0  0  0  0  0  0  0  0  0  0  0
   -6.6890   17.8091  -32.2247 H   0  0  0  0  0  0  0  0  0  0  0  0
   -4.2744   19.4620  -32.8790 H   0  0  0  0  0  0  0  0  0  0  0  0
   -5.3115   18.3905  -33.9250 H   0  0  0  0  0  0  0  0  0  0  0  0
   -5.6225   21.3112  -33.2498 H   0  0  0  0  0  0  0  0  0  0  0  0
   -5.8398   20.4347  -34.8171 H   0  0  0  0  0  0  0  0  0  0  0  0
   -7.9992   21.2344  -33.9014 H   0  0  0  0  0  0  0  0  0  0  0  0
   -7.8972   19.4152  -33.9824 H   0  0  0  0  0  0  0  0  0  0  0  0
   -8.2732   24.4312  -30.3545 H   0  0  0  0  0  0  0  0  0  0  0  0
   -6.3391   25.9615  -30.0005 H   0  0  0  0  0  0  0  0  0  0  0  0
  1  2  2  0
  2  3  1  0
  3  4  1  0
  4  5  2  0
  5  6  1  0
  6  7  1  0
  7  8  2  0
  8  9  1  0
  9 10  2  0
 10 11  1  0
 10 12  1  0
 12 13  2  0
  2 14  1  0
 14 15  1  0
 15 16  2  0
 16 17  1  0
 17 18  1  0
 18 19  2  0
 18 20  2  0
 18 21  1  0
 21 22  1  0
 22 23  1  0
 23 24  1  0
 24 25  1  0
 25 26  1  0
 17 27  2  0
 27 28  1  0
 28 29  2  0
 29 30  1  0
 13  4  1  0
 29 15  1  0
 13  7  1  0
 26 21  1  0
  3 31  1  0
  3 32  1  0
  5 33  1  0
  6 34  1  0
  8 35  1  0
  9 36  1  0
 12 37  1  0
 16 38  1  0
 22 39  1  0
 22 40  1  0
 23 41  1  0
 23 42  1  0
 24 43  1  0
 24 44  1  0
 25 45  1  0
 25 46  1  0
 26 47  1  0
 26 48  1  0
 27 49  1  0
 28 50  1  0
M  CHG  3  11  -1  14  -1  30  -1
M  END
>  <UniqueID>  (46) 
43

>  <SMILES>  (46) 
O=C(Cc1c[nH]c2ccc([O-])cc12)[N-]c1cc(S(=O)(=O)N2CCCCC2)ccc1[O-]

>  <Energy>  (46) 
95.93154649123683

>  <Genealogy>  (46) 
O=C(Cc1c[nH]c2ccc([O-])cc12)[N-]c1cc(S(=O)(=O)N2CCCCC2)ccc1[O-] (protonated)
O=C(Cc1c[nH]c2ccc([O-])cc12)[N-]c1cc(S(=O)(=O)N2CCCCC2)ccc1[O-] (3D coordinates assigned)
O=C(Cc1c[nH]c2ccc([O-])cc12)[N-]c1cc(S(=O)(=O)N2CCCCC2)ccc1[O-] (nonaromatic ring conformer: 95.93154649123683 kcal/mol)

>  <smiles>  (46) 
O=C(Cc1c[nH]c2ccc(O)cc12)Nc1cc(S(=O)(=O)N2CCCCC2)ccc1O

>  <score_type>  (46) 
oracle

>  <origin>  (46) 
adgpu

>  <m_score__min__energy>  (46) 
-16.260000000000002

>  <m_primary>  (46) 
energy

$$$$
46:0
     RDKit          3D

 60 64  0  0  0  0  0  0  0  0999 V2000
   -3.7732   24.4432  -31.0307 H   0  0  0  0  0  0  0  0  0  0  0  0
   -3.6170   24.1540  -29.9810 C   0  0  0  0  0  0  0  0  0  0  0  0
   -2.4440   24.5380  -29.3190 C   0  0  0  0  0  0  0  0  0  0  0  0
   -1.6955   25.1526  -29.8406 H   0  0  0  0  0  0  0  0  0  0  0  0
   -2.2220   24.1410  -27.9940 C   0  0  0  0  0  0  0  0  0  0  0  0
   -0.7200   24.5730  -27.1820 S   0  0  0  0  0  0  0  0  0  0  0  0
   -0.1070   23.3330  -26.5780 O   0  0  0  0  0  0  0  0  0  0  0  0
    0.2430   25.1280  -28.1980 O   0  0  0  0  0  0  0  0  0  0  0  0
   -1.0160   25.7720  -25.9450 N   0  0  0  0  0  0  0  0  0  0  0  0
   -0.5640   25.2750  -24.6280 C   0  0  0  0  0  0  0  0  0  0  0  0
   -1.3135   24.5740  -24.2319 H   0  0  0  0  0  0  0  0  0  0  0  0
    0.4052   24.7714  -24.7583 H   0  0  0  0  0  0  0  0  0  0  0  0
   -0.3830   26.4340  -23.6310 C   0  0  0  0  0  0  0  0  0  0  0  0
   -0.7111   26.1073  -22.6332 H   0  0  0  0  0  0  0  0  0  0  0  0
    0.6791   26.7194  -23.6074 H   0  0  0  0  0  0  0  0  0  0  0  0
   -1.1500   27.5580  -24.0290 O   0  0  0  0  0  0  0  0  0  0  0  0
   -0.6200   28.1000  -25.2330 C   0  0  0  0  0  0  0  0  0  0  0  0
   -1.3495   28.8100  -25.6499 H   0  0  0  0  0  0  0  0  0  0  0  0
    0.3318   28.5920  -24.9840 H   0  0  0  0  0  0  0  0  0  0  0  0
   -0.3210   27.0190  -26.2950 C   0  0  0  0  0  0  0  0  0  0  0  0
   -0.6689   27.3673  -27.2787 H   0  0  0  0  0  0  0  0  0  0  0  0
    0.7627   26.8336  -26.3296 H   0  0  0  0  0  0  0  0  0  0  0  0
   -3.1870   23.3710  -27.3310 C   0  0  0  0  0  0  0  0  0  0  0  0
   -3.0205   23.0634  -26.2881 H   0  0  0  0  0  0  0  0  0  0  0  0
   -4.3610   22.9920  -27.9900 C   0  0  0  0  0  0  0  0  0  0  0  0
   -5.1043   22.3699  -27.4698 H   0  0  0  0  0  0  0  0  0  0  0  0
   -4.5950   23.4010  -29.3100 C   0  0  0  0  0  0  0  0  0  0  0  0
   -5.7600   22.9140  -29.9950 N   0  0  0  0  0  0  0  0  0  0  0  0
   -5.8140   22.0500  -30.9740 C   0  0  0  0  0  0  0  0  0  0  0  0
   -7.0670   21.5920  -31.4300 C   0  0  0  0  0  0  0  0  0  0  0  0
   -8.2710   22.0430  -30.8470 C   0  0  0  0  0  0  0  0  0  0  0  0
   -8.2394   22.7808  -30.0317 H   0  0  0  0  0  0  0  0  0  0  0  0
   -9.5000   21.5610  -31.2960 C   0  0  0  0  0  0  0  0  0  0  0  0
  -10.4323   21.9223  -30.8374 H   0  0  0  0  0  0  0  0  0  0  0  0
   -9.5490   20.6230  -32.3240 C   0  0  0  0  0  0  0  0  0  0  0  0
  -10.5205   20.2439  -32.6740 H   0  0  0  0  0  0  0  0  0  0  0  0
   -8.3700   20.1620  -32.9120 C   0  0  0  0  0  0  0  0  0  0  0  0
   -8.4190   19.4152  -33.7181 H   0  0  0  0  0  0  0  0  0  0  0  0
   -7.1160   20.6450  -32.4820 C   0  0  0  0  0  0  0  0  0  0  0  0
   -5.9010   20.2140  -33.0610 C   0  0  0  0  0  0  0  0  0  0  0  0
   -5.8290   19.2490  -34.2190 C   0  0  0  0  0  0  0  0  0  0  0  0
   -5.1952   19.6805  -35.0078 H   0  0  0  0  0  0  0  0  0  0  0  0
   -6.8484   19.0762  -34.5945 H   0  0  0  0  0  0  0  0  0  0  0  0
   -5.2630   17.9650  -33.7990 N   0  0  0  0  0  0  0  0  0  0  0  0
   -4.1830   17.4300  -34.3520 N   0  0  0  0  0  0  0  0  0  0  0  0
   -3.9390   16.2640  -33.7230 C   0  0  0  0  0  0  0  0  0  0  0  0
   -2.7530   15.4040  -33.9920 C   0  0  0  0  0  0  0  0  0  0  0  0
   -2.3094   15.0823  -33.0382 H   0  0  0  0  0  0  0  0  0  0  0  0
   -3.0641   14.5202  -34.5682 H   0  0  0  0  0  0  0  0  0  0  0  0
   -2.0096   15.9744  -34.5682 H   0  0  0  0  0  0  0  0  0  0  0  0
   -4.8780   16.0560  -32.7270 C   0  0  0  0  0  0  0  0  0  0  0  0
   -4.9406   15.2134  -32.0226 H   0  0  0  0  0  0  0  0  0  0  0  0
   -5.7170   17.1470  -32.8200 C   0  0  0  0  0  0  0  0  0  0  0  0
   -6.8800   17.4260  -31.9120 C   0  0  0  0  0  0  0  0  0  0  0  0
   -6.5542   17.3478  -30.8643 H   0  0  0  0  0  0  0  0  0  0  0  0
   -7.2594   18.4406  -32.1033 H   0  0  0  0  0  0  0  0  0  0  0  0
   -7.6784   16.6939  -32.1033 H   0  0  0  0  0  0  0  0  0  0  0  0
   -4.7330   20.7230  -32.5920 N   0  0  0  0  0  0  0  0  0  0  0  0
   -4.6810   21.6020  -31.5930 N   0  0  0  0  0  0  0  0  0  0  0  0
   -3.7400   21.9670  -31.3330 H   0  0  0  0  0  0  0  0  0  0  0  0
  1  2  1  0
  2  3  2  0
  3  4  1  0
  3  5  1  0
  5  6  1  0
  6  7  2  0
  6  8  2  0
  6  9  1  0
  9 10  1  0
 10 11  1  0
 10 12  1  0
 10 13  1  0
 13 14  1  0
 13 15  1  0
 13 16  1  0
 16 17  1  0
 17 18  1  0
 17 19  1  0
 17 20  1  0
 20 21  1  0
 20 22  1  0
  5 23  2  0
 23 24  1  0
 23 25  1  0
 25 26  1  0
 25 27  2  0
 27 28  1  0
 28 29  2  0
 29 30  1  0
 30 31  2  0
 31 32  1  0
 31 33  1  0
 33 34  1  0
 33 35  2  0
 35 36  1  0
 35 37  1  0
 37 38  1  0
 37 39  2  0
 39 40  1  0
 40 41  1  0
 41 42  1  0
 41 43  1  0
 41 44  1  0
 44 45  1  0
 45 46  2  0
 46 47  1  0
 47 48  1  0
 47 49  1  0
 47 50  1  0
 46 51  1  0
 51 52  1  0
 51 53  2  0
 53 54  1  0
 54 55  1  0
 54 56  1  0
 54 57  1  0
 40 58  2  0
 58 59  1  0
 59 60  1  0
 27  2  1  0
 59 29  1  0
 20  9  1  0
 39 30  1  0
 53 44  1  0
M  END
>  <UniqueID>  (47) 
44

>  <SMILES>  (47) 
Cc1cc(C)n(Cc2n[nH]/c(=N\c3ccc(S(=O)(=O)N4CCOCC4)cc3)c3ccccc23)n1

>  <Energy>  (47) 
114.95547348532358

>  <Genealogy>  (47) 
Cc1cc(C)n(Cc2n[nH]/c(=N\c3ccc(S(=O)(=O)N4CCOCC4)cc3)c3ccccc23)n1 (cis-trans isomerization)
Cc1cc(C)n(Cc2n[nH]/c(=N\c3ccc(S(=O)(=O)N4CCOCC4)cc3)c3ccccc23)n1 (3D coordinates assigned)
Cc1cc(C)n(Cc2n[nH]/c(=N\c3ccc(S(=O)(=O)N4CCOCC4)cc3)c3ccccc23)n1 (nonaromatic ring conformer: 114.95547348532358 kcal/mol)

>  <smiles>  (47) 
Cc1cc(C)n(Cc2n[nH]c(=Nc3ccc(S(=O)(=O)N4CCOCC4)cc3)c3ccccc23)n1

>  <score_type>  (47) 
oracle

>  <origin>  (47) 
adgpu

>  <m_score__min__energy>  (47) 
-10.32

>  <m_primary>  (47) 
energy

$$$$
