0:0
     RDKit          3D

 50 53  0  0  0  0  0  0  0  0999 V2000
    3.2790   26.0480  -36.6720 C   0  0  0  0  0  0  0  0  0  0  0  0
    3.1450   24.7080  -37.1350 O   0  0  0  0  0  0  0  0  0  0  0  0
    2.4240   23.7080  -36.4660 C   0  0  0  0  0  0  0  0  0  0  0  0
    3.0500   22.6040  -35.8600 C   0  0  0  0  0  0  0  0  0  0  0  0
    2.2860   21.6350  -35.2020 C   0  0  0  0  0  0  0  0  0  0  0  0
    0.8870   21.7490  -35.1420 C   0  0  0  0  0  0  0  0  0  0  0  0
    0.1030   20.7590  -34.4510 N   0  0  0  0  0  0  0  0  0  0  0  0
   -0.2400   19.5000  -35.1300 C   0  0  0  0  0  0  0  0  0  0  0  0
   -1.2360   18.6630  -34.3160 C   0  0  0  0  0  0  0  0  0  0  0  0
   -2.2940   19.5180  -33.7530 N   0  0  0  0  0  0  0  0  0  0  0  0
   -3.6670   19.0830  -33.7110 C   0  0  0  0  0  0  0  0  0  0  0  0
   -4.6690   19.8460  -33.2200 N   0  0  0  0  0  0  0  0  0  0  0  0
   -5.8800   19.2210  -33.2710 C   0  0  0  0  0  0  0  0  0  0  0  0
   -7.1130   19.8920  -32.7780 C   0  0  0  0  0  0  0  0  0  0  0  0
   -8.3140   19.1630  -32.6930 C   0  0  0  0  0  0  0  0  0  0  0  0
   -9.4850   19.7720  -32.2360 C   0  0  0  0  0  0  0  0  0  0  0  0
   -9.4780   21.1140  -31.8580 C   0  0  0  0  0  0  0  0  0  0  0  0
   -8.2920   21.8650  -31.9400 C   0  0  0  0  0  0  0  0  0  0  0  0
   -8.2340   23.2190  -31.5750 O   0  0  0  0  0  0  0  0  0  0  0  0
   -7.1450   23.8200  -30.8820 C   0  0  0  0  0  0  0  0  0  0  0  0
   -7.1200   21.2500  -32.3980 C   0  0  0  0  0  0  0  0  0  0  0  0
   -5.8360   17.9320  -33.8160 C   0  0  0  0  0  0  0  0  0  0  0  0
   -4.2440   17.5890  -34.2290 S   0  0  0  0  0  0  0  0  0  0  0  0
   -1.9420   20.7940  -33.1080 C   0  0  0  0  0  0  0  0  0  0  0  0
   -0.4310   21.0280  -33.1110 C   0  0  0  0  0  0  0  0  0  0  0  0
    0.2670   22.8550  -35.7440 C   0  0  0  0  0  0  0  0  0  0  0  0
    1.0310   23.8220  -36.4020 C   0  0  0  0  0  0  0  0  0  0  0  0
    3.2800   26.0575  -35.5720 H   0  0  0  0  0  0  0  0  0  0  0  0
    4.2240   26.4714  -37.0432 H   0  0  0  0  0  0  0  0  0  0  0  0
    2.4366   26.6502  -37.0432 H   0  0  0  0  0  0  0  0  0  0  0  0
    4.1444   22.5024  -35.9038 H   0  0  0  0  0  0  0  0  0  0  0  0
    2.7844   20.7767  -34.7276 H   0  0  0  0  0  0  0  0  0  0  0  0
   -0.6874   19.7336  -36.1074 H   0  0  0  0  0  0  0  0  0  0  0  0
    0.6831   18.9132  -35.2461 H   0  0  0  0  0  0  0  0  0  0  0  0
   -1.6930   17.9069  -34.9713 H   0  0  0  0  0  0  0  0  0  0  0  0
   -0.6973   18.1757  -33.4900 H   0  0  0  0  0  0  0  0  0  0  0  0
   -8.3306   18.1038  -32.9892 H   0  0  0  0  0  0  0  0  0  0  0  0
  -10.4166   19.1904  -32.1741 H   0  0  0  0  0  0  0  0  0  0  0  0
  -10.4025   21.5865  -31.4947 H   0  0  0  0  0  0  0  0  0  0  0  0
   -7.3065   23.7309  -29.7976 H   0  0  0  0  0  0  0  0  0  0  0  0
   -6.2096   23.3104  -31.1565 H   0  0  0  0  0  0  0  0  0  0  0  0
   -7.0776   24.8831  -31.1565 H   0  0  0  0  0  0  0  0  0  0  0  0
   -6.1908   21.8352  -32.4623 H   0  0  0  0  0  0  0  0  0  0  0  0
   -6.6960   17.2595  -33.9506 H   0  0  0  0  0  0  0  0  0  0  0  0
   -2.4316   21.6157  -33.6513 H   0  0  0  0  0  0  0  0  0  0  0  0
   -2.2824   20.7566  -32.0627 H   0  0  0  0  0  0  0  0  0  0  0  0
   -0.2211   22.0720  -32.8354 H   0  0  0  0  0  0  0  0  0  0  0  0
    0.0458   20.3539  -32.3842 H   0  0  0  0  0  0  0  0  0  0  0  0
   -0.8269   22.9610  -35.6974 H   0  0  0  0  0  0  0  0  0  0  0  0
    0.5325   24.6813  -36.8743 H   0  0  0  0  0  0  0  0  0  0  0  0
  1  2  1  0
  2  3  1  0
  3  4  2  0
  4  5  1  0
  5  6  2  0
  6  7  1  0
  7  8  1  0
  8  9  1  0
  9 10  1  0
 10 11  1  0
 11 12  2  0
 12 13  1  0
 13 14  1  0
 14 15  2  0
 15 16  1  0
 16 17  2  0
 17 18  1  0
 18 19  1  0
 19 20  1  0
 18 21  2  0
 13 22  2  0
 22 23  1  0
 10 24  1  0
 24 25  1  0
  6 26  1  0
 26 27  2  0
 27  3  1  0
 25  7  1  0
 23 11  1  0
 21 14  1  0
  1 28  1  0
  1 29  1  0
  1 30  1  0
  4 31  1  0
  5 32  1  0
  8 33  1  0
  8 34  1  0
  9 35  1  0
  9 36  1  0
 15 37  1  0
 16 38  1  0
 17 39  1  0
 20 40  1  0
 20 41  1  0
 20 42  1  0
 21 43  1  0
 22 44  1  0
 24 45  1  0
 24 46  1  0
 25 47  1  0
 25 48  1  0
 26 49  1  0
 27 50  1  0
M  END
>  <UniqueID>  (1) 
1

>  <SMILES>  (1) 
COc1ccc(N2CCN(c3nc(-c4cccc(OC)c4)cs3)CC2)cc1

>  <Energy>  (1) 
88.95780034152229

>  <Genealogy>  (1) 
COc1ccc(N2CCN(c3nc(-c4cccc(OC)c4)cs3)CC2)cc1 (3D coordinates assigned)
COc1ccc(N2CCN(c3nc(-c4cccc(OC)c4)cs3)CC2)cc1 (nonaromatic ring conformer: 88.95780034152229 kcal/mol)

>  <smiles>  (1) 
COc1ccc(N2CCN(c3nc(-c4cccc(OC)c4)cs3)CC2)cc1

>  <score_type>  (1) 
oracle

>  <origin>  (1) 
adgpu

>  <m_score__min__energy>  (1) 
-8.1699999999999999

>  <m_primary>  (1) 
energy

$$$$
1:0
     RDKit          3D

 45 47  0  0  0  0  0  0  0  0999 V2000
   -0.4960   21.1720  -29.2640 C   0  0  0  0  0  0  0  0  0  0  0  0
   -1.3530   21.3310  -30.4790 C   0  0  0  0  0  0  0  0  0  0  0  0
   -2.4400   22.2130  -30.4680 C   0  0  0  0  0  0  0  0  0  0  0  0
   -3.2340   22.3500  -31.6100 C   0  0  0  0  0  0  0  0  0  0  0  0
   -4.3280   23.2270  -31.5720 O   0  0  0  0  0  0  0  0  0  0  0  0
   -5.6750   22.8510  -31.6900 C   0  0  0  0  0  0  0  0  0  0  0  0
   -6.7100   23.5970  -31.1000 C   0  0  0  0  0  0  0  0  0  0  0  0
   -8.0380   23.1860  -31.2380 C   0  0  0  0  0  0  0  0  0  0  0  0
   -8.3430   22.0220  -31.9450 C   0  0  0  0  0  0  0  0  0  0  0  0
   -7.3150   21.2420  -32.5040 C   0  0  0  0  0  0  0  0  0  0  0  0
   -7.6040   20.0490  -33.2530 N   0  0  0  0  0  0  0  0  0  0  0  0
   -6.7960   18.8590  -33.2290 C   0  0  0  0  0  0  0  0  0  0  0  0
   -6.0780   18.4930  -34.3730 C   0  0  0  0  0  0  0  0  0  0  0  0
   -5.2680   17.3560  -34.3670 C   0  0  0  0  0  0  0  0  0  0  0  0
   -5.1470   16.5700  -33.2100 C   0  0  0  0  0  0  0  0  0  0  0  0
   -4.2660   15.3500  -33.2360 C   0  0  0  0  0  0  0  0  0  0  0  0
   -5.8460   16.9490  -32.0390 C   0  0  0  0  0  0  0  0  0  0  0  0
   -5.7410   16.1940  -30.8250 N   0  0  0  0  0  0  0  0  0  0  0  0
   -6.6570   18.0940  -32.0590 C   0  0  0  0  0  0  0  0  0  0  0  0
   -5.9850   21.6730  -32.3810 C   0  0  0  0  0  0  0  0  0  0  0  0
   -2.9440   21.5720  -32.7430 C   0  0  0  0  0  0  0  0  0  0  0  0
   -1.8450   20.7030  -32.7220 C   0  0  0  0  0  0  0  0  0  0  0  0
   -1.5280   19.8550  -33.9120 C   0  0  0  0  0  0  0  0  0  0  0  0
   -1.0870   20.6000  -31.5960 N   0  0  0  0  0  0  0  0  0  0  0  0
   -1.1144   21.2867  -28.3615 H   0  0  0  0  0  0  0  0  0  0  0  0
   -0.0354   20.1731  -29.2683 H   0  0  0  0  0  0  0  0  0  0  0  0
    0.2923   21.9392  -29.2683 H   0  0  0  0  0  0  0  0  0  0  0  0
   -2.6684   22.7962  -29.5637 H   0  0  0  0  0  0  0  0  0  0  0  0
   -6.4737   24.5066  -30.5283 H   0  0  0  0  0  0  0  0  0  0  0  0
   -8.8459   23.7817  -30.7880 H   0  0  0  0  0  0  0  0  0  0  0  0
   -9.3919   21.7134  -32.0655 H   0  0  0  0  0  0  0  0  0  0  0  0
   -8.4600   20.0450  -33.8530 H   0  0  0  0  0  0  0  0  0  0  0  0
   -6.1524   19.1056  -35.2836 H   0  0  0  0  0  0  0  0  0  0  0  0
   -4.7193   17.0732  -35.2775 H   0  0  0  0  0  0  0  0  0  0  0  0
   -4.0409   15.0383  -32.2054 H   0  0  0  0  0  0  0  0  0  0  0  0
   -4.7848   14.5342  -33.7608 H   0  0  0  0  0  0  0  0  0  0  0  0
   -3.3285   15.5859  -33.7608 H   0  0  0  0  0  0  0  0  0  0  0  0
   -5.9670   16.6040  -29.8930 H   0  0  0  0  0  0  0  0  0  0  0  0
   -5.4300   15.1970  -30.8460 H   0  0  0  0  0  0  0  0  0  0  0  0
   -7.1911   18.3966  -31.1462 H   0  0  0  0  0  0  0  0  0  0  0  0
   -5.1769   21.0788  -32.8325 H   0  0  0  0  0  0  0  0  0  0  0  0
   -3.5755   21.6445  -33.6408 H   0  0  0  0  0  0  0  0  0  0  0  0
   -1.1613   18.8739  -33.5759 H   0  0  0  0  0  0  0  0  0  0  0  0
   -2.4361   19.7191  -34.5178 H   0  0  0  0  0  0  0  0  0  0  0  0
   -0.7535   20.3481  -34.5178 H   0  0  0  0  0  0  0  0  0  0  0  0
  1  2  1  0
  2  3  2  0
  3  4  1  0
  4  5  1  0
  5  6  1  0
  6  7  2  0
  7  8  1  0
  8  9  2  0
  9 10  1  0
 10 11  1  0
 11 12  1  0
 12 13  2  0
 13 14  1  0
 14 15  2  0
 15 16  1  0
 15 17  1  0
 17 18  1  0
 17 19  2  0
 10 20  2  0
  4 21  2  0
 21 22  1  0
 22 23  1  0
 22 24  2  0
 24  2  1  0
 20  6  1  0
 19 12  1  0
  1 25  1  0
  1 26  1  0
  1 27  1  0
  3 28  1  0
  7 29  1  0
  8 30  1  0
  9 31  1  0
 11 32  1  0
 13 33  1  0
 14 34  1  0
 16 35  1  0
 16 36  1  0
 16 37  1  0
 18 38  1  0
 18 39  1  0
 19 40  1  0
 20 41  1  0
 21 42  1  0
 23 43  1  0
 23 44  1  0
 23 45  1  0
M  END
>  <UniqueID>  (2) 
2

>  <SMILES>  (2) 
Cc1cc(Oc2cccc(Nc3ccc(C)c(N)c3)c2)cc(C)n1

>  <Energy>  (2) 
57.07822178668208

>  <Genealogy>  (2) 
Cc1cc(Oc2cccc(Nc3ccc(C)c(N)c3)c2)cc(C)n1 (3D coordinates assigned)
Cc1cc(Oc2cccc(Nc3ccc(C)c(N)c3)c2)cc(C)n1 (optimized conformer: 57.07822178668208 kcal/mol)

>  <smiles>  (2) 
Cc1cc(Oc2cccc(Nc3ccc(C)c(N)c3)c2)cc(C)n1

>  <score_type>  (2) 
oracle

>  <origin>  (2) 
adgpu

>  <m_score__min__energy>  (2) 
-8.5700000000000003

>  <m_primary>  (2) 
energy

$$$$
2:0
     RDKit          3D

 41 44  0  0  0  0  0  0  0  0999 V2000
   -0.4360   20.9000  -31.5650 C   0  0  0  0  0  0  0  0  0  0  0  0
    0.1600   20.9540  -30.2750 O   0  0  0  0  0  0  0  0  0  0  0  0
   -0.4220   20.3280  -29.1650 C   0  0  0  0  0  0  0  0  0  0  0  0
   -1.5270   20.9150  -28.5030 C   0  0  0  0  0  0  0  0  0  0  0  0
   -2.1610   22.1550  -29.0070 C   0  0  0  0  0  0  0  0  0  0  0  0
   -1.4930   23.3850  -28.9150 C   0  0  0  0  0  0  0  0  0  0  0  0
   -2.0900   24.5520  -29.3970 C   0  0  0  0  0  0  0  0  0  0  0  0
   -1.4090   25.7600  -29.3080 O   0  0  0  0  0  0  0  0  0  0  0  0
   -3.3650   24.5060  -29.9760 C   0  0  0  0  0  0  0  0  0  0  0  0
   -3.9190   25.6750  -30.4870 O   0  0  0  0  0  0  0  0  0  0  0  0
   -4.0580   23.2790  -30.0610 C   0  0  0  0  0  0  0  0  0  0  0  0
   -5.4120   23.1880  -30.6550 C   0  0  0  0  0  0  0  0  0  0  0  0
   -5.6700   23.6310  -31.9640 C   0  0  0  0  0  0  0  0  0  0  0  0
   -6.9660   23.5430  -32.4770 C   0  0  0  0  0  0  0  0  0  0  0  0
   -7.9930   23.0270  -31.6860 C   0  0  0  0  0  0  0  0  0  0  0  0
   -7.7080   22.6090  -30.3860 C   0  0  0  0  0  0  0  0  0  0  0  0
   -6.4390   22.7010  -29.9030 N   0  0  0  0  0  0  0  0  0  0  0  0
   -3.4380   22.1090  -29.5910 C   0  0  0  0  0  0  0  0  0  0  0  0
   -2.0570   20.2900  -27.3620 C   0  0  0  0  0  0  0  0  0  0  0  0
   -1.5270   19.0900  -26.8940 C   0  0  0  0  0  0  0  0  0  0  0  0
   -0.4540   18.4830  -27.5600 C   0  0  0  0  0  0  0  0  0  0  0  0
    0.0720   17.2680  -27.0950 C   0  0  0  0  0  0  0  0  0  0  0  0
    1.1440   16.6660  -27.7580 C   0  0  0  0  0  0  0  0  0  0  0  0
    1.6610   15.4630  -27.2930 O   0  0  0  0  0  0  0  0  0  0  0  0
    1.6980   17.2730  -28.8880 C   0  0  0  0  0  0  0  0  0  0  0  0
    1.1840   18.4830  -29.3610 C   0  0  0  0  0  0  0  0  0  0  0  0
    0.1030   19.1020  -28.7060 C   0  0  0  0  0  0  0  0  0  0  0  0
   -1.5266   20.8012  -31.4612 H   0  0  0  0  0  0  0  0  0  0  0  0
   -0.2022   21.8230  -32.1158 H   0  0  0  0  0  0  0  0  0  0  0  0
   -0.0402   20.0340  -32.1158 H   0  0  0  0  0  0  0  0  0  0  0  0
   -0.4924   23.4307  -28.4603 H   0  0  0  0  0  0  0  0  0  0  0  0
   -4.8572   24.0438  -32.5796 H   0  0  0  0  0  0  0  0  0  0  0  0
   -7.1767   23.8799  -33.5027 H   0  0  0  0  0  0  0  0  0  0  0  0
   -9.0160   22.9507  -32.0831 H   0  0  0  0  0  0  0  0  0  0  0  0
   -8.5098   22.2046  -29.7507 H   0  0  0  0  0  0  0  0  0  0  0  0
   -3.9592   21.1445  -29.6815 H   0  0  0  0  0  0  0  0  0  0  0  0
   -2.9014   20.7542  -26.8314 H   0  0  0  0  0  0  0  0  0  0  0  0
   -1.9529   18.6165  -25.9971 H   0  0  0  0  0  0  0  0  0  0  0  0
   -0.3614   16.7879  -26.2052 H   0  0  0  0  0  0  0  0  0  0  0  0
    2.5424   16.7962  -29.4074 H   0  0  0  0  0  0  0  0  0  0  0  0
    1.6268   18.9547  -30.2506 H   0  0  0  0  0  0  0  0  0  0  0  0
  1  2  1  0
  2  3  1  0
  3  4  2  0
  4  5  1  0
  5  6  2  0
  6  7  1  0
  7  8  1  0
  7  9  2  0
  9 10  1  0
  9 11  1  0
 11 12  1  0
 12 13  2  0
 13 14  1  0
 14 15  2  0
 15 16  1  0
 16 17  2  0
 11 18  2  0
  4 19  1  0
 19 20  2  0
 20 21  1  0
 21 22  2  0
 22 23  1  0
 23 24  1  0
 23 25  2  0
 25 26  1  0
 26 27  2  0
 27  3  1  0
 18  5  1  0
 27 21  1  0
 17 12  1  0
  1 28  1  0
  1 29  1  0
  1 30  1  0
  6 31  1  0
 13 32  1  0
 14 33  1  0
 15 34  1  0
 16 35  1  0
 18 36  1  0
 19 37  1  0
 20 38  1  0
 22 39  1  0
 25 40  1  0
 26 41  1  0
M  CHG  3   8  -1  10  -1  24  -1
M  END
>  <UniqueID>  (3) 
3

>  <SMILES>  (3) 
COc1c(-c2cc([O-])c([O-])c(-c3ccccn3)c2)ccc2cc([O-])ccc12

>  <Energy>  (3) 
68.5518816320211

>  <Genealogy>  (3) 
COc1c(-c2cc([O-])c([O-])c(-c3ccccn3)c2)ccc2cc([O-])ccc12 (protonated)
COc1c(-c2cc([O-])c([O-])c(-c3ccccn3)c2)ccc2cc([O-])ccc12 (3D coordinates assigned)
COc1c(-c2cc([O-])c([O-])c(-c3ccccn3)c2)ccc2cc([O-])ccc12 (optimized conformer: 68.5518816320211 kcal/mol)

>  <smiles>  (3) 
COc1c(-c2cc(O)c(O)c(-c3ccccn3)c2)ccc2cc(O)ccc12

>  <score_type>  (3) 
oracle

>  <origin>  (3) 
adgpu

>  <m_score__min__energy>  (3) 
-14.220000000000001

>  <m_primary>  (3) 
energy

$$$$
3:0
     RDKit          3D

 44 46  0  0  0  0  0  0  0  0999 V2000
   -6.4780   25.6610  -29.3090 C   0  0  0  0  0  0  0  0  0  0  0  0
   -6.2180   25.3150  -30.6660 O   0  0  0  0  0  0  0  0  0  0  0  0
   -6.1340   23.9990  -31.1540 C   0  0  0  0  0  0  0  0  0  0  0  0
   -7.2330   23.3740  -31.7730 C   0  0  0  0  0  0  0  0  0  0  0  0
   -7.1210   22.0770  -32.2690 C   0  0  0  0  0  0  0  0  0  0  0  0
   -5.9190   21.3800  -32.1490 C   0  0  0  0  0  0  0  0  0  0  0  0
   -4.8080   21.9760  -31.5260 C   0  0  0  0  0  0  0  0  0  0  0  0
   -3.6000   21.2780  -31.3570 O   0  0  0  0  0  0  0  0  0  0  0  0
   -2.6170   21.1000  -32.3730 C   0  0  0  0  0  0  0  0  0  0  0  0
   -4.9120   23.2980  -31.0350 C   0  0  0  0  0  0  0  0  0  0  0  0
   -3.7460   23.9450  -30.3860 C   0  0  0  0  0  0  0  0  0  0  0  0
   -3.5700   25.1860  -30.5230 O   0  0  0  0  0  0  0  0  0  0  0  0
   -2.8010   23.1570  -29.6430 N   0  0  0  0  0  0  0  0  0  0  0  0
   -1.8490   23.7020  -28.7130 C   0  0  0  0  0  0  0  0  0  0  0  0
   -0.1690   23.7170  -28.9070 S   0  0  0  0  0  0  0  0  0  0  0  0
    0.1480   24.5320  -27.4720 C   0  0  0  0  0  0  0  0  0  0  0  0
   -1.0470   24.8480  -26.8450 C   0  0  0  0  0  0  0  0  0  0  0  0
   -2.1750   24.3670  -27.5310 C   0  0  0  0  0  0  0  0  0  0  0  0
   -3.5260   24.5440  -27.0610 C   0  0  0  0  0  0  0  0  0  0  0  0
   -4.6110   24.6870  -26.6840 N   0  0  0  0  0  0  0  0  0  0  0  0
   -1.0690   25.5580  -25.5210 C   0  0  0  0  0  0  0  0  0  0  0  0
    0.2910   26.2270  -25.2260 C   0  0  0  0  0  0  0  0  0  0  0  0
    1.4490   25.3600  -25.5500 N   0  0  0  0  0  0  0  0  0  0  0  0
    1.5170   24.1720  -24.6800 C   0  0  0  0  0  0  0  0  0  0  0  0
    1.4870   24.9930  -26.9840 C   0  0  0  0  0  0  0  0  0  0  0  0
   -5.9514   24.9602  -28.6445 H   0  0  0  0  0  0  0  0  0  0  0  0
   -6.1237   26.6846  -29.1172 H   0  0  0  0  0  0  0  0  0  0  0  0
   -7.5597   25.6055  -29.1172 H   0  0  0  0  0  0  0  0  0  0  0  0
   -8.1871   23.9136  -31.8657 H   0  0  0  0  0  0  0  0  0  0  0  0
   -7.9840   21.6008  -32.7572 H   0  0  0  0  0  0  0  0  0  0  0  0
   -5.8394   20.3567  -32.5445 H   0  0  0  0  0  0  0  0  0  0  0  0
   -1.6364   20.9224  -31.9073 H   0  0  0  0  0  0  0  0  0  0  0  0
   -2.8879   20.2363  -32.9980 H   0  0  0  0  0  0  0  0  0  0  0  0
   -2.5678   22.0038  -32.9980 H   0  0  0  0  0  0  0  0  0  0  0  0
   -2.8040   22.1240  -29.7960 H   0  0  0  0  0  0  0  0  0  0  0  0
   -1.8524   26.3300  -25.5404 H   0  0  0  0  0  0  0  0  0  0  0  0
   -1.2733   24.8193  -24.7319 H   0  0  0  0  0  0  0  0  0  0  0  0
    0.3651   27.1475  -25.8236 H   0  0  0  0  0  0  0  0  0  0  0  0
    0.3276   26.4324  -24.1460 H   0  0  0  0  0  0  0  0  0  0  0  0
    1.4989   24.4876  -23.6264 H   0  0  0  0  0  0  0  0  0  0  0  0
    0.6547   23.5196  -24.8822 H   0  0  0  0  0  0  0  0  0  0  0  0
    2.4481   23.6223  -24.8822 H   0  0  0  0  0  0  0  0  0  0  0  0
    1.7968   25.8715  -27.5690 H   0  0  0  0  0  0  0  0  0  0  0  0
    2.2014   24.1658  -27.1081 H   0  0  0  0  0  0  0  0  0  0  0  0
  1  2  1  0
  2  3  1  0
  3  4  2  0
  4  5  1  0
  5  6  2  0
  6  7  1  0
  7  8  1  0
  8  9  1  0
  7 10  2  0
 10 11  1  0
 11 12  2  0
 11 13  1  0
 13 14  1  0
 14 15  1  0
 15 16  1  0
 16 17  2  0
 17 18  1  0
 18 19  1  0
 19 20  3  0
 17 21  1  0
 21 22  1  0
 22 23  1  0
 23 24  1  0
 23 25  1  0
 10  3  1  0
 18 14  2  0
 25 16  1  0
  1 26  1  0
  1 27  1  0
  1 28  1  0
  4 29  1  0
  5 30  1  0
  6 31  1  0
  9 32  1  0
  9 33  1  0
  9 34  1  0
 13 35  1  0
 21 36  1  0
 21 37  1  0
 22 38  1  0
 22 39  1  0
 24 40  1  0
 24 41  1  0
 24 42  1  0
 25 43  1  0
 25 44  1  0
M  END
>  <UniqueID>  (4) 
4

>  <SMILES>  (4) 
COc1cccc(OC)c1C(=O)Nc1sc2c(c1C#N)CCN(C)C2

>  <Energy>  (4) 
82.35972819386656

>  <Genealogy>  (4) 
COc1cccc(OC)c1C(=O)Nc1sc2c(c1C#N)CCN(C)C2 (3D coordinates assigned)
COc1cccc(OC)c1C(=O)Nc1sc2c(c1C#N)CCN(C)C2 (nonaromatic ring conformer: 82.35972819386656 kcal/mol)

>  <smiles>  (4) 
COc1cccc(OC)c1C(=O)Nc1sc2c(c1C#N)CCN(C)C2

>  <score_type>  (4) 
oracle

>  <origin>  (4) 
adgpu

>  <m_score__min__energy>  (4) 
-7.29

>  <m_primary>  (4) 
energy

$$$$
4:0
     RDKit          3D

 33 35  0  0  0  0  0  0  0  0999 V2000
   -1.2460   26.4480  -30.1070 H   0  0  0  0  0  0  0  0  0  0  0  0
   -0.9540   25.8670  -29.3310 O   0  0  0  0  0  0  0  0  0  0  0  0
   -1.7160   24.7880  -28.8830 C   0  0  0  0  0  0  0  0  0  0  0  0
   -1.2060   23.9650  -27.8710 C   0  0  0  0  0  0  0  0  0  0  0  0
   -0.2121   24.1742  -27.4487 H   0  0  0  0  0  0  0  0  0  0  0  0
   -1.9510   22.8740  -27.3890 C   0  0  0  0  0  0  0  0  0  0  0  0
   -1.4100   22.0090  -26.3160 C   0  0  0  0  0  0  0  0  0  0  0  0
   -0.8710   22.5270  -25.3020 O   0  0  0  0  0  0  0  0  0  0  0  0
   -1.6020   20.5920  -26.3650 N   0  0  0  0  0  0  0  0  0  0  0  0
   -0.9730   19.7050  -27.0860 C   0  0  0  0  0  0  0  0  0  0  0  0
   -1.1480   18.3500  -26.9200 C   0  0  0  0  0  0  0  0  0  0  0  0
   -1.7920   17.8377  -26.1901 H   0  0  0  0  0  0  0  0  0  0  0  0
   -0.3340   17.7800  -27.8750 C   0  0  0  0  0  0  0  0  0  0  0  0
   -0.1977   16.6993  -28.0281 H   0  0  0  0  0  0  0  0  0  0  0  0
    0.2690   18.7470  -28.5920 N   0  0  0  0  0  0  0  0  0  0  0  0
   -0.1170   19.9250  -28.1200 N   0  0  0  0  0  0  0  0  0  0  0  0
    0.2740   21.1700  -28.7870 C   0  0  0  0  0  0  0  0  0  0  0  0
   -0.0089   22.0215  -28.1507 H   0  0  0  0  0  0  0  0  0  0  0  0
    1.3618   21.1500  -28.9495 H   0  0  0  0  0  0  0  0  0  0  0  0
   -0.4010   21.3100  -30.1190 C   0  0  0  0  0  0  0  0  0  0  0  0
   -1.6200   21.7740  -30.2700 O   0  0  0  0  0  0  0  0  0  0  0  0
   -1.9270   21.7400  -31.5470 C   0  0  0  0  0  0  0  0  0  0  0  0
   -2.8825   22.0738  -31.9778 H   0  0  0  0  0  0  0  0  0  0  0  0
   -0.8690   21.2220  -32.2660 C   0  0  0  0  0  0  0  0  0  0  0  0
   -0.8214   21.0665  -33.3539 H   0  0  0  0  0  0  0  0  0  0  0  0
    0.1160   20.9390  -31.3440 C   0  0  0  0  0  0  0  0  0  0  0  0
    1.1079   20.5072  -31.5431 H   0  0  0  0  0  0  0  0  0  0  0  0
   -3.2140   22.6110  -27.9510 C   0  0  0  0  0  0  0  0  0  0  0  0
   -3.8055   21.7567  -27.5899 H   0  0  0  0  0  0  0  0  0  0  0  0
   -3.7220   23.4280  -28.9650 C   0  0  0  0  0  0  0  0  0  0  0  0
   -4.7099   23.2132  -29.3984 H   0  0  0  0  0  0  0  0  0  0  0  0
   -2.9800   24.5160  -29.4300 C   0  0  0  0  0  0  0  0  0  0  0  0
   -3.5040   25.3240  -30.4340 O   0  0  0  0  0  0  0  0  0  0  0  0
  1  2  1  0
  2  3  1  0
  3  4  2  0
  4  5  1  0
  4  6  1  0
  6  7  1  0
  7  8  2  0
  7  9  1  0
  9 10  2  0
 10 11  1  0
 11 12  1  0
 11 13  2  0
 13 14  1  0
 13 15  1  0
 15 16  1  0
 16 17  1  0
 17 18  1  0
 17 19  1  0
 17 20  1  0
 20 21  1  0
 21 22  1  0
 22 23  1  0
 22 24  2  0
 24 25  1  0
 24 26  1  0
 26 27  1  0
  6 28  2  0
 28 29  1  0
 28 30  1  0
 30 31  1  0
 30 32  2  0
 32 33  1  0
 32  3  1  0
 16 10  1  0
 26 20  2  0
M  CHG  2  15  -1  33  -1
M  END
>  <UniqueID>  (5) 
5

>  <SMILES>  (5) 
O=C(/N=c1/cc[n-]n1Cc1ccco1)c1ccc([O-])c(O)c1

>  <Energy>  (5) 
105.12593075872168

>  <Genealogy>  (5) 
O=C(N=c1cc[n-]n1Cc1ccco1)c1ccc([O-])c(O)c1 (protonated)
O=C(/N=c1/cc[n-]n1Cc1ccco1)c1ccc([O-])c(O)c1 (cis-trans isomerization)
O=C(/N=c1/cc[n-]n1Cc1ccco1)c1ccc([O-])c(O)c1 (3D coordinates assigned)
O=C(/N=c1/cc[n-]n1Cc1ccco1)c1ccc([O-])c(O)c1 (optimized conformer: 105.12593075872168 kcal/mol)

>  <smiles>  (5) 
O=C(N=c1cc[nH]n1Cc1ccco1)c1ccc(O)c(O)c1

>  <score_type>  (5) 
oracle

>  <origin>  (5) 
adgpu

>  <m_score__min__energy>  (5) 
-9.6600000000000001

>  <m_primary>  (5) 
energy

$$$$
5:0
     RDKit          3D

 44 46  0  0  0  0  0  0  0  0999 V2000
    3.0310   24.4000  -35.6630 O   0  0  0  0  0  0  0  0  0  0  0  0
    2.2210   23.8740  -36.4720 C   0  0  0  0  0  0  0  0  0  0  0  0
    1.7680   24.6320  -37.5460 O   0  0  0  0  0  0  0  0  0  0  0  0
    1.7650   22.4730  -36.2750 C   0  0  0  0  0  0  0  0  0  0  0  0
    0.5680   22.2230  -35.5730 C   0  0  0  0  0  0  0  0  0  0  0  0
    0.1090   20.9060  -35.3700 C   0  0  0  0  0  0  0  0  0  0  0  0
   -1.1110   20.6290  -34.6550 N   0  0  0  0  0  0  0  0  0  0  0  0
   -1.1840   19.7280  -33.5020 C   0  0  0  0  0  0  0  0  0  0  0  0
   -1.4560   20.5020  -32.2380 C   0  0  0  0  0  0  0  0  0  0  0  0
   -2.5620   21.3620  -32.1700 C   0  0  0  0  0  0  0  0  0  0  0  0
   -2.8460   22.0610  -30.9930 C   0  0  0  0  0  0  0  0  0  0  0  0
   -2.0320   21.9040  -29.8560 C   0  0  0  0  0  0  0  0  0  0  0  0
   -2.2920   22.6120  -28.6290 N   0  0  0  0  0  0  0  0  0  0  0  0
   -3.6310   22.8980  -28.1060 C   0  0  0  0  0  0  0  0  0  0  0  0
   -4.4750   23.6000  -29.1440 C   0  0  0  0  0  0  0  0  0  0  0  0
   -5.7280   23.0650  -29.4940 C   0  0  0  0  0  0  0  0  0  0  0  0
   -6.5210   23.6920  -30.4610 C   0  0  0  0  0  0  0  0  0  0  0  0
   -7.7620   23.1620  -30.7910 O   0  0  0  0  0  0  0  0  0  0  0  0
   -6.0640   24.8500  -31.0960 C   0  0  0  0  0  0  0  0  0  0  0  0
   -4.8130   25.3780  -30.7700 C   0  0  0  0  0  0  0  0  0  0  0  0
   -4.0140   24.7580  -29.8040 C   0  0  0  0  0  0  0  0  0  0  0  0
   -2.7650   25.2980  -29.5120 O   0  0  0  0  0  0  0  0  0  0  0  0
   -0.9410   21.0240  -29.9200 C   0  0  0  0  0  0  0  0  0  0  0  0
   -0.6550   20.3230  -31.0960 C   0  0  0  0  0  0  0  0  0  0  0  0
    0.4270   19.4490  -31.1210 O   0  0  0  0  0  0  0  0  0  0  0  0
    0.8590   19.8380  -35.8790 C   0  0  0  0  0  0  0  0  0  0  0  0
    2.0430   20.0740  -36.5760 C   0  0  0  0  0  0  0  0  0  0  0  0
    2.5010   21.3780  -36.7780 C   0  0  0  0  0  0  0  0  0  0  0  0
    3.6880   21.5660  -37.4770 O   0  0  0  0  0  0  0  0  0  0  0  0
   -0.0157   23.0677  -35.1783 H   0  0  0  0  0  0  0  0  0  0  0  0
   -1.9880   21.0980  -34.9800 H   0  0  0  0  0  0  0  0  0  0  0  0
   -1.9943   19.0015  -33.6621 H   0  0  0  0  0  0  0  0  0  0  0  0
   -0.2204   19.2078  -33.3979 H   0  0  0  0  0  0  0  0  0  0  0  0
   -3.2108   21.4874  -33.0494 H   0  0  0  0  0  0  0  0  0  0  0  0
   -3.7118   22.7384  -30.9555 H   0  0  0  0  0  0  0  0  0  0  0  0
   -1.4800   22.9820  -28.0850 H   0  0  0  0  0  0  0  0  0  0  0  0
   -4.1178   21.9524  -27.8251 H   0  0  0  0  0  0  0  0  0  0  0  0
   -3.5335   23.5545  -27.2288 H   0  0  0  0  0  0  0  0  0  0  0  0
   -6.0866   22.1477  -29.0042 H   0  0  0  0  0  0  0  0  0  0  0  0
   -6.6898   25.3457  -31.8527 H   0  0  0  0  0  0  0  0  0  0  0  0
   -4.4541   26.2865  -31.2757 H   0  0  0  0  0  0  0  0  0  0  0  0
   -0.3031   20.8838  -29.0349 H   0  0  0  0  0  0  0  0  0  0  0  0
    0.5111   18.8055  -35.7276 H   0  0  0  0  0  0  0  0  0  0  0  0
    2.6217   19.2257  -36.9704 H   0  0  0  0  0  0  0  0  0  0  0  0
  1  2  2  0
  2  3  1  0
  2  4  1  0
  4  5  2  0
  5  6  1  0
  6  7  1  0
  7  8  1  0
  8  9  1  0
  9 10  2  0
 10 11  1  0
 11 12  2  0
 12 13  1  0
 13 14  1  0
 14 15  1  0
 15 16  2  0
 16 17  1  0
 17 18  1  0
 17 19  2  0
 19 20  1  0
 20 21  2  0
 21 22  1  0
 12 23  1  0
 23 24  2  0
 24 25  1  0
  6 26  2  0
 26 27  1  0
 27 28  2  0
 28 29  1  0
 28  4  1  0
 24  9  1  0
 21 15  1  0
  5 30  1  0
  7 31  1  0
  8 32  1  0
  8 33  1  0
 10 34  1  0
 11 35  1  0
 13 36  1  0
 14 37  1  0
 14 38  1  0
 16 39  1  0
 19 40  1  0
 20 41  1  0
 23 42  1  0
 26 43  1  0
 27 44  1  0
M  CHG  5   3  -1  18  -1  22  -1  25  -1  29  -1
M  END
>  <UniqueID>  (6) 
6

>  <SMILES>  (6) 
O=C([O-])c1cc(NCc2ccc(NCc3cc([O-])ccc3[O-])cc2[O-])ccc1[O-]

>  <Energy>  (6) 
49.99592920787321

>  <Genealogy>  (6) 
O=C([O-])c1cc(NCc2ccc(NCc3cc([O-])ccc3[O-])cc2[O-])ccc1[O-] (protonated)
O=C([O-])c1cc(NCc2ccc(NCc3cc([O-])ccc3[O-])cc2[O-])ccc1[O-] (3D coordinates assigned)
O=C([O-])c1cc(NCc2ccc(NCc3cc([O-])ccc3[O-])cc2[O-])ccc1[O-] (optimized conformer: 49.99592920787321 kcal/mol)

>  <smiles>  (6) 
O=C(O)c1cc(NCc2ccc(NCc3cc(O)ccc3O)cc2O)ccc1O

>  <score_type>  (6) 
oracle

>  <origin>  (6) 
adgpu

>  <m_score__min__energy>  (6) 
-12.67

>  <m_primary>  (6) 
energy

$$$$
6:0
     RDKit          3D

 58 61  0  0  0  0  0  0  0  0999 V2000
   -4.1060   21.2900  -30.5080 O   0  0  0  0  0  0  0  0  0  0  0  0
   -4.2170   22.4980  -30.1610 C   0  0  0  0  0  0  0  0  0  0  0  0
   -5.4080   23.2390  -30.4880 N   0  0  0  0  0  0  0  0  0  0  0  0
   -6.5600   22.6610  -31.1240 C   0  0  0  0  0  0  0  0  0  0  0  0
   -7.6830   23.4640  -31.3720 C   0  0  0  0  0  0  0  0  0  0  0  0
   -8.8270   22.9170  -31.9590 C   0  0  0  0  0  0  0  0  0  0  0  0
   -8.8650   21.5610  -32.2900 C   0  0  0  0  0  0  0  0  0  0  0  0
   -7.7580   20.7430  -32.0300 C   0  0  0  0  0  0  0  0  0  0  0  0
   -7.8150   19.0170  -32.3870 S   0  0  0  0  0  0  0  0  0  0  0  0
   -9.2480   18.6350  -32.6360 O   0  0  0  0  0  0  0  0  0  0  0  0
   -7.3180   18.2360  -31.2020 O   0  0  0  0  0  0  0  0  0  0  0  0
   -6.8630   18.6520  -33.8120 N   0  0  0  0  0  0  0  0  0  0  0  0
   -5.6760   19.5200  -33.9170 C   0  0  0  0  0  0  0  0  0  0  0  0
   -4.5760   19.1370  -32.8980 C   0  0  0  0  0  0  0  0  0  0  0  0
   -4.7200   17.8280  -32.3730 O   0  0  0  0  0  0  0  0  0  0  0  0
   -5.0800   16.9270  -33.3970 C   0  0  0  0  0  0  0  0  0  0  0  0
   -6.5130   17.2170  -33.8840 C   0  0  0  0  0  0  0  0  0  0  0  0
   -6.6130   21.2900  -31.4370 C   0  0  0  0  0  0  0  0  0  0  0  0
   -3.1130   23.1300  -29.4100 C   0  0  0  0  0  0  0  0  0  0  0  0
   -2.3360   22.3410  -28.5450 C   0  0  0  0  0  0  0  0  0  0  0  0
   -1.2890   22.9090  -27.8050 C   0  0  0  0  0  0  0  0  0  0  0  0
   -0.3420   21.9190  -26.6970 S   0  0  0  0  0  0  0  0  0  0  0  0
   -1.2410   21.4290  -25.5950 O   0  0  0  0  0  0  0  0  0  0  0  0
    0.7540   22.7480  -26.0850 O   0  0  0  0  0  0  0  0  0  0  0  0
    0.3410   20.5520  -27.5460 N   0  0  0  0  0  0  0  0  0  0  0  0
   -0.4920   19.3540  -27.3240 C   0  0  0  0  0  0  0  0  0  0  0  0
   -0.2320   18.3060  -28.4190 C   0  0  0  0  0  0  0  0  0  0  0  0
   -0.5150   18.7590  -29.7390 O   0  0  0  0  0  0  0  0  0  0  0  0
   -0.5090   20.1730  -29.8730 C   0  0  0  0  0  0  0  0  0  0  0  0
    0.5390   20.8610  -28.9790 C   0  0  0  0  0  0  0  0  0  0  0  0
   -1.0180   24.2760  -27.9280 C   0  0  0  0  0  0  0  0  0  0  0  0
   -1.7680   25.0650  -28.8020 C   0  0  0  0  0  0  0  0  0  0  0  0
   -2.8030   24.4990  -29.5540 C   0  0  0  0  0  0  0  0  0  0  0  0
   -3.4920   25.2990  -30.4590 O   0  0  0  0  0  0  0  0  0  0  0  0
   -5.4390   24.2620  -30.2830 H   0  0  0  0  0  0  0  0  0  0  0  0
   -7.6630   24.5304  -31.1029 H   0  0  0  0  0  0  0  0  0  0  0  0
   -9.6994   23.5559  -32.1607 H   0  0  0  0  0  0  0  0  0  0  0  0
   -9.7657   21.1345  -32.7557 H   0  0  0  0  0  0  0  0  0  0  0  0
   -5.2629   19.4330  -34.9328 H   0  0  0  0  0  0  0  0  0  0  0  0
   -5.9925   20.5506  -33.6988 H   0  0  0  0  0  0  0  0  0  0  0  0
   -3.5990   19.2054  -33.3988 H   0  0  0  0  0  0  0  0  0  0  0  0
   -4.6623   19.8352  -32.0523 H   0  0  0  0  0  0  0  0  0  0  0  0
   -4.3811   17.0367  -34.2393 H   0  0  0  0  0  0  0  0  0  0  0  0
   -5.0364   15.9009  -33.0029 H   0  0  0  0  0  0  0  0  0  0  0  0
   -6.6030   16.8852  -34.9289 H   0  0  0  0  0  0  0  0  0  0  0  0
   -7.2040   16.6738  -33.2226 H   0  0  0  0  0  0  0  0  0  0  0  0
   -5.7505   20.6444  -31.2147 H   0  0  0  0  0  0  0  0  0  0  0  0
   -2.5513   21.2667  -28.4473 H   0  0  0  0  0  0  0  0  0  0  0  0
   -0.2482   18.9204  -26.3429 H   0  0  0  0  0  0  0  0  0  0  0  0
   -1.5518   19.6469  -27.3567 H   0  0  0  0  0  0  0  0  0  0  0  0
    0.8280   18.0154  -28.3738 H   0  0  0  0  0  0  0  0  0  0  0  0
   -0.9130   17.4653  -28.2203 H   0  0  0  0  0  0  0  0  0  0  0  0
   -0.2931   20.4241  -30.9220 H   0  0  0  0  0  0  0  0  0  0  0  0
   -1.4981   20.5362  -29.5571 H   0  0  0  0  0  0  0  0  0  0  0  0
    1.5404   20.5193  -29.2799 H   0  0  0  0  0  0  0  0  0  0  0  0
    0.4312   21.9481  -29.1079 H   0  0  0  0  0  0  0  0  0  0  0  0
   -0.2114   24.7306  -27.3341 H   0  0  0  0  0  0  0  0  0  0  0  0
   -1.5439   26.1375  -28.8999 H   0  0  0  0  0  0  0  0  0  0  0  0
  1  2  2  0
  2  3  1  0
  3  4  1  0
  4  5  2  0
  5  6  1  0
  6  7  2  0
  7  8  1  0
  8  9  1  0
  9 10  2  0
  9 11  2  0
  9 12  1  0
 12 13  1  0
 13 14  1  0
 14 15  1  0
 15 16  1  0
 16 17  1  0
  8 18  2  0
  2 19  1  0
 19 20  2  0
 20 21  1  0
 21 22  1  0
 22 23  2  0
 22 24  2  0
 22 25  1  0
 25 26  1  0
 26 27  1  0
 27 28  1  0
 28 29  1  0
 29 30  1  0
 21 31  2  0
 31 32  1  0
 32 33  2  0
 33 34  1  0
 18  4  1  0
 33 19  1  0
 17 12  1  0
 30 25  1  0
  3 35  1  0
  5 36  1  0
  6 37  1  0
  7 38  1  0
 13 39  1  0
 13 40  1  0
 14 41  1  0
 14 42  1  0
 16 43  1  0
 16 44  1  0
 17 45  1  0
 17 46  1  0
 18 47  1  0
 20 48  1  0
 26 49  1  0
 26 50  1  0
 27 51  1  0
 27 52  1  0
 29 53  1  0
 29 54  1  0
 30 55  1  0
 30 56  1  0
 31 57  1  0
 32 58  1  0
M  CHG  1  34  -1
M  END
>  <UniqueID>  (7) 
7

>  <SMILES>  (7) 
O=C(Nc1cccc(S(=O)(=O)N2CCOCC2)c1)c1cc(S(=O)(=O)N2CCOCC2)ccc1[O-]

>  <Energy>  (7) 
91.98701258848217

>  <Genealogy>  (7) 
O=C(Nc1cccc(S(=O)(=O)N2CCOCC2)c1)c1cc(S(=O)(=O)N2CCOCC2)ccc1[O-] (protonated)
O=C(Nc1cccc(S(=O)(=O)N2CCOCC2)c1)c1cc(S(=O)(=O)N2CCOCC2)ccc1[O-] (3D coordinates assigned)
O=C(Nc1cccc(S(=O)(=O)N2CCOCC2)c1)c1cc(S(=O)(=O)N2CCOCC2)ccc1[O-] (nonaromatic ring conformer: 91.98701258848217 kcal/mol)

>  <smiles>  (7) 
O=C(Nc1cccc(S(=O)(=O)N2CCOCC2)c1)c1cc(S(=O)(=O)N2CCOCC2)ccc1O

>  <score_type>  (7) 
oracle

>  <origin>  (7) 
adgpu

>  <m_score__min__energy>  (7) 
-12.859999999999999

>  <m_primary>  (7) 
energy

$$$$
7:0
     RDKit          3D

 48 50  0  0  0  0  0  0  0  0999 V2000
   -2.7250   24.5260  -27.1670 C   0  0  0  0  0  0  0  0  0  0  0  0
   -2.0860   25.1530  -28.3690 C   0  0  0  0  0  0  0  0  0  0  0  0
   -1.0870   25.9010  -28.2080 O   0  0  0  0  0  0  0  0  0  0  0  0
   -2.5510   24.8960  -29.7020 N   0  0  0  0  0  0  0  0  0  0  0  0
   -3.8770   24.5030  -30.0840 C   0  0  0  0  0  0  0  0  0  0  0  0
   -4.3250   23.1790  -29.9430 C   0  0  0  0  0  0  0  0  0  0  0  0
   -5.6310   22.8350  -30.3020 C   0  0  0  0  0  0  0  0  0  0  0  0
   -6.5150   23.8140  -30.7820 C   0  0  0  0  0  0  0  0  0  0  0  0
   -7.9090   23.4400  -31.2130 C   0  0  0  0  0  0  0  0  0  0  0  0
   -7.9800   21.9980  -31.5030 N   0  0  0  0  0  0  0  0  0  0  0  0
   -8.8840   21.2300  -30.8220 C   0  0  0  0  0  0  0  0  0  0  0  0
   -8.9960   19.8640  -31.0780 C   0  0  0  0  0  0  0  0  0  0  0  0
   -8.1960   19.2820  -32.0570 C   0  0  0  0  0  0  0  0  0  0  0  0
   -7.3010   20.0670  -32.7860 C   0  0  0  0  0  0  0  0  0  0  0  0
   -6.4880   19.4510  -33.7970 N   0  0  0  0  0  0  0  0  0  0  0  0
   -5.1230   19.0650  -33.5790 C   0  0  0  0  0  0  0  0  0  0  0  0
   -4.5080   19.4440  -32.5460 O   0  0  0  0  0  0  0  0  0  0  0  0
   -4.4260   18.1850  -34.5710 C   0  0  0  0  0  0  0  0  0  0  0  0
   -4.9520   16.7810  -34.4630 C   0  0  0  0  0  0  0  0  0  0  0  0
   -4.0630   15.6960  -34.3780 C   0  0  0  0  0  0  0  0  0  0  0  0
   -4.5520   14.3950  -34.2360 C   0  0  0  0  0  0  0  0  0  0  0  0
   -5.9300   14.1670  -34.1670 C   0  0  0  0  0  0  0  0  0  0  0  0
   -6.8200   15.2420  -34.2390 C   0  0  0  0  0  0  0  0  0  0  0  0
   -6.3350   16.5460  -34.3810 C   0  0  0  0  0  0  0  0  0  0  0  0
   -7.1830   21.4370  -32.4730 C   0  0  0  0  0  0  0  0  0  0  0  0
   -6.3230   22.1410  -33.0730 O   0  0  0  0  0  0  0  0  0  0  0  0
   -6.0740   25.1400  -30.8980 C   0  0  0  0  0  0  0  0  0  0  0  0
   -4.7670   25.4830  -30.5380 C   0  0  0  0  0  0  0  0  0  0  0  0
   -2.2876   24.9551  -26.2535 H   0  0  0  0  0  0  0  0  0  0  0  0
   -3.8072   24.7224  -27.1827 H   0  0  0  0  0  0  0  0  0  0  0  0
   -2.5491   23.4403  -27.1827 H   0  0  0  0  0  0  0  0  0  0  0  0
   -3.6449   22.4098  -29.5483 H   0  0  0  0  0  0  0  0  0  0  0  0
   -5.9679   21.7921  -30.2080 H   0  0  0  0  0  0  0  0  0  0  0  0
   -8.6167   23.6842  -30.4070 H   0  0  0  0  0  0  0  0  0  0  0  0
   -8.1677   24.0029  -32.1220 H   0  0  0  0  0  0  0  0  0  0  0  0
   -9.5303   21.6956  -30.0634 H   0  0  0  0  0  0  0  0  0  0  0  0
   -9.7114   19.2508  -30.5104 H   0  0  0  0  0  0  0  0  0  0  0  0
   -8.2690   18.2027  -32.2564 H   0  0  0  0  0  0  0  0  0  0  0  0
   -6.8700   19.3890  -34.7680 H   0  0  0  0  0  0  0  0  0  0  0  0
   -4.6065   18.5656  -35.5871 H   0  0  0  0  0  0  0  0  0  0  0  0
   -3.3461   18.1857  -34.3618 H   0  0  0  0  0  0  0  0  0  0  0  0
   -2.9781   15.8717  -34.4234 H   0  0  0  0  0  0  0  0  0  0  0  0
   -3.8519   13.5485  -34.1784 H   0  0  0  0  0  0  0  0  0  0  0  0
   -6.3132   13.1419  -34.0561 H   0  0  0  0  0  0  0  0  0  0  0  0
   -7.9038   15.0622  -34.1839 H   0  0  0  0  0  0  0  0  0  0  0  0
   -7.0384   17.3904  -34.4287 H   0  0  0  0  0  0  0  0  0  0  0  0
   -6.7593   25.9140  -31.2739 H   0  0  0  0  0  0  0  0  0  0  0  0
   -4.4364   26.5295  -30.6121 H   0  0  0  0  0  0  0  0  0  0  0  0
  1  2  1  0
  2  3  2  0
  2  4  1  0
  4  5  1  0
  5  6  2  0
  6  7  1  0
  7  8  2  0
  8  9  1  0
  9 10  1  0
 10 11  1  0
 11 12  2  0
 12 13  1  0
 13 14  2  0
 14 15  1  0
 15 16  1  0
 16 17  2  0
 16 18  1  0
 18 19  1  0
 19 20  2  0
 20 21  1  0
 21 22  2  0
 22 23  1  0
 23 24  2  0
 14 25  1  0
 25 26  2  0
  8 27  1  0
 27 28  2  0
 28  5  1  0
 25 10  1  0
 24 19  1  0
  1 29  1  0
  1 30  1  0
  1 31  1  0
  6 32  1  0
  7 33  1  0
  9 34  1  0
  9 35  1  0
 11 36  1  0
 12 37  1  0
 13 38  1  0
 15 39  1  0
 18 40  1  0
 18 41  1  0
 20 42  1  0
 21 43  1  0
 22 44  1  0
 23 45  1  0
 24 46  1  0
 27 47  1  0
 28 48  1  0
M  CHG  1   4  -1
M  END
>  <UniqueID>  (8) 
8

>  <SMILES>  (8) 
CC(=O)[N-]c1ccc(Cn2cccc(NC(=O)Cc3ccccc3)c2=O)cc1

>  <Energy>  (8) 
57.64072509217967

>  <Genealogy>  (8) 
CC(=O)[N-]c1ccc(Cn2cccc(NC(=O)Cc3ccccc3)c2=O)cc1 (protonated)
CC(=O)[N-]c1ccc(Cn2cccc(NC(=O)Cc3ccccc3)c2=O)cc1 (3D coordinates assigned)
CC(=O)[N-]c1ccc(Cn2cccc(NC(=O)Cc3ccccc3)c2=O)cc1 (optimized conformer: 57.64072509217967 kcal/mol)

>  <smiles>  (8) 
CC(=O)Nc1ccc(Cn2cccc(NC(=O)Cc3ccccc3)c2=O)cc1

>  <score_type>  (8) 
oracle

>  <origin>  (8) 
adgpu

>  <m_score__min__energy>  (8) 
-10.41

>  <m_primary>  (8) 
energy

$$$$
8:0
     RDKit          3D

 58 61  0  0  0  0  0  0  0  0999 V2000
   -6.4730   25.7570  -29.2890 C   0  0  0  0  0  0  0  0  0  0  0  0
   -6.6170   25.3710  -30.6510 O   0  0  0  0  0  0  0  0  0  0  0  0
   -6.2290   24.1250  -31.1710 C   0  0  0  0  0  0  0  0  0  0  0  0
   -7.1720   23.1900  -31.6420 C   0  0  0  0  0  0  0  0  0  0  0  0
   -6.7550   21.9430  -32.1140 C   0  0  0  0  0  0  0  0  0  0  0  0
   -5.3960   21.6050  -32.1120 C   0  0  0  0  0  0  0  0  0  0  0  0
   -4.8880   20.0320  -32.7240 S   0  0  0  0  0  0  0  0  0  0  0  0
   -5.5260   19.8130  -34.0690 O   0  0  0  0  0  0  0  0  0  0  0  0
   -5.3430   18.9420  -31.7910 O   0  0  0  0  0  0  0  0  0  0  0  0
   -3.1490   19.9900  -32.8860 N   0  0  0  0  0  0  0  0  0  0  0  0
   -2.6740   21.2170  -33.5660 C   0  0  0  0  0  0  0  0  0  0  0  0
   -1.1740   21.4370  -33.3430 C   0  0  0  0  0  0  0  0  0  0  0  0
   -0.8550   21.6280  -31.8480 C   0  0  0  0  0  0  0  0  0  0  0  0
   -1.9040   20.9750  -30.9290 C   0  0  0  0  0  0  0  0  0  0  0  0
   -2.5000   19.7160  -31.5790 C   0  0  0  0  0  0  0  0  0  0  0  0
   -4.4520   22.5350  -31.6550 C   0  0  0  0  0  0  0  0  0  0  0  0
   -4.8590   23.7990  -31.2100 C   0  0  0  0  0  0  0  0  0  0  0  0
   -3.8660   24.7160  -30.7340 N   0  0  0  0  0  0  0  0  0  0  0  0
   -3.1080   24.5530  -29.5280 C   0  0  0  0  0  0  0  0  0  0  0  0
   -2.1000   25.2850  -29.3380 O   0  0  0  0  0  0  0  0  0  0  0  0
   -3.5370   23.6020  -28.4430 C   0  0  0  0  0  0  0  0  0  0  0  0
   -2.4930   23.5190  -27.3200 C   0  0  0  0  0  0  0  0  0  0  0  0
   -1.4820   22.4770  -27.6000 N   0  0  0  0  0  0  0  0  0  0  0  0
   -0.2080   22.8450  -27.9630 C   0  0  0  0  0  0  0  0  0  0  0  0
    0.1000   24.0620  -28.0880 O   0  0  0  0  0  0  0  0  0  0  0  0
    0.7430   21.9040  -28.1870 N   0  0  0  0  0  0  0  0  0  0  0  0
    0.4760   20.5830  -28.0660 C   0  0  0  0  0  0  0  0  0  0  0  0
    1.4840   19.6400  -28.3040 C   0  0  0  0  0  0  0  0  0  0  0  0
    1.2080   18.2750  -28.1840 C   0  0  0  0  0  0  0  0  0  0  0  0
   -0.0750   17.8480  -27.8280 C   0  0  0  0  0  0  0  0  0  0  0  0
   -1.0860   18.7830  -27.5850 C   0  0  0  0  0  0  0  0  0  0  0  0
   -0.8150   20.1610  -27.7000 C   0  0  0  0  0  0  0  0  0  0  0  0
   -1.7940   21.1440  -27.4630 C   0  0  0  0  0  0  0  0  0  0  0  0
   -2.9590   20.7930  -27.1210 O   0  0  0  0  0  0  0  0  0  0  0  0
   -6.7829   24.9264  -28.6378 H   0  0  0  0  0  0  0  0  0  0  0  0
   -5.4209   26.0076  -29.0882 H   0  0  0  0  0  0  0  0  0  0  0  0
   -7.1039   26.6354  -29.0882 H   0  0  0  0  0  0  0  0  0  0  0  0
   -8.2424   23.4433  -31.6380 H   0  0  0  0  0  0  0  0  0  0  0  0
   -7.4976   21.2233  -32.4890 H   0  0  0  0  0  0  0  0  0  0  0  0
   -2.8652   21.1245  -34.6453 H   0  0  0  0  0  0  0  0  0  0  0  0
   -3.2156   22.0769  -33.1450 H   0  0  0  0  0  0  0  0  0  0  0  0
   -0.6233   20.5619  -33.7184 H   0  0  0  0  0  0  0  0  0  0  0  0
   -0.8714   22.3465  -33.8826 H   0  0  0  0  0  0  0  0  0  0  0  0
    0.1264   21.1782  -31.6372 H   0  0  0  0  0  0  0  0  0  0  0  0
   -0.8595   22.7086  -31.6425 H   0  0  0  0  0  0  0  0  0  0  0  0
   -1.4257   20.6967  -29.9783 H   0  0  0  0  0  0  0  0  0  0  0  0
   -2.7156   21.6971  -30.7558 H   0  0  0  0  0  0  0  0  0  0  0  0
   -1.6920   18.9860  -31.7350 H   0  0  0  0  0  0  0  0  0  0  0  0
   -3.2757   19.3311  -30.9006 H   0  0  0  0  0  0  0  0  0  0  0  0
   -3.3844   22.2702  -31.6458 H   0  0  0  0  0  0  0  0  0  0  0  0
   -4.4905   23.9503  -28.0192 H   0  0  0  0  0  0  0  0  0  0  0  0
   -3.6468   22.6011  -28.8859 H   0  0  0  0  0  0  0  0  0  0  0  0
   -1.9882   24.4920  -27.2278 H   0  0  0  0  0  0  0  0  0  0  0  0
   -3.0100   23.2577  -26.3849 H   0  0  0  0  0  0  0  0  0  0  0  0
    2.4936   19.9739  -28.5856 H   0  0  0  0  0  0  0  0  0  0  0  0
    2.0011   17.5358  -28.3699 H   0  0  0  0  0  0  0  0  0  0  0  0
   -0.2898   16.7729  -27.7388 H   0  0  0  0  0  0  0  0  0  0  0  0
   -2.0935   18.4426  -27.3039 H   0  0  0  0  0  0  0  0  0  0  0  0
  1  2  1  0
  2  3  1  0
  3  4  2  0
  4  5  1  0
  5  6  2  0
  6  7  1  0
  7  8  2  0
  7  9  2  0
  7 10  1  0
 10 11  1  0
 11 12  1  0
 12 13  1  0
 13 14  1  0
 14 15  1  0
  6 16  1  0
 16 17  2  0
 17 18  1  0
 18 19  1  0
 19 20  2  0
 19 21  1  0
 21 22  1  0
 22 23  1  0
 23 24  1  0
 24 25  2  0
 24 26  1  0
 26 27  1  0
 27 28  2  0
 28 29  1  0
 29 30  2  0
 30 31  1  0
 31 32  2  0
 32 33  1  0
 33 34  2  0
 17  3  1  0
 33 23  1  0
 15 10  1  0
 32 27  1  0
  1 35  1  0
  1 36  1  0
  1 37  1  0
  4 38  1  0
  5 39  1  0
 11 40  1  0
 11 41  1  0
 12 42  1  0
 12 43  1  0
 13 44  1  0
 13 45  1  0
 14 46  1  0
 14 47  1  0
 15 48  1  0
 15 49  1  0
 16 50  1  0
 21 51  1  0
 21 52  1  0
 22 53  1  0
 22 54  1  0
 28 55  1  0
 29 56  1  0
 30 57  1  0
 31 58  1  0
M  CHG  2  18  -1  26  -1
M  END
>  <UniqueID>  (9) 
9

>  <SMILES>  (9) 
COc1ccc(S(=O)(=O)N2CCCCC2)cc1[N-]C(=O)CCn1c(=O)[n-]c2ccccc2c1=O

>  <Energy>  (9) 
76.83474130646395

>  <Genealogy>  (9) 
COc1ccc(S(=O)(=O)N2CCCCC2)cc1[N-]C(=O)CCn1c(=O)[n-]c2ccccc2c1=O (protonated)
COc1ccc(S(=O)(=O)N2CCCCC2)cc1[N-]C(=O)CCn1c(=O)[n-]c2ccccc2c1=O (3D coordinates assigned)
COc1ccc(S(=O)(=O)N2CCCCC2)cc1[N-]C(=O)CCn1c(=O)[n-]c2ccccc2c1=O (nonaromatic ring conformer: 76.83474130646395 kcal/mol)

>  <smiles>  (9) 
COc1ccc(S(=O)(=O)N2CCCCC2)cc1NC(=O)CCn1c(=O)[nH]c2ccccc2c1=O

>  <score_type>  (9) 
oracle

>  <origin>  (9) 
adgpu

>  <m_score__min__energy>  (9) 
-12.289999999999999

>  <m_primary>  (9) 
energy

$$$$
9:0
     RDKit          3D

 47 49  0  0  0  0  0  0  0  0999 V2000
   -4.5261   17.3947  -33.8277 H   0  0  0  0  0  0  0  0  0  0  0  0
   -4.6340   18.2660  -33.1650 C   0  0  0  0  0  0  0  0  0  0  0  0
   -3.9120   19.3210  -33.4170 N   0  0  0  0  0  0  0  0  0  0  0  0
   -3.9860   20.5700  -32.7170 C   0  0  0  0  0  0  0  0  0  0  0  0
   -4.9270   21.5460  -33.0770 C   0  0  0  0  0  0  0  0  0  0  0  0
   -5.6007   21.3715  -33.9289 H   0  0  0  0  0  0  0  0  0  0  0  0
   -5.0100   22.7400  -32.3550 C   0  0  0  0  0  0  0  0  0  0  0  0
   -5.7570   23.4981  -32.6328 H   0  0  0  0  0  0  0  0  0  0  0  0
   -4.1440   22.9740  -31.2780 C   0  0  0  0  0  0  0  0  0  0  0  0
   -4.2950   24.4330  -30.3040 S   0  0  0  0  0  0  0  0  0  0  0  0
   -5.2280   24.1960  -29.1480 O   0  0  0  0  0  0  0  0  0  0  0  0
   -4.8590   25.5370  -31.1550 O   0  0  0  0  0  0  0  0  0  0  0  0
   -2.7320   24.9050  -29.7150 N   0  0  0  0  0  0  0  0  0  0  0  0
   -2.6280   24.6060  -28.2890 C   0  0  0  0  0  0  0  0  0  0  0  0
   -1.8721   25.2602  -27.8300 H   0  0  0  0  0  0  0  0  0  0  0  0
   -3.6000   24.7776  -27.8035 H   0  0  0  0  0  0  0  0  0  0  0  0
   -2.2230   23.1710  -28.1140 C   0  0  0  0  0  0  0  0  0  0  0  0
   -0.9300   22.7520  -28.4680 C   0  0  0  0  0  0  0  0  0  0  0  0
   -0.2017   23.4829  -28.8493 H   0  0  0  0  0  0  0  0  0  0  0  0
   -0.5660   21.4080  -28.3370 C   0  0  0  0  0  0  0  0  0  0  0  0
    0.4511   21.0859  -28.6049 H   0  0  0  0  0  0  0  0  0  0  0  0
   -1.4930   20.4730  -27.8660 C   0  0  0  0  0  0  0  0  0  0  0  0
   -1.2046   19.4166  -27.7623 H   0  0  0  0  0  0  0  0  0  0  0  0
   -2.7860   20.8810  -27.5270 C   0  0  0  0  0  0  0  0  0  0  0  0
   -3.5156   20.1449  -27.1584 H   0  0  0  0  0  0  0  0  0  0  0  0
   -3.1530   22.2240  -27.6560 C   0  0  0  0  0  0  0  0  0  0  0  0
   -4.1745   22.5400  -27.3976 H   0  0  0  0  0  0  0  0  0  0  0  0
   -3.1830   22.0110  -30.9400 C   0  0  0  0  0  0  0  0  0  0  0  0
   -2.4943   22.1943  -30.1021 H   0  0  0  0  0  0  0  0  0  0  0  0
   -3.0970   20.8190  -31.6640 C   0  0  0  0  0  0  0  0  0  0  0  0
   -2.3293   20.0746  -31.4063 H   0  0  0  0  0  0  0  0  0  0  0  0
   -5.6100   18.1690  -32.0170 C   0  0  0  0  0  0  0  0  0  0  0  0
   -5.3594   18.9392  -31.2727 H   0  0  0  0  0  0  0  0  0  0  0  0
   -5.5297   17.1587  -31.5894 H   0  0  0  0  0  0  0  0  0  0  0  0
   -7.0350   18.3710  -32.4640 C   0  0  0  0  0  0  0  0  0  0  0  0
   -7.5710   17.4730  -33.1720 O   0  0  0  0  0  0  0  0  0  0  0  0
   -7.8160   19.5870  -32.1180 C   0  0  0  0  0  0  0  0  0  0  0  0
   -9.1140   19.7560  -32.6360 C   0  0  0  0  0  0  0  0  0  0  0  0
   -9.5452   18.9837  -33.2899 H   0  0  0  0  0  0  0  0  0  0  0  0
   -9.8600   20.8980  -32.3260 C   0  0  0  0  0  0  0  0  0  0  0  0
  -10.8729   21.0201  -32.7372 H   0  0  0  0  0  0  0  0  0  0  0  0
   -9.3220   21.8830  -31.4960 C   0  0  0  0  0  0  0  0  0  0  0  0
   -9.9098   22.7808  -31.2541 H   0  0  0  0  0  0  0  0  0  0  0  0
   -8.0360   21.7270  -30.9730 C   0  0  0  0  0  0  0  0  0  0  0  0
   -7.6122   22.5030  -30.3187 H   0  0  0  0  0  0  0  0  0  0  0  0
   -7.2860   20.5870  -31.2790 C   0  0  0  0  0  0  0  0  0  0  0  0
   -6.2750   20.4703  -30.8616 H   0  0  0  0  0  0  0  0  0  0  0  0
  1  2  1  0
  2  3  2  0
  3  4  1  0
  4  5  2  0
  5  6  1  0
  5  7  1  0
  7  8  1  0
  7  9  2  0
  9 10  1  0
 10 11  2  0
 10 12  2  0
 10 13  1  0
 13 14  1  0
 14 15  1  0
 14 16  1  0
 14 17  1  0
 17 18  2  0
 18 19  1  0
 18 20  1  0
 20 21  1  0
 20 22  2  0
 22 23  1  0
 22 24  1  0
 24 25  1  0
 24 26  2  0
 26 27  1  0
  9 28  1  0
 28 29  1  0
 28 30  2  0
 30 31  1  0
  2 32  1  0
 32 33  1  0
 32 34  1  0
 32 35  1  0
 35 36  2  0
 35 37  1  0
 37 38  2  0
 38 39  1  0
 38 40  1  0
 40 41  1  0
 40 42  2  0
 42 43  1  0
 42 44  1  0
 44 45  1  0
 44 46  2  0
 46 47  1  0
 30  4  1  0
 46 37  1  0
 26 17  1  0
M  CHG  1  13  -1
M  END
>  <UniqueID>  (10) 
10

>  <SMILES>  (10) 
O=C(C/C=N\c1ccc(S(=O)(=O)[N-]Cc2ccccc2)cc1)c1ccccc1

>  <Energy>  (10) 
53.196832574981116

>  <Genealogy>  (10) 
O=C(CC=Nc1ccc(S(=O)(=O)[N-]Cc2ccccc2)cc1)c1ccccc1 (protonated)
O=C(C/C=N\c1ccc(S(=O)(=O)[N-]Cc2ccccc2)cc1)c1ccccc1 (cis-trans isomerization)
O=C(C/C=N\c1ccc(S(=O)(=O)[N-]Cc2ccccc2)cc1)c1ccccc1 (3D coordinates assigned)
O=C(C/C=N\c1ccc(S(=O)(=O)[N-]Cc2ccccc2)cc1)c1ccccc1 (optimized conformer: 53.196832574981116 kcal/mol)

>  <smiles>  (10) 
O=C(CC=Nc1ccc(S(=O)(=O)NCc2ccccc2)cc1)c1ccccc1

>  <score_type>  (10) 
oracle

>  <origin>  (10) 
adgpu

>  <m_score__min__energy>  (10) 
-10.84

>  <m_primary>  (10) 
energy

$$$$
10:0
     RDKit          3D

 47 51  0  0  0  0  0  0  0  0999 V2000
   -1.6400   25.6660  -28.9180 O   0  0  0  0  0  0  0  0  0  0  0  0
   -2.4670   24.8120  -29.3370 C   0  0  0  0  0  0  0  0  0  0  0  0
   -3.5150   25.2470  -30.2150 N   0  0  0  0  0  0  0  0  0  0  0  0
   -4.7320   24.5410  -30.4990 C   0  0  0  0  0  0  0  0  0  0  0  0
   -5.9530   25.1660  -30.2290 C   0  0  0  0  0  0  0  0  0  0  0  0
   -7.1560   24.5070  -30.4920 C   0  0  0  0  0  0  0  0  0  0  0  0
   -7.1470   23.2130  -31.0170 C   0  0  0  0  0  0  0  0  0  0  0  0
   -5.9310   22.5560  -31.2720 C   0  0  0  0  0  0  0  0  0  0  0  0
   -5.9180   21.1770  -31.8230 C   0  0  0  0  0  0  0  0  0  0  0  0
   -4.7080   20.4820  -31.9780 C   0  0  0  0  0  0  0  0  0  0  0  0
   -4.6970   19.1810  -32.4890 C   0  0  0  0  0  0  0  0  0  0  0  0
   -5.8950   18.5420  -32.8550 C   0  0  0  0  0  0  0  0  0  0  0  0
   -5.8600   17.1600  -33.3950 C   0  0  0  0  0  0  0  0  0  0  0  0
   -6.9910   16.4480  -33.6590 N   0  0  0  0  0  0  0  0  0  0  0  0
   -6.5160   15.2810  -34.1260 C   0  0  0  0  0  0  0  0  0  0  0  0
   -7.2440   14.1720  -34.5540 C   0  0  0  0  0  0  0  0  0  0  0  0
   -6.5200   13.0530  -35.0100 C   0  0  0  0  0  0  0  0  0  0  0  0
   -5.1070   13.0720  -35.0260 C   0  0  0  0  0  0  0  0  0  0  0  0
   -4.4050   14.2100  -34.5860 C   0  0  0  0  0  0  0  0  0  0  0  0
   -5.1550   15.2960  -34.1410 C   0  0  0  0  0  0  0  0  0  0  0  0
   -4.7200   16.4770  -33.6830 N   0  0  0  0  0  0  0  0  0  0  0  0
   -7.1060   19.2420  -32.7020 C   0  0  0  0  0  0  0  0  0  0  0  0
   -7.1170   20.5430  -32.1910 C   0  0  0  0  0  0  0  0  0  0  0  0
   -4.7240   23.2260  -30.9970 C   0  0  0  0  0  0  0  0  0  0  0  0
   -2.3010   23.3910  -28.9510 C   0  0  0  0  0  0  0  0  0  0  0  0
   -2.9970   22.8530  -27.8560 C   0  0  0  0  0  0  0  0  0  0  0  0
   -2.8170   21.5100  -27.5150 C   0  0  0  0  0  0  0  0  0  0  0  0
   -1.9830   20.7260  -28.2480 N   0  0  0  0  0  0  0  0  0  0  0  0
   -1.3070   21.2140  -29.3210 C   0  0  0  0  0  0  0  0  0  0  0  0
   -1.4580   22.5510  -29.6960 C   0  0  0  0  0  0  0  0  0  0  0  0
   -5.9663   26.1819  -29.8073 H   0  0  0  0  0  0  0  0  0  0  0  0
   -8.1129   25.0085  -30.2851 H   0  0  0  0  0  0  0  0  0  0  0  0
   -8.0983   22.7044  -31.2325 H   0  0  0  0  0  0  0  0  0  0  0  0
   -3.7611   20.9651  -31.6951 H   0  0  0  0  0  0  0  0  0  0  0  0
   -3.7403   18.6510  -32.6062 H   0  0  0  0  0  0  0  0  0  0  0  0
   -8.3439   14.1707  -34.5363 H   0  0  0  0  0  0  0  0  0  0  0  0
   -7.0582   12.1582  -35.3560 H   0  0  0  0  0  0  0  0  0  0  0  0
   -4.5524   12.1922  -35.3844 H   0  0  0  0  0  0  0  0  0  0  0  0
   -3.3054   14.2405  -34.5933 H   0  0  0  0  0  0  0  0  0  0  0  0
   -3.7260   16.7810  -33.5920 H   0  0  0  0  0  0  0  0  0  0  0  0
   -8.0531   18.7608  -32.9873 H   0  0  0  0  0  0  0  0  0  0  0  0
   -8.0727   21.0753  -32.0759 H   0  0  0  0  0  0  0  0  0  0  0  0
   -3.7654   22.7161  -31.1733 H   0  0  0  0  0  0  0  0  0  0  0  0
   -3.6801   23.4855  -27.2701 H   0  0  0  0  0  0  0  0  0  0  0  0
   -3.3512   21.0864  -26.6518 H   0  0  0  0  0  0  0  0  0  0  0  0
   -0.6395   20.5548  -29.8954 H   0  0  0  0  0  0  0  0  0  0  0  0
   -0.9191   22.9439  -30.5707 H   0  0  0  0  0  0  0  0  0  0  0  0
  1  2  2  0
  2  3  1  0
  3  4  1  0
  4  5  2  0
  5  6  1  0
  6  7  2  0
  7  8  1  0
  8  9  1  0
  9 10  2  0
 10 11  1  0
 11 12  2  0
 12 13  1  0
 13 14  2  0
 14 15  1  0
 15 16  2  0
 16 17  1  0
 17 18  2  0
 18 19  1  0
 19 20  2  0
 20 21  1  0
 12 22  1  0
 22 23  2  0
  8 24  2  0
  2 25  1  0
 25 26  2  0
 26 27  1  0
 27 28  2  0
 28 29  1  0
 29 30  2  0
 24  4  1  0
 30 25  1  0
 23  9  1  0
 21 13  1  0
 20 15  1  0
  5 31  1  0
  6 32  1  0
  7 33  1  0
 10 34  1  0
 11 35  1  0
 16 36  1  0
 17 37  1  0
 18 38  1  0
 19 39  1  0
 21 40  1  0
 22 41  1  0
 23 42  1  0
 24 43  1  0
 26 44  1  0
 27 45  1  0
 29 46  1  0
 30 47  1  0
M  CHG  1   3  -1
M  END
>  <UniqueID>  (11) 
11

>  <SMILES>  (11) 
O=C([N-]c1cccc(-c2ccc(-c3nc4ccccc4[nH]3)cc2)c1)c1ccncc1

>  <Energy>  (11) 
104.83323269097315

>  <Genealogy>  (11) 
O=C([N-]c1cccc(-c2ccc(-c3nc4ccccc4[nH]3)cc2)c1)c1ccncc1 (protonated)
O=C([N-]c1cccc(-c2ccc(-c3nc4ccccc4[nH]3)cc2)c1)c1ccncc1 (3D coordinates assigned)
O=C([N-]c1cccc(-c2ccc(-c3nc4ccccc4[nH]3)cc2)c1)c1ccncc1 (optimized conformer: 104.83323269097315 kcal/mol)

>  <smiles>  (11) 
O=C(Nc1cccc(-c2ccc(-c3nc4ccccc4[nH]3)cc2)c1)c1ccncc1

>  <score_type>  (11) 
oracle

>  <origin>  (11) 
adgpu

>  <m_score__min__energy>  (11) 
-11.06

>  <m_primary>  (11) 
energy

$$$$
11:0
     RDKit          3D

 56 59  0  0  1  0  0  0  0  0999 V2000
    0.0600   26.9390  -23.1140 N   0  0  0  0  0  0  0  0  0  0  0  0
    1.2290   26.8150  -23.9290 C   0  0  0  0  0  0  0  0  0  0  0  0
    2.3940   26.3040  -23.3260 N   0  0  0  0  0  0  0  0  0  0  0  0
    1.1470   27.1790  -25.1670 N   0  0  0  0  0  0  0  0  0  0  0  0
   -0.3630   27.7860  -25.7420 S   0  0  0  0  0  0  0  0  0  0  0  0
   -0.1320   28.9660  -26.6700 O   0  0  0  0  0  0  0  0  0  0  0  0
   -1.2070   28.2880  -24.6080 O   0  0  0  0  0  0  0  0  0  0  0  0
   -1.2240   26.5100  -26.5790 C   0  0  0  0  0  0  0  0  0  0  0  0
   -2.3180   25.9480  -25.9650 C   0  0  0  0  0  0  0  0  0  0  0  0
   -3.0290   24.9380  -26.5840 C   0  0  0  0  0  0  0  0  0  0  0  0
   -2.6650   24.4640  -27.8340 C   0  0  0  0  0  0  0  0  0  0  0  0
   -3.4220   23.4090  -28.4600 N   0  0  0  0  0  0  0  0  0  0  0  0
   -4.3300   23.6670  -29.3340 C   0  0  0  0  0  0  0  0  0  0  0  0
   -5.0710   22.6670  -29.9500 C   0  0  0  0  0  0  0  0  0  0  0  0
   -6.0470   22.9310  -30.8890 C   0  0  0  0  0  0  0  0  0  0  0  0
   -6.8140   21.8720  -31.5250 C   0  0  0  0  0  0  0  0  0  0  0  0
   -8.0880   21.5380  -31.0980 C   0  0  0  0  0  0  0  0  0  0  0  0
   -8.8200   20.5160  -31.7160 C   0  0  0  0  0  0  0  0  0  0  0  0
   -8.3120   19.8050  -32.7610 C   0  0  0  0  0  0  0  0  0  0  0  0
   -7.0440   20.1250  -33.1980 C   0  0  0  0  0  0  0  0  0  0  0  0
   -6.4960   19.3870  -34.2980 N   0  0  0  0  0  0  0  0  0  0  0  0
   -5.1600   18.3450  -34.1240 S   0  0  0  0  0  0  0  0  0  0  0  0
   -5.4190   17.4740  -32.9020 O   0  0  0  0  0  0  0  0  0  0  0  0
   -5.0140   17.4620  -35.3290 O   0  0  0  0  0  0  0  0  0  0  0  0
   -3.6690   19.1780  -33.8160 C   0  0  0  0  0  0  0  0  0  0  0  0
   -2.4230   18.5920  -33.9190 C   0  0  0  0  0  0  0  0  0  0  0  0
   -1.2470   19.2600  -33.6720 C   0  0  0  0  0  0  0  0  0  0  0  0
   -1.2790   20.6040  -33.2970 C   0  0  0  0  0  0  0  0  0  0  0  0
   -2.5320   21.1780  -33.1980 C   0  0  0  0  0  0  0  0  0  0  0  0
   -3.6710   20.4900  -33.4480 N   0  0  0  0  0  0  0  0  0  0  0  0
   -6.3120   21.1470  -32.5820 C   0  0  0  0  0  0  0  0  0  0  0  0
   -6.2580   24.2230  -31.1920 N   0  0  0  0  0  0  0  0  0  0  0  0
   -5.5470   25.2330  -30.6060 C   0  0  0  0  0  0  0  0  0  0  0  0
   -4.5910   24.9530  -29.6840 N   0  0  0  0  0  0  0  0  0  0  0  0
   -1.5650   25.0300  -28.4470 C   0  0  0  0  0  0  0  0  0  0  0  0
   -0.8430   26.0520  -27.8210 C   0  0  0  0  0  0  0  0  0  0  0  0
   -0.1420   27.8640  -22.6310 H   0  0  0  0  0  0  0  0  0  0  0  0
   -0.6060   26.1240  -22.9850 H   0  0  0  0  0  0  0  0  0  0  0  0
    2.9100   25.5310  -23.8040 H   0  0  0  0  0  0  0  0  0  0  0  0
    2.7670   26.6600  -22.4230 H   0  0  0  0  0  0  0  0  0  0  0  0
   -2.6299   26.3054  -24.9726 H   0  0  0  0  0  0  0  0  0  0  0  0
   -3.9009   24.5018  -26.0746 H   0  0  0  0  0  0  0  0  0  0  0  0
   -4.8714   21.6201  -29.6778 H   0  0  0  0  0  0  0  0  0  0  0  0
   -8.5347   22.0867  -30.2558 H   0  0  0  0  0  0  0  0  0  0  0  0
   -9.8300   20.2818  -31.3484 H   0  0  0  0  0  0  0  0  0  0  0  0
   -8.8933   19.0032  -33.2397 H   0  0  0  0  0  0  0  0  0  0  0  0
   -6.9890   19.5420  -35.2200 H   0  0  0  0  0  0  0  0  0  0  0  0
   -2.3683   17.5339  -34.2145 H   0  0  0  0  0  0  0  0  0  0  0  0
   -0.2842   18.7370  -33.7696 H   0  0  0  0  0  0  0  0  0  0  0  0
   -0.3602   21.1732  -33.0922 H   0  0  0  0  0  0  0  0  0  0  0  0
   -2.6071   22.2355  -32.9045 H   0  0  0  0  0  0  0  0  0  0  0  0
   -5.3032   21.3781  -32.9546 H   0  0  0  0  0  0  0  0  0  0  0  0
   -6.9670   24.5460  -31.8840 H   0  0  0  0  0  0  0  0  0  0  0  0
   -5.7507   26.2779  -30.8831 H   0  0  0  0  0  0  0  0  0  0  0  0
   -1.2525   24.6732  -29.4395 H   0  0  0  0  0  0  0  0  0  0  0  0
    0.0320   26.4913  -28.3224 H   0  0  0  0  0  0  0  0  0  0  0  0
  1  2  1  0
  2  3  1  0
  2  4  2  3
  4  5  1  0
  5  6  2  0
  5  7  2  0
  5  8  1  0
  8  9  2  0
  9 10  1  0
 10 11  2  0
 11 12  1  0
 12 13  2  0
 13 14  1  0
 14 15  2  0
 15 16  1  0
 16 17  2  0
 17 18  1  0
 18 19  2  0
 19 20  1  0
 20 21  1  0
 21 22  1  0
 22 23  2  0
 22 24  2  0
 22 25  1  0
 25 26  2  0
 26 27  1  0
 27 28  2  0
 28 29  1  0
 29 30  2  0
 20 31  2  0
 15 32  1  0
 32 33  1  0
 33 34  2  0
 11 35  1  0
 35 36  2  0
 36  8  1  0
 34 13  1  0
 31 16  1  0
 30 25  1  0
  1 37  1  0
  1 38  1  0
  3 39  1  0
  3 40  1  0
  9 41  1  0
 10 42  1  0
 14 43  1  0
 17 44  1  0
 18 45  1  0
 19 46  1  0
 21 47  1  0
 26 48  1  0
 27 49  1  0
 28 50  1  0
 29 51  1  0
 31 52  1  0
 32 53  1  0
 33 54  1  0
 35 55  1  0
 36 56  1  0
M  END
>  <smiles>  (12) 
NC(N)=NS(=O)(=O)c1ccc(N=c2cc(-c3cccc(NS(=O)(=O)c4ccccn4)c3)[nH]cn2)cc1

>  <score_type>  (12) 
oracle

>  <origin>  (12) 
adgpu

>  <m_score__min__energy>  (12) 
-11.039999999999999

>  <m_primary>  (12) 
energy

$$$$
12:0
     RDKit          3D

 42 44  0  0  0  0  0  0  0  0999 V2000
   -2.2686   22.8334  -26.9688 H   0  0  0  0  0  0  0  0  0  0  0  0
   -2.4470   23.4980  -27.8270 C   0  0  0  0  0  0  0  0  0  0  0  0
   -3.1620   23.2190  -28.8900 O   0  0  0  0  0  0  0  0  0  0  0  0
   -3.1210   24.2830  -29.6650 C   0  0  0  0  0  0  0  0  0  0  0  0
   -3.7220   24.3650  -30.8120 N   0  0  0  0  0  0  0  0  0  0  0  0
   -4.6600   23.0640  -31.4690 S   0  0  0  0  0  0  0  0  0  0  0  0
   -5.5890   22.5240  -30.4160 O   0  0  0  0  0  0  0  0  0  0  0  0
   -5.4700   23.5530  -32.6390 O   0  0  0  0  0  0  0  0  0  0  0  0
   -3.5670   21.7930  -32.0070 C   0  0  0  0  0  0  0  0  0  0  0  0
   -2.2350   21.7870  -31.5750 C   0  0  0  0  0  0  0  0  0  0  0  0
   -1.8700   22.5853  -30.9121 H   0  0  0  0  0  0  0  0  0  0  0  0
   -1.3690   20.7710  -31.9830 C   0  0  0  0  0  0  0  0  0  0  0  0
   -0.3212   20.7751  -31.6481 H   0  0  0  0  0  0  0  0  0  0  0  0
   -1.8310   19.7490  -32.8160 C   0  0  0  0  0  0  0  0  0  0  0  0
   -1.1452   18.9509  -33.1364 H   0  0  0  0  0  0  0  0  0  0  0  0
   -3.1720   19.7370  -33.2470 C   0  0  0  0  0  0  0  0  0  0  0  0
   -3.6930   18.6970  -34.0850 N   0  0  0  0  0  0  0  0  0  0  0  0
   -5.1060   17.7450  -33.7400 S   0  0  0  0  0  0  0  0  0  0  0  0
   -5.5870   17.0970  -35.0100 O   0  0  0  0  0  0  0  0  0  0  0  0
   -4.7440   16.6670  -32.7610 O   0  0  0  0  0  0  0  0  0  0  0  0
   -6.3660   18.7510  -33.0300 C   0  0  0  0  0  0  0  0  0  0  0  0
   -6.6920   19.9890  -33.6030 C   0  0  0  0  0  0  0  0  0  0  0  0
   -6.1387   20.3498  -34.4826 H   0  0  0  0  0  0  0  0  0  0  0  0
   -7.7190   20.7650  -33.0580 C   0  0  0  0  0  0  0  0  0  0  0  0
   -7.9646   21.7397  -33.5048 H   0  0  0  0  0  0  0  0  0  0  0  0
   -8.4360   20.3080  -31.9470 C   0  0  0  0  0  0  0  0  0  0  0  0
   -9.5280   21.1520  -31.3570 C   0  0  0  0  0  0  0  0  0  0  0  0
   -9.4722   21.1089  -30.2593 H   0  0  0  0  0  0  0  0  0  0  0  0
   -9.4068   22.1935  -31.6897 H   0  0  0  0  0  0  0  0  0  0  0  0
  -10.5053   20.7722  -31.6897 H   0  0  0  0  0  0  0  0  0  0  0  0
   -8.0850   19.0830  -31.3580 C   0  0  0  0  0  0  0  0  0  0  0  0
   -8.6216   18.7329  -30.4638 H   0  0  0  0  0  0  0  0  0  0  0  0
   -7.0590   18.3060  -31.9000 C   0  0  0  0  0  0  0  0  0  0  0  0
   -6.7958   17.3432  -31.4377 H   0  0  0  0  0  0  0  0  0  0  0  0
   -4.0310   20.7620  -32.8380 C   0  0  0  0  0  0  0  0  0  0  0  0
   -5.0795   20.7600  -33.1706 H   0  0  0  0  0  0  0  0  0  0  0  0
   -2.3890   25.2960  -29.1550 N   0  0  0  0  0  0  0  0  0  0  0  0
   -1.9590   24.7810  -27.9840 C   0  0  0  0  0  0  0  0  0  0  0  0
   -1.1180   25.5290  -27.0030 C   0  0  0  0  0  0  0  0  0  0  0  0
   -1.4206   25.2598  -25.9803 H   0  0  0  0  0  0  0  0  0  0  0  0
   -0.0600   25.2680  -27.1530 H   0  0  0  0  0  0  0  0  0  0  0  0
   -1.2538   26.6102  -27.1530 H   0  0  0  0  0  0  0  0  0  0  0  0
  1  2  1  0
  2  3  1  0
  3  4  1  0
  4  5  2  0
  5  6  1  0
  6  7  2  0
  6  8  2  0
  6  9  1  0
  9 10  2  0
 10 11  1  0
 10 12  1  0
 12 13  1  0
 12 14  2  0
 14 15  1  0
 14 16  1  0
 16 17  1  0
 17 18  1  0
 18 19  2  0
 18 20  2  0
 18 21  1  0
 21 22  2  0
 22 23  1  0
 22 24  1  0
 24 25  1  0
 24 26  2  0
 26 27  1  0
 27 28  1  0
 27 29  1  0
 27 30  1  0
 26 31  1  0
 31 32  1  0
 31 33  2  0
 33 34  1  0
 16 35  2  0
 35 36  1  0
  4 37  1  0
 37 38  1  0
 38 39  1  0
 39 40  1  0
 39 41  1  0
 39 42  1  0
 38  2  2  0
 35  9  1  0
 33 21  1  0
M  CHG  2  17  -1  37  -1
M  END
>  <UniqueID>  (13) 
12

>  <SMILES>  (13) 
Cc1ccc(S(=O)(=O)[N-]c2cccc(S(=O)(=O)/N=c3/[n-]c(C)co3)c2)cc1

>  <Energy>  (13) 
78.46583214993578

>  <Genealogy>  (13) 
Cc1ccc(S(=O)(=O)[N-]c2cccc(S(=O)(=O)N=c3[n-]c(C)co3)c2)cc1 (protonated)
Cc1ccc(S(=O)(=O)[N-]c2cccc(S(=O)(=O)/N=c3/[n-]c(C)co3)c2)cc1 (cis-trans isomerization)
Cc1ccc(S(=O)(=O)[N-]c2cccc(S(=O)(=O)/N=c3/[n-]c(C)co3)c2)cc1 (3D coordinates assigned)
Cc1ccc(S(=O)(=O)[N-]c2cccc(S(=O)(=O)/N=c3/[n-]c(C)co3)c2)cc1 (optimized conformer: 78.46583214993578 kcal/mol)

>  <smiles>  (13) 
Cc1ccc(S(=O)(=O)Nc2cccc(S(=O)(=O)N=c3[nH]c(C)co3)c2)cc1

>  <score_type>  (13) 
oracle

>  <origin>  (13) 
adgpu

>  <m_score__min__energy>  (13) 
-10.44

>  <m_primary>  (13) 
energy

$$$$
13:0
     RDKit          3D

 32 35  0  0  0  0  0  0  0  0999 V2000
   -3.8350   25.6730  -30.8170 O   0  0  0  0  0  0  0  0  0  0  0  0
   -3.5020   24.7480  -29.8340 C   0  0  0  0  0  0  0  0  0  0  0  0
   -2.4330   24.8700  -28.9670 C   0  0  0  0  0  0  0  0  0  0  0  0
   -2.4350   23.7220  -28.1930 C   0  0  0  0  0  0  0  0  0  0  0  0
   -3.5060   22.9650  -28.6320 C   0  0  0  0  0  0  0  0  0  0  0  0
   -3.8700   21.7210  -28.1240 O   0  0  0  0  0  0  0  0  0  0  0  0
   -4.1660   23.5950  -29.6220 N   0  0  0  0  0  0  0  0  0  0  0  0
   -5.2930   23.0960  -30.3580 C   0  0  0  0  0  0  0  0  0  0  0  0
   -5.2270   21.8200  -30.9390 C   0  0  0  0  0  0  0  0  0  0  0  0
   -6.3100   21.3040  -31.6740 C   0  0  0  0  0  0  0  0  0  0  0  0
   -6.2190   19.9580  -32.2870 C   0  0  0  0  0  0  0  0  0  0  0  0
   -5.1500   19.5460  -33.0180 N   0  0  0  0  0  0  0  0  0  0  0  0
   -5.3220   18.2760  -33.4620 C   0  0  0  0  0  0  0  0  0  0  0  0
   -4.4080   17.6130  -34.2180 N   0  0  0  0  0  0  0  0  0  0  0  0
   -4.6590   16.3330  -34.6240 C   0  0  0  0  0  0  0  0  0  0  0  0
   -5.8610   15.6910  -34.2660 C   0  0  0  0  0  0  0  0  0  0  0  0
   -6.8080   16.3710  -33.4850 C   0  0  0  0  0  0  0  0  0  0  0  0
   -6.5080   17.6710  -33.0960 C   0  0  0  0  0  0  0  0  0  0  0  0
   -7.4070   18.7440  -32.1750 S   0  0  0  0  0  0  0  0  0  0  0  0
   -7.4690   22.0860  -31.8130 C   0  0  0  0  0  0  0  0  0  0  0  0
   -7.5460   23.3500  -31.2260 C   0  0  0  0  0  0  0  0  0  0  0  0
   -6.4680   23.8600  -30.4960 C   0  0  0  0  0  0  0  0  0  0  0  0
   -6.6430   25.4250  -29.7120 Cl  0  0  0  0  0  0  0  0  0  0  0  0
   -1.7243   25.7089  -28.9044 H   0  0  0  0  0  0  0  0  0  0  0  0
   -1.7277   23.4641  -27.3910 H   0  0  0  0  0  0  0  0  0  0  0  0
   -3.8260   20.8900  -28.7020 H   0  0  0  0  0  0  0  0  0  0  0  0
   -4.3162   21.2152  -30.8180 H   0  0  0  0  0  0  0  0  0  0  0  0
   -3.9166   15.7992  -35.2354 H   0  0  0  0  0  0  0  0  0  0  0  0
   -6.0564   14.6605  -34.5975 H   0  0  0  0  0  0  0  0  0  0  0  0
   -7.7538   15.8923  -33.1913 H   0  0  0  0  0  0  0  0  0  0  0  0
   -8.3225   21.6990  -32.3890 H   0  0  0  0  0  0  0  0  0  0  0  0
   -8.4615   23.9493  -31.3385 H   0  0  0  0  0  0  0  0  0  0  0  0
  1  2  1  0
  2  3  2  0
  3  4  1  0
  4  5  2  0
  5  6  1  0
  5  7  1  0
  7  8  1  0
  8  9  2  0
  9 10  1  0
 10 11  1  0
 11 12  2  0
 12 13  1  0
 13 14  2  0
 14 15  1  0
 15 16  2  0
 16 17  1  0
 17 18  2  0
 18 19  1  0
 10 20  2  0
 20 21  1  0
 21 22  2  0
 22 23  1  0
  7  2  1  0
 22  8  1  0
 19 11  1  0
 18 13  1  0
  3 24  1  0
  4 25  1  0
  6 26  1  0
  9 27  1  0
 15 28  1  0
 16 29  1  0
 17 30  1  0
 20 31  1  0
 21 32  1  0
M  CHG  1   1  -1
M  END
>  <UniqueID>  (14) 
13

>  <SMILES>  (14) 
[O-]c1ccc(O)n1-c1cc(-c2nc3ncccc3s2)ccc1Cl

>  <Energy>  (14) 
108.40773634799343

>  <Genealogy>  (14) 
[O-]c1ccc(O)n1-c1cc(-c2nc3ncccc3s2)ccc1Cl (protonated)
[O-]c1ccc(O)n1-c1cc(-c2nc3ncccc3s2)ccc1Cl (3D coordinates assigned)
[O-]c1ccc(O)n1-c1cc(-c2nc3ncccc3s2)ccc1Cl (optimized conformer: 108.40773634799343 kcal/mol)

>  <smiles>  (14) 
Oc1ccc(O)n1-c1cc(-c2nc3ncccc3s2)ccc1Cl

>  <score_type>  (14) 
oracle

>  <origin>  (14) 
adgpu

>  <m_score__min__energy>  (14) 
-10.74

>  <m_primary>  (14) 
energy

$$$$
14:0
     RDKit          3D

 48 50  0  0  0  0  0  0  0  0999 V2000
   -3.4300   19.5910  -33.0440 C   0  0  0  0  0  0  0  0  0  0  0  0
   -4.6760   19.9140  -33.6510 O   0  0  0  0  0  0  0  0  0  0  0  0
   -5.9260   19.4410  -33.2170 C   0  0  0  0  0  0  0  0  0  0  0  0
   -6.3680   18.1450  -33.5400 C   0  0  0  0  0  0  0  0  0  0  0  0
   -7.5920   17.6770  -33.0700 C   0  0  0  0  0  0  0  0  0  0  0  0
   -8.3970   18.4890  -32.2760 C   0  0  0  0  0  0  0  0  0  0  0  0
   -7.9870   19.7940  -31.9450 C   0  0  0  0  0  0  0  0  0  0  0  0
   -8.7970   20.6370  -31.1650 O   0  0  0  0  0  0  0  0  0  0  0  0
   -9.8640   21.4340  -31.6690 C   0  0  0  0  0  0  0  0  0  0  0  0
   -6.7450   20.2770  -32.4220 C   0  0  0  0  0  0  0  0  0  0  0  0
   -6.3100   21.6530  -32.0740 C   0  0  0  0  0  0  0  0  0  0  0  0
   -5.1320   21.9340  -31.4730 N   0  0  0  0  0  0  0  0  0  0  0  0
   -4.9700   23.2650  -31.2320 C   0  0  0  0  0  0  0  0  0  0  0  0
   -3.7510   23.7740  -30.5720 C   0  0  0  0  0  0  0  0  0  0  0  0
   -3.6000   25.0200  -30.4560 O   0  0  0  0  0  0  0  0  0  0  0  0
   -2.7520   22.8790  -30.0550 N   0  0  0  0  0  0  0  0  0  0  0  0
   -1.5000   23.3620  -29.4600 C   0  0  1  0  0  0  0  0  0  0  0  0
   -1.8090   24.2660  -28.2540 C   0  0  0  0  0  0  0  0  0  0  0  0
   -2.0590   25.6380  -28.6860 N   0  0  0  0  0  0  0  0  0  0  0  0
   -0.6160   22.1880  -29.0740 C   0  0  0  0  0  0  0  0  0  0  0  0
   -0.5450   21.0570  -29.9080 C   0  0  0  0  0  0  0  0  0  0  0  0
    0.2640   19.9710  -29.5600 C   0  0  0  0  0  0  0  0  0  0  0  0
    1.0070   20.0010  -28.3780 C   0  0  0  0  0  0  0  0  0  0  0  0
    0.9460   21.1180  -27.5430 C   0  0  0  0  0  0  0  0  0  0  0  0
    0.1390   22.2070  -27.8850 C   0  0  0  0  0  0  0  0  0  0  0  0
   -6.0410   24.0650  -31.6330 C   0  0  0  0  0  0  0  0  0  0  0  0
   -7.2050   23.0600  -32.3080 S   0  0  0  0  0  0  0  0  0  0  0  0
   -3.5372   19.6188  -31.9496 H   0  0  0  0  0  0  0  0  0  0  0  0
   -3.1202   18.5829  -33.3566 H   0  0  0  0  0  0  0  0  0  0  0  0
   -2.6695   20.3217  -33.3566 H   0  0  0  0  0  0  0  0  0  0  0  0
   -5.7412   17.4960  -34.1692 H   0  0  0  0  0  0  0  0  0  0  0  0
   -7.9247   16.6606  -33.3273 H   0  0  0  0  0  0  0  0  0  0  0  0
   -9.3599   18.1081  -31.9048 H   0  0  0  0  0  0  0  0  0  0  0  0
  -10.4328   21.8589  -30.8288 H   0  0  0  0  0  0  0  0  0  0  0  0
   -9.4542   22.2490  -32.2838 H   0  0  0  0  0  0  0  0  0  0  0  0
  -10.5292   20.8098  -32.2838 H   0  0  0  0  0  0  0  0  0  0  0  0
   -2.9910   21.8690  -29.9470 H   0  0  0  0  0  0  0  0  0  0  0  0
   -0.9488   23.9624  -30.1987 H   0  0  0  0  0  0  0  0  0  0  0  0
   -2.7001   23.8831  -27.7351 H   0  0  0  0  0  0  0  0  0  0  0  0
   -0.9412   24.2614  -27.5780 H   0  0  0  0  0  0  0  0  0  0  0  0
   -3.0550   25.8660  -28.4600 H   0  0  0  0  0  0  0  0  0  0  0  0
   -1.9750   25.6740  -29.7290 H   0  0  0  0  0  0  0  0  0  0  0  0
   -1.1295   21.0270  -30.8394 H   0  0  0  0  0  0  0  0  0  0  0  0
    0.3153   19.0914  -30.2185 H   0  0  0  0  0  0  0  0  0  0  0  0
    1.6405   19.1442  -28.1048 H   0  0  0  0  0  0  0  0  0  0  0  0
    1.5343   21.1413  -26.6138 H   0  0  0  0  0  0  0  0  0  0  0  0
    0.0933   23.0835  -27.2220 H   0  0  0  0  0  0  0  0  0  0  0  0
   -6.1103   25.1576  -31.5261 H   0  0  0  0  0  0  0  0  0  0  0  0
  1  2  1  0
  2  3  1  0
  3  4  2  0
  4  5  1  0
  5  6  2  0
  6  7  1  0
  7  8  1  0
  8  9  1  0
  7 10  2  0
 10 11  1  0
 11 12  2  0
 12 13  1  0
 13 14  1  0
 14 15  2  0
 14 16  1  0
 16 17  1  0
 17 18  1  0
 18 19  1  0
 17 20  1  0
 20 21  2  0
 21 22  1  0
 22 23  2  0
 23 24  1  0
 24 25  2  0
 13 26  2  0
 26 27  1  0
 10  3  1  0
 27 11  1  0
 25 20  1  0
  1 28  1  0
  1 29  1  0
  1 30  1  0
  4 31  1  0
  5 32  1  0
  6 33  1  0
  9 34  1  0
  9 35  1  0
  9 36  1  0
 16 37  1  0
 17 38  1  6
 18 39  1  0
 18 40  1  0
 19 41  1  0
 19 42  1  0
 21 43  1  0
 22 44  1  0
 23 45  1  0
 24 46  1  0
 25 47  1  0
 26 48  1  0
M  END
>  <UniqueID>  (15) 
14

>  <SMILES>  (15) 
COc1cccc(OC)c1-c1nc(C(=O)N[C@@H](CN)c2ccccc2)cs1

>  <Energy>  (15) 
81.18006875246638

>  <Genealogy>  (15) 
COc1cccc(OC)c1-c1nc(C(=O)N[C@@H](CN)c2ccccc2)cs1 (chirality)
COc1cccc(OC)c1-c1nc(C(=O)N[C@@H](CN)c2ccccc2)cs1 (3D coordinates assigned)
COc1cccc(OC)c1-c1nc(C(=O)N[C@@H](CN)c2ccccc2)cs1 (optimized conformer: 81.18006875246638 kcal/mol)

>  <smiles>  (15) 
COc1cccc(OC)c1-c1nc(C(=O)NC(CN)c2ccccc2)cs1

>  <score_type>  (15) 
oracle

>  <origin>  (15) 
adgpu

>  <m_score__min__energy>  (15) 
-8.2300000000000004

>  <m_primary>  (15) 
energy

$$$$
15:0
     RDKit          3D

 57 60  0  0  0  0  0  0  0  0999 V2000
   -3.7930   25.1720  -30.3680 O   0  0  0  0  0  0  0  0  0  0  0  0
   -4.2030   24.1380  -29.7720 C   0  0  0  0  0  0  0  0  0  0  0  0
   -3.9000   23.9520  -28.3790 N   0  0  0  0  0  0  0  0  0  0  0  0
   -2.8070   24.6010  -27.7060 C   0  0  0  0  0  0  0  0  0  0  0  0
   -3.0350   25.2430  -26.4800 C   0  0  0  0  0  0  0  0  0  0  0  0
   -1.9860   25.8650  -25.7990 C   0  0  0  0  0  0  0  0  0  0  0  0
   -0.6890   25.8440  -26.3280 C   0  0  0  0  0  0  0  0  0  0  0  0
    0.6370   26.6360  -25.4730 S   0  0  0  0  0  0  0  0  0  0  0  0
    0.2050   26.9360  -24.0640 O   0  0  0  0  0  0  0  0  0  0  0  0
    0.9540   27.9410  -26.1500 O   0  0  0  0  0  0  0  0  0  0  0  0
    2.0720   25.6410  -25.4350 N   0  0  0  0  0  0  0  0  0  0  0  0
    3.0620   26.1250  -26.4070 C   0  0  0  0  0  0  0  0  0  0  0  0
    4.3130   25.2200  -26.3780 C   0  0  0  0  0  0  0  0  0  0  0  0
    4.2720   24.2810  -25.3160 O   0  0  0  0  0  0  0  0  0  0  0  0
    4.0410   24.9510  -24.0920 C   0  0  0  0  0  0  0  0  0  0  0  0
    2.6530   25.6250  -24.0820 C   0  0  0  0  0  0  0  0  0  0  0  0
   -0.4500   25.1830  -27.5410 C   0  0  0  0  0  0  0  0  0  0  0  0
   -1.4990   24.5620  -28.2240 C   0  0  0  0  0  0  0  0  0  0  0  0
   -5.0360   23.1540  -30.5060 C   0  0  0  0  0  0  0  0  0  0  0  0
   -4.4530   22.2310  -31.3930 C   0  0  0  0  0  0  0  0  0  0  0  0
   -5.2470   21.3100  -32.0810 C   0  0  0  0  0  0  0  0  0  0  0  0
   -6.6360   21.2940  -31.8940 C   0  0  0  0  0  0  0  0  0  0  0  0
   -7.6330   20.1140  -32.7450 S   0  0  0  0  0  0  0  0  0  0  0  0
   -7.2150   20.0620  -34.1880 O   0  0  0  0  0  0  0  0  0  0  0  0
   -9.0700   20.5560  -32.6970 O   0  0  0  0  0  0  0  0  0  0  0  0
   -7.4980   18.5140  -32.0460 N   0  0  0  0  0  0  0  0  0  0  0  0
   -7.5880   17.4750  -33.0780 C   0  0  0  0  0  0  0  0  0  0  0  0
   -6.1780   17.0350  -33.4400 C   0  0  0  0  0  0  0  0  0  0  0  0
   -5.2800   17.5840  -32.3490 C   0  0  0  0  0  0  0  0  0  0  0  0
   -6.1980   18.3290  -31.3910 C   0  0  0  0  0  0  0  0  0  0  0  0
   -7.2240   22.2230  -31.0270 C   0  0  0  0  0  0  0  0  0  0  0  0
   -6.4320   23.1460  -30.3390 C   0  0  0  0  0  0  0  0  0  0  0  0
   -4.5760   23.4070  -27.7980 H   0  0  0  0  0  0  0  0  0  0  0  0
   -4.0480   25.2568  -26.0514 H   0  0  0  0  0  0  0  0  0  0  0  0
   -2.1792   26.3736  -24.8430 H   0  0  0  0  0  0  0  0  0  0  0  0
    2.6223   26.1072  -27.4151 H   0  0  0  0  0  0  0  0  0  0  0  0
    3.3528   27.1533  -26.1463 H   0  0  0  0  0  0  0  0  0  0  0  0
    4.3772   24.6742  -27.3309 H   0  0  0  0  0  0  0  0  0  0  0  0
    5.1915   25.8640  -26.2248 H   0  0  0  0  0  0  0  0  0  0  0  0
    4.0932   24.2235  -23.2686 H   0  0  0  0  0  0  0  0  0  0  0  0
    4.8086   25.7292  -23.9690 H   0  0  0  0  0  0  0  0  0  0  0  0
    1.9855   25.0669  -23.4090 H   0  0  0  0  0  0  0  0  0  0  0  0
    2.7662   26.6622  -23.7336 H   0  0  0  0  0  0  0  0  0  0  0  0
    0.5679   25.1531  -27.9570 H   0  0  0  0  0  0  0  0  0  0  0  0
   -1.3014   24.0398  -29.1718 H   0  0  0  0  0  0  0  0  0  0  0  0
   -3.3637   22.2343  -31.5461 H   0  0  0  0  0  0  0  0  0  0  0  0
   -4.7797   20.5938  -32.7729 H   0  0  0  0  0  0  0  0  0  0  0  0
   -8.1576   16.6166  -32.6923 H   0  0  0  0  0  0  0  0  0  0  0  0
   -8.1012   17.8691  -33.9676 H   0  0  0  0  0  0  0  0  0  0  0  0
   -6.1156   15.9372  -33.4710 H   0  0  0  0  0  0  0  0  0  0  0  0
   -5.8811   17.4050  -34.4325 H   0  0  0  0  0  0  0  0  0  0  0  0
   -4.7664   16.7633  -31.8268 H   0  0  0  0  0  0  0  0  0  0  0  0
   -4.5020   18.2444  -32.7596 H   0  0  0  0  0  0  0  0  0  0  0  0
   -6.3266   17.7436  -30.4686 H   0  0  0  0  0  0  0  0  0  0  0  0
   -5.7625   19.3054  -31.1322 H   0  0  0  0  0  0  0  0  0  0  0  0
   -8.3150   22.2263  -30.8868 H   0  0  0  0  0  0  0  0  0  0  0  0
   -6.9045   23.8722  -29.6613 H   0  0  0  0  0  0  0  0  0  0  0  0
  1  2  2  0
  2  3  1  0
  3  4  1  0
  4  5  2  0
  5  6  1  0
  6  7  2  0
  7  8  1  0
  8  9  2  0
  8 10  2  0
  8 11  1  0
 11 12  1  0
 12 13  1  0
 13 14  1  0
 14 15  1  0
 15 16  1  0
  7 17  1  0
 17 18  2  0
  2 19  1  0
 19 20  2  0
 20 21  1  0
 21 22  2  0
 22 23  1  0
 23 24  2  0
 23 25  2  0
 23 26  1  0
 26 27  1  0
 27 28  1  0
 28 29  1  0
 29 30  1  0
 22 31  1  0
 31 32  2  0
 18  4  1  0
 32 19  1  0
 16 11  1  0
 30 26  1  0
  3 33  1  0
  5 34  1  0
  6 35  1  0
 12 36  1  0
 12 37  1  0
 13 38  1  0
 13 39  1  0
 15 40  1  0
 15 41  1  0
 16 42  1  0
 16 43  1  0
 17 44  1  0
 18 45  1  0
 20 46  1  0
 21 47  1  0
 27 48  1  0
 27 49  1  0
 28 50  1  0
 28 51  1  0
 29 52  1  0
 29 53  1  0
 30 54  1  0
 30 55  1  0
 31 56  1  0
 32 57  1  0
M  END
>  <UniqueID>  (16) 
15

>  <SMILES>  (16) 
O=C(Nc1ccc(S(=O)(=O)N2CCOCC2)cc1)c1ccc(S(=O)(=O)N2CCCC2)cc1

>  <Energy>  (16) 
71.70996054411401

>  <Genealogy>  (16) 
O=C(Nc1ccc(S(=O)(=O)N2CCOCC2)cc1)c1ccc(S(=O)(=O)N2CCCC2)cc1 (3D coordinates assigned)
O=C(Nc1ccc(S(=O)(=O)N2CCOCC2)cc1)c1ccc(S(=O)(=O)N2CCCC2)cc1 (nonaromatic ring conformer: 71.70996054411401 kcal/mol)

>  <smiles>  (16) 
O=C(Nc1ccc(S(=O)(=O)N2CCOCC2)cc1)c1ccc(S(=O)(=O)N2CCCC2)cc1

>  <score_type>  (16) 
oracle

>  <origin>  (16) 
adgpu

>  <m_score__min__energy>  (16) 
-9.5899999999999999

>  <m_primary>  (16) 
energy

$$$$
16:0
     RDKit          3D

 41 43  0  0  0  0  0  0  0  0999 V2000
   -1.4860   20.2520  -28.7020 C   0  0  0  0  0  0  0  0  0  0  0  0
   -0.7430   21.0060  -29.6550 O   0  0  0  0  0  0  0  0  0  0  0  0
   -0.7210   20.7480  -31.0350 C   0  0  0  0  0  0  0  0  0  0  0  0
    0.2000   19.8480  -31.6060 C   0  0  0  0  0  0  0  0  0  0  0  0
    0.1910   19.6050  -32.9800 C   0  0  0  0  0  0  0  0  0  0  0  0
   -0.7380   20.2460  -33.7980 C   0  0  0  0  0  0  0  0  0  0  0  0
   -1.6560   21.1410  -33.2460 C   0  0  0  0  0  0  0  0  0  0  0  0
   -1.6440   21.4170  -31.8660 C   0  0  0  0  0  0  0  0  0  0  0  0
   -2.5940   22.3310  -31.2890 N   0  0  0  0  0  0  0  0  0  0  0  0
   -3.8520   22.6690  -31.9000 C   0  0  0  0  0  0  0  0  0  0  0  0
   -4.0810   22.3370  -33.0950 O   0  0  0  0  0  0  0  0  0  0  0  0
   -4.8630   23.4550  -31.1500 C   0  0  0  0  0  0  0  0  0  0  0  0
   -6.2260   23.1210  -31.2640 C   0  0  0  0  0  0  0  0  0  0  0  0
   -7.1950   23.8380  -30.5560 C   0  0  0  0  0  0  0  0  0  0  0  0
   -6.8180   24.8940  -29.7270 C   0  0  0  0  0  0  0  0  0  0  0  0
   -5.4720   25.2390  -29.6040 C   0  0  0  0  0  0  0  0  0  0  0  0
   -4.4910   24.5310  -30.3090 C   0  0  0  0  0  0  0  0  0  0  0  0
   -3.1200   24.8860  -30.1320 N   0  0  0  0  0  0  0  0  0  0  0  0
   -2.1670   24.1300  -28.9040 S   0  0  0  0  0  0  0  0  0  0  0  0
   -2.9030   22.9310  -28.3760 O   0  0  0  0  0  0  0  0  0  0  0  0
   -0.8550   23.6780  -29.4790 O   0  0  0  0  0  0  0  0  0  0  0  0
   -1.8930   25.2640  -27.5960 C   0  0  0  0  0  0  0  0  0  0  0  0
   -2.4570   25.1890  -26.3320 C   0  0  0  0  0  0  0  0  0  0  0  0
   -2.0060   26.2000  -25.4750 C   0  0  0  0  0  0  0  0  0  0  0  0
   -1.0830   27.0590  -26.0610 C   0  0  0  0  0  0  0  0  0  0  0  0
   -0.8250   26.5600  -27.6470 S   0  0  0  0  0  0  0  0  0  0  0  0
   -1.1902   20.5522  -27.6859 H   0  0  0  0  0  0  0  0  0  0  0  0
   -2.5605   20.4412  -28.8420 H   0  0  0  0  0  0  0  0  0  0  0  0
   -1.2811   19.1804  -28.8420 H   0  0  0  0  0  0  0  0  0  0  0  0
    0.9308   19.3336  -30.9647 H   0  0  0  0  0  0  0  0  0  0  0  0
    0.9185   18.9062  -33.4186 H   0  0  0  0  0  0  0  0  0  0  0  0
   -0.7477   20.0463  -34.8797 H   0  0  0  0  0  0  0  0  0  0  0  0
   -2.3947   21.6345  -33.8947 H   0  0  0  0  0  0  0  0  0  0  0  0
   -2.3040   22.8750  -30.4460 H   0  0  0  0  0  0  0  0  0  0  0  0
   -6.5310   22.2889  -31.9156 H   0  0  0  0  0  0  0  0  0  0  0  0
   -8.2571   23.5686  -30.6531 H   0  0  0  0  0  0  0  0  0  0  0  0
   -7.5825   25.4553  -29.1697 H   0  0  0  0  0  0  0  0  0  0  0  0
   -5.1793   26.0727  -28.9489 H   0  0  0  0  0  0  0  0  0  0  0  0
   -3.1819   24.4172  -26.0340 H   0  0  0  0  0  0  0  0  0  0  0  0
   -2.3497   26.3050  -24.4354 H   0  0  0  0  0  0  0  0  0  0  0  0
   -0.6029   27.9189  -25.5709 H   0  0  0  0  0  0  0  0  0  0  0  0
  1  2  1  0
  2  3  1  0
  3  4  2  0
  4  5  1  0
  5  6  2  0
  6  7  1  0
  7  8  2  0
  8  9  1  0
  9 10  1  0
 10 11  2  0
 10 12  1  0
 12 13  2  0
 13 14  1  0
 14 15  2  0
 15 16  1  0
 16 17  2  0
 17 18  1  0
 18 19  1  0
 19 20  2  0
 19 21  2  0
 19 22  1  0
 22 23  2  0
 23 24  1  0
 24 25  2  0
 25 26  1  0
  8  3  1  0
 17 12  1  0
 26 22  1  0
  1 27  1  0
  1 28  1  0
  1 29  1  0
  4 30  1  0
  5 31  1  0
  6 32  1  0
  7 33  1  0
  9 34  1  0
 13 35  1  0
 14 36  1  0
 15 37  1  0
 16 38  1  0
 23 39  1  0
 24 40  1  0
 25 41  1  0
M  CHG  1  18  -1
M  END
>  <UniqueID>  (17) 
16

>  <SMILES>  (17) 
COc1ccccc1NC(=O)c1ccccc1[N-]S(=O)(=O)c1cccs1

>  <Energy>  (17) 
82.06001159814484

>  <Genealogy>  (17) 
COc1ccccc1NC(=O)c1ccccc1[N-]S(=O)(=O)c1cccs1 (protonated)
COc1ccccc1NC(=O)c1ccccc1[N-]S(=O)(=O)c1cccs1 (3D coordinates assigned)
COc1ccccc1NC(=O)c1ccccc1[N-]S(=O)(=O)c1cccs1 (optimized conformer: 82.06001159814484 kcal/mol)

>  <smiles>  (17) 
COc1ccccc1NC(=O)c1ccccc1NS(=O)(=O)c1cccs1

>  <score_type>  (17) 
oracle

>  <origin>  (17) 
adgpu

>  <m_score__min__energy>  (17) 
-8.3300000000000001

>  <m_primary>  (17) 
energy

$$$$
17:0
     RDKit          3D

 51 53  0  0  0  0  0  0  0  0999 V2000
   -8.3540   20.3310  -31.7370 C   0  0  0  0  0  0  0  0  0  0  0  0
   -7.5570   20.9950  -32.7140 O   0  0  0  0  0  0  0  0  0  0  0  0
   -6.1590   21.1180  -32.6510 C   0  0  0  0  0  0  0  0  0  0  0  0
   -5.5330   22.2170  -32.0330 C   0  0  0  0  0  0  0  0  0  0  0  0
   -4.1310   22.2970  -31.9650 C   0  0  0  0  0  0  0  0  0  0  0  0
   -3.4780   23.4200  -31.3480 N   0  0  0  0  0  0  0  0  0  0  0  0
   -4.0270   24.2470  -30.3150 C   0  0  0  0  0  0  0  0  0  0  0  0
   -4.0610   25.5010  -30.4610 O   0  0  0  0  0  0  0  0  0  0  0  0
   -4.6230   23.5990  -29.0820 C   0  0  0  0  0  0  0  0  0  0  0  0
   -4.5940   24.5210  -27.8410 C   0  0  0  0  0  0  0  0  0  0  0  0
   -3.2000   24.5850  -27.1740 C   0  0  0  0  0  0  0  0  0  0  0  0
   -2.1740   23.9450  -28.0170 N   0  0  0  0  0  0  0  0  0  0  0  0
   -0.5970   24.1430  -27.2950 S   0  0  0  0  0  0  0  0  0  0  0  0
   -0.1600   22.8500  -26.6620 O   0  0  0  0  0  0  0  0  0  0  0  0
    0.4050   24.5390  -28.3450 O   0  0  0  0  0  0  0  0  0  0  0  0
   -0.6720   25.4190  -26.0850 C   0  0  0  0  0  0  0  0  0  0  0  0
   -0.8030   26.7650  -26.4660 C   0  0  0  0  0  0  0  0  0  0  0  0
   -0.8560   27.7650  -25.4880 C   0  0  0  0  0  0  0  0  0  0  0  0
   -0.7800   27.4240  -24.1300 C   0  0  0  0  0  0  0  0  0  0  0  0
   -0.6490   26.0840  -23.7490 C   0  0  0  0  0  0  0  0  0  0  0  0
   -0.5940   25.0840  -24.7230 C   0  0  0  0  0  0  0  0  0  0  0  0
   -2.4670   22.5120  -28.2040 C   0  0  0  0  0  0  0  0  0  0  0  0
   -3.8970   22.2810  -28.7450 C   0  0  0  0  0  0  0  0  0  0  0  0
   -3.3450   21.2970  -32.5580 C   0  0  0  0  0  0  0  0  0  0  0  0
   -1.9470   21.4200  -32.4980 O   0  0  0  0  0  0  0  0  0  0  0  0
   -1.1830   21.3470  -31.2990 C   0  0  0  0  0  0  0  0  0  0  0  0
   -3.9730   20.2020  -33.1840 C   0  0  0  0  0  0  0  0  0  0  0  0
   -5.3680   20.1110  -33.2240 C   0  0  0  0  0  0  0  0  0  0  0  0
   -6.1160   18.7270  -34.0090 Cl  0  0  0  0  0  0  0  0  0  0  0  0
   -8.0128   20.6153  -30.7306 H   0  0  0  0  0  0  0  0  0  0  0  0
   -9.4071   20.6226  -31.8631 H   0  0  0  0  0  0  0  0  0  0  0  0
   -8.2573   19.2425  -31.8631 H   0  0  0  0  0  0  0  0  0  0  0  0
   -6.1464   23.0205  -31.5993 H   0  0  0  0  0  0  0  0  0  0  0  0
   -5.6757   23.3972  -29.3291 H   0  0  0  0  0  0  0  0  0  0  0  0
   -4.8823   25.5363  -28.1508 H   0  0  0  0  0  0  0  0  0  0  0  0
   -5.2954   24.1048  -27.1029 H   0  0  0  0  0  0  0  0  0  0  0  0
   -2.9269   25.6386  -27.0146 H   0  0  0  0  0  0  0  0  0  0  0  0
   -3.2480   24.0467  -26.2159 H   0  0  0  0  0  0  0  0  0  0  0  0
   -0.8638   27.0325  -27.5312 H   0  0  0  0  0  0  0  0  0  0  0  0
   -0.9574   28.8193  -25.7850 H   0  0  0  0  0  0  0  0  0  0  0  0
   -0.8234   28.2112  -23.3629 H   0  0  0  0  0  0  0  0  0  0  0  0
   -0.5894   25.8181  -22.6833 H   0  0  0  0  0  0  0  0  0  0  0  0
   -0.4893   24.0310  -24.4225 H   0  0  0  0  0  0  0  0  0  0  0  0
   -1.7443   22.0917  -28.9188 H   0  0  0  0  0  0  0  0  0  0  0  0
   -2.3895   22.0178  -27.2243 H   0  0  0  0  0  0  0  0  0  0  0  0
   -3.8341   21.6700  -29.6575 H   0  0  0  0  0  0  0  0  0  0  0  0
   -4.4738   21.7747  -27.9570 H   0  0  0  0  0  0  0  0  0  0  0  0
   -1.8557   21.4113  -30.4311 H   0  0  0  0  0  0  0  0  0  0  0  0
   -0.6369   20.3926  -31.2697 H   0  0  0  0  0  0  0  0  0  0  0  0
   -0.4660   22.1807  -31.2697 H   0  0  0  0  0  0  0  0  0  0  0  0
   -3.3612   19.4125  -33.6449 H   0  0  0  0  0  0  0  0  0  0  0  0
  1  2  1  0
  2  3  1  0
  3  4  2  0
  4  5  1  0
  5  6  1  0
  6  7  1  0
  7  8  2  0
  7  9  1  0
  9 10  1  0
 10 11  1  0
 11 12  1  0
 12 13  1  0
 13 14  2  0
 13 15  2  0
 13 16  1  0
 16 17  2  0
 17 18  1  0
 18 19  2  0
 19 20  1  0
 20 21  2  0
 12 22  1  0
 22 23  1  0
  5 24  2  0
 24 25  1  0
 25 26  1  0
 24 27  1  0
 27 28  2  0
 28 29  1  0
 28  3  1  0
 23  9  1  0
 21 16  1  0
  1 30  1  0
  1 31  1  0
  1 32  1  0
  4 33  1  0
  9 34  1  0
 10 35  1  0
 10 36  1  0
 11 37  1  0
 11 38  1  0
 17 39  1  0
 18 40  1  0
 19 41  1  0
 20 42  1  0
 21 43  1  0
 22 44  1  0
 22 45  1  0
 23 46  1  0
 23 47  1  0
 26 48  1  0
 26 49  1  0
 26 50  1  0
 27 51  1  0
M  CHG  1   6  -1
M  END
>  <UniqueID>  (18) 
17

>  <SMILES>  (18) 
COc1cc([N-]C(=O)C2CCN(S(=O)(=O)c3ccccc3)CC2)c(OC)cc1Cl

>  <Energy>  (18) 
58.34012741027492

>  <Genealogy>  (18) 
COc1cc([N-]C(=O)C2CCN(S(=O)(=O)c3ccccc3)CC2)c(OC)cc1Cl (protonated)
COc1cc([N-]C(=O)C2CCN(S(=O)(=O)c3ccccc3)CC2)c(OC)cc1Cl (3D coordinates assigned)
COc1cc([N-]C(=O)C2CCN(S(=O)(=O)c3ccccc3)CC2)c(OC)cc1Cl (nonaromatic ring conformer: 58.34012741027492 kcal/mol)

>  <smiles>  (18) 
COc1cc(NC(=O)C2CCN(S(=O)(=O)c3ccccc3)CC2)c(OC)cc1Cl

>  <score_type>  (18) 
oracle

>  <origin>  (18) 
adgpu

>  <m_score__min__energy>  (18) 
-10.65

>  <m_primary>  (18) 
energy

$$$$
18:0
     RDKit          3D

 42 44  0  0  0  0  0  0  0  0999 V2000
    1.5610   21.3080  -36.1660 C   0  0  0  0  0  0  0  0  0  0  0  0
    0.6850   21.0110  -34.9950 C   0  0  0  0  0  0  0  0  0  0  0  0
   -0.4260   20.1910  -35.0050 C   0  0  0  0  0  0  0  0  0  0  0  0
   -0.9370   20.2930  -33.7250 C   0  0  0  0  0  0  0  0  0  0  0  0
   -2.1320   19.5780  -33.2370 C   0  0  0  0  0  0  0  0  0  0  0  0
   -2.2620   19.3760  -31.9990 O   0  0  0  0  0  0  0  0  0  0  0  0
   -3.0990   19.0420  -34.1530 N   0  0  0  0  0  0  0  0  0  0  0  0
   -4.4620   18.7540  -33.7960 C   0  0  0  0  0  0  0  0  0  0  0  0
   -5.1130   17.5990  -34.2650 C   0  0  0  0  0  0  0  0  0  0  0  0
   -6.4260   17.3230  -33.8740 C   0  0  0  0  0  0  0  0  0  0  0  0
   -7.1000   18.1910  -33.0130 C   0  0  0  0  0  0  0  0  0  0  0  0
   -6.4690   19.3470  -32.5370 C   0  0  0  0  0  0  0  0  0  0  0  0
   -7.1720   20.1830  -31.6580 O   0  0  0  0  0  0  0  0  0  0  0  0
   -6.9170   21.5480  -31.4570 C   0  0  0  0  0  0  0  0  0  0  0  0
   -5.6220   22.0290  -31.1960 C   0  0  0  0  0  0  0  0  0  0  0  0
   -5.4110   23.4070  -31.0180 C   0  0  0  0  0  0  0  0  0  0  0  0
   -4.0540   23.9340  -30.7370 C   0  0  0  0  0  0  0  0  0  0  0  0
   -3.8570   25.3210  -30.4660 N   0  0  0  0  0  0  0  0  0  0  0  0
   -3.0580   23.1600  -30.7340 O   0  0  0  0  0  0  0  0  0  0  0  0
   -6.5070   24.2780  -31.1190 C   0  0  0  0  0  0  0  0  0  0  0  0
   -7.7750   23.7640  -31.3980 C   0  0  0  0  0  0  0  0  0  0  0  0
   -7.9480   22.4270  -31.5640 N   0  0  0  0  0  0  0  0  0  0  0  0
   -5.1400   19.6100  -32.9130 C   0  0  0  0  0  0  0  0  0  0  0  0
   -0.1430   21.1230  -33.0100 N   0  0  0  0  0  0  0  0  0  0  0  0
   -0.2670   21.4900  -31.6020 C   0  0  0  0  0  0  0  0  0  0  0  0
    0.8340   21.5750  -33.7810 N   0  0  0  0  0  0  0  0  0  0  0  0
    2.5470   21.6423  -35.8109 H   0  0  0  0  0  0  0  0  0  0  0  0
    1.6793   20.3997  -36.7752 H   0  0  0  0  0  0  0  0  0  0  0  0
    1.1025   22.1009  -36.7752 H   0  0  0  0  0  0  0  0  0  0  0  0
   -0.8157   19.5926  -35.8417 H   0  0  0  0  0  0  0  0  0  0  0  0
   -2.7610   18.7410  -35.0950 H   0  0  0  0  0  0  0  0  0  0  0  0
   -4.5867   16.9102  -34.9422 H   0  0  0  0  0  0  0  0  0  0  0  0
   -6.9301   16.4188  -34.2459 H   0  0  0  0  0  0  0  0  0  0  0  0
   -8.1322   17.9657  -32.7069 H   0  0  0  0  0  0  0  0  0  0  0  0
   -4.7762   21.3287  -31.1313 H   0  0  0  0  0  0  0  0  0  0  0  0
   -3.5200   25.9710  -31.2110 H   0  0  0  0  0  0  0  0  0  0  0  0
   -6.3678   25.3601  -30.9791 H   0  0  0  0  0  0  0  0  0  0  0  0
   -8.6358   24.4434  -31.4836 H   0  0  0  0  0  0  0  0  0  0  0  0
   -4.6259   20.4956  -32.5113 H   0  0  0  0  0  0  0  0  0  0  0  0
    0.0219   20.6348  -30.9734 H   0  0  0  0  0  0  0  0  0  0  0  0
    0.3927   22.3433  -31.3860 H   0  0  0  0  0  0  0  0  0  0  0  0
   -1.3091   21.7683  -31.3860 H   0  0  0  0  0  0  0  0  0  0  0  0
  1  2  1  0
  2  3  1  0
  3  4  2  0
  4  5  1  0
  5  6  2  0
  5  7  1  0
  7  8  1  0
  8  9  2  0
  9 10  1  0
 10 11  2  0
 11 12  1  0
 12 13  1  0
 13 14  1  0
 14 15  2  0
 15 16  1  0
 16 17  1  0
 17 18  1  0
 17 19  2  0
 16 20  2  0
 20 21  1  0
 21 22  2  0
 12 23  2  0
  4 24  1  0
 24 25  1  0
 24 26  1  0
 26  2  2  0
 23  8  1  0
 22 14  1  0
  1 27  1  0
  1 28  1  0
  1 29  1  0
  3 30  1  0
  7 31  1  0
  9 32  1  0
 10 33  1  0
 11 34  1  0
 15 35  1  0
 18 36  1  0
 20 37  1  0
 21 38  1  0
 23 39  1  0
 25 40  1  0
 25 41  1  0
 25 42  1  0
M  CHG  1  18  -1
M  END
>  <UniqueID>  (19) 
18

>  <SMILES>  (19) 
Cc1cc(C(=O)Nc2cccc(Oc3cc(C([NH-])=O)ccn3)c2)n(C)n1

>  <Energy>  (19) 
85.48169225532975

>  <Genealogy>  (19) 
Cc1cc(C(=O)Nc2cccc(Oc3cc(C([NH-])=O)ccn3)c2)n(C)n1 (protonated)
Cc1cc(C(=O)Nc2cccc(Oc3cc(C([NH-])=O)ccn3)c2)n(C)n1 (3D coordinates assigned)
Cc1cc(C(=O)Nc2cccc(Oc3cc(C([NH-])=O)ccn3)c2)n(C)n1 (optimized conformer: 85.48169225532975 kcal/mol)

>  <smiles>  (19) 
Cc1cc(C(=O)Nc2cccc(Oc3cc(C(N)=O)ccn3)c2)n(C)n1

>  <score_type>  (19) 
oracle

>  <origin>  (19) 
adgpu

>  <m_score__min__energy>  (19) 
-10.300000000000001

>  <m_primary>  (19) 
energy

$$$$
19:0
     RDKit          3D

 39 41  0  0  0  0  0  0  0  0999 V2000
   -2.5520   20.1920  -28.0800 O   0  0  0  0  0  0  0  0  0  0  0  0
   -1.8380   20.6940  -28.9880 C   0  0  0  0  0  0  0  0  0  0  0  0
   -1.2530   19.8200  -29.9640 N   0  0  0  0  0  0  0  0  0  0  0  0
   -0.7300   20.2240  -31.2370 C   0  0  0  0  0  0  0  0  0  0  0  0
    0.5460   19.7910  -31.6170 C   0  0  0  0  0  0  0  0  0  0  0  0
    1.0970   20.2030  -32.8340 C   0  0  0  0  0  0  0  0  0  0  0  0
    0.3660   21.0350  -33.6920 C   0  0  0  0  0  0  0  0  0  0  0  0
    1.1040   21.6050  -35.1860 S   0  0  0  0  0  0  0  0  0  0  0  0
    1.0200   20.5620  -36.2660 O   0  0  0  0  0  0  0  0  0  0  0  0
    2.5520   21.9110  -34.9250 O   0  0  0  0  0  0  0  0  0  0  0  0
    0.3030   23.0530  -35.7170 N   0  0  0  0  0  0  0  0  0  0  0  0
    0.8730   24.1560  -36.1120 C   0  0  0  0  0  0  0  0  0  0  0  0
    2.2740   24.3200  -36.1410 C   0  0  0  0  0  0  0  0  0  0  0  0
    2.8150   25.5270  -36.5890 C   0  0  0  0  0  0  0  0  0  0  0  0
    1.9700   26.5580  -37.0000 C   0  0  0  0  0  0  0  0  0  0  0  0
    2.4860   27.7340  -37.4350 F   0  0  0  0  0  0  0  0  0  0  0  0
    0.5890   26.3680  -36.9530 C   0  0  0  0  0  0  0  0  0  0  0  0
    0.0800   25.1850  -36.5160 N   0  0  0  0  0  0  0  0  0  0  0  0
   -0.9290   21.4310  -33.3360 C   0  0  0  0  0  0  0  0  0  0  0  0
   -1.4770   21.0260  -32.1170 C   0  0  0  0  0  0  0  0  0  0  0  0
   -1.5860   22.1550  -28.9940 C   0  0  0  0  0  0  0  0  0  0  0  0
   -0.3570   22.6770  -28.5530 C   0  0  0  0  0  0  0  0  0  0  0  0
   -0.1240   24.0550  -28.5700 C   0  0  0  0  0  0  0  0  0  0  0  0
    1.1040   24.5450  -28.1380 O   0  0  0  0  0  0  0  0  0  0  0  0
   -1.1240   24.9330  -29.0180 C   0  0  0  0  0  0  0  0  0  0  0  0
   -0.9100   26.3110  -29.0470 O   0  0  0  0  0  0  0  0  0  0  0  0
   -2.3560   24.4200  -29.4400 C   0  0  0  0  0  0  0  0  0  0  0  0
   -3.3560   25.2800  -29.8800 O   0  0  0  0  0  0  0  0  0  0  0  0
   -2.5890   23.0400  -29.4230 C   0  0  0  0  0  0  0  0  0  0  0  0
    1.1175   19.1237  -30.9551 H   0  0  0  0  0  0  0  0  0  0  0  0
    2.1070   19.8731  -33.1186 H   0  0  0  0  0  0  0  0  0  0  0  0
    2.9347   23.5038  -35.8134 H   0  0  0  0  0  0  0  0  0  0  0  0
    3.9060   25.6645  -36.6177 H   0  0  0  0  0  0  0  0  0  0  0  0
   -0.0883   27.1749  -37.2694 H   0  0  0  0  0  0  0  0  0  0  0  0
   -1.5164   22.0629  -34.0184 H   0  0  0  0  0  0  0  0  0  0  0  0
   -2.4967   21.3357  -31.8446 H   0  0  0  0  0  0  0  0  0  0  0  0
    0.4272   21.9954  -28.1918 H   0  0  0  0  0  0  0  0  0  0  0  0
   -1.6220   26.9600  -29.3590 H   0  0  0  0  0  0  0  0  0  0  0  0
   -3.5634   22.6461  -29.7475 H   0  0  0  0  0  0  0  0  0  0  0  0
  1  2  2  0
  2  3  1  0
  3  4  1  0
  4  5  2  0
  5  6  1  0
  6  7  2  0
  7  8  1  0
  8  9  2  0
  8 10  2  0
  8 11  1  0
 11 12  2  3
 12 13  1  0
 13 14  2  0
 14 15  1  0
 15 16  1  0
 15 17  2  0
 17 18  1  0
  7 19  1  0
 19 20  2  0
  2 21  1  0
 21 22  2  0
 22 23  1  0
 23 24  1  0
 23 25  2  0
 25 26  1  0
 25 27  1  0
 27 28  1  0
 27 29  2  0
 20  4  1  0
 29 21  1  0
 18 12  1  0
  5 30  1  0
  6 31  1  0
 13 32  1  0
 14 33  1  0
 17 34  1  0
 19 35  1  0
 20 36  1  0
 22 37  1  0
 26 38  1  0
 29 39  1  0
M  CHG  4   3  -1  18  -1  24  -1  28  -1
M  END
>  <UniqueID>  (20) 
19

>  <SMILES>  (20) 
O=C([N-]c1ccc(S(=O)(=O)N=c2ccc(F)c[n-]2)cc1)c1cc([O-])c(O)c([O-])c1

>  <Energy>  (20) 
54.90734219367808

>  <Genealogy>  (20) 
O=C([N-]c1ccc(S(=O)(=O)N=c2ccc(F)c[n-]2)cc1)c1cc([O-])c(O)c([O-])c1 (protonated)
O=C([N-]c1ccc(S(=O)(=O)N=c2ccc(F)c[n-]2)cc1)c1cc([O-])c(O)c([O-])c1 (3D coordinates assigned)
O=C([N-]c1ccc(S(=O)(=O)N=c2ccc(F)c[n-]2)cc1)c1cc([O-])c(O)c([O-])c1 (optimized conformer: 54.90734219367808 kcal/mol)

>  <smiles>  (20) 
O=C(Nc1ccc(S(=O)(=O)N=c2ccc(F)c[nH]2)cc1)c1cc(O)c(O)c(O)c1

>  <score_type>  (20) 
oracle

>  <origin>  (20) 
adgpu

>  <m_score__min__energy>  (20) 
-12.380000000000001

>  <m_primary>  (20) 
energy

$$$$
20:0
     RDKit          3D

 41 43  0  0  0  0  0  0  0  0999 V2000
   -6.8530   16.0810  -33.8200 C   0  0  0  0  0  0  0  0  0  0  0  0
   -6.0310   17.2910  -33.5300 C   0  0  0  0  0  0  0  0  0  0  0  0
   -6.4630   18.4200  -32.8610 C   0  0  0  0  0  0  0  0  0  0  0  0
   -5.3740   19.2700  -32.8890 C   0  0  0  0  0  0  0  0  0  0  0  0
   -5.3070   20.5780  -32.2010 C   0  0  0  0  0  0  0  0  0  0  0  0
   -4.4570   20.7650  -31.0970 C   0  0  0  0  0  0  0  0  0  0  0  0
   -4.4040   22.0030  -30.4490 C   0  0  0  0  0  0  0  0  0  0  0  0
   -5.2100   23.0630  -30.8840 C   0  0  0  0  0  0  0  0  0  0  0  0
   -5.1290   24.6250  -30.0780 S   0  0  0  0  0  0  0  0  0  0  0  0
   -3.9280   25.6030  -30.8450 N   0  0  0  0  0  0  0  0  0  0  0  0
   -4.7720   24.4340  -28.6300 O   0  0  0  0  0  0  0  0  0  0  0  0
   -6.4640   25.3110  -30.1600 O   0  0  0  0  0  0  0  0  0  0  0  0
   -6.0670   22.8760  -31.9770 C   0  0  0  0  0  0  0  0  0  0  0  0
   -6.1210   21.6390  -32.6260 C   0  0  0  0  0  0  0  0  0  0  0  0
   -4.3690   18.6640  -33.5690 N   0  0  0  0  0  0  0  0  0  0  0  0
   -3.0870   19.2080  -33.9260 C   0  0  0  0  0  0  0  0  0  0  0  0
   -2.0420   18.3700  -34.3510 C   0  0  0  0  0  0  0  0  0  0  0  0
   -0.7950   18.9090  -34.6840 C   0  0  0  0  0  0  0  0  0  0  0  0
   -0.5760   20.2900  -34.5870 C   0  0  0  0  0  0  0  0  0  0  0  0
    0.9980   20.9660  -34.9920 S   0  0  0  0  0  0  0  0  0  0  0  0
    0.8340   22.6510  -35.3400 N   0  0  0  0  0  0  0  0  0  0  0  0
    1.9430   20.7830  -33.8380 O   0  0  0  0  0  0  0  0  0  0  0  0
    1.5630   20.2590  -36.1920 O   0  0  0  0  0  0  0  0  0  0  0  0
   -1.6070   21.1240  -34.1340 C   0  0  0  0  0  0  0  0  0  0  0  0
   -2.8530   20.5850  -33.8010 C   0  0  0  0  0  0  0  0  0  0  0  0
   -4.7680   17.4640  -33.9620 N   0  0  0  0  0  0  0  0  0  0  0  0
   -7.1684   15.6167  -32.8740 H   0  0  0  0  0  0  0  0  0  0  0  0
   -7.7414   16.3716  -34.4000 H   0  0  0  0  0  0  0  0  0  0  0  0
   -6.2555   15.3622  -34.4000 H   0  0  0  0  0  0  0  0  0  0  0  0
   -7.4494   18.6010  -32.4090 H   0  0  0  0  0  0  0  0  0  0  0  0
   -3.8307   19.9336  -30.7413 H   0  0  0  0  0  0  0  0  0  0  0  0
   -3.7266   22.1451  -29.5941 H   0  0  0  0  0  0  0  0  0  0  0  0
   -3.0020   25.3000  -30.4680 H   0  0  0  0  0  0  0  0  0  0  0  0
   -6.6996   23.7057  -32.3255 H   0  0  0  0  0  0  0  0  0  0  0  0
   -6.8058   21.4965  -33.4750 H   0  0  0  0  0  0  0  0  0  0  0  0
   -2.2056   17.2846  -34.4222 H   0  0  0  0  0  0  0  0  0  0  0  0
    0.0158   18.2474  -35.0229 H   0  0  0  0  0  0  0  0  0  0  0  0
   -0.1670   22.8150  -35.5900 H   0  0  0  0  0  0  0  0  0  0  0  0
    1.3930   22.8400  -36.2020 H   0  0  0  0  0  0  0  0  0  0  0  0
   -1.4352   22.2064  -34.0401 H   0  0  0  0  0  0  0  0  0  0  0  0
   -3.6549   21.2450  -33.4387 H   0  0  0  0  0  0  0  0  0  0  0  0
  1  2  1  0
  2  3  1  0
  3  4  2  0
  4  5  1  0
  5  6  2  0
  6  7  1  0
  7  8  2  0
  8  9  1  0
  9 10  1  0
  9 11  2  0
  9 12  2  0
  8 13  1  0
 13 14  2  0
  4 15  1  0
 15 16  1  0
 16 17  2  0
 17 18  1  0
 18 19  2  0
 19 20  1  0
 20 21  1  0
 20 22  2  0
 20 23  2  0
 19 24  1  0
 24 25  2  0
 15 26  1  0
 26  2  2  0
 14  5  1  0
 25 16  1  0
  1 27  1  0
  1 28  1  0
  1 29  1  0
  3 30  1  0
  6 31  1  0
  7 32  1  0
 10 33  1  0
 13 34  1  0
 14 35  1  0
 17 36  1  0
 18 37  1  0
 21 38  1  0
 21 39  1  0
 24 40  1  0
 25 41  1  0
M  CHG  1  10  -1
M  END
>  <UniqueID>  (21) 
20

>  <SMILES>  (21) 
Cc1cc(-c2ccc(S([NH-])(=O)=O)cc2)n(-c2ccc(S(N)(=O)=O)cc2)n1

>  <Energy>  (21) 
79.1936594187687

>  <Genealogy>  (21) 
Cc1cc(-c2ccc(S([NH-])(=O)=O)cc2)n(-c2ccc(S(N)(=O)=O)cc2)n1 (protonated)
Cc1cc(-c2ccc(S([NH-])(=O)=O)cc2)n(-c2ccc(S(N)(=O)=O)cc2)n1 (3D coordinates assigned)
Cc1cc(-c2ccc(S([NH-])(=O)=O)cc2)n(-c2ccc(S(N)(=O)=O)cc2)n1 (optimized conformer: 79.1936594187687 kcal/mol)

>  <smiles>  (21) 
Cc1cc(-c2ccc(S(N)(=O)=O)cc2)n(-c2ccc(S(N)(=O)=O)cc2)n1

>  <score_type>  (21) 
oracle

>  <origin>  (21) 
adgpu

>  <m_score__min__energy>  (21) 
-10.710000000000001

>  <m_primary>  (21) 
energy

$$$$
21:0
     RDKit          3D

 46 48  0  0  0  0  0  0  0  0999 V2000
   -0.9730   26.1170  -26.6700 C   0  0  0  0  0  0  0  0  0  0  0  0
   -0.8580   25.4740  -28.0100 C   0  0  0  0  0  0  0  0  0  0  0  0
    0.2080   24.8790  -28.3250 O   0  0  0  0  0  0  0  0  0  0  0  0
   -1.9160   25.6370  -28.9630 N   0  0  0  0  0  0  0  0  0  0  0  0
   -2.7060   24.5930  -29.5500 C   0  0  0  0  0  0  0  0  0  0  0  0
   -2.0780   23.3950  -29.9040 C   0  0  0  0  0  0  0  0  0  0  0  0
   -2.8080   22.3590  -30.4950 C   0  0  0  0  0  0  0  0  0  0  0  0
   -4.1730   22.5170  -30.7700 C   0  0  0  0  0  0  0  0  0  0  0  0
   -4.9060   21.4290  -31.3590 N   0  0  0  0  0  0  0  0  0  0  0  0
   -6.2310   21.5540  -31.9030 C   0  0  0  0  0  0  0  0  0  0  0  0
   -6.6990   22.6980  -32.1510 O   0  0  0  0  0  0  0  0  0  0  0  0
   -7.0320   20.3360  -32.1790 C   0  0  0  0  0  0  0  0  0  0  0  0
   -6.3730   19.2200  -32.5930 N   0  0  0  0  0  0  0  0  0  0  0  0
   -7.0240   18.0600  -32.8600 C   0  0  0  0  0  0  0  0  0  0  0  0
   -6.1270   16.6480  -33.3780 S   0  0  0  0  0  0  0  0  0  0  0  0
   -7.0790   15.6340  -33.9500 O   0  0  0  0  0  0  0  0  0  0  0  0
   -5.4230   16.0450  -32.1940 O   0  0  0  0  0  0  0  0  0  0  0  0
   -4.9410   17.1280  -34.6210 C   0  0  0  0  0  0  0  0  0  0  0  0
   -3.8160   17.9070  -33.9980 C   0  0  0  0  0  0  0  0  0  0  0  0
   -2.6930   17.2400  -33.4800 C   0  0  0  0  0  0  0  0  0  0  0  0
   -1.6340   17.9680  -32.9290 C   0  0  0  0  0  0  0  0  0  0  0  0
   -1.6850   19.3640  -32.8980 C   0  0  0  0  0  0  0  0  0  0  0  0
   -2.7930   20.0350  -33.4210 C   0  0  0  0  0  0  0  0  0  0  0  0
   -3.8540   19.3110  -33.9740 C   0  0  0  0  0  0  0  0  0  0  0  0
   -8.3700   17.9890  -32.7130 N   0  0  0  0  0  0  0  0  0  0  0  0
   -9.0830   19.0700  -32.3060 C   0  0  0  0  0  0  0  0  0  0  0  0
   -8.4370   20.2770  -32.0280 C   0  0  0  0  0  0  0  0  0  0  0  0
   -9.4280   21.6510  -31.5450 Cl  0  0  0  0  0  0  0  0  0  0  0  0
   -4.8060   23.7230  -30.4180 C   0  0  0  0  0  0  0  0  0  0  0  0
   -4.0770   24.7580  -29.8240 C   0  0  0  0  0  0  0  0  0  0  0  0
   -0.8372   25.3575  -25.8860 H   0  0  0  0  0  0  0  0  0  0  0  0
   -0.1992   26.8921  -26.5676 H   0  0  0  0  0  0  0  0  0  0  0  0
   -1.9675   26.5759  -26.5676 H   0  0  0  0  0  0  0  0  0  0  0  0
   -1.0018   23.2665  -29.7162 H   0  0  0  0  0  0  0  0  0  0  0  0
   -2.3068   21.4125  -30.7460 H   0  0  0  0  0  0  0  0  0  0  0  0
   -4.4080   20.5190  -31.4830 H   0  0  0  0  0  0  0  0  0  0  0  0
   -4.5347   16.2260  -35.1019 H   0  0  0  0  0  0  0  0  0  0  0  0
   -5.4428   17.7607  -35.3679 H   0  0  0  0  0  0  0  0  0  0  0  0
   -2.6468   16.1413  -33.5080 H   0  0  0  0  0  0  0  0  0  0  0  0
   -0.7596   17.4411  -32.5194 H   0  0  0  0  0  0  0  0  0  0  0  0
   -0.8522   19.9349  -32.4615 H   0  0  0  0  0  0  0  0  0  0  0  0
   -2.8310   21.1341  -33.3978 H   0  0  0  0  0  0  0  0  0  0  0  0
   -4.7215   19.8429  -34.3917 H   0  0  0  0  0  0  0  0  0  0  0  0
  -10.1748   18.9952  -32.1945 H   0  0  0  0  0  0  0  0  0  0  0  0
   -5.8811   23.8527  -30.6112 H   0  0  0  0  0  0  0  0  0  0  0  0
   -4.5766   25.7045  -29.5699 H   0  0  0  0  0  0  0  0  0  0  0  0
  1  2  1  0
  2  3  2  0
  2  4  1  0
  4  5  1  0
  5  6  2  0
  6  7  1  0
  7  8  2  0
  8  9  1  0
  9 10  1  0
 10 11  2  0
 10 12  1  0
 12 13  2  0
 13 14  1  0
 14 15  1  0
 15 16  2  0
 15 17  2  0
 15 18  1  0
 18 19  1  0
 19 20  2  0
 20 21  1  0
 21 22  2  0
 22 23  1  0
 23 24  2  0
 14 25  2  0
 25 26  1  0
 26 27  2  0
 27 28  1  0
  8 29  1  0
 29 30  2  0
 30  5  1  0
 27 12  1  0
 24 19  1  0
  1 31  1  0
  1 32  1  0
  1 33  1  0
  6 34  1  0
  7 35  1  0
  9 36  1  0
 18 37  1  0
 18 38  1  0
 20 39  1  0
 21 40  1  0
 22 41  1  0
 23 42  1  0
 24 43  1  0
 26 44  1  0
 29 45  1  0
 30 46  1  0
M  CHG  1   4  -1
M  END
>  <UniqueID>  (22) 
21

>  <SMILES>  (22) 
CC(=O)[N-]c1ccc(NC(=O)c2nc(S(=O)(=O)Cc3ccccc3)ncc2Cl)cc1

>  <Energy>  (22) 
54.69371141509008

>  <Genealogy>  (22) 
CC(=O)[N-]c1ccc(NC(=O)c2nc(S(=O)(=O)Cc3ccccc3)ncc2Cl)cc1 (protonated)
CC(=O)[N-]c1ccc(NC(=O)c2nc(S(=O)(=O)Cc3ccccc3)ncc2Cl)cc1 (3D coordinates assigned)
CC(=O)[N-]c1ccc(NC(=O)c2nc(S(=O)(=O)Cc3ccccc3)ncc2Cl)cc1 (optimized conformer: 54.69371141509008 kcal/mol)

>  <smiles>  (22) 
CC(=O)Nc1ccc(NC(=O)c2nc(S(=O)(=O)Cc3ccccc3)ncc2Cl)cc1

>  <score_type>  (22) 
oracle

>  <origin>  (22) 
adgpu

>  <m_score__min__energy>  (22) 
-10.83

>  <m_primary>  (22) 
energy

$$$$
22:0
     RDKit          3D

 41 43  0  0  1  0  0  0  0  0999 V2000
   -0.8730   27.2660  -23.7690 N   0  0  0  0  0  0  0  0  0  0  0  0
   -1.1820   26.6260  -24.8240 C   0  0  0  0  0  0  0  0  0  0  0  0
   -0.2370   26.2790  -25.7040 N   0  0  0  0  0  0  0  0  0  0  0  0
   -0.5150   25.5920  -26.8510 C   0  0  0  0  0  0  0  0  0  0  0  0
   -1.8320   25.2170  -27.1530 C   0  0  0  0  0  0  0  0  0  0  0  0
   -2.0710   24.4500  -28.3450 C   0  0  0  0  0  0  0  0  0  0  0  0
   -3.2730   24.6160  -28.9590 N   0  0  0  0  0  0  0  0  0  0  0  0
   -3.6290   23.9080  -30.0660 C   0  0  0  0  0  0  0  0  0  0  0  0
   -4.7730   24.1010  -30.6080 N   0  0  0  0  0  0  0  0  0  0  0  0
   -5.2320   23.3940  -31.7840 C   0  0  0  0  0  0  0  0  0  0  0  0
   -6.7130   23.4640  -31.9110 C   0  0  0  0  0  0  0  0  0  0  0  0
   -7.3890   22.1710  -32.0780 C   0  0  0  0  0  0  0  0  0  0  0  0
   -8.7500   22.1190  -31.8550 C   0  0  0  0  0  0  0  0  0  0  0  0
   -9.4940   20.9650  -31.9790 C   0  0  0  0  0  0  0  0  0  0  0  0
   -8.8160   19.8210  -32.3460 C   0  0  0  0  0  0  0  0  0  0  0  0
   -7.4440   19.8240  -32.5830 C   0  0  0  0  0  0  0  0  0  0  0  0
   -6.7240   21.0130  -32.4450 C   0  0  0  0  0  0  0  0  0  0  0  0
   -2.8010   22.9740  -30.6460 C   0  0  0  0  0  0  0  0  0  0  0  0
   -1.5790   22.7800  -30.0490 C   0  0  0  0  0  0  0  0  0  0  0  0
   -1.2350   23.5220  -28.9080 C   0  0  0  0  0  0  0  0  0  0  0  0
   -0.0270   23.2160  -28.3920 F   0  0  0  0  0  0  0  0  0  0  0  0
   -2.7610   25.5960  -26.2170 C   0  0  0  0  0  0  0  0  0  0  0  0
   -3.9930   25.2950  -26.3370 N   0  0  0  0  0  0  0  0  0  0  0  0
   -2.4340   26.2810  -25.0890 N   0  0  0  0  0  0  0  0  0  0  0  0
   -1.6010   27.5460  -23.0690 H   0  0  0  0  0  0  0  0  0  0  0  0
    0.7390   26.5540  -25.4870 H   0  0  0  0  0  0  0  0  0  0  0  0
    0.2996   25.3310  -27.5426 H   0  0  0  0  0  0  0  0  0  0  0  0
   -3.9920   25.2960  -28.6380 H   0  0  0  0  0  0  0  0  0  0  0  0
   -4.7738   23.8461  -32.6760 H   0  0  0  0  0  0  0  0  0  0  0  0
   -4.9403   22.3375  -31.6909 H   0  0  0  0  0  0  0  0  0  0  0  0
   -7.1101   23.9406  -31.0026 H   0  0  0  0  0  0  0  0  0  0  0  0
   -6.9135   24.0338  -32.8303 H   0  0  0  0  0  0  0  0  0  0  0  0
   -9.2672   23.0451  -31.5636 H   0  0  0  0  0  0  0  0  0  0  0  0
  -10.5783   20.9568  -31.7938 H   0  0  0  0  0  0  0  0  0  0  0  0
   -9.3751   18.8799  -32.4545 H   0  0  0  0  0  0  0  0  0  0  0  0
   -6.9307   18.8966  -32.8768 H   0  0  0  0  0  0  0  0  0  0  0  0
   -5.6391   21.0294  -32.6261 H   0  0  0  0  0  0  0  0  0  0  0  0
   -3.1024   22.4115  -31.5420 H   0  0  0  0  0  0  0  0  0  0  0  0
   -0.8725   22.0458  -30.4636 H   0  0  0  0  0  0  0  0  0  0  0  0
   -4.7380   25.5460  -25.6780 H   0  0  0  0  0  0  0  0  0  0  0  0
   -3.1690   26.5570  -24.3930 H   0  0  0  0  0  0  0  0  0  0  0  0
  1  2  2  3
  2  3  1  0
  3  4  1  0
  4  5  2  0
  5  6  1  0
  6  7  1  0
  7  8  1  0
  8  9  2  0
  9 10  1  0
 10 11  1  0
 11 12  1  0
 12 13  2  0
 13 14  1  0
 14 15  2  0
 15 16  1  0
 16 17  2  0
  8 18  1  0
 18 19  2  0
 19 20  1  0
 20 21  1  0
  5 22  1  0
 22 23  2  3
 22 24  1  0
 24  2  1  0
 20  6  2  0
 17 12  1  0
  1 25  1  0
  3 26  1  0
  4 27  1  0
  7 28  1  0
 10 29  1  0
 10 30  1  0
 11 31  1  0
 11 32  1  0
 13 33  1  0
 14 34  1  0
 15 35  1  0
 16 36  1  0
 17 37  1  0
 18 38  1  0
 19 39  1  0
 23 40  1  0
 24 41  1  0
M  END
>  <smiles>  (23) 
N=c1[nH]cc(-c2[nH]c(=NCCc3ccccc3)ccc2F)c(=N)[nH]1

>  <score_type>  (23) 
oracle

>  <origin>  (23) 
adgpu

>  <m_score__min__energy>  (23) 
-8.6199999999999992

>  <m_primary>  (23) 
energy

$$$$
23:0
     RDKit          3D

 61 64  0  0  0  0  0  0  0  0999 V2000
    0.7710   23.9770  -36.0940 C   0  0  0  0  0  0  0  0  0  0  0  0
    0.4310   22.5010  -35.8820 C   0  0  0  0  0  0  0  0  0  0  0  0
    1.0810   21.9250  -34.6180 C   0  0  0  0  0  0  0  0  0  0  0  0
    1.1350   20.4210  -34.6430 C   0  0  0  0  0  0  0  0  0  0  0  0
    1.7550   19.8420  -35.5740 O   0  0  0  0  0  0  0  0  0  0  0  0
    0.4630   19.6330  -33.6430 N   0  0  0  0  0  0  0  0  0  0  0  0
    0.0880   20.2470  -32.3530 C   0  0  0  0  0  0  0  0  0  0  0  0
   -1.3990   20.4980  -32.2790 C   0  0  0  0  0  0  0  0  0  0  0  0
   -2.0970   20.9910  -33.3940 C   0  0  0  0  0  0  0  0  0  0  0  0
   -3.4610   21.2790  -33.3030 C   0  0  0  0  0  0  0  0  0  0  0  0
   -4.1500   21.0570  -32.1020 C   0  0  0  0  0  0  0  0  0  0  0  0
   -5.5910   21.3530  -32.0110 C   0  0  0  0  0  0  0  0  0  0  0  0
   -6.4960   20.3380  -32.3680 C   0  0  0  0  0  0  0  0  0  0  0  0
   -7.8690   20.5820  -32.3730 C   0  0  0  0  0  0  0  0  0  0  0  0
   -8.3570   21.8430  -32.0210 C   0  0  0  0  0  0  0  0  0  0  0  0
   -7.4730   22.8580  -31.6520 C   0  0  0  0  0  0  0  0  0  0  0  0
   -6.0830   22.6330  -31.6310 C   0  0  0  0  0  0  0  0  0  0  0  0
   -5.1940   23.7380  -31.1850 C   0  0  0  0  0  0  0  0  0  0  0  0
   -5.5120   25.0470  -31.1970 N   0  0  0  0  0  0  0  0  0  0  0  0
   -4.4310   25.6660  -30.7550 N   0  0  0  0  0  0  0  0  0  0  0  0
   -3.4860   24.7800  -30.4910 N   0  0  0  0  0  0  0  0  0  0  0  0
   -3.9310   23.5620  -30.7520 N   0  0  0  0  0  0  0  0  0  0  0  0
   -3.4660   20.5330  -30.9970 C   0  0  0  0  0  0  0  0  0  0  0  0
   -2.0980   20.2620  -31.0830 C   0  0  0  0  0  0  0  0  0  0  0  0
    0.2260   18.2030  -33.9300 C   0  0  1  0  0  0  0  0  0  0  0  0
   -0.3920   17.4630  -32.7190 C   0  0  0  0  0  0  0  0  0  0  0  0
   -1.8570   17.0680  -32.9700 C   0  0  0  0  0  0  0  0  0  0  0  0
   -2.0050   16.2050  -34.1730 N   0  0  1  0  0  0  0  0  0  0  0  0
   -3.4100   16.2030  -34.6190 C   0  0  0  0  0  0  0  0  0  0  0  0
   -1.0960   16.5630  -35.3020 C   0  0  0  0  0  0  0  0  0  0  0  0
   -0.5900   18.0090  -35.2240 C   0  0  0  0  0  0  0  0  0  0  0  0
    0.8848   24.4709  -35.1177 H   0  0  0  0  0  0  0  0  0  0  0  0
    1.7116   24.0592  -36.6584 H   0  0  0  0  0  0  0  0  0  0  0  0
   -0.0388   24.4624  -36.6584 H   0  0  0  0  0  0  0  0  0  0  0  0
   -0.6608   22.3993  -35.7950 H   0  0  0  0  0  0  0  0  0  0  0  0
    0.8216   21.9405  -36.7442 H   0  0  0  0  0  0  0  0  0  0  0  0
    2.1063   22.3153  -34.5373 H   0  0  0  0  0  0  0  0  0  0  0  0
    0.4693   22.2273  -33.7552 H   0  0  0  0  0  0  0  0  0  0  0  0
    0.3787   19.5705  -31.5358 H   0  0  0  0  0  0  0  0  0  0  0  0
    0.6088   21.2116  -32.2622 H   0  0  0  0  0  0  0  0  0  0  0  0
   -1.5665   21.1512  -34.3442 H   0  0  0  0  0  0  0  0  0  0  0  0
   -3.9960   21.6811  -34.1760 H   0  0  0  0  0  0  0  0  0  0  0  0
   -6.1179   19.3431  -32.6457 H   0  0  0  0  0  0  0  0  0  0  0  0
   -8.5685   19.7810  -32.6543 H   0  0  0  0  0  0  0  0  0  0  0  0
   -9.4398   22.0361  -32.0347 H   0  0  0  0  0  0  0  0  0  0  0  0
   -7.8671   23.8466  -31.3740 H   0  0  0  0  0  0  0  0  0  0  0  0
   -4.0071   20.3346  -30.0600 H   0  0  0  0  0  0  0  0  0  0  0  0
   -1.5645   19.8612  -30.2085 H   0  0  0  0  0  0  0  0  0  0  0  0
    1.2073   17.7381  -34.1056 H   0  0  0  0  0  0  0  0  0  0  0  0
   -0.3479   18.1226  -31.8398 H   0  0  0  0  0  0  0  0  0  0  0  0
    0.1846   16.5408  -32.5547 H   0  0  0  0  0  0  0  0  0  0  0  0
   -2.4514   17.9823  -33.1139 H   0  0  0  0  0  0  0  0  0  0  0  0
   -2.2084   16.4971  -32.0979 H   0  0  0  0  0  0  0  0  0  0  0  0
   -1.7770   15.2240  -33.8840 H   0  0  0  0  0  0  0  0  0  0  0  0
   -4.0733   16.2021  -33.7415 H   0  0  0  0  0  0  0  0  0  0  0  0
   -3.6039   17.1009  -35.2242 H   0  0  0  0  0  0  0  0  0  0  0  0
   -3.6013   15.3046  -35.2242 H   0  0  0  0  0  0  0  0  0  0  0  0
   -1.6425   16.4327  -36.2477 H   0  0  0  0  0  0  0  0  0  0  0  0
   -0.2187   15.9021  -35.2424 H   0  0  0  0  0  0  0  0  0  0  0  0
   -1.4480   18.6974  -35.2223 H   0  0  0  0  0  0  0  0  0  0  0  0
    0.0495   18.2194  -36.0939 H   0  0  0  0  0  0  0  0  0  0  0  0
  1  2  1  0
  2  3  1  0
  3  4  1  0
  4  5  2  0
  4  6  1  0
  6  7  1  0
  7  8  1  0
  8  9  2  0
  9 10  1  0
 10 11  2  0
 11 12  1  0
 12 13  2  0
 13 14  1  0
 14 15  2  0
 15 16  1  0
 16 17  2  0
 17 18  1  0
 18 19  1  0
 19 20  2  0
 20 21  1  0
 21 22  1  0
 11 23  1  0
 23 24  2  0
  6 25  1  0
 25 26  1  0
 26 27  1  0
 27 28  1  0
 28 29  1  0
 28 30  1  0
 30 31  1  0
 24  8  1  0
 31 25  1  0
 17 12  1  0
 22 18  2  0
  1 32  1  0
  1 33  1  0
  1 34  1  0
  2 35  1  0
  2 36  1  0
  3 37  1  0
  3 38  1  0
  7 39  1  0
  7 40  1  0
  9 41  1  0
 10 42  1  0
 13 43  1  0
 14 44  1  0
 15 45  1  0
 16 46  1  0
 23 47  1  0
 24 48  1  0
 25 49  1  6
 26 50  1  0
 26 51  1  0
 27 52  1  0
 27 53  1  0
 28 54  1  1
 29 55  1  0
 29 56  1  0
 29 57  1  0
 30 58  1  0
 30 59  1  0
 31 60  1  0
 31 61  1  0
M  CHG  2  21  -1  28   1
M  END
>  <UniqueID>  (24) 
22

>  <SMILES>  (24) 
CCCC(=O)N(Cc1ccc(-c2ccccc2-c2nn[n-]n2)cc1)C1CC[NH+](C)CC1

>  <Energy>  (24) 
118.11480318996577

>  <Genealogy>  (24) 
CCCC(=O)N(Cc1ccc(-c2ccccc2-c2nn[n-]n2)cc1)C1CC[NH+](C)CC1 (protonated)
CCCC(=O)N(Cc1ccc(-c2ccccc2-c2nn[n-]n2)cc1)C1CC[NH+](C)CC1 (3D coordinates assigned)
CCCC(=O)N(Cc1ccc(-c2ccccc2-c2nn[n-]n2)cc1)C1CC[NH+](C)CC1 (nonaromatic ring conformer: 118.11480318996577 kcal/mol)

>  <smiles>  (24) 
CCCC(=O)N(Cc1ccc(-c2ccccc2-c2nn[nH]n2)cc1)C1CCN(C)CC1

>  <score_type>  (24) 
oracle

>  <origin>  (24) 
adgpu

>  <m_score__min__energy>  (24) 
-11.050000000000001

>  <m_primary>  (24) 
energy

$$$$
24:0
     RDKit          3D

 54 57  0  0  0  0  0  0  0  0999 V2000
   -0.1980   18.6750  -27.5800 C   0  0  0  0  0  0  0  0  0  0  0  0
   -1.1310   19.7380  -28.0600 C   0  0  0  0  0  0  0  0  0  0  0  0
   -2.3620   19.6440  -27.8040 O   0  0  0  0  0  0  0  0  0  0  0  0
   -0.6270   20.8290  -28.8470 N   0  0  0  0  0  0  0  0  0  0  0  0
   -1.4170   21.9630  -29.2390 C   0  0  0  0  0  0  0  0  0  0  0  0
   -1.3850   23.1640  -28.5110 C   0  0  0  0  0  0  0  0  0  0  0  0
   -2.1600   24.2550  -28.9150 C   0  0  0  0  0  0  0  0  0  0  0  0
   -2.9900   24.1570  -30.0450 C   0  0  0  0  0  0  0  0  0  0  0  0
   -3.8280   25.2460  -30.4620 N   0  0  0  0  0  0  0  0  0  0  0  0
   -5.2630   25.2410  -30.4840 C   0  0  0  0  0  0  0  0  0  0  0  0
   -5.8780   26.2660  -30.0880 O   0  0  0  0  0  0  0  0  0  0  0  0
   -6.0310   24.0810  -30.9870 C   0  0  0  0  0  0  0  0  0  0  0  0
   -5.7250   23.5060  -32.2320 C   0  0  0  0  0  0  0  0  0  0  0  0
   -6.3890   22.3540  -32.6600 C   0  0  0  0  0  0  0  0  0  0  0  0
   -7.3740   21.7670  -31.8550 C   0  0  0  0  0  0  0  0  0  0  0  0
   -8.1230   20.2440  -32.3200 S   0  0  0  0  0  0  0  0  0  0  0  0
   -7.9930   20.0550  -33.8060 O   0  0  0  0  0  0  0  0  0  0  0  0
   -9.5810   20.2880  -31.9560 O   0  0  0  0  0  0  0  0  0  0  0  0
   -7.3320   18.9370  -31.4660 N   0  0  0  0  0  0  0  0  0  0  0  0
   -7.5290   17.6260  -32.1110 C   0  0  0  0  0  0  0  0  0  0  0  0
   -6.8110   17.5080  -33.4650 C   0  0  0  0  0  0  0  0  0  0  0  0
   -5.4390   18.1280  -33.4550 C   0  0  0  0  0  0  0  0  0  0  0  0
   -4.5800   17.9050  -34.5430 C   0  0  0  0  0  0  0  0  0  0  0  0
   -3.3230   18.5170  -34.5890 C   0  0  0  0  0  0  0  0  0  0  0  0
   -2.9180   19.3610  -33.5550 C   0  0  0  0  0  0  0  0  0  0  0  0
   -3.7690   19.6000  -32.4740 C   0  0  0  0  0  0  0  0  0  0  0  0
   -5.0380   19.0020  -32.4230 C   0  0  0  0  0  0  0  0  0  0  0  0
   -5.9080   19.2190  -31.2110 C   0  0  0  0  0  0  0  0  0  0  0  0
   -7.7200   22.3680  -30.6380 C   0  0  0  0  0  0  0  0  0  0  0  0
   -7.0560   23.5210  -30.2080 C   0  0  0  0  0  0  0  0  0  0  0  0
   -2.9770   22.9820  -30.8030 C   0  0  0  0  0  0  0  0  0  0  0  0
   -2.1950   21.8920  -30.4050 C   0  0  0  0  0  0  0  0  0  0  0  0
   -0.1888   18.6645  -26.4801 H   0  0  0  0  0  0  0  0  0  0  0  0
   -0.5340   17.6963  -27.9532 H   0  0  0  0  0  0  0  0  0  0  0  0
    0.8160   18.8813  -27.9532 H   0  0  0  0  0  0  0  0  0  0  0  0
    0.3360   20.7380  -29.2440 H   0  0  0  0  0  0  0  0  0  0  0  0
   -0.7470   23.2463  -27.6187 H   0  0  0  0  0  0  0  0  0  0  0  0
   -2.1200   25.1952  -28.3455 H   0  0  0  0  0  0  0  0  0  0  0  0
   -4.9583   23.9656  -32.8731 H   0  0  0  0  0  0  0  0  0  0  0  0
   -6.1376   21.9060  -33.6327 H   0  0  0  0  0  0  0  0  0  0  0  0
   -7.1431   16.8441  -31.4404 H   0  0  0  0  0  0  0  0  0  0  0  0
   -8.6066   17.5109  -32.2993 H   0  0  0  0  0  0  0  0  0  0  0  0
   -6.7130   16.4422  -33.7189 H   0  0  0  0  0  0  0  0  0  0  0  0
   -7.4140   18.0512  -34.2076 H   0  0  0  0  0  0  0  0  0  0  0  0
   -4.8973   17.2452  -35.3640 H   0  0  0  0  0  0  0  0  0  0  0  0
   -2.6531   18.3324  -35.4417 H   0  0  0  0  0  0  0  0  0  0  0  0
   -1.9277   19.8386  -33.5911 H   0  0  0  0  0  0  0  0  0  0  0  0
   -3.4430   20.2609  -31.6574 H   0  0  0  0  0  0  0  0  0  0  0  0
   -5.5583   18.5566  -30.4054 H   0  0  0  0  0  0  0  0  0  0  0  0
   -5.8274   20.2805  -30.9340 H   0  0  0  0  0  0  0  0  0  0  0  0
   -8.5170   21.9313  -30.0183 H   0  0  0  0  0  0  0  0  0  0  0  0
   -7.3381   23.9916  -29.2546 H   0  0  0  0  0  0  0  0  0  0  0  0
   -3.5849   22.9142  -31.7172 H   0  0  0  0  0  0  0  0  0  0  0  0
   -2.1900   20.9733  -31.0100 H   0  0  0  0  0  0  0  0  0  0  0  0
  1  2  1  0
  2  3  2  0
  2  4  1  0
  4  5  1  0
  5  6  2  0
  6  7  1  0
  7  8  2  0
  8  9  1  0
  9 10  1  0
 10 11  2  0
 10 12  1  0
 12 13  2  0
 13 14  1  0
 14 15  2  0
 15 16  1  0
 16 17  2  0
 16 18  2  0
 16 19  1  0
 19 20  1  0
 20 21  1  0
 21 22  1  0
 22 23  2  0
 23 24  1  0
 24 25  2  0
 25 26  1  0
 26 27  2  0
 27 28  1  0
 15 29  1  0
 29 30  2  0
  8 31  1  0
 31 32  2  0
 32  5  1  0
 30 12  1  0
 28 19  1  0
 27 22  1  0
  1 33  1  0
  1 34  1  0
  1 35  1  0
  4 36  1  0
  6 37  1  0
  7 38  1  0
 13 39  1  0
 14 40  1  0
 20 41  1  0
 20 42  1  0
 21 43  1  0
 21 44  1  0
 23 45  1  0
 24 46  1  0
 25 47  1  0
 26 48  1  0
 28 49  1  0
 28 50  1  0
 29 51  1  0
 30 52  1  0
 31 53  1  0
 32 54  1  0
M  CHG  1   9  -1
M  END
>  <UniqueID>  (25) 
23

>  <SMILES>  (25) 
CC(=O)Nc1ccc([N-]C(=O)c2ccc(S(=O)(=O)N3CCc4ccccc4C3)cc2)cc1

>  <Energy>  (25) 
69.95143517797757

>  <Genealogy>  (25) 
CC(=O)Nc1ccc([N-]C(=O)c2ccc(S(=O)(=O)N3CCc4ccccc4C3)cc2)cc1 (protonated)
CC(=O)Nc1ccc([N-]C(=O)c2ccc(S(=O)(=O)N3CCc4ccccc4C3)cc2)cc1 (3D coordinates assigned)
CC(=O)Nc1ccc([N-]C(=O)c2ccc(S(=O)(=O)N3CCc4ccccc4C3)cc2)cc1 (nonaromatic ring conformer: 69.95143517797757 kcal/mol)

>  <smiles>  (25) 
CC(=O)Nc1ccc(NC(=O)c2ccc(S(=O)(=O)N3CCc4ccccc4C3)cc2)cc1

>  <score_type>  (25) 
oracle

>  <origin>  (25) 
adgpu

>  <m_score__min__energy>  (25) 
-11.869999999999999

>  <m_primary>  (25) 
energy

$$$$
25:0
     RDKit          3D

 51 53  0  0  0  0  0  0  0  0999 V2000
   -2.4050   24.6000  -28.3450 C   0  0  0  0  0  0  0  0  0  0  0  0
   -3.1140   25.2630  -29.3870 O   0  0  0  0  0  0  0  0  0  0  0  0
   -4.2820   24.7700  -29.9890 C   0  0  0  0  0  0  0  0  0  0  0  0
   -5.5530   25.3090  -29.7200 C   0  0  0  0  0  0  0  0  0  0  0  0
   -6.6850   24.7850  -30.3450 C   0  0  0  0  0  0  0  0  0  0  0  0
   -6.5720   23.7230  -31.2550 C   0  0  0  0  0  0  0  0  0  0  0  0
   -7.8150   23.1550  -31.8930 C   0  0  0  0  0  0  0  0  0  0  0  0
   -8.2190   21.8440  -31.2130 C   0  0  0  0  0  0  0  0  0  0  0  0
   -7.3480   20.7540  -31.6490 N   0  0  0  0  0  0  0  0  0  0  0  0
   -7.7800   19.7560  -32.5900 C   0  0  0  0  0  0  0  0  0  0  0  0
   -8.9740   19.7610  -33.0000 O   0  0  0  0  0  0  0  0  0  0  0  0
   -6.8520   18.7060  -33.0750 C   0  0  0  0  0  0  0  0  0  0  0  0
   -7.2290   17.3510  -33.0900 C   0  0  0  0  0  0  0  0  0  0  0  0
   -6.3340   16.3730  -33.5330 C   0  0  0  0  0  0  0  0  0  0  0  0
   -5.0570   16.7340  -33.9670 C   0  0  0  0  0  0  0  0  0  0  0  0
   -4.6650   18.0760  -33.9700 C   0  0  0  0  0  0  0  0  0  0  0  0
   -3.3690   18.3980  -34.3990 O   0  0  0  0  0  0  0  0  0  0  0  0
   -2.4920   19.2780  -33.7490 C   0  0  0  0  0  0  0  0  0  0  0  0
   -1.5710   20.0710  -34.4600 C   0  0  0  0  0  0  0  0  0  0  0  0
   -0.7010   20.9250  -33.7740 C   0  0  0  0  0  0  0  0  0  0  0  0
   -0.7340   20.9840  -32.3780 C   0  0  0  0  0  0  0  0  0  0  0  0
   -1.6330   20.1850  -31.6660 C   0  0  0  0  0  0  0  0  0  0  0  0
   -2.5030   19.3300  -32.3500 C   0  0  0  0  0  0  0  0  0  0  0  0
   -5.5580   19.0580  -33.5020 C   0  0  0  0  0  0  0  0  0  0  0  0
   -5.3060   23.1640  -31.5200 C   0  0  0  0  0  0  0  0  0  0  0  0
   -5.2130   22.0810  -32.4100 O   0  0  0  0  0  0  0  0  0  0  0  0
   -4.1980   21.9290  -33.3970 C   0  0  0  0  0  0  0  0  0  0  0  0
   -4.1690   23.7020  -30.8840 C   0  0  0  0  0  0  0  0  0  0  0  0
   -2.7767   24.9476  -27.3698 H   0  0  0  0  0  0  0  0  0  0  0  0
   -2.5588   23.5141  -28.4302 H   0  0  0  0  0  0  0  0  0  0  0  0
   -1.3319   24.8262  -28.4302 H   0  0  0  0  0  0  0  0  0  0  0  0
   -5.6549   26.1467  -29.0143 H   0  0  0  0  0  0  0  0  0  0  0  0
   -7.6755   25.2085  -30.1222 H   0  0  0  0  0  0  0  0  0  0  0  0
   -8.6356   23.8809  -31.7950 H   0  0  0  0  0  0  0  0  0  0  0  0
   -7.6088   22.9548  -32.9548 H   0  0  0  0  0  0  0  0  0  0  0  0
   -8.1353   21.9606  -30.1224 H   0  0  0  0  0  0  0  0  0  0  0  0
   -9.2564   21.6039  -31.4891 H   0  0  0  0  0  0  0  0  0  0  0  0
   -6.3920   20.7030  -31.2340 H   0  0  0  0  0  0  0  0  0  0  0  0
   -8.2340   17.0593  -32.7511 H   0  0  0  0  0  0  0  0  0  0  0  0
   -6.6367   15.3155  -33.5397 H   0  0  0  0  0  0  0  0  0  0  0  0
   -4.3556   15.9584  -34.3084 H   0  0  0  0  0  0  0  0  0  0  0  0
   -1.5355   20.0188  -35.5582 H   0  0  0  0  0  0  0  0  0  0  0  0
    0.0097   21.5507  -34.3338 H   0  0  0  0  0  0  0  0  0  0  0  0
   -0.0525   21.6592  -31.8397 H   0  0  0  0  0  0  0  0  0  0  0  0
   -1.6562   20.2287  -30.5671 H   0  0  0  0  0  0  0  0  0  0  0  0
   -3.2005   18.6942  -31.7851 H   0  0  0  0  0  0  0  0  0  0  0  0
   -5.2414   20.1110  -33.4696 H   0  0  0  0  0  0  0  0  0  0  0  0
   -3.2257   21.7834  -32.9036 H   0  0  0  0  0  0  0  0  0  0  0  0
   -4.4251   21.0549  -34.0249 H   0  0  0  0  0  0  0  0  0  0  0  0
   -4.1591   22.8313  -34.0249 H   0  0  0  0  0  0  0  0  0  0  0  0
   -3.1775   23.2750  -31.0951 H   0  0  0  0  0  0  0  0  0  0  0  0
  1  2  1  0
  2  3  1  0
  3  4  2  0
  4  5  1  0
  5  6  2  0
  6  7  1  0
  7  8  1  0
  8  9  1  0
  9 10  1  0
 10 11  2  0
 10 12  1  0
 12 13  2  0
 13 14  1  0
 14 15  2  0
 15 16  1  0
 16 17  1  0
 17 18  1  0
 18 19  2  0
 19 20  1  0
 20 21  2  0
 21 22  1  0
 22 23  2  0
 16 24  2  0
  6 25  1  0
 25 26  1  0
 26 27  1  0
 25 28  2  0
 28  3  1  0
 24 12  1  0
 23 18  1  0
  1 29  1  0
  1 30  1  0
  1 31  1  0
  4 32  1  0
  5 33  1  0
  7 34  1  0
  7 35  1  0
  8 36  1  0
  8 37  1  0
  9 38  1  0
 13 39  1  0
 14 40  1  0
 15 41  1  0
 19 42  1  0
 20 43  1  0
 21 44  1  0
 22 45  1  0
 23 46  1  0
 24 47  1  0
 27 48  1  0
 27 49  1  0
 27 50  1  0
 28 51  1  0
M  END
>  <UniqueID>  (26) 
24

>  <SMILES>  (26) 
COc1ccc(CCNC(=O)c2cccc(Oc3ccccc3)c2)c(OC)c1

>  <Energy>  (26) 
56.90863962817065

>  <Genealogy>  (26) 
COc1ccc(CCNC(=O)c2cccc(Oc3ccccc3)c2)c(OC)c1 (3D coordinates assigned)
COc1ccc(CCNC(=O)c2cccc(Oc3ccccc3)c2)c(OC)c1 (optimized conformer: 56.90863962817065 kcal/mol)

>  <smiles>  (26) 
COc1ccc(CCNC(=O)c2cccc(Oc3ccccc3)c2)c(OC)c1

>  <score_type>  (26) 
oracle

>  <origin>  (26) 
adgpu

>  <m_score__min__energy>  (26) 
-9.1899999999999995

>  <m_primary>  (26) 
energy

$$$$
26:0
     RDKit          3D

 35 37  0  0  0  0  0  0  0  0999 V2000
   -6.4830   16.5450  -33.7360 C   0  0  0  0  0  0  0  0  0  0  0  0
   -6.9320   17.8360  -33.1210 C   0  0  0  0  0  0  0  0  0  0  0  0
   -7.9200   17.8390  -32.1230 C   0  0  0  0  0  0  0  0  0  0  0  0
   -8.3830   19.0470  -31.5930 C   0  0  0  0  0  0  0  0  0  0  0  0
   -7.8800   20.2620  -32.0730 C   0  0  0  0  0  0  0  0  0  0  0  0
   -8.5170   21.8150  -31.4390 S   0  0  0  0  0  0  0  0  0  0  0  0
   -7.3260   22.8770  -32.3360 C   0  0  0  0  0  0  0  0  0  0  0  0
   -6.3520   23.5400  -31.3820 C   0  0  0  0  0  0  0  0  0  0  0  0
   -6.8570   24.5600  -30.5610 C   0  0  0  0  0  0  0  0  0  0  0  0
   -6.0350   25.1830  -29.6230 C   0  0  0  0  0  0  0  0  0  0  0  0
   -6.5010   26.0990  -28.8960 O   0  0  0  0  0  0  0  0  0  0  0  0
   -4.7390   24.8010  -29.4880 N   0  0  0  0  0  0  0  0  0  0  0  0
   -4.2000   23.8090  -30.2530 C   0  0  0  0  0  0  0  0  0  0  0  0
   -2.8600   23.4320  -30.0620 C   0  0  0  0  0  0  0  0  0  0  0  0
   -2.2990   22.4100  -30.8250 C   0  0  0  0  0  0  0  0  0  0  0  0
   -3.0630   21.7590  -31.7910 C   0  0  0  0  0  0  0  0  0  0  0  0
   -4.3930   22.1250  -32.0020 C   0  0  0  0  0  0  0  0  0  0  0  0
   -4.9920   23.1490  -31.2340 C   0  0  0  0  0  0  0  0  0  0  0  0
   -6.8860   20.2630  -33.0600 C   0  0  0  0  0  0  0  0  0  0  0  0
   -6.4240   19.0570  -33.5920 C   0  0  0  0  0  0  0  0  0  0  0  0
   -6.2334   15.8273  -32.9407 H   0  0  0  0  0  0  0  0  0  0  0  0
   -7.2914   16.1351  -34.3593 H   0  0  0  0  0  0  0  0  0  0  0  0
   -5.5947   16.7252  -34.3593 H   0  0  0  0  0  0  0  0  0  0  0  0
   -8.3313   16.8868  -31.7567 H   0  0  0  0  0  0  0  0  0  0  0  0
   -9.1433   19.0427  -30.7980 H   0  0  0  0  0  0  0  0  0  0  0  0
   -6.7629   22.2592  -33.0510 H   0  0  0  0  0  0  0  0  0  0  0  0
   -7.8886   23.6637  -32.8601 H   0  0  0  0  0  0  0  0  0  0  0  0
   -7.9080   24.8699  -30.6582 H   0  0  0  0  0  0  0  0  0  0  0  0
   -4.1480   25.2820  -28.7700 H   0  0  0  0  0  0  0  0  0  0  0  0
   -2.2499   23.9470  -29.3053 H   0  0  0  0  0  0  0  0  0  0  0  0
   -1.2511   22.1167  -30.6643 H   0  0  0  0  0  0  0  0  0  0  0  0
   -2.6157   20.9524  -32.3904 H   0  0  0  0  0  0  0  0  0  0  0  0
   -4.9822   21.6103  -32.7753 H   0  0  0  0  0  0  0  0  0  0  0  0
   -6.4683   21.2159  -33.4170 H   0  0  0  0  0  0  0  0  0  0  0  0
   -5.6594   19.0640  -34.3828 H   0  0  0  0  0  0  0  0  0  0  0  0
  1  2  1  0
  2  3  2  0
  3  4  1  0
  4  5  2  0
  5  6  1  0
  6  7  1  0
  7  8  1  0
  8  9  2  0
  9 10  1  0
 10 11  2  0
 10 12  1  0
 12 13  1  0
 13 14  2  0
 14 15  1  0
 15 16  2  0
 16 17  1  0
 17 18  2  0
  5 19  1  0
 19 20  2  0
 20  2  1  0
 18  8  1  0
 18 13  1  0
  1 21  1  0
  1 22  1  0
  1 23  1  0
  3 24  1  0
  4 25  1  0
  7 26  1  0
  7 27  1  0
  9 28  1  0
 12 29  1  0
 14 30  1  0
 15 31  1  0
 16 32  1  0
 17 33  1  0
 19 34  1  0
 20 35  1  0
M  END
>  <UniqueID>  (27) 
25

>  <SMILES>  (27) 
Cc1ccc(SCc2cc(=O)[nH]c3ccccc23)cc1

>  <Energy>  (27) 
37.43640240371117

>  <Genealogy>  (27) 
Cc1ccc(SCc2cc(=O)[nH]c3ccccc23)cc1 (3D coordinates assigned)
Cc1ccc(SCc2cc(=O)[nH]c3ccccc23)cc1 (optimized conformer: 37.43640240371117 kcal/mol)

>  <smiles>  (27) 
Cc1ccc(SCc2cc(=O)[nH]c3ccccc23)cc1

>  <score_type>  (27) 
oracle

>  <origin>  (27) 
adgpu

>  <m_score__min__energy>  (27) 
-8.5

>  <m_primary>  (27) 
energy

$$$$
27:0
     RDKit          3D

 77 82  0  0  0  0  0  0  0  0999 V2000
   -1.3430   21.2780  -35.3370 H   0  0  0  0  0  0  0  0  0  0  0  0
   -0.8920   20.3740  -35.2950 O   0  0  0  0  0  0  0  0  0  0  0  0
   -1.2220   19.3900  -34.3590 C   0  0  0  0  0  0  0  0  0  0  0  0
   -2.4120   18.6850  -34.5510 C   0  0  0  0  0  0  0  0  0  0  0  0
   -3.0603   18.9393  -35.4025 H   0  0  0  0  0  0  0  0  0  0  0  0
   -2.7920   17.6630  -33.6800 C   0  0  0  0  0  0  0  0  0  0  0  0
   -4.0260   16.9730  -33.9370 N   0  0  0  0  0  0  0  0  0  0  0  0
   -5.1510   16.8210  -33.0580 C   0  0  0  0  0  0  0  0  0  0  0  0
   -5.4190   15.6970  -32.5550 O   0  0  0  0  0  0  0  0  0  0  0  0
   -6.0430   17.9730  -32.7930 C   0  0  0  0  0  0  0  0  0  0  0  0
   -5.8310   19.2090  -33.4310 C   0  0  0  0  0  0  0  0  0  0  0  0
   -4.9734   19.3329  -34.1087 H   0  0  0  0  0  0  0  0  0  0  0  0
   -6.7010   20.2810  -33.2110 C   0  0  0  0  0  0  0  0  0  0  0  0
   -6.5251   21.2411  -33.7182 H   0  0  0  0  0  0  0  0  0  0  0  0
   -7.7970   20.1390  -32.3470 C   0  0  0  0  0  0  0  0  0  0  0  0
   -8.7480   21.2900  -32.1360 C   0  0  0  0  0  0  0  0  0  0  0  0
   -9.1841   21.5759  -33.1045 H   0  0  0  0  0  0  0  0  0  0  0  0
   -9.5316   20.9672  -31.4347 H   0  0  0  0  0  0  0  0  0  0  0  0
   -8.0580   22.4610  -31.5550 N   0  0  0  0  0  0  0  0  0  0  0  0
   -7.1860   22.0360  -30.4440 C   0  0  0  0  0  0  0  0  0  0  0  0
   -7.7745   21.4435  -29.7280 H   0  0  0  0  0  0  0  0  0  0  0  0
   -6.3619   21.4307  -30.8497 H   0  0  0  0  0  0  0  0  0  0  0  0
   -6.5950   23.2640  -29.7220 C   0  0  0  0  0  0  0  0  0  0  0  0
   -7.1590   23.4374  -28.7937 H   0  0  0  0  0  0  0  0  0  0  0  0
   -5.5359   23.0587  -29.5072 H   0  0  0  0  0  0  0  0  0  0  0  0
   -6.6680   24.4790  -30.5610 N   0  0  0  0  0  0  0  0  0  0  0  0
   -5.8280   25.5430  -29.9970 C   0  0  0  0  0  0  0  0  0  0  0  0
   -5.8651   25.4960  -28.8986 H   0  0  0  0  0  0  0  0  0  0  0  0
   -4.7899   25.4085  -30.3349 H   0  0  0  0  0  0  0  0  0  0  0  0
   -6.1997   26.5216  -30.3349 H   0  0  0  0  0  0  0  0  0  0  0  0
   -6.2670   24.1770  -31.9440 C   0  0  0  0  0  0  0  0  0  0  0  0
   -6.2504   25.1076  -32.5303 H   0  0  0  0  0  0  0  0  0  0  0  0
   -5.2654   23.7222  -31.9393 H   0  0  0  0  0  0  0  0  0  0  0  0
   -7.2700   23.1900  -32.5790 C   0  0  0  0  0  0  0  0  0  0  0  0
   -7.9608   23.7522  -33.2246 H   0  0  0  0  0  0  0  0  0  0  0  0
   -6.6976   22.4496  -33.1572 H   0  0  0  0  0  0  0  0  0  0  0  0
   -8.0010   18.9140  -31.6940 C   0  0  0  0  0  0  0  0  0  0  0  0
   -8.8485   18.7973  -31.0026 H   0  0  0  0  0  0  0  0  0  0  0  0
   -7.1340   17.8420  -31.9170 C   0  0  0  0  0  0  0  0  0  0  0  0
   -7.3069   16.8856  -31.4018 H   0  0  0  0  0  0  0  0  0  0  0  0
   -1.9620   17.3470  -32.5920 C   0  0  0  0  0  0  0  0  0  0  0  0
   -2.2722   16.5692  -31.8787 H   0  0  0  0  0  0  0  0  0  0  0  0
   -0.7450   18.0110  -32.4060 C   0  0  0  0  0  0  0  0  0  0  0  0
    0.0990   17.5800  -31.3290 N   0  0  0  0  0  0  0  0  0  0  0  0
    0.2340   18.0690  -30.1220 C   0  0  0  0  0  0  0  0  0  0  0  0
    0.9330   17.2720  -29.2070 C   0  0  0  0  0  0  0  0  0  0  0  0
    1.4786   16.3847  -29.5606 H   0  0  0  0  0  0  0  0  0  0  0  0
    0.9420   17.5950  -27.8530 C   0  0  0  0  0  0  0  0  0  0  0  0
    1.4873   16.9581  -27.1410 H   0  0  0  0  0  0  0  0  0  0  0  0
    0.2820   18.6900  -27.4100 N   0  0  0  0  0  0  0  0  0  0  0  0
   -0.3490   19.5400  -28.2600 C   0  0  0  0  0  0  0  0  0  0  0  0
   -0.9980   20.6630  -27.7390 C   0  0  0  0  0  0  0  0  0  0  0  0
   -1.0297   20.8144  -26.6499 H   0  0  0  0  0  0  0  0  0  0  0  0
   -1.6090   21.5990  -28.5850 C   0  0  0  0  0  0  0  0  0  0  0  0
   -2.3780   22.7050  -27.9700 C   0  0  0  0  0  0  0  0  0  0  0  0
   -1.7640   23.6950  -27.2650 N   0  0  0  0  0  0  0  0  0  0  0  0
   -2.6510   24.5670  -26.7390 C   0  0  0  0  0  0  0  0  0  0  0  0
   -2.2590   25.7120  -25.8700 C   0  0  0  0  0  0  0  0  0  0  0  0
   -2.3585   25.4215  -24.8137 H   0  0  0  0  0  0  0  0  0  0  0  0
   -1.2148   25.9890  -26.0773 H   0  0  0  0  0  0  0  0  0  0  0  0
   -2.9143   26.5708  -26.0773 H   0  0  0  0  0  0  0  0  0  0  0  0
   -4.2330   24.1200  -27.0860 S   0  0  0  0  0  0  0  0  0  0  0  0
   -3.7720   22.7670  -27.9700 C   0  0  0  0  0  0  0  0  0  0  0  0
   -4.4505   22.0549  -28.4625 H   0  0  0  0  0  0  0  0  0  0  0  0
   -1.4510   21.4630  -29.9840 C   0  0  0  0  0  0  0  0  0  0  0  0
   -1.9350   22.5150  -30.9500 C   0  0  0  0  0  0  0  0  0  0  0  0
   -2.3303   23.3743  -30.3885 H   0  0  0  0  0  0  0  0  0  0  0  0
   -1.0979   22.8444  -31.5831 H   0  0  0  0  0  0  0  0  0  0  0  0
   -2.7298   22.0936  -31.5831 H   0  0  0  0  0  0  0  0  0  0  0  0
   -0.8190   20.3210  -30.5030 C   0  0  0  0  0  0  0  0  0  0  0  0
   -0.6964   20.2221  -31.5917 H   0  0  0  0  0  0  0  0  0  0  0  0
   -0.3380   19.2980  -29.6590 C   0  0  0  0  0  0  0  0  0  0  0  0
   -0.3910   19.0920  -33.2520 C   0  0  0  0  0  0  0  0  0  0  0  0
    0.8580   19.9010  -32.9960 C   0  0  0  0  0  0  0  0  0  0  0  0
    1.0137   20.0019  -31.9118 H   0  0  0  0  0  0  0  0  0  0  0  0
    1.7234   19.3914  -33.4449 H   0  0  0  0  0  0  0  0  0  0  0  0
    0.7468   20.8991  -33.4449 H   0  0  0  0  0  0  0  0  0  0  0  0
  1  2  1  0
  2  3  1  0
  3  4  2  0
  4  5  1  0
  4  6  1  0
  6  7  1  0
  7  8  1  0
  8  9  2  0
  8 10  1  0
 10 11  2  0
 11 12  1  0
 11 13  1  0
 13 14  1  0
 13 15  2  0
 15 16  1  0
 16 17  1  0
 16 18  1  0
 16 19  1  0
 19 20  1  0
 20 21  1  0
 20 22  1  0
 20 23  1  0
 23 24  1  0
 23 25  1  0
 23 26  1  0
 26 27  1  0
 27 28  1  0
 27 29  1  0
 27 30  1  0
 26 31  1  0
 31 32  1  0
 31 33  1  0
 31 34  1  0
 34 35  1  0
 34 36  1  0
 15 37  1  0
 37 38  1  0
 37 39  2  0
 39 40  1  0
  6 41  2  0
 41 42  1  0
 41 43  1  0
 43 44  1  0
 44 45  2  0
 45 46  1  0
 46 47  1  0
 46 48  2  0
 48 49  1  0
 48 50  1  0
 50 51  1  0
 51 52  2  0
 52 53  1  0
 52 54  1  0
 54 55  1  0
 55 56  1  0
 56 57  2  0
 57 58  1  0
 58 59  1  0
 58 60  1  0
 58 61  1  0
 57 62  1  0
 62 63  1  0
 63 64  1  0
 54 65  2  0
 65 66  1  0
 66 67  1  0
 66 68  1  0
 66 69  1  0
 65 70  1  0
 70 71  1  0
 70 72  2  0
 43 73  2  0
 73 74  1  0
 74 75  1  0
 74 76  1  0
 74 77  1  0
 73  3  1  0
 39 10  1  0
 72 45  1  0
 34 19  1  0
 72 51  1  0
 63 55  2  0
M  CHG  2   7  -1  50  -1
M  END
>  <UniqueID>  (28) 
26

>  <SMILES>  (28) 
Cc1nc(-c2cc3[n-]cc/c(=N/c4cc([N-]C(=O)c5ccc(CN6CCN(C)CC6)cc5)cc(O)c4C)c3cc2C)cs1

>  <Energy>  (28) 
156.11641782743928

>  <Genealogy>  (28) 
Cc1nc(-c2cc3[n-]ccc(=Nc4cc([N-]C(=O)c5ccc(CN6CCN(C)CC6)cc5)cc(O)c4C)c3cc2C)cs1 (protonated)
Cc1nc(-c2cc3[n-]cc/c(=N/c4cc([N-]C(=O)c5ccc(CN6CCN(C)CC6)cc5)cc(O)c4C)c3cc2C)cs1 (cis-trans isomerization)
Cc1nc(-c2cc3[n-]cc/c(=N/c4cc([N-]C(=O)c5ccc(CN6CCN(C)CC6)cc5)cc(O)c4C)c3cc2C)cs1 (3D coordinates assigned)
Cc1nc(-c2cc3[n-]cc/c(=N/c4cc([N-]C(=O)c5ccc(CN6CCN(C)CC6)cc5)cc(O)c4C)c3cc2C)cs1 (nonaromatic ring conformer: 156.11641782743928 kcal/mol)

>  <smiles>  (28) 
Cc1nc(-c2cc3[nH]ccc(=Nc4cc(NC(=O)c5ccc(CN6CCN(C)CC6)cc5)cc(O)c4C)c3cc2C)cs1

>  <score_type>  (28) 
oracle

>  <origin>  (28) 
adgpu

>  <m_score__min__energy>  (28) 
-12.58

>  <m_primary>  (28) 
energy

$$$$
28:0
     RDKit          3D

 73 77  0  0  0  0  0  0  0  0999 V2000
   -3.4760   24.5430  -27.2870 C   0  0  0  0  0  0  0  0  0  0  0  0
   -3.9020   24.5440  -28.7160 C   0  0  0  0  0  0  0  0  0  0  0  0
   -5.0520   23.9780  -29.2200 C   0  0  0  0  0  0  0  0  0  0  0  0
   -4.9770   24.2780  -30.5690 C   0  0  0  0  0  0  0  0  0  0  0  0
   -5.8280   23.9560  -31.4970 N   0  0  0  0  0  0  0  0  0  0  0  0
   -7.2810   23.0290  -31.2790 S   0  0  0  0  0  0  0  0  0  0  0  0
   -8.3800   23.6750  -32.0750 O   0  0  0  0  0  0  0  0  0  0  0  0
   -7.7020   23.0190  -29.8350 O   0  0  0  0  0  0  0  0  0  0  0  0
   -7.0250   21.3810  -31.8520 C   0  0  0  0  0  0  0  0  0  0  0  0
   -8.0990   20.6180  -32.3310 C   0  0  0  0  0  0  0  0  0  0  0  0
   -7.8870   19.3170  -32.8010 C   0  0  0  0  0  0  0  0  0  0  0  0
   -6.5900   18.7800  -32.8370 C   0  0  0  0  0  0  0  0  0  0  0  0
   -6.3180   17.4550  -33.3090 N   0  0  0  0  0  0  0  0  0  0  0  0
   -5.0360   16.9440  -34.3660 S   0  0  0  0  0  0  0  0  0  0  0  0
   -5.3180   17.4640  -35.7490 O   0  0  0  0  0  0  0  0  0  0  0  0
   -5.0400   15.4420  -34.4210 O   0  0  0  0  0  0  0  0  0  0  0  0
   -3.4280   17.4680  -33.8500 C   0  0  0  0  0  0  0  0  0  0  0  0
   -3.1180   18.8360  -33.8420 C   0  0  0  0  0  0  0  0  0  0  0  0
   -1.8620   19.2840  -33.4090 C   0  0  0  0  0  0  0  0  0  0  0  0
   -1.6130   20.6990  -33.3660 N   0  0  0  0  0  0  0  0  0  0  0  0
   -1.9810   21.6000  -32.3120 C   0  0  0  0  0  0  0  0  0  0  0  0
   -2.9900   22.3470  -32.4220 O   0  0  0  0  0  0  0  0  0  0  0  0
   -1.1510   21.6500  -31.0680 C   0  0  0  0  0  0  0  0  0  0  0  0
   -1.5480   22.7980  -30.2560 N   0  0  0  0  0  0  0  0  0  0  0  0
   -1.0830   23.0250  -28.9150 C   0  0  0  0  0  0  0  0  0  0  0  0
   -1.5080   22.1730  -27.8850 C   0  0  0  0  0  0  0  0  0  0  0  0
   -1.0910   22.3890  -26.5690 C   0  0  0  0  0  0  0  0  0  0  0  0
   -0.2590   23.4730  -26.2610 C   0  0  0  0  0  0  0  0  0  0  0  0
    0.2570   23.7530  -24.5960 S   0  0  0  0  0  0  0  0  0  0  0  0
    1.7380   23.5100  -24.4900 O   0  0  0  0  0  0  0  0  0  0  0  0
   -0.4380   22.7710  -23.6950 O   0  0  0  0  0  0  0  0  0  0  0  0
   -0.0930   25.3800  -24.0660 N   0  0  0  0  0  0  0  0  0  0  0  0
   -0.9960   26.0460  -25.0150 C   0  0  0  0  0  0  0  0  0  0  0  0
   -1.2510   27.4850  -24.5510 C   0  0  0  0  0  0  0  0  0  0  0  0
   -0.0330   28.2020  -24.4580 O   0  0  0  0  0  0  0  0  0  0  0  0
    0.8160   27.5870  -23.5080 C   0  0  0  0  0  0  0  0  0  0  0  0
    1.1520   26.1520  -23.9300 C   0  0  0  0  0  0  0  0  0  0  0  0
    0.1540   24.3380  -27.2840 C   0  0  0  0  0  0  0  0  0  0  0  0
   -0.2550   24.1180  -28.6030 C   0  0  0  0  0  0  0  0  0  0  0  0
   -0.9180   18.3470  -32.9550 C   0  0  0  0  0  0  0  0  0  0  0  0
   -1.2160   16.9830  -32.9740 C   0  0  0  0  0  0  0  0  0  0  0  0
   -2.4630   16.5390  -33.4190 C   0  0  0  0  0  0  0  0  0  0  0  0
   -2.7180   15.2070  -33.4330 F   0  0  0  0  0  0  0  0  0  0  0  0
   -5.5260   19.5320  -32.3240 C   0  0  0  0  0  0  0  0  0  0  0  0
   -5.7390   20.8240  -31.8390 C   0  0  0  0  0  0  0  0  0  0  0  0
   -3.8580   24.9790  -30.8270 N   0  0  0  0  0  0  0  0  0  0  0  0
   -3.2390   25.1210  -29.6920 O   0  0  0  0  0  0  0  0  0  0  0  0
   -4.3651   24.5451  -26.6393 H   0  0  0  0  0  0  0  0  0  0  0  0
   -2.8764   23.6434  -27.0838 H   0  0  0  0  0  0  0  0  0  0  0  0
   -2.8722   25.4397  -27.0838 H   0  0  0  0  0  0  0  0  0  0  0  0
   -5.8363   23.4243  -28.6830 H   0  0  0  0  0  0  0  0  0  0  0  0
   -9.1132   21.0439  -32.3375 H   0  0  0  0  0  0  0  0  0  0  0  0
   -8.7398   18.7126  -33.1436 H   0  0  0  0  0  0  0  0  0  0  0  0
   -3.8689   19.5656  -34.1793 H   0  0  0  0  0  0  0  0  0  0  0  0
   -1.3006   20.7252  -30.4914 H   0  0  0  0  0  0  0  0  0  0  0  0
   -0.0901   21.7474  -31.3420 H   0  0  0  0  0  0  0  0  0  0  0  0
   -2.3380   23.3850  -30.6090 H   0  0  0  0  0  0  0  0  0  0  0  0
   -2.1744   21.3286  -28.1149 H   0  0  0  0  0  0  0  0  0  0  0  0
   -1.4174   21.7051  -25.7717 H   0  0  0  0  0  0  0  0  0  0  0  0
   -0.5346   26.0587  -26.0135 H   0  0  0  0  0  0  0  0  0  0  0  0
   -1.9498   25.4999  -25.0597 H   0  0  0  0  0  0  0  0  0  0  0  0
   -1.9113   27.9863  -25.2740 H   0  0  0  0  0  0  0  0  0  0  0  0
   -1.7239   27.4590  -23.5582 H   0  0  0  0  0  0  0  0  0  0  0  0
    1.7472   28.1670  -23.4271 H   0  0  0  0  0  0  0  0  0  0  0  0
    0.2986   27.5582  -22.5377 H   0  0  0  0  0  0  0  0  0  0  0  0
    1.6819   26.1672  -24.8938 H   0  0  0  0  0  0  0  0  0  0  0  0
    1.7934   25.6849  -23.1681 H   0  0  0  0  0  0  0  0  0  0  0  0
    0.8031   25.1941  -27.0479 H   0  0  0  0  0  0  0  0  0  0  0  0
    0.0722   24.8025  -29.3995 H   0  0  0  0  0  0  0  0  0  0  0  0
    0.0591   18.6894  -32.5834 H   0  0  0  0  0  0  0  0  0  0  0  0
   -0.4644   16.2542  -32.6366 H   0  0  0  0  0  0  0  0  0  0  0  0
   -4.5140   19.1014  -32.3029 H   0  0  0  0  0  0  0  0  0  0  0  0
   -4.8937   21.4072  -31.4450 H   0  0  0  0  0  0  0  0  0  0  0  0
  1  2  1  0
  2  3  2  0
  3  4  1  0
  4  5  2  3
  5  6  1  0
  6  7  2  0
  6  8  2  0
  6  9  1  0
  9 10  2  0
 10 11  1  0
 11 12  2  0
 12 13  1  0
 13 14  1  0
 14 15  2  0
 14 16  2  0
 14 17  1  0
 17 18  2  0
 18 19  1  0
 19 20  1  0
 20 21  1  0
 21 22  2  0
 21 23  1  0
 23 24  1  0
 24 25  1  0
 25 26  2  0
 26 27  1  0
 27 28  2  0
 28 29  1  0
 29 30  2  0
 29 31  2  0
 29 32  1  0
 32 33  1  0
 33 34  1  0
 34 35  1  0
 35 36  1  0
 36 37  1  0
 28 38  1  0
 38 39  2  0
 19 40  2  0
 40 41  1  0
 41 42  2  0
 42 43  1  0
 12 44  1  0
 44 45  2  0
  4 46  1  0
 46 47  1  0
 47  2  1  0
 45  9  1  0
 42 17  1  0
 39 25  1  0
 37 32  1  0
  1 48  1  0
  1 49  1  0
  1 50  1  0
  3 51  1  0
 10 52  1  0
 11 53  1  0
 18 54  1  0
 23 55  1  0
 23 56  1  0
 24 57  1  0
 26 58  1  0
 27 59  1  0
 33 60  1  0
 33 61  1  0
 34 62  1  0
 34 63  1  0
 36 64  1  0
 36 65  1  0
 37 66  1  0
 37 67  1  0
 38 68  1  0
 39 69  1  0
 40 70  1  0
 41 71  1  0
 44 72  1  0
 45 73  1  0
M  CHG  3  13  -1  20  -1  46  -1
M  END
>  <UniqueID>  (29) 
27

>  <SMILES>  (29) 
Cc1cc(=NS(=O)(=O)c2ccc([N-]S(=O)(=O)c3cc([N-]C(=O)CNc4ccc(S(=O)(=O)N5CCOCC5)cc4)ccc3F)cc2)[n-]o1

>  <Energy>  (29) 
127.26646039165894

>  <Genealogy>  (29) 
Cc1cc(=NS(=O)(=O)c2ccc([N-]S(=O)(=O)c3cc([N-]C(=O)CNc4ccc(S(=O)(=O)N5CCOCC5)cc4)ccc3F)cc2)[n-]o1 (protonated)
Cc1cc(=NS(=O)(=O)c2ccc([N-]S(=O)(=O)c3cc([N-]C(=O)CNc4ccc(S(=O)(=O)N5CCOCC5)cc4)ccc3F)cc2)[n-]o1 (3D coordinates assigned)
Cc1cc(=NS(=O)(=O)c2ccc([N-]S(=O)(=O)c3cc([N-]C(=O)CNc4ccc(S(=O)(=O)N5CCOCC5)cc4)ccc3F)cc2)[n-]o1 (nonaromatic ring conformer: 127.26646039165894 kcal/mol)

>  <smiles>  (29) 
Cc1cc(=NS(=O)(=O)c2ccc(NS(=O)(=O)c3cc(NC(=O)CNc4ccc(S(=O)(=O)N5CCOCC5)cc4)ccc3F)cc2)[nH]o1

>  <score_type>  (29) 
oracle

>  <origin>  (29) 
adgpu

>  <m_score__min__energy>  (29) 
-14.369999999999999

>  <m_primary>  (29) 
energy

$$$$
29:0
     RDKit          3D

 62 65  0  0  0  0  0  0  0  0999 V2000
   -4.1440   20.5530  -32.0990 C   0  0  0  0  0  0  0  0  0  0  0  0
   -5.1720   21.0720  -32.9360 O   0  0  0  0  0  0  0  0  0  0  0  0
   -6.4250   21.5150  -32.4800 C   0  0  0  0  0  0  0  0  0  0  0  0
   -6.6240   22.8330  -32.0220 C   0  0  0  0  0  0  0  0  0  0  0  0
   -7.8810   23.2430  -31.5680 C   0  0  0  0  0  0  0  0  0  0  0  0
   -8.9490   22.3470  -31.5640 C   0  0  0  0  0  0  0  0  0  0  0  0
   -8.7680   21.0390  -32.0150 C   0  0  0  0  0  0  0  0  0  0  0  0
   -7.5110   20.6140  -32.4800 C   0  0  0  0  0  0  0  0  0  0  0  0
   -7.3300   19.1850  -32.9330 C   0  0  0  0  0  0  0  0  0  0  0  0
   -7.4020   18.2030  -31.7560 C   0  0  0  0  0  0  0  0  0  0  0  0
   -6.4960   17.0680  -31.9410 N   0  0  0  0  0  0  0  0  0  0  0  0
   -6.0020   16.5750  -33.1940 C   0  0  0  0  0  0  0  0  0  0  0  0
   -6.8230   16.3450  -34.1190 O   0  0  0  0  0  0  0  0  0  0  0  0
   -4.5640   16.3540  -33.4430 C   0  0  0  0  0  0  0  0  0  0  0  0
   -4.0450   15.0500  -33.4190 C   0  0  0  0  0  0  0  0  0  0  0  0
   -2.6870   14.8290  -33.6630 C   0  0  0  0  0  0  0  0  0  0  0  0
   -1.8350   15.9070  -33.9180 C   0  0  0  0  0  0  0  0  0  0  0  0
   -2.3370   17.2150  -33.9140 C   0  0  0  0  0  0  0  0  0  0  0  0
   -1.2790   18.5840  -34.2280 S   0  0  0  0  0  0  0  0  0  0  0  0
   -2.1200   19.8140  -34.4330 O   0  0  0  0  0  0  0  0  0  0  0  0
   -0.4510   18.3230  -35.4560 O   0  0  0  0  0  0  0  0  0  0  0  0
   -0.2270   18.8020  -32.8670 N   0  0  0  0  0  0  0  0  0  0  0  0
   -0.3870   19.7970  -31.8490 C   0  0  0  0  0  0  0  0  0  0  0  0
   -0.0840   19.4560  -30.5250 C   0  0  0  0  0  0  0  0  0  0  0  0
   -0.2260   20.3960  -29.5010 C   0  0  0  0  0  0  0  0  0  0  0  0
   -0.6760   21.6900  -29.7890 C   0  0  0  0  0  0  0  0  0  0  0  0
   -0.8310   22.8670  -28.4880 S   0  0  0  0  0  0  0  0  0  0  0  0
   -0.1830   24.1540  -28.9130 O   0  0  0  0  0  0  0  0  0  0  0  0
   -0.1550   22.3770  -27.2380 O   0  0  0  0  0  0  0  0  0  0  0  0
   -2.5100   23.1520  -28.1590 N   0  0  0  0  0  0  0  0  0  0  0  0
   -3.2570   23.9050  -28.9030 C   0  0  0  0  0  0  0  0  0  0  0  0
   -4.5890   24.1610  -28.6700 C   0  0  0  0  0  0  0  0  0  0  0  0
   -4.9240   24.9960  -29.7150 C   0  0  0  0  0  0  0  0  0  0  0  0
   -6.2590   25.6130  -29.9540 C   0  0  0  0  0  0  0  0  0  0  0  0
   -3.8640   25.1970  -30.4680 O   0  0  0  0  0  0  0  0  0  0  0  0
   -2.8330   24.5490  -30.0080 N   0  0  0  0  0  0  0  0  0  0  0  0
   -0.9770   22.0380  -31.1120 C   0  0  0  0  0  0  0  0  0  0  0  0
   -0.8340   21.0990  -32.1380 C   0  0  0  0  0  0  0  0  0  0  0  0
   -3.6990   17.4350  -33.6710 C   0  0  0  0  0  0  0  0  0  0  0  0
   -4.4235   20.6941  -31.0445 H   0  0  0  0  0  0  0  0  0  0  0  0
   -4.0119   19.4802  -32.3029 H   0  0  0  0  0  0  0  0  0  0  0  0
   -3.2023   21.0837  -32.3029 H   0  0  0  0  0  0  0  0  0  0  0  0
   -5.7845   23.5438  -32.0218 H   0  0  0  0  0  0  0  0  0  0  0  0
   -8.0276   24.2739  -31.2135 H   0  0  0  0  0  0  0  0  0  0  0  0
   -9.9365   22.6719  -31.2045 H   0  0  0  0  0  0  0  0  0  0  0  0
   -9.6140   20.3360  -32.0067 H   0  0  0  0  0  0  0  0  0  0  0  0
   -8.1229   18.9364  -33.6537 H   0  0  0  0  0  0  0  0  0  0  0  0
   -6.3355   19.0949  -33.3944 H   0  0  0  0  0  0  0  0  0  0  0  0
   -7.1256   18.7328  -30.8324 H   0  0  0  0  0  0  0  0  0  0  0  0
   -8.4295   17.8150  -31.6958 H   0  0  0  0  0  0  0  0  0  0  0  0
   -4.7095   14.1993  -33.2074 H   0  0  0  0  0  0  0  0  0  0  0  0
   -2.2876   13.8041  -33.6543 H   0  0  0  0  0  0  0  0  0  0  0  0
   -0.7690   15.7283  -34.1221 H   0  0  0  0  0  0  0  0  0  0  0  0
    0.2683   18.4409  -30.2895 H   0  0  0  0  0  0  0  0  0  0  0  0
    0.0167   20.1182  -28.4647 H   0  0  0  0  0  0  0  0  0  0  0  0
   -5.2272   23.7916  -27.8538 H   0  0  0  0  0  0  0  0  0  0  0  0
   -6.7385   25.8346  -28.9892 H   0  0  0  0  0  0  0  0  0  0  0  0
   -6.1352   26.5452  -30.5246 H   0  0  0  0  0  0  0  0  0  0  0  0
   -6.8888   24.9147  -30.5246 H   0  0  0  0  0  0  0  0  0  0  0  0
   -1.3274   23.0544  -31.3448 H   0  0  0  0  0  0  0  0  0  0  0  0
   -1.0719   21.3794  -33.1747 H   0  0  0  0  0  0  0  0  0  0  0  0
   -4.0929   18.4620  -33.6589 H   0  0  0  0  0  0  0  0  0  0  0  0
  1  2  1  0
  2  3  1  0
  3  4  2  0
  4  5  1  0
  5  6  2  0
  6  7  1  0
  7  8  2  0
  8  9  1  0
  9 10  1  0
 10 11  1  0
 11 12  1  0
 12 13  2  0
 12 14  1  0
 14 15  2  0
 15 16  1  0
 16 17  2  0
 17 18  1  0
 18 19  1  0
 19 20  2  0
 19 21  2  0
 19 22  1  0
 22 23  1  0
 23 24  2  0
 24 25  1  0
 25 26  2  0
 26 27  1  0
 27 28  2  0
 27 29  2  0
 27 30  1  0
 30 31  2  3
 31 32  1  0
 32 33  2  0
 33 34  1  0
 33 35  1  0
 35 36  1  0
 26 37  1  0
 37 38  2  0
 18 39  2  0
  8  3  1  0
 39 14  1  0
 38 23  1  0
 36 31  1  0
  1 40  1  0
  1 41  1  0
  1 42  1  0
  4 43  1  0
  5 44  1  0
  6 45  1  0
  7 46  1  0
  9 47  1  0
  9 48  1  0
 10 49  1  0
 10 50  1  0
 15 51  1  0
 16 52  1  0
 17 53  1  0
 24 54  1  0
 25 55  1  0
 32 56  1  0
 34 57  1  0
 34 58  1  0
 34 59  1  0
 37 60  1  0
 38 61  1  0
 39 62  1  0
M  CHG  3  11  -1  22  -1  36  -1
M  END
>  <UniqueID>  (30) 
28

>  <SMILES>  (30) 
COc1ccccc1CC[N-]C(=O)c1cccc(S(=O)(=O)[N-]c2ccc(S(=O)(=O)N=c3cc(C)o[n-]3)cc2)c1

>  <Energy>  (30) 
103.6049598636526

>  <Genealogy>  (30) 
COc1ccccc1CC[N-]C(=O)c1cccc(S(=O)(=O)[N-]c2ccc(S(=O)(=O)N=c3cc(C)o[n-]3)cc2)c1 (protonated)
COc1ccccc1CC[N-]C(=O)c1cccc(S(=O)(=O)[N-]c2ccc(S(=O)(=O)N=c3cc(C)o[n-]3)cc2)c1 (3D coordinates assigned)
COc1ccccc1CC[N-]C(=O)c1cccc(S(=O)(=O)[N-]c2ccc(S(=O)(=O)N=c3cc(C)o[n-]3)cc2)c1 (optimized conformer: 103.6049598636526 kcal/mol)

>  <smiles>  (30) 
COc1ccccc1CCNC(=O)c1cccc(S(=O)(=O)Nc2ccc(S(=O)(=O)N=c3cc(C)o[nH]3)cc2)c1

>  <score_type>  (30) 
oracle

>  <origin>  (30) 
adgpu

>  <m_score__min__energy>  (30) 
-13.050000000000001

>  <m_primary>  (30) 
energy

$$$$
30:0
     RDKit          3D

 40 42  0  0  1  0  0  0  0  0999 V2000
   -8.9750   19.1220  -31.9240 C   0  0  0  0  0  0  0  0  0  0  0  0
   -8.9750   20.4310  -32.4210 O   0  0  0  0  0  0  0  0  0  0  0  0
   -8.0410   21.4060  -32.1040 C   0  0  0  0  0  0  0  0  0  0  0  0
   -8.2950   22.4480  -31.2370 C   0  0  0  0  0  0  0  0  0  0  0  0
   -7.2930   23.3800  -30.9820 C   0  0  0  0  0  0  0  0  0  0  0  0
   -6.0580   23.2670  -31.5860 C   0  0  0  0  0  0  0  0  0  0  0  0
   -4.9940   24.1870  -31.3650 N   0  0  0  0  0  0  0  0  0  0  0  0
   -4.3370   24.0770  -30.2530 C   0  0  0  0  0  0  0  0  0  0  0  0
   -4.6420   23.1340  -29.3420 N   0  0  0  0  0  0  0  0  0  0  0  0
   -3.9500   23.0300  -28.1890 C   0  0  0  0  0  0  0  0  0  0  0  0
   -2.9060   23.8930  -27.9150 C   0  0  0  0  0  0  0  0  0  0  0  0
   -2.5950   24.8600  -28.8510 C   0  0  0  0  0  0  0  0  0  0  0  0
   -1.6230   25.6620  -28.5920 N   0  0  0  0  0  0  0  0  0  0  0  0
   -0.8810   25.5670  -27.3810 C   0  0  0  0  0  0  0  0  0  0  0  0
   -1.4140   26.0800  -26.2030 C   0  0  0  0  0  0  0  0  0  0  0  0
   -0.7220   26.0060  -25.0000 C   0  0  0  0  0  0  0  0  0  0  0  0
    0.5380   25.4120  -24.9400 C   0  0  0  0  0  0  0  0  0  0  0  0
    1.0570   24.9070  -26.1200 C   0  0  0  0  0  0  0  0  0  0  0  0
    0.3770   24.9730  -27.3230 C   0  0  0  0  0  0  0  0  0  0  0  0
    0.9170   24.4630  -28.4800 O   0  0  0  0  0  0  0  0  0  0  0  0
   -3.3120   24.9290  -29.9900 N   0  0  0  0  0  0  0  0  0  0  0  0
   -5.8090   22.2130  -32.4600 C   0  0  0  0  0  0  0  0  0  0  0  0
   -6.7990   21.2870  -32.7160 C   0  0  0  0  0  0  0  0  0  0  0  0
   -6.5270   20.2390  -33.5950 O   0  0  0  0  0  0  0  0  0  0  0  0
   -7.9379   18.7792  -31.7939 H   0  0  0  0  0  0  0  0  0  0  0  0
   -9.4935   19.0980  -30.9542 H   0  0  0  0  0  0  0  0  0  0  0  0
   -9.4935   18.4604  -32.6335 H   0  0  0  0  0  0  0  0  0  0  0  0
   -9.2781   22.5415  -30.7525 H   0  0  0  0  0  0  0  0  0  0  0  0
   -7.4879   24.2145  -30.2923 H   0  0  0  0  0  0  0  0  0  0  0  0
   -5.4100   22.4620  -29.4920 H   0  0  0  0  0  0  0  0  0  0  0  0
   -4.2190   22.2513  -27.4602 H   0  0  0  0  0  0  0  0  0  0  0  0
   -2.3378   23.8120  -26.9766 H   0  0  0  0  0  0  0  0  0  0  0  0
   -2.4059   26.5551  -26.2241 H   0  0  0  0  0  0  0  0  0  0  0  0
   -1.1728   26.4202  -24.0861 H   0  0  0  0  0  0  0  0  0  0  0  0
    1.0964   25.3473  -23.9945 H   0  0  0  0  0  0  0  0  0  0  0  0
    2.0500   24.4342  -26.1002 H   0  0  0  0  0  0  0  0  0  0  0  0
    0.5250   24.5560  -29.4060 H   0  0  0  0  0  0  0  0  0  0  0  0
   -3.0870   25.6550  -30.7060 H   0  0  0  0  0  0  0  0  0  0  0  0
   -4.8262   22.1186  -32.9450 H   0  0  0  0  0  0  0  0  0  0  0  0
   -7.3410   19.7220  -33.9180 H   0  0  0  0  0  0  0  0  0  0  0  0
  1  2  1  0
  2  3  1  0
  3  4  2  0
  4  5  1  0
  5  6  2  0
  6  7  1  0
  7  8  2  0
  8  9  1  0
  9 10  1  0
 10 11  2  0
 11 12  1  0
 12 13  2  0
 13 14  1  0
 14 15  2  0
 15 16  1  0
 16 17  2  0
 17 18  1  0
 18 19  2  0
 19 20  1  0
 12 21  1  0
  6 22  1  0
 22 23  2  0
 23 24  1  0
 23  3  1  0
 21  8  1  0
 19 14  1  0
  1 25  1  0
  1 26  1  0
  1 27  1  0
  4 28  1  0
  5 29  1  0
  9 30  1  0
 10 31  1  0
 11 32  1  0
 15 33  1  0
 16 34  1  0
 17 35  1  0
 18 36  1  0
 20 37  1  0
 21 38  1  0
 22 39  1  0
 24 40  1  0
M  END
>  <smiles>  (31) 
COc1ccc(N=c2[nH]ccc(=Nc3ccccc3O)[nH]2)cc1O

>  <score_type>  (31) 
oracle

>  <origin>  (31) 
adgpu

>  <m_score__min__energy>  (31) 
-8.2699999999999996

>  <m_primary>  (31) 
energy

$$$$
31:0
     RDKit          3D

 48 50  0  0  0  0  0  0  0  0999 V2000
   -9.0380   20.9220  -31.8830 C   0  0  0  0  0  0  0  0  0  0  0  0
   -7.7060   21.5210  -31.9480 N   0  0  0  0  0  0  0  0  0  0  0  0
   -7.4140   22.7940  -31.5970 C   0  0  0  0  0  0  0  0  0  0  0  0
   -6.0640   22.9970  -31.7990 C   0  0  0  0  0  0  0  0  0  0  0  0
   -5.3610   24.2300  -31.5960 N   0  0  0  0  0  0  0  0  0  0  0  0
   -4.3090   24.4370  -30.6450 C   0  0  0  0  0  0  0  0  0  0  0  0
   -3.8690   25.6050  -30.4790 O   0  0  0  0  0  0  0  0  0  0  0  0
   -3.7720   23.3330  -29.8150 C   0  0  0  0  0  0  0  0  0  0  0  0
   -4.3090   23.0600  -28.5440 C   0  0  0  0  0  0  0  0  0  0  0  0
   -3.8000   22.0130  -27.7710 C   0  0  0  0  0  0  0  0  0  0  0  0
   -2.7450   21.2290  -28.2530 C   0  0  0  0  0  0  0  0  0  0  0  0
   -2.1020   19.9250  -27.2570 S   0  0  0  0  0  0  0  0  0  0  0  0
   -3.1910   18.9360  -26.9430 O   0  0  0  0  0  0  0  0  0  0  0  0
   -1.6020   20.5100  -25.9650 O   0  0  0  0  0  0  0  0  0  0  0  0
   -0.7940   19.1270  -28.0930 N   0  0  0  0  0  0  0  0  0  0  0  0
   -0.4620   17.8630  -27.4200 C   0  0  0  0  0  0  0  0  0  0  0  0
    0.3790   20.0100  -28.1430 C   0  0  0  0  0  0  0  0  0  0  0  0
   -2.1910   21.5110  -29.5080 C   0  0  0  0  0  0  0  0  0  0  0  0
   -2.6980   22.5580  -30.2820 C   0  0  0  0  0  0  0  0  0  0  0  0
   -5.5850   21.8030  -32.3010 C   0  0  0  0  0  0  0  0  0  0  0  0
   -4.4020   21.5650  -32.6650 O   0  0  0  0  0  0  0  0  0  0  0  0
   -6.5970   20.9140  -32.3650 N   0  0  0  0  0  0  0  0  0  0  0  0
   -6.5010   19.5530  -32.8190 C   0  0  0  0  0  0  0  0  0  0  0  0
   -6.8130   18.4940  -31.9500 C   0  0  0  0  0  0  0  0  0  0  0  0
   -6.7260   17.1710  -32.3920 C   0  0  0  0  0  0  0  0  0  0  0  0
   -6.3350   16.8960  -33.7050 C   0  0  0  0  0  0  0  0  0  0  0  0
   -6.0330   17.9440  -34.5790 C   0  0  0  0  0  0  0  0  0  0  0  0
   -6.1180   19.2700  -34.1390 C   0  0  0  0  0  0  0  0  0  0  0  0
   -9.3300   20.7907  -30.8306 H   0  0  0  0  0  0  0  0  0  0  0  0
   -9.7615   21.5814  -32.3847 H   0  0  0  0  0  0  0  0  0  0  0  0
   -9.0247   19.9432  -32.3847 H   0  0  0  0  0  0  0  0  0  0  0  0
   -8.1287   23.5386  -31.2164 H   0  0  0  0  0  0  0  0  0  0  0  0
   -5.1348   23.6745  -28.1561 H   0  0  0  0  0  0  0  0  0  0  0  0
   -4.2298   21.8041  -26.7802 H   0  0  0  0  0  0  0  0  0  0  0  0
   -1.1040   18.9190  -29.0710 H   0  0  0  0  0  0  0  0  0  0  0  0
   -0.4998   18.0070  -26.3301 H   0  0  0  0  0  0  0  0  0  0  0  0
   -1.1876   17.0899  -27.7131 H   0  0  0  0  0  0  0  0  0  0  0  0
    0.5498   17.5463  -27.7131 H   0  0  0  0  0  0  0  0  0  0  0  0
    0.7000   20.2516  -27.1190 H   0  0  0  0  0  0  0  0  0  0  0  0
    1.1978   19.5022  -28.6737 H   0  0  0  0  0  0  0  0  0  0  0  0
    0.1175   20.9373  -28.6737 H   0  0  0  0  0  0  0  0  0  0  0  0
   -1.3536   20.9060  -29.8858 H   0  0  0  0  0  0  0  0  0  0  0  0
   -2.2528   22.7767  -31.2638 H   0  0  0  0  0  0  0  0  0  0  0  0
   -7.1270   18.7070  -30.9175 H   0  0  0  0  0  0  0  0  0  0  0  0
   -6.9655   16.3455  -31.7056 H   0  0  0  0  0  0  0  0  0  0  0  0
   -6.2648   15.8542  -34.0509 H   0  0  0  0  0  0  0  0  0  0  0  0
   -5.7283   17.7266  -35.6134 H   0  0  0  0  0  0  0  0  0  0  0  0
   -5.8838   20.0930  -34.8302 H   0  0  0  0  0  0  0  0  0  0  0  0
  1  2  1  0
  2  3  1  0
  3  4  2  0
  4  5  1  0
  5  6  1  0
  6  7  2  0
  6  8  1  0
  8  9  2  0
  9 10  1  0
 10 11  2  0
 11 12  1  0
 12 13  2  0
 12 14  2  0
 12 15  1  0
 15 16  1  0
 15 17  1  0
 11 18  1  0
 18 19  2  0
  4 20  1  0
 20 21  2  0
 20 22  1  0
 22 23  1  0
 23 24  2  0
 24 25  1  0
 25 26  2  0
 26 27  1  0
 27 28  2  0
 22  2  1  0
 28 23  1  0
 19  8  1  0
  1 29  1  0
  1 30  1  0
  1 31  1  0
  3 32  1  0
  9 33  1  0
 10 34  1  0
 15 35  1  0
 16 36  1  0
 16 37  1  0
 16 38  1  0
 17 39  1  0
 17 40  1  0
 17 41  1  0
 18 42  1  0
 19 43  1  0
 24 44  1  0
 25 45  1  0
 26 46  1  0
 27 47  1  0
 28 48  1  0
M  CHG  2   5  -1  15   1
M  END
>  <UniqueID>  (32) 
29

>  <SMILES>  (32) 
Cn1cc([N-]C(=O)c2ccc(S(=O)(=O)[NH+](C)C)cc2)c(=O)n1-c1ccccc1

>  <Energy>  (32) 
94.58228386915219

>  <Genealogy>  (32) 
Cn1cc([N-]C(=O)c2ccc(S(=O)(=O)[NH+](C)C)cc2)c(=O)n1-c1ccccc1 (protonated)
Cn1cc([N-]C(=O)c2ccc(S(=O)(=O)[NH+](C)C)cc2)c(=O)n1-c1ccccc1 (3D coordinates assigned)
Cn1cc([N-]C(=O)c2ccc(S(=O)(=O)[NH+](C)C)cc2)c(=O)n1-c1ccccc1 (optimized conformer: 94.58228386915219 kcal/mol)

>  <smiles>  (32) 
CN(C)S(=O)(=O)c1ccc(C(=O)Nc2cn(C)n(-c3ccccc3)c2=O)cc1

>  <score_type>  (32) 
oracle

>  <origin>  (32) 
adgpu

>  <m_score__min__energy>  (32) 
-10.800000000000001

>  <m_primary>  (32) 
energy

$$$$
32:0
     RDKit          3D

 54 57  0  0  0  0  0  0  0  0999 V2000
   -2.6930   26.4290  -28.9490 H   0  0  0  0  0  0  0  0  0  0  0  0
   -2.0740   25.6530  -28.7490 O   0  0  0  0  0  0  0  0  0  0  0  0
   -2.1290   24.4330  -29.4310 C   0  0  0  0  0  0  0  0  0  0  0  0
   -3.1310   24.2500  -30.3980 C   0  0  0  0  0  0  0  0  0  0  0  0
   -4.0560   25.3210  -30.6510 N   0  0  0  0  0  0  0  0  0  0  0  0
   -5.4510   25.3330  -30.3090 C   0  0  0  0  0  0  0  0  0  0  0  0
   -5.9490   26.3340  -29.7240 O   0  0  0  0  0  0  0  0  0  0  0  0
   -6.3170   24.1980  -30.7020 C   0  0  0  0  0  0  0  0  0  0  0  0
   -6.5260   23.8950  -32.0590 C   0  0  0  0  0  0  0  0  0  0  0  0
   -6.0333   24.4993  -32.8349 H   0  0  0  0  0  0  0  0  0  0  0  0
   -7.3540   22.8330  -32.4300 C   0  0  0  0  0  0  0  0  0  0  0  0
   -7.5015   22.6044  -33.4958 H   0  0  0  0  0  0  0  0  0  0  0  0
   -8.0010   22.0530  -31.4550 C   0  0  0  0  0  0  0  0  0  0  0  0
   -8.9060   20.9480  -31.8520 C   0  0  0  0  0  0  0  0  0  0  0  0
  -10.0520   21.2130  -32.3060 O   0  0  0  0  0  0  0  0  0  0  0  0
   -8.4710   19.5830  -31.7100 N   0  0  0  0  0  0  0  0  0  0  0  0
   -7.6010   18.9410  -32.4390 C   0  0  0  0  0  0  0  0  0  0  0  0
   -7.2900   17.6460  -32.2110 N   0  0  0  0  0  0  0  0  0  0  0  0
   -6.4070   17.1530  -33.0810 N   0  0  0  0  0  0  0  0  0  0  0  0
   -6.0170   18.0490  -34.0120 C   0  0  0  0  0  0  0  0  0  0  0  0
   -5.0060   17.7560  -35.0690 C   0  0  0  0  0  0  0  0  0  0  0  0
   -4.0517   17.4794  -34.5970 H   0  0  0  0  0  0  0  0  0  0  0  0
   -5.3604   16.9236  -35.6947 H   0  0  0  0  0  0  0  0  0  0  0  0
   -4.8604   18.6489  -35.6947 H   0  0  0  0  0  0  0  0  0  0  0  0
   -6.7590   19.5460  -33.7730 S   0  0  0  0  0  0  0  0  0  0  0  0
   -7.7900   22.3550  -30.0980 C   0  0  0  0  0  0  0  0  0  0  0  0
   -8.2859   21.7533  -29.3221 H   0  0  0  0  0  0  0  0  0  0  0  0
   -6.9550   23.4140  -29.7260 C   0  0  0  0  0  0  0  0  0  0  0  0
   -6.7965   23.6348  -28.6601 H   0  0  0  0  0  0  0  0  0  0  0  0
   -3.1780   23.0560  -31.1350 C   0  0  0  0  0  0  0  0  0  0  0  0
   -3.9371   22.9305  -31.9212 H   0  0  0  0  0  0  0  0  0  0  0  0
   -2.2690   22.0250  -30.8790 C   0  0  0  0  0  0  0  0  0  0  0  0
   -2.3220   20.8060  -31.6420 N   0  0  0  0  0  0  0  0  0  0  0  0
   -3.4130   20.0350  -31.8570 C   0  0  0  0  0  0  0  0  0  0  0  0
   -4.7890   20.3180  -31.3280 C   0  0  0  0  0  0  0  0  0  0  0  0
   -4.7671   20.3135  -30.2282 H   0  0  0  0  0  0  0  0  0  0  0  0
   -5.1232   21.3037  -31.6841 H   0  0  0  0  0  0  0  0  0  0  0  0
   -5.4850   19.5442  -31.6841 H   0  0  0  0  0  0  0  0  0  0  0  0
   -3.0840   18.9520  -32.6500 C   0  0  0  0  0  0  0  0  0  0  0  0
   -3.7641   18.1613  -32.9997 H   0  0  0  0  0  0  0  0  0  0  0  0
   -1.7330   19.0580  -32.9170 C   0  0  0  0  0  0  0  0  0  0  0  0
   -1.1243   18.3615  -33.5122 H   0  0  0  0  0  0  0  0  0  0  0  0
   -1.2950   20.2090  -32.2910 C   0  0  0  0  0  0  0  0  0  0  0  0
    0.1140   20.7160  -32.3270 C   0  0  0  0  0  0  0  0  0  0  0  0
    0.4824   20.8485  -31.2990 H   0  0  0  0  0  0  0  0  0  0  0  0
    0.7513   19.9908  -32.8542 H   0  0  0  0  0  0  0  0  0  0  0  0
    0.1431   21.6810  -32.8542 H   0  0  0  0  0  0  0  0  0  0  0  0
   -1.2960   22.1950  -29.8860 C   0  0  0  0  0  0  0  0  0  0  0  0
   -0.5903   21.3788  -29.6719 H   0  0  0  0  0  0  0  0  0  0  0  0
   -1.2100   23.3930  -29.1610 C   0  0  0  0  0  0  0  0  0  0  0  0
   -0.1410   23.5520  -28.1140 C   0  0  0  0  0  0  0  0  0  0  0  0
   -0.5943   23.4846  -27.1140 H   0  0  0  0  0  0  0  0  0  0  0  0
    0.6085   22.7555  -28.2313 H   0  0  0  0  0  0  0  0  0  0  0  0
    0.3442   24.5322  -28.2313 H   0  0  0  0  0  0  0  0  0  0  0  0
  1  2  1  0
  2  3  1  0
  3  4  2  0
  4  5  1  0
  5  6  1  0
  6  7  2  0
  6  8  1  0
  8  9  2  0
  9 10  1  0
  9 11  1  0
 11 12  1  0
 11 13  2  0
 13 14  1  0
 14 15  2  0
 14 16  1  0
 16 17  2  0
 17 18  1  0
 18 19  1  0
 19 20  2  0
 20 21  1  0
 21 22  1  0
 21 23  1  0
 21 24  1  0
 20 25  1  0
 13 26  1  0
 26 27  1  0
 26 28  2  0
 28 29  1  0
  4 30  1  0
 30 31  1  0
 30 32  2  0
 32 33  1  0
 33 34  1  0
 34 35  1  0
 35 36  1  0
 35 37  1  0
 35 38  1  0
 34 39  2  0
 39 40  1  0
 39 41  1  0
 41 42  1  0
 41 43  2  0
 43 44  1  0
 44 45  1  0
 44 46  1  0
 44 47  1  0
 32 48  1  0
 48 49  1  0
 48 50  2  0
 50 51  1  0
 51 52  1  0
 51 53  1  0
 51 54  1  0
 50  3  1  0
 28  8  1  0
 43 33  1  0
 25 17  1  0
M  CHG  2   5  -1  18  -1
M  END
>  <UniqueID>  (33) 
30

>  <SMILES>  (33) 
Cc1n[n-]/c(=N/C(=O)c2ccc(C(=O)[N-]c3cc(-n4c(C)ccc4C)cc(C)c3O)cc2)s1

>  <Energy>  (33) 
130.37672128929876

>  <Genealogy>  (33) 
Cc1n[n-]c(=NC(=O)c2ccc(C(=O)[N-]c3cc(-n4c(C)ccc4C)cc(C)c3O)cc2)s1 (protonated)
Cc1n[n-]/c(=N/C(=O)c2ccc(C(=O)[N-]c3cc(-n4c(C)ccc4C)cc(C)c3O)cc2)s1 (cis-trans isomerization)
Cc1n[n-]/c(=N/C(=O)c2ccc(C(=O)[N-]c3cc(-n4c(C)ccc4C)cc(C)c3O)cc2)s1 (3D coordinates assigned)
Cc1n[n-]/c(=N/C(=O)c2ccc(C(=O)[N-]c3cc(-n4c(C)ccc4C)cc(C)c3O)cc2)s1 (optimized conformer: 130.37672128929876 kcal/mol)

>  <smiles>  (33) 
Cc1n[nH]c(=NC(=O)c2ccc(C(=O)Nc3cc(-n4c(C)ccc4C)cc(C)c3O)cc2)s1

>  <score_type>  (33) 
oracle

>  <origin>  (33) 
adgpu

>  <m_score__min__energy>  (33) 
-12.74

>  <m_primary>  (33) 
energy

$$$$
33:0
     RDKit          3D

 40 42  0  0  0  0  0  0  0  0999 V2000
   -9.5650   19.3910  -31.5870 H   0  0  0  0  0  0  0  0  0  0  0  0
   -8.9460   18.9410  -32.2990 N   0  0  0  0  0  0  0  0  0  0  0  0
   -7.7440   19.3450  -32.5810 C   0  0  0  0  0  0  0  0  0  0  0  0
   -7.0430   18.6720  -33.5260 N   0  0  0  0  0  0  0  0  0  0  0  0
   -5.7810   19.0140  -33.8900 C   0  0  0  0  0  0  0  0  0  0  0  0
   -4.9570   18.0220  -35.1420 S   0  0  0  0  0  0  0  0  0  0  0  0
   -4.8730   16.5820  -34.0750 C   0  0  0  0  0  0  0  0  0  0  0  0
   -4.6270   15.3160  -34.6190 C   0  0  0  0  0  0  0  0  0  0  0  0
   -4.4949   15.2009  -35.7050 H   0  0  0  0  0  0  0  0  0  0  0  0
   -4.5490   14.1980  -33.7840 C   0  0  0  0  0  0  0  0  0  0  0  0
   -4.3464   13.2060  -34.2141 H   0  0  0  0  0  0  0  0  0  0  0  0
   -4.7280   14.3360  -32.4000 C   0  0  0  0  0  0  0  0  0  0  0  0
   -4.6080   12.9300  -31.3470 S   0  0  0  0  0  0  0  0  0  0  0  0
   -5.5190   13.1020  -30.1640 O   0  0  0  0  0  0  0  0  0  0  0  0
   -3.1970   12.7850  -30.8500 O   0  0  0  0  0  0  0  0  0  0  0  0
   -5.0600   11.5100  -32.2220 N   0  0  0  0  0  0  0  0  0  0  0  0
   -4.6080   11.5730  -33.1600 H   0  0  0  0  0  0  0  0  0  0  0  0
   -6.0920   11.5660  -32.3800 H   0  0  0  0  0  0  0  0  0  0  0  0
   -4.9770   15.6050  -31.8580 C   0  0  0  0  0  0  0  0  0  0  0  0
   -5.1121   15.7212  -30.7725 H   0  0  0  0  0  0  0  0  0  0  0  0
   -5.0540   16.7230  -32.6940 C   0  0  0  0  0  0  0  0  0  0  0  0
   -5.2572   17.7156  -32.2657 H   0  0  0  0  0  0  0  0  0  0  0  0
   -5.1530   20.1160  -33.2860 C   0  0  0  0  0  0  0  0  0  0  0  0
   -3.8050   20.4800  -33.6690 C   0  0  0  0  0  0  0  0  0  0  0  0
   -2.7280   20.7750  -33.9750 N   0  0  0  0  0  0  0  0  0  0  0  0
   -5.8430   20.8440  -32.2920 C   0  0  0  0  0  0  0  0  0  0  0  0
   -5.1960   22.0050  -31.6300 C   0  0  0  0  0  0  0  0  0  0  0  0
   -5.7170   23.2980  -31.8000 C   0  0  0  0  0  0  0  0  0  0  0  0
   -6.6092   23.4523  -32.4246 H   0  0  0  0  0  0  0  0  0  0  0  0
   -5.1040   24.3900  -31.1770 C   0  0  0  0  0  0  0  0  0  0  0  0
   -5.5144   25.4015  -31.3126 H   0  0  0  0  0  0  0  0  0  0  0  0
   -3.9700   24.1970  -30.3820 C   0  0  0  0  0  0  0  0  0  0  0  0
   -3.3630   25.2840  -29.7640 O   0  0  0  0  0  0  0  0  0  0  0  0
   -3.4480   22.9120  -30.2090 C   0  0  0  0  0  0  0  0  0  0  0  0
   -2.5562   22.7615  -29.5829 H   0  0  0  0  0  0  0  0  0  0  0  0
   -4.0570   21.8180  -30.8300 C   0  0  0  0  0  0  0  0  0  0  0  0
   -3.6432   20.8082  -30.6918 H   0  0  0  0  0  0  0  0  0  0  0  0
   -7.1550   20.4560  -31.9320 C   0  0  0  0  0  0  0  0  0  0  0  0
   -7.8910   21.2070  -30.9350 C   0  0  0  0  0  0  0  0  0  0  0  0
   -8.4760   21.8090  -30.1390 N   0  0  0  0  0  0  0  0  0  0  0  0
  1  2  1  0
  2  3  2  0
  3  4  1  0
  4  5  1  0
  5  6  1  0
  6  7  1  0
  7  8  2  0
  8  9  1  0
  8 10  1  0
 10 11  1  0
 10 12  2  0
 12 13  1  0
 13 14  2  0
 13 15  2  0
 13 16  1  0
 16 17  1  0
 16 18  1  0
 12 19  1  0
 19 20  1  0
 19 21  2  0
 21 22  1  0
  5 23  2  0
 23 24  1  0
 24 25  3  0
 23 26  1  0
 26 27  1  0
 27 28  2  0
 28 29  1  0
 28 30  1  0
 30 31  1  0
 30 32  2  0
 32 33  1  0
 32 34  1  0
 34 35  1  0
 34 36  2  0
 36 37  1  0
 26 38  2  0
 38 39  1  0
 39 40  3  0
 38  3  1  0
 21  7  1  0
 36 27  1  0
M  CHG  2   4  -1  33  -1
M  END
>  <UniqueID>  (34) 
31

>  <SMILES>  (34) 
[H]/N=c1/[n-]c(Sc2ccc(S(N)(=O)=O)cc2)c(C#N)c(-c2ccc([O-])cc2)c1C#N

>  <Energy>  (34) 
49.14133553670362

>  <Genealogy>  (34) 
N#Cc1c(Sc2ccc(S(N)(=O)=O)cc2)[n-]c(=N)c(C#N)c1-c1ccc([O-])cc1 (protonated)
[H]/N=c1/[n-]c(Sc2ccc(S(N)(=O)=O)cc2)c(C#N)c(-c2ccc([O-])cc2)c1C#N (cis-trans isomerization)
[H]/N=c1/[n-]c(Sc2ccc(S(N)(=O)=O)cc2)c(C#N)c(-c2ccc([O-])cc2)c1C#N (3D coordinates assigned)
[H]/N=c1/[n-]c(Sc2ccc(S(N)(=O)=O)cc2)c(C#N)c(-c2ccc([O-])cc2)c1C#N (optimized conformer: 49.14133553670362 kcal/mol)

>  <smiles>  (34) 
N#Cc1c(Sc2ccc(S(N)(=O)=O)cc2)[nH]c(=N)c(C#N)c1-c1ccc(O)cc1

>  <score_type>  (34) 
oracle

>  <origin>  (34) 
adgpu

>  <m_score__min__energy>  (34) 
-11.07

>  <m_primary>  (34) 
energy

$$$$
34:0
     RDKit          3D

 62 64  0  0  0  0  0  0  0  0999 V2000
    0.3960   23.8290  -25.1450 C   0  0  0  0  0  0  0  0  0  0  0  0
   -0.5340   24.1230  -26.2910 C   0  0  0  0  0  0  0  0  0  0  0  0
   -1.4950   23.1530  -26.6180 C   0  0  0  0  0  0  0  0  0  0  0  0
   -2.3610   23.3350  -27.6920 C   0  0  0  0  0  0  0  0  0  0  0  0
   -2.2700   24.4820  -28.4890 C   0  0  0  0  0  0  0  0  0  0  0  0
   -3.1740   24.6870  -29.5890 N   0  0  0  0  0  0  0  0  0  0  0  0
   -3.7620   23.6260  -30.3540 C   0  0  0  0  0  0  0  0  0  0  0  0
   -3.3620   22.4390  -30.2130 O   0  0  0  0  0  0  0  0  0  0  0  0
   -4.7480   23.9460  -31.3430 N   0  0  0  0  0  0  0  0  0  0  0  0
   -5.9610   23.2230  -31.6090 C   0  0  0  0  0  0  0  0  0  0  0  0
   -7.2300   23.7880  -31.3900 C   0  0  0  0  0  0  0  0  0  0  0  0
   -8.3840   23.0560  -31.6800 C   0  0  0  0  0  0  0  0  0  0  0  0
   -8.2830   21.7640  -32.2010 C   0  0  0  0  0  0  0  0  0  0  0  0
   -7.0240   21.2020  -32.4480 C   0  0  0  0  0  0  0  0  0  0  0  0
   -6.8770   19.5680  -33.0920 S   0  0  0  0  0  0  0  0  0  0  0  0
   -6.4520   19.6570  -34.5310 O   0  0  0  0  0  0  0  0  0  0  0  0
   -8.2070   18.8670  -33.0260 O   0  0  0  0  0  0  0  0  0  0  0  0
   -5.6850   18.6810  -32.1750 N   0  0  0  0  0  0  0  0  0  0  0  0
   -6.3100   17.4930  -31.5800 C   0  0  0  0  0  0  0  0  0  0  0  0
   -4.5880   18.2790  -33.0650 C   0  0  0  0  0  0  0  0  0  0  0  0
   -5.8670   21.9370  -32.1550 C   0  0  0  0  0  0  0  0  0  0  0  0
   -1.3240   25.4690  -28.1700 C   0  0  0  0  0  0  0  0  0  0  0  0
   -1.2560   26.6120  -28.9630 O   0  0  0  0  0  0  0  0  0  0  0  0
   -0.4490   25.3120  -27.0680 C   0  0  0  0  0  0  0  0  0  0  0  0
    0.7240   26.6180  -26.7130 S   0  0  0  0  0  0  0  0  0  0  0  0
    0.1600   27.9180  -27.2170 O   0  0  0  0  0  0  0  0  0  0  0  0
    2.0150   26.3920  -27.4490 O   0  0  0  0  0  0  0  0  0  0  0  0
    1.0700   26.8180  -24.9510 C   0  0  0  0  0  0  0  0  0  0  0  0
    0.2050   27.9180  -24.2900 C   0  0  0  0  0  0  0  0  0  0  0  0
    0.9750   29.2420  -24.1740 C   0  0  0  0  0  0  0  0  0  0  0  0
    2.2150   29.1120  -23.3630 N   0  0  0  0  0  0  0  0  0  0  0  0
    2.0100   29.5930  -21.9880 C   0  0  0  0  0  0  0  0  0  0  0  0
    2.7970   27.7470  -23.3500 C   0  0  0  0  0  0  0  0  0  0  0  0
    2.5780   27.0330  -24.6880 C   0  0  0  0  0  0  0  0  0  0  0  0
   -0.1304   23.9954  -24.1936 H   0  0  0  0  0  0  0  0  0  0  0  0
    0.7284   22.7820  -25.2019 H   0  0  0  0  0  0  0  0  0  0  0  0
    1.2698   24.4947  -25.2019 H   0  0  0  0  0  0  0  0  0  0  0  0
   -1.5644   22.2350  -26.0159 H   0  0  0  0  0  0  0  0  0  0  0  0
   -3.1218   22.5727  -27.9160 H   0  0  0  0  0  0  0  0  0  0  0  0
   -3.3630   25.6650  -29.9040 H   0  0  0  0  0  0  0  0  0  0  0  0
   -7.3142   24.8090  -30.9893 H   0  0  0  0  0  0  0  0  0  0  0  0
   -9.3746   23.4982  -31.4976 H   0  0  0  0  0  0  0  0  0  0  0  0
   -9.1939   21.1867  -32.4177 H   0  0  0  0  0  0  0  0  0  0  0  0
   -6.2704   17.5683  -30.4833 H   0  0  0  0  0  0  0  0  0  0  0  0
   -7.3588   17.4285  -31.9055 H   0  0  0  0  0  0  0  0  0  0  0  0
   -5.7690   16.5922  -31.9055 H   0  0  0  0  0  0  0  0  0  0  0  0
   -3.7241   17.9624  -32.4622 H   0  0  0  0  0  0  0  0  0  0  0  0
   -4.9182   17.4435  -33.6997 H   0  0  0  0  0  0  0  0  0  0  0  0
   -4.3001   19.1301  -33.6997 H   0  0  0  0  0  0  0  0  0  0  0  0
   -4.8776   21.5002  -32.3555 H   0  0  0  0  0  0  0  0  0  0  0  0
    0.7821   25.8728  -24.4676 H   0  0  0  0  0  0  0  0  0  0  0  0
   -0.6957   28.0800  -24.9003 H   0  0  0  0  0  0  0  0  0  0  0  0
   -0.0648   27.5844  -23.2771 H   0  0  0  0  0  0  0  0  0  0  0  0
    1.2484   29.5805  -25.1843 H   0  0  0  0  0  0  0  0  0  0  0  0
    0.3196   29.9660  -23.6678 H   0  0  0  0  0  0  0  0  0  0  0  0
    2.3390   28.8211  -21.2767 H   0  0  0  0  0  0  0  0  0  0  0  0
    2.5951   30.5109  -21.8296 H   0  0  0  0  0  0  0  0  0  0  0  0
    0.9426   29.8066  -21.8296 H   0  0  0  0  0  0  0  0  0  0  0  0
    3.8773   27.8204  -23.1561 H   0  0  0  0  0  0  0  0  0  0  0  0
    2.2975   27.1652  -22.5613 H   0  0  0  0  0  0  0  0  0  0  0  0
    3.0023   27.6448  -25.4977 H   0  0  0  0  0  0  0  0  0  0  0  0
    3.0744   26.0521  -24.6513 H   0  0  0  0  0  0  0  0  0  0  0  0
  1  2  1  0
  2  3  2  0
  3  4  1  0
  4  5  2  0
  5  6  1  0
  6  7  1  0
  7  8  2  0
  7  9  1  0
  9 10  1  0
 10 11  2  0
 11 12  1  0
 12 13  2  0
 13 14  1  0
 14 15  1  0
 15 16  2  0
 15 17  2  0
 15 18  1  0
 18 19  1  0
 18 20  1  0
 14 21  2  0
  5 22  1  0
 22 23  1  0
 22 24  2  0
 24 25  1  0
 25 26  2  0
 25 27  2  0
 25 28  1  0
 28 29  1  0
 29 30  1  0
 30 31  1  0
 31 32  1  0
 31 33  1  0
 33 34  1  0
 24  2  1  0
 34 28  1  0
 21 10  1  0
  1 35  1  0
  1 36  1  0
  1 37  1  0
  3 38  1  0
  4 39  1  0
  6 40  1  0
 11 41  1  0
 12 42  1  0
 13 43  1  0
 19 44  1  0
 19 45  1  0
 19 46  1  0
 20 47  1  0
 20 48  1  0
 20 49  1  0
 21 50  1  0
 28 51  1  0
 29 52  1  0
 29 53  1  0
 30 54  1  0
 30 55  1  0
 32 56  1  0
 32 57  1  0
 32 58  1  0
 33 59  1  0
 33 60  1  0
 34 61  1  0
 34 62  1  0
M  CHG  2   9  -1  23  -1
M  END
>  <UniqueID>  (35) 
32

>  <SMILES>  (35) 
Cc1ccc(NC(=O)[N-]c2cccc(S(=O)(=O)N(C)C)c2)c([O-])c1S(=O)(=O)C1CCN(C)CC1

>  <Energy>  (35) 
78.09513509982811

>  <Genealogy>  (35) 
Cc1ccc(NC(=O)[N-]c2cccc(S(=O)(=O)N(C)C)c2)c([O-])c1S(=O)(=O)C1CCN(C)CC1 (protonated)
Cc1ccc(NC(=O)[N-]c2cccc(S(=O)(=O)N(C)C)c2)c([O-])c1S(=O)(=O)C1CCN(C)CC1 (3D coordinates assigned)
Cc1ccc(NC(=O)[N-]c2cccc(S(=O)(=O)N(C)C)c2)c([O-])c1S(=O)(=O)C1CCN(C)CC1 (nonaromatic ring conformer: 78.09513509982811 kcal/mol)

>  <smiles>  (35) 
Cc1ccc(NC(=O)Nc2cccc(S(=O)(=O)N(C)C)c2)c(O)c1S(=O)(=O)C1CCN(C)CC1

>  <score_type>  (35) 
oracle

>  <origin>  (35) 
adgpu

>  <m_score__min__energy>  (35) 
-14.710000000000001

>  <m_primary>  (35) 
energy

$$$$
35:0
     RDKit          3D

 67 70  0  0  0  0  0  0  0  0999 V2000
    0.6430   18.5870  -28.0900 C   0  0  0  0  0  0  0  0  0  0  0  0
   -0.2040   19.8160  -28.3010 C   0  0  0  0  0  0  0  0  0  0  0  0
   -0.6280   20.5270  -27.1690 C   0  0  0  0  0  0  0  0  0  0  0  0
   -1.4440   21.6480  -27.2960 C   0  0  0  0  0  0  0  0  0  0  0  0
   -1.8550   22.0870  -28.5530 C   0  0  0  0  0  0  0  0  0  0  0  0
   -2.7740   23.1860  -28.6200 N   0  0  0  0  0  0  0  0  0  0  0  0
   -2.6970   24.2280  -29.5980 C   0  0  0  0  0  0  0  0  0  0  0  0
   -1.9780   25.2330  -29.3640 O   0  0  0  0  0  0  0  0  0  0  0  0
   -3.5000   24.1530  -30.7860 N   0  0  0  0  0  0  0  0  0  0  0  0
   -4.8560   23.7020  -30.9360 C   0  0  0  0  0  0  0  0  0  0  0  0
   -5.9600   24.5340  -30.6820 C   0  0  0  0  0  0  0  0  0  0  0  0
   -7.2560   24.0610  -30.8770 C   0  0  0  0  0  0  0  0  0  0  0  0
   -7.4780   22.7630  -31.3430 C   0  0  0  0  0  0  0  0  0  0  0  0
   -9.1480   22.2650  -31.6020 Cl  0  0  0  0  0  0  0  0  0  0  0  0
   -6.3820   21.9140  -31.6190 C   0  0  0  0  0  0  0  0  0  0  0  0
   -6.6450   20.2850  -32.2790 S   0  0  0  0  0  0  0  0  0  0  0  0
   -7.9460   20.2520  -33.0320 O   0  0  0  0  0  0  0  0  0  0  0  0
   -6.7240   19.2650  -31.1770 O   0  0  0  0  0  0  0  0  0  0  0  0
   -5.2930   19.8640  -33.3850 C   0  0  0  0  0  0  0  0  0  0  0  0
   -4.1900   19.1000  -32.6140 C   0  0  0  0  0  0  0  0  0  0  0  0
   -3.3150   18.2790  -33.5650 C   0  0  0  0  0  0  0  0  0  0  0  0
   -4.1340   17.2010  -34.3040 C   0  0  0  0  0  0  0  0  0  0  0  0
   -5.6180   17.5780  -34.4900 C   0  0  0  0  0  0  0  0  0  0  0  0
   -5.8050   19.0930  -34.6310 C   0  0  0  0  0  0  0  0  0  0  0  0
   -5.0720   22.4040  -31.4220 C   0  0  0  0  0  0  0  0  0  0  0  0
   -3.9670   21.6130  -31.7220 O   0  0  0  0  0  0  0  0  0  0  0  0
   -1.3810   21.4300  -29.7110 C   0  0  0  0  0  0  0  0  0  0  0  0
   -1.6320   21.9570  -30.9810 O   0  0  0  0  0  0  0  0  0  0  0  0
   -0.6080   20.2510  -29.5910 C   0  0  0  0  0  0  0  0  0  0  0  0
   -0.1260   19.3750  -31.0670 S   0  0  0  0  0  0  0  0  0  0  0  0
   -1.2460   18.4810  -31.5260 O   0  0  0  0  0  0  0  0  0  0  0  0
    1.0630   18.5000  -30.7860 O   0  0  0  0  0  0  0  0  0  0  0  0
    0.2830   20.5380  -32.3720 C   0  0  0  0  0  0  0  0  0  0  0  0
    1.6250   20.1630  -33.0370 C   0  0  0  0  0  0  0  0  0  0  0  0
    1.7650   20.7620  -34.4490 C   0  0  0  0  0  0  0  0  0  0  0  0
    0.9320   21.9620  -34.5880 N   0  0  0  0  0  0  0  0  0  0  0  0
   -0.5000   21.6220  -34.5380 C   0  0  0  0  0  0  0  0  0  0  0  0
   -0.8380   20.6110  -33.4180 C   0  0  0  0  0  0  0  0  0  0  0  0
    0.7666   18.4076  -27.0118 H   0  0  0  0  0  0  0  0  0  0  0  0
    0.1507   17.7186  -28.5521 H   0  0  0  0  0  0  0  0  0  0  0  0
    1.6297   18.7380  -28.5521 H   0  0  0  0  0  0  0  0  0  0  0  0
   -0.3122   20.1951  -26.1689 H   0  0  0  0  0  0  0  0  0  0  0  0
   -1.7671   22.1919  -26.3961 H   0  0  0  0  0  0  0  0  0  0  0  0
   -5.8001   25.5630  -30.3277 H   0  0  0  0  0  0  0  0  0  0  0  0
   -8.1129   24.7163  -30.6618 H   0  0  0  0  0  0  0  0  0  0  0  0
   -4.8399   20.7910  -33.7663 H   0  0  0  0  0  0  0  0  0  0  0  0
   -3.5575   19.8250  -32.0808 H   0  0  0  0  0  0  0  0  0  0  0  0
   -4.6742   18.4117  -31.9056 H   0  0  0  0  0  0  0  0  0  0  0  0
   -2.8630   18.9543  -34.3064 H   0  0  0  0  0  0  0  0  0  0  0  0
   -2.5405   17.7737  -32.9693 H   0  0  0  0  0  0  0  0  0  0  0  0
   -3.6873   17.0437  -35.2968 H   0  0  0  0  0  0  0  0  0  0  0  0
   -4.1055   16.2916  -33.6858 H   0  0  0  0  0  0  0  0  0  0  0  0
   -5.9999   17.0858  -35.3966 H   0  0  0  0  0  0  0  0  0  0  0  0
   -6.1704   17.2459  -33.5986 H   0  0  0  0  0  0  0  0  0  0  0  0
   -5.2485   19.4381  -35.5148 H   0  0  0  0  0  0  0  0  0  0  0  0
   -6.8818   19.2929  -34.7336 H   0  0  0  0  0  0  0  0  0  0  0  0
   -2.5430   22.2910  -31.2690 H   0  0  0  0  0  0  0  0  0  0  0  0
    0.3881   21.5339  -31.9170 H   0  0  0  0  0  0  0  0  0  0  0  0
    2.4474   20.5384  -32.4103 H   0  0  0  0  0  0  0  0  0  0  0  0
    1.6595   19.0676  -33.1311 H   0  0  0  0  0  0  0  0  0  0  0  0
    2.8172   21.0304  -34.6247 H   0  0  0  0  0  0  0  0  0  0  0  0
    1.4340   20.0144  -35.1849 H   0  0  0  0  0  0  0  0  0  0  0  0
    1.1310   22.3900  -35.5230 H   0  0  0  0  0  0  0  0  0  0  0  0
   -1.0741   22.5440  -34.3639 H   0  0  0  0  0  0  0  0  0  0  0  0
   -0.7622   21.1525  -35.4976 H   0  0  0  0  0  0  0  0  0  0  0  0
   -1.7694   20.9234  -32.9231 H   0  0  0  0  0  0  0  0  0  0  0  0
   -0.9522   19.6160  -33.8729 H   0  0  0  0  0  0  0  0  0  0  0  0
  1  2  1  0
  2  3  2  0
  3  4  1  0
  4  5  2  0
  5  6  1  0
  6  7  1  0
  7  8  2  0
  7  9  1  0
  9 10  1  0
 10 11  2  0
 11 12  1  0
 12 13  2  0
 13 14  1  0
 13 15  1  0
 15 16  1  0
 16 17  2  0
 16 18  2  0
 16 19  1  0
 19 20  1  0
 20 21  1  0
 21 22  1  0
 22 23  1  0
 23 24  1  0
 15 25  2  0
 25 26  1  0
  5 27  1  0
 27 28  1  0
 27 29  2  0
 29 30  1  0
 30 31  2  0
 30 32  2  0
 30 33  1  0
 33 34  1  0
 34 35  1  0
 35 36  1  0
 36 37  1  0
 37 38  1  0
 29  2  1  0
 38 33  1  0
 25 10  1  0
 24 19  1  0
  1 39  1  0
  1 40  1  0
  1 41  1  0
  3 42  1  0
  4 43  1  0
 11 44  1  0
 12 45  1  0
 19 46  1  0
 20 47  1  0
 20 48  1  0
 21 49  1  0
 21 50  1  0
 22 51  1  0
 22 52  1  0
 23 53  1  0
 23 54  1  0
 24 55  1  0
 24 56  1  0
 28 57  1  0
 33 58  1  0
 34 59  1  0
 34 60  1  0
 35 61  1  0
 35 62  1  0
 36 63  1  0
 37 64  1  0
 37 65  1  0
 38 66  1  0
 38 67  1  0
M  CHG  3   6  -1   9  -1  26  -1
M  END
>  <UniqueID>  (36) 
33

>  <SMILES>  (36) 
Cc1ccc([N-]C(=O)[N-]c2ccc(Cl)c(S(=O)(=O)C3CCCCC3)c2[O-])c(O)c1S(=O)(=O)C1CCNCC1

>  <Energy>  (36) 
84.96801843389254

>  <Genealogy>  (36) 
Cc1ccc([N-]C(=O)[N-]c2ccc(Cl)c(S(=O)(=O)C3CCCCC3)c2[O-])c(O)c1S(=O)(=O)C1CCNCC1 (protonated)
Cc1ccc([N-]C(=O)[N-]c2ccc(Cl)c(S(=O)(=O)C3CCCCC3)c2[O-])c(O)c1S(=O)(=O)C1CCNCC1 (3D coordinates assigned)
Cc1ccc([N-]C(=O)[N-]c2ccc(Cl)c(S(=O)(=O)C3CCCCC3)c2[O-])c(O)c1S(=O)(=O)C1CCNCC1 (nonaromatic ring conformer: 84.96801843389254 kcal/mol)

>  <smiles>  (36) 
Cc1ccc(NC(=O)Nc2ccc(Cl)c(S(=O)(=O)C3CCCCC3)c2O)c(O)c1S(=O)(=O)C1CCNCC1

>  <score_type>  (36) 
oracle

>  <origin>  (36) 
adgpu

>  <m_score__min__energy>  (36) 
-17.23

>  <m_primary>  (36) 
energy

$$$$
36:0
     RDKit          3D

 49 52  0  0  0  0  0  0  0  0999 V2000
   -6.2900   22.9040  -32.4860 O   0  0  0  0  0  0  0  0  0  0  0  0
   -5.1760   22.4830  -32.0720 C   0  0  0  0  0  0  0  0  0  0  0  0
   -4.7210   21.1720  -32.4480 N   0  0  0  0  0  0  0  0  0  0  0  0
   -5.4810   20.3250  -33.3760 C   0  0  0  0  0  0  0  0  0  0  0  0
   -4.6410   19.1700  -33.8890 C   0  0  0  0  0  0  0  0  0  0  0  0
   -5.2060   18.1270  -34.6490 C   0  0  0  0  0  0  0  0  0  0  0  0
   -4.4030   17.0940  -35.1400 C   0  0  0  0  0  0  0  0  0  0  0  0
   -3.0290   17.0950  -34.8890 C   0  0  0  0  0  0  0  0  0  0  0  0
   -2.4540   18.1330  -34.1500 C   0  0  0  0  0  0  0  0  0  0  0  0
   -3.2540   19.1680  -33.6570 C   0  0  0  0  0  0  0  0  0  0  0  0
   -6.7480   19.8020  -32.7280 C   0  0  0  0  0  0  0  0  0  0  0  0
   -6.7150   18.6900  -31.8630 C   0  0  0  0  0  0  0  0  0  0  0  0
   -7.8920   18.2090  -31.2830 C   0  0  0  0  0  0  0  0  0  0  0  0
   -9.1130   18.8270  -31.5600 C   0  0  0  0  0  0  0  0  0  0  0  0
   -9.1600   19.9260  -32.4200 C   0  0  0  0  0  0  0  0  0  0  0  0
   -7.9850   20.4120  -33.0040 C   0  0  0  0  0  0  0  0  0  0  0  0
   -4.3650   23.3530  -31.2030 C   0  0  0  0  0  0  0  0  0  0  0  0
   -3.3580   22.9640  -30.3400 C   0  0  0  0  0  0  0  0  0  0  0  0
   -2.9390   24.1520  -29.7800 C   0  0  0  0  0  0  0  0  0  0  0  0
   -1.8490   24.3230  -28.7690 C   0  0  0  0  0  0  0  0  0  0  0  0
   -1.5400   25.7030  -28.5840 O   0  0  0  0  0  0  0  0  0  0  0  0
   -1.2840   26.3180  -27.3470 C   0  0  0  0  0  0  0  0  0  0  0  0
   -1.7980   25.8230  -26.1310 C   0  0  0  0  0  0  0  0  0  0  0  0
   -1.5060   26.4720  -24.9270 C   0  0  0  0  0  0  0  0  0  0  0  0
   -0.7070   27.6180  -24.9240 C   0  0  0  0  0  0  0  0  0  0  0  0
   -0.1960   28.1160  -26.1260 C   0  0  0  0  0  0  0  0  0  0  0  0
   -0.4860   27.4690  -27.3310 C   0  0  0  0  0  0  0  0  0  0  0  0
   -3.6420   25.1360  -30.2890 O   0  0  0  0  0  0  0  0  0  0  0  0
   -4.5110   24.6930  -31.1490 N   0  0  0  0  0  0  0  0  0  0  0  0
   -3.8250   20.8150  -32.0470 H   0  0  0  0  0  0  0  0  0  0  0  0
   -5.7610   20.9543  -34.2337 H   0  0  0  0  0  0  0  0  0  0  0  0
   -6.2861   18.1257  -34.8573 H   0  0  0  0  0  0  0  0  0  0  0  0
   -4.8537   16.2788  -35.7251 H   0  0  0  0  0  0  0  0  0  0  0  0
   -2.3993   16.2789  -35.2729 H   0  0  0  0  0  0  0  0  0  0  0  0
   -1.3712   18.1354  -33.9563 H   0  0  0  0  0  0  0  0  0  0  0  0
   -2.7952   19.9868  -33.0834 H   0  0  0  0  0  0  0  0  0  0  0  0
   -5.7565   18.1973  -31.6429 H   0  0  0  0  0  0  0  0  0  0  0  0
   -7.8564   17.3419  -30.6070 H   0  0  0  0  0  0  0  0  0  0  0  0
  -10.0379   18.4481  -31.1007 H   0  0  0  0  0  0  0  0  0  0  0  0
  -10.1228   20.4108  -32.6389 H   0  0  0  0  0  0  0  0  0  0  0  0
   -8.0289   21.2763  -33.6830 H   0  0  0  0  0  0  0  0  0  0  0  0
   -2.9809   21.9490  -30.1463 H   0  0  0  0  0  0  0  0  0  0  0  0
   -2.1767   23.8954  -27.8100 H   0  0  0  0  0  0  0  0  0  0  0  0
   -0.9483   23.8061  -29.1317 H   0  0  0  0  0  0  0  0  0  0  0  0
   -2.4308   24.9233  -26.1292 H   0  0  0  0  0  0  0  0  0  0  0  0
   -1.9062   26.0794  -23.9806 H   0  0  0  0  0  0  0  0  0  0  0  0
   -0.4801   28.1282  -23.9762 H   0  0  0  0  0  0  0  0  0  0  0  0
    0.4346   29.0173  -26.1238 H   0  0  0  0  0  0  0  0  0  0  0  0
   -0.0841   27.8672  -28.2744 H   0  0  0  0  0  0  0  0  0  0  0  0
  1  2  2  0
  2  3  1  0
  3  4  1  0
  4  5  1  0
  5  6  2  0
  6  7  1  0
  7  8  2  0
  8  9  1  0
  9 10  2  0
  4 11  1  0
 11 12  2  0
 12 13  1  0
 13 14  2  0
 14 15  1  0
 15 16  2  0
  2 17  1  0
 17 18  1  0
 18 19  2  0
 19 20  1  0
 20 21  1  0
 21 22  1  0
 22 23  2  0
 23 24  1  0
 24 25  2  0
 25 26  1  0
 26 27  2  0
 19 28  1  0
 28 29  1  0
 10  5  1  0
 16 11  1  0
 29 17  2  0
 27 22  1  0
  3 30  1  0
  4 31  1  0
  6 32  1  0
  7 33  1  0
  8 34  1  0
  9 35  1  0
 10 36  1  0
 12 37  1  0
 13 38  1  0
 14 39  1  0
 15 40  1  0
 16 41  1  0
 18 42  1  0
 20 43  1  0
 20 44  1  0
 23 45  1  0
 24 46  1  0
 25 47  1  0
 26 48  1  0
 27 49  1  0
M  END
>  <UniqueID>  (37) 
34

>  <SMILES>  (37) 
O=C(NC(c1ccccc1)c1ccccc1)c1cc(COc2ccccc2)on1

>  <Energy>  (37) 
82.78185604442643

>  <Genealogy>  (37) 
O=C(NC(c1ccccc1)c1ccccc1)c1cc(COc2ccccc2)on1 (3D coordinates assigned)
O=C(NC(c1ccccc1)c1ccccc1)c1cc(COc2ccccc2)on1 (optimized conformer: 82.78185604442643 kcal/mol)

>  <smiles>  (37) 
O=C(NC(c1ccccc1)c1ccccc1)c1cc(COc2ccccc2)on1

>  <score_type>  (37) 
oracle

>  <origin>  (37) 
adgpu

>  <m_score__min__energy>  (37) 
-10.65

>  <m_primary>  (37) 
energy

$$$$
37:0
     RDKit          3D

 42 45  0  0  0  0  0  0  0  0999 V2000
   -4.1870   11.8270  -34.0510 C   0  0  0  0  0  0  0  0  0  0  0  0
   -4.2710   13.3060  -34.2150 C   0  0  0  0  0  0  0  0  0  0  0  0
   -5.2030   14.1320  -33.6240 C   0  0  0  0  0  0  0  0  0  0  0  0
   -4.9120   15.3840  -34.1380 C   0  0  0  0  0  0  0  0  0  0  0  0
   -5.6110   16.6580  -33.8370 C   0  0  0  0  0  0  0  0  0  0  0  0
   -6.4520   16.7840  -32.7160 C   0  0  0  0  0  0  0  0  0  0  0  0
   -7.1020   17.9920  -32.4500 C   0  0  0  0  0  0  0  0  0  0  0  0
   -6.9320   19.0950  -33.3040 C   0  0  0  0  0  0  0  0  0  0  0  0
   -7.5560   20.3270  -33.0600 O   0  0  0  0  0  0  0  0  0  0  0  0
   -6.9870   21.4010  -32.3590 C   0  0  0  0  0  0  0  0  0  0  0  0
   -5.6080   21.6710  -32.4060 C   0  0  0  0  0  0  0  0  0  0  0  0
   -5.0750   22.7440  -31.6850 C   0  0  0  0  0  0  0  0  0  0  0  0
   -5.9120   23.5540  -30.9050 C   0  0  0  0  0  0  0  0  0  0  0  0
   -5.2360   24.9140  -30.0150 S   0  0  0  0  0  0  0  0  0  0  0  0
   -4.2600   25.6710  -30.8720 O   0  0  0  0  0  0  0  0  0  0  0  0
   -6.3520   25.8350  -29.6090 O   0  0  0  0  0  0  0  0  0  0  0  0
   -4.4190   24.3470  -28.5950 N   0  0  0  0  0  0  0  0  0  0  0  0
   -3.1390   24.4540  -28.4250 C   0  0  0  0  0  0  0  0  0  0  0  0
   -2.3010   25.0150  -29.3250 N   0  0  0  0  0  0  0  0  0  0  0  0
   -1.0140   24.9830  -28.8900 C   0  0  0  0  0  0  0  0  0  0  0  0
   -0.8280   24.3970  -27.6420 C   0  0  0  0  0  0  0  0  0  0  0  0
   -2.3290   23.9010  -27.0640 S   0  0  0  0  0  0  0  0  0  0  0  0
   -7.2820   23.2680  -30.8360 C   0  0  0  0  0  0  0  0  0  0  0  0
   -7.8140   22.1930  -31.5550 C   0  0  0  0  0  0  0  0  0  0  0  0
   -6.0790   18.9800  -34.4060 C   0  0  0  0  0  0  0  0  0  0  0  0
   -5.4290   17.7720  -34.6750 C   0  0  0  0  0  0  0  0  0  0  0  0
   -3.8740   15.2830  -34.9930 N   0  0  0  0  0  0  0  0  0  0  0  0
   -3.4880   14.0180  -35.0460 N   0  0  0  0  0  0  0  0  0  0  0  0
   -4.1728   11.5771  -32.9799 H   0  0  0  0  0  0  0  0  0  0  0  0
   -5.0598   11.3552  -34.5260 H   0  0  0  0  0  0  0  0  0  0  0  0
   -3.2664   11.4571  -34.5260 H   0  0  0  0  0  0  0  0  0  0  0  0
   -5.9941   13.8596  -32.9099 H   0  0  0  0  0  0  0  0  0  0  0  0
   -6.5988   15.9254  -32.0442 H   0  0  0  0  0  0  0  0  0  0  0  0
   -7.7511   18.0802  -31.5663 H   0  0  0  0  0  0  0  0  0  0  0  0
   -4.9457   21.0356  -33.0124 H   0  0  0  0  0  0  0  0  0  0  0  0
   -3.9960   22.9531  -31.7300 H   0  0  0  0  0  0  0  0  0  0  0  0
   -0.1806   25.3904  -29.4811 H   0  0  0  0  0  0  0  0  0  0  0  0
    0.1343   24.2783  -27.1225 H   0  0  0  0  0  0  0  0  0  0  0  0
   -7.9413   23.8913  -30.2141 H   0  0  0  0  0  0  0  0  0  0  0  0
   -8.8888   21.9688  -31.4881 H   0  0  0  0  0  0  0  0  0  0  0  0
   -5.9184   19.8456  -35.0655 H   0  0  0  0  0  0  0  0  0  0  0  0
   -4.7686   17.6923  -35.5511 H   0  0  0  0  0  0  0  0  0  0  0  0
  1  2  1  0
  2  3  2  0
  3  4  1  0
  4  5  1  0
  5  6  2  0
  6  7  1  0
  7  8  2  0
  8  9  1  0
  9 10  1  0
 10 11  2  0
 11 12  1  0
 12 13  2  0
 13 14  1  0
 14 15  2  0
 14 16  2  0
 14 17  1  0
 17 18  2  3
 18 19  1  0
 19 20  1  0
 20 21  2  0
 21 22  1  0
 13 23  1  0
 23 24  2  0
  8 25  1  0
 25 26  2  0
  4 27  2  0
 27 28  1  0
 28  2  1  0
 26  5  1  0
 24 10  1  0
 22 18  1  0
  1 29  1  0
  1 30  1  0
  1 31  1  0
  3 32  1  0
  6 33  1  0
  7 34  1  0
 11 35  1  0
 12 36  1  0
 20 37  1  0
 21 38  1  0
 23 39  1  0
 24 40  1  0
 25 41  1  0
 26 42  1  0
M  CHG  2  19  -1  28  -1
M  END
>  <UniqueID>  (38) 
35

>  <SMILES>  (38) 
Cc1cc(-c2ccc(Oc3ccc(S(=O)(=O)N=c4[n-]ccs4)cc3)cc2)n[n-]1

>  <Energy>  (38) 
114.94701497115136

>  <Genealogy>  (38) 
Cc1cc(-c2ccc(Oc3ccc(S(=O)(=O)N=c4[n-]ccs4)cc3)cc2)n[n-]1 (protonated)
Cc1cc(-c2ccc(Oc3ccc(S(=O)(=O)N=c4[n-]ccs4)cc3)cc2)n[n-]1 (3D coordinates assigned)
Cc1cc(-c2ccc(Oc3ccc(S(=O)(=O)N=c4[n-]ccs4)cc3)cc2)n[n-]1 (optimized conformer: 114.94701497115136 kcal/mol)

>  <smiles>  (38) 
Cc1cc(-c2ccc(Oc3ccc(S(=O)(=O)N=c4[nH]ccs4)cc3)cc2)n[nH]1

>  <score_type>  (38) 
oracle

>  <origin>  (38) 
adgpu

>  <m_score__min__energy>  (38) 
-10.529999999999999

>  <m_primary>  (38) 
energy

$$$$
38:0
     RDKit          3D

 49 52  0  0  0  0  0  0  0  0999 V2000
   -3.7941   16.8449  -35.2614 H   0  0  0  0  0  0  0  0  0  0  0  0
   -3.2800   17.1500  -34.3380 C   0  0  0  0  0  0  0  0  0  0  0  0
   -3.7130   16.6450  -33.1780 C   0  0  0  0  0  0  0  0  0  0  0  0
   -3.1926   16.9141  -32.2470 H   0  0  0  0  0  0  0  0  0  0  0  0
   -5.0960   15.5600  -33.1070 S   0  0  0  0  0  0  0  0  0  0  0  0
   -5.2020   14.7230  -34.3500 O   0  0  0  0  0  0  0  0  0  0  0  0
   -4.9190   14.6460  -31.9280 O   0  0  0  0  0  0  0  0  0  0  0  0
   -6.5530   16.4810  -32.9010 N   0  0  0  0  0  0  0  0  0  0  0  0
   -7.4290   15.9410  -32.7240 H   0  0  0  0  0  0  0  0  0  0  0  0
   -6.5950   17.9180  -32.8350 C   0  0  0  0  0  0  0  0  0  0  0  0
   -7.0810   18.5970  -31.7040 C   0  0  0  0  0  0  0  0  0  0  0  0
   -7.4396   18.0244  -30.8360 H   0  0  0  0  0  0  0  0  0  0  0  0
   -7.1120   19.9940  -31.6740 C   0  0  0  0  0  0  0  0  0  0  0  0
   -7.4917   20.5123  -30.7811 H   0  0  0  0  0  0  0  0  0  0  0  0
   -6.6630   20.7400  -32.7730 C   0  0  0  0  0  0  0  0  0  0  0  0
   -6.6900   22.1770  -32.7120 N   0  0  0  0  0  0  0  0  0  0  0  0
   -7.4060   22.6830  -33.2820 H   0  0  0  0  0  0  0  0  0  0  0  0
   -5.7370   22.9660  -31.9760 C   0  0  0  0  0  0  0  0  0  0  0  0
   -6.0690   24.2700  -31.5910 C   0  0  0  0  0  0  0  0  0  0  0  0
   -7.0377   24.7001  -31.8856 H   0  0  0  0  0  0  0  0  0  0  0  0
   -5.1750   25.0230  -30.8360 C   0  0  0  0  0  0  0  0  0  0  0  0
   -5.4393   26.0504  -30.5452 H   0  0  0  0  0  0  0  0  0  0  0  0
   -3.9790   24.5030  -30.4540 N   0  0  0  0  0  0  0  0  0  0  0  0
   -3.1350   25.2910  -29.7030 O   0  0  0  0  0  0  0  0  0  0  0  0
   -3.6150   23.2280  -30.8010 C   0  0  0  0  0  0  0  0  0  0  0  0
   -2.3730   22.6990  -30.4000 C   0  0  0  0  0  0  0  0  0  0  0  0
   -1.6881   23.3120  -29.7957 H   0  0  0  0  0  0  0  0  0  0  0  0
   -2.0040   21.4010  -30.7640 C   0  0  0  0  0  0  0  0  0  0  0  0
   -0.4530   20.7570  -30.2570 Cl  0  0  0  0  0  0  0  0  0  0  0  0
   -2.8640   20.6190  -31.5350 C   0  0  0  0  0  0  0  0  0  0  0  0
   -2.5674   19.5996  -31.8228 H   0  0  0  0  0  0  0  0  0  0  0  0
   -4.1000   21.1250  -31.9430 C   0  0  0  0  0  0  0  0  0  0  0  0
   -4.7696   20.5031  -32.5552 H   0  0  0  0  0  0  0  0  0  0  0  0
   -4.4950   22.4260  -31.5760 C   0  0  0  0  0  0  0  0  0  0  0  0
   -6.1470   20.0630  -33.8920 C   0  0  0  0  0  0  0  0  0  0  0  0
   -5.7638   20.6363  -34.7490 H   0  0  0  0  0  0  0  0  0  0  0  0
   -6.1180   18.6660  -33.9220 C   0  0  0  0  0  0  0  0  0  0  0  0
   -5.7175   18.1481  -34.8060 H   0  0  0  0  0  0  0  0  0  0  0  0
   -2.1460   18.0980  -34.4490 C   0  0  0  0  0  0  0  0  0  0  0  0
   -0.8430   17.6810  -34.7880 C   0  0  0  0  0  0  0  0  0  0  0  0
   -0.6399   16.6159  -34.9733 H   0  0  0  0  0  0  0  0  0  0  0  0
    0.1940   18.6160  -34.8900 C   0  0  0  0  0  0  0  0  0  0  0  0
    1.2094   18.2825  -35.1504 H   0  0  0  0  0  0  0  0  0  0  0  0
   -0.0570   19.9720  -34.6620 C   0  0  0  0  0  0  0  0  0  0  0  0
    1.3600   21.2440  -34.8030 Br  0  0  0  0  0  0  0  0  0  0  0  0
   -1.3490   20.3970  -34.3390 C   0  0  0  0  0  0  0  0  0  0  0  0
   -1.5485   21.4646  -34.1648 H   0  0  0  0  0  0  0  0  0  0  0  0
   -2.3880   19.4670  -34.2370 C   0  0  0  0  0  0  0  0  0  0  0  0
   -3.4035   19.8091  -33.9888 H   0  0  0  0  0  0  0  0  0  0  0  0
  1  2  1  0
  2  3  2  0
  3  4  1  0
  3  5  1  0
  5  6  2  0
  5  7  2  0
  5  8  1  0
  8  9  1  0
  8 10  1  0
 10 11  2  0
 11 12  1  0
 11 13  1  0
 13 14  1  0
 13 15  2  0
 15 16  1  0
 16 17  1  0
 16 18  1  0
 18 19  2  0
 19 20  1  0
 19 21  1  0
 21 22  1  0
 21 23  2  0
 23 24  1  0
 23 25  1  0
 25 26  2  0
 26 27  1  0
 26 28  1  0
 28 29  1  0
 28 30  2  0
 30 31  1  0
 30 32  1  0
 32 33  1  0
 32 34  2  0
 15 35  1  0
 35 36  1  0
 35 37  2  0
 37 38  1  0
  2 39  1  0
 39 40  2  0
 40 41  1  0
 40 42  1  0
 42 43  1  0
 42 44  2  0
 44 45  1  0
 44 46  1  0
 46 47  1  0
 46 48  2  0
 48 49  1  0
 37 10  1  0
 48 39  1  0
 34 18  1  0
 34 25  1  0
M  CHG  2  23   1  24  -1
M  END
>  <UniqueID>  (39) 
36

>  <SMILES>  (39) 
O=S(=O)(/C=C/c1ccc(Br)cc1)Nc1ccc(Nc2cc[n+]([O-])c3cc(Cl)ccc23)cc1

>  <Energy>  (39) 
70.46510912801816

>  <Genealogy>  (39) 
O=S(=O)(/C=C/c1ccc(Br)cc1)Nc1ccc(Nc2cc[n+]([O-])c3cc(Cl)ccc23)cc1 (cis-trans isomerization)
O=S(=O)(/C=C/c1ccc(Br)cc1)Nc1ccc(Nc2cc[n+]([O-])c3cc(Cl)ccc23)cc1 (3D coordinates assigned)
O=S(=O)(/C=C/c1ccc(Br)cc1)Nc1ccc(Nc2cc[n+]([O-])c3cc(Cl)ccc23)cc1 (optimized conformer: 70.46510912801816 kcal/mol)

>  <smiles>  (39) 
O=S(=O)(C=Cc1ccc(Br)cc1)Nc1ccc(Nc2cc[n+]([O-])c3cc(Cl)ccc23)cc1

>  <score_type>  (39) 
oracle

>  <origin>  (39) 
adgpu

>  <m_score__min__energy>  (39) 
-11.02

>  <m_primary>  (39) 
energy

$$$$
39:0
     RDKit          3D

 46 48  0  0  0  0  0  0  0  0999 V2000
   -5.6530   17.2390  -34.3440 C   0  0  0  0  0  0  0  0  0  0  0  0
   -6.8730   17.5590  -33.6830 O   0  0  0  0  0  0  0  0  0  0  0  0
   -7.1390   18.7880  -33.0630 C   0  0  0  0  0  0  0  0  0  0  0  0
   -6.2690   19.8590  -33.3070 C   0  0  0  0  0  0  0  0  0  0  0  0
   -6.4960   21.1070  -32.7170 C   0  0  0  0  0  0  0  0  0  0  0  0
   -7.5940   21.2930  -31.8720 C   0  0  0  0  0  0  0  0  0  0  0  0
   -7.8880   22.8920  -31.1140 S   0  0  0  0  0  0  0  0  0  0  0  0
   -6.6100   23.7350  -32.1010 C   0  0  0  0  0  0  0  0  0  0  0  0
   -5.3210   23.7730  -31.3340 C   0  0  0  0  0  0  0  0  0  0  0  0
   -4.7070   24.8650  -31.2170 O   0  0  0  0  0  0  0  0  0  0  0  0
   -4.7840   22.6030  -30.7010 N   0  0  0  0  0  0  0  0  0  0  0  0
   -3.4100   22.2030  -30.7730 C   0  0  0  0  0  0  0  0  0  0  0  0
   -3.0810   21.1240  -31.6040 C   0  0  0  0  0  0  0  0  0  0  0  0
   -1.7520   20.7290  -31.7640 C   0  0  0  0  0  0  0  0  0  0  0  0
   -0.7390   21.4050  -31.0870 C   0  0  0  0  0  0  0  0  0  0  0  0
   -1.0510   22.4660  -30.2340 C   0  0  0  0  0  0  0  0  0  0  0  0
   -2.3880   22.8730  -30.0480 C   0  0  0  0  0  0  0  0  0  0  0  0
   -2.6750   23.9790  -29.0960 C   0  0  0  0  0  0  0  0  0  0  0  0
   -3.3890   23.7570  -28.0800 O   0  0  0  0  0  0  0  0  0  0  0  0
   -2.1720   25.2980  -29.3290 N   0  0  0  0  0  0  0  0  0  0  0  0
   -1.2340   25.9720  -28.4410 C   0  0  0  0  0  0  0  0  0  0  0  0
   -0.3670   24.9700  -27.7470 C   0  0  0  0  0  0  0  0  0  0  0  0
   -0.5810   24.4520  -26.4840 C   0  0  0  0  0  0  0  0  0  0  0  0
    0.4860   23.6130  -26.2430 C   0  0  0  0  0  0  0  0  0  0  0  0
    1.2790   23.6680  -27.3720 C   0  0  0  0  0  0  0  0  0  0  0  0
    0.7460   24.4870  -28.2500 O   0  0  0  0  0  0  0  0  0  0  0  0
   -8.4670   20.2290  -31.6180 C   0  0  0  0  0  0  0  0  0  0  0  0
   -8.2430   18.9820  -32.2080 C   0  0  0  0  0  0  0  0  0  0  0  0
   -4.8732   17.0345  -33.5956 H   0  0  0  0  0  0  0  0  0  0  0  0
   -5.7996   16.3489  -34.9735 H   0  0  0  0  0  0  0  0  0  0  0  0
   -5.3438   18.0864  -34.9735 H   0  0  0  0  0  0  0  0  0  0  0  0
   -5.4009   19.7174  -33.9675 H   0  0  0  0  0  0  0  0  0  0  0  0
   -5.8098   21.9428  -32.9182 H   0  0  0  0  0  0  0  0  0  0  0  0
   -6.4581   23.1900  -33.0444 H   0  0  0  0  0  0  0  0  0  0  0  0
   -6.9358   24.7633  -32.3164 H   0  0  0  0  0  0  0  0  0  0  0  0
   -3.8778   20.5830  -32.1354 H   0  0  0  0  0  0  0  0  0  0  0  0
   -1.5044   19.8846  -32.4241 H   0  0  0  0  0  0  0  0  0  0  0  0
    0.3095   21.1022  -31.2248 H   0  0  0  0  0  0  0  0  0  0  0  0
   -0.2441   22.9903  -29.7010 H   0  0  0  0  0  0  0  0  0  0  0  0
   -0.6020   26.6532  -29.0298 H   0  0  0  0  0  0  0  0  0  0  0  0
   -1.7990   26.5402  -27.6874 H   0  0  0  0  0  0  0  0  0  0  0  0
   -1.4255   24.6645  -25.8119 H   0  0  0  0  0  0  0  0  0  0  0  0
    0.6687   23.0197  -25.3349 H   0  0  0  0  0  0  0  0  0  0  0  0
    2.2161   23.1100  -27.5148 H   0  0  0  0  0  0  0  0  0  0  0  0
   -9.3310   20.3745  -30.9528 H   0  0  0  0  0  0  0  0  0  0  0  0
   -8.9311   18.1483  -32.0044 H   0  0  0  0  0  0  0  0  0  0  0  0
  1  2  1  0
  2  3  1  0
  3  4  2  0
  4  5  1  0
  5  6  2  0
  6  7  1  0
  7  8  1  0
  8  9  1  0
  9 10  2  0
  9 11  1  0
 11 12  1  0
 12 13  2  0
 13 14  1  0
 14 15  2  0
 15 16  1  0
 16 17  2  0
 17 18  1  0
 18 19  2  0
 18 20  1  0
 20 21  1  0
 21 22  1  0
 22 23  2  0
 23 24  1  0
 24 25  2  0
 25 26  1  0
  6 27  1  0
 27 28  2  0
 28  3  1  0
 17 12  1  0
 26 22  1  0
  1 29  1  0
  1 30  1  0
  1 31  1  0
  4 32  1  0
  5 33  1  0
  8 34  1  0
  8 35  1  0
 13 36  1  0
 14 37  1  0
 15 38  1  0
 16 39  1  0
 21 40  1  0
 21 41  1  0
 23 42  1  0
 24 43  1  0
 25 44  1  0
 27 45  1  0
 28 46  1  0
M  CHG  2  11  -1  20  -1
M  END
>  <UniqueID>  (40) 
37

>  <SMILES>  (40) 
COc1ccc(SCC(=O)[N-]c2ccccc2C(=O)[N-]Cc2ccco2)cc1

>  <Energy>  (40) 
72.19441980430769

>  <Genealogy>  (40) 
COc1ccc(SCC(=O)[N-]c2ccccc2C(=O)[N-]Cc2ccco2)cc1 (protonated)
COc1ccc(SCC(=O)[N-]c2ccccc2C(=O)[N-]Cc2ccco2)cc1 (3D coordinates assigned)
COc1ccc(SCC(=O)[N-]c2ccccc2C(=O)[N-]Cc2ccco2)cc1 (optimized conformer: 72.19441980430769 kcal/mol)

>  <smiles>  (40) 
COc1ccc(SCC(=O)Nc2ccccc2C(=O)NCc2ccco2)cc1

>  <score_type>  (40) 
oracle

>  <origin>  (40) 
adgpu

>  <m_score__min__energy>  (40) 
-11.25

>  <m_primary>  (40) 
energy

$$$$
40:0
     RDKit          3D

 69 73  0  0  0  0  0  0  0  0999 V2000
   -5.1474   24.9140  -30.9449 H   0  0  0  0  0  0  0  0  0  0  0  0
   -4.2240   24.5060  -30.5080 C   0  0  0  0  0  0  0  0  0  0  0  0
   -3.4410   25.2940  -29.7290 N   0  0  0  0  0  0  0  0  0  0  0  0
   -2.2960   24.8300  -29.1630 C   0  0  0  0  0  0  0  0  0  0  0  0
   -1.5250   25.6830  -28.3660 C   0  0  0  0  0  0  0  0  0  0  0  0
   -1.8534   26.7203  -28.2041 H   0  0  0  0  0  0  0  0  0  0  0  0
   -0.3360   25.2300  -27.7700 C   0  0  0  0  0  0  0  0  0  0  0  0
    0.4710   26.1560  -26.9330 C   0  0  0  0  0  0  0  0  0  0  0  0
    1.8270   26.1780  -27.0800 N   0  0  0  0  0  0  0  0  0  0  0  0
    2.6310   26.9920  -26.3440 C   0  0  0  0  0  0  0  0  0  0  0  0
    4.1130   26.9760  -26.5810 C   0  0  0  0  0  0  0  0  0  0  0  0
    4.6310   26.7773  -25.6312 H   0  0  0  0  0  0  0  0  0  0  0  0
    4.4239   27.9527  -26.9803 H   0  0  0  0  0  0  0  0  0  0  0  0
    4.4570   25.9340  -27.5460 N   0  0  0  0  0  0  0  0  0  0  0  0
    4.5510   26.1980  -28.5530 H   0  0  0  0  0  0  0  0  0  0  0  0
    4.6640   24.5680  -27.1660 C   0  0  0  0  0  0  0  0  0  0  0  0
    4.4980   24.2060  -25.9700 O   0  0  0  0  0  0  0  0  0  0  0  0
    5.0680   23.5630  -28.1940 C   0  0  0  0  0  0  0  0  0  0  0  0
    5.4335   22.6538  -27.6942 H   0  0  0  0  0  0  0  0  0  0  0  0
    4.2007   23.3124  -28.8225 H   0  0  0  0  0  0  0  0  0  0  0  0
    5.8674   23.9824  -28.8225 H   0  0  0  0  0  0  0  0  0  0  0  0
    2.0610   27.8530  -25.3970 C   0  0  0  0  0  0  0  0  0  0  0  0
    2.6975   28.5261  -24.8039 H   0  0  0  0  0  0  0  0  0  0  0  0
    0.6790   27.8480  -25.2140 C   0  0  0  0  0  0  0  0  0  0  0  0
    0.2207   28.5145  -24.4685 H   0  0  0  0  0  0  0  0  0  0  0  0
   -0.1230   26.9980  -25.9760 C   0  0  0  0  0  0  0  0  0  0  0  0
   -1.2131   26.9865  -25.8292 H   0  0  0  0  0  0  0  0  0  0  0  0
    0.0540   23.8930  -27.9670 C   0  0  0  0  0  0  0  0  0  0  0  0
    0.9693   23.5176  -27.4861 H   0  0  0  0  0  0  0  0  0  0  0  0
   -0.7070   23.0360  -28.7660 C   0  0  0  0  0  0  0  0  0  0  0  0
   -0.3798   21.9967  -28.9172 H   0  0  0  0  0  0  0  0  0  0  0  0
   -1.8890   23.4920  -29.3790 C   0  0  0  0  0  0  0  0  0  0  0  0
   -2.6750   22.6580  -30.2090 C   0  0  0  0  0  0  0  0  0  0  0  0
   -2.3030   21.4210  -30.4190 N   0  0  0  0  0  0  0  0  0  0  0  0
   -2.9000   20.4600  -31.3030 C   0  0  0  0  0  0  0  0  0  0  0  0
   -2.1750   20.0090  -32.4130 C   0  0  0  0  0  0  0  0  0  0  0  0
   -1.1443   20.3587  -32.5724 H   0  0  0  0  0  0  0  0  0  0  0  0
   -2.7550   19.1160  -33.3200 C   0  0  0  0  0  0  0  0  0  0  0  0
   -2.1738   18.7534  -34.1807 H   0  0  0  0  0  0  0  0  0  0  0  0
   -4.0750   18.6820  -33.1350 C   0  0  0  0  0  0  0  0  0  0  0  0
   -4.8200   17.5630  -34.2720 S   0  0  0  0  0  0  0  0  0  0  0  0
   -4.2590   17.7730  -35.6520 O   0  0  0  0  0  0  0  0  0  0  0  0
   -4.5170   16.1540  -33.8450 O   0  0  0  0  0  0  0  0  0  0  0  0
   -6.5430   17.7980  -34.2740 N   0  0  0  0  0  0  0  0  0  0  0  0
   -7.1640   17.1650  -33.1080 C   0  0  0  0  0  0  0  0  0  0  0  0
   -7.9845   16.5125  -33.4413 H   0  0  0  0  0  0  0  0  0  0  0  0
   -6.4083   16.5700  -32.5742 H   0  0  0  0  0  0  0  0  0  0  0  0
   -7.7190   18.2370  -32.1650 C   0  0  0  0  0  0  0  0  0  0  0  0
   -8.4887   17.7884  -31.5197 H   0  0  0  0  0  0  0  0  0  0  0  0
   -6.8957   18.6337  -31.5527 H   0  0  0  0  0  0  0  0  0  0  0  0
   -8.3190   19.3480  -32.9400 N   0  0  0  0  0  0  0  0  0  0  0  0
   -9.5000   19.9030  -32.2590 C   0  0  0  0  0  0  0  0  0  0  0  0
  -10.2368   20.2369  -33.0045 H   0  0  0  0  0  0  0  0  0  0  0  0
   -9.9658   19.1366  -31.6221 H   0  0  0  0  0  0  0  0  0  0  0  0
   -9.0500   21.0880  -31.4120 C   0  0  0  0  0  0  0  0  0  0  0  0
   -9.7069   21.9536  -31.5830 H   0  0  0  0  0  0  0  0  0  0  0  0
   -9.0926   20.8593  -30.3369 H   0  0  0  0  0  0  0  0  0  0  0  0
   -7.6360   21.3990  -31.8640 C   0  0  0  0  0  0  0  0  0  0  0  0
   -7.5499   22.4534  -32.1654 H   0  0  0  0  0  0  0  0  0  0  0  0
   -6.9017   21.2392  -31.0607 H   0  0  0  0  0  0  0  0  0  0  0  0
   -7.3900   20.4830  -33.0510 C   0  0  0  0  0  0  0  0  0  0  0  0
   -7.5741   21.0275  -33.9889 H   0  0  0  0  0  0  0  0  0  0  0  0
   -6.3484   20.1293  -33.0554 H   0  0  0  0  0  0  0  0  0  0  0  0
   -4.8170   19.1670  -32.0500 C   0  0  0  0  0  0  0  0  0  0  0  0
   -5.8590   18.8435  -31.9103 H   0  0  0  0  0  0  0  0  0  0  0  0
   -4.2380   20.0600  -31.1450 C   0  0  0  0  0  0  0  0  0  0  0  0
   -4.8315   20.4515  -30.3057 H   0  0  0  0  0  0  0  0  0  0  0  0
   -3.8650   23.1820  -30.7580 C   0  0  0  0  0  0  0  0  0  0  0  0
   -4.5091   22.5460  -31.3830 H   0  0  0  0  0  0  0  0  0  0  0  0
  1  2  1  0
  2  3  1  0
  3  4  1  0
  4  5  2  0
  5  6  1  0
  5  7  1  0
  7  8  1  0
  8  9  2  0
  9 10  1  0
 10 11  1  0
 11 12  1  0
 11 13  1  0
 11 14  1  0
 14 15  1  0
 14 16  1  0
 16 17  2  0
 16 18  1  0
 18 19  1  0
 18 20  1  0
 18 21  1  0
 10 22  2  0
 22 23  1  0
 22 24  1  0
 24 25  1  0
 24 26  2  0
 26 27  1  0
  7 28  2  0
 28 29  1  0
 28 30  1  0
 30 31  1  0
 30 32  2  0
 32 33  1  0
 33 34  2  0
 34 35  1  0
 35 36  2  0
 36 37  1  0
 36 38  1  0
 38 39  1  0
 38 40  2  0
 40 41  1  0
 41 42  2  0
 41 43  2  0
 41 44  1  0
 44 45  1  0
 45 46  1  0
 45 47  1  0
 45 48  1  0
 48 49  1  0
 48 50  1  0
 48 51  1  0
 51 52  1  0
 52 53  1  0
 52 54  1  0
 52 55  1  0
 55 56  1  0
 55 57  1  0
 55 58  1  0
 58 59  1  0
 58 60  1  0
 58 61  1  0
 61 62  1  0
 61 63  1  0
 40 64  1  0
 64 65  1  0
 64 66  2  0
 66 67  1  0
 33 68  1  0
 68 69  1  0
 68  2  2  0
 32  4  1  0
 66 35  1  0
 26  8  1  0
 61 51  1  0
M  CHG  2   3  -1  44  -1
M  END
>  <UniqueID>  (41) 
38

>  <SMILES>  (41) 
CC(=O)NCc1cccc(-c2ccc3/c(=N/c4ccc(S(=O)(=O)[N-]CCN5CCCC5)cc4)cc[n-]c3c2)n1

>  <Energy>  (41) 
89.8397595674629

>  <Genealogy>  (41) 
CC(=O)NCc1cccc(-c2ccc3c(=Nc4ccc(S(=O)(=O)[N-]CCN5CCCC5)cc4)cc[n-]c3c2)n1 (protonated)
CC(=O)NCc1cccc(-c2ccc3/c(=N/c4ccc(S(=O)(=O)[N-]CCN5CCCC5)cc4)cc[n-]c3c2)n1 (cis-trans isomerization)
CC(=O)NCc1cccc(-c2ccc3/c(=N/c4ccc(S(=O)(=O)[N-]CCN5CCCC5)cc4)cc[n-]c3c2)n1 (3D coordinates assigned)
CC(=O)NCc1cccc(-c2ccc3/c(=N/c4ccc(S(=O)(=O)[N-]CCN5CCCC5)cc4)cc[n-]c3c2)n1 (nonaromatic ring conformer: 89.8397595674629 kcal/mol)

>  <smiles>  (41) 
CC(=O)NCc1cccc(-c2ccc3c(=Nc4ccc(S(=O)(=O)NCCN5CCCC5)cc4)cc[nH]c3c2)n1

>  <score_type>  (41) 
oracle

>  <origin>  (41) 
adgpu

>  <m_score__min__energy>  (41) 
-11.18

>  <m_primary>  (41) 
energy

$$$$
41:0
     RDKit          3D

 55 59  0  0  0  0  0  0  0  0999 V2000
   -4.9560   25.1950  -31.0420 O   0  0  0  0  0  0  0  0  0  0  0  0
   -5.8160   24.3350  -30.1580 S   0  0  0  0  0  0  0  0  0  0  0  0
   -7.0400   25.1100  -29.7560 O   0  0  0  0  0  0  0  0  0  0  0  0
   -4.9170   23.9120  -28.7350 N   0  0  0  0  0  0  0  0  0  0  0  0
   -3.6290   23.2670  -28.7660 C   0  0  0  0  0  0  0  0  0  0  0  0
   -3.4680   21.9330  -28.3430 C   0  0  0  0  0  0  0  0  0  0  0  0
   -2.2080   21.3280  -28.3550 C   0  0  0  0  0  0  0  0  0  0  0  0
   -1.0860   22.0440  -28.8060 C   0  0  0  0  0  0  0  0  0  0  0  0
   -1.2440   23.3660  -29.2420 C   0  0  0  0  0  0  0  0  0  0  0  0
   -2.5030   23.9750  -29.2230 C   0  0  0  0  0  0  0  0  0  0  0  0
   -2.6240   25.2930  -29.6520 O   0  0  0  0  0  0  0  0  0  0  0  0
    0.2850   21.4120  -28.8400 C   0  0  0  0  0  0  0  0  0  0  0  0
    0.3200   19.9920  -28.3270 C   0  0  0  0  0  0  0  0  0  0  0  0
    1.5400   19.3000  -28.2950 C   0  0  0  0  0  0  0  0  0  0  0  0
    1.5920   17.9840  -27.8270 C   0  0  0  0  0  0  0  0  0  0  0  0
    0.4260   17.3490  -27.3900 C   0  0  0  0  0  0  0  0  0  0  0  0
   -0.7940   18.0300  -27.4200 C   0  0  0  0  0  0  0  0  0  0  0  0
   -0.8530   19.3480  -27.8880 C   0  0  0  0  0  0  0  0  0  0  0  0
   -2.0810   20.0100  -27.9120 O   0  0  0  0  0  0  0  0  0  0  0  0
   -6.3260   22.8840  -31.0170 C   0  0  0  0  0  0  0  0  0  0  0  0
   -7.6810   22.6760  -31.3080 C   0  0  0  0  0  0  0  0  0  0  0  0
   -8.0810   21.5360  -32.0110 C   0  0  0  0  0  0  0  0  0  0  0  0
   -7.1290   20.6020  -32.4290 C   0  0  0  0  0  0  0  0  0  0  0  0
   -5.7730   20.7990  -32.1390 C   0  0  0  0  0  0  0  0  0  0  0  0
   -4.5880   19.6130  -32.6780 S   0  0  0  0  0  0  0  0  0  0  0  0
   -4.5510   19.5730  -34.1810 O   0  0  0  0  0  0  0  0  0  0  0  0
   -5.0020   18.2610  -32.1660 O   0  0  0  0  0  0  0  0  0  0  0  0
   -3.0170   20.0480  -32.0410 N   0  0  0  0  0  0  0  0  0  0  0  0
   -2.5730   21.3740  -32.5240 C   0  0  0  0  0  0  0  0  0  0  0  0
   -1.5740   21.2810  -33.6910 C   0  0  0  0  0  0  0  0  0  0  0  0
   -1.8530   20.1500  -34.4840 O   0  0  0  0  0  0  0  0  0  0  0  0
   -1.5550   18.9630  -33.7700 C   0  0  0  0  0  0  0  0  0  0  0  0
   -2.0170   18.9960  -32.2930 C   0  0  0  0  0  0  0  0  0  0  0  0
   -5.3760   21.9380  -31.4250 C   0  0  0  0  0  0  0  0  0  0  0  0
   -5.3960   24.0560  -27.8190 H   0  0  0  0  0  0  0  0  0  0  0  0
   -4.3429   21.3615  -27.9997 H   0  0  0  0  0  0  0  0  0  0  0  0
   -0.3708   23.9296  -29.6022 H   0  0  0  0  0  0  0  0  0  0  0  0
    0.6403   21.4125  -29.8810 H   0  0  0  0  0  0  0  0  0  0  0  0
    0.9262   22.0071  -28.1731 H   0  0  0  0  0  0  0  0  0  0  0  0
    2.4597   19.7953  -28.6397 H   0  0  0  0  0  0  0  0  0  0  0  0
    2.5519   17.4473  -27.8026 H   0  0  0  0  0  0  0  0  0  0  0  0
    0.4687   16.3131  -27.0224 H   0  0  0  0  0  0  0  0  0  0  0  0
   -1.7104   17.5290  -27.0749 H   0  0  0  0  0  0  0  0  0  0  0  0
   -8.4314   23.4115  -30.9825 H   0  0  0  0  0  0  0  0  0  0  0  0
   -9.1456   21.3739  -32.2354 H   0  0  0  0  0  0  0  0  0  0  0  0
   -7.4458   19.7090  -32.9877 H   0  0  0  0  0  0  0  0  0  0  0  0
   -3.4550   21.9385  -32.8608 H   0  0  0  0  0  0  0  0  0  0  0  0
   -2.0610   21.8755  -31.6895 H   0  0  0  0  0  0  0  0  0  0  0  0
   -1.6535   22.1869  -34.3100 H   0  0  0  0  0  0  0  0  0  0  0  0
   -0.5559   21.1909  -33.2844 H   0  0  0  0  0  0  0  0  0  0  0  0
   -2.0539   18.1208  -34.2717 H   0  0  0  0  0  0  0  0  0  0  0  0
   -0.4602   18.8567  -33.7633 H   0  0  0  0  0  0  0  0  0  0  0  0
   -2.4583   18.0209  -32.0390 H   0  0  0  0  0  0  0  0  0  0  0  0
   -1.1365   19.2142  -31.6708 H   0  0  0  0  0  0  0  0  0  0  0  0
   -4.3136   22.0900  -31.1838 H   0  0  0  0  0  0  0  0  0  0  0  0
  1  2  2  0
  2  3  2  0
  2  4  1  0
  4  5  1  0
  5  6  2  0
  6  7  1  0
  7  8  2  0
  8  9  1  0
  9 10  2  0
 10 11  1  0
  8 12  1  0
 12 13  1  0
 13 14  2  0
 14 15  1  0
 15 16  2  0
 16 17  1  0
 17 18  2  0
 18 19  1  0
  2 20  1  0
 20 21  2  0
 21 22  1  0
 22 23  2  0
 23 24  1  0
 24 25  1  0
 25 26  2  0
 25 27  2  0
 25 28  1  0
 28 29  1  0
 29 30  1  0
 30 31  1  0
 31 32  1  0
 32 33  1  0
 24 34  2  0
 10  5  1  0
 18 13  1  0
 34 20  1  0
 19  7  1  0
 33 28  1  0
  4 35  1  0
  6 36  1  0
  9 37  1  0
 12 38  1  0
 12 39  1  0
 14 40  1  0
 15 41  1  0
 16 42  1  0
 17 43  1  0
 21 44  1  0
 22 45  1  0
 23 46  1  0
 29 47  1  0
 29 48  1  0
 30 49  1  0
 30 50  1  0
 32 51  1  0
 32 52  1  0
 33 53  1  0
 33 54  1  0
 34 55  1  0
M  CHG  1  11  -1
M  END
>  <UniqueID>  (42) 
39

>  <SMILES>  (42) 
O=S(=O)(Nc1cc2c(cc1[O-])Cc1ccccc1O2)c1cccc(S(=O)(=O)N2CCOCC2)c1

>  <Energy>  (42) 
76.64455155282336

>  <Genealogy>  (42) 
O=S(=O)(Nc1cc2c(cc1[O-])Cc1ccccc1O2)c1cccc(S(=O)(=O)N2CCOCC2)c1 (protonated)
O=S(=O)(Nc1cc2c(cc1[O-])Cc1ccccc1O2)c1cccc(S(=O)(=O)N2CCOCC2)c1 (3D coordinates assigned)
O=S(=O)(Nc1cc2c(cc1[O-])Cc1ccccc1O2)c1cccc(S(=O)(=O)N2CCOCC2)c1 (nonaromatic ring conformer: 76.64455155282336 kcal/mol)

>  <smiles>  (42) 
O=S(=O)(Nc1cc2c(cc1O)Cc1ccccc1O2)c1cccc(S(=O)(=O)N2CCOCC2)c1

>  <score_type>  (42) 
oracle

>  <origin>  (42) 
adgpu

>  <m_score__min__energy>  (42) 
-14.73

>  <m_primary>  (42) 
energy

$$$$
42:0
     RDKit          3D

 41 43  0  0  1  0  0  0  0  0999 V2000
   -0.1060   23.6880  -28.9590 C   0  0  0  0  0  0  0  0  0  0  0  0
   -0.8340   24.4710  -27.9210 C   0  0  0  0  0  0  0  0  0  0  0  0
   -0.0810   25.4000  -27.2030 C   0  0  0  0  0  0  0  0  0  0  0  0
   -0.6640   26.1720  -26.2230 C   0  0  0  0  0  0  0  0  0  0  0  0
   -2.0050   25.9940  -25.9840 C   0  0  0  0  0  0  0  0  0  0  0  0
   -2.7660   25.0660  -26.7000 C   0  0  0  0  0  0  0  0  0  0  0  0
   -4.4600   24.9280  -26.3100 Cl  0  0  0  0  0  0  0  0  0  0  0  0
   -2.1880   24.2920  -27.6790 C   0  0  0  0  0  0  0  0  0  0  0  0
   -2.9480   23.3260  -28.4200 N   0  0  0  0  0  0  0  0  0  0  0  0
   -3.4100   23.7000  -29.7010 C   0  0  0  0  0  0  0  0  0  0  0  0
   -3.1230   24.8750  -30.1220 O   0  0  0  0  0  0  0  0  0  0  0  0
   -4.1870   22.8760  -30.5950 C   0  0  0  0  0  0  0  0  0  0  0  0
   -4.0760   21.5130  -30.7250 C   0  0  0  0  0  0  0  0  0  0  0  0
   -4.8170   20.7910  -31.5780 N   0  0  0  0  0  0  0  0  0  0  0  0
   -5.7110   21.4790  -32.3310 C   0  0  0  0  0  0  0  0  0  0  0  0
   -6.4610   20.8650  -33.1770 N   0  0  0  0  0  0  0  0  0  0  0  0
   -6.4540   19.4730  -33.4200 C   0  0  0  0  0  0  0  0  0  0  0  0
   -7.2080   18.6160  -32.6130 C   0  0  0  0  0  0  0  0  0  0  0  0
   -7.2390   17.2520  -32.8340 C   0  0  0  0  0  0  0  0  0  0  0  0
   -6.5130   16.6770  -33.8800 C   0  0  0  0  0  0  0  0  0  0  0  0
   -5.7630   17.5280  -34.6810 C   0  0  0  0  0  0  0  0  0  0  0  0
   -5.7440   18.8890  -34.4440 C   0  0  0  0  0  0  0  0  0  0  0  0
   -5.8620   22.8110  -32.2450 N   0  0  0  0  0  0  0  0  0  0  0  0
   -5.1260   23.5130  -31.4020 C   0  0  0  0  0  0  0  0  0  0  0  0
   -5.3030   24.7890  -31.3490 N   0  0  0  0  0  0  0  0  0  0  0  0
    0.5650   22.9663  -28.4703 H   0  0  0  0  0  0  0  0  0  0  0  0
   -0.8306   23.1483  -29.5865 H   0  0  0  0  0  0  0  0  0  0  0  0
    0.4849   24.3714  -29.5865 H   0  0  0  0  0  0  0  0  0  0  0  0
    0.9906   25.5173  -27.4221 H   0  0  0  0  0  0  0  0  0  0  0  0
   -0.0764   26.9056  -25.6515 H   0  0  0  0  0  0  0  0  0  0  0  0
   -2.4939   26.5994  -25.2066 H   0  0  0  0  0  0  0  0  0  0  0  0
   -3.1670   22.3760  -28.0630 H   0  0  0  0  0  0  0  0  0  0  0  0
   -3.3417   20.9870  -30.0972 H   0  0  0  0  0  0  0  0  0  0  0  0
   -4.7760   19.7800  -31.7170 H   0  0  0  0  0  0  0  0  0  0  0  0
   -7.7913   19.0378  -31.7812 H   0  0  0  0  0  0  0  0  0  0  0  0
   -7.8440   16.6100  -32.1769 H   0  0  0  0  0  0  0  0  0  0  0  0
   -6.5346   15.5924  -34.0620 H   0  0  0  0  0  0  0  0  0  0  0  0
   -5.1768   17.1135  -35.5144 H   0  0  0  0  0  0  0  0  0  0  0  0
   -5.1375   19.5311  -35.0997 H   0  0  0  0  0  0  0  0  0  0  0  0
   -6.5620   23.2990  -32.8440 H   0  0  0  0  0  0  0  0  0  0  0  0
   -4.7060   25.3200  -30.6710 H   0  0  0  0  0  0  0  0  0  0  0  0
  1  2  1  0
  2  3  2  0
  3  4  1  0
  4  5  2  0
  5  6  1  0
  6  7  1  0
  6  8  2  0
  8  9  1  0
  9 10  1  0
 10 11  2  0
 10 12  1  0
 12 13  2  0
 13 14  1  0
 14 15  1  0
 15 16  2  0
 16 17  1  0
 17 18  2  0
 18 19  1  0
 19 20  2  0
 20 21  1  0
 21 22  2  0
 15 23  1  0
 23 24  1  0
 24 25  2  3
  8  2  1  0
 24 12  1  0
 22 17  1  0
  1 26  1  0
  1 27  1  0
  1 28  1  0
  3 29  1  0
  4 30  1  0
  5 31  1  0
  9 32  1  0
 13 33  1  0
 14 34  1  0
 18 35  1  0
 19 36  1  0
 20 37  1  0
 21 38  1  0
 22 39  1  0
 23 40  1  0
 25 41  1  0
M  END
>  <smiles>  (43) 
Cc1cccc(Cl)c1NC(=O)c1c[nH]c(=Nc2ccccc2)[nH]c1=N

>  <score_type>  (43) 
oracle

>  <origin>  (43) 
adgpu

>  <m_score__min__energy>  (43) 
-8.4800000000000004

>  <m_primary>  (43) 
energy

$$$$
43:0
     RDKit          3D

 53 55  0  0  0  0  0  0  0  0999 V2000
    0.8870   23.2130  -25.7830 C   0  0  0  0  0  0  0  0  0  0  0  0
   -0.0610   23.2870  -26.9530 C   0  0  0  0  0  0  0  0  0  0  0  0
   -0.6160   22.0830  -27.4300 C   0  0  0  0  0  0  0  0  0  0  0  0
   -1.5320   22.0800  -28.4810 C   0  0  0  0  0  0  0  0  0  0  0  0
   -1.9160   23.2820  -29.0860 C   0  0  0  0  0  0  0  0  0  0  0  0
   -2.8910   23.2410  -30.1460 N   0  0  0  0  0  0  0  0  0  0  0  0
   -3.8880   24.2570  -30.3470 C   0  0  0  0  0  0  0  0  0  0  0  0
   -3.9600   25.2520  -29.5720 O   0  0  0  0  0  0  0  0  0  0  0  0
   -4.8590   24.0800  -31.3870 N   0  0  0  0  0  0  0  0  0  0  0  0
   -5.7100   22.9340  -31.5330 C   0  0  0  0  0  0  0  0  0  0  0  0
   -6.9580   22.8510  -30.8970 C   0  0  0  0  0  0  0  0  0  0  0  0
   -7.7770   21.7400  -31.1060 C   0  0  0  0  0  0  0  0  0  0  0  0
   -7.3360   20.7120  -31.9470 C   0  0  0  0  0  0  0  0  0  0  0  0
   -8.3330   19.2950  -32.2460 S   0  0  0  0  0  0  0  0  0  0  0  0
   -9.1270   18.9810  -31.0060 O   0  0  0  0  0  0  0  0  0  0  0  0
   -9.2980   19.6170  -33.3490 O   0  0  0  0  0  0  0  0  0  0  0  0
   -7.3810   17.9070  -32.7130 N   0  0  0  0  0  0  0  0  0  0  0  0
   -6.5590   17.4550  -31.5770 C   0  0  0  0  0  0  0  0  0  0  0  0
   -6.5270   18.2530  -33.8660 C   0  0  0  0  0  0  0  0  0  0  0  0
   -6.1310   20.8200  -32.5690 N   0  0  0  0  0  0  0  0  0  0  0  0
   -5.3260   21.9000  -32.3910 C   0  0  0  0  0  0  0  0  0  0  0  0
   -1.3170   24.4900  -28.6710 C   0  0  0  0  0  0  0  0  0  0  0  0
   -1.6060   25.6710  -29.3520 O   0  0  0  0  0  0  0  0  0  0  0  0
   -0.4060   24.5130  -27.5900 C   0  0  0  0  0  0  0  0  0  0  0  0
    0.2230   26.1010  -27.0660 S   0  0  0  0  0  0  0  0  0  0  0  0
    1.5940   26.3970  -27.6090 O   0  0  0  0  0  0  0  0  0  0  0  0
   -0.7120   27.1770  -27.5440 O   0  0  0  0  0  0  0  0  0  0  0  0
    0.2720   26.1300  -25.2730 C   0  0  0  0  0  0  0  0  0  0  0  0
   -1.0150   25.6410  -24.6170 C   0  0  0  0  0  0  0  0  0  0  0  0
   -1.2460   27.0320  -24.0390 C   0  0  0  0  0  0  0  0  0  0  0  0
    0.0430   27.5170  -24.6830 C   0  0  0  0  0  0  0  0  0  0  0  0
    0.3152   23.2576  -24.8444 H   0  0  0  0  0  0  0  0  0  0  0  0
    1.4488   22.2683  -25.8255 H   0  0  0  0  0  0  0  0  0  0  0  0
    1.5886   24.0591  -25.8255 H   0  0  0  0  0  0  0  0  0  0  0  0
   -0.3219   21.1301  -26.9657 H   0  0  0  0  0  0  0  0  0  0  0  0
   -1.9547   21.1286  -28.8362 H   0  0  0  0  0  0  0  0  0  0  0  0
   -3.0290   22.3310  -30.6500 H   0  0  0  0  0  0  0  0  0  0  0  0
   -7.2913   23.6622  -30.2330 H   0  0  0  0  0  0  0  0  0  0  0  0
   -8.7589   21.6733  -30.6147 H   0  0  0  0  0  0  0  0  0  0  0  0
   -7.0552   17.7278  -30.6339 H   0  0  0  0  0  0  0  0  0  0  0  0
   -6.4368   16.3628  -31.6244 H   0  0  0  0  0  0  0  0  0  0  0  0
   -5.5713   17.9369  -31.6244 H   0  0  0  0  0  0  0  0  0  0  0  0
   -5.5640   18.6432  -33.5050 H   0  0  0  0  0  0  0  0  0  0  0  0
   -6.3530   17.3544  -34.4762 H   0  0  0  0  0  0  0  0  0  0  0  0
   -7.0275   19.0193  -34.4762 H   0  0  0  0  0  0  0  0  0  0  0  0
   -4.3664   21.9608  -32.9254 H   0  0  0  0  0  0  0  0  0  0  0  0
    1.2199   25.5983  -25.1038 H   0  0  0  0  0  0  0  0  0  0  0  0
   -1.7875   25.3165  -25.3297 H   0  0  0  0  0  0  0  0  0  0  0  0
   -1.0056   24.7588  -23.9601 H   0  0  0  0  0  0  0  0  0  0  0  0
   -2.1512   27.5301  -24.4166 H   0  0  0  0  0  0  0  0  0  0  0  0
   -1.4122   27.1648  -22.9598 H   0  0  0  0  0  0  0  0  0  0  0  0
   -0.1005   28.3066  -25.4352 H   0  0  0  0  0  0  0  0  0  0  0  0
    0.8225   27.9979  -24.0738 H   0  0  0  0  0  0  0  0  0  0  0  0
  1  2  1  0
  2  3  2  0
  3  4  1  0
  4  5  2  0
  5  6  1  0
  6  7  1  0
  7  8  2  0
  7  9  1  0
  9 10  1  0
 10 11  2  0
 11 12  1  0
 12 13  2  0
 13 14  1  0
 14 15  2  0
 14 16  2  0
 14 17  1  0
 17 18  1  0
 17 19  1  0
 13 20  1  0
 20 21  2  0
  5 22  1  0
 22 23  1  0
 22 24  2  0
 24 25  1  0
 25 26  2  0
 25 27  2  0
 25 28  1  0
 28 29  1  0
 29 30  1  0
 30 31  1  0
 24  2  1  0
 31 28  1  0
 21 10  1  0
  1 32  1  0
  1 33  1  0
  1 34  1  0
  3 35  1  0
  4 36  1  0
  6 37  1  0
 11 38  1  0
 12 39  1  0
 18 40  1  0
 18 41  1  0
 18 42  1  0
 19 43  1  0
 19 44  1  0
 19 45  1  0
 21 46  1  0
 28 47  1  0
 29 48  1  0
 29 49  1  0
 30 50  1  0
 30 51  1  0
 31 52  1  0
 31 53  1  0
M  CHG  2   9  -1  23  -1
M  END
>  <UniqueID>  (44) 
40

>  <SMILES>  (44) 
Cc1ccc(NC(=O)[N-]c2ccc(S(=O)(=O)N(C)C)nc2)c([O-])c1S(=O)(=O)C1CCC1

>  <Energy>  (44) 
123.16144000127221

>  <Genealogy>  (44) 
Cc1ccc(NC(=O)[N-]c2ccc(S(=O)(=O)N(C)C)nc2)c([O-])c1S(=O)(=O)C1CCC1 (protonated)
Cc1ccc(NC(=O)[N-]c2ccc(S(=O)(=O)N(C)C)nc2)c([O-])c1S(=O)(=O)C1CCC1 (3D coordinates assigned)
Cc1ccc(NC(=O)[N-]c2ccc(S(=O)(=O)N(C)C)nc2)c([O-])c1S(=O)(=O)C1CCC1 (nonaromatic ring conformer: 123.16144000127221 kcal/mol)

>  <smiles>  (44) 
Cc1ccc(NC(=O)Nc2ccc(S(=O)(=O)N(C)C)nc2)c(O)c1S(=O)(=O)C1CCC1

>  <score_type>  (44) 
oracle

>  <origin>  (44) 
adgpu

>  <m_score__min__energy>  (44) 
-13.699999999999999

>  <m_primary>  (44) 
energy

$$$$
44:0
     RDKit          3D

 52 55  0  0  0  0  0  0  0  0999 V2000
   -2.4580   18.6670  -26.4620 C   0  0  0  0  0  0  0  0  0  0  0  0
   -1.9170   19.2280  -27.6530 O   0  0  0  0  0  0  0  0  0  0  0  0
   -2.1910   20.5250  -28.1160 C   0  0  0  0  0  0  0  0  0  0  0  0
   -3.2260   21.3100  -27.5720 C   0  0  0  0  0  0  0  0  0  0  0  0
   -3.4610   22.6010  -28.0520 C   0  0  0  0  0  0  0  0  0  0  0  0
   -2.6520   23.1370  -29.0640 C   0  0  0  0  0  0  0  0  0  0  0  0
   -2.8390   24.5330  -29.4990 C   0  0  0  0  0  0  0  0  0  0  0  0
   -2.1480   25.4440  -28.9710 O   0  0  0  0  0  0  0  0  0  0  0  0
   -3.8160   24.8870  -30.4870 N   0  0  0  0  0  0  0  0  0  0  0  0
   -5.0030   24.1450  -30.8150 C   0  0  0  0  0  0  0  0  0  0  0  0
   -4.9940   23.3290  -31.9540 C   0  0  0  0  0  0  0  0  0  0  0  0
   -6.0920   22.5150  -32.2520 C   0  0  0  0  0  0  0  0  0  0  0  0
   -7.2170   22.5140  -31.4170 C   0  0  0  0  0  0  0  0  0  0  0  0
   -8.5640   21.4280  -31.7500 S   0  0  0  0  0  0  0  0  0  0  0  0
   -9.0500   20.7880  -30.4790 O   0  0  0  0  0  0  0  0  0  0  0  0
   -9.6990   22.2060  -32.3530 O   0  0  0  0  0  0  0  0  0  0  0  0
   -8.0650   20.2020  -32.8690 N   0  0  0  0  0  0  0  0  0  0  0  0
   -7.3610   19.1680  -32.5260 C   0  0  0  0  0  0  0  0  0  0  0  0
   -6.9400   18.9250  -31.2650 N   0  0  0  0  0  0  0  0  0  0  0  0
   -6.2190   17.7750  -31.1980 C   0  0  0  0  0  0  0  0  0  0  0  0
   -6.0680   17.1020  -32.4050 C   0  0  0  0  0  0  0  0  0  0  0  0
   -6.8650   17.9800  -33.6010 S   0  0  0  0  0  0  0  0  0  0  0  0
   -7.2330   23.3320  -30.2810 C   0  0  0  0  0  0  0  0  0  0  0  0
   -6.1290   24.1310  -29.9720 C   0  0  0  0  0  0  0  0  0  0  0  0
   -1.6430   22.3490  -29.6300 C   0  0  0  0  0  0  0  0  0  0  0  0
   -1.4120   21.0490  -29.1620 C   0  0  0  0  0  0  0  0  0  0  0  0
   -0.1290   20.0460  -29.9190 S   0  0  0  0  0  0  0  0  0  0  0  0
   -0.7920   20.2460  -31.5690 C   0  0  0  0  0  0  0  0  0  0  0  0
    0.0500   20.4980  -32.6560 C   0  0  0  0  0  0  0  0  0  0  0  0
   -0.5040   20.6230  -33.9320 C   0  0  0  0  0  0  0  0  0  0  0  0
   -1.8830   20.4850  -34.1090 C   0  0  0  0  0  0  0  0  0  0  0  0
   -2.6980   20.2440  -32.9940 C   0  0  0  0  0  0  0  0  0  0  0  0
   -4.1700   20.0280  -33.1470 C   0  0  0  0  0  0  0  0  0  0  0  0
   -2.1330   20.1240  -31.7630 N   0  0  0  0  0  0  0  0  0  0  0  0
   -1.9950   19.1471  -25.5873 H   0  0  0  0  0  0  0  0  0  0  0  0
   -3.5451   18.8336  -26.4391 H   0  0  0  0  0  0  0  0  0  0  0  0
   -2.2521   17.5867  -26.4391 H   0  0  0  0  0  0  0  0  0  0  0  0
   -3.8531   20.9044  -26.7644 H   0  0  0  0  0  0  0  0  0  0  0  0
   -4.2841   23.1993  -27.6342 H   0  0  0  0  0  0  0  0  0  0  0  0
   -4.1174   23.3284  -32.6185 H   0  0  0  0  0  0  0  0  0  0  0  0
   -6.0720   21.8733  -33.1452 H   0  0  0  0  0  0  0  0  0  0  0  0
   -5.7864   17.4037  -30.2572 H   0  0  0  0  0  0  0  0  0  0  0  0
   -5.5221   16.1586  -32.5533 H   0  0  0  0  0  0  0  0  0  0  0  0
   -8.1186   23.3458  -29.6287 H   0  0  0  0  0  0  0  0  0  0  0  0
   -6.1405   24.7525  -29.0645 H   0  0  0  0  0  0  0  0  0  0  0  0
   -1.0277   22.7531  -30.4474 H   0  0  0  0  0  0  0  0  0  0  0  0
    1.1356   20.5966  -32.5082 H   0  0  0  0  0  0  0  0  0  0  0  0
    0.1444   20.8298  -34.7962 H   0  0  0  0  0  0  0  0  0  0  0  0
   -2.3249   20.5646  -35.1132 H   0  0  0  0  0  0  0  0  0  0  0  0
   -4.6358   19.9596  -32.1529 H   0  0  0  0  0  0  0  0  0  0  0  0
   -4.6088   20.8714  -33.7003 H   0  0  0  0  0  0  0  0  0  0  0  0
   -4.3480   19.0941  -33.7003 H   0  0  0  0  0  0  0  0  0  0  0  0
  1  2  1  0
  2  3  1  0
  3  4  2  0
  4  5  1  0
  5  6  2  0
  6  7  1  0
  7  8  2  0
  7  9  1  0
  9 10  1  0
 10 11  2  0
 11 12  1  0
 12 13  2  0
 13 14  1  0
 14 15  2  0
 14 16  2  0
 14 17  1  0
 17 18  2  3
 18 19  1  0
 19 20  1  0
 20 21  2  0
 21 22  1  0
 13 23  1  0
 23 24  2  0
  6 25  1  0
 25 26  2  0
 26 27  1  0
 27 28  1  0
 28 29  2  0
 29 30  1  0
 30 31  2  0
 31 32  1  0
 32 33  1  0
 32 34  2  0
 26  3  1  0
 34 28  1  0
 24 10  1  0
 22 18  1  0
  1 35  1  0
  1 36  1  0
  1 37  1  0
  4 38  1  0
  5 39  1  0
 11 40  1  0
 12 41  1  0
 20 42  1  0
 21 43  1  0
 23 44  1  0
 24 45  1  0
 25 46  1  0
 29 47  1  0
 30 48  1  0
 31 49  1  0
 33 50  1  0
 33 51  1  0
 33 52  1  0
M  CHG  2   9  -1  19  -1
M  END
>  <UniqueID>  (45) 
41

>  <SMILES>  (45) 
COc1ccc(C(=O)[N-]c2ccc(S(=O)(=O)N=c3[n-]ccs3)cc2)cc1Sc1cccc(C)n1

>  <Energy>  (45) 
87.16495910005982

>  <Genealogy>  (45) 
COc1ccc(C(=O)[N-]c2ccc(S(=O)(=O)N=c3[n-]ccs3)cc2)cc1Sc1cccc(C)n1 (protonated)
COc1ccc(C(=O)[N-]c2ccc(S(=O)(=O)N=c3[n-]ccs3)cc2)cc1Sc1cccc(C)n1 (3D coordinates assigned)
COc1ccc(C(=O)[N-]c2ccc(S(=O)(=O)N=c3[n-]ccs3)cc2)cc1Sc1cccc(C)n1 (optimized conformer: 87.16495910005982 kcal/mol)

>  <smiles>  (45) 
COc1ccc(C(=O)Nc2ccc(S(=O)(=O)N=c3[nH]ccs3)cc2)cc1Sc1cccc(C)n1

>  <score_type>  (45) 
oracle

>  <origin>  (45) 
adgpu

>  <m_score__min__energy>  (45) 
-12.050000000000001

>  <m_primary>  (45) 
energy

$$$$
45:0
     RDKit          3D

 39 42  0  0  0  0  0  0  0  0999 V2000
   -3.9250   25.5410  -30.8300 N   0  0  0  0  0  0  0  0  0  0  0  0
   -5.1740   24.3540  -30.7000 S   0  0  0  0  0  0  0  0  0  0  0  0
   -6.3810   24.8070  -31.4730 O   0  0  0  0  0  0  0  0  0  0  0  0
   -5.5580   24.1920  -29.2560 O   0  0  0  0  0  0  0  0  0  0  0  0
   -4.5950   22.8200  -31.3400 C   0  0  0  0  0  0  0  0  0  0  0  0
   -4.6780   22.5520  -32.7140 C   0  0  0  0  0  0  0  0  0  0  0  0
   -4.2310   21.3270  -33.2190 C   0  0  0  0  0  0  0  0  0  0  0  0
   -3.7240   20.3490  -32.3480 C   0  0  0  0  0  0  0  0  0  0  0  0
   -3.2150   19.1160  -32.8640 N   0  0  0  0  0  0  0  0  0  0  0  0
   -3.8710   18.0280  -33.1620 C   0  0  0  0  0  0  0  0  0  0  0  0
   -3.2020   17.0340  -33.8110 N   0  0  0  0  0  0  0  0  0  0  0  0
   -3.8030   15.8740  -34.2030 C   0  0  0  0  0  0  0  0  0  0  0  0
   -5.1630   15.6650  -33.9230 C   0  0  0  0  0  0  0  0  0  0  0  0
   -5.8190   14.3970  -34.3130 C   0  0  0  0  0  0  0  0  0  0  0  0
   -7.1940   14.3650  -34.6060 C   0  0  0  0  0  0  0  0  0  0  0  0
   -7.8120   13.1600  -34.9560 C   0  0  0  0  0  0  0  0  0  0  0  0
   -7.0660   11.9800  -35.0090 C   0  0  0  0  0  0  0  0  0  0  0  0
   -5.7020   12.0000  -34.7050 C   0  0  0  0  0  0  0  0  0  0  0  0
   -5.0800   13.2020  -34.3540 C   0  0  0  0  0  0  0  0  0  0  0  0
   -5.8220   16.6530  -33.2560 N   0  0  0  0  0  0  0  0  0  0  0  0
   -7.1020   16.7250  -32.8400 C   0  0  0  0  0  0  0  0  0  0  0  0
   -7.3480   17.8620  -32.1550 N   0  0  0  0  0  0  0  0  0  0  0  0
   -6.1750   18.5330  -32.1590 C   0  0  0  0  0  0  0  0  0  0  0  0
   -5.2360   17.7980  -32.8650 C   0  0  0  0  0  0  0  0  0  0  0  0
   -3.6160   20.6280  -30.9810 C   0  0  0  0  0  0  0  0  0  0  0  0
   -4.0630   21.8520  -30.4770 C   0  0  0  0  0  0  0  0  0  0  0  0
   -3.8830   26.0430  -29.9140 H   0  0  0  0  0  0  0  0  0  0  0  0
   -5.0957   23.3072  -33.3961 H   0  0  0  0  0  0  0  0  0  0  0  0
   -4.2766   21.1291  -34.3001 H   0  0  0  0  0  0  0  0  0  0  0  0
   -3.2246   15.1053  -34.7364 H   0  0  0  0  0  0  0  0  0  0  0  0
   -7.7858   15.2911  -34.5598 H   0  0  0  0  0  0  0  0  0  0  0  0
   -8.8867   13.1414  -35.1898 H   0  0  0  0  0  0  0  0  0  0  0  0
   -7.5526   11.0344  -35.2902 H   0  0  0  0  0  0  0  0  0  0  0  0
   -5.1172   11.0691  -34.7419 H   0  0  0  0  0  0  0  0  0  0  0  0
   -4.0077   13.2125  -34.1089 H   0  0  0  0  0  0  0  0  0  0  0  0
   -7.8569   15.9491  -33.0355 H   0  0  0  0  0  0  0  0  0  0  0  0
   -5.9946   19.5062  -31.6790 H   0  0  0  0  0  0  0  0  0  0  0  0
   -3.1781   19.8819  -30.3016 H   0  0  0  0  0  0  0  0  0  0  0  0
   -3.9972   22.0569  -29.3983 H   0  0  0  0  0  0  0  0  0  0  0  0
  1  2  1  0
  2  3  2  0
  2  4  2  0
  2  5  1  0
  5  6  2  0
  6  7  1  0
  7  8  2  0
  8  9  1  0
  9 10  2  3
 10 11  1  0
 11 12  1  0
 12 13  2  0
 13 14  1  0
 14 15  2  0
 15 16  1  0
 16 17  2  0
 17 18  1  0
 18 19  2  0
 13 20  1  0
 20 21  1  0
 21 22  2  0
 22 23  1  0
 23 24  2  0
  8 25  1  0
 25 26  2  0
 26  5  1  0
 24 10  1  0
 19 14  1  0
 24 20  1  0
  1 27  1  0
  6 28  1  0
  7 29  1  0
 12 30  1  0
 15 31  1  0
 16 32  1  0
 17 33  1  0
 18 34  1  0
 19 35  1  0
 21 36  1  0
 23 37  1  0
 25 38  1  0
 26 39  1  0
M  CHG  2   1  -1  11  -1
M  END
>  <UniqueID>  (46) 
42

>  <SMILES>  (46) 
[NH-]S(=O)(=O)c1ccc(N=c2[n-]cc(-c3ccccc3)n3cncc23)cc1

>  <Energy>  (46) 
101.43830617039382

>  <Genealogy>  (46) 
[NH-]S(=O)(=O)c1ccc(N=c2[n-]cc(-c3ccccc3)n3cncc23)cc1 (protonated)
[NH-]S(=O)(=O)c1ccc(N=c2[n-]cc(-c3ccccc3)n3cncc23)cc1 (3D coordinates assigned)
[NH-]S(=O)(=O)c1ccc(N=c2[n-]cc(-c3ccccc3)n3cncc23)cc1 (optimized conformer: 101.43830617039382 kcal/mol)

>  <smiles>  (46) 
NS(=O)(=O)c1ccc(N=c2[nH]cc(-c3ccccc3)n3cncc23)cc1

>  <score_type>  (46) 
oracle

>  <origin>  (46) 
adgpu

>  <m_score__min__energy>  (46) 
-9.8100000000000005

>  <m_primary>  (46) 
energy

$$$$
46:0
     RDKit          3D

 51 55  0  0  1  0  0  0  0  0999 V2000
   -2.2140   22.9480  -28.2850 C   0  0  0  0  0  0  0  0  0  0  0  0
   -2.0720   23.9950  -29.1720 C   0  0  0  0  0  0  0  0  0  0  0  0
   -3.2300   24.5390  -29.7380 C   0  0  0  0  0  0  0  0  0  0  0  0
   -4.4830   24.0190  -29.3990 C   0  0  0  0  0  0  0  0  0  0  0  0
   -5.6810   24.6160  -30.0160 C   0  0  0  0  0  0  0  0  0  0  0  0
   -5.7430   24.4630  -31.5160 C   0  0  0  0  0  0  0  0  0  0  0  0
   -5.9790   23.0850  -31.8100 N   0  0  0  0  0  0  0  0  0  0  0  0
   -7.1180   22.5120  -31.9500 C   0  0  0  0  0  0  0  0  0  0  0  0
   -8.2140   23.2500  -31.8140 N   0  0  0  0  0  0  0  0  0  0  0  0
   -9.4740   22.7930  -31.9310 C   0  0  0  0  0  0  0  0  0  0  0  0
   -9.6120   21.4840  -32.2070 N   0  0  0  0  0  0  0  0  0  0  0  0
   -8.5200   20.6950  -32.3540 C   0  0  0  0  0  0  0  0  0  0  0  0
   -8.3960   18.9330  -32.7160 S   0  0  0  0  0  0  0  0  0  0  0  0
   -6.6000   18.9420  -32.6840 C   0  0  0  0  0  0  0  0  0  0  0  0
   -5.7470   17.7770  -32.9090 C   0  0  0  0  0  0  0  0  0  0  0  0
   -5.7560   16.7580  -31.9790 C   0  0  0  0  0  0  0  0  0  0  0  0
   -4.9720   15.6200  -32.1300 C   0  0  0  0  0  0  0  0  0  0  0  0
   -4.1730   15.5390  -33.2520 C   0  0  0  0  0  0  0  0  0  0  0  0
   -4.1480   16.5560  -34.2040 C   0  0  0  0  0  0  0  0  0  0  0  0
   -4.9440   17.6880  -34.0310 C   0  0  0  0  0  0  0  0  0  0  0  0
   -6.2500   20.2220  -32.4120 C   0  0  0  0  0  0  0  0  0  0  0  0
   -4.7890   20.5710  -32.3150 C   0  0  0  0  0  0  0  0  0  0  0  0
   -4.1500   20.4870  -31.0840 C   0  0  0  0  0  0  0  0  0  0  0  0
   -2.7990   20.8110  -31.0100 C   0  0  0  0  0  0  0  0  0  0  0  0
   -2.1160   21.2090  -32.1510 C   0  0  0  0  0  0  0  0  0  0  0  0
   -2.7730   21.2870  -33.3720 C   0  0  0  0  0  0  0  0  0  0  0  0
   -4.1160   20.9680  -33.4620 C   0  0  0  0  0  0  0  0  0  0  0  0
   -7.2290   21.1330  -32.2400 C   0  0  0  0  0  0  0  0  0  0  0  0
   -4.5980   22.9660  -28.5040 C   0  0  0  0  0  0  0  0  0  0  0  0
   -3.4570   22.4340  -27.9490 C   0  0  0  0  0  0  0  0  0  0  0  0
   -1.3141   22.5078  -27.8307 H   0  0  0  0  0  0  0  0  0  0  0  0
   -1.0776   24.3904  -29.4267 H   0  0  0  0  0  0  0  0  0  0  0  0
   -3.1549   25.3750  -30.4490 H   0  0  0  0  0  0  0  0  0  0  0  0
   -6.5695   24.1336  -29.5826 H   0  0  0  0  0  0  0  0  0  0  0  0
   -5.6399   25.6955  -29.8088 H   0  0  0  0  0  0  0  0  0  0  0  0
   -6.5617   25.0764  -31.9202 H   0  0  0  0  0  0  0  0  0  0  0  0
   -4.7992   24.7950  -31.9732 H   0  0  0  0  0  0  0  0  0  0  0  0
   -8.1200   24.2710  -31.5970 H   0  0  0  0  0  0  0  0  0  0  0  0
  -10.3443   23.4543  -31.8076 H   0  0  0  0  0  0  0  0  0  0  0  0
   -6.4017   16.8486  -31.0931 H   0  0  0  0  0  0  0  0  0  0  0  0
   -4.9880   14.8134  -31.3822 H   0  0  0  0  0  0  0  0  0  0  0  0
   -3.5409   14.6507  -33.3983 H   0  0  0  0  0  0  0  0  0  0  0  0
   -3.5020   16.4663  -35.0898 H   0  0  0  0  0  0  0  0  0  0  0  0
   -4.9331   18.4975  -34.7757 H   0  0  0  0  0  0  0  0  0  0  0  0
   -4.7012   20.1707  -30.1861 H   0  0  0  0  0  0  0  0  0  0  0  0
   -2.2716   20.7517  -30.0465 H   0  0  0  0  0  0  0  0  0  0  0  0
   -1.0479   21.4642  -32.0877 H   0  0  0  0  0  0  0  0  0  0  0  0
   -2.2235   21.6036  -34.2708 H   0  0  0  0  0  0  0  0  0  0  0  0
   -4.6417   21.0280  -34.4264 H   0  0  0  0  0  0  0  0  0  0  0  0
   -5.5869   22.5620  -28.2417 H   0  0  0  0  0  0  0  0  0  0  0  0
   -3.5311   21.5988  -27.2370 H   0  0  0  0  0  0  0  0  0  0  0  0
  1  2  2  0
  2  3  1  0
  3  4  2  0
  4  5  1  0
  5  6  1  0
  6  7  1  0
  7  8  2  0
  8  9  1  0
  9 10  1  0
 10 11  2  0
 11 12  1  0
 12 13  1  0
 13 14  1  0
 14 15  1  0
 15 16  2  0
 16 17  1  0
 17 18  2  0
 18 19  1  0
 19 20  2  0
 14 21  2  0
 21 22  1  0
 22 23  2  0
 23 24  1  0
 24 25  2  0
 25 26  1  0
 26 27  2  0
 21 28  1  0
  4 29  1  0
 29 30  2  0
 30  1  1  0
 28  8  1  0
 28 12  2  0
 20 15  1  0
 27 22  1  0
  1 31  1  0
  2 32  1  0
  3 33  1  0
  5 34  1  0
  5 35  1  0
  6 36  1  0
  6 37  1  0
  9 38  1  0
 10 39  1  0
 16 40  1  0
 17 41  1  0
 18 42  1  0
 19 43  1  0
 20 44  1  0
 23 45  1  0
 24 46  1  0
 25 47  1  0
 26 48  1  0
 27 49  1  0
 29 50  1  0
 30 51  1  0
M  END
>  <smiles>  (47) 
c1ccc(CCN=c2[nH]cnc3sc(-c4ccccc4)c(-c4ccccc4)c23)cc1

>  <score_type>  (47) 
oracle

>  <origin>  (47) 
adgpu

>  <m_score__min__energy>  (47) 
-9.4900000000000002

>  <m_primary>  (47) 
energy

$$$$
47:0
     RDKit          3D

 56 59  0  0  0  0  0  0  0  0999 V2000
   -0.7130   21.2230  -32.2130 O   0  0  0  0  0  0  0  0  0  0  0  0
   -1.1110   21.2260  -33.4090 C   0  0  0  0  0  0  0  0  0  0  0  0
   -2.5150   21.2700  -33.7070 N   0  0  0  0  0  0  0  0  0  0  0  0
   -3.5300   21.4470  -32.7050 C   0  0  0  0  0  0  0  0  0  0  0  0
   -3.4840   22.5540  -31.8400 C   0  0  0  0  0  0  0  0  0  0  0  0
   -4.5060   22.7760  -30.9100 C   0  0  0  0  0  0  0  0  0  0  0  0
   -4.4350   24.1870  -29.8570 S   0  0  0  0  0  0  0  0  0  0  0  0
   -5.8260   24.4990  -29.3800 O   0  0  0  0  0  0  0  0  0  0  0  0
   -3.9110   25.3720  -30.6200 O   0  0  0  0  0  0  0  0  0  0  0  0
   -3.4030   23.8560  -28.4880 N   0  0  0  0  0  0  0  0  0  0  0  0
   -2.3290   24.8720  -28.4110 C   0  0  0  0  0  0  0  0  0  0  0  0
   -1.6890   24.9090  -27.0200 C   0  0  0  0  0  0  0  0  0  0  0  0
   -2.7200   25.3020  -25.9470 C   0  0  0  0  0  0  0  0  0  0  0  0
   -4.1620   24.9520  -26.3510 C   0  0  0  0  0  0  0  0  0  0  0  0
   -4.1990   23.7030  -27.2440 C   0  0  0  0  0  0  0  0  0  0  0  0
   -5.5950   21.8990  -30.8560 C   0  0  0  0  0  0  0  0  0  0  0  0
   -5.6560   20.8010  -31.7170 C   0  0  0  0  0  0  0  0  0  0  0  0
   -4.6290   20.5630  -32.6430 C   0  0  0  0  0  0  0  0  0  0  0  0
   -4.6950   19.4040  -33.4910 N   0  0  0  0  0  0  0  0  0  0  0  0
   -3.5150   18.5450  -33.6580 C   0  0  0  0  0  0  0  0  0  0  0  0
   -3.9400   17.0750  -33.6290 C   0  0  0  0  0  0  0  0  0  0  0  0
   -5.0510   16.7520  -34.6550 C   0  0  0  0  0  0  0  0  0  0  0  0
   -5.7410   17.9960  -35.2400 C   0  0  0  0  0  0  0  0  0  0  0  0
   -5.9530   19.0810  -34.1780 C   0  0  0  0  0  0  0  0  0  0  0  0
   -0.1290   21.1520  -34.5010 C   0  0  0  0  0  0  0  0  0  0  0  0
    0.1960   20.0200  -35.2240 C   0  0  0  0  0  0  0  0  0  0  0  0
    1.1500   20.4220  -36.1330 C   0  0  0  0  0  0  0  0  0  0  0  0
    1.3490   21.7700  -35.9100 C   0  0  0  0  0  0  0  0  0  0  0  0
    0.5720   22.1750  -34.9320 O   0  0  0  0  0  0  0  0  0  0  0  0
   -2.8210   21.0900  -34.6900 H   0  0  0  0  0  0  0  0  0  0  0  0
   -2.6362   23.2528  -31.8946 H   0  0  0  0  0  0  0  0  0  0  0  0
   -1.5548   24.6306  -29.1542 H   0  0  0  0  0  0  0  0  0  0  0  0
   -2.7722   25.8583  -28.6130 H   0  0  0  0  0  0  0  0  0  0  0  0
   -1.2857   23.9134  -26.7833 H   0  0  0  0  0  0  0  0  0  0  0  0
   -0.8854   25.6601  -27.0246 H   0  0  0  0  0  0  0  0  0  0  0  0
   -2.4772   24.7709  -25.0148 H   0  0  0  0  0  0  0  0  0  0  0  0
   -2.6668   26.3933  -25.8199 H   0  0  0  0  0  0  0  0  0  0  0  0
   -4.7533   24.7620  -25.4431 H   0  0  0  0  0  0  0  0  0  0  0  0
   -4.5813   25.7976  -26.9159 H   0  0  0  0  0  0  0  0  0  0  0  0
   -3.7981   22.8522  -26.6736 H   0  0  0  0  0  0  0  0  0  0  0  0
   -5.2458   23.5413  -27.5408 H   0  0  0  0  0  0  0  0  0  0  0  0
   -6.4054   22.0749  -30.1333 H   0  0  0  0  0  0  0  0  0  0  0  0
   -6.5163   20.1172  -31.6688 H   0  0  0  0  0  0  0  0  0  0  0  0
   -3.0338   18.7677  -34.6218 H   0  0  0  0  0  0  0  0  0  0  0  0
   -2.8061   18.7359  -32.8389 H   0  0  0  0  0  0  0  0  0  0  0  0
   -3.0623   16.4509  -33.8532 H   0  0  0  0  0  0  0  0  0  0  0  0
   -4.3437   16.8667  -32.6272 H   0  0  0  0  0  0  0  0  0  0  0  0
   -4.6028   16.1832  -35.4830 H   0  0  0  0  0  0  0  0  0  0  0  0
   -5.8236   16.1810  -34.1193 H   0  0  0  0  0  0  0  0  0  0  0  0
   -5.1145   18.4046  -36.0465 H   0  0  0  0  0  0  0  0  0  0  0  0
   -6.7273   17.6928  -35.6210 H   0  0  0  0  0  0  0  0  0  0  0  0
   -6.3397   19.9887  -34.6644 H   0  0  0  0  0  0  0  0  0  0  0  0
   -6.6702   18.7048  -33.4336 H   0  0  0  0  0  0  0  0  0  0  0  0
   -0.2200   19.0093  -35.0997 H   0  0  0  0  0  0  0  0  0  0  0  0
    1.6520   19.7954  -36.8849 H   0  0  0  0  0  0  0  0  0  0  0  0
    2.0515   22.4076  -36.4668 H   0  0  0  0  0  0  0  0  0  0  0  0
  1  2  2  0
  2  3  1  0
  3  4  1  0
  4  5  2  0
  5  6  1  0
  6  7  1  0
  7  8  2  0
  7  9  2  0
  7 10  1  0
 10 11  1  0
 11 12  1  0
 12 13  1  0
 13 14  1  0
 14 15  1  0
  6 16  2  0
 16 17  1  0
 17 18  2  0
 18 19  1  0
 19 20  1  0
 20 21  1  0
 21 22  1  0
 22 23  1  0
 23 24  1  0
  2 25  1  0
 25 26  2  0
 26 27  1  0
 27 28  2  0
 28 29  1  0
 18  4  1  0
 24 19  1  0
 29 25  1  0
 15 10  1  0
  3 30  1  0
  5 31  1  0
 11 32  1  0
 11 33  1  0
 12 34  1  0
 12 35  1  0
 13 36  1  0
 13 37  1  0
 14 38  1  0
 14 39  1  0
 15 40  1  0
 15 41  1  0
 16 42  1  0
 17 43  1  0
 20 44  1  0
 20 45  1  0
 21 46  1  0
 21 47  1  0
 22 48  1  0
 22 49  1  0
 23 50  1  0
 23 51  1  0
 24 52  1  0
 24 53  1  0
 26 54  1  0
 27 55  1  0
 28 56  1  0
M  END
>  <UniqueID>  (48) 
43

>  <SMILES>  (48) 
O=C(Nc1cc(S(=O)(=O)N2CCCCC2)ccc1N1CCCCC1)c1ccco1

>  <Energy>  (48) 
96.46196000920821

>  <Genealogy>  (48) 
O=C(Nc1cc(S(=O)(=O)N2CCCCC2)ccc1N1CCCCC1)c1ccco1 (3D coordinates assigned)
O=C(Nc1cc(S(=O)(=O)N2CCCCC2)ccc1N1CCCCC1)c1ccco1 (nonaromatic ring conformer: 96.46196000920821 kcal/mol)

>  <smiles>  (48) 
O=C(Nc1cc(S(=O)(=O)N2CCCCC2)ccc1N1CCCCC1)c1ccco1

>  <score_type>  (48) 
oracle

>  <origin>  (48) 
adgpu

>  <m_score__min__energy>  (48) 
-9.9399999999999995

>  <m_primary>  (48) 
energy

$$$$
48:0
     RDKit          3D

 45 47  0  0  0  0  0  0  0  0999 V2000
   -6.3020   25.4460  -29.7900 N   0  0  0  0  0  0  0  0  0  0  0  0
   -6.4530   24.1430  -30.3660 C   0  0  0  0  0  0  0  0  0  0  0  0
   -7.5710   23.8750  -31.1690 C   0  0  0  0  0  0  0  0  0  0  0  0
   -7.7080   22.6400  -31.8070 C   0  0  0  0  0  0  0  0  0  0  0  0
   -6.7220   21.6590  -31.6600 C   0  0  0  0  0  0  0  0  0  0  0  0
   -6.9160   20.0980  -32.4560 S   0  0  0  0  0  0  0  0  0  0  0  0
   -6.6190   19.0160  -31.4540 O   0  0  0  0  0  0  0  0  0  0  0  0
   -8.3380   19.9350  -32.9170 O   0  0  0  0  0  0  0  0  0  0  0  0
   -5.8140   19.9510  -33.8080 N   0  0  0  0  0  0  0  0  0  0  0  0
   -6.1040   18.7640  -34.6390 C   0  0  0  0  0  0  0  0  0  0  0  0
   -5.6780   17.4460  -33.9660 C   0  0  0  0  0  0  0  0  0  0  0  0
   -4.3400   17.5560  -33.2140 C   0  0  0  0  0  0  0  0  0  0  0  0
   -3.5570   18.8040  -33.6200 C   0  0  0  0  0  0  0  0  0  0  0  0
   -4.3960   20.0730  -33.3840 C   0  0  0  0  0  0  0  0  0  0  0  0
   -5.6080   21.9120  -30.8510 C   0  0  0  0  0  0  0  0  0  0  0  0
   -5.4750   23.1370  -30.1820 C   0  0  0  0  0  0  0  0  0  0  0  0
   -4.3400   23.3390  -29.3280 N   0  0  0  0  0  0  0  0  0  0  0  0
   -3.3780   24.3800  -29.5680 C   0  0  0  0  0  0  0  0  0  0  0  0
   -3.6110   25.2520  -30.4510 O   0  0  0  0  0  0  0  0  0  0  0  0
   -2.1250   24.4590  -28.7790 C   0  0  0  0  0  0  0  0  0  0  0  0
   -2.1480   24.9220  -27.4520 C   0  0  0  0  0  0  0  0  0  0  0  0
   -0.9660   25.0000  -26.7140 C   0  0  0  0  0  0  0  0  0  0  0  0
    0.2370   24.6220  -27.3100 C   0  0  0  0  0  0  0  0  0  0  0  0
    0.2520   24.1890  -28.5970 N   0  0  0  0  0  0  0  0  0  0  0  0
   -0.8850   24.1000  -29.3370 C   0  0  0  0  0  0  0  0  0  0  0  0
   -5.4010   25.7270  -29.3440 H   0  0  0  0  0  0  0  0  0  0  0  0
   -7.1000   26.1160  -29.7310 H   0  0  0  0  0  0  0  0  0  0  0  0
   -8.3469   24.6441  -31.2976 H   0  0  0  0  0  0  0  0  0  0  0  0
   -8.5940   22.4383  -32.4269 H   0  0  0  0  0  0  0  0  0  0  0  0
   -7.1862   18.7262  -34.8323 H   0  0  0  0  0  0  0  0  0  0  0  0
   -5.5264   18.8623  -35.5700 H   0  0  0  0  0  0  0  0  0  0  0  0
   -6.4587   17.1506  -33.2496 H   0  0  0  0  0  0  0  0  0  0  0  0
   -5.5455   16.6992  -34.7628 H   0  0  0  0  0  0  0  0  0  0  0  0
   -4.5422   17.5992  -32.1336 H   0  0  0  0  0  0  0  0  0  0  0  0
   -3.7327   16.6752  -33.4698 H   0  0  0  0  0  0  0  0  0  0  0  0
   -2.6362   18.8633  -33.0212 H   0  0  0  0  0  0  0  0  0  0  0  0
   -3.3123   18.7356  -34.6903 H   0  0  0  0  0  0  0  0  0  0  0  0
   -4.3758   20.3053  -32.3090 H   0  0  0  0  0  0  0  0  0  0  0  0
   -3.9486   20.8675  -33.9993 H   0  0  0  0  0  0  0  0  0  0  0  0
   -4.8298   21.1427  -30.7391 H   0  0  0  0  0  0  0  0  0  0  0  0
   -4.3580   22.8890  -28.3850 H   0  0  0  0  0  0  0  0  0  0  0  0
   -3.1012   25.2240  -26.9935 H   0  0  0  0  0  0  0  0  0  0  0  0
   -0.9830   25.3558  -25.6733 H   0  0  0  0  0  0  0  0  0  0  0  0
    1.1745   24.6747  -26.7370 H   0  0  0  0  0  0  0  0  0  0  0  0
   -0.8348   23.7455  -30.3771 H   0  0  0  0  0  0  0  0  0  0  0  0
  1  2  1  0
  2  3  2  0
  3  4  1  0
  4  5  2  0
  5  6  1  0
  6  7  2  0
  6  8  2  0
  6  9  1  0
  9 10  1  0
 10 11  1  0
 11 12  1  0
 12 13  1  0
 13 14  1  0
  5 15  1  0
 15 16  2  0
 16 17  1  0
 17 18  1  0
 18 19  2  0
 18 20  1  0
 20 21  2  0
 21 22  1  0
 22 23  2  0
 23 24  1  0
 24 25  2  0
 16  2  1  0
 25 20  1  0
 14  9  1  0
  1 26  1  0
  1 27  1  0
  3 28  1  0
  4 29  1  0
 10 30  1  0
 10 31  1  0
 11 32  1  0
 11 33  1  0
 12 34  1  0
 12 35  1  0
 13 36  1  0
 13 37  1  0
 14 38  1  0
 14 39  1  0
 15 40  1  0
 17 41  1  0
 21 42  1  0
 22 43  1  0
 23 44  1  0
 25 45  1  0
M  END
>  <UniqueID>  (49) 
44

>  <SMILES>  (49) 
Nc1ccc(S(=O)(=O)N2CCCCC2)cc1NC(=O)c1cccnc1

>  <Energy>  (49) 
61.53619382212436

>  <Genealogy>  (49) 
Nc1ccc(S(=O)(=O)N2CCCCC2)cc1NC(=O)c1cccnc1 (3D coordinates assigned)
Nc1ccc(S(=O)(=O)N2CCCCC2)cc1NC(=O)c1cccnc1 (nonaromatic ring conformer: 61.53619382212436 kcal/mol)

>  <smiles>  (49) 
Nc1ccc(S(=O)(=O)N2CCCCC2)cc1NC(=O)c1cccnc1

>  <score_type>  (49) 
oracle

>  <origin>  (49) 
adgpu

>  <m_score__min__energy>  (49) 
-9.0299999999999994

>  <m_primary>  (49) 
energy

$$$$
